# generated using pymatgen
data_Nd11Hg45
_symmetry_space_group_name_H-M   'P 1'
_cell_length_a   15.83356333
_cell_length_b   15.83356333
_cell_length_c   15.83356333
_cell_angle_alpha   60.00000000
_cell_angle_beta   60.00000000
_cell_angle_gamma   60.00000000
_symmetry_Int_Tables_number   1
_chemical_formula_structural   Nd11Hg45
_chemical_formula_sum   'Nd22 Hg90'
_cell_volume   2806.86155715
_cell_formula_units_Z   2
loop_
 _symmetry_equiv_pos_site_id
 _symmetry_equiv_pos_as_xyz
  1  'x, y, z'
loop_
 _atom_site_type_symbol
 _atom_site_label
 _atom_site_symmetry_multiplicity
 _atom_site_fract_x
 _atom_site_fract_y
 _atom_site_fract_z
 _atom_site_occupancy
  Nd  Nd0  1  0.00000000  0.00000000  0.00000000  1
  Nd  Nd1  1  0.01573600  0.32976100  0.63876600  1
  Nd  Nd2  1  0.01573600  0.01573600  0.63876600  1
  Nd  Nd3  1  0.32976100  0.01573600  0.63876600  1
  Nd  Nd4  1  0.01573600  0.63876600  0.32976100  1
  Nd  Nd5  1  0.32976100  0.63876600  0.01573600  1
  Nd  Nd6  1  0.01573600  0.63876600  0.01573600  1
  Nd  Nd7  1  0.63876600  0.01573600  0.01573600  1
  Nd  Nd8  1  0.63876600  0.32976100  0.01573600  1
  Nd  Nd9  1  0.63876600  0.01573600  0.32976100  1
  Nd  Nd10  1  0.32976100  0.01573600  0.01573600  1
  Nd  Nd11  1  0.01573600  0.01573600  0.32976100  1
  Nd  Nd12  1  0.01573600  0.32976100  0.01573600  1
  Nd  Nd13  1  0.25000000  0.25000000  0.25000000  1
  Nd  Nd14  1  0.40581400  0.40581400  0.78255900  1
  Nd  Nd15  1  0.40581400  0.78255900  0.40581400  1
  Nd  Nd16  1  0.78255900  0.40581400  0.40581400  1
  Nd  Nd17  1  0.40581400  0.40581400  0.40581400  1
  Nd  Nd18  1  0.66180900  0.66180900  0.01457200  1
  Nd  Nd19  1  0.66180900  0.01457200  0.66180900  1
  Nd  Nd20  1  0.01457200  0.66180900  0.66180900  1
  Nd  Nd21  1  0.66180900  0.66180900  0.66180900  1
  Hg  Hg0  1  0.08295000  0.08295000  0.75115100  1
  Hg  Hg1  1  0.08295000  0.75115100  0.08295000  1
  Hg  Hg2  1  0.75115100  0.08295000  0.08295000  1
  Hg  Hg3  1  0.08295000  0.08295000  0.08295000  1
  Hg  Hg4  1  0.91457900  0.91457900  0.25626200  1
  Hg  Hg5  1  0.91457900  0.25626200  0.91457900  1
  Hg  Hg6  1  0.25626200  0.91457900  0.91457900  1
  Hg  Hg7  1  0.91457900  0.91457900  0.91457900  1
  Hg  Hg8  1  0.15350800  0.15350800  0.84649200  1
  Hg  Hg9  1  0.84649200  0.15350800  0.84649200  1
  Hg  Hg10  1  0.15350800  0.84649200  0.84649200  1
  Hg  Hg11  1  0.84649200  0.84649200  0.15350800  1
  Hg  Hg12  1  0.15350800  0.84649200  0.15350800  1
  Hg  Hg13  1  0.84649200  0.15350800  0.15350800  1
  Hg  Hg14  1  0.39186900  0.19965500  0.01660800  1
  Hg  Hg15  1  0.39186900  0.39186900  0.01660800  1
  Hg  Hg16  1  0.19965500  0.39186900  0.01660800  1
  Hg  Hg17  1  0.39186900  0.01660800  0.19965500  1
  Hg  Hg18  1  0.19965500  0.01660800  0.39186900  1
  Hg  Hg19  1  0.39186900  0.01660800  0.39186900  1
  Hg  Hg20  1  0.01660800  0.39186900  0.39186900  1
  Hg  Hg21  1  0.01660800  0.19965500  0.39186900  1
  Hg  Hg22  1  0.01660800  0.39186900  0.19965500  1
  Hg  Hg23  1  0.19965500  0.39186900  0.39186900  1
  Hg  Hg24  1  0.39186900  0.39186900  0.19965500  1
  Hg  Hg25  1  0.39186900  0.19965500  0.39186900  1
  Hg  Hg26  1  0.16221700  0.16221700  0.51335000  1
  Hg  Hg27  1  0.16221700  0.51335000  0.16221700  1
  Hg  Hg28  1  0.51335000  0.16221700  0.16221700  1
  Hg  Hg29  1  0.16221700  0.16221700  0.16221700  1
  Hg  Hg30  1  0.25853700  0.61426600  0.86865900  1
  Hg  Hg31  1  0.25853700  0.25853700  0.86865900  1
  Hg  Hg32  1  0.61426600  0.25853700  0.86865900  1
  Hg  Hg33  1  0.25853700  0.86865900  0.61426600  1
  Hg  Hg34  1  0.61426600  0.86865900  0.25853700  1
  Hg  Hg35  1  0.25853700  0.86865900  0.25853700  1
  Hg  Hg36  1  0.86865900  0.25853700  0.25853700  1
  Hg  Hg37  1  0.86865900  0.61426600  0.25853700  1
  Hg  Hg38  1  0.86865900  0.25853700  0.61426600  1
  Hg  Hg39  1  0.61426600  0.25853700  0.25853700  1
  Hg  Hg40  1  0.25853700  0.25853700  0.61426600  1
  Hg  Hg41  1  0.25853700  0.61426600  0.25853700  1
  Hg  Hg42  1  0.50000000  0.50000000  0.50000000  1
  Hg  Hg43  1  0.64209900  0.44952200  0.26628000  1
  Hg  Hg44  1  0.64209900  0.64209900  0.26628000  1
  Hg  Hg45  1  0.44952200  0.64209900  0.26628000  1
  Hg  Hg46  1  0.64209900  0.26628000  0.44952200  1
  Hg  Hg47  1  0.44952200  0.26628000  0.64209900  1
  Hg  Hg48  1  0.64209900  0.26628000  0.64209900  1
  Hg  Hg49  1  0.26628000  0.64209900  0.64209900  1
  Hg  Hg50  1  0.26628000  0.44952200  0.64209900  1
  Hg  Hg51  1  0.26628000  0.64209900  0.44952200  1
  Hg  Hg52  1  0.44952200  0.64209900  0.64209900  1
  Hg  Hg53  1  0.64209900  0.64209900  0.44952200  1
  Hg  Hg54  1  0.64209900  0.44952200  0.64209900  1
  Hg  Hg55  1  0.51183200  0.83720800  0.13912800  1
  Hg  Hg56  1  0.51183200  0.51183200  0.13912800  1
  Hg  Hg57  1  0.83720800  0.51183200  0.13912800  1
  Hg  Hg58  1  0.51183200  0.13912800  0.83720800  1
  Hg  Hg59  1  0.83720800  0.13912800  0.51183200  1
  Hg  Hg60  1  0.51183200  0.13912800  0.51183200  1
  Hg  Hg61  1  0.13912800  0.51183200  0.51183200  1
  Hg  Hg62  1  0.13912800  0.83720800  0.51183200  1
  Hg  Hg63  1  0.13912800  0.51183200  0.83720800  1
  Hg  Hg64  1  0.83720800  0.51183200  0.51183200  1
  Hg  Hg65  1  0.51183200  0.51183200  0.83720800  1
  Hg  Hg66  1  0.51183200  0.83720800  0.51183200  1
  Hg  Hg67  1  0.75000000  0.75000000  0.75000000  1
  Hg  Hg68  1  0.82789400  0.82789400  0.51631700  1
  Hg  Hg69  1  0.82789400  0.51631700  0.82789400  1
  Hg  Hg70  1  0.51631700  0.82789400  0.82789400  1
  Hg  Hg71  1  0.82789400  0.82789400  0.82789400  1
  Hg  Hg72  1  0.91141200  0.91141200  0.58858800  1
  Hg  Hg73  1  0.58858800  0.91141200  0.58858800  1
  Hg  Hg74  1  0.91141200  0.58858800  0.58858800  1
  Hg  Hg75  1  0.58858800  0.58858800  0.91141200  1
  Hg  Hg76  1  0.91141200  0.58858800  0.91141200  1
  Hg  Hg77  1  0.58858800  0.91141200  0.91141200  1
  Hg  Hg78  1  0.76484900  0.06584400  0.40445700  1
  Hg  Hg79  1  0.76484900  0.76484900  0.40445700  1
  Hg  Hg80  1  0.06584400  0.76484900  0.40445700  1
  Hg  Hg81  1  0.76484900  0.40445700  0.06584400  1
  Hg  Hg82  1  0.06584400  0.40445700  0.76484900  1
  Hg  Hg83  1  0.76484900  0.40445700  0.76484900  1
  Hg  Hg84  1  0.40445700  0.76484900  0.76484900  1
  Hg  Hg85  1  0.40445700  0.06584400  0.76484900  1
  Hg  Hg86  1  0.40445700  0.76484900  0.06584400  1
  Hg  Hg87  1  0.06584400  0.76484900  0.76484900  1
  Hg  Hg88  1  0.76484900  0.76484900  0.06584400  1
  Hg  Hg89  1  0.76484900  0.06584400  0.76484900  1
loop_
_geom_bond_atom_site_label_1
_geom_bond_atom_site_label_2
_geom_bond_distance
_geom_bond_site_symmetry_2
Hg0 Hg8 3.065312 1_555
Hg0 Hg9 3.065324 1_455
Hg0 Hg10 3.065324 1_545
Hg0 Hg26 3.074303 1_555
Hg0 Nd0 3.217132 1_556
Hg0 Nd1 3.217395 1_555
Hg0 Nd3 3.217395 1_555
Hg0 Nd2 3.217419 1_555
Hg1 Hg12 3.065312 1_555
Hg1 Hg11 3.065324 1_455
Hg1 Hg10 3.065324 1_554
Hg1 Hg27 3.074303 1_555
Hg1 Nd0 3.217132 1_565
Hg1 Nd4 3.217395 1_555
Hg1 Nd5 3.217395 1_555
Hg1 Nd6 3.217419 1_555
Hg2 Hg9 3.065324 1_554
Hg2 Hg28 3.074303 1_555
Hg2 Nd0 3.217132 1_655
Hg2 Nd9 3.217395 1_555
Hg2 Nd8 3.217395 1_555
Hg2 Nd7 3.217419 1_555
Hg3 Hg8 3.065325 1_554
Hg3 Nd0 3.217145 1_555
Hg3 Nd12 3.217391 1_555
Hg3 Nd10 3.217391 1_555
Hg3 Nd11 3.217391 1_555
Hg4 Nd0 3.312968 1_665
Hg4 Hg68 3.362004 1_555
Hg4 Nd11 3.574677 1_665
Hg4 Nd4 3.574677 1_655
Hg4 Nd9 3.574677 1_565
Hg5 Hg9 3.105088 1_555
Hg5 Hg8 3.105100 1_655
Hg5 Nd0 3.312968 1_656
Hg5 Hg69 3.362004 1_555
Hg5 Nd12 3.574677 1_656
Hg5 Nd8 3.574677 1_556
Hg5 Nd1 3.574677 1_655
Hg6 Hg8 3.105100 1_565
Hg6 Nd0 3.312968 1_566
Hg6 Hg70 3.362004 1_555
Hg6 Nd10 3.574677 1_566
Hg6 Nd5 3.574677 1_556
Hg6 Nd3 3.574677 1_565
Hg7 Hg9 3.105101 1_565
Hg7 Nd0 3.312981 1_666
Hg7 Hg71 3.362004 1_555
Hg7 Nd7 3.574677 1_566
Hg7 Nd6 3.574677 1_656
Hg7 Nd2 3.574677 1_665
Hg8 Hg85 3.244748 1_555
Hg8 Hg82 3.244748 1_555
Hg8 Nd0 3.437357 1_556
Hg8 Nd10 3.908028 1_556
Hg8 Nd12 3.908028 1_556
Hg8 Nd3 3.908040 1_555
Hg8 Nd1 3.908040 1_555
Hg9 Nd0 3.437357 1_656
Hg9 Nd8 3.908030 1_556
Hg9 Nd1 3.908030 1_655
Hg9 Nd7 3.908040 1_556
Hg9 Nd2 3.908040 1_655
Hg10 Hg33 3.096316 1_555
Hg10 Hg30 3.096316 1_555
Hg10 Hg6 3.105088 1_555
Hg10 Hg7 3.105101 1_455
Hg10 Hg84 3.244748 1_555
Hg10 Hg87 3.244761 1_555
Hg10 Nd0 3.437357 1_566
Hg10 Nd5 3.908030 1_556
Hg10 Nd3 3.908030 1_565
Hg10 Nd2 3.908040 1_565
Hg10 Nd6 3.908040 1_556
Hg11 Hg2 3.065324 1_565
Hg11 Hg34 3.096316 1_555
Hg11 Hg37 3.096316 1_555
Hg11 Hg4 3.105088 1_555
Hg11 Hg7 3.105101 1_554
Hg11 Hg79 3.244748 1_555
Hg11 Hg88 3.244761 1_555
Hg11 Nd0 3.437357 1_665
Hg11 Nd9 3.908030 1_565
Hg11 Nd4 3.908030 1_655
Hg11 Nd6 3.908040 1_655
Hg11 Nd7 3.908040 1_565
Hg12 Hg3 3.065325 1_565
Hg12 Hg35 3.096302 1_555
Hg12 Hg41 3.096312 1_555
Hg12 Hg6 3.105100 1_554
Hg12 Hg4 3.105100 1_455
Hg12 Hg86 3.244748 1_555
Hg12 Hg80 3.244748 1_555
Hg12 Nd0 3.437357 1_565
Hg12 Nd10 3.908028 1_565
Hg12 Nd11 3.908028 1_565
Hg12 Nd5 3.908040 1_555
Hg12 Nd4 3.908040 1_555
Hg13 Hg2 3.065312 1_555
Hg13 Hg3 3.065325 1_655
Hg13 Hg36 3.096302 1_555
Hg13 Hg39 3.096312 1_555
Hg13 Hg4 3.105100 1_545
Hg13 Hg5 3.105100 1_554
Hg13 Hg81 3.244748 1_555
Hg13 Hg78 3.244748 1_555
Hg13 Nd0 3.437357 1_655
Hg13 Nd11 3.908028 1_655
Hg13 Nd12 3.908028 1_655
Hg13 Nd8 3.908040 1_555
Hg13 Nd9 3.908040 1_555
Hg14 Hg58 2.846308 1_554
Hg14 Hg17 2.898286 1_555
Hg14 Hg16 3.043433 1_555
Hg14 Hg15 3.043433 1_555
Hg14 Nd13 3.491647 1_555
Hg14 Nd14 3.498992 1_554
Hg14 Nd7 3.516375 1_555
Hg14 Nd10 3.516397 1_555
Hg15 Hg65 2.846300 1_554
Hg15 Hg24 2.898286 1_555
Hg15 Hg16 3.043433 1_555
Hg15 Nd13 3.491654 1_555
Hg15 Nd14 3.498992 1_554
Hg15 Nd8 3.516366 1_555
Hg15 Nd5 3.516366 1_555
Hg16 Hg63 2.846308 1_554
Hg16 Hg22 2.898286 1_555
Hg16 Nd13 3.491647 1_555
Hg16 Nd14 3.498992 1_554
Hg16 Nd6 3.516375 1_555
Hg16 Nd12 3.516397 1_555
Hg17 Hg55 2.846308 1_545
Hg17 Hg19 3.043433 1_555
Hg17 Hg18 3.043433 1_555
Hg17 Nd13 3.491647 1_555
Hg17 Nd15 3.498992 1_545
Hg17 Nd7 3.516375 1_555
Hg17 Nd10 3.516397 1_555
Hg18 Hg62 2.846308 1_545
Hg18 Hg21 2.898286 1_555
Hg18 Hg19 3.043433 1_555
Hg18 Nd13 3.491647 1_555
Hg18 Nd15 3.498992 1_545
Hg18 Nd2 3.516375 1_555
Hg18 Nd11 3.516397 1_555
Hg19 Hg66 2.846300 1_545
Hg19 Hg25 2.898286 1_555
Hg19 Nd13 3.491654 1_555
Hg19 Nd15 3.498992 1_545
Hg19 Nd3 3.516366 1_555
Hg19 Nd9 3.516366 1_555
Hg20 Hg64 2.846300 1_455
Hg20 Hg23 2.898286 1_555
Hg20 Hg22 3.043433 1_555
Hg20 Hg21 3.043433 1_555
Hg20 Nd13 3.491654 1_555
Hg20 Nd16 3.498992 1_455
Hg20 Nd1 3.516366 1_555
Hg20 Nd4 3.516366 1_555
Hg21 Hg59 2.846308 1_455
Hg21 Hg22 3.043433 1_555
Hg21 Nd13 3.491647 1_555
Hg21 Nd16 3.498992 1_455
Hg21 Nd2 3.516375 1_555
Hg21 Nd11 3.516397 1_555
Hg22 Hg57 2.846308 1_455
Hg22 Nd13 3.491647 1_555
Hg22 Nd16 3.498992 1_455
Hg22 Nd6 3.516375 1_555
Hg22 Nd12 3.516397 1_555
Hg23 Hg61 2.846295 1_555
Hg23 Hg25 3.043433 1_555
Hg23 Hg24 3.043433 1_555
Hg23 Nd13 3.491660 1_555
Hg23 Nd17 3.498992 1_555
Hg23 Nd1 3.516379 1_555
Hg23 Nd4 3.516379 1_555
Hg24 Hg56 2.846295 1_555
Hg24 Hg25 3.043433 1_555
Hg24 Nd13 3.491660 1_555
Hg24 Nd17 3.498992 1_555
Hg24 Nd8 3.516379 1_555
Hg24 Nd5 3.516379 1_555
Hg25 Hg60 2.846295 1_555
Hg25 Nd13 3.491660 1_555
Hg25 Nd17 3.498992 1_555
Hg25 Nd9 3.516379 1_555
Hg25 Nd3 3.516379 1_555
Hg26 Nd1 3.296899 1_555
Hg26 Nd3 3.296899 1_555
Hg26 Nd2 3.296923 1_555
Hg26 Nd13 3.404602 1_555
Hg27 Nd4 3.296899 1_555
Hg27 Nd5 3.296899 1_555
Hg27 Nd6 3.296923 1_555
Hg27 Nd13 3.404602 1_555
Hg28 Nd8 3.296899 1_555
Hg28 Nd9 3.296899 1_555
Hg28 Nd7 3.296923 1_555
Hg28 Nd13 3.404602 1_555
Hg29 Hg3 3.074303 1_555
Hg29 Nd12 3.296920 1_555
Hg29 Nd11 3.296920 1_555
Hg29 Nd10 3.296920 1_555
Hg29 Nd13 3.404589 1_555
Hg30 Nd5 3.288221 1_556
Hg30 Nd6 3.288221 1_556
Hg30 Hg63 3.356907 1_555
Hg30 Hg65 3.356921 1_555
Hg30 Nd14 3.437121 1_555
Hg31 Hg8 3.096302 1_555
Hg31 Nd12 3.288221 1_556
Hg31 Nd10 3.288221 1_556
Hg31 Hg63 3.356920 1_555
Hg31 Hg58 3.356920 1_555
Hg31 Nd14 3.437147 1_555
Hg32 Hg9 3.096316 1_555
Hg32 Nd8 3.288221 1_556
Hg32 Nd7 3.288221 1_556
Hg32 Hg58 3.356907 1_555
Hg32 Hg65 3.356921 1_555
Hg32 Nd14 3.437121 1_555
Hg33 Nd2 3.288221 1_565
Hg33 Nd3 3.288221 1_565
Hg33 Hg62 3.356907 1_555
Hg33 Hg66 3.356921 1_555
Hg33 Nd15 3.437121 1_555
Hg34 Nd9 3.288221 1_565
Hg34 Nd7 3.288221 1_565
Hg34 Hg55 3.356907 1_555
Hg34 Hg66 3.356921 1_555
Hg34 Nd15 3.437121 1_555
Hg35 Nd10 3.288221 1_565
Hg35 Nd11 3.288221 1_565
Hg35 Hg55 3.356920 1_555
Hg35 Hg62 3.356920 1_555
Hg35 Nd15 3.437147 1_555
Hg36 Nd12 3.288221 1_655
Hg36 Nd11 3.288221 1_655
Hg36 Hg59 3.356920 1_555
Hg36 Hg57 3.356920 1_555
Hg36 Nd16 3.437147 1_555
Hg37 Nd4 3.288221 1_655
Hg37 Nd6 3.288221 1_655
Hg37 Hg57 3.356907 1_555
Hg37 Hg64 3.356921 1_555
Hg37 Nd16 3.437121 1_555
Hg38 Hg9 3.096316 1_555
Hg38 Nd2 3.288221 1_655
Hg38 Nd1 3.288221 1_655
Hg38 Hg59 3.356907 1_555
Hg38 Hg64 3.356921 1_555
Hg38 Nd16 3.437121 1_555
Hg39 Nd8 3.288221 1_555
Hg39 Nd9 3.288221 1_555
Hg39 Hg56 3.356917 1_555
Hg39 Hg60 3.356917 1_555
Hg39 Nd17 3.437138 1_555
Hg40 Hg8 3.096312 1_555
Hg40 Nd3 3.288221 1_555
Hg40 Nd1 3.288221 1_555
Hg40 Hg61 3.356917 1_555
Hg40 Hg60 3.356917 1_555
Hg40 Nd17 3.437138 1_555
Hg41 Nd5 3.288221 1_555
Hg41 Nd4 3.288221 1_555
Hg41 Hg61 3.356917 1_555
Hg41 Hg56 3.356917 1_555
Hg41 Nd17 3.437138 1_555
Hg42 Nd17 3.652924 1_555
Hg42 Nd16 3.652937 1_555
Hg42 Nd14 3.652937 1_555
Hg42 Nd15 3.652937 1_555
Hg43 Hg46 2.901374 1_555
Hg43 Hg81 3.011309 1_555
Hg43 Hg44 3.049180 1_555
Hg43 Hg45 3.049180 1_555
Hg43 Hg57 3.067938 1_555
Hg43 Hg56 3.067938 1_555
Hg43 Nd17 3.485892 1_555
Hg43 Nd16 3.485906 1_555
Hg43 Nd18 3.699767 1_555
Hg44 Hg53 2.901374 1_555
Hg44 Hg88 3.011302 1_555
Hg44 Hg45 3.049180 1_555
Hg44 Hg57 3.067938 1_555
Hg44 Hg55 3.067938 1_555
Hg44 Nd16 3.485899 1_555
Hg44 Nd15 3.485899 1_555
Hg44 Nd18 3.699774 1_555
Hg45 Hg51 2.901374 1_555
Hg45 Hg86 3.011309 1_555
Hg45 Hg55 3.067938 1_555
Hg45 Hg56 3.067938 1_555
Hg45 Nd17 3.485892 1_555
Hg45 Nd15 3.485906 1_555
Hg45 Nd18 3.699767 1_555
Hg46 Hg78 3.011309 1_555
Hg46 Hg47 3.049180 1_555
Hg46 Hg48 3.049180 1_555
Hg46 Hg59 3.067938 1_555
Hg46 Hg60 3.067938 1_555
Hg46 Nd17 3.485892 1_555
Hg46 Nd16 3.485906 1_555
Hg46 Nd19 3.699767 1_555
Hg47 Hg50 2.901374 1_555
Hg47 Hg85 3.011309 1_555
Hg47 Hg48 3.049180 1_555
Hg47 Hg58 3.067938 1_555
Hg47 Hg60 3.067938 1_555
Hg47 Nd17 3.485892 1_555
Hg47 Nd14 3.485906 1_555
Hg47 Nd19 3.699767 1_555
Hg48 Hg54 2.901374 1_555
Hg48 Hg89 3.011302 1_555
Hg48 Hg58 3.067938 1_555
Hg48 Hg59 3.067938 1_555
Hg48 Nd16 3.485899 1_555
Hg48 Nd14 3.485899 1_555
Hg48 Nd19 3.699774 1_555
Hg49 Hg52 2.901374 1_555
Hg49 Hg87 3.011302 1_555
Hg49 Hg50 3.049180 1_555
Hg49 Hg51 3.049180 1_555
Hg49 Hg63 3.067938 1_555
Hg49 Hg62 3.067938 1_555
Hg49 Nd14 3.485899 1_555
Hg49 Nd15 3.485899 1_555
Hg49 Nd20 3.699774 1_555
Hg50 Hg82 3.011309 1_555
Hg50 Hg51 3.049180 1_555
Hg50 Hg63 3.067938 1_555
Hg50 Hg61 3.067938 1_555
Hg50 Nd17 3.485892 1_555
Hg50 Nd14 3.485906 1_555
Hg50 Nd20 3.699767 1_555
Hg51 Hg80 3.011309 1_555
Hg51 Hg62 3.067938 1_555
Hg51 Hg61 3.067938 1_555
Hg51 Nd17 3.485892 1_555
Hg51 Nd15 3.485906 1_555
Hg51 Nd20 3.699767 1_555
Hg52 Hg84 3.011296 1_555
Hg52 Hg53 3.049180 1_555
Hg52 Hg54 3.049180 1_555
Hg52 Hg65 3.067938 1_555
Hg52 Hg66 3.067938 1_555
Hg52 Nd14 3.485892 1_555
Hg52 Nd15 3.485892 1_555
Hg52 Nd21 3.699758 1_555
Hg53 Hg79 3.011296 1_555
Hg53 Hg54 3.049180 1_555
Hg53 Hg66 3.067938 1_555
Hg53 Hg64 3.067938 1_555
Hg53 Nd15 3.485892 1_555
Hg53 Nd16 3.485892 1_555
Hg53 Nd21 3.699758 1_555
Hg54 Hg83 3.011296 1_555
Hg54 Hg65 3.067938 1_555
Hg54 Hg64 3.067938 1_555
Hg54 Nd14 3.485892 1_555
Hg54 Nd16 3.485892 1_555
Hg54 Nd21 3.699758 1_555
Hg55 Hg77 2.944016 1_554
Hg55 Hg88 3.286240 1_555
Hg55 Hg86 3.286253 1_555
Hg55 Nd18 3.382338 1_555
Hg55 Nd7 3.475450 1_565
Hg55 Nd10 3.475461 1_565
Hg55 Nd15 3.479563 1_555
Hg56 Hg75 2.944016 1_554
Hg56 Hg81 3.286241 1_555
Hg56 Hg86 3.286241 1_555
Hg56 Nd18 3.382326 1_555
Hg56 Nd8 3.475463 1_555
Hg56 Nd5 3.475463 1_555
Hg56 Nd17 3.479562 1_555
Hg57 Hg76 2.944016 1_554
Hg57 Hg88 3.286240 1_555
Hg57 Hg81 3.286253 1_555
Hg57 Nd18 3.382338 1_555
Hg57 Nd6 3.475450 1_655
Hg57 Nd12 3.475461 1_655
Hg57 Nd16 3.479563 1_555
Hg58 Hg77 2.944016 1_545
Hg58 Hg89 3.286240 1_555
Hg58 Hg85 3.286253 1_555
Hg58 Nd19 3.382338 1_555
Hg58 Nd7 3.475450 1_556
Hg58 Nd10 3.475461 1_556
Hg58 Nd14 3.479563 1_555
Hg59 Hg72 2.944016 1_545
Hg59 Hg89 3.286240 1_555
Hg59 Hg78 3.286253 1_555
Hg59 Nd19 3.382338 1_555
Hg59 Nd2 3.475450 1_655
Hg59 Nd11 3.475461 1_655
Hg59 Nd16 3.479563 1_555
Hg60 Hg73 2.944016 1_545
Hg60 Hg85 3.286241 1_555
Hg60 Hg78 3.286241 1_555
Hg60 Nd19 3.382326 1_555
Hg60 Nd9 3.475463 1_555
Hg60 Nd3 3.475463 1_555
Hg60 Nd17 3.479562 1_555
Hg61 Hg74 2.944016 1_455
Hg61 Hg82 3.286241 1_555
Hg61 Hg80 3.286241 1_555
Hg61 Nd20 3.382326 1_555
Hg61 Nd1 3.475463 1_555
Hg61 Nd4 3.475463 1_555
Hg61 Nd17 3.479562 1_555
Hg62 Hg72 2.944016 1_455
Hg62 Hg87 3.286240 1_555
Hg62 Hg80 3.286253 1_555
Hg62 Nd20 3.382338 1_555
Hg62 Nd2 3.475450 1_565
Hg62 Nd11 3.475461 1_565
Hg62 Nd15 3.479563 1_555
Hg63 Hg76 2.944016 1_455
Hg63 Hg87 3.286240 1_555
Hg63 Hg82 3.286253 1_555
Hg63 Nd20 3.382338 1_555
Hg63 Nd6 3.475450 1_556
Hg63 Nd12 3.475461 1_556
Hg63 Nd14 3.479563 1_555
Hg64 Hg74 2.944016 1_555
Hg64 Hg83 3.286241 1_555
Hg64 Hg79 3.286241 1_555
Hg64 Nd21 3.382328 1_555
Hg64 Nd4 3.475452 1_655
Hg64 Nd1 3.475452 1_655
Hg64 Nd16 3.479550 1_555
Hg65 Hg75 2.944016 1_555
Hg65 Hg83 3.286241 1_555
Hg65 Hg84 3.286241 1_555
Hg65 Nd21 3.382328 1_555
Hg65 Nd8 3.475452 1_556
Hg65 Nd5 3.475452 1_556
Hg65 Nd14 3.479550 1_555
Hg66 Hg73 2.944016 1_555
Hg66 Hg84 3.286241 1_555
Hg66 Hg79 3.286241 1_555
Hg66 Nd21 3.382328 1_555
Hg66 Nd9 3.475452 1_565
Hg66 Nd3 3.475452 1_565
Hg66 Nd15 3.479550 1_555
Hg67 Hg71 3.021053 1_555
Hg67 Hg70 3.021066 1_555
Hg67 Hg68 3.021066 1_555
Hg67 Hg69 3.021066 1_555
Hg67 Nd20 3.420400 1_655
Hg67 Nd19 3.420400 1_565
Hg67 Nd18 3.420400 1_556
Hg67 Nd21 3.420413 1_555
Hg68 Hg73 3.095468 1_555
Hg68 Hg74 3.095468 1_555
Hg68 Hg72 3.095481 1_555
Hg68 Hg78 3.108427 1_565
Hg68 Hg80 3.108427 1_655
Hg68 Hg79 3.108427 1_555
Hg68 Nd19 3.733248 1_565
Hg68 Nd20 3.733248 1_655
Hg68 Nd21 3.733248 1_555
Hg69 Hg74 3.095468 1_555
Hg69 Hg75 3.095468 1_555
Hg69 Hg76 3.095481 1_555
Hg69 Hg82 3.108427 1_655
Hg69 Hg81 3.108427 1_556
Hg69 Hg83 3.108427 1_555
Hg69 Nd18 3.733248 1_556
Hg69 Nd20 3.733248 1_655
Hg69 Nd21 3.733248 1_555
Hg70 Hg75 3.095468 1_555
Hg70 Hg73 3.095468 1_555
Hg70 Hg77 3.095481 1_555
Hg70 Hg85 3.108427 1_565
Hg70 Hg86 3.108427 1_556
Hg70 Hg84 3.108427 1_555
Hg70 Nd19 3.733248 1_565
Hg70 Nd18 3.733248 1_556
Hg70 Nd21 3.733248 1_555
Hg71 Hg72 3.095468 1_555
Hg71 Hg76 3.095468 1_555
Hg71 Hg77 3.095468 1_555
Hg71 Hg87 3.108427 1_655
Hg71 Hg88 3.108427 1_556
Hg71 Hg89 3.108427 1_565
Hg71 Nd20 3.733248 1_655
Hg71 Nd19 3.733248 1_565
Hg71 Nd18 3.733248 1_556
Hg72 Nd20 3.238465 1_655
Hg72 Nd19 3.238465 1_565
Hg72 Nd2 3.382527 1_665
Hg72 Nd11 3.382539 1_665
Hg73 Nd19 3.238453 1_565
Hg73 Nd21 3.238467 1_555
Hg73 Nd3 3.382541 1_565
Hg73 Nd9 3.382541 1_565
Hg74 Nd20 3.238453 1_655
Hg74 Nd21 3.238467 1_555
Hg74 Nd1 3.382541 1_655
Hg74 Nd4 3.382541 1_655
Hg75 Nd18 3.238453 1_556
Hg75 Nd21 3.238467 1_555
Hg75 Nd5 3.382541 1_556
Hg75 Nd8 3.382541 1_556
Hg76 Nd18 3.238465 1_556
Hg76 Nd20 3.238465 1_655
Hg76 Nd6 3.382527 1_656
Hg76 Nd12 3.382539 1_656
Hg77 Nd18 3.238465 1_556
Hg77 Nd19 3.238465 1_565
Hg77 Nd7 3.382527 1_566
Hg77 Nd10 3.382539 1_566
Hg78 Nd11 3.301051 1_655
Hg78 Nd9 3.301051 1_555
Hg78 Nd19 3.360548 1_555
Hg79 Nd4 3.301051 1_655
Hg79 Nd9 3.301051 1_565
Hg79 Nd21 3.360548 1_555
Hg80 Nd11 3.301051 1_565
Hg80 Nd4 3.301051 1_555
Hg80 Nd20 3.360548 1_555
Hg81 Nd12 3.301051 1_655
Hg81 Nd8 3.301051 1_555
Hg81 Nd18 3.360548 1_555
Hg82 Nd12 3.301051 1_556
Hg82 Nd1 3.301051 1_555
Hg82 Nd20 3.360548 1_555
Hg83 Hg9 3.244748 1_555
Hg83 Nd8 3.301051 1_556
Hg83 Nd1 3.301051 1_655
Hg83 Nd21 3.360548 1_555
Hg84 Nd5 3.301051 1_556
Hg84 Nd3 3.301051 1_565
Hg84 Nd21 3.360548 1_555
Hg85 Nd10 3.301051 1_556
Hg85 Nd3 3.301051 1_555
Hg85 Nd19 3.360548 1_555
Hg86 Nd10 3.301051 1_565
Hg86 Nd5 3.301051 1_555
Hg86 Nd18 3.360548 1_555
Hg87 Nd2 3.301051 1_565
Hg87 Nd6 3.301051 1_556
Hg87 Nd20 3.360548 1_555
Hg88 Nd6 3.301051 1_655
Hg88 Nd7 3.301051 1_565
Hg88 Nd18 3.360548 1_555
Hg89 Hg9 3.244761 1_555
Hg89 Nd7 3.301051 1_556
Hg89 Nd2 3.301051 1_655
Hg89 Nd19 3.360548 1_555
