# generated using pymatgen
data_YHo3
_symmetry_space_group_name_H-M   'P 1'
_cell_length_a   7.26216749
_cell_length_b   7.26215157
_cell_length_c   5.57793782
_cell_angle_alpha   90.00018972
_cell_angle_beta   89.99961218
_cell_angle_gamma   120.00056261
_symmetry_Int_Tables_number   1
_chemical_formula_structural   YHo3
_chemical_formula_sum   'Y2 Ho6'
_cell_volume   254.76127169
_cell_formula_units_Z   2
loop_
 _symmetry_equiv_pos_site_id
 _symmetry_equiv_pos_as_xyz
  1  'x, y, z'
loop_
 _atom_site_type_symbol
 _atom_site_label
 _atom_site_symmetry_multiplicity
 _atom_site_fract_x
 _atom_site_fract_y
 _atom_site_fract_z
 _atom_site_occupancy
  Y  Y0  1  0.33333200  0.66666600  0.75000000  1
  Y  Y1  1  0.66666800  0.33333400  0.24999900  1
  Ho  Ho0  1  0.16578211  0.33156323  0.24999900  1
  Ho  Ho1  1  0.66843777  0.83421789  0.24999900  1
  Ho  Ho2  1  0.16578111  0.83421889  0.24999900  1
  Ho  Ho3  1  0.83421889  0.66843777  0.75000000  1
  Ho  Ho4  1  0.33156323  0.16578111  0.75000000  1
  Ho  Ho5  1  0.83421889  0.16578111  0.75000000  1
loop_
_geom_bond_atom_site_label_1
_geom_bond_atom_site_label_2
_geom_bond_distance
_geom_bond_site_symmetry_2
Ho0 Ho5 3.482331 1_455
Ho0 Ho4 3.482332 1_554
Ho0 Ho5 3.482342 1_454
Ho0 Ho4 3.482360 1_555
Ho0 Y0 3.495705 1_554
Ho0 Y0 3.495714 1_555
Ho0 Ho1 3.611767 1_445
Ho0 Ho2 3.611786 1_545
Ho0 Y1 3.631097 1_455
Ho0 Y1 3.631104 1_555
Ho0 Ho1 3.650331 1_555
Ho0 Ho2 3.650365 1_555
Ho1 Ho3 3.482324 1_554
Ho1 Ho5 3.482329 1_564
Ho1 Ho5 3.482338 1_565
Ho1 Ho3 3.482353 1_555
Ho1 Y0 3.495718 1_555
Ho1 Y0 3.495729 1_554
Ho1 Ho2 3.611787 1_655
Ho1 Y1 3.631085 1_555
Ho1 Y1 3.631100 1_565
Ho1 Ho2 3.650380 1_555
Ho2 Ho4 3.482325 1_564
Ho2 Ho3 3.482327 1_455
Ho2 Ho4 3.482335 1_565
Ho2 Ho3 3.482338 1_454
Ho2 Y0 3.495711 1_554
Ho2 Y0 3.495740 1_555
Ho2 Y1 3.631059 1_455
Ho2 Y1 3.631073 1_565
Ho3 Y1 3.495709 1_556
Ho3 Y1 3.495718 1_555
Ho3 Ho4 3.611760 1_665
Ho3 Ho5 3.611783 1_565
Ho3 Y0 3.631094 1_655
Ho3 Y0 3.631108 1_555
Ho3 Ho4 3.650338 1_555
Ho3 Ho5 3.650369 1_555
Ho4 Y1 3.495714 1_555
Ho4 Y1 3.495725 1_556
Ho4 Ho5 3.611798 1_455
Ho4 Y0 3.631089 1_545
Ho4 Y0 3.631096 1_555
Ho4 Ho5 3.650370 1_555
Ho5 Y1 3.495711 1_556
Ho5 Y1 3.495740 1_555
Ho5 Y0 3.631059 1_655
Ho5 Y0 3.631073 1_545
