# generated using pymatgen
data_Pr8Ni18P11
_symmetry_space_group_name_H-M   'P 1'
_cell_length_a   18.29738008
_cell_length_b   18.29738008
_cell_length_c   3.95137700
_cell_angle_alpha   90.00000000
_cell_angle_beta   90.00000000
_cell_angle_gamma   120.00000030
_symmetry_Int_Tables_number   1
_chemical_formula_structural   Pr8Ni18P11
_chemical_formula_sum   'Pr16 Ni36 P22'
_cell_volume   1145.66307832
_cell_formula_units_Z   2
loop_
 _symmetry_equiv_pos_site_id
 _symmetry_equiv_pos_as_xyz
  1  'x, y, z'
loop_
 _atom_site_type_symbol
 _atom_site_label
 _atom_site_symmetry_multiplicity
 _atom_site_fract_x
 _atom_site_fract_y
 _atom_site_fract_z
 _atom_site_occupancy
  Pr  Pr0  1  0.47705600  0.52294400  0.50000000  1
  Pr  Pr1  1  0.47705600  0.95411100  0.50000000  1
  Pr  Pr2  1  0.04588900  0.52294400  0.50000000  1
  Pr  Pr3  1  0.26035800  0.73964200  0.50000000  1
  Pr  Pr4  1  0.26035800  0.52071600  0.50000000  1
  Pr  Pr5  1  0.47928400  0.73964200  0.50000000  1
  Pr  Pr6  1  0.77902100  0.22097900  0.00000000  1
  Pr  Pr7  1  0.77902100  0.55804300  0.00000000  1
  Pr  Pr8  1  0.44195700  0.22097900  0.00000000  1
  Pr  Pr9  1  0.00129600  0.21898100  0.00000000  1
  Pr  Pr10  1  0.78101900  0.78231400  0.00000000  1
  Pr  Pr11  1  0.78101900  0.99870400  0.00000000  1
  Pr  Pr12  1  0.21768600  0.99870400  0.00000000  1
  Pr  Pr13  1  0.21768600  0.21898100  0.00000000  1
  Pr  Pr14  1  0.00129600  0.78231400  0.00000000  1
  Pr  Pr15  1  0.00000000  0.00000000  0.00000000  1
  Ni  Ni0  1  0.70994100  0.29005900  0.50000000  1
  Ni  Ni1  1  0.70994100  0.41988200  0.50000000  1
  Ni  Ni2  1  0.58011800  0.29005900  0.50000000  1
  Ni  Ni3  1  0.07603000  0.37053100  0.50000000  1
  Ni  Ni4  1  0.62946900  0.70549900  0.50000000  1
  Ni  Ni5  1  0.62946900  0.92397000  0.50000000  1
  Ni  Ni6  1  0.29450100  0.92397000  0.50000000  1
  Ni  Ni7  1  0.29450100  0.37053100  0.50000000  1
  Ni  Ni8  1  0.07603000  0.70549900  0.50000000  1
  Ni  Ni9  1  0.40119000  0.03146700  0.00000000  1
  Ni  Ni10  1  0.96853300  0.36972300  0.00000000  1
  Ni  Ni11  1  0.96853300  0.59881000  0.00000000  1
  Ni  Ni12  1  0.63027700  0.59881000  0.00000000  1
  Ni  Ni13  1  0.63027700  0.03146700  0.00000000  1
  Ni  Ni14  1  0.40119000  0.36972300  0.00000000  1
  Ni  Ni15  1  0.18404500  0.81595500  0.00000000  1
  Ni  Ni16  1  0.18404500  0.36809000  0.00000000  1
  Ni  Ni17  1  0.63191000  0.81595500  0.00000000  1
  Ni  Ni18  1  0.40597400  0.59402600  0.00000000  1
  Ni  Ni19  1  0.40597400  0.81194700  0.00000000  1
  Ni  Ni20  1  0.18805300  0.59402600  0.00000000  1
  Ni  Ni21  1  0.07328700  0.92671300  0.50000000  1
  Ni  Ni22  1  0.07328700  0.14657400  0.50000000  1
  Ni  Ni23  1  0.85342600  0.92671300  0.50000000  1
  Ni  Ni24  1  0.49839200  0.12955300  0.50000000  1
  Ni  Ni25  1  0.87044700  0.36883900  0.50000000  1
  Ni  Ni26  1  0.87044700  0.50160800  0.50000000  1
  Ni  Ni27  1  0.63116100  0.50160800  0.50000000  1
  Ni  Ni28  1  0.63116100  0.12955300  0.50000000  1
  Ni  Ni29  1  0.49839200  0.36883900  0.50000000  1
  Ni  Ni30  1  0.61683900  0.38316100  0.00000000  1
  Ni  Ni31  1  0.61683900  0.23367800  0.00000000  1
  Ni  Ni32  1  0.76632200  0.38316100  0.00000000  1
  Ni  Ni33  1  0.85443300  0.14556700  0.50000000  1
  Ni  Ni34  1  0.85443300  0.70886700  0.50000000  1
  Ni  Ni35  1  0.29113300  0.14556700  0.50000000  1
  P  P0  1  0.33333300  0.66666700  0.00000000  1
  P  P1  1  0.14578700  0.85421300  0.50000000  1
  P  P2  1  0.14578700  0.29157500  0.50000000  1
  P  P3  1  0.70842500  0.85421300  0.50000000  1
  P  P4  1  0.11667900  0.44904700  0.00000000  1
  P  P5  1  0.55095300  0.66763300  0.00000000  1
  P  P6  1  0.55095300  0.88332100  0.00000000  1
  P  P7  1  0.33236700  0.88332100  0.00000000  1
  P  P8  1  0.33236700  0.44904700  0.00000000  1
  P  P9  1  0.11667900  0.66763300  0.00000000  1
  P  P10  1  0.54869500  0.45130500  0.00000000  1
  P  P11  1  0.54869500  0.09739000  0.00000000  1
  P  P12  1  0.90261000  0.45130500  0.00000000  1
  P  P13  1  0.35913400  0.07128600  0.50000000  1
  P  P14  1  0.92871400  0.28784700  0.50000000  1
  P  P15  1  0.92871400  0.64086600  0.50000000  1
  P  P16  1  0.71215300  0.64086600  0.50000000  1
  P  P17  1  0.71215300  0.07128600  0.50000000  1
  P  P18  1  0.35913400  0.28784700  0.50000000  1
  P  P19  1  0.92756500  0.07243500  0.50000000  1
  P  P20  1  0.92756500  0.85513000  0.50000000  1
  P  P21  1  0.14487000  0.07243500  0.50000000  1
loop_
_geom_bond_atom_site_label_1
_geom_bond_atom_site_label_2
_geom_bond_distance
_geom_bond_site_symmetry_2
Ni0 Ni2 2.375421 1_555
Ni0 Ni1 2.375421 1_555
Ni0 Ni31 2.472284 1_556
Ni0 Ni31 2.472284 1_555
Ni0 Ni32 2.472284 1_556
Ni0 Ni32 2.472284 1_555
Ni0 Ni28 2.543520 1_555
Ni0 Ni25 2.543520 1_555
Ni0 Pr6 2.948950 1_556
Ni0 Pr6 2.948950 1_555
Ni1 Ni2 2.375421 1_555
Ni1 Ni30 2.472284 1_556
Ni1 Ni30 2.472284 1_555
Ni1 Ni32 2.472284 1_556
Ni1 Ni32 2.472284 1_555
Ni1 Ni26 2.543520 1_555
Ni1 Ni27 2.543520 1_555
Ni1 Pr7 2.948961 1_555
Ni1 Pr7 2.948961 1_556
Ni2 Ni30 2.472284 1_555
Ni2 Ni30 2.472284 1_556
Ni2 Ni31 2.472284 1_556
Ni2 Ni31 2.472284 1_555
Ni2 Ni24 2.543520 1_555
Ni2 Ni29 2.543520 1_555
Ni2 Pr8 2.948961 1_556
Ni2 Pr8 2.948961 1_555
Ni3 P4 2.334938 1_555
Ni3 P4 2.334938 1_556
Ni3 P14 2.340204 1_455
Ni3 P2 2.358008 1_555
Ni3 Pr2 3.101505 1_555
Ni3 Pr4 3.107811 1_555
Ni3 Pr9 3.109778 1_555
Ni3 Pr9 3.109778 1_556
Ni4 P5 2.334939 1_555
Ni4 P5 2.334939 1_556
Ni4 P16 2.340219 1_555
Ni4 P3 2.358023 1_555
Ni4 Pr0 3.101516 1_555
Ni4 Pr5 3.107811 1_555
Ni4 Pr10 3.109778 1_555
Ni4 Pr10 3.109778 1_556
Ni5 P6 2.334938 1_556
Ni5 P6 2.334938 1_555
Ni5 P17 2.340204 1_565
Ni5 P3 2.358008 1_555
Ni5 Pr1 3.101505 1_555
Ni5 Pr5 3.107811 1_555
Ni5 Pr11 3.109778 1_556
Ni5 Pr11 3.109778 1_555
Ni6 P7 2.334930 1_555
Ni6 P7 2.334930 1_556
Ni6 P13 2.340202 1_565
Ni6 P1 2.358024 1_555
Ni6 Pr1 3.101523 1_555
Ni6 Pr3 3.107811 1_555
Ni6 Pr12 3.109766 1_555
Ni6 Pr12 3.109766 1_556
Ni7 P8 2.334939 1_555
Ni7 P8 2.334939 1_556
Ni7 P18 2.340219 1_555
Ni7 P2 2.358023 1_555
Ni7 Pr0 3.101516 1_555
Ni7 Pr4 3.107811 1_555
Ni7 Pr13 3.109778 1_556
Ni7 Pr13 3.109778 1_555
Ni8 P9 2.334930 1_556
Ni8 P9 2.334930 1_555
Ni8 P15 2.340202 1_455
Ni8 P1 2.358024 1_555
Ni8 Pr2 3.101523 1_555
Ni8 Pr3 3.107811 1_555
Ni8 Pr14 3.109766 1_555
Ni8 Pr14 3.109766 1_556
Ni9 P11 2.341750 1_555
Ni9 P7 2.349486 1_545
Ni9 P13 2.363681 1_555
Ni9 P13 2.363681 1_554
Ni9 Pr12 3.101662 1_545
Ni9 Pr1 3.130255 1_545
Ni9 Pr1 3.130255 1_544
Ni9 Pr8 3.161314 1_555
Ni10 P12 2.341750 1_555
Ni10 P4 2.349486 1_655
Ni10 P14 2.363690 1_555
Ni10 P14 2.363690 1_554
Ni10 Pr9 3.101680 1_655
Ni10 Pr2 3.130243 1_655
Ni10 Pr2 3.130243 1_654
Ni10 Pr6 3.161309 1_555
Ni11 P12 2.341750 1_555
Ni11 P9 2.349486 1_655
Ni11 P15 2.363681 1_555
Ni11 P15 2.363681 1_554
Ni11 Pr14 3.101662 1_655
Ni11 Pr2 3.130255 1_655
Ni11 Pr2 3.130255 1_654
Ni11 Pr7 3.161314 1_555
Ni12 P10 2.341750 1_555
Ni12 P5 2.349502 1_555
Ni12 P16 2.363689 1_554
Ni12 P16 2.363689 1_555
Ni12 Pr10 3.101668 1_555
Ni12 Pr0 3.130243 1_555
Ni12 Pr0 3.130243 1_554
Ni12 Pr7 3.161297 1_555
Ni13 P11 2.341750 1_555
Ni13 P6 2.349486 1_545
Ni13 P17 2.363690 1_555
Ni13 P17 2.363690 1_554
Ni13 Pr11 3.101680 1_545
Ni13 Pr1 3.130243 1_545
Ni13 Pr1 3.130243 1_544
Ni13 Pr6 3.161309 1_555
Ni14 P10 2.341750 1_555
Ni14 P8 2.349502 1_555
Ni14 P18 2.363689 1_555
Ni14 P18 2.363689 1_554
Ni14 Pr13 3.101668 1_555
Ni14 Pr0 3.130243 1_554
Ni14 Pr0 3.130243 1_555
Ni14 Pr8 3.161297 1_555
Ni15 P1 2.318067 1_554
Ni15 P1 2.318067 1_555
Ni15 P7 2.353596 1_555
Ni15 P9 2.353596 1_555
Ni15 Pr12 3.082501 1_555
Ni15 Pr14 3.082501 1_555
Ni15 Pr3 3.122906 1_554
Ni15 Pr3 3.122906 1_555
Ni16 P2 2.318059 1_554
Ni16 P2 2.318059 1_555
Ni16 P8 2.353597 1_555
Ni16 P4 2.353612 1_555
Ni16 Pr9 3.082507 1_555
Ni16 Pr13 3.082519 1_555
Ni16 Pr4 3.122906 1_554
Ni16 Pr4 3.122906 1_555
Ni17 P3 2.318059 1_554
Ni17 P3 2.318059 1_555
Ni17 P5 2.353597 1_555
Ni17 P6 2.353612 1_555
Ni17 Pr11 3.082507 1_555
Ni17 Pr10 3.082519 1_555
Ni17 Pr5 3.122906 1_555
Ni17 Pr5 3.122906 1_554
Ni18 P8 2.297428 1_555
Ni18 P5 2.297428 1_555
Ni18 P0 2.302138 1_555
Ni18 Pr0 2.996354 1_554
Ni18 Pr0 2.996354 1_555
Ni18 Pr4 3.037707 1_555
Ni18 Pr4 3.037707 1_554
Ni18 Pr5 3.037707 1_555
Ni18 Pr5 3.037707 1_554
Ni19 P6 2.297427 1_555
Ni19 P7 2.297459 1_555
Ni19 P0 2.302106 1_555
Ni19 Pr1 2.996354 1_555
Ni19 Pr1 2.996354 1_554
Ni19 Pr5 3.037695 1_554
Ni19 Pr5 3.037695 1_555
Ni19 Pr3 3.037707 1_554
Ni19 Pr3 3.037707 1_555
Ni20 P4 2.297427 1_555
Ni20 P9 2.297459 1_555
Ni20 P0 2.302106 1_555
Ni20 Pr2 2.996354 1_555
Ni20 Pr2 2.996354 1_554
Ni20 Pr4 3.037695 1_554
Ni20 Pr4 3.037695 1_555
Ni20 Pr3 3.037707 1_554
Ni20 Pr3 3.037707 1_555
Ni21 P1 2.297669 1_555
Ni21 P20 2.309229 1_455
Ni21 P21 2.309229 1_565
Ni21 Pr14 3.023073 1_556
Ni21 Pr14 3.023073 1_555
Ni21 Pr12 3.023073 1_555
Ni21 Pr12 3.023073 1_556
Ni21 Pr15 3.049240 1_566
Ni21 Pr15 3.049240 1_565
Ni22 P2 2.297685 1_555
Ni22 P19 2.309229 1_455
Ni22 P21 2.309229 1_555
Ni22 Pr9 3.023061 1_555
Ni22 Pr9 3.023061 1_556
Ni22 Pr13 3.023073 1_555
Ni22 Pr13 3.023073 1_556
Ni22 Pr15 3.049240 1_555
Ni22 Pr15 3.049240 1_556
Ni23 P3 2.297685 1_555
Ni23 P19 2.309229 1_565
Ni23 P20 2.309229 1_555
Ni23 Pr11 3.023061 1_555
Ni23 Pr11 3.023061 1_556
Ni23 Pr10 3.023073 1_556
Ni23 Pr10 3.023073 1_555
Ni23 Pr15 3.049240 1_666
Ni23 Pr15 3.049240 1_665
Ni24 P13 2.216453 1_555
Ni24 P11 2.374552 1_556
Ni24 P11 2.374552 1_555
Ni24 Pr1 3.033830 1_545
Ni24 Pr8 3.081476 1_556
Ni24 Pr8 3.081476 1_555
Ni25 P14 2.216470 1_555
Ni25 P12 2.374552 1_555
Ni25 P12 2.374552 1_556
Ni25 Pr2 3.033822 1_655
Ni25 Pr6 3.081465 1_556
Ni25 Pr6 3.081465 1_555
Ni26 P15 2.216453 1_555
Ni26 P12 2.374552 1_555
Ni26 P12 2.374552 1_556
Ni26 Pr2 3.033830 1_655
Ni26 Pr7 3.081476 1_556
Ni26 Pr7 3.081476 1_555
Ni27 P16 2.216455 1_555
Ni27 P10 2.374552 1_555
Ni27 P10 2.374552 1_556
Ni27 Pr0 3.033812 1_555
Ni27 Pr7 3.081463 1_556
Ni27 Pr7 3.081463 1_555
Ni28 P17 2.216470 1_555
Ni28 P11 2.374552 1_556
Ni28 P11 2.374552 1_555
Ni28 Pr1 3.033822 1_545
Ni28 Pr6 3.081465 1_555
Ni28 Pr6 3.081465 1_556
Ni29 P18 2.216455 1_555
Ni29 P10 2.374552 1_555
Ni29 P10 2.374552 1_556
Ni29 Pr0 3.033812 1_555
Ni29 Pr8 3.081463 1_556
Ni29 Pr8 3.081463 1_555
Ni30 P10 2.159619 1_555
Ni30 Pr7 3.090254 1_555
Ni30 Pr8 3.090254 1_555
Ni31 P11 2.159619 1_555
Ni31 Pr6 3.090244 1_555
Ni31 Pr8 3.090262 1_555
Ni32 P12 2.159619 1_555
Ni32 Pr6 3.090244 1_555
Ni32 Pr7 3.090262 1_555
Ni33 P14 2.255301 1_555
Ni33 P17 2.255301 1_555
Ni33 P19 2.317699 1_555
Ni33 Pr9 3.052730 1_656
Ni33 Pr9 3.052730 1_655
Ni33 Pr11 3.052730 1_546
Ni33 Pr11 3.052730 1_545
Ni33 Pr6 3.100845 1_556
Ni33 Pr6 3.100845 1_555
Ni34 P16 2.255300 1_555
Ni34 P15 2.255332 1_555
Ni34 P20 2.317683 1_555
Ni34 Pr10 3.052706 1_555
Ni34 Pr10 3.052706 1_556
Ni34 Pr14 3.052730 1_655
Ni34 Pr14 3.052730 1_656
Ni34 Pr7 3.100845 1_556
Ni34 Pr7 3.100845 1_555
Ni35 P18 2.255300 1_555
Ni35 P13 2.255332 1_555
Ni35 P21 2.317683 1_555
Ni35 Pr13 3.052706 1_555
Ni35 Pr13 3.052706 1_556
Ni35 Pr12 3.052730 1_545
Ni35 Pr12 3.052730 1_546
Ni35 Pr8 3.100845 1_555
Ni35 Pr8 3.100845 1_556
P0 Pr3 3.041716 1_555
P0 Pr3 3.041716 1_554
P0 Pr5 3.041728 1_555
P0 Pr5 3.041728 1_554
P0 Pr4 3.041728 1_554
P0 Pr4 3.041728 1_555
P1 Pr12 3.024181 1_555
P1 Pr12 3.024181 1_556
P1 Pr14 3.024181 1_556
P1 Pr14 3.024181 1_555
P2 Pr9 3.024181 1_556
P2 Pr9 3.024181 1_555
P2 Pr13 3.024205 1_556
P2 Pr13 3.024205 1_555
P3 Pr11 3.024181 1_556
P3 Pr11 3.024181 1_555
P3 Pr10 3.024205 1_555
P3 Pr10 3.024205 1_556
P4 Pr4 3.014446 1_554
P4 Pr4 3.014446 1_555
P4 Pr2 3.026660 1_554
P4 Pr2 3.026660 1_555
P5 Pr5 3.014434 1_555
P5 Pr5 3.014434 1_554
P5 Pr0 3.026684 1_555
P5 Pr0 3.026684 1_554
P6 Pr5 3.014446 1_554
P6 Pr5 3.014446 1_555
P6 Pr1 3.026660 1_555
P6 Pr1 3.026660 1_554
P7 Pr3 3.014446 1_554
P7 Pr3 3.014446 1_555
P7 Pr1 3.026684 1_555
P7 Pr1 3.026684 1_554
P8 Pr4 3.014434 1_554
P8 Pr4 3.014434 1_555
P8 Pr0 3.026684 1_554
P8 Pr0 3.026684 1_555
P9 Pr3 3.014446 1_555
P9 Pr3 3.014446 1_554
P9 Pr2 3.026684 1_554
P9 Pr2 3.026684 1_555
P10 Pr0 3.009648 1_554
P10 Pr0 3.009648 1_555
P11 Pr1 3.009660 1_544
P11 Pr1 3.009660 1_545
P12 Pr2 3.009660 1_654
P12 Pr2 3.009660 1_655
P13 Pr12 2.988027 1_545
P13 Pr12 2.988027 1_546
P13 Pr8 3.090501 1_556
P13 Pr8 3.090501 1_555
P14 Pr9 2.988027 1_656
P14 Pr9 2.988027 1_655
P14 Pr6 3.090502 1_556
P14 Pr6 3.090502 1_555
P15 Pr14 2.988027 1_655
P15 Pr14 2.988027 1_656
P15 Pr7 3.090501 1_556
P15 Pr7 3.090501 1_555
P16 Pr10 2.988027 1_555
P16 Pr10 2.988027 1_556
P16 Pr7 3.090477 1_556
P16 Pr7 3.090477 1_555
P17 Pr11 2.988027 1_546
P17 Pr11 2.988027 1_545
P17 Pr6 3.090502 1_556
P17 Pr6 3.090502 1_555
P18 Pr13 2.988027 1_555
P18 Pr13 2.988027 1_556
P18 Pr8 3.090477 1_556
P18 Pr8 3.090477 1_555
P19 Pr15 3.028724 1_655
P19 Pr15 3.028724 1_656
P19 Pr9 3.048914 1_656
P19 Pr9 3.048914 1_655
P19 Pr11 3.048914 1_546
P19 Pr11 3.048914 1_545
P20 Pr15 3.028724 1_665
P20 Pr15 3.028724 1_666
P20 Pr10 3.048914 1_555
P20 Pr10 3.048914 1_556
P20 Pr14 3.048926 1_656
P20 Pr14 3.048926 1_655
P21 Pr15 3.028724 1_556
P21 Pr15 3.028724 1_555
P21 Pr13 3.048914 1_555
P21 Pr13 3.048914 1_556
P21 Pr12 3.048926 1_546
P21 Pr12 3.048926 1_545
