# generated using pymatgen
data_KLaFeSnO6
_symmetry_space_group_name_H-M   'P 1'
_cell_length_a   5.67402970
_cell_length_b   5.67402970
_cell_length_c   5.67402970
_cell_angle_alpha   60.00000000
_cell_angle_beta   60.00000000
_cell_angle_gamma   60.00000000
_symmetry_Int_Tables_number   1
_chemical_formula_structural   KLaFeSnO6
_chemical_formula_sum   'K1 La1 Fe1 Sn1 O6'
_cell_volume   129.16945202
_cell_formula_units_Z   1
loop_
 _symmetry_equiv_pos_site_id
 _symmetry_equiv_pos_as_xyz
  1  'x, y, z'
loop_
 _atom_site_type_symbol
 _atom_site_label
 _atom_site_symmetry_multiplicity
 _atom_site_fract_x
 _atom_site_fract_y
 _atom_site_fract_z
 _atom_site_occupancy
  K  K0  1  0.25000000  0.25000000  0.25000000  1
  La  La0  1  0.75000000  0.75000000  0.75000000  1
  Fe  Fe0  1  0.00000000  0.00000000  -0.00000000  1
  Sn  Sn0  1  0.50000000  0.50000000  0.50000000  1
  O  O0  1  0.75570276  0.24429724  0.24429724  1
  O  O1  1  0.24429724  0.75570276  0.75570276  1
  O  O2  1  0.75570276  0.24429724  0.75570276  1
  O  O3  1  0.24429724  0.75570276  0.24429724  1
  O  O4  1  0.75570276  0.75570276  0.24429724  1
  O  O5  1  0.24429724  0.24429724  0.75570276  1
loop_
_geom_bond_atom_site_label_1
_geom_bond_atom_site_label_2
_geom_bond_distance
_geom_bond_site_symmetry_2
K0 O3 2.837384 1_545
K0 O2 2.837384 1_455
K0 O5 2.837384 1_555
K0 O5 2.837384 1_554
K0 O2 2.837384 1_554
K0 O4 2.837384 1_545
K0 O3 2.837384 1_555
K0 O4 2.837384 1_455
K0 O0 2.837384 1_555
K0 O1 2.837384 1_554
K0 O1 2.837384 1_545
K0 O0 2.837384 1_455
La0 O4 2.837384 1_555
La0 O2 2.837384 1_555
La0 O5 2.837384 1_565
La0 O3 2.837384 1_556
La0 O1 2.837384 1_555
La0 O3 2.837384 1_655
La0 O5 2.837384 1_655
La0 O4 2.837384 1_556
La0 O0 2.837384 1_565
La0 O1 2.837384 1_655
La0 O0 2.837384 1_556
La0 O2 2.837384 1_565
Fe0 O2 1.960312 1_454
Fe0 O4 1.960312 1_445
Fe0 O1 1.960312 1_544
Fe0 O3 1.960312 1_545
Fe0 O5 1.960312 1_554
Fe0 O0 1.960312 1_455
O0 Sn0 2.051833 1_555
O1 Sn0 2.051833 1_555
O2 Sn0 2.051833 1_555
O3 Sn0 2.051833 1_555
O4 Sn0 2.051833 1_555
O5 Sn0 2.051833 1_555
