# generated using pymatgen
data_HfMg6Zr
_symmetry_space_group_name_H-M   'P 1'
_cell_length_a   5.05609300
_cell_length_b   6.38546600
_cell_length_c   11.21669100
_cell_angle_alpha   90.00000000
_cell_angle_beta   90.00000000
_cell_angle_gamma   90.00000000
_symmetry_Int_Tables_number   1
_chemical_formula_structural   HfMg6Zr
_chemical_formula_sum   'Hf2 Mg12 Zr2'
_cell_volume   362.13658882
_cell_formula_units_Z   2
loop_
 _symmetry_equiv_pos_site_id
 _symmetry_equiv_pos_as_xyz
  1  'x, y, z'
loop_
 _atom_site_type_symbol
 _atom_site_label
 _atom_site_symmetry_multiplicity
 _atom_site_fract_x
 _atom_site_fract_y
 _atom_site_fract_z
 _atom_site_occupancy
  Hf  Hf0  1  0.50000000  0.50000000  0.17501500  1
  Hf  Hf1  1  0.50000000  0.00000000  0.67501500  1
  Mg  Mg0  1  0.00000000  0.74467900  0.08216900  1
  Mg  Mg1  1  0.00000000  0.25532100  0.08216900  1
  Mg  Mg2  1  0.00000000  0.00000000  0.33532200  1
  Mg  Mg3  1  0.50000000  0.25492400  0.41816500  1
  Mg  Mg4  1  0.50000000  0.74507600  0.41816500  1
  Mg  Mg5  1  0.50000000  0.00000000  0.16465000  1
  Mg  Mg6  1  0.00000000  0.24467900  0.58216900  1
  Mg  Mg7  1  0.00000000  0.75532100  0.58216900  1
  Mg  Mg8  1  0.00000000  0.50000000  0.83532200  1
  Mg  Mg9  1  0.50000000  0.75492400  0.91816500  1
  Mg  Mg10  1  0.50000000  0.24507600  0.91816500  1
  Mg  Mg11  1  0.50000000  0.50000000  0.66465000  1
  Zr  Zr0  1  0.00000000  0.50000000  0.32434600  1
  Zr  Zr1  1  0.00000000  0.00000000  0.82434600  1
loop_
_geom_bond_atom_site_label_1
_geom_bond_atom_site_label_2
_geom_bond_distance
_geom_bond_site_symmetry_2
Hf0 Zr0 3.032597 1_655
Hf0 Zr0 3.032597 1_555
Hf0 Mg3 3.144418 1_555
Hf0 Mg4 3.144418 1_555
Hf0 Mg0 3.149071 1_555
Hf0 Mg1 3.149071 1_555
Hf0 Mg0 3.149071 1_655
Hf0 Mg1 3.149071 1_655
Hf0 Mg5 3.194849 1_555
Hf0 Mg5 3.194849 1_565
Hf0 Mg10 3.309073 1_554
Hf0 Mg9 3.309073 1_554
Hf1 Zr1 3.032597 1_555
Hf1 Zr1 3.032597 1_655
Hf1 Mg9 3.144418 1_545
Hf1 Mg10 3.144418 1_555
Hf1 Mg7 3.149071 1_545
Hf1 Mg6 3.149071 1_655
Hf1 Mg6 3.149071 1_555
Hf1 Mg7 3.149071 1_645
Hf1 Mg11 3.194849 1_545
Hf1 Mg11 3.194849 1_555
Hf1 Mg3 3.309073 1_555
Hf1 Mg4 3.309073 1_545
Mg0 Mg1 3.124779 1_555
Mg0 Mg9 3.127197 1_554
Mg0 Mg9 3.127197 1_454
Mg0 Zr0 3.133692 1_555
Mg0 Mg5 3.147216 1_465
Mg0 Mg5 3.147216 1_565
Mg0 Mg8 3.179206 1_554
Mg0 Mg1 3.260687 1_565
Mg0 Mg2 3.274294 1_565
Mg0 Zr1 3.319823 1_564
Mg1 Mg10 3.127197 1_454
Mg1 Mg10 3.127197 1_554
Mg1 Zr0 3.133692 1_555
Mg1 Mg5 3.147216 1_455
Mg1 Mg5 3.147216 1_555
Mg1 Mg8 3.179206 1_554
Mg1 Mg2 3.274294 1_555
Mg1 Zr1 3.319823 1_554
Mg2 Mg3 3.147100 1_555
Mg2 Mg3 3.147100 1_455
Mg2 Mg4 3.147100 1_445
Mg2 Mg4 3.147100 1_545
Mg2 Mg5 3.171096 1_555
Mg2 Mg5 3.171096 1_455
Mg2 Mg6 3.179206 1_555
Mg2 Mg7 3.179206 1_545
Mg2 Zr0 3.195106 1_555
Mg2 Zr0 3.195106 1_545
Mg3 Mg6 3.127197 1_655
Mg3 Mg6 3.127197 1_555
Mg3 Mg4 3.129849 1_555
Mg3 Zr0 3.153954 1_555
Mg3 Zr0 3.153954 1_655
Mg3 Mg4 3.255617 1_545
Mg3 Mg5 3.276556 1_555
Mg4 Mg7 3.127197 1_555
Mg4 Mg7 3.127197 1_655
Mg4 Zr0 3.153954 1_555
Mg4 Zr0 3.153954 1_655
Mg4 Mg5 3.276556 1_565
Mg5 Mg9 3.176918 1_544
Mg6 Mg7 3.124779 1_545
Mg6 Zr1 3.133692 1_555
Mg6 Mg7 3.260687 1_555
Mg6 Mg8 3.274294 1_555
Mg6 Zr0 3.319823 1_555
Mg7 Zr1 3.133692 1_565
Mg7 Mg8 3.274294 1_555
Mg7 Zr0 3.319823 1_555
Mg8 Mg9 3.147100 1_555
Mg8 Mg9 3.147100 1_455
Mg8 Zr1 3.195106 1_565
Mg8 Zr1 3.195106 1_555
Mg9 Zr1 3.153954 1_565
Mg9 Zr1 3.153954 1_665
Mg10 Mg9 3.129849 1_545
Mg10 Mg8 3.147100 1_655
Mg10 Mg8 3.147100 1_555
Mg10 Zr1 3.153954 1_555
Mg10 Zr1 3.153954 1_655
Mg10 Mg5 3.176918 1_556
Mg10 Mg9 3.255617 1_555
Mg10 Mg11 3.276556 1_555
Mg11 Mg6 3.147216 1_655
Mg11 Mg7 3.147216 1_555
Mg11 Mg7 3.147216 1_655
Mg11 Mg6 3.147216 1_555
Mg11 Mg8 3.171096 1_655
Mg11 Mg8 3.171096 1_555
Mg11 Mg3 3.176918 1_555
Mg11 Mg4 3.176918 1_555
Mg11 Mg9 3.276556 1_555
