# generated using pymatgen
data_Li4MnV3O8
_symmetry_space_group_name_H-M   'P 1'
_cell_length_a   5.93071569
_cell_length_b   6.02496071
_cell_length_c   5.94789701
_cell_angle_alpha   60.38543084
_cell_angle_beta   90.62635771
_cell_angle_gamma   61.11729943
_symmetry_Int_Tables_number   1
_chemical_formula_structural   Li4MnV3O8
_chemical_formula_sum   'Li4 Mn1 V3 O8'
_cell_volume   152.83984139
_cell_formula_units_Z   1
loop_
 _symmetry_equiv_pos_site_id
 _symmetry_equiv_pos_as_xyz
  1  'x, y, z'
loop_
 _atom_site_type_symbol
 _atom_site_label
 _atom_site_symmetry_multiplicity
 _atom_site_fract_x
 _atom_site_fract_y
 _atom_site_fract_z
 _atom_site_occupancy
  Li  Li0  1  0.98958046  0.51032607  0.49687346  1
  Li  Li1  1  0.48952234  0.50984236  0.49641204  1
  Li  Li2  1  0.49238899  0.00672332  0.49840650  1
  Li  Li3  1  0.99146573  0.00907663  0.49712068  1
  Mn  Mn0  1  0.99288907  0.00603436  0.99709457  1
  V  V0  1  0.49287883  0.00586911  0.99722303  1
  V  V1  1  0.49294443  0.50569198  0.99782886  1
  V  V2  1  0.99333957  0.50573140  0.99788999  1
  O  O0  1  0.76556850  0.98403044  0.77474616  1
  O  O1  1  0.24489469  0.98933845  0.77597155  1
  O  O2  1  0.73318753  0.52080283  0.75699610  1
  O  O3  1  0.25543886  0.47969169  0.77243787  1
  O  O4  1  0.73095717  0.53137334  0.22326826  1
  O  O5  1  0.25307100  0.49075617  0.23846754  1
  O  O6  1  0.74166096  0.02143981  0.21932767  1
  O  O7  1  0.22088088  0.02673602  0.22063772  1
loop_
_geom_bond_atom_site_label_1
_geom_bond_atom_site_label_2
_geom_bond_distance
_geom_bond_site_symmetry_2
Li0 O3 2.137742 1_655
Li0 O4 2.137899 1_555
Li0 O2 2.182934 1_555
Li0 O5 2.207215 1_655
Li0 O6 2.217812 1_565
Li0 O1 2.259425 1_645
Li1 O5 2.148651 1_555
Li1 O2 2.153915 1_555
Li1 O3 2.157417 1_555
Li1 O4 2.174522 1_555
Li1 O7 2.242444 1_565
Li1 O0 2.281263 1_545
Li2 O5 2.099244 1_555
Li2 O2 2.106871 1_545
Li2 O0 2.202458 1_545
Li2 O7 2.212320 1_555
Li2 O1 2.218474 1_545
Li2 O6 2.232400 1_555
Li3 O0 2.131150 1_545
Li3 O7 2.140733 1_655
Li3 O1 2.145218 1_645
Li3 O6 2.156092 1_555
Li3 O4 2.263858 1_555
Li3 O3 2.294282 1_645
Mn0 O0 1.972594 1_545
Mn0 O7 1.974655 1_656
Mn0 O1 2.000540 1_645
Mn0 O6 2.001631 1_556
Mn0 O2 2.233951 1_555
Mn0 O5 2.235853 1_646
O0 V2 2.076264 1_555
O0 V0 2.096936 1_565
O1 V0 2.033096 1_565
O1 V1 2.100636 1_555
O2 V2 2.032101 1_555
O2 V1 2.032569 1_555
O3 V1 2.045795 1_555
O3 V0 2.055068 1_555
O3 V2 2.063246 1_455
O4 V1 2.046746 1_554
O4 V0 2.057766 1_564
O4 V2 2.064079 1_554
O5 V2 2.029399 1_454
O5 V1 2.030134 1_554
O6 V0 2.035815 1_554
O6 V1 2.103567 1_554
O7 V2 2.079614 1_454
O7 V0 2.097602 1_554
