# generated using pymatgen
data_Ni(C2N3)3
_symmetry_space_group_name_H-M   'P 1'
_cell_length_a   7.20648331
_cell_length_b   12.48288311
_cell_length_c   11.97549200
_cell_angle_alpha   90.00000000
_cell_angle_beta   90.00000000
_cell_angle_gamma   29.99293384
_symmetry_Int_Tables_number   1
_chemical_formula_structural   Ni(C2N3)3
_chemical_formula_sum   'Ni2 C12 N18'
_cell_volume   538.52872715
_cell_formula_units_Z   2
loop_
 _symmetry_equiv_pos_site_id
 _symmetry_equiv_pos_as_xyz
  1  'x, y, z'
loop_
 _atom_site_type_symbol
 _atom_site_label
 _atom_site_symmetry_multiplicity
 _atom_site_fract_x
 _atom_site_fract_y
 _atom_site_fract_z
 _atom_site_occupancy
  Ni  Ni0  1  0.00000000  0.30753700  0.25000000  1
  Ni  Ni1  1  0.00000000  0.69246300  0.75000000  1
  C  C0  1  0.67963600  0.80908300  0.25000000  1
  C  C1  1  0.67963600  0.51128000  0.75000000  1
  C  C2  1  0.32036400  0.19091700  0.75000000  1
  C  C3  1  0.32036400  0.48872000  0.25000000  1
  C  C4  1  0.68178000  0.29748100  0.89876600  1
  C  C5  1  0.68178000  0.02073800  0.10123400  1
  C  C6  1  0.68178000  0.29748100  0.60123400  1
  C  C7  1  0.68178000  0.02073800  0.39876600  1
  C  C8  1  0.31822000  0.70251900  0.10123400  1
  C  C9  1  0.31822000  0.97926200  0.89876600  1
  C  C10  1  0.31822000  0.70251900  0.39876600  1
  C  C11  1  0.31822000  0.97926200  0.60123400  1
  N  N0  1  0.00000000  0.60404700  0.25000000  1
  N  N1  1  0.00000000  0.39595300  0.75000000  1
  N  N2  1  0.37277600  0.99601900  0.25000000  1
  N  N3  1  0.37277600  0.63120600  0.75000000  1
  N  N4  1  0.62722400  0.00398100  0.75000000  1
  N  N5  1  0.62722400  0.36879400  0.25000000  1
  N  N6  1  0.00000000  0.15502700  0.94483000  1
  N  N7  1  0.00000000  0.84497300  0.05517000  1
  N  N8  1  0.00000000  0.15502700  0.55517000  1
  N  N9  1  0.00000000  0.84497300  0.44483000  1
  N  N10  1  0.37795500  0.43730700  0.86380300  1
  N  N11  1  0.37795500  0.18473800  0.13619700  1
  N  N12  1  0.37795500  0.43730700  0.63619700  1
  N  N13  1  0.37795500  0.18473800  0.36380300  1
  N  N14  1  0.62204500  0.56269300  0.13619700  1
  N  N15  1  0.62204500  0.81526200  0.86380300  1
  N  N16  1  0.62204500  0.56269300  0.36380300  1
  N  N17  1  0.62204500  0.81526200  0.63619700  1
loop_
_geom_bond_atom_site_label_1
_geom_bond_atom_site_label_2
_geom_bond_distance
_geom_bond_site_symmetry_2
C0 N2 1.181932 1_555
C0 N0 1.282750 1_655
C1 N3 1.181924 1_555
C1 N1 1.282756 1_655
C2 N4 1.181932 1_555
C2 N1 1.282750 1_555
C3 N5 1.181924 1_555
C3 N0 1.282756 1_555
C4 N10 1.181545 1_555
C4 N6 1.289077 1_655
C5 N11 1.181546 1_555
C5 N7 1.289074 1_645
C6 N12 1.181545 1_555
C6 N8 1.289077 1_655
C7 N13 1.181546 1_555
C7 N9 1.289074 1_645
C8 N14 1.181545 1_555
C8 N7 1.289077 1_555
C9 N15 1.181546 1_555
C9 N6 1.289074 1_565
C10 N16 1.181545 1_555
C10 N9 1.289077 1_555
C11 N17 1.181546 1_555
C11 N8 1.289074 1_565
N2 Ni0 2.059906 1_565
N3 Ni1 2.059915 1_555
N4 Ni1 2.059906 1_645
N5 Ni0 2.059915 1_655
N10 Ni1 2.096108 1_555
N11 Ni0 2.096108 1_555
N12 Ni1 2.096108 1_555
N13 Ni0 2.096108 1_555
N14 Ni0 2.096108 1_655
N15 Ni1 2.096108 1_655
N16 Ni0 2.096108 1_655
N17 Ni1 2.096108 1_655
