# generated using pymatgen
data_LiBi(PO3)4
_symmetry_space_group_name_H-M   'P 1'
_cell_length_a   7.47645993
_cell_length_b   9.00408400
_cell_length_c   8.38770856
_cell_angle_alpha   90.00000000
_cell_angle_beta   95.88260802
_cell_angle_gamma   90.00000000
_symmetry_Int_Tables_number   1
_chemical_formula_structural   LiBi(PO3)4
_chemical_formula_sum   'Li2 Bi2 P8 O24'
_cell_volume   561.67595295
_cell_formula_units_Z   2
loop_
 _symmetry_equiv_pos_site_id
 _symmetry_equiv_pos_as_xyz
  1  'x, y, z'
loop_
 _atom_site_type_symbol
 _atom_site_label
 _atom_site_symmetry_multiplicity
 _atom_site_fract_x
 _atom_site_fract_y
 _atom_site_fract_z
 _atom_site_occupancy
  Li  Li0  1  0.30415600  0.23306300  0.14402400  1
  Li  Li1  1  0.69584400  0.73306300  0.85597600  1
  Bi  Bi0  1  0.26099000  0.01117700  0.68624200  1
  Bi  Bi1  1  0.73901000  0.51117700  0.31375800  1
  P  P0  1  0.13679200  0.63133800  0.55574100  1
  P  P1  1  0.17966300  0.56850500  0.21786400  1
  P  P2  1  0.42756500  0.40372300  0.63259800  1
  P  P3  1  0.56584900  0.27478100  0.94468100  1
  P  P4  1  0.43415100  0.77478100  0.05531900  1
  P  P5  1  0.57243500  0.90372300  0.36740200  1
  P  P6  1  0.82033700  0.06850500  0.78213600  1
  P  P7  1  0.86320800  0.13133800  0.44425900  1
  O  O0  1  0.02096600  0.06869100  0.83088600  1
  O  O1  1  0.03659300  0.04555200  0.47167800  1
  O  O2  1  0.12878700  0.77914600  0.63563700  1
  O  O3  1  0.22344900  0.65285800  0.38839100  1
  O  O4  1  0.28480000  0.53406900  0.66311200  1
  O  O5  1  0.38133100  0.84613900  0.89709700  1
  O  O6  1  0.25957500  0.68796800  0.10277200  1
  O  O7  1  0.40171700  0.17601200  0.93902600  1
  O  O8  1  0.33305000  0.25969000  0.59658600  1
  O  O9  1  0.27852000  0.42496300  0.21986600  1
  O  O10  1  0.44218500  0.96122700  0.47680000  1
  O  O11  1  0.53651500  0.40382900  0.81108800  1
  O  O12  1  0.46348500  0.90382900  0.18891200  1
  O  O13  1  0.55781500  0.46122700  0.52320000  1
  O  O14  1  0.72148000  0.92496300  0.78013400  1
  O  O15  1  0.66695000  0.75969000  0.40341400  1
  O  O16  1  0.59828300  0.67601200  0.06097400  1
  O  O17  1  0.74042500  0.18796800  0.89722800  1
  O  O18  1  0.61866900  0.34613900  0.10290300  1
  O  O19  1  0.71520000  0.03407000  0.33688800  1
  O  O20  1  0.77655100  0.15285800  0.61160900  1
  O  O21  1  0.87121300  0.27914600  0.36436300  1
  O  O22  1  0.96340700  0.54555200  0.52832200  1
  O  O23  1  0.97903300  0.56869100  0.16911400  1
loop_
_geom_bond_atom_site_label_1
_geom_bond_atom_site_label_2
_geom_bond_distance
_geom_bond_site_symmetry_2
Li0 O9 1.857952 1_555
Li0 O7 2.002389 1_554
Li1 O14 1.857952 1_555
Li1 O16 2.002389 1_556
Bi0 O0 2.325237 1_555
Bi0 O2 2.331521 1_545
Bi0 O1 2.351696 1_555
Bi0 O10 2.368847 1_545
Bi0 O5 2.412361 1_545
Bi0 O8 2.438404 1_555
Bi0 O7 2.710741 1_555
Bi1 O23 2.325231 1_555
Bi1 O21 2.331521 1_555
Bi1 O22 2.351696 1_555
Bi1 O13 2.368847 1_555
Bi1 O18 2.412361 1_555
Bi1 O15 2.438404 1_555
Bi1 O16 2.710741 1_555
O0 P6 1.513757 1_455
O1 P7 1.506264 1_455
O2 P0 1.494030 1_555
O3 P0 1.616801 1_555
O3 P1 1.622931 1_555
O4 P0 1.611944 1_555
O4 P2 1.624267 1_555
O5 P4 1.490837 1_556
O6 P1 1.601291 1_555
O6 P4 1.606080 1_555
O7 P3 1.512301 1_555
O8 P2 1.492895 1_555
O9 P1 1.488110 1_555
O10 P5 1.497178 1_555
O11 P3 1.613531 1_555
O11 P2 1.629390 1_555
O12 P4 1.613531 1_555
O12 P5 1.629390 1_555
O13 P2 1.497178 1_555
O14 P6 1.488110 1_565
O15 P5 1.492895 1_555
O16 P4 1.512301 1_555
O17 P6 1.601291 1_555
O17 P3 1.606080 1_555
O18 P3 1.490837 1_554
O19 P7 1.611939 1_555
O19 P5 1.624274 1_545
O20 P7 1.616801 1_555
O20 P6 1.622931 1_555
O21 P7 1.494030 1_555
O22 P0 1.506264 1_655
O23 P1 1.513765 1_655
