# generated using pymatgen
data_Dy2Co12P7
_symmetry_space_group_name_H-M   'P 1'
_cell_length_a   9.02807809
_cell_length_b   9.02807809
_cell_length_c   3.60249500
_cell_angle_alpha   90.00000000
_cell_angle_beta   90.00000000
_cell_angle_gamma   120.00000066
_symmetry_Int_Tables_number   1
_chemical_formula_structural   Dy2Co12P7
_chemical_formula_sum   'Dy2 Co12 P7'
_cell_volume   254.28727594
_cell_formula_units_Z   1
loop_
 _symmetry_equiv_pos_site_id
 _symmetry_equiv_pos_as_xyz
  1  'x, y, z'
loop_
 _atom_site_type_symbol
 _atom_site_label
 _atom_site_symmetry_multiplicity
 _atom_site_fract_x
 _atom_site_fract_y
 _atom_site_fract_z
 _atom_site_occupancy
  Dy  Dy0  1  0.33333300  0.66666700  0.00000000  1
  Dy  Dy1  1  0.66666700  0.33333300  0.50000000  1
  Co  Co0  1  0.43330000  0.37329900  0.00000000  1
  Co  Co1  1  0.62670100  0.06000100  0.00000000  1
  Co  Co2  1  0.93999900  0.56670000  0.00000000  1
  Co  Co3  1  0.15387300  0.88124600  0.00000000  1
  Co  Co4  1  0.11875400  0.27262700  0.00000000  1
  Co  Co5  1  0.72737300  0.84612700  0.00000000  1
  Co  Co6  1  0.38346000  0.94780000  0.50000000  1
  Co  Co7  1  0.05220000  0.43566000  0.50000000  1
  Co  Co8  1  0.56434000  0.61654000  0.50000000  1
  Co  Co9  1  0.23278200  0.13083800  0.50000000  1
  Co  Co10  1  0.86916200  0.10194400  0.50000000  1
  Co  Co11  1  0.89805600  0.76721800  0.50000000  1
  P  P0  1  0.40689600  0.11225300  0.00000000  1
  P  P1  1  0.88774700  0.29464300  0.00000000  1
  P  P2  1  0.70535700  0.59310400  0.00000000  1
  P  P3  1  0.11137700  0.70941700  0.50000000  1
  P  P4  1  0.29058300  0.40196000  0.50000000  1
  P  P5  1  0.59804000  0.88862300  0.50000000  1
  P  P6  1  0.00000000  0.00000000  0.00000000  1
loop_
_geom_bond_atom_site_label_1
_geom_bond_atom_site_label_2
_geom_bond_distance
_geom_bond_site_symmetry_2
Dy0 P3 2.860453 1_554
Dy0 P3 2.860453 1_555
Dy0 P5 2.860457 1_554
Dy0 P5 2.860457 1_555
Dy0 P4 2.860460 1_554
Dy0 P4 2.860460 1_555
Dy1 P1 2.836793 1_555
Dy1 P1 2.836793 1_556
Dy1 P0 2.836798 1_555
Dy1 P0 2.836798 1_556
Dy1 P2 2.836800 1_555
Dy1 P2 2.836800 1_556
Co0 P0 2.247058 1_555
Co0 P2 2.257557 1_555
Co0 P4 2.303252 1_555
Co0 P4 2.303252 1_554
Co0 Dy1 2.928090 1_555
Co0 Dy1 2.928090 1_554
Co0 Dy0 3.196823 1_555
Co1 P1 2.247058 1_555
Co1 P0 2.257557 1_555
Co1 P5 2.303252 1_544
Co1 P5 2.303252 1_545
Co1 Dy1 2.928083 1_555
Co1 Dy1 2.928083 1_554
Co1 Dy0 3.196817 1_545
Co2 P2 2.247058 1_555
Co2 P1 2.257557 1_555
Co2 P3 2.303252 1_655
Co2 P3 2.303252 1_654
Co2 Dy1 2.928085 1_555
Co2 Dy1 2.928085 1_554
Co2 Dy0 3.196814 1_655
Co3 P6 2.137433 1_565
Co3 P0 2.191700 1_565
Co3 P3 2.281011 1_554
Co3 P3 2.281011 1_555
Co3 Dy0 3.084888 1_555
Co4 P6 2.137433 1_555
Co4 P1 2.191700 1_455
Co4 P4 2.281011 1_555
Co4 P4 2.281011 1_554
Co4 Dy0 3.084895 1_555
Co5 P6 2.137433 1_665
Co5 P2 2.191700 1_555
Co5 P5 2.281011 1_555
Co5 P5 2.281011 1_554
Co5 Dy0 3.084896 1_555
Co6 P5 2.252405 1_555
Co6 P0 2.275839 1_565
Co6 P0 2.275839 1_566
Co6 P3 2.319279 1_555
Co6 Dy0 2.956786 1_555
Co6 Dy0 2.956786 1_556
Co7 P3 2.252405 1_555
Co7 P1 2.275839 1_456
Co7 P1 2.275839 1_455
Co7 P4 2.319279 1_555
Co7 Dy0 2.956789 1_555
Co7 Dy0 2.956789 1_556
Co8 P4 2.252405 1_555
Co8 P2 2.275839 1_556
Co8 P2 2.275839 1_555
Co8 P5 2.319279 1_555
Co8 Dy0 2.956793 1_556
Co8 Dy0 2.956793 1_555
Co9 P4 2.233003 1_555
Co9 P0 2.450981 1_556
Co9 P0 2.450981 1_555
Co9 P6 2.563974 1_555
Co9 P6 2.563974 1_556
Co10 P5 2.233003 1_545
Co10 P1 2.450981 1_556
Co10 P1 2.450981 1_555
Co10 P6 2.563974 1_656
Co10 P6 2.563974 1_655
Co11 P3 2.233003 1_655
Co11 P2 2.450981 1_556
Co11 P2 2.450981 1_555
Co11 P6 2.563974 1_666
Co11 P6 2.563974 1_665
