# generated using pymatgen
data_CaVP2O7
_symmetry_space_group_name_H-M   'P 1'
_cell_length_a   6.31599183
_cell_length_b   12.54203529
_cell_length_c   7.14927972
_cell_angle_alpha   83.55186512
_cell_angle_beta   88.61600005
_cell_angle_gamma   96.15964492
_symmetry_Int_Tables_number   1
_chemical_formula_structural   CaVP2O7
_chemical_formula_sum   'Ca4 V4 P8 O28'
_cell_volume   559.12565906
_cell_formula_units_Z   4
loop_
 _symmetry_equiv_pos_site_id
 _symmetry_equiv_pos_as_xyz
  1  'x, y, z'
loop_
 _atom_site_type_symbol
 _atom_site_label
 _atom_site_symmetry_multiplicity
 _atom_site_fract_x
 _atom_site_fract_y
 _atom_site_fract_z
 _atom_site_occupancy
  Ca  Ca0  1  0.65963600  0.35531900  0.63541400  1
  Ca  Ca1  1  0.15963600  0.85528300  0.63548700  1
  Ca  Ca2  1  0.84035900  0.14471600  0.36451300  1
  Ca  Ca3  1  0.34036300  0.64467900  0.36457900  1
  V  V0  1  0.82224200  0.56588500  0.18713100  1
  V  V1  1  0.17776500  0.43411200  0.81287000  1
  V  V2  1  0.32228500  0.06586800  0.18720200  1
  V  V3  1  0.67771500  0.93413400  0.81281700  1
  P  P0  1  0.50061200  0.32910800  0.12192300  1
  P  P1  1  0.00059300  0.82909500  0.12193100  1
  P  P2  1  0.99941100  0.17090500  0.87807400  1
  P  P3  1  0.49938900  0.67089200  0.87807300  1
  P  P4  1  0.34561300  0.11027600  0.62083000  1
  P  P5  1  0.84561200  0.61024200  0.62083000  1
  P  P6  1  0.15438900  0.38975900  0.37916500  1
  P  P7  1  0.65438400  0.88972200  0.37917400  1
  O  O0  1  0.45645100  0.36615200  0.91539300  1
  O  O1  1  0.95639900  0.86615100  0.91543400  1
  O  O2  1  0.04360300  0.13384900  0.08457000  1
  O  O3  1  0.54355300  0.63384700  0.08460300  1
  O  O4  1  0.65531700  0.40708300  0.21240400  1
  O  O5  1  0.15530100  0.90706500  0.21244800  1
  O  O6  1  0.84470000  0.09293500  0.78756000  1
  O  O7  1  0.34468500  0.59291800  0.78758900  1
  O  O8  1  0.55098700  0.21152300  0.14954800  1
  O  O9  1  0.05099100  0.71151200  0.14952300  1
  O  O10  1  0.94901300  0.28848700  0.85047600  1
  O  O11  1  0.44901100  0.78847700  0.85045300  1
  O  O12  1  0.95554000  0.31509800  0.44770500  1
  O  O13  1  0.45551900  0.81507100  0.44769900  1
  O  O14  1  0.54447400  0.18492600  0.55229700  1
  O  O15  1  0.04445900  0.68490500  0.55228800  1
  O  O16  1  0.19144300  0.08589800  0.46261800  1
  O  O17  1  0.69145600  0.58584100  0.46263000  1
  O  O18  1  0.30854300  0.41416000  0.53736500  1
  O  O19  1  0.80854400  0.91409900  0.53739400  1
  O  O20  1  0.23215800  0.17478100  0.76844800  1
  O  O21  1  0.73215000  0.67472700  0.76847400  1
  O  O22  1  0.26785000  0.32527400  0.23152100  1
  O  O23  1  0.76784700  0.82521900  0.23155800  1
  O  O24  1  0.10751000  0.49787700  0.27105900  1
  O  O25  1  0.60755300  0.99784500  0.27107900  1
  O  O26  1  0.39244900  0.00215300  0.72891900  1
  O  O27  1  0.89249500  0.50212400  0.72893400  1
loop_
_geom_bond_atom_site_label_1
_geom_bond_atom_site_label_2
_geom_bond_distance
_geom_bond_site_symmetry_2
Ca0 O14 2.328472 1_555
Ca0 O0 2.376209 1_555
Ca0 O27 2.396479 1_555
Ca0 O12 2.404475 1_555
Ca0 O18 2.502676 1_555
Ca0 O10 2.565572 1_555
Ca1 O15 2.328536 1_555
Ca1 O1 2.376282 1_455
Ca1 O26 2.396682 1_565
Ca1 O13 2.404649 1_555
Ca1 O19 2.502642 1_455
Ca1 O11 2.565055 1_555
Ca2 O12 2.328569 1_555
Ca2 O2 2.376279 1_655
Ca2 O25 2.396672 1_545
Ca2 O14 2.404634 1_555
Ca2 O16 2.502627 1_655
Ca2 O8 2.565040 1_555
Ca3 O13 2.328460 1_555
Ca3 O3 2.376205 1_555
Ca3 O24 2.396431 1_555
Ca3 O15 2.404498 1_555
Ca3 O17 2.502666 1_555
Ca3 O9 2.565527 1_555
O0 P0 1.538652 1_556
O0 V1 2.146145 1_555
O1 P1 1.538514 1_656
O1 V3 2.146476 1_555
O2 P2 1.538504 1_454
O2 V2 2.146488 1_555
O3 P3 1.538659 1_554
O3 V0 2.146184 1_555
O4 P0 1.515643 1_555
O4 V0 2.137851 1_555
O5 P1 1.515748 1_555
O5 V2 2.138013 1_565
O6 P2 1.515748 1_555
O6 V3 2.137992 1_545
O7 P3 1.515643 1_555
O7 V1 2.137880 1_555
O8 P0 1.534096 1_555
O8 V2 2.191051 1_555
O9 P1 1.534111 1_555
O9 V0 2.190952 1_455
O10 P2 1.534100 1_555
O10 V1 2.190944 1_655
O11 P3 1.534101 1_555
O11 V3 2.191075 1_555
O12 P6 1.519588 1_655
O13 P7 1.519577 1_555
O14 P4 1.519565 1_555
O15 P5 1.519594 1_455
O16 P4 1.545325 1_555
O16 V2 2.167984 1_555
O17 P5 1.545264 1_555
O17 V0 2.168154 1_555
O18 P6 1.545256 1_555
O18 V1 2.168162 1_555
O19 P7 1.545326 1_555
O19 V3 2.168016 1_555
O20 P4 1.600453 1_555
O20 P2 1.642576 1_455
O21 P5 1.600448 1_555
O21 P3 1.642629 1_555
O22 P6 1.600445 1_555
O22 P0 1.642633 1_555
O23 P7 1.600451 1_555
O23 P1 1.642574 1_655
O24 P6 1.544545 1_555
O24 V0 2.144980 1_455
O25 P7 1.544475 1_555
O25 V2 2.144973 1_565
O26 P4 1.544467 1_555
O26 V3 2.144977 1_545
O27 P5 1.544547 1_555
O27 V1 2.145029 1_655
