# generated using pymatgen
data_Li3V2(OF)3
_symmetry_space_group_name_H-M   'P 1'
_cell_length_a   3.28934008
_cell_length_b   13.54603973
_cell_length_c   3.25122226
_cell_angle_alpha   97.28763289
_cell_angle_beta   58.39929153
_cell_angle_gamma   97.25317174
_symmetry_Int_Tables_number   1
_chemical_formula_structural   Li3V2(OF)3
_chemical_formula_sum   'Li3 V2 O3 F3'
_cell_volume   122.08215716
_cell_formula_units_Z   1
loop_
 _symmetry_equiv_pos_site_id
 _symmetry_equiv_pos_as_xyz
  1  'x, y, z'
loop_
 _atom_site_type_symbol
 _atom_site_label
 _atom_site_symmetry_multiplicity
 _atom_site_fract_x
 _atom_site_fract_y
 _atom_site_fract_z
 _atom_site_occupancy
  Li  Li0  1  0.14076900  0.42365600  0.13522100  1
  Li  Li1  1  0.26453200  0.78363600  0.26005300  1
  Li  Li2  1  0.86905100  0.60369400  0.86662800  1
  V  V0  1  0.99838000  0.99450600  0.00162200  1
  V  V1  1  0.73927000  0.22218500  0.74768400  1
  O  O0  1  0.08274800  0.25065000  0.07159700  1
  O  O1  1  0.31384100  0.93284100  0.31699700  1
  O  O2  1  0.69214600  0.07874200  0.69007400  1
  F  F0  1  0.18881200  0.56647300  0.17950300  1
  F  F1  1  0.79729200  0.39064500  0.80018400  1
  F  F2  1  0.91894300  0.74582600  0.92074400  1
loop_
_geom_bond_atom_site_label_1
_geom_bond_atom_site_label_2
_geom_bond_distance
_geom_bond_site_symmetry_2
Li0 O0 2.318808 1_555
Li1 O1 1.999835 1_555
O0 V1 1.888945 1_454
O0 V1 1.909225 1_554
O0 V1 1.938872 1_455
O1 V0 2.013851 1_456
O1 V0 2.035180 1_555
O1 V0 2.092136 1_455
O2 V1 1.922688 1_555
O2 V0 2.146188 1_545
O2 V0 2.179212 1_446
O2 V0 2.235046 1_546
F0 Li0 1.914257 1_555
F0 Li2 1.933105 1_455
F0 Li2 1.937903 1_554
F0 Li2 1.944364 1_454
F1 Li0 1.923945 1_656
F1 Li0 1.924861 1_556
F1 Li0 1.925697 1_655
F1 V1 2.257937 1_555
F2 Li2 1.905073 1_555
F2 Li1 1.934366 1_655
F2 Li1 1.938898 1_556
F2 Li1 1.948176 1_656
