# generated using pymatgen
data_CdPHO3
_symmetry_space_group_name_H-M   'P 1'
_cell_length_a   8.31661016
_cell_length_b   8.31661016
_cell_length_c   8.31660989
_cell_angle_alpha   109.23335980
_cell_angle_beta   109.23335979
_cell_angle_gamma   109.23336240
_symmetry_Int_Tables_number   1
_chemical_formula_structural   CdPHO3
_chemical_formula_sum   'Cd6 P6 H6 O18'
_cell_volume   446.66675773
_cell_formula_units_Z   6
loop_
 _symmetry_equiv_pos_site_id
 _symmetry_equiv_pos_as_xyz
  1  'x, y, z'
loop_
 _atom_site_type_symbol
 _atom_site_label
 _atom_site_symmetry_multiplicity
 _atom_site_fract_x
 _atom_site_fract_y
 _atom_site_fract_z
 _atom_site_occupancy
  Cd  Cd0  1  0.82164030  0.14178721  0.31576533  1
  Cd  Cd1  1  0.31576533  0.82164030  0.14178721  1
  Cd  Cd2  1  0.14178721  0.31576533  0.82164030  1
  Cd  Cd3  1  0.17835970  0.85821279  0.68423467  1
  Cd  Cd4  1  0.68423467  0.17835970  0.85821279  1
  Cd  Cd5  1  0.85821279  0.68423467  0.17835970  1
  P  P0  1  0.12145476  0.47331242  0.26497704  1
  P  P1  1  0.26497704  0.12145476  0.47331242  1
  P  P2  1  0.47331242  0.26497704  0.12145476  1
  P  P3  1  0.87854524  0.52668758  0.73502296  1
  P  P4  1  0.73502296  0.87854524  0.52668758  1
  P  P5  1  0.52668758  0.73502296  0.87854524  1
  H  H0  1  0.27057566  0.47210309  0.40461711  1
  H  H1  1  0.40461711  0.27057566  0.47210309  1
  H  H2  1  0.47210309  0.40461711  0.27057566  1
  H  H3  1  0.72942434  0.52789691  0.59538289  1
  H  H4  1  0.59538289  0.72942434  0.52789691  1
  H  H5  1  0.52789691  0.59538289  0.72942434  1
  O  O0  1  0.94292491  0.26966770  0.15439346  1
  O  O1  1  0.15439346  0.94292491  0.26966770  1
  O  O2  1  0.26966770  0.15439346  0.94292491  1
  O  O3  1  0.05707509  0.73033230  0.84560654  1
  O  O4  1  0.84560654  0.05707509  0.73033230  1
  O  O5  1  0.73033230  0.84560654  0.05707509  1
  O  O6  1  0.08446365  0.63074008  0.37640994  1
  O  O7  1  0.37640994  0.08446365  0.63074008  1
  O  O8  1  0.63074008  0.37640994  0.08446365  1
  O  O9  1  0.91553635  0.36925992  0.62359006  1
  O  O10  1  0.62359006  0.91553635  0.36925992  1
  O  O11  1  0.36925992  0.62359006  0.91553635  1
  O  O12  1  0.19134931  0.51879168  0.12869217  1
  O  O13  1  0.12869217  0.19134931  0.51879168  1
  O  O14  1  0.51879168  0.12869217  0.19134931  1
  O  O15  1  0.80865069  0.48120832  0.87130783  1
  O  O16  1  0.87130783  0.80865069  0.48120832  1
  O  O17  1  0.48120832  0.87130783  0.80865069  1
loop_
_geom_bond_atom_site_label_1
_geom_bond_atom_site_label_2
_geom_bond_distance
_geom_bond_site_symmetry_2
Cd0 O0 2.252808 1_555
Cd0 O9 2.293776 1_555
Cd0 O10 2.333212 1_545
Cd0 O14 2.335437 1_555
Cd0 O5 2.339355 1_545
Cd0 O13 2.355670 1_655
Cd1 O1 2.252809 1_555
Cd1 O10 2.293776 1_555
Cd1 O11 2.333212 1_554
Cd1 O12 2.335437 1_555
Cd1 O3 2.339355 1_554
Cd1 O14 2.355670 1_565
Cd2 O2 2.252809 1_555
Cd2 O11 2.293776 1_555
Cd2 O9 2.333212 1_455
Cd2 O13 2.335437 1_555
Cd2 O4 2.339355 1_455
Cd2 O12 2.355670 1_556
Cd3 O3 2.252808 1_555
Cd3 O6 2.293776 1_555
Cd3 O7 2.333212 1_565
Cd3 O17 2.335437 1_555
Cd3 O2 2.339355 1_565
Cd3 O16 2.355670 1_455
Cd4 O4 2.252809 1_555
Cd4 O7 2.293776 1_555
Cd4 O8 2.333212 1_556
Cd4 O15 2.335437 1_555
Cd4 O0 2.339355 1_556
Cd4 O17 2.355670 1_545
Cd5 O5 2.252809 1_555
Cd5 O8 2.293776 1_555
Cd5 O6 2.333212 1_655
Cd5 O16 2.335437 1_555
Cd5 O1 2.339355 1_655
Cd5 O15 2.355670 1_554
H0 P0 1.397806 1_555
H1 P1 1.397806 1_555
H2 P2 1.397806 1_555
H3 P3 1.397806 1_555
H4 P4 1.397806 1_555
H5 P5 1.397806 1_555
O0 P0 1.528449 1_655
O1 P1 1.528449 1_565
O2 P2 1.528449 1_556
O3 P3 1.528449 1_455
O4 P4 1.528449 1_545
O5 P5 1.528449 1_554
O6 P0 1.523639 1_555
O7 P1 1.523639 1_555
O8 P2 1.523639 1_555
O9 P3 1.523639 1_555
O10 P4 1.523639 1_555
O11 P5 1.523639 1_555
O12 P0 1.528814 1_555
O13 P1 1.528814 1_555
O14 P2 1.528814 1_555
O15 P3 1.528814 1_555
O16 P4 1.528814 1_555
O17 P5 1.528814 1_555
