# generated using pymatgen
data_Li4MnCo2O7
_symmetry_space_group_name_H-M   'P 1'
_cell_length_a   7.79995557
_cell_length_b   7.79995557
_cell_length_c   13.01089718
_cell_angle_alpha   61.79049846
_cell_angle_beta   61.79049846
_cell_angle_gamma   21.35819245
_symmetry_Int_Tables_number   1
_chemical_formula_structural   Li4MnCo2O7
_chemical_formula_sum   'Li8 Mn2 Co4 O14'
_cell_volume   252.74455975
_cell_formula_units_Z   2
loop_
 _symmetry_equiv_pos_site_id
 _symmetry_equiv_pos_as_xyz
  1  'x, y, z'
loop_
 _atom_site_type_symbol
 _atom_site_label
 _atom_site_symmetry_multiplicity
 _atom_site_fract_x
 _atom_site_fract_y
 _atom_site_fract_z
 _atom_site_occupancy
  Li  Li0  1  0.64811900  0.64811900  0.78118600  1
  Li  Li1  1  0.92508300  0.92508300  0.36282300  1
  Li  Li2  1  0.22425500  0.22425500  0.91452000  1
  Li  Li3  1  0.06790500  0.06790500  0.64153800  1
  Li  Li4  1  0.35784900  0.35784900  0.21888100  1
  Li  Li5  1  0.49860600  0.49860600  0.51329700  1
  Li  Li6  1  0.78403900  0.78403900  0.06476300  1
  Li  Li7  1  0.85355300  0.85355300  0.71455000  1
  Mn  Mn0  1  0.99702300  0.99702300  0.00002300  1
  Mn  Mn1  1  0.28702300  0.28702300  0.57776000  1
  Co  Co0  1  0.57504900  0.57504900  0.14140200  1
  Co  Co1  1  0.14357800  0.14357800  0.28840600  1
  Co  Co2  1  0.42631000  0.42631000  0.83848700  1
  Co  Co3  1  0.71247100  0.71247100  0.43157100  1
  O  O0  1  0.59352600  0.59352600  0.96895600  1
  O  O1  1  0.88257800  0.88257800  0.53809600  1
  O  O2  1  0.17113400  0.17113400  0.10755500  1
  O  O3  1  0.02224600  0.02224600  0.84219900  1
  O  O4  1  0.31564200  0.31564200  0.40308600  1
  O  O5  1  0.46686000  0.46686000  0.68566500  1
  O  O6  1  0.73828700  0.73828700  0.25892900  1
  O  O7  1  0.69167400  0.69167400  0.60080800  1
  O  O8  1  0.97382500  0.97382500  0.16630500  1
  O  O9  1  0.25217200  0.25217200  0.73378700  1
  O  O10  1  0.11152100  0.11152100  0.46418200  1
  O  O11  1  0.40245900  0.40245900  0.03826900  1
  O  O12  1  0.55042400  0.55042400  0.31088100  1
  O  O13  1  0.82679200  0.82679200  0.89207800  1
loop_
_geom_bond_atom_site_label_1
_geom_bond_atom_site_label_2
_geom_bond_distance
_geom_bond_site_symmetry_2
Li0 O9 2.016796 1_565
Li0 O9 2.016796 1_655
Li0 O7 2.108584 1_555
Li0 O0 2.168390 1_555
Li0 O3 2.229132 1_655
Li0 O3 2.229132 1_565
Li1 O1 2.048297 1_555
Li1 O4 2.081525 1_565
Li1 O4 2.081525 1_655
Li1 O12 2.233511 1_655
Li1 O12 2.233511 1_565
Li1 O8 2.293014 1_555
Li2 O13 2.050275 1_545
Li2 O13 2.050275 1_455
Li2 O9 2.178195 1_555
Li2 O2 2.236834 1_556
Li2 O0 2.289421 1_545
Li2 O0 2.289421 1_455
Li3 O5 1.990626 1_455
Li3 O5 1.990626 1_545
Li3 O10 2.070640 1_555
Li3 O7 2.236649 1_545
Li3 O7 2.236649 1_455
Li3 O3 2.355427 1_555
Li4 O11 2.108024 1_555
Li4 O8 2.132588 1_545
Li4 O8 2.132588 1_455
Li4 O4 2.161207 1_555
Li4 O6 2.191171 1_545
Li4 O6 2.191171 1_455
Li5 O5 2.053381 1_555
Li5 O10 2.104655 1_655
Li5 O10 2.104655 1_565
Li5 O1 2.191995 1_545
Li5 O1 2.191995 1_455
Li5 O12 2.356751 1_555
Li6 O13 2.015177 1_554
Li6 O2 2.113705 1_655
Li6 O2 2.113705 1_565
Li6 O11 2.213922 1_655
Li6 O11 2.213922 1_565
Li6 O6 2.273623 1_555
Li7 O9 2.047668 1_655
Li7 O9 2.047668 1_565
Li7 O1 2.118025 1_555
Li7 O13 2.142860 1_555
Li7 O5 2.149288 1_655
Li7 O5 2.149288 1_565
Mn0 O3 1.897955 1_664
Mn0 O11 1.935007 1_565
Mn0 O11 1.935007 1_655
Mn0 O0 1.966161 1_654
Mn0 O0 1.966161 1_564
Mn0 O8 2.016661 1_555
Mn1 O9 1.833882 1_555
Mn1 O1 1.942668 1_545
Mn1 O1 1.942668 1_455
Mn1 O7 1.973295 1_455
Mn1 O7 1.973295 1_545
Mn1 O4 2.097201 1_555
Co0 O2 1.956695 1_655
Co0 O2 1.956695 1_565
Co0 O8 2.029368 1_455
Co0 O8 2.029368 1_545
Co0 O12 2.050374 1_555
Co0 O0 2.122007 1_554
Co1 O6 1.951530 1_545
Co1 O6 1.951530 1_455
Co1 O12 1.952484 1_455
Co1 O12 1.952484 1_545
Co1 O10 2.095385 1_555
Co1 O2 2.181501 1_555
Co2 O5 1.775064 1_555
Co2 O13 1.969613 1_545
Co2 O13 1.969613 1_455
Co2 O3 2.079113 1_565
Co2 O3 2.079113 1_655
Co2 O11 2.444573 1_556
Co3 O10 2.008074 1_655
Co3 O10 2.008074 1_565
Co3 O4 2.040591 1_655
Co3 O4 2.040591 1_565
Co3 O7 2.067547 1_555
Co3 O6 2.084931 1_555
