# generated using pymatgen
data_NdTeCl
_symmetry_space_group_name_H-M   'P 1'
_cell_length_a   4.48077202
_cell_length_b   4.48077202
_cell_length_c   8.21278211
_cell_angle_alpha   90.00000000
_cell_angle_beta   90.00000000
_cell_angle_gamma   90.00000000
_symmetry_Int_Tables_number   1
_chemical_formula_structural   NdTeCl
_chemical_formula_sum   'Nd2 Te2 Cl2'
_cell_volume   164.89063723
_cell_formula_units_Z   2
loop_
 _symmetry_equiv_pos_site_id
 _symmetry_equiv_pos_as_xyz
  1  'x, y, z'
loop_
 _atom_site_type_symbol
 _atom_site_label
 _atom_site_symmetry_multiplicity
 _atom_site_fract_x
 _atom_site_fract_y
 _atom_site_fract_z
 _atom_site_occupancy
  Nd  Nd0  1  0.75000000  0.75000000  0.76051350  1
  Nd  Nd1  1  0.25000000  0.25000000  0.23948650  1
  Te  Te0  1  0.75000000  0.75000000  0.36411357  1
  Te  Te1  1  0.25000000  0.25000000  0.63588643  1
  Cl  Cl0  1  0.75000000  0.25000000  -0.00000000  1
  Cl  Cl1  1  0.25000000  0.75000000  0.00000000  1
loop_
_geom_bond_atom_site_label_1
_geom_bond_atom_site_label_2
_geom_bond_distance
_geom_bond_site_symmetry_2
Nd0 Te0 3.255546 1_555
Nd0 Te1 3.329607 1_665
Nd0 Te1 3.329607 1_555
Nd0 Te1 3.329607 1_565
Nd0 Te1 3.329607 1_655
Nd1 Te1 3.255546 1_555
Nd1 Te0 3.329607 1_445
Nd1 Te0 3.329607 1_455
Nd1 Te0 3.329607 1_545
Nd1 Te0 3.329607 1_555
Cl0 Nd1 2.981246 1_555
Cl0 Nd1 2.981246 1_655
Cl0 Nd0 2.981246 1_554
Cl0 Nd0 2.981246 1_544
Cl1 Nd1 2.981246 1_565
Cl1 Nd1 2.981246 1_555
Cl1 Nd0 2.981246 1_554
Cl1 Nd0 2.981246 1_454
