# generated using pymatgen
data_EuCuO3
_symmetry_space_group_name_H-M   'P 1'
_cell_length_a   8.08977599
_cell_length_b   8.08977599
_cell_length_c   6.30416132
_cell_angle_alpha   70.40592621
_cell_angle_beta   70.40592621
_cell_angle_gamma   47.04199132
_symmetry_Int_Tables_number   1
_chemical_formula_structural   EuCuO3
_chemical_formula_sum   'Eu4 Cu4 O12'
_cell_volume   281.02284920
_cell_formula_units_Z   4
loop_
 _symmetry_equiv_pos_site_id
 _symmetry_equiv_pos_as_xyz
  1  'x, y, z'
loop_
 _atom_site_type_symbol
 _atom_site_label
 _atom_site_symmetry_multiplicity
 _atom_site_fract_x
 _atom_site_fract_y
 _atom_site_fract_z
 _atom_site_occupancy
  Eu  Eu0  1  0.97642000  0.65017400  0.20593200  1
  Eu  Eu1  1  0.02358000  0.34982600  0.79406800  1
  Eu  Eu2  1  0.34982600  0.02358000  0.29406800  1
  Eu  Eu3  1  0.65017400  0.97642000  0.70593200  1
  Cu  Cu0  1  0.49735400  0.67366600  0.99583400  1
  Cu  Cu1  1  0.50264600  0.32633400  0.00416600  1
  Cu  Cu2  1  0.67366600  0.49735400  0.49583400  1
  Cu  Cu3  1  0.32633400  0.50264600  0.50416600  1
  O  O0  1  0.66537600  0.73122800  0.50619300  1
  O  O1  1  0.70754400  0.36249200  0.99018300  1
  O  O2  1  0.33462400  0.26877200  0.49380700  1
  O  O3  1  0.01273800  0.70271800  0.53272400  1
  O  O4  1  0.98726200  0.29728200  0.46727600  1
  O  O5  1  0.29728200  0.98726200  0.96727600  1
  O  O6  1  0.29245600  0.63750800  0.00981700  1
  O  O7  1  0.63750800  0.29245600  0.50981700  1
  O  O8  1  0.70271800  0.01273800  0.03272400  1
  O  O9  1  0.36249200  0.70754400  0.49018300  1
  O  O10  1  0.26877200  0.33462400  0.99380700  1
  O  O11  1  0.73122800  0.66537600  0.00619300  1
loop_
_geom_bond_atom_site_label_1
_geom_bond_atom_site_label_2
_geom_bond_distance
_geom_bond_site_symmetry_2
Eu0 O8 2.306514 1_565
Eu0 O3 2.382172 1_655
Eu0 O6 2.383994 1_655
Eu0 O0 2.394527 1_555
Eu0 O10 2.416214 1_654
Eu0 O11 2.602692 1_555
Eu0 O4 2.733699 1_555
Eu0 O2 2.965877 1_655
Eu1 O5 2.306514 1_545
Eu1 O4 2.382172 1_455
Eu1 O1 2.383994 1_455
Eu1 O2 2.394527 1_555
Eu1 O11 2.416214 1_456
Eu1 O10 2.602692 1_555
Eu1 O3 2.733699 1_555
Eu1 O0 2.965877 1_455
Eu2 O4 2.306514 1_455
Eu2 O5 2.382172 1_544
Eu2 O9 2.383994 1_545
Eu2 O10 2.394527 1_554
Eu2 O0 2.416214 1_545
Eu2 O2 2.602692 1_555
Eu2 O8 2.733699 1_555
Eu2 O11 2.965877 1_545
Eu3 O3 2.306514 1_655
Eu3 O8 2.382172 1_566
Eu3 O7 2.383994 1_565
Eu3 O11 2.394527 1_556
Eu3 O2 2.416214 1_565
Eu3 O0 2.602692 1_555
Eu3 O5 2.733699 1_555
Eu3 O10 2.965877 1_565
Cu0 O5 1.838707 1_555
Cu0 O6 1.840225 1_556
Cu0 O1 1.848010 1_555
Cu0 O11 1.869594 1_556
Cu1 O8 1.838707 1_555
Cu1 O1 1.840225 1_554
Cu1 O6 1.848010 1_555
Cu1 O10 1.869594 1_554
Cu2 O4 1.838707 1_555
Cu2 O7 1.840225 1_555
Cu2 O9 1.848010 1_555
Cu2 O0 1.869594 1_555
Cu3 O3 1.838707 1_555
Cu3 O9 1.840225 1_555
Cu3 O7 1.848010 1_555
Cu3 O2 1.869594 1_555
