# generated using pymatgen
data_TiTeO3F2
_symmetry_space_group_name_H-M   'P 1'
_cell_length_a   7.52266600
_cell_length_b   6.62840300
_cell_length_c   18.07403287
_cell_angle_alpha   68.48068780
_cell_angle_beta   90.00000000
_cell_angle_gamma   90.00000000
_symmetry_Int_Tables_number   1
_chemical_formula_structural   TiTeO3F2
_chemical_formula_sum   'Ti8 Te8 O24 F16'
_cell_volume   838.40906287
_cell_formula_units_Z   8
loop_
 _symmetry_equiv_pos_site_id
 _symmetry_equiv_pos_as_xyz
  1  'x, y, z'
loop_
 _atom_site_type_symbol
 _atom_site_label
 _atom_site_symmetry_multiplicity
 _atom_site_fract_x
 _atom_site_fract_y
 _atom_site_fract_z
 _atom_site_occupancy
  Ti  Ti0  1  0.09823100  0.38276200  0.86900700  1
  Ti  Ti1  1  0.59823100  0.61723800  0.63099300  1
  Ti  Ti2  1  0.87365200  0.38778200  0.36905200  1
  Ti  Ti3  1  0.37365200  0.61221800  0.13094800  1
  Ti  Ti4  1  0.90176900  0.61723800  0.13099300  1
  Ti  Ti5  1  0.40176900  0.38276200  0.36900700  1
  Ti  Ti6  1  0.12634800  0.61221800  0.63094800  1
  Ti  Ti7  1  0.62634800  0.38778200  0.86905200  1
  Te  Te0  1  0.86039700  0.91024200  0.86369400  1
  Te  Te1  1  0.36039700  0.08975800  0.63630600  1
  Te  Te2  1  0.13951300  0.86194600  0.36375500  1
  Te  Te3  1  0.63951300  0.13805400  0.13624500  1
  Te  Te4  1  0.13960300  0.08975800  0.13630600  1
  Te  Te5  1  0.63960300  0.91024200  0.36369400  1
  Te  Te6  1  0.86048700  0.13805400  0.63624500  1
  Te  Te7  1  0.36048700  0.86194600  0.86375500  1
  O  O0  1  0.85217900  0.97385800  0.74997300  1
  O  O1  1  0.35217900  0.02614200  0.75002700  1
  O  O2  1  0.14782100  0.02614200  0.25002700  1
  O  O3  1  0.64782100  0.97385800  0.24997300  1
  O  O4  1  0.05279700  0.10049200  0.86062100  1
  O  O5  1  0.55279700  0.89950800  0.63937900  1
  O  O6  1  0.94791600  0.67748700  0.36058400  1
  O  O7  1  0.44791600  0.32251300  0.13941600  1
  O  O8  1  0.94720300  0.89950800  0.13937900  1
  O  O9  1  0.44720300  0.10049200  0.36062100  1
  O  O10  1  0.05208400  0.32251300  0.63941600  1
  O  O11  1  0.55208400  0.67748700  0.86058400  1
  O  O12  1  0.67092400  0.09691400  0.86798400  1
  O  O13  1  0.17092400  0.90308600  0.63201600  1
  O  O14  1  0.32803100  0.66613000  0.36803600  1
  O  O15  1  0.82803100  0.33387000  0.13196400  1
  O  O16  1  0.32907600  0.90308600  0.13201600  1
  O  O17  1  0.82907600  0.09691400  0.36798400  1
  O  O18  1  0.67196900  0.33387000  0.63196400  1
  O  O19  1  0.17196900  0.66613000  0.86803600  1
  O  O20  1  0.86278600  0.45209800  0.86523200  1
  O  O21  1  0.36278600  0.54790200  0.63476800  1
  O  O22  1  0.13721400  0.54790200  0.13476800  1
  O  O23  1  0.63721400  0.45209800  0.36523200  1
  F  F0  1  0.11478200  0.50571700  0.75006400  1
  F  F1  1  0.61478200  0.49428300  0.74993600  1
  F  F2  1  0.88521800  0.49428300  0.24993600  1
  F  F3  1  0.38521800  0.50571700  0.25006400  1
  F  F4  1  0.11205400  0.25178500  0.97943900  1
  F  F5  1  0.61205400  0.74821500  0.52056100  1
  F  F6  1  0.89081400  0.28848200  0.47948600  1
  F  F7  1  0.39081400  0.71151800  0.02051400  1
  F  F8  1  0.88794600  0.74821500  0.02056100  1
  F  F9  1  0.38794600  0.25178500  0.47943900  1
  F  F10  1  0.10918600  0.71151800  0.52051400  1
  F  F11  1  0.60918600  0.28848200  0.97948600  1
  F  F12  1  0.13717600  0.31291000  0.36451500  1
  F  F13  1  0.63717600  0.68709000  0.13548500  1
  F  F14  1  0.86282400  0.68709000  0.63548500  1
  F  F15  1  0.36282400  0.31291000  0.86451500  1
loop_
_geom_bond_atom_site_label_1
_geom_bond_atom_site_label_2
_geom_bond_distance
_geom_bond_site_symmetry_2
O0 Te0 1.941764 1_555
O0 Te6 1.942259 1_565
O1 Te1 1.941764 1_555
O1 Te7 1.942259 1_545
O2 Te4 1.941764 1_555
O2 Te2 1.942259 1_545
O3 Te5 1.941764 1_555
O3 Te3 1.942259 1_565
O4 Te0 1.907042 1_445
O4 Ti0 1.961753 1_555
O5 Te1 1.907042 1_565
O5 Ti1 1.961753 1_555
O6 Te2 1.904473 1_655
O6 Ti2 1.951255 1_555
O7 Te3 1.904473 1_555
O7 Ti3 1.951255 1_555
O8 Te4 1.907042 1_665
O8 Ti4 1.961753 1_555
O9 Te5 1.907042 1_545
O9 Ti5 1.961753 1_555
O10 Te6 1.904473 1_455
O10 Ti6 1.951255 1_555
O11 Te7 1.904473 1_555
O11 Ti7 1.951255 1_555
O12 Te0 1.907616 1_545
O12 Ti7 1.963993 1_555
O13 Te1 1.907616 1_565
O13 Ti6 1.963993 1_555
O14 Te2 1.904770 1_555
O14 Ti5 1.952370 1_555
O15 Te3 1.904770 1_555
O15 Ti4 1.952370 1_555
O16 Te4 1.907616 1_565
O16 Ti3 1.963993 1_555
O17 Te5 1.907616 1_545
O17 Ti2 1.963993 1_555
O18 Te6 1.904770 1_555
O18 Ti1 1.952370 1_555
O19 Te7 1.904770 1_555
O19 Ti0 1.952370 1_555
O20 Ti7 1.824415 1_555
O20 Ti0 1.824809 1_655
O21 Ti6 1.824415 1_555
O21 Ti1 1.824809 1_555
O22 Ti3 1.824415 1_555
O22 Ti4 1.824809 1_455
O23 Ti2 1.824415 1_555
O23 Ti5 1.824809 1_555
F0 Ti0 2.003973 1_555
F0 Ti6 2.006475 1_555
F1 Ti1 2.003973 1_555
F1 Ti7 2.006475 1_555
F2 Ti4 2.003973 1_555
F2 Ti2 2.006475 1_555
F3 Ti5 2.003973 1_555
F3 Ti3 2.006475 1_555
F4 Ti0 1.864699 1_555
F5 Ti1 1.864699 1_555
F6 Ti2 1.862807 1_555
F7 Ti3 1.862807 1_555
F8 Ti4 1.864699 1_555
F9 Ti5 1.864699 1_555
F10 Ti6 1.862807 1_555
F11 Ti7 1.862807 1_555
F12 Ti5 2.051930 1_555
F12 Ti2 2.052510 1_455
F13 Ti4 2.051930 1_555
F13 Ti3 2.052510 1_555
F14 Ti1 2.051930 1_555
F14 Ti6 2.052510 1_655
F15 Ti0 2.051930 1_555
F15 Ti7 2.052510 1_555
