# generated using pymatgen
data_LuFeCu
_symmetry_space_group_name_H-M   'P 1'
_cell_length_a   5.14671982
_cell_length_b   5.14511036
_cell_length_c   5.14948785
_cell_angle_alpha   122.58392413
_cell_angle_beta   118.46207647
_cell_angle_gamma   89.07780093
_symmetry_Int_Tables_number   1
_chemical_formula_structural   LuFeCu
_chemical_formula_sum   'Lu2 Fe2 Cu2'
_cell_volume   95.53598960
_cell_formula_units_Z   2
loop_
 _symmetry_equiv_pos_site_id
 _symmetry_equiv_pos_as_xyz
  1  'x, y, z'
loop_
 _atom_site_type_symbol
 _atom_site_label
 _atom_site_symmetry_multiplicity
 _atom_site_fract_x
 _atom_site_fract_y
 _atom_site_fract_z
 _atom_site_occupancy
  Lu  Lu0  1  0.36594797  0.11592816  0.25009357  1
  Lu  Lu1  1  0.63405203  0.88407184  0.74990643  1
  Fe  Fe0  1  -0.00000000  0.50000000  0.00000000  1
  Fe  Fe1  1  -0.00000000  -0.00000000  0.50000000  1
  Cu  Cu0  1  0.50000000  0.50000000  0.00000000  1
  Cu  Cu1  1  -0.00000000  0.50000000  0.50000000  1
loop_
_geom_bond_atom_site_label_1
_geom_bond_atom_site_label_2
_geom_bond_distance
_geom_bond_site_symmetry_2
Fe0 Fe1 2.472488 1_554
Fe0 Fe1 2.472488 1_565
Fe0 Lu0 2.955159 1_565
Fe0 Lu1 2.955159 1_444
Fe0 Lu0 3.069220 1_555
Fe0 Lu1 3.069220 1_454
Fe0 Lu0 3.073018 1_454
Fe0 Lu1 3.073018 1_555
Fe1 Lu1 2.955046 1_445
Fe1 Lu0 2.955046 1_555
Fe1 Lu1 3.069564 1_545
Fe1 Lu0 3.069564 1_455
Fe1 Lu1 3.072997 1_444
Fe1 Lu0 3.072997 1_556
Cu0 Fe0 2.573360 1_555
Cu0 Fe0 2.573360 1_655
Cu0 Fe1 2.575485 1_665
Cu0 Fe1 2.575485 1_554
Cu0 Cu1 2.633654 1_554
Cu0 Cu1 2.633654 1_655
Cu0 Lu1 2.925406 1_544
Cu0 Lu0 2.925406 1_565
Cu0 Lu1 2.928916 1_555
Cu0 Lu0 2.928916 1_554
Cu0 Lu0 3.109879 1_555
Cu0 Lu1 3.109879 1_554
Cu1 Fe1 2.572555 1_565
Cu1 Fe1 2.572555 1_555
Cu1 Fe0 2.574744 1_556
Cu1 Fe0 2.574744 1_555
Cu1 Lu0 2.925707 1_555
Cu1 Lu1 2.925707 1_455
Cu1 Lu0 2.929783 1_566
Cu1 Lu1 2.929783 1_444
Cu1 Lu0 3.110609 1_455
Cu1 Lu1 3.110609 1_555
