# generated using pymatgen
data_MnFe4(BiO3)5
_symmetry_space_group_name_H-M   'P 1'
_cell_length_a   5.64701200
_cell_length_b   5.71056883
_cell_length_c   23.25119691
_cell_angle_alpha   96.28591023
_cell_angle_beta   89.73919228
_cell_angle_gamma   119.62500829
_symmetry_Int_Tables_number   1
_chemical_formula_structural   MnFe4(BiO3)5
_chemical_formula_sum   'Mn2 Fe8 Bi10 O30'
_cell_volume   646.79688133
_cell_formula_units_Z   2
loop_
 _symmetry_equiv_pos_site_id
 _symmetry_equiv_pos_as_xyz
  1  'x, y, z'
loop_
 _atom_site_type_symbol
 _atom_site_label
 _atom_site_symmetry_multiplicity
 _atom_site_fract_x
 _atom_site_fract_y
 _atom_site_fract_z
 _atom_site_occupancy
  Mn  Mn0  1  0.00848000  0.87390600  0.14338900  1
  Mn  Mn1  1  0.40595700  0.46370400  0.34452700  1
  Fe  Fe0  1  0.81303600  0.08211600  0.54496100  1
  Fe  Fe1  1  0.21136900  0.67907000  0.74496100  1
  Fe  Fe2  1  0.61106300  0.28067900  0.94464700  1
  Fe  Fe3  1  0.11397900  0.78111600  0.44438200  1
  Fe  Fe4  1  0.51365300  0.38058800  0.64499700  1
  Fe  Fe5  1  0.91304800  0.98004400  0.84444900  1
  Fe  Fe6  1  0.30844500  0.57791300  0.04392400  1
  Fe  Fe7  1  0.71822500  0.18550100  0.24617400  1
  Bi  Bi0  1  0.10396800  0.89800700  0.29877100  1
  Bi  Bi1  1  0.50391000  0.50537100  0.50064700  1
  Bi  Bi2  1  0.90257200  0.10317200  0.70075400  1
  Bi  Bi3  1  0.30172200  0.70306100  0.90013800  1
  Bi  Bi4  1  0.70171400  0.30467200  0.10161000  1
  Bi  Bi5  1  0.99658400  0.00081800  0.00009800  1
  Bi  Bi6  1  0.40946000  0.61576200  0.20092200  1
  Bi  Bi7  1  0.80290100  0.20117600  0.40031500  1
  Bi  Bi8  1  0.20297000  0.80521300  0.60106600  1
  Bi  Bi9  1  0.60115100  0.40317100  0.80039300  1
  O  O0  1  0.60996400  0.77805500  0.29261600  1
  O  O1  1  0.01264000  0.39324400  0.48660900  1
  O  O2  1  0.41554000  0.99171400  0.68705100  1
  O  O3  1  0.81572000  0.59279300  0.88673100  1
  O  O4  1  0.21049000  0.18899700  0.08784900  1
  O  O5  1  0.32001300  0.95775900  0.21205000  1
  O  O6  1  0.70335000  0.55483300  0.40676900  1
  O  O7  1  0.10614200  0.14991800  0.60781600  1
  O  O8  1  0.50653100  0.75038200  0.80730400  1
  O  O9  1  0.90228800  0.34857900  0.00803900  1
  O  O10  1  0.20055700  0.61276900  0.37708200  1
  O  O11  1  0.59545100  0.21528900  0.57785400  1
  O  O12  1  0.99524000  0.81479200  0.77722900  1
  O  O13  1  0.38880500  0.41042700  0.97625500  1
  O  O14  1  0.80097800  0.01534200  0.17803600  1
  O  O15  1  0.10735600  0.31684800  0.28200300  1
  O  O16  1  0.49544800  0.91251600  0.47758300  1
  O  O17  1  0.89646800  0.51423900  0.67768900  1
  O  O18  1  0.29620400  0.11378800  0.87641200  1
  O  O19  1  0.68415600  0.70442000  0.07332500  1
  O  O20  1  0.54764000  0.25874200  0.31205300  1
  O  O21  1  0.95173800  0.84877800  0.50747500  1
  O  O22  1  0.35031500  0.44814500  0.70767700  1
  O  O23  1  0.75291800  0.05024100  0.90743700  1
  O  O24  1  0.15738000  0.65550800  0.10773100  1
  O  O25  1  0.17095000  0.10028000  0.38979900  1
  O  O26  1  0.56260800  0.69206500  0.58746800  1
  O  O27  1  0.96293400  0.29231700  0.78705900  1
  O  O28  1  0.35939000  0.89011000  0.98615900  1
  O  O29  1  0.77577900  0.51484900  0.18531500  1
loop_
_geom_bond_atom_site_label_1
_geom_bond_atom_site_label_2
_geom_bond_distance
_geom_bond_site_symmetry_2
Mn0 O14 1.859822 1_465
Mn0 O24 1.937484 1_555
Mn0 O29 2.154886 1_455
Mn0 O4 2.161650 1_565
Mn0 O19 2.207783 1_455
Mn0 O5 2.213182 1_555
Mn1 O20 1.818517 1_555
Mn1 O10 1.862792 1_555
Mn1 O15 2.004320 1_555
Mn1 O6 2.044190 1_555
Mn1 O0 2.103266 1_555
Mn1 O25 2.217895 1_555
Fe0 O11 1.860344 1_555
Fe0 O21 1.979895 1_545
Fe0 O7 2.071204 1_655
Fe0 O16 2.141209 1_545
Fe0 O1 2.191356 1_655
Fe0 O26 2.300704 1_545
Fe1 O12 1.858146 1_455
Fe1 O22 1.967888 1_555
Fe1 O8 2.065641 1_555
Fe1 O17 2.131398 1_455
Fe1 O2 2.192505 1_555
Fe1 O27 2.280731 1_455
Fe2 O13 1.859059 1_555
Fe2 O23 1.976978 1_555
Fe2 O9 2.072169 1_556
Fe2 O18 2.146169 1_555
Fe2 O3 2.191057 1_555
Fe2 O28 2.291529 1_545
Fe3 O21 1.831488 1_455
Fe3 O10 1.933946 1_555
Fe3 O16 2.022282 1_555
Fe3 O6 2.149467 1_455
Fe3 O25 2.226920 1_565
Fe3 O1 2.327127 1_555
Fe4 O22 1.827571 1_555
Fe4 O11 1.908775 1_555
Fe4 O17 2.022441 1_555
Fe4 O7 2.133077 1_555
Fe4 O26 2.249657 1_555
Fe4 O2 2.334248 1_545
Fe5 O23 1.827845 1_565
Fe5 O12 1.911074 1_555
Fe5 O18 2.018356 1_665
Fe5 O8 2.128210 1_555
Fe5 O27 2.249656 1_565
Fe5 O3 2.329915 1_555
Fe6 O24 1.828480 1_555
Fe6 O13 1.920759 1_554
Fe6 O19 1.969855 1_555
Fe6 O9 2.116673 1_455
Fe6 O28 2.253645 1_554
Fe6 O4 2.357665 1_555
Fe7 O20 1.921919 1_555
Fe7 O14 1.943614 1_555
Fe7 O5 2.067988 1_545
Fe7 O15 2.082217 1_655
Fe7 O29 2.370555 1_555
Fe7 O0 2.468080 1_545
Bi0 O25 2.235377 1_565
Bi0 O20 2.319762 1_565
Bi0 O5 2.321054 1_555
Bi0 O15 2.456027 1_565
Bi0 O0 2.522856 1_455
Bi0 O10 2.793385 1_555
Bi1 O26 2.122982 1_555
Bi1 O21 2.301897 1_555
Bi1 O6 2.431221 1_555
Bi1 O16 2.465508 1_555
Bi1 O1 2.533587 1_555
Bi1 O11 2.782109 1_555
Bi2 O27 2.115958 1_555
Bi2 O22 2.304241 1_655
Bi2 O7 2.421290 1_655
Bi2 O17 2.480936 1_555
Bi2 O2 2.510693 1_545
Bi2 O12 2.765734 1_545
Bi3 O28 2.107504 1_555
Bi3 O23 2.321095 1_565
Bi3 O8 2.421941 1_555
Bi3 O18 2.482408 1_565
Bi3 O3 2.506394 1_455
Bi3 O13 2.763091 1_555
Bi4 O29 2.098317 1_555
Bi4 O24 2.345095 1_655
Bi4 O9 2.428045 1_555
Bi4 O19 2.491302 1_555
Bi4 O4 2.526605 1_555
Bi4 O14 2.787374 1_555
Bi5 O4 2.244053 1_655
Bi5 O9 2.285994 1_555
Bi5 O13 2.415618 1_654
Bi5 O28 2.435529 1_644
Bi5 O19 2.554976 1_545
Bi5 O23 2.675603 1_554
Bi6 O5 2.236002 1_555
Bi6 O0 2.288707 1_555
Bi6 O14 2.376042 1_565
Bi6 O29 2.422565 1_555
Bi6 O15 2.678551 1_555
Bi6 O24 2.688512 1_555
Bi7 O1 2.210660 1_655
Bi7 O6 2.339354 1_555
Bi7 O25 2.420711 1_655
Bi7 O10 2.430596 1_655
Bi7 O16 2.598068 1_545
Bi7 O20 2.653400 1_555
Bi8 O2 2.205422 1_555
Bi8 O7 2.279063 1_565
Bi8 O11 2.412881 1_565
Bi8 O26 2.426660 1_555
Bi8 O17 2.589907 1_455
Bi8 O21 2.702896 1_455
Bi9 O3 2.218015 1_555
Bi9 O8 2.284635 1_555
Bi9 O12 2.421268 1_555
Bi9 O27 2.429103 1_555
Bi9 O18 2.572737 1_555
Bi9 O22 2.688559 1_555
