# generated using pymatgen
data_BaSrHo4O8
_symmetry_space_group_name_H-M   'P 1'
_cell_length_a   3.43946100
_cell_length_b   10.28942900
_cell_length_c   12.06087900
_cell_angle_alpha   90.00000000
_cell_angle_beta   90.00000000
_cell_angle_gamma   90.00000000
_symmetry_Int_Tables_number   1
_chemical_formula_structural   BaSrHo4O8
_chemical_formula_sum   'Ba2 Sr2 Ho8 O16'
_cell_volume   426.83559037
_cell_formula_units_Z   2
loop_
 _symmetry_equiv_pos_site_id
 _symmetry_equiv_pos_as_xyz
  1  'x, y, z'
loop_
 _atom_site_type_symbol
 _atom_site_label
 _atom_site_symmetry_multiplicity
 _atom_site_fract_x
 _atom_site_fract_y
 _atom_site_fract_z
 _atom_site_occupancy
  Ba  Ba0  1  0.75000000  0.74775600  0.14875900  1
  Ba  Ba1  1  0.75000000  0.24775600  0.35124100  1
  Sr  Sr0  1  0.25000000  0.25478900  0.85325600  1
  Sr  Sr1  1  0.25000000  0.75478900  0.64674400  1
  Ho  Ho0  1  0.75000000  0.07526000  0.61296500  1
  Ho  Ho1  1  0.75000000  0.57526000  0.88703500  1
  Ho  Ho2  1  0.25000000  0.92243100  0.39282300  1
  Ho  Ho3  1  0.25000000  0.42243100  0.10717700  1
  Ho  Ho4  1  0.75000000  0.07777500  0.10729800  1
  Ho  Ho5  1  0.75000000  0.57777500  0.39270200  1
  Ho  Ho6  1  0.25000000  0.92584700  0.88533200  1
  Ho  Ho7  1  0.25000000  0.42584700  0.61466800  1
  O  O0  1  0.75000000  0.07712700  0.91977600  1
  O  O1  1  0.75000000  0.57712700  0.58022400  1
  O  O2  1  0.25000000  0.93294000  0.07196800  1
  O  O3  1  0.25000000  0.43294000  0.42803200  1
  O  O4  1  0.75000000  0.37623700  0.97795500  1
  O  O5  1  0.75000000  0.87623700  0.52204500  1
  O  O6  1  0.25000000  0.61570800  0.01449400  1
  O  O7  1  0.25000000  0.11570800  0.48550600  1
  O  O8  1  0.75000000  0.28909500  0.66752200  1
  O  O9  1  0.75000000  0.78909500  0.83247800  1
  O  O10  1  0.25000000  0.71084200  0.33996000  1
  O  O11  1  0.25000000  0.21084200  0.16004000  1
  O  O12  1  0.75000000  0.98374000  0.28417300  1
  O  O13  1  0.75000000  0.48374000  0.21582700  1
  O  O14  1  0.25000000  0.01045300  0.71556200  1
  O  O15  1  0.25000000  0.51045300  0.78443800  1
loop_
_geom_bond_atom_site_label_1
_geom_bond_atom_site_label_2
_geom_bond_distance
_geom_bond_site_symmetry_2
Ba0 O6 2.725040 1_655
Ba0 O6 2.725040 1_555
Ba0 O2 2.728727 1_655
Ba0 O2 2.728727 1_555
Ba0 O13 2.834447 1_555
Ba0 O10 2.901657 1_655
Ba0 O10 2.901657 1_555
Ba0 O12 2.926303 1_555
Ba1 O7 2.725040 1_555
Ba1 O7 2.725040 1_655
Ba1 O3 2.728727 1_555
Ba1 O3 2.728727 1_655
Ba1 O12 2.834447 1_545
Ba1 O11 2.901657 1_655
Ba1 O11 2.901657 1_555
Ba1 O13 2.926303 1_555
Ho0 O14 2.221107 1_555
Ho0 O14 2.221107 1_655
Ho0 O8 2.296525 1_555
Ho0 O5 2.322950 1_545
Ho0 O7 2.343902 1_655
Ho0 O7 2.343902 1_555
Ho1 O15 2.221107 1_555
Ho1 O15 2.221107 1_655
Ho1 O9 2.296525 1_555
Ho1 O4 2.322950 1_555
Ho1 O6 2.343902 1_556
Ho1 O6 2.343902 1_656
Ho2 O12 2.252246 1_555
Ho2 O12 2.252246 1_455
Ho2 O10 2.268567 1_555
Ho2 O7 2.281344 1_565
Ho2 O5 2.369053 1_455
Ho2 O5 2.369053 1_555
Ho3 O13 2.252246 1_455
Ho3 O13 2.252246 1_555
Ho3 O11 2.268567 1_555
Ho3 O6 2.281344 1_555
Ho3 O4 2.369053 1_554
Ho3 O4 2.369053 1_454
Ho4 O0 2.261690 1_554
Ho4 O11 2.288401 1_555
Ho4 O11 2.288401 1_655
Ho4 O2 2.315156 1_545
Ho4 O2 2.315156 1_645
Ho4 O12 2.342438 1_545
Ho5 O1 2.261690 1_555
Ho5 O10 2.288401 1_555
Ho5 O10 2.288401 1_655
Ho5 O3 2.315156 1_555
Ho5 O3 2.315156 1_655
Ho5 O13 2.342438 1_555
Ho6 O14 2.224953 1_565
Ho6 O2 2.252177 1_556
Ho6 O9 2.311659 1_555
Ho6 O9 2.311659 1_455
Ho6 O0 2.356482 1_465
Ho6 O0 2.356482 1_565
Ho7 O15 2.224953 1_555
Ho7 O3 2.252177 1_555
Ho7 O8 2.311659 1_555
Ho7 O8 2.311659 1_455
Ho7 O1 2.356482 1_455
Ho7 O1 2.356482 1_555
O0 Sr0 2.634933 1_555
O0 Sr0 2.634933 1_655
O1 Sr1 2.634933 1_555
O1 Sr1 2.634933 1_655
O4 Sr0 2.604036 1_555
O4 Sr0 2.604036 1_655
O5 Sr1 2.604036 1_555
O5 Sr1 2.604036 1_655
O8 Sr0 2.846083 1_555
O8 Sr0 2.846083 1_655
O9 Sr1 2.846083 1_555
O9 Sr1 2.846083 1_655
O14 Sr1 2.758470 1_545
O14 Sr0 3.013063 1_555
O15 Sr0 2.758470 1_555
O15 Sr1 3.013063 1_555
