# generated using pymatgen
data_Zr4Rh2N
_symmetry_space_group_name_H-M   'P 1'
_cell_length_a   8.76624996
_cell_length_b   8.76616144
_cell_length_c   8.76620625
_cell_angle_alpha   59.99956178
_cell_angle_beta   59.99992958
_cell_angle_gamma   59.99973333
_symmetry_Int_Tables_number   1
_chemical_formula_structural   Zr4Rh2N
_chemical_formula_sum   'Zr16 Rh8 N4'
_cell_volume   476.34044302
_cell_formula_units_Z   4
loop_
 _symmetry_equiv_pos_site_id
 _symmetry_equiv_pos_as_xyz
  1  'x, y, z'
loop_
 _atom_site_type_symbol
 _atom_site_label
 _atom_site_symmetry_multiplicity
 _atom_site_fract_x
 _atom_site_fract_y
 _atom_site_fract_z
 _atom_site_occupancy
  Zr  Zr0  1  0.12498194  0.62500838  0.62501107  1
  Zr  Zr1  1  0.62501455  0.12498935  0.62500289  1
  Zr  Zr2  1  0.62501842  0.62500244  0.12498768  1
  Zr  Zr3  1  0.62501034  0.62499627  0.62499807  1
  Zr  Zr4  1  0.81714002  0.81713775  0.18285737  1
  Zr  Zr5  1  0.18285249  0.18286418  0.81714478  1
  Zr  Zr6  1  0.81713880  0.18285891  0.81713366  1
  Zr  Zr7  1  0.18285994  0.81714091  0.18286808  1
  Zr  Zr8  1  0.18285441  0.81713908  0.81713762  1
  Zr  Zr9  1  0.81714555  0.18285970  0.18285951  1
  Zr  Zr10  1  0.43286919  0.43285960  0.06713397  1
  Zr  Zr11  1  0.06712445  0.06713936  0.43286941  1
  Zr  Zr12  1  0.43286571  0.06713040  0.43286287  1
  Zr  Zr13  1  0.06712965  0.43286875  0.06713619  1
  Zr  Zr14  1  0.06712394  0.43286443  0.43286869  1
  Zr  Zr15  1  0.43287012  0.06713637  0.06713257  1
  Rh  Rh0  1  0.77374733  0.40875126  0.40875111  1
  Rh  Rh1  1  0.40875197  0.77374907  0.40874974  1
  Rh  Rh2  1  0.40875308  0.40875134  0.77374523  1
  Rh  Rh3  1  0.40875082  0.40874959  0.40874885  1
  Rh  Rh4  1  0.47625639  0.84124899  0.84124778  1
  Rh  Rh5  1  0.84124907  0.47626058  0.84124524  1
  Rh  Rh6  1  0.84124911  0.84124606  0.47625995  1
  Rh  Rh7  1  0.84124870  0.84124622  0.84124583  1
  N  N0  1  0.62500164  0.12499861  0.12499795  1
  N  N1  1  0.12499674  0.62500192  0.12499955  1
  N  N2  1  0.12499578  0.12499983  0.62500083  1
  N  N3  1  0.12499786  0.12500066  0.12500052  1
loop_
_geom_bond_atom_site_label_1
_geom_bond_atom_site_label_2
_geom_bond_distance
_geom_bond_site_symmetry_2
Rh0 Zr3 2.745401 1_555
Rh0 Zr2 2.745414 1_555
Rh0 Zr1 2.745419 1_555
Rh0 Zr11 2.799220 1_655
Rh0 Zr14 2.799224 1_655
Rh0 Zr13 2.799272 1_655
Rh1 Zr3 2.745480 1_555
Rh1 Zr2 2.745503 1_555
Rh1 Zr0 2.745533 1_555
Rh1 Zr12 2.799223 1_565
Rh1 Zr15 2.799277 1_565
Rh1 Zr11 2.799356 1_565
Rh2 Zr3 2.745457 1_555
Rh2 Zr1 2.745472 1_555
Rh2 Zr0 2.745503 1_555
Rh2 Zr15 2.799261 1_556
Rh2 Zr10 2.799287 1_556
Rh2 Zr13 2.799351 1_556
Rh3 Zr1 2.745534 1_555
Rh3 Zr2 2.745555 1_555
Rh3 Zr0 2.745578 1_555
Rh3 Zr10 2.799284 1_555
Rh3 Zr12 2.799303 1_555
Rh3 Zr14 2.799381 1_555
Rh4 Zr1 2.745398 1_565
Rh4 Zr2 2.745419 1_556
Rh4 Zr3 2.745442 1_555
Rh4 Zr5 2.799336 1_565
Rh4 Zr7 2.799351 1_556
Rh4 Zr8 2.799392 1_555
Rh5 Zr0 2.745310 1_655
Rh5 Zr2 2.745342 1_556
Rh5 Zr3 2.745367 1_555
Rh5 Zr5 2.799258 1_655
Rh5 Zr9 2.799312 1_556
Rh5 Zr6 2.799375 1_555
Rh6 Zr0 2.745322 1_655
Rh6 Zr1 2.745345 1_565
Rh6 Zr3 2.745378 1_555
Rh6 Zr7 2.799291 1_655
Rh6 Zr9 2.799303 1_565
Rh6 Zr4 2.799372 1_555
Rh7 Zr0 2.745263 1_655
Rh7 Zr2 2.745282 1_556
Rh7 Zr1 2.745294 1_565
Rh7 Zr8 2.799268 1_655
Rh7 Zr6 2.799272 1_565
Rh7 Zr4 2.799296 1_556
N0 Zr10 2.305925 1_555
N0 Zr4 2.305938 1_545
N0 Zr15 2.305939 1_555
N0 Zr6 2.305972 1_554
N0 Zr12 2.305973 1_555
N0 Zr9 2.306012 1_555
N1 Zr4 2.305927 1_455
N1 Zr8 2.305946 1_554
N1 Zr13 2.305959 1_555
N1 Zr14 2.305991 1_555
N1 Zr7 2.306016 1_555
N1 Zr10 2.306037 1_555
N2 Zr8 2.305928 1_545
N2 Zr6 2.305928 1_455
N2 Zr14 2.305941 1_555
N2 Zr11 2.305959 1_555
N2 Zr5 2.305997 1_555
N2 Zr12 2.306018 1_555
N3 Zr9 2.305906 1_455
N3 Zr7 2.305911 1_545
N3 Zr5 2.305919 1_554
N3 Zr13 2.305974 1_555
N3 Zr11 2.305992 1_555
N3 Zr15 2.306041 1_555
