# generated using pymatgen
data_KLiMg6
_symmetry_space_group_name_H-M   'P 1'
_cell_length_a   5.43407700
_cell_length_b   6.48964400
_cell_length_c   11.93560900
_cell_angle_alpha   90.00000000
_cell_angle_beta   90.00000000
_cell_angle_gamma   90.00000000
_symmetry_Int_Tables_number   1
_chemical_formula_structural   KLiMg6
_chemical_formula_sum   'K2 Li2 Mg12'
_cell_volume   420.91193927
_cell_formula_units_Z   2
loop_
 _symmetry_equiv_pos_site_id
 _symmetry_equiv_pos_as_xyz
  1  'x, y, z'
loop_
 _atom_site_type_symbol
 _atom_site_label
 _atom_site_symmetry_multiplicity
 _atom_site_fract_x
 _atom_site_fract_y
 _atom_site_fract_z
 _atom_site_occupancy
  K  K0  1  0.50000000  0.00000000  0.16930700  1
  K  K1  1  0.50000000  0.50000000  0.66930700  1
  Li  Li0  1  0.50000000  0.50000000  0.16689600  1
  Li  Li1  1  0.50000000  0.00000000  0.66689600  1
  Mg  Mg0  1  0.50000000  0.24805900  0.41837400  1
  Mg  Mg1  1  0.50000000  0.75194100  0.41837400  1
  Mg  Mg2  1  0.00000000  0.73722700  0.07714000  1
  Mg  Mg3  1  0.00000000  0.26277300  0.07714000  1
  Mg  Mg4  1  0.00000000  0.00000000  0.34130600  1
  Mg  Mg5  1  0.00000000  0.50000000  0.33145900  1
  Mg  Mg6  1  0.50000000  0.74805900  0.91837400  1
  Mg  Mg7  1  0.50000000  0.25194100  0.91837400  1
  Mg  Mg8  1  0.00000000  0.23722700  0.57714000  1
  Mg  Mg9  1  0.00000000  0.76277300  0.57714000  1
  Mg  Mg10  1  0.00000000  0.50000000  0.84130600  1
  Mg  Mg11  1  0.00000000  0.00000000  0.83145900  1
loop_
_geom_bond_atom_site_label_1
_geom_bond_atom_site_label_2
_geom_bond_distance
_geom_bond_site_symmetry_2
K0 Li0 3.244950 1_555
K0 Li0 3.244950 1_545
K0 Mg1 3.380657 1_545
K0 Mg0 3.380657 1_555
K0 Mg3 3.391240 1_555
K0 Mg3 3.391240 1_655
K0 Mg2 3.391240 1_645
K0 Mg2 3.391240 1_545
K0 Mg4 3.405400 1_655
K0 Mg4 3.405400 1_555
K0 Mg7 3.412258 1_554
K0 Mg6 3.412258 1_544
K1 Li1 3.244950 1_565
K1 Li1 3.244950 1_555
K1 Mg6 3.380657 1_555
K1 Mg7 3.380657 1_555
K1 Mg9 3.391240 1_555
K1 Mg9 3.391240 1_655
K1 Mg8 3.391240 1_555
K1 Mg8 3.391240 1_655
K1 Mg10 3.405400 1_655
K1 Mg10 3.405400 1_555
K1 Mg0 3.412258 1_555
K1 Mg1 3.412258 1_555
Li0 Mg2 3.301528 1_655
Li0 Mg3 3.301528 1_555
Li0 Mg3 3.301528 1_655
Li0 Mg2 3.301528 1_555
Li0 Mg5 3.352644 1_655
Li0 Mg5 3.352644 1_555
Li0 Mg6 3.374938 1_554
Li0 Mg7 3.374938 1_554
Li0 Mg0 3.417969 1_555
Li0 Mg1 3.417969 1_555
Li1 Mg8 3.301528 1_655
Li1 Mg8 3.301528 1_555
Li1 Mg9 3.301528 1_545
Li1 Mg9 3.301528 1_645
Li1 Mg11 3.352644 1_555
Li1 Mg11 3.352644 1_655
Li1 Mg1 3.374938 1_545
Li1 Mg0 3.374938 1_555
Li1 Mg7 3.417969 1_555
Li1 Mg6 3.417969 1_545
Mg0 Mg1 3.219629 1_545
Mg0 Mg1 3.270015 1_555
Mg0 Mg4 3.289366 1_655
Mg0 Mg4 3.289366 1_555
Mg0 Mg8 3.313329 1_655
Mg0 Mg8 3.313329 1_555
Mg0 Mg5 3.336422 1_555
Mg0 Mg5 3.336422 1_655
Mg1 Mg4 3.289366 1_665
Mg1 Mg4 3.289366 1_565
Mg1 Mg9 3.313329 1_655
Mg1 Mg9 3.313329 1_555
Mg1 Mg5 3.336422 1_555
Mg1 Mg5 3.336422 1_655
Mg2 Mg3 3.079038 1_555
Mg2 Mg6 3.313329 1_454
Mg2 Mg6 3.313329 1_554
Mg2 Mg5 3.403540 1_555
Mg2 Mg3 3.410606 1_565
Mg3 Mg7 3.313329 1_554
Mg3 Mg7 3.313329 1_454
Mg3 Mg5 3.403540 1_555
Mg4 Mg8 3.208324 1_555
Mg4 Mg9 3.208324 1_545
Mg4 Mg5 3.246950 1_545
Mg4 Mg5 3.246950 1_555
Mg5 Mg9 3.392160 1_555
Mg5 Mg8 3.392160 1_555
Mg6 Mg7 3.219629 1_555
Mg6 Mg7 3.270015 1_565
Mg8 Mg9 3.079038 1_545
Mg8 Mg9 3.410606 1_555
Mg10 Mg3 3.208324 1_556
Mg10 Mg2 3.208324 1_556
Mg10 Mg11 3.246950 1_555
Mg10 Mg11 3.246950 1_565
Mg10 Mg6 3.289366 1_455
Mg10 Mg6 3.289366 1_555
Mg10 Mg7 3.289366 1_455
Mg10 Mg7 3.289366 1_555
Mg11 Mg7 3.336422 1_455
Mg11 Mg7 3.336422 1_555
Mg11 Mg6 3.336422 1_445
Mg11 Mg6 3.336422 1_545
Mg11 Mg3 3.392160 1_556
Mg11 Mg2 3.392160 1_546
Mg11 Mg8 3.403540 1_555
Mg11 Mg9 3.403540 1_545
