# generated using pymatgen
data_Zr37Mo15P4
_symmetry_space_group_name_H-M   'P 1'
_cell_length_a   8.75578693
_cell_length_b   8.75589500
_cell_length_c   17.55079200
_cell_angle_alpha   90.00000000
_cell_angle_beta   90.00009104
_cell_angle_gamma   59.99959548
_symmetry_Int_Tables_number   1
_chemical_formula_structural   Zr37Mo15P4
_chemical_formula_sum   'Zr37 Mo15 P4'
_cell_volume   1165.25589857
_cell_formula_units_Z   1
loop_
 _symmetry_equiv_pos_site_id
 _symmetry_equiv_pos_as_xyz
  1  'x, y, z'
loop_
 _atom_site_type_symbol
 _atom_site_label
 _atom_site_symmetry_multiplicity
 _atom_site_fract_x
 _atom_site_fract_y
 _atom_site_fract_z
 _atom_site_occupancy
  Zr  Zr0  1  0.53680400  0.92639700  0.37513900  1
  Zr  Zr1  1  0.53641700  0.92716800  0.87498700  1
  Zr  Zr2  1  0.92638500  0.53680800  0.37513900  1
  Zr  Zr3  1  0.92715700  0.53642100  0.87498700  1
  Zr  Zr4  1  0.53680400  0.53679900  0.37513900  1
  Zr  Zr5  1  0.53641700  0.53641500  0.87498700  1
  Zr  Zr6  1  0.46319600  0.07360300  0.12486100  1
  Zr  Zr7  1  0.46358300  0.07283200  0.62501300  1
  Zr  Zr8  1  0.07361500  0.46319200  0.12486100  1
  Zr  Zr9  1  0.07284300  0.46357900  0.62501300  1
  Zr  Zr10  1  0.46319600  0.46320100  0.12486100  1
  Zr  Zr11  1  0.46358300  0.46358500  0.62501300  1
  Zr  Zr12  1  0.20050800  0.59898400  0.27416100  1
  Zr  Zr13  1  0.19835300  0.60329800  0.77389300  1
  Zr  Zr14  1  0.59899500  0.20050200  0.27415600  1
  Zr  Zr15  1  0.60330800  0.19834600  0.77388700  1
  Zr  Zr16  1  0.20050800  0.20050800  0.27416100  1
  Zr  Zr17  1  0.19835300  0.19834900  0.77389300  1
  Zr  Zr18  1  0.79949200  0.40101600  0.22583900  1
  Zr  Zr19  1  0.80164700  0.39670200  0.72610700  1
  Zr  Zr20  1  0.40100500  0.79949800  0.22584400  1
  Zr  Zr21  1  0.39669200  0.80165400  0.72611300  1
  Zr  Zr22  1  0.79949200  0.79949200  0.22583900  1
  Zr  Zr23  1  0.80164700  0.80165100  0.72610700  1
  Zr  Zr24  1  0.80165900  0.39668000  0.02387500  1
  Zr  Zr25  1  0.80172900  0.39653900  0.52450300  1
  Zr  Zr26  1  0.39666600  0.80166700  0.02386900  1
  Zr  Zr27  1  0.39652800  0.80173600  0.52449700  1
  Zr  Zr28  1  0.80165900  0.80166100  0.02387500  1
  Zr  Zr29  1  0.80172900  0.80173200  0.52450300  1
  Zr  Zr30  1  0.19834100  0.60332000  0.47612500  1
  Zr  Zr31  1  0.19827100  0.60346100  0.97549700  1
  Zr  Zr32  1  0.60333400  0.19833300  0.47613100  1
  Zr  Zr33  1  0.60347200  0.19826400  0.97550300  1
  Zr  Zr34  1  0.19834100  0.19833900  0.47612500  1
  Zr  Zr35  1  0.19827100  0.19826800  0.97549700  1
  Zr  Zr36  1  0.00000000  0.00000000  0.25000000  1
  Mo  Mo0  1  0.88940200  0.22120700  0.37751300  1
  Mo  Mo1  1  0.89141300  0.21718900  0.87490700  1
  Mo  Mo2  1  0.22120800  0.88939600  0.37751100  1
  Mo  Mo3  1  0.21719000  0.89140500  0.87490600  1
  Mo  Mo4  1  0.88940200  0.88939000  0.37751300  1
  Mo  Mo5  1  0.89141300  0.89139900  0.87490700  1
  Mo  Mo6  1  0.11059800  0.77879300  0.12248700  1
  Mo  Mo7  1  0.10858700  0.78281100  0.62509300  1
  Mo  Mo8  1  0.77879200  0.11060400  0.12248900  1
  Mo  Mo9  1  0.78281000  0.10859500  0.62509400  1
  Mo  Mo10  1  0.11059800  0.11061000  0.12248700  1
  Mo  Mo11  1  0.10858700  0.10860100  0.62509300  1
  Mo  Mo12  1  0.00000000  0.00000000  0.75000000  1
  Mo  Mo13  1  0.00000000  0.00000000  0.99893500  1
  Mo  Mo14  1  0.00000000  0.00000000  0.50106500  1
  P  P0  1  0.33336300  0.33331800  0.37579800  1
  P  P1  1  0.33335800  0.33332100  0.87504400  1
  P  P2  1  0.66663700  0.66668200  0.12420200  1
  P  P3  1  0.66664200  0.66667900  0.62495600  1
loop_
_geom_bond_atom_site_label_1
_geom_bond_atom_site_label_2
_geom_bond_distance
_geom_bond_site_symmetry_2
Mo0 Mo14 2.741472 1_655
Mo0 Zr36 2.796785 1_655
Mo0 Zr25 2.902226 1_555
Mo0 Mo2 2.905245 1_645
Mo0 Mo4 2.905355 1_545
Mo0 Zr4 2.938984 1_555
Mo0 Zr2 2.938985 1_555
Mo0 Zr18 2.990860 1_555
Mo0 Zr34 3.132233 1_655
Mo0 Zr32 3.132302 1_555
Mo0 Zr16 3.201483 1_655
Mo0 Zr14 3.201555 1_555
Mo1 Mo13 2.729595 1_655
Mo1 Mo12 2.741916 1_655
Mo1 Mo3 2.852465 1_645
Mo1 Mo5 2.852583 1_545
Mo1 Zr19 2.945016 1_555
Mo1 Zr24 2.947557 1_556
Mo1 Zr3 2.964065 1_555
Mo1 Zr5 2.964105 1_555
Mo1 Zr35 3.149265 1_655
Mo1 Zr33 3.149377 1_555
Mo1 Zr17 3.154305 1_655
Mo1 Zr15 3.154411 1_555
Mo2 Zr36 2.796746 1_565
Mo2 Zr27 2.902111 1_555
Mo2 Mo4 2.905249 1_455
Mo2 Zr0 2.939001 1_555
Mo2 Zr4 2.939001 1_555
Mo2 Zr20 2.990704 1_555
Mo2 Zr30 3.132316 1_555
Mo2 Zr34 3.132316 1_565
Mo2 Zr12 3.201529 1_555
Mo2 Zr16 3.201529 1_565
Mo3 Mo5 2.852460 1_455
Mo3 Zr21 2.944865 1_555
Mo3 Zr26 2.947415 1_556
Mo3 Zr1 2.964086 1_555
Mo3 Zr5 2.964086 1_555
Mo3 Zr31 3.149348 1_555
Mo3 Zr35 3.149348 1_565
Mo3 Zr13 3.154359 1_555
Mo3 Zr17 3.154359 1_565
Mo4 Zr36 2.796790 1_665
Mo4 Zr29 2.902223 1_555
Mo4 Zr2 2.938968 1_555
Mo4 Zr0 2.938980 1_555
Mo4 Zr22 2.990856 1_555
Mo4 Zr30 3.132230 1_655
Mo4 Zr32 3.132306 1_565
Mo4 Zr12 3.201479 1_655
Mo4 Zr14 3.201555 1_565
Mo5 Zr23 2.945020 1_555
Mo5 Zr28 2.947560 1_556
Mo5 Zr3 2.964083 1_555
Mo5 Zr1 2.964108 1_555
Mo5 Zr31 3.149268 1_655
Mo5 Zr33 3.149373 1_565
Mo5 Zr13 3.154308 1_655
Mo5 Zr15 3.154407 1_565
Mo6 Zr36 2.796785 1_565
Mo6 Zr31 2.902226 1_554
Mo6 Mo8 2.905245 1_465
Mo6 Zr10 2.938984 1_555
Mo6 Zr8 2.938985 1_555
Mo6 Zr12 2.990860 1_555
Mo6 Zr28 3.132233 1_455
Mo6 Zr26 3.132302 1_555
Mo6 Zr22 3.201483 1_455
Mo6 Zr20 3.201555 1_555
Mo7 Mo9 2.852465 1_465
Mo7 Zr13 2.945016 1_555
Mo7 Zr30 2.947557 1_555
Mo7 Zr9 2.964065 1_555
Mo7 Zr11 2.964105 1_555
Mo7 Zr29 3.149265 1_455
Mo7 Zr27 3.149377 1_555
Mo7 Zr23 3.154305 1_455
Mo7 Zr21 3.154411 1_555
Mo8 Zr36 2.796746 1_655
Mo8 Zr33 2.902111 1_554
Mo8 Zr6 2.939001 1_555
Mo8 Zr10 2.939001 1_555
Mo8 Zr14 2.990704 1_555
Mo8 Zr24 3.132316 1_555
Mo8 Zr28 3.132316 1_545
Mo8 Zr18 3.201529 1_555
Mo8 Zr22 3.201529 1_545
Mo9 Zr15 2.944865 1_555
Mo9 Zr32 2.947415 1_555
Mo9 Zr7 2.964086 1_555
Mo9 Zr11 2.964086 1_555
Mo9 Zr25 3.149348 1_555
Mo9 Zr29 3.149348 1_545
Mo9 Zr19 3.154359 1_555
Mo9 Zr23 3.154359 1_545
Mo10 Mo13 2.741476 1_554
Mo10 Zr36 2.796790 1_555
Mo10 Zr35 2.902223 1_554
Mo10 Mo8 2.905249 1_455
Mo10 Mo6 2.905355 1_545
Mo10 Zr8 2.938968 1_555
Mo10 Zr6 2.938980 1_555
Mo10 Zr16 2.990856 1_555
Mo10 Zr24 3.132230 1_455
Mo10 Zr26 3.132306 1_545
Mo10 Zr18 3.201479 1_455
Mo10 Zr20 3.201555 1_545
Mo11 Mo14 2.729590 1_555
Mo11 Mo12 2.741911 1_555
Mo11 Mo9 2.852460 1_455
Mo11 Mo7 2.852583 1_545
Mo11 Zr17 2.945020 1_555
Mo11 Zr34 2.947560 1_555
Mo11 Zr9 2.964083 1_555
Mo11 Zr7 2.964108 1_555
Mo11 Zr25 3.149268 1_455
Mo11 Zr27 3.149373 1_545
Mo11 Zr19 3.154308 1_455
Mo11 Zr21 3.154407 1_545
Mo12 Mo9 2.741890 1_455
Mo12 Mo3 2.741890 1_545
Mo12 Mo5 2.741911 1_445
Mo12 Mo7 2.741916 1_545
Mo12 Zr21 3.037073 1_545
Mo12 Zr15 3.037073 1_455
Mo12 Zr17 3.037198 1_555
Mo12 Zr23 3.037198 1_445
Mo12 Zr19 3.037198 1_455
Mo12 Zr13 3.037198 1_545
Mo13 Mo5 2.729590 1_445
Mo13 Mo3 2.729604 1_545
Mo13 Mo6 2.741472 1_546
Mo13 Mo8 2.741495 1_456
Mo13 Zr33 3.034747 1_455
Mo13 Zr35 3.034882 1_555
Mo13 Zr31 3.034882 1_545
Mo13 Zr26 3.039467 1_546
Mo13 Zr28 3.039625 1_446
Mo13 Zr24 3.039626 1_456
Mo14 Mo7 2.729595 1_545
Mo14 Mo9 2.729604 1_455
Mo14 Mo4 2.741476 1_445
Mo14 Mo2 2.741495 1_545
Mo14 Zr27 3.034747 1_545
Mo14 Zr29 3.034882 1_445
Mo14 Zr25 3.034882 1_455
Mo14 Zr32 3.039467 1_455
Mo14 Zr34 3.039625 1_555
Mo14 Zr30 3.039626 1_545
P0 Zr14 2.690602 1_555
P0 Zr16 2.690746 1_555
P0 Zr12 2.690752 1_555
P0 Zr32 2.700277 1_555
P0 Zr34 2.700404 1_555
P0 Zr30 2.700410 1_555
P0 Zr0 3.085621 1_545
P0 Zr4 3.085628 1_555
P0 Zr2 3.086015 1_455
P1 Zr33 2.702542 1_555
P1 Zr35 2.702645 1_555
P1 Zr31 2.702645 1_555
P1 Zr15 2.709615 1_555
P1 Zr17 2.709716 1_555
P1 Zr13 2.709716 1_555
P1 Zr5 3.079776 1_555
P1 Zr1 3.079776 1_545
P1 Zr3 3.080102 1_455
P2 Zr20 2.690602 1_555
P2 Zr22 2.690746 1_555
P2 Zr18 2.690752 1_555
P2 Zr26 2.700277 1_555
P2 Zr28 2.700404 1_555
P2 Zr24 2.700410 1_555
P2 Zr6 3.085621 1_565
P2 Zr10 3.085628 1_555
P2 Zr8 3.086015 1_655
P3 Zr27 2.702542 1_555
P3 Zr29 2.702645 1_555
P3 Zr25 2.702645 1_555
P3 Zr21 2.709615 1_555
P3 Zr23 2.709716 1_555
P3 Zr19 2.709716 1_555
P3 Zr11 3.079776 1_555
P3 Zr7 3.079776 1_565
P3 Zr9 3.080102 1_655
