# generated using pymatgen
data_Hf2CuSiAs2
_symmetry_space_group_name_H-M   'P 1'
_cell_length_a   5.18189200
_cell_length_b   5.18189200
_cell_length_c   25.58614300
_cell_angle_alpha   90.00000000
_cell_angle_beta   90.00000000
_cell_angle_gamma   90.00000000
_symmetry_Int_Tables_number   1
_chemical_formula_structural   Hf2CuSiAs2
_chemical_formula_sum   'Hf2 Cu1 Si1 As2'
_cell_volume   687.03923208
_cell_formula_units_Z   1
loop_
 _symmetry_equiv_pos_site_id
 _symmetry_equiv_pos_as_xyz
  1  'x, y, z'
loop_
 _atom_site_type_symbol
 _atom_site_label
 _atom_site_symmetry_multiplicity
 _atom_site_fract_x
 _atom_site_fract_y
 _atom_site_fract_z
 _atom_site_occupancy
  Hf  Hf0  1  0.50000000  0.50000000  0.22761900  1
  Hf  Hf1  1  0.50000000  0.50000000  0.77238100  1
  Cu  Cu0  1  0.50000000  0.50000000  0.50000000  1
  Si  Si0  1  0.50000000  0.50000000  0.00000000  1
  As  As0  1  0.50000000  0.50000000  0.68226100  1
  As  As1  1  0.50000000  0.50000000  0.31773900  1
loop_
_geom_bond_atom_site_label_1
_geom_bond_atom_site_label_2
_geom_bond_distance
_geom_bond_site_symmetry_2
As0 Hf1 2.305823 1_555
As1 Hf0 2.305823 1_555
