# generated using pymatgen
data_Li5Co3O8
_symmetry_space_group_name_H-M   'P 1'
_cell_length_a   2.94789100
_cell_length_b   4.98195700
_cell_length_c   9.74002044
_cell_angle_alpha   77.96915349
_cell_angle_beta   90.00000000
_cell_angle_gamma   90.00000000
_symmetry_Int_Tables_number   1
_chemical_formula_structural   Li5Co3O8
_chemical_formula_sum   'Li5 Co3 O8'
_cell_volume   139.90263487
_cell_formula_units_Z   1
loop_
 _symmetry_equiv_pos_site_id
 _symmetry_equiv_pos_as_xyz
  1  'x, y, z'
loop_
 _atom_site_type_symbol
 _atom_site_label
 _atom_site_symmetry_multiplicity
 _atom_site_fract_x
 _atom_site_fract_y
 _atom_site_fract_z
 _atom_site_occupancy
  Li  Li0  1  0.00000000  0.24074000  0.25548000  1
  Li  Li1  1  0.50000000  0.25147900  0.74528500  1
  Li  Li2  1  0.00000000  0.75926000  0.74452000  1
  Li  Li3  1  0.50000000  0.74852100  0.25471500  1
  Li  Li4  1  0.50000000  0.00000000  0.50000000  1
  Co  Co0  1  0.00000000  0.00000000  0.00000000  1
  Co  Co1  1  0.00000000  0.50000000  0.50000000  1
  Co  Co2  1  0.50000000  0.50000000  0.00000000  1
  O  O0  1  0.00000000  0.36763800  0.88408900  1
  O  O1  1  0.50000000  0.38935300  0.39124700  1
  O  O2  1  0.00000000  0.83206900  0.38852400  1
  O  O3  1  0.50000000  0.86751500  0.88133200  1
  O  O4  1  0.00000000  0.16793100  0.61147600  1
  O  O5  1  0.50000000  0.13248500  0.11866800  1
  O  O6  1  0.00000000  0.63236200  0.11591100  1
  O  O7  1  0.50000000  0.61064700  0.60875300  1
loop_
_geom_bond_atom_site_label_1
_geom_bond_atom_site_label_2
_geom_bond_distance
_geom_bond_site_symmetry_2
Li0 O5 2.130417 1_455
Li0 O5 2.130417 1_555
Li0 O6 2.132813 1_555
Li0 O2 2.173613 1_545
Li0 O1 2.208507 1_455
Li0 O1 2.208507 1_555
Li1 O7 1.994560 1_555
Li1 O4 2.066521 1_655
Li1 O4 2.066521 1_555
Li1 O3 2.087669 1_545
Li1 O0 2.159014 1_655
Li1 O0 2.159014 1_555
Li2 O3 2.130417 1_555
Li2 O3 2.130417 1_455
Li2 O0 2.132813 1_555
Li2 O4 2.173613 1_565
Li2 O7 2.208507 1_455
Li2 O7 2.208507 1_555
Li3 O1 1.994560 1_555
Li3 O2 2.066521 1_555
Li3 O2 2.066521 1_655
Li3 O5 2.087669 1_565
Li3 O6 2.159014 1_555
Li3 O6 2.159014 1_655
Li4 O7 2.007004 1_545
Li4 O1 2.007004 1_555
Li4 O2 2.104770 1_545
Li4 O2 2.104770 1_645
Li4 O4 2.104770 1_555
Li4 O4 2.104770 1_655
Co0 O6 1.940921 1_545
Co0 O0 1.940921 1_554
Co0 O3 2.064493 1_544
Co0 O5 2.064493 1_555
Co0 O3 2.064493 1_444
Co0 O5 2.064493 1_455
Co1 O4 1.779601 1_555
Co1 O2 1.779601 1_555
Co1 O7 1.960056 1_555
Co1 O1 1.960056 1_555
Co1 O7 1.960056 1_455
Co1 O1 1.960056 1_455
Co2 O5 1.950917 1_555
Co2 O3 1.950917 1_554
Co2 O0 2.047508 1_554
Co2 O6 2.047508 1_555
Co2 O6 2.047508 1_655
Co2 O0 2.047508 1_654
