# generated using pymatgen
data_Mg6CrB
_symmetry_space_group_name_H-M   'P 1'
_cell_length_a   6.63952000
_cell_length_b   18.63426400
_cell_length_c   20.40780400
_cell_angle_alpha   90.00000000
_cell_angle_beta   90.00000000
_cell_angle_gamma   90.00000000
_symmetry_Int_Tables_number   1
_chemical_formula_structural   Mg6CrB
_chemical_formula_sum   'Mg96 Cr16 B16'
_cell_volume   2524.90592860
_cell_formula_units_Z   16
loop_
 _symmetry_equiv_pos_site_id
 _symmetry_equiv_pos_as_xyz
  1  'x, y, z'
loop_
 _atom_site_type_symbol
 _atom_site_label
 _atom_site_symmetry_multiplicity
 _atom_site_fract_x
 _atom_site_fract_y
 _atom_site_fract_z
 _atom_site_occupancy
  Mg  Mg0_0  1  0.00000000  0.33553950  0.05995950  1
  Mg  Mg0_1  1  0.00000000  0.33553950  0.55995950  1
  Mg  Mg0_2  1  0.00000000  0.83553950  0.05995950  1
  Mg  Mg0_3  1  0.00000000  0.83553950  0.55995950  1
  Mg  Mg0_4  1  0.50000000  0.33553950  0.05995950  1
  Mg  Mg0_5  1  0.50000000  0.33553950  0.55995950  1
  Mg  Mg0_6  1  0.50000000  0.83553950  0.05995950  1
  Mg  Mg0_7  1  0.50000000  0.83553950  0.55995950  1
  Mg  Mg1_0  1  0.00000000  0.16446050  0.05995950  1
  Mg  Mg1_1  1  0.00000000  0.16446050  0.55995950  1
  Mg  Mg1_2  1  0.00000000  0.66446050  0.05995950  1
  Mg  Mg1_3  1  0.00000000  0.66446050  0.55995950  1
  Mg  Mg1_4  1  0.50000000  0.16446050  0.05995950  1
  Mg  Mg1_5  1  0.50000000  0.16446050  0.55995950  1
  Mg  Mg1_6  1  0.50000000  0.66446050  0.05995950  1
  Mg  Mg1_7  1  0.50000000  0.66446050  0.55995950  1
  Mg  Mg2_0  1  0.00000000  0.25000000  0.42182200  1
  Mg  Mg2_1  1  0.00000000  0.25000000  0.92182200  1
  Mg  Mg2_2  1  0.00000000  0.75000000  0.42182200  1
  Mg  Mg2_3  1  0.00000000  0.75000000  0.92182200  1
  Mg  Mg2_4  1  0.50000000  0.25000000  0.42182200  1
  Mg  Mg2_5  1  0.50000000  0.25000000  0.92182200  1
  Mg  Mg2_6  1  0.50000000  0.75000000  0.42182200  1
  Mg  Mg2_7  1  0.50000000  0.75000000  0.92182200  1
  Mg  Mg3_0  1  0.25000000  0.38187900  0.43582550  1
  Mg  Mg3_1  1  0.25000000  0.38187900  0.93582550  1
  Mg  Mg3_2  1  0.25000000  0.88187900  0.43582550  1
  Mg  Mg3_3  1  0.25000000  0.88187900  0.93582550  1
  Mg  Mg3_4  1  0.75000000  0.38187900  0.43582550  1
  Mg  Mg3_5  1  0.75000000  0.38187900  0.93582550  1
  Mg  Mg3_6  1  0.75000000  0.88187900  0.43582550  1
  Mg  Mg3_7  1  0.75000000  0.88187900  0.93582550  1
  Mg  Mg4_0  1  0.25000000  0.11812100  0.43582550  1
  Mg  Mg4_1  1  0.25000000  0.11812100  0.93582550  1
  Mg  Mg4_2  1  0.25000000  0.61812100  0.43582550  1
  Mg  Mg4_3  1  0.25000000  0.61812100  0.93582550  1
  Mg  Mg4_4  1  0.75000000  0.11812100  0.43582550  1
  Mg  Mg4_5  1  0.75000000  0.11812100  0.93582550  1
  Mg  Mg4_6  1  0.75000000  0.61812100  0.43582550  1
  Mg  Mg4_7  1  0.75000000  0.61812100  0.93582550  1
  Mg  Mg5_0  1  0.25000000  0.25000000  0.29544850  1
  Mg  Mg5_1  1  0.25000000  0.25000000  0.79544850  1
  Mg  Mg5_2  1  0.25000000  0.75000000  0.29544850  1
  Mg  Mg5_3  1  0.25000000  0.75000000  0.79544850  1
  Mg  Mg5_4  1  0.75000000  0.25000000  0.29544850  1
  Mg  Mg5_5  1  0.75000000  0.25000000  0.79544850  1
  Mg  Mg5_6  1  0.75000000  0.75000000  0.29544850  1
  Mg  Mg5_7  1  0.75000000  0.75000000  0.79544850  1
  Mg  Mg6_0  1  0.00000000  0.08553950  0.30995950  1
  Mg  Mg6_1  1  0.00000000  0.08553950  0.80995950  1
  Mg  Mg6_2  1  0.00000000  0.58553950  0.30995950  1
  Mg  Mg6_3  1  0.00000000  0.58553950  0.80995950  1
  Mg  Mg6_4  1  0.50000000  0.08553950  0.30995950  1
  Mg  Mg6_5  1  0.50000000  0.08553950  0.80995950  1
  Mg  Mg6_6  1  0.50000000  0.58553950  0.30995950  1
  Mg  Mg6_7  1  0.50000000  0.58553950  0.80995950  1
  Mg  Mg7_0  1  0.00000000  0.41446050  0.30995950  1
  Mg  Mg7_1  1  0.00000000  0.41446050  0.80995950  1
  Mg  Mg7_2  1  0.00000000  0.91446050  0.30995950  1
  Mg  Mg7_3  1  0.00000000  0.91446050  0.80995950  1
  Mg  Mg7_4  1  0.50000000  0.41446050  0.30995950  1
  Mg  Mg7_5  1  0.50000000  0.41446050  0.80995950  1
  Mg  Mg7_6  1  0.50000000  0.91446050  0.30995950  1
  Mg  Mg7_7  1  0.50000000  0.91446050  0.80995950  1
  Mg  Mg8_0  1  0.00000000  0.00000000  0.17182200  1
  Mg  Mg8_1  1  0.00000000  0.00000000  0.67182200  1
  Mg  Mg8_2  1  0.00000000  0.50000000  0.17182200  1
  Mg  Mg8_3  1  0.00000000  0.50000000  0.67182200  1
  Mg  Mg8_4  1  0.50000000  0.00000000  0.17182200  1
  Mg  Mg8_5  1  0.50000000  0.00000000  0.67182200  1
  Mg  Mg8_6  1  0.50000000  0.50000000  0.17182200  1
  Mg  Mg8_7  1  0.50000000  0.50000000  0.67182200  1
  Mg  Mg9_0  1  0.25000000  0.13187900  0.18582550  1
  Mg  Mg9_1  1  0.25000000  0.13187900  0.68582550  1
  Mg  Mg9_2  1  0.25000000  0.63187900  0.18582550  1
  Mg  Mg9_3  1  0.25000000  0.63187900  0.68582550  1
  Mg  Mg9_4  1  0.75000000  0.13187900  0.18582550  1
  Mg  Mg9_5  1  0.75000000  0.13187900  0.68582550  1
  Mg  Mg9_6  1  0.75000000  0.63187900  0.18582550  1
  Mg  Mg9_7  1  0.75000000  0.63187900  0.68582550  1
  Mg  Mg10_0  1  0.25000000  0.36812100  0.18582550  1
  Mg  Mg10_1  1  0.25000000  0.36812100  0.68582550  1
  Mg  Mg10_2  1  0.25000000  0.86812100  0.18582550  1
  Mg  Mg10_3  1  0.25000000  0.86812100  0.68582550  1
  Mg  Mg10_4  1  0.75000000  0.36812100  0.18582550  1
  Mg  Mg10_5  1  0.75000000  0.36812100  0.68582550  1
  Mg  Mg10_6  1  0.75000000  0.86812100  0.18582550  1
  Mg  Mg10_7  1  0.75000000  0.86812100  0.68582550  1
  Mg  Mg11_0  1  0.25000000  0.00000000  0.04544850  1
  Mg  Mg11_1  1  0.25000000  0.00000000  0.54544850  1
  Mg  Mg11_2  1  0.25000000  0.50000000  0.04544850  1
  Mg  Mg11_3  1  0.25000000  0.50000000  0.54544850  1
  Mg  Mg11_4  1  0.75000000  0.00000000  0.04544850  1
  Mg  Mg11_5  1  0.75000000  0.00000000  0.54544850  1
  Mg  Mg11_6  1  0.75000000  0.50000000  0.04544850  1
  Mg  Mg11_7  1  0.75000000  0.50000000  0.54544850  1
  Cr  Cr0_0  1  0.00000000  0.25000000  0.17405250  1
  Cr  Cr0_1  1  0.00000000  0.25000000  0.67405250  1
  Cr  Cr0_2  1  0.00000000  0.75000000  0.17405250  1
  Cr  Cr0_3  1  0.00000000  0.75000000  0.67405250  1
  Cr  Cr0_4  1  0.50000000  0.25000000  0.17405250  1
  Cr  Cr0_5  1  0.50000000  0.25000000  0.67405250  1
  Cr  Cr0_6  1  0.50000000  0.75000000  0.17405250  1
  Cr  Cr0_7  1  0.50000000  0.75000000  0.67405250  1
  Cr  Cr1_0  1  0.00000000  0.00000000  0.42405250  1
  Cr  Cr1_1  1  0.00000000  0.00000000  0.92405250  1
  Cr  Cr1_2  1  0.00000000  0.50000000  0.42405250  1
  Cr  Cr1_3  1  0.00000000  0.50000000  0.92405250  1
  Cr  Cr1_4  1  0.50000000  0.00000000  0.42405250  1
  Cr  Cr1_5  1  0.50000000  0.00000000  0.92405250  1
  Cr  Cr1_6  1  0.50000000  0.50000000  0.42405250  1
  Cr  Cr1_7  1  0.50000000  0.50000000  0.92405250  1
  B  B0_0  1  0.25000000  0.25000000  0.11710600  1
  B  B0_1  1  0.25000000  0.25000000  0.61710600  1
  B  B0_2  1  0.25000000  0.75000000  0.11710600  1
  B  B0_3  1  0.25000000  0.75000000  0.61710600  1
  B  B0_4  1  0.75000000  0.25000000  0.11710600  1
  B  B0_5  1  0.75000000  0.25000000  0.61710600  1
  B  B0_6  1  0.75000000  0.75000000  0.11710600  1
  B  B0_7  1  0.75000000  0.75000000  0.61710600  1
  B  B1_0  1  0.25000000  0.00000000  0.36710600  1
  B  B1_1  1  0.25000000  0.00000000  0.86710600  1
  B  B1_2  1  0.25000000  0.50000000  0.36710600  1
  B  B1_3  1  0.25000000  0.50000000  0.86710600  1
  B  B1_4  1  0.75000000  0.00000000  0.36710600  1
  B  B1_5  1  0.75000000  0.00000000  0.86710600  1
  B  B1_6  1  0.75000000  0.50000000  0.36710600  1
  B  B1_7  1  0.75000000  0.50000000  0.86710600  1
loop_
_geom_bond_atom_site_label_1
_geom_bond_atom_site_label_2
_geom_bond_distance
_geom_bond_site_symmetry_2
Mg0_0 Mg2_1 3.238511 1_554
Mg0_1 Mg2_0 3.238511 1_555
Mg0_2 Mg2_3 3.238511 1_554
Mg0_3 Mg2_2 3.238511 1_555
Mg0_4 Mg2_5 3.238511 1_554
Mg0_5 Mg2_4 3.238511 1_555
Mg0_6 Mg2_7 3.238511 1_554
Mg0_7 Mg2_6 3.238511 1_555
Mg1_0 Mg2_1 3.238511 1_554
Mg1_1 Mg2_0 3.238511 1_555
Mg1_2 Mg2_3 3.238511 1_554
Mg1_3 Mg2_2 3.238511 1_555
Mg1_4 Mg2_5 3.238511 1_554
Mg1_5 Mg2_4 3.238511 1_555
Mg1_6 Mg2_7 3.238511 1_554
Mg1_7 Mg2_6 3.238511 1_555
Mg2_0 Mg3_4 2.979265 1_455
Mg2_0 Mg3_0 2.979265 1_555
Mg2_0 Mg4_0 2.979265 1_555
Mg2_0 Mg4_4 2.979265 1_455
Mg2_0 Mg5_4 3.066997 1_455
Mg2_0 Mg5_0 3.066997 1_555
Mg2_0 Mg2_4 3.319760 1_455
Mg2_0 Mg2_4 3.319760 1_555
Mg2_1 Mg3_5 2.979265 1_455
Mg2_1 Mg3_1 2.979265 1_555
Mg2_1 Mg4_1 2.979265 1_555
Mg2_1 Mg4_5 2.979265 1_455
Mg2_1 Mg5_5 3.066997 1_455
Mg2_1 Mg5_1 3.066997 1_555
Mg2_1 Mg2_5 3.319760 1_555
Mg2_1 Mg2_5 3.319760 1_455
Mg2_2 Mg3_2 2.979265 1_555
Mg2_2 Mg3_6 2.979265 1_455
Mg2_2 Mg4_6 2.979265 1_455
Mg2_2 Mg4_2 2.979265 1_555
Mg2_2 Mg5_6 3.066997 1_455
Mg2_2 Mg5_2 3.066997 1_555
Mg2_2 Mg2_6 3.319760 1_455
Mg2_2 Mg2_6 3.319760 1_555
Mg2_3 Mg3_3 2.979265 1_555
Mg2_3 Mg3_7 2.979265 1_455
Mg2_3 Mg4_3 2.979265 1_555
Mg2_3 Mg4_7 2.979265 1_455
Mg2_3 Mg5_7 3.066997 1_455
Mg2_3 Mg5_3 3.066997 1_555
Mg2_3 Mg2_7 3.319760 1_555
Mg2_3 Mg2_7 3.319760 1_455
Mg2_4 Mg3_0 2.979265 1_555
Mg2_4 Mg3_4 2.979265 1_555
Mg2_4 Mg4_0 2.979265 1_555
Mg2_4 Mg4_4 2.979265 1_555
Mg2_4 Mg5_0 3.066997 1_555
Mg2_4 Mg5_4 3.066997 1_555
Mg2_5 Mg3_5 2.979265 1_555
Mg2_5 Mg3_1 2.979265 1_555
Mg2_5 Mg4_1 2.979265 1_555
Mg2_5 Mg4_5 2.979265 1_555
Mg2_5 Mg5_5 3.066997 1_555
Mg2_5 Mg5_1 3.066997 1_555
Mg2_6 Mg3_6 2.979265 1_555
Mg2_6 Mg3_2 2.979265 1_555
Mg2_6 Mg4_6 2.979265 1_555
Mg2_6 Mg4_2 2.979265 1_555
Mg2_6 Mg5_2 3.066997 1_555
Mg2_6 Mg5_6 3.066997 1_555
Mg2_7 Mg3_7 2.979265 1_555
Mg2_7 Mg3_3 2.979265 1_555
Mg2_7 Mg4_3 2.979265 1_555
Mg2_7 Mg4_7 2.979265 1_555
Mg2_7 Mg5_3 3.066997 1_555
Mg2_7 Mg5_7 3.066997 1_555
Mg6_0 Mg8_0 3.238511 1_555
Mg6_1 Mg8_1 3.238511 1_555
Mg6_2 Mg8_2 3.238511 1_555
Mg6_3 Mg8_3 3.238511 1_555
Mg6_4 Mg8_4 3.238511 1_555
Mg6_5 Mg8_5 3.238511 1_555
Mg6_6 Mg8_6 3.238511 1_555
Mg6_7 Mg8_7 3.238511 1_555
Mg7_0 Mg8_2 3.238511 1_555
Mg7_1 Mg8_3 3.238511 1_555
Mg7_2 Mg8_0 3.238511 1_565
Mg7_3 Mg8_1 3.238511 1_565
Mg7_4 Mg8_6 3.238511 1_555
Mg7_5 Mg8_7 3.238511 1_555
Mg7_6 Mg8_4 3.238511 1_565
Mg7_7 Mg8_5 3.238511 1_565
Mg8_0 Mg9_4 2.979265 1_455
Mg8_0 Mg9_0 2.979265 1_555
Mg8_0 Mg8_4 3.319760 1_455
Mg8_0 Mg8_4 3.319760 1_555
Mg8_1 Mg9_1 2.979265 1_555
Mg8_1 Mg9_5 2.979265 1_455
Mg8_1 Mg8_5 3.319760 1_455
Mg8_1 Mg8_5 3.319760 1_555
Mg8_2 Mg9_6 2.979265 1_455
Mg8_2 Mg9_2 2.979265 1_555
Mg8_2 Mg8_6 3.319760 1_555
Mg8_2 Mg8_6 3.319760 1_455
Mg8_3 Mg9_7 2.979265 1_455
Mg8_3 Mg9_3 2.979265 1_555
Mg8_3 Mg8_7 3.319760 1_555
Mg8_3 Mg8_7 3.319760 1_455
Mg8_4 Mg9_0 2.979265 1_555
Mg8_4 Mg9_4 2.979265 1_555
Mg8_5 Mg9_1 2.979265 1_555
Mg8_5 Mg9_5 2.979265 1_555
Mg8_6 Mg9_2 2.979265 1_555
Mg8_6 Mg9_6 2.979265 1_555
Mg8_7 Mg9_3 2.979265 1_555
Mg8_7 Mg9_7 2.979265 1_555
Mg10_0 Mg8_6 2.979265 1_555
Mg10_0 Mg8_2 2.979265 1_555
Mg10_1 Mg8_7 2.979265 1_555
Mg10_1 Mg8_3 2.979265 1_555
Mg10_2 Mg8_0 2.979265 1_565
Mg10_2 Mg8_4 2.979265 1_565
Mg10_3 Mg8_1 2.979265 1_565
Mg10_3 Mg8_5 2.979265 1_565
Mg10_4 Mg8_2 2.979265 1_655
Mg10_4 Mg8_6 2.979265 1_555
Mg10_5 Mg8_3 2.979265 1_655
Mg10_5 Mg8_7 2.979265 1_555
Mg10_6 Mg8_4 2.979265 1_565
Mg10_6 Mg8_0 2.979265 1_665
Mg10_7 Mg8_1 2.979265 1_665
Mg10_7 Mg8_5 2.979265 1_565
Mg11_0 Mg8_0 3.066997 1_555
Mg11_0 Mg8_4 3.066997 1_555
Mg11_1 Mg8_5 3.066997 1_555
Mg11_1 Mg8_1 3.066997 1_555
Mg11_2 Mg8_6 3.066997 1_555
Mg11_2 Mg8_2 3.066997 1_555
Mg11_3 Mg8_3 3.066997 1_555
Mg11_3 Mg8_7 3.066997 1_555
Mg11_4 Mg8_4 3.066997 1_555
Mg11_4 Mg8_0 3.066997 1_655
Mg11_5 Mg8_1 3.066997 1_655
Mg11_5 Mg8_5 3.066997 1_555
Mg11_6 Mg8_6 3.066997 1_555
Mg11_6 Mg8_2 3.066997 1_655
Mg11_7 Mg8_7 3.066997 1_555
Mg11_7 Mg8_3 3.066997 1_655
Cr0_0 Mg10_4 2.767266 1_455
Cr0_0 Mg10_0 2.767266 1_555
Cr0_0 Mg9_4 2.767266 1_455
Cr0_0 Mg9_0 2.767266 1_555
Cr0_0 Mg5_0 2.982087 1_555
Cr0_0 Mg5_4 2.982087 1_455
Cr0_1 Mg10_1 2.767266 1_555
Cr0_1 Mg10_5 2.767266 1_455
Cr0_1 Mg9_1 2.767266 1_555
Cr0_1 Mg9_5 2.767266 1_455
Cr0_1 Mg5_1 2.982087 1_555
Cr0_1 Mg5_5 2.982087 1_455
Cr0_2 Mg10_6 2.767266 1_455
Cr0_2 Mg10_2 2.767266 1_555
Cr0_2 Mg9_6 2.767266 1_455
Cr0_2 Mg9_2 2.767266 1_555
Cr0_2 Mg5_6 2.982087 1_455
Cr0_2 Mg5_2 2.982087 1_555
Cr0_3 Mg10_3 2.767266 1_555
Cr0_3 Mg10_7 2.767266 1_455
Cr0_3 Mg9_7 2.767266 1_455
Cr0_3 Mg9_3 2.767266 1_555
Cr0_3 Mg5_3 2.982087 1_555
Cr0_3 Mg5_7 2.982087 1_455
Cr0_4 Mg10_4 2.767266 1_555
Cr0_4 Mg10_0 2.767266 1_555
Cr0_4 Mg9_0 2.767266 1_555
Cr0_4 Mg9_4 2.767266 1_555
Cr0_4 Mg5_0 2.982087 1_555
Cr0_4 Mg5_4 2.982087 1_555
Cr0_5 Mg10_1 2.767266 1_555
Cr0_5 Mg10_5 2.767266 1_555
Cr0_5 Mg9_1 2.767266 1_555
Cr0_5 Mg9_5 2.767266 1_555
Cr0_5 Mg5_1 2.982087 1_555
Cr0_5 Mg5_5 2.982087 1_555
Cr0_6 Mg10_6 2.767266 1_555
Cr0_6 Mg10_2 2.767266 1_555
Cr0_6 Mg9_2 2.767266 1_555
Cr0_6 Mg9_6 2.767266 1_555
Cr0_6 Mg5_6 2.982087 1_555
Cr0_6 Mg5_2 2.982087 1_555
Cr0_7 Mg10_3 2.767266 1_555
Cr0_7 Mg10_7 2.767266 1_555
Cr0_7 Mg9_7 2.767266 1_555
Cr0_7 Mg9_3 2.767266 1_555
Cr0_7 Mg5_7 2.982087 1_555
Cr0_7 Mg5_3 2.982087 1_555
Cr1_0 Mg4_0 2.767266 1_555
Cr1_0 Mg4_4 2.767266 1_455
Cr1_0 Mg3_6 2.767266 1_445
Cr1_0 Mg3_2 2.767266 1_545
Cr1_0 Mg11_1 2.982087 1_555
Cr1_0 Mg11_5 2.982087 1_455
Cr1_1 Mg4_1 2.767266 1_555
Cr1_1 Mg4_5 2.767266 1_455
Cr1_1 Mg3_3 2.767266 1_545
Cr1_1 Mg3_7 2.767266 1_445
Cr1_1 Mg11_4 2.982087 1_456
Cr1_1 Mg11_0 2.982087 1_556
Cr1_2 Mg4_2 2.767266 1_555
Cr1_2 Mg4_6 2.767266 1_455
Cr1_2 Mg3_0 2.767266 1_555
Cr1_2 Mg3_4 2.767266 1_455
Cr1_2 Mg11_3 2.982087 1_555
Cr1_2 Mg11_7 2.982087 1_455
Cr1_3 Mg4_3 2.767266 1_555
Cr1_3 Mg4_7 2.767266 1_455
Cr1_3 Mg3_1 2.767266 1_555
Cr1_3 Mg3_5 2.767266 1_455
Cr1_3 Mg11_2 2.982087 1_556
Cr1_3 Mg11_6 2.982087 1_456
Cr1_4 Mg4_0 2.767266 1_555
Cr1_4 Mg4_4 2.767266 1_555
Cr1_4 Mg3_2 2.767266 1_545
Cr1_4 Mg3_6 2.767266 1_545
Cr1_4 Mg11_1 2.982087 1_555
Cr1_4 Mg11_5 2.982087 1_555
Cr1_5 Mg4_5 2.767266 1_555
Cr1_5 Mg4_1 2.767266 1_555
Cr1_5 Mg3_3 2.767266 1_545
Cr1_5 Mg3_7 2.767266 1_545
Cr1_5 Mg11_4 2.982087 1_556
Cr1_5 Mg11_0 2.982087 1_556
Cr1_6 Mg4_2 2.767266 1_555
Cr1_6 Mg4_6 2.767266 1_555
Cr1_6 Mg3_0 2.767266 1_555
Cr1_6 Mg3_4 2.767266 1_555
Cr1_6 Mg11_7 2.982087 1_555
Cr1_6 Mg11_3 2.982087 1_555
Cr1_7 Mg4_7 2.767266 1_555
Cr1_7 Mg4_3 2.767266 1_555
Cr1_7 Mg3_1 2.767266 1_555
Cr1_7 Mg3_5 2.767266 1_555
Cr1_7 Mg11_2 2.982087 1_556
Cr1_7 Mg11_6 2.982087 1_556
B0_0 Cr0_0 2.026278 1_555
B0_0 Cr0_4 2.026278 1_555
B0_0 Mg0_0 2.579929 1_555
B0_0 Mg0_4 2.579929 1_555
B0_0 Mg1_0 2.579929 1_555
B0_0 Mg1_4 2.579929 1_555
B0_0 Mg9_0 2.609904 1_555
B0_0 Mg10_0 2.609904 1_555
B0_1 Cr0_1 2.026278 1_555
B0_1 Cr0_5 2.026278 1_555
B0_1 Mg0_1 2.579929 1_555
B0_1 Mg0_5 2.579929 1_555
B0_1 Mg1_1 2.579929 1_555
B0_1 Mg1_5 2.579929 1_555
B0_1 Mg10_1 2.609904 1_555
B0_1 Mg9_1 2.609904 1_555
B0_2 Cr0_2 2.026278 1_555
B0_2 Cr0_6 2.026278 1_555
B0_2 Mg0_6 2.579929 1_555
B0_2 Mg0_2 2.579929 1_555
B0_2 Mg1_2 2.579929 1_555
B0_2 Mg1_6 2.579929 1_555
B0_2 Mg10_2 2.609904 1_555
B0_2 Mg9_2 2.609904 1_555
B0_3 Cr0_3 2.026278 1_555
B0_3 Cr0_7 2.026278 1_555
B0_3 Mg0_3 2.579929 1_555
B0_3 Mg0_7 2.579929 1_555
B0_3 Mg1_3 2.579929 1_555
B0_3 Mg1_7 2.579929 1_555
B0_3 Mg10_3 2.609904 1_555
B0_3 Mg9_3 2.609904 1_555
B0_4 Cr0_0 2.026278 1_655
B0_4 Cr0_4 2.026278 1_555
B0_4 Mg0_4 2.579929 1_555
B0_4 Mg0_0 2.579929 1_655
B0_4 Mg1_0 2.579929 1_655
B0_4 Mg1_4 2.579929 1_555
B0_4 Mg10_4 2.609904 1_555
B0_4 Mg9_4 2.609904 1_555
B0_5 Cr0_1 2.026278 1_655
B0_5 Cr0_5 2.026278 1_555
B0_5 Mg0_1 2.579929 1_655
B0_5 Mg0_5 2.579929 1_555
B0_5 Mg1_5 2.579929 1_555
B0_5 Mg1_1 2.579929 1_655
B0_5 Mg10_5 2.609904 1_555
B0_5 Mg9_5 2.609904 1_555
B0_6 Cr0_2 2.026278 1_655
B0_6 Cr0_6 2.026278 1_555
B0_6 Mg0_6 2.579929 1_555
B0_6 Mg0_2 2.579929 1_655
B0_6 Mg1_2 2.579929 1_655
B0_6 Mg1_6 2.579929 1_555
B0_6 Mg10_6 2.609904 1_555
B0_6 Mg9_6 2.609904 1_555
B0_7 Cr0_3 2.026278 1_655
B0_7 Cr0_7 2.026278 1_555
B0_7 Mg0_7 2.579929 1_555
B0_7 Mg0_3 2.579929 1_655
B0_7 Mg1_3 2.579929 1_655
B0_7 Mg1_7 2.579929 1_555
B0_7 Mg10_7 2.609904 1_555
B0_7 Mg9_7 2.609904 1_555
B1_0 Cr1_4 2.026278 1_555
B1_0 Cr1_0 2.026278 1_555
B1_0 Mg6_0 2.579929 1_555
B1_0 Mg6_4 2.579929 1_555
B1_0 Mg7_2 2.579929 1_545
B1_0 Mg7_6 2.579929 1_545
B1_0 Mg4_0 2.609904 1_555
B1_0 Mg3_2 2.609904 1_545
B1_1 Cr1_1 2.026278 1_555
B1_1 Cr1_5 2.026278 1_555
B1_1 Mg6_1 2.579929 1_555
B1_1 Mg6_5 2.579929 1_555
B1_1 Mg7_7 2.579929 1_545
B1_1 Mg7_3 2.579929 1_545
B1_1 Mg4_1 2.609904 1_555
B1_1 Mg3_3 2.609904 1_545
B1_2 Cr1_6 2.026278 1_555
B1_2 Cr1_2 2.026278 1_555
B1_2 Mg6_6 2.579929 1_555
B1_2 Mg6_2 2.579929 1_555
B1_2 Mg7_4 2.579929 1_555
B1_2 Mg7_0 2.579929 1_555
B1_2 Mg4_2 2.609904 1_555
B1_2 Mg3_0 2.609904 1_555
B1_3 Cr1_3 2.026278 1_555
B1_3 Cr1_7 2.026278 1_555
B1_3 Mg6_3 2.579929 1_555
B1_3 Mg6_7 2.579929 1_555
B1_3 Mg7_1 2.579929 1_555
B1_3 Mg7_5 2.579929 1_555
B1_3 Mg4_3 2.609904 1_555
B1_3 Mg3_1 2.609904 1_555
B1_4 Cr1_4 2.026278 1_555
B1_4 Cr1_0 2.026278 1_655
B1_4 Mg6_0 2.579929 1_655
B1_4 Mg6_4 2.579929 1_555
B1_4 Mg7_2 2.579929 1_645
B1_4 Mg7_6 2.579929 1_545
B1_4 Mg4_4 2.609904 1_555
B1_4 Mg3_6 2.609904 1_545
B1_5 Cr1_1 2.026278 1_655
B1_5 Cr1_5 2.026278 1_555
B1_5 Mg6_1 2.579929 1_655
B1_5 Mg6_5 2.579929 1_555
B1_5 Mg7_7 2.579929 1_545
B1_5 Mg7_3 2.579929 1_645
B1_5 Mg4_5 2.609904 1_555
B1_5 Mg3_7 2.609904 1_545
B1_6 Cr1_2 2.026278 1_655
B1_6 Cr1_6 2.026278 1_555
B1_6 Mg6_6 2.579929 1_555
B1_6 Mg6_2 2.579929 1_655
B1_6 Mg7_4 2.579929 1_555
B1_6 Mg7_0 2.579929 1_655
B1_6 Mg4_6 2.609904 1_555
B1_6 Mg3_4 2.609904 1_555
B1_7 Cr1_7 2.026278 1_555
B1_7 Cr1_3 2.026278 1_655
B1_7 Mg6_7 2.579929 1_555
B1_7 Mg6_3 2.579929 1_655
B1_7 Mg7_1 2.579929 1_655
B1_7 Mg7_5 2.579929 1_555
B1_7 Mg4_7 2.609904 1_555
B1_7 Mg3_5 2.609904 1_555
