# generated using pymatgen
data_Sm2Ta3(SO4)2
_symmetry_space_group_name_H-M   'P 1'
_cell_length_a   3.79115300
_cell_length_b   9.90896300
_cell_length_c   11.68587900
_cell_angle_alpha   90.00000000
_cell_angle_beta   90.00000000
_cell_angle_gamma   90.00000000
_symmetry_Int_Tables_number   1
_chemical_formula_structural   Sm2Ta3(SO4)2
_chemical_formula_sum   'Sm4 Ta6 S4 O16'
_cell_volume   438.99634415
_cell_formula_units_Z   2
loop_
 _symmetry_equiv_pos_site_id
 _symmetry_equiv_pos_as_xyz
  1  'x, y, z'
loop_
 _atom_site_type_symbol
 _atom_site_label
 _atom_site_symmetry_multiplicity
 _atom_site_fract_x
 _atom_site_fract_y
 _atom_site_fract_z
 _atom_site_occupancy
  Sm  Sm0  1  0.50121600  0.21763400  0.34346200  1
  Sm  Sm1  1  0.50121600  0.78236600  0.65653800  1
  Sm  Sm2  1  0.49878400  0.71763400  0.15653800  1
  Sm  Sm3  1  0.49878400  0.28236600  0.84346200  1
  Ta  Ta0  1  0.00027600  0.86431900  0.41642800  1
  Ta  Ta1  1  0.00027600  0.13568100  0.58357200  1
  Ta  Ta2  1  0.99972400  0.36431900  0.08357200  1
  Ta  Ta3  1  0.99972400  0.63568100  0.91642800  1
  Ta  Ta4  1  0.01762100  0.50000000  0.50000000  1
  Ta  Ta5  1  0.98237900  0.00000000  0.00000000  1
  S  S0  1  0.51339800  0.51667600  0.35251900  1
  S  S1  1  0.51339800  0.48332400  0.64748100  1
  S  S2  1  0.48660200  0.01667600  0.14748100  1
  S  S3  1  0.48660200  0.98332400  0.85251900  1
  O  O0  1  0.00384200  0.30278600  0.47292700  1
  O  O1  1  0.00384200  0.69721400  0.52707300  1
  O  O2  1  0.99615800  0.80278600  0.02707300  1
  O  O3  1  0.99615800  0.19721400  0.97292700  1
  O  O4  1  0.99974800  0.05752600  0.39300600  1
  O  O5  1  0.99974800  0.94247400  0.60699400  1
  O  O6  1  0.00025200  0.55752600  0.10699400  1
  O  O7  1  0.00025200  0.44247400  0.89300600  1
  O  O8  1  0.00085900  0.28249300  0.22709000  1
  O  O9  1  0.00085900  0.71750700  0.77291000  1
  O  O10  1  0.99914100  0.78249300  0.27291000  1
  O  O11  1  0.99914100  0.21750700  0.72709000  1
  O  O12  1  0.50060200  0.14285800  0.54638700  1
  O  O13  1  0.50060200  0.85714200  0.45361300  1
  O  O14  1  0.49939800  0.64285800  0.95361300  1
  O  O15  1  0.49939800  0.35714200  0.04638700  1
loop_
_geom_bond_atom_site_label_1
_geom_bond_atom_site_label_2
_geom_bond_distance
_geom_bond_site_symmetry_2
S0 Ta4 2.555453 1_555
S0 Ta4 2.579095 1_655
S0 Sm0 2.965445 1_555
S0 Sm2 3.035350 1_555
S1 Ta4 2.555453 1_555
S1 Ta4 2.579095 1_655
S1 Sm1 2.965445 1_555
S1 Sm3 3.035350 1_555
S2 Ta5 2.555453 1_555
S2 Ta5 2.579095 1_455
S2 Sm2 2.965445 1_545
S2 Sm0 3.035350 1_555
S3 Ta5 2.555453 1_566
S3 Ta5 2.579095 1_466
S3 Sm3 2.965445 1_565
S3 Sm1 3.035350 1_555
O0 Ta4 1.980319 1_555
O0 Ta1 2.100902 1_555
O0 Sm0 2.560550 1_555
O0 Sm0 2.575248 1_455
O1 Ta4 1.980319 1_555
O1 Ta0 2.100902 1_555
O1 Sm1 2.560550 1_555
O1 Sm1 2.575248 1_455
O2 Ta5 1.980319 1_565
O2 Ta3 2.100902 1_554
O2 Sm2 2.560550 1_555
O2 Sm2 2.575248 1_655
O3 Ta5 1.980319 1_556
O3 Ta2 2.100902 1_556
O3 Sm3 2.560550 1_555
O3 Sm3 2.575248 1_655
O4 Ta0 1.933949 1_645
O4 Ta1 2.357748 1_655
O4 Sm0 2.534628 1_555
O4 Sm0 2.542939 1_655
O5 Ta1 1.933949 1_665
O5 Ta0 2.357748 1_655
O5 Sm1 2.534628 1_555
O5 Sm1 2.542939 1_655
O6 Ta2 1.933949 1_455
O6 Ta3 2.357748 1_454
O6 Sm2 2.534628 1_555
O6 Sm2 2.542939 1_455
O7 Ta3 1.933949 1_455
O7 Ta2 2.357748 1_456
O7 Sm3 2.534628 1_555
O7 Sm3 2.542939 1_455
O8 Ta2 1.862850 1_455
O8 Sm0 2.418776 1_455
O8 Sm0 2.420897 1_555
O9 Ta3 1.862850 1_455
O9 Sm1 2.418776 1_455
O9 Sm1 2.420897 1_555
O10 Ta0 1.862850 1_655
O10 Sm2 2.418776 1_655
O10 Sm2 2.420897 1_555
O11 Ta1 1.862850 1_655
O11 Sm3 2.418776 1_655
O11 Sm3 2.420897 1_555
O12 Ta1 1.944841 1_655
O12 Ta1 1.947249 1_555
O12 Sm0 2.484422 1_555
O13 Ta0 1.944841 1_655
O13 Ta0 1.947249 1_555
O13 Sm1 2.484422 1_555
O14 Ta3 1.944841 1_455
O14 Ta3 1.947249 1_555
O14 Sm2 2.484422 1_556
O15 Ta2 1.944841 1_455
O15 Ta2 1.947249 1_555
O15 Sm3 2.484422 1_554
