# generated using pymatgen
data_Ba3Cu17AgP6
_symmetry_space_group_name_H-M   'P 1'
_cell_length_a   9.17326426
_cell_length_b   9.17326426
_cell_length_c   10.44732272
_cell_angle_alpha   58.27357100
_cell_angle_beta   58.27357100
_cell_angle_gamma   37.15672021
_symmetry_Int_Tables_number   1
_chemical_formula_structural   Ba3Cu17AgP6
_chemical_formula_sum   'Ba3 Cu17 Ag1 P6'
_cell_volume   441.78573637
_cell_formula_units_Z   1
loop_
 _symmetry_equiv_pos_site_id
 _symmetry_equiv_pos_as_xyz
  1  'x, y, z'
loop_
 _atom_site_type_symbol
 _atom_site_label
 _atom_site_symmetry_multiplicity
 _atom_site_fract_x
 _atom_site_fract_y
 _atom_site_fract_z
 _atom_site_occupancy
  Ba  Ba0  1  0.50000000  0.50000000  -0.00000000  1
  Ba  Ba1  1  0.83733819  0.83733819  0.98760610  1
  Ba  Ba2  1  0.16266181  0.16266181  0.01239390  1
  Cu  Cu0  1  0.43996903  0.94443986  0.67546329  1
  Cu  Cu1  1  0.76649900  0.30202522  0.66834073  1
  Cu  Cu2  1  0.12264874  0.58131239  0.66918181  1
  Cu  Cu3  1  0.94443986  0.43996903  0.67546329  1
  Cu  Cu4  1  0.30202522  0.76649900  0.66834073  1
  Cu  Cu5  1  0.58131239  0.12264874  0.66918181  1
  Cu  Cu6  1  0.56003097  0.05556014  0.32453671  1
  Cu  Cu7  1  0.87735126  0.41868761  0.33081819  1
  Cu  Cu8  1  0.23350100  0.69797478  0.33165927  1
  Cu  Cu9  1  0.05556014  0.56003097  0.32453671  1
  Cu  Cu10  1  0.41868761  0.87735126  0.33081819  1
  Cu  Cu11  1  0.69797478  0.23350100  0.33165927  1
  Cu  Cu12  1  0.16933742  0.16933742  0.49963928  1
  Cu  Cu13  1  0.50000000  0.50000000  0.50000000  1
  Cu  Cu14  1  0.83066258  0.83066258  0.50036072  1
  Cu  Cu15  1  0.67438669  0.67438669  0.50230360  1
  Cu  Cu16  1  0.32561331  0.32561331  0.49769640  1
  Ag  Ag0  1  -0.00000000  0.00000000  0.50000000  1
  P  P0  1  0.07005338  0.07005338  0.78735368  1
  P  P1  1  0.40612070  0.40612070  0.78148593  1
  P  P2  1  0.73791577  0.73791577  0.78835151  1
  P  P3  1  0.26208423  0.26208423  0.21164849  1
  P  P4  1  0.59387930  0.59387930  0.21851407  1
  P  P5  1  0.92994662  0.92994662  0.21264632  1
loop_
_geom_bond_atom_site_label_1
_geom_bond_atom_site_label_2
_geom_bond_distance
_geom_bond_site_symmetry_2
Ba0 P2 3.443407 1_554
Ba0 P3 3.443407 1_555
Ba0 Cu11 3.451514 1_555
Ba0 Cu8 3.451514 1_555
Ba0 Cu1 3.451514 1_554
Ba0 Cu4 3.451514 1_554
Ba0 P0 3.458079 1_654
Ba0 P5 3.458079 1_545
Ba0 P0 3.458079 1_564
Ba0 P5 3.458079 1_455
Ba0 P4 3.465879 1_555
Ba0 P1 3.465879 1_554
Ba0 Cu3 3.502506 1_554
Ba0 Cu0 3.502506 1_554
Ba0 Cu9 3.502506 1_555
Ba0 Cu6 3.502506 1_555
Ba1 P2 3.363977 1_555
Ba1 P0 3.370608 1_665
Ba1 P1 3.428065 1_565
Ba1 P1 3.428065 1_655
Ba1 P5 3.510333 1_556
Ba1 P3 3.512010 1_656
Ba1 P3 3.512010 1_566
Ba1 Cu7 3.520640 1_556
Ba1 Cu10 3.520640 1_556
Ba1 P4 3.523153 1_556
Ba1 Cu1 3.553718 1_565
Ba1 Cu4 3.553718 1_655
Ba1 Cu5 3.562983 1_565
Ba1 Cu2 3.562983 1_655
Ba1 Cu6 3.570063 1_566
Ba1 Cu9 3.570063 1_656
Ba2 P3 3.363977 1_555
Ba2 P5 3.370608 1_445
Ba2 P4 3.428065 1_545
Ba2 P4 3.428065 1_455
Ba2 P0 3.510333 1_554
Ba2 P2 3.512010 1_544
Ba2 P2 3.512010 1_454
Ba2 Cu5 3.520640 1_554
Ba2 Cu2 3.520640 1_554
Ba2 P1 3.523153 1_554
Ba2 Cu11 3.553718 1_455
Ba2 Cu8 3.553718 1_545
Ba2 Cu10 3.562983 1_545
Ba2 Cu7 3.562983 1_455
Ba2 Cu0 3.570063 1_544
Ba2 Cu3 3.570063 1_454
Cu0 P0 2.284986 1_565
Cu0 P2 2.288425 1_555
Cu0 Cu16 2.479592 1_565
Cu0 Cu15 2.482827 1_555
Cu1 P0 2.289479 1_655
Cu1 P1 2.298529 1_555
Cu1 Cu15 2.469775 1_555
Cu2 P2 2.290802 1_455
Cu2 P1 2.299056 1_555
Cu3 P0 2.284986 1_655
Cu3 P2 2.288425 1_555
Cu4 P0 2.289479 1_565
Cu4 P1 2.298529 1_555
Cu5 P2 2.290802 1_545
Cu5 P1 2.299056 1_555
Cu6 P5 2.284986 1_545
Cu6 P3 2.288425 1_555
Cu7 P3 2.290802 1_655
Cu7 P4 2.299056 1_555
Cu8 P5 2.289479 1_455
Cu8 P4 2.298529 1_555
Cu9 P5 2.284986 1_455
Cu9 P3 2.288425 1_555
Cu10 P3 2.290802 1_565
Cu10 P4 2.299056 1_555
Cu10 Cu15 2.475557 1_555
Cu11 P5 2.289479 1_545
Cu11 P4 2.298529 1_555
Cu11 Cu16 2.469775 1_555
Cu12 P0 2.501563 1_555
Cu12 P3 2.503901 1_555
Cu13 P4 2.446728 1_555
Cu13 P1 2.446728 1_555
Cu14 P5 2.501563 1_555
Cu14 P2 2.503901 1_555
Cu15 Cu4 2.469775 1_555
Cu15 Cu7 2.475557 1_555
Cu15 Cu6 2.479592 1_565
Cu15 Cu9 2.479592 1_655
Cu15 Cu3 2.482827 1_555
Cu16 Cu8 2.469775 1_555
Cu16 Cu2 2.475557 1_555
Cu16 Cu5 2.475557 1_555
Cu16 Cu3 2.479592 1_455
Cu16 Cu9 2.482827 1_555
Cu16 Cu6 2.482827 1_555
Ag0 Cu1 2.657146 1_455
Ag0 Cu4 2.657146 1_545
Ag0 Cu11 2.657146 1_455
Ag0 Cu8 2.657146 1_545
Ag0 Cu2 2.684230 1_545
Ag0 Cu10 2.684230 1_545
Ag0 Cu5 2.684230 1_455
Ag0 Cu7 2.684230 1_455
Ag0 Cu13 2.922614 1_545
Ag0 Cu13 2.922614 1_455
Ag0 Cu14 2.942768 1_445
Ag0 Cu12 2.942768 1_555
