# generated using pymatgen
data_Ga2(Ni7B2)3
_symmetry_space_group_name_H-M   'P 1'
_cell_length_a   7.40018501
_cell_length_b   7.40018501
_cell_length_c   7.40018501
_cell_angle_alpha   60.00000000
_cell_angle_beta   60.00000000
_cell_angle_gamma   60.00000000
_symmetry_Int_Tables_number   1
_chemical_formula_structural   Ga2(Ni7B2)3
_chemical_formula_sum   'Ga2 Ni21 B6'
_cell_volume   286.55812982
_cell_formula_units_Z   1
loop_
 _symmetry_equiv_pos_site_id
 _symmetry_equiv_pos_as_xyz
  1  'x, y, z'
loop_
 _atom_site_type_symbol
 _atom_site_label
 _atom_site_symmetry_multiplicity
 _atom_site_fract_x
 _atom_site_fract_y
 _atom_site_fract_z
 _atom_site_occupancy
  Ga  Ga0  1  0.75000000  0.75000000  0.75000000  1
  Ga  Ga1  1  0.25000000  0.25000000  0.25000000  1
  Ni  Ni0  1  0.00000000  0.00000000  0.00000000  1
  Ni  Ni1  1  0.61711400  0.61711400  0.14865700  1
  Ni  Ni2  1  0.61711400  0.14865700  0.61711400  1
  Ni  Ni3  1  0.14865700  0.61711400  0.61711400  1
  Ni  Ni4  1  0.61711400  0.61711400  0.61711400  1
  Ni  Ni5  1  0.38288600  0.38288600  0.85134300  1
  Ni  Ni6  1  0.38288600  0.85134300  0.38288600  1
  Ni  Ni7  1  0.85134300  0.38288600  0.38288600  1
  Ni  Ni8  1  0.38288600  0.38288600  0.38288600  1
  Ni  Ni9  1  0.00000000  0.00000000  0.33747100  1
  Ni  Ni10  1  0.66252900  0.00000000  0.33747100  1
  Ni  Ni11  1  0.00000000  0.66252900  0.33747100  1
  Ni  Ni12  1  0.66252900  0.33747100  0.00000000  1
  Ni  Ni13  1  0.00000000  0.33747100  0.00000000  1
  Ni  Ni14  1  0.00000000  0.33747100  0.66252900  1
  Ni  Ni15  1  0.33747100  0.66252900  0.00000000  1
  Ni  Ni16  1  0.33747100  0.00000000  0.66252900  1
  Ni  Ni17  1  0.33747100  0.00000000  0.00000000  1
  Ni  Ni18  1  0.00000000  0.00000000  0.66252900  1
  Ni  Ni19  1  0.00000000  0.66252900  0.00000000  1
  Ni  Ni20  1  0.66252900  0.00000000  0.00000000  1
  B  B0  1  0.72694400  0.72694400  0.27305600  1
  B  B1  1  0.27305600  0.72694400  0.27305600  1
  B  B2  1  0.72694400  0.27305600  0.27305600  1
  B  B3  1  0.27305600  0.27305600  0.72694400  1
  B  B4  1  0.72694400  0.27305600  0.72694400  1
  B  B5  1  0.27305600  0.72694400  0.72694400  1
loop_
_geom_bond_atom_site_label_1
_geom_bond_atom_site_label_2
_geom_bond_distance
_geom_bond_site_symmetry_2
Ga0 Ni3 2.408776 1_655
Ga0 Ni1 2.408776 1_556
Ga0 Ni2 2.408776 1_565
Ga0 Ni4 2.408782 1_555
Ga1 Ni5 2.408776 1_554
Ga1 Ni6 2.408776 1_545
Ga1 Ni7 2.408776 1_455
Ga1 Ni8 2.408782 1_555
Ni0 Ni19 2.497348 1_545
Ni0 Ni18 2.497348 1_554
Ni0 Ni20 2.497348 1_455
Ni0 Ni17 2.497348 1_555
Ni0 Ni11 2.497348 1_545
Ni0 Ni16 2.497348 1_554
Ni0 Ni9 2.497348 1_555
Ni0 Ni13 2.497348 1_555
Ni0 Ni15 2.497348 1_545
Ni0 Ni14 2.497348 1_554
Ni0 Ni10 2.497348 1_455
Ni0 Ni12 2.497348 1_455
B0 Ni10 2.076129 1_565
B0 Ni19 2.076129 1_655
B0 Ni20 2.076129 1_565
B0 Ni11 2.076129 1_655
B0 Ni4 2.079808 1_555
B0 Ni7 2.079808 1_555
B0 Ni6 2.079808 1_555
B0 Ni1 2.079814 1_555
B1 Ni11 2.076129 1_555
B1 Ni17 2.076129 1_565
B1 Ni9 2.076129 1_565
B1 Ni15 2.076129 1_555
B1 Ni8 2.079808 1_555
B1 Ni3 2.079808 1_555
B1 Ni1 2.079808 1_555
B1 Ni6 2.079814 1_555
B2 Ni9 2.076129 1_655
B2 Ni10 2.076129 1_555
B2 Ni13 2.076129 1_655
B2 Ni12 2.076129 1_555
B2 Ni8 2.079808 1_555
B2 Ni1 2.079808 1_555
B2 Ni2 2.079808 1_555
B2 Ni7 2.079814 1_555
B3 Ni16 2.076129 1_555
B3 Ni17 2.076129 1_556
B3 Ni14 2.076129 1_555
B3 Ni13 2.076129 1_556
B3 Ni8 2.079808 1_555
B3 Ni3 2.079808 1_555
B3 Ni2 2.079808 1_555
B3 Ni5 2.079814 1_555
B4 Ni12 2.076129 1_556
B4 Ni20 2.076129 1_556
B4 Ni14 2.076129 1_655
B4 Ni18 2.076129 1_655
B4 Ni4 2.079808 1_555
B4 Ni7 2.079808 1_555
B4 Ni5 2.079808 1_555
B4 Ni2 2.079814 1_555
B5 Ni15 2.076129 1_556
B5 Ni19 2.076129 1_556
B5 Ni18 2.076129 1_565
B5 Ni16 2.076129 1_565
B5 Ni4 2.079808 1_555
B5 Ni6 2.079808 1_555
B5 Ni5 2.079808 1_555
B5 Ni3 2.079814 1_555
