# generated using pymatgen
data_BaNdEuNbO6
_symmetry_space_group_name_H-M   'P 1'
_cell_length_a   6.05163305
_cell_length_b   6.11131204
_cell_length_c   8.60092678
_cell_angle_alpha   90.50378083
_cell_angle_beta   89.62740244
_cell_angle_gamma   89.70776208
_symmetry_Int_Tables_number   1
_chemical_formula_structural   BaNdEuNbO6
_chemical_formula_sum   'Ba2 Nd2 Eu2 Nb2 O12'
_cell_volume   318.06841671
_cell_formula_units_Z   2
loop_
 _symmetry_equiv_pos_site_id
 _symmetry_equiv_pos_as_xyz
  1  'x, y, z'
loop_
 _atom_site_type_symbol
 _atom_site_label
 _atom_site_symmetry_multiplicity
 _atom_site_fract_x
 _atom_site_fract_y
 _atom_site_fract_z
 _atom_site_occupancy
  Ba  Ba0  1  0.99217958  0.03161630  0.24998634  1
  Ba  Ba1  1  0.00782042  0.96838370  0.75001366  1
  Nd  Nd0  1  0.50000000  -0.00000000  -0.00000000  1
  Nd  Nd1  1  0.00000000  0.50000000  0.50000000  1
  Eu  Eu0  1  0.50814528  0.53957483  0.25158553  1
  Eu  Eu1  1  0.49185472  0.46042517  0.74841447  1
  Nb  Nb0  1  0.00000000  0.50000000  -0.00000000  1
  Nb  Nb1  1  0.50000000  -0.00000000  0.50000000  1
  O  O0  1  0.19517625  0.23328058  0.95812287  1
  O  O1  1  0.31431739  0.72363410  0.54435800  1
  O  O2  1  0.80482375  0.76671942  0.04187713  1
  O  O3  1  0.68568261  0.27636590  0.45564200  1
  O  O4  1  0.27250585  0.68938072  0.95419642  1
  O  O5  1  0.23445681  0.19834846  0.53929095  1
  O  O6  1  0.72749415  0.31061928  0.04580358  1
  O  O7  1  0.76554319  0.80165154  0.46070905  1
  O  O8  1  0.43006778  0.97083927  0.26892994  1
  O  O9  1  0.09098267  0.48875215  0.23033088  1
  O  O10  1  0.56993222  0.02916073  0.73107006  1
  O  O11  1  0.90901733  0.51124785  0.76966912  1
loop_
_geom_bond_atom_site_label_1
_geom_bond_atom_site_label_2
_geom_bond_distance
_geom_bond_site_symmetry_2
Ba0 O2 2.665384 1_545
Ba0 O7 2.678271 1_545
Ba0 O8 2.680172 1_645
Ba0 O9 2.866161 1_655
Ba0 O6 2.935721 1_555
Ba0 O3 2.947679 1_555
Ba0 O0 3.059303 1_654
Ba0 O5 3.065551 1_655
Ba1 O0 2.665384 1_565
Ba1 O5 2.678271 1_565
Ba1 O10 2.680172 1_465
Ba1 O11 2.866161 1_455
Ba1 O4 2.935721 1_555
Ba1 O1 2.947679 1_555
Ba1 O2 3.059303 1_456
Ba1 O7 3.065551 1_455
Nd0 O2 2.357097 1_545
Nd0 O0 2.357097 1_554
Nd0 O8 2.357187 1_545
Nd0 O10 2.357187 1_554
Nd0 O4 2.382143 1_544
Nd0 O6 2.382143 1_555
Nd1 O5 2.348676 1_555
Nd1 O7 2.348676 1_455
Nd1 O1 2.378722 1_555
Nd1 O3 2.378722 1_455
Nd1 O9 2.380697 1_555
Nd1 O11 2.380697 1_455
Eu0 O9 2.552659 1_555
Eu0 O6 2.599885 1_555
Eu0 O3 2.622705 1_555
Eu0 O8 2.677931 1_555
Eu0 O7 2.870188 1_555
Eu0 O2 2.903620 1_555
Eu0 O1 2.979993 1_555
Eu0 O4 3.080487 1_554
Eu1 O11 2.552659 1_555
Eu1 O4 2.599885 1_555
Eu1 O1 2.622705 1_555
Eu1 O10 2.677931 1_555
Eu1 O5 2.870188 1_555
Eu1 O0 2.903620 1_555
Eu1 O3 2.979993 1_555
Eu1 O6 3.080487 1_556
Nb0 O2 2.036230 1_455
Nb0 O0 2.036230 1_554
Nb0 O4 2.057493 1_554
Nb0 O6 2.057493 1_455
Nb0 O9 2.061230 1_555
Nb0 O11 2.061230 1_454
Nb1 O7 2.032676 1_545
Nb1 O5 2.032676 1_555
Nb1 O10 2.041119 1_555
Nb1 O8 2.041119 1_545
Nb1 O3 2.070246 1_555
Nb1 O1 2.070246 1_545
