# generated using pymatgen
data_NaHfMg14
_symmetry_space_group_name_H-M   'P 1'
_cell_length_a   6.43932559
_cell_length_b   6.50267135
_cell_length_c   10.29568673
_cell_angle_alpha   90.00000000
_cell_angle_beta   90.00000000
_cell_angle_gamma   120.32595868
_symmetry_Int_Tables_number   1
_chemical_formula_structural   NaHfMg14
_chemical_formula_sum   'Na1 Hf1 Mg14'
_cell_volume   372.11936993
_cell_formula_units_Z   1
loop_
 _symmetry_equiv_pos_site_id
 _symmetry_equiv_pos_as_xyz
  1  'x, y, z'
loop_
 _atom_site_type_symbol
 _atom_site_label
 _atom_site_symmetry_multiplicity
 _atom_site_fract_x
 _atom_site_fract_y
 _atom_site_fract_z
 _atom_site_occupancy
  Na  Na0  1  0.16908968  0.33454434  0.12500000  1
  Hf  Hf0  1  0.17356421  0.83678160  0.12500000  1
  Mg  Mg0  1  0.16654782  0.33327341  0.62500000  1
  Mg  Mg1  1  0.16638475  0.83319187  0.62500000  1
  Mg  Mg2  1  0.66173699  0.33568273  0.12500000  1
  Mg  Mg3  1  0.66740693  0.33388097  0.62500000  1
  Mg  Mg4  1  0.66173699  0.82605326  0.12500000  1
  Mg  Mg5  1  0.66740693  0.83352497  0.62500000  1
  Mg  Mg6  1  0.33187757  0.16006723  0.37507961  1
  Mg  Mg7  1  0.33187757  0.16006723  0.87492039  1
  Mg  Mg8  1  0.33187757  0.67181134  0.37507961  1
  Mg  Mg9  1  0.33187757  0.67181134  0.87492039  1
  Mg  Mg10  1  0.83024269  0.16512184  0.37556047  1
  Mg  Mg11  1  0.83024269  0.16512184  0.87443953  1
  Mg  Mg12  1  0.83906502  0.66953301  0.37279721  1
  Mg  Mg13  1  0.83906502  0.66953301  0.87720279  1
loop_
_geom_bond_atom_site_label_1
_geom_bond_atom_site_label_2
_geom_bond_distance
_geom_bond_site_symmetry_2
Hf0 Mg9 3.150186 1_554
Hf0 Mg8 3.150186 1_555
Hf0 Mg6 3.150192 1_565
Hf0 Mg7 3.150192 1_564
Hf0 Mg13 3.156822 1_454
Hf0 Mg12 3.156822 1_455
Hf0 Mg2 3.179298 1_565
Hf0 Mg4 3.179298 1_555
Hf0 Na0 3.251431 1_555
Hf0 Na0 3.251431 1_565
Hf0 Mg2 3.261153 1_455
Hf0 Mg4 3.261154 1_455
Mg0 Mg11 3.176400 1_455
Mg0 Mg10 3.176400 1_455
Mg0 Mg7 3.199013 1_555
Mg0 Mg6 3.199013 1_555
Mg0 Mg8 3.199019 1_555
Mg0 Mg9 3.199019 1_555
Mg0 Mg5 3.216127 1_445
Mg0 Mg3 3.216127 1_455
Mg0 Mg5 3.223202 1_555
Mg0 Mg3 3.223202 1_555
Mg0 Mg1 3.251336 1_555
Mg0 Mg1 3.251336 1_545
Mg1 Mg9 3.160230 1_555
Mg1 Mg8 3.160230 1_555
Mg1 Mg7 3.160236 1_565
Mg1 Mg6 3.160236 1_565
Mg1 Mg12 3.170526 1_455
Mg1 Mg13 3.170526 1_455
Mg1 Mg3 3.214175 1_455
Mg1 Mg5 3.214175 1_455
Mg1 Mg3 3.225152 1_565
Mg1 Mg5 3.225152 1_555
Mg2 Mg6 3.161579 1_555
Mg2 Mg7 3.161579 1_554
Mg2 Na0 3.168585 1_555
Mg2 Mg4 3.188718 1_555
Mg2 Na0 3.270753 1_655
Mg2 Mg4 3.313953 1_545
Mg3 Mg7 3.178115 1_555
Mg3 Mg6 3.178115 1_555
Mg3 Mg5 3.249021 1_555
Mg3 Mg5 3.253651 1_545
Mg4 Mg8 3.161579 1_555
Mg4 Mg9 3.161579 1_554
Mg4 Na0 3.168585 1_555
Mg4 Na0 3.270753 1_665
Mg5 Mg8 3.178115 1_555
Mg5 Mg9 3.178115 1_555
Mg6 Mg8 3.174968 1_545
Mg6 Na0 3.196303 1_555
Mg6 Mg8 3.327704 1_555
Mg7 Mg9 3.174968 1_545
Mg7 Na0 3.196303 1_556
Mg7 Mg9 3.327704 1_555
Mg8 Na0 3.196310 1_555
Mg9 Na0 3.196310 1_556
Mg10 Mg3 3.171924 1_555
Mg10 Mg5 3.171931 1_545
Mg10 Mg8 3.192669 1_545
Mg10 Mg6 3.192669 1_555
Mg10 Na0 3.194048 1_655
Mg10 Mg2 3.205864 1_555
Mg10 Mg4 3.205870 1_545
Mg10 Mg8 3.246914 1_655
Mg10 Mg6 3.246914 1_655
Mg10 Mg12 3.251830 1_545
Mg10 Mg12 3.251830 1_555
Mg11 Mg3 3.171924 1_555
Mg11 Mg5 3.171931 1_545
Mg11 Mg9 3.192669 1_545
Mg11 Mg7 3.192669 1_555
Mg11 Na0 3.194048 1_656
Mg11 Mg2 3.205864 1_556
Mg11 Mg4 3.205870 1_546
Mg11 Mg9 3.246914 1_655
Mg11 Mg7 3.246914 1_655
Mg11 Mg13 3.251830 1_545
Mg11 Mg13 3.251830 1_555
Mg12 Mg4 3.165795 1_555
Mg12 Mg2 3.165802 1_555
Mg12 Mg6 3.166013 1_665
Mg12 Mg8 3.166013 1_655
Mg12 Mg5 3.208065 1_555
Mg12 Mg3 3.208071 1_555
Mg12 Mg6 3.273535 1_555
Mg12 Mg8 3.273535 1_555
Mg13 Mg4 3.165795 1_556
Mg13 Mg2 3.165802 1_556
Mg13 Mg7 3.166013 1_665
Mg13 Mg9 3.166013 1_655
Mg13 Mg5 3.208065 1_555
Mg13 Mg3 3.208071 1_555
Mg13 Mg7 3.273535 1_555
Mg13 Mg9 3.273535 1_555
