# generated using pymatgen
data_Sr4LiMn2Ga2O11
_symmetry_space_group_name_H-M   'P 1'
_cell_length_a   6.15092372
_cell_length_b   5.75896812
_cell_length_c   8.70631524
_cell_angle_alpha   68.51740962
_cell_angle_beta   66.90707170
_cell_angle_gamma   81.71162909
_symmetry_Int_Tables_number   1
_chemical_formula_structural   Sr4LiMn2Ga2O11
_chemical_formula_sum   'Sr4 Li1 Mn2 Ga2 O11'
_cell_volume   263.98278124
_cell_formula_units_Z   1
loop_
 _symmetry_equiv_pos_site_id
 _symmetry_equiv_pos_as_xyz
  1  'x, y, z'
loop_
 _atom_site_type_symbol
 _atom_site_label
 _atom_site_symmetry_multiplicity
 _atom_site_fract_x
 _atom_site_fract_y
 _atom_site_fract_z
 _atom_site_occupancy
  Sr  Sr0  1  0.03786700  0.54221600  0.75239200  1
  Sr  Sr1  1  0.60031300  0.18618600  0.71799500  1
  Sr  Sr2  1  0.37129000  0.82136200  0.26435700  1
  Sr  Sr3  1  0.92427200  0.36504500  0.24951500  1
  Li  Li0  1  0.37835500  0.76492300  0.73128900  1
  Mn  Mn0  1  0.23691000  0.20131800  0.49713200  1
  Mn  Mn1  1  0.77324300  0.77602400  0.48465000  1
  Ga  Ga0  1  0.51657500  0.47767400  0.00519100  1
  Ga  Ga1  1  0.91919600  0.93801500  0.99374500  1
  O  O0  1  0.16634200  0.04431900  0.76682100  1
  O  O1  1  0.66936200  0.72118300  0.73604600  1
  O  O2  1  0.33579700  0.38856500  0.25409100  1
  O  O3  1  0.96227000  0.85832300  0.20710800  1
  O  O4  1  0.56802200  0.07222300  0.46432300  1
  O  O5  1  0.96475200  0.44501800  0.52503700  1
  O  O6  1  0.03410600  0.96146300  0.47418800  1
  O  O7  1  0.50464600  0.59427800  0.51942400  1
  O  O8  1  0.69878100  0.19511200  0.97204600  1
  O  O9  1  0.73456400  0.66875100  0.03172800  1
  O  O10  1  0.25810100  0.46609900  0.94667000  1
loop_
_geom_bond_atom_site_label_1
_geom_bond_atom_site_label_2
_geom_bond_distance
_geom_bond_site_symmetry_2
Li0 O1 1.785958 1_555
Li0 O0 1.956643 1_565
Li0 O10 1.985024 1_555
Li0 O7 2.226032 1_555
Li0 O4 2.313151 1_565
Mn0 O2 1.875753 1_555
Mn0 O4 2.011188 1_555
Mn0 O5 2.020994 1_455
Mn0 O0 2.068268 1_555
Mn0 O6 2.097233 1_545
Mn1 O1 1.937365 1_555
Mn1 O7 1.946988 1_555
Mn1 O4 1.966674 1_565
Mn1 O6 2.007861 1_655
Mn1 O5 2.081250 1_555
Mn1 O3 2.128726 1_555
Ga0 O10 1.866154 1_554
Ga0 O8 1.884609 1_554
Ga0 O2 1.911933 1_555
Ga0 O9 1.979071 1_555
Ga0 O1 2.141568 1_554
Ga1 O3 1.859600 1_556
Ga1 O8 1.866356 1_565
Ga1 O0 1.901433 1_665
Ga1 O9 1.908200 1_556
O0 Sr1 2.730888 1_555
O0 Sr0 2.832463 1_555
O1 Sr0 2.385850 1_655
O1 Sr1 2.606266 1_565
O2 Sr2 2.569705 1_555
O2 Sr3 2.570820 1_455
O3 Sr2 2.715661 1_655
O3 Sr3 2.759792 1_555
O3 Sr3 3.038358 1_565
O4 Sr3 2.585291 1_555
O4 Sr1 2.605998 1_555
O5 Sr0 2.452782 1_655
O5 Sr1 2.498841 1_555
O5 Sr3 2.709067 1_555
O6 Sr2 2.432035 1_555
O6 Sr3 2.634130 1_465
O6 Sr0 2.727864 1_555
O7 Sr1 2.506361 1_555
O7 Sr2 2.511394 1_555
O7 Sr0 2.771600 1_555
O7 Sr3 3.233999 1_555
O8 Sr1 2.530788 1_555
O8 Sr0 2.697474 1_655
O8 Sr2 2.895483 1_546
O9 Sr3 2.595029 1_555
O9 Sr2 2.656088 1_555
O9 Sr0 2.696848 1_654
O10 Sr0 2.443632 1_555
O10 Sr3 2.545700 1_456
O10 Sr1 3.012972 1_555
