# generated using pymatgen
data_Dy5Pb4
_symmetry_space_group_name_H-M   'P 1'
_cell_length_a   8.20707800
_cell_length_b   8.27695000
_cell_length_c   15.70901400
_cell_angle_alpha   90.00000000
_cell_angle_beta   90.00000000
_cell_angle_gamma   90.00000000
_symmetry_Int_Tables_number   1
_chemical_formula_structural   Dy5Pb4
_chemical_formula_sum   'Dy20 Pb16'
_cell_volume   1067.10663294
_cell_formula_units_Z   4
loop_
 _symmetry_equiv_pos_site_id
 _symmetry_equiv_pos_as_xyz
  1  'x, y, z'
loop_
 _atom_site_type_symbol
 _atom_site_label
 _atom_site_symmetry_multiplicity
 _atom_site_fract_x
 _atom_site_fract_y
 _atom_site_fract_z
 _atom_site_occupancy
  Dy  Dy0  1  0.37637400  0.84116900  0.87947400  1
  Dy  Dy1  1  0.87637400  0.65883100  0.62052600  1
  Dy  Dy2  1  0.62362600  0.15883100  0.37947400  1
  Dy  Dy3  1  0.12362600  0.34116900  0.12052600  1
  Dy  Dy4  1  0.62362600  0.15883100  0.12052600  1
  Dy  Dy5  1  0.12362600  0.34116900  0.37947400  1
  Dy  Dy6  1  0.37637400  0.84116900  0.62052600  1
  Dy  Dy7  1  0.87637400  0.65883100  0.87947400  1
  Dy  Dy8  1  0.53635500  0.32298800  0.89987300  1
  Dy  Dy9  1  0.03635500  0.17701200  0.60012700  1
  Dy  Dy10  1  0.46364500  0.67701200  0.39987300  1
  Dy  Dy11  1  0.96364500  0.82298800  0.10012700  1
  Dy  Dy12  1  0.46364500  0.67701200  0.10012700  1
  Dy  Dy13  1  0.96364500  0.82298800  0.39987300  1
  Dy  Dy14  1  0.53635500  0.32298800  0.60012700  1
  Dy  Dy15  1  0.03635500  0.17701200  0.89987300  1
  Dy  Dy16  1  0.20838200  0.50409200  0.75000000  1
  Dy  Dy17  1  0.70838200  0.99590800  0.75000000  1
  Dy  Dy18  1  0.79161800  0.49590800  0.25000000  1
  Dy  Dy19  1  0.29161800  0.00409200  0.25000000  1
  Pb  Pb0  1  0.28131100  0.03221000  0.04249700  1
  Pb  Pb1  1  0.78131100  0.46779000  0.45750300  1
  Pb  Pb2  1  0.71868900  0.96779000  0.54249700  1
  Pb  Pb3  1  0.21868900  0.53221000  0.95750300  1
  Pb  Pb4  1  0.71868900  0.96779000  0.95750300  1
  Pb  Pb5  1  0.21868900  0.53221000  0.54249700  1
  Pb  Pb6  1  0.28131100  0.03221000  0.45750300  1
  Pb  Pb7  1  0.78131100  0.46779000  0.04249700  1
  Pb  Pb8  1  0.57080000  0.62633300  0.75000000  1
  Pb  Pb9  1  0.07080000  0.87366700  0.75000000  1
  Pb  Pb10  1  0.42920000  0.37366700  0.25000000  1
  Pb  Pb11  1  0.92920000  0.12633300  0.25000000  1
  Pb  Pb12  1  0.34642300  0.15314200  0.75000000  1
  Pb  Pb13  1  0.84642300  0.34685800  0.75000000  1
  Pb  Pb14  1  0.65357700  0.84685800  0.25000000  1
  Pb  Pb15  1  0.15357700  0.65314200  0.25000000  1
loop_
_geom_bond_atom_site_label_1
_geom_bond_atom_site_label_2
_geom_bond_distance
_geom_bond_site_symmetry_2
Dy0 Pb0 3.109240 1_566
Dy0 Pb3 3.117167 1_555
Dy0 Pb8 3.137657 1_555
Dy0 Pb4 3.239386 1_555
Dy0 Pb9 3.240146 1_555
Dy0 Pb12 3.296193 1_565
Dy1 Pb1 3.109240 1_555
Dy1 Pb2 3.117167 1_555
Dy1 Pb9 3.137657 1_655
Dy1 Pb5 3.239386 1_655
Dy1 Pb8 3.240146 1_555
Dy1 Pb13 3.296193 1_555
Dy2 Pb2 3.109240 1_545
Dy2 Pb1 3.117167 1_555
Dy2 Pb10 3.137657 1_555
Dy2 Pb6 3.239386 1_555
Dy2 Pb11 3.240146 1_555
Dy2 Pb14 3.296193 1_545
Dy3 Pb3 3.109240 1_554
Dy3 Pb0 3.117167 1_555
Dy3 Pb11 3.137657 1_455
Dy3 Pb7 3.239386 1_455
Dy3 Pb10 3.240146 1_555
Dy3 Pb15 3.296193 1_555
Dy4 Pb4 3.109240 1_544
Dy4 Pb7 3.117167 1_555
Dy4 Pb10 3.137657 1_555
Dy4 Pb0 3.239386 1_555
Dy4 Pb11 3.240146 1_555
Dy4 Pb14 3.296193 1_545
Dy5 Pb5 3.109240 1_555
Dy5 Pb6 3.117167 1_555
Dy5 Pb11 3.137657 1_455
Dy5 Pb1 3.239386 1_455
Dy5 Pb10 3.240146 1_555
Dy5 Pb15 3.296193 1_555
Dy6 Pb6 3.109240 1_565
Dy6 Pb5 3.117167 1_555
Dy6 Pb8 3.137657 1_555
Dy6 Pb2 3.239386 1_555
Dy6 Pb9 3.240146 1_555
Dy6 Pb12 3.296193 1_565
Dy7 Pb7 3.109240 1_556
Dy7 Pb4 3.117167 1_555
Dy7 Pb9 3.137657 1_655
Dy7 Pb3 3.239386 1_655
Dy7 Pb8 3.240146 1_555
Dy7 Pb13 3.296193 1_555
Dy8 Pb12 3.154220 1_555
Dy8 Pb7 3.240032 1_556
Dy8 Pb3 3.258138 1_555
Dy8 Pb4 3.420852 1_545
Dy8 Pb8 3.453532 1_555
Dy8 Pb13 3.472434 1_555
Dy8 Pb0 3.897894 1_556
Dy9 Pb13 3.154220 1_455
Dy9 Pb6 3.240032 1_555
Dy9 Pb2 3.258138 1_445
Dy9 Pb5 3.420852 1_555
Dy9 Pb9 3.453532 1_545
Dy9 Pb12 3.472434 1_555
Dy9 Pb1 3.897894 1_455
Dy10 Pb14 3.154220 1_555
Dy10 Pb5 3.240032 1_555
Dy10 Pb1 3.258138 1_555
Dy10 Pb6 3.420852 1_565
Dy10 Pb10 3.453532 1_555
Dy10 Pb15 3.472434 1_555
Dy10 Pb2 3.897894 1_555
Dy11 Pb15 3.154220 1_655
Dy11 Pb4 3.240032 1_554
Dy11 Pb0 3.258138 1_665
Dy11 Pb7 3.420852 1_555
Dy11 Pb11 3.453532 1_565
Dy11 Pb14 3.472434 1_555
Dy11 Pb3 3.897894 1_654
Dy12 Pb14 3.154220 1_555
Dy12 Pb3 3.240032 1_554
Dy12 Pb7 3.258138 1_555
Dy12 Pb0 3.420852 1_565
Dy12 Pb10 3.453532 1_555
Dy12 Pb15 3.472434 1_555
Dy12 Pb4 3.897894 1_554
Dy13 Pb15 3.154220 1_655
Dy13 Pb2 3.240032 1_555
Dy13 Pb6 3.258138 1_665
Dy13 Pb1 3.420852 1_555
Dy13 Pb11 3.453532 1_565
Dy13 Pb14 3.472434 1_555
Dy13 Pb5 3.897894 1_655
Dy14 Pb12 3.154220 1_555
Dy14 Pb1 3.240032 1_555
Dy14 Pb5 3.258138 1_555
Dy14 Pb2 3.420852 1_545
Dy14 Pb8 3.453532 1_555
Dy14 Pb13 3.472434 1_555
Dy14 Pb6 3.897894 1_555
Dy15 Pb13 3.154220 1_455
Dy15 Pb0 3.240032 1_556
Dy15 Pb4 3.258138 1_445
Dy15 Pb3 3.420852 1_555
Dy15 Pb9 3.453532 1_545
Dy15 Pb12 3.472434 1_555
Dy15 Pb7 3.897894 1_456
Dy16 Pb12 3.117905 1_555
Dy16 Pb8 3.141770 1_555
Dy16 Pb13 3.243194 1_455
Dy16 Pb9 3.260701 1_555
Dy16 Pb5 3.269060 1_555
Dy16 Pb3 3.269060 1_555
Dy17 Pb13 3.117905 1_565
Dy17 Pb9 3.141770 1_655
Dy17 Pb12 3.243194 1_565
Dy17 Pb8 3.260701 1_555
Dy17 Pb4 3.269060 1_555
Dy17 Pb2 3.269060 1_555
Dy18 Pb14 3.117905 1_555
Dy18 Pb10 3.141770 1_555
Dy18 Pb15 3.243194 1_655
Dy18 Pb11 3.260701 1_555
Dy18 Pb1 3.269060 1_555
Dy18 Pb7 3.269060 1_555
Dy19 Pb15 3.117905 1_545
Dy19 Pb11 3.141770 1_455
Dy19 Pb14 3.243194 1_545
Dy19 Pb10 3.260701 1_555
Dy19 Pb0 3.269060 1_555
Dy19 Pb6 3.269060 1_555
