# generated using pymatgen
data_Na3DyBr6
_symmetry_space_group_name_H-M   'P 1'
_cell_length_a   7.67470294
_cell_length_b   7.19171834
_cell_length_c   12.81112476
_cell_angle_alpha   56.67049325
_cell_angle_beta   90.00000000
_cell_angle_gamma   90.00000000
_symmetry_Int_Tables_number   1
_chemical_formula_structural   Na3DyBr6
_chemical_formula_sum   'Na6 Dy2 Br12'
_cell_volume   590.80028897
_cell_formula_units_Z   2
loop_
 _symmetry_equiv_pos_site_id
 _symmetry_equiv_pos_as_xyz
  1  'x, y, z'
loop_
 _atom_site_type_symbol
 _atom_site_label
 _atom_site_symmetry_multiplicity
 _atom_site_fract_x
 _atom_site_fract_y
 _atom_site_fract_z
 _atom_site_occupancy
  Na  Na0  1  0.50000000  0.50000000  -0.00000000  1
  Na  Na1  1  -0.00000000  0.50000000  0.50000000  1
  Na  Na2  1  0.08587616  0.70687588  0.76238118  1
  Na  Na3  1  0.91412384  0.29312412  0.23761882  1
  Na  Na4  1  0.58587616  0.29312412  0.73761882  1
  Na  Na5  1  0.41412384  0.70687588  0.26238118  1
  Dy  Dy0  1  0.50000000  -0.00000000  0.50000000  1
  Dy  Dy1  1  -0.00000000  -0.00000000  -0.00000000  1
  Br  Br0  1  0.80857405  0.75288224  0.57949050  1
  Br  Br1  1  0.19142595  0.24711776  0.42050950  1
  Br  Br2  1  0.30857405  0.24711776  0.92050950  1
  Br  Br3  1  0.69142595  0.75288224  0.07949050  1
  Br  Br4  1  0.43782264  0.90313327  0.74099475  1
  Br  Br5  1  0.56217736  0.09686673  0.25900525  1
  Br  Br6  1  0.93782264  0.09686673  0.75900525  1
  Br  Br7  1  0.06217736  0.90313327  0.24099475  1
  Br  Br8  1  0.32051492  0.61627416  0.56517562  1
  Br  Br9  1  0.67948508  0.38372584  0.43482438  1
  Br  Br10  1  0.82051492  0.38372584  0.93482438  1
  Br  Br11  1  0.17948508  0.61627416  0.06517562  1
loop_
_geom_bond_atom_site_label_1
_geom_bond_atom_site_label_2
_geom_bond_distance
_geom_bond_site_symmetry_2
Br0 Dy0 2.795551 1_565
Br0 Na1 2.922016 1_655
Br0 Na2 3.045762 1_655
Br0 Na4 3.255294 1_555
Br1 Dy0 2.795551 1_555
Br1 Na1 2.922016 1_555
Br1 Na3 3.045762 1_455
Br1 Na5 3.255294 1_555
Br2 Dy1 2.795551 1_556
Br2 Na0 2.922016 1_556
Br2 Na4 3.045762 1_555
Br2 Na2 3.255294 1_555
Br3 Dy1 2.795551 1_665
Br3 Na0 2.922016 1_555
Br3 Na5 3.045762 1_555
Br3 Na3 3.255294 1_555
Br4 Dy0 2.807419 1_565
Br4 Na2 2.989665 1_555
Br4 Na4 3.004337 1_565
Br4 Na0 3.011939 1_556
Br5 Dy0 2.807419 1_555
Br5 Na3 2.989665 1_555
Br5 Na5 3.004337 1_545
Br5 Na0 3.011939 1_555
Br6 Dy1 2.807419 1_656
Br6 Na4 2.989665 1_555
Br6 Na2 3.004337 1_645
Br6 Na1 3.011939 1_655
Br7 Dy1 2.807419 1_565
Br7 Na5 2.989665 1_555
Br7 Na3 3.004337 1_465
Br7 Na1 3.011939 1_555
Br8 Dy0 2.770956 1_565
Br8 Na1 2.866112 1_555
Br8 Na4 2.964315 1_555
Br8 Na2 3.443718 1_555
Br9 Dy0 2.770956 1_555
Br9 Na1 2.866112 1_655
Br9 Na5 2.964315 1_555
Br9 Na3 3.443718 1_555
Br10 Dy1 2.770956 1_656
Br10 Na0 2.866112 1_556
Br10 Na2 2.964315 1_655
Br10 Na4 3.443718 1_555
Br11 Dy1 2.770956 1_565
Br11 Na0 2.866112 1_555
Br11 Na3 2.964315 1_455
Br11 Na5 3.443718 1_555
