# generated using pymatgen
data_Ca5P3CO12
_symmetry_space_group_name_H-M   'P 1'
_cell_length_a   9.71814213
_cell_length_b   9.71814213
_cell_length_c   6.82226700
_cell_angle_alpha   90.00000000
_cell_angle_beta   90.00000000
_cell_angle_gamma   120.00000089
_symmetry_Int_Tables_number   1
_chemical_formula_structural   Ca5P3CO12
_chemical_formula_sum   'Ca10 P6 C2 O24'
_cell_volume   557.98925104
_cell_formula_units_Z   2
loop_
 _symmetry_equiv_pos_site_id
 _symmetry_equiv_pos_as_xyz
  1  'x, y, z'
loop_
 _atom_site_type_symbol
 _atom_site_label
 _atom_site_symmetry_multiplicity
 _atom_site_fract_x
 _atom_site_fract_y
 _atom_site_fract_z
 _atom_site_occupancy
  Ca  Ca0  1  0.33333300  0.66666700  0.00178500  1
  Ca  Ca1  1  0.66666700  0.33333300  0.99821500  1
  Ca  Ca2  1  0.66666700  0.33333300  0.50178500  1
  Ca  Ca3  1  0.33333300  0.66666700  0.49821500  1
  Ca  Ca4  1  0.26254400  0.25877400  0.25000000  1
  Ca  Ca5  1  0.73745600  0.74122600  0.75000000  1
  Ca  Ca6  1  0.74122600  0.00377000  0.25000000  1
  Ca  Ca7  1  0.25877400  0.99623000  0.75000000  1
  Ca  Ca8  1  0.99623000  0.73745600  0.25000000  1
  Ca  Ca9  1  0.00377000  0.26254400  0.75000000  1
  P  P0  1  0.40123200  0.03176600  0.25000000  1
  P  P1  1  0.59876800  0.96823400  0.75000000  1
  P  P2  1  0.96823400  0.36946500  0.25000000  1
  P  P3  1  0.03176600  0.63053500  0.75000000  1
  P  P4  1  0.63053500  0.59876800  0.25000000  1
  P  P5  1  0.36946500  0.40123200  0.75000000  1
  C  C0  1  0.00000000  0.00000000  0.25000000  1
  C  C1  1  0.00000000  0.00000000  0.75000000  1
  O  O0  1  0.14994800  0.48600400  0.25000000  1
  O  O1  1  0.85005200  0.51399600  0.75000000  1
  O  O2  1  0.51399600  0.66394400  0.25000000  1
  O  O3  1  0.48600400  0.33605600  0.75000000  1
  O  O4  1  0.33605600  0.85005200  0.25000000  1
  O  O5  1  0.66394400  0.14994800  0.75000000  1
  O  O6  1  0.58763600  0.12612900  0.25000000  1
  O  O7  1  0.41236400  0.87387100  0.75000000  1
  O  O8  1  0.87387100  0.46150700  0.25000000  1
  O  O9  1  0.12612900  0.53849300  0.75000000  1
  O  O10  1  0.53849300  0.41236400  0.25000000  1
  O  O11  1  0.46150700  0.58763600  0.75000000  1
  O  O12  1  0.34794900  0.08783800  0.06664500  1
  O  O13  1  0.65205100  0.91216200  0.93335500  1
  O  O14  1  0.91216200  0.26011100  0.06664500  1
  O  O15  1  0.65205100  0.91216200  0.56664500  1
  O  O16  1  0.08783800  0.73988900  0.93335500  1
  O  O17  1  0.34794900  0.08783800  0.43335500  1
  O  O18  1  0.73988900  0.65205100  0.06664500  1
  O  O19  1  0.08783800  0.73988900  0.56664500  1
  O  O20  1  0.26011100  0.34794900  0.93335500  1
  O  O21  1  0.91216200  0.26011100  0.43335500  1
  O  O22  1  0.26011100  0.34794900  0.56664500  1
  O  O23  1  0.73988900  0.65205100  0.43335500  1
loop_
_geom_bond_atom_site_label_1
_geom_bond_atom_site_label_2
_geom_bond_distance
_geom_bond_site_symmetry_2
Ca0 O4 2.448919 1_555
Ca0 O0 2.448923 1_555
Ca0 O2 2.448926 1_555
Ca0 O7 2.459414 1_554
Ca0 O9 2.459415 1_554
Ca0 O11 2.459420 1_554
Ca0 O16 2.848470 1_554
Ca0 O13 2.848477 1_554
Ca0 O20 2.848480 1_554
Ca1 O5 2.448919 1_555
Ca1 O1 2.448923 1_555
Ca1 O3 2.448926 1_555
Ca1 O6 2.459414 1_556
Ca1 O8 2.459415 1_556
Ca1 O10 2.459420 1_556
Ca1 O14 2.848470 1_556
Ca1 O12 2.848477 1_556
Ca1 O18 2.848480 1_556
Ca2 O5 2.448919 1_555
Ca2 O1 2.448923 1_555
Ca2 O3 2.448926 1_555
Ca2 O6 2.459414 1_555
Ca2 O8 2.459415 1_555
Ca2 O10 2.459420 1_555
Ca2 O21 2.848470 1_555
Ca2 O17 2.848477 1_555
Ca2 O23 2.848480 1_555
Ca3 O4 2.448919 1_555
Ca3 O0 2.448923 1_555
Ca3 O2 2.448926 1_555
Ca3 O7 2.459414 1_555
Ca3 O9 2.459415 1_555
Ca3 O11 2.459420 1_555
Ca3 O19 2.848470 1_555
Ca3 O15 2.848477 1_555
Ca3 O22 2.848480 1_555
Ca4 O10 2.327383 1_555
Ca4 O20 2.332101 1_554
Ca4 O22 2.332101 1_555
Ca4 O12 2.528215 1_555
Ca4 O17 2.528215 1_555
Ca4 O0 2.913766 1_555
Ca5 O11 2.327383 1_555
Ca5 O23 2.332101 1_555
Ca5 O18 2.332101 1_556
Ca5 O13 2.528215 1_555
Ca5 O15 2.528215 1_555
Ca5 O1 2.913766 1_555
Ca6 O6 2.327383 1_555
Ca6 O15 2.332101 1_545
Ca6 O13 2.332101 1_544
Ca6 O14 2.528215 1_555
Ca6 O21 2.528215 1_555
Ca6 O2 2.913766 1_545
Ca7 O7 2.327383 1_555
Ca7 O12 2.332101 1_566
Ca7 O17 2.332101 1_565
Ca7 O19 2.528215 1_555
Ca7 O16 2.528215 1_555
Ca7 O3 2.913766 1_565
Ca8 O8 2.327383 1_555
Ca8 O16 2.332101 1_654
Ca8 O19 2.332101 1_655
Ca8 O23 2.528215 1_555
Ca8 O18 2.528215 1_555
Ca8 O4 2.913766 1_655
Ca9 O9 2.327383 1_555
Ca9 O21 2.332101 1_455
Ca9 O14 2.332101 1_456
Ca9 O20 2.528215 1_555
Ca9 O22 2.528215 1_555
Ca9 O5 2.913766 1_455
C0 Ca4 2.533320 1_555
C0 Ca8 2.533320 1_445
C0 Ca6 2.533320 1_455
C1 Ca5 2.533320 1_445
C1 Ca9 2.533320 1_555
C1 Ca7 2.533320 1_545
O0 P2 1.549565 1_455
O1 P3 1.549565 1_655
O2 P4 1.549573 1_555
O3 P5 1.549573 1_555
O4 P0 1.549564 1_565
O5 P1 1.549564 1_545
O6 P0 1.568846 1_555
O7 P1 1.568846 1_555
O8 P2 1.568854 1_555
O9 P3 1.568854 1_555
O10 P4 1.568846 1_555
O11 P5 1.568846 1_555
O12 P0 1.553051 1_555
O13 P1 1.553051 1_555
O14 P2 1.553046 1_555
O15 P1 1.553051 1_555
O16 P3 1.553046 1_555
O17 P0 1.553051 1_555
O18 P4 1.553046 1_555
O19 P3 1.553046 1_555
O20 P5 1.553046 1_555
O21 P2 1.553046 1_555
O22 P5 1.553046 1_555
O23 P4 1.553046 1_555
