# generated using pymatgen
data_Hg3Pd8Se9
_symmetry_space_group_name_H-M   'P 1'
_cell_length_a   6.55458959
_cell_length_b   7.27844689
_cell_length_c   16.98729192
_cell_angle_alpha   90.00000000
_cell_angle_beta   90.00000000
_cell_angle_gamma   90.00000000
_symmetry_Int_Tables_number   1
_chemical_formula_structural   Hg3Pd8Se9
_chemical_formula_sum   'Hg6 Pd16 Se18'
_cell_volume   810.41668036
_cell_formula_units_Z   2
loop_
 _symmetry_equiv_pos_site_id
 _symmetry_equiv_pos_as_xyz
  1  'x, y, z'
loop_
 _atom_site_type_symbol
 _atom_site_label
 _atom_site_symmetry_multiplicity
 _atom_site_fract_x
 _atom_site_fract_y
 _atom_site_fract_z
 _atom_site_occupancy
  Hg  Hg0  1  0.12337987  0.50000000  0.29479275  1
  Hg  Hg1  1  0.12337987  0.50000000  0.70520725  1
  Hg  Hg2  1  0.87662013  0.00000000  0.20520725  1
  Hg  Hg3  1  0.87662013  0.00000000  0.79479275  1
  Hg  Hg4  1  0.28913849  0.50000000  0.00000000  1
  Hg  Hg5  1  0.71086151  0.00000000  0.50000000  1
  Pd  Pd0  1  0.53148666  0.50000000  0.76322693  1
  Pd  Pd1  1  0.53148666  0.50000000  0.23677307  1
  Pd  Pd2  1  0.46851334  0.00000000  0.73677307  1
  Pd  Pd3  1  0.46851334  0.00000000  0.26322693  1
  Pd  Pd4  1  0.95874729  0.26216344  0.41072065  1
  Pd  Pd5  1  0.95874729  0.73783656  0.41072065  1
  Pd  Pd6  1  0.95874729  0.26216344  0.58927935  1
  Pd  Pd7  1  0.95874729  0.73783656  0.58927935  1
  Pd  Pd8  1  0.04125271  0.23783656  0.08927935  1
  Pd  Pd9  1  0.04125271  0.76216344  0.08927935  1
  Pd  Pd10  1  0.04125271  0.23783656  0.91072065  1
  Pd  Pd11  1  0.04125271  0.76216344  0.91072065  1
  Pd  Pd12  1  0.39628460  0.50000000  0.41548210  1
  Pd  Pd13  1  0.39628460  0.50000000  0.58451790  1
  Pd  Pd14  1  0.60371540  0.00000000  0.08451790  1
  Pd  Pd15  1  0.60371540  0.00000000  0.91548210  1
  Se  Se0  1  0.61347231  0.26556526  0.34036956  1
  Se  Se1  1  0.61347231  0.73443474  0.34036956  1
  Se  Se2  1  0.61347231  0.26556526  0.65963044  1
  Se  Se3  1  0.61347231  0.73443474  0.65963044  1
  Se  Se4  1  0.38652769  0.23443474  0.15963044  1
  Se  Se5  1  0.38652769  0.76556526  0.15963044  1
  Se  Se6  1  0.38652769  0.23443474  0.84036956  1
  Se  Se7  1  0.38652769  0.76556526  0.84036956  1
  Se  Se8  1  0.89814846  0.50000000  0.83254160  1
  Se  Se9  1  0.89814846  0.50000000  0.16745840  1
  Se  Se10  1  0.10185154  0.00000000  0.66745840  1
  Se  Se11  1  0.10185154  0.00000000  0.33254160  1
  Se  Se12  1  0.26299294  0.75497484  0.50000000  1
  Se  Se13  1  0.26299294  0.24502516  0.50000000  1
  Se  Se14  1  0.73700706  0.74502516  0.00000000  1
  Se  Se15  1  0.73700706  0.25497484  0.00000000  1
  Se  Se16  1  0.80500378  0.50000000  0.50000000  1
  Se  Se17  1  0.19499622  0.00000000  0.00000000  1
loop_
_geom_bond_atom_site_label_1
_geom_bond_atom_site_label_2
_geom_bond_distance
_geom_bond_site_symmetry_2
Hg0 Se9 2.618838 1_455
Hg0 Pd12 2.720843 1_555
Hg0 Pd4 2.835356 1_455
Hg0 Pd5 2.835356 1_455
Hg0 Pd1 2.850768 1_555
Hg1 Se8 2.618838 1_455
Hg1 Pd13 2.720843 1_555
Hg1 Pd6 2.835356 1_455
Hg1 Pd7 2.835356 1_455
Hg1 Pd0 2.850768 1_555
Hg2 Se11 2.618838 1_655
Hg2 Pd14 2.720843 1_555
Hg2 Pd9 2.835356 1_645
Hg2 Pd8 2.835356 1_655
Hg2 Pd3 2.850768 1_555
Hg3 Se10 2.618838 1_655
Hg3 Pd15 2.720843 1_555
Hg3 Pd11 2.835356 1_645
Hg3 Pd10 2.835356 1_655
Hg3 Pd2 2.850768 1_555
Hg4 Pd10 2.929346 1_554
Hg4 Pd11 2.929346 1_554
Hg4 Pd9 2.929346 1_555
Hg4 Pd8 2.929346 1_555
Hg5 Pd4 2.929346 1_555
Hg5 Pd5 2.929346 1_545
Hg5 Pd6 2.929346 1_555
Hg5 Pd7 2.929346 1_545
Pd0 Se2 2.509440 1_555
Pd0 Se3 2.509440 1_555
Pd0 Se6 2.521142 1_555
Pd0 Se7 2.521142 1_555
Pd0 Se8 2.676260 1_555
Pd1 Se1 2.509440 1_555
Pd1 Se0 2.509440 1_555
Pd1 Se4 2.521142 1_555
Pd1 Se5 2.521142 1_555
Pd1 Se9 2.676260 1_555
Pd2 Se7 2.509440 1_545
Pd2 Se6 2.509440 1_555
Pd2 Se2 2.521142 1_555
Pd2 Se3 2.521142 1_545
Pd2 Se10 2.676260 1_555
Pd3 Se4 2.509440 1_555
Pd3 Se5 2.509440 1_545
Pd3 Se0 2.521142 1_555
Pd3 Se1 2.521142 1_545
Pd3 Se11 2.676260 1_555
Pd4 Se11 2.506901 1_655
Pd4 Se13 2.508492 1_655
Pd4 Se16 2.512423 1_555
Pd4 Se0 2.559414 1_555
Pd5 Se11 2.506901 1_665
Pd5 Se12 2.508492 1_655
Pd5 Se16 2.512423 1_555
Pd5 Se1 2.559414 1_555
Pd6 Se10 2.506901 1_655
Pd6 Se13 2.508492 1_655
Pd6 Se16 2.512423 1_555
Pd6 Se2 2.559414 1_555
Pd7 Se10 2.506901 1_665
Pd7 Se12 2.508492 1_655
Pd7 Se16 2.512423 1_555
Pd7 Se3 2.559414 1_555
Pd8 Se9 2.506901 1_455
Pd8 Se15 2.508492 1_455
Pd8 Se17 2.512423 1_555
Pd8 Se4 2.559414 1_555
Pd9 Se9 2.506901 1_455
Pd9 Se14 2.508492 1_455
Pd9 Se17 2.512423 1_565
Pd9 Se5 2.559414 1_555
Pd10 Se8 2.506901 1_455
Pd10 Se15 2.508492 1_456
Pd10 Se17 2.512423 1_556
Pd10 Se6 2.559414 1_555
Pd11 Se8 2.506901 1_455
Pd11 Se14 2.508492 1_456
Pd11 Se17 2.512423 1_566
Pd11 Se7 2.559414 1_555
Pd12 Se13 2.503736 1_555
Pd12 Se12 2.503736 1_555
Pd12 Se0 2.562454 1_555
Pd12 Se1 2.562454 1_555
Pd12 Se16 3.039456 1_555
Pd13 Se12 2.503736 1_555
Pd13 Se13 2.503736 1_555
Pd13 Se3 2.562454 1_555
Pd13 Se2 2.562454 1_555
Pd13 Se16 3.039456 1_555
Pd14 Se15 2.503736 1_555
Pd14 Se14 2.503736 1_545
Pd14 Se5 2.562454 1_545
Pd14 Se4 2.562454 1_555
Pd14 Se17 3.039456 1_555
Pd15 Se15 2.503736 1_556
Pd15 Se14 2.503736 1_546
Pd15 Se6 2.562454 1_555
Pd15 Se7 2.562454 1_545
Pd15 Se17 3.039456 1_556
