# generated using pymatgen
data_Ba3Ho(BO2)9
_symmetry_space_group_name_H-M   'P 1'
_cell_length_a   7.27179011
_cell_length_b   7.27179011
_cell_length_c   17.47789500
_cell_angle_alpha   90.00000000
_cell_angle_beta   90.00000000
_cell_angle_gamma   120.00000102
_symmetry_Int_Tables_number   1
_chemical_formula_structural   Ba3Ho(BO2)9
_chemical_formula_sum   'Ba6 Ho2 B18 O36'
_cell_volume   800.39141842
_cell_formula_units_Z   2
loop_
 _symmetry_equiv_pos_site_id
 _symmetry_equiv_pos_as_xyz
  1  'x, y, z'
loop_
 _atom_site_type_symbol
 _atom_site_label
 _atom_site_symmetry_multiplicity
 _atom_site_fract_x
 _atom_site_fract_y
 _atom_site_fract_z
 _atom_site_occupancy
  Ba  Ba0  1  0.66666700  0.33333300  0.86777600  1
  Ba  Ba1  1  0.33333300  0.66666700  0.13222400  1
  Ba  Ba2  1  0.33333300  0.66666700  0.36777600  1
  Ba  Ba3  1  0.66666700  0.33333300  0.63222400  1
  Ba  Ba4  1  0.00000000  0.00000000  0.75000000  1
  Ba  Ba5  1  0.00000000  0.00000000  0.25000000  1
  Ho  Ho0  1  0.00000000  0.00000000  0.00000000  1
  Ho  Ho1  1  0.00000000  0.00000000  0.50000000  1
  B  B0  1  0.55038000  0.83484000  0.91834100  1
  B  B1  1  0.44962000  0.16516000  0.08165900  1
  B  B2  1  0.28446000  0.44962000  0.91834100  1
  B  B3  1  0.44962000  0.16516000  0.41834100  1
  B  B4  1  0.71554000  0.55038000  0.08165900  1
  B  B5  1  0.55038000  0.83484000  0.58165900  1
  B  B6  1  0.16516000  0.71554000  0.91834100  1
  B  B7  1  0.71554000  0.55038000  0.41834100  1
  B  B8  1  0.83484000  0.28446000  0.08165900  1
  B  B9  1  0.28446000  0.44962000  0.58165900  1
  B  B10  1  0.83484000  0.28446000  0.41834100  1
  B  B11  1  0.16516000  0.71554000  0.58165900  1
  B  B12  1  0.50480000  0.62220100  0.75000000  1
  B  B13  1  0.49520000  0.37779900  0.25000000  1
  B  B14  1  0.11740000  0.49520000  0.75000000  1
  B  B15  1  0.88260000  0.50480000  0.25000000  1
  B  B16  1  0.37779900  0.88260000  0.75000000  1
  B  B17  1  0.62220100  0.11740000  0.25000000  1
  O  O0  1  0.54198900  0.83302800  0.75000000  1
  O  O1  1  0.45801100  0.16697200  0.25000000  1
  O  O2  1  0.29103900  0.45801100  0.75000000  1
  O  O3  1  0.70896100  0.54198900  0.25000000  1
  O  O4  1  0.16697200  0.70896100  0.75000000  1
  O  O5  1  0.83302800  0.29103900  0.25000000  1
  O  O6  1  0.92004900  0.33292000  0.75000000  1
  O  O7  1  0.07995100  0.66708000  0.25000000  1
  O  O8  1  0.41287100  0.07995100  0.75000000  1
  O  O9  1  0.58712900  0.92004900  0.25000000  1
  O  O10  1  0.66708000  0.58712900  0.75000000  1
  O  O11  1  0.33292000  0.41287100  0.25000000  1
  O  O12  1  0.75021400  0.99464400  0.91943000  1
  O  O13  1  0.24978600  0.00535600  0.08057000  1
  O  O14  1  0.24443000  0.24978600  0.91943000  1
  O  O15  1  0.24978600  0.00535600  0.41943000  1
  O  O16  1  0.75557000  0.75021400  0.08057000  1
  O  O17  1  0.75021400  0.99464400  0.58057000  1
  O  O18  1  0.00535600  0.75557000  0.91943000  1
  O  O19  1  0.75557000  0.75021400  0.41943000  1
  O  O20  1  0.99464400  0.24443000  0.08057000  1
  O  O21  1  0.24443000  0.24978600  0.58057000  1
  O  O22  1  0.99464400  0.24443000  0.41943000  1
  O  O23  1  0.00535600  0.75557000  0.58057000  1
  O  O24  1  0.49647700  0.61955700  0.91803500  1
  O  O25  1  0.50352300  0.38044300  0.08196500  1
  O  O26  1  0.12307900  0.50352300  0.91803500  1
  O  O27  1  0.50352300  0.38044300  0.41803500  1
  O  O28  1  0.87692100  0.49647700  0.08196500  1
  O  O29  1  0.49647700  0.61955700  0.58196500  1
  O  O30  1  0.38044300  0.87692100  0.91803500  1
  O  O31  1  0.87692100  0.49647700  0.41803500  1
  O  O32  1  0.61955700  0.12307900  0.08196500  1
  O  O33  1  0.12307900  0.50352300  0.58196500  1
  O  O34  1  0.61955700  0.12307900  0.41803500  1
  O  O35  1  0.38044300  0.87692100  0.58196500  1
loop_
_geom_bond_atom_site_label_1
_geom_bond_atom_site_label_2
_geom_bond_distance
_geom_bond_site_symmetry_2
Ba0 O6 2.763661 1_555
Ba0 O8 2.763664 1_555
Ba0 O10 2.763666 1_555
Ba0 O12 2.957397 1_545
Ba0 O18 2.957401 1_655
Ba0 O14 2.957403 1_555
Ba0 O26 3.034978 1_655
Ba0 O30 3.034980 1_545
Ba0 O24 3.034991 1_555
Ba1 O7 2.763661 1_555
Ba1 O9 2.763664 1_555
Ba1 O11 2.763666 1_555
Ba1 O13 2.957397 1_565
Ba1 O20 2.957401 1_455
Ba1 O16 2.957403 1_555
Ba1 O28 3.034978 1_455
Ba1 O32 3.034980 1_565
Ba1 O25 3.034991 1_555
Ba2 O7 2.763661 1_555
Ba2 O9 2.763664 1_555
Ba2 O11 2.763666 1_555
Ba2 O15 2.957397 1_565
Ba2 O22 2.957401 1_455
Ba2 O19 2.957403 1_555
Ba2 O31 3.034978 1_455
Ba2 O34 3.034980 1_565
Ba2 O27 3.034991 1_555
Ba3 O6 2.763661 1_555
Ba3 O8 2.763664 1_555
Ba3 O10 2.763666 1_555
Ba3 O17 2.957397 1_545
Ba3 O23 2.957401 1_655
Ba3 O21 2.957403 1_555
Ba3 O33 3.034978 1_655
Ba3 O35 3.034980 1_545
Ba3 O29 3.034991 1_555
Ba4 O10 2.757966 1_445
Ba4 O8 2.757966 1_555
Ba4 O6 2.757967 1_455
Ba4 O2 2.919411 1_555
Ba4 O0 2.919411 1_445
Ba4 O4 2.919411 1_545
Ba5 O11 2.757966 1_555
Ba5 O9 2.757966 1_445
Ba5 O7 2.757967 1_545
Ba5 O3 2.919411 1_445
Ba5 O1 2.919411 1_555
Ba5 O5 2.919411 1_455
Ho0 O14 2.283213 1_554
Ho0 O16 2.283213 1_445
Ho0 O13 2.283213 1_555
Ho0 O12 2.283213 1_444
Ho0 O18 2.283213 1_544
Ho0 O20 2.283213 1_455
Ho1 O21 2.283213 1_555
Ho1 O19 2.283213 1_445
Ho1 O15 2.283213 1_555
Ho1 O17 2.283213 1_445
Ho1 O23 2.283213 1_545
Ho1 O22 2.283213 1_455
B0 O12 1.331820 1_555
B0 O24 1.410960 1_555
B0 O30 1.413817 1_555
B1 O13 1.331820 1_555
B1 O25 1.410960 1_555
B1 O32 1.413817 1_555
B2 O14 1.331820 1_555
B2 O26 1.410968 1_555
B2 O24 1.413813 1_555
B3 O15 1.331820 1_555
B3 O27 1.410960 1_555
B3 O34 1.413817 1_555
B4 O16 1.331820 1_555
B4 O28 1.410968 1_555
B4 O25 1.413813 1_555
B5 O17 1.331820 1_555
B5 O29 1.410960 1_555
B5 O35 1.413817 1_555
B6 O18 1.331820 1_555
B6 O30 1.410962 1_555
B6 O26 1.413810 1_555
B7 O19 1.331820 1_555
B7 O31 1.410968 1_555
B7 O27 1.413813 1_555
B8 O20 1.331820 1_555
B8 O32 1.410962 1_555
B8 O28 1.413810 1_555
B9 O21 1.331820 1_555
B9 O33 1.410968 1_555
B9 O29 1.413813 1_555
B10 O22 1.331820 1_555
B10 O34 1.410962 1_555
B10 O31 1.413810 1_555
B11 O23 1.331820 1_555
B11 O35 1.410962 1_555
B11 O33 1.413810 1_555
B12 O10 1.326107 1_555
B12 O2 1.409203 1_555
B12 O0 1.417358 1_555
B13 O11 1.326107 1_555
B13 O3 1.409203 1_555
B13 O1 1.417358 1_555
B14 O6 1.326102 1_455
B14 O4 1.409201 1_555
B14 O2 1.417365 1_555
B15 O7 1.326102 1_655
B15 O5 1.409201 1_555
B15 O3 1.417365 1_555
B16 O8 1.326100 1_565
B16 O0 1.409208 1_555
B16 O4 1.417360 1_555
B17 O9 1.326100 1_545
B17 O1 1.409208 1_555
B17 O5 1.417360 1_555
