# generated using pymatgen
data_Li9Mn2Co5O16
_symmetry_space_group_name_H-M   'P 1'
_cell_length_a   5.79700200
_cell_length_b   6.57915918
_cell_length_c   7.71111736
_cell_angle_alpha   86.28117635
_cell_angle_beta   80.48379077
_cell_angle_gamma   77.26850484
_symmetry_Int_Tables_number   1
_chemical_formula_structural   Li9Mn2Co5O16
_chemical_formula_sum   'Li9 Mn2 Co5 O16'
_cell_volume   282.79542732
_cell_formula_units_Z   1
loop_
 _symmetry_equiv_pos_site_id
 _symmetry_equiv_pos_as_xyz
  1  'x, y, z'
loop_
 _atom_site_type_symbol
 _atom_site_label
 _atom_site_symmetry_multiplicity
 _atom_site_fract_x
 _atom_site_fract_y
 _atom_site_fract_z
 _atom_site_occupancy
  Li  Li0  1  0.94208000  0.87890300  0.37554000  1
  Li  Li1  1  0.67873300  0.37310700  0.87009900  1
  Li  Li2  1  0.55476200  0.11934900  0.63492200  1
  Li  Li3  1  0.31681700  0.62573500  0.12344000  1
  Li  Li4  1  0.19704100  0.36806700  0.87788300  1
  Li  Li5  1  0.80634400  0.63376500  0.12012600  1
  Li  Li6  1  0.43414300  0.87739100  0.37079900  1
  Li  Li7  1  0.05650700  0.11992500  0.62829000  1
  Li  Li8  1  0.49375400  0.00086400  0.00198200  1
  Mn  Mn0  1  0.00411100  0.99980100  0.00229200  1
  Mn  Mn1  1  0.62745000  0.24601400  0.24567500  1
  Co  Co0  1  0.75692600  0.50178900  0.49984800  1
  Co  Co1  1  0.25351100  0.50200600  0.50359300  1
  Co  Co2  1  0.37561400  0.75777600  0.75646200  1
  Co  Co3  1  0.13236000  0.24739700  0.24722000  1
  Co  Co4  1  0.86064500  0.76162500  0.75377100  1
  O  O0  1  0.20415900  0.95862700  0.18049500  1
  O  O1  1  0.95978100  0.45377100  0.67969600  1
  O  O2  1  0.85464500  0.20060800  0.41577200  1
  O  O3  1  0.58602000  0.68300000  0.92341900  1
  O  O4  1  0.46347200  0.43782100  0.67464100  1
  O  O5  1  0.08273300  0.71151800  0.94183400  1
  O  O6  1  0.73086400  0.96032100  0.18011800  1
  O  O7  1  0.35767300  0.19398400  0.41291900  1
  O  O8  1  0.64919900  0.80679200  0.56743200  1
  O  O9  1  0.40572800  0.30701400  0.08344700  1
  O  O10  1  0.25855200  0.05676700  0.82486100  1
  O  O11  1  0.04770700  0.53665000  0.32016300  1
  O  O12  1  0.90803500  0.29264500  0.07515100  1
  O  O13  1  0.54785100  0.54115500  0.31594600  1
  O  O14  1  0.15915400  0.79996600  0.57186400  1
  O  O15  1  0.79362600  0.04584700  0.82030100  1
loop_
_geom_bond_atom_site_label_1
_geom_bond_atom_site_label_2
_geom_bond_distance
_geom_bond_site_symmetry_2
Li0 O6 2.067183 1_555
Li0 O0 2.082961 1_655
Li0 O14 2.094020 1_655
Li0 O2 2.096011 1_565
Li0 O8 2.174974 1_555
Li0 O11 2.249034 1_655
Li1 O3 2.041433 1_555
Li1 O4 2.077154 1_555
Li1 O1 2.140280 1_555
Li1 O15 2.148834 1_555
Li1 O9 2.179424 1_556
Li1 O12 2.196256 1_556
Li2 O4 2.074843 1_555
Li2 O8 2.085088 1_545
Li2 O15 2.112894 1_555
Li2 O10 2.159872 1_555
Li2 O7 2.183449 1_555
Li2 O2 2.341950 1_555
Li3 O5 2.075878 1_554
Li3 O9 2.076722 1_555
Li3 O3 2.084266 1_554
Li3 O13 2.128068 1_555
Li3 O11 2.140923 1_555
Li3 O0 2.194624 1_555
Li4 O10 2.056094 1_555
Li4 O4 2.114480 1_555
Li4 O9 2.115369 1_556
Li4 O1 2.187827 1_455
Li4 O12 2.189257 1_456
Li4 O5 2.272595 1_555
Li5 O5 2.064132 1_654
Li5 O3 2.105109 1_554
Li5 O13 2.105156 1_555
Li5 O6 2.160788 1_555
Li5 O11 2.221942 1_655
Li5 O12 2.225943 1_555
Li6 O7 2.067295 1_565
Li6 O8 2.085052 1_555
Li6 O0 2.108944 1_555
Li6 O14 2.154705 1_555
Li6 O6 2.211717 1_555
Li6 O13 2.212124 1_555
Li7 O10 2.032956 1_555
Li7 O15 2.059074 1_455
Li7 O14 2.110872 1_545
Li7 O2 2.141047 1_455
Li7 O1 2.189163 1_455
Li7 O7 2.314043 1_555
Li8 O0 2.045060 1_545
Li8 O10 2.046773 1_554
Li8 O6 2.064582 1_545
Li8 O9 2.077779 1_555
Li8 O15 2.107104 1_554
Li8 O3 2.142595 1_544
Mn0 O0 1.909627 1_555
Mn0 O5 1.919848 1_554
Mn0 O10 1.922988 1_564
Mn0 O6 1.968198 1_455
Mn0 O15 1.974370 1_464
Mn0 O12 1.975316 1_465
Mn1 O9 1.901889 1_555
Mn1 O6 1.916846 1_545
Mn1 O7 1.933374 1_555
Mn1 O2 1.972615 1_555
Mn1 O12 1.982234 1_555
Mn1 O13 1.983920 1_555
Co0 O1 1.929928 1_555
Co0 O13 1.982253 1_555
Co0 O8 2.040585 1_555
Co0 O11 2.042245 1_655
Co0 O2 2.053798 1_555
Co0 O4 2.090828 1_555
Co1 O4 1.905643 1_555
Co1 O11 1.967811 1_555
Co1 O14 1.996311 1_555
Co1 O1 2.064419 1_455
Co1 O13 2.097732 1_555
Co1 O7 2.113089 1_555
Co2 O3 1.886743 1_555
Co2 O10 2.008999 1_565
Co2 O14 2.015857 1_555
Co2 O8 2.035696 1_555
Co2 O5 2.094602 1_555
Co2 O4 2.163822 1_555
Co3 O7 1.937354 1_555
Co3 O0 1.937759 1_545
Co3 O9 1.951407 1_555
Co3 O11 1.953131 1_555
Co3 O2 1.962277 1_455
Co3 O12 1.972020 1_455
Co4 O15 1.910272 1_565
Co4 O8 2.005452 1_555
Co4 O3 2.024834 1_555
Co4 O5 2.058507 1_655
Co4 O1 2.070593 1_555
Co4 O14 2.090358 1_655
