# generated using pymatgen
data_CsPr6FeI10
_symmetry_space_group_name_H-M   'P 1'
_cell_length_a   13.89315200
_cell_length_b   14.31273000
_cell_length_c   15.66001600
_cell_angle_alpha   90.00000000
_cell_angle_beta   90.00000000
_cell_angle_gamma   90.00000000
_symmetry_Int_Tables_number   1
_chemical_formula_structural   CsPr6FeI10
_chemical_formula_sum   'Cs4 Pr24 Fe4 I40'
_cell_volume   3113.97747902
_cell_formula_units_Z   4
loop_
 _symmetry_equiv_pos_site_id
 _symmetry_equiv_pos_as_xyz
  1  'x, y, z'
loop_
 _atom_site_type_symbol
 _atom_site_label
 _atom_site_symmetry_multiplicity
 _atom_site_fract_x
 _atom_site_fract_y
 _atom_site_fract_z
 _atom_site_occupancy
  Cs  Cs0  1  0.25000000  0.48688300  0.41642600  1
  Cs  Cs1  1  0.75000000  0.51311700  0.58357400  1
  Cs  Cs2  1  0.75000000  0.98688300  0.08357400  1
  Cs  Cs3  1  0.25000000  0.01311700  0.91642600  1
  Pr  Pr0  1  0.25000000  0.39334600  0.00792600  1
  Pr  Pr1  1  0.75000000  0.60665400  0.99207400  1
  Pr  Pr2  1  0.75000000  0.89334600  0.49207400  1
  Pr  Pr3  1  0.25000000  0.10665400  0.50792600  1
  Pr  Pr4  1  0.25000000  0.89560700  0.23094600  1
  Pr  Pr5  1  0.75000000  0.10439300  0.76905400  1
  Pr  Pr6  1  0.75000000  0.39560700  0.26905400  1
  Pr  Pr7  1  0.25000000  0.60439300  0.73094600  1
  Pr  Pr8  1  0.60810000  0.38298700  0.05787300  1
  Pr  Pr9  1  0.39190000  0.61701300  0.94212700  1
  Pr  Pr10  1  0.39190000  0.88298700  0.44212700  1
  Pr  Pr11  1  0.10810000  0.61701300  0.94212700  1
  Pr  Pr12  1  0.60810000  0.11701300  0.55787300  1
  Pr  Pr13  1  0.89190000  0.38298700  0.05787300  1
  Pr  Pr14  1  0.89190000  0.11701300  0.55787300  1
  Pr  Pr15  1  0.10810000  0.88298700  0.44212700  1
  Pr  Pr16  1  0.10850700  0.11579900  0.29674500  1
  Pr  Pr17  1  0.89149300  0.88420100  0.70325500  1
  Pr  Pr18  1  0.89149300  0.61579900  0.20325500  1
  Pr  Pr19  1  0.60850700  0.88420100  0.70325500  1
  Pr  Pr20  1  0.10850700  0.38420100  0.79674500  1
  Pr  Pr21  1  0.39149300  0.11579900  0.29674500  1
  Pr  Pr22  1  0.39149300  0.38420100  0.79674500  1
  Pr  Pr23  1  0.60850700  0.61579900  0.20325500  1
  Fe  Fe0  1  0.25000000  0.00071800  0.37108600  1
  Fe  Fe1  1  0.75000000  0.99928200  0.62891400  1
  Fe  Fe2  1  0.75000000  0.50071800  0.12891400  1
  Fe  Fe3  1  0.25000000  0.49928200  0.87108600  1
  I  I0  1  0.07570300  0.24836700  0.46237600  1
  I  I1  1  0.92429700  0.75163300  0.53762400  1
  I  I2  1  0.92429700  0.74836700  0.03762400  1
  I  I3  1  0.57570300  0.75163300  0.53762400  1
  I  I4  1  0.07570300  0.25163300  0.96237600  1
  I  I5  1  0.42429700  0.24836700  0.46237600  1
  I  I6  1  0.42429700  0.25163300  0.96237600  1
  I  I7  1  0.57570300  0.74836700  0.03762400  1
  I  I8  1  0.08366000  0.50133200  0.12494000  1
  I  I9  1  0.91634000  0.49866800  0.87506000  1
  I  I10  1  0.91634000  0.00133200  0.37506000  1
  I  I11  1  0.58366000  0.49866800  0.87506000  1
  I  I12  1  0.08366000  0.99866800  0.62494000  1
  I  I13  1  0.41634000  0.50133200  0.12494000  1
  I  I14  1  0.41634000  0.99866800  0.62494000  1
  I  I15  1  0.58366000  0.00133200  0.37506000  1
  I  I16  1  0.25000000  0.76270800  0.03682000  1
  I  I17  1  0.75000000  0.23729200  0.96318000  1
  I  I18  1  0.75000000  0.26270800  0.46318000  1
  I  I19  1  0.25000000  0.73729200  0.53682000  1
  I  I20  1  0.25000000  0.27410700  0.21763600  1
  I  I21  1  0.75000000  0.72589300  0.78236400  1
  I  I22  1  0.75000000  0.77410700  0.28236400  1
  I  I23  1  0.25000000  0.22589300  0.71763600  1
  I  I24  1  0.59074500  0.23750800  0.21190400  1
  I  I25  1  0.40925500  0.76249200  0.78809600  1
  I  I26  1  0.40925500  0.73750800  0.28809600  1
  I  I27  1  0.09074500  0.76249200  0.78809600  1
  I  I28  1  0.59074500  0.26249200  0.71190400  1
  I  I29  1  0.90925500  0.23750800  0.21190400  1
  I  I30  1  0.90925500  0.26249200  0.71190400  1
  I  I31  1  0.09074500  0.73750800  0.28809600  1
  I  I32  1  0.08223500  0.00055700  0.12417100  1
  I  I33  1  0.91776500  0.99944300  0.87582900  1
  I  I34  1  0.91776500  0.50055700  0.37582900  1
  I  I35  1  0.58223500  0.99944300  0.87582900  1
  I  I36  1  0.08223500  0.49944300  0.62417100  1
  I  I37  1  0.41776500  0.00055700  0.12417100  1
  I  I38  1  0.41776500  0.49944300  0.62417100  1
  I  I39  1  0.58223500  0.50055700  0.37582900  1
loop_
_geom_bond_atom_site_label_1
_geom_bond_atom_site_label_2
_geom_bond_distance
_geom_bond_site_symmetry_2
Cs0 I36 4.006092 1_555
Cs0 I38 4.006092 1_555
Cs0 I19 4.049684 1_555
Cs0 I5 4.246852 1_555
Cs0 I0 4.246852 1_555
Cs0 I20 4.354952 1_555
Cs1 I34 4.006092 1_555
Cs1 I39 4.006092 1_555
Cs1 I18 4.049684 1_555
Cs1 I1 4.246852 1_555
Cs1 I3 4.246852 1_555
Cs1 I21 4.354952 1_555
Cs2 I33 4.006092 1_554
Cs2 I35 4.006092 1_554
Cs2 I17 4.049684 1_564
Cs2 I2 4.246852 1_555
Cs2 I7 4.246852 1_555
Cs2 I22 4.354952 1_555
Cs3 I32 4.006092 1_556
Cs3 I37 4.006092 1_556
Cs3 I16 4.049684 1_546
Cs3 I6 4.246852 1_555
Cs3 I4 4.246852 1_555
Cs3 I23 4.354952 1_555
Fe0 Pr3 2.625082 1_555
Fe0 Pr4 2.660741 1_545
Fe0 Pr21 2.816494 1_555
Fe0 Pr16 2.816494 1_555
Fe0 Pr15 2.821991 1_545
Fe0 Pr10 2.821991 1_545
Fe1 Pr2 2.625082 1_555
Fe1 Pr5 2.660741 1_565
Fe1 Pr17 2.816494 1_555
Fe1 Pr19 2.816494 1_555
Fe1 Pr12 2.821991 1_565
Fe1 Pr14 2.821991 1_565
Fe2 Pr1 2.625082 1_554
Fe2 Pr6 2.660741 1_555
Fe2 Pr18 2.816494 1_555
Fe2 Pr23 2.816494 1_555
Fe2 Pr8 2.821991 1_555
Fe2 Pr13 2.821991 1_555
Fe3 Pr0 2.625082 1_556
Fe3 Pr7 2.660741 1_555
Fe3 Pr22 2.816494 1_555
Fe3 Pr20 2.816494 1_555
Fe3 Pr9 2.821991 1_555
Fe3 Pr11 2.821991 1_555
I0 Pr3 3.238309 1_555
I0 Pr16 3.245857 1_555
I0 Pr14 3.505979 1_455
I1 Pr2 3.238309 1_555
I1 Pr17 3.245857 1_555
I1 Pr15 3.505979 1_655
I2 Pr1 3.238309 1_554
I2 Pr18 3.245857 1_555
I2 Pr11 3.505979 1_654
I3 Pr2 3.238309 1_555
I3 Pr19 3.245857 1_555
I3 Pr10 3.505979 1_555
I4 Pr0 3.238309 1_556
I4 Pr20 3.245857 1_555
I4 Pr13 3.505979 1_456
I5 Pr3 3.238309 1_555
I5 Pr21 3.245857 1_555
I5 Pr12 3.505979 1_555
I6 Pr0 3.238309 1_556
I6 Pr22 3.245857 1_555
I6 Pr8 3.505979 1_556
I7 Pr1 3.238309 1_554
I7 Pr23 3.245857 1_555
I7 Pr9 3.505979 1_554
I8 Pr11 3.324546 1_554
I8 Pr13 3.327140 1_455
I8 Pr0 3.329760 1_555
I8 Pr18 3.363940 1_455
I9 Pr13 3.324546 1_556
I9 Pr11 3.327140 1_655
I9 Pr1 3.329760 1_555
I9 Pr20 3.363940 1_655
I10 Pr14 3.324546 1_555
I10 Pr15 3.327140 1_645
I10 Pr2 3.329760 1_545
I10 Pr16 3.363940 1_655
I11 Pr8 3.324546 1_556
I11 Pr9 3.327140 1_555
I11 Pr1 3.329760 1_555
I11 Pr22 3.363940 1_555
I12 Pr15 3.324546 1_555
I12 Pr14 3.327140 1_465
I12 Pr3 3.329760 1_565
I12 Pr17 3.363940 1_455
I13 Pr9 3.324546 1_554
I13 Pr8 3.327140 1_555
I13 Pr0 3.329760 1_555
I13 Pr23 3.363940 1_555
I14 Pr10 3.324546 1_555
I14 Pr12 3.327140 1_565
I14 Pr3 3.329760 1_565
I14 Pr19 3.363940 1_555
I15 Pr12 3.324546 1_555
I15 Pr10 3.327140 1_545
I15 Pr2 3.329760 1_545
I15 Pr21 3.363940 1_555
I16 Pr11 3.230169 1_554
I16 Pr9 3.230169 1_554
I16 Pr4 3.586065 1_555
I17 Pr13 3.230169 1_556
I17 Pr8 3.230169 1_556
I17 Pr5 3.586065 1_555
I18 Pr14 3.230169 1_555
I18 Pr12 3.230169 1_555
I18 Pr6 3.586065 1_555
I19 Pr15 3.230169 1_555
I19 Pr10 3.230169 1_555
I19 Pr7 3.586065 1_555
I20 Pr21 3.245457 1_555
I20 Pr16 3.245457 1_555
I20 Pr0 3.701036 1_555
I21 Pr17 3.245457 1_555
I21 Pr19 3.245457 1_555
I21 Pr1 3.701036 1_555
I22 Pr23 3.245457 1_555
I22 Pr18 3.245457 1_555
I22 Pr2 3.701036 1_555
I23 Pr22 3.245457 1_555
I23 Pr20 3.245457 1_555
I23 Pr3 3.701036 1_555
I24 Pr8 3.195632 1_555
I24 Pr6 3.288884 1_555
I24 Pr21 3.530280 1_555
I25 Pr9 3.195632 1_555
I25 Pr7 3.288884 1_555
I25 Pr19 3.530280 1_555
I26 Pr10 3.195632 1_555
I26 Pr4 3.288884 1_555
I26 Pr23 3.530280 1_555
I27 Pr11 3.195632 1_555
I27 Pr7 3.288884 1_555
I27 Pr17 3.530280 1_455
I28 Pr12 3.195632 1_555
I28 Pr5 3.288884 1_555
I28 Pr22 3.530280 1_555
I29 Pr13 3.195632 1_555
I29 Pr6 3.288884 1_555
I29 Pr16 3.530280 1_655
I30 Pr14 3.195632 1_555
I30 Pr5 3.288884 1_555
I30 Pr20 3.530280 1_655
I31 Pr15 3.195632 1_555
I31 Pr4 3.288884 1_555
I31 Pr18 3.530280 1_455
I32 Pr16 3.187069 1_555
I32 Pr4 3.238030 1_545
I33 Pr17 3.187069 1_555
I33 Pr5 3.238030 1_565
I34 Pr18 3.187069 1_555
I34 Pr6 3.238030 1_555
I35 Pr19 3.187069 1_555
I35 Pr5 3.238030 1_565
I36 Pr20 3.187069 1_555
I36 Pr7 3.238030 1_555
I37 Pr21 3.187069 1_555
I37 Pr4 3.238030 1_545
I38 Pr22 3.187069 1_555
I38 Pr7 3.238030 1_555
I39 Pr23 3.187069 1_555
I39 Pr6 3.238030 1_555
