# generated using pymatgen
data_Li9Mn2Co5O16
_symmetry_space_group_name_H-M   'P 1'
_cell_length_a   2.97775400
_cell_length_b   8.07862984
_cell_length_c   11.93229431
_cell_angle_alpha   90.75716592
_cell_angle_beta   93.93197037
_cell_angle_gamma   90.82124142
_symmetry_Int_Tables_number   1
_chemical_formula_structural   Li9Mn2Co5O16
_chemical_formula_sum   'Li9 Mn2 Co5 O16'
_cell_volume   286.31125422
_cell_formula_units_Z   1
loop_
 _symmetry_equiv_pos_site_id
 _symmetry_equiv_pos_as_xyz
  1  'x, y, z'
loop_
 _atom_site_type_symbol
 _atom_site_label
 _atom_site_symmetry_multiplicity
 _atom_site_fract_x
 _atom_site_fract_y
 _atom_site_fract_z
 _atom_site_occupancy
  Li  Li0  1  0.00000000  0.00000000  0.00000000  1
  Li  Li1  1  0.50048000  0.74193300  0.37931400  1
  Li  Li2  1  0.00902100  0.50260600  0.74820600  1
  Li  Li3  1  0.49907200  0.25340200  0.12353900  1
  Li  Li4  1  0.00000000  0.00000000  0.50000000  1
  Li  Li5  1  0.50092800  0.74659800  0.87646100  1
  Li  Li6  1  0.99097900  0.49739400  0.25179400  1
  Li  Li7  1  0.49952000  0.25806700  0.62068600  1
  Li  Li8  1  0.00000000  0.50000000  0.50000000  1
  Mn  Mn0  1  0.00146500  0.99897800  0.75002600  1
  Mn  Mn1  1  0.99853500  0.00102200  0.24997400  1
  Co  Co0  1  0.51222800  0.74849500  0.12245700  1
  Co  Co1  1  0.48777200  0.25150500  0.87754300  1
  Co  Co2  1  0.50728000  0.73760200  0.61862400  1
  Co  Co3  1  0.00000000  0.50000000  0.00000000  1
  Co  Co4  1  0.49272000  0.26239800  0.38137600  1
  O  O0  1  0.47765400  0.01109900  0.87132500  1
  O  O1  1  0.97297600  0.75686600  0.24436900  1
  O  O2  1  0.49512900  0.52338200  0.62820100  1
  O  O3  1  0.96348700  0.26130300  0.99283100  1
  O  O4  1  0.47820000  0.01936900  0.36976800  1
  O  O5  1  0.97959100  0.75881400  0.74550200  1
  O  O6  1  0.52895100  0.51118400  0.10804600  1
  O  O7  1  0.97770900  0.25045500  0.49233700  1
  O  O8  1  0.52234600  0.98890100  0.12867500  1
  O  O9  1  0.02229100  0.74954500  0.50766300  1
  O  O10  1  0.47104900  0.48881600  0.89195400  1
  O  O11  1  0.02040900  0.24118600  0.25449800  1
  O  O12  1  0.52180000  0.98063100  0.63023200  1
  O  O13  1  0.03651300  0.73869700  0.00716900  1
  O  O14  1  0.50487100  0.47661800  0.37179900  1
  O  O15  1  0.02702400  0.24313400  0.75563100  1
loop_
_geom_bond_atom_site_label_1
_geom_bond_atom_site_label_2
_geom_bond_distance
_geom_bond_site_symmetry_2
Li0 O8 2.113030 1_545
Li0 O0 2.113030 1_454
Li0 O13 2.117879 1_545
Li0 O3 2.117879 1_454
Li0 O0 2.165174 1_554
Li0 O8 2.165174 1_445
Li1 O9 2.105244 1_655
Li1 O14 2.144337 1_555
Li1 O9 2.162392 1_555
Li1 O1 2.176773 1_455
Li1 O1 2.213112 1_555
Li1 O4 2.247396 1_565
Li2 O2 2.033091 1_455
Li2 O5 2.073502 1_455
Li2 O15 2.100515 1_555
Li2 O2 2.111290 1_555
Li2 O10 2.129112 1_555
Li2 O10 2.428472 1_455
Li3 O6 2.094307 1_555
Li3 O11 2.130105 1_655
Li3 O8 2.140472 1_545
Li3 O3 2.155112 1_454
Li3 O3 2.155208 1_554
Li3 O11 2.188307 1_555
Li4 O9 2.028436 1_545
Li4 O7 2.028436 1_455
Li4 O12 2.129747 1_545
Li4 O4 2.129747 1_455
Li4 O4 2.184142 1_555
Li4 O12 2.184142 1_445
Li5 O10 2.094307 1_555
Li5 O5 2.130105 1_455
Li5 O0 2.140472 1_565
Li5 O13 2.155112 1_656
Li5 O13 2.155208 1_556
Li5 O5 2.188307 1_555
Li6 O14 2.033091 1_655
Li6 O11 2.073502 1_655
Li6 O1 2.100515 1_555
Li6 O14 2.111290 1_555
Li6 O6 2.129112 1_555
Li6 O6 2.428472 1_655
Li7 O7 2.105244 1_455
Li7 O2 2.144337 1_555
Li7 O7 2.162392 1_555
Li7 O15 2.176773 1_655
Li7 O15 2.213112 1_555
Li7 O12 2.247396 1_545
Li8 O7 2.016782 1_455
Li8 O9 2.016782 1_555
Li8 O2 2.055383 1_555
Li8 O14 2.055383 1_455
Li8 O2 2.225269 1_455
Li8 O14 2.225269 1_555
Mn0 O5 1.940269 1_455
Mn0 O12 1.952855 1_455
Mn0 O0 1.956001 1_565
Mn0 O15 1.972897 1_565
Mn0 O12 2.184185 1_555
Mn0 O0 2.201737 1_465
Mn1 O11 1.940269 1_655
Mn1 O4 1.952855 1_655
Mn1 O8 1.956001 1_545
Mn1 O1 1.972897 1_545
Mn1 O4 2.184185 1_555
Mn1 O8 2.201737 1_645
Co0 O13 1.905777 1_555
Co0 O6 1.924241 1_555
Co0 O1 1.929790 1_555
Co0 O8 1.942311 1_555
Co0 O13 2.152023 1_655
Co0 O1 2.240541 1_455
Co1 O3 1.905777 1_555
Co1 O10 1.924241 1_555
Co1 O15 1.929790 1_555
Co1 O0 1.942311 1_555
Co1 O3 2.152023 1_455
Co1 O15 2.240541 1_655
Co2 O2 1.735902 1_555
Co2 O9 1.895553 1_555
Co2 O12 1.966042 1_555
Co2 O5 1.998412 1_555
Co2 O9 2.095661 1_655
Co2 O5 2.262208 1_455
Co3 O3 1.930287 1_454
Co3 O13 1.930287 1_555
Co3 O10 1.966098 1_454
Co3 O6 1.966098 1_555
Co3 O10 1.971379 1_554
Co3 O6 1.971379 1_455
Co4 O14 1.735902 1_555
Co4 O7 1.895553 1_555
Co4 O4 1.966042 1_555
Co4 O11 1.998412 1_555
Co4 O7 2.095661 1_455
Co4 O11 2.262208 1_655
