# generated using pymatgen
data_Mg2Sn3O8
_symmetry_space_group_name_H-M   'P 1'
_cell_length_a   6.24238239
_cell_length_b   6.24238239
_cell_length_c   5.27806609
_cell_angle_alpha   71.97575926
_cell_angle_beta   71.97575926
_cell_angle_gamma   60.26636511
_symmetry_Int_Tables_number   1
_chemical_formula_structural   Mg2Sn3O8
_chemical_formula_sum   'Mg2 Sn3 O8'
_cell_volume   166.77249177
_cell_formula_units_Z   1
loop_
 _symmetry_equiv_pos_site_id
 _symmetry_equiv_pos_as_xyz
  1  'x, y, z'
loop_
 _atom_site_type_symbol
 _atom_site_label
 _atom_site_symmetry_multiplicity
 _atom_site_fract_x
 _atom_site_fract_y
 _atom_site_fract_z
 _atom_site_occupancy
  Mg  Mg0  1  0.71425300  0.71425300  0.85496400  1
  Mg  Mg1  1  0.28574700  0.28574700  0.14503600  1
  Sn  Sn0  1  0.00000000  0.00000000  0.00000000  1
  Sn  Sn1  1  0.73619200  0.26380800  0.50000000  1
  Sn  Sn2  1  0.26380800  0.73619200  0.50000000  1
  O  O0  1  0.39050800  0.39050800  0.41009800  1
  O  O1  1  0.60949200  0.60949200  0.58990200  1
  O  O2  1  0.89015400  0.89015400  0.42627100  1
  O  O3  1  0.10984600  0.10984600  0.57372900  1
  O  O4  1  0.34627400  0.89414000  0.09119200  1
  O  O5  1  0.89414000  0.34627400  0.09119200  1
  O  O6  1  0.10586000  0.65372600  0.90880800  1
  O  O7  1  0.65372600  0.10586000  0.90880800  1
loop_
_geom_bond_atom_site_label_1
_geom_bond_atom_site_label_2
_geom_bond_distance
_geom_bond_site_symmetry_2
Mg0 O1 2.090245 1_555
Mg0 O4 2.151154 1_556
Mg0 O5 2.151154 1_556
Mg0 O6 2.376276 1_655
Mg0 O7 2.376276 1_565
Mg0 O2 2.377398 1_555
Mg1 O0 2.090245 1_555
Mg1 O6 2.151154 1_554
Mg1 O7 2.151154 1_554
Mg1 O4 2.376276 1_545
Mg1 O5 2.376276 1_455
Mg1 O3 2.377398 1_555
O0 Sn1 2.053208 1_555
O0 Sn2 2.053208 1_555
O1 Sn2 2.053208 1_555
O1 Sn1 2.053208 1_555
O2 Sn0 2.135259 1_665
O2 Sn1 2.149941 1_565
O2 Sn2 2.149941 1_655
O3 Sn0 2.135259 1_556
O3 Sn1 2.149941 1_455
O3 Sn2 2.149941 1_545
O4 Sn0 2.090663 1_565
O4 Sn2 2.095811 1_555
O5 Sn0 2.090663 1_655
O5 Sn1 2.095811 1_555
O6 Sn0 2.090663 1_566
O6 Sn2 2.095811 1_555
O7 Sn0 2.090663 1_656
O7 Sn1 2.095811 1_555
