# generated using pymatgen
data_TaMnRe2
_symmetry_space_group_name_H-M   'P 1'
_cell_length_a   10.31767359
_cell_length_b   10.31767359
_cell_length_c   10.31767359
_cell_angle_alpha   122.76722603
_cell_angle_beta   118.52615712
_cell_angle_gamma   88.92350819
_symmetry_Int_Tables_number   1
_chemical_formula_structural   TaMnRe2
_chemical_formula_sum   'Ta1 Mn1 Re2'
_cell_volume   767.57199591
_cell_formula_units_Z   1
loop_
 _symmetry_equiv_pos_site_id
 _symmetry_equiv_pos_as_xyz
  1  'x, y, z'
loop_
 _atom_site_type_symbol
 _atom_site_label
 _atom_site_symmetry_multiplicity
 _atom_site_fract_x
 _atom_site_fract_y
 _atom_site_fract_z
 _atom_site_occupancy
  Ta  Ta0  1  0.00000000  0.50000000  0.50000000  1
  Mn  Mn0  1  0.00000000  0.00000000  0.00000000  1
  Re  Re0  1  0.00000000  0.26488300  0.26488300  1
  Re  Re1  1  0.00000000  0.73511700  0.73511700  1
loop_
_geom_bond_atom_site_label_1
_geom_bond_atom_site_label_2
_geom_bond_distance
_geom_bond_site_symmetry_2
Mn0 Re1 2.617879 1_544
Mn0 Re0 2.617879 1_555
Re0 Ta0 2.323698 1_555
Re1 Ta0 2.323698 1_555
