# generated using pymatgen
data_TbNd3
_symmetry_space_group_name_H-M   'P 1'
_cell_length_a   7.45514394
_cell_length_b   7.45514807
_cell_length_c   5.83640895
_cell_angle_alpha   90.00000000
_cell_angle_beta   90.00000000
_cell_angle_gamma   119.99998709
_symmetry_Int_Tables_number   1
_chemical_formula_structural   TbNd3
_chemical_formula_sum   'Tb2 Nd6'
_cell_volume   280.92391334
_cell_formula_units_Z   2
loop_
 _symmetry_equiv_pos_site_id
 _symmetry_equiv_pos_as_xyz
  1  'x, y, z'
loop_
 _atom_site_type_symbol
 _atom_site_label
 _atom_site_symmetry_multiplicity
 _atom_site_fract_x
 _atom_site_fract_y
 _atom_site_fract_z
 _atom_site_occupancy
  Tb  Tb0  1  0.33333300  0.66666700  0.75000000  1
  Tb  Tb1  1  0.66666700  0.33333300  0.25000000  1
  Nd  Nd0  1  0.16724436  0.33448873  0.25000000  1
  Nd  Nd1  1  0.66551127  0.83275564  0.25000000  1
  Nd  Nd2  1  0.16724436  0.83275564  0.25000000  1
  Nd  Nd3  1  0.83275564  0.66551127  0.75000000  1
  Nd  Nd4  1  0.33448873  0.16724436  0.75000000  1
  Nd  Nd5  1  0.83275564  0.16724436  0.75000000  1
loop_
_geom_bond_atom_site_label_1
_geom_bond_atom_site_label_2
_geom_bond_distance
_geom_bond_site_symmetry_2
Nd0 Tb0 3.621530 1_554
Nd0 Tb0 3.621530 1_555
Nd0 Nd5 3.630383 1_454
Nd0 Nd5 3.630383 1_455
Nd0 Nd4 3.630383 1_555
Nd0 Nd4 3.630383 1_554
Nd0 Nd1 3.714653 1_555
Nd0 Nd2 3.714654 1_555
Nd0 Tb1 3.727576 1_455
Nd0 Tb1 3.727583 1_555
Nd0 Nd1 3.740494 1_445
Nd0 Nd2 3.740494 1_545
Nd1 Tb0 3.621529 1_555
Nd1 Tb0 3.621529 1_554
Nd1 Nd3 3.630383 1_554
Nd1 Nd3 3.630383 1_555
Nd1 Nd5 3.630384 1_565
Nd1 Nd5 3.630384 1_564
Nd1 Nd2 3.714652 1_555
Nd1 Tb1 3.727578 1_565
Nd1 Tb1 3.727585 1_555
Nd1 Nd2 3.740492 1_655
Nd2 Tb0 3.621525 1_554
Nd2 Tb0 3.621525 1_555
Nd2 Nd3 3.630383 1_455
Nd2 Nd3 3.630383 1_454
Nd2 Nd4 3.630384 1_564
Nd2 Nd4 3.630384 1_565
Nd2 Tb1 3.727581 1_455
Nd2 Tb1 3.727581 1_565
Nd3 Tb1 3.621530 1_555
Nd3 Tb1 3.621530 1_556
Nd3 Nd4 3.714653 1_555
Nd3 Nd5 3.714654 1_555
Nd3 Tb0 3.727576 1_655
Nd3 Tb0 3.727583 1_555
Nd3 Nd4 3.740494 1_665
Nd3 Nd5 3.740494 1_565
Nd4 Tb1 3.621529 1_555
Nd4 Tb1 3.621529 1_556
Nd4 Nd5 3.714652 1_555
Nd4 Tb0 3.727578 1_545
Nd4 Tb0 3.727585 1_555
Nd4 Nd5 3.740492 1_455
Nd5 Tb1 3.621525 1_555
Nd5 Tb1 3.621525 1_556
Nd5 Tb0 3.727581 1_655
Nd5 Tb0 3.727581 1_545
