# generated using pymatgen
data_Nb2Co4O9
_symmetry_space_group_name_H-M   'P 1'
_cell_length_a   5.20814220
_cell_length_b   5.22316856
_cell_length_c   14.32829825
_cell_angle_alpha   90.06184382
_cell_angle_beta   90.01908383
_cell_angle_gamma   60.02011402
_symmetry_Int_Tables_number   1
_chemical_formula_structural   Nb2Co4O9
_chemical_formula_sum   'Nb4 Co8 O18'
_cell_volume   337.62130325
_cell_formula_units_Z   2
loop_
 _symmetry_equiv_pos_site_id
 _symmetry_equiv_pos_as_xyz
  1  'x, y, z'
loop_
 _atom_site_type_symbol
 _atom_site_label
 _atom_site_symmetry_multiplicity
 _atom_site_fract_x
 _atom_site_fract_y
 _atom_site_fract_z
 _atom_site_occupancy
  Nb  Nb0  1  0.00050000  0.99948300  0.14294600  1
  Nb  Nb1  1  0.99980800  0.00121200  0.35902700  1
  Nb  Nb2  1  0.00095700  0.99867500  0.85867200  1
  Nb  Nb3  1  0.99951300  0.00134700  0.64276300  1
  Co  Co0  1  0.33257000  0.33352200  0.30508200  1
  Co  Co1  1  0.33305500  0.33456800  0.80580500  1
  Co  Co2  1  0.33337600  0.33341200  0.51371200  1
  Co  Co3  1  0.33586800  0.33200700  0.01129900  1
  Co  Co4  1  0.67196500  0.66487700  0.18929400  1
  Co  Co5  1  0.67370900  0.66301200  0.68922400  1
  Co  Co6  1  0.66446300  0.66756900  0.98787500  1
  Co  Co7  1  0.66763500  0.66774000  0.48680400  1
  O  O0  1  0.28955800  0.99736400  0.25069400  1
  O  O1  1  0.70855400  0.29151700  0.25035000  1
  O  O2  1  0.99760700  0.71124000  0.25049100  1
  O  O3  1  0.70903400  0.99990700  0.75063200  1
  O  O4  1  0.29043000  0.71232600  0.75015900  1
  O  O5  1  0.99721600  0.29122700  0.75058500  1
  O  O6  1  0.34351900  0.67804700  0.08432400  1
  O  O7  1  0.97790900  0.34349200  0.08423300  1
  O  O8  1  0.67694600  0.97931000  0.08443400  1
  O  O9  1  0.02169100  0.32284700  0.41675800  1
  O  O10  1  0.65631100  0.02037100  0.41644300  1
  O  O11  1  0.32101300  0.65618600  0.41675700  1
  O  O12  1  0.65544600  0.32260400  0.91604900  1
  O  O13  1  0.02215500  0.65546100  0.91663200  1
  O  O14  1  0.32282500  0.02008600  0.91651400  1
  O  O15  1  0.97592000  0.67815800  0.58470400  1
  O  O16  1  0.34191900  0.97897900  0.58407600  1
  O  O17  1  0.67852800  0.34345300  0.58366000  1
loop_
_geom_bond_atom_site_label_1
_geom_bond_atom_site_label_2
_geom_bond_distance
_geom_bond_site_symmetry_2
Nb0 O6 1.927755 1_555
Nb0 O8 1.931297 1_455
Nb0 O7 1.934432 1_465
Nb0 O0 2.152165 1_555
Nb0 O2 2.160802 1_455
Nb0 O1 2.164594 1_465
Nb1 O9 1.925554 1_655
Nb1 O10 1.925915 1_555
Nb1 O11 1.928678 1_645
Nb1 O0 2.158299 1_645
Nb1 O2 2.173652 1_545
Nb1 O1 2.174797 1_555
Nb2 O14 1.922422 1_565
Nb2 O13 1.928956 1_555
Nb2 O12 1.931802 1_465
Nb2 O4 2.161098 1_555
Nb2 O3 2.167177 1_455
Nb2 O5 2.170052 1_465
Nb3 O16 1.921838 1_645
Nb3 O17 1.929179 1_555
Nb3 O15 1.939307 1_545
Nb3 O5 2.157826 1_555
Nb3 O4 2.158716 1_645
Nb3 O3 2.165770 1_545
Co0 O1 2.017147 1_555
Co0 O2 2.027377 1_455
Co0 O0 2.032327 1_545
Co0 O9 2.297204 1_555
Co0 O11 2.301560 1_555
Co0 O10 2.304752 1_555
Co1 O3 2.022888 1_545
Co1 O5 2.032488 1_455
Co1 O4 2.035586 1_555
Co1 O12 2.282957 1_555
Co1 O13 2.288318 1_555
Co1 O14 2.304420 1_555
Co2 O17 2.081226 1_555
Co2 O16 2.089808 1_545
Co2 O15 2.095238 1_455
Co2 O9 2.157740 1_555
Co2 O11 2.161666 1_555
Co2 O10 2.166312 1_555
Co3 O8 2.092794 1_545
Co3 O6 2.105002 1_555
Co3 O7 2.112032 1_455
Co3 O12 2.134230 1_554
Co3 O13 2.146728 1_554
Co3 O14 2.146901 1_554
Co4 O2 2.028027 1_555
Co4 O1 2.058348 1_555
Co4 O0 2.073090 1_555
Co4 O7 2.223929 1_555
Co4 O8 2.236801 1_555
Co4 O6 2.252535 1_555
Co5 O5 2.028690 1_555
Co5 O3 2.055362 1_555
Co5 O4 2.073684 1_555
Co5 O15 2.202874 1_555
Co5 O17 2.242116 1_555
Co5 O16 2.265621 1_555
Co6 O14 2.080937 1_565
Co6 O12 2.094849 1_555
Co6 O13 2.097578 1_655
Co6 O6 2.148655 1_556
Co6 O8 2.161140 1_556
Co6 O7 2.162946 1_556
Co7 O10 2.075494 1_565
Co7 O9 2.080925 1_655
Co7 O11 2.092237 1_555
Co7 O15 2.152723 1_555
Co7 O16 2.168778 1_555
Co7 O17 2.169590 1_555
