# generated using pymatgen
data_Sr2LaMn2O7
_symmetry_space_group_name_H-M   'P 1'
_cell_length_a   10.49962211
_cell_length_b   10.49962211
_cell_length_c   10.49962211
_cell_angle_alpha   158.45002921
_cell_angle_beta   158.45002921
_cell_angle_gamma   30.66150011
_symmetry_Int_Tables_number   1
_chemical_formula_structural   Sr2LaMn2O7
_chemical_formula_sum   'Sr2 La1 Mn2 O7'
_cell_volume   156.06572687
_cell_formula_units_Z   1
loop_
 _symmetry_equiv_pos_site_id
 _symmetry_equiv_pos_as_xyz
  1  'x, y, z'
loop_
 _atom_site_type_symbol
 _atom_site_label
 _atom_site_symmetry_multiplicity
 _atom_site_fract_x
 _atom_site_fract_y
 _atom_site_fract_z
 _atom_site_occupancy
  Sr  Sr0  1  0.31884400  0.31884400  0.00000000  1
  Sr  Sr1  1  0.49543200  0.49543200  0.00000000  1
  La  La0  1  0.68301600  0.68301600  0.00000000  1
  Mn  Mn0  1  0.90183700  0.90183700  0.00000000  1
  Mn  Mn1  1  0.09568900  0.09568900  0.00000000  1
  O  O0  1  0.79876600  0.79876600  0.00000000  1
  O  O1  1  0.19606500  0.19606500  0.00000000  1
  O  O2  1  0.90250500  0.40250500  0.50000000  1
  O  O3  1  0.40250500  0.90250500  0.50000000  1
  O  O4  1  0.10220500  0.60220500  0.50000000  1
  O  O5  1  0.60220500  0.10220500  0.50000000  1
  O  O6  1  0.00093000  0.00093000  0.00000000  1
loop_
_geom_bond_atom_site_label_1
_geom_bond_atom_site_label_2
_geom_bond_distance
_geom_bond_site_symmetry_2
La0 O0 2.344169 1_555
La0 O4 2.555680 1_655
La0 O5 2.555680 1_565
La0 O5 2.555680 1_554
La0 O4 2.555680 1_554
La0 O1 2.788553 1_554
La0 O1 2.788553 1_565
La0 O1 2.788553 1_666
La0 O1 2.788553 1_655
Mn0 O2 1.962977 1_554
Mn0 O3 1.962977 1_554
Mn0 O2 1.962977 1_565
Mn0 O3 1.962977 1_655
Mn0 O6 2.006831 1_665
Mn0 O0 2.087394 1_555
Mn1 O6 1.919059 1_555
Mn1 O5 1.967361 1_454
Mn1 O4 1.967361 1_544
Mn1 O5 1.967361 1_555
Mn1 O4 1.967361 1_555
Mn1 O1 2.032815 1_555
O0 Sr0 2.805624 1_554
O0 Sr0 2.805624 1_565
O0 Sr0 2.805624 1_666
O0 Sr0 2.805624 1_655
O1 Sr0 2.486520 1_555
O2 Sr0 2.593021 1_555
O2 Sr0 2.593021 1_656
O2 Sr1 2.719349 1_555
O2 Sr1 2.719349 1_656
O3 Sr0 2.593021 1_566
O3 Sr0 2.593021 1_555
O3 Sr1 2.719349 1_555
O3 Sr1 2.719349 1_566
O4 Sr1 2.920432 1_455
O4 Sr1 2.920432 1_556
O5 Sr1 2.920432 1_545
O5 Sr1 2.920432 1_556
O6 Sr1 2.778234 1_455
O6 Sr1 2.778234 1_556
O6 Sr1 2.778234 1_444
O6 Sr1 2.778234 1_545
