# generated using pymatgen
data_Li4Ni3SbO8
_symmetry_space_group_name_H-M   'P 1'
_cell_length_a   5.99225196
_cell_length_b   5.96625850
_cell_length_c   10.37412344
_cell_angle_alpha   106.63368971
_cell_angle_beta   90.00838626
_cell_angle_gamma   59.89233159
_symmetry_Int_Tables_number   1
_chemical_formula_structural   Li4Ni3SbO8
_chemical_formula_sum   'Li8 Ni6 Sb2 O16'
_cell_volume   302.78526778
_cell_formula_units_Z   2
loop_
 _symmetry_equiv_pos_site_id
 _symmetry_equiv_pos_as_xyz
  1  'x, y, z'
loop_
 _atom_site_type_symbol
 _atom_site_label
 _atom_site_symmetry_multiplicity
 _atom_site_fract_x
 _atom_site_fract_y
 _atom_site_fract_z
 _atom_site_occupancy
  Li  Li0  1  0.24915700  0.49982700  0.24991800  1
  Li  Li1  1  0.74925500  0.49980300  0.74990800  1
  Li  Li2  1  0.00011200  0.49937100  0.49947500  1
  Li  Li3  1  0.50057400  0.50072300  0.00014800  1
  Li  Li4  1  0.99924200  0.50089100  0.00071400  1
  Li  Li5  1  0.50192800  0.49885000  0.49967900  1
  Li  Li6  1  0.25132700  0.49979700  0.75011200  1
  Li  Li7  1  0.75135100  0.49975900  0.25017900  1
  Ni  Ni0  1  0.74903700  0.00013800  0.24934500  1
  Ni  Ni1  1  0.74911300  0.99971000  0.75068200  1
  Ni  Ni2  1  0.00103500  0.99985600  0.49996500  1
  Ni  Ni3  1  0.24874200  0.00039800  0.74934800  1
  Ni  Ni4  1  0.24926300  0.99991300  0.25075800  1
  Ni  Ni5  1  0.50084900  0.00015800  0.99983900  1
  Sb  Sb0  1  0.00084100  0.00003500  0.99998600  1
  Sb  Sb1  1  0.50088800  0.00003300  0.50006600  1
  O  O0  1  0.60638000  0.78502700  0.12044300  1
  O  O1  1  0.10636600  0.78512600  0.62061700  1
  O  O2  1  0.89181800  0.21520300  0.37945600  1
  O  O3  1  0.39183600  0.21510200  0.87936100  1
  O  O4  1  0.37613800  0.76406400  0.38214200  1
  O  O5  1  0.87649600  0.76399200  0.88204300  1
  O  O6  1  0.85997300  0.76429700  0.38170500  1
  O  O7  1  0.36019800  0.76459900  0.88176400  1
  O  O8  1  0.61587300  0.76741300  0.62127900  1
  O  O9  1  0.11578700  0.76769500  0.12136900  1
  O  O10  1  0.12408100  0.23606400  0.11846400  1
  O  O11  1  0.62440600  0.23587300  0.61833600  1
  O  O12  1  0.64034300  0.23554100  0.11764500  1
  O  O13  1  0.14050600  0.23568800  0.61780900  1
  O  O14  1  0.88349600  0.23270100  0.87877300  1
  O  O15  1  0.38358500  0.23236600  0.37867900  1
loop_
_geom_bond_atom_site_label_1
_geom_bond_atom_site_label_2
_geom_bond_distance
_geom_bond_site_symmetry_2
Li0 O10 2.202791 1_555
Li0 O6 2.207191 1_455
Li0 O9 2.215798 1_555
Li0 O15 2.215852 1_555
Li0 O4 2.216088 1_555
Li0 O12 2.217666 1_555
Li1 O11 2.203054 1_555
Li1 O7 2.206972 1_555
Li1 O14 2.215201 1_555
Li1 O8 2.215372 1_555
Li1 O5 2.216594 1_555
Li1 O13 2.217186 1_655
Li2 O13 2.113598 1_555
Li2 O6 2.114207 1_455
Li2 O15 2.138644 1_555
Li2 O8 2.146008 1_455
Li2 O2 2.177342 1_455
Li2 O1 2.180271 1_555
Li3 O12 2.113009 1_555
Li3 O7 2.114826 1_554
Li3 O14 2.138820 1_554
Li3 O9 2.145806 1_555
Li3 O0 2.168729 1_555
Li3 O3 2.188582 1_554
Li4 O10 2.113571 1_655
Li4 O5 2.113869 1_554
Li4 O9 2.136043 1_655
Li4 O14 2.143816 1_554
Li4 O0 2.179474 1_555
Li4 O3 2.185000 1_654
Li5 O11 2.113250 1_555
Li5 O4 2.113405 1_555
Li5 O8 2.136614 1_555
Li5 O15 2.143525 1_555
Li5 O2 2.168797 1_555
Li5 O1 2.195929 1_555
Li6 O11 2.140793 1_555
Li6 O7 2.141356 1_555
Li6 O5 2.148627 1_455
Li6 O13 2.149218 1_555
Li6 O3 2.293613 1_555
Li6 O1 2.298398 1_555
Li7 O6 2.138677 1_555
Li7 O10 2.139070 1_655
Li7 O4 2.150338 1_555
Li7 O12 2.151462 1_555
Li7 O2 2.293245 1_555
Li7 O0 2.300128 1_555
Ni0 O0 2.069758 1_545
Ni0 O2 2.076025 1_555
Ni0 O9 2.098735 1_645
Ni0 O15 2.099538 1_555
Ni0 O12 2.108090 1_555
Ni0 O6 2.115350 1_545
Ni1 O3 2.067713 1_565
Ni1 O1 2.074788 1_655
Ni1 O8 2.098835 1_555
Ni1 O14 2.100416 1_565
Ni1 O5 2.106540 1_555
Ni1 O11 2.116523 1_565
Ni2 O1 1.926886 1_555
Ni2 O2 1.928148 1_465
Ni2 O13 2.089846 1_565
Ni2 O4 2.090294 1_555
Ni2 O6 2.097430 1_455
Ni2 O11 2.099230 1_465
Ni3 O1 2.068325 1_545
Ni3 O3 2.075523 1_555
Ni3 O14 2.099064 1_455
Ni3 O8 2.100651 1_545
Ni3 O13 2.106290 1_555
Ni3 O7 2.115606 1_545
Ni4 O2 2.068585 1_465
Ni4 O0 2.075274 1_555
Ni4 O15 2.097213 1_565
Ni4 O9 2.099462 1_555
Ni4 O4 2.107184 1_555
Ni4 O10 2.116078 1_565
Ni5 O3 1.926233 1_555
Ni5 O0 1.928104 1_546
Ni5 O12 2.087901 1_556
Ni5 O5 2.092514 1_545
Ni5 O7 2.094856 1_545
Ni5 O10 2.100907 1_556
O4 Sb1 2.026574 1_565
O5 Sb0 2.025226 1_665
O6 Sb1 2.022792 1_565
O7 Sb0 2.023393 1_565
O8 Sb1 2.005417 1_565
O9 Sb0 2.005705 1_564
O10 Sb0 2.022687 1_554
O11 Sb1 2.022202 1_555
O12 Sb0 2.025921 1_654
O13 Sb1 2.025762 1_555
O14 Sb0 2.005605 1_655
O15 Sb1 2.005713 1_555
