# generated using pymatgen
data_NaFeSO4F
_symmetry_space_group_name_H-M   'P 1'
_cell_length_a   6.77596200
_cell_length_b   8.79053200
_cell_length_c   7.35153319
_cell_angle_alpha   89.99997134
_cell_angle_beta   113.60226813
_cell_angle_gamma   89.99992713
_symmetry_Int_Tables_number   1
_chemical_formula_structural   NaFeSO4F
_chemical_formula_sum   'Na4 Fe4 S4 O16 F4'
_cell_volume   401.25822587
_cell_formula_units_Z   4
loop_
 _symmetry_equiv_pos_site_id
 _symmetry_equiv_pos_as_xyz
  1  'x, y, z'
loop_
 _atom_site_type_symbol
 _atom_site_label
 _atom_site_symmetry_multiplicity
 _atom_site_fract_x
 _atom_site_fract_y
 _atom_site_fract_z
 _atom_site_occupancy
  Na  Na0  1  0.50000400  0.83819300  0.75000500  1
  Na  Na1  1  0.99999800  0.33817900  0.75000900  1
  Na  Na2  1  0.49999600  0.16179700  0.25001000  1
  Na  Na3  1  0.00000200  0.66182000  0.25000800  1
  Fe  Fe0  1  0.49989500  0.50008600  0.99978300  1
  Fe  Fe1  1  0.99998100  0.99989600  0.49991000  1
  Fe  Fe2  1  0.00002400  0.99999700  0.99983000  1
  Fe  Fe3  1  0.50008600  0.50008800  0.50024500  1
  S  S0  1  0.50000100  0.18091800  0.75000800  1
  S  S1  1  0.99999200  0.68090300  0.75000700  1
  S  S2  1  0.50000100  0.81906900  0.25000800  1
  S  S3  1  0.99999300  0.31906200  0.25001000  1
  O  O0  1  0.39350400  0.27863100  0.85143200  1
  O  O1  1  0.89350600  0.77862600  0.85142400  1
  O  O2  1  0.60650100  0.27863600  0.64860700  1
  O  O3  1  0.10649700  0.77862900  0.64858200  1
  O  O4  1  0.60649500  0.72136900  0.14858300  1
  O  O5  1  0.10648900  0.22136300  0.14859000  1
  O  O6  1  0.39350400  0.72136100  0.35141500  1
  O  O7  1  0.89351800  0.22136600  0.35143600  1
  O  O8  1  0.66221600  0.08018300  0.89915800  1
  O  O9  1  0.16220300  0.58019200  0.89914700  1
  O  O10  1  0.33779100  0.08018900  0.60086300  1
  O  O11  1  0.83780300  0.58019300  0.60087000  1
  O  O12  1  0.33778600  0.91980900  0.10085900  1
  O  O13  1  0.83777800  0.41981400  0.10085600  1
  O  O14  1  0.66220700  0.91980300  0.39915600  1
  O  O15  1  0.16222300  0.41981800  0.39916500  1
  F  F0  1  0.49999700  0.58638200  0.75000700  1
  F  F1  1  0.99999700  0.08636100  0.75000100  1
  F  F2  1  0.50000400  0.41362800  0.25001700  1
  F  F3  1  0.00000500  0.91363800  0.25000100  1
loop_
_geom_bond_atom_site_label_1
_geom_bond_atom_site_label_2
_geom_bond_distance
_geom_bond_site_symmetry_2
Na0 O8 2.443442 1_565
Na0 O10 2.443465 1_565
Na0 O1 2.519444 1_555
Na0 O3 2.519468 1_555
Na0 O4 2.909986 1_556
Na0 O6 2.910083 1_555
Na1 O11 2.443564 1_555
Na1 O9 2.443576 1_655
Na1 O2 2.519386 1_555
Na1 O0 2.519431 1_655
Na1 O7 2.909932 1_555
Na1 O5 2.909981 1_656
Na2 O12 2.443419 1_545
Na2 O14 2.443454 1_545
Na2 O5 2.519473 1_555
Na2 O7 2.519570 1_555
Na2 O0 2.910016 1_554
Na2 O2 2.910146 1_555
Na3 O15 2.443555 1_555
Na3 O13 2.443585 1_455
Na3 O6 2.519409 1_555
Na3 O4 2.519437 1_455
Na3 O3 2.909910 1_555
Na3 O1 2.909965 1_454
Fe0 O0 2.206630 1_555
Fe0 O4 2.206681 1_556
Fe0 O9 2.218876 1_555
Fe0 O13 2.220248 1_556
Fe1 O3 2.206138 1_655
Fe1 O7 2.207135 1_565
Fe1 O14 2.219272 1_555
Fe1 O10 2.219934 1_665
Fe2 O1 2.206237 1_455
Fe2 O5 2.207099 1_566
Fe2 O12 2.219303 1_556
Fe2 O8 2.219784 1_465
Fe3 O2 2.206654 1_555
Fe3 O6 2.206665 1_555
Fe3 O11 2.219034 1_555
Fe3 O15 2.220118 1_555
O0 S0 1.498445 1_555
O1 S1 1.498410 1_555
O2 S0 1.498368 1_555
O3 S1 1.498554 1_455
O4 S2 1.498371 1_555
O5 S3 1.498350 1_455
O6 S2 1.498335 1_555
O7 S3 1.498269 1_555
O8 S0 1.493139 1_555
O9 S1 1.492970 1_455
O10 S0 1.493079 1_555
O11 S1 1.492891 1_555
O12 S2 1.493162 1_555
O13 S3 1.493240 1_555
O14 S2 1.493103 1_555
O15 S3 1.493312 1_455
F0 Fe3 1.986883 1_555
F0 Fe0 1.987017 1_555
F0 Na0 2.213553 1_555
F1 Fe2 1.987282 1_645
F1 Fe1 1.989429 1_545
F1 Na1 2.213614 1_555
F2 Fe0 1.990143 1_554
F2 Fe3 1.990178 1_555
F2 Na2 2.213728 1_555
F3 Fe1 1.987598 1_455
F3 Fe2 1.989704 1_554
F3 Na3 2.213614 1_555
