# generated using pymatgen
data_Ni8Bi8S
_symmetry_space_group_name_H-M   'P 1'
_cell_length_a   4.17633961
_cell_length_b   10.33763998
_cell_length_c   17.99033297
_cell_angle_alpha   90.00000000
_cell_angle_beta   90.00000000
_cell_angle_gamma   90.00000000
_symmetry_Int_Tables_number   1
_chemical_formula_structural   Ni8Bi8S
_chemical_formula_sum   'Ni16 Bi16 S2'
_cell_volume   776.70555633
_cell_formula_units_Z   2
loop_
 _symmetry_equiv_pos_site_id
 _symmetry_equiv_pos_as_xyz
  1  'x, y, z'
loop_
 _atom_site_type_symbol
 _atom_site_label
 _atom_site_symmetry_multiplicity
 _atom_site_fract_x
 _atom_site_fract_y
 _atom_site_fract_z
 _atom_site_occupancy
  Ni  Ni0  1  0.49965069  0.81669443  0.96857342  1
  Ni  Ni1  1  0.49965069  0.18330557  0.03142658  1
  Ni  Ni2  1  0.50034931  0.68330557  0.46857342  1
  Ni  Ni3  1  0.50034931  0.31669443  0.53142658  1
  Ni  Ni4  1  0.00099595  0.91122209  0.90482714  1
  Ni  Ni5  1  0.00099595  0.08877791  0.09517286  1
  Ni  Ni6  1  0.99900405  0.58877791  0.40482714  1
  Ni  Ni7  1  0.99900405  0.41122209  0.59517286  1
  Ni  Ni8  1  0.99942009  0.82926322  0.05182881  1
  Ni  Ni9  1  0.99942009  0.17073678  0.94817119  1
  Ni  Ni10  1  0.00057991  0.67073678  0.55182881  1
  Ni  Ni11  1  0.00057991  0.32926322  0.44817119  1
  Ni  Ni12  1  0.49936731  0.94272977  0.10418527  1
  Ni  Ni13  1  0.49936731  0.05727023  0.89581473  1
  Ni  Ni14  1  0.50063269  0.55727023  0.60418527  1
  Ni  Ni15  1  0.50063269  0.44272977  0.39581473  1
  Bi  Bi0  1  0.49546992  0.83483285  0.81961888  1
  Bi  Bi1  1  0.49546992  0.16516715  0.18038112  1
  Bi  Bi2  1  0.50453008  0.66516715  0.31961888  1
  Bi  Bi3  1  0.50453008  0.33483285  0.68038112  1
  Bi  Bi4  1  0.49581135  0.68379718  0.09632912  1
  Bi  Bi5  1  0.49581135  0.31620282  0.90367088  1
  Bi  Bi6  1  0.50418865  0.81620282  0.59632912  1
  Bi  Bi7  1  0.50418865  0.18379718  0.40367088  1
  Bi  Bi8  1  0.00384263  0.65881083  0.93899962  1
  Bi  Bi9  1  0.00384263  0.34118917  0.06100038  1
  Bi  Bi10  1  0.99615737  0.84118917  0.43899962  1
  Bi  Bi11  1  0.99615737  0.15881083  0.56100038  1
  Bi  Bi12  1  0.00392380  0.89831201  0.19589325  1
  Bi  Bi13  1  0.00392380  0.10168799  0.80410675  1
  Bi  Bi14  1  0.99607620  0.60168799  0.69589325  1
  Bi  Bi15  1  0.99607620  0.39831201  0.30410675  1
  S  S0  1  0.74883500  -0.00000000  0.00000000  1
  S  S1  1  0.25116500  0.50000000  0.50000000  1
loop_
_geom_bond_atom_site_label_1
_geom_bond_atom_site_label_2
_geom_bond_distance
_geom_bond_site_symmetry_2
Ni0 S0 2.234610 1_566
Ni1 S0 2.234610 1_555
Ni2 S1 2.234610 1_555
Ni3 S1 2.234610 1_555
Ni4 S0 2.209731 1_466
Ni5 S0 2.209731 1_455
Ni6 S1 2.209731 1_655
Ni7 S1 2.209731 1_655
Ni8 S0 2.253864 1_565
Ni9 S0 2.253864 1_556
Ni10 S1 2.253864 1_555
Ni11 S1 2.253864 1_555
Ni12 S0 2.224655 1_565
Ni13 S0 2.224655 1_556
Ni14 S1 2.224655 1_555
Ni15 S1 2.224655 1_555
Bi0 Ni13 2.677111 1_565
Bi0 Ni0 2.686351 1_555
Bi0 Ni4 2.690365 1_555
Bi0 Ni4 2.725955 1_655
Bi1 Ni12 2.677111 1_545
Bi1 Ni1 2.686351 1_555
Bi1 Ni5 2.690365 1_555
Bi1 Ni5 2.725955 1_655
Bi2 Ni15 2.677111 1_555
Bi2 Ni2 2.686351 1_555
Bi2 Ni6 2.690365 1_555
Bi2 Ni6 2.725955 1_455
Bi3 Ni14 2.677111 1_555
Bi3 Ni3 2.686351 1_555
Bi3 Ni7 2.690365 1_555
Bi3 Ni7 2.725955 1_455
Bi4 Ni0 2.677722 1_554
Bi4 Ni12 2.680522 1_555
Bi4 Ni8 2.683281 1_455
Bi4 Ni8 2.706637 1_555
Bi5 Ni1 2.677722 1_556
Bi5 Ni13 2.680522 1_555
Bi5 Ni9 2.683281 1_455
Bi5 Ni9 2.706637 1_555
Bi6 Ni2 2.677722 1_555
Bi6 Ni14 2.680522 1_555
Bi6 Ni10 2.683281 1_655
Bi6 Ni10 2.706637 1_555
Bi7 Ni3 2.677722 1_555
Bi7 Ni15 2.680522 1_555
Bi7 Ni11 2.683281 1_655
Bi7 Ni11 2.706637 1_555
Bi8 Ni4 2.680807 1_555
Bi8 Ni8 2.688025 1_456
Bi8 Ni0 2.689723 1_555
Bi8 Ni0 2.716770 1_455
Bi9 Ni5 2.680807 1_555
Bi9 Ni9 2.688025 1_454
Bi9 Ni1 2.689723 1_555
Bi9 Ni1 2.716770 1_455
Bi10 Ni6 2.680807 1_555
Bi10 Ni10 2.688025 1_655
Bi10 Ni2 2.689723 1_555
Bi10 Ni2 2.716770 1_655
Bi11 Ni7 2.680807 1_555
Bi11 Ni11 2.688025 1_655
Bi11 Ni3 2.689723 1_555
Bi11 Ni3 2.716770 1_655
Bi12 Ni5 2.675874 1_565
Bi12 Ni12 2.685928 1_555
Bi12 Ni8 2.688331 1_455
Bi12 Ni12 2.715356 1_455
Bi13 Ni4 2.675874 1_545
Bi13 Ni13 2.685928 1_555
Bi13 Ni9 2.688331 1_455
Bi13 Ni13 2.715356 1_455
Bi14 Ni7 2.675874 1_555
Bi14 Ni14 2.685928 1_555
Bi14 Ni10 2.688331 1_655
Bi14 Ni14 2.715356 1_655
Bi15 Ni6 2.675874 1_555
Bi15 Ni15 2.685928 1_555
Bi15 Ni11 2.688331 1_655
Bi15 Ni15 2.715356 1_655
