# generated using pymatgen
data_K2MgZn4P4(HO8)2
_symmetry_space_group_name_H-M   'P 1'
_cell_length_a   5.37779312
_cell_length_b   9.19385116
_cell_length_c   10.29439959
_cell_angle_alpha   103.71603470
_cell_angle_beta   93.85816254
_cell_angle_gamma   109.15335122
_symmetry_Int_Tables_number   1
_chemical_formula_structural   K2MgZn4P4(HO8)2
_chemical_formula_sum   'K2 Mg1 Zn4 P4 H2 O16'
_cell_volume   461.22158012
_cell_formula_units_Z   1
loop_
 _symmetry_equiv_pos_site_id
 _symmetry_equiv_pos_as_xyz
  1  'x, y, z'
loop_
 _atom_site_type_symbol
 _atom_site_label
 _atom_site_symmetry_multiplicity
 _atom_site_fract_x
 _atom_site_fract_y
 _atom_site_fract_z
 _atom_site_occupancy
  K  K0  1  0.54024097  0.68740609  0.74303279  1
  K  K1  1  0.43662628  0.29837252  0.26955361  1
  Mg  Mg0  1  0.02826284  0.55171187  0.48405025  1
  Zn  Zn0  1  0.19300189  0.63156588  0.20684377  1
  Zn  Zn1  1  0.78999893  0.36928451  0.78564486  1
  Zn  Zn2  1  0.69213754  0.91222306  0.12476959  1
  Zn  Zn3  1  0.29555111  0.09154265  0.87731969  1
  P  P0  1  0.10292600  0.75935201  0.95968425  1
  P  P1  1  0.88091491  0.24276202  0.04458473  1
  P  P2  1  0.78768488  0.77418864  0.36952735  1
  P  P3  1  0.18908039  0.22391807  0.63602413  1
  H  H0  1  0.92808067  0.91994367  0.58602536  1
  H  H1  1  0.06354473  0.08608718  0.42081352  1
  O  O0  1  0.95197412  0.41257664  0.13968355  1
  O  O1  1  0.03509460  0.58747260  0.87130883  1
  O  O2  1  0.29247179  0.78348850  0.09526354  1
  O  O3  1  0.69319927  0.22483952  0.91194813  1
  O  O4  1  0.71588254  0.12560872  0.12007486  1
  O  O5  1  0.26716926  0.87602025  0.88448962  1
  O  O6  1  0.84771465  0.79158055  0.99376204  1
  O  O7  1  0.13486199  0.20872423  0.01062253  1
  O  O8  1  0.52946843  0.63424183  0.29998606  1
  O  O9  1  0.44096270  0.36660972  0.71027695  1
  O  O10  1  0.83310803  0.92047291  0.31199281  1
  O  O11  1  0.16528941  0.07270682  0.68676270  1
  O  O12  1  0.02935201  0.71630668  0.36345554  1
  O  O13  1  0.93432322  0.26198270  0.64238664  1
  O  O14  1  0.76707667  0.82718228  0.52646545  1
  O  O15  1  0.22149920  0.17754190  0.47920288  1
loop_
_geom_bond_atom_site_label_1
_geom_bond_atom_site_label_2
_geom_bond_distance
_geom_bond_site_symmetry_2
K0 O6 2.743667 1_555
K0 O9 2.751056 1_555
K0 O5 2.836459 1_555
K0 O14 2.967464 1_555
K0 O1 3.063984 1_555
K1 O15 2.803578 1_555
K1 O4 2.804163 1_555
K1 O7 2.813596 1_555
K1 O8 2.896766 1_555
K1 O0 3.134567 1_555
Mg0 O12 2.171921 1_555
H0 O14 1.024200 1_555
H0 O11 1.622011 1_665
H1 O15 1.006370 1_555
H1 O10 1.695637 1_445
O0 P1 1.541196 1_555
O0 Zn0 1.928352 1_655
O1 P0 1.534017 1_555
O1 Zn1 1.951579 1_455
O2 P0 1.596725 1_554
O2 Zn0 1.977297 1_555
O2 Zn2 2.045741 1_555
O3 P1 1.584061 1_556
O3 Zn3 2.042681 1_555
O3 Zn1 2.044855 1_555
O4 P1 1.553770 1_555
O4 Zn2 1.936194 1_545
O5 P0 1.547245 1_555
O5 Zn3 1.956381 1_565
O6 P0 1.541721 1_655
O6 Zn2 1.949493 1_556
O7 P1 1.542090 1_455
O7 Zn3 1.964683 1_554
O8 P2 1.534037 1_555
O8 Zn0 1.979951 1_555
O9 P3 1.535977 1_555
O9 Zn1 1.972448 1_555
O10 P2 1.549487 1_555
O10 Zn2 1.997868 1_555
O11 P3 1.567964 1_555
O11 Zn3 1.985758 1_555
O12 P2 1.557287 1_455
O12 Zn0 2.006490 1_555
O13 P3 1.523014 1_655
O13 Zn1 1.927971 1_555
O14 P2 1.595626 1_555
O15 P3 1.605817 1_555
