# generated using pymatgen
data_Sc3B5O12
_symmetry_space_group_name_H-M   'P 1'
_cell_length_a   4.43985485
_cell_length_b   12.22819025
_cell_length_c   12.46197971
_cell_angle_alpha   90.00000000
_cell_angle_beta   90.00000000
_cell_angle_gamma   90.00000000
_symmetry_Int_Tables_number   1
_chemical_formula_structural   Sc3B5O12
_chemical_formula_sum   'Sc12 B20 O48'
_cell_volume   676.57819797
_cell_formula_units_Z   4
loop_
 _symmetry_equiv_pos_site_id
 _symmetry_equiv_pos_as_xyz
  1  'x, y, z'
loop_
 _atom_site_type_symbol
 _atom_site_label
 _atom_site_symmetry_multiplicity
 _atom_site_fract_x
 _atom_site_fract_y
 _atom_site_fract_z
 _atom_site_occupancy
  Sc  Sc0  1  0.00000000  0.00000000  0.63006368  1
  Sc  Sc1  1  0.00000000  0.50000000  0.86993632  1
  Sc  Sc2  1  0.00000000  0.00000000  0.36993632  1
  Sc  Sc3  1  0.00000000  0.50000000  0.13006368  1
  Sc  Sc4  1  0.98774019  0.80456305  0.86418149  1
  Sc  Sc5  1  0.01225981  0.19543695  0.86418149  1
  Sc  Sc6  1  0.98774019  0.69543695  0.63581851  1
  Sc  Sc7  1  0.01225981  0.30456305  0.63581851  1
  Sc  Sc8  1  0.01225981  0.19543695  0.13581851  1
  Sc  Sc9  1  0.98774019  0.80456305  0.13581851  1
  Sc  Sc10  1  0.01225981  0.30456305  0.36418149  1
  Sc  Sc11  1  0.98774019  0.69543695  0.36418149  1
  B  B0  1  0.50000000  0.00000000  0.83766672  1
  B  B1  1  0.50000000  0.50000000  0.66233328  1
  B  B2  1  0.50000000  0.00000000  0.16233328  1
  B  B3  1  0.50000000  0.50000000  0.33766672  1
  B  B4  1  0.45763753  0.64982399  0.79781801  1
  B  B5  1  0.54236247  0.35017601  0.79781801  1
  B  B6  1  0.45763753  0.85017601  0.70218199  1
  B  B7  1  0.54236247  0.14982399  0.70218199  1
  B  B8  1  0.54236247  0.35017601  0.20218199  1
  B  B9  1  0.45763753  0.64982399  0.20218199  1
  B  B10  1  0.54236247  0.14982399  0.29781801  1
  B  B11  1  0.45763753  0.85017601  0.29781801  1
  B  B12  1  0.46783420  0.14562280  0.50000000  1
  B  B13  1  0.53216580  0.85437720  0.50000000  1
  B  B14  1  0.46783420  0.35437720  -0.00000000  1
  B  B15  1  0.53216580  0.64562280  -0.00000000  1
  B  B16  1  0.53937754  0.63094706  0.50000000  1
  B  B17  1  0.46062246  0.36905294  0.50000000  1
  B  B18  1  0.53937754  0.86905294  -0.00000000  1
  B  B19  1  0.46062246  0.13094706  -0.00000000  1
  O  O0  1  0.23912359  0.06385429  0.50000000  1
  O  O1  1  0.76087641  0.93614571  0.50000000  1
  O  O2  1  0.23912359  0.43614571  -0.00000000  1
  O  O3  1  0.76087641  0.56385429  -0.00000000  1
  O  O4  1  0.22533930  0.64506660  0.50000000  1
  O  O5  1  0.77466070  0.35493340  0.50000000  1
  O  O6  1  0.22533930  0.85493340  -0.00000000  1
  O  O7  1  0.77466070  0.14506660  -0.00000000  1
  O  O8  1  0.77915018  0.65298651  0.79635743  1
  O  O9  1  0.22084982  0.34701349  0.79635743  1
  O  O10  1  0.77915018  0.84701349  0.70364257  1
  O  O11  1  0.22084982  0.15298651  0.70364257  1
  O  O12  1  0.22084982  0.34701349  0.20364257  1
  O  O13  1  0.77915018  0.65298651  0.20364257  1
  O  O14  1  0.22084982  0.15298651  0.29635743  1
  O  O15  1  0.77915018  0.84701349  0.29635743  1
  O  O16  1  0.32828459  0.64220417  0.90554368  1
  O  O17  1  0.67171541  0.35779583  0.90554368  1
  O  O18  1  0.32828459  0.85779583  0.59445632  1
  O  O19  1  0.67171541  0.14220417  0.59445632  1
  O  O20  1  0.67171541  0.35779583  0.09445632  1
  O  O21  1  0.32828459  0.64220417  0.09445632  1
  O  O22  1  0.67171541  0.14220417  0.40554368  1
  O  O23  1  0.32828459  0.85779583  0.40554368  1
  O  O24  1  0.33477322  0.07813646  0.90333297  1
  O  O25  1  0.66522678  0.92186354  0.90333297  1
  O  O26  1  0.33477322  0.42186354  0.59666703  1
  O  O27  1  0.66522678  0.57813646  0.59666703  1
  O  O28  1  0.66522678  0.92186354  0.09666703  1
  O  O29  1  0.33477322  0.07813646  0.09666703  1
  O  O30  1  0.66522678  0.57813646  0.40333297  1
  O  O31  1  0.33477322  0.42186354  0.40333297  1
  O  O32  1  0.32197932  0.75000000  0.75000000  1
  O  O33  1  0.67802068  0.25000000  0.75000000  1
  O  O34  1  0.67802068  0.25000000  0.25000000  1
  O  O35  1  0.32197932  0.75000000  0.25000000  1
  O  O36  1  0.69998486  0.75725462  -0.00000000  1
  O  O37  1  0.30001514  0.24274538  -0.00000000  1
  O  O38  1  0.69998486  0.74274538  0.50000000  1
  O  O39  1  0.30001514  0.25725462  0.50000000  1
  O  O40  1  0.29660857  0.93741677  0.76687130  1
  O  O41  1  0.70339143  0.06258323  0.76687130  1
  O  O42  1  0.29660857  0.56258323  0.73312870  1
  O  O43  1  0.70339143  0.43741677  0.73312870  1
  O  O44  1  0.70339143  0.06258323  0.23312870  1
  O  O45  1  0.29660857  0.93741677  0.23312870  1
  O  O46  1  0.70339143  0.43741677  0.26687130  1
  O  O47  1  0.29660857  0.56258323  0.26687130  1
loop_
_geom_bond_atom_site_label_1
_geom_bond_atom_site_label_2
_geom_bond_distance
_geom_bond_site_symmetry_2
B0 O25 1.456272 1_545
B0 O24 1.456272 1_555
B0 O40 1.476306 1_545
B0 O41 1.476306 1_555
B1 O27 1.456272 1_555
B1 O26 1.456272 1_555
B1 O42 1.476306 1_555
B1 O43 1.476306 1_555
B2 O28 1.456272 1_545
B2 O29 1.456272 1_555
B2 O45 1.476306 1_545
B2 O44 1.476306 1_555
B3 O30 1.456272 1_555
B3 O31 1.456272 1_555
B3 O47 1.476306 1_555
B3 O46 1.476306 1_555
B4 O8 1.428109 1_555
B4 O16 1.463131 1_555
B4 O32 1.489439 1_555
B4 O42 1.516275 1_555
B5 O9 1.428109 1_555
B5 O17 1.463131 1_555
B5 O33 1.489439 1_555
B5 O43 1.516275 1_555
B6 O10 1.428109 1_555
B6 O18 1.463131 1_555
B6 O32 1.489439 1_555
B6 O40 1.516275 1_555
B7 O11 1.428109 1_555
B7 O19 1.463131 1_555
B7 O33 1.489439 1_555
B7 O41 1.516275 1_555
B8 O12 1.428109 1_555
B8 O20 1.463131 1_555
B8 O34 1.489439 1_555
B8 O46 1.516275 1_555
B9 O13 1.428109 1_555
B9 O21 1.463131 1_555
B9 O35 1.489439 1_555
B9 O47 1.516275 1_555
B10 O14 1.428109 1_555
B10 O22 1.463131 1_555
B10 O34 1.489439 1_555
B10 O44 1.516275 1_555
B11 O15 1.428109 1_555
B11 O23 1.463131 1_555
B11 O35 1.489439 1_555
B11 O45 1.516275 1_555
B12 O0 1.425091 1_555
B12 O22 1.485508 1_555
B12 O19 1.485508 1_555
B12 O39 1.555165 1_555
B13 O1 1.425091 1_555
B13 O23 1.485508 1_555
B13 O18 1.485508 1_555
B13 O38 1.555165 1_555
B14 O2 1.425091 1_555
B14 O20 1.485508 1_555
B14 O17 1.485508 1_554
B14 O37 1.555165 1_555
B15 O3 1.425091 1_555
B15 O21 1.485508 1_555
B15 O16 1.485508 1_554
B15 O36 1.555165 1_555
B16 O4 1.404934 1_555
B16 O30 1.476633 1_555
B16 O27 1.476633 1_555
B16 O38 1.541886 1_555
B17 O5 1.404934 1_555
B17 O31 1.476633 1_555
B17 O26 1.476633 1_555
B17 O39 1.541886 1_555
B18 O6 1.404934 1_555
B18 O25 1.476633 1_554
B18 O28 1.476633 1_555
B18 O36 1.541886 1_555
B19 O7 1.404934 1_555
B19 O24 1.476633 1_554
B19 O29 1.476633 1_555
B19 O37 1.541886 1_555
O0 Sc2 2.089017 1_555
O0 Sc0 2.089017 1_555
O1 Sc0 2.089017 1_665
O1 Sc2 2.089017 1_665
O2 Sc1 2.089017 1_554
O2 Sc3 2.089017 1_555
O3 Sc3 2.089017 1_655
O3 Sc1 2.089017 1_654
O4 Sc6 2.087341 1_455
O4 Sc11 2.087341 1_455
O5 Sc7 2.087341 1_655
O5 Sc10 2.087341 1_655
O6 Sc9 2.087341 1_455
O6 Sc4 2.087341 1_454
O7 Sc5 2.087341 1_654
O7 Sc8 2.087341 1_655
O8 Sc4 2.237759 1_555
O8 Sc6 2.264877 1_555
O8 Sc1 2.302593 1_655
O9 Sc5 2.237759 1_555
O9 Sc7 2.264877 1_555
O9 Sc1 2.302593 1_555
O10 Sc6 2.237759 1_555
O10 Sc4 2.264877 1_555
O10 Sc0 2.302593 1_665
O11 Sc7 2.237759 1_555
O11 Sc5 2.264877 1_555
O11 Sc0 2.302593 1_555
O12 Sc8 2.237759 1_555
O12 Sc10 2.264877 1_555
O12 Sc3 2.302593 1_555
O13 Sc9 2.237759 1_555
O13 Sc11 2.264877 1_555
O13 Sc3 2.302593 1_655
O14 Sc10 2.237759 1_555
O14 Sc8 2.264877 1_555
O14 Sc2 2.302593 1_555
O15 Sc11 2.237759 1_555
O15 Sc9 2.264877 1_555
O15 Sc2 2.302593 1_665
O16 Sc1 2.311944 1_555
O16 Sc4 2.548210 1_455
O17 Sc1 2.311944 1_655
O17 Sc5 2.548210 1_655
O18 Sc0 2.311944 1_565
O18 Sc6 2.548210 1_455
O19 Sc0 2.311944 1_655
O19 Sc7 2.548210 1_655
O20 Sc3 2.311944 1_655
O20 Sc8 2.548210 1_655
O21 Sc3 2.311944 1_555
O21 Sc9 2.548210 1_455
O22 Sc2 2.311944 1_655
O22 Sc10 2.548210 1_655
O23 Sc2 2.311944 1_565
O23 Sc11 2.548210 1_455
O24 Sc5 2.084670 1_555
O25 Sc4 2.084670 1_555
O26 Sc7 2.084670 1_555
O27 Sc6 2.084670 1_555
O28 Sc9 2.084670 1_555
O29 Sc8 2.084670 1_555
O30 Sc11 2.084670 1_555
O31 Sc10 2.084670 1_555
O32 Sc4 2.161496 1_455
O32 Sc6 2.161496 1_455
O33 Sc7 2.161496 1_655
O33 Sc5 2.161496 1_655
O34 Sc10 2.161496 1_655
O34 Sc8 2.161496 1_655
O35 Sc9 2.161496 1_455
O35 Sc11 2.161496 1_455
O36 Sc9 2.198109 1_555
O36 Sc4 2.198109 1_554
O37 Sc8 2.198109 1_555
O37 Sc5 2.198109 1_554
O38 Sc11 2.198109 1_555
O38 Sc6 2.198109 1_555
O39 Sc10 2.198109 1_555
O39 Sc7 2.198109 1_555
O40 Sc0 2.286162 1_565
O40 Sc4 2.447515 1_455
O41 Sc0 2.286162 1_655
O41 Sc5 2.447515 1_655
O42 Sc1 2.286162 1_555
O42 Sc6 2.447515 1_455
O43 Sc1 2.286162 1_655
O43 Sc7 2.447515 1_655
O44 Sc2 2.286162 1_655
O44 Sc8 2.447515 1_655
O45 Sc2 2.286162 1_565
O45 Sc9 2.447515 1_455
O46 Sc3 2.286162 1_655
O46 Sc10 2.447515 1_655
O47 Sc3 2.286162 1_555
O47 Sc11 2.447515 1_455
