# generated using pymatgen
data_La15(NiO4)8
_symmetry_space_group_name_H-M   'P 1'
_cell_length_a   11.71805940
_cell_length_b   11.71805940
_cell_length_c   6.91440469
_cell_angle_alpha   77.24998167
_cell_angle_beta   77.24998167
_cell_angle_gamma   55.60084732
_symmetry_Int_Tables_number   1
_chemical_formula_structural   La15(NiO4)8
_chemical_formula_sum   'La15 Ni8 O32'
_cell_volume   758.62704385
_cell_formula_units_Z   1
loop_
 _symmetry_equiv_pos_site_id
 _symmetry_equiv_pos_as_xyz
  1  'x, y, z'
loop_
 _atom_site_type_symbol
 _atom_site_label
 _atom_site_symmetry_multiplicity
 _atom_site_fract_x
 _atom_site_fract_y
 _atom_site_fract_z
 _atom_site_occupancy
  La  La0  1  0.84472900  0.84472900  0.05835300  1
  La  La1  1  0.46400800  0.96633200  0.29177200  1
  La  La2  1  0.21038500  0.71843500  0.78735700  1
  La  La3  1  0.27580400  0.78648300  0.21104700  1
  La  La4  1  0.02938700  0.54721900  0.70235600  1
  La  La5  1  0.59084600  0.59084600  0.54152800  1
  La  La6  1  0.66096400  0.66096400  0.96129700  1
  La  La7  1  0.96633200  0.46400800  0.29177200  1
  La  La8  1  0.41006700  0.41006700  0.46230900  1
  La  La9  1  0.34095400  0.34095400  0.04061100  1
  La  La10  1  0.78648300  0.27580400  0.21104700  1
  La  La11  1  0.71843500  0.21038500  0.78735700  1
  La  La12  1  0.08617200  0.08617200  0.54525900  1
  La  La13  1  0.54721900  0.02938700  0.70235600  1
  La  La14  1  0.16068600  0.16068600  0.95769900  1
  Ni  Ni0  1  0.37601100  0.87591300  0.75492800  1
  Ni  Ni1  1  0.75279200  0.75279200  0.50818800  1
  Ni  Ni2  1  0.50007200  0.50007200  0.00059900  1
  Ni  Ni3  1  0.12517700  0.62824100  0.26060600  1
  Ni  Ni4  1  0.25068400  0.25068400  0.50318000  1
  Ni  Ni5  1  0.00055100  0.00055100  0.00824200  1
  Ni  Ni6  1  0.87591300  0.37601100  0.75492800  1
  Ni  Ni7  1  0.62824100  0.12517700  0.26060600  1
  O  O0  1  0.96336400  0.96336400  0.75938100  1
  O  O1  1  0.07063400  0.80622200  0.10999000  1
  O  O2  1  0.42021900  0.91880700  0.01281700  1
  O  O3  1  0.67586900  0.93872300  0.36426200  1
  O  O4  1  0.70065700  0.70065700  0.24616500  1
  O  O5  1  0.78192300  0.78192300  0.79462300  1
  O  O6  1  0.32575200  0.83214100  0.48563000  1
  O  O7  1  0.93872300  0.67586900  0.36426200  1
  O  O8  1  0.31117800  0.56252100  0.12318500  1
  O  O9  1  0.19041200  0.64660900  0.51401800  1
  O  O10  1  0.18963000  0.93849100  0.87581500  1
  O  O11  1  0.56104300  0.81171300  0.62346800  1
  O  O12  1  0.08314100  0.58020300  0.97740600  1
  O  O13  1  0.56252100  0.31117800  0.12318500  1
  O  O14  1  0.45655700  0.45655700  0.74156500  1
  O  O15  1  0.91880700  0.42021900  0.01281700  1
  O  O16  1  0.81171300  0.56104300  0.62346800  1
  O  O17  1  0.54274300  0.54274300  0.26783900  1
  O  O18  1  0.43528900  0.68902400  0.87507400  1
  O  O19  1  0.18677300  0.43790900  0.37080600  1
  O  O20  1  0.06111100  0.31326200  0.62318800  1
  O  O21  1  0.64660900  0.19041200  0.51401800  1
  O  O22  1  0.83214100  0.32575200  0.48563000  1
  O  O23  1  0.29480900  0.29480900  0.76220700  1
  O  O24  1  0.68902400  0.43528900  0.87507400  1
  O  O25  1  0.20869500  0.20869500  0.23152000  1
  O  O26  1  0.43790900  0.18677300  0.37080600  1
  O  O27  1  0.80622200  0.07063400  0.10999000  1
  O  O28  1  0.93849100  0.18963000  0.87581500  1
  O  O29  1  0.05575900  0.05575900  0.23971400  1
  O  O30  1  0.31326200  0.06111100  0.62318800  1
  O  O31  1  0.58020300  0.08314100  0.97740600  1
loop_
_geom_bond_atom_site_label_1
_geom_bond_atom_site_label_2
_geom_bond_distance
_geom_bond_site_symmetry_2
La0 O5 2.491051 1_554
La0 O7 2.514126 1_555
La0 O3 2.514126 1_555
La0 O1 2.516943 1_655
La0 O27 2.516943 1_565
La0 O0 2.790200 1_554
La0 O31 2.831486 1_564
La0 O12 2.831486 1_654
La0 O4 2.944784 1_555
La1 O2 2.351084 1_555
La1 O3 2.467660 1_555
La1 O26 2.592578 1_565
La1 O30 2.593247 1_565
La1 O11 2.612434 1_555
La1 O25 2.759963 1_565
La1 O4 2.788198 1_555
La1 O6 2.807779 1_555
La1 O31 2.817518 1_564
La2 O9 2.335625 1_555
La2 O1 2.492687 1_556
La2 O10 2.646594 1_555
La2 O18 2.649371 1_555
La2 O8 2.650405 1_556
La2 O0 2.696041 1_455
La2 O12 2.738324 1_555
La2 O6 2.742039 1_555
La2 O14 2.803929 1_555
La3 O6 2.350765 1_555
La3 O1 2.522645 1_555
La3 O10 2.596855 1_554
La3 O8 2.606105 1_555
La3 O18 2.652659 1_554
La3 O9 2.736518 1_555
La3 O29 2.738937 1_565
La3 O17 2.837020 1_555
La3 O2 2.854765 1_555
La4 O12 2.300288 1_555
La4 O7 2.568522 1_455
La4 O16 2.634043 1_455
La4 O19 2.656721 1_555
La4 O5 2.706740 1_455
La4 O9 2.709556 1_555
La4 O20 2.715663 1_555
La4 O15 2.836001 1_456
La4 O23 2.868202 1_555
La5 O17 2.348892 1_555
La5 O16 2.584572 1_555
La5 O11 2.584572 1_555
La5 O24 2.628909 1_555
La5 O18 2.628909 1_555
La5 O4 2.652049 1_555
La5 O14 2.782456 1_555
La5 O6 2.813722 1_555
La5 O22 2.813722 1_555
La6 O4 2.316374 1_556
La6 O5 2.484797 1_555
La6 O16 2.645120 1_555
La6 O11 2.645120 1_555
La6 O18 2.661516 1_555
La6 O24 2.661516 1_555
La6 O2 2.759504 1_556
La6 O15 2.759504 1_556
La6 O17 2.811949 1_556
La7 O15 2.351084 1_555
La7 O7 2.467660 1_555
La7 O19 2.592578 1_655
La7 O20 2.593247 1_655
La7 O16 2.612434 1_555
La7 O25 2.759963 1_655
La7 O4 2.788198 1_555
La7 O22 2.807779 1_555
La7 O12 2.817518 1_654
La8 O14 2.363434 1_555
La8 O9 2.530976 1_555
La8 O21 2.530976 1_555
La8 O26 2.651081 1_555
La8 O19 2.651081 1_555
La8 O8 2.654018 1_555
La8 O13 2.654018 1_555
La8 O17 2.743702 1_555
La8 O23 2.745332 1_555
La9 O23 2.353650 1_554
La9 O8 2.594509 1_555
La9 O13 2.594509 1_555
La9 O26 2.602390 1_555
La9 O19 2.602390 1_555
La9 O25 2.730256 1_555
La9 O14 2.747058 1_554
La9 O31 2.765800 1_554
La9 O12 2.765800 1_554
La10 O22 2.350765 1_555
La10 O27 2.522645 1_555
La10 O28 2.596855 1_554
La10 O13 2.606105 1_555
La10 O24 2.652659 1_554
La10 O21 2.736518 1_555
La10 O29 2.738937 1_655
La10 O17 2.837020 1_555
La10 O15 2.854765 1_555
La11 O21 2.335625 1_555
La11 O27 2.492687 1_556
La11 O28 2.646594 1_555
La11 O24 2.649371 1_555
La11 O13 2.650405 1_556
La11 O0 2.696041 1_545
La11 O31 2.738324 1_555
La11 O22 2.742039 1_555
La11 O14 2.803929 1_555
La12 O29 2.350644 1_555
La12 O0 2.606321 1_445
La12 O28 2.606747 1_455
La12 O10 2.606747 1_545
La12 O30 2.671678 1_555
La12 O20 2.671678 1_555
La12 O6 2.738759 1_545
La12 O22 2.738759 1_455
La12 O25 2.899690 1_555
La13 O31 2.300288 1_555
La13 O3 2.568522 1_545
La13 O11 2.634043 1_545
La13 O26 2.656721 1_555
La13 O5 2.706740 1_545
La13 O21 2.709556 1_555
La13 O30 2.715663 1_555
La13 O2 2.836001 1_546
La13 O23 2.868202 1_555
La14 O25 2.348506 1_556
La14 O29 2.533284 1_556
La14 O10 2.604406 1_545
La14 O28 2.604406 1_455
La14 O30 2.629929 1_555
La14 O20 2.629929 1_555
La14 O23 2.771812 1_555
La14 O15 2.779016 1_456
La14 O2 2.779016 1_546
Ni0 O10 1.913510 1_555
Ni0 O11 1.918906 1_555
Ni0 O30 1.923560 1_565
Ni0 O18 1.923921 1_555
Ni0 O2 2.190471 1_556
Ni0 O6 2.307390 1_555
Ni1 O7 1.941566 1_555
Ni1 O3 1.941566 1_555
Ni1 O16 1.964742 1_555
Ni1 O11 1.964742 1_555
Ni1 O5 2.209985 1_555
Ni1 O4 2.329728 1_555
Ni2 O13 1.941353 1_555
Ni2 O8 1.941353 1_555
Ni2 O24 1.943050 1_554
Ni2 O18 1.943050 1_554
Ni2 O14 2.197263 1_554
Ni2 O17 2.238879 1_555
Ni3 O1 1.916167 1_555
Ni3 O7 1.925206 1_455
Ni3 O19 1.936387 1_555
Ni3 O8 1.938749 1_555
Ni3 O9 2.155098 1_555
Ni3 O12 2.370544 1_554
Ni4 O19 1.942059 1_555
Ni4 O26 1.942059 1_555
Ni4 O20 1.943033 1_555
Ni4 O30 1.943033 1_555
Ni4 O23 2.205005 1_555
Ni4 O25 2.258734 1_555
Ni5 O1 1.946713 1_545
Ni5 O27 1.946713 1_455
Ni5 O10 1.963207 1_544
Ni5 O28 1.963207 1_454
Ni5 O0 2.053573 1_444
Ni5 O29 2.187589 1_555
Ni6 O28 1.913510 1_555
Ni6 O16 1.918906 1_555
Ni6 O20 1.923560 1_655
Ni6 O24 1.923921 1_555
Ni6 O15 2.190471 1_556
Ni6 O22 2.307390 1_555
Ni7 O27 1.916167 1_555
Ni7 O3 1.925206 1_545
Ni7 O26 1.936387 1_555
Ni7 O13 1.938749 1_555
Ni7 O21 2.155098 1_555
Ni7 O31 2.370544 1_554
