# generated using pymatgen
data_LiV3(O2F)2
_symmetry_space_group_name_H-M   'P 1'
_cell_length_a   5.17535800
_cell_length_b   5.17852474
_cell_length_c   5.52691686
_cell_angle_alpha   116.11991419
_cell_angle_beta   91.97050343
_cell_angle_gamma   119.00328136
_symmetry_Int_Tables_number   1
_chemical_formula_structural   LiV3(O2F)2
_chemical_formula_sum   'Li1 V3 O4 F2'
_cell_volume   110.37355405
_cell_formula_units_Z   1
loop_
 _symmetry_equiv_pos_site_id
 _symmetry_equiv_pos_as_xyz
  1  'x, y, z'
loop_
 _atom_site_type_symbol
 _atom_site_label
 _atom_site_symmetry_multiplicity
 _atom_site_fract_x
 _atom_site_fract_y
 _atom_site_fract_z
 _atom_site_occupancy
  Li  Li0  1  0.70749000  0.83057900  0.40034800  1
  V  V0  1  0.28505400  0.16250200  0.57723500  1
  V  V1  1  0.34358900  0.66852900  0.01043700  1
  V  V2  1  0.71751800  0.37486700  0.93798400  1
  O  O0  1  0.79704500  0.06384100  0.79239800  1
  O  O1  1  0.46624000  0.50744800  0.24717500  1
  O  O2  1  0.17694400  0.76213000  0.76893500  1
  O  O3  1  0.49585700  0.44259900  0.74950800  1
  F  F0  1  0.81890000  0.26088700  0.25345400  1
  F  F1  1  0.19136700  0.92661900  0.26252500  1
loop_
_geom_bond_atom_site_label_1
_geom_bond_atom_site_label_2
_geom_bond_distance
_geom_bond_site_symmetry_2
Li0 O1 1.315157 1_555
Li0 O0 1.858086 1_565
Li0 V1 2.343316 1_555
O0 V2 1.713343 1_555
O0 V1 2.666909 1_656
O1 V1 2.056236 1_555
O1 V2 2.251310 1_554
O2 V1 1.912129 1_556
O3 V0 1.174189 1_555
O3 V2 1.775917 1_555
O3 V1 1.885790 1_556
F0 V2 2.192560 1_554
F0 V1 2.468317 1_545
F0 Li0 2.517218 1_545
F1 V0 1.499838 1_565
F1 V1 1.950650 1_555
F1 V2 2.405273 1_454
