# generated using pymatgen
data_Sr4LiSm2Ta2O12
_symmetry_space_group_name_H-M   'P 1'
_cell_length_a   5.84554651
_cell_length_b   6.17524284
_cell_length_c   8.42701620
_cell_angle_alpha   91.01627981
_cell_angle_beta   89.44749072
_cell_angle_gamma   90.68667953
_symmetry_Int_Tables_number   1
_chemical_formula_structural   Sr4LiSm2Ta2O12
_chemical_formula_sum   'Sr4 Li1 Sm2 Ta2 O12'
_cell_volume   304.11241941
_cell_formula_units_Z   1
loop_
 _symmetry_equiv_pos_site_id
 _symmetry_equiv_pos_as_xyz
  1  'x, y, z'
loop_
 _atom_site_type_symbol
 _atom_site_label
 _atom_site_symmetry_multiplicity
 _atom_site_fract_x
 _atom_site_fract_y
 _atom_site_fract_z
 _atom_site_occupancy
  Sr  Sr0  1  0.02875000  0.40393800  0.27773000  1
  Sr  Sr1  1  0.98594400  0.55087200  0.74928100  1
  Sr  Sr2  1  0.46061600  0.95555000  0.24937000  1
  Sr  Sr3  1  0.51373300  0.05329000  0.74951400  1
  Li  Li0  1  0.85014800  0.73319100  0.16090400  1
  Sm  Sm0  1  0.99791500  0.98662100  0.50228300  1
  Sm  Sm1  1  0.48375100  0.50651500  0.99897800  1
  Ta  Ta0  1  0.99748400  0.01986000  0.98823900  1
  Ta  Ta1  1  0.50909200  0.50176900  0.50189400  1
  O  O0  1  0.90491000  0.02101500  0.23121300  1
  O  O1  1  0.09542900  0.96994700  0.76655800  1
  O  O2  1  0.61744800  0.55365900  0.26521300  1
  O  O3  1  0.41260000  0.46742000  0.73122300  1
  O  O4  1  0.16083800  0.72325900  0.05593300  1
  O  O5  1  0.80756400  0.27435400  0.94497500  1
  O  O6  1  0.31935700  0.22716000  0.44797000  1
  O  O7  1  0.69213900  0.76805300  0.56329900  1
  O  O8  1  0.27614300  0.19241000  0.04699200  1
  O  O9  1  0.71531700  0.81463800  0.96164700  1
  O  O10  1  0.23070000  0.68688700  0.45632100  1
  O  O11  1  0.78387200  0.30834300  0.53796300  1
loop_
_geom_bond_atom_site_label_1
_geom_bond_atom_site_label_2
_geom_bond_distance
_geom_bond_site_symmetry_2
Li0 O0 1.888194 1_565
Li0 O9 1.938727 1_554
Li0 O2 1.956386 1_555
Li0 O4 2.013563 1_655
Li0 Sr0 2.516923 1_655
O0 Ta0 2.112709 1_554
O0 Sm0 2.367000 1_545
O0 Sr0 2.490142 1_655
O0 Sr2 2.627041 1_545
O1 Ta0 1.968709 1_465
O1 Sm0 2.308528 1_455
O1 Sr3 2.496051 1_565
O1 Sr1 2.660208 1_455
O2 Ta1 2.115515 1_555
O2 Sm1 2.394646 1_554
O2 Sr0 2.590012 1_655
O2 Sr2 2.661981 1_555
O3 Ta1 2.022023 1_555
O3 Sm1 2.306268 1_555
O3 Sr1 2.555319 1_455
O3 Sr3 2.639182 1_555
O4 Ta0 2.163662 1_464
O4 Sm1 2.367518 1_554
O4 Sr2 2.774446 1_555
O4 Sr0 2.836267 1_555
O4 Sr1 2.963714 1_454
O5 Ta0 1.976157 1_555
O5 Sm1 2.422948 1_555
O5 Sr1 2.597441 1_555
O5 Sr3 2.728632 1_555
O5 Sr0 3.184454 1_656
O6 Ta1 2.061449 1_555
O6 Sm0 2.426345 1_445
O6 Sr2 2.490574 1_545
O6 Sr0 2.506510 1_555
O6 Sr3 3.013771 1_555
O7 Ta1 2.013692 1_555
O7 Sm0 2.286934 1_555
O7 Sr3 2.562631 1_565
O7 Sr1 2.717782 1_555
O8 Ta0 1.997275 1_454
O8 Sm1 2.315336 1_554
O8 Sr2 2.524385 1_545
O8 Sr0 2.734843 1_555
O8 Sr3 2.972592 1_554
O9 Ta0 2.079374 1_565
O9 Sm1 2.345840 1_555
O9 Sr3 2.632838 1_565
O9 Sr1 2.874392 1_555
O9 Sr2 2.956250 1_556
O10 Ta1 2.043226 1_555
O10 Sm0 2.335036 1_455
O10 Sr0 2.569653 1_555
O10 Sr2 2.757576 1_555
O10 Sr1 2.970517 1_455
O11 Ta1 2.041419 1_555
O11 Sm0 2.373618 1_545
O11 Sr1 2.590956 1_555
O11 Sr0 2.678029 1_655
O11 Sr3 2.852741 1_555
