# generated using pymatgen
data_ThTeAs
_symmetry_space_group_name_H-M   'P 1'
_cell_length_a   4.32078964
_cell_length_b   4.32078964
_cell_length_c   8.90231738
_cell_angle_alpha   90.00000000
_cell_angle_beta   90.00000000
_cell_angle_gamma   90.00000000
_symmetry_Int_Tables_number   1
_chemical_formula_structural   ThTeAs
_chemical_formula_sum   'Th2 Te2 As2'
_cell_volume   166.19934939
_cell_formula_units_Z   2
loop_
 _symmetry_equiv_pos_site_id
 _symmetry_equiv_pos_as_xyz
  1  'x, y, z'
loop_
 _atom_site_type_symbol
 _atom_site_label
 _atom_site_symmetry_multiplicity
 _atom_site_fract_x
 _atom_site_fract_y
 _atom_site_fract_z
 _atom_site_occupancy
  Th  Th0  1  0.75000000  0.75000000  0.75956127  1
  Th  Th1  1  0.25000000  0.25000000  0.24043873  1
  Te  Te0  1  0.75000000  0.75000000  0.37145451  1
  Te  Te1  1  0.25000000  0.25000000  0.62854549  1
  As  As0  1  0.75000000  0.25000000  0.00000000  1
  As  As1  1  0.25000000  0.75000000  0.00000000  1
loop_
_geom_bond_atom_site_label_1
_geom_bond_atom_site_label_2
_geom_bond_distance
_geom_bond_site_symmetry_2
Te0 Th1 3.270317 1_565
Te0 Th1 3.270317 1_555
Te0 Th1 3.270317 1_655
Te0 Th1 3.270317 1_665
Te0 Th0 3.455050 1_555
Te1 Th0 3.270317 1_455
Te1 Th0 3.270317 1_445
Te1 Th0 3.270317 1_555
Te1 Th0 3.270317 1_545
Te1 Th1 3.455050 1_555
As0 Th1 3.041198 1_555
As0 Th1 3.041198 1_655
As0 Th0 3.041198 1_554
As0 Th0 3.041198 1_544
As1 Th1 3.041198 1_565
As1 Th1 3.041198 1_555
As1 Th0 3.041198 1_454
As1 Th0 3.041198 1_554
