# generated using pymatgen
data_Tb2S3
_symmetry_space_group_name_H-M   'P 1'
_cell_length_a   3.89965659
_cell_length_b   7.32802302
_cell_length_c   15.22144391
_cell_angle_alpha   90.00000000
_cell_angle_beta   90.00000000
_cell_angle_gamma   90.00000000
_symmetry_Int_Tables_number   1
_chemical_formula_structural   Tb2S3
_chemical_formula_sum   'Tb8 S12'
_cell_volume   434.97975133
_cell_formula_units_Z   4
loop_
 _symmetry_equiv_pos_site_id
 _symmetry_equiv_pos_as_xyz
  1  'x, y, z'
loop_
 _atom_site_type_symbol
 _atom_site_label
 _atom_site_symmetry_multiplicity
 _atom_site_fract_x
 _atom_site_fract_y
 _atom_site_fract_z
 _atom_site_occupancy
  Tb  Tb0  1  0.75000000  0.73374485  0.04316646  1
  Tb  Tb1  1  0.75000000  0.23374485  0.45683354  1
  Tb  Tb2  1  0.25000000  0.26625515  0.95683354  1
  Tb  Tb3  1  0.25000000  0.76625515  0.54316646  1
  Tb  Tb4  1  0.75000000  0.35783868  0.70430552  1
  Tb  Tb5  1  0.75000000  0.85783868  0.79569448  1
  Tb  Tb6  1  0.25000000  0.64216132  0.29569448  1
  Tb  Tb7  1  0.25000000  0.14216132  0.20430552  1
  S  S0  1  0.75000000  0.48961185  0.89218369  1
  S  S1  1  0.75000000  0.98961185  0.60781631  1
  S  S2  1  0.25000000  0.51038815  0.10781631  1
  S  S3  1  0.25000000  0.01038815  0.39218369  1
  S  S4  1  0.75000000  0.35006981  0.28161633  1
  S  S5  1  0.75000000  0.85006981  0.21838367  1
  S  S6  1  0.25000000  0.64993019  0.71838367  1
  S  S7  1  0.25000000  0.14993019  0.78161633  1
  S  S8  1  0.75000000  0.12415969  0.06744411  1
  S  S9  1  0.75000000  0.62415969  0.43255589  1
  S  S10  1  0.25000000  0.87584031  0.93255589  1
  S  S11  1  0.25000000  0.37584031  0.56744411  1
loop_
_geom_bond_atom_site_label_1
_geom_bond_atom_site_label_2
_geom_bond_distance
_geom_bond_site_symmetry_2
S0 Tb2 2.729323 1_555
S0 Tb2 2.729323 1_655
S0 Tb0 2.912418 1_556
S0 Tb4 3.018407 1_555
S0 Tb5 3.072185 1_555
S1 Tb3 2.729323 1_555
S1 Tb3 2.729323 1_655
S1 Tb1 2.912418 1_565
S1 Tb5 3.018407 1_555
S1 Tb4 3.072185 1_565
S2 Tb0 2.729323 1_455
S2 Tb0 2.729323 1_555
S2 Tb2 2.912418 1_554
S2 Tb6 3.018407 1_555
S2 Tb7 3.072185 1_555
S3 Tb1 2.729323 1_455
S3 Tb1 2.729323 1_555
S3 Tb3 2.912418 1_545
S3 Tb7 3.018407 1_555
S3 Tb6 3.072185 1_545
S4 Tb7 2.740050 1_655
S4 Tb7 2.740050 1_555
S4 Tb1 2.799972 1_555
S4 Tb6 2.903324 1_555
S4 Tb6 2.903324 1_655
S5 Tb6 2.740050 1_655
S5 Tb6 2.740050 1_555
S5 Tb0 2.799972 1_555
S5 Tb7 2.903324 1_565
S5 Tb7 2.903324 1_665
S6 Tb5 2.740050 1_555
S6 Tb5 2.740050 1_455
S6 Tb3 2.799972 1_555
S6 Tb4 2.903324 1_555
S6 Tb4 2.903324 1_455
S7 Tb4 2.740050 1_455
S7 Tb4 2.740050 1_555
S7 Tb2 2.799972 1_555
S7 Tb5 2.903324 1_445
S7 Tb5 2.903324 1_545
S8 Tb2 2.778629 1_554
S8 Tb2 2.778629 1_654
S8 Tb7 2.856409 1_555
S8 Tb7 2.856409 1_655
S8 Tb0 2.884736 1_545
S9 Tb3 2.778629 1_655
S9 Tb3 2.778629 1_555
S9 Tb6 2.856409 1_655
S9 Tb6 2.856409 1_555
S9 Tb1 2.884736 1_555
S10 Tb0 2.778629 1_556
S10 Tb0 2.778629 1_456
S10 Tb5 2.856409 1_555
S10 Tb5 2.856409 1_455
S10 Tb2 2.884736 1_565
S11 Tb1 2.778629 1_455
S11 Tb1 2.778629 1_555
S11 Tb4 2.856409 1_555
S11 Tb4 2.856409 1_455
S11 Tb3 2.884736 1_555
