# generated using pymatgen
data_KErP2O7
_symmetry_space_group_name_H-M   'P 1'
_cell_length_a   10.97179000
_cell_length_b   7.80072400
_cell_length_c   8.76161892
_cell_angle_alpha   73.73869379
_cell_angle_beta   90.00000000
_cell_angle_gamma   90.00000000
_symmetry_Int_Tables_number   1
_chemical_formula_structural   KErP2O7
_chemical_formula_sum   'K4 Er4 P8 O28'
_cell_volume   719.88903171
_cell_formula_units_Z   4
loop_
 _symmetry_equiv_pos_site_id
 _symmetry_equiv_pos_as_xyz
  1  'x, y, z'
loop_
 _atom_site_type_symbol
 _atom_site_label
 _atom_site_symmetry_multiplicity
 _atom_site_fract_x
 _atom_site_fract_y
 _atom_site_fract_z
 _atom_site_occupancy
  K  K0  1  0.81974900  0.82214400  0.55716100  1
  K  K1  1  0.18025100  0.17785600  0.44283900  1
  K  K2  1  0.31974900  0.17785600  0.94283900  1
  K  K3  1  0.68025100  0.82214400  0.05716100  1
  Er  Er0  1  0.39992200  0.76254900  0.75808600  1
  Er  Er1  1  0.60007800  0.23745100  0.24191400  1
  Er  Er2  1  0.89992200  0.23745100  0.74191400  1
  Er  Er3  1  0.10007800  0.76254900  0.25808600  1
  P  P0  1  0.13351400  0.56470900  0.69347400  1
  P  P1  1  0.86648600  0.43529100  0.30652600  1
  P  P2  1  0.63351400  0.43529100  0.80652600  1
  P  P3  1  0.36648600  0.56470900  0.19347400  1
  P  P4  1  0.09774400  0.86882900  0.82273800  1
  P  P5  1  0.90225600  0.13117100  0.17726200  1
  P  P6  1  0.59774400  0.13117100  0.67726200  1
  P  P7  1  0.40225600  0.86882900  0.32273800  1
  O  O0  1  0.07476800  0.37990400  0.73596400  1
  O  O1  1  0.92523200  0.62009600  0.26403600  1
  O  O2  1  0.57476800  0.62009600  0.76403600  1
  O  O3  1  0.42523200  0.37990400  0.23596400  1
  O  O4  1  0.22615000  0.92158000  0.75532000  1
  O  O5  1  0.77385000  0.07842000  0.24468000  1
  O  O6  1  0.72615000  0.07842000  0.74468000  1
  O  O7  1  0.27385000  0.92158000  0.25532000  1
  O  O8  1  0.26829800  0.54925500  0.74175900  1
  O  O9  1  0.73170200  0.45074500  0.25824100  1
  O  O10  1  0.76829800  0.45074500  0.75824100  1
  O  O11  1  0.23170200  0.54925500  0.24175900  1
  O  O12  1  0.10861000  0.67205700  0.52169400  1
  O  O13  1  0.89139000  0.32794300  0.47830600  1
  O  O14  1  0.60861000  0.32794300  0.97830600  1
  O  O15  1  0.39139000  0.67205700  0.02169400  1
  O  O16  1  0.40933500  0.85171600  0.49892500  1
  O  O17  1  0.59066500  0.14828400  0.50107500  1
  O  O18  1  0.90933500  0.14828400  0.00107500  1
  O  O19  1  0.09066500  0.85171600  0.99892500  1
  O  O20  1  0.06422400  0.67176400  0.80351400  1
  O  O21  1  0.93577600  0.32823600  0.19648600  1
  O  O22  1  0.56422400  0.32823600  0.69648600  1
  O  O23  1  0.43577600  0.67176400  0.30351400  1
  O  O24  1  0.50143500  0.00535600  0.77601900  1
  O  O25  1  0.49856500  0.99464400  0.22398100  1
  O  O26  1  0.00143500  0.99464400  0.72398100  1
  O  O27  1  0.99856500  0.00535600  0.27601900  1
loop_
_geom_bond_atom_site_label_1
_geom_bond_atom_site_label_2
_geom_bond_distance
_geom_bond_site_symmetry_2
K0 O5 2.946297 1_565
K0 O10 2.992937 1_555
K0 O26 3.003701 1_655
K0 O6 3.096770 1_565
K0 O27 3.160349 1_565
K1 O4 2.946297 1_545
K1 O11 2.992937 1_555
K1 O27 3.003701 1_455
K1 O7 3.096770 1_545
K1 O26 3.160349 1_545
K2 O7 2.946297 1_546
K2 O8 2.992937 1_555
K2 O24 3.003701 1_555
K2 O4 3.096770 1_545
K2 O25 3.160349 1_546
K3 O6 2.946297 1_564
K3 O9 2.992937 1_555
K3 O25 3.003701 1_555
K3 O5 3.096770 1_565
K3 O24 3.160349 1_564
Er0 O16 2.183094 1_555
Er0 O2 2.210267 1_555
Er0 O15 2.219999 1_556
Er0 O8 2.237794 1_555
Er0 O24 2.240393 1_565
Er0 O4 2.271083 1_555
Er1 O17 2.183094 1_555
Er1 O3 2.210267 1_555
Er1 O14 2.219999 1_554
Er1 O9 2.237794 1_555
Er1 O25 2.240393 1_545
Er1 O5 2.271083 1_555
Er2 O18 2.183094 1_556
Er2 O0 2.210267 1_655
Er2 O13 2.219999 1_555
Er2 O10 2.237794 1_555
Er2 O26 2.240393 1_645
Er2 O6 2.271083 1_555
Er3 O19 2.183094 1_554
Er3 O1 2.210267 1_455
Er3 O12 2.219999 1_555
Er3 O11 2.237794 1_555
Er3 O27 2.240393 1_465
Er3 O7 2.271083 1_555
O0 P0 1.526997 1_555
O1 P1 1.526997 1_555
O2 P2 1.526997 1_555
O3 P3 1.526997 1_555
O4 P4 1.538492 1_555
O5 P5 1.538492 1_555
O6 P6 1.538492 1_555
O7 P7 1.538492 1_555
O8 P0 1.533577 1_555
O9 P1 1.533577 1_555
O10 P2 1.533577 1_555
O11 P3 1.533577 1_555
O12 P0 1.528166 1_555
O13 P1 1.528166 1_555
O14 P2 1.528166 1_555
O15 P3 1.528166 1_555
O16 P7 1.513738 1_555
O17 P6 1.513738 1_555
O18 P5 1.513738 1_555
O19 P4 1.513738 1_555
O20 P0 1.629668 1_555
O20 P4 1.634555 1_555
O21 P1 1.629668 1_555
O21 P5 1.634555 1_555
O22 P2 1.629668 1_555
O22 P6 1.634555 1_555
O23 P3 1.629668 1_555
O23 P7 1.634555 1_555
O24 P6 1.533922 1_555
O25 P7 1.533922 1_555
O26 P4 1.533922 1_555
O27 P5 1.533922 1_555
