# generated using pymatgen
data_Ta3H20C4Br8NO4
_symmetry_space_group_name_H-M   'P 1'
_cell_length_a   12.82110000
_cell_length_b   14.08341001
_cell_length_c   16.34140825
_cell_angle_alpha   76.85538890
_cell_angle_beta   66.90301507
_cell_angle_gamma   62.92319384
_symmetry_Int_Tables_number   1
_chemical_formula_structural   Ta3H20C4Br8NO4
_chemical_formula_sum   'Ta12 H80 C16 Br32 N4 O16'
_cell_volume   2412.38111765
_cell_formula_units_Z   4
loop_
 _symmetry_equiv_pos_site_id
 _symmetry_equiv_pos_as_xyz
  1  'x, y, z'
loop_
 _atom_site_type_symbol
 _atom_site_label
 _atom_site_symmetry_multiplicity
 _atom_site_fract_x
 _atom_site_fract_y
 _atom_site_fract_z
 _atom_site_occupancy
  Ta  Ta0  1  0.11418000  0.23037600  0.61395500  1
  Ta  Ta1  1  0.95851100  0.26962400  0.88604500  1
  Ta  Ta2  1  0.88582000  0.76962400  0.38604500  1
  Ta  Ta3  1  0.04148900  0.73037600  0.11395500  1
  Ta  Ta4  1  0.97174000  0.13458900  0.76733200  1
  Ta  Ta5  1  0.87366100  0.36541100  0.73266800  1
  Ta  Ta6  1  0.02826000  0.86541100  0.23266800  1
  Ta  Ta7  1  0.12633900  0.63458900  0.26733200  1
  Ta  Ta8  1  0.19880100  0.13452800  0.76686400  1
  Ta  Ta9  1  0.10019400  0.36547200  0.73313600  1
  Ta  Ta10  1  0.80119900  0.86547200  0.23313600  1
  Ta  Ta11  1  0.89980600  0.63452800  0.26686400  1
  H  H0  1  0.26974700  0.22510300  0.42558100  1
  H  H1  1  0.92043100  0.27489700  0.07441900  1
  H  H2  1  0.73025300  0.77489700  0.57441900  1
  H  H3  1  0.07956900  0.72510300  0.92558100  1
  H  H4  1  0.16508600  0.19021700  0.42752600  1
  H  H5  1  0.78282900  0.30978300  0.07247400  1
  H  H6  1  0.83491400  0.80978300  0.57247400  1
  H  H7  1  0.21717100  0.69021700  0.92752600  1
  H  H8  1  0.81505100  0.02271100  0.78415100  1
  H  H9  1  0.62191300  0.47728900  0.71584900  1
  H  H10  1  0.18494900  0.97728900  0.21584900  1
  H  H11  1  0.37808700  0.52271100  0.28415100  1
  H  H12  1  0.94030700  0.92828500  0.79431500  1
  H  H13  1  0.66290600  0.57171500  0.70568500  1
  H  H14  1  0.05969300  0.07171500  0.20568500  1
  H  H15  1  0.33709400  0.42828500  0.29431500  1
  H  H16  1  0.42384100  0.93483900  0.75688800  1
  H  H17  1  0.11556800  0.56516100  0.74311200  1
  H  H18  1  0.57615900  0.06516100  0.24311200  1
  H  H19  1  0.88443200  0.43483900  0.25688800  1
  H  H20  1  0.45010000  0.02183700  0.78219800  1
  H  H21  1  0.25413500  0.47816300  0.71780200  1
  H  H22  1  0.54990000  0.97816300  0.21780200  1
  H  H23  1  0.74586500  0.52183700  0.28219800  1
  H  H24  1  0.37835400  0.58708700  0.83056800  1
  H  H25  1  0.79600900  0.91291300  0.66943200  1
  H  H26  1  0.62164600  0.41291300  0.16943200  1
  H  H27  1  0.20399100  0.08708700  0.33056800  1
  H  H28  1  0.39354100  0.69344600  0.81453600  1
  H  H29  1  0.90152300  0.80655400  0.68546400  1
  H  H30  1  0.60645900  0.30655400  0.18546400  1
  H  H31  1  0.09847700  0.19344600  0.31453600  1
  H  H32  1  0.61972500  0.68193800  0.86980400  1
  H  H33  1  0.17146600  0.81806200  0.63019600  1
  H  H34  1  0.38027500  0.31806200  0.13019600  1
  H  H35  1  0.82853400  0.18193800  0.36980400  1
  H  H36  1  0.68396600  0.77918300  0.84202600  1
  H  H37  1  0.30517600  0.72081700  0.65797400  1
  H  H38  1  0.31603400  0.22081700  0.15797400  1
  H  H39  1  0.69482400  0.27918300  0.34202600  1
  H  H40  1  0.76136400  0.64975000  0.88961100  1
  H  H41  1  0.30072500  0.85025000  0.61038900  1
  H  H42  1  0.23863600  0.35025000  0.11038900  1
  H  H43  1  0.69927500  0.14975000  0.38961100  1
  H  H44  1  0.65974500  0.87815800  0.94696800  1
  H  H45  1  0.48487200  0.62184200  0.55303200  1
  H  H46  1  0.34025500  0.12184200  0.05303200  1
  H  H47  1  0.51512800  0.37815800  0.44696800  1
  H  H48  1  0.60058900  0.84553900  0.06495600  1
  H  H49  1  0.51108400  0.65446100  0.43504400  1
  H  H50  1  0.39941100  0.15446100  0.93504400  1
  H  H51  1  0.48891600  0.34553900  0.56495600  1
  H  H52  1  0.75120300  0.75802300  0.99693400  1
  H  H53  1  0.50616100  0.74197700  0.50306600  1
  H  H54  1  0.24879700  0.24197700  0.00306600  1
  H  H55  1  0.49383900  0.25802300  0.49693400  1
  H  H56  1  0.55174900  0.69495800  0.11559600  1
  H  H57  1  0.36230300  0.80504200  0.38440400  1
  H  H58  1  0.44825100  0.30504200  0.88440400  1
  H  H59  1  0.63769700  0.19495800  0.61559600  1
  H  H60  1  0.53870600  0.62845400  0.04088600  1
  H  H61  1  0.20804700  0.87154600  0.45911400  1
  H  H62  1  0.46129400  0.37154600  0.95911400  1
  H  H63  1  0.79195300  0.12845400  0.54088600  1
  H  H64  1  0.68920800  0.60455700  0.04011200  1
  H  H65  1  0.33387700  0.89544300  0.45988800  1
  H  H66  1  0.31079200  0.39544300  0.95988800  1
  H  H67  1  0.66612300  0.10455700  0.54011200  1
  H  H68  1  0.42206300  0.78360800  0.97585800  1
  H  H69  1  0.18152900  0.71639200  0.52414200  1
  H  H70  1  0.57793700  0.21639200  0.02414200  1
  H  H71  1  0.81847100  0.28360800  0.47585800  1
  H  H72  1  0.41773000  0.86690600  0.04692000  1
  H  H73  1  0.33155600  0.63309400  0.45308000  1
  H  H74  1  0.58227000  0.13309400  0.95308000  1
  H  H75  1  0.66844400  0.36690600  0.54692000  1
  H  H76  1  0.47284600  0.88972900  0.92736900  1
  H  H77  1  0.28994300  0.61027100  0.57263100  1
  H  H78  1  0.52715400  0.11027100  0.07263100  1
  H  H79  1  0.71005700  0.38972900  0.42736900  1
  C  C0  1  0.67118300  0.71272300  0.88866100  1
  C  C1  1  0.27256700  0.78727700  0.61133900  1
  C  C2  1  0.32881700  0.28727700  0.11133900  1
  C  C3  1  0.72743300  0.21272300  0.38866100  1
  C  C4  1  0.65675600  0.81358500  0.99890700  1
  C  C5  1  0.46924800  0.68641500  0.50109300  1
  C  C6  1  0.34324400  0.18641500  0.00109300  1
  C  C7  1  0.53075200  0.31358500  0.49890700  1
  C  C8  1  0.59389300  0.66408400  0.04920100  1
  C  C9  1  0.30717700  0.83591600  0.45079900  1
  C  C10  1  0.40610700  0.33591600  0.95079900  1
  C  C11  1  0.69282300  0.16408400  0.54920100  1
  C  C12  1  0.46754900  0.82947500  0.98284300  1
  C  C13  1  0.27986700  0.67052500  0.51715700  1
  C  C14  1  0.53245100  0.17052500  0.01715700  1
  C  C15  1  0.72013300  0.32947500  0.48284300  1
  Br  Br0  1  0.05004100  0.08234600  0.60201200  1
  Br  Br1  1  0.73439900  0.41765400  0.89798800  1
  Br  Br2  1  0.94995900  0.91765400  0.39798800  1
  Br  Br3  1  0.26560100  0.58234600  0.10201200  1
  Br  Br4  1  0.33743900  0.08004700  0.60217100  1
  Br  Br5  1  0.01965600  0.41995300  0.89782900  1
  Br  Br6  1  0.66256100  0.91995300  0.39782900  1
  Br  Br7  1  0.98034400  0.58004700  0.10217100  1
  Br  Br8  1  0.15841800  0.96059100  0.79463200  1
  Br  Br9  1  0.91364100  0.53940900  0.70536800  1
  Br  Br10  1  0.84158200  0.03940900  0.20536800  1
  Br  Br11  1  0.08635900  0.46059100  0.29463200  1
  Br  Br12  1  0.86154900  0.12905600  0.94048800  1
  Br  Br13  1  0.93109300  0.37094400  0.55951200  1
  Br  Br14  1  0.13845100  0.87094400  0.05951200  1
  Br  Br15  1  0.06890700  0.62905600  0.44048800  1
  Br  Br16  1  0.14347100  0.12989000  0.94007200  1
  Br  Br17  1  0.21343200  0.37011000  0.55992800  1
  Br  Br18  1  0.85652900  0.87011000  0.05992800  1
  Br  Br19  1  0.78656800  0.62989000  0.44007200  1
  Br  Br20  1  0.75162900  0.25000000  0.75000000  1
  Br  Br21  1  0.24837100  0.75000000  0.25000000  1
  Br  Br22  1  0.32077700  0.25000000  0.75000000  1
  Br  Br23  1  0.67922300  0.75000000  0.25000000  1
  Br  Br24  1  0.62985400  0.02702000  0.78354300  1
  Br  Br25  1  0.44041700  0.47298000  0.71645700  1
  Br  Br26  1  0.37014600  0.97298000  0.21645700  1
  Br  Br27  1  0.55958300  0.52702000  0.28354300  1
  Br  Br28  1  0.54990400  0.76011200  0.69406400  1
  Br  Br29  1  0.00408000  0.73988800  0.80593600  1
  Br  Br30  1  0.45009600  0.23988800  0.30593600  1
  Br  Br31  1  0.99592000  0.26011200  0.19406400  1
  N  N0  1  0.59732300  0.75440900  0.98002000  1
  N  N1  1  0.33175200  0.74559100  0.51998000  1
  N  N2  1  0.40267700  0.24559100  0.01998000  1
  N  N3  1  0.66824800  0.25440900  0.48002000  1
  O  O0  1  0.19834600  0.20908300  0.46593200  1
  O  O1  1  0.87336100  0.29091700  0.03406800  1
  O  O2  1  0.80165400  0.79091700  0.53406800  1
  O  O3  1  0.12663900  0.70908300  0.96593200  1
  O  O4  1  0.89666100  0.00729500  0.78820600  1
  O  O5  1  0.69216200  0.49270500  0.71179400  1
  O  O6  1  0.10333900  0.99270500  0.21179400  1
  O  O7  1  0.30783800  0.50729500  0.28820600  1
  O  O8  1  0.38180500  0.00261000  0.78735000  1
  O  O9  1  0.17176500  0.49739000  0.71265000  1
  O  O10  1  0.61819500  0.99739000  0.21265000  1
  O  O11  1  0.82823500  0.50261000  0.28735000  1
  O  O12  1  0.35983900  0.64777500  0.86229900  1
  O  O13  1  0.86991400  0.85222500  0.63770100  1
  O  O14  1  0.64016100  0.35222500  0.13770100  1
  O  O15  1  0.13008600  0.14777500  0.36229900  1
loop_
_geom_bond_atom_site_label_1
_geom_bond_atom_site_label_2
_geom_bond_distance
_geom_bond_site_symmetry_2
H0 O0 0.985137 1_555
H1 O1 0.985137 1_555
H2 O2 0.985137 1_555
H3 O3 0.985137 1_555
H4 O0 1.017495 1_555
H4 O15 1.613697 1_555
H5 O1 1.017495 1_555
H5 O14 1.613688 1_555
H6 O2 1.017495 1_555
H6 O13 1.613697 1_555
H7 O3 1.017495 1_555
H7 O12 1.613688 1_555
H8 O4 0.993671 1_555
H9 O5 0.993671 1_555
H10 O6 0.993671 1_555
H11 O7 0.993671 1_555
H12 O4 0.993841 1_565
H13 O5 0.993840 1_555
H14 O6 0.993841 1_545
H15 O7 0.993840 1_555
H16 O8 0.993248 1_565
H17 O9 0.993248 1_555
H18 O10 0.993248 1_545
H19 O11 0.993248 1_555
H20 O8 0.997376 1_555
H21 O9 0.997376 1_555
H22 O10 0.997376 1_555
H23 O11 0.997376 1_555
H24 O12 0.987935 1_555
H25 O13 0.987940 1_555
H26 O14 0.987935 1_555
H27 O15 0.987940 1_555
H28 O12 0.984733 1_555
H29 O13 0.984728 1_555
H30 O14 0.984733 1_555
H31 O15 0.984728 1_555
C0 H40 1.094504 1_555
C0 H32 1.094928 1_555
C0 H36 1.095870 1_555
C0 N0 1.501193 1_555
C1 H41 1.094504 1_555
C1 H33 1.094939 1_555
C1 H37 1.095873 1_555
C1 N1 1.501193 1_555
C2 H42 1.094504 1_555
C2 H34 1.094928 1_555
C2 H38 1.095870 1_555
C2 N2 1.501193 1_555
C3 H43 1.094504 1_555
C3 H35 1.094939 1_555
C3 H39 1.095873 1_555
C3 N3 1.501193 1_555
C4 H52 1.094483 1_555
C4 H48 1.096419 1_556
C4 H44 1.097282 1_555
C4 N0 1.500029 1_555
C5 H53 1.094493 1_555
C5 H49 1.096419 1_555
C5 H45 1.097283 1_555
C5 N1 1.500029 1_555
C6 H54 1.094483 1_555
C6 H50 1.096419 1_554
C6 H46 1.097282 1_555
C6 N2 1.500029 1_555
C7 H55 1.094493 1_555
C7 H51 1.096419 1_555
C7 H47 1.097283 1_555
C7 N3 1.500029 1_555
C8 H56 1.094961 1_555
C8 H64 1.095368 1_555
C8 H60 1.095702 1_555
C8 N0 1.502011 1_554
C9 H57 1.094962 1_555
C9 H65 1.095377 1_555
C9 H61 1.095678 1_555
C9 N1 1.502013 1_555
C10 H58 1.094961 1_555
C10 H66 1.095368 1_555
C10 H62 1.095702 1_555
C10 N2 1.502011 1_556
C11 H59 1.094962 1_555
C11 H67 1.095377 1_555
C11 H63 1.095678 1_555
C11 N3 1.502013 1_555
C12 H68 1.095038 1_555
C12 H76 1.095799 1_555
C12 H72 1.096398 1_556
C12 N0 1.499593 1_555
C13 H69 1.095038 1_555
C13 H77 1.095798 1_555
C13 H73 1.096398 1_555
C13 N1 1.499593 1_555
C14 H70 1.095038 1_555
C14 H78 1.095799 1_555
C14 H74 1.096398 1_554
C14 N2 1.499593 1_555
C15 H71 1.095038 1_555
C15 H79 1.095798 1_555
C15 H75 1.096398 1_555
C15 N3 1.499593 1_555
Br0 Ta0 2.632918 1_555
Br0 Ta4 2.636543 1_455
Br1 Ta1 2.632918 1_555
Br1 Ta5 2.636543 1_555
Br2 Ta2 2.632918 1_555
Br2 Ta6 2.636543 1_655
Br3 Ta3 2.632918 1_555
Br3 Ta7 2.636543 1_555
Br4 Ta8 2.633576 1_555
Br4 Ta0 2.636064 1_555
Br5 Ta9 2.633573 1_555
Br5 Ta1 2.636056 1_455
Br6 Ta10 2.633576 1_555
Br6 Ta2 2.636064 1_555
Br7 Ta11 2.633573 1_555
Br7 Ta3 2.636056 1_655
Br8 Ta4 2.633158 1_465
Br8 Ta8 2.634270 1_565
Br9 Ta5 2.633158 1_555
Br9 Ta9 2.634277 1_655
Br10 Ta6 2.633158 1_645
Br10 Ta10 2.634270 1_545
Br11 Ta7 2.633158 1_555
Br11 Ta11 2.634277 1_455
Br12 Ta1 2.612996 1_555
Br12 Ta4 2.621491 1_555
Br13 Ta0 2.612996 1_655
Br13 Ta5 2.621491 1_555
Br14 Ta3 2.612996 1_555
Br14 Ta6 2.621491 1_555
Br15 Ta2 2.612996 1_455
Br15 Ta7 2.621491 1_555
Br16 Ta1 2.622914 1_455
Br16 Ta8 2.627120 1_555
Br17 Ta0 2.622905 1_555
Br17 Ta9 2.627116 1_555
Br18 Ta3 2.622914 1_655
Br18 Ta10 2.627120 1_555
Br19 Ta2 2.622905 1_555
Br19 Ta11 2.627116 1_555
Br20 Ta5 2.632121 1_555
Br20 Ta4 2.632121 1_555
Br21 Ta7 2.632121 1_555
Br21 Ta6 2.632121 1_555
Br22 Ta9 2.634298 1_555
Br22 Ta8 2.634309 1_555
Br23 Ta11 2.634298 1_555
Br23 Ta10 2.634309 1_555
O0 Ta0 2.256738 1_555
O1 Ta1 2.256738 1_554
O2 Ta2 2.256738 1_555
O3 Ta3 2.256738 1_556
O4 Ta4 2.300455 1_555
O5 Ta5 2.300455 1_555
O6 Ta6 2.300455 1_555
O7 Ta7 2.300455 1_555
O8 Ta8 2.331067 1_555
O9 Ta9 2.331058 1_555
O10 Ta10 2.331067 1_555
O11 Ta11 2.331058 1_555
