# generated using pymatgen
data_KTiF4
_symmetry_space_group_name_H-M   'P 1'
_cell_length_a   8.04886500
_cell_length_b   8.57887900
_cell_length_c   12.43862100
_cell_angle_alpha   90.00000000
_cell_angle_beta   90.00000000
_cell_angle_gamma   90.00000000
_symmetry_Int_Tables_number   1
_chemical_formula_structural   KTiF4
_chemical_formula_sum   'K8 Ti8 F32'
_cell_volume   858.88975191
_cell_formula_units_Z   8
loop_
 _symmetry_equiv_pos_site_id
 _symmetry_equiv_pos_as_xyz
  1  'x, y, z'
loop_
 _atom_site_type_symbol
 _atom_site_label
 _atom_site_symmetry_multiplicity
 _atom_site_fract_x
 _atom_site_fract_y
 _atom_site_fract_z
 _atom_site_occupancy
  K  K0  1  0.12340600  0.25000000  0.94100900  1
  K  K1  1  0.12241300  0.25000000  0.55466200  1
  K  K2  1  0.37758700  0.75000000  0.05466200  1
  K  K3  1  0.37659400  0.75000000  0.44100900  1
  K  K4  1  0.62340600  0.25000000  0.55899100  1
  K  K5  1  0.62241300  0.25000000  0.94533800  1
  K  K6  1  0.87758700  0.75000000  0.44533800  1
  K  K7  1  0.87659400  0.75000000  0.05899100  1
  Ti  Ti0  1  0.12710800  0.05735500  0.24911600  1
  Ti  Ti1  1  0.12710800  0.44264500  0.24911600  1
  Ti  Ti2  1  0.37289200  0.55735500  0.74911600  1
  Ti  Ti3  1  0.37289200  0.94264500  0.74911600  1
  Ti  Ti4  1  0.62710800  0.05735500  0.25088400  1
  Ti  Ti5  1  0.62710800  0.44264500  0.25088400  1
  Ti  Ti6  1  0.87289200  0.55735500  0.75088400  1
  Ti  Ti7  1  0.87289200  0.94264500  0.75088400  1
  F  F0  1  0.12265400  0.25000000  0.34756500  1
  F  F1  1  0.13057800  0.92799500  0.12389500  1
  F  F2  1  0.13057800  0.57200500  0.12389500  1
  F  F3  1  0.12294900  0.55145900  0.75416300  1
  F  F4  1  0.12294900  0.94854100  0.75416300  1
  F  F5  1  0.12344400  0.92755800  0.37407100  1
  F  F6  1  0.12344400  0.57244200  0.37407100  1
  F  F7  1  0.13185300  0.25000000  0.14975800  1
  F  F8  1  0.36814700  0.75000000  0.64975800  1
  F  F9  1  0.37655600  0.42755800  0.87407100  1
  F  F10  1  0.37655600  0.07244200  0.87407100  1
  F  F11  1  0.37705100  0.05145900  0.25416300  1
  F  F12  1  0.37705100  0.44854100  0.25416300  1
  F  F13  1  0.36942200  0.42799500  0.62389500  1
  F  F14  1  0.36942200  0.07200500  0.62389500  1
  F  F15  1  0.37734600  0.75000000  0.84756500  1
  F  F16  1  0.62265400  0.25000000  0.15243500  1
  F  F17  1  0.63057800  0.92799500  0.37610500  1
  F  F18  1  0.63057800  0.57200500  0.37610500  1
  F  F19  1  0.62294900  0.55145900  0.74583700  1
  F  F20  1  0.62294900  0.94854100  0.74583700  1
  F  F21  1  0.62344400  0.92755800  0.12592900  1
  F  F22  1  0.62344400  0.57244200  0.12592900  1
  F  F23  1  0.63185300  0.25000000  0.35024200  1
  F  F24  1  0.86814700  0.75000000  0.85024200  1
  F  F25  1  0.87655600  0.42755800  0.62592900  1
  F  F26  1  0.87655600  0.07244200  0.62592900  1
  F  F27  1  0.87705100  0.05145900  0.24583700  1
  F  F28  1  0.87705100  0.44854100  0.24583700  1
  F  F29  1  0.86942200  0.42799500  0.87610500  1
  F  F30  1  0.86942200  0.07200500  0.87610500  1
  F  F31  1  0.87734600  0.75000000  0.65243500  1
loop_
_geom_bond_atom_site_label_1
_geom_bond_atom_site_label_2
_geom_bond_distance
_geom_bond_site_symmetry_2
F0 Ti1 2.057231 1_555
F0 Ti0 2.057231 1_555
F0 K1 2.576002 1_555
F1 Ti0 1.912695 1_565
F1 K2 2.650666 1_555
F1 K7 2.676299 1_455
F2 Ti1 1.912695 1_555
F2 K2 2.650666 1_555
F2 K7 2.676299 1_455
F3 Ti2 2.013372 1_555
F3 Ti6 2.013724 1_455
F4 Ti3 2.013372 1_555
F4 Ti7 2.013724 1_455
F5 Ti0 1.912205 1_565
F5 K6 2.649911 1_455
F5 K3 2.676794 1_555
F6 Ti1 1.912205 1_555
F6 K6 2.649911 1_455
F6 K3 2.676794 1_555
F7 Ti1 2.064024 1_555
F7 Ti0 2.064024 1_555
F7 K0 2.597440 1_554
F8 Ti3 2.064024 1_555
F8 Ti2 2.064024 1_555
F8 K3 2.597440 1_555
F9 Ti2 1.912205 1_555
F9 K5 2.649911 1_555
F9 K0 2.676794 1_555
F10 Ti3 1.912205 1_545
F10 K5 2.649911 1_555
F10 K0 2.676794 1_555
F11 Ti0 2.013372 1_555
F11 Ti4 2.013724 1_555
F12 Ti1 2.013372 1_555
F12 Ti5 2.013724 1_555
F13 Ti2 1.912695 1_555
F13 K1 2.650666 1_555
F13 K4 2.676299 1_555
F14 Ti3 1.912695 1_545
F14 K1 2.650666 1_555
F14 K4 2.676299 1_555
F15 Ti3 2.057231 1_555
F15 Ti2 2.057231 1_555
F15 K2 2.576002 1_556
F16 Ti5 2.057231 1_555
F16 Ti4 2.057231 1_555
F16 K5 2.576002 1_554
F17 Ti4 1.912695 1_565
F17 K6 2.650666 1_555
F17 K3 2.676299 1_555
F18 Ti5 1.912695 1_555
F18 K6 2.650666 1_555
F18 K3 2.676299 1_555
F19 Ti6 2.013372 1_555
F19 Ti2 2.013724 1_555
F20 Ti7 2.013372 1_555
F20 Ti3 2.013724 1_555
F21 Ti4 1.912205 1_565
F21 K2 2.649911 1_555
F21 K7 2.676794 1_555
F22 Ti5 1.912205 1_555
F22 K2 2.649911 1_555
F22 K7 2.676794 1_555
F23 Ti5 2.064024 1_555
F23 Ti4 2.064024 1_555
F23 K4 2.597440 1_555
F24 Ti7 2.064024 1_555
F24 Ti6 2.064024 1_555
F24 K7 2.597440 1_556
F25 Ti6 1.912205 1_555
F25 K1 2.649911 1_655
F25 K4 2.676794 1_555
F26 Ti7 1.912205 1_545
F26 K1 2.649911 1_655
F26 K4 2.676794 1_555
F27 Ti4 2.013372 1_555
F27 Ti0 2.013724 1_655
F28 Ti5 2.013372 1_555
F28 Ti1 2.013724 1_655
F29 Ti6 1.912695 1_555
F29 K5 2.650666 1_555
F29 K0 2.676299 1_655
F30 Ti7 1.912695 1_545
F30 K5 2.650666 1_555
F30 K0 2.676299 1_655
F31 Ti7 2.057231 1_555
F31 Ti6 2.057231 1_555
F31 K6 2.576002 1_555
