# generated using pymatgen
data_La2Nd(MnSi)6
_symmetry_space_group_name_H-M   'P 1'
_cell_length_a   16.16685830
_cell_length_b   16.16685830
_cell_length_c   16.16685830
_cell_angle_alpha   165.79183971
_cell_angle_beta   165.79183971
_cell_angle_gamma   20.14554034
_symmetry_Int_Tables_number   1
_chemical_formula_structural   La2Nd(MnSi)6
_chemical_formula_sum   'La2 Nd1 Mn6 Si6'
_cell_volume   254.52737124
_cell_formula_units_Z   1
loop_
 _symmetry_equiv_pos_site_id
 _symmetry_equiv_pos_as_xyz
  1  'x, y, z'
loop_
 _atom_site_type_symbol
 _atom_site_label
 _atom_site_symmetry_multiplicity
 _atom_site_fract_x
 _atom_site_fract_y
 _atom_site_fract_z
 _atom_site_occupancy
  La  La0  1  0.66649300  0.66649300  0.00000000  1
  La  La1  1  0.33350700  0.33350700  0.00000000  1
  Nd  Nd0  1  0.00000000  0.00000000  0.00000000  1
  Mn  Mn0  1  0.58287100  0.08287100  0.50000000  1
  Mn  Mn1  1  0.25000000  0.75000000  0.50000000  1
  Mn  Mn2  1  0.91712900  0.41712900  0.50000000  1
  Mn  Mn3  1  0.08287100  0.58287100  0.50000000  1
  Mn  Mn4  1  0.75000000  0.25000000  0.50000000  1
  Mn  Mn5  1  0.41712900  0.91712900  0.50000000  1
  Si  Si0  1  0.54161600  0.54161600  0.00000000  1
  Si  Si1  1  0.20934500  0.20934500  0.00000000  1
  Si  Si2  1  0.87600300  0.87600300  0.00000000  1
  Si  Si3  1  0.12399700  0.12399700  0.00000000  1
  Si  Si4  1  0.79065500  0.79065500  0.00000000  1
  Si  Si5  1  0.45838400  0.45838400  0.00000000  1
loop_
_geom_bond_atom_site_label_1
_geom_bond_atom_site_label_2
_geom_bond_distance
_geom_bond_site_symmetry_2
La0 Si3 3.134548 1_554
La0 Si3 3.134548 1_565
La0 Si3 3.134548 1_655
La0 Si3 3.134548 1_666
La0 Si1 3.139456 1_666
La0 Si1 3.139456 1_565
La0 Si1 3.139456 1_655
La0 Si1 3.139456 1_554
La0 Mn1 3.326416 1_655
La0 Mn4 3.326416 1_554
La0 Mn4 3.326416 1_565
La0 Mn1 3.326416 1_554
La0 Mn0 3.329342 1_554
La0 Mn0 3.329342 1_565
La0 Mn3 3.329342 1_655
La0 Mn3 3.329342 1_554
La1 Si2 3.134548 1_545
La1 Si2 3.134548 1_556
La1 Si2 3.134548 1_444
La1 Si2 3.134548 1_455
La1 Si4 3.139456 1_444
La1 Si4 3.139456 1_455
La1 Si4 3.139456 1_545
La1 Si4 3.139456 1_556
La1 Mn4 3.326416 1_454
La1 Mn1 3.326416 1_555
La1 Mn4 3.326416 1_555
La1 Mn1 3.326416 1_544
La1 Mn5 3.329342 1_544
La1 Mn2 3.329342 1_454
La1 Mn5 3.329342 1_555
La1 Mn2 3.329342 1_555
Nd0 Si0 3.122559 1_455
Nd0 Si5 3.122559 1_545
Nd0 Si5 3.122559 1_455
Nd0 Si0 3.122559 1_545
Nd0 Si0 3.122559 1_556
Nd0 Si0 3.122559 1_444
Nd0 Si5 3.122559 1_556
Nd0 Si5 3.122559 1_444
Mn0 Si3 2.389921 1_656
Mn0 Si3 2.389921 1_555
Mn0 Si0 2.392173 1_556
Mn0 Si0 2.392173 1_545
Mn0 Nd0 3.310257 1_656
Mn0 Nd0 3.310257 1_555
Mn1 Si4 2.381740 1_455
Mn1 Si1 2.381740 1_555
Mn1 Si4 2.381740 1_556
Mn1 Si1 2.381740 1_566
Mn2 Si2 2.389921 1_545
Mn2 Si2 2.389921 1_556
Mn2 Si5 2.392173 1_555
Mn2 Si5 2.392173 1_656
Mn2 Nd0 3.310257 1_666
Mn2 Nd0 3.310257 1_655
Mn3 Si3 2.389921 1_566
Mn3 Si3 2.389921 1_555
Mn3 Si0 2.392173 1_455
Mn3 Si0 2.392173 1_556
Mn3 Nd0 3.310257 1_566
Mn3 Nd0 3.310257 1_555
Mn4 Si4 2.381740 1_556
Mn4 Si4 2.381740 1_545
Mn4 Si1 2.381740 1_555
Mn4 Si1 2.381740 1_656
Mn5 Si2 2.389921 1_455
Mn5 Si2 2.389921 1_556
Mn5 Si5 2.392173 1_555
Mn5 Si5 2.392173 1_566
Mn5 Nd0 3.310257 1_565
Mn5 Nd0 3.310257 1_666
Si0 Si5 2.649719 1_555
Si1 Si3 2.717082 1_555
Si2 Si4 2.717082 1_555
