# generated using pymatgen
data_LaMg6Ga
_symmetry_space_group_name_H-M   'P 1'
_cell_length_a   6.79130156
_cell_length_b   6.79130156
_cell_length_c   5.20620900
_cell_angle_alpha   90.00000000
_cell_angle_beta   90.00000000
_cell_angle_gamma   124.78726351
_symmetry_Int_Tables_number   1
_chemical_formula_structural   LaMg6Ga
_chemical_formula_sum   'La1 Mg6 Ga1'
_cell_volume   197.20448575
_cell_formula_units_Z   1
loop_
 _symmetry_equiv_pos_site_id
 _symmetry_equiv_pos_as_xyz
  1  'x, y, z'
loop_
 _atom_site_type_symbol
 _atom_site_label
 _atom_site_symmetry_multiplicity
 _atom_site_fract_x
 _atom_site_fract_y
 _atom_site_fract_z
 _atom_site_occupancy
  La  La0  1  0.82225200  0.17774800  0.50000000  1
  Mg  Mg0  1  0.32606400  0.17506300  0.50000000  1
  Mg  Mg1  1  0.82493700  0.67393600  0.50000000  1
  Mg  Mg2  1  0.18218100  0.33793500  0.00000000  1
  Mg  Mg3  1  0.66206600  0.81781900  0.00000000  1
  Mg  Mg4  1  0.65768700  0.34231300  0.00000000  1
  Mg  Mg5  1  0.17930900  0.82069100  0.00000000  1
  Ga  Ga0  1  0.34550900  0.65449100  0.50000000  1
loop_
_geom_bond_atom_site_label_1
_geom_bond_atom_site_label_2
_geom_bond_distance
_geom_bond_site_symmetry_2
La0 Mg4 3.271010 1_556
La0 Mg4 3.271010 1_555
La0 Mg2 3.301568 1_655
La0 Mg2 3.301568 1_656
La0 Mg3 3.301569 1_545
La0 Mg3 3.301569 1_546
La0 Mg1 3.359392 1_555
La0 Mg0 3.359392 1_555
La0 Mg0 3.431975 1_655
La0 Mg1 3.431975 1_545
Mg0 Mg1 3.139959 1_555
Mg0 Mg1 3.154145 1_445
Mg0 Mg2 3.191829 1_555
Mg0 Mg2 3.191829 1_556
Mg0 Mg4 3.196801 1_556
Mg0 Mg4 3.196801 1_555
Mg0 Mg5 3.290057 1_545
Mg0 Mg5 3.290057 1_546
Mg1 Mg3 3.191826 1_555
Mg1 Mg3 3.191826 1_556
Mg1 Mg4 3.196801 1_556
Mg1 Mg4 3.196801 1_555
Mg1 Mg5 3.290057 1_656
Mg1 Mg5 3.290057 1_655
Mg2 Mg3 3.020443 1_555
Mg2 Mg4 3.212434 1_555
Mg2 Mg3 3.273661 1_445
Mg2 Mg5 3.289709 1_555
Mg2 Mg5 3.501669 1_545
Mg3 Mg4 3.212430 1_555
Mg3 Mg5 3.289715 1_555
Mg3 Mg5 3.501662 1_655
Mg4 Mg5 3.157794 1_655
Mg4 Mg5 3.157794 1_545
Ga0 Mg2 3.147582 1_556
Ga0 Mg2 3.147582 1_555
Ga0 Mg3 3.147585 1_555
Ga0 Mg3 3.147585 1_556
Ga0 La0 3.159477 1_455
Ga0 La0 3.159477 1_565
Ga0 Mg0 3.182446 1_555
Ga0 Mg1 3.182446 1_555
Ga0 Mg5 3.282964 1_556
Ga0 Mg5 3.282964 1_555
