# generated using pymatgen
data_KUVIO10
_symmetry_space_group_name_H-M   'P 1'
_cell_length_a   5.03613700
_cell_length_b   10.15168000
_cell_length_c   17.30065800
_cell_angle_alpha   90.00000000
_cell_angle_beta   90.00000000
_cell_angle_gamma   90.00000000
_symmetry_Int_Tables_number   1
_chemical_formula_structural   KUVIO10
_chemical_formula_sum   'K4 U4 V4 I4 O40'
_cell_volume   884.50048722
_cell_formula_units_Z   4
loop_
 _symmetry_equiv_pos_site_id
 _symmetry_equiv_pos_as_xyz
  1  'x, y, z'
loop_
 _atom_site_type_symbol
 _atom_site_label
 _atom_site_symmetry_multiplicity
 _atom_site_fract_x
 _atom_site_fract_y
 _atom_site_fract_z
 _atom_site_occupancy
  K  K0  1  0.68961500  0.27259200  0.39809400  1
  K  K1  1  0.68961500  0.72740800  0.60190600  1
  K  K2  1  0.68961500  0.22740800  0.89809400  1
  K  K3  1  0.68961500  0.77259200  0.10190600  1
  U  U0  1  0.25358700  0.58696300  0.26553400  1
  U  U1  1  0.25358700  0.41303700  0.73446600  1
  U  U2  1  0.25358700  0.91303700  0.76553400  1
  U  U3  1  0.25358700  0.08696300  0.23446600  1
  V  V0  1  0.24625600  0.35843500  0.05635100  1
  V  V1  1  0.24625600  0.64156500  0.94364900  1
  V  V2  1  0.24625600  0.14156500  0.55635100  1
  V  V3  1  0.24625600  0.85843500  0.44364900  1
  I  I0  1  0.75955900  0.35236600  0.16596200  1
  I  I1  1  0.75955900  0.64763400  0.83403800  1
  I  I2  1  0.75955900  0.14763400  0.66596200  1
  I  I3  1  0.75955900  0.85236600  0.33403800  1
  O  O0  1  0.06659700  0.24275400  0.14656200  1
  O  O1  1  0.06659700  0.75724600  0.85343800  1
  O  O2  1  0.06659700  0.25724600  0.64656200  1
  O  O3  1  0.06659700  0.74275400  0.35343800  1
  O  O4  1  0.56737500  0.27247100  0.07917500  1
  O  O5  1  0.56737500  0.72752900  0.92082500  1
  O  O6  1  0.56737500  0.22752900  0.57917500  1
  O  O7  1  0.56737500  0.77247100  0.42082500  1
  O  O8  1  0.35583100  0.50000000  0.00000000  1
  O  O9  1  0.35583100  0.00000000  0.50000000  1
  O  O10  1  0.91667900  0.43975500  0.24950200  1
  O  O11  1  0.91667900  0.56024500  0.75049800  1
  O  O12  1  0.91667900  0.06024500  0.74950200  1
  O  O13  1  0.91667900  0.93975500  0.25049800  1
  O  O14  1  0.61850000  0.22381100  0.23144000  1
  O  O15  1  0.61850000  0.77618900  0.76856000  1
  O  O16  1  0.61850000  0.27618900  0.73144000  1
  O  O17  1  0.61850000  0.72381100  0.26856000  1
  O  O18  1  0.46130100  0.46533500  0.16831200  1
  O  O19  1  0.46130100  0.53466500  0.83168800  1
  O  O20  1  0.46130100  0.03466500  0.66831200  1
  O  O21  1  0.46130100  0.96533500  0.33168800  1
  O  O22  1  0.93889500  0.45785900  0.09128700  1
  O  O23  1  0.93889500  0.54214100  0.90871300  1
  O  O24  1  0.93889500  0.04214100  0.59128700  1
  O  O25  1  0.93889500  0.95785900  0.40871300  1
  O  O26  1  0.14502400  0.25963100  0.98829500  1
  O  O27  1  0.14502400  0.74036900  0.01170500  1
  O  O28  1  0.14502400  0.24036900  0.48829500  1
  O  O29  1  0.14502400  0.75963100  0.51170500  1
  O  O30  1  0.14374700  0.68606200  0.18453900  1
  O  O31  1  0.14374700  0.31393800  0.81546100  1
  O  O32  1  0.14374700  0.81393800  0.68453900  1
  O  O33  1  0.14374700  0.18606200  0.31546100  1
  O  O34  1  0.36898700  0.48948800  0.34665600  1
  O  O35  1  0.36898700  0.51051200  0.65334400  1
  O  O36  1  0.36898700  0.01051200  0.84665600  1
  O  O37  1  0.36898700  0.98948800  0.15334400  1
  O  O38  1  0.80522600  0.50000000  0.50000000  1
  O  O39  1  0.80522600  0.00000000  0.00000000  1
loop_
_geom_bond_atom_site_label_1
_geom_bond_atom_site_label_2
_geom_bond_distance
_geom_bond_site_symmetry_2
K0 O28 2.793283 1_655
K0 O33 2.836564 1_655
K0 O34 2.871840 1_555
K0 O14 2.947283 1_555
K0 O38 2.962570 1_555
K0 O28 3.172432 1_555
K0 O33 3.220678 1_555
K0 O6 3.225341 1_555
K0 O10 3.285743 1_555
K1 O29 2.793283 1_655
K1 O32 2.836564 1_655
K1 O35 2.871840 1_555
K1 O15 2.947283 1_555
K1 O38 2.962570 1_555
K1 O29 3.172432 1_555
K1 O32 3.220678 1_555
K1 O7 3.225341 1_555
K1 O11 3.285743 1_555
K2 O26 2.793283 1_655
K2 O31 2.836564 1_655
K2 O36 2.871840 1_555
K2 O16 2.947283 1_555
K2 O39 2.962570 1_556
K2 O26 3.172432 1_555
K2 O31 3.220678 1_555
K2 O4 3.225341 1_556
K2 O12 3.285743 1_555
K3 O27 2.793283 1_655
K3 O30 2.836564 1_655
K3 O37 2.871840 1_555
K3 O17 2.947283 1_555
K3 O39 2.962570 1_565
K3 O27 3.172432 1_555
K3 O30 3.220678 1_555
K3 O5 3.225341 1_554
K3 O13 3.285743 1_555
I0 O14 1.868442 1_555
I0 O10 1.871371 1_555
I0 O18 1.890256 1_555
I0 O22 1.905693 1_555
I0 O0 1.934387 1_655
I0 O4 1.961890 1_555
I1 O15 1.868442 1_555
I1 O11 1.871371 1_555
I1 O19 1.890256 1_555
I1 O23 1.905693 1_555
I1 O1 1.934387 1_655
I1 O5 1.961890 1_555
I2 O16 1.868442 1_555
I2 O12 1.871371 1_555
I2 O20 1.890256 1_555
I2 O24 1.905693 1_555
I2 O2 1.934387 1_655
I2 O6 1.961890 1_555
I3 O17 1.868442 1_555
I3 O13 1.871371 1_555
I3 O21 1.890256 1_555
I3 O25 1.905693 1_555
I3 O3 1.934387 1_655
I3 O7 1.961890 1_555
O0 V0 2.152572 1_555
O0 U3 2.387657 1_555
O1 V1 2.152572 1_555
O1 U2 2.387657 1_555
O2 V2 2.152572 1_555
O2 U1 2.387657 1_555
O3 V3 2.152572 1_555
O3 U0 2.387657 1_555
O4 V0 1.879581 1_555
O5 V1 1.879581 1_555
O6 V2 1.879581 1_555
O7 V3 1.879581 1_555
O8 V1 1.822167 1_554
O8 V0 1.822167 1_555
O9 V2 1.822167 1_555
O9 V3 1.822167 1_545
O10 U0 2.277944 1_655
O11 U1 2.277944 1_655
O12 U2 2.277944 1_645
O13 U3 2.277944 1_665
O14 U3 2.304355 1_555
O15 U2 2.304355 1_555
O16 U1 2.304355 1_555
O17 U0 2.304355 1_555
O18 U0 2.334089 1_555
O18 V0 2.470331 1_555
O19 U1 2.334089 1_555
O19 V1 2.470331 1_555
O20 U2 2.334089 1_545
O20 V2 2.470331 1_555
O21 U3 2.334089 1_565
O21 V3 2.470331 1_555
O22 V0 1.944242 1_655
O23 V1 1.944242 1_655
O24 V2 1.944242 1_655
O25 V3 1.944242 1_655
O26 V0 1.628582 1_556
O27 V1 1.628582 1_554
O28 V2 1.628582 1_555
O29 V3 1.628582 1_555
O30 U0 1.811525 1_555
O31 U1 1.811525 1_555
O32 U2 1.811525 1_555
O33 U3 1.811525 1_555
O34 U0 1.812912 1_555
O35 U1 1.812912 1_555
O36 U2 1.812912 1_545
O37 U3 1.812912 1_565
