# generated using pymatgen
data_Ba3TiZnWO9
_symmetry_space_group_name_H-M   'P 1'
_cell_length_a   5.88165196
_cell_length_b   5.88165196
_cell_length_c   14.44801200
_cell_angle_alpha   90.00000000
_cell_angle_beta   90.00000000
_cell_angle_gamma   119.99999953
_symmetry_Int_Tables_number   1
_chemical_formula_structural   Ba3TiZnWO9
_chemical_formula_sum   'Ba6 Ti2 Zn2 W2 O18'
_cell_volume   432.84994959
_cell_formula_units_Z   2
loop_
 _symmetry_equiv_pos_site_id
 _symmetry_equiv_pos_as_xyz
  1  'x, y, z'
loop_
 _atom_site_type_symbol
 _atom_site_label
 _atom_site_symmetry_multiplicity
 _atom_site_fract_x
 _atom_site_fract_y
 _atom_site_fract_z
 _atom_site_occupancy
  Ba  Ba0  1  0.66666700  0.33333300  0.59277400  1
  Ba  Ba1  1  0.33333300  0.66666700  0.40299200  1
  Ba  Ba2  1  0.33333300  0.66666700  0.09277400  1
  Ba  Ba3  1  0.66666700  0.33333300  0.90299200  1
  Ba  Ba4  1  0.00000000  0.00000000  0.75359200  1
  Ba  Ba5  1  0.00000000  0.00000000  0.25359200  1
  Ti  Ti0  1  0.66666700  0.33333300  0.35687600  1
  Ti  Ti1  1  0.33333300  0.66666700  0.85687600  1
  Zn  Zn0  1  0.00000000  0.00000000  0.49600400  1
  Zn  Zn1  1  0.00000000  0.00000000  0.99600400  1
  W  W0  1  0.33333300  0.66666700  0.65744700  1
  W  W1  1  0.66666700  0.33333300  0.15744700  1
  O  O0  1  0.17323700  0.34647400  0.58637500  1
  O  O1  1  0.17323700  0.82676300  0.58637500  1
  O  O2  1  0.65352600  0.82676300  0.58637500  1
  O  O3  1  0.82833900  0.65667800  0.41429600  1
  O  O4  1  0.82833900  0.17166100  0.41429600  1
  O  O5  1  0.34332200  0.17166100  0.41429600  1
  O  O6  1  0.82676300  0.65352600  0.08637500  1
  O  O7  1  0.82676300  0.17323700  0.08637500  1
  O  O8  1  0.34647400  0.17323700  0.08637500  1
  O  O9  1  0.17166100  0.34332200  0.91429600  1
  O  O10  1  0.17166100  0.82833900  0.91429600  1
  O  O11  1  0.65667800  0.82833900  0.91429600  1
  O  O12  1  0.48327800  0.96655600  0.74610000  1
  O  O13  1  0.48327800  0.51672200  0.74610000  1
  O  O14  1  0.03344400  0.51672200  0.74610000  1
  O  O15  1  0.51672200  0.03344400  0.24610000  1
  O  O16  1  0.51672200  0.48327800  0.24610000  1
  O  O17  1  0.96655600  0.48327800  0.24610000  1
loop_
_geom_bond_atom_site_label_1
_geom_bond_atom_site_label_2
_geom_bond_distance
_geom_bond_site_symmetry_2
Ba0 O14 2.897873 1_655
Ba0 O12 2.897873 1_545
Ba0 O13 2.897877 1_555
Ba0 O2 2.943037 1_545
Ba0 O0 2.943037 1_655
Ba0 O1 2.943040 1_545
Ba0 O1 2.943040 1_655
Ba0 O2 2.943043 1_555
Ba0 O0 2.943043 1_555
Ba0 O4 3.059750 1_555
Ba0 O5 3.059753 1_555
Ba0 O3 3.059753 1_555
Ba1 O15 2.937446 1_565
Ba1 O17 2.937446 1_455
Ba1 O16 2.937450 1_555
Ba1 O3 2.945794 1_455
Ba1 O5 2.945794 1_565
Ba1 O4 2.945797 1_455
Ba1 O4 2.945797 1_565
Ba1 O5 2.945800 1_555
Ba1 O3 2.945800 1_555
Ba1 O1 3.111262 1_555
Ba1 O0 3.111265 1_555
Ba1 O2 3.111265 1_555
Ba2 O15 2.897873 1_565
Ba2 O17 2.897873 1_455
Ba2 O16 2.897877 1_555
Ba2 O6 2.943037 1_455
Ba2 O8 2.943037 1_565
Ba2 O7 2.943040 1_455
Ba2 O7 2.943040 1_565
Ba2 O6 2.943043 1_555
Ba2 O8 2.943043 1_555
Ba2 O10 3.059750 1_554
Ba2 O11 3.059753 1_554
Ba2 O9 3.059753 1_554
Ba3 O12 2.937446 1_545
Ba3 O14 2.937446 1_655
Ba3 O13 2.937450 1_555
Ba3 O11 2.945794 1_545
Ba3 O9 2.945794 1_655
Ba3 O10 2.945797 1_655
Ba3 O10 2.945797 1_545
Ba3 O9 2.945800 1_555
Ba3 O11 2.945800 1_555
Ba3 O7 3.111262 1_556
Ba3 O8 3.111265 1_556
Ba3 O6 3.111265 1_556
Ba4 O10 2.906748 1_545
Ba4 O11 2.906748 1_445
Ba4 O9 2.906748 1_555
Ba4 O14 2.947744 1_545
Ba4 O12 2.947744 1_545
Ba4 O12 2.947744 1_445
Ba4 O14 2.947744 1_555
Ba4 O13 2.947744 1_555
Ba4 O13 2.947744 1_445
Ba4 O1 2.991893 1_545
Ba4 O2 2.991893 1_445
Ba4 O0 2.991893 1_555
Ba5 O4 2.906748 1_455
Ba5 O5 2.906748 1_555
Ba5 O3 2.906748 1_445
Ba5 O15 2.947744 1_455
Ba5 O17 2.947744 1_455
Ba5 O15 2.947744 1_555
Ba5 O17 2.947744 1_445
Ba5 O16 2.947744 1_555
Ba5 O16 2.947744 1_445
Ba5 O7 2.991893 1_455
Ba5 O6 2.991893 1_445
Ba5 O8 2.991893 1_555
O0 W0 1.927286 1_555
O0 Zn0 2.195312 1_555
O1 W0 1.927282 1_555
O1 Zn0 2.195312 1_565
O2 W0 1.927286 1_555
O2 Zn0 2.195312 1_665
O3 Ti0 1.844149 1_555
O3 Zn0 2.109930 1_665
O4 Ti0 1.844144 1_555
O4 Zn0 2.109930 1_655
O5 Ti0 1.844149 1_555
O5 Zn0 2.109930 1_555
O6 W1 1.927286 1_555
O6 Zn1 2.195312 1_664
O7 W1 1.927282 1_555
O7 Zn1 2.195312 1_654
O8 W1 1.927286 1_555
O8 Zn1 2.195312 1_554
O9 Ti1 1.844149 1_555
O9 Zn1 2.109930 1_555
O10 Ti1 1.844144 1_555
O10 Zn1 2.109930 1_565
O11 Ti1 1.844149 1_555
O11 Zn1 2.109930 1_665
O12 W0 1.993479 1_555
O12 Ti1 2.212450 1_555
O13 W0 1.993483 1_555
O13 Ti1 2.212453 1_555
O14 W0 1.993479 1_555
O14 Ti1 2.212450 1_555
O15 W1 1.993479 1_555
O15 Ti0 2.212450 1_555
O16 W1 1.993483 1_555
O16 Ti0 2.212453 1_555
O17 W1 1.993479 1_555
O17 Ti0 2.212450 1_555
