# generated using pymatgen
data_Cr4Te3S
_symmetry_space_group_name_H-M   'P 1'
_cell_length_a   7.48004157
_cell_length_b   7.48004157
_cell_length_c   7.48004157
_cell_angle_alpha   148.96100334
_cell_angle_beta   125.39172011
_cell_angle_gamma   64.15233538
_symmetry_Int_Tables_number   1
_chemical_formula_structural   Cr4Te3S
_chemical_formula_sum   'Cr4 Te3 S1'
_cell_volume   174.10225015
_cell_formula_units_Z   1
loop_
 _symmetry_equiv_pos_site_id
 _symmetry_equiv_pos_as_xyz
  1  'x, y, z'
loop_
 _atom_site_type_symbol
 _atom_site_label
 _atom_site_symmetry_multiplicity
 _atom_site_fract_x
 _atom_site_fract_y
 _atom_site_fract_z
 _atom_site_occupancy
  Cr  Cr0  1  0.09619600  0.12249600  0.97369900  1
  Cr  Cr1  1  0.64357700  0.61624400  0.02733300  1
  Cr  Cr2  1  0.41108900  0.38375600  0.02733300  1
  Cr  Cr3  1  0.85120300  0.87750400  0.97369900  1
  Te  Te0  1  0.16243700  0.50000000  0.66243700  1
  Te  Te1  1  0.09504600  0.76082200  0.33422400  1
  Te  Te2  1  0.57340200  0.23917800  0.33422400  1
  S  S0  1  0.67429600  0.00000000  0.67429600  1
loop_
_geom_bond_atom_site_label_1
_geom_bond_atom_site_label_2
_geom_bond_distance
_geom_bond_site_symmetry_2
Cr0 S0 2.575401 1_455
Cr0 Te1 2.827781 1_545
Cr0 Te1 2.827784 1_556
Cr0 Te0 2.845056 1_545
Cr0 Te0 2.845059 1_556
Cr0 Te2 2.882481 1_556
Cr1 S0 2.682178 1_565
Cr1 S0 2.682178 1_554
Cr1 Te1 2.791795 1_655
Cr1 Te2 2.861855 1_565
Cr1 Te2 2.861855 1_554
Cr1 Te0 2.905453 1_554
Cr2 S0 2.682178 1_554
Cr2 S0 2.682178 1_565
Cr2 Te2 2.791795 1_555
Cr2 Te1 2.861855 1_555
Cr2 Te1 2.861855 1_544
Cr2 Te0 2.905453 1_554
Cr3 S0 2.575394 1_565
Cr3 Te2 2.827786 1_566
Cr3 Te2 2.827786 1_555
Cr3 Te0 2.845056 1_666
Cr3 Te0 2.845056 1_655
Cr3 Te1 2.882487 1_656
