# generated using pymatgen
data_Ti3NbZnBi3O14
_symmetry_space_group_name_H-M   'P 1'
_cell_length_a   10.44510100
_cell_length_b   10.44510100
_cell_length_c   10.44510100
_cell_angle_alpha   90.00000000
_cell_angle_beta   90.00000000
_cell_angle_gamma   90.00000000
_symmetry_Int_Tables_number   1
_chemical_formula_structural   Ti3NbZnBi3O14
_chemical_formula_sum   'Ti12 Nb4 Zn4 Bi12 O56'
_cell_volume   1139.56192815
_cell_formula_units_Z   4
loop_
 _symmetry_equiv_pos_site_id
 _symmetry_equiv_pos_as_xyz
  1  'x, y, z'
loop_
 _atom_site_type_symbol
 _atom_site_label
 _atom_site_symmetry_multiplicity
 _atom_site_fract_x
 _atom_site_fract_y
 _atom_site_fract_z
 _atom_site_occupancy
  Ti  Ti0  1  0.12500000  0.88632200  0.13632200  1
  Ti  Ti1  1  0.37500000  0.11367800  0.63632200  1
  Ti  Ti2  1  0.87500000  0.38632200  0.36367800  1
  Ti  Ti3  1  0.13632200  0.12500000  0.88632200  1
  Ti  Ti4  1  0.63632200  0.37500000  0.11367800  1
  Ti  Ti5  1  0.62500000  0.61367800  0.86367800  1
  Ti  Ti6  1  0.86367800  0.62500000  0.61367800  1
  Ti  Ti7  1  0.36367800  0.87500000  0.38632200  1
  Ti  Ti8  1  0.88632200  0.13632200  0.12500000  1
  Ti  Ti9  1  0.38632200  0.36367800  0.87500000  1
  Ti  Ti10  1  0.61367800  0.86367800  0.62500000  1
  Ti  Ti11  1  0.11367800  0.63632200  0.37500000  1
  Nb  Nb0  1  0.87500000  0.87500000  0.87500000  1
  Nb  Nb1  1  0.62500000  0.12500000  0.37500000  1
  Nb  Nb2  1  0.12500000  0.37500000  0.62500000  1
  Nb  Nb3  1  0.37500000  0.62500000  0.12500000  1
  Zn  Zn0  1  0.37500000  0.37500000  0.37500000  1
  Zn  Zn1  1  0.12500000  0.62500000  0.87500000  1
  Zn  Zn2  1  0.62500000  0.87500000  0.12500000  1
  Zn  Zn3  1  0.87500000  0.12500000  0.62500000  1
  Bi  Bi0  1  0.12500000  0.14628400  0.39628400  1
  Bi  Bi1  1  0.37500000  0.85371600  0.89628400  1
  Bi  Bi2  1  0.87500000  0.64628400  0.10371600  1
  Bi  Bi3  1  0.39628400  0.12500000  0.14628400  1
  Bi  Bi4  1  0.89628400  0.37500000  0.85371600  1
  Bi  Bi5  1  0.62500000  0.35371600  0.60371600  1
  Bi  Bi6  1  0.60371600  0.62500000  0.35371600  1
  Bi  Bi7  1  0.10371600  0.87500000  0.64628400  1
  Bi  Bi8  1  0.14628400  0.39628400  0.12500000  1
  Bi  Bi9  1  0.64628400  0.10371600  0.87500000  1
  Bi  Bi10  1  0.35371600  0.60371600  0.62500000  1
  Bi  Bi11  1  0.85371600  0.89628400  0.37500000  1
  O  O0  1  0.00516000  0.30328700  0.49203900  1
  O  O1  1  0.49484000  0.69671300  0.99203900  1
  O  O2  1  0.99484000  0.80328700  0.00796100  1
  O  O3  1  0.49203900  0.00516000  0.30328700  1
  O  O4  1  0.05328700  0.25516000  0.75796100  1
  O  O5  1  0.50516000  0.19671300  0.50796100  1
  O  O6  1  0.99203900  0.49484000  0.69671300  1
  O  O7  1  0.44671300  0.74484000  0.25796100  1
  O  O8  1  0.00796100  0.99484000  0.80328700  1
  O  O9  1  0.55328700  0.24484000  0.24203900  1
  O  O10  1  0.50796100  0.50516000  0.19671300  1
  O  O11  1  0.94671300  0.75516000  0.74203900  1
  O  O12  1  0.30328700  0.49203900  0.00516000  1
  O  O13  1  0.75516000  0.74203900  0.94671300  1
  O  O14  1  0.80328700  0.00796100  0.99484000  1
  O  O15  1  0.74484000  0.25796100  0.44671300  1
  O  O16  1  0.19671300  0.50796100  0.50516000  1
  O  O17  1  0.25516000  0.75796100  0.05328700  1
  O  O18  1  0.69671300  0.99203900  0.49484000  1
  O  O19  1  0.24484000  0.24203900  0.55328700  1
  O  O20  1  0.75796100  0.05328700  0.25516000  1
  O  O21  1  0.25796100  0.44671300  0.74484000  1
  O  O22  1  0.74203900  0.94671300  0.75516000  1
  O  O23  1  0.24203900  0.55328700  0.24484000  1
  O  O24  1  0.27013300  0.27013300  0.27013300  1
  O  O25  1  0.22986700  0.72986700  0.77013300  1
  O  O26  1  0.72986700  0.77013300  0.22986700  1
  O  O27  1  0.02013300  0.52013300  0.97986700  1
  O  O28  1  0.77013300  0.22986700  0.72986700  1
  O  O29  1  0.47986700  0.47986700  0.47986700  1
  O  O30  1  0.52013300  0.97986700  0.02013300  1
  O  O31  1  0.97986700  0.02013300  0.52013300  1
  O  O32  1  0.99757700  0.00034900  0.19471400  1
  O  O33  1  0.50242300  0.99965100  0.69471400  1
  O  O34  1  0.00242300  0.50034900  0.30528600  1
  O  O35  1  0.19471400  0.99757700  0.00034900  1
  O  O36  1  0.75034900  0.24757700  0.05528600  1
  O  O37  1  0.49757700  0.49965100  0.80528600  1
  O  O38  1  0.69471400  0.50242300  0.99965100  1
  O  O39  1  0.74965100  0.75242300  0.55528600  1
  O  O40  1  0.30528600  0.00242300  0.50034900  1
  O  O41  1  0.25034900  0.25242300  0.94471400  1
  O  O42  1  0.80528600  0.49757700  0.49965100  1
  O  O43  1  0.24965100  0.74757700  0.44471400  1
  O  O44  1  0.00034900  0.19471400  0.99757700  1
  O  O45  1  0.74757700  0.44471400  0.24965100  1
  O  O46  1  0.50034900  0.30528600  0.00242300  1
  O  O47  1  0.75242300  0.55528600  0.74965100  1
  O  O48  1  0.49965100  0.80528600  0.49757700  1
  O  O49  1  0.24757700  0.05528600  0.75034900  1
  O  O50  1  0.99965100  0.69471400  0.50242300  1
  O  O51  1  0.25242300  0.94471400  0.25034900  1
  O  O52  1  0.05528600  0.75034900  0.24757700  1
  O  O53  1  0.55528600  0.74965100  0.75242300  1
  O  O54  1  0.44471400  0.24965100  0.74757700  1
  O  O55  1  0.94471400  0.25034900  0.25242300  1
loop_
_geom_bond_atom_site_label_1
_geom_bond_atom_site_label_2
_geom_bond_distance
_geom_bond_site_symmetry_2
Nb0 O13 2.014118 1_555
Nb0 O22 2.014118 1_555
Nb0 O11 2.014118 1_555
Nb0 O8 2.014118 1_655
Nb0 O14 2.014118 1_565
Nb0 O2 2.014118 1_556
Nb1 O15 2.014118 1_555
Nb1 O5 2.014118 1_555
Nb1 O20 2.014118 1_555
Nb1 O9 2.014118 1_555
Nb1 O3 2.014118 1_555
Nb1 O18 2.014118 1_545
Nb2 O16 2.014118 1_555
Nb2 O21 2.014118 1_555
Nb2 O4 2.014118 1_555
Nb2 O6 2.014118 1_455
Nb2 O0 2.014118 1_555
Nb2 O19 2.014118 1_555
Nb3 O10 2.014118 1_555
Nb3 O7 2.014118 1_555
Nb3 O23 2.014118 1_555
Nb3 O1 2.014118 1_554
Nb3 O12 2.014118 1_555
Nb3 O17 2.014118 1_555
Bi0 O0 2.292708 1_555
Bi0 O19 2.292708 1_555
Bi0 O31 2.389081 1_455
Bi0 O24 2.389081 1_555
Bi0 O55 2.643014 1_455
Bi0 O40 2.643014 1_555
Bi1 O1 2.292708 1_555
Bi1 O17 2.292708 1_556
Bi1 O30 2.389081 1_556
Bi1 O25 2.389081 1_555
Bi1 O35 2.643014 1_556
Bi1 O53 2.643014 1_555
Bi2 O2 2.292708 1_555
Bi2 O13 2.292708 1_554
Bi2 O27 2.389081 1_654
Bi2 O26 2.389081 1_555
Bi2 O38 2.643014 1_554
Bi2 O52 2.643014 1_655
Bi3 O9 2.292708 1_555
Bi3 O3 2.292708 1_555
Bi3 O30 2.389081 1_545
Bi3 O24 2.389081 1_555
Bi3 O51 2.643014 1_545
Bi3 O46 2.643014 1_555
Bi4 O6 2.292708 1_555
Bi4 O4 2.292708 1_655
Bi4 O27 2.389081 1_655
Bi4 O28 2.389081 1_555
Bi4 O47 2.643014 1_555
Bi4 O44 2.643014 1_655
Bi5 O5 2.292708 1_555
Bi5 O15 2.292708 1_555
Bi5 O28 2.389081 1_555
Bi5 O29 2.389081 1_555
Bi5 O42 2.643014 1_555
Bi5 O54 2.643014 1_555
Bi6 O10 2.292708 1_555
Bi6 O7 2.292708 1_555
Bi6 O26 2.389081 1_555
Bi6 O29 2.389081 1_555
Bi6 O48 2.643014 1_555
Bi6 O45 2.643014 1_555
Bi7 O8 2.292708 1_555
Bi7 O11 2.292708 1_455
Bi7 O31 2.389081 1_465
Bi7 O25 2.389081 1_555
Bi7 O50 2.643014 1_455
Bi7 O49 2.643014 1_565
Bi8 O12 2.292708 1_555
Bi8 O23 2.292708 1_555
Bi8 O27 2.389081 1_554
Bi8 O24 2.389081 1_555
Bi8 O41 2.643014 1_554
Bi8 O34 2.643014 1_555
Bi9 O22 2.292708 1_545
Bi9 O14 2.292708 1_555
Bi9 O28 2.389081 1_555
Bi9 O30 2.389081 1_546
Bi9 O33 2.643014 1_545
Bi9 O36 2.643014 1_556
Bi10 O21 2.292708 1_555
Bi10 O16 2.292708 1_555
Bi10 O25 2.389081 1_555
Bi10 O29 2.389081 1_555
Bi10 O37 2.643014 1_555
Bi10 O43 2.643014 1_555
Bi11 O18 2.292708 1_555
Bi11 O20 2.292708 1_565
Bi11 O31 2.389081 1_565
Bi11 O26 2.389081 1_555
Bi11 O39 2.643014 1_555
Bi11 O32 2.643014 1_565
O0 Ti2 2.097177 1_455
O1 Ti5 2.097177 1_555
O2 Ti0 2.097177 1_655
O3 Ti7 2.097177 1_545
O4 Ti3 2.097177 1_555
O5 Ti1 2.097177 1_555
O6 Ti6 2.097177 1_555
O7 Ti7 2.097177 1_555
O8 Ti3 2.097177 1_565
O9 Ti4 2.097177 1_555
O10 Ti4 2.097177 1_555
O11 Ti6 2.097177 1_555
O12 Ti9 2.097177 1_554
O13 Ti5 2.097177 1_555
O14 Ti8 2.097177 1_556
O15 Ti2 2.097177 1_555
O16 Ti11 2.097177 1_555
O17 Ti0 2.097177 1_555
O18 Ti10 2.097177 1_555
O19 Ti1 2.097177 1_555
O20 Ti8 2.097177 1_555
O21 Ti9 2.097177 1_555
O22 Ti10 2.097177 1_555
O23 Ti11 2.097177 1_555
O24 Zn0 1.897196 1_555
O25 Zn1 1.897196 1_555
O26 Zn2 1.897196 1_555
O27 Zn1 1.897196 1_555
O28 Zn3 1.897196 1_555
O29 Zn0 1.897196 1_555
O30 Zn2 1.897196 1_555
O31 Zn3 1.897196 1_555
O32 Ti0 1.887312 1_645
O32 Ti8 1.974273 1_555
O33 Ti1 1.887312 1_565
O33 Ti10 1.974273 1_555
O34 Ti2 1.887312 1_455
O34 Ti11 1.974273 1_555
O35 Ti3 1.887312 1_564
O35 Ti0 1.974273 1_555
O36 Ti4 1.887312 1_555
O36 Ti8 1.974273 1_555
O37 Ti5 1.887312 1_555
O37 Ti9 1.974273 1_555
O38 Ti4 1.887312 1_556
O38 Ti5 1.974273 1_555
O39 Ti6 1.887312 1_555
O39 Ti10 1.974273 1_555
O40 Ti7 1.887312 1_545
O40 Ti1 1.974273 1_555
O41 Ti3 1.887312 1_555
O41 Ti9 1.974273 1_555
O42 Ti6 1.887312 1_555
O42 Ti2 1.974273 1_555
O43 Ti7 1.887312 1_555
O43 Ti11 1.974273 1_555
O44 Ti8 1.887312 1_456
O44 Ti3 1.974273 1_555
O45 Ti2 1.887312 1_555
O45 Ti4 1.974273 1_555
O46 Ti9 1.887312 1_554
O46 Ti4 1.974273 1_555
O47 Ti5 1.887312 1_555
O47 Ti6 1.974273 1_555
O48 Ti10 1.887312 1_555
O48 Ti7 1.974273 1_555
O49 Ti1 1.887312 1_555
O49 Ti3 1.974273 1_555
O50 Ti11 1.887312 1_655
O50 Ti6 1.974273 1_555
O51 Ti0 1.887312 1_555
O51 Ti7 1.974273 1_555
O52 Ti11 1.887312 1_555
O52 Ti0 1.974273 1_555
O53 Ti10 1.887312 1_555
O53 Ti5 1.974273 1_555
O54 Ti9 1.887312 1_555
O54 Ti1 1.974273 1_555
O55 Ti8 1.887312 1_555
O55 Ti2 1.974273 1_555
