# generated using pymatgen
data_Mg(MoO2)2
_symmetry_space_group_name_H-M   'P 1'
_cell_length_a   6.31979077
_cell_length_b   6.31979077
_cell_length_c   6.31979094
_cell_angle_alpha   60.80755778
_cell_angle_beta   60.80755778
_cell_angle_gamma   60.80755747
_symmetry_Int_Tables_number   1
_chemical_formula_structural   Mg(MoO2)2
_chemical_formula_sum   'Mg2 Mo4 O8'
_cell_volume   181.73226690
_cell_formula_units_Z   2
loop_
 _symmetry_equiv_pos_site_id
 _symmetry_equiv_pos_as_xyz
  1  'x, y, z'
loop_
 _atom_site_type_symbol
 _atom_site_label
 _atom_site_symmetry_multiplicity
 _atom_site_fract_x
 _atom_site_fract_y
 _atom_site_fract_z
 _atom_site_occupancy
  Mg  Mg0  1  0.00348700  0.00348700  0.00348700  1
  Mg  Mg1  1  0.62877600  0.62877600  0.62877600  1
  Mo  Mo0  1  0.23419300  0.23419300  0.23419300  1
  Mo  Mo1  1  0.62476000  0.12211300  0.62476000  1
  Mo  Mo2  1  0.62476000  0.62476000  0.12211300  1
  Mo  Mo3  1  0.12211300  0.62476000  0.62476000  1
  O  O0  1  0.84621000  0.38831000  0.38831000  1
  O  O1  1  0.38831000  0.38831000  0.84621000  1
  O  O2  1  0.38831000  0.84621000  0.38831000  1
  O  O3  1  0.38703400  0.38703400  0.38703400  1
  O  O4  1  0.86904400  0.86904400  0.86904400  1
  O  O5  1  0.86682500  0.39934800  0.86682500  1
  O  O6  1  0.86682500  0.86682500  0.39934800  1
  O  O7  1  0.39934800  0.86682500  0.86682500  1
loop_
_geom_bond_atom_site_label_1
_geom_bond_atom_site_label_2
_geom_bond_distance
_geom_bond_site_symmetry_2
Mg0 O7 2.064661 1_544
Mg0 O5 2.064661 1_454
Mg0 O6 2.064661 1_445
Mg0 O4 2.068421 1_444
Mg1 O6 2.140323 1_555
Mg1 O7 2.140323 1_555
Mg1 O5 2.140323 1_555
Mg1 O1 2.164693 1_555
Mg1 O0 2.164693 1_555
Mg1 O2 2.164693 1_555
Mo0 O0 2.043419 1_455
Mo0 O2 2.043419 1_545
Mo0 O1 2.043419 1_554
Mo0 O3 2.351476 1_555
Mo1 O3 2.147511 1_555
Mo1 O7 2.163584 1_545
Mo1 O6 2.163584 1_545
Mo1 O0 2.196853 1_555
Mo1 O1 2.196853 1_555
Mo1 O4 2.198292 1_545
Mo2 O3 2.147511 1_555
Mo2 O7 2.163584 1_554
Mo2 O5 2.163584 1_554
Mo2 O0 2.196853 1_555
Mo2 O2 2.196853 1_555
Mo2 O4 2.198292 1_554
Mo3 O3 2.147511 1_555
Mo3 O5 2.163584 1_455
Mo3 O6 2.163584 1_455
Mo3 O2 2.196853 1_555
Mo3 O1 2.196853 1_555
Mo3 O4 2.198292 1_455
