# generated using pymatgen
data_Ho3Si3O10F
_symmetry_space_group_name_H-M   'P 1'
_cell_length_a   11.22648100
_cell_length_b   7.36589100
_cell_length_c   11.98641516
_cell_angle_alpha   59.74073109
_cell_angle_beta   90.00000000
_cell_angle_gamma   90.00000000
_symmetry_Int_Tables_number   1
_chemical_formula_structural   Ho3Si3O10F
_chemical_formula_sum   'Ho12 Si12 O40 F4'
_cell_volume   856.14696069
_cell_formula_units_Z   4
loop_
 _symmetry_equiv_pos_site_id
 _symmetry_equiv_pos_as_xyz
  1  'x, y, z'
loop_
 _atom_site_type_symbol
 _atom_site_label
 _atom_site_symmetry_multiplicity
 _atom_site_fract_x
 _atom_site_fract_y
 _atom_site_fract_z
 _atom_site_occupancy
  Ho  Ho0  1  0.46923200  0.74409000  0.01827400  1
  Ho  Ho1  1  0.96923200  0.25591000  0.48172600  1
  Ho  Ho2  1  0.53076800  0.25591000  0.98172600  1
  Ho  Ho3  1  0.03076800  0.74409000  0.51827400  1
  Ho  Ho4  1  0.22916100  0.59602700  0.31087300  1
  Ho  Ho5  1  0.72916100  0.40397300  0.18912700  1
  Ho  Ho6  1  0.77083900  0.40397300  0.68912700  1
  Ho  Ho7  1  0.27083900  0.59602700  0.81087300  1
  Ho  Ho8  1  0.09847100  0.80559400  0.99681500  1
  Ho  Ho9  1  0.59847100  0.19440600  0.50318500  1
  Ho  Ho10  1  0.90152900  0.19440600  0.00318500  1
  Ho  Ho11  1  0.40152900  0.80559400  0.49681500  1
  Si  Si0  1  0.46343200  0.28631500  0.70843500  1
  Si  Si1  1  0.75575700  0.87602200  0.89011800  1
  Si  Si2  1  0.74424300  0.87602200  0.39011800  1
  Si  Si3  1  0.24424300  0.12397800  0.10988200  1
  Si  Si4  1  0.41381900  0.28515100  0.24059200  1
  Si  Si5  1  0.91381900  0.71484900  0.25940800  1
  Si  Si6  1  0.58618100  0.71484900  0.75940800  1
  Si  Si7  1  0.08618100  0.28515100  0.74059200  1
  Si  Si8  1  0.03656800  0.28631500  0.20843500  1
  Si  Si9  1  0.53656800  0.71368500  0.29156500  1
  Si  Si10  1  0.25575700  0.12397800  0.60988200  1
  Si  Si11  1  0.96343200  0.71368500  0.79156500  1
  O  O0  1  0.09062600  0.65782900  0.86998200  1
  O  O1  1  0.59062600  0.34217100  0.63001800  1
  O  O2  1  0.90937400  0.34217100  0.13001800  1
  O  O3  1  0.40937400  0.65782900  0.36998200  1
  O  O4  1  0.47823200  0.10390900  0.86209900  1
  O  O5  1  0.97823200  0.89609100  0.63790100  1
  O  O6  1  0.52176800  0.89609100  0.13790100  1
  O  O7  1  0.02176800  0.10390900  0.36209900  1
  O  O8  1  0.10391700  0.49595700  0.19136800  1
  O  O9  1  0.60391700  0.50404300  0.30863200  1
  O  O10  1  0.89608300  0.50404300  0.80863200  1
  O  O11  1  0.39608300  0.49595700  0.69136800  1
  O  O12  1  0.39212000  0.19914300  0.62148000  1
  O  O13  1  0.89212000  0.80085700  0.87852000  1
  O  O14  1  0.60788000  0.80085700  0.37852000  1
  O  O15  1  0.10788000  0.19914300  0.12148000  1
  O  O16  1  0.35677200  0.51433100  0.19734500  1
  O  O17  1  0.27440600  0.89632200  0.62065200  1
  O  O18  1  0.72559400  0.10367800  0.37934800  1
  O  O19  1  0.22559400  0.89632200  0.12065200  1
  O  O20  1  0.18102500  0.28751100  0.48144700  1
  O  O21  1  0.68102500  0.71248900  0.01855300  1
  O  O22  1  0.81897500  0.71248900  0.51855300  1
  O  O23  1  0.31897500  0.28751100  0.98144700  1
  O  O24  1  0.17839000  0.11569300  0.73068400  1
  O  O25  1  0.67839000  0.88430700  0.76931600  1
  O  O26  1  0.82161000  0.88430700  0.26931600  1
  O  O27  1  0.32161000  0.11569300  0.23068400  1
  O  O28  1  0.02451000  0.64889300  0.36349400  1
  O  O29  1  0.52451000  0.35110700  0.13650600  1
  O  O30  1  0.97549000  0.35110700  0.63650600  1
  O  O31  1  0.47549000  0.64889300  0.86349400  1
  O  O32  1  0.04974900  0.14827000  0.89221800  1
  O  O33  1  0.54974900  0.85173000  0.60778200  1
  O  O34  1  0.95025100  0.85173000  0.10778200  1
  O  O35  1  0.45025100  0.14827000  0.39221800  1
  O  O36  1  0.14322800  0.51433100  0.69734500  1
  O  O37  1  0.64322800  0.48566900  0.80265500  1
  O  O38  1  0.85677200  0.48566900  0.30265500  1
  O  O39  1  0.77440600  0.10367800  0.87934800  1
  F  F0  1  0.71436500  0.24353300  0.05936600  1
  F  F1  1  0.21436500  0.75646700  0.44063400  1
  F  F2  1  0.78563500  0.24353300  0.55936600  1
  F  F3  1  0.28563500  0.75646700  0.94063400  1
loop_
_geom_bond_atom_site_label_1
_geom_bond_atom_site_label_2
_geom_bond_distance
_geom_bond_site_symmetry_2
Ho0 O31 2.291227 1_554
Ho0 O6 2.296839 1_555
Ho0 O16 2.324706 1_555
Ho0 O4 2.353457 1_564
Ho0 O21 2.388895 1_555
Ho0 O29 2.576480 1_555
Ho1 O30 2.291227 1_555
Ho1 O7 2.296839 1_655
Ho1 O38 2.324706 1_555
Ho1 O5 2.353457 1_545
Ho1 O20 2.388895 1_655
Ho1 O28 2.576480 1_655
Ho2 O29 2.291227 1_556
Ho2 O4 2.296839 1_555
Ho2 O37 2.324706 1_555
Ho2 O6 2.353457 1_546
Ho2 O23 2.388895 1_555
Ho2 O31 2.576480 1_555
Ho3 O28 2.291227 1_555
Ho3 O5 2.296839 1_455
Ho3 O36 2.324706 1_555
Ho3 O7 2.353457 1_565
Ho3 O22 2.388895 1_455
Ho3 O30 2.576480 1_455
Ho4 O20 2.225733 1_555
Ho4 O19 2.238335 1_555
Ho4 O16 2.256451 1_555
Ho4 O3 2.264384 1_555
Ho4 O8 2.374088 1_555
Ho4 O28 2.464864 1_555
Ho5 O21 2.225733 1_555
Ho5 O18 2.238335 1_555
Ho5 O38 2.256451 1_555
Ho5 O2 2.264384 1_555
Ho5 O9 2.374088 1_555
Ho5 O29 2.464864 1_555
Ho6 O22 2.225733 1_555
Ho6 O39 2.238335 1_555
Ho6 O37 2.256451 1_555
Ho6 O1 2.264384 1_555
Ho6 O10 2.374088 1_555
Ho6 O30 2.464864 1_555
Ho7 O23 2.225733 1_555
Ho7 O17 2.238335 1_555
Ho7 O36 2.256451 1_555
Ho7 O0 2.264384 1_555
Ho7 O11 2.374088 1_555
Ho7 O31 2.464864 1_555
Ho8 O32 2.247854 1_565
Ho8 O34 2.260321 1_456
Ho8 O0 2.274048 1_555
Ho8 O8 2.298571 1_556
Ho8 O19 2.384625 1_556
Ho9 O33 2.247854 1_545
Ho9 O35 2.260321 1_555
Ho9 O1 2.274048 1_555
Ho9 O9 2.298571 1_555
Ho9 O18 2.384625 1_555
Ho10 O34 2.247854 1_545
Ho10 O32 2.260321 1_654
Ho10 O2 2.274048 1_555
Ho10 O10 2.298571 1_554
Ho10 O39 2.384625 1_554
Ho11 O35 2.247854 1_565
Ho11 O33 2.260321 1_555
Ho11 O3 2.274048 1_555
Ho11 O11 2.298571 1_555
Ho11 O17 2.384625 1_555
O0 Si11 1.643785 1_455
O1 Si0 1.643785 1_555
O2 Si8 1.643785 1_655
O3 Si9 1.643785 1_555
O4 Si0 1.652651 1_555
O5 Si11 1.652651 1_555
O6 Si9 1.652651 1_555
O7 Si8 1.652651 1_555
O8 Si8 1.636981 1_555
O9 Si9 1.636981 1_555
O10 Si11 1.636981 1_555
O11 Si0 1.636981 1_555
O12 Si10 1.657413 1_555
O12 Si0 1.677514 1_555
O13 Si1 1.657413 1_555
O13 Si11 1.677514 1_555
O14 Si2 1.657413 1_555
O14 Si9 1.677514 1_555
O15 Si3 1.657413 1_555
O15 Si8 1.677514 1_555
O16 Si4 1.626861 1_555
O17 Si10 1.629198 1_565
O18 Si2 1.629198 1_545
O19 Si3 1.629198 1_565
O20 Si10 1.629703 1_555
O21 Si1 1.629703 1_554
O22 Si2 1.629703 1_555
O23 Si3 1.629703 1_556
O24 Si10 1.663044 1_555
O24 Si7 1.671267 1_555
O25 Si1 1.663044 1_555
O25 Si6 1.671267 1_555
O26 Si2 1.663044 1_555
O26 Si5 1.671267 1_555
O27 Si3 1.663044 1_555
O27 Si4 1.671267 1_555
O28 Si5 1.651042 1_455
O29 Si4 1.651042 1_555
O30 Si7 1.651042 1_655
O31 Si6 1.651042 1_555
O32 Si7 1.624868 1_555
O33 Si6 1.624868 1_555
O34 Si5 1.624868 1_555
O35 Si4 1.624868 1_555
O36 Si7 1.626861 1_555
O37 Si6 1.626861 1_555
O38 Si5 1.626861 1_555
O39 Si1 1.629198 1_545
F0 Ho2 2.244371 1_554
F0 Ho10 2.290202 1_555
F0 Ho5 2.386603 1_555
F1 Ho3 2.244371 1_555
F1 Ho11 2.290202 1_555
F1 Ho4 2.386603 1_555
F2 Ho1 2.244371 1_555
F2 Ho9 2.290202 1_555
F2 Ho6 2.386603 1_555
F3 Ho0 2.244371 1_556
F3 Ho8 2.290202 1_555
F3 Ho7 2.386603 1_555
