# generated using pymatgen
data_Li3Co2O5
_symmetry_space_group_name_H-M   'P 1'
_cell_length_a   2.94426200
_cell_length_b   6.52476854
_cell_length_c   9.82958116
_cell_angle_alpha   78.63813399
_cell_angle_beta   86.71448705
_cell_angle_gamma   77.17577224
_symmetry_Int_Tables_number   1
_chemical_formula_structural   Li3Co2O5
_chemical_formula_sum   'Li6 Co4 O10'
_cell_volume   180.49555542
_cell_formula_units_Z   2
loop_
 _symmetry_equiv_pos_site_id
 _symmetry_equiv_pos_as_xyz
  1  'x, y, z'
loop_
 _atom_site_type_symbol
 _atom_site_label
 _atom_site_symmetry_multiplicity
 _atom_site_fract_x
 _atom_site_fract_y
 _atom_site_fract_z
 _atom_site_occupancy
  Li  Li0  1  0.80514100  0.89244500  0.40230700  1
  Li  Li1  1  0.00000000  0.50000000  0.00000000  1
  Li  Li2  1  0.41306200  0.69290400  0.20281500  1
  Li  Li3  1  0.58693800  0.30709600  0.79718500  1
  Li  Li4  1  0.19485900  0.10755500  0.59769300  1
  Li  Li5  1  0.50000000  0.50000000  0.50000000  1
  Co  Co0  1  0.90382200  0.68700500  0.69265100  1
  Co  Co1  1  0.09617800  0.31299500  0.30734900  1
  Co  Co2  1  0.29354600  0.89920600  0.89799400  1
  Co  Co3  1  0.70645400  0.10079400  0.10200600  1
  O  O0  1  0.32559700  0.79393300  0.56370000  1
  O  O1  1  0.53800500  0.38543800  0.16187600  1
  O  O2  1  0.95963100  0.57594200  0.34359300  1
  O  O3  1  0.14116900  0.18899600  0.96015000  1
  O  O4  1  0.74329000  0.98031900  0.75521900  1
  O  O5  1  0.25671000  0.01968100  0.24478100  1
  O  O6  1  0.46199500  0.61456200  0.83812400  1
  O  O7  1  0.85883100  0.81100400  0.03985000  1
  O  O8  1  0.04036900  0.42405800  0.65640700  1
  O  O9  1  0.67440300  0.20606700  0.43630000  1
loop_
_geom_bond_atom_site_label_1
_geom_bond_atom_site_label_2
_geom_bond_distance
_geom_bond_site_symmetry_2
Li0 O9 2.086192 1_565
Li0 O5 2.145225 1_665
Li0 O0 2.160491 1_555
Li0 O0 2.172016 1_655
Li0 O2 2.197083 1_555
Li0 O5 2.208879 1_565
Li1 O3 2.089036 1_554
Li1 O7 2.089036 1_455
Li1 O6 2.162281 1_554
Li1 O1 2.162281 1_455
Li1 O1 2.212322 1_555
Li1 O6 2.212322 1_454
Li2 O2 2.025828 1_455
Li2 O1 2.072530 1_555
Li2 O2 2.093063 1_555
Li2 O7 2.145687 1_555
Li2 O5 2.194807 1_565
Li2 O7 2.253362 1_455
Li3 O8 2.025828 1_655
Li3 O6 2.072530 1_555
Li3 O8 2.093063 1_555
Li3 O3 2.145687 1_555
Li3 O4 2.194807 1_545
Li3 O3 2.253362 1_655
Li4 O0 2.086192 1_545
Li4 O4 2.145225 1_445
Li4 O9 2.160491 1_555
Li4 O9 2.172016 1_455
Li4 O8 2.197083 1_555
Li4 O4 2.208879 1_545
Li5 O2 2.049283 1_555
Li5 O8 2.049283 1_555
Li5 O0 2.081581 1_555
Li5 O9 2.081581 1_555
Li5 O8 2.184185 1_655
Li5 O2 2.184185 1_455
Co0 O8 1.774905 1_655
Co0 O0 1.868491 1_655
Co0 O6 1.937473 1_555
Co0 O4 2.072000 1_555
Co0 O0 2.088866 1_555
Co0 O6 2.151081 1_655
Co1 O2 1.774905 1_455
Co1 O9 1.868491 1_455
Co1 O1 1.937473 1_555
Co1 O5 2.072000 1_555
Co1 O9 2.088866 1_555
Co1 O1 2.151081 1_455
Co2 O7 1.928712 1_456
Co2 O4 1.951547 1_555
Co2 O6 2.007465 1_555
Co2 O3 2.048635 1_565
Co2 O4 2.112282 1_455
Co2 O7 2.137800 1_556
Co3 O3 1.928712 1_654
Co3 O5 1.951547 1_555
Co3 O1 2.007465 1_555
Co3 O7 2.048635 1_545
Co3 O5 2.112282 1_655
Co3 O3 2.137800 1_554
