# generated using pymatgen
data_Mg149Cl
_symmetry_space_group_name_H-M   'P 1'
_cell_length_a   15.91366820
_cell_length_b   15.91369802
_cell_length_c   15.61346785
_cell_angle_alpha   90.00000000
_cell_angle_beta   90.00000000
_cell_angle_gamma   120.00006199
_symmetry_Int_Tables_number   1
_chemical_formula_structural   Mg149Cl
_chemical_formula_sum   'Mg149 Cl1'
_cell_volume   3424.29479031
_cell_formula_units_Z   1
loop_
 _symmetry_equiv_pos_site_id
 _symmetry_equiv_pos_as_xyz
  1  'x, y, z'
loop_
 _atom_site_type_symbol
 _atom_site_label
 _atom_site_symmetry_multiplicity
 _atom_site_fract_x
 _atom_site_fract_y
 _atom_site_fract_z
 _atom_site_occupancy
  Mg  Mg0  1  0.20260431  0.00088048  0.00000000  1
  Mg  Mg1  1  0.79827614  0.00088081  0.00000000  1
  Mg  Mg2  1  0.79975899  0.20024120  0.00000000  1
  Mg  Mg3  1  0.40048310  0.20024105  0.00000000  1
  Mg  Mg4  1  0.60041183  0.20082399  0.00000000  1
  Mg  Mg5  1  0.99911848  0.20172300  -0.00000000  1
  Mg  Mg6  1  0.20260431  0.20172383  0.00000000  1
  Mg  Mg7  1  0.19993214  0.39986520  0.00000000  1
  Mg  Mg8  1  0.60041183  0.39958784  -0.00000000  1
  Mg  Mg9  1  0.79917621  0.39958811  -0.00000000  1
  Mg  Mg10  1  0.40080153  0.40125898  -0.00000000  1
  Mg  Mg11  1  0.00045743  0.40125896  0.00000000  1
  Mg  Mg12  1  0.59874097  0.59919829  -0.00000000  1
  Mg  Mg13  1  0.00045743  0.59919847  0.00000000  1
  Mg  Mg14  1  0.79975899  0.59951779  0.00000000  1
  Mg  Mg15  1  0.20096191  0.60048145  0.00000000  1
  Mg  Mg16  1  0.39951964  0.60048152  0.00000000  1
  Mg  Mg17  1  0.99911848  0.79739548  -0.00000000  1
  Mg  Mg18  1  0.79827614  0.79739533  -0.00000000  1
  Mg  Mg19  1  0.39951964  0.79903812  0.00000000  1
  Mg  Mg20  1  0.19993214  0.80006794  -0.00000000  1
  Mg  Mg21  1  0.60013484  0.80006792  0.00000000  1
  Mg  Mg22  1  0.59874097  0.99954268  -0.00000000  1
  Mg  Mg23  1  0.40080153  0.99954255  -0.00000000  1
  Mg  Mg24  1  0.66666687  0.33333294  0.16604311  1
  Mg  Mg25  1  0.66703106  0.13335113  0.16626405  1
  Mg  Mg26  1  0.46632015  0.13335114  0.16626402  1
  Mg  Mg27  1  0.46632015  0.33296900  0.16626402  1
  Mg  Mg28  1  0.86664892  0.33296902  0.16626406  1
  Mg  Mg29  1  0.86664892  0.53367990  0.16626406  1
  Mg  Mg30  1  0.66703106  0.53367993  0.16626405  1
  Mg  Mg31  1  0.26655162  0.53310312  0.16638776  1
  Mg  Mg32  1  0.26655162  0.73344850  0.16638776  1
  Mg  Mg33  1  0.46689679  0.73344840  0.16638795  1
  Mg  Mg34  1  0.06671094  0.33314868  0.16650592  1
  Mg  Mg35  1  0.26643875  0.33314970  0.16650593  1
  Mg  Mg36  1  0.66685032  0.73356119  0.16650574  1
  Mg  Mg37  1  0.06671094  0.73356126  0.16650592  1
  Mg  Mg38  1  0.66685032  0.93328913  0.16650574  1
  Mg  Mg39  1  0.26643875  0.93328906  0.16650593  1
  Mg  Mg40  1  0.26582511  0.13291206  0.16679929  1
  Mg  Mg41  1  0.86708799  0.13291300  0.16679911  1
  Mg  Mg42  1  0.86708799  0.73417499  0.16679911  1
  Mg  Mg43  1  0.46649988  0.53350008  0.16684748  1
  Mg  Mg44  1  0.06700112  0.53350106  0.16684747  1
  Mg  Mg45  1  0.46649988  0.93299880  0.16684748  1
  Mg  Mg46  1  0.06693902  0.13387816  0.16834813  1
  Mg  Mg47  1  0.86612206  0.93306103  0.16834811  1
  Mg  Mg48  1  0.06693902  0.93306086  0.16834813  1
  Mg  Mg49  1  0.00000004  0.00000002  0.33171687  1
  Mg  Mg50  1  0.39981752  0.19990876  0.33276283  1
  Mg  Mg51  1  0.80009132  0.19990887  0.33276303  1
  Mg  Mg52  1  0.80009132  0.60018246  0.33276303  1
  Mg  Mg53  1  0.60012898  0.20025780  0.33288920  1
  Mg  Mg54  1  0.60012898  0.39987018  0.33288920  1
  Mg  Mg55  1  0.79974167  0.39987134  0.33288906  1
  Mg  Mg56  1  0.19997336  0.39994666  0.33286914  1
  Mg  Mg57  1  0.19997336  0.80002670  0.33286914  1
  Mg  Mg58  1  0.60005327  0.80002663  0.33286925  1
  Mg  Mg59  1  0.39991417  0.60008579  0.33317098  1
  Mg  Mg60  1  0.20017254  0.60008677  0.33317093  1
  Mg  Mg61  1  0.39991417  0.79982838  0.33317098  1
  Mg  Mg62  1  0.40024994  0.99998002  0.33345298  1
  Mg  Mg63  1  0.59973127  0.99998115  0.33345301  1
  Mg  Mg64  1  0.00001989  0.40026880  0.33345300  1
  Mg  Mg65  1  0.40024994  0.40026892  0.33345298  1
  Mg  Mg66  1  0.59973127  0.59975012  0.33345301  1
  Mg  Mg67  1  0.00001989  0.59975108  0.33345300  1
  Mg  Mg68  1  0.20036225  0.99997122  0.33411928  1
  Mg  Mg69  1  0.79960983  0.99997113  0.33411926  1
  Mg  Mg70  1  0.00002868  0.20039008  0.33411938  1
  Mg  Mg71  1  0.20036225  0.20039003  0.33411928  1
  Mg  Mg72  1  0.79960983  0.79963770  0.33411926  1
  Mg  Mg73  1  0.00002868  0.79963860  0.33411938  1
  Mg  Mg74  1  0.06651294  0.13302507  0.50000000  1
  Mg  Mg75  1  0.86649051  0.13350858  0.50000000  1
  Mg  Mg76  1  0.26701716  0.13350858  0.50000000  1
  Mg  Mg77  1  0.66675816  0.13346435  0.50000000  1
  Mg  Mg78  1  0.46670617  0.13346436  0.50000000  1
  Mg  Mg79  1  0.86653572  0.33324184  0.50000000  1
  Mg  Mg80  1  0.46670617  0.33324181  0.50000000  1
  Mg  Mg81  1  0.66666695  0.33333298  0.50000000  1
  Mg  Mg82  1  0.06707858  0.33359301  0.50000000  1
  Mg  Mg83  1  0.26651442  0.33359309  0.50000000  1
  Mg  Mg84  1  0.86653572  0.53329388  0.50000000  1
  Mg  Mg85  1  0.66675816  0.53329381  0.50000000  1
  Mg  Mg86  1  0.46667607  0.53332379  0.50000000  1
  Mg  Mg87  1  0.06664766  0.53332383  0.50000000  1
  Mg  Mg88  1  0.26661581  0.53323088  0.50000000  1
  Mg  Mg89  1  0.86649051  0.73298192  0.50000000  1
  Mg  Mg90  1  0.26661581  0.73338393  0.50000000  1
  Mg  Mg91  1  0.46676817  0.73338409  0.50000000  1
  Mg  Mg92  1  0.66640679  0.73348465  0.50000000  1
  Mg  Mg93  1  0.06707858  0.73348557  0.50000000  1
  Mg  Mg94  1  0.26651442  0.93292133  0.50000000  1
  Mg  Mg95  1  0.66640679  0.93292114  0.50000000  1
  Mg  Mg96  1  0.46667607  0.93335228  0.50000000  1
  Mg  Mg97  1  0.06651294  0.93348687  0.50000000  1
  Mg  Mg98  1  0.86697524  0.93348812  0.50000000  1
  Mg  Mg99  1  0.20036225  0.99997122  0.66588072  1
  Mg  Mg100  1  0.79960983  0.99997113  0.66588074  1
  Mg  Mg101  1  0.00002868  0.20039008  0.66588062  1
  Mg  Mg102  1  0.20036225  0.20039003  0.66588072  1
  Mg  Mg103  1  0.79960983  0.79963770  0.66588074  1
  Mg  Mg104  1  0.00002868  0.79963860  0.66588062  1
  Mg  Mg105  1  0.40024994  0.99998002  0.66654702  1
  Mg  Mg106  1  0.59973127  0.99998115  0.66654699  1
  Mg  Mg107  1  0.00001989  0.40026880  0.66654700  1
  Mg  Mg108  1  0.40024994  0.40026892  0.66654702  1
  Mg  Mg109  1  0.59973127  0.59975012  0.66654699  1
  Mg  Mg110  1  0.00001989  0.59975108  0.66654700  1
  Mg  Mg111  1  0.39991417  0.60008579  0.66682902  1
  Mg  Mg112  1  0.20017254  0.60008677  0.66682907  1
  Mg  Mg113  1  0.39991417  0.79982838  0.66682902  1
  Mg  Mg114  1  0.19997336  0.39994666  0.66712986  1
  Mg  Mg115  1  0.19997336  0.80002670  0.66712986  1
  Mg  Mg116  1  0.60005327  0.80002663  0.66712975  1
  Mg  Mg117  1  0.60012898  0.20025780  0.66711180  1
  Mg  Mg118  1  0.60012898  0.39987018  0.66711180  1
  Mg  Mg119  1  0.79974167  0.39987134  0.66711194  1
  Mg  Mg120  1  0.39981752  0.19990876  0.66723717  1
  Mg  Mg121  1  0.80009132  0.19990887  0.66723697  1
  Mg  Mg122  1  0.80009132  0.60018246  0.66723697  1
  Mg  Mg123  1  0.00000004  0.00000002  0.66828313  1
  Mg  Mg124  1  0.06693902  0.13387816  0.83165187  1
  Mg  Mg125  1  0.86612206  0.93306103  0.83165189  1
  Mg  Mg126  1  0.06693902  0.93306086  0.83165187  1
  Mg  Mg127  1  0.46649988  0.53350008  0.83315252  1
  Mg  Mg128  1  0.06700112  0.53350106  0.83315253  1
  Mg  Mg129  1  0.46649988  0.93299880  0.83315252  1
  Mg  Mg130  1  0.26582511  0.13291206  0.83319971  1
  Mg  Mg131  1  0.86708799  0.13291300  0.83319989  1
  Mg  Mg132  1  0.86708799  0.73417499  0.83319989  1
  Mg  Mg133  1  0.06671094  0.33314868  0.83349408  1
  Mg  Mg134  1  0.26643875  0.33314970  0.83349407  1
  Mg  Mg135  1  0.66685032  0.73356119  0.83349426  1
  Mg  Mg136  1  0.06671094  0.73356126  0.83349408  1
  Mg  Mg137  1  0.66685032  0.93328913  0.83349426  1
  Mg  Mg138  1  0.26643875  0.93328906  0.83349407  1
  Mg  Mg139  1  0.26655162  0.53310312  0.83361224  1
  Mg  Mg140  1  0.26655162  0.73344850  0.83361224  1
  Mg  Mg141  1  0.46689679  0.73344840  0.83361205  1
  Mg  Mg142  1  0.66703106  0.13335113  0.83373595  1
  Mg  Mg143  1  0.46632015  0.13335114  0.83373598  1
  Mg  Mg144  1  0.46632015  0.33296900  0.83373598  1
  Mg  Mg145  1  0.86664892  0.33296902  0.83373594  1
  Mg  Mg146  1  0.86664892  0.53367990  0.83373594  1
  Mg  Mg147  1  0.66703106  0.53367993  0.83373595  1
  Mg  Mg148  1  0.66666687  0.33333294  0.83395689  1
  Cl  Cl0  1  -0.00000088  -0.00000044  0.00000000  1
loop_
_geom_bond_atom_site_label_1
_geom_bond_atom_site_label_2
_geom_bond_distance
_geom_bond_site_symmetry_2
Mg0 Mg3 3.160834 1_555
Mg0 Mg23 3.164744 1_545
Mg0 Mg39 3.168628 1_545
Mg0 Mg138 3.168628 1_544
Mg0 Mg20 3.174622 1_545
Mg0 Mg40 3.177331 1_555
Mg0 Mg130 3.177344 1_554
Mg1 Mg2 3.160828 1_555
Mg1 Mg22 3.164743 1_545
Mg1 Mg137 3.168623 1_544
Mg1 Mg38 3.168623 1_545
Mg1 Mg21 3.174626 1_545
Mg1 Mg41 3.177334 1_555
Mg1 Mg131 3.177346 1_554
Mg2 Mg5 3.160816 1_555
Mg2 Mg25 3.175700 1_555
Mg2 Mg28 3.175701 1_555
Mg2 Mg4 3.176992 1_555
Mg2 Mg9 3.176994 1_555
Mg2 Mg22 3.196395 1_545
Mg2 Mg41 3.197880 1_555
Mg3 Mg6 3.160842 1_555
Mg3 Mg4 3.176971 1_555
Mg3 Mg8 3.176979 1_555
Mg3 Mg40 3.197886 1_555
Mg4 Mg8 3.163068 1_555
Mg4 Mg9 3.163068 1_555
Mg5 Mg7 3.174639 1_655
Mg6 Mg7 3.174638 1_555
Mg8 Mg9 3.163068 1_555
Mg10 Mg12 3.149942 1_555
Mg10 Mg6 3.164744 1_555
Mg10 Mg43 3.179298 1_555
Mg10 Mg127 3.179298 1_554
Mg10 Mg16 3.180616 1_555
Mg10 Mg144 3.184369 1_554
Mg10 Mg27 3.184369 1_555
Mg10 Mg7 3.185537 1_555
Mg10 Mg8 3.189912 1_555
Mg10 Mg35 3.191829 1_555
Mg10 Mg134 3.191829 1_554
Mg10 Mg3 3.196408 1_555
Mg11 Mg13 3.149950 1_555
Mg11 Mg5 3.164755 1_455
Mg11 Mg128 3.179306 1_554
Mg11 Mg44 3.179306 1_555
Mg11 Mg15 3.180610 1_555
Mg11 Mg28 3.184367 1_455
Mg11 Mg145 3.184367 1_454
Mg11 Mg7 3.185522 1_555
Mg11 Mg9 3.189911 1_455
Mg11 Mg133 3.191839 1_554
Mg11 Mg34 3.191839 1_555
Mg11 Mg2 3.196392 1_455
Mg12 Mg18 3.164743 1_555
Mg12 Mg43 3.179296 1_555
Mg12 Mg127 3.179296 1_554
Mg12 Mg16 3.180602 1_555
Mg12 Mg30 3.184368 1_555
Mg12 Mg147 3.184368 1_554
Mg12 Mg21 3.185546 1_555
Mg12 Mg8 3.189918 1_555
Mg12 Mg135 3.191830 1_554
Mg12 Mg36 3.191830 1_555
Mg12 Mg14 3.196395 1_555
Mg13 Mg17 3.164755 1_455
Mg13 Mg44 3.179298 1_555
Mg13 Mg15 3.180602 1_555
Mg13 Mg29 3.184367 1_455
Mg13 Mg146 3.184367 1_454
Mg13 Mg20 3.185530 1_555
Mg13 Mg9 3.189911 1_455
Mg13 Mg136 3.191831 1_554
Mg13 Mg37 3.191831 1_555
Mg13 Mg14 3.196392 1_455
Mg14 Mg17 3.160816 1_555
Mg14 Mg18 3.160828 1_555
Mg14 Mg147 3.175700 1_554
Mg14 Mg30 3.175700 1_555
Mg14 Mg29 3.175701 1_555
Mg14 Mg146 3.175701 1_554
Mg14 Mg8 3.176992 1_555
Mg14 Mg9 3.176994 1_555
Mg14 Mg42 3.197880 1_555
Mg15 Mg19 3.159773 1_555
Mg15 Mg16 3.159781 1_555
Mg15 Mg32 3.179200 1_555
Mg15 Mg31 3.179208 1_555
Mg15 Mg7 3.184384 1_555
Mg15 Mg20 3.184384 1_555
Mg15 Mg44 3.192934 1_555
Mg16 Mg19 3.159770 1_555
Mg16 Mg33 3.179201 1_555
Mg16 Mg31 3.179206 1_555
Mg16 Mg21 3.184369 1_555
Mg16 Mg7 3.184387 1_555
Mg16 Mg43 3.192943 1_555
Mg17 Mg37 3.168634 1_655
Mg17 Mg20 3.174631 1_655
Mg17 Mg42 3.177318 1_555
Mg18 Mg36 3.168623 1_555
Mg18 Mg21 3.174634 1_555
Mg18 Mg42 3.177334 1_555
Mg19 Mg33 3.179201 1_555
Mg19 Mg32 3.179206 1_555
Mg19 Mg22 3.180602 1_555
Mg19 Mg23 3.180616 1_555
Mg19 Mg21 3.184361 1_555
Mg19 Mg20 3.184395 1_555
Mg19 Mg45 3.192935 1_555
Mg20 Mg32 3.181330 1_555
Mg20 Mg37 3.182694 1_555
Mg20 Mg39 3.182695 1_555
Mg20 Mg23 3.185529 1_555
Mg21 Mg33 3.181323 1_555
Mg21 Mg38 3.182694 1_555
Mg21 Mg36 3.182702 1_555
Mg21 Mg22 3.185530 1_555
Mg22 Mg23 3.149942 1_555
Mg22 Mg45 3.179296 1_555
Mg22 Mg25 3.184368 1_565
Mg22 Mg4 3.189918 1_565
Mg22 Mg38 3.191830 1_555
Mg23 Mg45 3.179306 1_555
Mg23 Mg26 3.184369 1_565
Mg23 Mg4 3.189912 1_565
Mg23 Mg39 3.191829 1_555
Mg23 Mg3 3.196392 1_565
Mg24 Mg4 3.171133 1_555
Mg24 Mg9 3.171134 1_555
Mg24 Mg8 3.171141 1_555
Mg24 Mg28 3.185349 1_555
Mg24 Mg26 3.185353 1_555
Mg24 Mg25 3.185354 1_555
Mg24 Mg29 3.185357 1_555
Mg24 Mg27 3.185361 1_555
Mg24 Mg30 3.185370 1_555
Mg24 Mg55 3.185870 1_555
Mg24 Mg54 3.185876 1_555
Mg24 Mg53 3.185876 1_555
Mg25 Mg28 3.176653 1_555
Mg25 Mg51 3.181326 1_555
Mg25 Mg38 3.182291 1_545
Mg25 Mg4 3.186564 1_555
Mg25 Mg41 3.187142 1_555
Mg25 Mg53 3.188892 1_555
Mg25 Mg45 3.189778 1_545
Mg25 Mg63 3.192608 1_545
Mg25 Mg26 3.194047 1_555
Mg26 Mg3 3.175694 1_555
Mg26 Mg27 3.176658 1_555
Mg26 Mg50 3.181326 1_555
Mg26 Mg39 3.182287 1_545
Mg26 Mg4 3.186559 1_555
Mg26 Mg40 3.187135 1_555
Mg26 Mg53 3.188891 1_555
Mg26 Mg45 3.189791 1_545
Mg26 Mg62 3.192617 1_545
Mg27 Mg3 3.175702 1_555
Mg27 Mg50 3.181326 1_555
Mg27 Mg35 3.182287 1_555
Mg27 Mg8 3.186559 1_555
Mg27 Mg40 3.187142 1_555
Mg27 Mg54 3.188891 1_555
Mg27 Mg43 3.189775 1_555
Mg27 Mg65 3.192609 1_555
Mg27 Mg30 3.194047 1_555
Mg28 Mg51 3.181327 1_555
Mg28 Mg34 3.182294 1_655
Mg28 Mg9 3.186562 1_555
Mg28 Mg41 3.187141 1_555
Mg28 Mg55 3.188897 1_555
Mg28 Mg44 3.189783 1_655
Mg28 Mg64 3.192613 1_655
Mg28 Mg29 3.194052 1_555
Mg29 Mg30 3.176653 1_555
Mg29 Mg52 3.181327 1_555
Mg29 Mg37 3.182286 1_655
Mg29 Mg9 3.186562 1_555
Mg29 Mg42 3.187141 1_555
Mg29 Mg55 3.188889 1_555
Mg29 Mg44 3.189775 1_655
Mg29 Mg67 3.192613 1_655
Mg30 Mg52 3.181326 1_555
Mg30 Mg36 3.182291 1_555
Mg30 Mg8 3.186564 1_555
Mg30 Mg42 3.187142 1_555
Mg30 Mg54 3.188900 1_555
Mg30 Mg43 3.189770 1_555
Mg30 Mg66 3.192608 1_555
Mg31 Mg44 3.178760 1_555
Mg31 Mg43 3.178765 1_555
Mg31 Mg35 3.181101 1_555
Mg31 Mg34 3.181104 1_555
Mg31 Mg7 3.181322 1_555
Mg31 Mg56 3.181868 1_555
Mg31 Mg59 3.187358 1_555
Mg31 Mg60 3.187360 1_555
Mg31 Mg33 3.188227 1_555
Mg31 Mg32 3.188236 1_555
Mg32 Mg44 3.178752 1_555
Mg32 Mg45 3.178757 1_555
Mg32 Mg37 3.181096 1_555
Mg32 Mg39 3.181101 1_555
Mg32 Mg57 3.181868 1_555
Mg32 Mg60 3.187352 1_555
Mg32 Mg61 3.187358 1_555
Mg32 Mg33 3.188227 1_555
Mg33 Mg45 3.178756 1_555
Mg33 Mg43 3.178772 1_555
Mg33 Mg38 3.181098 1_555
Mg33 Mg36 3.181098 1_555
Mg33 Mg58 3.181865 1_555
Mg33 Mg61 3.187358 1_555
Mg33 Mg59 3.187358 1_555
Mg34 Mg5 3.168626 1_455
Mg34 Mg46 3.173078 1_555
Mg34 Mg35 3.178394 1_555
Mg34 Mg56 3.181203 1_555
Mg34 Mg41 3.181623 1_455
Mg34 Mg7 3.182694 1_555
Mg34 Mg44 3.186045 1_555
Mg34 Mg64 3.193015 1_555
Mg34 Mg70 3.193183 1_555
Mg35 Mg6 3.168628 1_555
Mg35 Mg46 3.173089 1_555
Mg35 Mg56 3.181204 1_555
Mg35 Mg40 3.181653 1_555
Mg35 Mg7 3.182703 1_555
Mg35 Mg43 3.186015 1_555
Mg35 Mg65 3.193013 1_555
Mg35 Mg71 3.193190 1_555
Mg36 Mg47 3.173091 1_555
Mg36 Mg38 3.178410 1_555
Mg36 Mg58 3.181209 1_555
Mg36 Mg42 3.181646 1_555
Mg36 Mg43 3.186015 1_555
Mg36 Mg66 3.193017 1_555
Mg36 Mg72 3.193189 1_555
Mg37 Mg48 3.173094 1_555
Mg37 Mg39 3.178402 1_555
Mg37 Mg57 3.181203 1_555
Mg37 Mg42 3.181631 1_455
Mg37 Mg44 3.186014 1_555
Mg37 Mg67 3.193007 1_555
Mg37 Mg73 3.193190 1_555
Mg38 Mg47 3.173091 1_555
Mg38 Mg58 3.181209 1_555
Mg38 Mg41 3.181646 1_565
Mg38 Mg45 3.186007 1_555
Mg38 Mg63 3.193017 1_555
Mg38 Mg69 3.193189 1_555
Mg39 Mg48 3.173089 1_555
Mg39 Mg57 3.181204 1_555
Mg39 Mg40 3.181637 1_565
Mg39 Mg45 3.186023 1_555
Mg39 Mg62 3.193013 1_555
Mg39 Mg68 3.193182 1_555
Mg40 Mg48 3.172807 1_545
Mg40 Mg46 3.172814 1_555
Mg40 Mg6 3.177339 1_555
Mg40 Mg50 3.181936 1_555
Mg40 Mg71 3.190906 1_555
Mg40 Mg68 3.190906 1_545
Mg41 Mg46 3.172803 1_655
Mg41 Mg47 3.172818 1_545
Mg41 Mg5 3.177318 1_555
Mg41 Mg51 3.181944 1_555
Mg41 Mg70 3.190907 1_655
Mg41 Mg69 3.190917 1_545
Mg42 Mg48 3.172803 1_655
Mg42 Mg47 3.172818 1_555
Mg42 Mg52 3.181944 1_555
Mg42 Mg73 3.190907 1_655
Mg42 Mg72 3.190909 1_555
Mg43 Mg59 3.179973 1_555
Mg43 Mg65 3.184050 1_555
Mg43 Mg66 3.184050 1_555
Mg44 Mg60 3.179971 1_555
Mg44 Mg67 3.184051 1_555
Mg44 Mg64 3.184059 1_555
Mg45 Mg61 3.179965 1_555
Mg45 Mg62 3.184050 1_555
Mg45 Mg63 3.184050 1_555
Mg46 Mg49 3.148110 1_555
Mg46 Mg70 3.174938 1_555
Mg46 Mg71 3.174943 1_555
Mg47 Mg49 3.148107 1_665
Mg47 Mg69 3.174938 1_555
Mg47 Mg72 3.174946 1_555
Mg48 Mg49 3.148110 1_565
Mg48 Mg73 3.174938 1_555
Mg48 Mg68 3.174943 1_555
Mg49 Mg69 3.188934 1_445
Mg49 Mg71 3.188940 1_555
Mg49 Mg70 3.188940 1_555
Mg49 Mg73 3.188940 1_545
Mg49 Mg72 3.188942 1_445
Mg49 Mg68 3.188948 1_545
Mg49 Mg98 3.203850 1_445
Mg49 Mg74 3.203854 1_555
Mg49 Mg97 3.203862 1_545
Mg50 Mg71 3.177972 1_555
Mg50 Mg68 3.177980 1_545
Mg50 Mg54 3.184909 1_555
Mg50 Mg53 3.184917 1_555
Mg50 Mg65 3.185054 1_555
Mg50 Mg62 3.185070 1_545
Mg50 Mg76 3.188694 1_555
Mg50 Mg78 3.192917 1_555
Mg50 Mg80 3.192917 1_555
Mg51 Mg70 3.177985 1_655
Mg51 Mg69 3.177995 1_545
Mg51 Mg53 3.184915 1_555
Mg51 Mg55 3.184929 1_555
Mg51 Mg63 3.185047 1_545
Mg51 Mg64 3.185053 1_655
Mg51 Mg75 3.188686 1_555
Mg51 Mg77 3.192914 1_555
Mg51 Mg79 3.192914 1_555
Mg52 Mg72 3.177979 1_555
Mg52 Mg73 3.177985 1_655
Mg52 Mg55 3.184913 1_555
Mg52 Mg54 3.184923 1_555
Mg52 Mg66 3.185047 1_555
Mg52 Mg67 3.185053 1_655
Mg52 Mg89 3.188686 1_555
Mg52 Mg85 3.192914 1_555
Mg52 Mg84 3.192914 1_555
Mg53 Mg54 3.176571 1_555
Mg53 Mg55 3.176577 1_555
Mg53 Mg63 3.183994 1_545
Mg53 Mg62 3.183998 1_545
Mg53 Mg81 3.189257 1_555
Mg53 Mg78 3.192013 1_555
Mg53 Mg77 3.192013 1_555
Mg54 Mg55 3.176561 1_555
Mg54 Mg65 3.183998 1_555
Mg54 Mg66 3.184010 1_555
Mg54 Mg81 3.189257 1_555
Mg54 Mg80 3.192013 1_555
Mg54 Mg85 3.192021 1_555
Mg55 Mg67 3.184007 1_655
Mg55 Mg64 3.184015 1_655
Mg55 Mg81 3.189253 1_555
Mg55 Mg84 3.192014 1_555
Mg55 Mg79 3.192022 1_555
Mg56 Mg70 3.178830 1_555
Mg56 Mg71 3.178843 1_555
Mg56 Mg59 3.183374 1_555
Mg56 Mg60 3.183389 1_555
Mg56 Mg64 3.184573 1_555
Mg56 Mg65 3.184587 1_555
Mg56 Mg82 3.188083 1_555
Mg56 Mg83 3.188083 1_555
Mg56 Mg88 3.191171 1_555
Mg57 Mg68 3.178827 1_555
Mg57 Mg73 3.178830 1_555
Mg57 Mg60 3.183373 1_555
Mg57 Mg61 3.183374 1_555
Mg57 Mg67 3.184573 1_555
Mg57 Mg62 3.184579 1_555
Mg57 Mg93 3.188083 1_555
Mg57 Mg94 3.188083 1_555
Mg57 Mg90 3.191178 1_555
Mg58 Mg69 3.178828 1_555
Mg58 Mg72 3.178836 1_555
Mg58 Mg59 3.183374 1_555
Mg58 Mg61 3.183374 1_555
Mg58 Mg66 3.184594 1_555
Mg58 Mg63 3.184594 1_555
Mg58 Mg95 3.188081 1_555
Mg58 Mg92 3.188089 1_555
Mg58 Mg91 3.191174 1_555
Mg59 Mg60 3.178630 1_555
Mg59 Mg61 3.178643 1_555
Mg59 Mg66 3.182500 1_555
Mg59 Mg65 3.182503 1_555
Mg59 Mg88 3.187430 1_555
Mg59 Mg91 3.187431 1_555
Mg59 Mg86 3.189223 1_555
Mg60 Mg61 3.178622 1_555
Mg60 Mg67 3.182498 1_555
Mg60 Mg64 3.182506 1_555
Mg60 Mg90 3.187423 1_555
Mg60 Mg88 3.187439 1_555
Mg60 Mg87 3.189229 1_555
Mg61 Mg62 3.182487 1_555
Mg61 Mg63 3.182500 1_555
Mg61 Mg90 3.187430 1_555
Mg61 Mg91 3.187431 1_555
Mg61 Mg96 3.189223 1_555
Mg62 Mg63 3.174471 1_555
Mg62 Mg68 3.180893 1_555
Mg62 Mg96 3.181891 1_555
Mg62 Mg78 3.185316 1_565
Mg62 Mg94 3.187313 1_555
Mg63 Mg69 3.180898 1_555
Mg63 Mg96 3.181899 1_555
Mg63 Mg77 3.185306 1_565
Mg63 Mg95 3.187314 1_555
Mg64 Mg67 3.174501 1_555
Mg64 Mg70 3.180897 1_555
Mg64 Mg87 3.181899 1_555
Mg64 Mg79 3.185312 1_455
Mg64 Mg82 3.187306 1_555
Mg65 Mg66 3.174479 1_555
Mg65 Mg71 3.180893 1_555
Mg65 Mg86 3.181898 1_555
Mg65 Mg80 3.185308 1_555
Mg65 Mg83 3.187313 1_555
Mg66 Mg72 3.180890 1_555
Mg66 Mg86 3.181899 1_555
Mg66 Mg85 3.185306 1_555
Mg66 Mg92 3.187306 1_555
Mg67 Mg73 3.180897 1_555
Mg67 Mg87 3.181899 1_555
Mg67 Mg84 3.185312 1_455
Mg67 Mg93 3.187306 1_555
Mg68 Mg94 3.174582 1_555
Mg68 Mg76 3.177249 1_565
Mg68 Mg97 3.179747 1_555
Mg68 Mg73 3.188034 1_555
Mg68 Mg71 3.189404 1_565
Mg69 Mg95 3.174588 1_555
Mg69 Mg75 3.177250 1_565
Mg69 Mg98 3.179742 1_555
Mg69 Mg72 3.188046 1_555
Mg69 Mg70 3.189400 1_665
Mg70 Mg82 3.174588 1_555
Mg70 Mg75 3.177252 1_455
Mg70 Mg74 3.179747 1_555
Mg70 Mg71 3.188042 1_555
Mg71 Mg83 3.174590 1_555
Mg71 Mg76 3.177241 1_555
Mg71 Mg74 3.179747 1_555
Mg72 Mg92 3.174588 1_555
Mg72 Mg89 3.177242 1_555
Mg72 Mg98 3.179758 1_555
Mg72 Mg73 3.189392 1_655
Mg73 Mg93 3.174588 1_555
Mg73 Mg89 3.177252 1_455
Mg73 Mg97 3.179739 1_555
Mg74 Mg98 3.175371 1_445
Mg74 Mg97 3.175391 1_545
Mg74 Mg76 3.186917 1_555
Mg74 Mg75 3.186945 1_455
Mg74 Mg83 3.187275 1_555
Mg74 Mg82 3.187286 1_555
Mg75 Mg77 3.178122 1_555
Mg75 Mg79 3.178135 1_555
Mg75 Mg98 3.186929 1_545
Mg75 Mg95 3.188082 1_545
Mg75 Mg82 3.188092 1_655
Mg76 Mg99 3.177249 1_545
Mg76 Mg78 3.178137 1_555
Mg76 Mg80 3.178137 1_555
Mg76 Mg97 3.186925 1_545
Mg76 Mg94 3.188092 1_545
Mg76 Mg83 3.188092 1_555
Mg77 Mg79 3.179193 1_555
Mg77 Mg81 3.181375 1_555
Mg77 Mg78 3.183561 1_555
Mg77 Mg96 3.184279 1_545
Mg77 Mg95 3.188592 1_545
Mg78 Mg80 3.179198 1_555
Mg78 Mg81 3.181376 1_555
Mg78 Mg96 3.184284 1_545
Mg78 Mg94 3.188584 1_545
Mg79 Mg81 3.181371 1_555
Mg79 Mg84 3.183568 1_555
Mg79 Mg87 3.184277 1_655
Mg79 Mg82 3.188582 1_655
Mg80 Mg81 3.181384 1_555
Mg80 Mg85 3.183561 1_555
Mg80 Mg86 3.184284 1_555
Mg80 Mg83 3.188584 1_555
Mg81 Mg84 3.181379 1_555
Mg81 Mg85 3.181391 1_555
Mg82 Mg83 3.173755 1_555
Mg82 Mg88 3.176170 1_555
Mg82 Mg87 3.181890 1_555
Mg83 Mg88 3.176169 1_555
Mg83 Mg86 3.181883 1_555
Mg84 Mg89 3.178135 1_555
Mg84 Mg85 3.179193 1_555
Mg84 Mg87 3.184277 1_655
Mg84 Mg93 3.188582 1_655
Mg85 Mg89 3.178122 1_555
Mg85 Mg86 3.184279 1_555
Mg85 Mg92 3.188576 1_555
Mg86 Mg92 3.181876 1_555
Mg86 Mg88 3.182954 1_555
Mg86 Mg91 3.182967 1_555
Mg87 Mg93 3.181890 1_555
Mg87 Mg90 3.182959 1_555
Mg87 Mg88 3.182967 1_555
Mg88 Mg91 3.185165 1_555
Mg88 Mg90 3.185175 1_555
Mg89 Mg97 3.186937 1_655
Mg89 Mg98 3.186945 1_555
Mg89 Mg92 3.188074 1_555
Mg89 Mg93 3.188092 1_655
Mg90 Mg93 3.176178 1_555
Mg90 Mg94 3.176185 1_555
Mg90 Mg96 3.182962 1_555
Mg90 Mg91 3.185157 1_555
Mg91 Mg95 3.176175 1_555
Mg91 Mg92 3.176183 1_555
Mg91 Mg96 3.182966 1_555
Mg92 Mg95 3.173772 1_555
Mg92 Mg98 3.187294 1_555
Mg93 Mg94 3.173755 1_555
Mg93 Mg97 3.187271 1_555
Mg94 Mg99 3.174582 1_555
Mg94 Mg96 3.181883 1_555
Mg94 Mg97 3.187267 1_555
Mg95 Mg96 3.181884 1_555
Mg95 Mg98 3.187278 1_555
Mg97 Mg98 3.175387 1_455
Mg97 Mg99 3.179747 1_555
Mg100 Mg95 3.174588 1_555
Mg100 Mg125 3.174938 1_555
Mg100 Mg75 3.177250 1_565
Mg100 Mg121 3.177995 1_565
Mg100 Mg116 3.178828 1_555
Mg100 Mg98 3.179742 1_555
Mg100 Mg106 3.180898 1_555
Mg100 Mg103 3.188046 1_555
Mg100 Mg123 3.188934 1_665
Mg100 Mg101 3.189400 1_665
Mg100 Mg131 3.190904 1_565
Mg100 Mg137 3.193189 1_555
Mg101 Mg82 3.174588 1_555
Mg101 Mg124 3.174938 1_555
Mg101 Mg75 3.177252 1_455
Mg101 Mg121 3.177985 1_455
Mg101 Mg114 3.178830 1_555
Mg101 Mg74 3.179747 1_555
Mg101 Mg107 3.180897 1_555
Mg101 Mg102 3.188042 1_555
Mg101 Mg123 3.188940 1_555
Mg101 Mg131 3.190894 1_455
Mg101 Mg133 3.193183 1_555
Mg102 Mg83 3.174590 1_555
Mg102 Mg124 3.174943 1_555
Mg102 Mg76 3.177241 1_555
Mg102 Mg120 3.177972 1_555
Mg102 Mg114 3.178843 1_555
Mg102 Mg74 3.179747 1_555
Mg102 Mg108 3.180893 1_555
Mg102 Mg123 3.188940 1_555
Mg102 Mg99 3.189404 1_545
Mg102 Mg130 3.190894 1_555
Mg102 Mg134 3.193190 1_555
Mg103 Mg92 3.174588 1_555
Mg103 Mg125 3.174946 1_555
Mg103 Mg89 3.177242 1_555
Mg103 Mg122 3.177979 1_555
Mg103 Mg116 3.178836 1_555
Mg103 Mg98 3.179758 1_555
Mg103 Mg109 3.180890 1_555
Mg103 Mg123 3.188942 1_665
Mg103 Mg104 3.189392 1_655
Mg103 Mg132 3.190896 1_555
Mg103 Mg135 3.193189 1_555
Mg104 Mg93 3.174588 1_555
Mg104 Mg126 3.174938 1_555
Mg104 Mg89 3.177252 1_455
Mg104 Mg122 3.177985 1_455
Mg104 Mg115 3.178830 1_555
Mg104 Mg97 3.179739 1_555
Mg104 Mg110 3.180897 1_555
Mg104 Mg99 3.188034 1_555
Mg104 Mg123 3.188940 1_565
Mg104 Mg132 3.190894 1_455
Mg104 Mg136 3.193190 1_555
Mg105 Mg106 3.174471 1_555
Mg105 Mg99 3.180893 1_555
Mg105 Mg96 3.181891 1_555
Mg105 Mg113 3.182487 1_555
Mg105 Mg117 3.183998 1_565
Mg105 Mg129 3.184050 1_555
Mg105 Mg115 3.184579 1_555
Mg105 Mg120 3.185070 1_565
Mg105 Mg78 3.185316 1_565
Mg105 Mg94 3.187313 1_555
Mg105 Mg143 3.192617 1_565
Mg105 Mg138 3.193013 1_555
Mg106 Mg96 3.181899 1_555
Mg106 Mg113 3.182500 1_555
Mg106 Mg117 3.183995 1_565
Mg106 Mg129 3.184050 1_555
Mg106 Mg116 3.184594 1_555
Mg106 Mg121 3.185047 1_565
Mg106 Mg77 3.185306 1_565
Mg106 Mg95 3.187314 1_555
Mg106 Mg142 3.192608 1_565
Mg106 Mg137 3.193017 1_555
Mg107 Mg110 3.174501 1_555
Mg107 Mg87 3.181899 1_555
Mg107 Mg112 3.182506 1_555
Mg107 Mg119 3.184016 1_455
Mg107 Mg128 3.184059 1_555
Mg107 Mg114 3.184572 1_555
Mg107 Mg121 3.185053 1_455
Mg107 Mg79 3.185312 1_455
Mg107 Mg82 3.187306 1_555
Mg107 Mg145 3.192613 1_455
Mg107 Mg133 3.193015 1_555
Mg108 Mg109 3.174479 1_555
Mg108 Mg86 3.181898 1_555
Mg108 Mg111 3.182503 1_555
Mg108 Mg118 3.183998 1_555
Mg108 Mg127 3.184050 1_555
Mg108 Mg114 3.184587 1_555
Mg108 Mg120 3.185054 1_555
Mg108 Mg80 3.185308 1_555
Mg108 Mg83 3.187313 1_555
Mg108 Mg144 3.192609 1_555
Mg108 Mg134 3.193013 1_555
Mg109 Mg86 3.181899 1_555
Mg109 Mg111 3.182500 1_555
Mg109 Mg118 3.184010 1_555
Mg109 Mg127 3.184050 1_555
Mg109 Mg116 3.184594 1_555
Mg109 Mg122 3.185047 1_555
Mg109 Mg85 3.185306 1_555
Mg109 Mg92 3.187306 1_555
Mg109 Mg147 3.192608 1_555
Mg109 Mg135 3.193017 1_555
Mg110 Mg87 3.181899 1_555
Mg110 Mg112 3.182498 1_555
Mg110 Mg119 3.184007 1_455
Mg110 Mg128 3.184051 1_555
Mg110 Mg115 3.184573 1_555
Mg110 Mg122 3.185053 1_455
Mg110 Mg84 3.185312 1_455
Mg110 Mg93 3.187306 1_555
Mg110 Mg146 3.192613 1_455
Mg110 Mg136 3.193007 1_555
Mg111 Mg112 3.178630 1_555
Mg111 Mg113 3.178643 1_555
Mg111 Mg127 3.179973 1_555
Mg111 Mg116 3.183374 1_555
Mg111 Mg114 3.183374 1_555
Mg111 Mg139 3.187358 1_555
Mg111 Mg141 3.187358 1_555
Mg111 Mg88 3.187430 1_555
Mg111 Mg91 3.187431 1_555
Mg111 Mg86 3.189223 1_555
Mg112 Mg113 3.178622 1_555
Mg112 Mg128 3.179971 1_555
Mg112 Mg115 3.183373 1_555
Mg112 Mg114 3.183389 1_555
Mg112 Mg140 3.187352 1_555
Mg112 Mg139 3.187360 1_555
Mg112 Mg90 3.187423 1_555
Mg112 Mg88 3.187439 1_555
Mg112 Mg87 3.189229 1_555
Mg113 Mg129 3.179965 1_555
Mg113 Mg115 3.183374 1_555
Mg113 Mg116 3.183374 1_555
Mg113 Mg141 3.187358 1_555
Mg113 Mg140 3.187358 1_555
Mg113 Mg90 3.187430 1_555
Mg113 Mg91 3.187431 1_555
Mg113 Mg96 3.189223 1_555
Mg114 Mg133 3.181216 1_555
Mg114 Mg134 3.181217 1_555
Mg114 Mg139 3.181881 1_555
Mg114 Mg82 3.188070 1_555
Mg114 Mg83 3.188071 1_555
Mg114 Mg88 3.191158 1_555
Mg115 Mg99 3.178827 1_555
Mg115 Mg136 3.181216 1_555
Mg115 Mg138 3.181217 1_555
Mg115 Mg140 3.181881 1_555
Mg115 Mg93 3.188070 1_555
Mg115 Mg94 3.188071 1_555
Mg115 Mg90 3.191166 1_555
Mg116 Mg135 3.181222 1_555
Mg116 Mg137 3.181222 1_555
Mg116 Mg141 3.181878 1_555
Mg116 Mg95 3.188068 1_555
Mg116 Mg92 3.188076 1_555
Mg116 Mg91 3.191161 1_555
Mg117 Mg118 3.176571 1_555
Mg117 Mg119 3.176577 1_555
Mg117 Mg121 3.184915 1_555
Mg117 Mg120 3.184917 1_555
Mg117 Mg148 3.185863 1_555
Mg117 Mg143 3.188878 1_555
Mg117 Mg142 3.188879 1_555
Mg117 Mg81 3.189270 1_555
Mg117 Mg78 3.192025 1_555
Mg117 Mg77 3.192026 1_555
Mg118 Mg119 3.176561 1_555
Mg118 Mg120 3.184909 1_555
Mg118 Mg122 3.184923 1_555
Mg118 Mg148 3.185863 1_555
Mg118 Mg144 3.188878 1_555
Mg118 Mg147 3.188887 1_555
Mg118 Mg81 3.189270 1_555
Mg118 Mg80 3.192025 1_555
Mg118 Mg85 3.192034 1_555
Mg119 Mg122 3.184913 1_555
Mg119 Mg121 3.184929 1_555
Mg119 Mg148 3.185857 1_555
Mg119 Mg146 3.188876 1_555
Mg119 Mg145 3.188884 1_555
Mg119 Mg81 3.189266 1_555
Mg119 Mg84 3.192027 1_555
Mg119 Mg79 3.192035 1_555
Mg120 Mg99 3.177980 1_545
Mg120 Mg144 3.181326 1_555
Mg120 Mg143 3.181326 1_555
Mg120 Mg130 3.181924 1_555
Mg120 Mg76 3.188694 1_555
Mg120 Mg78 3.192917 1_555
Mg120 Mg80 3.192917 1_555
Mg121 Mg142 3.181326 1_555
Mg121 Mg145 3.181327 1_555
Mg121 Mg131 3.181932 1_555
Mg121 Mg75 3.188686 1_555
Mg121 Mg77 3.192914 1_555
Mg121 Mg79 3.192914 1_555
Mg122 Mg147 3.181326 1_555
Mg122 Mg146 3.181327 1_555
Mg122 Mg132 3.181931 1_555
Mg122 Mg89 3.188686 1_555
Mg122 Mg85 3.192914 1_555
Mg122 Mg84 3.192914 1_555
Mg123 Mg125 3.148107 1_445
Mg123 Mg126 3.148110 1_545
Mg123 Mg124 3.148110 1_555
Mg123 Mg99 3.188948 1_545
Mg123 Mg98 3.203850 1_445
Mg123 Mg74 3.203854 1_555
Mg123 Mg97 3.203862 1_545
Mg124 Mg131 3.172803 1_455
Mg124 Mg130 3.172814 1_555
Mg124 Mg133 3.173078 1_555
Mg124 Mg134 3.173089 1_555
Mg125 Mg132 3.172818 1_555
Mg125 Mg131 3.172818 1_565
Mg125 Mg135 3.173091 1_555
Mg125 Mg137 3.173091 1_555
Mg126 Mg132 3.172803 1_455
Mg126 Mg130 3.172806 1_565
Mg126 Mg138 3.173089 1_555
Mg126 Mg136 3.173094 1_555
Mg126 Mg99 3.174943 1_555
Mg127 Mg139 3.178765 1_555
Mg127 Mg141 3.178772 1_555
Mg127 Mg134 3.186015 1_555
Mg127 Mg135 3.186015 1_555
Mg127 Mg147 3.189770 1_555
Mg127 Mg144 3.189775 1_555
Mg127 Mg16 3.192943 1_556
Mg128 Mg140 3.178752 1_555
Mg128 Mg139 3.178760 1_555
Mg128 Mg13 3.179298 1_556
Mg128 Mg136 3.186014 1_555
Mg128 Mg133 3.186045 1_555
Mg128 Mg146 3.189775 1_455
Mg128 Mg145 3.189783 1_455
Mg128 Mg15 3.192934 1_556
Mg129 Mg141 3.178756 1_555
Mg129 Mg140 3.178757 1_555
Mg129 Mg22 3.179296 1_556
Mg129 Mg23 3.179306 1_556
Mg129 Mg137 3.186007 1_555
Mg129 Mg138 3.186023 1_555
Mg129 Mg142 3.189778 1_565
Mg129 Mg143 3.189791 1_565
Mg129 Mg19 3.192935 1_556
Mg130 Mg6 3.177352 1_556
Mg130 Mg138 3.181637 1_545
Mg130 Mg134 3.181653 1_555
Mg130 Mg143 3.187135 1_555
Mg130 Mg144 3.187142 1_555
Mg130 Mg99 3.190894 1_545
Mg130 Mg3 3.197899 1_556
Mg131 Mg5 3.177331 1_556
Mg131 Mg133 3.181623 1_655
Mg131 Mg137 3.181646 1_545
Mg131 Mg145 3.187141 1_555
Mg131 Mg142 3.187142 1_555
Mg131 Mg2 3.197893 1_556
Mg132 Mg17 3.177331 1_556
Mg132 Mg18 3.177346 1_556
Mg132 Mg136 3.181631 1_655
Mg132 Mg135 3.181646 1_555
Mg132 Mg146 3.187141 1_555
Mg132 Mg147 3.187142 1_555
Mg132 Mg14 3.197893 1_556
Mg133 Mg5 3.168626 1_456
Mg133 Mg134 3.178394 1_555
Mg133 Mg139 3.181104 1_555
Mg133 Mg145 3.182294 1_455
Mg133 Mg7 3.182694 1_556
Mg134 Mg6 3.168628 1_556
Mg134 Mg139 3.181101 1_555
Mg134 Mg144 3.182287 1_555
Mg134 Mg7 3.182703 1_556
Mg135 Mg18 3.168623 1_556
Mg135 Mg137 3.178410 1_555
Mg135 Mg141 3.181098 1_555
Mg135 Mg147 3.182291 1_555
Mg135 Mg21 3.182702 1_556
Mg136 Mg17 3.168634 1_456
Mg136 Mg138 3.178402 1_555
Mg136 Mg140 3.181096 1_555
Mg136 Mg146 3.182286 1_455
Mg136 Mg20 3.182694 1_556
Mg137 Mg141 3.181098 1_555
Mg137 Mg142 3.182291 1_565
Mg137 Mg21 3.182694 1_556
Mg137 Mg22 3.191830 1_556
Mg138 Mg140 3.181101 1_555
Mg138 Mg143 3.182287 1_565
Mg138 Mg20 3.182695 1_556
Mg138 Mg23 3.191829 1_556
Mg138 Mg99 3.193182 1_555
Mg139 Mg16 3.179206 1_556
Mg139 Mg15 3.179208 1_556
Mg139 Mg7 3.181322 1_556
Mg139 Mg141 3.188227 1_555
Mg139 Mg140 3.188236 1_555
Mg140 Mg15 3.179200 1_556
Mg140 Mg19 3.179206 1_556
Mg140 Mg20 3.181330 1_556
Mg140 Mg141 3.188227 1_555
Mg141 Mg19 3.179201 1_556
Mg141 Mg16 3.179201 1_556
Mg141 Mg21 3.181323 1_556
Mg142 Mg2 3.175700 1_556
Mg142 Mg145 3.176653 1_555
Mg142 Mg22 3.184368 1_546
Mg142 Mg148 3.185354 1_555
Mg142 Mg4 3.186564 1_556
Mg142 Mg143 3.194047 1_555
Mg143 Mg3 3.175694 1_556
Mg143 Mg144 3.176658 1_555
Mg143 Mg23 3.184369 1_546
Mg143 Mg148 3.185353 1_555
Mg143 Mg4 3.186559 1_556
Mg144 Mg3 3.175702 1_556
Mg144 Mg148 3.185361 1_555
Mg144 Mg8 3.186559 1_556
Mg144 Mg147 3.194047 1_555
Mg145 Mg2 3.175701 1_556
Mg145 Mg148 3.185349 1_555
Mg145 Mg9 3.186562 1_556
Mg145 Mg146 3.194052 1_555
Mg146 Mg147 3.176653 1_555
Mg146 Mg148 3.185357 1_555
Mg146 Mg9 3.186562 1_556
Mg147 Mg148 3.185370 1_555
Mg147 Mg8 3.186564 1_556
Mg148 Mg4 3.171133 1_556
Mg148 Mg9 3.171134 1_556
Mg148 Mg8 3.171141 1_556
