# generated using pymatgen
data_Al2Mo3C
_symmetry_space_group_name_H-M   'P 1'
_cell_length_a   6.85359978
_cell_length_b   6.85359978
_cell_length_c   6.85359978
_cell_angle_alpha   90.00000000
_cell_angle_beta   90.00000000
_cell_angle_gamma   90.00000000
_symmetry_Int_Tables_number   1
_chemical_formula_structural   Al2Mo3C
_chemical_formula_sum   'Al8 Mo12 C4'
_cell_volume   321.92612337
_cell_formula_units_Z   4
loop_
 _symmetry_equiv_pos_site_id
 _symmetry_equiv_pos_as_xyz
  1  'x, y, z'
loop_
 _atom_site_type_symbol
 _atom_site_label
 _atom_site_symmetry_multiplicity
 _atom_site_fract_x
 _atom_site_fract_y
 _atom_site_fract_z
 _atom_site_occupancy
  Al  Al0  1  0.56681707  0.43318293  0.93318293  1
  Al  Al1  1  0.68318293  0.68318293  0.68318293  1
  Al  Al2  1  0.93318293  0.56681707  0.43318293  1
  Al  Al3  1  0.43318293  0.93318293  0.56681707  1
  Al  Al4  1  0.18318293  0.81681707  0.31681707  1
  Al  Al5  1  0.81681707  0.31681707  0.18318293  1
  Al  Al6  1  0.31681707  0.18318293  0.81681707  1
  Al  Al7  1  0.06681707  0.06681707  0.06681707  1
  Mo  Mo0  1  0.62500000  0.29842529  0.54842529  1
  Mo  Mo1  1  0.70157471  0.04842529  0.87500000  1
  Mo  Mo2  1  0.54842529  0.62500000  0.29842529  1
  Mo  Mo3  1  0.95157471  0.37500000  0.79842529  1
  Mo  Mo4  1  0.29842529  0.54842529  0.62500000  1
  Mo  Mo5  1  0.45157471  0.12500000  0.20157471  1
  Mo  Mo6  1  0.04842529  0.87500000  0.70157471  1
  Mo  Mo7  1  0.79842529  0.95157471  0.37500000  1
  Mo  Mo8  1  0.20157471  0.45157471  0.12500000  1
  Mo  Mo9  1  0.87500000  0.70157471  0.04842529  1
  Mo  Mo10  1  0.37500000  0.79842529  0.95157471  1
  Mo  Mo11  1  0.12500000  0.20157471  0.45157471  1
  C  C0  1  0.87500000  0.12500000  0.62500000  1
  C  C1  1  0.12500000  0.62500000  0.87500000  1
  C  C2  1  0.62500000  0.87500000  0.12500000  1
  C  C3  1  0.37500000  0.37500000  0.37500000  1
loop_
_geom_bond_atom_site_label_1
_geom_bond_atom_site_label_2
_geom_bond_distance
_geom_bond_site_symmetry_2
Al0 Al1 2.550985 1_555
Al0 Al6 2.550985 1_555
Al0 Al5 2.550985 1_556
Al0 Mo0 2.822346 1_555
Al0 Mo3 2.822346 1_555
Al0 Mo1 2.822346 1_555
Al0 Mo8 2.830247 1_556
Al0 Mo2 2.830247 1_556
Al0 Mo10 2.830247 1_555
Al0 Mo4 2.910091 1_555
Al0 Mo9 2.910091 1_556
Al0 Mo5 2.910091 1_556
Al1 Al2 2.550985 1_555
Al1 Al3 2.550985 1_555
Al1 Mo4 2.822346 1_555
Al1 Mo2 2.822346 1_555
Al1 Mo0 2.822346 1_555
Al1 Mo9 2.830247 1_556
Al1 Mo6 2.830247 1_655
Al1 Mo1 2.830247 1_565
Al1 Mo3 2.910091 1_555
Al1 Mo7 2.910091 1_555
Al1 Mo10 2.910091 1_555
Al2 Al5 2.550985 1_555
Al2 Al4 2.550985 1_655
Al2 Mo2 2.822346 1_555
Al2 Mo9 2.822346 1_555
Al2 Mo7 2.822346 1_555
Al2 Mo11 2.830247 1_655
Al2 Mo4 2.830247 1_655
Al2 Mo3 2.830247 1_555
Al2 Mo0 2.910091 1_555
Al2 Mo6 2.910091 1_655
Al2 Mo8 2.910091 1_655
Al3 Al4 2.550985 1_555
Al3 Al6 2.550985 1_565
Al3 Mo4 2.822346 1_555
Al3 Mo6 2.822346 1_555
Al3 Mo10 2.822346 1_555
Al3 Mo5 2.830247 1_565
Al3 Mo0 2.830247 1_565
Al3 Mo7 2.830247 1_555
Al3 Mo1 2.910091 1_565
Al3 Mo2 2.910091 1_555
Al3 Mo11 2.910091 1_565
Al4 Al7 2.550985 1_565
Al4 Mo7 2.822346 1_455
Al4 Mo6 2.822346 1_555
Al4 Mo11 2.822346 1_565
Al4 Mo10 2.830247 1_554
Al4 Mo8 2.830247 1_555
Al4 Mo2 2.830247 1_555
Al4 Mo4 2.910091 1_555
Al4 Mo5 2.910091 1_565
Al4 Mo9 2.910091 1_455
Al5 Al7 2.550985 1_655
Al5 Mo3 2.822346 1_554
Al5 Mo8 2.822346 1_655
Al5 Mo9 2.822346 1_555
Al5 Mo7 2.830247 1_545
Al5 Mo5 2.830247 1_555
Al5 Mo0 2.830247 1_555
Al5 Mo2 2.910091 1_555
Al5 Mo11 2.910091 1_655
Al5 Mo1 2.910091 1_554
Al6 Al7 2.550985 1_556
Al6 Mo10 2.822346 1_545
Al6 Mo1 2.822346 1_555
Al6 Mo5 2.822346 1_556
Al6 Mo3 2.830247 1_455
Al6 Mo11 2.830247 1_555
Al6 Mo4 2.830247 1_555
Al6 Mo8 2.910091 1_556
Al6 Mo0 2.910091 1_555
Al6 Mo6 2.910091 1_545
Al7 Mo8 2.822346 1_555
Al7 Mo5 2.822346 1_555
Al7 Mo11 2.822346 1_555
Al7 Mo6 2.830247 1_544
Al7 Mo9 2.830247 1_445
Al7 Mo1 2.830247 1_454
Al7 Mo7 2.910091 1_445
Al7 Mo3 2.910091 1_454
Al7 Mo10 2.910091 1_544
C0 Mo7 2.150327 1_545
C0 Mo0 2.150327 1_555
C0 Mo6 2.150327 1_645
C0 Mo1 2.150327 1_555
C0 Mo3 2.150327 1_555
C0 Mo11 2.150327 1_655
C1 Mo3 2.150327 1_455
C1 Mo6 2.150327 1_555
C1 Mo9 2.150327 1_456
C1 Mo4 2.150327 1_555
C1 Mo10 2.150327 1_555
C1 Mo8 2.150327 1_556
C2 Mo10 2.150327 1_554
C2 Mo2 2.150327 1_555
C2 Mo9 2.150327 1_555
C2 Mo1 2.150327 1_564
C2 Mo7 2.150327 1_555
C2 Mo5 2.150327 1_565
C3 Mo8 2.150327 1_555
C3 Mo5 2.150327 1_555
C3 Mo11 2.150327 1_555
C3 Mo4 2.150327 1_555
C3 Mo2 2.150327 1_555
C3 Mo0 2.150327 1_555
