# generated using pymatgen
data_BPd5
_symmetry_space_group_name_H-M   'P 1'
_cell_length_a   6.35452471
_cell_length_b   6.42396433
_cell_length_c   8.17395188
_cell_angle_alpha   90.00000000
_cell_angle_beta   90.00000000
_cell_angle_gamma   89.68616734
_symmetry_Int_Tables_number   1
_chemical_formula_structural   BPd5
_chemical_formula_sum   'B4 Pd20'
_cell_volume   333.66584670
_cell_formula_units_Z   4
loop_
 _symmetry_equiv_pos_site_id
 _symmetry_equiv_pos_as_xyz
  1  'x, y, z'
loop_
 _atom_site_type_symbol
 _atom_site_label
 _atom_site_symmetry_multiplicity
 _atom_site_fract_x
 _atom_site_fract_y
 _atom_site_fract_z
 _atom_site_occupancy
  B  B0  1  0.55556396  0.65925595  0.36669113  1
  B  B1  1  0.05556396  0.15925595  0.13330887  1
  B  B2  1  0.44443604  0.34074405  0.63330887  1
  B  B3  1  0.94443604  0.84074405  0.86669113  1
  Pd  Pd0  1  0.55030433  0.65080238  0.11670943  1
  Pd  Pd1  1  0.05030433  0.15080238  0.38329057  1
  Pd  Pd2  1  0.44969567  0.34919762  0.88329057  1
  Pd  Pd3  1  0.94969567  0.84919762  0.61670943  1
  Pd  Pd4  1  0.55163458  0.65140999  0.62648885  1
  Pd  Pd5  1  0.05163458  0.15140999  0.87351115  1
  Pd  Pd6  1  0.44836542  0.34859001  0.37351115  1
  Pd  Pd7  1  0.94836542  0.84859001  0.12648885  1
  Pd  Pd8  1  0.65327107  0.95999864  0.37510642  1
  Pd  Pd9  1  0.15327107  0.45999864  0.12489358  1
  Pd  Pd10  1  0.34672893  0.04000136  0.62489358  1
  Pd  Pd11  1  0.84672893  0.54000136  0.87510642  1
  Pd  Pd12  1  0.64072077  0.95157696  0.87380100  1
  Pd  Pd13  1  0.14072077  0.45157696  0.62619900  1
  Pd  Pd14  1  0.35927923  0.04842304  0.12619900  1
  Pd  Pd15  1  0.85927923  0.54842304  0.37380100  1
  Pd  Pd16  1  0.74450363  0.25398896  0.12594051  1
  Pd  Pd17  1  0.24450363  0.75398896  0.37405949  1
  Pd  Pd18  1  0.25549637  0.74601104  0.87405949  1
  Pd  Pd19  1  0.75549637  0.24601104  0.62594051  1
loop_
_geom_bond_atom_site_label_1
_geom_bond_atom_site_label_2
_geom_bond_distance
_geom_bond_site_symmetry_2
B0 Pd8 2.033676 1_555
B0 Pd0 2.044338 1_555
B0 Pd15 2.054268 1_555
B0 Pd17 2.065891 1_555
B0 Pd6 2.113025 1_555
B0 Pd4 2.124322 1_555
B1 Pd9 2.033676 1_555
B1 Pd1 2.044338 1_555
B1 Pd14 2.054268 1_555
B1 Pd16 2.065891 1_455
B1 Pd7 2.113025 1_445
B1 Pd5 2.124322 1_554
B2 Pd10 2.033676 1_555
B2 Pd2 2.044338 1_555
B2 Pd13 2.054268 1_555
B2 Pd19 2.065891 1_555
B2 Pd4 2.113025 1_555
B2 Pd6 2.124322 1_555
B3 Pd11 2.033676 1_555
B3 Pd3 2.044338 1_555
B3 Pd12 2.054268 1_555
B3 Pd18 2.065891 1_655
B3 Pd5 2.113025 1_665
B3 Pd7 2.124322 1_556
