# generated using pymatgen
data_Co3Ni
_symmetry_space_group_name_H-M   'P 1'
_cell_length_a   4.94588831
_cell_length_b   4.94589263
_cell_length_c   4.00013232
_cell_angle_alpha   89.99999863
_cell_angle_beta   89.99999974
_cell_angle_gamma   119.99932504
_symmetry_Int_Tables_number   1
_chemical_formula_structural   Co3Ni
_chemical_formula_sum   'Co6 Ni2'
_cell_volume   84.74165303
_cell_formula_units_Z   2
loop_
 _symmetry_equiv_pos_site_id
 _symmetry_equiv_pos_as_xyz
  1  'x, y, z'
loop_
 _atom_site_type_symbol
 _atom_site_label
 _atom_site_symmetry_multiplicity
 _atom_site_fract_x
 _atom_site_fract_y
 _atom_site_fract_z
 _atom_site_occupancy
  Co  Co0  1  0.16499813  0.32999950  0.24999940  1
  Co  Co1  1  0.83500241  0.16500312  0.74999957  1
  Co  Co2  1  0.32999554  0.16499405  0.74999954  1
  Co  Co3  1  0.83500332  0.67000452  0.74999958  1
  Co  Co4  1  0.16499966  0.83500063  0.24999942  1
  Co  Co5  1  0.67000431  0.83500428  0.24999944  1
  Ni  Ni0  1  0.66666568  0.33333294  0.24999938  1
  Ni  Ni1  1  0.33333495  0.66666895  0.74999967  1
loop_
_geom_bond_atom_site_label_1
_geom_bond_atom_site_label_2
_geom_bond_distance
_geom_bond_site_symmetry_2
Co0 Co5 2.448214 1_445
Co0 Co4 2.448215 1_545
Co0 Co1 2.449113 1_454
Co0 Co1 2.449114 1_455
Co0 Co2 2.449123 1_554
Co0 Co2 2.449124 1_555
Co0 Ni1 2.465722 1_554
Co0 Ni1 2.465724 1_555
Co0 Ni0 2.472981 1_455
Co0 Ni0 2.472990 1_555
Co0 Co4 2.497678 1_555
Co0 Co5 2.497727 1_555
Co1 Co2 2.448203 1_655
Co1 Co3 2.448212 1_545
Co1 Co5 2.449122 1_546
Co1 Co5 2.449123 1_545
Co1 Ni0 2.465706 1_556
Co1 Ni0 2.465707 1_555
Co1 Ni1 2.473008 1_655
Co1 Ni1 2.473016 1_545
Co1 Co3 2.497680 1_555
Co1 Co2 2.497685 1_555
Co2 Co3 2.448196 1_445
Co2 Co4 2.449108 1_546
Co2 Co4 2.449109 1_545
Co2 Ni0 2.465723 1_556
Co2 Ni0 2.465724 1_555
Co2 Ni1 2.472962 1_545
Co2 Ni1 2.473014 1_555
Co2 Co3 2.497745 1_555
Co3 Co5 2.449113 1_556
Co3 Co5 2.449114 1_555
Co3 Co4 2.449115 1_656
Co3 Co4 2.449116 1_655
Co3 Ni0 2.465727 1_556
Co3 Ni0 2.465729 1_555
Co3 Ni1 2.472982 1_655
Co3 Ni1 2.472988 1_555
Co4 Co5 2.448201 1_455
Co4 Ni1 2.465707 1_554
Co4 Ni1 2.465708 1_555
Co4 Ni0 2.473008 1_565
Co4 Ni0 2.473016 1_455
Co4 Co5 2.497688 1_555
Co5 Ni1 2.465721 1_554
Co5 Ni1 2.465723 1_555
Co5 Ni0 2.472977 1_565
Co5 Ni0 2.472998 1_555
