# generated using pymatgen
data_HfMg
_symmetry_space_group_name_H-M   'P 1'
_cell_length_a   6.06345966
_cell_length_b   6.06345966
_cell_length_c   22.84813200
_cell_angle_alpha   90.00000000
_cell_angle_beta   90.00000000
_cell_angle_gamma   119.99999627
_symmetry_Int_Tables_number   1
_chemical_formula_structural   HfMg
_chemical_formula_sum   'Hf16 Mg16'
_cell_volume   727.48213389
_cell_formula_units_Z   16
loop_
 _symmetry_equiv_pos_site_id
 _symmetry_equiv_pos_as_xyz
  1  'x, y, z'
loop_
 _atom_site_type_symbol
 _atom_site_label
 _atom_site_symmetry_multiplicity
 _atom_site_fract_x
 _atom_site_fract_y
 _atom_site_fract_z
 _atom_site_occupancy
  Hf  Hf0_0  1  0.16666650  0.33333350  0.47339100  1
  Hf  Hf0_1  1  0.16666650  0.33333350  0.97339100  1
  Hf  Hf0_2  1  0.16666650  0.83333350  0.47339100  1
  Hf  Hf0_3  1  0.16666650  0.83333350  0.97339100  1
  Hf  Hf0_4  1  0.66666650  0.33333350  0.47339100  1
  Hf  Hf0_5  1  0.66666650  0.33333350  0.97339100  1
  Hf  Hf0_6  1  0.66666650  0.83333350  0.47339100  1
  Hf  Hf0_7  1  0.66666650  0.83333350  0.97339100  1
  Hf  Hf1_0  1  0.33333350  0.16666650  0.22339100  1
  Hf  Hf1_1  1  0.33333350  0.16666650  0.72339100  1
  Hf  Hf1_2  1  0.33333350  0.66666650  0.22339100  1
  Hf  Hf1_3  1  0.33333350  0.66666650  0.72339100  1
  Hf  Hf1_4  1  0.83333350  0.16666650  0.22339100  1
  Hf  Hf1_5  1  0.83333350  0.16666650  0.72339100  1
  Hf  Hf1_6  1  0.83333350  0.66666650  0.22339100  1
  Hf  Hf1_7  1  0.83333350  0.66666650  0.72339100  1
  Mg  Mg0_0  1  0.16666650  0.33333350  0.33910900  1
  Mg  Mg0_1  1  0.16666650  0.33333350  0.83910900  1
  Mg  Mg0_2  1  0.16666650  0.83333350  0.33910900  1
  Mg  Mg0_3  1  0.16666650  0.83333350  0.83910900  1
  Mg  Mg0_4  1  0.66666650  0.33333350  0.33910900  1
  Mg  Mg0_5  1  0.66666650  0.33333350  0.83910900  1
  Mg  Mg0_6  1  0.66666650  0.83333350  0.33910900  1
  Mg  Mg0_7  1  0.66666650  0.83333350  0.83910900  1
  Mg  Mg1_0  1  0.33333350  0.16666650  0.08910900  1
  Mg  Mg1_1  1  0.33333350  0.16666650  0.58910900  1
  Mg  Mg1_2  1  0.33333350  0.66666650  0.08910900  1
  Mg  Mg1_3  1  0.33333350  0.66666650  0.58910900  1
  Mg  Mg1_4  1  0.83333350  0.16666650  0.08910900  1
  Mg  Mg1_5  1  0.83333350  0.16666650  0.58910900  1
  Mg  Mg1_6  1  0.83333350  0.66666650  0.08910900  1
  Mg  Mg1_7  1  0.83333350  0.66666650  0.58910900  1
loop_
_geom_bond_atom_site_label_1
_geom_bond_atom_site_label_2
_geom_bond_distance
_geom_bond_site_symmetry_2
Hf0_0 Hf0_4 3.031730 1_555
Hf0_0 Hf0_2 3.031730 1_555
Hf0_0 Hf0_4 3.031730 1_455
Hf0_0 Hf0_2 3.031730 1_545
Hf0_0 Hf0_6 3.031730 1_445
Hf0_0 Hf0_6 3.031730 1_555
Hf0_0 Mg0_0 3.068093 1_555
Hf0_0 Mg1_3 3.170837 1_555
Hf0_0 Mg1_5 3.170837 1_455
Hf0_0 Mg1_1 3.170840 1_555
Hf0_1 Hf0_5 3.031730 1_555
Hf0_1 Hf0_3 3.031730 1_555
Hf0_1 Hf0_5 3.031730 1_455
Hf0_1 Hf0_3 3.031730 1_545
Hf0_1 Hf0_7 3.031730 1_445
Hf0_1 Hf0_7 3.031730 1_555
Hf0_1 Mg0_1 3.068093 1_555
Hf0_1 Mg1_2 3.170837 1_556
Hf0_1 Mg1_4 3.170837 1_456
Hf0_1 Mg1_0 3.170840 1_556
Hf0_2 Hf0_6 3.031730 1_455
Hf0_2 Hf0_6 3.031730 1_555
Hf0_2 Hf0_4 3.031730 1_565
Hf0_2 Hf0_4 3.031730 1_455
Hf0_2 Mg0_2 3.068093 1_555
Hf0_2 Mg1_7 3.170837 1_455
Hf0_2 Mg1_1 3.170837 1_565
Hf0_2 Mg1_3 3.170840 1_555
Hf0_3 Hf0_7 3.031730 1_455
Hf0_3 Hf0_7 3.031730 1_555
Hf0_3 Hf0_5 3.031730 1_565
Hf0_3 Hf0_5 3.031730 1_455
Hf0_3 Mg0_3 3.068093 1_555
Hf0_3 Mg1_6 3.170837 1_456
Hf0_3 Mg1_0 3.170837 1_566
Hf0_3 Mg1_2 3.170840 1_556
Hf0_4 Hf0_6 3.031730 1_555
Hf0_4 Hf0_6 3.031730 1_545
Hf0_4 Mg0_4 3.068093 1_555
Hf0_4 Mg1_1 3.170837 1_555
Hf0_4 Mg1_7 3.170837 1_555
Hf0_4 Mg1_5 3.170840 1_555
Hf0_5 Hf0_7 3.031730 1_555
Hf0_5 Hf0_7 3.031730 1_545
Hf0_5 Mg0_5 3.068093 1_555
Hf0_5 Mg1_0 3.170837 1_556
Hf0_5 Mg1_6 3.170837 1_556
Hf0_5 Mg1_4 3.170840 1_556
Hf0_6 Mg0_6 3.068093 1_555
Hf0_6 Mg1_5 3.170837 1_565
Hf0_6 Mg1_3 3.170837 1_555
Hf0_6 Mg1_7 3.170840 1_555
Hf0_7 Mg0_7 3.068093 1_555
Hf0_7 Mg1_4 3.170837 1_566
Hf0_7 Mg1_2 3.170837 1_556
Hf0_7 Mg1_6 3.170840 1_556
Hf1_0 Hf1_4 3.031730 1_555
Hf1_0 Hf1_4 3.031730 1_455
Hf1_0 Hf1_2 3.031730 1_555
Hf1_0 Hf1_2 3.031730 1_545
Hf1_0 Hf1_6 3.031730 1_445
Hf1_0 Hf1_6 3.031730 1_555
Hf1_0 Mg1_0 3.068093 1_555
Hf1_0 Mg0_4 3.170837 1_555
Hf1_0 Mg0_2 3.170837 1_545
Hf1_0 Mg0_0 3.170840 1_555
Hf1_1 Hf1_5 3.031730 1_555
Hf1_1 Hf1_3 3.031730 1_545
Hf1_1 Hf1_5 3.031730 1_455
Hf1_1 Hf1_3 3.031730 1_555
Hf1_1 Hf1_7 3.031730 1_445
Hf1_1 Hf1_7 3.031730 1_555
Hf1_1 Mg1_1 3.068093 1_555
Hf1_1 Mg0_5 3.170837 1_555
Hf1_1 Mg0_3 3.170837 1_545
Hf1_1 Mg0_1 3.170840 1_555
Hf1_2 Hf1_6 3.031730 1_455
Hf1_2 Hf1_6 3.031730 1_555
Hf1_2 Hf1_4 3.031730 1_565
Hf1_2 Hf1_4 3.031730 1_455
Hf1_2 Mg1_2 3.068093 1_555
Hf1_2 Mg0_0 3.170837 1_555
Hf1_2 Mg0_6 3.170837 1_555
Hf1_2 Mg0_2 3.170840 1_555
Hf1_3 Hf1_7 3.031730 1_555
Hf1_3 Hf1_7 3.031730 1_455
Hf1_3 Hf1_5 3.031730 1_565
Hf1_3 Hf1_5 3.031730 1_455
Hf1_3 Mg1_3 3.068093 1_555
Hf1_3 Mg0_1 3.170837 1_555
Hf1_3 Mg0_7 3.170837 1_555
Hf1_3 Mg0_3 3.170840 1_555
Hf1_4 Hf1_6 3.031730 1_545
Hf1_4 Hf1_6 3.031730 1_555
Hf1_4 Mg1_4 3.068093 1_555
Hf1_4 Mg0_0 3.170837 1_655
Hf1_4 Mg0_6 3.170837 1_545
Hf1_4 Mg0_4 3.170840 1_555
Hf1_5 Hf1_7 3.031730 1_545
Hf1_5 Hf1_7 3.031730 1_555
Hf1_5 Mg1_5 3.068093 1_555
Hf1_5 Mg0_7 3.170837 1_545
Hf1_5 Mg0_1 3.170837 1_655
Hf1_5 Mg0_5 3.170840 1_555
Hf1_6 Mg1_6 3.068093 1_555
Hf1_6 Mg0_4 3.170837 1_555
Hf1_6 Mg0_2 3.170837 1_655
Hf1_6 Mg0_6 3.170840 1_555
Hf1_7 Mg1_7 3.068093 1_555
Hf1_7 Mg0_3 3.170837 1_655
Hf1_7 Mg0_5 3.170837 1_555
Hf1_7 Mg0_7 3.170840 1_555
Mg0_0 Mg0_4 3.031730 1_555
Mg0_0 Mg0_2 3.031730 1_555
Mg0_0 Mg0_2 3.031730 1_545
Mg0_0 Mg0_4 3.031730 1_455
Mg0_0 Mg0_6 3.031730 1_445
Mg0_0 Mg0_6 3.031730 1_555
Mg0_1 Mg0_5 3.031730 1_555
Mg0_1 Mg0_3 3.031730 1_555
Mg0_1 Mg0_3 3.031730 1_545
Mg0_1 Mg0_5 3.031730 1_455
Mg0_1 Mg0_7 3.031730 1_445
Mg0_1 Mg0_7 3.031730 1_555
Mg0_2 Mg0_6 3.031730 1_455
Mg0_2 Mg0_6 3.031730 1_555
Mg0_2 Mg0_4 3.031730 1_565
Mg0_2 Mg0_4 3.031730 1_455
Mg0_3 Mg0_7 3.031730 1_455
Mg0_3 Mg0_7 3.031730 1_555
Mg0_3 Mg0_5 3.031730 1_565
Mg0_3 Mg0_5 3.031730 1_455
Mg0_4 Mg0_6 3.031730 1_555
Mg0_4 Mg0_6 3.031730 1_545
Mg0_5 Mg0_7 3.031730 1_555
Mg0_5 Mg0_7 3.031730 1_545
Mg1_0 Mg1_4 3.031730 1_555
Mg1_0 Mg1_4 3.031730 1_455
Mg1_0 Mg1_2 3.031730 1_555
Mg1_0 Mg1_2 3.031730 1_545
Mg1_0 Mg1_6 3.031730 1_445
Mg1_0 Mg1_6 3.031730 1_555
Mg1_1 Mg1_5 3.031730 1_555
Mg1_1 Mg1_5 3.031730 1_455
Mg1_1 Mg1_3 3.031730 1_555
Mg1_1 Mg1_3 3.031730 1_545
Mg1_1 Mg1_7 3.031730 1_445
Mg1_1 Mg1_7 3.031730 1_555
Mg1_2 Mg1_6 3.031730 1_555
Mg1_2 Mg1_6 3.031730 1_455
Mg1_2 Mg1_4 3.031730 1_565
Mg1_2 Mg1_4 3.031730 1_455
Mg1_3 Mg1_7 3.031730 1_555
Mg1_3 Mg1_7 3.031730 1_455
Mg1_3 Mg1_5 3.031730 1_565
Mg1_3 Mg1_5 3.031730 1_455
Mg1_4 Mg1_6 3.031730 1_545
Mg1_4 Mg1_6 3.031730 1_555
Mg1_5 Mg1_7 3.031730 1_545
Mg1_5 Mg1_7 3.031730 1_555
