# generated using pymatgen
data_TeMoWSeS2
_symmetry_space_group_name_H-M   'P 1'
_cell_length_a   3.30437192
_cell_length_b   3.30437192
_cell_length_c   39.11745500
_cell_angle_alpha   90.00000000
_cell_angle_beta   90.00000000
_cell_angle_gamma   119.99999834
_symmetry_Int_Tables_number   1
_chemical_formula_structural   TeMoWSeS2
_chemical_formula_sum   'Te2 Mo2 W2 Se2 S4'
_cell_volume   369.89552372
_cell_formula_units_Z   2
loop_
 _symmetry_equiv_pos_site_id
 _symmetry_equiv_pos_as_xyz
  1  'x, y, z'
loop_
 _atom_site_type_symbol
 _atom_site_label
 _atom_site_symmetry_multiplicity
 _atom_site_fract_x
 _atom_site_fract_y
 _atom_site_fract_z
 _atom_site_occupancy
  Te  Te0  1  0.00000000  0.00000000  0.33011300  1
  Te  Te1  1  0.00000000  0.00000000  0.23172200  1
  Mo  Mo0  1  0.00000000  0.00000000  0.09333700  1
  Mo  Mo1  1  0.00000000  0.00000000  0.47087600  1
  W  W0  1  0.33333300  0.66666700  0.28096200  1
  W  W1  1  0.33333300  0.66666700  0.65778300  1
  Se  Se0  1  0.33333300  0.66666700  0.42787300  1
  Se  Se1  1  0.33333300  0.66666700  0.51378200  1
  S  S0  1  0.00000000  0.00000000  0.69699700  1
  S  S1  1  0.33333300  0.66666700  0.05432100  1
  S  S2  1  0.33333300  0.66666700  0.13243500  1
  S  S3  1  0.00000000  0.00000000  0.61854600  1
loop_
_geom_bond_atom_site_label_1
_geom_bond_atom_site_label_2
_geom_bond_distance
_geom_bond_site_symmetry_2
Te0 W0 2.708551 1_545
Te0 W0 2.708553 1_445
Te0 W0 2.708553 1_555
Te1 W0 2.711023 1_545
Te1 W0 2.711025 1_555
Te1 W0 2.711025 1_445
Mo0 S1 2.443138 1_545
Mo0 S1 2.443140 1_445
Mo0 S1 2.443140 1_555
Mo0 S2 2.445143 1_545
Mo0 S2 2.445145 1_555
Mo0 S2 2.445145 1_445
Mo1 Se1 2.540975 1_545
Mo1 Se1 2.540977 1_445
Mo1 Se1 2.540977 1_555
Mo1 Se0 2.543483 1_545
Mo1 Se0 2.543485 1_445
Mo1 Se0 2.543485 1_555
S0 W1 2.447984 1_545
S0 W1 2.447986 1_445
S0 W1 2.447986 1_555
S3 W1 2.448548 1_545
S3 W1 2.448550 1_555
S3 W1 2.448550 1_445
