# generated using pymatgen
data_Cr3As
_symmetry_space_group_name_H-M   'P 1'
_cell_length_a   4.77062598
_cell_length_b   4.77062598
_cell_length_c   4.77062598
_cell_angle_alpha   137.32818393
_cell_angle_beta   137.32818393
_cell_angle_gamma   61.93348993
_symmetry_Int_Tables_number   1
_chemical_formula_structural   Cr3As
_chemical_formula_sum   'Cr3 As1'
_cell_volume   49.29605319
_cell_formula_units_Z   1
loop_
 _symmetry_equiv_pos_site_id
 _symmetry_equiv_pos_as_xyz
  1  'x, y, z'
loop_
 _atom_site_type_symbol
 _atom_site_label
 _atom_site_symmetry_multiplicity
 _atom_site_fract_x
 _atom_site_fract_y
 _atom_site_fract_z
 _atom_site_occupancy
  Cr  Cr0  1  0.75000000  0.25000000  0.50000000  1
  Cr  Cr1  1  0.25000000  0.75000000  0.50000000  1
  Cr  Cr2  1  0.50000000  0.50000000  0.00000000  1
  As  As0  1  0.00000000  0.00000000  0.00000000  1
loop_
_geom_bond_atom_site_label_1
_geom_bond_atom_site_label_2
_geom_bond_distance
_geom_bond_site_symmetry_2
Cr0 Cr1 2.454680 1_555
Cr0 Cr1 2.454680 1_645
Cr0 Cr1 2.454680 1_656
Cr0 Cr1 2.454680 1_544
Cr0 Cr2 2.682551 1_545
Cr0 Cr2 2.682551 1_656
Cr0 Cr2 2.682551 1_555
Cr0 Cr2 2.682551 1_556
Cr1 Cr2 2.682551 1_566
Cr1 Cr2 2.682551 1_455
Cr1 Cr2 2.682551 1_555
Cr1 Cr2 2.682551 1_556
As0 Cr2 2.454680 1_545
As0 Cr2 2.454680 1_444
As0 Cr2 2.454680 1_455
As0 Cr2 2.454680 1_556
As0 Cr1 2.682551 1_545
As0 Cr1 2.682551 1_555
As0 Cr0 2.682551 1_444
As0 Cr0 2.682551 1_454
As0 Cr1 2.682551 1_544
As0 Cr1 2.682551 1_444
As0 Cr0 2.682551 1_455
As0 Cr0 2.682551 1_555
