# generated using pymatgen
data_Yb2PbSe4
_symmetry_space_group_name_H-M   'P 1'
_cell_length_a   4.07475500
_cell_length_b   13.83851400
_cell_length_c   13.83077300
_cell_angle_alpha   90.00000000
_cell_angle_beta   90.00000000
_cell_angle_gamma   90.00000000
_symmetry_Int_Tables_number   1
_chemical_formula_structural   Yb2PbSe4
_chemical_formula_sum   'Yb8 Pb4 Se16'
_cell_volume   779.89729175
_cell_formula_units_Z   4
loop_
 _symmetry_equiv_pos_site_id
 _symmetry_equiv_pos_as_xyz
  1  'x, y, z'
loop_
 _atom_site_type_symbol
 _atom_site_label
 _atom_site_symmetry_multiplicity
 _atom_site_fract_x
 _atom_site_fract_y
 _atom_site_fract_z
 _atom_site_occupancy
  Yb  Yb0  1  0.25000000  0.58372700  0.09822800  1
  Yb  Yb1  1  0.25000000  0.08372700  0.40177200  1
  Yb  Yb2  1  0.75000000  0.41627300  0.90177200  1
  Yb  Yb3  1  0.75000000  0.91627300  0.59822800  1
  Yb  Yb4  1  0.25000000  0.59051500  0.59160600  1
  Yb  Yb5  1  0.25000000  0.09051500  0.90839400  1
  Yb  Yb6  1  0.75000000  0.40948500  0.40839400  1
  Yb  Yb7  1  0.75000000  0.90948500  0.09160600  1
  Pb  Pb0  1  0.25000000  0.73409800  0.82644200  1
  Pb  Pb1  1  0.25000000  0.23409800  0.67355800  1
  Pb  Pb2  1  0.75000000  0.26590200  0.17355800  1
  Pb  Pb3  1  0.75000000  0.76590200  0.32644200  1
  Se  Se0  1  0.25000000  0.87614700  0.45208000  1
  Se  Se1  1  0.25000000  0.37614700  0.04792000  1
  Se  Se2  1  0.75000000  0.12385300  0.54792000  1
  Se  Se3  1  0.75000000  0.62385300  0.95208000  1
  Se  Se4  1  0.25000000  0.77910500  0.16230900  1
  Se  Se5  1  0.25000000  0.27910500  0.33769100  1
  Se  Se6  1  0.75000000  0.22089500  0.83769100  1
  Se  Se7  1  0.75000000  0.72089500  0.66230900  1
  Se  Se8  1  0.25000000  0.57024000  0.37863000  1
  Se  Se9  1  0.25000000  0.07024000  0.12137000  1
  Se  Se10  1  0.75000000  0.42976000  0.62137000  1
  Se  Se11  1  0.75000000  0.92976000  0.87863000  1
  Se  Se12  1  0.25000000  0.50855600  0.78268100  1
  Se  Se13  1  0.25000000  0.00855600  0.71731900  1
  Se  Se14  1  0.75000000  0.49144400  0.21731900  1
  Se  Se15  1  0.75000000  0.99144400  0.28268100  1
loop_
_geom_bond_atom_site_label_1
_geom_bond_atom_site_label_2
_geom_bond_distance
_geom_bond_site_symmetry_2
Pb0 Se7 3.055746 1_555
Pb0 Se7 3.055746 1_455
Pb0 Se3 3.081873 1_555
Pb0 Se3 3.081873 1_455
Pb0 Se12 3.179309 1_555
Pb1 Se6 3.055746 1_555
Pb1 Se6 3.055746 1_455
Pb1 Se2 3.081873 1_555
Pb1 Se2 3.081873 1_455
Pb1 Se13 3.179309 1_555
Pb2 Se5 3.055746 1_655
Pb2 Se5 3.055746 1_555
Pb2 Se1 3.081873 1_655
Pb2 Se1 3.081873 1_555
Pb2 Se14 3.179309 1_555
Pb3 Se4 3.055746 1_655
Pb3 Se4 3.055746 1_555
Pb3 Se0 3.081873 1_655
Pb3 Se0 3.081873 1_555
Pb3 Se15 3.179309 1_555
Se0 Yb3 2.923194 1_455
Se0 Yb3 2.923194 1_555
Se0 Yb1 2.955666 1_565
Se1 Yb2 2.923194 1_554
Se1 Yb2 2.923194 1_454
Se1 Yb0 2.955666 1_555
Se2 Yb1 2.923194 1_555
Se2 Yb1 2.923194 1_655
Se2 Yb3 2.955666 1_545
Se3 Yb0 2.923194 1_556
Se3 Yb0 2.923194 1_656
Se3 Yb2 2.955666 1_555
Se4 Yb0 2.845299 1_555
Se4 Yb7 2.891803 1_455
Se4 Yb7 2.891803 1_555
Se5 Yb1 2.845299 1_555
Se5 Yb6 2.891803 1_455
Se5 Yb6 2.891803 1_555
Se6 Yb2 2.845299 1_555
Se6 Yb5 2.891803 1_655
Se6 Yb5 2.891803 1_555
Se7 Yb3 2.845299 1_555
Se7 Yb4 2.891803 1_555
Se7 Yb4 2.891803 1_655
Se8 Yb4 2.958955 1_555
Se8 Yb6 3.044546 1_555
Se8 Yb6 3.044546 1_455
Se9 Yb5 2.958955 1_554
Se9 Yb7 3.044546 1_545
Se9 Yb7 3.044546 1_445
Se10 Yb6 2.958955 1_555
Se10 Yb4 3.044546 1_555
Se10 Yb4 3.044546 1_655
Se11 Yb7 2.958955 1_556
Se11 Yb5 3.044546 1_565
Se11 Yb5 3.044546 1_665
Se12 Yb4 2.875818 1_555
Se12 Yb2 2.914583 1_455
Se12 Yb2 2.914583 1_555
Se13 Yb5 2.875818 1_555
Se13 Yb3 2.914583 1_545
Se13 Yb3 2.914583 1_445
Se14 Yb6 2.875818 1_555
Se14 Yb0 2.914583 1_555
Se14 Yb0 2.914583 1_655
Se15 Yb7 2.875818 1_555
Se15 Yb1 2.914583 1_565
Se15 Yb1 2.914583 1_665
