# generated using pymatgen
data_Mo2WS6
_symmetry_space_group_name_H-M   'P 1'
_cell_length_a   3.18425177
_cell_length_b   3.18426641
_cell_length_c   27.90211106
_cell_angle_alpha   90.05220757
_cell_angle_beta   90.00000000
_cell_angle_gamma   119.99986954
_symmetry_Int_Tables_number   1
_chemical_formula_structural   Mo2WS6
_chemical_formula_sum   'Mo2 W1 S6'
_cell_volume   245.01056966
_cell_formula_units_Z   1
loop_
 _symmetry_equiv_pos_site_id
 _symmetry_equiv_pos_as_xyz
  1  'x, y, z'
loop_
 _atom_site_type_symbol
 _atom_site_label
 _atom_site_symmetry_multiplicity
 _atom_site_fract_x
 _atom_site_fract_y
 _atom_site_fract_z
 _atom_site_occupancy
  Mo  Mo0  1  0.33382485  0.66764869  0.11576290  1
  Mo  Mo1  1  0.66652658  0.33305216  0.34727252  1
  W  W0  1  0.33294221  0.66588541  0.57791455  1
  S  S0  1  0.33349883  0.66699866  0.40288615  1
  S  S1  1  0.66685206  0.33370412  0.06015912  1
  S  S2  1  0.66601090  0.33201979  0.52199667  1
  S  S3  1  0.66745587  0.33491075  0.17137787  1
  S  S4  1  0.66660802  0.33321405  0.63381735  1
  S  S5  1  0.33288068  0.66576336  0.29165689  1
loop_
_geom_bond_atom_site_label_1
_geom_bond_atom_site_label_2
_geom_bond_distance
_geom_bond_site_symmetry_2
Mo0 S1 2.405556 1_565
Mo0 S1 2.405610 1_555
Mo0 S1 2.405611 1_455
Mo0 S3 2.405788 1_455
Mo0 S3 2.405788 1_555
Mo0 S3 2.405805 1_565
Mo1 S0 2.405729 1_545
Mo1 S5 2.405768 1_655
Mo1 S5 2.405775 1_555
Mo1 S0 2.405787 1_655
Mo1 S0 2.405792 1_555
Mo1 S5 2.405873 1_545
S2 W0 2.411182 1_655
S2 W0 2.411189 1_555
S2 W0 2.411390 1_545
S4 W0 2.410906 1_655
S4 W0 2.410913 1_555
S4 W0 2.411126 1_545
