# generated using pymatgen
data_Ce5Sn3Au
_symmetry_space_group_name_H-M   'P 1'
_cell_length_a   9.54526614
_cell_length_b   9.54526614
_cell_length_c   6.62143300
_cell_angle_alpha   90.00000000
_cell_angle_beta   90.00000000
_cell_angle_gamma   120.00000095
_symmetry_Int_Tables_number   1
_chemical_formula_structural   Ce5Sn3Au
_chemical_formula_sum   'Ce10 Sn6 Au2'
_cell_volume   522.46680162
_cell_formula_units_Z   2
loop_
 _symmetry_equiv_pos_site_id
 _symmetry_equiv_pos_as_xyz
  1  'x, y, z'
loop_
 _atom_site_type_symbol
 _atom_site_label
 _atom_site_symmetry_multiplicity
 _atom_site_fract_x
 _atom_site_fract_y
 _atom_site_fract_z
 _atom_site_occupancy
  Ce  Ce0  1  0.27467700  0.00000000  0.75000000  1
  Ce  Ce1  1  0.72532300  0.00000000  0.25000000  1
  Ce  Ce2  1  0.00000000  0.27467700  0.75000000  1
  Ce  Ce3  1  0.00000000  0.72532300  0.25000000  1
  Ce  Ce4  1  0.72532300  0.72532300  0.75000000  1
  Ce  Ce5  1  0.27467700  0.27467700  0.25000000  1
  Ce  Ce6  1  0.33333300  0.66666700  0.50000000  1
  Ce  Ce7  1  0.66666700  0.33333300  0.50000000  1
  Ce  Ce8  1  0.66666700  0.33333300  0.00000000  1
  Ce  Ce9  1  0.33333300  0.66666700  0.00000000  1
  Sn  Sn0  1  0.62064100  0.00000000  0.75000000  1
  Sn  Sn1  1  0.37935900  0.00000000  0.25000000  1
  Sn  Sn2  1  0.00000000  0.62064100  0.75000000  1
  Sn  Sn3  1  0.00000000  0.37935900  0.25000000  1
  Sn  Sn4  1  0.37935900  0.37935900  0.75000000  1
  Sn  Sn5  1  0.62064100  0.62064100  0.25000000  1
  Au  Au0  1  0.00000000  0.00000000  0.50000000  1
  Au  Au1  1  0.00000000  0.00000000  0.00000000  1
loop_
_geom_bond_atom_site_label_1
_geom_bond_atom_site_label_2
_geom_bond_distance
_geom_bond_site_symmetry_2
Ce0 Sn2 3.239201 1_545
Ce0 Sn4 3.239201 1_555
Ce0 Sn0 3.302318 1_555
Ce0 Sn1 3.458219 1_555
Ce0 Sn1 3.458219 1_556
Ce1 Sn3 3.239201 1_655
Ce1 Sn5 3.239201 1_545
Ce1 Sn1 3.302318 1_555
Ce1 Sn0 3.458219 1_554
Ce1 Sn0 3.458219 1_555
Ce2 Sn0 3.239201 1_455
Ce2 Sn4 3.239201 1_555
Ce2 Sn2 3.302318 1_555
Ce2 Sn3 3.458219 1_555
Ce2 Sn3 3.458219 1_556
Ce3 Sn1 3.239201 1_565
Ce3 Sn5 3.239201 1_455
Ce3 Sn3 3.302318 1_555
Ce3 Sn2 3.458219 1_555
Ce3 Sn2 3.458219 1_554
Ce4 Sn2 3.239201 1_655
Ce4 Sn0 3.239201 1_565
Ce4 Sn4 3.302318 1_555
Ce4 Sn5 3.458219 1_556
Ce4 Sn5 3.458219 1_555
Ce5 Sn3 3.239201 1_555
Ce5 Sn1 3.239201 1_555
Ce5 Sn5 3.302318 1_555
Ce5 Sn4 3.458219 1_554
Ce5 Sn4 3.458219 1_555
Ce6 Sn2 3.414517 1_555
Ce6 Sn1 3.414517 1_565
Ce6 Sn3 3.414521 1_555
Ce6 Sn0 3.414521 1_565
Ce6 Sn4 3.414526 1_555
Ce6 Sn5 3.414526 1_555
Ce7 Sn3 3.414517 1_655
Ce7 Sn0 3.414517 1_555
Ce7 Sn2 3.414521 1_655
Ce7 Sn1 3.414521 1_555
Ce7 Sn4 3.414526 1_555
Ce7 Sn5 3.414526 1_555
Ce8 Sn3 3.414517 1_655
Ce8 Sn0 3.414517 1_554
Ce8 Sn2 3.414521 1_654
Ce8 Sn1 3.414521 1_555
Ce8 Sn4 3.414526 1_554
Ce8 Sn5 3.414526 1_555
Ce9 Sn2 3.414517 1_554
Ce9 Sn1 3.414517 1_565
Ce9 Sn3 3.414521 1_555
Ce9 Sn0 3.414521 1_564
Ce9 Sn4 3.414526 1_554
Ce9 Sn5 3.414526 1_555
Au0 Ce5 3.100708 1_555
Au0 Ce4 3.100708 1_445
Au0 Ce2 3.100708 1_555
Au0 Ce0 3.100708 1_555
Au0 Ce3 3.100708 1_545
Au0 Ce1 3.100708 1_455
Au1 Ce5 3.100708 1_555
Au1 Ce4 3.100708 1_444
Au1 Ce2 3.100708 1_554
Au1 Ce0 3.100708 1_554
Au1 Ce3 3.100708 1_545
Au1 Ce1 3.100708 1_455
