# generated using pymatgen
data_CaCrBiO5
_symmetry_space_group_name_H-M   'P 1'
_cell_length_a   5.53877100
_cell_length_b   11.40503000
_cell_length_c   15.59634800
_cell_angle_alpha   90.00000000
_cell_angle_beta   90.00000000
_cell_angle_gamma   90.00000000
_symmetry_Int_Tables_number   1
_chemical_formula_structural   CaCrBiO5
_chemical_formula_sum   'Ca8 Cr8 Bi8 O40'
_cell_volume   985.21895463
_cell_formula_units_Z   8
loop_
 _symmetry_equiv_pos_site_id
 _symmetry_equiv_pos_as_xyz
  1  'x, y, z'
loop_
 _atom_site_type_symbol
 _atom_site_label
 _atom_site_symmetry_multiplicity
 _atom_site_fract_x
 _atom_site_fract_y
 _atom_site_fract_z
 _atom_site_occupancy
  Ca  Ca0  1  0.50341200  0.35895300  0.44806000  1
  Ca  Ca1  1  0.00341200  0.14104700  0.44806000  1
  Ca  Ca2  1  0.00341200  0.64104700  0.05194000  1
  Ca  Ca3  1  0.99658800  0.35895300  0.94806000  1
  Ca  Ca4  1  0.49658800  0.14104700  0.94806000  1
  Ca  Ca5  1  0.99658800  0.85895300  0.55194000  1
  Ca  Ca6  1  0.49658800  0.64104700  0.55194000  1
  Ca  Ca7  1  0.50341200  0.85895300  0.05194000  1
  Cr  Cr0  1  0.98322200  0.40519300  0.59706400  1
  Cr  Cr1  1  0.51677800  0.90519300  0.40293600  1
  Cr  Cr2  1  0.01677800  0.59480700  0.40293600  1
  Cr  Cr3  1  0.48322200  0.09480700  0.59706400  1
  Cr  Cr4  1  0.01677800  0.09480700  0.09706400  1
  Cr  Cr5  1  0.98322200  0.90519300  0.90293600  1
  Cr  Cr6  1  0.51677800  0.40519300  0.09706400  1
  Cr  Cr7  1  0.48322200  0.59480700  0.90293600  1
  Bi  Bi0  1  0.95064600  0.84489000  0.23294100  1
  Bi  Bi1  1  0.04935400  0.15511000  0.76705900  1
  Bi  Bi2  1  0.54935400  0.34489000  0.76705900  1
  Bi  Bi3  1  0.04935400  0.65511000  0.73294100  1
  Bi  Bi4  1  0.45064600  0.15511000  0.26705900  1
  Bi  Bi5  1  0.45064600  0.65511000  0.23294100  1
  Bi  Bi6  1  0.54935400  0.84489000  0.73294100  1
  Bi  Bi7  1  0.95064600  0.34489000  0.26705900  1
  O  O0  1  0.93968900  0.32855200  0.69476300  1
  O  O1  1  0.29463200  0.04363800  0.06636300  1
  O  O2  1  0.20536800  0.54363800  0.93363700  1
  O  O3  1  0.23880300  0.76653300  0.15163000  1
  O  O4  1  0.26119700  0.26653300  0.84837000  1
  O  O5  1  0.93968900  0.82855200  0.80523700  1
  O  O6  1  0.26119700  0.76653300  0.65163000  1
  O  O7  1  0.56031100  0.82855200  0.30523700  1
  O  O8  1  0.29463200  0.54363800  0.43363700  1
  O  O9  1  0.06031100  0.67144800  0.30523700  1
  O  O10  1  0.56031100  0.32855200  0.19476300  1
  O  O11  1  0.62372400  0.18544800  0.52708300  1
  O  O12  1  0.79463200  0.95636200  0.43363700  1
  O  O13  1  0.76119700  0.73346700  0.65163000  1
  O  O14  1  0.16463700  0.02517800  0.87514700  1
  O  O15  1  0.79463200  0.45636200  0.06636300  1
  O  O16  1  0.06031100  0.17144800  0.19476300  1
  O  O17  1  0.73880300  0.23346700  0.34837000  1
  O  O18  1  0.12372400  0.81455200  0.97291700  1
  O  O19  1  0.20536800  0.04363800  0.56636300  1
  O  O20  1  0.37627600  0.81455200  0.47291700  1
  O  O21  1  0.83536300  0.97482200  0.12485300  1
  O  O22  1  0.76119700  0.23346700  0.84837000  1
  O  O23  1  0.66463700  0.97482200  0.62485300  1
  O  O24  1  0.37627600  0.31455200  0.02708300  1
  O  O25  1  0.12372400  0.31455200  0.52708300  1
  O  O26  1  0.70536800  0.45636200  0.56636300  1
  O  O27  1  0.70536800  0.95636200  0.93363700  1
  O  O28  1  0.66463700  0.47482200  0.87514700  1
  O  O29  1  0.87627600  0.68544800  0.47291700  1
  O  O30  1  0.87627600  0.18544800  0.02708300  1
  O  O31  1  0.62372400  0.68544800  0.97291700  1
  O  O32  1  0.83536300  0.47482200  0.37514700  1
  O  O33  1  0.73880300  0.73346700  0.15163000  1
  O  O34  1  0.23880300  0.26653300  0.34837000  1
  O  O35  1  0.16463700  0.52517800  0.62485300  1
  O  O36  1  0.33536300  0.52517800  0.12485300  1
  O  O37  1  0.43968900  0.17144800  0.69476300  1
  O  O38  1  0.33536300  0.02517800  0.37514700  1
  O  O39  1  0.43968900  0.67144800  0.80523700  1
loop_
_geom_bond_atom_site_label_1
_geom_bond_atom_site_label_2
_geom_bond_distance
_geom_bond_site_symmetry_2
Ca0 O34 2.382528 1_555
Ca0 O8 2.413397 1_555
Ca0 O11 2.424626 1_555
Ca0 O26 2.426897 1_555
Ca0 O17 2.483040 1_555
Ca0 O25 2.489588 1_555
Ca0 O32 2.533763 1_555
Ca1 O17 2.382528 1_455
Ca1 O12 2.413397 1_445
Ca1 O25 2.424626 1_555
Ca1 O19 2.426897 1_555
Ca1 O34 2.483040 1_555
Ca1 O11 2.489588 1_455
Ca1 O38 2.533763 1_555
Ca2 O33 2.382528 1_455
Ca2 O15 2.413397 1_455
Ca2 O18 2.424626 1_554
Ca2 O2 2.426897 1_554
Ca2 O3 2.483040 1_555
Ca2 O31 2.489588 1_454
Ca2 O36 2.533763 1_555
Ca3 O4 2.382528 1_655
Ca3 O2 2.413397 1_655
Ca3 O30 2.424626 1_556
Ca3 O15 2.426897 1_556
Ca3 O22 2.483040 1_555
Ca3 O24 2.489588 1_656
Ca3 O28 2.533763 1_555
Ca4 O22 2.382528 1_555
Ca4 O27 2.413397 1_545
Ca4 O24 2.424626 1_556
Ca4 O1 2.426897 1_556
Ca4 O4 2.483040 1_555
Ca4 O30 2.489588 1_556
Ca4 O14 2.533763 1_555
Ca5 O6 2.382528 1_655
Ca5 O19 2.413397 1_665
Ca5 O29 2.424626 1_555
Ca5 O12 2.426897 1_555
Ca5 O13 2.483040 1_555
Ca5 O20 2.489588 1_655
Ca5 O23 2.533763 1_555
Ca6 O13 2.382528 1_555
Ca6 O26 2.413397 1_555
Ca6 O20 2.424626 1_555
Ca6 O8 2.426897 1_555
Ca6 O6 2.483040 1_555
Ca6 O29 2.489588 1_555
Ca6 O35 2.533763 1_555
Ca7 O3 2.382528 1_555
Ca7 O1 2.413397 1_565
Ca7 O31 2.424626 1_554
Ca7 O27 2.426897 1_554
Ca7 O33 2.483040 1_555
Ca7 O18 2.489588 1_554
Ca7 O21 2.533763 1_555
Cr0 O25 1.692789 1_655
Cr0 O26 1.714138 1_555
Cr0 O35 1.752171 1_655
Cr0 O0 1.773128 1_555
Cr1 O20 1.692789 1_555
Cr1 O12 1.714138 1_555
Cr1 O38 1.752171 1_565
Cr1 O7 1.773128 1_555
Cr2 O29 1.692789 1_455
Cr2 O8 1.714138 1_555
Cr2 O32 1.752171 1_455
Cr2 O9 1.773128 1_555
Cr3 O11 1.692789 1_555
Cr3 O19 1.714138 1_555
Cr3 O23 1.752171 1_545
Cr3 O37 1.773128 1_555
Cr4 O30 1.692789 1_455
Cr4 O1 1.714138 1_555
Cr4 O21 1.752171 1_445
Cr4 O16 1.773128 1_555
Cr5 O18 1.692789 1_655
Cr5 O27 1.714138 1_555
Cr5 O14 1.752171 1_665
Cr5 O5 1.773128 1_555
Cr6 O24 1.692789 1_555
Cr6 O15 1.714138 1_555
Cr6 O36 1.752171 1_555
Cr6 O10 1.773128 1_555
Cr7 O31 1.692789 1_555
Cr7 O2 1.714138 1_555
Cr7 O28 1.752171 1_555
Cr7 O39 1.773128 1_555
Bi0 O33 2.144727 1_555
Bi0 O3 2.225799 1_655
Bi0 O21 2.333565 1_555
Bi0 O9 2.356533 1_655
Bi0 O7 2.445453 1_555
Bi1 O4 2.144727 1_555
Bi1 O22 2.225799 1_455
Bi1 O14 2.333565 1_555
Bi1 O0 2.356533 1_455
Bi1 O37 2.445453 1_555
Bi2 O22 2.144727 1_555
Bi2 O4 2.225799 1_555
Bi2 O28 2.333565 1_555
Bi2 O37 2.356533 1_555
Bi2 O0 2.445453 1_555
Bi3 O6 2.144727 1_555
Bi3 O13 2.225799 1_455
Bi3 O35 2.333565 1_555
Bi3 O5 2.356533 1_455
Bi3 O39 2.445453 1_555
Bi4 O34 2.144727 1_555
Bi4 O17 2.225799 1_555
Bi4 O38 2.333565 1_555
Bi4 O10 2.356533 1_555
Bi4 O16 2.445453 1_555
Bi5 O3 2.144727 1_555
Bi5 O33 2.225799 1_555
Bi5 O36 2.333565 1_555
Bi5 O7 2.356533 1_555
Bi5 O9 2.445453 1_555
Bi6 O13 2.144727 1_555
Bi6 O6 2.225799 1_555
Bi6 O23 2.333565 1_555
Bi6 O39 2.356533 1_555
Bi6 O5 2.445453 1_555
Bi7 O17 2.144727 1_555
Bi7 O34 2.225799 1_655
Bi7 O32 2.333565 1_555
Bi7 O16 2.356533 1_655
Bi7 O10 2.445453 1_555
