# generated using pymatgen
data_SrNiGe2
_symmetry_space_group_name_H-M   'P 1'
_cell_length_a   4.17729370
_cell_length_b   4.40240297
_cell_length_c   8.85956966
_cell_angle_alpha   104.38608589
_cell_angle_beta   90.00000000
_cell_angle_gamma   90.00000000
_symmetry_Int_Tables_number   1
_chemical_formula_structural   SrNiGe2
_chemical_formula_sum   'Sr2 Ni2 Ge4'
_cell_volume   157.81977179
_cell_formula_units_Z   2
loop_
 _symmetry_equiv_pos_site_id
 _symmetry_equiv_pos_as_xyz
  1  'x, y, z'
loop_
 _atom_site_type_symbol
 _atom_site_label
 _atom_site_symmetry_multiplicity
 _atom_site_fract_x
 _atom_site_fract_y
 _atom_site_fract_z
 _atom_site_occupancy
  Sr  Sr0  1  0.75000000  0.10756873  0.21513746  1
  Sr  Sr1  1  0.25000000  0.89243127  0.78486254  1
  Ni  Ni0  1  0.75000000  0.31770709  0.63541419  1
  Ni  Ni1  1  0.25000000  0.68229191  0.36458581  1
  Ge  Ge0  1  0.75000000  0.45653613  0.91307126  1
  Ge  Ge1  1  0.25000000  0.54346387  0.08692874  1
  Ge  Ge2  1  0.75000000  0.74915903  0.49831705  1
  Ge  Ge3  1  0.25000000  0.25084097  0.50168295  1
loop_
_geom_bond_atom_site_label_1
_geom_bond_atom_site_label_2
_geom_bond_distance
_geom_bond_site_symmetry_2
Ni0 Sr1 3.294331 1_545
Ni0 Sr1 3.294331 1_645
Ni0 Sr1 3.294331 1_555
Ni0 Sr1 3.294331 1_655
Ni1 Sr0 3.294328 1_455
Ni1 Sr0 3.294328 1_555
Ni1 Sr0 3.294334 1_565
Ni1 Sr0 3.294334 1_465
Ge0 Ni0 2.382788 1_555
Ge0 Ge1 2.566812 1_556
Ge0 Ge1 2.566812 1_656
Ge0 Sr1 3.227738 1_655
Ge0 Sr1 3.227738 1_555
Ge0 Sr1 3.227741 1_645
Ge0 Sr1 3.227741 1_545
Ge0 Sr0 3.400749 1_566
Ge0 Sr0 3.400752 1_556
Ge1 Ni1 2.382788 1_555
Ge1 Sr0 3.227738 1_455
Ge1 Sr0 3.227738 1_555
Ge1 Sr0 3.227741 1_565
Ge1 Sr0 3.227741 1_465
Ge1 Sr1 3.400749 1_544
Ge1 Sr1 3.400752 1_554
Ge2 Ni1 2.383180 1_655
Ge2 Ni1 2.383180 1_555
Ge2 Ni0 2.495899 1_565
Ge2 Ni0 2.495903 1_555
Ge2 Sr1 3.226368 1_555
Ge2 Sr1 3.226368 1_655
Ge2 Sr0 3.278880 1_565
Ge2 Sr0 3.278883 1_555
Ge3 Ni0 2.383180 1_455
Ge3 Ni0 2.383180 1_555
Ge3 Ni1 2.495899 1_555
Ge3 Ni1 2.495903 1_545
Ge3 Sr0 3.226368 1_455
Ge3 Sr0 3.226368 1_555
Ge3 Sr1 3.278880 1_545
Ge3 Sr1 3.278883 1_555
