# generated using pymatgen
data_Rb3MnBr5
_symmetry_space_group_name_H-M   'P 1'
_cell_length_a   10.03044897
_cell_length_b   10.03044897
_cell_length_c   10.03044897
_cell_angle_alpha   125.03566301
_cell_angle_beta   125.03566301
_cell_angle_gamma   81.47897121
_symmetry_Int_Tables_number   1
_chemical_formula_structural   Rb3MnBr5
_chemical_formula_sum   'Rb6 Mn2 Br10'
_cell_volume   651.33044993
_cell_formula_units_Z   2
loop_
 _symmetry_equiv_pos_site_id
 _symmetry_equiv_pos_as_xyz
  1  'x, y, z'
loop_
 _atom_site_type_symbol
 _atom_site_label
 _atom_site_symmetry_multiplicity
 _atom_site_fract_x
 _atom_site_fract_y
 _atom_site_fract_z
 _atom_site_occupancy
  Rb  Rb0  1  0.25000000  0.25000000  -0.00000000  1
  Rb  Rb1  1  0.75000000  0.75000000  -0.00000000  1
  Rb  Rb2  1  0.15896285  0.65896285  0.81792471  1
  Rb  Rb3  1  0.84103715  0.34103715  0.18207529  1
  Rb  Rb4  1  0.65896285  0.84103715  0.50000000  1
  Rb  Rb5  1  0.34103715  0.15896285  0.50000000  1
  Mn  Mn0  1  0.75000000  0.25000000  0.50000000  1
  Mn  Mn1  1  0.25000000  0.75000000  0.50000000  1
  Br  Br0  1  0.79924095  0.29924095  0.79885959  1
  Br  Br1  1  0.20075905  0.70075905  0.20114041  1
  Br  Br2  1  0.50038036  0.00038036  0.20114041  1
  Br  Br3  1  0.29924095  0.50038036  0.50000000  1
  Br  Br4  1  -0.00038036  0.20075905  0.50000000  1
  Br  Br5  1  0.49961964  -0.00038036  0.79885959  1
  Br  Br6  1  0.70075905  0.49961964  0.50000000  1
  Br  Br7  1  0.00038036  0.79924095  0.50000000  1
  Br  Br8  1  0.00000000  -0.00000000  -0.00000000  1
  Br  Br9  1  0.50000000  0.50000000  -0.00000000  1
loop_
_geom_bond_atom_site_label_1
_geom_bond_atom_site_label_2
_geom_bond_distance
_geom_bond_site_symmetry_2
Br0 Mn0 2.479198 1_555
Br0 Rb3 3.387937 1_556
Br0 Rb5 3.652917 1_555
Br0 Rb4 3.652917 1_545
Br0 Rb0 3.842593 1_656
Br0 Rb1 3.842593 1_556
Br1 Mn1 2.479198 1_555
Br1 Rb2 3.387937 1_554
Br1 Rb5 3.652917 1_565
Br1 Rb4 3.652917 1_555
Br1 Rb1 3.842593 1_455
Br1 Rb0 3.842593 1_555
Br2 Mn0 2.479207 1_555
Br2 Rb2 3.387917 1_544
Br2 Rb5 3.652907 1_555
Br2 Rb4 3.652907 1_545
Br2 Rb0 3.842599 1_555
Br2 Rb1 3.842599 1_545
Br3 Mn1 2.479208 1_555
Br3 Rb5 3.387917 1_555
Br3 Rb2 3.652907 1_555
Br3 Rb3 3.652917 1_455
Br3 Rb1 3.842594 1_556
Br3 Rb0 3.842594 1_555
Br4 Mn0 2.479208 1_455
Br4 Rb5 3.387917 1_555
Br4 Rb3 3.652907 1_455
Br4 Rb2 3.652917 1_555
Br4 Rb0 3.842594 1_556
Br4 Rb1 3.842594 1_445
Br5 Mn1 2.479207 1_545
Br5 Rb3 3.387917 1_556
Br5 Rb4 3.652907 1_545
Br5 Rb5 3.652907 1_555
Br5 Rb1 3.842599 1_546
Br5 Rb0 3.842599 1_556
Br6 Mn0 2.479208 1_555
Br6 Rb4 3.387917 1_555
Br6 Rb3 3.652907 1_555
Br6 Rb2 3.652917 1_655
Br6 Rb0 3.842594 1_555
Br6 Rb1 3.842594 1_556
Br7 Mn1 2.479208 1_555
Br7 Rb4 3.387917 1_455
Br7 Rb2 3.652907 1_555
Br7 Rb3 3.652917 1_455
Br7 Rb1 3.842594 1_455
Br7 Rb0 3.842594 1_566
Br8 Rb5 3.483296 1_555
Br8 Rb4 3.483296 1_444
Br8 Rb2 3.483298 1_544
Br8 Rb3 3.483298 1_455
Br8 Rb1 3.799959 1_445
Br8 Rb0 3.799959 1_555
Br9 Rb5 3.483296 1_554
Br9 Rb4 3.483296 1_555
Br9 Rb3 3.483298 1_555
Br9 Rb2 3.483298 1_554
Br9 Rb0 3.799959 1_555
Br9 Rb1 3.799959 1_555
