# generated using pymatgen
data_Ca(HoTe2)2
_symmetry_space_group_name_H-M   'P 1'
_cell_length_a   4.39202266
_cell_length_b   7.50753921
_cell_length_c   7.70140534
_cell_angle_alpha   71.93005310
_cell_angle_beta   90.00000000
_cell_angle_gamma   90.00000000
_symmetry_Int_Tables_number   1
_chemical_formula_structural   Ca(HoTe2)2
_chemical_formula_sum   'Ca1 Ho2 Te4'
_cell_volume   241.41589568
_cell_formula_units_Z   1
loop_
 _symmetry_equiv_pos_site_id
 _symmetry_equiv_pos_as_xyz
  1  'x, y, z'
loop_
 _atom_site_type_symbol
 _atom_site_label
 _atom_site_symmetry_multiplicity
 _atom_site_fract_x
 _atom_site_fract_y
 _atom_site_fract_z
 _atom_site_occupancy
  Ca  Ca0  1  0.00000000  0.50000000  0.50000000  1
  Ho  Ho0  1  0.00000000  -0.00000000  -0.00000000  1
  Ho  Ho1  1  0.50000000  0.50000000  -0.00000000  1
  Te  Te0  1  0.50000000  0.76054798  0.24380685  1
  Te  Te1  1  0.00000000  0.25430007  0.23660139  1
  Te  Te2  1  0.50000000  0.23945202  0.75619315  1
  Te  Te3  1  0.00000000  0.74569993  0.76339861  1
loop_
_geom_bond_atom_site_label_1
_geom_bond_atom_site_label_2
_geom_bond_distance
_geom_bond_site_symmetry_2
Ca0 Te1 3.136687 1_555
Ca0 Te3 3.136687 1_555
Ca0 Te0 3.185497 1_555
Ca0 Te2 3.185497 1_555
Ca0 Te0 3.185497 1_455
Ca0 Te2 3.185497 1_455
Ho0 Te1 3.020481 1_555
Ho0 Te3 3.020481 1_544
Ho0 Te0 3.079900 1_445
Ho0 Te0 3.079900 1_545
Ho0 Te2 3.079900 1_554
Ho0 Te2 3.079900 1_454
Ho1 Te1 3.075741 1_555
Ho1 Te1 3.075741 1_655
Ho1 Te3 3.075741 1_654
Ho1 Te3 3.075741 1_554
Ho1 Te0 3.103269 1_555
Ho1 Te2 3.103269 1_554
