# generated using pymatgen
data_GaN
_symmetry_space_group_name_H-M   'P 1'
_cell_length_a   11.58351494
_cell_length_b   11.82547497
_cell_length_c   11.33635251
_cell_angle_alpha   90.72291495
_cell_angle_beta   88.89284851
_cell_angle_gamma   87.48477858
_symmetry_Int_Tables_number   1
_chemical_formula_structural   GaN
_chemical_formula_sum   'Ga50 N50'
_cell_volume   1550.93339174
_cell_formula_units_Z   50
loop_
 _symmetry_equiv_pos_site_id
 _symmetry_equiv_pos_as_xyz
  1  'x, y, z'
loop_
 _atom_site_type_symbol
 _atom_site_label
 _atom_site_symmetry_multiplicity
 _atom_site_fract_x
 _atom_site_fract_y
 _atom_site_fract_z
 _atom_site_occupancy
  Ga  Ga0  1  0.01502172  0.63783495  0.61263636  1
  Ga  Ga1  1  0.22771761  0.59744521  0.39013835  1
  Ga  Ga2  1  0.13955359  0.65377213  0.80259499  1
  Ga  Ga3  1  0.81717496  0.78080472  0.52640394  1
  Ga  Ga4  1  0.22993540  0.24644034  0.24457595  1
  Ga  Ga5  1  0.43923624  0.53359609  0.80341969  1
  Ga  Ga6  1  0.47534823  0.75517944  0.79929864  1
  Ga  Ga7  1  0.12333256  0.06309812  0.10398409  1
  Ga  Ga8  1  0.53126603  0.51365025  0.54259316  1
  Ga  Ga9  1  0.92917569  0.98274521  0.25248435  1
  Ga  Ga10  1  0.21500480  0.89086994  0.87582855  1
  Ga  Ga11  1  0.13744221  0.14919398  0.86021249  1
  Ga  Ga12  1  0.69393198  0.48974714  0.91019370  1
  Ga  Ga13  1  0.80409760  0.25248313  0.91169113  1
  Ga  Ga14  1  0.02180634  0.24012551  0.36376404  1
  Ga  Ga15  1  0.47986666  0.99036368  0.78403960  1
  Ga  Ga16  1  0.76291235  0.19558847  0.44385463  1
  Ga  Ga17  1  0.56300956  0.64707978  0.03773176  1
  Ga  Ga18  1  0.69455195  0.44333115  0.40007481  1
  Ga  Ga19  1  0.87571505  0.02564542  0.51275234  1
  Ga  Ga20  1  0.02887031  0.72351336  0.30686558  1
  Ga  Ga21  1  0.55170466  0.72007692  0.33399400  1
  Ga  Ga22  1  0.90831152  0.30444262  0.61274344  1
  Ga  Ga23  1  0.50196010  0.13738306  0.14259948  1
  Ga  Ga24  1  0.47616418  0.25256500  0.39065569  1
  Ga  Ga25  1  0.57239563  0.87659660  0.08485130  1
  Ga  Ga26  1  0.13094106  0.43703018  0.17639452  1
  Ga  Ga27  1  0.94802796  0.50837135  0.38755838  1
  Ga  Ga28  1  0.34661000  0.78465054  0.41582900  1
  Ga  Ga29  1  0.82168415  0.03690737  0.02350588  1
  Ga  Ga30  1  0.93259083  0.57833307  0.85657816  1
  Ga  Ga31  1  0.65728870  0.33158557  0.69485300  1
  Ga  Ga32  1  0.94650498  0.10517863  0.72499197  1
  Ga  Ga33  1  0.13150609  0.45656709  0.55047199  1
  Ga  Ga34  1  0.39174944  0.03084111  0.97988726  1
  Ga  Ga35  1  0.01859805  0.25315191  0.02786027  1
  Ga  Ga36  1  0.67975775  0.86308071  0.69974375  1
  Ga  Ga37  1  0.73463379  0.78666635  0.90722447  1
  Ga  Ga38  1  0.30033950  0.74760919  0.64499217  1
  Ga  Ga39  1  0.88059292  0.54703234  0.11928101  1
  Ga  Ga40  1  0.88125770  0.31496777  0.21621614  1
  Ga  Ga41  1  0.77780594  0.78899342  0.18109764  1
  Ga  Ga42  1  0.93644742  0.87747071  0.76260819  1
  Ga  Ga43  1  0.42972632  0.27243839  0.61355048  1
  Ga  Ga44  1  0.35682774  0.99682722  0.28364062  1
  Ga  Ga45  1  0.21553192  0.50856571  0.98756828  1
  Ga  Ga46  1  0.15245452  0.04985608  0.34555604  1
  Ga  Ga47  1  0.54772948  0.72218187  0.57015159  1
  Ga  Ga48  1  0.74575395  0.57776212  0.61358385  1
  Ga  Ga49  1  0.00819867  0.80798243  0.04804283  1
  N  N0  1  0.26982892  0.11002254  0.57544544  1
  N  N1  1  0.50246647  0.14576291  0.71767448  1
  N  N2  1  0.64427501  0.11681473  0.23770560  1
  N  N3  1  0.98651909  0.06564580  0.38142271  1
  N  N4  1  0.93720987  0.66932619  0.45680718  1
  N  N5  1  0.09745347  0.79087129  0.90641992  1
  N  N6  1  0.82140474  0.47011221  0.27873721  1
  N  N7  1  0.27764724  0.56186341  0.85062690  1
  N  N8  1  0.80625095  0.89732027  0.30739699  1
  N  N9  1  0.32942203  0.74529988  0.13351122  1
  N  N10  1  0.88021853  0.59050836  0.69923945  1
  N  N11  1  0.55647933  0.77922671  0.94429802  1
  N  N12  1  0.28735564  0.37424883  0.50297205  1
  N  N13  1  0.75642371  0.37098356  0.81964978  1
  N  N14  1  0.22617140  0.30026267  0.73316014  1
  N  N15  1  0.33133559  0.40426306  0.41240669  1
  N  N16  1  0.77398412  0.10273844  0.85295276  1
  N  N17  1  0.51225028  0.96942701  0.46812791  1
  N  N18  1  0.00343214  0.37135600  0.48659197  1
  N  N19  1  0.61735892  0.72825189  0.17793475  1
  N  N20  1  0.39116555  0.45825380  0.16093819  1
  N  N21  1  0.42703439  0.53107461  0.21171666  1
  N  N22  1  0.32424341  0.30706269  0.95696888  1
  N  N23  1  0.92825563  0.70468469  0.15541543  1
  N  N24  1  0.14587050  0.89942830  0.49519423  1
  N  N25  1  0.22236911  0.02950048  0.96401362  1
  N  N26  1  0.53675586  0.52012038  0.94264771  1
  N  N27  1  0.44621406  0.97327113  0.13461264  1
  N  N28  1  0.09751256  0.89580422  0.58395733  1
  N  N29  1  0.59589059  0.32550582  0.15259616  1
  N  N30  1  0.56965144  0.02308030  0.52052892  1
  N  N31  1  0.97707756  0.96981749  0.08800158  1
  N  N32  1  0.78406723  0.90601505  0.42449629  1
  N  N33  1  0.85242297  0.20377045  0.06388343  1
  N  N34  1  0.38459689  0.17523345  0.27057694  1
  N  N35  1  0.09360901  0.54757290  0.30009794  1
  N  N36  1  0.23478670  0.72719191  0.12327451  1
  N  N37  1  0.65621891  0.37413016  0.09250378  1
  N  N38  1  0.60959419  0.16804023  0.74907698  1
  N  N39  1  0.98189819  0.40293610  0.10216106  1
  N  N40  1  0.73870892  0.89661661  0.05039477  1
  N  N41  1  0.24060441  0.06796990  0.65937371  1
  N  N42  1  0.63721201  0.17834373  0.32748573  1
  N  N43  1  0.15272177  0.36356495  0.70787155  1
  N  N44  1  0.74810858  0.32944670  0.54699725  1
  N  N45  1  0.50404504  0.41187812  0.68066998  1
  N  N46  1  0.34207029  0.86540382  0.76860607  1
  N  N47  1  0.66353480  0.08804021  0.81033406  1
  N  N48  1  0.41915869  0.27996679  0.94375618  1
  N  N49  1  0.79886849  0.59378588  0.97308468  1
loop_
_geom_bond_atom_site_label_1
_geom_bond_atom_site_label_2
_geom_bond_distance
_geom_bond_site_symmetry_2
Ga0 N10 1.935631 1_455
Ga0 N4 2.029877 1_455
Ga1 N35 1.982275 1_555
Ga1 N15 2.551227 1_555
Ga2 N7 1.983057 1_555
Ga2 N5 2.027783 1_555
Ga3 N32 1.919515 1_555
Ga3 N4 2.015967 1_555
Ga4 N34 1.974781 1_555
Ga5 N7 1.950259 1_555
Ga5 N26 1.962660 1_555
Ga5 N45 2.094273 1_555
Ga6 N11 1.933230 1_555
Ga6 N46 2.014707 1_555
Ga7 N25 1.966071 1_554
Ga7 N31 2.071378 1_445
Ga8 N45 2.014880 1_555
Ga9 N8 1.882381 1_555
Ga9 N3 1.896663 1_565
Ga9 N31 1.937394 1_555
Ga10 N5 1.872481 1_555
Ga10 N46 1.901912 1_555
Ga10 N25 1.915314 1_565
Ga11 N25 2.078570 1_555
Ga11 N14 2.547777 1_555
Ga12 N13 1.842739 1_555
Ga12 N26 1.868830 1_555
Ga12 N49 1.908428 1_555
Ga12 N37 2.533842 1_556
Ga13 N13 1.829924 1_555
Ga13 N33 1.912057 1_556
Ga13 N16 1.932420 1_555
Ga14 N18 2.073028 1_555
Ga14 N3 2.132056 1_455
Ga15 N1 2.020167 1_565
Ga15 N46 2.230083 1_555
Ga15 N47 2.486142 1_565
Ga16 N44 1.955502 1_555
Ga16 N42 1.998865 1_555
Ga17 N26 1.876256 1_554
Ga17 N11 1.898458 1_554
Ga17 N19 1.974112 1_555
Ga18 N6 2.031068 1_555
Ga18 N44 2.235145 1_555
Ga19 N3 2.021104 1_555
Ga19 N32 2.065548 1_545
Ga20 N4 2.108238 1_455
Ga20 N23 2.108572 1_455
Ga20 N35 2.180334 1_555
Ga21 N19 1.917383 1_555
Ga21 Ga47 2.676455 1_555
Ga22 N18 1.982303 1_655
Ga22 N44 2.024217 1_555
Ga23 N2 1.994810 1_555
Ga23 N34 2.001831 1_555
Ga23 N27 2.073478 1_545
Ga23 N29 2.521223 1_555
Ga24 N34 1.980867 1_555
Ga24 N42 2.133560 1_555
Ga24 N15 2.408738 1_555
Ga25 N27 1.888580 1_555
Ga25 N11 1.970357 1_554
Ga25 N40 1.983251 1_555
Ga25 N19 2.109481 1_555
Ga26 N35 1.934707 1_555
Ga26 N39 1.989977 1_455
Ga27 N6 1.997991 1_555
Ga27 N35 2.014270 1_655
Ga27 N4 2.047521 1_555
Ga27 N18 2.068826 1_655
Ga28 Ga47 3.012097 1_555
Ga29 N40 1.977474 1_545
Ga29 N33 2.067639 1_555
Ga29 N31 2.084268 1_545
Ga29 N16 2.165888 1_554
Ga30 N10 1.900207 1_555
Ga30 N49 2.016712 1_555
Ga31 N13 1.905341 1_555
Ga31 N44 1.960940 1_555
Ga31 N45 1.986285 1_555
Ga31 N38 2.129342 1_555
Ga32 N16 2.448016 1_555
Ga33 N18 1.973581 1_555
Ga33 N12 2.071614 1_555
Ga33 N43 2.120505 1_555
Ga34 N25 1.974451 1_555
Ga34 N27 1.993312 1_546
Ga35 N39 1.977375 1_455
Ga35 N33 2.070575 1_455
Ga36 Ga47 2.742644 1_555
Ga37 N40 2.069325 1_556
Ga37 N11 2.103900 1_555
Ga37 N49 2.495810 1_555
Ga38 N46 2.042988 1_555
Ga38 Ga47 2.974245 1_555
Ga39 N49 1.996598 1_554
Ga39 N23 2.007010 1_555
Ga39 N39 2.031179 1_555
Ga39 N6 2.147883 1_555
Ga40 N6 2.045859 1_555
Ga40 N39 2.048188 1_555
Ga40 N33 2.196906 1_555
Ga41 N8 1.951548 1_555
Ga41 N23 1.984050 1_555
Ga41 N40 2.010771 1_555
Ga41 N19 2.022500 1_555
Ga43 N45 2.038947 1_555
Ga43 N1 2.078349 1_555
Ga43 N12 2.384183 1_555
Ga44 N27 1.974605 1_555
Ga44 N34 2.154531 1_565
Ga45 N7 1.829279 1_555
Ga45 N22 2.661396 1_555
Ga46 N3 1.957319 1_455
Ga46 N24 2.476064 1_545
Ga47 Ga8 2.497837 1_555
Ga47 Ga6 2.732173 1_555
Ga47 Ga48 2.853375 1_555
Ga48 N10 1.861987 1_555
Ga49 N5 1.896509 1_554
Ga49 N31 1.977107 1_455
Ga49 N23 1.981045 1_455
N0 N41 1.131991 1_555
N1 N38 1.333941 1_555
N2 N42 1.242922 1_555
N12 N15 1.201847 1_555
N14 N43 1.151246 1_555
N16 N47 1.393472 1_555
N17 N30 1.113697 1_565
N20 N21 1.128581 1_555
N22 N48 1.138159 1_555
N24 N28 1.144361 1_555
N29 N37 1.144465 1_555
N32 N8 1.349021 1_555
N36 N9 1.133970 1_555
N38 N47 1.322532 1_555
