# generated using pymatgen
data_LaCoO3
_symmetry_space_group_name_H-M   'P 1'
_cell_length_a   5.55835292
_cell_length_b   9.40183245
_cell_length_c   5.54780225
_cell_angle_alpha   90.11985765
_cell_angle_beta   60.68547882
_cell_angle_gamma   72.89825823
_symmetry_Int_Tables_number   1
_chemical_formula_structural   LaCoO3
_chemical_formula_sum   'La4 Co4 O12'
_cell_volume   237.87742730
_cell_formula_units_Z   4
loop_
 _symmetry_equiv_pos_site_id
 _symmetry_equiv_pos_as_xyz
  1  'x, y, z'
loop_
 _atom_site_type_symbol
 _atom_site_label
 _atom_site_symmetry_multiplicity
 _atom_site_fract_x
 _atom_site_fract_y
 _atom_site_fract_z
 _atom_site_occupancy
  La  La0  1  0.25228200  0.87556200  0.11864600  1
  La  La1  1  0.24876600  0.37304600  0.63244700  1
  La  La2  1  0.75247000  0.62539500  0.37255400  1
  La  La3  1  0.74891600  0.12719400  0.87366500  1
  Co  Co0  1  0.50486600  0.99952300  0.49523900  1
  Co  Co1  1  0.00110700  0.75055600  0.74554400  1
  Co  Co2  1  0.49501900  0.50333100  0.00446600  1
  Co  Co3  1  0.00030400  0.24846900  0.25487700  1
  O  O0  1  0.31923600  0.61873500  0.36527800  1
  O  O1  1  0.32891000  0.11948000  0.85342800  1
  O  O2  1  0.67835500  0.88167100  0.13486900  1
  O  O3  1  0.67385200  0.37406400  0.65163600  1
  O  O4  1  0.74356700  0.62932000  0.80983800  1
  O  O5  1  0.74931700  0.12679600  0.30545200  1
  O  O6  1  0.26367000  0.87519100  0.67707000  1
  O  O7  1  0.24379500  0.36803600  0.19585000  1
  O  O8  1  0.18358700  0.12306200  0.44341300  1
  O  O9  1  0.17654500  0.62717000  0.94486200  1
  O  O10  1  0.82259200  0.37444500  0.06964500  1
  O  O11  1  0.81284300  0.87895600  0.55121300  1
loop_
_geom_bond_atom_site_label_1
_geom_bond_atom_site_label_2
_geom_bond_distance
_geom_bond_site_symmetry_2
La0 O6 2.419383 1_554
La0 O2 2.430796 1_555
La0 O11 2.437254 1_455
La0 O4 2.726895 1_554
La0 O9 2.743497 1_554
La0 O1 2.753253 1_564
La0 O8 2.755544 1_565
La0 O5 2.781723 1_465
La0 O0 2.797335 1_555
La1 O10 2.418667 1_456
La1 O3 2.419451 1_555
La1 O7 2.436316 1_555
La1 O1 2.703184 1_555
La1 O9 2.758786 1_555
La1 O8 2.759989 1_555
La1 O5 2.764711 1_555
La1 O0 2.768406 1_555
La1 O4 2.822049 1_455
La2 O9 2.394382 1_654
La2 O4 2.402106 1_555
La2 O0 2.447078 1_555
La2 O10 2.709951 1_555
La2 O6 2.736321 1_555
La2 O11 2.750362 1_555
La2 O2 2.770459 1_555
La2 O7 2.784957 1_655
La2 O3 2.851648 1_555
La3 O5 2.396571 1_556
La3 O1 2.413327 1_555
La3 O8 2.415303 1_655
La3 O3 2.650317 1_555
La3 O7 2.744980 1_556
La3 O2 2.751769 1_546
La3 O11 2.765110 1_545
La3 O10 2.781900 1_556
La3 O6 2.817084 1_645
Co0 O1 1.901609 1_565
Co0 O2 1.905034 1_555
Co0 O11 1.921594 1_555
Co0 O6 1.945186 1_555
Co0 O8 1.976112 1_565
Co0 O5 1.986774 1_565
Co1 O9 1.978713 1_555
Co1 O4 1.984193 1_455
Co1 O11 2.020363 1_455
Co1 O6 2.027833 1_555
Co1 O0 2.039772 1_555
Co1 O2 2.072939 1_456
Co2 O0 1.895003 1_555
Co2 O3 1.915970 1_554
Co2 O9 1.990263 1_554
Co2 O4 1.996170 1_554
Co2 O10 2.064756 1_555
Co2 O7 2.072149 1_555
Co3 O7 1.914427 1_555
Co3 O10 1.935340 1_455
Co3 O8 1.965753 1_555
Co3 O5 1.972368 1_455
Co3 O3 2.085631 1_455
Co3 O1 2.114163 1_554
