# generated using pymatgen
data_BaCaMg14O16
_symmetry_space_group_name_H-M   'P 1'
_cell_length_a   4.52896000
_cell_length_b   8.74644800
_cell_length_c   8.97213900
_cell_angle_alpha   90.00000000
_cell_angle_beta   90.00000000
_cell_angle_gamma   90.00000000
_symmetry_Int_Tables_number   1
_chemical_formula_structural   BaCaMg14O16
_chemical_formula_sum   'Ba1 Ca1 Mg14 O16'
_cell_volume   355.40717955
_cell_formula_units_Z   1
loop_
 _symmetry_equiv_pos_site_id
 _symmetry_equiv_pos_as_xyz
  1  'x, y, z'
loop_
 _atom_site_type_symbol
 _atom_site_label
 _atom_site_symmetry_multiplicity
 _atom_site_fract_x
 _atom_site_fract_y
 _atom_site_fract_z
 _atom_site_occupancy
  Ba  Ba0  1  0.00000000  0.00000000  0.50000000  1
  Ca  Ca0  1  0.00000000  0.00000000  0.00000000  1
  Mg  Mg0  1  0.00000000  0.50000000  0.00000000  1
  Mg  Mg1  1  0.00000000  0.50000000  0.50000000  1
  Mg  Mg2  1  0.50000000  0.00000000  0.24024900  1
  Mg  Mg3  1  0.50000000  0.00000000  0.75975100  1
  Mg  Mg4  1  0.50000000  0.50000000  0.24856400  1
  Mg  Mg5  1  0.50000000  0.50000000  0.75143600  1
  Mg  Mg6  1  0.50000000  0.25793400  0.00000000  1
  Mg  Mg7  1  0.50000000  0.26435100  0.50000000  1
  Mg  Mg8  1  0.50000000  0.74206600  0.00000000  1
  Mg  Mg9  1  0.50000000  0.73564900  0.50000000  1
  Mg  Mg10  1  0.00000000  0.26106300  0.24425800  1
  Mg  Mg11  1  0.00000000  0.26106300  0.75574200  1
  Mg  Mg12  1  0.00000000  0.73893700  0.24425800  1
  Mg  Mg13  1  0.00000000  0.73893700  0.75574200  1
  O  O0  1  0.00000000  0.26687100  0.00000000  1
  O  O1  1  0.00000000  0.28171600  0.50000000  1
  O  O2  1  0.00000000  0.73312900  0.00000000  1
  O  O3  1  0.00000000  0.71828400  0.50000000  1
  O  O4  1  0.50000000  0.25126600  0.24935300  1
  O  O5  1  0.50000000  0.25126600  0.75064700  1
  O  O6  1  0.50000000  0.74873400  0.24935300  1
  O  O7  1  0.50000000  0.74873400  0.75064700  1
  O  O8  1  0.50000000  0.00000000  0.00000000  1
  O  O9  1  0.50000000  0.00000000  0.50000000  1
  O  O10  1  0.50000000  0.50000000  0.00000000  1
  O  O11  1  0.50000000  0.50000000  0.50000000  1
  O  O12  1  0.00000000  0.00000000  0.23351400  1
  O  O13  1  0.00000000  0.00000000  0.76648600  1
  O  O14  1  0.00000000  0.50000000  0.24441500  1
  O  O15  1  0.00000000  0.50000000  0.75558500  1
loop_
_geom_bond_atom_site_label_1
_geom_bond_atom_site_label_2
_geom_bond_distance
_geom_bond_site_symmetry_2
Ba0 O9 2.264480 1_455
Ba0 O9 2.264480 1_555
Ba0 O12 2.390949 1_555
Ba0 O13 2.390949 1_555
Ba0 O1 2.464014 1_555
Ba0 O3 2.464014 1_545
Ca0 O13 2.095120 1_554
Ca0 O12 2.095120 1_555
Ca0 O8 2.264480 1_555
Ca0 O8 2.264480 1_455
Ca0 O0 2.334173 1_555
Ca0 O2 2.334173 1_545
Mg0 O2 2.039051 1_555
Mg0 O0 2.039051 1_555
Mg0 O14 2.192925 1_555
Mg0 O15 2.192925 1_554
Mg0 O10 2.264480 1_455
Mg0 O10 2.264480 1_555
Mg1 O3 1.909210 1_555
Mg1 O1 1.909210 1_555
Mg1 O11 2.264480 1_555
Mg1 O11 2.264480 1_455
Mg1 O15 2.293144 1_555
Mg1 O14 2.293144 1_555
Mg2 O8 2.155547 1_555
Mg2 O4 2.199202 1_555
Mg2 O6 2.199202 1_545
Mg2 O12 2.265286 1_655
Mg2 O12 2.265286 1_555
Mg2 O9 2.330522 1_555
Mg3 O8 2.155547 1_556
Mg3 O7 2.199202 1_545
Mg3 O5 2.199202 1_555
Mg3 O13 2.265286 1_655
Mg3 O13 2.265286 1_555
Mg3 O9 2.330522 1_555
Mg4 O4 2.175551 1_555
Mg4 O6 2.175551 1_555
Mg4 O10 2.230151 1_555
Mg4 O11 2.255919 1_555
Mg4 O14 2.264786 1_555
Mg4 O14 2.264786 1_655
Mg5 O5 2.175551 1_555
Mg5 O7 2.175551 1_555
Mg5 O10 2.230151 1_556
Mg5 O11 2.255919 1_555
Mg5 O15 2.264786 1_555
Mg5 O15 2.264786 1_655
Mg6 O10 2.117218 1_555
Mg6 O4 2.237990 1_555
Mg6 O5 2.237990 1_554
Mg6 O8 2.256006 1_555
Mg6 O0 2.265829 1_555
Mg6 O0 2.265829 1_655
Mg7 O11 2.061092 1_555
Mg7 O5 2.251750 1_555
Mg7 O4 2.251750 1_555
Mg7 O1 2.269568 1_655
Mg7 O1 2.269568 1_555
Mg7 O9 2.312132 1_555
Mg8 O10 2.117218 1_555
Mg8 O6 2.237990 1_555
Mg8 O7 2.237990 1_554
Mg8 O8 2.256006 1_565
Mg8 O2 2.265829 1_655
Mg8 O2 2.265829 1_555
Mg9 O11 2.061092 1_555
Mg9 O7 2.251750 1_555
Mg9 O6 2.251750 1_555
Mg9 O3 2.269568 1_555
Mg9 O3 2.269568 1_655
Mg9 O9 2.312132 1_565
Mg10 O14 2.089851 1_555
Mg10 O0 2.192105 1_555
Mg10 O4 2.266562 1_455
Mg10 O4 2.266562 1_555
Mg10 O12 2.285408 1_555
Mg10 O1 2.301652 1_555
Mg11 O15 2.089851 1_555
Mg11 O0 2.192105 1_556
Mg11 O5 2.266562 1_455
Mg11 O5 2.266562 1_555
Mg11 O13 2.285408 1_555
Mg11 O1 2.301652 1_555
Mg12 O14 2.089851 1_555
Mg12 O2 2.192105 1_555
Mg12 O6 2.266562 1_555
Mg12 O6 2.266562 1_455
Mg12 O12 2.285408 1_565
Mg12 O3 2.301652 1_555
Mg13 O15 2.089851 1_555
Mg13 O2 2.192105 1_556
Mg13 O7 2.266562 1_555
Mg13 O7 2.266562 1_455
Mg13 O13 2.285408 1_565
Mg13 O3 2.301652 1_555
