# generated using pymatgen
data_Mo3W(SeS3)2
_symmetry_space_group_name_H-M   'P 1'
_cell_length_a   3.22109603
_cell_length_b   3.22109603
_cell_length_c   36.30738800
_cell_angle_alpha   90.00000000
_cell_angle_beta   90.00000000
_cell_angle_gamma   120.00000064
_symmetry_Int_Tables_number   1
_chemical_formula_structural   Mo3W(SeS3)2
_chemical_formula_sum   'Mo3 W1 Se2 S6'
_cell_volume   326.23682414
_cell_formula_units_Z   1
loop_
 _symmetry_equiv_pos_site_id
 _symmetry_equiv_pos_as_xyz
  1  'x, y, z'
loop_
 _atom_site_type_symbol
 _atom_site_label
 _atom_site_symmetry_multiplicity
 _atom_site_fract_x
 _atom_site_fract_y
 _atom_site_fract_z
 _atom_site_occupancy
  Mo  Mo0  1  0.33333300  0.66666700  0.09390900  1
  Mo  Mo1  1  0.33333300  0.66666700  0.46964800  1
  Mo  Mo2  1  0.66666700  0.33333300  0.28180700  1
  W  W0  1  0.66666700  0.33333300  0.65754000  1
  Se  Se0  1  0.66666700  0.33333300  0.04680300  1
  Se  Se1  1  0.66666700  0.33333300  0.14101600  1
  S  S0  1  0.33333300  0.66666700  0.32458100  1
  S  S1  1  0.33333300  0.66666700  0.70051700  1
  S  S2  1  0.66666700  0.33333300  0.42688900  1
  S  S3  1  0.66666700  0.33333300  0.51243800  1
  S  S4  1  0.33333300  0.66666700  0.23903600  1
  S  S5  1  0.33333300  0.66666700  0.61456500  1
loop_
_geom_bond_atom_site_label_1
_geom_bond_atom_site_label_2
_geom_bond_distance
_geom_bond_site_symmetry_2
Mo0 Se0 2.526577 1_455
Mo0 Se0 2.526577 1_565
Mo0 Se0 2.526581 1_555
Mo0 Se1 2.526602 1_565
Mo0 Se1 2.526602 1_455
Mo0 Se1 2.526606 1_555
Mo1 S2 2.422527 1_565
Mo1 S2 2.422527 1_455
Mo1 S2 2.422531 1_555
Mo1 S3 2.423248 1_565
Mo1 S3 2.423248 1_455
Mo1 S3 2.423252 1_555
Mo2 S4 2.422806 1_545
Mo2 S4 2.422806 1_655
Mo2 S4 2.422810 1_555
Mo2 S0 2.422876 1_545
Mo2 S0 2.422876 1_655
Mo2 S0 2.422880 1_555
S1 W0 2.427607 1_455
S1 W0 2.427607 1_565
S1 W0 2.427611 1_555
S5 W0 2.427560 1_455
S5 W0 2.427560 1_565
S5 W0 2.427564 1_555
