# generated using pymatgen
data_Ba2Mn3Tl2O10
_symmetry_space_group_name_H-M   'P 1'
_cell_length_a   3.78371300
_cell_length_b   3.78638859
_cell_length_c   18.17573908
_cell_angle_alpha   90.20726040
_cell_angle_beta   90.52485632
_cell_angle_gamma   90.14777966
_symmetry_Int_Tables_number   1
_chemical_formula_structural   Ba2Mn3Tl2O10
_chemical_formula_sum   'Ba2 Mn3 Tl2 O10'
_cell_volume   260.38316669
_cell_formula_units_Z   1
loop_
 _symmetry_equiv_pos_site_id
 _symmetry_equiv_pos_as_xyz
  1  'x, y, z'
loop_
 _atom_site_type_symbol
 _atom_site_label
 _atom_site_symmetry_multiplicity
 _atom_site_fract_x
 _atom_site_fract_y
 _atom_site_fract_z
 _atom_site_occupancy
  Ba  Ba0  1  0.21745300  0.19651000  0.26963700  1
  Ba  Ba1  1  0.78111100  0.70884600  0.72916400  1
  Mn  Mn0  1  0.29298900  0.20768000  0.85893400  1
  Mn  Mn1  1  0.71958300  0.69349700  0.13929000  1
  Mn  Mn2  1  0.23361400  0.70661300  0.99786700  1
  Tl  Tl0  1  0.72646400  0.70511100  0.43583400  1
  Tl  Tl1  1  0.24826100  0.20775500  0.56551900  1
  O  O0  1  0.28876300  0.70882200  0.83830300  1
  O  O1  1  0.27150600  0.20559200  0.67621800  1
  O  O2  1  0.78717400  0.21068500  0.83026100  1
  O  O3  1  0.73133900  0.73170200  0.55061900  1
  O  O4  1  0.73398500  0.70556200  0.03287000  1
  O  O5  1  0.21846500  0.69288900  0.16040900  1
  O  O6  1  0.71596000  0.70266500  0.32457800  1
  O  O7  1  0.71474400  0.19508200  0.16860900  1
  O  O8  1  0.22436700  0.23371700  0.45066700  1
  O  O9  1  0.24468800  0.20597600  0.96427400  1
loop_
_geom_bond_atom_site_label_1
_geom_bond_atom_site_label_2
_geom_bond_distance
_geom_bond_site_symmetry_2
Ba0 O7 2.631686 1_455
Ba0 O7 2.641136 1_555
Ba0 O5 2.738793 1_555
Ba0 O5 2.747818 1_545
Ba0 O6 2.837014 1_545
Ba0 O6 2.850285 1_445
Ba0 O6 2.856735 1_555
Ba0 O6 2.882762 1_455
Ba0 O8 3.292721 1_555
Ba1 O2 2.638062 1_555
Ba1 O2 2.638431 1_565
Ba1 O0 2.733698 1_555
Ba1 O0 2.748581 1_655
Ba1 O1 2.816826 1_665
Ba1 O1 2.835082 1_655
Ba1 O1 2.859988 1_565
Ba1 O1 2.865102 1_555
Ba1 O3 3.250402 1_555
Mn0 O0 1.924398 1_545
Mn0 O9 1.925033 1_555
Mn0 O0 1.935624 1_555
Mn0 O2 1.945731 1_555
Mn0 O2 1.979007 1_455
Mn1 O5 1.922820 1_655
Mn1 O4 1.936229 1_555
Mn1 O5 1.937992 1_555
Mn1 O7 1.962928 1_555
Mn1 O7 1.970861 1_565
Mn2 O9 1.989480 1_565
Mn2 O9 1.990072 1_555
Mn2 O4 1.991782 1_556
Mn2 O4 2.000150 1_456
O1 Tl1 2.013200 1_555
O3 Tl0 2.088277 1_555
O3 Tl1 2.585714 1_565
O3 Tl1 2.667675 1_665
O3 Tl1 2.710033 1_555
O3 Tl1 2.801563 1_655
O6 Tl0 2.022174 1_555
O8 Tl1 2.091327 1_555
O8 Tl0 2.611354 1_455
O8 Tl0 2.619745 1_555
O8 Tl0 2.755943 1_445
O8 Tl0 2.777232 1_545
