# generated using pymatgen
data_Ca2Co2O5
_symmetry_space_group_name_H-M   'P 1'
_cell_length_a   5.33786000
_cell_length_b   11.11998800
_cell_length_c   14.91850200
_cell_angle_alpha   90.00000000
_cell_angle_beta   90.00000000
_cell_angle_gamma   90.00000000
_symmetry_Int_Tables_number   1
_chemical_formula_structural   Ca2Co2O5
_chemical_formula_sum   'Ca16 Co16 O40'
_cell_volume   885.51661536
_cell_formula_units_Z   8
loop_
 _symmetry_equiv_pos_site_id
 _symmetry_equiv_pos_as_xyz
  1  'x, y, z'
loop_
 _atom_site_type_symbol
 _atom_site_label
 _atom_site_symmetry_multiplicity
 _atom_site_fract_x
 _atom_site_fract_y
 _atom_site_fract_z
 _atom_site_occupancy
  Ca  Ca0  1  0.01245600  0.26052600  0.39255700  1
  Ca  Ca1  1  0.98754400  0.73947400  0.89255700  1
  Ca  Ca2  1  0.01245600  0.23947400  0.60744300  1
  Ca  Ca3  1  0.98754400  0.76052600  0.10744300  1
  Ca  Ca4  1  0.98754400  0.73947400  0.60744300  1
  Ca  Ca5  1  0.01245600  0.26052600  0.10744300  1
  Ca  Ca6  1  0.98754400  0.76052600  0.39255700  1
  Ca  Ca7  1  0.01245600  0.23947400  0.89255700  1
  Ca  Ca8  1  0.51090400  0.98983200  0.10753300  1
  Ca  Ca9  1  0.48909600  0.01016800  0.60753300  1
  Ca  Ca10  1  0.51090400  0.51016800  0.89246700  1
  Ca  Ca11  1  0.48909600  0.48983200  0.39246700  1
  Ca  Ca12  1  0.48909600  0.01016800  0.89246700  1
  Ca  Ca13  1  0.51090400  0.98983200  0.39246700  1
  Ca  Ca14  1  0.48909600  0.48983200  0.10753300  1
  Ca  Ca15  1  0.51090400  0.51016800  0.60753300  1
  Co  Co0  1  0.54903900  0.21893700  0.25000000  1
  Co  Co1  1  0.45096100  0.78106300  0.75000000  1
  Co  Co2  1  0.54903900  0.28106300  0.75000000  1
  Co  Co3  1  0.45096100  0.71893700  0.25000000  1
  Co  Co4  1  0.04581900  0.03149500  0.25000000  1
  Co  Co5  1  0.95418100  0.96850500  0.75000000  1
  Co  Co6  1  0.04581900  0.46850500  0.75000000  1
  Co  Co7  1  0.95418100  0.53149500  0.25000000  1
  Co  Co8  1  0.00000000  0.00000000  0.50000000  1
  Co  Co9  1  0.00000000  0.00000000  0.00000000  1
  Co  Co10  1  0.00000000  0.50000000  0.50000000  1
  Co  Co11  1  0.00000000  0.50000000  0.00000000  1
  Co  Co12  1  0.50384700  0.25000000  0.50000000  1
  Co  Co13  1  0.49615300  0.75000000  0.00000000  1
  Co  Co14  1  0.49615300  0.75000000  0.50000000  1
  Co  Co15  1  0.50384700  0.25000000  0.00000000  1
  O  O0  1  0.91382300  0.19353700  0.25000000  1
  O  O1  1  0.08617700  0.80646300  0.75000000  1
  O  O2  1  0.91382300  0.30646300  0.75000000  1
  O  O3  1  0.08617700  0.69353700  0.25000000  1
  O  O4  1  0.40965200  0.05737300  0.25000000  1
  O  O5  1  0.59034800  0.94262700  0.75000000  1
  O  O6  1  0.40965200  0.44262700  0.75000000  1
  O  O7  1  0.59034800  0.55737300  0.25000000  1
  O  O8  1  0.97720200  0.96869400  0.14068800  1
  O  O9  1  0.02279800  0.03130600  0.64068800  1
  O  O10  1  0.97720200  0.53130600  0.85931200  1
  O  O11  1  0.02279800  0.46869400  0.35931200  1
  O  O12  1  0.02279800  0.03130600  0.85931200  1
  O  O13  1  0.97720200  0.96869400  0.35931200  1
  O  O14  1  0.02279800  0.46869400  0.14068800  1
  O  O15  1  0.97720200  0.53130600  0.64068800  1
  O  O16  1  0.48855300  0.28062900  0.35981000  1
  O  O17  1  0.51144700  0.71937100  0.85981000  1
  O  O18  1  0.48855300  0.21937100  0.64019000  1
  O  O19  1  0.51144700  0.78062900  0.14019000  1
  O  O20  1  0.51144700  0.71937100  0.64019000  1
  O  O21  1  0.48855300  0.28062900  0.14019000  1
  O  O22  1  0.51144700  0.78062900  0.35981000  1
  O  O23  1  0.48855300  0.21937100  0.85981000  1
  O  O24  1  0.24463400  0.87378100  0.51041200  1
  O  O25  1  0.75536600  0.12621900  0.01041200  1
  O  O26  1  0.24463400  0.62621900  0.48958800  1
  O  O27  1  0.75536600  0.37378100  0.98958800  1
  O  O28  1  0.75536600  0.12621900  0.48958800  1
  O  O29  1  0.24463400  0.87378100  0.98958800  1
  O  O30  1  0.75536600  0.37378100  0.51041200  1
  O  O31  1  0.24463400  0.62621900  0.01041200  1
  O  O32  1  0.25500500  0.12373300  0.48533300  1
  O  O33  1  0.74499500  0.87626700  0.98533300  1
  O  O34  1  0.25500500  0.37626700  0.51466700  1
  O  O35  1  0.74499500  0.62373300  0.01466700  1
  O  O36  1  0.74499500  0.87626700  0.51466700  1
  O  O37  1  0.25500500  0.12373300  0.01466700  1
  O  O38  1  0.74499500  0.62373300  0.48533300  1
  O  O39  1  0.25500500  0.37626700  0.98533300  1
loop_
_geom_bond_atom_site_label_1
_geom_bond_atom_site_label_2
_geom_bond_distance
_geom_bond_site_symmetry_2
Ca0 O0 2.314109 1_455
Ca0 O11 2.368005 1_555
Ca0 O32 2.430177 1_555
Ca0 O28 2.491822 1_455
Ca0 O30 2.561376 1_455
Ca0 O34 2.579008 1_555
Ca0 O16 2.597507 1_555
Ca0 O16 2.847660 1_455
Ca1 O1 2.314109 1_655
Ca1 O10 2.368005 1_555
Ca1 O33 2.430177 1_555
Ca1 O29 2.491822 1_655
Ca1 O31 2.561376 1_656
Ca1 O35 2.579008 1_556
Ca1 O17 2.597507 1_555
Ca1 O17 2.847660 1_655
Ca2 O2 2.314109 1_455
Ca2 O9 2.368005 1_555
Ca2 O34 2.430177 1_555
Ca2 O30 2.491822 1_455
Ca2 O28 2.561376 1_455
Ca2 O32 2.579008 1_555
Ca2 O18 2.597507 1_555
Ca2 O18 2.847660 1_455
Ca3 O3 2.314109 1_655
Ca3 O8 2.368005 1_555
Ca3 O35 2.430177 1_555
Ca3 O31 2.491822 1_655
Ca3 O29 2.561376 1_654
Ca3 O33 2.579008 1_554
Ca3 O19 2.597507 1_555
Ca3 O19 2.847660 1_655
Ca4 O1 2.314109 1_655
Ca4 O15 2.368005 1_555
Ca4 O36 2.430177 1_555
Ca4 O24 2.491822 1_655
Ca4 O26 2.561376 1_655
Ca4 O38 2.579008 1_555
Ca4 O20 2.597507 1_555
Ca4 O20 2.847660 1_655
Ca5 O0 2.314109 1_455
Ca5 O14 2.368005 1_555
Ca5 O37 2.430177 1_555
Ca5 O25 2.491822 1_455
Ca5 O27 2.561376 1_454
Ca5 O39 2.579008 1_554
Ca5 O21 2.597507 1_555
Ca5 O21 2.847660 1_455
Ca6 O3 2.314109 1_655
Ca6 O13 2.368005 1_555
Ca6 O38 2.430177 1_555
Ca6 O26 2.491822 1_655
Ca6 O24 2.561376 1_655
Ca6 O36 2.579008 1_555
Ca6 O22 2.597507 1_555
Ca6 O22 2.847660 1_655
Ca7 O2 2.314109 1_455
Ca7 O12 2.368005 1_555
Ca7 O39 2.430177 1_555
Ca7 O27 2.491822 1_455
Ca7 O25 2.561376 1_456
Ca7 O37 2.579008 1_556
Ca7 O23 2.597507 1_555
Ca7 O23 2.847660 1_455
Ca8 O4 2.318079 1_565
Ca8 O19 2.376805 1_555
Ca8 O37 2.449954 1_565
Ca8 O25 2.470269 1_565
Ca8 O33 2.545508 1_554
Ca8 O8 2.548566 1_555
Ca8 O29 2.604139 1_554
Ca8 O8 2.900985 1_455
Ca9 O5 2.318079 1_545
Ca9 O18 2.376805 1_555
Ca9 O36 2.449954 1_545
Ca9 O24 2.470269 1_545
Ca9 O32 2.545508 1_555
Ca9 O9 2.548566 1_555
Ca9 O28 2.604139 1_555
Ca9 O9 2.900985 1_655
Ca10 O6 2.318079 1_555
Ca10 O17 2.376805 1_555
Ca10 O39 2.449954 1_555
Ca10 O27 2.470269 1_555
Ca10 O35 2.545508 1_556
Ca10 O10 2.548566 1_555
Ca10 O31 2.604139 1_556
Ca10 O10 2.900985 1_455
Ca11 O7 2.318079 1_555
Ca11 O16 2.376805 1_555
Ca11 O38 2.449954 1_555
Ca11 O26 2.470269 1_555
Ca11 O34 2.545508 1_555
Ca11 O11 2.548566 1_555
Ca11 O30 2.604139 1_555
Ca11 O11 2.900985 1_655
Ca12 O5 2.318079 1_545
Ca12 O23 2.376805 1_555
Ca12 O33 2.449954 1_545
Ca12 O29 2.470269 1_545
Ca12 O37 2.545508 1_556
Ca12 O12 2.548566 1_555
Ca12 O25 2.604139 1_556
Ca12 O12 2.900985 1_655
Ca13 O4 2.318079 1_565
Ca13 O22 2.376805 1_555
Ca13 O32 2.449954 1_565
Ca13 O28 2.470269 1_565
Ca13 O36 2.545508 1_555
Ca13 O13 2.548566 1_555
Ca13 O24 2.604139 1_555
Ca13 O13 2.900985 1_455
Ca14 O7 2.318079 1_555
Ca14 O21 2.376805 1_555
Ca14 O35 2.449954 1_555
Ca14 O31 2.470269 1_555
Ca14 O39 2.545508 1_554
Ca14 O14 2.548566 1_555
Ca14 O27 2.604139 1_554
Ca14 O14 2.900985 1_655
Ca15 O6 2.318079 1_555
Ca15 O20 2.376805 1_555
Ca15 O34 2.449954 1_555
Ca15 O30 2.470269 1_555
Ca15 O38 2.545508 1_555
Ca15 O15 2.548566 1_555
Ca15 O26 2.604139 1_555
Ca15 O15 2.900985 1_455
Co0 O21 1.805148 1_555
Co0 O16 1.805148 1_555
Co0 O4 1.944560 1_555
Co0 O0 1.967545 1_555
Co1 O20 1.805148 1_555
Co1 O17 1.805148 1_555
Co1 O5 1.944560 1_555
Co1 O1 1.967545 1_555
Co2 O18 1.805148 1_555
Co2 O23 1.805148 1_555
Co2 O6 1.944560 1_555
Co2 O2 1.967545 1_555
Co3 O19 1.805148 1_555
Co3 O22 1.805148 1_555
Co3 O7 1.944560 1_555
Co3 O3 1.967545 1_555
Co4 O13 1.811423 1_445
Co4 O8 1.811423 1_445
Co4 O0 1.934758 1_455
Co4 O4 1.963293 1_555
Co5 O12 1.811423 1_665
Co5 O9 1.811423 1_665
Co5 O1 1.934758 1_655
Co5 O5 1.963293 1_555
Co6 O10 1.811423 1_455
Co6 O15 1.811423 1_455
Co6 O2 1.934758 1_455
Co6 O6 1.963293 1_555
Co7 O11 1.811423 1_655
Co7 O14 1.811423 1_655
Co7 O3 1.934758 1_655
Co7 O7 1.963293 1_555
Co8 O28 1.923347 1_455
Co8 O24 1.923347 1_545
Co8 O32 1.947773 1_555
Co8 O36 1.947773 1_445
Co8 O9 2.131006 1_555
Co8 O13 2.131006 1_445
Co9 O25 1.923347 1_455
Co9 O29 1.923347 1_544
Co9 O37 1.947773 1_555
Co9 O33 1.947773 1_444
Co9 O12 2.131006 1_554
Co9 O8 2.131006 1_445
Co10 O30 1.923347 1_455
Co10 O26 1.923347 1_555
Co10 O38 1.947773 1_455
Co10 O34 1.947773 1_555
Co10 O15 2.131006 1_455
Co10 O11 2.131006 1_555
Co11 O31 1.923347 1_555
Co11 O27 1.923347 1_454
Co11 O35 1.947773 1_455
Co11 O39 1.947773 1_554
Co11 O14 2.131006 1_555
Co11 O10 2.131006 1_454
Co12 O30 1.929048 1_555
Co12 O28 1.929048 1_555
Co12 O34 1.945168 1_555
Co12 O32 1.945168 1_555
Co12 O16 2.120549 1_555
Co12 O18 2.120549 1_555
Co13 O29 1.929048 1_554
Co13 O31 1.929048 1_555
Co13 O33 1.945168 1_554
Co13 O35 1.945168 1_555
Co13 O17 2.120549 1_554
Co13 O19 2.120549 1_555
Co14 O24 1.929048 1_555
Co14 O26 1.929048 1_555
Co14 O36 1.945168 1_555
Co14 O38 1.945168 1_555
Co14 O22 2.120549 1_555
Co14 O20 2.120549 1_555
Co15 O25 1.929048 1_555
Co15 O27 1.929048 1_554
Co15 O39 1.945168 1_554
Co15 O37 1.945168 1_555
Co15 O21 2.120549 1_555
Co15 O23 2.120549 1_554
