# generated using pymatgen
data_Np2Cr3(NO4)4
_symmetry_space_group_name_H-M   'P 1'
_cell_length_a   9.81057500
_cell_length_b   10.31691750
_cell_length_c   10.55320215
_cell_angle_alpha   95.27200884
_cell_angle_beta   91.00653360
_cell_angle_gamma   114.39955897
_symmetry_Int_Tables_number   1
_chemical_formula_structural   Np2Cr3(NO4)4
_chemical_formula_sum   'Np4 Cr6 N8 O32'
_cell_volume   966.80984835
_cell_formula_units_Z   2
loop_
 _symmetry_equiv_pos_site_id
 _symmetry_equiv_pos_as_xyz
  1  'x, y, z'
loop_
 _atom_site_type_symbol
 _atom_site_label
 _atom_site_symmetry_multiplicity
 _atom_site_fract_x
 _atom_site_fract_y
 _atom_site_fract_z
 _atom_site_occupancy
  Np  Np0  1  0.79766000  0.46777800  0.05021700  1
  Np  Np1  1  0.20234000  0.53222200  0.94978300  1
  Np  Np2  1  0.52407100  0.19990000  0.30455300  1
  Np  Np3  1  0.47592900  0.80010000  0.69544700  1
  Cr  Cr0  1  0.92759500  0.26375100  0.16793300  1
  Cr  Cr1  1  0.07240500  0.73624900  0.83206700  1
  Cr  Cr2  1  0.25691300  0.98713200  0.54286000  1
  Cr  Cr3  1  0.74308700  0.01286800  0.45714000  1
  Cr  Cr4  1  0.41955800  0.42536100  0.17766500  1
  Cr  Cr5  1  0.58044200  0.57463900  0.82233500  1
  N  N0  1  0.77625400  0.67204300  0.45573300  1
  N  N1  1  0.22374600  0.32795700  0.54426700  1
  N  N2  1  0.92765700  0.06273400  0.79816900  1
  N  N3  1  0.07234300  0.93726600  0.20183100  1
  N  N4  1  0.39766700  0.12741600  0.89658800  1
  N  N5  1  0.60233300  0.87258400  0.10341200  1
  N  N6  1  0.19956700  0.63399300  0.34270700  1
  N  N7  1  0.80043300  0.36600700  0.65729300  1
  O  O0  1  0.72297100  0.33219600  0.92053900  1
  O  O1  1  0.27702900  0.66780400  0.07946100  1
  O  O2  1  0.87392500  0.59899500  0.18288600  1
  O  O3  1  0.12607500  0.40100500  0.81711400  1
  O  O4  1  0.62711800  0.35115900  0.41558800  1
  O  O5  1  0.37288200  0.64884100  0.58441200  1
  O  O6  1  0.42404500  0.06514300  0.17839000  1
  O  O7  1  0.57595500  0.93485700  0.82161000  1
  O  O8  1  0.00399000  0.40365100  0.06787900  1
  O  O9  1  0.99601100  0.59634900  0.93212100  1
  O  O10  1  0.75511400  0.27335100  0.18295700  1
  O  O11  1  0.24488600  0.72664900  0.81704300  1
  O  O12  1  0.91461700  0.11417600  0.09921700  1
  O  O13  1  0.08538300  0.88582400  0.90078300  1
  O  O14  1  0.02215900  0.30187500  0.30142100  1
  O  O15  1  0.97784100  0.69812500  0.69857900  1
  O  O16  1  0.35997400  0.10592400  0.43614300  1
  O  O17  1  0.64002600  0.89407600  0.56385700  1
  O  O18  1  0.37273500  0.92156900  0.61961600  1
  O  O19  1  0.62726500  0.07843100  0.38038400  1
  O  O20  1  0.11842800  0.85641100  0.46688300  1
  O  O21  1  0.88157200  0.14358900  0.53311700  1
  O  O22  1  0.19465700  0.06593200  0.64921300  1
  O  O23  1  0.80534300  0.93406800  0.35078700  1
  O  O24  1  0.56908600  0.38656700  0.13903200  1
  O  O25  1  0.43091400  0.61343300  0.86096800  1
  O  O26  1  0.33986200  0.30463800  0.27636800  1
  O  O27  1  0.66013800  0.69536200  0.72363200  1
  O  O28  1  0.30372500  0.41165100  0.04593300  1
  O  O29  1  0.69627500  0.58834900  0.95406700  1
  O  O30  1  0.47823600  0.58226700  0.25084000  1
  O  O31  1  0.52176400  0.41773300  0.74916000  1
loop_
_geom_bond_atom_site_label_1
_geom_bond_atom_site_label_2
_geom_bond_distance
_geom_bond_site_symmetry_2
Np0 O2 1.769390 1_555
Np0 O0 1.769898 1_554
Np0 O29 2.187457 1_554
Np0 O24 2.296718 1_555
Np0 O9 2.314266 1_554
Np0 O8 2.384481 1_655
Np0 O10 2.450574 1_555
Np1 O3 1.769390 1_555
Np1 O1 1.769898 1_556
Np1 O28 2.187457 1_556
Np1 O25 2.296718 1_555
Np1 O8 2.314260 1_556
Np1 O9 2.384471 1_455
Np1 O11 2.450574 1_555
Np2 O4 1.774612 1_555
Np2 O6 1.776314 1_555
Np2 O19 2.107099 1_555
Np2 O16 2.120524 1_555
Np2 O26 2.485085 1_555
Np2 O10 2.494084 1_555
Np2 O24 2.626347 1_555
Np3 O5 1.774612 1_555
Np3 O7 1.776314 1_555
Np3 O18 2.107099 1_555
Np3 O17 2.120524 1_555
Np3 O27 2.485085 1_555
Np3 O11 2.494084 1_555
Np3 O25 2.626347 1_555
Cr0 O14 1.597083 1_655
Cr0 O12 1.597558 1_555
Cr0 O10 1.744501 1_555
Cr0 O8 1.781565 1_655
Cr1 O15 1.597083 1_455
Cr1 O13 1.597558 1_555
Cr1 O11 1.744501 1_555
Cr1 O9 1.781564 1_455
Cr2 O20 1.598981 1_555
Cr2 O22 1.600095 1_565
Cr2 O16 1.750006 1_565
Cr2 O18 1.762995 1_555
Cr3 O21 1.598981 1_555
Cr3 O23 1.600095 1_545
Cr3 O17 1.750006 1_545
Cr3 O19 1.762995 1_555
Cr4 O30 1.591522 1_555
Cr4 O26 1.646215 1_555
Cr4 O24 1.718858 1_555
Cr4 O28 1.737696 1_555
Cr5 O31 1.591522 1_555
Cr5 O27 1.646215 1_555
Cr5 O25 1.718858 1_555
Cr5 O29 1.737696 1_555
