# generated using pymatgen
data_AsC2S3NF8
_symmetry_space_group_name_H-M   'P 1'
_cell_length_a   6.71940000
_cell_length_b   7.88848237
_cell_length_c   9.81597362
_cell_angle_alpha   101.04581615
_cell_angle_beta   96.14483683
_cell_angle_gamma   106.94504210
_symmetry_Int_Tables_number   1
_chemical_formula_structural   AsC2S3NF8
_chemical_formula_sum   'As2 C4 S6 N2 F16'
_cell_volume   481.08687204
_cell_formula_units_Z   2
loop_
 _symmetry_equiv_pos_site_id
 _symmetry_equiv_pos_as_xyz
  1  'x, y, z'
loop_
 _atom_site_type_symbol
 _atom_site_label
 _atom_site_symmetry_multiplicity
 _atom_site_fract_x
 _atom_site_fract_y
 _atom_site_fract_z
 _atom_site_occupancy
  As  As0  1  0.55628300  0.30408100  0.22315000  1
  As  As1  1  0.44371700  0.69591900  0.77685000  1
  C  C0  1  0.05092900  0.10565800  0.53221800  1
  C  C1  1  0.94907100  0.89434200  0.46778200  1
  C  C2  1  0.02265000  0.82911300  0.33117600  1
  C  C3  1  0.97735000  0.17088700  0.66882400  1
  S  S0  1  0.20407800  0.70786700  0.34198000  1
  S  S1  1  0.79592200  0.29213300  0.65802000  1
  S  S2  1  0.25101700  0.67843000  0.13895800  1
  S  S3  1  0.74898300  0.32157000  0.86104200  1
  S  S4  1  0.02323700  0.79583600  0.06957200  1
  S  S5  1  0.97676300  0.20416400  0.93042800  1
  N  N0  1  0.05054900  0.14210700  0.78511600  1
  N  N1  1  0.94945100  0.85789300  0.21488400  1
  F  F0  1  0.51263000  0.10828800  0.29327000  1
  F  F1  1  0.48737000  0.89171200  0.70673000  1
  F  F2  1  0.40188800  0.16663200  0.05899100  1
  F  F3  1  0.59811200  0.83336800  0.94100900  1
  F  F4  1  0.60336000  0.50090200  0.15172600  1
  F  F5  1  0.39664000  0.49909800  0.84827400  1
  F  F6  1  0.99701300  0.19482700  0.43536700  1
  F  F7  1  0.00298700  0.80517300  0.56463300  1
  F  F8  1  0.32790400  0.34331000  0.27835800  1
  F  F9  1  0.67209600  0.65669000  0.72164200  1
  F  F10  1  0.26485700  0.14340600  0.55716600  1
  F  F11  1  0.73514300  0.85659400  0.44283400  1
  F  F12  1  0.28534700  0.55898000  0.61507900  1
  F  F13  1  0.71465300  0.44102000  0.38492100  1
  F  F14  1  0.78706300  0.26987800  0.16183200  1
  F  F15  1  0.21293700  0.73012200  0.83816800  1
loop_
_geom_bond_atom_site_label_1
_geom_bond_atom_site_label_2
_geom_bond_distance
_geom_bond_site_symmetry_2
As0 F13 1.769675 1_555
As0 F0 1.769689 1_555
As0 F8 1.770575 1_555
As0 F2 1.779155 1_555
As0 F4 1.783404 1_555
As0 F14 1.794779 1_555
As1 F12 1.769675 1_555
As1 F1 1.769689 1_555
As1 F9 1.770575 1_555
As1 F3 1.779155 1_555
As1 F5 1.783404 1_555
As1 F15 1.794779 1_555
C0 F6 1.364146 1_455
C0 F10 1.364603 1_555
C0 C3 1.527451 1_455
C1 F7 1.364146 1_655
C1 F11 1.364603 1_555
C1 C2 1.527451 1_655
C2 N1 1.280909 1_455
C2 S0 1.761553 1_555
C3 N0 1.280909 1_655
C3 S1 1.761553 1_555
S0 S2 2.030964 1_555
S1 S3 2.030964 1_555
S2 S4 2.123451 1_555
S3 S5 2.123451 1_555
N0 S5 1.595409 1_455
N1 S4 1.595409 1_655
