# generated using pymatgen
data_Er3ScS6
_symmetry_space_group_name_H-M   'P 1'
_cell_length_a   3.87394900
_cell_length_b   10.88045100
_cell_length_c   11.14672177
_cell_angle_alpha   70.95941089
_cell_angle_beta   90.00000000
_cell_angle_gamma   90.00000000
_symmetry_Int_Tables_number   1
_chemical_formula_structural   Er3ScS6
_chemical_formula_sum   'Er6 Sc2 S12'
_cell_volume   444.13189721
_cell_formula_units_Z   2
loop_
 _symmetry_equiv_pos_site_id
 _symmetry_equiv_pos_as_xyz
  1  'x, y, z'
loop_
 _atom_site_type_symbol
 _atom_site_label
 _atom_site_symmetry_multiplicity
 _atom_site_fract_x
 _atom_site_fract_y
 _atom_site_fract_z
 _atom_site_occupancy
  Er  Er0  1  0.25000000  0.56802100  0.83092900  1
  Er  Er1  1  0.75000000  0.43197900  0.16907100  1
  Er  Er2  1  0.25000000  0.31556700  0.50196300  1
  Er  Er3  1  0.75000000  0.68443300  0.49803700  1
  Er  Er4  1  0.25000000  0.84170400  0.08149100  1
  Er  Er5  1  0.75000000  0.15829600  0.91850900  1
  Sc  Sc0  1  0.25000000  0.95963500  0.68513900  1
  Sc  Sc1  1  0.75000000  0.04036500  0.31486100  1
  S  S0  1  0.25000000  0.52054200  0.61345100  1
  S  S1  1  0.75000000  0.47945800  0.38654900  1
  S  S2  1  0.25000000  0.08249900  0.10168400  1
  S  S3  1  0.75000000  0.91750100  0.89831600  1
  S  S4  1  0.25000000  0.60419000  0.06136400  1
  S  S5  1  0.75000000  0.39581000  0.93863600  1
  S  S6  1  0.25000000  0.25033200  0.27923800  1
  S  S7  1  0.75000000  0.74966800  0.72076200  1
  S  S8  1  0.25000000  0.89805300  0.46224800  1
  S  S9  1  0.75000000  0.10194700  0.53775200  1
  S  S10  1  0.25000000  0.18457700  0.74827900  1
  S  S11  1  0.75000000  0.81542300  0.25172100  1
loop_
_geom_bond_atom_site_label_1
_geom_bond_atom_site_label_2
_geom_bond_distance
_geom_bond_site_symmetry_2
Er0 S0 2.638286 1_555
Er0 S5 2.690047 1_455
Er0 S5 2.690047 1_555
Er0 S4 2.722516 1_556
Er0 S7 2.753624 1_555
Er0 S7 2.753624 1_455
Er1 S1 2.638286 1_555
Er1 S4 2.690047 1_655
Er1 S4 2.690047 1_555
Er1 S5 2.722516 1_554
Er1 S6 2.753624 1_655
Er1 S6 2.753624 1_555
Er2 S10 2.648861 1_555
Er2 S1 2.662691 1_555
Er2 S1 2.662691 1_455
Er2 S6 2.795913 1_555
Er2 S0 2.885589 1_555
Er2 S9 2.950984 1_455
Er2 S9 2.950984 1_555
Er3 S11 2.648861 1_555
Er3 S0 2.662691 1_655
Er3 S0 2.662691 1_555
Er3 S7 2.795913 1_555
Er3 S1 2.885589 1_555
Er3 S8 2.950984 1_555
Er3 S8 2.950984 1_655
Er4 S11 2.660853 1_455
Er4 S11 2.660853 1_555
Er4 S4 2.665900 1_555
Er4 S2 2.701781 1_565
Er4 S3 2.739026 1_454
Er4 S3 2.739026 1_554
Er5 S10 2.660853 1_655
Er5 S10 2.660853 1_555
Er5 S5 2.665900 1_555
Er5 S3 2.701781 1_545
Er5 S2 2.739026 1_556
Er5 S2 2.739026 1_656
S2 Sc1 2.982902 1_555
S2 Sc1 2.982902 1_455
S3 Sc0 2.982902 1_655
S3 Sc0 2.982902 1_555
S6 Sc1 2.921773 1_555
S6 Sc1 2.921773 1_455
S7 Sc0 2.921773 1_555
S7 Sc0 2.921773 1_655
S8 Sc1 2.681179 1_465
S8 Sc1 2.681179 1_565
S8 Sc0 2.776311 1_555
S9 Sc0 2.681179 1_545
S9 Sc0 2.681179 1_645
S9 Sc1 2.776311 1_555
S10 Sc0 2.758508 1_545
S11 Sc1 2.758508 1_565
