# generated using pymatgen
data_Tl4GeSe4
_symmetry_space_group_name_H-M   'P 1'
_cell_length_a   7.10523186
_cell_length_b   7.10523186
_cell_length_c   25.41904812
_cell_angle_alpha   81.16601189
_cell_angle_beta   81.16601189
_cell_angle_gamma   63.99946293
_symmetry_Int_Tables_number   1
_chemical_formula_structural   Tl4GeSe4
_chemical_formula_sum   'Tl16 Ge4 Se16'
_cell_volume   1134.31510771
_cell_formula_units_Z   4
loop_
 _symmetry_equiv_pos_site_id
 _symmetry_equiv_pos_as_xyz
  1  'x, y, z'
loop_
 _atom_site_type_symbol
 _atom_site_label
 _atom_site_symmetry_multiplicity
 _atom_site_fract_x
 _atom_site_fract_y
 _atom_site_fract_z
 _atom_site_occupancy
  Tl  Tl0  1  0.34536000  0.27402100  0.50292100  1
  Tl  Tl1  1  0.72597900  0.65464000  0.99707900  1
  Tl  Tl2  1  0.65464000  0.72597900  0.49707900  1
  Tl  Tl3  1  0.27402100  0.34536000  0.00292100  1
  Tl  Tl4  1  0.89383100  0.32744300  0.67835200  1
  Tl  Tl5  1  0.67255700  0.10616900  0.82164800  1
  Tl  Tl6  1  0.10616900  0.67255700  0.32164800  1
  Tl  Tl7  1  0.32744300  0.89383100  0.17835200  1
  Tl  Tl8  1  0.05666100  0.32481900  0.83676000  1
  Tl  Tl9  1  0.67518100  0.94333900  0.66324000  1
  Tl  Tl10  1  0.94333900  0.67518100  0.16324000  1
  Tl  Tl11  1  0.32481900  0.05666100  0.33676000  1
  Tl  Tl12  1  0.00000000  0.00000000  0.50000000  1
  Tl  Tl13  1  0.00000000  0.00000000  0.00000000  1
  Tl  Tl14  1  0.18004800  0.81995200  0.75000000  1
  Tl  Tl15  1  0.81995200  0.18004800  0.25000000  1
  Ge  Ge0  1  0.31681600  0.55833100  0.62394600  1
  Ge  Ge1  1  0.44166900  0.68318400  0.87605400  1
  Ge  Ge2  1  0.68318400  0.44166900  0.37605400  1
  Ge  Ge3  1  0.55833100  0.31681600  0.12394600  1
  Se  Se0  1  0.02264100  0.58508500  0.58291900  1
  Se  Se1  1  0.41491500  0.97735900  0.91708100  1
  Se  Se2  1  0.97735900  0.41491500  0.41708100  1
  Se  Se3  1  0.58508500  0.02264100  0.08291900  1
  Se  Se4  1  0.63864500  0.33290900  0.57557700  1
  Se  Se5  1  0.66709100  0.36135500  0.92442300  1
  Se  Se6  1  0.36135500  0.66709100  0.42442300  1
  Se  Se7  1  0.33290900  0.63864500  0.07557700  1
  Se  Se8  1  0.09651800  0.69936500  0.88100600  1
  Se  Se9  1  0.30063500  0.90348200  0.61899300  1
  Se  Se10  1  0.90348200  0.30063500  0.11899300  1
  Se  Se11  1  0.69936500  0.09651800  0.38100700  1
  Se  Se12  1  0.30237000  0.38560800  0.71203000  1
  Se  Se13  1  0.61439200  0.69763000  0.78797000  1
  Se  Se14  1  0.69763000  0.61439200  0.28797000  1
  Se  Se15  1  0.38560800  0.30237000  0.21203000  1
loop_
_geom_bond_atom_site_label_1
_geom_bond_atom_site_label_2
_geom_bond_distance
_geom_bond_site_symmetry_2
Ge0 Se9 2.388648 1_555
Ge0 Se12 2.392844 1_555
Ge0 Se0 2.398504 1_555
Ge0 Se4 2.415796 1_555
Ge1 Se8 2.388650 1_555
Ge1 Se13 2.392844 1_555
Ge1 Se1 2.398504 1_555
Ge1 Se5 2.415796 1_555
Ge2 Se11 2.388648 1_555
Ge2 Se14 2.392844 1_555
Ge2 Se2 2.398504 1_555
Ge2 Se6 2.415796 1_555
Ge3 Se10 2.388648 1_555
Ge3 Se15 2.392844 1_555
Ge3 Se3 2.398504 1_555
Ge3 Se7 2.415796 1_555
Se0 Tl4 3.081627 1_455
Se0 Tl0 3.127724 1_555
Se0 Tl12 3.307462 1_565
Se0 Tl9 3.358743 1_455
Se0 Tl2 3.374382 1_455
Se1 Tl5 3.081627 1_565
Se1 Tl1 3.127724 1_555
Se1 Tl13 3.307462 1_566
Se1 Tl8 3.358743 1_565
Se1 Tl3 3.374382 1_566
Se2 Tl6 3.081627 1_655
Se2 Tl2 3.127724 1_555
Se2 Tl12 3.307462 1_655
Se2 Tl11 3.358743 1_655
Se2 Tl0 3.374382 1_655
Se3 Tl7 3.081627 1_545
Se3 Tl3 3.127724 1_555
Se3 Tl13 3.307462 1_655
Se3 Tl10 3.358743 1_545
Se3 Tl1 3.374382 1_544
Se4 Tl0 3.179975 1_555
Se4 Tl2 3.208015 1_555
Se4 Tl9 3.216788 1_545
Se4 Tl12 3.230146 1_655
Se5 Tl1 3.179975 1_555
Se5 Tl3 3.208015 1_556
Se5 Tl8 3.216788 1_655
Se5 Tl13 3.230146 1_656
Se6 Tl2 3.179975 1_555
Se6 Tl0 3.208015 1_555
Se6 Tl11 3.216788 1_565
Se6 Tl12 3.230146 1_565
Se7 Tl3 3.179975 1_555
Se7 Tl1 3.208015 1_554
Se7 Tl10 3.216788 1_455
Se7 Tl13 3.230146 1_565
Se8 Tl8 3.178868 1_555
Se8 Tl14 3.337369 1_555
Se9 Tl9 3.178881 1_555
Se9 Tl14 3.337393 1_555
Se10 Tl10 3.178881 1_555
Se10 Tl15 3.337393 1_555
Se11 Tl11 3.178881 1_555
Se11 Tl15 3.337393 1_555
Se12 Tl14 3.084894 1_555
Se12 Tl9 3.364444 1_545
Se12 Tl8 3.439048 1_555
Se13 Tl14 3.084894 1_555
Se13 Tl8 3.364444 1_655
Se13 Tl9 3.439048 1_555
Se14 Tl15 3.084894 1_555
Se14 Tl11 3.364444 1_565
Se14 Tl10 3.439048 1_555
Se15 Tl15 3.084894 1_555
Se15 Tl10 3.364444 1_455
Se15 Tl11 3.439048 1_555
