# generated using pymatgen
data_ZnCrFeO4
_symmetry_space_group_name_H-M   'P 1'
_cell_length_a   6.01995801
_cell_length_b   6.01995801
_cell_length_c   6.01995801
_cell_angle_alpha   120.07876095
_cell_angle_beta   119.79765848
_cell_angle_gamma   90.10722934
_symmetry_Int_Tables_number   1
_chemical_formula_structural   ZnCrFeO4
_chemical_formula_sum   'Zn2 Cr2 Fe2 O8'
_cell_volume   154.40690901
_cell_formula_units_Z   2
loop_
 _symmetry_equiv_pos_site_id
 _symmetry_equiv_pos_as_xyz
  1  'x, y, z'
loop_
 _atom_site_type_symbol
 _atom_site_label
 _atom_site_symmetry_multiplicity
 _atom_site_fract_x
 _atom_site_fract_y
 _atom_site_fract_z
 _atom_site_occupancy
  Zn  Zn0  1  0.12258200  0.87258200  0.25000000  1
  Zn  Zn1  1  0.87741800  0.12741800  0.75000000  1
  Cr  Cr0  1  0.50000000  0.50000000  0.00000000  1
  Cr  Cr1  1  0.00000000  0.50000000  0.50000000  1
  Fe  Fe0  1  0.50000000  0.50000000  0.50000000  1
  Fe  Fe1  1  0.50000000  0.00000000  0.00000000  1
  O  O0  1  0.74001800  0.26308200  0.02306400  1
  O  O1  1  0.74001800  0.71695400  0.47693600  1
  O  O2  1  0.74085700  0.26214400  0.47871300  1
  O  O3  1  0.28343100  0.26214400  0.02128700  1
  O  O4  1  0.25998200  0.73691800  0.97693600  1
  O  O5  1  0.25998200  0.28304600  0.52306400  1
  O  O6  1  0.25914300  0.73785600  0.52128700  1
  O  O7  1  0.71656900  0.73785600  0.97871300  1
loop_
_geom_bond_atom_site_label_1
_geom_bond_atom_site_label_2
_geom_bond_distance
_geom_bond_site_symmetry_2
Cr0 O3 2.027172 1_555
Cr0 O7 2.027172 1_554
Cr0 O1 2.036659 1_555
Cr0 O0 2.036659 1_555
Cr0 O5 2.036659 1_554
Cr0 O4 2.036659 1_554
Cr1 O2 2.027172 1_455
Cr1 O6 2.027172 1_555
Cr1 O4 2.036659 1_555
Cr1 O1 2.036659 1_455
Cr1 O0 2.036659 1_455
Cr1 O5 2.036659 1_555
Fe0 O7 2.043912 1_555
Fe0 O6 2.043912 1_555
Fe0 O3 2.043912 1_555
Fe0 O2 2.043912 1_555
Fe0 O5 2.046187 1_555
Fe0 O1 2.046187 1_555
Fe1 O2 2.043912 1_555
Fe1 O3 2.043912 1_555
Fe1 O6 2.043912 1_544
Fe1 O7 2.043912 1_544
Fe1 O4 2.046187 1_544
Fe1 O0 2.046187 1_555
O0 Zn1 2.015323 1_554
O1 Zn1 2.015323 1_565
O2 Zn1 1.999147 1_555
O3 Zn1 1.999147 1_454
O4 Zn0 2.015323 1_556
O5 Zn0 2.015323 1_545
O6 Zn0 1.999147 1_555
O7 Zn0 1.999147 1_656
