# generated using pymatgen
data_Tb4MgRu
_symmetry_space_group_name_H-M   'P 1'
_cell_length_a   9.70213184
_cell_length_b   9.70200412
_cell_length_c   9.70217637
_cell_angle_alpha   59.99848001
_cell_angle_beta   59.99893563
_cell_angle_gamma   59.99832725
_symmetry_Int_Tables_number   1
_chemical_formula_structural   Tb4MgRu
_chemical_formula_sum   'Tb16 Mg4 Ru4'
_cell_volume   645.75655175
_cell_formula_units_Z   4
loop_
 _symmetry_equiv_pos_site_id
 _symmetry_equiv_pos_as_xyz
  1  'x, y, z'
loop_
 _atom_site_type_symbol
 _atom_site_label
 _atom_site_symmetry_multiplicity
 _atom_site_fract_x
 _atom_site_fract_y
 _atom_site_fract_z
 _atom_site_occupancy
  Tb  Tb0  1  0.59340462  0.59344445  0.59339123  1
  Tb  Tb1  1  0.59338821  0.59342790  0.21976683  1
  Tb  Tb2  1  0.59340849  0.21975941  0.59339504  1
  Tb  Tb3  1  0.21976510  0.59343292  0.59338023  1
  Tb  Tb4  1  0.06278618  0.43723828  0.43723075  1
  Tb  Tb5  1  0.43723228  0.06273143  0.06280040  1
  Tb  Tb6  1  0.43723518  0.06276147  0.43723272  1
  Tb  Tb7  1  0.06275604  0.43723612  0.06277389  1
  Tb  Tb8  1  0.43723228  0.43723792  0.06279506  1
  Tb  Tb9  1  0.06279175  0.06274070  0.43723101  1
  Tb  Tb10  1  0.18834070  0.81167458  0.81165769  1
  Tb  Tb11  1  0.81166042  0.18831884  0.18834952  1
  Tb  Tb12  1  0.81167885  0.18831864  0.81167507  1
  Tb  Tb13  1  0.18834108  0.81165564  0.18834852  1
  Tb  Tb14  1  0.81165556  0.81166867  0.18834816  1
  Tb  Tb15  1  0.18834220  0.18831855  0.81166189  1
  Mg  Mg0  1  0.82863687  0.82863399  0.82863977  1
  Mg  Mg1  1  0.82865061  0.82864693  0.51406033  1
  Mg  Mg2  1  0.82864621  0.51406605  0.82864907  1
  Mg  Mg3  1  0.51406164  0.82864551  0.82865221  1
  Ru  Ru0  1  0.38857327  0.38858837  0.38856792  1
  Ru  Ru1  1  0.38857241  0.38858859  0.83425830  1
  Ru  Ru2  1  0.38857436  0.83427563  0.38856849  1
  Ru  Ru3  1  0.83426371  0.38858842  0.38856690  1
loop_
_geom_bond_atom_site_label_1
_geom_bond_atom_site_label_2
_geom_bond_distance
_geom_bond_site_symmetry_2
Tb0 Tb14 3.500131 1_555
Tb0 Tb10 3.500294 1_555
Tb0 Tb12 3.500769 1_555
Tb1 Tb13 3.500122 1_555
Tb1 Tb14 3.500536 1_555
Tb1 Tb11 3.500596 1_555
Tb10 Tb3 3.500605 1_555
Tb10 Tb9 3.636302 1_565
Tb10 Tb6 3.636304 1_565
Tb10 Tb8 3.636537 1_556
Tb10 Tb7 3.636537 1_556
Tb10 Tb12 3.654220 1_465
Tb10 Tb15 3.654229 1_565
Tb10 Tb14 3.654624 1_456
Tb10 Tb13 3.654631 1_556
Tb11 Tb2 3.500220 1_555
Tb11 Tb8 3.636327 1_555
Tb11 Tb6 3.636341 1_555
Tb11 Tb7 3.636542 1_655
Tb11 Tb9 3.636555 1_655
Tb11 Tb14 3.654292 1_545
Tb11 Tb13 3.654404 1_645
Tb11 Tb12 3.654474 1_554
Tb11 Tb15 3.654594 1_654
Tb12 Tb2 3.500801 1_555
Tb12 Tb4 3.636588 1_655
Tb12 Tb9 3.636602 1_655
Tb12 Tb8 3.636646 1_556
Tb12 Tb5 3.636658 1_556
Tb12 Tb14 3.654320 1_546
Tb12 Tb15 3.654373 1_655
Tb13 Tb3 3.500032 1_555
Tb13 Tb8 3.636212 1_555
Tb13 Tb4 3.636222 1_555
Tb13 Tb5 3.636259 1_565
Tb13 Tb9 3.636266 1_565
Tb13 Tb15 3.654449 1_564
Tb13 Tb14 3.654591 1_455
Tb14 Tb5 3.636254 1_565
Tb14 Tb6 3.636261 1_565
Tb14 Tb7 3.636433 1_655
Tb14 Tb4 3.636440 1_655
Tb15 Tb2 3.500381 1_555
Tb15 Tb3 3.500665 1_555
Tb15 Tb4 3.636374 1_555
Tb15 Tb6 3.636380 1_555
Tb15 Tb7 3.636649 1_556
Tb15 Tb5 3.636654 1_556
Mg0 Mg2 3.051849 1_555
Mg0 Mg3 3.051934 1_555
Mg0 Mg1 3.051976 1_555
Mg0 Tb12 3.333226 1_565
Mg0 Tb10 3.333378 1_655
Mg0 Tb14 3.333417 1_556
Mg0 Tb7 3.556284 1_656
Mg0 Tb5 3.556367 1_566
Mg0 Tb9 3.556411 1_665
Mg0 Tb1 3.564312 1_556
Mg0 Tb3 3.564329 1_655
Mg0 Tb2 3.564335 1_565
Mg1 Mg2 3.052060 1_555
Mg1 Mg3 3.052156 1_555
Mg1 Tb11 3.332894 1_565
Mg1 Tb13 3.333046 1_655
Mg1 Tb14 3.333088 1_555
Mg1 Tb4 3.556286 1_655
Mg1 Tb9 3.556342 1_665
Mg1 Tb6 3.556368 1_565
Mg1 Tb3 3.564181 1_655
Mg1 Tb2 3.564193 1_565
Mg1 Tb0 3.564301 1_555
Mg2 Mg3 3.052019 1_555
Mg2 Tb15 3.333177 1_655
Mg2 Tb12 3.333206 1_555
Mg2 Tb11 3.333216 1_556
Mg2 Tb7 3.556360 1_656
Mg2 Tb8 3.556381 1_556
Mg2 Tb4 3.556428 1_655
Mg2 Tb1 3.564418 1_556
Mg2 Tb3 3.564437 1_655
Mg2 Tb0 3.564549 1_555
Mg3 Tb15 3.332923 1_565
Mg3 Tb10 3.333117 1_555
Mg3 Tb13 3.333118 1_556
Mg3 Tb8 3.556282 1_556
Mg3 Tb5 3.556341 1_566
Mg3 Tb6 3.556414 1_565
Mg3 Tb1 3.564228 1_556
Mg3 Tb2 3.564261 1_565
Mg3 Tb0 3.564369 1_555
Ru0 Tb8 2.770277 1_555
Ru0 Tb4 2.770382 1_555
Ru0 Tb6 2.770668 1_555
Ru0 Tb1 2.832033 1_555
Ru0 Tb3 2.832044 1_555
Ru0 Tb2 2.832065 1_555
Ru0 Tb13 3.495863 1_555
Ru0 Tb11 3.496120 1_555
Ru0 Tb15 3.496209 1_555
Ru1 Tb7 2.770671 1_556
Ru1 Tb5 2.770965 1_556
Ru1 Tb8 2.770989 1_556
Ru1 Tb0 2.832244 1_555
Ru1 Tb3 2.832248 1_555
Ru1 Tb2 2.832281 1_555
Ru1 Tb10 3.496072 1_555
Ru1 Tb15 3.496291 1_555
Ru1 Tb12 3.496334 1_555
Ru2 Tb5 2.770167 1_565
Ru2 Tb9 2.770272 1_565
Ru2 Tb6 2.770581 1_565
Ru2 Tb0 2.831973 1_555
Ru2 Tb1 2.831977 1_555
Ru2 Tb3 2.831990 1_555
Ru2 Tb13 3.496056 1_555
Ru2 Tb14 3.496085 1_555
Ru2 Tb10 3.496184 1_555
Ru3 Tb7 2.770460 1_655
Ru3 Tb9 2.770854 1_655
Ru3 Tb4 2.770876 1_655
Ru3 Tb1 2.832180 1_555
Ru3 Tb0 2.832184 1_555
Ru3 Tb2 2.832218 1_555
Ru3 Tb14 3.496011 1_555
Ru3 Tb11 3.496225 1_555
Ru3 Tb12 3.496367 1_555
