# generated using pymatgen
data_Ba5LaSi6
_symmetry_space_group_name_H-M   'P 1'
_cell_length_a   4.88559400
_cell_length_b   17.32973300
_cell_length_c   17.99127900
_cell_angle_alpha   90.00000000
_cell_angle_beta   90.00000000
_cell_angle_gamma   90.00000000
_symmetry_Int_Tables_number   1
_chemical_formula_structural   Ba5LaSi6
_chemical_formula_sum   'Ba20 La4 Si24'
_cell_volume   1523.25033966
_cell_formula_units_Z   4
loop_
 _symmetry_equiv_pos_site_id
 _symmetry_equiv_pos_as_xyz
  1  'x, y, z'
loop_
 _atom_site_type_symbol
 _atom_site_label
 _atom_site_symmetry_multiplicity
 _atom_site_fract_x
 _atom_site_fract_y
 _atom_site_fract_z
 _atom_site_occupancy
  Ba  Ba0  1  0.25000000  0.06816900  0.30837500  1
  Ba  Ba1  1  0.25000000  0.56816900  0.19162500  1
  Ba  Ba2  1  0.75000000  0.93183100  0.69162500  1
  Ba  Ba3  1  0.75000000  0.43183100  0.80837500  1
  Ba  Ba4  1  0.25000000  0.07724300  0.56510200  1
  Ba  Ba5  1  0.25000000  0.57724300  0.93489800  1
  Ba  Ba6  1  0.75000000  0.92275700  0.43489800  1
  Ba  Ba7  1  0.75000000  0.42275700  0.06510200  1
  Ba  Ba8  1  0.25000000  0.32137700  0.23133500  1
  Ba  Ba9  1  0.25000000  0.82137700  0.26866500  1
  Ba  Ba10  1  0.75000000  0.67862300  0.76866500  1
  Ba  Ba11  1  0.75000000  0.17862300  0.73133500  1
  Ba  Ba12  1  0.25000000  0.34164300  0.63101700  1
  Ba  Ba13  1  0.25000000  0.84164300  0.86898300  1
  Ba  Ba14  1  0.75000000  0.65835700  0.36898300  1
  Ba  Ba15  1  0.75000000  0.15835700  0.13101700  1
  Ba  Ba16  1  0.25000000  0.47038300  0.40694800  1
  Ba  Ba17  1  0.25000000  0.97038300  0.09305200  1
  Ba  Ba18  1  0.75000000  0.52961700  0.59305200  1
  Ba  Ba19  1  0.75000000  0.02961700  0.90694800  1
  La  La0  1  0.25000000  0.25169800  0.43297800  1
  La  La1  1  0.25000000  0.75169800  0.06702200  1
  La  La2  1  0.75000000  0.74830200  0.56702200  1
  La  La3  1  0.75000000  0.24830200  0.93297800  1
  Si  Si0  1  0.25000000  0.04625800  0.77522500  1
  Si  Si1  1  0.25000000  0.54625800  0.72477500  1
  Si  Si2  1  0.75000000  0.95374200  0.22477500  1
  Si  Si3  1  0.75000000  0.45374200  0.27522500  1
  Si  Si4  1  0.25000000  0.14525300  0.99541100  1
  Si  Si5  1  0.25000000  0.64525300  0.50458900  1
  Si  Si6  1  0.75000000  0.85474700  0.00458900  1
  Si  Si7  1  0.75000000  0.35474700  0.49541100  1
  Si  Si8  1  0.25000000  0.15502700  0.85978300  1
  Si  Si9  1  0.25000000  0.65502700  0.64021700  1
  Si  Si10  1  0.75000000  0.84497300  0.14021700  1
  Si  Si11  1  0.75000000  0.34497300  0.35978300  1
  Si  Si12  1  0.25000000  0.28978300  0.82302400  1
  Si  Si13  1  0.25000000  0.78978300  0.67697600  1
  Si  Si14  1  0.75000000  0.71021700  0.17697600  1
  Si  Si15  1  0.75000000  0.21021700  0.32302400  1
  Si  Si16  1  0.25000000  0.36734600  0.93695300  1
  Si  Si17  1  0.25000000  0.86734600  0.56304700  1
  Si  Si18  1  0.75000000  0.63265400  0.06304700  1
  Si  Si19  1  0.75000000  0.13265400  0.43695300  1
  Si  Si20  1  0.25000000  0.77794500  0.45696600  1
  Si  Si21  1  0.25000000  0.27794500  0.04303400  1
  Si  Si22  1  0.75000000  0.22205500  0.54303400  1
  Si  Si23  1  0.75000000  0.72205500  0.95696600  1
loop_
_geom_bond_atom_site_label_1
_geom_bond_atom_site_label_2
_geom_bond_distance
_geom_bond_site_symmetry_2
Ba0 Si15 3.477996 1_555
Ba0 Si15 3.477996 1_455
Ba0 Si2 3.487368 1_445
Ba0 Si2 3.487368 1_545
Ba0 Si19 3.545047 1_455
Ba0 Si19 3.545047 1_555
Ba1 Si14 3.477996 1_455
Ba1 Si14 3.477996 1_555
Ba1 Si3 3.487368 1_455
Ba1 Si3 3.487368 1_555
Ba1 Si18 3.545047 1_555
Ba1 Si18 3.545047 1_455
Ba2 Si13 3.477996 1_655
Ba2 Si13 3.477996 1_555
Ba2 Si0 3.487368 1_565
Ba2 Si0 3.487368 1_665
Ba2 Si17 3.545047 1_555
Ba2 Si17 3.545047 1_655
Ba3 Si12 3.477996 1_655
Ba3 Si12 3.477996 1_555
Ba3 Si1 3.487368 1_555
Ba3 Si1 3.487368 1_655
Ba3 Si16 3.545047 1_555
Ba3 Si16 3.545047 1_655
Ba4 Si19 3.493563 1_455
Ba4 Si19 3.493563 1_555
Ba4 Si22 3.524592 1_555
Ba4 Si22 3.524592 1_455
Ba4 Si17 3.637647 1_545
Ba4 Si0 3.818326 1_555
Ba5 Si18 3.493563 1_456
Ba5 Si18 3.493563 1_556
Ba5 Si23 3.524592 1_555
Ba5 Si23 3.524592 1_455
Ba5 Si16 3.637647 1_555
Ba5 Si1 3.818326 1_555
Ba6 Si17 3.493563 1_555
Ba6 Si17 3.493563 1_655
Ba6 Si20 3.524592 1_655
Ba6 Si20 3.524592 1_555
Ba6 Si19 3.637647 1_565
Ba6 Si2 3.818326 1_555
Ba7 Si16 3.493563 1_654
Ba7 Si16 3.493563 1_554
Ba7 Si21 3.524592 1_655
Ba7 Si21 3.524592 1_555
Ba7 Si18 3.637647 1_555
Ba7 Si3 3.818326 1_555
Ba8 Si11 3.387466 1_455
Ba8 Si11 3.387466 1_555
Ba8 Si3 3.442751 1_455
Ba8 Si3 3.442751 1_555
Ba8 Si21 3.470379 1_555
Ba8 Si15 3.521272 1_555
Ba8 Si15 3.521272 1_455
Ba9 Si10 3.387466 1_555
Ba9 Si10 3.387466 1_455
Ba9 Si2 3.442751 1_555
Ba9 Si2 3.442751 1_455
Ba9 Si20 3.470379 1_555
Ba9 Si14 3.521272 1_555
Ba9 Si14 3.521272 1_455
Ba10 Si9 3.387466 1_655
Ba10 Si9 3.387466 1_555
Ba10 Si1 3.442751 1_555
Ba10 Si1 3.442751 1_655
Ba10 Si23 3.470379 1_555
Ba10 Si13 3.521272 1_655
Ba10 Si13 3.521272 1_555
Ba11 Si8 3.387466 1_555
Ba11 Si8 3.387466 1_655
Ba11 Si0 3.442751 1_655
Ba11 Si0 3.442751 1_555
Ba11 Si22 3.470379 1_555
Ba11 Si12 3.521272 1_555
Ba11 Si12 3.521272 1_655
Ba12 Si7 3.459926 1_455
Ba12 Si7 3.459926 1_555
Ba12 Si12 3.569444 1_555
Ba12 Si22 3.573216 1_455
Ba12 Si22 3.573216 1_555
Ba12 Si1 3.926698 1_555
Ba13 Si6 3.459926 1_556
Ba13 Si6 3.459926 1_456
Ba13 Si13 3.569444 1_555
Ba13 Si23 3.573216 1_555
Ba13 Si23 3.573216 1_455
Ba13 Si0 3.926698 1_565
Ba14 Si5 3.459926 1_655
Ba14 Si5 3.459926 1_555
Ba14 Si14 3.569444 1_555
Ba14 Si20 3.573216 1_655
Ba14 Si20 3.573216 1_555
Ba14 Si3 3.926698 1_555
Ba15 Si4 3.459926 1_554
Ba15 Si4 3.459926 1_654
Ba15 Si15 3.569444 1_555
Ba15 Si21 3.573216 1_555
Ba15 Si21 3.573216 1_655
Ba15 Si2 3.926698 1_545
Ba16 Si11 3.377963 1_555
Ba16 Si11 3.377963 1_455
Ba16 Si3 3.415653 1_555
Ba16 Si3 3.415653 1_455
Ba16 Si5 3.502796 1_555
Ba16 Si7 3.537811 1_455
Ba16 Si7 3.537811 1_555
Ba17 Si10 3.377963 1_555
Ba17 Si10 3.377963 1_455
Ba17 Si2 3.415653 1_455
Ba17 Si2 3.415653 1_555
Ba17 Si4 3.502796 1_564
Ba17 Si6 3.537811 1_455
Ba17 Si6 3.537811 1_555
Ba18 Si9 3.377963 1_555
Ba18 Si9 3.377963 1_655
Ba18 Si1 3.415653 1_655
Ba18 Si1 3.415653 1_555
Ba18 Si7 3.502796 1_555
Ba18 Si5 3.537811 1_555
Ba18 Si5 3.537811 1_655
Ba19 Si8 3.377963 1_555
Ba19 Si8 3.377963 1_655
Ba19 Si0 3.415653 1_655
Ba19 Si0 3.415653 1_555
Ba19 Si6 3.502796 1_546
Ba19 Si4 3.537811 1_555
Ba19 Si4 3.537811 1_655
La0 Si22 3.186180 1_555
La0 Si22 3.186180 1_455
La0 Si19 3.198178 1_455
La0 Si19 3.198178 1_555
La0 Si11 3.211582 1_555
La0 Si11 3.211582 1_455
La0 Si15 3.224490 1_455
La0 Si15 3.224490 1_555
La0 Si7 3.227704 1_555
La0 Si7 3.227704 1_455
La1 Si23 3.186180 1_554
La1 Si23 3.186180 1_454
La1 Si18 3.198178 1_455
La1 Si18 3.198178 1_555
La1 Si10 3.211582 1_555
La1 Si10 3.211582 1_455
La1 Si14 3.224490 1_455
La1 Si14 3.224490 1_555
La1 Si6 3.227704 1_555
La1 Si6 3.227704 1_455
La2 Si20 3.186180 1_655
La2 Si20 3.186180 1_555
La2 Si17 3.198178 1_555
La2 Si17 3.198178 1_655
La2 Si9 3.211582 1_655
La2 Si9 3.211582 1_555
La2 Si13 3.224490 1_655
La2 Si13 3.224490 1_555
La2 Si5 3.227704 1_555
La2 Si5 3.227704 1_655
La3 Si21 3.186180 1_656
La3 Si21 3.186180 1_556
La3 Si16 3.198178 1_555
La3 Si16 3.198178 1_655
La3 Si8 3.211582 1_555
La3 Si8 3.211582 1_655
La3 Si12 3.224490 1_555
La3 Si12 3.224490 1_655
La3 Si4 3.227704 1_555
La3 Si4 3.227704 1_655
Si0 Si8 2.422264 1_555
Si1 Si9 2.422264 1_555
Si4 Si8 2.445993 1_555
Si5 Si9 2.445993 1_555
Si10 Si2 2.422264 1_555
Si10 Si14 2.427124 1_555
Si10 Si6 2.445993 1_555
Si11 Si3 2.422264 1_555
Si11 Si15 2.427124 1_555
Si11 Si7 2.445993 1_555
Si12 Si8 2.427124 1_555
Si12 Si16 2.451146 1_555
Si13 Si9 2.427124 1_555
Si13 Si17 2.451146 1_555
Si14 Si18 2.451146 1_555
Si15 Si19 2.451146 1_555
Si16 Si21 2.458214 1_556
Si17 Si20 2.458214 1_555
Si18 Si23 2.458214 1_554
Si19 Si22 2.458214 1_555
Si20 Si5 2.453952 1_555
Si21 Si4 2.453952 1_554
Si22 Si7 2.453952 1_555
Si23 Si6 2.453952 1_556
