# generated using pymatgen
data_NdMgNi4
_symmetry_space_group_name_H-M   'P 1'
_cell_length_a   4.96800331
_cell_length_b   4.96797092
_cell_length_c   4.96798184
_cell_angle_alpha   59.99989203
_cell_angle_beta   60.00011094
_cell_angle_gamma   60.00005655
_symmetry_Int_Tables_number   1
_chemical_formula_structural   NdMgNi4
_chemical_formula_sum   'Nd1 Mg1 Ni4'
_cell_volume   86.70140164
_cell_formula_units_Z   1
loop_
 _symmetry_equiv_pos_site_id
 _symmetry_equiv_pos_as_xyz
  1  'x, y, z'
loop_
 _atom_site_type_symbol
 _atom_site_label
 _atom_site_symmetry_multiplicity
 _atom_site_fract_x
 _atom_site_fract_y
 _atom_site_fract_z
 _atom_site_occupancy
  Nd  Nd0  1  -0.00000000  0.00000000  0.00000000  1
  Mg  Mg0  1  0.25000100  0.24999900  0.25000000  1
  Ni  Ni0  1  0.62331204  0.62331204  0.62331204  1
  Ni  Ni1  1  0.62331204  0.13006387  0.62331204  1
  Ni  Ni2  1  0.62331204  0.62331204  0.13006387  1
  Ni  Ni3  1  0.13006387  0.62331204  0.62331204  1
loop_
_geom_bond_atom_site_label_1
_geom_bond_atom_site_label_2
_geom_bond_distance
_geom_bond_site_symmetry_2
Nd0 Ni3 2.916376 1_554
Nd0 Ni0 2.916380 1_454
Nd0 Ni3 2.916381 1_545
Nd0 Ni2 2.916381 1_455
Nd0 Ni3 2.916382 1_544
Nd0 Ni0 2.916384 1_445
Nd0 Ni2 2.916386 1_445
Nd0 Ni1 2.916388 1_455
Nd0 Ni1 2.916389 1_454
Nd0 Ni0 2.916394 1_544
Nd0 Ni2 2.916395 1_545
Nd0 Ni1 2.916396 1_554
Mg0 Ni3 2.909222 1_545
Mg0 Ni0 2.909225 1_545
Mg0 Ni2 2.909225 1_545
Mg0 Ni3 2.909231 1_554
Mg0 Ni3 2.909233 1_555
Mg0 Ni0 2.909233 1_554
Mg0 Ni1 2.909234 1_554
Mg0 Ni2 2.909235 1_555
Mg0 Ni1 2.909235 1_555
Mg0 Ni1 2.909247 1_455
Mg0 Ni0 2.909247 1_455
Mg0 Ni2 2.909248 1_455
Mg0 Nd0 3.042250 1_565
Mg0 Nd0 3.042255 1_556
Mg0 Nd0 3.042257 1_555
Mg0 Nd0 3.042269 1_655
Ni0 Ni1 2.450443 1_555
Ni0 Ni2 2.450448 1_555
Ni0 Ni3 2.450459 1_555
Ni0 Ni1 2.517528 1_565
Ni0 Ni2 2.517534 1_556
Ni0 Ni3 2.517545 1_655
Ni1 Ni2 2.450441 1_555
Ni1 Ni3 2.450453 1_555
Ni1 Ni2 2.517527 1_546
Ni1 Ni3 2.517539 1_645
Ni2 Ni3 2.450457 1_555
Ni2 Ni3 2.517544 1_654
