# generated using pymatgen
data_HoMg2
_symmetry_space_group_name_H-M   'P 1'
_cell_length_a   5.99986135
_cell_length_b   5.99985700
_cell_length_c   5.99986135
_cell_angle_alpha   59.99997598
_cell_angle_beta   60.00000000
_cell_angle_gamma   59.99997598
_symmetry_Int_Tables_number   1
_chemical_formula_structural   HoMg2
_chemical_formula_sum   'Ho2 Mg4'
_cell_volume   152.72431066
_cell_formula_units_Z   2
loop_
 _symmetry_equiv_pos_site_id
 _symmetry_equiv_pos_as_xyz
  1  'x, y, z'
loop_
 _atom_site_type_symbol
 _atom_site_label
 _atom_site_symmetry_multiplicity
 _atom_site_fract_x
 _atom_site_fract_y
 _atom_site_fract_z
 _atom_site_occupancy
  Ho  Ho0  1  0.75000000  0.75000000  0.75000000  1
  Ho  Ho1  1  0.50000000  0.50000000  0.50000000  1
  Mg  Mg0  1  0.12500000  0.62500000  0.12500000  1
  Mg  Mg1  1  0.12500000  0.12500000  0.12500000  1
  Mg  Mg2  1  0.62500000  0.12500000  0.12500000  1
  Mg  Mg3  1  0.12500000  0.12500000  0.62500000  1
loop_
_geom_bond_atom_site_label_1
_geom_bond_atom_site_label_2
_geom_bond_distance
_geom_bond_site_symmetry_2
Ho0 Mg2 3.517728 1_556
Ho0 Mg3 3.517728 1_655
Ho0 Mg1 3.517728 1_656
Ho0 Mg2 3.517729 1_566
Ho0 Mg3 3.517729 1_665
Ho0 Mg1 3.517729 1_566
Ho0 Mg1 3.517729 1_665
Ho0 Mg2 3.517729 1_565
Ho0 Mg3 3.517729 1_565
Ho0 Mg0 3.517730 1_656
Ho0 Mg0 3.517730 1_655
Ho0 Mg0 3.517730 1_556
Ho0 Ho1 3.674146 1_565
Ho0 Ho1 3.674149 1_655
Ho0 Ho1 3.674149 1_555
Ho0 Ho1 3.674149 1_556
Ho1 Mg2 3.517728 1_565
Ho1 Mg3 3.517728 1_565
Ho1 Mg1 3.517728 1_565
Ho1 Mg1 3.517729 1_556
Ho1 Mg3 3.517729 1_555
Ho1 Mg2 3.517729 1_555
Ho1 Mg2 3.517729 1_556
Ho1 Mg1 3.517729 1_655
Ho1 Mg3 3.517729 1_655
Ho1 Mg0 3.517730 1_555
Ho1 Mg0 3.517730 1_556
Ho1 Mg0 3.517730 1_655
Mg0 Mg2 2.999928 1_555
Mg0 Mg1 2.999928 1_555
Mg0 Mg2 2.999928 1_465
Mg0 Mg1 2.999928 1_565
Mg0 Mg3 2.999928 1_555
Mg0 Mg3 2.999928 1_564
Mg1 Mg3 2.999931 1_555
Mg1 Mg2 2.999931 1_555
Mg1 Mg2 2.999931 1_455
Mg1 Mg3 2.999931 1_554
Mg2 Mg3 2.999931 1_555
Mg2 Mg3 2.999931 1_654
