# generated using pymatgen
data_In4GeSb2Te
_symmetry_space_group_name_H-M   'P 1'
_cell_length_a   6.56344900
_cell_length_b   6.56344900
_cell_length_c   8.03348127
_cell_angle_alpha   65.88899159
_cell_angle_beta   65.88899159
_cell_angle_gamma   90.00000000
_symmetry_Int_Tables_number   1
_chemical_formula_structural   In4GeSb2Te
_chemical_formula_sum   'In4 Ge1 Sb2 Te1'
_cell_volume   282.47844215
_cell_formula_units_Z   1
loop_
 _symmetry_equiv_pos_site_id
 _symmetry_equiv_pos_as_xyz
  1  'x, y, z'
loop_
 _atom_site_type_symbol
 _atom_site_label
 _atom_site_symmetry_multiplicity
 _atom_site_fract_x
 _atom_site_fract_y
 _atom_site_fract_z
 _atom_site_occupancy
  In  In0  1  0.02349100  0.98132800  0.99518100  1
  In  In1  1  0.26867200  0.76867200  0.50481900  1
  In  In2  1  0.48132800  0.52349100  0.99518100  1
  In  In3  1  0.72650900  0.22650900  0.50481900  1
  Ge  Ge0  1  0.37500000  0.87500000  0.75000000  1
  Sb  Sb0  1  0.62500000  0.62500000  0.25000000  1
  Sb  Sb1  1  0.12500000  0.12500000  0.25000000  1
  Te  Te0  1  0.87500000  0.37500000  0.75000000  1
loop_
_geom_bond_atom_site_label_1
_geom_bond_atom_site_label_2
_geom_bond_distance
_geom_bond_site_symmetry_2
In0 Sb1 2.866197 1_566
In0 Sb0 2.866197 1_456
In0 Te0 2.985975 1_465
In1 Sb1 2.866197 1_565
In1 Sb0 2.866197 1_555
In1 Te0 2.985976 1_455
In2 Sb0 2.866197 1_556
In2 Sb1 2.866197 1_556
In2 Te0 2.985975 1_555
In3 Sb1 2.866197 1_655
In3 Sb0 2.866197 1_555
In3 Te0 2.985975 1_555
Ge0 In1 2.664529 1_555
Ge0 In2 2.664529 1_555
Ge0 In0 2.664529 1_555
Ge0 In3 2.664529 1_565
