# generated using pymatgen
data_SmGe3Rh5
_symmetry_space_group_name_H-M   'P 1'
_cell_length_a   16.03690737
_cell_length_b   16.03690737
_cell_length_c   3.96874600
_cell_angle_alpha   90.00000000
_cell_angle_beta   90.00000000
_cell_angle_gamma   119.99999741
_symmetry_Int_Tables_number   1
_chemical_formula_structural   SmGe3Rh5
_chemical_formula_sum   'Sm6 Ge18 Rh30'
_cell_volume   883.94488979
_cell_formula_units_Z   6
loop_
 _symmetry_equiv_pos_site_id
 _symmetry_equiv_pos_as_xyz
  1  'x, y, z'
loop_
 _atom_site_type_symbol
 _atom_site_label
 _atom_site_symmetry_multiplicity
 _atom_site_fract_x
 _atom_site_fract_y
 _atom_site_fract_z
 _atom_site_occupancy
  Sm  Sm0  1  0.29420700  0.39487800  0.75000000  1
  Sm  Sm1  1  0.70579300  0.60512200  0.25000000  1
  Sm  Sm2  1  0.60512200  0.89932800  0.75000000  1
  Sm  Sm3  1  0.39487800  0.10067200  0.25000000  1
  Sm  Sm4  1  0.10067200  0.70579300  0.75000000  1
  Sm  Sm5  1  0.89932800  0.29420700  0.25000000  1
  Ge  Ge0  1  0.55589700  0.23796600  0.75000000  1
  Ge  Ge1  1  0.44410300  0.76203400  0.25000000  1
  Ge  Ge2  1  0.76203400  0.31793100  0.75000000  1
  Ge  Ge3  1  0.23796600  0.68206900  0.25000000  1
  Ge  Ge4  1  0.68206900  0.44410300  0.75000000  1
  Ge  Ge5  1  0.31793100  0.55589700  0.25000000  1
  Ge  Ge6  1  0.24950500  0.11818800  0.75000000  1
  Ge  Ge7  1  0.75049500  0.88181200  0.25000000  1
  Ge  Ge8  1  0.88181200  0.13131700  0.75000000  1
  Ge  Ge9  1  0.11818800  0.86868300  0.25000000  1
  Ge  Ge10  1  0.86868300  0.75049500  0.75000000  1
  Ge  Ge11  1  0.13131700  0.24950500  0.25000000  1
  Ge  Ge12  1  0.05938000  0.42991300  0.75000000  1
  Ge  Ge13  1  0.94062000  0.57008700  0.25000000  1
  Ge  Ge14  1  0.57008700  0.62946600  0.75000000  1
  Ge  Ge15  1  0.42991300  0.37053400  0.25000000  1
  Ge  Ge16  1  0.37053400  0.94062000  0.75000000  1
  Ge  Ge17  1  0.62946600  0.05938000  0.25000000  1
  Rh  Rh0  1  0.41270900  0.26206300  0.75000000  1
  Rh  Rh1  1  0.58729100  0.73793700  0.25000000  1
  Rh  Rh2  1  0.73793700  0.15064600  0.75000000  1
  Rh  Rh3  1  0.26206300  0.84935400  0.25000000  1
  Rh  Rh4  1  0.84935400  0.58729100  0.75000000  1
  Rh  Rh5  1  0.15064600  0.41270900  0.25000000  1
  Rh  Rh6  1  0.53835600  0.07530200  0.75000000  1
  Rh  Rh7  1  0.46164400  0.92469800  0.25000000  1
  Rh  Rh8  1  0.92469800  0.46305400  0.75000000  1
  Rh  Rh9  1  0.07530200  0.53694600  0.25000000  1
  Rh  Rh10  1  0.53694600  0.46164400  0.75000000  1
  Rh  Rh11  1  0.46305400  0.53835600  0.25000000  1
  Rh  Rh12  1  0.10522800  0.13222900  0.75000000  1
  Rh  Rh13  1  0.89477200  0.86777100  0.25000000  1
  Rh  Rh14  1  0.86777100  0.97299900  0.75000000  1
  Rh  Rh15  1  0.13222900  0.02700100  0.25000000  1
  Rh  Rh16  1  0.02700100  0.89477200  0.75000000  1
  Rh  Rh17  1  0.97299900  0.10522800  0.25000000  1
  Rh  Rh18  1  0.22333000  0.57007800  0.75000000  1
  Rh  Rh19  1  0.77667000  0.42992200  0.25000000  1
  Rh  Rh20  1  0.42992200  0.65325100  0.75000000  1
  Rh  Rh21  1  0.57007800  0.34674900  0.25000000  1
  Rh  Rh22  1  0.34674900  0.77667000  0.75000000  1
  Rh  Rh23  1  0.65325100  0.22333000  0.25000000  1
  Rh  Rh24  1  0.04542000  0.26793200  0.75000000  1
  Rh  Rh25  1  0.95458000  0.73206800  0.25000000  1
  Rh  Rh26  1  0.73206800  0.77748800  0.75000000  1
  Rh  Rh27  1  0.26793200  0.22251200  0.25000000  1
  Rh  Rh28  1  0.22251200  0.95458000  0.75000000  1
  Rh  Rh29  1  0.77748800  0.04542000  0.25000000  1
loop_
_geom_bond_atom_site_label_1
_geom_bond_atom_site_label_2
_geom_bond_distance
_geom_bond_site_symmetry_2
Ge0 Rh6 2.479970 1_555
Ge0 Rh0 2.511908 1_555
Ge0 Rh21 2.576071 1_556
Ge0 Rh21 2.576071 1_555
Ge0 Rh23 2.607068 1_556
Ge0 Rh23 2.607068 1_555
Ge0 Sm3 3.125382 1_555
Ge0 Sm3 3.125382 1_556
Ge1 Rh7 2.479970 1_555
Ge1 Rh1 2.511908 1_555
Ge1 Rh20 2.576071 1_555
Ge1 Rh20 2.576071 1_554
Ge1 Rh22 2.607068 1_554
Ge1 Rh22 2.607068 1_555
Ge1 Sm2 3.125382 1_555
Ge1 Sm2 3.125382 1_554
Ge2 Rh8 2.479971 1_555
Ge2 Rh2 2.511908 1_555
Ge2 Rh23 2.576067 1_555
Ge2 Rh23 2.576067 1_556
Ge2 Rh19 2.607078 1_556
Ge2 Rh19 2.607078 1_555
Ge2 Sm5 3.125375 1_556
Ge2 Sm5 3.125375 1_555
Ge3 Rh9 2.479971 1_555
Ge3 Rh3 2.511908 1_555
Ge3 Rh22 2.576067 1_555
Ge3 Rh22 2.576067 1_554
Ge3 Rh18 2.607078 1_555
Ge3 Rh18 2.607078 1_554
Ge3 Sm4 3.125375 1_554
Ge3 Sm4 3.125375 1_555
Ge4 Rh10 2.479970 1_555
Ge4 Rh4 2.511908 1_555
Ge4 Rh19 2.576061 1_556
Ge4 Rh19 2.576061 1_555
Ge4 Rh21 2.607074 1_556
Ge4 Rh21 2.607074 1_555
Ge4 Sm1 3.125387 1_555
Ge4 Sm1 3.125387 1_556
Ge5 Rh11 2.479970 1_555
Ge5 Rh5 2.511908 1_555
Ge5 Rh18 2.576061 1_555
Ge5 Rh18 2.576061 1_554
Ge5 Rh20 2.607074 1_555
Ge5 Rh20 2.607074 1_554
Ge5 Sm0 3.125387 1_554
Ge5 Sm0 3.125387 1_555
Ge6 Rh12 2.434168 1_555
Ge6 Rh28 2.436340 1_545
Ge6 Rh0 2.476889 1_555
Ge6 Rh27 2.515891 1_556
Ge6 Rh27 2.515891 1_555
Ge6 Rh15 2.619753 1_556
Ge6 Rh15 2.619753 1_555
Ge6 Sm3 3.179093 1_556
Ge6 Sm3 3.179093 1_555
Ge7 Rh13 2.434168 1_555
Ge7 Rh29 2.436340 1_565
Ge7 Rh1 2.476889 1_555
Ge7 Rh26 2.515891 1_555
Ge7 Rh26 2.515891 1_554
Ge7 Rh14 2.619753 1_555
Ge7 Rh14 2.619753 1_554
Ge7 Sm2 3.179093 1_554
Ge7 Sm2 3.179093 1_555
Ge8 Rh14 2.434168 1_545
Ge8 Rh24 2.436340 1_655
Ge8 Rh2 2.476889 1_555
Ge8 Rh29 2.515891 1_555
Ge8 Rh29 2.515891 1_556
Ge8 Rh17 2.619753 1_555
Ge8 Rh17 2.619753 1_556
Ge8 Sm5 3.179106 1_556
Ge8 Sm5 3.179106 1_555
Ge9 Rh15 2.434168 1_565
Ge9 Rh25 2.436340 1_455
Ge9 Rh3 2.476889 1_555
Ge9 Rh28 2.515891 1_555
Ge9 Rh28 2.515891 1_554
Ge9 Rh16 2.619753 1_555
Ge9 Rh16 2.619753 1_554
Ge9 Sm4 3.179106 1_555
Ge9 Sm4 3.179106 1_554
Ge10 Rh16 2.434168 1_655
Ge10 Rh26 2.436340 1_555
Ge10 Rh4 2.476889 1_555
Ge10 Rh25 2.515891 1_556
Ge10 Rh25 2.515891 1_555
Ge10 Rh13 2.619753 1_555
Ge10 Rh13 2.619753 1_556
Ge10 Sm1 3.179101 1_555
Ge10 Sm1 3.179101 1_556
Ge11 Rh17 2.434168 1_455
Ge11 Rh27 2.436340 1_555
Ge11 Rh5 2.476889 1_555
Ge11 Rh24 2.515891 1_555
Ge11 Rh24 2.515891 1_554
Ge11 Rh12 2.619753 1_554
Ge11 Rh12 2.619753 1_555
Ge11 Sm0 3.179101 1_554
Ge11 Sm0 3.179101 1_555
Ge12 Rh18 2.460805 1_555
Ge12 Rh8 2.468906 1_455
Ge12 Rh24 2.493286 1_555
Ge12 Rh9 2.551656 1_556
Ge12 Rh9 2.551656 1_555
Ge12 Rh5 2.561223 1_555
Ge12 Rh5 2.561223 1_556
Ge12 Sm5 3.110656 1_456
Ge12 Sm5 3.110656 1_455
Ge13 Rh19 2.460805 1_555
Ge13 Rh9 2.468906 1_655
Ge13 Rh25 2.493286 1_555
Ge13 Rh8 2.551656 1_555
Ge13 Rh8 2.551656 1_554
Ge13 Rh4 2.561223 1_555
Ge13 Rh4 2.561223 1_554
Ge13 Sm4 3.110656 1_654
Ge13 Sm4 3.110656 1_655
Ge14 Rh20 2.460805 1_555
Ge14 Rh10 2.468890 1_555
Ge14 Rh26 2.493293 1_555
Ge14 Rh11 2.551652 1_556
Ge14 Rh11 2.551652 1_555
Ge14 Rh1 2.561233 1_555
Ge14 Rh1 2.561233 1_556
Ge14 Sm1 3.110641 1_555
Ge14 Sm1 3.110641 1_556
Ge15 Rh21 2.460805 1_555
Ge15 Rh11 2.468890 1_555
Ge15 Rh27 2.493293 1_555
Ge15 Rh10 2.551652 1_554
Ge15 Rh10 2.551652 1_555
Ge15 Rh0 2.561233 1_555
Ge15 Rh0 2.561233 1_554
Ge15 Sm0 3.110641 1_555
Ge15 Sm0 3.110641 1_554
Ge16 Rh22 2.460805 1_555
Ge16 Rh6 2.468896 1_565
Ge16 Rh28 2.493302 1_555
Ge16 Rh7 2.551646 1_556
Ge16 Rh7 2.551646 1_555
Ge16 Rh3 2.561230 1_556
Ge16 Rh3 2.561230 1_555
Ge16 Sm3 3.110665 1_565
Ge16 Sm3 3.110665 1_566
Ge17 Rh23 2.460805 1_555
Ge17 Rh7 2.468896 1_545
Ge17 Rh29 2.493302 1_555
Ge17 Rh6 2.551646 1_554
Ge17 Rh6 2.551646 1_555
Ge17 Rh2 2.561230 1_555
Ge17 Rh2 2.561230 1_554
Ge17 Sm2 3.110665 1_544
Ge17 Sm2 3.110665 1_545
Rh0 Sm3 3.158835 1_556
Rh0 Sm3 3.158835 1_555
Rh1 Sm2 3.158835 1_555
Rh1 Sm2 3.158835 1_554
Rh2 Sm5 3.158840 1_555
Rh2 Sm5 3.158840 1_556
Rh3 Sm4 3.158840 1_555
Rh3 Sm4 3.158840 1_554
Rh4 Sm1 3.158848 1_556
Rh4 Sm1 3.158848 1_555
Rh5 Sm0 3.158848 1_554
Rh5 Sm0 3.158848 1_555
Rh6 Sm3 3.214617 1_555
Rh6 Sm3 3.214617 1_556
Rh7 Sm2 3.214617 1_555
Rh7 Sm2 3.214617 1_554
Rh8 Sm5 3.214604 1_556
Rh8 Sm5 3.214604 1_555
Rh9 Sm4 3.214604 1_555
Rh9 Sm4 3.214604 1_554
Rh10 Sm1 3.214609 1_556
Rh10 Sm1 3.214609 1_555
Rh11 Sm0 3.214609 1_555
Rh11 Sm0 3.214609 1_554
Rh24 Sm5 3.254460 1_456
Rh24 Sm5 3.254460 1_455
Rh25 Sm4 3.254460 1_654
Rh25 Sm4 3.254460 1_655
Rh26 Sm1 3.254448 1_556
Rh26 Sm1 3.254448 1_555
Rh27 Sm0 3.254448 1_555
Rh27 Sm0 3.254448 1_554
Rh28 Sm3 3.254453 1_566
Rh28 Sm3 3.254453 1_565
Rh29 Sm2 3.254453 1_544
Rh29 Sm2 3.254453 1_545
