# generated using pymatgen
data_BrNO
_symmetry_space_group_name_H-M   'P 1'
_cell_length_a   6.26161900
_cell_length_b   6.49286800
_cell_length_c   6.84587502
_cell_angle_alpha   106.83730314
_cell_angle_beta   90.00000000
_cell_angle_gamma   90.00000000
_symmetry_Int_Tables_number   1
_chemical_formula_structural   BrNO
_chemical_formula_sum   'Br4 N4 O4'
_cell_volume   266.39349398
_cell_formula_units_Z   4
loop_
 _symmetry_equiv_pos_site_id
 _symmetry_equiv_pos_as_xyz
  1  'x, y, z'
loop_
 _atom_site_type_symbol
 _atom_site_label
 _atom_site_symmetry_multiplicity
 _atom_site_fract_x
 _atom_site_fract_y
 _atom_site_fract_z
 _atom_site_occupancy
  Br  Br0  1  0.62952000  0.73124800  0.91198500  1
  Br  Br1  1  0.12952000  0.76875200  0.58801500  1
  Br  Br2  1  0.37048000  0.26875200  0.08801500  1
  Br  Br3  1  0.87048000  0.23124800  0.41198500  1
  N  N0  1  0.17319600  0.41347900  0.64632400  1
  N  N1  1  0.67319600  0.08652100  0.85367600  1
  N  N2  1  0.82680400  0.58652100  0.35367600  1
  N  N3  1  0.32680400  0.91347900  0.14632400  1
  O  O0  1  0.33616200  0.33785700  0.59464400  1
  O  O1  1  0.83616200  0.16214300  0.90535600  1
  O  O2  1  0.66383800  0.66214300  0.40535600  1
  O  O3  1  0.16383800  0.83785700  0.09464400  1
loop_
_geom_bond_atom_site_label_1
_geom_bond_atom_site_label_2
_geom_bond_distance
_geom_bond_site_symmetry_2
Br0 N1 2.467512 1_565
Br0 N3 2.543004 1_556
Br1 N0 2.467512 1_555
Br1 N2 2.543004 1_455
Br2 N3 2.467512 1_545
Br2 N1 2.543004 1_554
Br3 N2 2.467512 1_555
Br3 N0 2.543004 1_655
N0 O0 1.143197 1_555
N1 O1 1.143197 1_555
N2 O2 1.143197 1_555
N3 O3 1.143197 1_555
