# generated using pymatgen
data_MoW(SeS)2
_symmetry_space_group_name_H-M   'P 1'
_cell_length_a   3.25340082
_cell_length_b   3.25340082
_cell_length_c   36.88232900
_cell_angle_alpha   90.00000000
_cell_angle_beta   90.00000000
_cell_angle_gamma   120.00001675
_symmetry_Int_Tables_number   1
_chemical_formula_structural   MoW(SeS)2
_chemical_formula_sum   'Mo2 W2 Se4 S4'
_cell_volume   338.08355044
_cell_formula_units_Z   2
loop_
 _symmetry_equiv_pos_site_id
 _symmetry_equiv_pos_as_xyz
  1  'x, y, z'
loop_
 _atom_site_type_symbol
 _atom_site_label
 _atom_site_symmetry_multiplicity
 _atom_site_fract_x
 _atom_site_fract_y
 _atom_site_fract_z
 _atom_site_occupancy
  Mo  Mo0  1  0.00000000  0.00000000  0.09392100  1
  Mo  Mo1  1  0.33333300  0.66666700  0.65754000  1
  W  W0  1  0.00000000  0.00000000  0.46966500  1
  W  W1  1  0.33333300  0.66666700  0.28180100  1
  Se  Se0  1  0.00000000  0.00000000  0.32812800  1
  Se  Se1  1  0.00000000  0.00000000  0.70358300  1
  Se  Se2  1  0.00000000  0.00000000  0.23542600  1
  Se  Se3  1  0.00000000  0.00000000  0.61151500  1
  S  S0  1  0.33333300  0.66666700  0.05200700  1
  S  S1  1  0.33333300  0.66666700  0.42767000  1
  S  S2  1  0.33333300  0.66666700  0.13583000  1
  S  S3  1  0.33333300  0.66666700  0.51166100  1
loop_
_geom_bond_atom_site_label_1
_geom_bond_atom_site_label_2
_geom_bond_distance
_geom_bond_site_symmetry_2
Mo0 S2 2.432569 1_545
Mo0 S2 2.432571 1_445
Mo0 S2 2.432571 1_555
Mo0 S0 2.432686 1_545
Mo0 S0 2.432688 1_555
Mo0 S0 2.432688 1_445
Mo1 Se3 2.531746 1_565
Mo1 Se3 2.531748 1_665
Mo1 Se3 2.531748 1_555
Mo1 Se1 2.532191 1_565
Mo1 Se1 2.532193 1_665
Mo1 Se1 2.532193 1_555
Se0 W1 2.539227 1_545
Se0 W1 2.539229 1_445
Se0 W1 2.539229 1_555
Se2 W1 2.540419 1_545
Se2 W1 2.540421 1_445
Se2 W1 2.540421 1_555
S1 W0 2.434586 1_565
S1 W0 2.434588 1_665
S1 W0 2.434588 1_555
S3 W0 2.434609 1_565
S3 W0 2.434611 1_665
S3 W0 2.434611 1_555
