# generated using pymatgen
data_Ru2Pb3N4
_symmetry_space_group_name_H-M   'P 1'
_cell_length_a   6.62574600
_cell_length_b   10.24028799
_cell_length_c   10.13415431
_cell_angle_alpha   90.00000000
_cell_angle_beta   90.00000000
_cell_angle_gamma   90.00000000
_symmetry_Int_Tables_number   1
_chemical_formula_structural   Ru2Pb3N4
_chemical_formula_sum   'Ru8 Pb12 N16'
_cell_volume   687.59778107
_cell_formula_units_Z   4
loop_
 _symmetry_equiv_pos_site_id
 _symmetry_equiv_pos_as_xyz
  1  'x, y, z'
loop_
 _atom_site_type_symbol
 _atom_site_label
 _atom_site_symmetry_multiplicity
 _atom_site_fract_x
 _atom_site_fract_y
 _atom_site_fract_z
 _atom_site_occupancy
  Ru  Ru0  1  0.75000000  0.50000000  0.76442173  1
  Ru  Ru1  1  0.75000000  0.00000000  0.73557827  1
  Ru  Ru2  1  0.25000000  0.50000000  0.23557827  1
  Ru  Ru3  1  0.25000000  0.00000000  0.26442173  1
  Ru  Ru4  1  0.79969792  0.25000000  0.75000000  1
  Ru  Ru5  1  0.70030208  0.75000000  0.75000000  1
  Ru  Ru6  1  0.20030208  0.75000000  0.25000000  1
  Ru  Ru7  1  0.29969792  0.25000000  0.25000000  1
  Pb  Pb0  1  0.81166417  0.15636478  0.38810738  1
  Pb  Pb1  1  0.68833583  0.84363522  0.38810738  1
  Pb  Pb2  1  0.81166417  0.34363522  0.11189262  1
  Pb  Pb3  1  0.68833583  0.65636478  0.11189262  1
  Pb  Pb4  1  0.18833583  0.84363522  0.61189262  1
  Pb  Pb5  1  0.31166417  0.15636478  0.61189262  1
  Pb  Pb6  1  0.18833583  0.65636478  0.88810738  1
  Pb  Pb7  1  0.31166417  0.34363522  0.88810738  1
  Pb  Pb8  1  0.75000000  0.50000000  0.42085284  1
  Pb  Pb9  1  0.75000000  0.00000000  0.07914716  1
  Pb  Pb10  1  0.25000000  0.50000000  0.57914716  1
  Pb  Pb11  1  0.25000000  0.00000000  0.92085284  1
  N  N0  1  0.91705839  0.39804627  0.65355372  1
  N  N1  1  0.58294161  0.60195373  0.65355372  1
  N  N2  1  0.91705839  0.10195373  0.84644628  1
  N  N3  1  0.58294161  0.89804627  0.84644628  1
  N  N4  1  0.08294161  0.60195373  0.34644628  1
  N  N5  1  0.41705839  0.39804627  0.34644628  1
  N  N6  1  0.08294161  0.89804627  0.15355372  1
  N  N7  1  0.41705839  0.10195373  0.15355372  1
  N  N8  1  0.67357123  0.35455912  0.89085360  1
  N  N9  1  0.82642877  0.64544088  0.89085360  1
  N  N10  1  0.67357123  0.14544088  0.60914640  1
  N  N11  1  0.82642877  0.85455912  0.60914640  1
  N  N12  1  0.32642877  0.64544088  0.10914640  1
  N  N13  1  0.17357123  0.35455912  0.10914640  1
  N  N14  1  0.32642877  0.85455912  0.39085360  1
  N  N15  1  0.17357123  0.14544088  0.39085360  1
loop_
_geom_bond_atom_site_label_1
_geom_bond_atom_site_label_2
_geom_bond_distance
_geom_bond_site_symmetry_2
N0 Ru0 1.891449 1_555
N0 Ru4 1.964267 1_555
N0 Pb10 2.554403 1_655
N0 Pb8 2.806500 1_555
N1 Ru0 1.891449 1_555
N1 Ru5 1.964267 1_555
N1 Pb10 2.554403 1_555
N1 Pb8 2.806500 1_555
N2 Ru1 1.891449 1_555
N2 Ru4 1.964267 1_555
N2 Pb11 2.554403 1_655
N2 Pb9 2.806500 1_556
N3 Ru1 1.891449 1_565
N3 Ru5 1.964267 1_555
N3 Pb11 2.554403 1_565
N3 Pb9 2.806500 1_566
N4 Ru2 1.891449 1_555
N4 Ru6 1.964267 1_555
N4 Pb8 2.554403 1_455
N4 Pb10 2.806500 1_555
N5 Ru2 1.891449 1_555
N5 Ru7 1.964267 1_555
N5 Pb8 2.554403 1_555
N5 Pb10 2.806500 1_555
N6 Ru3 1.891449 1_565
N6 Ru6 1.964267 1_555
N6 Pb9 2.554403 1_465
N6 Pb11 2.806500 1_564
N7 Ru3 1.891449 1_555
N7 Ru7 1.964267 1_555
N7 Pb9 2.554403 1_555
N7 Pb11 2.806500 1_554
N8 Ru4 1.970371 1_555
N8 Ru0 2.028867 1_555
N8 Pb7 2.400673 1_555
N8 Pb2 2.422287 1_556
N9 Ru5 1.970371 1_555
N9 Ru0 2.028867 1_555
N9 Pb6 2.400673 1_655
N9 Pb3 2.422287 1_556
N10 Ru4 1.970371 1_555
N10 Ru1 2.028867 1_555
N10 Pb5 2.400673 1_555
N10 Pb0 2.422287 1_555
N11 Ru5 1.970371 1_555
N11 Ru1 2.028867 1_565
N11 Pb4 2.400673 1_655
N11 Pb1 2.422287 1_555
N12 Ru6 1.970371 1_555
N12 Ru2 2.028867 1_555
N12 Pb3 2.400673 1_555
N12 Pb6 2.422287 1_554
N13 Ru7 1.970371 1_555
N13 Ru2 2.028867 1_555
N13 Pb2 2.400673 1_455
N13 Pb7 2.422287 1_554
N14 Ru6 1.970371 1_555
N14 Ru3 2.028867 1_565
N14 Pb1 2.400673 1_555
N14 Pb4 2.422287 1_555
N15 Ru7 1.970371 1_555
N15 Ru3 2.028867 1_555
N15 Pb0 2.400673 1_455
N15 Pb5 2.422287 1_555
