# generated using pymatgen
data_Ba3As2H34O25
_symmetry_space_group_name_H-M   'P 1'
_cell_length_a   9.51437076
_cell_length_b   9.51437076
_cell_length_c   13.91416071
_cell_angle_alpha   89.84609936
_cell_angle_beta   89.84609936
_cell_angle_gamma   86.56091571
_symmetry_Int_Tables_number   1
_chemical_formula_structural   Ba3As2H34O25
_chemical_formula_sum   'Ba6 As4 H68 O50'
_cell_volume   1257.27822128
_cell_formula_units_Z   2
loop_
 _symmetry_equiv_pos_site_id
 _symmetry_equiv_pos_as_xyz
  1  'x, y, z'
loop_
 _atom_site_type_symbol
 _atom_site_label
 _atom_site_symmetry_multiplicity
 _atom_site_fract_x
 _atom_site_fract_y
 _atom_site_fract_z
 _atom_site_occupancy
  Ba  Ba0  1  0.98111200  0.18927100  0.17764400  1
  Ba  Ba1  1  0.18927100  0.98111200  0.67764400  1
  Ba  Ba2  1  0.26237200  0.74069200  0.22162800  1
  Ba  Ba3  1  0.74069200  0.26237200  0.72162800  1
  Ba  Ba4  1  0.67895200  0.47159300  0.27474800  1
  Ba  Ba5  1  0.47159300  0.67895200  0.77474800  1
  As  As0  1  0.16741000  0.50640900  0.47387300  1
  As  As1  1  0.50640900  0.16741000  0.97387300  1
  As  As2  1  0.99639400  0.66607400  0.97473000  1
  As  As3  1  0.66607400  0.99639400  0.47473000  1
  H  H0  1  0.79561100  0.48217300  0.04906600  1
  H  H1  1  0.48217300  0.79561100  0.54906600  1
  H  H2  1  0.68243000  0.36791900  0.05306400  1
  H  H3  1  0.36791900  0.68243000  0.55306400  1
  H  H4  1  0.03120900  0.51534600  0.28258300  1
  H  H5  1  0.51534600  0.03120900  0.78258300  1
  H  H6  1  0.01492600  0.52907900  0.16678600  1
  H  H7  1  0.52907900  0.01492600  0.66678600  1
  H  H8  1  0.21796400  0.26602800  0.01263700  1
  H  H9  1  0.26602800  0.21796400  0.51263700  1
  H  H10  1  0.14751300  0.42017700  0.04350600  1
  H  H11  1  0.42017700  0.14751300  0.54350600  1
  H  H12  1  0.19697100  0.26836500  0.35228400  1
  H  H13  1  0.26836500  0.19697100  0.85228400  1
  H  H14  1  0.25698300  0.12882700  0.30651500  1
  H  H15  1  0.12882700  0.25698300  0.80651500  1
  H  H16  1  0.97256500  0.30337900  0.40460300  1
  H  H17  1  0.30337900  0.97256500  0.90460300  1
  H  H18  1  0.86567100  0.18267800  0.39916600  1
  H  H19  1  0.18267800  0.86567100  0.89916600  1
  H  H20  1  0.64203700  0.14605800  0.16514900  1
  H  H21  1  0.14605800  0.64203700  0.66514900  1
  H  H22  1  0.64990400  0.12942800  0.28069100  1
  H  H23  1  0.12942800  0.64990400  0.78069100  1
  H  H24  1  0.91329600  0.97566600  0.99280800  1
  H  H25  1  0.97566600  0.91329600  0.49280800  1
  H  H26  1  0.76775800  0.06079000  0.02518200  1
  H  H27  1  0.06079000  0.76775800  0.52518200  1
  H  H28  1  0.88429000  0.86427200  0.23250600  1
  H  H29  1  0.86427200  0.88429000  0.73250600  1
  H  H30  1  0.92603500  0.93305300  0.32967400  1
  H  H31  1  0.93305300  0.92603500  0.82967400  1
  H  H32  1  0.24337300  0.02364100  0.05866100  1
  H  H33  1  0.02364100  0.24337300  0.55866100  1
  H  H34  1  0.11984800  0.92232400  0.04736300  1
  H  H35  1  0.92232400  0.11984800  0.54736300  1
  H  H36  1  0.20494400  0.92611000  0.42313700  1
  H  H37  1  0.92611000  0.20494400  0.92313700  1
  H  H38  1  0.35721600  0.96946700  0.39290000  1
  H  H39  1  0.96946700  0.35721600  0.89290000  1
  H  H40  1  0.51527100  0.96878800  0.15460300  1
  H  H41  1  0.96878800  0.51527100  0.65460300  1
  H  H42  1  0.52010900  0.95624600  0.26857000  1
  H  H43  1  0.95624600  0.52010900  0.76857000  1
  H  H44  1  0.48887800  0.76604100  0.02805100  1
  H  H45  1  0.76604100  0.48887800  0.52805100  1
  H  H46  1  0.38740100  0.64675500  0.00835500  1
  H  H47  1  0.64675500  0.38740100  0.50835500  1
  H  H48  1  0.42326000  0.41120100  0.12422500  1
  H  H49  1  0.41120100  0.42326000  0.62422500  1
  H  H50  1  0.34902700  0.36264200  0.21904300  1
  H  H51  1  0.36264200  0.34902700  0.71904300  1
  H  H52  1  0.53591100  0.73229500  0.39908500  1
  H  H53  1  0.73229500  0.53591100  0.89908500  1
  H  H54  1  0.43192700  0.60996300  0.41238200  1
  H  H55  1  0.60996300  0.43192700  0.91238200  1
  H  H56  1  0.74520600  0.73267100  0.11547000  1
  H  H57  1  0.73267100  0.74520600  0.61547000  1
  H  H58  1  0.85914900  0.66649900  0.18145100  1
  H  H59  1  0.66649900  0.85914900  0.68145100  1
  H  H60  1  0.75903000  0.70643000  0.44310700  1
  H  H61  1  0.70643000  0.75903000  0.94310700  1
  H  H62  1  0.91163400  0.63590700  0.41166600  1
  H  H63  1  0.63590700  0.91163400  0.91166600  1
  H  H64  1  0.52713200  0.23416700  0.40531200  1
  H  H65  1  0.23416700  0.52713200  0.90531200  1
  H  H66  1  0.45039300  0.38654700  0.44250600  1
  H  H67  1  0.38654700  0.45039300  0.94250600  1
  O  O0  1  0.07334900  0.59224900  0.56434900  1
  O  O1  1  0.59224900  0.07334900  0.06434900  1
  O  O2  1  0.13233400  0.32950800  0.46700300  1
  O  O3  1  0.32950800  0.13233400  0.96700300  1
  O  O4  1  0.34613700  0.51519100  0.49785700  1
  O  O5  1  0.51519100  0.34613700  0.99785700  1
  O  O6  1  0.12280500  0.58629100  0.36628000  1
  O  O7  1  0.58629100  0.12280500  0.86628000  1
  O  O8  1  0.81840500  0.63981000  0.98699000  1
  O  O9  1  0.63981000  0.81840500  0.48699000  1
  O  O10  1  0.08209400  0.61794500  0.07985700  1
  O  O11  1  0.61794500  0.08209400  0.57985700  1
  O  O12  1  0.06037400  0.56272900  0.88058600  1
  O  O13  1  0.56272900  0.06037400  0.38058600  1
  O  O14  1  0.01998300  0.84245500  0.95107600  1
  O  O15  1  0.84245500  0.01998300  0.45107600  1
  O  O16  1  0.77068700  0.39562900  0.08454100  1
  O  O17  1  0.39562900  0.77068700  0.58454100  1
  O  O18  1  0.97168500  0.48750300  0.22611500  1
  O  O19  1  0.48750300  0.97168500  0.72611500  1
  O  O20  1  0.13779100  0.31810000  0.04599200  1
  O  O21  1  0.31810000  0.13779100  0.54599200  1
  O  O22  1  0.23035800  0.22772200  0.28952700  1
  O  O23  1  0.22772200  0.23035800  0.78952700  1
  O  O24  1  0.89069700  0.27237300  0.36736400  1
  O  O25  1  0.27237300  0.89069700  0.86736400  1
  O  O26  1  0.68900100  0.18046300  0.22485800  1
  O  O27  1  0.18046300  0.68900100  0.72485800  1
  O  O28  1  0.87088200  0.06980500  0.01280000  1
  O  O29  1  0.06980500  0.87088200  0.51280000  1
  O  O30  1  0.96114400  0.91246600  0.26401000  1
  O  O31  1  0.91246600  0.96114400  0.76401000  1
  O  O32  1  0.17364200  0.97270600  0.09646000  1
  O  O33  1  0.97270600  0.17364200  0.59646000  1
  O  O34  1  0.26518900  0.94741200  0.36721800  1
  O  O35  1  0.94741200  0.26518900  0.86721800  1
  O  O36  1  0.47928300  0.91637600  0.21031800  1
  O  O37  1  0.91637600  0.47928300  0.71031800  1
  O  O38  1  0.42926300  0.70050200  0.06118300  1
  O  O39  1  0.70050200  0.42926300  0.56118300  1
  O  O40  1  0.40025800  0.43995000  0.19092200  1
  O  O41  1  0.43995000  0.40025800  0.69092200  1
  O  O42  1  0.48259700  0.66352300  0.36212500  1
  O  O43  1  0.66352300  0.48259700  0.86212500  1
  O  O44  1  0.77456300  0.73113400  0.18305800  1
  O  O45  1  0.73113400  0.77456300  0.68305900  1
  O  O46  1  0.81161000  0.61799200  0.41930200  1
  O  O47  1  0.61799200  0.81161000  0.91930200  1
  O  O48  1  0.53759500  0.33761200  0.41554400  1
  O  O49  1  0.33761200  0.53759500  0.91554400  1
loop_
_geom_bond_atom_site_label_1
_geom_bond_atom_site_label_2
_geom_bond_distance
_geom_bond_site_symmetry_2
Ba0 O20 2.696790 1_655
Ba0 O28 2.796914 1_555
Ba0 O26 2.860189 1_555
Ba0 O24 2.872471 1_555
Ba0 O22 2.882349 1_655
Ba0 O32 2.902696 1_645
Ba0 O30 2.908261 1_545
Ba0 O18 2.914391 1_555
Ba0 O16 3.011632 1_555
Ba1 O21 2.696790 1_565
Ba1 O29 2.796914 1_555
Ba1 O27 2.860189 1_555
Ba1 O25 2.872471 1_555
Ba1 O23 2.882349 1_565
Ba1 O33 2.902696 1_465
Ba1 O31 2.908261 1_455
Ba1 O19 2.914391 1_555
Ba1 O17 3.011632 1_555
Ba2 O36 2.736534 1_555
Ba2 O38 2.750289 1_555
Ba2 O34 2.828568 1_555
Ba2 O6 2.859395 1_555
Ba2 O32 2.895249 1_555
Ba2 O10 2.909991 1_555
Ba2 O42 2.929285 1_555
Ba2 O40 3.105520 1_555
Ba2 O30 3.266012 1_455
Ba3 O37 2.736534 1_555
Ba3 O39 2.750289 1_555
Ba3 O35 2.828568 1_555
Ba3 O7 2.859395 1_555
Ba3 O33 2.895249 1_555
Ba3 O11 2.909991 1_555
Ba3 O43 2.929285 1_555
Ba3 O41 3.105520 1_555
Ba3 O31 3.266012 1_545
Ba4 O48 2.729436 1_555
Ba4 O46 2.796127 1_555
Ba4 O42 2.809504 1_555
Ba4 O26 2.853362 1_555
Ba4 O16 2.865427 1_555
Ba4 O18 2.877134 1_555
Ba4 H58 2.901714 1_555
Ba4 O40 2.931945 1_555
Ba4 O44 2.966358 1_555
Ba4 O24 2.975703 1_555
Ba5 O49 2.729436 1_555
Ba5 O47 2.796127 1_555
Ba5 O43 2.809504 1_555
Ba5 O27 2.853362 1_555
Ba5 O17 2.865427 1_555
Ba5 O19 2.877134 1_555
Ba5 H59 2.901714 1_555
Ba5 O41 2.931945 1_555
Ba5 O45 2.966352 1_555
Ba5 O25 2.975703 1_555
As0 O6 1.719755 1_555
As0 O0 1.721780 1_555
As0 O2 1.738323 1_555
As0 O4 1.740749 1_555
As1 O7 1.719755 1_555
As1 O1 1.721780 1_556
As1 O3 1.738323 1_555
As1 O5 1.740749 1_555
As2 O10 1.724006 1_656
As2 O12 1.727458 1_655
As2 O8 1.734450 1_555
As2 O14 1.736870 1_655
As3 O11 1.724006 1_565
As3 O13 1.727458 1_565
As3 O9 1.734450 1_555
As3 O15 1.736870 1_565
H0 O16 0.999250 1_555
H1 O17 0.999250 1_555
H2 O16 0.997797 1_555
H3 O17 0.997797 1_555
H4 O18 1.014766 1_455
H4 O6 1.628366 1_555
H5 O19 1.014766 1_545
H5 O7 1.628366 1_555
H6 O18 1.011510 1_455
H6 O10 1.625255 1_555
H7 O19 1.011510 1_545
H7 O11 1.625255 1_555
H8 O20 0.998348 1_555
H9 O21 0.998348 1_555
H10 O20 0.981610 1_555
H11 O21 0.981610 1_555
H12 O22 0.999260 1_555
H13 O23 0.999260 1_555
H14 O22 0.987882 1_555
H15 O23 0.987882 1_555
H16 O24 0.996385 1_555
H17 O25 0.996385 1_555
H18 O24 1.001279 1_555
H18 O15 1.732271 1_555
H19 O25 1.001279 1_555
H19 O14 1.732271 1_555
H20 O26 1.008982 1_555
H20 O1 1.648693 1_555
H21 O27 1.008982 1_555
H21 O0 1.648693 1_555
H22 O26 0.997879 1_555
H22 O13 1.762339 1_555
H23 O27 0.997879 1_555
H23 O12 1.762339 1_555
H24 O28 0.999914 1_566
H24 O14 1.679377 1_655
H25 O29 0.999914 1_655
H25 O15 1.679377 1_565
H26 O28 1.004402 1_555
H27 O29 1.004402 1_555
H28 O30 0.990007 1_555
H29 O31 0.990007 1_555
H30 O30 0.988025 1_555
H31 O31 0.988025 1_555
H32 O32 0.993457 1_545
H33 O33 0.993457 1_455
H34 O32 0.995737 1_555
H35 O33 0.995737 1_555
H36 O34 0.992829 1_555
H37 O35 0.992829 1_555
H38 O34 0.981067 1_555
H39 O35 0.981067 1_555
H40 O36 0.991902 1_555
H41 O37 0.991902 1_555
H42 O36 0.986283 1_555
H43 O37 0.986283 1_555
H44 O38 0.981098 1_555
H45 O39 0.981098 1_555
H46 O38 0.994219 1_555
H47 O39 0.994219 1_555
H48 O40 0.988458 1_555
H49 O41 0.988458 1_555
H50 O40 0.985975 1_555
H51 O41 0.985975 1_555
H52 O42 0.996464 1_555
H53 O43 0.996464 1_555
H54 O42 1.003415 1_555
H55 O43 1.003415 1_555
H56 O44 0.981573 1_555
H57 O45 0.981587 1_555
H58 O44 0.983338 1_555
H59 O45 0.983338 1_555
H60 O46 1.009004 1_555
H60 O9 1.627660 1_555
H61 O47 1.009004 1_555
H61 O8 1.627660 1_555
H62 O46 0.982257 1_555
H63 O47 0.982257 1_555
H64 O48 1.005704 1_555
H64 O13 1.703666 1_555
H65 O49 1.005704 1_555
H65 O12 1.703666 1_555
H66 O48 0.999394 1_555
H67 O49 0.999394 1_555
