# generated using pymatgen
data_EuZnGe
_symmetry_space_group_name_H-M   'P 1'
_cell_length_a   4.31204600
_cell_length_b   4.34370900
_cell_length_c   7.50630700
_cell_angle_alpha   90.00000000
_cell_angle_beta   90.00000000
_cell_angle_gamma   90.00000000
_symmetry_Int_Tables_number   1
_chemical_formula_structural   EuZnGe
_chemical_formula_sum   'Eu2 Zn2 Ge2'
_cell_volume   140.59517947
_cell_formula_units_Z   2
loop_
 _symmetry_equiv_pos_site_id
 _symmetry_equiv_pos_as_xyz
  1  'x, y, z'
loop_
 _atom_site_type_symbol
 _atom_site_label
 _atom_site_symmetry_multiplicity
 _atom_site_fract_x
 _atom_site_fract_y
 _atom_site_fract_z
 _atom_site_occupancy
  Eu  Eu0  1  0.00000000  0.00000000  0.00000000  1
  Eu  Eu1  1  0.50000000  0.00000000  0.50000000  1
  Zn  Zn0  1  0.00000000  0.50000000  0.33350200  1
  Zn  Zn1  1  0.00000000  0.50000000  0.66649800  1
  Ge  Ge0  1  0.50000000  0.50000000  0.16816300  1
  Ge  Ge1  1  0.50000000  0.50000000  0.83183700  1
loop_
_geom_bond_atom_site_label_1
_geom_bond_atom_site_label_2
_geom_bond_distance
_geom_bond_site_symmetry_2
Eu0 Ge0 3.310400 1_445
Eu0 Ge0 3.310400 1_555
Eu0 Ge0 3.310400 1_545
Eu0 Ge0 3.310400 1_455
Eu0 Ge1 3.310400 1_444
Eu0 Ge1 3.310400 1_454
Eu0 Ge1 3.310400 1_554
Eu0 Ge1 3.310400 1_544
Eu0 Zn0 3.314182 1_555
Eu0 Zn0 3.314182 1_545
Eu0 Zn1 3.314182 1_554
Eu0 Zn1 3.314182 1_544
Eu1 Ge1 3.304752 1_555
Eu1 Ge1 3.304752 1_545
Eu1 Ge0 3.304752 1_545
Eu1 Ge0 3.304752 1_555
Eu1 Zn1 3.305654 1_645
Eu1 Zn1 3.305654 1_555
Eu1 Zn1 3.305654 1_545
Eu1 Zn1 3.305654 1_655
Eu1 Zn0 3.305654 1_655
Eu1 Zn0 3.305654 1_645
Eu1 Zn0 3.305654 1_555
Eu1 Zn0 3.305654 1_545
Zn0 Zn1 2.499570 1_555
Ge0 Zn0 2.487715 1_655
Ge0 Zn0 2.487715 1_555
Ge0 Ge1 2.524566 1_554
Ge1 Zn1 2.487715 1_655
Ge1 Zn1 2.487715 1_555
