# generated using pymatgen
data_Rb2Ti(TeO4)3
_symmetry_space_group_name_H-M   'P 1'
_cell_length_a   7.14268903
_cell_length_b   7.16800949
_cell_length_c   7.14346084
_cell_angle_alpha   90.00000000
_cell_angle_beta   60.23444241
_cell_angle_gamma   120.11732912
_symmetry_Int_Tables_number   1
_chemical_formula_structural   Rb2Ti(TeO4)3
_chemical_formula_sum   'Rb2 Ti1 Te3 O12'
_cell_volume   259.06983928
_cell_formula_units_Z   1
loop_
 _symmetry_equiv_pos_site_id
 _symmetry_equiv_pos_as_xyz
  1  'x, y, z'
loop_
 _atom_site_type_symbol
 _atom_site_label
 _atom_site_symmetry_multiplicity
 _atom_site_fract_x
 _atom_site_fract_y
 _atom_site_fract_z
 _atom_site_occupancy
  Rb  Rb0  1  0.26190872  0.12817422  0.63094635  1
  Rb  Rb1  1  0.73809128  0.86626551  0.36905365  1
  Ti  Ti0  1  0.00000000  0.49734542  -0.00000000  1
  Te  Te0  1  0.49993145  0.49730576  0.00003498  1
  Te  Te1  1  0.50006855  0.99737431  0.99996502  1
  Te  Te2  1  0.00000000  0.49739796  0.50000000  1
  O  O0  1  0.64734838  0.82104221  0.92977674  1
  O  O1  1  0.86866930  0.43166145  0.32084219  1
  O  O2  1  0.25519537  0.43166296  0.93427367  1
  O  O3  1  0.25348834  0.82103738  0.32363484  1
  O  O4  1  0.25519194  0.81817552  0.93434391  1
  O  O5  1  0.25341776  0.42714643  0.32367140  1
  O  O6  1  0.35265162  0.17369284  0.07022326  1
  O  O7  1  0.13133070  0.56299215  0.67915781  1
  O  O8  1  0.74480806  0.56298259  0.06565609  1
  O  O9  1  0.74658224  0.17372867  0.67632860  1
  O  O10  1  0.74480463  0.17646759  0.06572633  1
  O  O11  1  0.74651166  0.56754904  0.67636516  1
loop_
_geom_bond_atom_site_label_1
_geom_bond_atom_site_label_2
_geom_bond_distance
_geom_bond_site_symmetry_2
O0 Te1 1.940686 1_555
O0 Te0 1.941322 1_556
O0 Rb0 3.109702 1_665
O1 Te2 1.867703 1_655
O1 Ti0 1.943352 1_655
O1 Rb0 3.070579 1_555
O2 Te0 1.867554 1_556
O2 Ti0 1.943224 1_556
O2 Rb0 3.071039 1_555
O3 Te2 1.940901 1_555
O3 Te1 1.941174 1_554
O3 Rb0 3.109324 1_565
O4 Te1 1.867720 1_555
O4 Ti0 1.943088 1_556
O4 Rb0 3.070328 1_565
O5 Te2 1.941002 1_555
O5 Te0 1.941026 1_555
O5 Rb0 3.110779 1_555
O6 Te0 1.940692 1_555
O6 Te1 1.941316 1_544
O6 Rb1 3.109702 1_445
O7 Te2 1.867703 1_555
O7 Ti0 1.943352 1_556
O7 Rb1 3.070579 1_555
O8 Te0 1.867721 1_555
O8 Ti0 1.943082 1_655
O8 Rb1 3.070333 1_555
O9 Te2 1.941003 1_655
O9 Te1 1.941026 1_545
O9 Rb1 3.110779 1_545
O10 Te1 1.867554 1_544
O10 Ti0 1.943225 1_655
O10 Rb1 3.071039 1_545
O11 Te2 1.940901 1_655
O11 Te0 1.941173 1_556
O11 Rb1 3.109325 1_555
