# generated using pymatgen
data_ErGa2Ni3
_symmetry_space_group_name_H-M   'P 1'
_cell_length_a   8.66770108
_cell_length_b   8.66751488
_cell_length_c   4.01663831
_cell_angle_alpha   89.99994544
_cell_angle_beta   90.00000246
_cell_angle_gamma   119.99614054
_symmetry_Int_Tables_number   1
_chemical_formula_structural   ErGa2Ni3
_chemical_formula_sum   'Er3 Ga6 Ni9'
_cell_volume   261.34173393
_cell_formula_units_Z   3
loop_
 _symmetry_equiv_pos_site_id
 _symmetry_equiv_pos_as_xyz
  1  'x, y, z'
loop_
 _atom_site_type_symbol
 _atom_site_label
 _atom_site_symmetry_multiplicity
 _atom_site_fract_x
 _atom_site_fract_y
 _atom_site_fract_z
 _atom_site_occupancy
  Er  Er0  1  0.66664055  0.33332273  0.49999800  1
  Er  Er1  1  0.33334925  0.66666515  0.50000002  1
  Er  Er2  1  -0.00001692  -0.00003590  0.00000114  1
  Ga  Ga0  1  0.47891941  0.47890388  -0.00000172  1
  Ga  Ga1  1  0.52107706  0.00002364  -0.00000132  1
  Ga  Ga2  1  0.00002841  0.52108792  -0.00000035  1
  Ga  Ga3  1  0.72907274  0.72903074  0.50000089  1
  Ga  Ga4  1  0.27091840  -0.00003014  0.50000040  1
  Ga  Ga5  1  0.00001232  0.27103227  0.49999892  1
  Ni  Ni0  1  0.82704834  0.20104888  -0.00000199  1
  Ni  Ni1  1  0.79902566  0.62606583  0.00000118  1
  Ni  Ni2  1  0.37388587  0.17290368  0.00000027  1
  Ni  Ni3  1  0.20100303  0.82706628  0.00000278  1
  Ni  Ni4  1  0.62606745  0.79900378  0.00000060  1
  Ni  Ni5  1  0.17295730  0.37395586  -0.00000082  1
  Ni  Ni6  1  0.29235325  0.29232952  0.50000040  1
  Ni  Ni7  1  0.70765120  -0.00001110  0.49999808  1
  Ni  Ni8  1  0.00000868  0.70763698  0.50000354  1
loop_
_geom_bond_atom_site_label_1
_geom_bond_atom_site_label_2
_geom_bond_distance
_geom_bond_site_symmetry_2
Er0 Ni0 2.979050 1_556
Er0 Ni0 2.979052 1_555
Er0 Ni1 2.979420 1_555
Er0 Ni1 2.979440 1_556
Er0 Ni2 2.979555 1_555
Er0 Ni2 2.979566 1_556
Er0 Ni6 3.081977 1_555
Er0 Ni7 3.082302 1_555
Er0 Ni8 3.082489 1_655
Er0 Ga3 3.193838 1_555
Er0 Ga5 3.193900 1_655
Er0 Ga4 3.194356 1_555
Er0 Ga0 3.213398 1_555
Er0 Ga0 3.213401 1_556
Er0 Ga1 3.213466 1_555
Er0 Ga1 3.213466 1_556
Er0 Ga2 3.214033 1_655
Er0 Ga2 3.214043 1_656
Er1 Ni5 2.979271 1_556
Er1 Ni5 2.979279 1_555
Er1 Ni4 2.979339 1_555
Er1 Ni4 2.979343 1_556
Er1 Ni3 2.979388 1_555
Er1 Ni3 2.979405 1_556
Er1 Ni8 3.082221 1_555
Er1 Ni7 3.082284 1_565
Er1 Ni6 3.082311 1_555
Er1 Ga5 3.193802 1_555
Er1 Ga4 3.194027 1_565
Er1 Ga3 3.194260 1_555
Er1 Ga0 3.213570 1_556
Er1 Ga0 3.213580 1_555
Er1 Ga2 3.213635 1_556
Er1 Ga2 3.213638 1_555
Er1 Ga1 3.213815 1_566
Er1 Ga1 3.213819 1_565
Er2 Ni1 2.809332 1_445
Er2 Ni3 2.809358 1_545
Er2 Ni2 2.809411 1_555
Er2 Ni4 2.809517 1_445
Er2 Ni5 2.810019 1_555
Er2 Ni0 2.810121 1_455
Er2 Ga4 3.090006 1_555
Er2 Ga4 3.090010 1_554
Er2 Ga3 3.090021 1_445
Er2 Ga3 3.090025 1_444
Er2 Ga5 3.090763 1_555
Er2 Ga5 3.090771 1_554
Er2 Ni8 3.233228 1_544
Er2 Ni8 3.233237 1_545
Er2 Ni7 3.233298 1_455
Er2 Ni7 3.233313 1_454
Er2 Ni6 3.233559 1_555
Er2 Ni6 3.233560 1_554
Ga0 Ni5 2.334184 1_555
Ga0 Ni2 2.334305 1_555
Ga0 Ni4 2.405447 1_555
Ga0 Ni1 2.405545 1_555
Ga0 Ni6 2.578506 1_554
Ga0 Ni6 2.578517 1_555
Ga1 Ni0 2.334307 1_555
Ga1 Ni4 2.334372 1_545
Ga1 Ni2 2.405102 1_555
Ga1 Ni3 2.405327 1_545
Ga1 Ni7 2.578577 1_555
Ga1 Ni7 2.578581 1_554
Ga2 Ni1 2.334171 1_455
Ga2 Ni3 2.334239 1_555
Ga2 Ni0 2.405033 1_455
Ga2 Ni5 2.405052 1_555
Ga2 Ni8 2.578366 1_554
Ga2 Ni8 2.578393 1_555
Ga3 Ni1 2.395518 1_555
Ga3 Ni1 2.395518 1_556
Ga3 Ni4 2.395773 1_556
Ga3 Ni4 2.395774 1_555
Ga3 Ni8 2.446373 1_655
Ga3 Ni7 2.446651 1_565
Ga4 Ni3 2.395498 1_545
Ga4 Ni3 2.395512 1_546
Ga4 Ni2 2.395621 1_555
Ga4 Ni2 2.395622 1_556
Ga4 Ni8 2.446412 1_545
Ga4 Ni6 2.446444 1_555
Ga5 Ni5 2.395653 1_555
Ga5 Ni5 2.395656 1_556
Ga5 Ni0 2.395744 1_456
Ga5 Ni0 2.395751 1_455
Ga5 Ni6 2.446866 1_555
Ga5 Ni7 2.447068 1_455
Ni0 Ni7 2.517544 1_555
Ni0 Ni7 2.517546 1_554
Ni0 Ni5 2.596649 1_655
Ni1 Ni8 2.517227 1_654
Ni1 Ni8 2.517243 1_655
Ni1 Ni4 2.596374 1_555
Ni2 Ni6 2.517079 1_554
Ni2 Ni6 2.517082 1_555
Ni2 Ni3 2.596056 1_545
Ni3 Ni8 2.517301 1_554
Ni3 Ni8 2.517305 1_555
Ni4 Ni7 2.517209 1_565
Ni4 Ni7 2.517223 1_564
Ni5 Ni6 2.517334 1_554
Ni5 Ni6 2.517341 1_555
