# generated using pymatgen
data_Mg14MnB
_symmetry_space_group_name_H-M   'P 1'
_cell_length_a   6.22119076
_cell_length_b   6.25393399
_cell_length_c   9.94723230
_cell_angle_alpha   90.00000000
_cell_angle_beta   90.00000000
_cell_angle_gamma   120.17426280
_symmetry_Int_Tables_number   1
_chemical_formula_structural   Mg14MnB
_chemical_formula_sum   'Mg14 Mn1 B1'
_cell_volume   334.57570836
_cell_formula_units_Z   1
loop_
 _symmetry_equiv_pos_site_id
 _symmetry_equiv_pos_as_xyz
  1  'x, y, z'
loop_
 _atom_site_type_symbol
 _atom_site_label
 _atom_site_symmetry_multiplicity
 _atom_site_fract_x
 _atom_site_fract_y
 _atom_site_fract_z
 _atom_site_occupancy
  Mg  Mg0  1  0.17389651  0.33694776  0.62500000  1
  Mg  Mg1  1  0.16991072  0.83495486  0.62500000  1
  Mg  Mg2  1  0.70887206  0.35730365  0.12500000  1
  Mg  Mg3  1  0.66329845  0.33400103  0.62500000  1
  Mg  Mg4  1  0.70887206  0.85156740  0.12500000  1
  Mg  Mg5  1  0.66329845  0.82929642  0.62500000  1
  Mg  Mg6  1  0.31993882  0.15256243  0.34406219  1
  Mg  Mg7  1  0.31993882  0.15256243  0.90593781  1
  Mg  Mg8  1  0.31993882  0.66737739  0.34406219  1
  Mg  Mg9  1  0.31993882  0.66737739  0.90593781  1
  Mg  Mg10  1  0.83808442  0.16904271  0.37390047  1
  Mg  Mg11  1  0.83808442  0.16904271  0.87609953  1
  Mg  Mg12  1  0.83844980  0.66922540  0.36702127  1
  Mg  Mg13  1  0.83844980  0.66922540  0.88297873  1
  Mn  Mn0  1  0.16006379  0.33003139  0.12500000  1
  B  B0  1  0.11896424  0.80948162  0.12500000  1
loop_
_geom_bond_atom_site_label_1
_geom_bond_atom_site_label_2
_geom_bond_distance
_geom_bond_site_symmetry_2
Mg0 Mg5 3.053967 1_555
Mg0 Mg3 3.053967 1_555
Mg0 Mg11 3.082309 1_455
Mg0 Mg10 3.082309 1_455
Mg0 Mg1 3.127040 1_555
Mg0 Mg1 3.127040 1_545
Mg0 Mg5 3.167305 1_445
Mg0 Mg3 3.167305 1_455
Mg0 Mg7 3.319326 1_555
Mg0 Mg6 3.319326 1_555
Mg0 Mg9 3.319332 1_555
Mg0 Mg8 3.319332 1_555
Mg1 Mg3 3.087397 1_565
Mg1 Mg5 3.087398 1_555
Mg1 Mg12 3.124607 1_455
Mg1 Mg13 3.124607 1_455
Mg1 Mg3 3.134094 1_455
Mg1 Mg5 3.134094 1_455
Mg1 Mg9 3.280601 1_555
Mg1 Mg8 3.280601 1_555
Mg1 Mg7 3.280606 1_565
Mg1 Mg6 3.280606 1_565
Mg2 Mn0 2.896434 1_655
Mg2 Mn0 3.331777 1_555
Mg3 Mg5 3.097545 1_555
Mg3 Mg5 3.156389 1_545
Mg3 Mg7 3.350138 1_555
Mg3 Mg6 3.350138 1_555
Mg4 Mn0 2.896433 1_665
Mg4 Mn0 3.331777 1_555
Mg5 Mg9 3.350138 1_555
Mg5 Mg8 3.350138 1_555
Mg6 Mn0 2.842378 1_555
Mg7 Mn0 2.842378 1_556
Mg8 Mn0 2.842385 1_555
Mg9 Mn0 2.842385 1_556
Mg10 Mg2 3.018897 1_555
Mg10 Mg4 3.018904 1_545
Mg10 Mn0 3.021364 1_655
Mg10 Mg8 3.065218 1_655
Mg10 Mg6 3.065218 1_655
Mg10 Mg3 3.100497 1_555
Mg10 Mg5 3.100503 1_545
Mg10 Mg12 3.127716 1_555
Mg10 Mg12 3.127716 1_545
Mg10 Mg8 3.186781 1_545
Mg10 Mg6 3.186781 1_555
Mg11 Mg2 3.018897 1_556
Mg11 Mg4 3.018904 1_546
Mg11 Mn0 3.021364 1_656
Mg11 Mg9 3.065218 1_655
Mg11 Mg7 3.065218 1_655
Mg11 Mg3 3.100497 1_555
Mg11 Mg5 3.100503 1_545
Mg11 Mg13 3.127716 1_555
Mg11 Mg13 3.127716 1_545
Mg11 Mg9 3.186781 1_545
Mg11 Mg7 3.186781 1_555
Mg12 Mg5 3.141862 1_555
Mg12 Mg3 3.141868 1_555
Mg13 Mg5 3.141862 1_555
Mg13 Mg3 3.141868 1_555
B0 Mg2 2.693184 1_455
B0 Mg4 2.693184 1_455
B0 Mg13 2.841102 1_454
B0 Mg12 2.841102 1_455
B0 Mg8 2.866771 1_555
B0 Mg9 2.866771 1_554
B0 Mg6 2.866778 1_565
B0 Mg7 2.866778 1_564
B0 Mn0 3.134770 1_565
B0 Mn0 3.134770 1_555
