# generated using pymatgen
data_Li9Mn2Co5O16
_symmetry_space_group_name_H-M   'P 1'
_cell_length_a   5.04399195
_cell_length_b   5.82920562
_cell_length_c   10.20670186
_cell_angle_alpha   73.40780405
_cell_angle_beta   98.80139579
_cell_angle_gamma   90.00000410
_symmetry_Int_Tables_number   1
_chemical_formula_structural   Li9Mn2Co5O16
_chemical_formula_sum   'Li9 Mn2 Co5 O16'
_cell_volume   283.91710047
_cell_formula_units_Z   1
loop_
 _symmetry_equiv_pos_site_id
 _symmetry_equiv_pos_as_xyz
  1  'x, y, z'
loop_
 _atom_site_type_symbol
 _atom_site_label
 _atom_site_symmetry_multiplicity
 _atom_site_fract_x
 _atom_site_fract_y
 _atom_site_fract_z
 _atom_site_occupancy
  Li  Li0  1  0.24617600  0.61983100  0.24719800  1
  Li  Li1  1  0.75455000  0.38114000  0.75027100  1
  Li  Li2  1  0.24545000  0.13141100  0.24972900  1
  Li  Li3  1  0.75162900  0.38140000  0.24324500  1
  Li  Li4  1  0.24877300  0.12143000  0.75120500  1
  Li  Li5  1  0.75122700  0.87263500  0.24879500  1
  Li  Li6  1  0.75382400  0.86702900  0.75280200  1
  Li  Li7  1  0.24837100  0.62464500  0.75675500  1
  Li  Li8  1  0.00000000  0.50291300  0.00000000  1
  Mn  Mn0  1  0.00000000  0.99496700  0.00000000  1
  Mn  Mn1  1  0.50000000  0.25815600  0.00000000  1
  Co  Co0  1  0.50006500  0.74917900  0.50138200  1
  Co  Co1  1  0.49993500  0.25056100  0.49861800  1
  Co  Co2  1  0.00026500  0.50011900  0.49976500  1
  Co  Co3  1  0.99973500  0.99988400  0.50023500  1
  Co  Co4  1  0.50000000  0.74863000  0.00000000  1
  O  O0  1  0.85799300  0.71034400  0.10973100  1
  O  O1  1  0.37919100  0.44094300  0.61576800  1
  O  O2  1  0.85422100  0.17925700  0.10961400  1
  O  O3  1  0.39460200  0.44255000  0.11160600  1
  O  O4  1  0.87971800  0.19248400  0.61549500  1
  O  O5  1  0.36041200  0.94652500  0.10832900  1
  O  O6  1  0.37883400  0.94270900  0.61618600  1
  O  O7  1  0.87862200  0.69075200  0.61820900  1
  O  O8  1  0.62116600  0.55889500  0.38381400  1
  O  O9  1  0.14577900  0.28887100  0.89038600  1
  O  O10  1  0.62080900  0.05671100  0.38423200  1
  O  O11  1  0.12137800  0.30896100  0.38179100  1
  O  O12  1  0.63958800  0.05485400  0.89167100  1
  O  O13  1  0.12028300  0.80797900  0.38450500  1
  O  O14  1  0.14200700  0.82007500  0.89026900  1
  O  O15  1  0.60539800  0.55415600  0.88839400  1
loop_
_geom_bond_atom_site_label_1
_geom_bond_atom_site_label_2
_geom_bond_distance
_geom_bond_site_symmetry_2
Li0 O11 2.100029 1_555
Li0 O8 2.134973 1_555
Li0 O5 2.162402 1_555
Li0 O3 2.162776 1_555
Li0 O13 2.172632 1_555
Li0 O0 2.194826 1_455
Li1 O7 2.081967 1_555
Li1 O1 2.126518 1_555
Li1 O4 2.151755 1_555
Li1 O15 2.169615 1_555
Li1 O12 2.173729 1_555
Li1 O9 2.219396 1_655
Li2 O11 2.081968 1_555
Li2 O10 2.126518 1_555
Li2 O13 2.151753 1_545
Li2 O3 2.169615 1_555
Li2 O5 2.173730 1_545
Li2 O2 2.219396 1_455
Li3 O3 2.039945 1_555
Li3 O11 2.123241 1_655
Li3 O0 2.133780 1_555
Li3 O2 2.156484 1_555
Li3 O8 2.167665 1_555
Li3 O10 2.196245 1_555
Li4 O14 2.049494 1_545
Li4 O9 2.063569 1_555
Li4 O4 2.106822 1_455
Li4 O6 2.124028 1_545
Li4 O1 2.149524 1_555
Li4 O12 2.215705 1_555
Li5 O0 2.049495 1_555
Li5 O2 2.063569 1_565
Li5 O13 2.106825 1_655
Li5 O8 2.124028 1_555
Li5 O10 2.149524 1_565
Li5 O5 2.215705 1_555
Li6 O7 2.100030 1_555
Li6 O6 2.134973 1_555
Li6 O12 2.162403 1_565
Li6 O15 2.162776 1_555
Li6 O4 2.172634 1_565
Li6 O14 2.194826 1_655
Li7 O15 2.039945 1_555
Li7 O7 2.123241 1_455
Li7 O14 2.133780 1_555
Li7 O9 2.156484 1_555
Li7 O6 2.167664 1_555
Li7 O1 2.196245 1_555
Li8 O14 2.061173 1_554
Li8 O0 2.061173 1_455
Li8 O2 2.097167 1_455
Li8 O9 2.097167 1_554
Li8 O15 2.111929 1_454
Li8 O3 2.111929 1_555
Mn0 O0 1.924678 1_455
Mn0 O14 1.924679 1_554
Mn0 O5 1.952860 1_555
Mn0 O12 1.952860 1_464
Mn0 O9 1.970937 1_564
Mn0 O2 1.970938 1_465
Mn1 O15 1.902681 1_554
Mn1 O3 1.902681 1_555
Mn1 O9 1.936466 1_554
Mn1 O2 1.936466 1_555
Mn1 O5 2.027136 1_545
Mn1 O12 2.027137 1_554
Co0 O1 1.995732 1_555
Co0 O6 1.998465 1_555
Co0 O10 2.003239 1_565
Co0 O8 2.006959 1_555
Co0 O7 2.062792 1_555
Co0 O13 2.068167 1_555
Co1 O10 1.995733 1_555
Co1 O8 1.998465 1_555
Co1 O1 2.003239 1_555
Co1 O6 2.006959 1_545
Co1 O11 2.062792 1_555
Co1 O4 2.068171 1_555
Co2 O13 1.995788 1_555
Co2 O4 1.997707 1_455
Co2 O11 2.013995 1_555
Co2 O7 2.016690 1_455
Co2 O1 2.061105 1_555
Co2 O8 2.061627 1_455
Co3 O4 1.995786 1_565
Co3 O13 1.997709 1_655
Co3 O7 2.013995 1_555
Co3 O11 2.016690 1_665
Co3 O10 2.061105 1_565
Co3 O6 2.061627 1_655
Co4 O3 1.946327 1_555
Co4 O15 1.946327 1_554
Co4 O0 1.950166 1_555
Co4 O14 1.950166 1_554
Co4 O12 2.003913 1_564
Co4 O5 2.003913 1_555
