# generated using pymatgen
data_Li4Co3Sb5O16
_symmetry_space_group_name_H-M   'P 1'
_cell_length_a   6.19098774
_cell_length_b   10.42089001
_cell_length_c   10.77773889
_cell_angle_alpha   90.01505430
_cell_angle_beta   89.99996478
_cell_angle_gamma   90.00106030
_symmetry_Int_Tables_number   1
_chemical_formula_structural   Li4Co3Sb5O16
_chemical_formula_sum   'Li8 Co6 Sb10 O32'
_cell_volume   695.33229130
_cell_formula_units_Z   2
loop_
 _symmetry_equiv_pos_site_id
 _symmetry_equiv_pos_as_xyz
  1  'x, y, z'
loop_
 _atom_site_type_symbol
 _atom_site_label
 _atom_site_symmetry_multiplicity
 _atom_site_fract_x
 _atom_site_fract_y
 _atom_site_fract_z
 _atom_site_occupancy
  Li  Li0  1  0.50001000  0.90436600  0.15778900  1
  Li  Li1  1  0.00000700  0.89497700  0.66262700  1
  Li  Li2  1  0.50000900  0.98070900  0.47671700  1
  Li  Li3  1  0.00001800  0.98716000  0.00091700  1
  Li  Li4  1  0.50000600  0.50395900  0.49795300  1
  Li  Li5  1  0.00000800  0.50601100  0.00507800  1
  Li  Li6  1  0.00001100  0.37184400  0.32166200  1
  Li  Li7  1  0.50001300  0.37141100  0.82120800  1
  Co  Co0  1  0.00001200  0.20690100  0.83042400  1
  Co  Co1  1  0.24612100  0.72484200  0.42175600  1
  Co  Co2  1  0.75389700  0.72483900  0.42175700  1
  Co  Co3  1  0.50001000  0.21172600  0.32409100  1
  Co  Co4  1  0.74612700  0.71739300  0.92002600  1
  Co  Co5  1  0.25389200  0.71738900  0.92003100  1
  Sb  Sb0  1  0.50000200  0.52413800  0.18138000  1
  Sb  Sb1  1  0.00000100  0.51904300  0.68174300  1
  Sb  Sb2  1  0.00001300  0.73200700  0.17296700  1
  Sb  Sb3  1  0.50001000  0.72040200  0.67469700  1
  Sb  Sb4  1  0.00001400  0.98495100  0.34062700  1
  Sb  Sb5  1  0.50000400  0.97274600  0.84473700  1
  Sb  Sb6  1  0.74682300  0.21270500  0.08501800  1
  Sb  Sb7  1  0.24644100  0.20602500  0.57760700  1
  Sb  Sb8  1  0.25319500  0.21270100  0.08502600  1
  Sb  Sb9  1  0.75358000  0.20602400  0.57760900  1
  O  O0  1  0.50001900  0.31084700  0.00429000  1
  O  O1  1  0.00002300  0.30573800  0.49745800  1
  O  O2  1  0.50000700  0.10346600  0.15759900  1
  O  O3  1  0.00000200  0.09696200  0.64905500  1
  O  O4  1  0.00002200  0.31686700  0.01229400  1
  O  O5  1  0.50001700  0.30950600  0.49709700  1
  O  O6  1  0.00000900  0.81359200  0.00862500  1
  O  O7  1  0.50000700  0.81055600  0.51155500  1
  O  O8  1  0.00001900  0.09457900  0.16994300  1
  O  O9  1  0.49999900  0.09288500  0.62304700  1
  O  O10  1  0.50000900  0.61035500  0.34652200  1
  O  O11  1  0.00000800  0.60233800  0.84864800  1
  O  O12  1  0.00000500  0.63276800  0.32940900  1
  O  O13  1  0.50000700  0.61414300  0.82811300  1
  O  O14  1  0.00000300  0.86061400  0.47979600  1
  O  O15  1  0.50000500  0.84566400  0.98454500  1
  O  O16  1  0.76652300  0.61818800  0.09743500  1
  O  O17  1  0.26431600  0.61096500  0.59151500  1
  O  O18  1  0.23350100  0.61818500  0.09743900  1
  O  O19  1  0.73569000  0.61095800  0.59151600  1
  O  O20  1  0.73971400  0.31310100  0.23814900  1
  O  O21  1  0.24213800  0.30172800  0.73317200  1
  O  O22  1  0.26032200  0.31311000  0.23815000  1
  O  O23  1  0.75789100  0.30173500  0.73316900  1
  O  O24  1  0.21661400  0.86298400  0.25429800  1
  O  O25  1  0.72240700  0.83923900  0.75477700  1
  O  O26  1  0.78341500  0.86298000  0.25429600  1
  O  O27  1  0.27762200  0.83924000  0.75478200  1
  O  O28  1  0.25142700  0.09274200  0.41557300  1
  O  O29  1  0.77923600  0.10132100  0.93936200  1
  O  O30  1  0.74860500  0.09274400  0.41557400  1
  O  O31  1  0.22080100  0.10132100  0.93935800  1
loop_
_geom_bond_atom_site_label_1
_geom_bond_atom_site_label_2
_geom_bond_distance
_geom_bond_site_symmetry_2
Li0 O15 1.964680 1_554
Li0 O2 2.074801 1_565
Li0 O24 2.084791 1_555
Li0 O26 2.084851 1_555
Li1 O14 2.002685 1_555
Li1 O25 2.068253 1_455
Li1 O27 2.068372 1_555
Li1 O3 2.109978 1_565
Li2 O7 1.812561 1_555
Li2 O9 1.962854 1_565
Li2 O28 2.041124 1_565
Li2 O30 2.041164 1_565
Li3 O6 1.810662 1_555
Li3 O31 1.929806 1_564
Li3 O29 1.929818 1_464
Li3 O8 2.137907 1_565
Li4 O10 1.973311 1_555
Li4 O5 2.026392 1_555
Li4 O19 2.094879 1_555
Li4 O17 2.094966 1_555
Li5 O11 1.962396 1_554
Li5 O4 1.972603 1_555
Li5 O16 2.108619 1_455
Li5 O18 2.108627 1_555
Li6 O20 1.944601 1_455
Li6 O22 1.944656 1_555
Li6 O1 2.016202 1_555
Li7 O21 1.993990 1_555
Li7 O23 1.994014 1_555
Li7 O0 2.071844 1_556
Li7 O13 2.530558 1_555
Co0 O21 2.079091 1_555
Co0 O23 2.079147 1_455
Co0 O29 2.111366 1_455
Co0 O31 2.111422 1_555
Co0 O3 2.265481 1_555
Co0 O4 2.270283 1_556
Co1 O7 2.050511 1_555
Co1 O12 2.057266 1_555
Co1 O10 2.133315 1_555
Co1 O14 2.171281 1_555
Co1 O17 2.183940 1_555
Co1 O24 2.316130 1_555
Co2 O7 2.050563 1_555
Co2 O12 2.057245 1_655
Co2 O10 2.133270 1_555
Co2 O14 2.171210 1_655
Co2 O19 2.183964 1_555
Co2 O26 2.316149 1_555
Co3 O20 2.043698 1_555
Co3 O22 2.043699 1_555
Co3 O2 2.119337 1_555
Co3 O5 2.124630 1_555
Co3 O28 2.208743 1_555
Co3 O30 2.208821 1_555
Co4 O6 2.094451 1_656
Co4 O13 2.111900 1_555
Co4 O11 2.121182 1_655
Co4 O15 2.142817 1_555
Co4 O16 2.177554 1_556
Co4 O25 2.192489 1_555
Co5 O6 2.094478 1_556
Co5 O13 2.111910 1_555
Co5 O11 2.121159 1_555
Co5 O15 2.142751 1_555
Co5 O18 2.177536 1_556
Co5 O27 2.192520 1_555
O0 Sb6 2.034250 1_555
O0 Sb8 2.034372 1_555
O1 Sb7 2.038092 1_555
O1 Sb9 2.038192 1_455
O2 Sb8 2.059837 1_555
O2 Sb6 2.059879 1_555
O3 Sb9 2.052460 1_455
O3 Sb7 2.052520 1_555
O4 Sb8 2.061558 1_555
O4 Sb6 2.061594 1_455
O5 Sb9 2.093013 1_555
O5 Sb7 2.093029 1_555
O6 Sb2 1.964914 1_555
O7 Sb3 1.993772 1_555
O8 Sb4 2.165713 1_545
O8 Sb8 2.193197 1_555
O8 Sb6 2.193378 1_455
O9 Sb7 2.023486 1_555
O9 Sb9 2.023551 1_555
O9 Sb5 2.697740 1_545
O10 Sb0 1.993559 1_555
O11 Sb1 1.997125 1_555
O12 Sb2 1.978207 1_555
O13 Sb3 1.990250 1_555
O14 Sb4 1.982334 1_555
O15 Sb5 2.006322 1_555
O16 Sb2 2.039245 1_655
O16 Sb0 2.121818 1_555
O17 Sb3 2.057407 1_555
O17 Sb1 2.131055 1_555
O18 Sb2 2.039268 1_555
O18 Sb0 2.121718 1_555
O19 Sb3 2.057411 1_555
O19 Sb1 2.131026 1_655
O20 Sb6 1.954338 1_555
O21 Sb7 1.950789 1_555
O22 Sb8 1.954349 1_555
O23 Sb9 1.950786 1_555
O24 Sb4 2.068524 1_555
O24 Sb2 2.104477 1_555
O25 Sb3 2.042945 1_555
O25 Sb5 2.184231 1_555
O26 Sb4 2.068525 1_655
O26 Sb2 2.104461 1_655
O27 Sb3 2.042967 1_555
O27 Sb5 2.184087 1_555
O28 Sb4 2.082390 1_545
O28 Sb7 2.107901 1_555
O29 Sb6 1.962395 1_556
O29 Sb5 2.413089 1_545
O30 Sb4 2.082417 1_645
O30 Sb9 2.107891 1_555
O31 Sb8 1.962458 1_556
O31 Sb5 2.412977 1_545
