# generated using pymatgen
data_K2MgMn2P6(HO10)2
_symmetry_space_group_name_H-M   'P 1'
_cell_length_a   7.49167528
_cell_length_b   7.44192788
_cell_length_c   10.14643294
_cell_angle_alpha   71.03885079
_cell_angle_beta   71.59111139
_cell_angle_gamma   71.33858967
_symmetry_Int_Tables_number   1
_chemical_formula_structural   K2MgMn2P6(HO10)2
_chemical_formula_sum   'K2 Mg1 Mn2 P6 H2 O20'
_cell_volume   492.49949848
_cell_formula_units_Z   1
loop_
 _symmetry_equiv_pos_site_id
 _symmetry_equiv_pos_as_xyz
  1  'x, y, z'
loop_
 _atom_site_type_symbol
 _atom_site_label
 _atom_site_symmetry_multiplicity
 _atom_site_fract_x
 _atom_site_fract_y
 _atom_site_fract_z
 _atom_site_occupancy
  K  K0  1  0.41963700  0.49348500  0.28576800  1
  K  K1  1  0.57039300  0.46413500  0.71874700  1
  Mg  Mg0  1  0.76470800  0.86443500  0.04206500  1
  Mn  Mn0  1  0.01082800  0.47923800  0.98625500  1
  Mn  Mn1  1  0.50018300  0.99050800  0.50668100  1
  P  P0  1  0.27447900  0.12665300  0.20505600  1
  P  P1  1  0.15949700  0.31331600  0.68799600  1
  P  P2  1  0.12202100  0.89665300  0.77606800  1
  P  P3  1  0.87064300  0.10457100  0.23159400  1
  P  P4  1  0.82792800  0.68080500  0.31592200  1
  P  P5  1  0.74008300  0.88671700  0.78356900  1
  H  H0  1  0.99618000  0.49227500  0.51745600  1
  H  H1  1  0.45520700  0.03029200  0.00771300  1
  O  O0  1  0.08565000  0.03566500  0.26061200  1
  O  O1  1  0.97390600  0.42976900  0.62830900  1
  O  O2  1  0.23497100  0.32544300  0.10239400  1
  O  O3  1  0.09813800  0.11139400  0.79011800  1
  O  O4  1  0.34501900  0.10562800  0.33262200  1
  O  O5  1  0.18207600  0.40662700  0.79224600  1
  O  O6  1  0.33789500  0.26862300  0.57042400  1
  O  O7  1  0.06577400  0.78275100  0.93257100  1
  O  O8  1  0.43345400  0.97355800  0.11477700  1
  O  O9  1  0.72246700  0.14864100  0.36344400  1
  O  O10  1  0.31337100  0.82201600  0.68348700  1
  O  O11  1  0.65428800  0.05330200  0.86437200  1
  O  O12  1  0.86309600  0.25261800  0.08986500  1
  O  O13  1  0.64698300  0.71649700  0.43409500  1
  O  O14  1  0.79751500  0.61181300  0.19797200  1
  O  O15  1  0.65089200  0.89089700  0.67100500  1
  O  O16  1  0.85147400  0.90814700  0.20556500  1
  O  O17  1  0.75891900  0.69563000  0.90570500  1
  O  O18  1  0.01610000  0.58040400  0.36231400  1
  O  O19  1  0.95993000  0.91463900  0.69749600  1
loop_
_geom_bond_atom_site_label_1
_geom_bond_atom_site_label_2
_geom_bond_distance
_geom_bond_site_symmetry_2
K0 O18 2.784462 1_555
K0 O6 2.813373 1_555
K0 O9 2.905703 1_555
K0 O4 2.973691 1_555
K0 O14 3.012637 1_555
K1 O10 2.731844 1_555
K1 O1 2.819863 1_555
K1 O13 2.883754 1_555
K1 O11 2.889112 1_555
K1 O5 2.901988 1_555
Mg0 O14 2.028403 1_555
Mg0 O16 2.108918 1_555
Mg0 O11 2.112247 1_564
Mg0 O7 2.160980 1_654
Mg0 O17 2.167148 1_554
Mg0 O8 2.303397 1_555
Mn0 O5 2.113162 1_555
Mn0 O12 2.117027 1_456
Mn0 O2 2.159096 1_556
Mn0 O17 2.235365 1_455
Mn0 O7 2.285132 1_555
Mn0 O14 2.518330 1_456
Mn1 O15 2.110533 1_555
Mn1 O10 2.196526 1_555
Mn1 O4 2.209147 1_565
Mn1 O9 2.210053 1_565
Mn1 O13 2.222468 1_555
Mn1 O6 2.223310 1_565
H0 O1 1.049020 1_555
H0 O18 1.474339 1_655
H1 O8 1.009488 1_545
H1 O11 1.732221 1_554
O0 P3 1.617724 1_455
O0 P0 1.624433 1_555
O1 P1 1.571825 1_655
O2 P0 1.508078 1_555
O3 P2 1.598491 1_545
O3 P1 1.634748 1_555
O4 P0 1.492167 1_555
O5 P1 1.514994 1_555
O6 P1 1.512065 1_555
O7 P2 1.532610 1_555
O8 P0 1.635967 1_565
O9 P3 1.497917 1_555
O10 P2 1.491625 1_555
O11 P5 1.562032 1_545
O12 P3 1.505626 1_555
O13 P4 1.515189 1_555
O14 P4 1.547315 1_555
O15 P5 1.482398 1_555
O16 P3 1.623677 1_565
O16 P4 1.726976 1_555
O17 P5 1.553928 1_555
O18 P4 1.511175 1_455
O19 P2 1.601927 1_655
O19 P5 1.646565 1_555
