# generated using pymatgen
data_Zn4Si2O9
_symmetry_space_group_name_H-M   'P 1'
_cell_length_a   5.19174100
_cell_length_b   7.36002984
_cell_length_c   7.36002984
_cell_angle_alpha   69.61005150
_cell_angle_beta   69.34755582
_cell_angle_gamma   69.34755582
_symmetry_Int_Tables_number   1
_chemical_formula_structural   Zn4Si2O9
_chemical_formula_sum   'Zn4 Si2 O9'
_cell_volume   238.05679554
_cell_formula_units_Z   1
loop_
 _symmetry_equiv_pos_site_id
 _symmetry_equiv_pos_as_xyz
  1  'x, y, z'
loop_
 _atom_site_type_symbol
 _atom_site_label
 _atom_site_symmetry_multiplicity
 _atom_site_fract_x
 _atom_site_fract_y
 _atom_site_fract_z
 _atom_site_occupancy
  Zn  Zn0  1  0.83531400  0.36569900  0.95339000  1
  Zn  Zn1  1  0.15440300  0.63430100  0.04661000  1
  Zn  Zn2  1  0.83531400  0.95339000  0.36569900  1
  Zn  Zn3  1  0.15440300  0.04661000  0.63430100  1
  Si  Si0  1  0.33834500  0.14553900  0.14553900  1
  Si  Si1  1  0.62942300  0.85446100  0.85446100  1
  O  O0  1  0.15044100  0.36684000  0.04353800  1
  O  O1  1  0.56082000  0.63316000  0.95646200  1
  O  O2  1  0.15044100  0.04353800  0.36684000  1
  O  O3  1  0.56082000  0.95646200  0.63316000  1
  O  O4  1  0.63087500  0.16564300  0.16564300  1
  O  O5  1  0.96216000  0.83435700  0.83435700  1
  O  O6  1  0.94615000  0.29941000  0.70059000  1
  O  O7  1  0.94615000  0.70059000  0.29941000  1
  O  O8  1  0.40044100  0.00000000  0.00000000  1
loop_
_geom_bond_atom_site_label_1
_geom_bond_atom_site_label_2
_geom_bond_distance
_geom_bond_site_symmetry_2
O0 Si0 1.646798 1_555
O0 Zn0 1.973896 1_454
O0 Zn1 1.983914 1_555
O1 Si1 1.646796 1_555
O1 Zn1 1.973901 1_556
O1 Zn0 1.983912 1_555
O2 Si0 1.646798 1_555
O2 Zn2 1.973896 1_445
O2 Zn3 1.983914 1_555
O3 Si1 1.646796 1_555
O3 Zn3 1.973901 1_565
O3 Zn2 1.983912 1_555
O4 Si0 1.637880 1_555
O4 Zn2 2.016180 1_545
O4 Zn0 2.016180 1_554
O5 Si1 1.637875 1_555
O5 Zn3 2.016183 1_665
O5 Zn1 2.016183 1_656
O6 Zn0 1.926220 1_555
O6 Zn3 1.926220 1_655
O7 Zn2 1.926220 1_555
O7 Zn1 1.926220 1_655
O8 Si0 1.646539 1_555
O8 Si1 1.646539 1_544
