# generated using pymatgen
data_VCo2P2H3NO9
_symmetry_space_group_name_H-M   'P 1'
_cell_length_a   6.23817300
_cell_length_b   7.73601000
_cell_length_c   9.84962100
_cell_angle_alpha   90.00000000
_cell_angle_beta   90.00000000
_cell_angle_gamma   90.00000000
_symmetry_Int_Tables_number   1
_chemical_formula_structural   VCo2P2H3NO9
_chemical_formula_sum   'V2 Co4 P4 H6 N2 O18'
_cell_volume   475.32861179
_cell_formula_units_Z   2
loop_
 _symmetry_equiv_pos_site_id
 _symmetry_equiv_pos_as_xyz
  1  'x, y, z'
loop_
 _atom_site_type_symbol
 _atom_site_label
 _atom_site_symmetry_multiplicity
 _atom_site_fract_x
 _atom_site_fract_y
 _atom_site_fract_z
 _atom_site_occupancy
  V  V0  1  0.00000000  0.20488100  0.43844300  1
  V  V1  1  0.00000000  0.79511900  0.93844300  1
  Co  Co0  1  0.24388800  0.50115000  0.17259400  1
  Co  Co1  1  0.75611200  0.49885000  0.67259400  1
  Co  Co2  1  0.24388800  0.49885000  0.67259400  1
  Co  Co3  1  0.75611200  0.50115000  0.17259400  1
  P  P0  1  0.50000000  0.32991100  0.42709600  1
  P  P1  1  0.50000000  0.67008900  0.92709600  1
  P  P2  1  0.00000000  0.16983800  0.11847500  1
  P  P3  1  0.00000000  0.83016200  0.61847500  1
  H  H0  1  0.06022300  0.70560400  0.33875200  1
  H  H1  1  0.93977700  0.29439600  0.83875200  1
  H  H2  1  0.06022300  0.29439600  0.83875200  1
  H  H3  1  0.93977700  0.70560400  0.33875200  1
  H  H4  1  0.00000000  0.38966800  0.32551800  1
  H  H5  1  0.00000000  0.61033200  0.82551900  1
  N  N0  1  0.50000000  0.99017300  0.16937300  1
  N  N1  1  0.50000000  0.00982700  0.66937300  1
  O  O0  1  0.30052800  0.21499200  0.41521900  1
  O  O1  1  0.69947200  0.78500800  0.91521900  1
  O  O2  1  0.30052800  0.78500800  0.91521900  1
  O  O3  1  0.69947200  0.21499200  0.41521900  1
  O  O4  1  0.00000000  0.08970200  0.26311700  1
  O  O5  1  0.00000000  0.91029800  0.76311700  1
  O  O6  1  0.20403300  0.27757400  0.09377500  1
  O  O7  1  0.79596700  0.72242600  0.59377500  1
  O  O8  1  0.20403300  0.72242600  0.59377500  1
  O  O9  1  0.79596700  0.27757400  0.09377500  1
  O  O10  1  0.00000000  0.01362700  0.01849700  1
  O  O11  1  0.00000000  0.98637300  0.51849700  1
  O  O12  1  0.50000000  0.59043500  0.07105100  1
  O  O13  1  0.50000000  0.40956500  0.57105100  1
  O  O14  1  0.50000000  0.46929200  0.31321100  1
  O  O15  1  0.50000000  0.53070800  0.81321100  1
  O  O16  1  0.00000000  0.64703600  0.07923800  1
  O  O17  1  0.00000000  0.35296400  0.57923800  1
loop_
_geom_bond_atom_site_label_1
_geom_bond_atom_site_label_2
_geom_bond_distance
_geom_bond_site_symmetry_2
Co0 O6 1.912062 1_555
Co0 O12 2.007474 1_555
Co0 O16 2.105685 1_555
Co0 O14 2.128752 1_555
Co0 H4 2.308084 1_555
Co1 O7 1.912062 1_555
Co1 O13 2.007474 1_555
Co1 O17 2.105685 1_655
Co1 O15 2.128752 1_555
Co1 H5 2.308091 1_655
Co2 O8 1.912062 1_555
Co2 O13 2.007474 1_555
Co2 O17 2.105685 1_555
Co2 O15 2.128752 1_555
Co2 H5 2.308091 1_555
Co3 O9 1.912062 1_555
Co3 O12 2.007474 1_555
Co3 O16 2.105685 1_655
Co3 O14 2.128752 1_555
Co3 H4 2.308084 1_655
H0 H3 0.751363 1_455
H1 H2 0.751363 1_655
H4 V0 1.811257 1_555
H5 V1 1.811251 1_555
O0 P0 1.533759 1_555
O0 V0 1.890268 1_555
O1 P1 1.533759 1_555
O1 V1 1.890268 1_655
O2 P1 1.533759 1_555
O2 V1 1.890268 1_555
O3 P0 1.533759 1_555
O3 V0 1.890268 1_655
O4 P2 1.553705 1_555
O4 V0 1.943217 1_555
O5 P3 1.553705 1_555
O5 V1 1.943217 1_555
O6 P2 1.540722 1_555
O7 P3 1.540722 1_655
O8 P3 1.540722 1_555
O9 P2 1.540722 1_655
O10 P2 1.558870 1_555
O10 V1 1.865240 1_544
O11 P3 1.558870 1_555
O11 V0 1.865240 1_565
O12 P1 1.546012 1_554
O13 P0 1.546012 1_555
O14 P0 1.555922 1_555
O15 P1 1.555922 1_555
O16 V1 1.798746 1_554
O17 V0 1.798746 1_555
