# generated using pymatgen
data_CaBiIO2
_symmetry_space_group_name_H-M   'P 1'
_cell_length_a   7.36643196
_cell_length_b   7.36643196
_cell_length_c   7.36643196
_cell_angle_alpha   148.19640828
_cell_angle_beta   148.19640828
_cell_angle_gamma   45.59551101
_symmetry_Int_Tables_number   1
_chemical_formula_structural   CaBiIO2
_chemical_formula_sum   'Ca1 Bi1 I1 O2'
_cell_volume   110.65538382
_cell_formula_units_Z   1
loop_
 _symmetry_equiv_pos_site_id
 _symmetry_equiv_pos_as_xyz
  1  'x, y, z'
loop_
 _atom_site_type_symbol
 _atom_site_label
 _atom_site_symmetry_multiplicity
 _atom_site_fract_x
 _atom_site_fract_y
 _atom_site_fract_z
 _atom_site_occupancy
  Ca  Ca0  1  0.66583000  0.66583000  0.00000000  1
  Bi  Bi0  1  0.32535100  0.32535100  0.00000000  1
  I  I0  1  0.00989500  0.00989500  0.00000000  1
  O  O0  1  0.74946200  0.24946200  0.50000000  1
  O  O1  1  0.24946200  0.74946200  0.50000000  1
loop_
_geom_bond_atom_site_label_1
_geom_bond_atom_site_label_2
_geom_bond_distance
_geom_bond_site_symmetry_2
Ca0 O0 2.316001 1_554
Ca0 O1 2.316001 1_655
Ca0 O1 2.316001 1_554
Ca0 O0 2.316001 1_565
Ca0 I0 3.554257 1_655
Ca0 I0 3.554257 1_565
Ca0 I0 3.554257 1_666
Ca0 I0 3.554257 1_554
Bi0 O0 2.266277 1_454
Bi0 O1 2.266277 1_544
Bi0 O1 2.266277 1_555
Bi0 O0 2.266277 1_555
