# generated using pymatgen
data_YbNiO3
_symmetry_space_group_name_H-M   'P 1'
_cell_length_a   5.18781100
_cell_length_b   5.39532800
_cell_length_c   7.39559800
_cell_angle_alpha   90.00000000
_cell_angle_beta   90.00000000
_cell_angle_gamma   90.00000000
_symmetry_Int_Tables_number   1
_chemical_formula_structural   YbNiO3
_chemical_formula_sum   'Yb4 Ni4 O12'
_cell_volume   207.00235868
_cell_formula_units_Z   4
loop_
 _symmetry_equiv_pos_site_id
 _symmetry_equiv_pos_as_xyz
  1  'x, y, z'
loop_
 _atom_site_type_symbol
 _atom_site_label
 _atom_site_symmetry_multiplicity
 _atom_site_fract_x
 _atom_site_fract_y
 _atom_site_fract_z
 _atom_site_occupancy
  Yb  Yb0  1  0.51920600  0.93237200  0.75000000  1
  Yb  Yb1  1  0.01920600  0.56762800  0.25000000  1
  Yb  Yb2  1  0.98079400  0.43237200  0.75000000  1
  Yb  Yb3  1  0.48079400  0.06762800  0.25000000  1
  Ni  Ni0  1  0.50000000  0.50000000  0.50000000  1
  Ni  Ni1  1  0.00000000  0.00000000  0.50000000  1
  Ni  Ni2  1  0.00000000  0.00000000  0.00000000  1
  Ni  Ni3  1  0.50000000  0.50000000  0.00000000  1
  O  O0  1  0.19619400  0.29717200  0.45747200  1
  O  O1  1  0.69619400  0.20282800  0.54252800  1
  O  O2  1  0.30380600  0.79717200  0.04252800  1
  O  O3  1  0.80380600  0.70282800  0.95747200  1
  O  O4  1  0.80380600  0.70282800  0.54252800  1
  O  O5  1  0.30380600  0.79717200  0.45747200  1
  O  O6  1  0.69619400  0.20282800  0.95747200  1
  O  O7  1  0.19619400  0.29717200  0.04252800  1
  O  O8  1  0.58645800  0.48590400  0.25000000  1
  O  O9  1  0.08645800  0.01409600  0.75000000  1
  O  O10  1  0.91354200  0.98590400  0.25000000  1
  O  O11  1  0.41354200  0.51409600  0.75000000  1
loop_
_geom_bond_atom_site_label_1
_geom_bond_atom_site_label_2
_geom_bond_distance
_geom_bond_site_symmetry_2
Ni0 O8 1.904046 1_555
Ni0 O11 1.904046 1_555
Ni0 O1 1.924987 1_555
Ni0 O5 1.924987 1_555
Ni0 O0 1.944356 1_555
Ni0 O4 1.944356 1_555
Ni1 O9 1.904046 1_555
Ni1 O10 1.904046 1_445
Ni1 O4 1.924987 1_445
Ni1 O0 1.924987 1_555
Ni1 O5 1.944356 1_545
Ni1 O1 1.944356 1_455
Ni2 O10 1.904046 1_445
Ni2 O9 1.904046 1_554
Ni2 O3 1.924987 1_444
Ni2 O7 1.924987 1_555
Ni2 O2 1.944356 1_545
Ni2 O6 1.944356 1_454
Ni3 O11 1.904046 1_554
Ni3 O8 1.904046 1_555
Ni3 O2 1.924987 1_555
Ni3 O6 1.924987 1_554
Ni3 O3 1.944356 1_554
Ni3 O7 1.944356 1_555
O0 Yb1 2.307951 1_555
O0 Yb3 2.463336 1_555
O0 Yb2 2.541886 1_455
O1 Yb0 2.307951 1_545
O1 Yb2 2.463336 1_555
O1 Yb3 2.541886 1_555
O2 Yb3 2.307951 1_565
O2 Yb1 2.463336 1_555
O2 Yb0 2.541886 1_554
O3 Yb2 2.307951 1_555
O3 Yb0 2.463336 1_555
O3 Yb1 2.541886 1_656
O4 Yb2 2.307951 1_555
O4 Yb0 2.463336 1_555
O4 Yb1 2.541886 1_655
O5 Yb3 2.307951 1_565
O5 Yb1 2.463336 1_555
O5 Yb0 2.541886 1_555
O6 Yb0 2.307951 1_545
O6 Yb2 2.463336 1_555
O6 Yb3 2.541886 1_556
O7 Yb1 2.307951 1_555
O7 Yb3 2.463336 1_555
O7 Yb2 2.541886 1_454
O8 Yb1 2.287905 1_655
O8 Yb3 2.322357 1_555
O9 Yb0 2.287905 1_545
O9 Yb2 2.322357 1_455
O10 Yb3 2.287905 1_565
O10 Yb1 2.322357 1_655
O11 Yb2 2.287905 1_455
O11 Yb0 2.322357 1_555
