# generated using pymatgen
data_Li3Nb(FeO2)4
_symmetry_space_group_name_H-M   'P 1'
_cell_length_a   6.08721740
_cell_length_b   6.08721740
_cell_length_c   6.24062161
_cell_angle_alpha   59.60408362
_cell_angle_beta   59.60408362
_cell_angle_gamma   61.65573525
_symmetry_Int_Tables_number   1
_chemical_formula_structural   Li3Nb(FeO2)4
_chemical_formula_sum   'Li3 Nb1 Fe4 O8'
_cell_volume   164.43650716
_cell_formula_units_Z   1
loop_
 _symmetry_equiv_pos_site_id
 _symmetry_equiv_pos_as_xyz
  1  'x, y, z'
loop_
 _atom_site_type_symbol
 _atom_site_label
 _atom_site_symmetry_multiplicity
 _atom_site_fract_x
 _atom_site_fract_y
 _atom_site_fract_z
 _atom_site_occupancy
  Li  Li0  1  0.00000000  0.50000000  0.00000000  1
  Li  Li1  1  0.50000000  0.00000000  0.00000000  1
  Li  Li2  1  0.00000000  0.00000000  0.50000000  1
  Nb  Nb0  1  0.50000000  0.50000000  0.00000000  1
  Fe  Fe0  1  0.00000000  0.00000000  0.00000000  1
  Fe  Fe1  1  0.50000000  0.00000000  0.50000000  1
  Fe  Fe2  1  0.00000000  0.50000000  0.50000000  1
  Fe  Fe3  1  0.50000000  0.50000000  0.50000000  1
  O  O0  1  0.73912400  0.73912400  0.76362400  1
  O  O1  1  0.27366100  0.74069900  0.22650200  1
  O  O2  1  0.74069900  0.27366100  0.22650200  1
  O  O3  1  0.26087600  0.26087600  0.23637600  1
  O  O4  1  0.24988200  0.24988200  0.72653600  1
  O  O5  1  0.72633900  0.25930100  0.77349800  1
  O  O6  1  0.25930100  0.72633900  0.77349800  1
  O  O7  1  0.75011800  0.75011800  0.27346400  1
loop_
_geom_bond_atom_site_label_1
_geom_bond_atom_site_label_2
_geom_bond_distance
_geom_bond_site_symmetry_2
Li0 O6 2.055269 1_554
Li0 O2 2.055269 1_455
Li0 O0 2.195303 1_454
Li0 O3 2.195303 1_555
Li0 O7 2.312503 1_455
Li0 O4 2.312503 1_554
Li1 O5 2.055269 1_554
Li1 O1 2.055269 1_545
Li1 O3 2.195303 1_555
Li1 O0 2.195303 1_544
Li1 O7 2.312503 1_545
Li1 O4 2.312503 1_554
Li2 O3 2.203893 1_555
Li2 O0 2.203893 1_445
Li2 O5 2.351999 1_455
Li2 O6 2.351999 1_545
Li2 O1 2.351999 1_545
Li2 O2 2.351999 1_455
Nb0 O3 2.019829 1_555
Nb0 O0 2.019829 1_554
Nb0 O1 2.061859 1_555
Nb0 O2 2.061859 1_555
Nb0 O5 2.061859 1_554
Nb0 O6 2.061859 1_554
Fe0 O4 2.117320 1_554
Fe0 O7 2.117320 1_445
Fe0 O2 2.211961 1_455
Fe0 O1 2.211961 1_545
Fe0 O6 2.211961 1_544
Fe0 O5 2.211961 1_454
Fe1 O4 2.104595 1_555
Fe1 O7 2.104595 1_545
Fe1 O6 2.178227 1_545
Fe1 O2 2.178227 1_555
Fe1 O0 2.220778 1_545
Fe1 O3 2.220778 1_555
Fe2 O4 2.104595 1_555
Fe2 O7 2.104595 1_455
Fe2 O5 2.178227 1_455
Fe2 O1 2.178227 1_555
Fe2 O3 2.220778 1_555
Fe2 O0 2.220778 1_455
Fe3 O7 2.116504 1_555
Fe3 O4 2.116504 1_555
Fe3 O6 2.211423 1_555
Fe3 O5 2.211423 1_555
Fe3 O1 2.211423 1_555
Fe3 O2 2.211423 1_555
