# generated using pymatgen
data_Al2(WO4)3
_symmetry_space_group_name_H-M   'P 1'
_cell_length_a   9.16478393
_cell_length_b   9.08702110
_cell_length_c   15.54677866
_cell_angle_alpha   54.19339553
_cell_angle_beta   90.00000000
_cell_angle_gamma   90.00000000
_symmetry_Int_Tables_number   1
_chemical_formula_structural   Al2(WO4)3
_chemical_formula_sum   'Al8 W12 O48'
_cell_volume   1050.03336991
_cell_formula_units_Z   4
loop_
 _symmetry_equiv_pos_site_id
 _symmetry_equiv_pos_as_xyz
  1  'x, y, z'
loop_
 _atom_site_type_symbol
 _atom_site_label
 _atom_site_symmetry_multiplicity
 _atom_site_fract_x
 _atom_site_fract_y
 _atom_site_fract_z
 _atom_site_occupancy
  Al  Al0  1  0.46527226  0.13075934  0.11954665  1
  Al  Al1  1  0.96527226  0.86924066  0.38045335  1
  Al  Al2  1  0.53472774  0.86924066  0.88045335  1
  Al  Al3  1  0.03472774  0.13075934  0.61954665  1
  Al  Al4  1  0.46481846  0.37005893  0.38006311  1
  Al  Al5  1  0.96481846  0.62994107  0.11993689  1
  Al  Al6  1  0.53518154  0.62994107  0.61993689  1
  Al  Al7  1  0.03518154  0.37005893  0.88006311  1
  W  W0  1  0.24984039  0.52315023  0.50085229  1
  W  W1  1  0.74984039  0.47684977  -0.00085229  1
  W  W2  1  0.75015961  0.47684977  0.49914771  1
  W  W3  1  0.25015961  0.52315023  0.00085229  1
  W  W4  1  0.11965500  0.95738675  0.14499292  1
  W  W5  1  0.61965500  0.04261325  0.35500708  1
  W  W6  1  0.88034500  0.04261325  0.85500708  1
  W  W7  1  0.38034500  0.95738675  0.64499292  1
  W  W8  1  0.11909214  0.24725752  0.35528406  1
  W  W9  1  0.61909214  0.75274248  0.14471594  1
  W  W10  1  0.88090786  0.75274248  0.64471594  1
  W  W11  1  0.38090786  0.24725752  0.85528406  1
  O  O0  1  0.11629165  0.69746113  0.43561964  1
  O  O1  1  0.61629165  0.30253887  0.06438036  1
  O  O2  1  0.88370835  0.30253887  0.56438036  1
  O  O3  1  0.38370835  0.69746113  0.93561964  1
  O  O4  1  0.38162391  0.57267678  0.56432661  1
  O  O5  1  0.88162391  0.42732322  0.93567339  1
  O  O6  1  0.61837609  0.42732322  0.43567339  1
  O  O7  1  0.11837609  0.57267678  0.06432661  1
  O  O8  1  0.16629126  0.31102788  0.59810291  1
  O  O9  1  0.66629126  0.68897212  0.90189709  1
  O  O10  1  0.83370874  0.68897212  0.40189709  1
  O  O11  1  0.33370874  0.31102788  0.09810291  1
  O  O12  1  0.33577944  0.50412978  0.40499736  1
  O  O13  1  0.83577944  0.49587022  0.09500264  1
  O  O14  1  0.66422056  0.49587022  0.59500264  1
  O  O15  1  0.16422056  0.50412978  0.90499736  1
  O  O16  1  0.30837785  0.96536967  0.17007993  1
  O  O17  1  0.80837785  0.03463033  0.32992007  1
  O  O18  1  0.69162215  0.03463033  0.82992007  1
  O  O19  1  0.19162215  0.96536967  0.67007993  1
  O  O20  1  0.09161385  0.76650035  0.14210712  1
  O  O21  1  0.59161385  0.23349965  0.35789288  1
  O  O22  1  0.90838615  0.23349965  0.85789288  1
  O  O23  1  0.40838615  0.76650035  0.64210712  1
  O  O24  1  0.07364840  0.15901210  0.01942098  1
  O  O25  1  0.57364840  0.84098790  0.48057902  1
  O  O26  1  0.92635160  0.84098790  0.98057902  1
  O  O27  1  0.42635160  0.15901210  0.51942098  1
  O  O28  1  0.00792831  0.93989614  0.24423542  1
  O  O29  1  0.50792831  0.06010386  0.25576458  1
  O  O30  1  0.99207169  0.06010386  0.75576458  1
  O  O31  1  0.49207169  0.93989614  0.74423542  1
  O  O32  1  0.09347999  0.04630722  0.36219460  1
  O  O33  1  0.59347999  0.95369278  0.13780540  1
  O  O34  1  0.90652001  0.95369278  0.63780540  1
  O  O35  1  0.40652001  0.04630722  0.86219460  1
  O  O36  1  0.00543649  0.42420751  0.25522146  1
  O  O37  1  0.50543649  0.57579249  0.24477854  1
  O  O38  1  0.99456351  0.57579249  0.74477854  1
  O  O39  1  0.49456351  0.42420751  0.75522146  1
  O  O40  1  0.07394631  0.20366533  0.47945607  1
  O  O41  1  0.57394631  0.79633467  0.02054393  1
  O  O42  1  0.92605369  0.79633467  0.52054393  1
  O  O43  1  0.42605369  0.20366533  0.97945607  1
  O  O44  1  0.30691512  0.30920729  0.32845352  1
  O  O45  1  0.80691512  0.69079271  0.17154648  1
  O  O46  1  0.69308488  0.69079271  0.67154648  1
  O  O47  1  0.19308488  0.30920729  0.82845352  1
loop_
_geom_bond_atom_site_label_1
_geom_bond_atom_site_label_2
_geom_bond_distance
_geom_bond_site_symmetry_2
Al0 O29 1.859821 1_555
Al0 O33 1.875011 1_545
Al0 O1 1.876515 1_555
Al0 O16 1.887305 1_545
Al0 O11 1.899830 1_555
Al0 O43 1.903486 1_554
Al1 O28 1.859821 1_655
Al1 O32 1.875011 1_665
Al1 O0 1.876515 1_655
Al1 O17 1.887305 1_565
Al1 O10 1.899830 1_555
Al1 O42 1.903486 1_555
Al2 O31 1.859821 1_555
Al2 O35 1.875011 1_565
Al2 O3 1.876515 1_555
Al2 O18 1.887305 1_565
Al2 O9 1.899830 1_555
Al2 O41 1.903486 1_556
Al3 O30 1.859821 1_455
Al3 O34 1.875011 1_445
Al3 O2 1.876515 1_455
Al3 O19 1.887305 1_545
Al3 O8 1.899830 1_555
Al3 O40 1.903486 1_555
Al4 O37 1.859133 1_555
Al4 O21 1.873369 1_555
Al4 O6 1.877554 1_555
Al4 O44 1.887575 1_555
Al4 O12 1.893600 1_555
Al4 O27 1.906413 1_555
Al5 O36 1.859133 1_655
Al5 O20 1.873369 1_655
Al5 O7 1.877554 1_655
Al5 O45 1.887575 1_555
Al5 O13 1.893600 1_555
Al5 O26 1.906413 1_554
Al6 O39 1.859133 1_555
Al6 O23 1.873369 1_555
Al6 O4 1.877554 1_555
Al6 O46 1.887575 1_555
Al6 O14 1.893600 1_555
Al6 O25 1.906413 1_555
Al7 O38 1.859133 1_455
Al7 O22 1.873369 1_455
Al7 O5 1.877554 1_455
Al7 O47 1.887575 1_555
Al7 O15 1.893600 1_555
Al7 O24 1.906413 1_556
O0 W0 1.776476 1_555
O1 W1 1.776476 1_555
O2 W2 1.776476 1_555
O3 W3 1.776476 1_556
O4 W0 1.776155 1_555
O5 W1 1.776155 1_556
O6 W2 1.776155 1_555
O7 W3 1.776155 1_555
O8 W0 1.782600 1_555
O9 W1 1.782600 1_556
O10 W2 1.782600 1_555
O11 W3 1.782600 1_555
O12 W0 1.781121 1_555
O13 W1 1.781121 1_555
O14 W2 1.781121 1_555
O15 W3 1.781121 1_556
O16 W4 1.783820 1_555
O17 W5 1.783820 1_555
O18 W6 1.783820 1_555
O19 W7 1.783820 1_555
O20 W4 1.779864 1_555
O21 W5 1.779864 1_555
O22 W6 1.779864 1_555
O23 W7 1.779864 1_555
O24 W4 1.777810 1_545
O25 W5 1.777810 1_565
O26 W6 1.777810 1_565
O27 W7 1.777810 1_545
O28 W4 1.779703 1_555
O29 W5 1.779703 1_555
O30 W6 1.779703 1_555
O31 W7 1.779703 1_555
O32 W8 1.780872 1_555
O33 W9 1.780872 1_555
O34 W10 1.780872 1_555
O35 W11 1.780872 1_555
O36 W8 1.778662 1_555
O37 W9 1.778662 1_555
O38 W10 1.778662 1_555
O39 W11 1.778662 1_555
O40 W8 1.777654 1_555
O41 W9 1.777654 1_555
O42 W10 1.777654 1_555
O43 W11 1.777654 1_555
O44 W8 1.783033 1_555
O45 W9 1.783033 1_555
O46 W10 1.783033 1_555
O47 W11 1.783033 1_555
