# generated using pymatgen
data_Zr2Cu
_symmetry_space_group_name_H-M   'P 1'
_cell_length_a   11.11242312
_cell_length_b   11.11242312
_cell_length_c   16.29967031
_cell_angle_alpha   57.53020937
_cell_angle_beta   57.53020937
_cell_angle_gamma   34.14072226
_symmetry_Int_Tables_number   1
_chemical_formula_structural   Zr2Cu
_chemical_formula_sum   'Zr32 Cu16'
_cell_volume   934.66681520
_cell_formula_units_Z   16
loop_
 _symmetry_equiv_pos_site_id
 _symmetry_equiv_pos_as_xyz
  1  'x, y, z'
loop_
 _atom_site_type_symbol
 _atom_site_label
 _atom_site_symmetry_multiplicity
 _atom_site_fract_x
 _atom_site_fract_y
 _atom_site_fract_z
 _atom_site_occupancy
  Zr  Zr0_0  1  0.03716248  0.03716248  0.07953120  1
  Zr  Zr0_1  1  0.03716247  0.03716248  0.57953120  1
  Zr  Zr0_2  1  0.03716247  0.53716248  0.07953120  1
  Zr  Zr0_3  1  0.03716248  0.53716248  0.57953120  1
  Zr  Zr0_4  1  0.53716247  0.03716248  0.07953120  1
  Zr  Zr0_5  1  0.53716247  0.03716248  0.57953120  1
  Zr  Zr0_6  1  0.53716247  0.53716248  0.07953120  1
  Zr  Zr0_7  1  0.53716247  0.53716248  0.57953120  1
  Zr  Zr1_0  1  0.46283752  0.46283753  0.42046880  1
  Zr  Zr1_1  1  0.46283752  0.46283753  0.92046880  1
  Zr  Zr1_2  1  0.46283752  0.96283753  0.42046880  1
  Zr  Zr1_3  1  0.46283752  0.96283753  0.92046880  1
  Zr  Zr1_4  1  0.96283752  0.46283753  0.42046880  1
  Zr  Zr1_5  1  0.96283752  0.46283753  0.92046880  1
  Zr  Zr1_6  1  0.96283752  0.96283753  0.42046880  1
  Zr  Zr1_7  1  0.96283752  0.96283753  0.92046880  1
  Zr  Zr2_0  1  0.32974017  0.32974017  0.21972591  1
  Zr  Zr2_1  1  0.32974017  0.32974017  0.71972591  1
  Zr  Zr2_2  1  0.32974017  0.82974017  0.21972591  1
  Zr  Zr2_3  1  0.32974017  0.82974017  0.71972591  1
  Zr  Zr2_4  1  0.82974017  0.32974017  0.21972591  1
  Zr  Zr2_5  1  0.82974017  0.32974017  0.71972591  1
  Zr  Zr2_6  1  0.82974017  0.82974017  0.21972591  1
  Zr  Zr2_7  1  0.82974017  0.82974017  0.71972591  1
  Zr  Zr3_0  1  0.17025983  0.17025983  0.28027409  1
  Zr  Zr3_1  1  0.17025983  0.17025983  0.78027409  1
  Zr  Zr3_2  1  0.17025983  0.67025983  0.28027409  1
  Zr  Zr3_3  1  0.17025983  0.67025983  0.78027409  1
  Zr  Zr3_4  1  0.67025983  0.17025983  0.28027409  1
  Zr  Zr3_5  1  0.67025983  0.17025983  0.78027409  1
  Zr  Zr3_6  1  0.67025983  0.67025983  0.28027409  1
  Zr  Zr3_7  1  0.67025983  0.67025983  0.78027409  1
  Cu  Cu0_0  1  0.18292151  0.18292151  0.07546778  1
  Cu  Cu0_1  1  0.18292151  0.18292151  0.57546778  1
  Cu  Cu0_2  1  0.18292151  0.68292151  0.07546778  1
  Cu  Cu0_3  1  0.18292151  0.68292151  0.57546778  1
  Cu  Cu0_4  1  0.68292151  0.18292151  0.07546778  1
  Cu  Cu0_5  1  0.68292151  0.18292151  0.57546778  1
  Cu  Cu0_6  1  0.68292151  0.68292151  0.07546778  1
  Cu  Cu0_7  1  0.68292151  0.68292151  0.57546778  1
  Cu  Cu1_0  1  0.31707849  0.31707849  0.42453221  1
  Cu  Cu1_1  1  0.31707849  0.31707849  0.92453221  1
  Cu  Cu1_2  1  0.31707849  0.81707849  0.42453221  1
  Cu  Cu1_3  1  0.31707849  0.81707849  0.92453221  1
  Cu  Cu1_4  1  0.81707849  0.31707849  0.42453221  1
  Cu  Cu1_5  1  0.81707849  0.31707849  0.92453221  1
  Cu  Cu1_6  1  0.81707849  0.81707849  0.42453221  1
  Cu  Cu1_7  1  0.81707849  0.81707849  0.92453221  1
loop_
_geom_bond_atom_site_label_1
_geom_bond_atom_site_label_2
_geom_bond_distance
_geom_bond_site_symmetry_2
Zr0_0 Zr3_2 3.226027 1_545
Zr0_0 Zr3_4 3.226027 1_455
Zr0_0 Zr0_6 3.262006 1_545
Zr0_0 Zr0_6 3.262006 1_455
Zr0_0 Zr2_2 3.319945 1_545
Zr0_0 Zr2_4 3.319945 1_455
Zr0_0 Zr1_3 3.527558 1_544
Zr0_0 Zr1_5 3.527558 1_454
Zr0_1 Zr3_3 3.226027 1_545
Zr0_1 Zr3_5 3.226027 1_455
Zr0_1 Zr0_7 3.262006 1_545
Zr0_1 Zr0_7 3.262006 1_455
Zr0_1 Zr2_3 3.319945 1_545
Zr0_1 Zr2_5 3.319945 1_455
Zr0_1 Zr1_2 3.527558 1_545
Zr0_1 Zr1_4 3.527558 1_455
Zr0_2 Zr3_0 3.226027 1_555
Zr0_2 Zr3_6 3.226027 1_455
Zr0_2 Zr0_4 3.262006 1_555
Zr0_2 Zr0_4 3.262006 1_465
Zr0_2 Zr2_6 3.319945 1_455
Zr0_2 Zr2_0 3.319945 1_555
Zr0_2 Zr1_7 3.527558 1_454
Zr0_2 Zr1_1 3.527558 1_554
Zr0_3 Zr3_1 3.226027 1_555
Zr0_3 Zr3_7 3.226027 1_455
Zr0_3 Zr0_5 3.262006 1_555
Zr0_3 Zr0_5 3.262006 1_465
Zr0_3 Zr2_7 3.319945 1_455
Zr0_3 Zr2_1 3.319945 1_555
Zr0_3 Zr1_0 3.527558 1_555
Zr0_3 Zr1_6 3.527558 1_455
Zr0_4 Zr3_0 3.226027 1_555
Zr0_4 Zr3_6 3.226027 1_545
Zr0_4 Zr2_6 3.319945 1_545
Zr0_4 Zr2_0 3.319945 1_555
Zr0_4 Zr1_7 3.527558 1_544
Zr0_4 Zr1_1 3.527558 1_554
Zr0_5 Zr3_1 3.226027 1_555
Zr0_5 Zr3_7 3.226027 1_545
Zr0_5 Zr2_7 3.319945 1_545
Zr0_5 Zr2_1 3.319945 1_555
Zr0_5 Zr1_0 3.527558 1_555
Zr0_5 Zr1_6 3.527558 1_545
Zr0_6 Zr3_4 3.226027 1_555
Zr0_6 Zr3_2 3.226027 1_555
Zr0_6 Zr2_4 3.319945 1_555
Zr0_6 Zr2_2 3.319945 1_555
Zr0_6 Zr1_3 3.527558 1_554
Zr0_6 Zr1_5 3.527558 1_554
Zr0_7 Zr3_5 3.226027 1_555
Zr0_7 Zr3_3 3.226027 1_555
Zr0_7 Zr2_3 3.319945 1_555
Zr0_7 Zr2_5 3.319945 1_555
Zr0_7 Zr1_2 3.527558 1_555
Zr0_7 Zr1_4 3.527558 1_555
Zr1_0 Zr2_4 3.226027 1_555
Zr1_0 Zr2_2 3.226027 1_555
Zr1_0 Zr1_6 3.262006 1_545
Zr1_0 Zr1_6 3.262006 1_455
Zr1_0 Zr3_2 3.319945 1_555
Zr1_0 Zr3_4 3.319945 1_555
Zr1_1 Zr2_3 3.226027 1_555
Zr1_1 Zr2_5 3.226027 1_555
Zr1_1 Zr1_7 3.262006 1_545
Zr1_1 Zr1_7 3.262006 1_455
Zr1_1 Zr3_5 3.319945 1_555
Zr1_1 Zr3_3 3.319945 1_555
Zr1_2 Zr2_0 3.226027 1_565
Zr1_2 Zr2_6 3.226027 1_555
Zr1_2 Zr1_4 3.262006 1_465
Zr1_2 Zr1_4 3.262006 1_555
Zr1_2 Zr3_0 3.319945 1_565
Zr1_2 Zr3_6 3.319945 1_555
Zr1_3 Zr2_1 3.226027 1_565
Zr1_3 Zr2_7 3.226027 1_555
Zr1_3 Zr1_5 3.262006 1_465
Zr1_3 Zr1_5 3.262006 1_555
Zr1_3 Zr3_1 3.319945 1_565
Zr1_3 Zr3_7 3.319945 1_555
Zr1_4 Zr2_6 3.226027 1_555
Zr1_4 Zr2_0 3.226027 1_655
Zr1_4 Zr3_6 3.319945 1_555
Zr1_4 Zr3_0 3.319945 1_655
Zr1_5 Zr2_7 3.226027 1_555
Zr1_5 Zr2_1 3.226027 1_655
Zr1_5 Zr3_1 3.319945 1_655
Zr1_5 Zr3_7 3.319945 1_555
Zr1_6 Zr2_4 3.226027 1_565
Zr1_6 Zr2_2 3.226027 1_655
Zr1_6 Zr3_4 3.319945 1_565
Zr1_6 Zr3_2 3.319945 1_655
Zr1_7 Zr2_5 3.226027 1_565
Zr1_7 Zr2_3 3.226027 1_655
Zr1_7 Zr3_5 3.319945 1_565
Zr1_7 Zr3_3 3.319945 1_655
Zr2_0 Zr3_0 2.949327 1_555
Zr2_0 Zr3_2 3.076445 1_555
Zr2_0 Zr3_4 3.076445 1_555
Zr2_0 Zr2_6 3.262006 1_545
Zr2_0 Zr2_6 3.262006 1_455
Zr2_1 Zr3_1 2.949327 1_555
Zr2_1 Zr3_3 3.076445 1_555
Zr2_1 Zr3_5 3.076445 1_555
Zr2_1 Zr2_7 3.262006 1_545
Zr2_1 Zr2_7 3.262006 1_455
Zr2_2 Zr3_2 2.949327 1_555
Zr2_2 Zr3_0 3.076445 1_565
Zr2_2 Zr3_6 3.076445 1_555
Zr2_2 Zr2_4 3.262006 1_465
Zr2_2 Zr2_4 3.262006 1_555
Zr2_3 Zr3_3 2.949327 1_555
Zr2_3 Zr3_7 3.076445 1_555
Zr2_3 Zr3_1 3.076445 1_565
Zr2_3 Zr2_5 3.262006 1_555
Zr2_3 Zr2_5 3.262006 1_465
Zr2_4 Zr3_4 2.949327 1_555
Zr2_4 Zr3_6 3.076445 1_555
Zr2_4 Zr3_0 3.076445 1_655
Zr2_5 Zr3_5 2.949327 1_555
Zr2_5 Zr3_7 3.076445 1_555
Zr2_5 Zr3_1 3.076445 1_655
Zr2_6 Zr3_6 2.949327 1_555
Zr2_6 Zr3_4 3.076445 1_565
Zr2_6 Zr3_2 3.076445 1_655
Zr2_7 Zr3_7 2.949327 1_555
Zr2_7 Zr3_5 3.076445 1_565
Zr2_7 Zr3_3 3.076445 1_655
Zr3_0 Zr3_6 3.262006 1_545
Zr3_0 Zr3_6 3.262006 1_455
Zr3_1 Zr3_7 3.262006 1_545
Zr3_1 Zr3_7 3.262006 1_455
Zr3_2 Zr3_4 3.262006 1_555
Zr3_2 Zr3_4 3.262006 1_465
Zr3_3 Zr3_5 3.262006 1_555
Zr3_3 Zr3_5 3.262006 1_465
Cu0_0 Cu1_1 2.510083 1_554
Cu0_0 Zr2_2 2.684228 1_545
Cu0_0 Zr2_4 2.684228 1_455
Cu0_0 Zr1_3 2.764673 1_544
Cu0_0 Zr1_5 2.764673 1_454
Cu0_0 Zr0_4 2.781025 1_555
Cu0_0 Zr0_2 2.781025 1_555
Cu0_0 Zr0_0 3.060052 1_555
Cu0_0 Zr3_0 3.194965 1_555
Cu0_0 Cu0_6 3.262006 1_545
Cu0_0 Cu0_6 3.262006 1_455
Cu0_1 Cu1_0 2.510083 1_555
Cu0_1 Zr2_3 2.684228 1_545
Cu0_1 Zr2_5 2.684228 1_455
Cu0_1 Zr1_2 2.764673 1_545
Cu0_1 Zr1_4 2.764673 1_455
Cu0_1 Zr0_5 2.781025 1_555
Cu0_1 Zr0_3 2.781025 1_555
Cu0_1 Zr0_1 3.060052 1_555
Cu0_1 Zr3_1 3.194965 1_555
Cu0_1 Cu0_7 3.262006 1_545
Cu0_1 Cu0_7 3.262006 1_455
Cu0_2 Cu1_3 2.510083 1_554
Cu0_2 Zr2_0 2.684228 1_555
Cu0_2 Zr2_6 2.684228 1_455
Cu0_2 Zr1_1 2.764673 1_554
Cu0_2 Zr1_7 2.764673 1_454
Cu0_2 Zr0_0 2.781025 1_565
Cu0_2 Zr0_6 2.781025 1_555
Cu0_2 Zr0_2 3.060052 1_555
Cu0_2 Zr3_2 3.194965 1_555
Cu0_2 Cu0_4 3.262006 1_555
Cu0_2 Cu0_4 3.262006 1_465
Cu0_3 Cu1_2 2.510083 1_555
Cu0_3 Zr2_1 2.684228 1_555
Cu0_3 Zr2_7 2.684228 1_455
Cu0_3 Zr1_0 2.764673 1_555
Cu0_3 Zr1_6 2.764673 1_455
Cu0_3 Zr0_7 2.781025 1_555
Cu0_3 Zr0_1 2.781025 1_565
Cu0_3 Zr0_3 3.060052 1_555
Cu0_3 Zr3_3 3.194965 1_555
Cu0_3 Cu0_5 3.262006 1_555
Cu0_3 Cu0_5 3.262006 1_465
Cu0_4 Cu1_5 2.510083 1_554
Cu0_4 Zr2_0 2.684228 1_555
Cu0_4 Zr2_6 2.684228 1_545
Cu0_4 Zr1_1 2.764673 1_554
Cu0_4 Zr1_7 2.764673 1_544
Cu0_4 Zr0_6 2.781025 1_555
Cu0_4 Zr0_0 2.781025 1_655
Cu0_4 Zr0_4 3.060052 1_555
Cu0_4 Zr3_4 3.194965 1_555
Cu0_5 Cu1_4 2.510083 1_555
Cu0_5 Zr2_1 2.684228 1_555
Cu0_5 Zr2_7 2.684228 1_545
Cu0_5 Zr1_0 2.764673 1_555
Cu0_5 Zr1_6 2.764673 1_545
Cu0_5 Zr0_7 2.781025 1_555
Cu0_5 Zr0_1 2.781025 1_655
Cu0_5 Zr0_5 3.060052 1_555
Cu0_5 Zr3_5 3.194965 1_555
Cu0_6 Cu1_7 2.510083 1_554
Cu0_6 Zr2_4 2.684228 1_555
Cu0_6 Zr2_2 2.684228 1_555
Cu0_6 Zr1_5 2.764673 1_554
Cu0_6 Zr1_3 2.764673 1_554
Cu0_6 Zr0_2 2.781025 1_655
Cu0_6 Zr0_4 2.781025 1_565
Cu0_6 Zr0_6 3.060052 1_555
Cu0_6 Zr3_6 3.194965 1_555
Cu0_7 Cu1_6 2.510083 1_555
Cu0_7 Zr2_5 2.684228 1_555
Cu0_7 Zr2_3 2.684228 1_555
Cu0_7 Zr1_4 2.764673 1_555
Cu0_7 Zr1_2 2.764673 1_555
Cu0_7 Zr0_5 2.781025 1_565
Cu0_7 Zr0_3 2.781025 1_655
Cu0_7 Zr0_7 3.060052 1_555
Cu0_7 Zr3_7 3.194965 1_555
Cu1_0 Zr3_4 2.684228 1_555
Cu1_0 Zr3_2 2.684228 1_555
Cu1_0 Zr0_5 2.764673 1_555
Cu1_0 Zr0_3 2.764673 1_555
Cu1_0 Zr1_4 2.781025 1_455
Cu1_0 Zr1_2 2.781025 1_545
Cu1_0 Zr1_0 3.060052 1_555
Cu1_0 Zr2_0 3.194965 1_555
Cu1_0 Cu1_6 3.262006 1_545
Cu1_0 Cu1_6 3.262006 1_455
Cu1_1 Zr3_3 2.684228 1_555
Cu1_1 Zr3_5 2.684228 1_555
Cu1_1 Zr0_2 2.764673 1_556
Cu1_1 Zr0_4 2.764673 1_556
Cu1_1 Zr1_5 2.781025 1_455
Cu1_1 Zr1_3 2.781025 1_545
Cu1_1 Zr1_1 3.060052 1_555
Cu1_1 Zr2_1 3.194965 1_555
Cu1_1 Cu1_7 3.262006 1_545
Cu1_1 Cu1_7 3.262006 1_455
Cu1_2 Zr3_0 2.684228 1_565
Cu1_2 Zr3_6 2.684228 1_555
Cu1_2 Zr0_7 2.764673 1_555
Cu1_2 Zr0_1 2.764673 1_565
Cu1_2 Zr1_6 2.781025 1_455
Cu1_2 Zr1_0 2.781025 1_555
Cu1_2 Zr1_2 3.060052 1_555
Cu1_2 Zr2_2 3.194965 1_555
Cu1_2 Cu1_4 3.262006 1_465
Cu1_2 Cu1_4 3.262006 1_555
Cu1_3 Zr3_1 2.684228 1_565
Cu1_3 Zr3_7 2.684228 1_555
Cu1_3 Zr0_0 2.764673 1_566
Cu1_3 Zr0_6 2.764673 1_556
Cu1_3 Zr1_1 2.781025 1_555
Cu1_3 Zr1_7 2.781025 1_455
Cu1_3 Zr1_3 3.060052 1_555
Cu1_3 Zr2_3 3.194965 1_555
Cu1_3 Cu1_5 3.262006 1_555
Cu1_3 Cu1_5 3.262006 1_465
Cu1_4 Zr3_6 2.684228 1_555
Cu1_4 Zr3_0 2.684228 1_655
Cu1_4 Zr0_7 2.764673 1_555
Cu1_4 Zr0_1 2.764673 1_655
Cu1_4 Zr1_6 2.781025 1_545
Cu1_4 Zr1_0 2.781025 1_555
Cu1_4 Zr1_4 3.060052 1_555
Cu1_4 Zr2_4 3.194965 1_555
Cu1_5 Zr3_7 2.684228 1_555
Cu1_5 Zr3_1 2.684228 1_655
Cu1_5 Zr0_6 2.764673 1_556
Cu1_5 Zr0_0 2.764673 1_656
Cu1_5 Zr1_1 2.781025 1_555
Cu1_5 Zr1_7 2.781025 1_545
Cu1_5 Zr1_5 3.060052 1_555
Cu1_5 Zr2_5 3.194965 1_555
Cu1_6 Zr3_4 2.684228 1_565
Cu1_6 Zr3_2 2.684228 1_655
Cu1_6 Zr0_5 2.764673 1_565
Cu1_6 Zr0_3 2.764673 1_655
Cu1_6 Zr1_4 2.781025 1_555
Cu1_6 Zr1_2 2.781025 1_555
Cu1_6 Zr1_6 3.060052 1_555
Cu1_6 Zr2_6 3.194965 1_555
Cu1_7 Zr3_5 2.684228 1_565
Cu1_7 Zr3_3 2.684228 1_655
Cu1_7 Zr0_4 2.764673 1_566
Cu1_7 Zr0_2 2.764673 1_656
Cu1_7 Zr1_5 2.781025 1_555
Cu1_7 Zr1_3 2.781025 1_555
Cu1_7 Zr1_7 3.060052 1_555
Cu1_7 Zr2_7 3.194965 1_555
