# generated using pymatgen
data_Cr(SiO3)2
_symmetry_space_group_name_H-M   'P 1'
_cell_length_a   5.10079400
_cell_length_b   10.71666700
_cell_length_c   18.42517800
_cell_angle_alpha   90.00000000
_cell_angle_beta   90.00000000
_cell_angle_gamma   90.00000000
_symmetry_Int_Tables_number   1
_chemical_formula_structural   Cr(SiO3)2
_chemical_formula_sum   'Cr8 Si16 O48'
_cell_volume   1007.18491537
_cell_formula_units_Z   8
loop_
 _symmetry_equiv_pos_site_id
 _symmetry_equiv_pos_as_xyz
  1  'x, y, z'
loop_
 _atom_site_type_symbol
 _atom_site_label
 _atom_site_symmetry_multiplicity
 _atom_site_fract_x
 _atom_site_fract_y
 _atom_site_fract_z
 _atom_site_occupancy
  Cr  Cr0  1  0.43814900  0.54451900  0.37324900  1
  Cr  Cr1  1  0.56185100  0.45548100  0.62675100  1
  Cr  Cr2  1  0.93814900  0.45548100  0.12675100  1
  Cr  Cr3  1  0.06185100  0.54451900  0.87324900  1
  Cr  Cr4  1  0.43814900  0.04451900  0.12675100  1
  Cr  Cr5  1  0.56185100  0.95548100  0.87324900  1
  Cr  Cr6  1  0.93814900  0.95548100  0.37324900  1
  Cr  Cr7  1  0.06185100  0.04451900  0.62675100  1
  Si  Si0  1  0.62496600  0.16844200  0.27639600  1
  Si  Si1  1  0.76954800  0.33025700  0.97383900  1
  Si  Si2  1  0.73045200  0.33025700  0.47383900  1
  Si  Si3  1  0.87503400  0.66844200  0.72360400  1
  Si  Si4  1  0.12496600  0.83155800  0.22360400  1
  Si  Si5  1  0.37503400  0.33155800  0.77639600  1
  Si  Si6  1  0.26954800  0.16974300  0.97383900  1
  Si  Si7  1  0.76954800  0.83025700  0.52616100  1
  Si  Si8  1  0.73045200  0.83025700  0.02616100  1
  Si  Si9  1  0.87503400  0.16844200  0.77639600  1
  Si  Si10  1  0.37503400  0.83155800  0.72360400  1
  Si  Si11  1  0.62496600  0.66844200  0.22360400  1
  Si  Si12  1  0.23045200  0.66974300  0.02616100  1
  Si  Si13  1  0.12496600  0.33155800  0.27639600  1
  Si  Si14  1  0.23045200  0.16974300  0.47383900  1
  Si  Si15  1  0.26954800  0.66974300  0.52616100  1
  O  O0  1  0.80316300  0.04374900  0.82367900  1
  O  O1  1  0.33371700  0.54700200  0.57498300  1
  O  O2  1  0.19683700  0.95625100  0.17632100  1
  O  O3  1  0.77221600  0.86160700  0.43886400  1
  O  O4  1  0.27221600  0.63839300  0.43886400  1
  O  O5  1  0.97271200  0.71693600  0.54503700  1
  O  O6  1  0.86604100  0.13347500  0.68948300  1
  O  O7  1  0.13395900  0.36652500  0.18948300  1
  O  O8  1  0.77221600  0.36160700  0.06113600  1
  O  O9  1  0.86604100  0.63347500  0.81051700  1
  O  O10  1  0.30316300  0.95625100  0.67632100  1
  O  O11  1  0.72778400  0.86160700  0.93886400  1
  O  O12  1  0.66628300  0.45299800  0.42501700  1
  O  O13  1  0.36604100  0.36652500  0.68948300  1
  O  O14  1  0.69683700  0.54374900  0.17632100  1
  O  O15  1  0.33371700  0.04700200  0.92501700  1
  O  O16  1  0.30316300  0.45625100  0.82367900  1
  O  O17  1  0.16883800  0.21945000  0.79512200  1
  O  O18  1  0.33116200  0.21945000  0.29512200  1
  O  O19  1  0.52728800  0.21693600  0.45496300  1
  O  O20  1  0.72778400  0.36160700  0.56113600  1
  O  O21  1  0.63395900  0.13347500  0.18948300  1
  O  O22  1  0.83371700  0.95299800  0.57498300  1
  O  O23  1  0.16883800  0.71945000  0.70487800  1
  O  O24  1  0.22778400  0.63839300  0.93886400  1
  O  O25  1  0.63395900  0.63347500  0.31051700  1
  O  O26  1  0.66628300  0.95299800  0.07498300  1
  O  O27  1  0.27221600  0.13839300  0.06113600  1
  O  O28  1  0.16628300  0.04700200  0.42501700  1
  O  O29  1  0.66883800  0.28055000  0.79512200  1
  O  O30  1  0.19683700  0.45625100  0.32367900  1
  O  O31  1  0.83116200  0.28055000  0.29512200  1
  O  O32  1  0.83116200  0.78055000  0.20487800  1
  O  O33  1  0.83371700  0.45299800  0.92501700  1
  O  O34  1  0.22778400  0.13839300  0.56113600  1
  O  O35  1  0.16628300  0.54700200  0.07498300  1
  O  O36  1  0.33116200  0.71945000  0.20487800  1
  O  O37  1  0.02728800  0.28306400  0.45496300  1
  O  O38  1  0.47271200  0.28306400  0.95496300  1
  O  O39  1  0.66883800  0.78055000  0.70487800  1
  O  O40  1  0.47271200  0.78306400  0.54503700  1
  O  O41  1  0.52728800  0.71693600  0.04503700  1
  O  O42  1  0.02728800  0.78306400  0.04503700  1
  O  O43  1  0.36604100  0.86652500  0.81051700  1
  O  O44  1  0.69683700  0.04374900  0.32367900  1
  O  O45  1  0.97271200  0.21693600  0.95496300  1
  O  O46  1  0.13395900  0.86652500  0.31051700  1
  O  O47  1  0.80316300  0.54374900  0.67632100  1
loop_
_geom_bond_atom_site_label_1
_geom_bond_atom_site_label_2
_geom_bond_distance
_geom_bond_site_symmetry_2
Cr0 O4 1.786071 1_555
Cr0 O12 1.796075 1_555
Cr0 O25 1.800656 1_555
Cr0 O30 1.801126 1_555
Cr1 O20 1.786071 1_555
Cr1 O1 1.796075 1_555
Cr1 O13 1.800656 1_555
Cr1 O47 1.801126 1_555
Cr2 O8 1.786071 1_555
Cr2 O35 1.796075 1_655
Cr2 O7 1.800656 1_655
Cr2 O14 1.801126 1_555
Cr3 O24 1.786071 1_555
Cr3 O33 1.796075 1_455
Cr3 O9 1.800656 1_455
Cr3 O16 1.801126 1_555
Cr4 O27 1.786071 1_555
Cr4 O26 1.796075 1_545
Cr4 O21 1.800656 1_555
Cr4 O2 1.801126 1_545
Cr5 O11 1.786071 1_555
Cr5 O15 1.796075 1_565
Cr5 O43 1.800656 1_555
Cr5 O0 1.801126 1_565
Cr6 O3 1.786071 1_555
Cr6 O28 1.796075 1_665
Cr6 O46 1.800656 1_655
Cr6 O44 1.801126 1_565
Cr7 O34 1.786071 1_555
Cr7 O22 1.796075 1_445
Cr7 O6 1.800656 1_455
Cr7 O10 1.801126 1_545
O0 Si9 1.636784 1_555
O1 Si15 1.626819 1_555
O2 Si4 1.636784 1_555
O3 Si7 1.643232 1_555
O4 Si15 1.643232 1_555
O5 Si15 1.633781 1_655
O5 Si7 1.633921 1_555
O6 Si9 1.645287 1_555
O7 Si13 1.645287 1_555
O8 Si1 1.643232 1_554
O9 Si3 1.645287 1_555
O10 Si10 1.636784 1_555
O11 Si8 1.643232 1_556
O12 Si2 1.626819 1_555
O13 Si5 1.645287 1_555
O14 Si11 1.636784 1_555
O15 Si6 1.626819 1_555
O16 Si5 1.636784 1_555
O17 Si9 1.632103 1_455
O17 Si5 1.633607 1_555
O18 Si0 1.632103 1_555
O18 Si13 1.633607 1_555
O19 Si14 1.633781 1_555
O19 Si2 1.633921 1_555
O20 Si2 1.643232 1_555
O21 Si0 1.645287 1_555
O22 Si7 1.626819 1_555
O23 Si3 1.632103 1_455
O23 Si10 1.633607 1_555
O24 Si12 1.643232 1_556
O25 Si11 1.645287 1_555
O26 Si8 1.626819 1_555
O27 Si6 1.643232 1_554
O28 Si14 1.626819 1_555
O29 Si5 1.632103 1_555
O29 Si9 1.633607 1_555
O30 Si13 1.636784 1_555
O31 Si13 1.632103 1_655
O31 Si0 1.633607 1_555
O32 Si4 1.632103 1_655
O32 Si11 1.633607 1_555
O33 Si1 1.626819 1_555
O34 Si14 1.643232 1_555
O35 Si12 1.626819 1_555
O36 Si11 1.632103 1_555
O36 Si4 1.633607 1_555
O37 Si2 1.633781 1_455
O37 Si14 1.633921 1_555
O38 Si1 1.633781 1_555
O38 Si6 1.633921 1_555
O39 Si10 1.632103 1_555
O39 Si3 1.633607 1_555
O40 Si7 1.633781 1_555
O40 Si15 1.633921 1_555
O41 Si12 1.633781 1_555
O41 Si8 1.633921 1_555
O42 Si8 1.633781 1_455
O42 Si12 1.633921 1_555
O43 Si10 1.645287 1_555
O44 Si0 1.636784 1_555
O45 Si6 1.633781 1_655
O45 Si1 1.633921 1_555
O46 Si4 1.645287 1_555
O47 Si3 1.636784 1_555
