# generated using pymatgen
data_Li5Mn(CoO4)2
_symmetry_space_group_name_H-M   'P 1'
_cell_length_a   2.91024900
_cell_length_b   5.07881700
_cell_length_c   9.68073362
_cell_angle_alpha   78.64596130
_cell_angle_beta   90.00000000
_cell_angle_gamma   90.00000000
_symmetry_Int_Tables_number   1
_chemical_formula_structural   Li5Mn(CoO4)2
_chemical_formula_sum   'Li5 Mn1 Co2 O8'
_cell_volume   140.28696376
_cell_formula_units_Z   1
loop_
 _symmetry_equiv_pos_site_id
 _symmetry_equiv_pos_as_xyz
  1  'x, y, z'
loop_
 _atom_site_type_symbol
 _atom_site_label
 _atom_site_symmetry_multiplicity
 _atom_site_fract_x
 _atom_site_fract_y
 _atom_site_fract_z
 _atom_site_occupancy
  Li  Li0  1  0.00000000  0.25242400  0.25993400  1
  Li  Li1  1  0.50000000  0.26184100  0.74153300  1
  Li  Li2  1  0.00000000  0.74757600  0.74006600  1
  Li  Li3  1  0.50000000  0.73815900  0.25846700  1
  Li  Li4  1  0.00000000  0.50000000  0.50000000  1
  Mn  Mn0  1  0.00000000  0.00000000  0.00000000  1
  Co  Co0  1  0.50000000  0.00000000  0.50000000  1
  Co  Co1  1  0.50000000  0.50000000  0.00000000  1
  O  O0  1  0.00000000  0.35740200  0.88162100  1
  O  O1  1  0.50000000  0.33172700  0.38818200  1
  O  O2  1  0.00000000  0.89052000  0.39071600  1
  O  O3  1  0.50000000  0.89502800  0.88654500  1
  O  O4  1  0.00000000  0.10948000  0.60928400  1
  O  O5  1  0.50000000  0.10497200  0.11345500  1
  O  O6  1  0.00000000  0.64259800  0.11837900  1
  O  O7  1  0.50000000  0.66827300  0.61181800  1
loop_
_geom_bond_atom_site_label_1
_geom_bond_atom_site_label_2
_geom_bond_distance
_geom_bond_site_symmetry_2
Li0 O1 2.004471 1_455
Li0 O1 2.004471 1_555
Li0 O2 2.016199 1_545
Li0 O6 2.176117 1_555
Li0 O5 2.259896 1_455
Li0 O5 2.259896 1_555
Li1 O3 2.100393 1_545
Li1 O0 2.109799 1_555
Li1 O0 2.109799 1_655
Li1 O4 2.178379 1_655
Li1 O4 2.178379 1_555
Li1 O7 2.194803 1_555
Li2 O7 2.004471 1_455
Li2 O7 2.004471 1_555
Li2 O4 2.016199 1_565
Li2 O0 2.176117 1_555
Li2 O3 2.259896 1_555
Li2 O3 2.259896 1_455
Li3 O5 2.100393 1_565
Li3 O6 2.109799 1_555
Li3 O6 2.109799 1_655
Li3 O2 2.178379 1_655
Li3 O2 2.178379 1_555
Li3 O1 2.194803 1_555
Li4 O2 2.055932 1_555
Li4 O4 2.055932 1_555
Li4 O7 2.093752 1_555
Li4 O1 2.093752 1_555
Li4 O7 2.093752 1_455
Li4 O1 2.093752 1_455
Mn0 O6 1.946568 1_545
Mn0 O0 1.946568 1_554
Mn0 O3 1.959209 1_444
Mn0 O3 1.959209 1_544
Mn0 O5 1.959209 1_455
Mn0 O5 1.959209 1_555
Co0 O1 1.814433 1_555
Co0 O7 1.814433 1_545
Co0 O2 1.943561 1_545
Co0 O2 1.943561 1_645
Co0 O4 1.943561 1_555
Co0 O4 1.943561 1_655
Co1 O6 2.069298 1_655
Co1 O0 2.069298 1_654
Co1 O6 2.069298 1_555
Co1 O0 2.069298 1_554
Co1 O5 2.088979 1_555
Co1 O3 2.088979 1_554
