# generated using pymatgen
data_Nd2Ta2O9
_symmetry_space_group_name_H-M   'P 1'
_cell_length_a   3.89605600
_cell_length_b   6.72104171
_cell_length_c   14.43689276
_cell_angle_alpha   93.14269914
_cell_angle_beta   90.00000000
_cell_angle_gamma   90.00000000
_symmetry_Int_Tables_number   1
_chemical_formula_structural   Nd2Ta2O9
_chemical_formula_sum   'Nd4 Ta4 O18'
_cell_volume   377.46951282
_cell_formula_units_Z   2
loop_
 _symmetry_equiv_pos_site_id
 _symmetry_equiv_pos_as_xyz
  1  'x, y, z'
loop_
 _atom_site_type_symbol
 _atom_site_label
 _atom_site_symmetry_multiplicity
 _atom_site_fract_x
 _atom_site_fract_y
 _atom_site_fract_z
 _atom_site_occupancy
  Nd  Nd0  1  0.00406600  0.00950000  0.69502000  1
  Nd  Nd1  1  0.99593400  0.99050000  0.30498000  1
  Nd  Nd2  1  0.50406600  0.49050000  0.80498000  1
  Nd  Nd3  1  0.49593400  0.50950000  0.19502000  1
  Ta  Ta0  1  0.00331200  0.26720500  0.96093700  1
  Ta  Ta1  1  0.99668800  0.73279500  0.03906300  1
  Ta  Ta2  1  0.50331200  0.23279500  0.53906300  1
  Ta  Ta3  1  0.49668800  0.76720500  0.46093700  1
  O  O0  1  0.00113500  0.57760200  0.91891700  1
  O  O1  1  0.99886500  0.42239800  0.08108300  1
  O  O2  1  0.50113500  0.92239800  0.58108300  1
  O  O3  1  0.49886500  0.07760200  0.41891700  1
  O  O4  1  0.50824300  0.84156800  0.78100500  1
  O  O5  1  0.49175700  0.15843200  0.21899500  1
  O  O6  1  0.00824300  0.65843200  0.71899500  1
  O  O7  1  0.99175700  0.34156800  0.28100500  1
  O  O8  1  0.00000000  0.00000000  0.00000000  1
  O  O9  1  0.50000000  0.50000000  0.50000000  1
  O  O10  1  0.50205500  0.29414900  0.95165800  1
  O  O11  1  0.49794500  0.70585100  0.04834200  1
  O  O12  1  0.00205500  0.20585100  0.54834200  1
  O  O13  1  0.99794500  0.79414900  0.45165800  1
  O  O14  1  0.00305600  0.24405400  0.82383700  1
  O  O15  1  0.99694400  0.75594600  0.17616300  1
  O  O16  1  0.50305600  0.25594600  0.67616300  1
  O  O17  1  0.49694400  0.74405400  0.32383700  1
loop_
_geom_bond_atom_site_label_1
_geom_bond_atom_site_label_2
_geom_bond_distance
_geom_bond_site_symmetry_2
Nd0 O14 2.371138 1_555
Nd0 O6 2.403551 1_545
Nd0 O12 2.555808 1_555
Nd0 O16 2.578105 1_555
Nd0 O16 2.584045 1_455
Nd0 O2 2.587135 1_545
Nd0 O4 2.588470 1_445
Nd0 O2 2.604275 1_445
Nd0 O4 2.612850 1_545
Nd1 O15 2.371138 1_555
Nd1 O7 2.403551 1_565
Nd1 O13 2.555808 1_555
Nd1 O17 2.578105 1_555
Nd1 O17 2.584045 1_655
Nd1 O3 2.587135 1_565
Nd1 O5 2.588470 1_665
Nd1 O3 2.604275 1_665
Nd1 O5 2.612850 1_565
Nd2 O16 2.371138 1_555
Nd2 O4 2.403551 1_555
Nd2 O10 2.555808 1_555
Nd2 O14 2.578105 1_655
Nd2 O14 2.584045 1_555
Nd2 O0 2.587135 1_655
Nd2 O6 2.588470 1_555
Nd2 O0 2.604275 1_555
Nd2 O6 2.612850 1_655
Nd3 O17 2.371138 1_555
Nd3 O5 2.403551 1_555
Nd3 O11 2.555808 1_555
Nd3 O15 2.578105 1_455
Nd3 O15 2.584045 1_555
Nd3 O1 2.587135 1_455
Nd3 O7 2.588470 1_555
Nd3 O1 2.604275 1_555
Nd3 O7 2.612850 1_455
O0 Ta1 1.974464 1_456
O0 Ta0 2.204323 1_555
O1 Ta0 1.974464 1_654
O1 Ta1 2.204323 1_555
O2 Ta3 1.974464 1_555
O2 Ta2 2.204323 1_565
O3 Ta2 1.974464 1_555
O3 Ta3 2.204323 1_545
O8 Ta0 1.911673 1_554
O8 Ta1 1.911673 1_445
O9 Ta2 1.911673 1_555
O9 Ta3 1.911673 1_555
O10 Ta0 1.956823 1_555
O10 Ta0 1.966549 1_655
O11 Ta1 1.956823 1_555
O11 Ta1 1.966549 1_455
O12 Ta2 1.956823 1_455
O12 Ta2 1.966549 1_555
O13 Ta3 1.956823 1_655
O13 Ta3 1.966549 1_555
O14 Ta0 1.976882 1_555
O15 Ta1 1.976882 1_555
O16 Ta2 1.976882 1_555
O17 Ta3 1.976882 1_555
