# generated using pymatgen
data_Ca2ScP3Pt7
_symmetry_space_group_name_H-M   'P 1'
_cell_length_a   14.05309312
_cell_length_b   14.05309312
_cell_length_c   14.05309312
_cell_angle_alpha   163.35493252
_cell_angle_beta   163.35493252
_cell_angle_gamma   23.62397519
_symmetry_Int_Tables_number   1
_chemical_formula_structural   Ca2ScP3Pt7
_chemical_formula_sum   'Ca2 Sc1 P3 Pt7'
_cell_volume   227.66167292
_cell_formula_units_Z   1
loop_
 _symmetry_equiv_pos_site_id
 _symmetry_equiv_pos_as_xyz
  1  'x, y, z'
loop_
 _atom_site_type_symbol
 _atom_site_label
 _atom_site_symmetry_multiplicity
 _atom_site_fract_x
 _atom_site_fract_y
 _atom_site_fract_z
 _atom_site_occupancy
  Ca  Ca0  1  0.66659400  0.66659400  0.00000000  1
  Ca  Ca1  1  0.33340600  0.33340600  0.00000000  1
  Sc  Sc0  1  0.50000000  0.50000000  0.00000000  1
  P  P0  1  0.87714700  0.87714700  0.00000000  1
  P  P1  1  0.12285300  0.12285300  0.00000000  1
  P  P2  1  0.25000000  0.75000000  0.50000000  1
  Pt  Pt0  1  0.42729600  0.92729600  0.50000000  1
  Pt  Pt1  1  0.92572100  0.42572100  0.50000000  1
  Pt  Pt2  1  0.57427900  0.07427900  0.50000000  1
  Pt  Pt3  1  0.07270400  0.57270400  0.50000000  1
  Pt  Pt4  1  0.79337800  0.79337800  0.00000000  1
  Pt  Pt5  1  0.20662200  0.20662200  0.00000000  1
  Pt  Pt6  1  0.00000000  0.00000000  0.00000000  1
loop_
_geom_bond_atom_site_label_1
_geom_bond_atom_site_label_2
_geom_bond_distance
_geom_bond_site_symmetry_2
Ca0 P2 3.066392 1_655
Ca0 P2 3.066392 1_554
Ca0 Pt5 3.080252 1_554
Ca0 Pt5 3.080252 1_565
Ca0 Pt5 3.080252 1_655
Ca0 Pt5 3.080252 1_666
Ca0 P1 3.118231 1_655
Ca0 P1 3.118231 1_554
Ca0 P1 3.118231 1_666
Ca0 P1 3.118231 1_565
Ca0 Pt2 3.253862 1_554
Ca0 Pt2 3.253862 1_565
Ca0 Pt3 3.287793 1_655
Ca0 Pt3 3.287793 1_554
Ca0 Pt4 3.487958 1_555
Ca1 P2 3.066392 1_555
Ca1 P2 3.066392 1_544
Ca1 Pt4 3.080252 1_455
Ca1 Pt4 3.080252 1_545
Ca1 Pt4 3.080252 1_556
Ca1 Pt4 3.080252 1_444
Ca1 P0 3.118231 1_455
Ca1 P0 3.118231 1_545
Ca1 P0 3.118231 1_556
Ca1 P0 3.118231 1_444
Ca1 Pt1 3.253862 1_454
Ca1 Pt1 3.253862 1_555
Ca1 Pt0 3.287793 1_544
Ca1 Pt0 3.287793 1_555
Ca1 Pt5 3.487958 1_555
P0 Pt4 2.304571 1_555
P0 Pt1 2.433803 1_565
P0 Pt1 2.433803 1_554
P0 Pt0 2.457861 1_655
P0 Pt0 2.457861 1_554
P1 Pt5 2.304571 1_555
P1 Pt2 2.433803 1_555
P1 Pt2 2.433803 1_454
P1 Pt3 2.457861 1_544
P1 Pt3 2.457861 1_555
P2 Pt4 2.358343 1_556
P2 Pt4 2.358343 1_455
P2 Pt5 2.358343 1_566
P2 Pt5 2.358343 1_555
Pt0 Pt6 2.852769 1_565
Pt0 Sc0 2.852769 1_566
Pt0 Pt6 2.852769 1_666
Pt0 Sc0 2.852769 1_555
Pt0 Pt1 2.877006 1_465
Pt0 Pt1 2.877006 1_566
Pt0 Pt1 2.877006 1_454
Pt0 Pt1 2.877006 1_555
Pt1 Pt6 2.883314 1_655
Pt1 Sc0 2.883314 1_656
Pt1 Sc0 2.883314 1_555
Pt1 Pt6 2.883314 1_666
Pt2 Pt3 2.877006 1_645
Pt2 Pt3 2.877006 1_544
Pt2 Pt3 2.877006 1_656
Pt2 Pt3 2.877006 1_555
Pt2 Sc0 2.883314 1_556
Pt2 Pt6 2.883314 1_656
Pt2 Pt6 2.883314 1_555
Pt2 Sc0 2.883314 1_545
Pt3 Sc0 2.852769 1_455
Pt3 Pt6 2.852769 1_566
Pt3 Pt6 2.852769 1_555
Pt3 Sc0 2.852769 1_556
Pt6 Sc0 2.876680 1_444
Pt6 Sc0 2.876680 1_545
Pt6 Sc0 2.876680 1_556
Pt6 Sc0 2.876680 1_455
