# generated using pymatgen
data_TiFeP
_symmetry_space_group_name_H-M   'P 1'
_cell_length_a   3.54289833
_cell_length_b   5.90758464
_cell_length_c   5.90746840
_cell_angle_alpha   120.00065570
_cell_angle_beta   90.00000000
_cell_angle_gamma   90.00000000
_symmetry_Int_Tables_number   1
_chemical_formula_structural   TiFeP
_chemical_formula_sum   'Ti3 Fe3 P3'
_cell_volume   107.07739855
_cell_formula_units_Z   3
loop_
 _symmetry_equiv_pos_site_id
 _symmetry_equiv_pos_as_xyz
  1  'x, y, z'
loop_
 _atom_site_type_symbol
 _atom_site_label
 _atom_site_symmetry_multiplicity
 _atom_site_fract_x
 _atom_site_fract_y
 _atom_site_fract_z
 _atom_site_occupancy
  Ti  Ti0  1  -0.00000000  0.42118904  -0.00000000  1
  Ti  Ti1  1  -0.00000000  0.57882942  0.57883602  1
  Ti  Ti2  1  -0.00000000  -0.00000759  0.42116398  1
  Fe  Fe0  1  0.50000000  0.75654940  0.00000000  1
  Fe  Fe1  1  0.50000000  0.24341679  0.24345320  1
  Fe  Fe2  1  0.50000000  0.99996359  0.75654680  1
  P  P0  1  -0.00000000  -0.00000885  -0.00000000  1
  P  P1  1  0.50000000  0.33331475  0.66663331  1
  P  P2  1  0.50000000  0.66668244  0.33336669  1
loop_
_geom_bond_atom_site_label_1
_geom_bond_atom_site_label_2
_geom_bond_distance
_geom_bond_site_symmetry_2
Fe0 P2 2.281611 1_555
Fe0 P1 2.281614 1_554
Fe0 P0 2.281735 1_565
Fe0 P0 2.281735 1_665
Fe0 Ti0 2.657643 1_655
Fe0 Ti0 2.657643 1_555
Fe0 Ti2 2.796125 1_565
Fe0 Ti2 2.796125 1_665
Fe0 Ti1 2.796125 1_554
Fe0 Ti1 2.796125 1_654
Fe1 P1 2.281223 1_555
Fe1 P0 2.281709 1_555
Fe1 P0 2.281709 1_655
Fe1 P2 2.281740 1_555
Fe1 Ti1 2.657778 1_555
Fe1 Ti1 2.657778 1_655
Fe1 Ti2 2.796045 1_655
Fe1 Ti2 2.796045 1_555
Fe1 Ti0 2.796388 1_655
Fe1 Ti0 2.796388 1_555
Fe2 P2 2.281221 1_555
Fe2 P0 2.281709 1_566
Fe2 P0 2.281709 1_666
Fe2 P1 2.281734 1_565
Fe2 Ti2 2.657776 1_565
Fe2 Ti2 2.657776 1_665
Fe2 Ti1 2.796041 1_555
Fe2 Ti1 2.796041 1_655
Fe2 Ti0 2.796388 1_666
Fe2 Ti0 2.796388 1_566
P0 Ti1 2.488006 1_544
P0 Ti2 2.488009 1_555
P0 Ti0 2.488262 1_555
P1 Ti2 2.502560 1_655
P1 Ti2 2.502560 1_555
P1 Ti1 2.502594 1_555
P1 Ti1 2.502594 1_655
P1 Ti0 2.502701 1_656
P1 Ti0 2.502701 1_556
P2 Ti1 2.502560 1_555
P2 Ti1 2.502560 1_655
P2 Ti2 2.502586 1_565
P2 Ti2 2.502586 1_665
P2 Ti0 2.502702 1_655
P2 Ti0 2.502702 1_555
