# generated using pymatgen
data_NaZr2PdF11
_symmetry_space_group_name_H-M   'P 1'
_cell_length_a   5.86043119
_cell_length_b   5.86043119
_cell_length_c   7.96573276
_cell_angle_alpha   69.50409662
_cell_angle_beta   69.50409662
_cell_angle_gamma   73.05323098
_symmetry_Int_Tables_number   1
_chemical_formula_structural   NaZr2PdF11
_chemical_formula_sum   'Na1 Zr2 Pd1 F11'
_cell_volume   235.55118175
_cell_formula_units_Z   1
loop_
 _symmetry_equiv_pos_site_id
 _symmetry_equiv_pos_as_xyz
  1  'x, y, z'
loop_
 _atom_site_type_symbol
 _atom_site_label
 _atom_site_symmetry_multiplicity
 _atom_site_fract_x
 _atom_site_fract_y
 _atom_site_fract_z
 _atom_site_occupancy
  Na  Na0  1  0.00000000  0.00000000  0.00000000  1
  Zr  Zr0  1  0.50033700  0.50033700  0.76807400  1
  Zr  Zr1  1  0.49966300  0.49966300  0.23192600  1
  Pd  Pd0  1  0.00000000  0.00000000  0.50000000  1
  F  F0  1  0.21974400  0.79962000  0.70031800  1
  F  F1  1  0.20038000  0.78025600  0.29968200  1
  F  F2  1  0.78025600  0.20038000  0.29968200  1
  F  F3  1  0.79962000  0.21974400  0.70031800  1
  F  F4  1  0.50000000  0.50000000  0.50000000  1
  F  F5  1  0.66745500  0.33254500  0.00000000  1
  F  F6  1  0.33254500  0.66745500  0.00000000  1
  F  F7  1  0.25825500  0.25825500  0.35013300  1
  F  F8  1  0.74174500  0.74174500  0.64986700  1
  F  F9  1  0.26615300  0.26615300  0.88963800  1
  F  F10  1  0.73384700  0.73384700  0.11036200  1
loop_
_geom_bond_atom_site_label_1
_geom_bond_atom_site_label_2
_geom_bond_distance
_geom_bond_site_symmetry_2
F0 Zr0 2.085388 1_555
F0 Pd0 2.197458 1_565
F0 Na0 2.768533 1_566
F1 Zr1 2.085388 1_555
F1 Pd0 2.197458 1_565
F1 Na0 2.768533 1_565
F2 Zr1 2.085388 1_555
F2 Pd0 2.197458 1_655
F2 Na0 2.768533 1_655
F3 Zr0 2.085388 1_555
F3 Pd0 2.197458 1_655
F3 Na0 2.768533 1_656
F4 Zr1 2.136791 1_555
F4 Zr0 2.136791 1_555
F5 Zr0 2.184652 1_554
F5 Zr1 2.184652 1_555
F5 Na0 2.319904 1_655
F6 Zr0 2.184652 1_554
F6 Zr1 2.184652 1_555
F6 Na0 2.319904 1_565
F7 Zr1 2.047136 1_555
F7 Pd0 2.193460 1_555
F8 Zr0 2.047136 1_555
F8 Pd0 2.193460 1_665
F9 Zr0 1.985318 1_555
F9 Na0 2.266370 1_556
F10 Zr1 1.985318 1_555
F10 Na0 2.266370 1_665
