# generated using pymatgen
data_Rb(IO3)3
_symmetry_space_group_name_H-M   'P 1'
_cell_length_a   8.24706200
_cell_length_b   8.32834484
_cell_length_c   8.38405874
_cell_angle_alpha   71.49757390
_cell_angle_beta   66.91570845
_cell_angle_gamma   61.22171058
_symmetry_Int_Tables_number   1
_chemical_formula_structural   Rb(IO3)3
_chemical_formula_sum   'Rb2 I6 O18'
_cell_volume   458.37306876
_cell_formula_units_Z   2
loop_
 _symmetry_equiv_pos_site_id
 _symmetry_equiv_pos_as_xyz
  1  'x, y, z'
loop_
 _atom_site_type_symbol
 _atom_site_label
 _atom_site_symmetry_multiplicity
 _atom_site_fract_x
 _atom_site_fract_y
 _atom_site_fract_z
 _atom_site_occupancy
  Rb  Rb0  1  0.75340800  0.72586900  0.21884100  1
  Rb  Rb1  1  0.24659200  0.27413100  0.78115900  1
  I  I0  1  0.21530300  0.70701700  0.29554400  1
  I  I1  1  0.78469700  0.29298300  0.70445600  1
  I  I2  1  0.77435600  0.23345800  0.23331000  1
  I  I3  1  0.22564400  0.76654200  0.76669000  1
  I  I4  1  0.74608000  0.80872500  0.69407700  1
  I  I5  1  0.25392000  0.19127500  0.30592300  1
  O  O0  1  0.25190400  0.61441300  0.51329200  1
  O  O1  1  0.74809600  0.38558700  0.48670800  1
  O  O2  1  0.84350700  0.47191100  0.72467800  1
  O  O3  1  0.15649300  0.52808900  0.27532200  1
  O  O4  1  0.04154700  0.12294100  0.63371500  1
  O  O5  1  0.95845300  0.87705900  0.36628500  1
  O  O6  1  0.00862600  0.25267400  0.15346800  1
  O  O7  1  0.99137400  0.74732600  0.84653200  1
  O  O8  1  0.18815000  0.86685400  0.95323400  1
  O  O9  1  0.81185000  0.13314600  0.04676600  1
  O  O10  1  0.61586100  0.47538100  0.16988500  1
  O  O11  1  0.38413900  0.52461900  0.83011500  1
  O  O12  1  0.67348000  0.06059600  0.67604100  1
  O  O13  1  0.32652000  0.93940400  0.32395900  1
  O  O14  1  0.59771400  0.78763600  0.92353100  1
  O  O15  1  0.40228600  0.21236400  0.07646900  1
  O  O16  1  0.57449600  0.84029200  0.58194700  1
  O  O17  1  0.42550400  0.15970800  0.41805300  1
loop_
_geom_bond_atom_site_label_1
_geom_bond_atom_site_label_2
_geom_bond_distance
_geom_bond_site_symmetry_2
I0 O0 1.825686 1_555
I0 O3 1.845353 1_555
I0 O5 1.871866 1_455
I0 O13 2.610940 1_555
I1 O1 1.825686 1_555
I1 O2 1.845353 1_555
I1 O4 1.871866 1_655
I1 O12 2.610940 1_555
I2 O10 1.838510 1_555
I2 O6 1.849872 1_655
I2 O9 1.854987 1_555
I3 O11 1.838510 1_555
I3 O7 1.849872 1_455
I3 O8 1.854987 1_555
I4 O14 1.837246 1_555
I4 O12 1.855251 1_565
I4 O16 1.866398 1_555
I4 O2 2.472808 1_555
I4 O7 2.569904 1_555
I4 O5 2.671472 1_555
I5 O15 1.837246 1_555
I5 O13 1.855251 1_545
I5 O17 1.866398 1_555
I5 O3 2.472808 1_555
I5 O6 2.569904 1_555
I5 O4 2.671472 1_555
O0 Rb1 3.013289 1_555
O1 Rb0 3.013289 1_555
O2 Rb1 3.074954 1_655
O3 Rb0 3.074954 1_455
O4 Rb1 3.263507 1_555
O5 Rb0 3.263507 1_555
O6 Rb1 2.967626 1_554
O7 Rb0 2.967626 1_556
O8 Rb1 3.426643 1_565
O9 Rb0 3.426643 1_545
O10 Rb0 2.999057 1_555
O11 Rb1 2.999057 1_555
O12 Rb1 2.977784 1_555
O13 Rb0 2.977784 1_555
O14 Rb0 3.015294 1_556
O15 Rb1 3.015294 1_554
O16 Rb0 3.052549 1_555
O17 Rb1 3.052549 1_555
