# generated using pymatgen
data_Ba2Na(NiO2)3
_symmetry_space_group_name_H-M   'P 1'
_cell_length_a   9.32411661
_cell_length_b   8.44780248
_cell_length_c   7.03395371
_cell_angle_alpha   73.42480729
_cell_angle_beta   60.26953490
_cell_angle_gamma   46.30565781
_symmetry_Int_Tables_number   1
_chemical_formula_structural   Ba2Na(NiO2)3
_chemical_formula_sum   'Ba4 Na2 Ni6 O12'
_cell_volume   346.41544218
_cell_formula_units_Z   2
loop_
 _symmetry_equiv_pos_site_id
 _symmetry_equiv_pos_as_xyz
  1  'x, y, z'
loop_
 _atom_site_type_symbol
 _atom_site_label
 _atom_site_symmetry_multiplicity
 _atom_site_fract_x
 _atom_site_fract_y
 _atom_site_fract_z
 _atom_site_occupancy
  Ba  Ba0  1  0.25000000  0.25000000  0.25000000  1
  Ba  Ba1  1  0.75000000  0.75000000  0.75000000  1
  Ba  Ba2  1  0.76506100  0.23493900  0.76506100  1
  Ba  Ba3  1  0.23493900  0.76506100  0.23493900  1
  Na  Na0  1  0.33595500  0.33595500  0.66404500  1
  Na  Na1  1  0.66404500  0.66404500  0.33595500  1
  Ni  Ni0  1  0.28781000  0.00221700  0.71219000  1
  Ni  Ni1  1  0.99778300  0.71219000  0.00221700  1
  Ni  Ni2  1  0.00221700  0.28781000  0.99778300  1
  Ni  Ni3  1  0.71219000  0.99778300  0.28781000  1
  Ni  Ni4  1  0.70058200  0.29941800  0.29941800  1
  Ni  Ni5  1  0.29941800  0.70058200  0.70058200  1
  O  O0  1  0.70130800  0.48747100  0.07798600  1
  O  O1  1  0.73323500  0.07798600  0.48747100  1
  O  O2  1  0.07798600  0.73323500  0.70130800  1
  O  O3  1  0.48747100  0.70130800  0.73323500  1
  O  O4  1  0.29869200  0.51252900  0.92201400  1
  O  O5  1  0.26676500  0.92201400  0.51252900  1
  O  O6  1  0.30488700  0.08150700  0.91849300  1
  O  O7  1  0.51252900  0.29869200  0.26676500  1
  O  O8  1  0.08150700  0.30488700  0.69511300  1
  O  O9  1  0.91849300  0.69511300  0.30488700  1
  O  O10  1  0.69511300  0.91849300  0.08150700  1
  O  O11  1  0.92201400  0.26676500  0.29869200  1
loop_
_geom_bond_atom_site_label_1
_geom_bond_atom_site_label_2
_geom_bond_distance
_geom_bond_site_symmetry_2
Ba0 O10 2.725602 1_545
Ba0 O8 2.725602 1_555
Ba0 O9 2.725602 1_455
Ba0 O6 2.725602 1_554
Ba0 O5 2.807173 1_545
Ba0 O4 2.807173 1_554
Ba0 O7 2.807173 1_555
Ba0 O11 2.807173 1_455
Ba1 O6 2.725602 1_565
Ba1 O8 2.725602 1_655
Ba1 O9 2.725602 1_555
Ba1 O10 2.725602 1_556
Ba1 O3 2.807173 1_555
Ba1 O0 2.807173 1_556
Ba1 O1 2.807173 1_565
Ba1 O2 2.807173 1_655
Ba2 O11 2.872972 1_555
Ba2 O4 2.872972 1_555
Ba2 O3 2.872972 1_555
Ba2 O1 2.872972 1_555
Ba2 O5 3.062452 1_645
Ba2 O7 3.062452 1_556
Ba2 O2 3.062452 1_645
Ba2 O0 3.062452 1_556
Ba2 O8 3.178097 1_655
Ba2 O10 3.178097 1_546
Ba3 O5 2.872972 1_555
Ba3 O2 2.872972 1_555
Ba3 O0 2.872972 1_555
Ba3 O7 2.872972 1_555
Ba3 O11 3.062452 1_465
Ba3 O4 3.062452 1_554
Ba3 O3 3.062452 1_554
Ba3 O1 3.062452 1_465
Ba3 O9 3.178097 1_455
Ba3 O6 3.178097 1_564
Na0 O2 2.416871 1_555
Na0 O4 2.416871 1_555
Na0 O7 2.416871 1_555
Na0 O1 2.416871 1_555
Na0 O6 2.461454 1_555
Na0 O8 2.461454 1_555
Na1 O3 2.416871 1_555
Na1 O0 2.416871 1_555
Na1 O11 2.416871 1_555
Na1 O5 2.416871 1_555
Na1 O9 2.461454 1_555
Na1 O10 2.461454 1_555
Ni0 O3 1.862750 1_545
Ni0 O5 1.862750 1_545
Ni0 O6 1.873737 1_555
Ni0 O8 1.873737 1_555
Ni1 O2 1.862750 1_654
Ni1 O4 1.862750 1_654
Ni1 O10 1.873737 1_555
Ni1 O9 1.873737 1_555
Ni2 O0 1.862750 1_456
Ni2 O11 1.862750 1_456
Ni2 O8 1.873737 1_555
Ni2 O6 1.873737 1_555
Ni3 O7 1.862750 1_565
Ni3 O1 1.862750 1_565
Ni3 O9 1.873737 1_555
Ni3 O10 1.873737 1_555
Ni4 O11 1.882127 1_555
Ni4 O1 1.882127 1_555
Ni4 O0 1.882127 1_555
Ni4 O7 1.882127 1_555
Ni5 O3 1.882127 1_555
Ni5 O4 1.882127 1_555
Ni5 O5 1.882127 1_555
Ni5 O2 1.882127 1_555
