# generated using pymatgen
data_Y(CrGe)6
_symmetry_space_group_name_H-M   'P 1'
_cell_length_a   5.11400317
_cell_length_b   5.11422179
_cell_length_c   8.32366900
_cell_angle_alpha   90.00000000
_cell_angle_beta   90.00000000
_cell_angle_gamma   119.99859616
_symmetry_Int_Tables_number   1
_chemical_formula_structural   Y(CrGe)6
_chemical_formula_sum   'Y1 Cr6 Ge6'
_cell_volume   188.53506207
_cell_formula_units_Z   1
loop_
 _symmetry_equiv_pos_site_id
 _symmetry_equiv_pos_as_xyz
  1  'x, y, z'
loop_
 _atom_site_type_symbol
 _atom_site_label
 _atom_site_symmetry_multiplicity
 _atom_site_fract_x
 _atom_site_fract_y
 _atom_site_fract_z
 _atom_site_occupancy
  Y  Y0  1  0.99997800  0.00000000  0.00000000  1
  Cr  Cr0  1  0.49998600  0.00000000  0.25098100  1
  Cr  Cr1  1  0.49998700  0.49999900  0.25102800  1
  Cr  Cr2  1  0.99998800  0.50000100  0.25102800  1
  Cr  Cr3  1  0.49998600  0.00000000  0.74901900  1
  Cr  Cr4  1  0.49998700  0.49999900  0.74897200  1
  Cr  Cr5  1  0.99998800  0.50000100  0.74897200  1
  Ge  Ge0  1  0.33332400  0.66669300  0.00000000  1
  Ge  Ge1  1  0.66663100  0.33330700  0.00000000  1
  Ge  Ge2  1  0.33333900  0.66671700  0.50000000  1
  Ge  Ge3  1  0.66662300  0.33328300  0.50000000  1
  Ge  Ge4  1  0.99999000  0.00000000  0.34623700  1
  Ge  Ge5  1  0.99999000  0.00000000  0.65376300  1
loop_
_geom_bond_atom_site_label_1
_geom_bond_atom_site_label_2
_geom_bond_distance
_geom_bond_site_symmetry_2
Cr0 Ge3 2.544663 1_555
Cr0 Ge2 2.544663 1_545
Cr0 Ge0 2.558044 1_545
Cr0 Ge1 2.558044 1_555
Cr0 Ge4 2.677090 1_455
Cr0 Ge4 2.677129 1_555
Cr1 Ge3 2.544485 1_555
Cr1 Ge2 2.544521 1_555
Cr1 Ge1 2.558401 1_555
Cr1 Ge0 2.558455 1_555
Cr1 Ge4 2.677088 1_455
Cr1 Ge4 2.677107 1_565
Cr2 Ge2 2.544482 1_655
Cr2 Ge3 2.544518 1_555
Cr2 Ge0 2.558401 1_655
Cr2 Ge1 2.558455 1_555
Cr2 Ge4 2.677088 1_565
Cr2 Ge4 2.677108 1_555
Cr3 Ge3 2.544663 1_555
Cr3 Ge2 2.544663 1_545
Cr3 Ge0 2.558044 1_546
Cr3 Ge1 2.558044 1_556
Cr3 Ge5 2.677090 1_455
Cr3 Ge5 2.677129 1_555
Cr4 Ge3 2.544485 1_555
Cr4 Ge2 2.544521 1_555
Cr4 Ge1 2.558401 1_556
Cr4 Ge0 2.558455 1_556
Cr4 Ge5 2.677088 1_455
Cr4 Ge5 2.677107 1_565
Cr5 Ge2 2.544482 1_655
Cr5 Ge3 2.544518 1_555
Cr5 Ge0 2.558401 1_656
Cr5 Ge1 2.558455 1_556
Cr5 Ge5 2.677088 1_565
Cr5 Ge5 2.677108 1_555
Ge0 Y0 2.952553 1_465
Ge0 Y0 2.952557 1_565
Ge0 Y0 2.952856 1_455
Ge1 Y0 2.952552 1_455
Ge1 Y0 2.952557 1_555
Ge1 Y0 2.952856 1_565
Ge4 Ge5 2.559745 1_555
Ge4 Y0 2.881962 1_555
Ge5 Y0 2.881962 1_556
