# generated using pymatgen
data_Mg(CoO2)2
_symmetry_space_group_name_H-M   'P 1'
_cell_length_a   6.08646447
_cell_length_b   6.08646447
_cell_length_c   6.08646447
_cell_angle_alpha   123.97613768
_cell_angle_beta   123.97613768
_cell_angle_gamma   83.24089761
_symmetry_Int_Tables_number   1
_chemical_formula_structural   Mg(CoO2)2
_chemical_formula_sum   'Mg2 Co4 O8'
_cell_volume   148.71700175
_cell_formula_units_Z   2
loop_
 _symmetry_equiv_pos_site_id
 _symmetry_equiv_pos_as_xyz
  1  'x, y, z'
loop_
 _atom_site_type_symbol
 _atom_site_label
 _atom_site_symmetry_multiplicity
 _atom_site_fract_x
 _atom_site_fract_y
 _atom_site_fract_z
 _atom_site_occupancy
  Mg  Mg0  1  0.50000000  0.50000000  0.00000000  1
  Mg  Mg1  1  0.25000000  0.75000000  0.50000000  1
  Co  Co0  1  0.87500000  0.12500000  0.25000000  1
  Co  Co1  1  0.37500000  0.12500000  0.25000000  1
  Co  Co2  1  0.87500000  0.62500000  0.75000000  1
  Co  Co3  1  0.87500000  0.12500000  0.75000000  1
  O  O0  1  0.65993200  0.88312100  0.77681100  1
  O  O1  1  0.11687900  0.89369000  0.77681100  1
  O  O2  1  0.11687900  0.34006800  0.22318900  1
  O  O3  1  0.09006800  0.36687900  0.72318900  1
  O  O4  1  0.64369000  0.36687900  0.27681100  1
  O  O5  1  0.63312100  0.35631000  0.72318900  1
  O  O6  1  0.10631000  0.88312100  0.22318900  1
  O  O7  1  0.63312100  0.90993200  0.27681100  1
loop_
_geom_bond_atom_site_label_1
_geom_bond_atom_site_label_2
_geom_bond_distance
_geom_bond_site_symmetry_2
Mg0 O5 1.992979 1_554
Mg0 O7 1.992979 1_555
Mg0 O3 1.992979 1_554
Mg0 O4 1.992979 1_555
Mg1 O1 1.992979 1_555
Mg1 O6 1.992979 1_555
Mg1 O0 1.992979 1_555
Mg1 O2 1.992979 1_555
Co0 O4 1.917401 1_555
Co0 O3 1.917401 1_655
Co0 O6 1.917401 1_645
Co0 O0 1.917401 1_544
Co0 O2 2.206431 1_655
Co0 O7 2.206431 1_545
Co1 O7 1.917401 1_545
Co1 O5 1.917401 1_555
Co1 O2 1.917401 1_555
Co1 O1 1.917401 1_544
Co1 O4 2.206431 1_555
Co1 O6 2.206431 1_545
Co2 O0 1.917401 1_555
Co2 O6 1.917401 1_656
Co2 O3 1.917401 1_655
Co2 O4 1.917401 1_555
Co2 O5 2.206431 1_555
Co2 O1 2.206431 1_655
Co3 O1 1.917401 1_645
Co3 O7 1.917401 1_545
Co3 O2 1.917401 1_656
Co3 O5 1.917401 1_555
Co3 O0 2.206431 1_545
Co3 O3 2.206431 1_655
