# generated using pymatgen
data_Ba5Cr3ClO12
_symmetry_space_group_name_H-M   'P 1'
_cell_length_a   7.93127000
_cell_length_b   10.87405176
_cell_length_c   10.87405176
_cell_angle_alpha   119.99999856
_cell_angle_beta   90.00000000
_cell_angle_gamma   90.00000000
_symmetry_Int_Tables_number   1
_chemical_formula_structural   Ba5Cr3ClO12
_chemical_formula_sum   'Ba10 Cr6 Cl2 O24'
_cell_volume   812.18724457
_cell_formula_units_Z   2
loop_
 _symmetry_equiv_pos_site_id
 _symmetry_equiv_pos_as_xyz
  1  'x, y, z'
loop_
 _atom_site_type_symbol
 _atom_site_label
 _atom_site_symmetry_multiplicity
 _atom_site_fract_x
 _atom_site_fract_y
 _atom_site_fract_z
 _atom_site_occupancy
  Ba  Ba0  1  0.99921000  0.66666700  0.33333300  1
  Ba  Ba1  1  0.00079000  0.33333300  0.66666700  1
  Ba  Ba2  1  0.49921000  0.33333300  0.66666700  1
  Ba  Ba3  1  0.50079000  0.66666700  0.33333300  1
  Ba  Ba4  1  0.75000000  0.73291600  0.00710200  1
  Ba  Ba5  1  0.25000000  0.26708400  0.99289800  1
  Ba  Ba6  1  0.75000000  0.27418600  0.26708400  1
  Ba  Ba7  1  0.25000000  0.72581400  0.73291600  1
  Ba  Ba8  1  0.75000000  0.99289800  0.72581400  1
  Ba  Ba9  1  0.25000000  0.00710200  0.27418600  1
  Cr  Cr0  1  0.75000000  0.59996800  0.63455800  1
  Cr  Cr1  1  0.25000000  0.40003200  0.36544200  1
  Cr  Cr2  1  0.75000000  0.03459000  0.40003200  1
  Cr  Cr3  1  0.25000000  0.96541000  0.59996800  1
  Cr  Cr4  1  0.75000000  0.36544200  0.96541000  1
  Cr  Cr5  1  0.25000000  0.63455800  0.03459000  1
  Cl  Cl0  1  0.75000000  0.00000000  0.00000000  1
  Cl  Cl1  1  0.25000000  0.00000000  0.00000000  1
  O  O0  1  0.75000000  0.85088000  0.33160100  1
  O  O1  1  0.25000000  0.14912000  0.66839900  1
  O  O2  1  0.75000000  0.48072100  0.14912000  1
  O  O3  1  0.25000000  0.51927900  0.85088000  1
  O  O4  1  0.75000000  0.66839900  0.51927900  1
  O  O5  1  0.25000000  0.33160100  0.48072100  1
  O  O6  1  0.75000000  0.41474500  0.54710400  1
  O  O7  1  0.25000000  0.58525500  0.45289600  1
  O  O8  1  0.75000000  0.13236000  0.58525500  1
  O  O9  1  0.25000000  0.86764000  0.41474500  1
  O  O10  1  0.75000000  0.45289600  0.86764000  1
  O  O11  1  0.25000000  0.54710400  0.13236000  1
  O  O12  1  0.92761400  0.64876100  0.73856000  1
  O  O13  1  0.07238600  0.35123900  0.26144000  1
  O  O14  1  0.92761400  0.08979900  0.35123900  1
  O  O15  1  0.42761400  0.35123900  0.26144000  1
  O  O16  1  0.07238600  0.91020100  0.64876100  1
  O  O17  1  0.57238600  0.64876100  0.73856000  1
  O  O18  1  0.92761400  0.26144000  0.91020100  1
  O  O19  1  0.42761400  0.91020100  0.64876100  1
  O  O20  1  0.07238600  0.73856000  0.08979900  1
  O  O21  1  0.57238600  0.08979900  0.35123900  1
  O  O22  1  0.42761400  0.73856000  0.08979900  1
  O  O23  1  0.57238600  0.26144000  0.91020100  1
loop_
_geom_bond_atom_site_label_1
_geom_bond_atom_site_label_2
_geom_bond_distance
_geom_bond_site_symmetry_2
Ba0 O9 2.753439 1_655
Ba0 O11 2.753440 1_655
Ba0 O7 2.753452 1_655
Ba0 O0 2.820889 1_555
Ba0 O2 2.820893 1_555
Ba0 O4 2.820897 1_555
Ba0 O20 3.167215 1_655
Ba0 O16 3.167222 1_655
Ba0 O13 3.167225 1_655
Ba1 O8 2.753439 1_455
Ba1 O10 2.753440 1_455
Ba1 O6 2.753452 1_455
Ba1 O1 2.820889 1_555
Ba1 O3 2.820893 1_555
Ba1 O5 2.820897 1_555
Ba1 O18 3.167215 1_455
Ba1 O14 3.167222 1_455
Ba1 O12 3.167225 1_455
Ba2 O8 2.753439 1_555
Ba2 O10 2.753440 1_555
Ba2 O6 2.753452 1_555
Ba2 O1 2.820889 1_555
Ba2 O3 2.820893 1_555
Ba2 O5 2.820897 1_555
Ba2 O23 3.167215 1_555
Ba2 O21 3.167222 1_555
Ba2 O17 3.167225 1_555
Ba3 O9 2.753439 1_555
Ba3 O11 2.753440 1_555
Ba3 O7 2.753452 1_555
Ba3 O0 2.820889 1_555
Ba3 O2 2.820893 1_555
Ba3 O4 2.820897 1_555
Ba3 O22 3.167215 1_555
Ba3 O19 3.167222 1_555
Ba3 O15 3.167225 1_555
Ba4 O10 2.637013 1_554
Ba4 O22 2.700949 1_555
Ba4 O20 2.700949 1_655
Ba4 Cl0 2.943659 1_565
Ba4 O12 2.945649 1_554
Ba4 O17 2.945649 1_554
Ba4 O0 3.093585 1_555
Ba5 O11 2.637013 1_556
Ba5 O18 2.700949 1_455
Ba5 O23 2.700949 1_555
Ba5 Cl1 2.943659 1_556
Ba5 O15 2.945649 1_556
Ba5 O13 2.945649 1_556
Ba5 O1 3.093585 1_555
Ba6 O6 2.637013 1_555
Ba6 O13 2.700949 1_655
Ba6 O15 2.700949 1_555
Ba6 Cl0 2.943659 1_555
Ba6 O14 2.945649 1_555
Ba6 O21 2.945649 1_555
Ba6 O2 3.093585 1_555
Ba7 O7 2.637013 1_555
Ba7 O17 2.700949 1_555
Ba7 O12 2.700949 1_455
Ba7 Cl1 2.943659 1_566
Ba7 O19 2.945649 1_555
Ba7 O16 2.945649 1_555
Ba7 O3 3.093585 1_555
Ba8 O8 2.637022 1_565
Ba8 O19 2.700949 1_555
Ba8 O16 2.700949 1_655
Ba8 Cl0 2.943659 1_566
Ba8 O23 2.945649 1_565
Ba8 O18 2.945649 1_565
Ba8 O4 3.093585 1_555
Ba9 O9 2.637022 1_545
Ba9 O21 2.700949 1_555
Ba9 O14 2.700949 1_455
Ba9 Cl1 2.943659 1_555
Ba9 O20 2.945649 1_545
Ba9 O22 2.945649 1_545
Ba9 O5 3.093585 1_555
Cr0 O17 1.716073 1_555
Cr0 O12 1.716073 1_555
Cr0 O6 1.745184 1_555
Cr0 O4 1.748685 1_555
Cr1 O15 1.716073 1_555
Cr1 O13 1.716073 1_555
Cr1 O7 1.745184 1_555
Cr1 O5 1.748685 1_555
Cr2 O21 1.716073 1_555
Cr2 O14 1.716073 1_555
Cr2 O8 1.745185 1_555
Cr2 O0 1.748685 1_545
Cr3 O16 1.716073 1_555
Cr3 O19 1.716073 1_555
Cr3 O9 1.745185 1_555
Cr3 O1 1.748685 1_565
Cr4 O23 1.716073 1_555
Cr4 O18 1.716073 1_555
Cr4 O10 1.745194 1_555
Cr4 O2 1.748685 1_556
Cr5 O20 1.716073 1_555
Cr5 O22 1.716073 1_555
Cr5 O11 1.745194 1_555
Cr5 O3 1.748685 1_554
