# generated using pymatgen
data_GaCu2
_symmetry_space_group_name_H-M   'P 1'
_cell_length_a   4.94036863
_cell_length_b   4.94036863
_cell_length_c   4.94036863
_cell_angle_alpha   130.01709546
_cell_angle_beta   116.80573331
_cell_angle_gamma   84.60721175
_symmetry_Int_Tables_number   1
_chemical_formula_structural   GaCu2
_chemical_formula_sum   'Ga2 Cu4'
_cell_volume   78.96268712
_cell_formula_units_Z   2
loop_
 _symmetry_equiv_pos_site_id
 _symmetry_equiv_pos_as_xyz
  1  'x, y, z'
loop_
 _atom_site_type_symbol
 _atom_site_label
 _atom_site_symmetry_multiplicity
 _atom_site_fract_x
 _atom_site_fract_y
 _atom_site_fract_z
 _atom_site_occupancy
  Ga  Ga0  1  0.24404400  0.49404400  0.75000000  1
  Ga  Ga1  1  0.75595600  0.50595600  0.25000000  1
  Cu  Cu0  1  0.33740600  0.83420600  0.50320000  1
  Cu  Cu1  1  0.66259400  0.16579400  0.49680000  1
  Cu  Cu2  1  0.16899500  0.16579400  0.00320000  1
  Cu  Cu3  1  0.83100500  0.83420600  0.99680000  1
loop_
_geom_bond_atom_site_label_1
_geom_bond_atom_site_label_2
_geom_bond_distance
_geom_bond_site_symmetry_2
Ga0 Ga1 2.589936 1_556
Ga0 Ga1 2.589936 1_455
Cu0 Cu2 2.423036 1_566
Cu0 Cu2 2.423040 1_555
Cu0 Cu1 2.423366 1_565
Cu0 Cu3 2.555338 1_555
Cu0 Cu3 2.621608 1_454
Cu0 Ga0 2.727458 1_554
Cu0 Ga0 2.727458 1_565
Cu0 Ga1 2.733531 1_455
Cu0 Ga1 2.750309 1_566
Cu0 Ga1 2.750309 1_555
Cu0 Ga0 2.794928 1_555
Cu1 Cu3 2.423036 1_544
Cu1 Cu3 2.423040 1_555
Cu1 Cu2 2.555338 1_555
Cu1 Cu2 2.621608 1_656
Cu1 Ga1 2.727458 1_545
Cu1 Ga1 2.727458 1_556
Cu1 Ga0 2.733531 1_655
Cu1 Ga0 2.750309 1_544
Cu1 Ga0 2.750309 1_555
Cu1 Ga1 2.794928 1_555
Cu2 Cu3 2.423374 1_444
Cu2 Ga1 2.727460 1_444
Cu2 Ga1 2.727463 1_455
Cu2 Ga0 2.733529 1_554
Cu2 Ga0 2.750308 1_544
Cu2 Ga0 2.750311 1_555
Cu2 Ga1 2.794923 1_555
Cu3 Ga0 2.727460 1_666
Cu3 Ga0 2.727463 1_655
Cu3 Ga1 2.733529 1_556
Cu3 Ga1 2.750308 1_566
Cu3 Ga1 2.750311 1_555
Cu3 Ga0 2.794923 1_555
