# generated using pymatgen
data_GePd5
_symmetry_space_group_name_H-M   'P 1'
_cell_length_a   4.75194988
_cell_length_b   4.75194988
_cell_length_c   8.49334031
_cell_angle_alpha   94.64713740
_cell_angle_beta   94.64713740
_cell_angle_gamma   108.66721780
_symmetry_Int_Tables_number   1
_chemical_formula_structural   GePd5
_chemical_formula_sum   'Ge2 Pd10'
_cell_volume   179.93636847
_cell_formula_units_Z   2
loop_
 _symmetry_equiv_pos_site_id
 _symmetry_equiv_pos_as_xyz
  1  'x, y, z'
loop_
 _atom_site_type_symbol
 _atom_site_label
 _atom_site_symmetry_multiplicity
 _atom_site_fract_x
 _atom_site_fract_y
 _atom_site_fract_z
 _atom_site_occupancy
  Ge  Ge0  1  0.79568161  0.75010285  0.29275253  1
  Ge  Ge1  1  0.24989715  0.20431839  0.70724747  1
  Pd  Pd0  1  0.83544331  0.16455669  0.50000000  1
  Pd  Pd1  1  0.20999305  0.79000695  0.50000000  1
  Pd  Pd2  1  0.29780876  0.76954607  0.17346478  1
  Pd  Pd3  1  0.23045393  0.70219124  0.82653522  1
  Pd  Pd4  1  0.81549560  0.25226374  0.17349519  1
  Pd  Pd5  1  0.74773626  0.18450440  0.82650481  1
  Pd  Pd6  1  0.36739873  0.32154251  0.35294712  1
  Pd  Pd7  1  0.67845749  0.63260127  0.64705288  1
  Pd  Pd8  1  0.27809236  0.23245827  0.00600061  1
  Pd  Pd9  1  0.76754173  0.72190764  0.99399939  1
loop_
_geom_bond_atom_site_label_1
_geom_bond_atom_site_label_2
_geom_bond_distance
_geom_bond_site_symmetry_2
Ge0 Pd1 2.481100 1_655
Ge0 Pd0 2.481741 1_565
Ge0 Pd6 2.496959 1_555
Ge0 Pd9 2.520467 1_554
Ge0 Pd2 2.529631 1_555
Ge0 Pd4 2.530049 1_555
Ge0 Pd4 2.644286 1_565
Ge0 Pd2 2.644649 1_655
Ge1 Pd1 2.481100 1_545
Ge1 Pd0 2.481741 1_455
Ge1 Pd7 2.496959 1_555
Ge1 Pd8 2.520467 1_556
Ge1 Pd3 2.529631 1_555
Ge1 Pd5 2.530049 1_555
Ge1 Pd5 2.644286 1_455
Ge1 Pd3 2.644649 1_545
Pd0 Pd5 2.835990 1_555
Pd0 Pd4 2.835990 1_555
Pd1 Pd3 2.836372 1_555
Pd1 Pd2 2.836372 1_555
Pd2 Pd8 2.736412 1_565
Pd2 Pd9 2.771389 1_454
Pd2 Pd4 2.772898 1_455
Pd2 Pd4 2.775065 1_565
Pd2 Pd8 2.789753 1_555
Pd2 Pd6 2.803600 1_555
Pd2 Pd6 2.833501 1_565
Pd2 Pd9 2.859365 1_554
Pd2 Pd3 2.918230 1_554
Pd3 Pd9 2.736412 1_455
Pd3 Pd8 2.771389 1_566
Pd3 Pd5 2.772898 1_565
Pd3 Pd5 2.775065 1_455
Pd3 Pd9 2.789753 1_555
Pd3 Pd7 2.803600 1_555
Pd3 Pd7 2.833501 1_455
Pd3 Pd8 2.859365 1_556
Pd4 Pd8 2.735384 1_655
Pd4 Pd9 2.771485 1_544
Pd4 Pd8 2.791031 1_555
Pd4 Pd6 2.803351 1_555
Pd4 Pd6 2.833340 1_655
Pd4 Pd9 2.859586 1_554
Pd4 Pd5 2.918716 1_554
Pd5 Pd9 2.735384 1_545
Pd5 Pd8 2.771485 1_656
Pd5 Pd9 2.791031 1_555
Pd5 Pd7 2.803351 1_555
Pd5 Pd7 2.833340 1_545
Pd5 Pd8 2.859586 1_556
