# generated using pymatgen
data_SmPtF7
_symmetry_space_group_name_H-M   'P 1'
_cell_length_a   5.50685401
_cell_length_b   8.97506548
_cell_length_c   12.06329613
_cell_angle_alpha   61.88702155
_cell_angle_beta   90.00000000
_cell_angle_gamma   90.00000000
_symmetry_Int_Tables_number   1
_chemical_formula_structural   SmPtF7
_chemical_formula_sum   'Sm4 Pt4 F28'
_cell_volume   525.87882712
_cell_formula_units_Z   4
loop_
 _symmetry_equiv_pos_site_id
 _symmetry_equiv_pos_as_xyz
  1  'x, y, z'
loop_
 _atom_site_type_symbol
 _atom_site_label
 _atom_site_symmetry_multiplicity
 _atom_site_fract_x
 _atom_site_fract_y
 _atom_site_fract_z
 _atom_site_occupancy
  Sm  Sm0  1  0.76107573  0.81226967  0.76432344  1
  Sm  Sm1  1  0.26107573  0.18773033  0.73567656  1
  Sm  Sm2  1  0.23892427  0.18773033  0.23567656  1
  Sm  Sm3  1  0.73892427  0.81226967  0.26432344  1
  Pt  Pt0  1  0.75581452  0.27240606  0.95754016  1
  Pt  Pt1  1  0.25581452  0.72759394  0.54245984  1
  Pt  Pt2  1  0.24418548  0.72759394  0.04245984  1
  Pt  Pt3  1  0.74418548  0.27240606  0.45754016  1
  F  F0  1  0.43321231  0.70796324  0.91360569  1
  F  F1  1  0.93321231  0.29203676  0.58639431  1
  F  F2  1  0.56678769  0.29203676  0.08639431  1
  F  F3  1  0.06678769  0.70796324  0.41360569  1
  F  F4  1  0.44225853  0.27950868  0.53926014  1
  F  F5  1  0.94225853  0.72049132  0.96073986  1
  F  F6  1  0.55774147  0.72049132  0.46073986  1
  F  F7  1  0.05774147  0.27950868  0.03926014  1
  F  F8  1  0.76666005  0.51732887  0.86077496  1
  F  F9  1  0.26666005  0.48267113  0.63922504  1
  F  F10  1  0.23333995  0.48267113  0.13922504  1
  F  F11  1  0.73333995  0.51732887  0.36077496  1
  F  F12  1  0.75710234  0.02695769  0.05006307  1
  F  F13  1  0.25710234  0.97304231  0.44993693  1
  F  F14  1  0.24289766  0.97304231  0.94993693  1
  F  F15  1  0.74289766  0.02695769  0.55006307  1
  F  F16  1  0.95961700  0.72684021  0.63035528  1
  F  F17  1  0.45961700  0.27315979  0.86964472  1
  F  F18  1  0.04038300  0.27315979  0.36964472  1
  F  F19  1  0.54038300  0.72684021  0.13035528  1
  F  F20  1  0.06098222  0.74214355  0.17474847  1
  F  F21  1  0.56098222  0.25785645  0.32525153  1
  F  F22  1  0.93901778  0.25785645  0.82525153  1
  F  F23  1  0.43901778  0.74214355  0.67474847  1
  F  F24  1  0.39638632  0.96251057  0.23060516  1
  F  F25  1  0.89638632  0.03748943  0.26939484  1
  F  F26  1  0.60361368  0.03748943  0.76939484  1
  F  F27  1  0.10361368  0.96251057  0.73060516  1
loop_
_geom_bond_atom_site_label_1
_geom_bond_atom_site_label_2
_geom_bond_distance
_geom_bond_site_symmetry_2
F0 Pt2 1.946504 1_556
F0 Sm0 2.406329 1_555
F1 Pt3 1.946504 1_555
F1 Sm1 2.406329 1_655
F2 Pt0 1.946504 1_554
F2 Sm2 2.406329 1_555
F3 Pt1 1.946504 1_555
F3 Sm3 2.406329 1_455
F4 Pt3 1.949250 1_555
F4 Sm1 2.334275 1_555
F5 Pt2 1.949250 1_656
F5 Sm0 2.334275 1_555
F6 Pt1 1.949250 1_555
F6 Sm3 2.334275 1_555
F7 Pt0 1.949250 1_454
F7 Sm2 2.334275 1_555
F8 Pt0 1.944226 1_555
F8 Sm0 2.336514 1_555
F9 Pt1 1.944226 1_555
F9 Sm1 2.336514 1_555
F10 Pt2 1.944226 1_555
F10 Sm2 2.336514 1_555
F11 Pt3 1.944226 1_555
F11 Sm3 2.336514 1_555
F12 Pt0 1.944597 1_554
F12 Sm3 2.389520 1_545
F13 Pt1 1.944597 1_555
F13 Sm2 2.389520 1_565
F14 Pt2 1.944597 1_556
F14 Sm1 2.389520 1_565
F15 Pt3 1.944597 1_555
F15 Sm0 2.389520 1_545
F16 Pt1 1.943729 1_655
F16 Sm0 2.358562 1_555
F17 Pt0 1.943729 1_555
F17 Sm1 2.358562 1_555
F18 Pt3 1.943729 1_455
F18 Sm2 2.358562 1_555
F19 Pt2 1.943729 1_555
F19 Sm3 2.358562 1_555
F20 Pt2 1.943699 1_555
F20 Sm3 2.313026 1_455
F21 Pt3 1.943699 1_555
F21 Sm2 2.313026 1_555
F22 Pt0 1.943699 1_555
F22 Sm1 2.313026 1_655
F23 Pt1 1.943699 1_555
F23 Sm0 2.313026 1_555
F24 Sm2 2.226676 1_565
F24 Sm3 2.241639 1_555
F25 Sm3 2.226676 1_545
F25 Sm2 2.241639 1_655
F26 Sm0 2.226676 1_545
F26 Sm1 2.241639 1_555
F27 Sm1 2.226676 1_565
F27 Sm0 2.241639 1_455
