# generated using pymatgen
data_Rb4V2S4O19
_symmetry_space_group_name_H-M   'P 1'
_cell_length_a   8.02995400
_cell_length_b   11.05879475
_cell_length_c   12.29071908
_cell_angle_alpha   77.86139780
_cell_angle_beta   76.53285887
_cell_angle_gamma   71.87223102
_symmetry_Int_Tables_number   1
_chemical_formula_structural   Rb4V2S4O19
_chemical_formula_sum   'Rb8 V4 S8 O38'
_cell_volume   997.46348002
_cell_formula_units_Z   2
loop_
 _symmetry_equiv_pos_site_id
 _symmetry_equiv_pos_as_xyz
  1  'x, y, z'
loop_
 _atom_site_type_symbol
 _atom_site_label
 _atom_site_symmetry_multiplicity
 _atom_site_fract_x
 _atom_site_fract_y
 _atom_site_fract_z
 _atom_site_occupancy
  Rb  Rb0  1  0.20805800  0.65870000  0.05531700  1
  Rb  Rb1  1  0.79194200  0.34130000  0.94468300  1
  Rb  Rb2  1  0.59310600  0.96828400  0.16126800  1
  Rb  Rb3  1  0.40689400  0.03171600  0.83873200  1
  Rb  Rb4  1  0.94092600  0.83059800  0.45593300  1
  Rb  Rb5  1  0.05907400  0.16940200  0.54406700  1
  Rb  Rb6  1  0.30639700  0.45459700  0.65215700  1
  Rb  Rb7  1  0.69360300  0.54540300  0.34784300  1
  V  V0  1  0.55711100  0.71279700  0.69628300  1
  V  V1  1  0.44288900  0.28720300  0.30371700  1
  V  V2  1  0.88979200  0.77570500  0.80875500  1
  V  V3  1  0.11020800  0.22429500  0.19124500  1
  S  S0  1  0.91128800  0.00236400  0.84620600  1
  S  S1  1  0.08871200  0.99763600  0.15379400  1
  S  S2  1  0.79826600  0.47773400  0.63722800  1
  S  S3  1  0.20173400  0.52226600  0.36277200  1
  S  S4  1  0.41336900  0.82203400  0.50916400  1
  S  S5  1  0.58663100  0.17796600  0.49083600  1
  S  S6  1  0.27922500  0.31919900  0.97744600  1
  S  S7  1  0.72077500  0.68080100  0.02255400  1
  O  O0  1  0.36234400  0.18846900  0.03490800  1
  O  O1  1  0.63765600  0.81153100  0.96509200  1
  O  O2  1  0.63451400  0.53035300  0.73432800  1
  O  O3  1  0.36548600  0.46964700  0.26567200  1
  O  O4  1  0.52431900  0.86605800  0.57417900  1
  O  O5  1  0.47568100  0.13394200  0.42582100  1
  O  O6  1  0.21959800  0.31462600  0.87513300  1
  O  O7  1  0.78040200  0.68537400  0.12486700  1
  O  O8  1  0.98781200  0.86403900  0.90233700  1
  O  O9  1  0.01218800  0.13596100  0.09766300  1
  O  O10  1  0.82157100  0.59990400  0.56598500  1
  O  O11  1  0.17842900  0.40009600  0.43401500  1
  O  O12  1  0.73864000  0.40013200  0.57967400  1
  O  O13  1  0.26136000  0.59986800  0.42032600  1
  O  O14  1  0.43015300  0.68721500  0.57966200  1
  O  O15  1  0.56984700  0.31278500  0.42033800  1
  O  O16  1  0.10425300  0.36458500  0.06971200  1
  O  O17  1  0.89574700  0.63541500  0.93028800  1
  O  O18  1  0.07265900  0.71203100  0.72790600  1
  O  O19  1  0.92734100  0.28796900  0.27209400  1
  O  O20  1  0.82505600  0.96746100  0.76000900  1
  O  O21  1  0.17494400  0.03253900  0.23999100  1
  O  O22  1  0.77508600  0.07796200  0.92522600  1
  O  O23  1  0.22491400  0.92203800  0.07477400  1
  O  O24  1  0.94680300  0.40401000  0.69476600  1
  O  O25  1  0.05319700  0.59599000  0.30523400  1
  O  O26  1  0.22916700  0.90035600  0.52369600  1
  O  O27  1  0.77083300  0.09964400  0.47630400  1
  O  O28  1  0.38258800  0.41081700  0.96278100  1
  O  O29  1  0.61741200  0.58918300  0.03721900  1
  O  O30  1  0.72334800  0.76618000  0.73569700  1
  O  O31  1  0.27665200  0.23382000  0.26430300  1
  O  O32  1  0.05063600  0.06343600  0.78692700  1
  O  O33  1  0.94936400  0.93656400  0.21307300  1
  O  O34  1  0.50217600  0.81405600  0.39256600  1
  O  O35  1  0.49782400  0.18594400  0.60743400  1
  O  O36  1  0.39096800  0.74428600  0.79926800  1
  O  O37  1  0.60903200  0.25571400  0.20073200  1
loop_
_geom_bond_atom_site_label_1
_geom_bond_atom_site_label_2
_geom_bond_distance
_geom_bond_site_symmetry_2
O0 S6 1.491330 1_554
O0 V3 2.440750 1_555
O0 Rb2 2.952465 1_545
O0 Rb3 3.149089 1_554
O1 S7 1.491330 1_556
O1 V2 2.440750 1_555
O1 Rb3 2.952465 1_565
O1 Rb2 3.149089 1_556
O2 S2 1.605272 1_555
O2 V0 1.906298 1_555
O2 Rb1 3.202792 1_555
O2 Rb6 3.410663 1_555
O3 S3 1.605272 1_555
O3 V1 1.906298 1_555
O3 Rb0 3.202792 1_555
O3 Rb7 3.410663 1_555
O4 S4 1.560261 1_555
O4 V0 2.007692 1_555
O4 Rb4 3.258223 1_555
O5 S5 1.560261 1_555
O5 V1 2.007692 1_555
O5 Rb5 3.258223 1_555
O6 S6 1.461290 1_555
O6 Rb6 2.896548 1_555
O6 Rb3 3.098020 1_555
O6 Rb1 3.273972 1_455
O7 S7 1.461290 1_555
O7 Rb7 2.896548 1_555
O7 Rb2 3.098020 1_555
O7 Rb0 3.273972 1_655
O8 S0 1.536961 1_565
O8 V2 2.066249 1_555
O8 Rb0 3.012273 1_656
O9 S1 1.536961 1_545
O9 V3 2.066249 1_555
O9 Rb1 3.012273 1_454
O10 S2 1.486799 1_555
O10 V0 2.498001 1_555
O10 Rb4 2.953507 1_555
O10 Rb7 3.309959 1_555
O11 S3 1.486799 1_555
O11 V1 2.498001 1_555
O11 Rb5 2.953507 1_555
O11 Rb6 3.309959 1_555
O12 S2 1.461115 1_555
O12 Rb7 3.003983 1_555
O12 Rb5 3.030261 1_655
O12 Rb6 3.269257 1_555
O13 S3 1.461115 1_555
O13 Rb6 3.003983 1_555
O13 Rb4 3.030261 1_455
O13 Rb7 3.269257 1_555
O14 S4 1.542039 1_555
O14 V0 2.050484 1_555
O14 Rb6 2.934875 1_555
O14 Rb7 3.472761 1_555
O15 S5 1.542039 1_555
O15 V1 2.050484 1_555
O15 Rb7 2.934875 1_555
O15 Rb6 3.472761 1_555
O16 S6 1.603247 1_554
O16 V3 1.911275 1_555
O16 Rb1 3.328707 1_454
O17 S7 1.603247 1_556
O17 V2 1.911275 1_555
O17 Rb0 3.328707 1_656
O18 V2 1.615768 1_455
O18 Rb6 3.077365 1_555
O19 V3 1.615768 1_655
O19 Rb7 3.077365 1_555
O20 S0 1.559105 1_565
O20 V2 2.012676 1_555
O20 Rb3 3.163417 1_565
O21 S1 1.559105 1_545
O21 V3 2.012676 1_555
O21 Rb2 3.163417 1_545
O22 S0 1.454682 1_555
O22 Rb1 3.018223 1_555
O22 Rb2 3.109907 1_546
O23 S1 1.454682 1_555
O23 Rb0 3.018223 1_555
O23 Rb3 3.109907 1_564
O24 S2 1.460388 1_555
O24 Rb6 3.017063 1_655
O24 Rb1 3.053531 1_555
O24 Rb5 3.280617 1_655
O25 S3 1.460388 1_555
O25 Rb7 3.017063 1_455
O25 Rb0 3.053531 1_555
O25 Rb4 3.280617 1_455
O26 S4 1.454212 1_555
O26 Rb5 2.899304 1_565
O26 Rb4 2.987498 1_455
O27 S5 1.454212 1_555
O27 Rb4 2.899304 1_545
O27 Rb5 2.987498 1_655
O28 S6 1.457651 1_555
O28 Rb0 2.991722 1_556
O28 Rb1 3.099085 1_555
O29 S7 1.457651 1_555
O29 Rb1 2.991722 1_554
O29 Rb0 3.099085 1_555
O30 V0 1.810227 1_555
O30 V2 1.813860 1_555
O31 V1 1.810227 1_555
O31 V3 1.813860 1_555
O32 S0 1.456929 1_455
O32 Rb5 2.961715 1_555
O32 Rb3 2.973599 1_555
O33 S1 1.456929 1_655
O33 Rb4 2.961715 1_555
O33 Rb2 2.973599 1_555
O34 S4 1.451910 1_555
O34 Rb7 2.990503 1_555
O34 Rb2 3.048402 1_555
O35 S5 1.451910 1_555
O35 Rb6 2.990503 1_555
O35 Rb3 3.048402 1_555
O36 V0 1.616484 1_555
O36 Rb0 3.227433 1_556
O36 Rb3 3.359397 1_565
O37 V1 1.616484 1_555
O37 Rb1 3.227433 1_554
O37 Rb2 3.359397 1_545
