# generated using pymatgen
data_Li4V3Cr3(FeO8)2
_symmetry_space_group_name_H-M   'P 1'
_cell_length_a   5.87859800
_cell_length_b   5.91286538
_cell_length_c   9.59104913
_cell_angle_alpha   90.57032068
_cell_angle_beta   89.80619501
_cell_angle_gamma   119.61809167
_symmetry_Int_Tables_number   1
_chemical_formula_structural   Li4V3Cr3(FeO8)2
_chemical_formula_sum   'Li4 V3 Cr3 Fe2 O16'
_cell_volume   289.80428216
_cell_formula_units_Z   1
loop_
 _symmetry_equiv_pos_site_id
 _symmetry_equiv_pos_as_xyz
  1  'x, y, z'
loop_
 _atom_site_type_symbol
 _atom_site_label
 _atom_site_symmetry_multiplicity
 _atom_site_fract_x
 _atom_site_fract_y
 _atom_site_fract_z
 _atom_site_occupancy
  Li  Li0  1  0.32786400  0.66665200  0.10921600  1
  Li  Li1  1  0.00173500  0.00195800  0.00281700  1
  Li  Li2  1  0.99975400  0.99773500  0.50427700  1
  Li  Li3  1  0.66142900  0.33791200  0.60745300  1
  V  V0  1  0.82275400  0.65839000  0.28442100  1
  V  V1  1  0.17346900  0.82936000  0.78481000  1
  V  V2  1  0.33932200  0.16248100  0.28630300  1
  Cr  Cr0  1  0.66159400  0.83181400  0.78607600  1
  Cr  Cr1  1  0.16870600  0.33875900  0.78617300  1
  Cr  Cr2  1  0.83171800  0.16999200  0.28639400  1
  Fe  Fe0  1  0.33987300  0.66154400  0.50859000  1
  Fe  Fe1  1  0.68001200  0.33452400  0.00786100  1
  O  O0  1  0.67444000  0.83567600  0.40035900  1
  O  O1  1  0.47724000  0.52186900  0.65986300  1
  O  O2  1  0.32352200  0.67815900  0.89616000  1
  O  O3  1  0.00580000  0.99356200  0.69126700  1
  O  O4  1  0.00042700  0.99419700  0.18910900  1
  O  O5  1  0.17527400  0.32048900  0.39705200  1
  O  O6  1  0.46587400  0.96397000  0.66463300  1
  O  O7  1  0.03627900  0.53379600  0.66474700  1
  O  O8  1  0.83853600  0.16212600  0.90256300  1
  O  O9  1  0.15625300  0.82727400  0.39413500  1
  O  O10  1  0.96019000  0.47945800  0.16154200  1
  O  O11  1  0.50552500  0.04057000  0.16411700  1
  O  O12  1  0.66692800  0.33895900  0.39714800  1
  O  O13  1  0.85029100  0.67526000  0.89491900  1
  O  O14  1  0.52782400  0.49254200  0.16483600  1
  O  O15  1  0.32766300  0.15127300  0.89531700  1
loop_
_geom_bond_atom_site_label_1
_geom_bond_atom_site_label_2
_geom_bond_distance
_geom_bond_site_symmetry_2
Li0 O10 1.946202 1_455
Li0 O14 1.984316 1_555
Li0 O11 1.988566 1_565
Li0 O2 2.045905 1_554
Li1 O4 1.787674 1_545
Li1 O8 1.914242 1_454
Li1 O15 1.961198 1_554
Li1 O13 1.965102 1_444
Li2 O3 1.794559 1_655
Li2 O0 1.936850 1_555
Li2 O5 1.962090 1_665
Li2 O9 1.966466 1_655
Li3 O1 1.938491 1_555
Li3 O7 1.993002 1_655
Li3 O6 2.004644 1_545
Li3 O12 2.017217 1_555
Cr0 O3 1.981900 1_655
Cr0 O1 2.000012 1_555
Cr0 O8 2.025117 1_565
Cr0 O2 2.027334 1_555
Cr0 O6 2.051083 1_555
Cr0 O13 2.054062 1_555
Cr1 O3 1.987110 1_545
Cr1 O1 1.999935 1_555
Cr1 O8 2.027073 1_455
Cr1 O2 2.031623 1_555
Cr1 O7 2.052444 1_555
Cr1 O15 2.061936 1_555
Cr2 O4 1.981941 1_645
Cr2 O12 1.998382 1_555
Cr2 O10 2.006019 1_555
Cr2 O11 2.045708 1_555
Cr2 O0 2.046176 1_545
Cr2 O5 2.053402 1_655
Fe0 O0 2.002936 1_555
Fe0 O1 2.032283 1_555
Fe0 O5 2.045172 1_555
Fe0 O9 2.098918 1_555
Fe0 O6 2.152019 1_555
Fe0 O7 2.161208 1_555
Fe1 O8 1.959483 1_554
Fe1 O10 2.053260 1_555
Fe1 O13 2.068142 1_554
Fe1 O15 2.098333 1_554
Fe1 O11 2.144383 1_555
Fe1 O14 2.174675 1_555
O0 V0 1.992269 1_555
O2 V1 1.876919 1_555
O3 V1 1.920504 1_555
O4 V0 1.961859 1_455
O4 V2 1.965385 1_565
O5 V2 1.948088 1_555
O6 V1 1.889261 1_555
O7 V1 1.898351 1_555
O9 V0 2.001496 1_455
O9 V2 2.020189 1_565
O10 V0 1.993668 1_555
O11 V2 1.875937 1_555
O12 V0 1.974649 1_555
O12 V2 1.983290 1_555
O13 V1 1.961988 1_655
O14 V0 1.895688 1_555
O14 V2 2.071918 1_555
O15 V1 1.956774 1_545
