# generated using pymatgen
data_Ba2YCr2F11
_symmetry_space_group_name_H-M   'P 1'
_cell_length_a   7.90986249
_cell_length_b   7.90986249
_cell_length_c   14.14020900
_cell_angle_alpha   90.00000000
_cell_angle_beta   90.00000000
_cell_angle_gamma   120.00000411
_symmetry_Int_Tables_number   1
_chemical_formula_structural   Ba2YCr2F11
_chemical_formula_sum   'Ba6 Y3 Cr6 F33'
_cell_volume   766.16852990
_cell_formula_units_Z   3
loop_
 _symmetry_equiv_pos_site_id
 _symmetry_equiv_pos_as_xyz
  1  'x, y, z'
loop_
 _atom_site_type_symbol
 _atom_site_label
 _atom_site_symmetry_multiplicity
 _atom_site_fract_x
 _atom_site_fract_y
 _atom_site_fract_z
 _atom_site_occupancy
  Ba  Ba0  1  0.55700500  0.19913300  0.66722300  1
  Ba  Ba1  1  0.18211500  0.51447400  0.81101400  1
  Ba  Ba2  1  0.64212900  0.44299500  0.00055600  1
  Ba  Ba3  1  0.48552600  0.66764100  0.47768100  1
  Ba  Ba4  1  0.33235900  0.81788500  0.14434800  1
  Ba  Ba5  1  0.80086700  0.35787100  0.33388900  1
  Y  Y0  1  0.15035400  0.00294400  0.88348400  1
  Y  Y1  1  0.85259000  0.84964600  0.21681700  1
  Y  Y2  1  0.99705600  0.14741000  0.55015000  1
  Cr  Cr0  1  0.63903900  0.99443100  0.88965900  1
  Cr  Cr1  1  0.77036500  0.74917400  0.72407500  1
  Cr  Cr2  1  0.25082600  0.02119200  0.39074200  1
  Cr  Cr3  1  0.35539200  0.36096100  0.22299200  1
  Cr  Cr4  1  0.97880800  0.22963500  0.05740800  1
  Cr  Cr5  1  0.00556900  0.64460800  0.55632600  1
  F  F0  1  0.69008500  0.10165600  0.02544100  1
  F  F1  1  0.50714800  0.71220900  0.92696700  1
  F  F2  1  0.41157100  0.30991500  0.35877400  1
  F  F3  1  0.09550500  0.42361600  0.47520200  1
  F  F4  1  0.54172200  0.27355500  0.17985200  1
  F  F5  1  0.92318700  0.62081900  0.18451000  1
  F  F6  1  0.57638400  0.67188900  0.14186800  1
  F  F7  1  0.37918100  0.30236700  0.85117700  1
  F  F8  1  0.73183300  0.45827800  0.51318500  1
  F  F9  1  0.26228100  0.34053300  0.08614400  1
  F  F10  1  0.32811100  0.90449500  0.80853500  1
  F  F11  1  0.89834400  0.58842900  0.69210700  1
  F  F12  1  0.33139200  0.02811300  0.00105000  1
  F  F13  1  0.03530700  0.49705100  0.02013100  1
  F  F14  1  0.69672100  0.66860800  0.33438300  1
  F  F15  1  0.28779100  0.79493900  0.59363400  1
  F  F16  1  0.99621200  0.16476200  0.89962600  1
  F  F17  1  0.07825300  0.73771900  0.41947700  1
  F  F18  1  0.00831900  0.05466800  0.39887200  1
  F  F19  1  0.97188700  0.30327900  0.66771600  1
  F  F20  1  0.04635000  0.99168100  0.73220500  1
  F  F21  1  0.50294900  0.53825700  0.68679800  1
  F  F22  1  0.46174300  0.96469300  0.35346400  1
  F  F23  1  0.16855000  0.00378800  0.23295900  1
  F  F24  1  0.65946700  0.92174700  0.75281100  1
  F  F25  1  0.72644500  0.26816700  0.84651800  1
  F  F26  1  0.20506100  0.49285200  0.26030000  1
  F  F27  1  0.91662000  0.70306600  0.88472500  1
  F  F28  1  0.78644600  0.08338000  0.21805900  1
  F  F29  1  0.94533200  0.95365000  0.06553800  1
  F  F30  1  0.69763300  0.07681300  0.51784400  1
  F  F31  1  0.83523800  0.83145000  0.56629200  1
  F  F32  1  0.29693400  0.21355400  0.55139200  1
loop_
_geom_bond_atom_site_label_1
_geom_bond_atom_site_label_2
_geom_bond_distance
_geom_bond_site_symmetry_2
Ba0 F32 2.676203 1_555
Ba0 F30 2.776919 1_555
Ba0 F25 2.791089 1_555
Ba0 F8 2.832605 1_555
Ba0 F10 2.912500 1_545
Ba0 F11 2.929434 1_555
Ba0 F21 2.932878 1_555
Ba0 F24 2.951904 1_545
Ba0 F19 2.957124 1_555
Ba0 F15 3.005127 1_545
Ba0 F7 3.249573 1_555
Ba1 F19 2.623676 1_455
Ba1 F10 2.699910 1_555
Ba1 F16 2.704887 1_455
Ba1 F1 2.779081 1_555
Ba1 F7 2.860467 1_555
Ba1 F21 3.013844 1_555
Ba1 F11 3.085516 1_455
Ba1 F13 3.154523 1_556
Ba1 F25 3.164893 1_455
Ba1 F27 3.294610 1_455
Ba2 F27 2.676200 1_554
Ba2 F7 2.776919 1_554
Ba2 F4 2.791102 1_555
Ba2 F25 2.832601 1_554
Ba2 F6 2.912504 1_555
Ba2 F0 2.929431 1_555
Ba2 F13 2.932863 1_655
Ba2 F9 2.951904 1_555
Ba2 F12 2.957127 1_555
Ba2 F1 3.005133 1_554
Ba2 F5 3.249573 1_555
Ba3 F14 2.623676 1_555
Ba3 F3 2.699910 1_555
Ba3 F31 2.704880 1_555
Ba3 F15 2.779081 1_555
Ba3 F30 2.860461 1_565
Ba3 F22 3.013859 1_555
Ba3 F2 3.085516 1_555
Ba3 F21 3.154521 1_555
Ba3 F8 3.164893 1_555
Ba3 F32 3.294610 1_555
Ba4 F12 2.623676 1_565
Ba4 F6 2.699910 1_555
Ba4 F23 2.704880 1_565
Ba4 F26 2.779073 1_555
Ba4 F5 2.860458 1_455
Ba4 F13 3.013855 1_555
Ba4 F0 3.085516 1_565
Ba4 F22 3.154509 1_555
Ba4 F4 3.164893 1_565
Ba4 F28 3.294610 1_565
Ba5 F28 2.676188 1_555
Ba5 F5 2.776919 1_555
Ba5 F8 2.791105 1_555
Ba5 F4 2.832595 1_555
Ba5 F3 2.912508 1_655
Ba5 F2 2.929439 1_555
Ba5 F22 2.932869 1_545
Ba5 F17 2.951904 1_655
Ba5 F14 2.957132 1_555
Ba5 F26 3.005126 1_655
Ba5 F30 3.249584 1_555
Cr0 F1 2.005272 1_555
Cr0 F25 2.010301 1_565
Cr0 F24 2.047924 1_555
Cr0 F0 2.055786 1_566
Cr0 F16 2.451611 1_565
Cr0 F10 2.474064 1_555
Cr1 F24 1.998814 1_555
Cr1 F21 2.001609 1_555
Cr1 F11 2.032934 1_555
Cr1 F20 2.066584 1_655
Cr1 F31 2.308816 1_555
Cr2 F17 1.998823 1_545
Cr2 F22 2.001613 1_545
Cr2 F2 2.032928 1_555
Cr2 F18 2.066574 1_555
Cr2 F23 2.308816 1_555
Cr3 F26 2.005272 1_555
Cr3 F4 2.010296 1_555
Cr3 F9 2.047922 1_555
Cr3 F2 2.055786 1_555
Cr3 F23 2.451611 1_555
Cr3 F6 2.474064 1_555
Cr4 F9 1.998828 1_655
Cr4 F13 2.001609 1_655
Cr4 F0 2.032924 1_555
Cr4 F29 2.066590 1_545
Cr4 F16 2.308804 1_554
Cr5 F15 2.005272 1_555
Cr5 F8 2.010301 1_455
Cr5 F17 2.047936 1_555
Cr5 F11 2.055773 1_455
Cr5 F31 2.451611 1_455
Cr5 F3 2.474064 1_555
F3 Y2 2.191203 1_455
F5 Y1 2.192556 1_555
F6 Y1 2.191210 1_555
F7 Y0 2.192551 1_555
F10 Y0 2.191210 1_565
F12 Y0 2.137459 1_554
F14 Y1 2.137459 1_555
F16 Y0 2.176585 1_655
F18 Y2 2.277539 1_455
F19 Y2 2.137459 1_555
F20 Y0 2.277550 1_565
F23 Y1 2.176585 1_445
F27 Y0 2.158561 1_665
F28 Y1 2.158561 1_545
F29 Y1 2.277551 1_555
F30 Y2 2.192545 1_555
F31 Y2 2.176585 1_565
F32 Y2 2.158561 1_455
