# generated using pymatgen
data_Tl2NiH12(SO7)2
_symmetry_space_group_name_H-M   'P 1'
_cell_length_a   12.49296000
_cell_length_b   6.26644000
_cell_length_c   9.18120864
_cell_angle_alpha   74.13124599
_cell_angle_beta   90.00000000
_cell_angle_gamma   90.00000000
_symmetry_Int_Tables_number   1
_chemical_formula_structural   Tl2NiH12(SO7)2
_chemical_formula_sum   'Tl4 Ni2 H24 S4 O28'
_cell_volume   691.37195449
_cell_formula_units_Z   2
loop_
 _symmetry_equiv_pos_site_id
 _symmetry_equiv_pos_as_xyz
  1  'x, y, z'
loop_
 _atom_site_type_symbol
 _atom_site_label
 _atom_site_symmetry_multiplicity
 _atom_site_fract_x
 _atom_site_fract_y
 _atom_site_fract_z
 _atom_site_occupancy
  Tl  Tl0  1  0.14629000  0.65025800  0.62844100  1
  Tl  Tl1  1  0.64629000  0.34974200  0.87155900  1
  Tl  Tl2  1  0.85371000  0.34974200  0.37155900  1
  Tl  Tl3  1  0.35371000  0.65025800  0.12844100  1
  Ni  Ni0  1  0.50000000  0.00000000  0.50000000  1
  Ni  Ni1  1  0.00000000  0.00000000  0.00000000  1
  H  H0  1  0.40632300  0.68662700  0.70919800  1
  H  H1  1  0.90632300  0.31337300  0.79080200  1
  H  H2  1  0.59367700  0.31337300  0.29080200  1
  H  H3  1  0.09367700  0.68662700  0.20919800  1
  H  H4  1  0.37238800  0.91937900  0.74072000  1
  H  H5  1  0.87238800  0.08062100  0.75928000  1
  H  H6  1  0.62761200  0.08062100  0.25928000  1
  H  H7  1  0.12761200  0.91937900  0.24072000  1
  H  H8  1  0.40409400  0.06476000  0.23022200  1
  H  H9  1  0.90409400  0.93524000  0.26977800  1
  H  H10  1  0.59590600  0.93524000  0.76977800  1
  H  H11  1  0.09590600  0.06476000  0.73022200  1
  H  H12  1  0.31556700  0.99923200  0.36019500  1
  H  H13  1  0.81556700  0.00076800  0.13980500  1
  H  H14  1  0.68443300  0.00076800  0.63980500  1
  H  H15  1  0.18443300  0.99923200  0.86019500  1
  H  H16  1  0.55561300  0.65786900  0.40948300  1
  H  H17  1  0.05561300  0.34213100  0.09051700  1
  H  H18  1  0.44438700  0.34213100  0.59051800  1
  H  H19  1  0.94438700  0.65786900  0.90948200  1
  H  H20  1  0.64190500  0.67373500  0.53173400  1
  H  H21  1  0.14190500  0.32626500  0.96826600  1
  H  H22  1  0.35809500  0.32626500  0.46826600  1
  H  H23  1  0.85809500  0.67373500  0.03173400  1
  S  S0  1  0.36156800  0.26462500  0.90560600  1
  S  S1  1  0.86156800  0.73537500  0.59439400  1
  S  S2  1  0.63843200  0.73537500  0.09439400  1
  S  S3  1  0.13843200  0.26462500  0.40560600  1
  O  O0  1  0.26758000  0.40615800  0.91869300  1
  O  O1  1  0.76758000  0.59384200  0.58130700  1
  O  O2  1  0.73242000  0.59384200  0.08130700  1
  O  O3  1  0.23242000  0.40615800  0.41869300  1
  O  O4  1  0.42723000  0.21632800  0.04581000  1
  O  O5  1  0.92723000  0.78367200  0.45419000  1
  O  O6  1  0.57277000  0.78367200  0.95419000  1
  O  O7  1  0.07277000  0.21632800  0.54581000  1
  O  O8  1  0.42927000  0.39007600  0.77491800  1
  O  O9  1  0.92927000  0.60992400  0.72508200  1
  O  O10  1  0.57073000  0.60992400  0.22508200  1
  O  O11  1  0.07073000  0.39007600  0.27491800  1
  O  O12  1  0.32252800  0.05238000  0.87721200  1
  O  O13  1  0.82252800  0.94762000  0.62278800  1
  O  O14  1  0.67747200  0.94762000  0.12278800  1
  O  O15  1  0.17747200  0.05238000  0.37721200  1
  O  O16  1  0.38781200  0.84382000  0.66080500  1
  O  O17  1  0.88781200  0.15618000  0.83919500  1
  O  O18  1  0.61218800  0.15618000  0.33919500  1
  O  O19  1  0.11218800  0.84382000  0.16080500  1
  O  O20  1  0.39013900  0.96788500  0.33438400  1
  O  O21  1  0.89013900  0.03211500  0.16561600  1
  O  O22  1  0.60986100  0.03211500  0.66561600  1
  O  O23  1  0.10986100  0.96788500  0.83438400  1
  O  O24  1  0.56408600  0.69514700  0.50670300  1
  O  O25  1  0.06408600  0.30485300  0.99329700  1
  O  O26  1  0.43591400  0.30485300  0.49329700  1
  O  O27  1  0.93591400  0.69514700  0.00670300  1
loop_
_geom_bond_atom_site_label_1
_geom_bond_atom_site_label_2
_geom_bond_distance
_geom_bond_site_symmetry_2
Ni0 O24 2.056673 1_545
Ni0 O26 2.056673 1_555
Ni0 O16 2.076472 1_545
Ni0 O18 2.076472 1_555
Ni0 O22 2.098490 1_555
Ni0 O20 2.098490 1_545
Ni1 O25 2.056673 1_554
Ni1 O27 2.056673 1_445
Ni1 O19 2.076472 1_545
Ni1 O17 2.076472 1_454
Ni1 O21 2.098490 1_455
Ni1 O23 2.098490 1_544
H0 O16 0.990883 1_555
H1 O17 0.990883 1_555
H2 O18 0.990883 1_555
H3 O19 0.990883 1_555
H4 O16 0.994808 1_555
H5 O17 0.994808 1_555
H6 O18 0.994808 1_555
H7 O19 0.994808 1_555
H8 O20 0.998000 1_545
H8 O4 1.724207 1_555
H9 O21 0.998000 1_565
H9 O5 1.724207 1_555
H10 O22 0.998000 1_565
H10 O6 1.724207 1_555
H11 O23 0.998000 1_545
H11 O7 1.724207 1_555
H12 O20 0.994045 1_555
H13 O21 0.994045 1_555
H14 O22 0.994045 1_555
H15 O23 0.994045 1_555
H16 O24 0.988196 1_555
H17 O25 0.988196 1_554
H18 O26 0.988205 1_555
H19 O27 0.988205 1_556
H20 O24 0.999554 1_555
H20 O1 1.672798 1_555
H21 O25 0.999554 1_555
H21 O0 1.672798 1_555
H22 O26 0.999554 1_555
H22 O3 1.672798 1_555
H23 O27 0.999554 1_555
H23 O2 1.672798 1_555
O0 S0 1.496008 1_555
O1 S1 1.496008 1_555
O2 S2 1.496008 1_555
O3 S3 1.496008 1_555
O4 S0 1.486086 1_554
O5 S1 1.486086 1_555
O6 S2 1.486086 1_556
O7 S3 1.486086 1_555
O8 S0 1.502410 1_555
O8 Tl1 2.842400 1_555
O9 S1 1.502410 1_555
O9 Tl0 2.842400 1_655
O10 S2 1.502410 1_555
O10 Tl3 2.842400 1_555
O11 S3 1.502410 1_555
O11 Tl2 2.842400 1_455
O12 S0 1.504794 1_555
O13 S1 1.504794 1_555
O14 S2 1.504794 1_555
O15 S3 1.504794 1_555
