# generated using pymatgen
data_NaV2P2O9
_symmetry_space_group_name_H-M   'P 1'
_cell_length_a   6.45313800
_cell_length_b   7.67680900
_cell_length_c   14.06546400
_cell_angle_alpha   90.00000000
_cell_angle_beta   90.00000000
_cell_angle_gamma   90.00000000
_symmetry_Int_Tables_number   1
_chemical_formula_structural   NaV2P2O9
_chemical_formula_sum   'Na4 V8 P8 O36'
_cell_volume   696.79616462
_cell_formula_units_Z   4
loop_
 _symmetry_equiv_pos_site_id
 _symmetry_equiv_pos_as_xyz
  1  'x, y, z'
loop_
 _atom_site_type_symbol
 _atom_site_label
 _atom_site_symmetry_multiplicity
 _atom_site_fract_x
 _atom_site_fract_y
 _atom_site_fract_z
 _atom_site_occupancy
  Na  Na0  1  0.75000000  0.88945500  0.77911500  1
  Na  Na1  1  0.75000000  0.61054500  0.27911500  1
  Na  Na2  1  0.25000000  0.38945500  0.72088500  1
  Na  Na3  1  0.25000000  0.11054500  0.22088500  1
  V  V0  1  0.75000000  0.34936400  0.88087100  1
  V  V1  1  0.25000000  0.65063600  0.11912900  1
  V  V2  1  0.25000000  0.84936400  0.61912900  1
  V  V3  1  0.75000000  0.15063600  0.38087100  1
  V  V4  1  0.50000000  0.00000000  0.00000000  1
  V  V5  1  0.50000000  0.50000000  0.50000000  1
  V  V6  1  0.00000000  0.50000000  0.50000000  1
  V  V7  1  0.00000000  0.00000000  0.00000000  1
  P  P0  1  0.25000000  0.35275700  0.93841700  1
  P  P1  1  0.75000000  0.64724300  0.06158300  1
  P  P2  1  0.75000000  0.85275700  0.56158300  1
  P  P3  1  0.25000000  0.14724300  0.43841700  1
  P  P4  1  0.75000000  0.38997700  0.69202200  1
  P  P5  1  0.75000000  0.11002300  0.19202200  1
  P  P6  1  0.25000000  0.88997700  0.80797800  1
  P  P7  1  0.25000000  0.61002300  0.30797800  1
  O  O0  1  0.05346100  0.60178700  0.37149900  1
  O  O1  1  0.55346100  0.39821300  0.62850100  1
  O  O2  1  0.94653900  0.10178700  0.12850100  1
  O  O3  1  0.44653900  0.89821300  0.87149900  1
  O  O4  1  0.94653900  0.39821300  0.62850100  1
  O  O5  1  0.44653900  0.60178700  0.37149900  1
  O  O6  1  0.05346100  0.89821300  0.87149900  1
  O  O7  1  0.55346100  0.10178700  0.12850100  1
  O  O8  1  0.25000000  0.33402700  0.48357300  1
  O  O9  1  0.75000000  0.66597300  0.51642700  1
  O  O10  1  0.75000000  0.83402700  0.01642700  1
  O  O11  1  0.25000000  0.16597300  0.98357300  1
  O  O12  1  0.75000000  0.14226100  0.94483600  1
  O  O13  1  0.25000000  0.85773900  0.05516400  1
  O  O14  1  0.25000000  0.64226100  0.55516400  1
  O  O15  1  0.75000000  0.35773900  0.44483600  1
  O  O16  1  0.75000000  0.22174100  0.75464600  1
  O  O17  1  0.25000000  0.77825900  0.24535400  1
  O  O18  1  0.25000000  0.72174100  0.74535400  1
  O  O19  1  0.75000000  0.27825900  0.25464600  1
  O  O20  1  0.44138500  0.13049900  0.37410800  1
  O  O21  1  0.94138500  0.86950100  0.62589200  1
  O  O22  1  0.55861500  0.63049900  0.12589200  1
  O  O23  1  0.05861500  0.36950100  0.87410800  1
  O  O24  1  0.55861500  0.86950100  0.62589200  1
  O  O25  1  0.05861500  0.13049900  0.37410800  1
  O  O26  1  0.44138500  0.36950100  0.87410800  1
  O  O27  1  0.94138500  0.63049900  0.12589200  1
  O  O28  1  0.75000000  0.51588900  0.98024200  1
  O  O29  1  0.25000000  0.03264100  0.72969600  1
  O  O30  1  0.25000000  0.46735900  0.22969600  1
  O  O31  1  0.75000000  0.53264100  0.77030400  1
  O  O32  1  0.75000000  0.98411100  0.48024200  1
  O  O33  1  0.25000000  0.01588900  0.51975800  1
  O  O34  1  0.25000000  0.48411100  0.01975800  1
  O  O35  1  0.75000000  0.96735900  0.27030400  1
loop_
_geom_bond_atom_site_label_1
_geom_bond_atom_site_label_2
_geom_bond_distance
_geom_bond_site_symmetry_2
Na0 O6 2.351142 1_655
Na0 O3 2.351142 1_555
Na0 O24 2.488666 1_555
Na0 O21 2.488666 1_555
Na0 O16 2.574009 1_565
Na0 O31 2.741995 1_555
Na1 O0 2.351142 1_655
Na1 O5 2.351142 1_555
Na1 O27 2.488666 1_555
Na1 O22 2.488666 1_555
Na1 O19 2.574009 1_555
Na1 O35 2.741995 1_555
Na2 O4 2.351142 1_455
Na2 O1 2.351142 1_555
Na2 O26 2.488666 1_555
Na2 O23 2.488666 1_555
Na2 O18 2.574009 1_555
Na2 O29 2.741995 1_555
Na3 O7 2.351142 1_555
Na3 O2 2.351142 1_455
Na3 O20 2.488666 1_555
Na3 O25 2.488666 1_555
Na3 O17 2.574009 1_545
Na3 O30 2.741995 1_555
O0 P7 1.552682 1_555
O0 V6 1.999098 1_555
O1 P4 1.552682 1_555
O1 V5 1.999098 1_555
O2 P5 1.552682 1_555
O2 V7 1.999098 1_655
O3 P6 1.552682 1_555
O3 V4 1.999098 1_566
O4 P4 1.552682 1_555
O4 V6 1.999098 1_655
O5 P7 1.552682 1_555
O5 V5 1.999098 1_555
O6 P6 1.552682 1_555
O6 V7 1.999098 1_566
O7 P5 1.552682 1_555
O7 V4 1.999098 1_555
O8 P3 1.568275 1_555
O8 V6 2.068698 1_555
O8 V5 2.068698 1_555
O9 P2 1.568275 1_555
O9 V6 2.068698 1_655
O9 V5 2.068698 1_555
O10 P1 1.568275 1_555
O10 V7 2.068698 1_665
O10 V4 2.068698 1_565
O11 P0 1.568275 1_555
O11 V4 2.068698 1_556
O11 V7 2.068698 1_556
O12 V0 1.826802 1_555
O12 V4 2.097004 1_556
O12 V7 2.097004 1_656
O13 V1 1.826802 1_555
O13 V4 2.097004 1_565
O13 V7 2.097004 1_565
O14 V2 1.826802 1_555
O14 V6 2.097004 1_555
O14 V5 2.097004 1_555
O15 V3 1.826802 1_555
O15 V6 2.097004 1_655
O15 V5 2.097004 1_555
O16 P4 1.563293 1_555
O16 V0 2.027801 1_555
O17 P7 1.563293 1_555
O17 V1 2.027801 1_555
O18 P6 1.563293 1_555
O18 V2 2.027801 1_555
O19 P5 1.563293 1_555
O19 V3 2.027801 1_555
O20 P3 1.536234 1_555
O20 V3 1.999790 1_555
O21 P2 1.536234 1_555
O21 V2 1.999790 1_655
O22 P1 1.536234 1_555
O22 V1 1.999790 1_555
O23 P0 1.536234 1_555
O23 V0 1.999790 1_455
O24 P2 1.536234 1_555
O24 V2 1.999790 1_555
O25 P3 1.536234 1_555
O25 V3 1.999790 1_455
O26 P0 1.536234 1_555
O26 V0 1.999790 1_555
O27 P1 1.536234 1_555
O27 V1 1.999790 1_655
O28 P1 1.525055 1_556
O28 V0 1.894154 1_555
O29 P6 1.553008 1_545
O29 V2 2.097182 1_545
O30 P7 1.553008 1_555
O30 V1 2.097182 1_555
O31 P4 1.553008 1_555
O31 V0 2.097182 1_555
O32 P2 1.525055 1_555
O32 V3 1.894154 1_565
O33 P3 1.525055 1_555
O33 V2 1.894154 1_545
O34 P0 1.525055 1_554
O34 V1 1.894154 1_555
O35 P5 1.553008 1_565
O35 V3 2.097182 1_565
