# generated using pymatgen
data_UMnS2O15
_symmetry_space_group_name_H-M   'P 1'
_cell_length_a   6.26364374
_cell_length_b   8.82590507
_cell_length_c   11.48911900
_cell_angle_alpha   90.00000000
_cell_angle_beta   90.00000000
_cell_angle_gamma   89.21554742
_symmetry_Int_Tables_number   1
_chemical_formula_structural   UMnS2O15
_chemical_formula_sum   'U2 Mn2 S4 O30'
_cell_volume   635.08568243
_cell_formula_units_Z   2
loop_
 _symmetry_equiv_pos_site_id
 _symmetry_equiv_pos_as_xyz
  1  'x, y, z'
loop_
 _atom_site_type_symbol
 _atom_site_label
 _atom_site_symmetry_multiplicity
 _atom_site_fract_x
 _atom_site_fract_y
 _atom_site_fract_z
 _atom_site_occupancy
  U  U0  1  0.00457600  0.38960000  0.22906600  1
  U  U1  1  0.99542400  0.61040000  0.72906600  1
  Mn  Mn0  1  0.50308800  0.17528700  0.88417300  1
  Mn  Mn1  1  0.49691200  0.82471300  0.38417300  1
  S  S0  1  0.02489300  0.73659600  0.03746400  1
  S  S1  1  0.97510700  0.26340400  0.53746400  1
  S  S2  1  0.00270100  0.25285400  0.91673200  1
  S  S3  1  0.99729900  0.74714600  0.41673200  1
  O  O0  1  0.27576600  0.33662300  0.25963100  1
  O  O1  1  0.72423400  0.66337700  0.75963100  1
  O  O2  1  0.73278100  0.44316300  0.19974300  1
  O  O3  1  0.26721900  0.55683700  0.69974300  1
  O  O4  1  0.10339100  0.60853800  0.10982300  1
  O  O5  1  0.89660900  0.39146200  0.60982300  1
  O  O6  1  0.10077600  0.70409100  0.91595200  1
  O  O7  1  0.89922400  0.29590900  0.41595200  1
  O  O8  1  0.10492500  0.88461000  0.07834700  1
  O  O9  1  0.89507500  0.11539000  0.57834700  1
  O  O10  1  0.79036000  0.75797100  0.04400200  1
  O  O11  1  0.20964000  0.24202900  0.54400200  1
  O  O12  1  0.95174900  0.39924400  0.86107000  1
  O  O13  1  0.04825100  0.60075600  0.36107000  1
  O  O14  1  0.04838800  0.27678800  0.04186200  1
  O  O15  1  0.95161200  0.72321200  0.54186200  1
  O  O16  1  0.82532600  0.14330500  0.90102800  1
  O  O17  1  0.17467400  0.85669500  0.40102800  1
  O  O18  1  0.18900500  0.17563100  0.85821400  1
  O  O19  1  0.81099500  0.82436900  0.35821400  1
  O  O20  1  0.89195900  0.14005300  0.23563200  1
  O  O21  1  0.10804100  0.85994700  0.73563200  1
  O  O22  1  0.50004400  0.06534200  0.12660100  1
  O  O23  1  0.49995600  0.93465800  0.62660100  1
  O  O24  1  0.48834000  0.01048800  0.96100900  1
  O  O25  1  0.51166000  0.98951200  0.46100900  1
  O  O26  1  0.53293200  0.17764100  0.74446700  1
  O  O27  1  0.46706800  0.82235900  0.24446700  1
  O  O28  1  0.50189400  0.32775300  0.96078300  1
  O  O29  1  0.49810600  0.67224700  0.46078300  1
loop_
_geom_bond_atom_site_label_1
_geom_bond_atom_site_label_2
_geom_bond_distance
_geom_bond_site_symmetry_2
Mn0 O28 1.607879 1_555
Mn0 O26 1.616114 1_555
Mn0 O24 1.705016 1_555
Mn0 O18 1.989744 1_555
Mn0 O16 2.043392 1_555
Mn1 O29 1.607879 1_555
Mn1 O27 1.616114 1_555
Mn1 O25 1.705016 1_555
Mn1 O19 1.989744 1_555
Mn1 O17 2.043392 1_555
O0 U0 1.790408 1_555
O1 U1 1.790408 1_555
O2 U0 1.792541 1_655
O3 U1 1.792541 1_455
O4 S0 1.481580 1_555
O4 U0 2.454916 1_555
O5 S1 1.481580 1_555
O5 U1 2.454916 1_555
O6 S0 1.501161 1_556
O6 U1 2.396757 1_455
O7 S1 1.501161 1_555
O7 U0 2.396757 1_655
O8 S0 1.482033 1_555
O9 S1 1.482033 1_555
O10 S0 1.480438 1_655
O11 S1 1.480438 1_455
O12 S2 1.472705 1_655
O12 U1 2.421171 1_555
O13 S3 1.472705 1_455
O13 U0 2.421171 1_555
O14 S2 1.481539 1_554
O14 U0 2.384357 1_555
O15 S3 1.481539 1_555
O15 U1 2.384357 1_555
O16 S2 1.493705 1_655
O17 S3 1.493705 1_455
O18 S2 1.502171 1_555
O19 S3 1.502171 1_555
O20 U0 2.323084 1_655
O21 U1 2.323084 1_455
O22 O24 1.964755 1_554
O23 O25 1.964755 1_555
