# generated using pymatgen
data_Si2H2O3
_symmetry_space_group_name_H-M   'P 1'
_cell_length_a   11.04558981
_cell_length_b   11.04558981
_cell_length_c   14.45372335
_cell_angle_alpha   55.28761613
_cell_angle_beta   55.28761613
_cell_angle_gamma   48.26553054
_symmetry_Int_Tables_number   1
_chemical_formula_structural   Si2H2O3
_chemical_formula_sum   'Si20 H20 O30'
_cell_volume   1028.31091540
_cell_formula_units_Z   10
loop_
 _symmetry_equiv_pos_site_id
 _symmetry_equiv_pos_as_xyz
  1  'x, y, z'
loop_
 _atom_site_type_symbol
 _atom_site_label
 _atom_site_symmetry_multiplicity
 _atom_site_fract_x
 _atom_site_fract_y
 _atom_site_fract_z
 _atom_site_occupancy
  Si  Si0  1  0.31841500  0.68210800  0.87735600  1
  Si  Si1  1  0.30225100  0.73854100  0.60374500  1
  Si  Si2  1  0.73854100  0.30225100  0.10374500  1
  Si  Si3  1  0.68210800  0.31841500  0.37735600  1
  Si  Si4  1  0.27963900  0.10645500  0.72132700  1
  Si  Si5  1  0.89411800  0.72720800  0.77249200  1
  Si  Si6  1  0.72720800  0.89411800  0.27249200  1
  Si  Si7  1  0.10645500  0.27963900  0.22132700  1
  Si  Si8  1  0.78233200  0.41328200  0.79247100  1
  Si  Si9  1  0.62032000  0.20318900  0.69575500  1
  Si  Si10  1  0.20318900  0.62032000  0.19575500  1
  Si  Si11  1  0.41328200  0.78233200  0.29247100  1
  Si  Si12  1  0.83307100  0.38337500  0.53227700  1
  Si  Si13  1  0.64584600  0.15374800  0.95311600  1
  Si  Si14  1  0.15374800  0.64584600  0.45311600  1
  Si  Si15  1  0.38337500  0.83307100  0.03227700  1
  Si  Si16  1  0.24478800  0.11315500  0.47684200  1
  Si  Si17  1  0.87150300  0.75415400  0.02218200  1
  Si  Si18  1  0.75415400  0.87150300  0.52218200  1
  Si  Si19  1  0.11315500  0.24478800  0.97684200  1
  H  H0  1  0.20981500  0.92344700  0.89785000  1
  H  H1  1  0.11937400  0.69186200  0.61399800  1
  H  H2  1  0.69186200  0.11937400  0.11399800  1
  H  H3  1  0.92344700  0.20981500  0.39785000  1
  H  H4  1  0.05884300  0.34001800  0.77550900  1
  H  H5  1  0.62489800  0.94261900  0.78446700  1
  H  H6  1  0.94261900  0.62489800  0.28446700  1
  H  H7  1  0.34001800  0.05884300  0.27550900  1
  H  H8  1  0.12999400  0.62654200  0.05700300  1
  H  H9  1  0.62654200  0.12999400  0.55700300  1
  H  H10  1  0.41781300  0.54094200  0.76267800  1
  H  H11  1  0.54094200  0.41781300  0.26267800  1
  H  H12  1  0.40401600  0.13815400  0.52645100  1
  H  H13  1  0.93795800  0.56068100  0.95062900  1
  H  H14  1  0.56068100  0.93795800  0.45062900  1
  H  H15  1  0.13815400  0.40401600  0.02645100  1
  H  H16  1  0.76085200  0.58560300  0.60296300  1
  H  H17  1  0.43402100  0.22370100  0.88700300  1
  H  H18  1  0.22370100  0.43402100  0.38700300  1
  H  H19  1  0.58560300  0.76085200  0.10296300  1
  O  O0  1  0.23040300  0.91629400  0.82445100  1
  O  O1  1  0.07981300  0.75184500  0.66615200  1
  O  O2  1  0.75184500  0.07981300  0.16615200  1
  O  O3  1  0.91629400  0.23040300  0.32445100  1
  O  O4  1  0.06323900  0.26602200  0.75442200  1
  O  O5  1  0.72443800  0.95003500  0.75954700  1
  O  O6  1  0.95003500  0.72443800  0.25954700  1
  O  O7  1  0.26602200  0.06323900  0.25442200  1
  O  O8  1  0.76603700  0.24420600  0.85223400  1
  O  O9  1  0.78775300  0.22220100  0.63601500  1
  O  O10  1  0.22220100  0.78775300  0.13601500  1
  O  O11  1  0.24420600  0.76603700  0.35223400  1
  O  O12  1  0.04784900  0.27458600  0.49961400  1
  O  O13  1  0.79395100  0.95489300  0.94154200  1
  O  O14  1  0.95489300  0.79395100  0.44154200  1
  O  O15  1  0.27458600  0.04784900  0.99961400  1
  O  O16  1  0.10880000  0.68837600  0.97892800  1
  O  O17  1  0.22578600  0.93923500  0.57586400  1
  O  O18  1  0.93923500  0.22578600  0.07586400  1
  O  O19  1  0.68837600  0.10880000  0.47892800  1
  O  O20  1  0.32895800  0.66159700  0.75626800  1
  O  O21  1  0.66159700  0.32895800  0.25626800  1
  O  O22  1  0.30848900  0.11675200  0.58171100  1
  O  O23  1  0.91708300  0.67884500  0.91047900  1
  O  O24  1  0.67884500  0.91708300  0.41047900  1
  O  O25  1  0.11675200  0.30848900  0.08171100  1
  O  O26  1  0.78099500  0.46826000  0.64614500  1
  O  O27  1  0.53862100  0.23057700  0.83984700  1
  O  O28  1  0.23057700  0.53862100  0.33984700  1
  O  O29  1  0.46826000  0.78099500  0.14614500  1
loop_
_geom_bond_atom_site_label_1
_geom_bond_atom_site_label_2
_geom_bond_distance
_geom_bond_site_symmetry_2
H0 O0 0.990059 1_555
H1 O1 1.003181 1_555
H2 O2 1.003181 1_555
H3 O3 0.990059 1_555
H4 O4 0.988586 1_555
H5 O5 0.990237 1_555
H6 O6 0.990237 1_555
H7 O7 0.988586 1_555
H8 O16 1.002464 1_554
H9 O19 1.002464 1_555
H10 O20 0.984619 1_555
H11 O21 0.984619 1_555
H12 O22 0.982029 1_555
H13 O23 0.991233 1_555
H14 O24 0.991233 1_555
H15 O25 0.982029 1_555
H16 O26 0.985836 1_555
H17 O27 0.982954 1_555
H18 O28 0.982954 1_555
H19 O29 0.985836 1_555
O0 Si0 1.861952 1_555
O0 Si4 1.990280 1_565
O1 Si5 1.822017 1_455
O1 Si1 2.004513 1_555
O2 Si6 1.822017 1_545
O2 Si2 2.004513 1_555
O3 Si3 1.861952 1_555
O3 Si7 1.990280 1_655
O4 Si4 1.760054 1_555
O4 Si8 2.220719 1_455
O5 Si5 1.827271 1_555
O5 Si9 1.995397 1_565
O6 Si6 1.827271 1_555
O6 Si10 1.995397 1_655
O7 Si7 1.760054 1_555
O7 Si11 2.220719 1_545
O8 Si8 1.642996 1_555
O8 Si13 1.670016 1_555
O9 Si9 1.643704 1_555
O9 Si12 1.720342 1_555
O10 Si10 1.643704 1_555
O10 Si15 1.720342 1_555
O11 Si11 1.642996 1_555
O11 Si14 1.670016 1_555
O12 Si16 1.645799 1_555
O12 Si12 1.694129 1_455
O13 Si17 1.635137 1_556
O13 Si13 1.688667 1_565
O14 Si18 1.635137 1_555
O14 Si14 1.688667 1_655
O15 Si19 1.645799 1_555
O15 Si15 1.694129 1_546
O16 Si0 1.884637 1_555
O16 Si17 1.975973 1_456
O17 Si1 1.633216 1_555
O17 Si16 1.687064 1_565
O18 Si2 1.633216 1_555
O18 Si19 1.687064 1_654
O19 Si3 1.884637 1_555
O19 Si18 1.975973 1_545
O20 Si0 1.819982 1_555
O20 Si1 1.985513 1_555
O21 Si3 1.819982 1_555
O21 Si2 1.985513 1_555
O22 Si4 1.800321 1_555
O22 Si16 2.028449 1_555
O23 Si5 1.873448 1_555
O23 Si17 1.896933 1_556
O24 Si6 1.873448 1_555
O24 Si18 1.896933 1_555
O25 Si7 1.800321 1_555
O25 Si19 2.028449 1_554
O26 Si8 1.844697 1_555
O26 Si12 1.969757 1_555
O27 Si9 1.859292 1_555
O27 Si13 2.022638 1_555
O28 Si10 1.859292 1_555
O28 Si14 2.022638 1_555
O29 Si11 1.844697 1_555
O29 Si15 1.969757 1_555
