# generated using pymatgen
data_Rb2MnH12(SeO7)2
_symmetry_space_group_name_H-M   'P 1'
_cell_length_a   6.50574600
_cell_length_b   13.01427600
_cell_length_c   9.57620270
_cell_angle_alpha   90.00000000
_cell_angle_beta   105.08848002
_cell_angle_gamma   90.00000000
_symmetry_Int_Tables_number   1
_chemical_formula_structural   Rb2MnH12(SeO7)2
_chemical_formula_sum   'Rb4 Mn2 H24 Se4 O28'
_cell_volume   782.84172354
_cell_formula_units_Z   2
loop_
 _symmetry_equiv_pos_site_id
 _symmetry_equiv_pos_as_xyz
  1  'x, y, z'
loop_
 _atom_site_type_symbol
 _atom_site_label
 _atom_site_symmetry_multiplicity
 _atom_site_fract_x
 _atom_site_fract_y
 _atom_site_fract_z
 _atom_site_occupancy
  Rb  Rb0  1  0.34452100  0.85139200  0.62592400  1
  Rb  Rb1  1  0.65547900  0.35139200  0.87407600  1
  Rb  Rb2  1  0.65547900  0.14860800  0.37407600  1
  Rb  Rb3  1  0.34452100  0.64860800  0.12592400  1
  Mn  Mn0  1  0.00000000  0.50000000  0.50000000  1
  Mn  Mn1  1  0.00000000  0.00000000  0.00000000  1
  H  H0  1  0.32765500  0.59335300  0.71497800  1
  H  H1  1  0.67234500  0.09335300  0.78502200  1
  H  H2  1  0.67234500  0.40664700  0.28502200  1
  H  H3  1  0.32765500  0.90664700  0.21497800  1
  H  H4  1  0.10560100  0.62893400  0.74607300  1
  H  H5  1  0.89439900  0.12893400  0.75392700  1
  H  H6  1  0.89439900  0.37106600  0.25392700  1
  H  H7  1  0.10560100  0.87106600  0.24607300  1
  H  H8  1  0.92488400  0.60168500  0.22857900  1
  H  H9  1  0.07511600  0.10168500  0.27142100  1
  H  H10  1  0.07511600  0.39831500  0.77142100  1
  H  H11  1  0.92488400  0.89831500  0.72857900  1
  H  H12  1  0.99143900  0.68753300  0.35015300  1
  H  H13  1  0.00856100  0.18753300  0.14984700  1
  H  H14  1  0.00856100  0.31246700  0.64984700  1
  H  H15  1  0.99143900  0.81246700  0.85015300  1
  H  H16  1  0.34014000  0.43698300  0.39644100  1
  H  H17  1  0.65986000  0.93698300  0.10355900  1
  H  H18  1  0.65986000  0.56301700  0.60355900  1
  H  H19  1  0.34014000  0.06301700  0.89644100  1
  H  H20  1  0.33438400  0.35857600  0.52287300  1
  H  H21  1  0.66561600  0.85857600  0.97712700  1
  H  H22  1  0.66561600  0.64142400  0.47712700  1
  H  H23  1  0.33438400  0.14142400  0.02287300  1
  Se  Se0  1  0.73189000  0.64226700  0.90357200  1
  Se  Se1  1  0.26811000  0.14226700  0.59642800  1
  Se  Se2  1  0.26811000  0.35773300  0.09642800  1
  Se  Se3  1  0.73189000  0.85773300  0.40357200  1
  O  O0  1  0.57394300  0.74331000  0.91081900  1
  O  O1  1  0.42605700  0.24331000  0.58918100  1
  O  O2  1  0.42605700  0.25669000  0.08918100  1
  O  O3  1  0.57394300  0.75669000  0.41081900  1
  O  O4  1  0.77525600  0.57445700  0.05640000  1
  O  O5  1  0.22474400  0.07445700  0.44360000  1
  O  O6  1  0.22474400  0.42554300  0.94360000  1
  O  O7  1  0.77525600  0.92554300  0.55640000  1
  O  O8  1  0.59953600  0.56538200  0.76780600  1
  O  O9  1  0.40046400  0.06538200  0.73219400  1
  O  O10  1  0.40046400  0.43461800  0.23219400  1
  O  O11  1  0.59953600  0.93461800  0.26780600  1
  O  O12  1  0.96330000  0.68214900  0.87386900  1
  O  O13  1  0.03670000  0.18214900  0.62613100  1
  O  O14  1  0.03670000  0.31785100  0.12613100  1
  O  O15  1  0.96330000  0.81785100  0.37386900  1
  O  O16  1  0.17593500  0.61143400  0.66929200  1
  O  O17  1  0.82406500  0.11143400  0.83070800  1
  O  O18  1  0.82406500  0.38856600  0.33070800  1
  O  O19  1  0.17593500  0.88856600  0.16929200  1
  O  O20  1  0.01704000  0.61435800  0.32810600  1
  O  O21  1  0.98296000  0.11435800  0.17189400  1
  O  O22  1  0.98296000  0.38564200  0.67189400  1
  O  O23  1  0.01704000  0.88564200  0.82810600  1
  O  O24  1  0.29611600  0.43007800  0.48804500  1
  O  O25  1  0.70388400  0.93007800  0.01195500  1
  O  O26  1  0.70388400  0.56992200  0.51195500  1
  O  O27  1  0.29611600  0.06992200  0.98804500  1
loop_
_geom_bond_atom_site_label_1
_geom_bond_atom_site_label_2
_geom_bond_distance
_geom_bond_site_symmetry_2
Mn0 O24 2.160377 1_555
Mn0 O26 2.160377 1_455
Mn0 O20 2.243192 1_555
Mn0 O22 2.243192 1_455
Mn0 O18 2.252868 1_455
Mn0 O16 2.252868 1_555
Mn1 O25 2.160377 1_445
Mn1 O27 2.160377 1_554
Mn1 O23 2.243192 1_544
Mn1 O21 2.243192 1_455
Mn1 O17 2.252868 1_454
Mn1 O19 2.252868 1_545
H0 O16 0.998111 1_555
H0 O8 1.746766 1_555
H1 O17 0.998111 1_555
H1 O9 1.746766 1_555
H2 O18 0.998111 1_555
H2 O10 1.746766 1_555
H3 O19 0.998111 1_555
H3 O11 1.746766 1_555
H4 O16 0.988446 1_555
H5 O17 0.988446 1_555
H6 O18 0.988446 1_555
H7 O19 0.988446 1_555
H8 O20 0.998771 1_655
H8 Rb3 3.192131 1_655
H9 O21 0.998771 1_455
H9 Rb2 3.192131 1_455
H10 O22 0.998771 1_455
H10 Rb1 3.192131 1_455
H11 O23 0.998771 1_655
H11 Rb0 3.192131 1_655
H12 O20 0.998766 1_655
H13 O21 0.998766 1_455
H14 O22 0.998766 1_455
H15 O23 0.998766 1_655
H16 O24 0.995199 1_555
H16 O10 1.717623 1_555
H17 O25 0.995199 1_555
H17 O11 1.717623 1_555
H18 O26 0.995199 1_555
H18 O8 1.717623 1_555
H19 O27 0.995199 1_555
H19 O9 1.717623 1_555
H20 O24 0.997951 1_555
H20 O1 1.676915 1_555
H21 O25 0.997951 1_556
H21 O0 1.676915 1_555
H22 O26 0.997951 1_555
H22 O3 1.676915 1_555
H23 O27 0.997951 1_554
H23 O2 1.676915 1_555
O0 Se0 1.681386 1_555
O0 Rb0 3.086981 1_555
O0 Rb3 3.096859 1_556
O1 Se1 1.681386 1_555
O1 Rb1 3.086981 1_555
O1 Rb2 3.096859 1_555
O2 Se2 1.681386 1_555
O2 Rb2 3.086981 1_555
O2 Rb1 3.096859 1_554
O3 Se3 1.681386 1_555
O3 Rb3 3.086981 1_555
O3 Rb0 3.096859 1_555
O4 Se0 1.668923 1_554
O4 Rb3 3.193501 1_555
O4 Rb1 3.372668 1_554
O5 Se1 1.668923 1_555
O5 Rb2 3.193501 1_555
O5 Rb0 3.372668 1_545
O6 Se2 1.668923 1_556
O6 Rb1 3.193501 1_555
O6 Rb3 3.372668 1_556
O7 Se3 1.668923 1_555
O7 Rb0 3.193501 1_555
O7 Rb2 3.372668 1_565
O8 Se0 1.688231 1_555
O8 Rb1 2.954840 1_555
O9 Se1 1.688231 1_555
O9 Rb0 2.954840 1_545
O10 Se2 1.688231 1_555
O10 Rb3 2.954840 1_555
O11 Se3 1.688231 1_555
O11 Rb2 2.954840 1_565
O12 Se0 1.685159 1_555
O12 Rb3 3.008495 1_656
O13 Se1 1.685159 1_555
O13 Rb2 3.008495 1_455
O14 Se2 1.685159 1_555
O14 Rb1 3.008495 1_454
O15 Se3 1.685159 1_555
O15 Rb0 3.008495 1_655
O16 Rb0 3.371189 1_555
O17 Rb1 3.371189 1_555
O18 Rb2 3.371189 1_555
O19 Rb3 3.371189 1_555
O20 Rb3 3.260967 1_555
O21 Rb2 3.260967 1_555
O22 Rb1 3.260967 1_555
O23 Rb0 3.260967 1_555
