# generated using pymatgen
data_Mo3WSe8
_symmetry_space_group_name_H-M   'P 1'
_cell_length_a   3.32354577
_cell_length_b   3.32354577
_cell_length_c   37.82531500
_cell_angle_alpha   90.00000000
_cell_angle_beta   90.00000000
_cell_angle_gamma   119.99999540
_symmetry_Int_Tables_number   1
_chemical_formula_structural   Mo3WSe8
_chemical_formula_sum   'Mo3 W1 Se8'
_cell_volume   361.83996523
_cell_formula_units_Z   1
loop_
 _symmetry_equiv_pos_site_id
 _symmetry_equiv_pos_as_xyz
  1  'x, y, z'
loop_
 _atom_site_type_symbol
 _atom_site_label
 _atom_site_symmetry_multiplicity
 _atom_site_fract_x
 _atom_site_fract_y
 _atom_site_fract_z
 _atom_site_occupancy
  Mo  Mo0  1  0.00000000  0.00000000  0.09392100  1
  Mo  Mo1  1  0.33333300  0.66666700  0.28180000  1
  Mo  Mo2  1  0.33333300  0.66666700  0.65754100  1
  W  W0  1  0.00000000  0.00000000  0.46966000  1
  Se  Se0  1  0.00000000  0.00000000  0.32611300  1
  Se  Se1  1  0.00000000  0.00000000  0.70184100  1
  Se  Se2  1  0.33333300  0.66666700  0.04962300  1
  Se  Se3  1  0.33333300  0.66666700  0.42513800  1
  Se  Se4  1  0.33333300  0.66666700  0.13823000  1
  Se  Se5  1  0.33333300  0.66666700  0.51417700  1
  Se  Se6  1  0.00000000  0.00000000  0.23748200  1
  Se  Se7  1  0.00000000  0.00000000  0.61322300  1
loop_
_geom_bond_atom_site_label_1
_geom_bond_atom_site_label_2
_geom_bond_distance
_geom_bond_site_symmetry_2
Mo0 Se2 2.547463 1_545
Mo0 Se2 2.547465 1_445
Mo0 Se2 2.547465 1_555
Mo0 Se4 2.547736 1_545
Mo0 Se4 2.547739 1_555
Mo0 Se4 2.547739 1_445
Mo1 Se0 2.547836 1_565
Mo1 Se0 2.547838 1_555
Mo1 Se0 2.547838 1_665
Mo1 Se6 2.547960 1_565
Mo1 Se6 2.547963 1_665
Mo1 Se6 2.547963 1_555
Mo2 Se1 2.547512 1_565
Mo2 Se1 2.547515 1_555
Mo2 Se1 2.547515 1_665
Mo2 Se7 2.547960 1_565
Mo2 Se7 2.547963 1_555
Mo2 Se7 2.547963 1_665
Se3 W0 2.553044 1_565
Se3 W0 2.553046 1_665
Se3 W0 2.553046 1_555
Se5 W0 2.552919 1_565
Se5 W0 2.552921 1_555
Se5 W0 2.552921 1_665
