# generated using pymatgen
data_Dy5Ge3
_symmetry_space_group_name_H-M   'P 1'
_cell_length_a   6.39960932
_cell_length_b   8.46330207
_cell_length_c   8.46329263
_cell_angle_alpha   119.99974780
_cell_angle_beta   89.99999883
_cell_angle_gamma   90.00000407
_symmetry_Int_Tables_number   1
_chemical_formula_structural   Dy5Ge3
_chemical_formula_sum   'Dy10 Ge6'
_cell_volume   396.97613285
_cell_formula_units_Z   2
loop_
 _symmetry_equiv_pos_site_id
 _symmetry_equiv_pos_as_xyz
  1  'x, y, z'
loop_
 _atom_site_type_symbol
 _atom_site_label
 _atom_site_symmetry_multiplicity
 _atom_site_fract_x
 _atom_site_fract_y
 _atom_site_fract_z
 _atom_site_occupancy
  Dy  Dy0  1  0.50000027  0.33333222  0.66667196  1
  Dy  Dy1  1  0.50000028  0.66666041  0.33332804  1
  Dy  Dy2  1  0.99999958  0.66666736  0.33332808  1
  Dy  Dy3  1  0.99999959  0.33333910  0.66667196  1
  Dy  Dy4  1  0.75000342  0.24216403  0.99999991  1
  Dy  Dy5  1  0.74999834  0.75783153  0.75782915  1
  Dy  Dy6  1  0.74999825  0.00000298  0.24217096  1
  Dy  Dy7  1  0.25000339  0.75783464  0.99999947  1
  Dy  Dy8  1  0.24999835  0.24216903  0.24217135  1
  Dy  Dy9  1  0.24999911  0.99999789  0.75782824  1
  Ge  Ge0  1  0.74999584  0.60680292  0.00000051  1
  Ge  Ge1  1  0.75000170  0.39320045  0.39320193  1
  Ge  Ge2  1  0.75000168  0.00000141  0.60680063  1
  Ge  Ge3  1  0.24999580  0.39319587  0.99999784  1
  Ge  Ge4  1  0.25000170  0.60679885  0.60679879  1
  Ge  Ge5  1  0.25000170  0.00000032  0.39320016  1
loop_
_geom_bond_atom_site_label_1
_geom_bond_atom_site_label_2
_geom_bond_distance
_geom_bond_site_symmetry_2
Dy0 Ge3 3.057033 1_555
Dy0 Ge2 3.057042 1_555
Dy0 Ge0 3.057044 1_556
Dy0 Ge5 3.057073 1_555
Dy0 Ge4 3.057088 1_555
Dy0 Ge1 3.057097 1_555
Dy1 Ge0 3.057031 1_555
Dy1 Ge1 3.057053 1_555
Dy1 Ge4 3.057062 1_555
Dy1 Ge3 3.057066 1_554
Dy1 Ge5 3.057095 1_565
Dy1 Ge2 3.057127 1_565
Dy2 Ge0 3.057041 1_555
Dy2 Ge3 3.057056 1_654
Dy2 Ge5 3.057057 1_665
Dy2 Ge2 3.057083 1_565
Dy2 Ge1 3.057091 1_555
Dy2 Ge4 3.057105 1_655
Dy3 Ge3 3.057023 1_655
Dy3 Ge4 3.057051 1_655
Dy3 Ge1 3.057053 1_555
Dy3 Ge0 3.057055 1_556
Dy3 Ge2 3.057079 1_555
Dy3 Ge5 3.057117 1_655
Dy4 Ge2 2.907618 1_555
Dy4 Ge1 2.907636 1_556
Dy4 Ge0 3.086047 1_556
Dy4 Ge3 3.445624 1_655
Dy4 Ge3 3.445715 1_555
Dy5 Ge2 2.907610 1_565
Dy5 Ge0 2.907621 1_556
Dy5 Ge1 3.085977 1_555
Dy5 Ge4 3.445647 1_555
Dy5 Ge4 3.445687 1_655
Dy6 Ge1 2.907610 1_555
Dy6 Ge0 2.907635 1_545
Dy6 Ge2 3.085974 1_555
Dy6 Ge5 3.445641 1_555
Dy6 Ge5 3.445682 1_655
Dy7 Ge4 2.907626 1_555
Dy7 Ge5 2.907631 1_566
Dy7 Ge3 3.086041 1_555
Dy7 Ge0 3.445623 1_556
Dy7 Ge0 3.445712 1_456
Dy8 Ge5 2.907603 1_555
Dy8 Ge3 2.907626 1_554
Dy8 Ge4 3.085972 1_555
Dy8 Ge1 3.445645 1_455
Dy8 Ge1 3.445685 1_555
Dy9 Ge3 2.907620 1_565
Dy9 Ge4 2.907624 1_555
Dy9 Ge5 3.085964 1_565
Dy9 Ge2 3.445643 1_465
Dy9 Ge2 3.445673 1_565
