# generated using pymatgen
data_Ba3Sc(BO3)3
_symmetry_space_group_name_H-M   'P 1'
_cell_length_a   9.36296564
_cell_length_b   9.36296564
_cell_length_c   17.64879800
_cell_angle_alpha   90.00000000
_cell_angle_beta   90.00000000
_cell_angle_gamma   119.99999749
_symmetry_Int_Tables_number   1
_chemical_formula_structural   Ba3Sc(BO3)3
_chemical_formula_sum   'Ba18 Sc6 B18 O54'
_cell_volume   1339.90076397
_cell_formula_units_Z   6
loop_
 _symmetry_equiv_pos_site_id
 _symmetry_equiv_pos_as_xyz
  1  'x, y, z'
loop_
 _atom_site_type_symbol
 _atom_site_label
 _atom_site_symmetry_multiplicity
 _atom_site_fract_x
 _atom_site_fract_y
 _atom_site_fract_z
 _atom_site_occupancy
  Ba  Ba0  1  0.66666700  0.33333300  0.05857500  1
  Ba  Ba1  1  0.33333300  0.66666700  0.55857500  1
  Ba  Ba2  1  0.66666700  0.33333300  0.55857500  1
  Ba  Ba3  1  0.33333300  0.66666700  0.05857500  1
  Ba  Ba4  1  0.34760600  0.00000000  0.40699600  1
  Ba  Ba5  1  0.34760600  0.34760600  0.90699600  1
  Ba  Ba6  1  0.00000000  0.65239400  0.90699600  1
  Ba  Ba7  1  0.00000000  0.34760600  0.40699600  1
  Ba  Ba8  1  0.65239400  0.65239400  0.40699600  1
  Ba  Ba9  1  0.65239400  0.00000000  0.90699600  1
  Ba  Ba10  1  0.31819500  0.00000000  0.65432000  1
  Ba  Ba11  1  0.31819500  0.31819500  0.15432000  1
  Ba  Ba12  1  0.00000000  0.68180500  0.15432000  1
  Ba  Ba13  1  0.00000000  0.31819500  0.65432000  1
  Ba  Ba14  1  0.68180500  0.68180500  0.65432000  1
  Ba  Ba15  1  0.68180500  0.00000000  0.15432000  1
  Ba  Ba16  1  0.00000000  0.00000000  0.49703200  1
  Ba  Ba17  1  0.00000000  0.00000000  0.99703200  1
  Sc  Sc0  1  0.00000000  0.00000000  0.78410400  1
  Sc  Sc1  1  0.00000000  0.00000000  0.28410400  1
  Sc  Sc2  1  0.33333300  0.66666700  0.27729600  1
  Sc  Sc3  1  0.66666700  0.33333300  0.77729600  1
  Sc  Sc4  1  0.33333300  0.66666700  0.77729600  1
  Sc  Sc5  1  0.66666700  0.33333300  0.27729600  1
  B  B0  1  0.66090400  0.00000000  0.70762300  1
  B  B1  1  0.66090400  0.66090400  0.20762300  1
  B  B2  1  0.00000000  0.33909600  0.20762300  1
  B  B3  1  0.00000000  0.66090400  0.70762300  1
  B  B4  1  0.33909600  0.33909600  0.70762300  1
  B  B5  1  0.33909600  0.00000000  0.20762300  1
  B  B6  1  0.67246600  0.00000000  0.34821500  1
  B  B7  1  0.67246600  0.67246600  0.84821500  1
  B  B8  1  0.00000000  0.32753400  0.84821500  1
  B  B9  1  0.00000000  0.67246600  0.34821500  1
  B  B10  1  0.32753400  0.32753400  0.34821500  1
  B  B11  1  0.32753400  0.00000000  0.84821500  1
  B  B12  1  0.66736400  0.00000000  0.52942600  1
  B  B13  1  0.66736400  0.66736400  0.02942600  1
  B  B14  1  0.00000000  0.33263600  0.02942600  1
  B  B15  1  0.00000000  0.66736400  0.52942600  1
  B  B16  1  0.33263600  0.33263600  0.52942600  1
  B  B17  1  0.33263600  0.00000000  0.02942600  1
  O  O0  1  0.67272400  0.52394300  0.84406500  1
  O  O1  1  0.47605700  0.14878100  0.84406500  1
  O  O2  1  0.85121900  0.32727600  0.84406500  1
  O  O3  1  0.14878100  0.67272400  0.34406500  1
  O  O4  1  0.32727600  0.47605700  0.34406500  1
  O  O5  1  0.52394300  0.85121900  0.34406500  1
  O  O6  1  0.67272400  0.14878100  0.34406500  1
  O  O7  1  0.52394300  0.67272400  0.84406500  1
  O  O8  1  0.14878100  0.47605700  0.84406500  1
  O  O9  1  0.85121900  0.52394300  0.34406500  1
  O  O10  1  0.47605700  0.32727600  0.34406500  1
  O  O11  1  0.32727600  0.85121900  0.84406500  1
  O  O12  1  0.66726300  0.81590200  0.02984500  1
  O  O13  1  0.18409800  0.85136200  0.02984500  1
  O  O14  1  0.14863800  0.33273700  0.02984500  1
  O  O15  1  0.85136200  0.66726300  0.52984500  1
  O  O16  1  0.33273700  0.18409800  0.52984500  1
  O  O17  1  0.81590200  0.14863800  0.52984500  1
  O  O18  1  0.66726300  0.85136200  0.52984500  1
  O  O19  1  0.81590200  0.66726300  0.02984500  1
  O  O20  1  0.85136200  0.18409800  0.02984500  1
  O  O21  1  0.14863800  0.81590200  0.52984500  1
  O  O22  1  0.18409800  0.33273700  0.52984500  1
  O  O23  1  0.33273700  0.14863800  0.02984500  1
  O  O24  1  0.82021200  0.00000000  0.35797800  1
  O  O25  1  0.82021200  0.82021200  0.85797800  1
  O  O26  1  0.00000000  0.17978800  0.85797800  1
  O  O27  1  0.00000000  0.82021200  0.35797800  1
  O  O28  1  0.17978800  0.17978800  0.35797800  1
  O  O29  1  0.17978800  0.00000000  0.85797800  1
  O  O30  1  0.80944500  0.00000000  0.71650000  1
  O  O31  1  0.80944500  0.80944500  0.21650000  1
  O  O32  1  0.00000000  0.19055500  0.21650000  1
  O  O33  1  0.00000000  0.80944500  0.71650000  1
  O  O34  1  0.19055500  0.19055500  0.71650000  1
  O  O35  1  0.19055500  0.00000000  0.21650000  1
  O  O36  1  0.51873800  0.00000000  0.52931900  1
  O  O37  1  0.51873800  0.51873800  0.02931900  1
  O  O38  1  0.00000000  0.48126200  0.02931900  1
  O  O39  1  0.00000000  0.51873800  0.52931900  1
  O  O40  1  0.48126200  0.48126200  0.52931900  1
  O  O41  1  0.48126200  0.00000000  0.02931900  1
  O  O42  1  0.48732000  0.14909300  0.20210600  1
  O  O43  1  0.85090700  0.33822700  0.20210600  1
  O  O44  1  0.66177300  0.51268000  0.20210600  1
  O  O45  1  0.33822700  0.48732000  0.70210600  1
  O  O46  1  0.51268000  0.85090700  0.70210600  1
  O  O47  1  0.14909300  0.66177300  0.70210600  1
  O  O48  1  0.48732000  0.33822700  0.70210600  1
  O  O49  1  0.14909300  0.48732000  0.20210600  1
  O  O50  1  0.33822700  0.85090700  0.20210600  1
  O  O51  1  0.66177300  0.14909300  0.70210600  1
  O  O52  1  0.85090700  0.51268000  0.70210600  1
  O  O53  1  0.51268000  0.66177300  0.20210600  1
loop_
_geom_bond_atom_site_label_1
_geom_bond_atom_site_label_2
_geom_bond_distance
_geom_bond_site_symmetry_2
Ba0 O38 2.757316 1_655
Ba0 O41 2.757317 1_555
Ba0 O37 2.757324 1_555
Ba0 O20 2.759757 1_555
Ba0 O19 2.759758 1_555
Ba0 O23 2.759758 1_555
Ba0 O43 3.052153 1_555
Ba0 O42 3.052156 1_555
Ba0 O44 3.052159 1_555
Ba1 O39 2.757316 1_555
Ba1 O36 2.757317 1_565
Ba1 O40 2.757324 1_555
Ba1 O21 2.759757 1_555
Ba1 O22 2.759758 1_555
Ba1 O18 2.759758 1_555
Ba1 O47 3.052153 1_555
Ba1 O46 3.052156 1_555
Ba1 O45 3.052159 1_555
Ba2 O36 2.757316 1_555
Ba2 O39 2.757317 1_655
Ba2 O40 2.757324 1_555
Ba2 O17 2.759757 1_555
Ba2 O16 2.759758 1_555
Ba2 O15 2.759758 1_555
Ba2 O51 3.052153 1_555
Ba2 O52 3.052156 1_555
Ba2 O48 3.052159 1_555
Ba3 O41 2.757316 1_565
Ba3 O38 2.757317 1_555
Ba3 O37 2.757324 1_555
Ba3 O13 2.759757 1_555
Ba3 O12 2.759758 1_555
Ba3 O14 2.759758 1_555
Ba3 O50 3.052153 1_555
Ba3 O49 3.052156 1_555
Ba3 O53 3.052159 1_555
Ba4 O36 2.688499 1_555
Ba4 O16 2.816261 1_555
Ba4 O21 2.816264 1_545
Ba4 O5 2.863558 1_545
Ba4 O6 2.863558 1_555
Ba4 O10 2.895588 1_555
Ba4 O3 2.895588 1_545
Ba4 O28 2.948895 1_555
Ba4 O27 2.948895 1_545
Ba5 O37 2.688499 1_556
Ba5 O14 2.816267 1_556
Ba5 O23 2.816267 1_556
Ba5 O7 2.863558 1_555
Ba5 O0 2.863558 1_555
Ba5 O8 2.895588 1_555
Ba5 O1 2.895588 1_555
Ba5 O29 2.948895 1_555
Ba5 O26 2.948895 1_555
Ba6 O38 2.688499 1_556
Ba6 O19 2.816261 1_456
Ba6 O13 2.816264 1_556
Ba6 O8 2.863558 1_555
Ba6 O2 2.863558 1_455
Ba6 O0 2.895588 1_455
Ba6 O11 2.895588 1_555
Ba6 O25 2.948895 1_455
Ba6 O29 2.948895 1_565
Ba7 O39 2.688499 1_555
Ba7 O22 2.816261 1_555
Ba7 O17 2.816264 1_455
Ba7 O9 2.863558 1_455
Ba7 O3 2.863558 1_555
Ba7 O4 2.895588 1_555
Ba7 O6 2.895588 1_455
Ba7 O28 2.948895 1_555
Ba7 O24 2.948895 1_455
Ba8 O40 2.688499 1_555
Ba8 O15 2.816267 1_555
Ba8 O18 2.816267 1_555
Ba8 O10 2.863558 1_555
Ba8 O4 2.863558 1_555
Ba8 O9 2.895588 1_555
Ba8 O5 2.895588 1_555
Ba8 O27 2.948895 1_655
Ba8 O24 2.948895 1_565
Ba9 O41 2.688499 1_556
Ba9 O12 2.816261 1_546
Ba9 O20 2.816264 1_556
Ba9 O1 2.863558 1_555
Ba9 O11 2.863558 1_545
Ba9 O7 2.895588 1_545
Ba9 O2 2.895588 1_555
Ba9 O25 2.948895 1_545
Ba9 O26 2.948895 1_655
Ba10 O16 2.753376 1_555
Ba10 O21 2.753378 1_545
Ba10 O34 2.819217 1_555
Ba10 O33 2.819217 1_545
Ba10 O47 2.869280 1_545
Ba10 O48 2.869280 1_555
Ba10 O36 2.897003 1_555
Ba10 O46 2.918527 1_545
Ba10 O51 2.918527 1_555
Ba11 O14 2.753381 1_555
Ba11 O23 2.753381 1_555
Ba11 O35 2.819217 1_555
Ba11 O32 2.819217 1_555
Ba11 O42 2.869280 1_555
Ba11 O49 2.869280 1_555
Ba11 O37 2.897003 1_555
Ba11 O44 2.918527 1_555
Ba11 O53 2.918527 1_555
Ba12 O19 2.753376 1_455
Ba12 O13 2.753378 1_555
Ba12 O31 2.819217 1_455
Ba12 O35 2.819217 1_565
Ba12 O50 2.869280 1_555
Ba12 O44 2.869280 1_455
Ba12 O38 2.897003 1_555
Ba12 O49 2.918527 1_555
Ba12 O43 2.918527 1_455
Ba13 O22 2.753376 1_555
Ba13 O17 2.753378 1_455
Ba13 O34 2.819217 1_555
Ba13 O30 2.819217 1_455
Ba13 O51 2.869280 1_455
Ba13 O45 2.869280 1_555
Ba13 O39 2.897003 1_555
Ba13 O52 2.918527 1_455
Ba13 O47 2.918527 1_555
Ba14 O15 2.753381 1_555
Ba14 O18 2.753381 1_555
Ba14 O30 2.819217 1_565
Ba14 O33 2.819217 1_655
Ba14 O46 2.869280 1_555
Ba14 O52 2.869280 1_555
Ba14 O40 2.897003 1_555
Ba14 O45 2.918527 1_555
Ba14 O48 2.918527 1_555
Ba15 O12 2.753376 1_545
Ba15 O20 2.753378 1_555
Ba15 O31 2.819217 1_545
Ba15 O32 2.819217 1_655
Ba15 O43 2.869280 1_555
Ba15 O53 2.869280 1_545
Ba15 O41 2.897003 1_555
Ba15 O42 2.918527 1_555
Ba15 O50 2.918527 1_545
Ba16 O17 2.764452 1_455
Ba16 O21 2.764452 1_545
Ba16 O22 2.764460 1_555
Ba16 O16 2.764460 1_555
Ba16 O18 2.764460 1_445
Ba16 O15 2.764460 1_445
Ba16 O27 2.975978 1_545
Ba16 O24 2.975978 1_455
Ba16 O28 2.975978 1_555
Ba17 O13 2.764452 1_546
Ba17 O20 2.764452 1_456
Ba17 O19 2.764460 1_446
Ba17 O12 2.764460 1_446
Ba17 O23 2.764460 1_556
Ba17 O14 2.764460 1_556
Ba17 O29 2.975978 1_555
Ba17 O26 2.975978 1_555
Ba17 O25 2.975978 1_445
B0 O51 1.395304 1_555
B0 O46 1.395304 1_545
B0 O30 1.399581 1_555
B1 O44 1.395304 1_555
B1 O53 1.395304 1_555
B1 O31 1.399581 1_555
B2 O43 1.395304 1_455
B2 O49 1.395304 1_555
B2 O32 1.399581 1_555
B3 O47 1.395304 1_555
B3 O52 1.395304 1_455
B3 O33 1.399581 1_555
B4 O48 1.395304 1_555
B4 O45 1.395304 1_555
B4 O34 1.399581 1_555
B5 O50 1.395304 1_545
B5 O42 1.395304 1_555
B5 O35 1.399581 1_555
B6 O6 1.393751 1_555
B6 O5 1.393751 1_545
B6 O24 1.394030 1_555
B7 O7 1.393751 1_555
B7 O0 1.393751 1_555
B7 O25 1.394030 1_555
B8 O2 1.393751 1_455
B8 O8 1.393751 1_555
B8 O26 1.394030 1_555
B9 O3 1.393751 1_555
B9 O9 1.393751 1_455
B9 O27 1.394030 1_555
B10 O10 1.393751 1_555
B10 O4 1.393751 1_555
B10 O28 1.394030 1_555
B11 O11 1.393751 1_545
B11 O1 1.393751 1_555
B11 O29 1.394030 1_555
B12 O18 1.391240 1_545
B12 O17 1.391244 1_555
B12 O36 1.391581 1_555
B13 O12 1.391249 1_555
B13 O19 1.391249 1_555
B13 O37 1.391581 1_555
B14 O14 1.391240 1_555
B14 O20 1.391244 1_455
B14 O38 1.391581 1_555
B15 O15 1.391240 1_455
B15 O21 1.391244 1_555
B15 O39 1.391581 1_555
B16 O16 1.391249 1_555
B16 O22 1.391249 1_555
B16 O40 1.391581 1_555
B17 O23 1.391240 1_555
B17 O13 1.391244 1_545
B17 O41 1.391581 1_555
O0 Sc3 2.115580 1_555
O1 Sc3 2.115576 1_555
O2 Sc3 2.115572 1_555
O3 Sc2 2.115572 1_555
O4 Sc2 2.115580 1_555
O5 Sc2 2.115576 1_555
O6 Sc5 2.115572 1_555
O7 Sc4 2.115580 1_555
O8 Sc4 2.115576 1_555
O9 Sc5 2.115576 1_555
O10 Sc5 2.115580 1_555
O11 Sc4 2.115572 1_555
O24 Sc1 2.129208 1_655
O25 Sc0 2.129208 1_665
O26 Sc0 2.129208 1_555
O27 Sc1 2.129208 1_565
O28 Sc1 2.129208 1_555
O29 Sc0 2.129208 1_555
O30 Sc0 2.146342 1_655
O31 Sc1 2.146342 1_665
O32 Sc1 2.146342 1_555
O33 Sc0 2.146342 1_565
O34 Sc0 2.146342 1_555
O35 Sc1 2.146342 1_555
O42 Sc5 2.158651 1_555
O43 Sc5 2.158647 1_555
O44 Sc5 2.158654 1_555
O45 Sc4 2.158654 1_555
O46 Sc4 2.158651 1_555
O47 Sc4 2.158647 1_555
O48 Sc3 2.158654 1_555
O49 Sc2 2.158651 1_555
O50 Sc2 2.158647 1_555
O51 Sc3 2.158647 1_555
O52 Sc3 2.158651 1_555
O53 Sc2 2.158654 1_555
