# generated using pymatgen
data_CsMg14Ga
_symmetry_space_group_name_H-M   'P 1'
_cell_length_a   6.52565024
_cell_length_b   6.52564968
_cell_length_c   10.81221918
_cell_angle_alpha   90.00000000
_cell_angle_beta   90.00000000
_cell_angle_gamma   120.00000283
_symmetry_Int_Tables_number   1
_chemical_formula_structural   CsMg14Ga
_chemical_formula_sum   'Cs1 Mg14 Ga1'
_cell_volume   398.74294203
_cell_formula_units_Z   1
loop_
 _symmetry_equiv_pos_site_id
 _symmetry_equiv_pos_as_xyz
  1  'x, y, z'
loop_
 _atom_site_type_symbol
 _atom_site_label
 _atom_site_symmetry_multiplicity
 _atom_site_fract_x
 _atom_site_fract_y
 _atom_site_fract_z
 _atom_site_occupancy
  Cs  Cs0  1  0.16666700  0.33333300  0.12500000  1
  Mg  Mg0  1  0.17226392  0.83613146  0.12500000  1
  Mg  Mg1  1  0.16093575  0.83046738  0.62500000  1
  Mg  Mg2  1  0.66386854  0.32773608  0.12500000  1
  Mg  Mg3  1  0.66953262  0.33906425  0.62500000  1
  Mg  Mg4  1  0.66386854  0.83613146  0.12500000  1
  Mg  Mg5  1  0.66953262  0.83046738  0.62500000  1
  Mg  Mg6  1  0.33753887  0.16246113  0.39533268  1
  Mg  Mg7  1  0.33753887  0.16246113  0.85466732  1
  Mg  Mg8  1  0.33753887  0.67507873  0.39533268  1
  Mg  Mg9  1  0.33753887  0.67507873  0.85466732  1
  Mg  Mg10  1  0.82492127  0.16246113  0.39533268  1
  Mg  Mg11  1  0.82492127  0.16246113  0.85466732  1
  Mg  Mg12  1  0.83333300  0.66666700  0.36978260  1
  Mg  Mg13  1  0.83333300  0.66666700  0.88021740  1
  Ga  Ga0  1  0.16666700  0.33333300  0.62500000  1
loop_
_geom_bond_atom_site_label_1
_geom_bond_atom_site_label_2
_geom_bond_distance
_geom_bond_site_symmetry_2
Cs0 Mg0 3.262978 1_555
Cs0 Mg4 3.262978 1_555
Cs0 Mg4 3.262978 1_445
Cs0 Mg0 3.262978 1_545
Cs0 Mg2 3.262978 1_455
Cs0 Mg2 3.262978 1_555
Cs0 Mg6 3.503332 1_555
Cs0 Mg7 3.503332 1_554
Cs0 Mg9 3.503338 1_554
Cs0 Mg8 3.503338 1_555
Cs0 Mg10 3.503338 1_455
Cs0 Mg11 3.503338 1_454
Mg0 Mg12 3.267045 1_455
Mg0 Mg13 3.267045 1_454
Mg0 Mg8 3.456095 1_555
Mg0 Mg9 3.456095 1_554
Mg0 Mg6 3.456101 1_565
Mg0 Mg7 3.456101 1_564
Mg1 Mg8 3.113087 1_555
Mg1 Mg9 3.113087 1_555
Mg1 Mg6 3.113093 1_565
Mg1 Mg7 3.113093 1_565
Mg1 Mg3 3.206725 1_455
Mg1 Mg5 3.206725 1_455
Mg1 Mg3 3.318925 1_565
Mg1 Mg5 3.318925 1_555
Mg1 Mg13 3.323005 1_455
Mg1 Mg12 3.323005 1_455
Mg2 Mg6 3.456101 1_555
Mg2 Mg7 3.456101 1_554
Mg3 Mg7 3.113093 1_555
Mg3 Mg6 3.113093 1_555
Mg3 Mg5 3.206725 1_555
Mg3 Mg5 3.318925 1_545
Mg4 Mg8 3.456101 1_555
Mg4 Mg9 3.456101 1_554
Mg5 Mg9 3.113094 1_555
Mg5 Mg8 3.113094 1_555
Mg6 Mg8 3.180487 1_545
Mg6 Mg8 3.345163 1_555
Mg7 Mg9 3.180487 1_545
Mg7 Mg9 3.345163 1_555
Mg10 Mg3 3.113087 1_555
Mg10 Mg5 3.113093 1_545
Mg10 Mg8 3.180487 1_545
Mg10 Mg6 3.180487 1_555
Mg10 Mg12 3.274844 1_545
Mg10 Mg12 3.274844 1_555
Mg10 Mg8 3.345163 1_655
Mg10 Mg6 3.345163 1_655
Mg10 Mg2 3.456095 1_555
Mg10 Mg4 3.456101 1_545
Mg11 Mg3 3.113087 1_555
Mg11 Mg5 3.113093 1_545
Mg11 Mg9 3.180487 1_545
Mg11 Mg7 3.180487 1_555
Mg11 Mg13 3.274844 1_545
Mg11 Mg13 3.274844 1_555
Mg11 Mg9 3.345163 1_655
Mg11 Mg7 3.345163 1_655
Mg11 Mg2 3.456095 1_556
Mg11 Mg4 3.456101 1_546
Mg12 Mg4 3.267038 1_555
Mg12 Mg2 3.267044 1_555
Mg12 Mg6 3.274844 1_555
Mg12 Mg6 3.274844 1_665
Mg12 Mg8 3.274844 1_555
Mg12 Mg8 3.274844 1_655
Mg12 Mg5 3.322999 1_555
Mg12 Mg3 3.323005 1_555
Mg13 Mg4 3.267038 1_556
Mg13 Mg2 3.267044 1_556
Mg13 Mg7 3.274844 1_555
Mg13 Mg7 3.274844 1_665
Mg13 Mg9 3.274844 1_555
Mg13 Mg9 3.274844 1_655
Mg13 Mg5 3.322999 1_555
Mg13 Mg3 3.323005 1_555
Ga0 Mg7 3.145848 1_555
Ga0 Mg6 3.145848 1_555
Ga0 Mg9 3.145855 1_555
Ga0 Mg8 3.145855 1_555
Ga0 Mg10 3.145855 1_455
Ga0 Mg11 3.145855 1_455
Ga0 Mg1 3.262986 1_545
Ga0 Mg5 3.262986 1_445
Ga0 Mg5 3.262986 1_555
Ga0 Mg1 3.262986 1_555
Ga0 Mg3 3.262986 1_555
Ga0 Mg3 3.262986 1_455
