# generated using pymatgen
data_Tm5Ru2
_symmetry_space_group_name_H-M   'P 1'
_cell_length_a   6.24079100
_cell_length_b   7.24175385
_cell_length_c   8.36664666
_cell_angle_alpha   96.68410281
_cell_angle_beta   111.89807376
_cell_angle_gamma   90.00000000
_symmetry_Int_Tables_number   1
_chemical_formula_structural   Tm5Ru2
_chemical_formula_sum   'Tm10 Ru4'
_cell_volume   348.07085809
_cell_formula_units_Z   2
loop_
 _symmetry_equiv_pos_site_id
 _symmetry_equiv_pos_as_xyz
  1  'x, y, z'
loop_
 _atom_site_type_symbol
 _atom_site_label
 _atom_site_symmetry_multiplicity
 _atom_site_fract_x
 _atom_site_fract_y
 _atom_site_fract_z
 _atom_site_occupancy
  Tm  Tm0  1  0.79091800  0.08404200  0.81335200  1
  Tm  Tm1  1  0.97756600  0.41595800  0.18664800  1
  Tm  Tm2  1  0.20908200  0.91595800  0.18664800  1
  Tm  Tm3  1  0.02243400  0.58404200  0.81335200  1
  Tm  Tm4  1  0.20559800  0.18448100  0.56503500  1
  Tm  Tm5  1  0.64056300  0.31551900  0.43496500  1
  Tm  Tm6  1  0.79440200  0.81551900  0.43496500  1
  Tm  Tm7  1  0.35943700  0.68448100  0.56503500  1
  Tm  Tm8  1  0.41818200  0.25000000  0.00000000  1
  Tm  Tm9  1  0.58181800  0.75000000  0.00000000  1
  Ru  Ru0  1  0.60278300  0.42366800  0.78039500  1
  Ru  Ru1  1  0.82238700  0.07633200  0.21960500  1
  Ru  Ru2  1  0.39721700  0.57633200  0.21960500  1
  Ru  Ru3  1  0.17761300  0.92366800  0.78039500  1
loop_
_geom_bond_atom_site_label_1
_geom_bond_atom_site_label_2
_geom_bond_distance
_geom_bond_site_symmetry_2
Ru0 Tm0 2.723974 1_555
Ru0 Tm3 2.769579 1_655
Ru0 Tm7 2.805613 1_555
Ru0 Tm9 2.854175 1_556
Ru0 Tm4 2.886709 1_555
Ru0 Tm8 2.898561 1_556
Ru0 Tm5 3.000493 1_555
Ru0 Tm1 3.337808 1_556
Ru1 Tm1 2.723977 1_555
Ru1 Tm2 2.769585 1_645
Ru1 Tm6 2.805611 1_545
Ru1 Tm9 2.854173 1_545
Ru1 Tm5 2.886705 1_555
Ru1 Tm8 2.898557 1_555
Ru1 Tm4 3.000496 1_655
Ru1 Tm0 3.337811 1_554
Ru2 Tm2 2.723974 1_555
Ru2 Tm1 2.769579 1_455
Ru2 Tm5 2.805613 1_555
Ru2 Tm8 2.854175 1_555
Ru2 Tm6 2.886709 1_555
Ru2 Tm9 2.898561 1_555
Ru2 Tm7 3.000493 1_555
Ru2 Tm3 3.337808 1_554
Ru3 Tm3 2.723977 1_555
Ru3 Tm0 2.769585 1_465
Ru3 Tm4 2.805611 1_565
Ru3 Tm8 2.854173 1_566
Ru3 Tm7 2.886705 1_555
Ru3 Tm9 2.898557 1_556
Ru3 Tm6 3.000496 1_455
Ru3 Tm2 3.337811 1_556
