# generated using pymatgen
data_Na2Fe7(PO4)6
_symmetry_space_group_name_H-M   'P 1'
_cell_length_a   6.56557900
_cell_length_b   8.52478616
_cell_length_c   8.77107778
_cell_angle_alpha   92.87333061
_cell_angle_beta   107.35730176
_cell_angle_gamma   106.07950357
_symmetry_Int_Tables_number   1
_chemical_formula_structural   Na2Fe7(PO4)6
_chemical_formula_sum   'Na2 Fe7 P6 O24'
_cell_volume   445.49063186
_cell_formula_units_Z   1
loop_
 _symmetry_equiv_pos_site_id
 _symmetry_equiv_pos_as_xyz
  1  'x, y, z'
loop_
 _atom_site_type_symbol
 _atom_site_label
 _atom_site_symmetry_multiplicity
 _atom_site_fract_x
 _atom_site_fract_y
 _atom_site_fract_z
 _atom_site_occupancy
  Na  Na0  1  0.24878400  0.97978100  0.02172300  1
  Na  Na1  1  0.75121600  0.02021900  0.97827700  1
  Fe  Fe0  1  0.62992300  0.05876600  0.38477100  1
  Fe  Fe1  1  0.87136600  0.62000200  0.94323400  1
  Fe  Fe2  1  0.37007700  0.94123400  0.61522900  1
  Fe  Fe3  1  0.12863400  0.37999800  0.05676600  1
  Fe  Fe4  1  0.74839700  0.72853500  0.27233600  1
  Fe  Fe5  1  0.25160300  0.27146500  0.72766400  1
  Fe  Fe6  1  0.00000000  0.50000000  0.50000000  1
  P  P0  1  0.11603900  0.12858800  0.34100200  1
  P  P1  1  0.36889800  0.65875700  0.87201000  1
  P  P2  1  0.88396100  0.87141200  0.65899800  1
  P  P3  1  0.63110200  0.34124300  0.12799000  1
  P  P4  1  0.24603300  0.70235000  0.29221300  1
  P  P5  1  0.75396700  0.29765000  0.70778700  1
  O  O0  1  0.61228100  0.16588700  0.17363200  1
  O  O1  1  0.89299300  0.83075300  0.83140300  1
  O  O2  1  0.38771900  0.83411300  0.82636800  1
  O  O3  1  0.10700700  0.16924700  0.16859700  1
  O  O4  1  0.68831300  0.94853400  0.59835800  1
  O  O5  1  0.80762300  0.38953400  0.03957000  1
  O  O6  1  0.31168700  0.05146600  0.40164200  1
  O  O7  1  0.19237700  0.61046600  0.96043000  1
  O  O8  1  0.46102200  0.82096600  0.27116500  1
  O  O9  1  0.03560900  0.73960100  0.17756500  1
  O  O10  1  0.53897800  0.17903400  0.72883500  1
  O  O11  1  0.96439100  0.26039900  0.82243500  1
  O  O12  1  0.70971600  0.47358300  0.28006700  1
  O  O13  1  0.85166600  0.72440200  0.53615700  1
  O  O14  1  0.29028400  0.52641700  0.71993300  1
  O  O15  1  0.14833400  0.27559800  0.46384300  1
  O  O16  1  0.76714200  0.27502600  0.53382100  1
  O  O17  1  0.75428300  0.47533800  0.73691200  1
  O  O18  1  0.23285800  0.72497400  0.46617900  1
  O  O19  1  0.24571700  0.52466200  0.26308800  1
  O  O20  1  0.88920200  0.99096100  0.32174800  1
  O  O21  1  0.60082900  0.66705200  0.99408400  1
  O  O22  1  0.11079800  0.00903900  0.67825200  1
  O  O23  1  0.39917100  0.33294800  0.00591600  1
loop_
_geom_bond_atom_site_label_1
_geom_bond_atom_site_label_2
_geom_bond_distance
_geom_bond_site_symmetry_2
Na0 O1 2.382052 1_454
Na0 O0 2.404455 1_565
Na0 O3 2.544504 1_565
Na0 O2 2.580089 1_554
Na0 O9 2.802533 1_555
Na0 O8 2.843317 1_555
Na0 O22 2.920759 1_564
Na0 O23 2.921495 1_565
Na1 O3 2.382052 1_656
Na1 O2 2.404455 1_545
Na1 O1 2.544504 1_545
Na1 O0 2.580089 1_556
Na1 O11 2.802533 1_555
Na1 O10 2.843317 1_555
Na1 O20 2.920759 1_546
Na1 O21 2.921495 1_545
Fe0 O16 2.013726 1_555
Fe0 O8 2.055495 1_545
Fe0 O0 2.092144 1_555
Fe0 O4 2.118285 1_545
Fe0 O6 2.122440 1_555
Fe0 O20 2.147569 1_545
Fe1 O17 1.951349 1_555
Fe1 O9 2.070074 1_656
Fe1 O1 2.080516 1_555
Fe1 O21 2.089065 1_555
Fe1 O7 2.092343 1_655
Fe1 O5 2.161271 1_556
Fe2 O18 2.013726 1_555
Fe2 O10 2.055495 1_565
Fe2 O2 2.092144 1_555
Fe2 O6 2.118285 1_565
Fe2 O4 2.122440 1_555
Fe2 O22 2.147569 1_565
Fe3 O19 1.951349 1_555
Fe3 O11 2.070074 1_454
Fe3 O3 2.080516 1_555
Fe3 O23 2.089065 1_555
Fe3 O5 2.092343 1_455
Fe3 O7 2.161271 1_554
Fe4 O12 2.124172 1_555
Fe4 O20 2.136658 1_555
Fe4 O13 2.213777 1_555
Fe4 O8 2.234664 1_555
Fe4 O9 2.258397 1_655
Fe4 O21 2.312877 1_554
Fe5 O14 2.124172 1_555
Fe5 O22 2.136658 1_555
Fe5 O15 2.213777 1_555
Fe5 O10 2.234664 1_555
Fe5 O11 2.258397 1_455
Fe5 O23 2.312877 1_556
Fe6 O16 2.192479 1_455
Fe6 O18 2.192479 1_555
Fe6 O14 2.220222 1_555
Fe6 O12 2.220222 1_455
Fe6 O15 2.421574 1_555
Fe6 O13 2.421574 1_455
O0 P3 1.548343 1_555
O1 P2 1.555881 1_555
O2 P1 1.548343 1_555
O3 P0 1.555881 1_555
O4 P2 1.568568 1_555
O5 P3 1.555035 1_555
O6 P0 1.568568 1_555
O7 P1 1.555035 1_555
O8 P4 1.559655 1_555
O9 P4 1.570624 1_555
O10 P5 1.559655 1_555
O11 P5 1.570624 1_555
O12 P3 1.560190 1_555
O13 P2 1.535432 1_555
O14 P1 1.560190 1_555
O15 P0 1.535432 1_555
O16 P5 1.559310 1_555
O17 P5 1.522789 1_555
O18 P4 1.559310 1_555
O19 P4 1.522789 1_555
O20 P0 1.576460 1_665
O21 P1 1.558904 1_555
O22 P2 1.576460 1_445
O23 P3 1.558904 1_555
