# generated using pymatgen
data_AlV3O6
_symmetry_space_group_name_H-M   'P 1'
_cell_length_a   5.94952407
_cell_length_b   5.94952407
_cell_length_c   14.68551700
_cell_angle_alpha   90.00000000
_cell_angle_beta   90.00000000
_cell_angle_gamma   120.00000073
_symmetry_Int_Tables_number   1
_chemical_formula_structural   AlV3O6
_chemical_formula_sum   'Al4 V12 O24'
_cell_volume   450.17805450
_cell_formula_units_Z   4
loop_
 _symmetry_equiv_pos_site_id
 _symmetry_equiv_pos_as_xyz
  1  'x, y, z'
loop_
 _atom_site_type_symbol
 _atom_site_label
 _atom_site_symmetry_multiplicity
 _atom_site_fract_x
 _atom_site_fract_y
 _atom_site_fract_z
 _atom_site_occupancy
  Al  Al0  1  0.00000000  0.00000000  0.87134000  1
  Al  Al1  1  0.33333300  0.66666700  0.54415800  1
  Al  Al2  1  0.00000000  0.00000000  0.12866000  1
  Al  Al3  1  0.66666700  0.33333300  0.45584200  1
  V  V0  1  0.82934600  0.65869100  0.66873800  1
  V  V1  1  0.50000000  0.00000000  0.00000000  1
  V  V2  1  0.17065400  0.34130900  0.33126200  1
  V  V3  1  0.82934600  0.17065400  0.66873800  1
  V  V4  1  0.50000000  0.50000000  0.00000000  1
  V  V5  1  0.17065400  0.82934600  0.33126200  1
  V  V6  1  0.66666700  0.33333300  0.82798400  1
  V  V7  1  0.33333300  0.66666700  0.17201600  1
  V  V8  1  0.00000000  0.00000000  0.50000000  1
  V  V9  1  0.34130900  0.17065400  0.66873800  1
  V  V10  1  0.00000000  0.50000000  0.00000000  1
  V  V11  1  0.65869100  0.82934600  0.33126200  1
  O  O0  1  0.00000000  0.00000000  0.74775700  1
  O  O1  1  0.66666700  0.33333300  0.06331900  1
  O  O2  1  0.33333300  0.66666700  0.42193900  1
  O  O3  1  0.96305300  0.48152600  0.74141000  1
  O  O4  1  0.66321700  0.83160800  0.08627900  1
  O  O5  1  0.32629600  0.16314800  0.41737700  1
  O  O6  1  0.51847400  0.03694700  0.74141000  1
  O  O7  1  0.16839200  0.33678300  0.08627900  1
  O  O8  1  0.83685200  0.67370400  0.41737700  1
  O  O9  1  0.51847400  0.48152600  0.74141000  1
  O  O10  1  0.16839200  0.83160800  0.08627900  1
  O  O11  1  0.83685200  0.16314800  0.41737700  1
  O  O12  1  0.33678300  0.16839200  0.91372100  1
  O  O13  1  0.03694700  0.51847400  0.25859000  1
  O  O14  1  0.67370400  0.83685200  0.58262300  1
  O  O15  1  0.33333300  0.66666700  0.93668100  1
  O  O16  1  0.00000000  0.00000000  0.25224300  1
  O  O17  1  0.66666700  0.33333300  0.57806100  1
  O  O18  1  0.83160800  0.66321700  0.91372100  1
  O  O19  1  0.48152600  0.96305300  0.25859000  1
  O  O20  1  0.16314800  0.32629600  0.58262300  1
  O  O21  1  0.83160800  0.16839200  0.91372100  1
  O  O22  1  0.48152600  0.51847400  0.25859000  1
  O  O23  1  0.16314800  0.83685200  0.58262300  1
loop_
_geom_bond_atom_site_label_1
_geom_bond_atom_site_label_2
_geom_bond_distance
_geom_bond_site_symmetry_2
Al0 O0 1.814880 1_555
Al0 O12 1.843494 1_555
Al0 O18 1.843494 1_445
Al0 O21 1.843499 1_455
Al1 O2 1.794849 1_555
Al1 O23 1.842465 1_555
Al1 O14 1.842470 1_555
Al1 O20 1.842470 1_555
Al2 O16 1.814880 1_555
Al2 O7 1.843494 1_555
Al2 O4 1.843494 1_445
Al2 O10 1.843499 1_545
Al3 O17 1.794849 1_555
Al3 O11 1.842465 1_555
Al3 O8 1.842470 1_555
Al3 O5 1.842470 1_555
O0 V3 2.106934 1_455
O0 V0 2.106939 1_445
O0 V9 2.106939 1_555
O1 V1 1.953047 1_555
O1 V10 1.953047 1_655
O1 V4 1.953052 1_555
O2 V11 2.140919 1_555
O2 V2 2.140919 1_555
O2 V5 2.140919 1_555
O3 V3 1.929063 1_555
O3 V0 1.929063 1_555
O3 V6 1.987079 1_555
O4 V7 2.115258 1_555
O4 V4 2.127190 1_555
O4 V1 2.127194 1_565
O5 V8 2.073342 1_555
O5 V5 2.135848 1_545
O5 V2 2.135852 1_555
O6 V3 1.929063 1_555
O6 V9 1.929063 1_555
O6 V6 1.987079 1_555
O7 V7 2.115258 1_555
O7 V4 2.127190 1_555
O7 V10 2.127194 1_555
O8 V8 2.073342 1_665
O8 V5 2.135848 1_655
O8 V11 2.135852 1_555
O9 V0 1.929063 1_555
O9 V9 1.929063 1_555
O9 V6 1.987079 1_555
O10 V7 2.115250 1_555
O10 V10 2.127190 1_555
O10 V1 2.127190 1_565
O11 V8 2.073342 1_655
O11 V11 2.135848 1_545
O11 V2 2.135848 1_655
O12 V6 2.115258 1_555
O12 V4 2.127190 1_556
O12 V1 2.127194 1_556
O13 V5 1.929063 1_555
O13 V2 1.929063 1_555
O13 V7 1.987079 1_555
O14 V8 2.073342 1_665
O14 V3 2.135848 1_565
O14 V0 2.135852 1_555
O15 V1 1.953047 1_566
O15 V10 1.953047 1_556
O15 V4 1.953052 1_556
O16 V5 2.106934 1_545
O16 V11 2.106939 1_445
O16 V2 2.106939 1_555
O17 V9 2.140919 1_555
O17 V0 2.140919 1_555
O17 V3 2.140919 1_555
O18 V6 2.115258 1_555
O18 V4 2.127190 1_556
O18 V10 2.127194 1_656
O19 V5 1.929063 1_555
O19 V11 1.929063 1_555
O19 V7 1.987079 1_555
O20 V8 2.073342 1_555
O20 V3 2.135848 1_455
O20 V9 2.135852 1_555
O21 V6 2.115250 1_555
O21 V1 2.127190 1_556
O21 V10 2.127190 1_656
O22 V11 1.929063 1_555
O22 V2 1.929063 1_555
O22 V7 1.987079 1_555
O23 V8 2.073342 1_565
O23 V0 2.135848 1_455
O23 V9 2.135848 1_565
