# generated using pymatgen
data_BaNb4CrO12
_symmetry_space_group_name_H-M   'P 1'
_cell_length_a   5.60797713
_cell_length_b   5.60797713
_cell_length_c   8.01946676
_cell_angle_alpha   90.00000000
_cell_angle_beta   90.00000000
_cell_angle_gamma   92.10965266
_symmetry_Int_Tables_number   1
_chemical_formula_structural   BaNb4CrO12
_chemical_formula_sum   'Ba1 Nb4 Cr1 O12'
_cell_volume   252.03653358
_cell_formula_units_Z   1
loop_
 _symmetry_equiv_pos_site_id
 _symmetry_equiv_pos_as_xyz
  1  'x, y, z'
loop_
 _atom_site_type_symbol
 _atom_site_label
 _atom_site_symmetry_multiplicity
 _atom_site_fract_x
 _atom_site_fract_y
 _atom_site_fract_z
 _atom_site_occupancy
  Ba  Ba0  1  0.47681431  0.52318569  0.00000000  1
  Nb  Nb0  1  0.49034066  0.01879651  0.25524543  1
  Nb  Nb1  1  0.49034066  0.01879651  0.74475457  1
  Nb  Nb2  1  0.98120349  0.50965934  0.74475457  1
  Nb  Nb3  1  0.98120349  0.50965934  0.25524543  1
  Cr  Cr0  1  0.03509178  0.96490822  0.50000000  1
  O  O0  1  0.28944647  0.28059892  0.25845182  1
  O  O1  1  0.71940108  0.71055353  0.25845182  1
  O  O2  1  0.71940108  0.71055353  0.74154818  1
  O  O3  1  0.28944647  0.28059892  0.74154818  1
  O  O4  1  0.22668788  0.77331212  0.21847535  1
  O  O5  1  0.80440582  0.19559418  0.31073811  1
  O  O6  1  0.80440582  0.19559418  0.68926189  1
  O  O7  1  0.22668788  0.77331212  0.78152465  1
  O  O8  1  0.53534801  0.03373684  0.00000000  1
  O  O9  1  0.41070780  0.96469586  0.50000000  1
  O  O10  1  0.96626316  0.46465199  -0.00000000  1
  O  O11  1  0.03530414  0.58929220  0.50000000  1
loop_
_geom_bond_atom_site_label_1
_geom_bond_atom_site_label_2
_geom_bond_distance
_geom_bond_site_symmetry_2
Ba0 O1 2.673097 1_555
Ba0 O2 2.673097 1_554
Ba0 O0 2.673097 1_555
Ba0 O3 2.673097 1_554
Ba0 O7 2.673895 1_554
Ba0 O4 2.673895 1_555
Ba0 O10 2.776349 1_555
Ba0 O8 2.776349 1_555
Ba0 O10 2.869884 1_455
Ba0 O8 2.869884 1_565
Nb0 O0 1.883414 1_555
Nb0 O4 2.004607 1_545
Nb0 O9 2.033247 1_545
Nb0 O5 2.038278 1_555
Nb0 O8 2.063759 1_555
Nb0 O1 2.191433 1_545
Nb1 O3 1.883414 1_555
Nb1 O7 2.004607 1_545
Nb1 O9 2.033247 1_545
Nb1 O6 2.038278 1_555
Nb1 O8 2.063759 1_556
Nb1 O2 2.191433 1_545
Nb2 O2 1.883414 1_555
Nb2 O7 2.004607 1_655
Nb2 O11 2.033247 1_655
Nb2 O6 2.038278 1_555
Nb2 O10 2.063759 1_556
Nb2 O3 2.191433 1_655
Nb3 O1 1.883414 1_555
Nb3 O4 2.004607 1_655
Nb3 O11 2.033247 1_655
Nb3 O5 2.038278 1_555
Nb3 O10 2.063759 1_555
Nb3 O0 2.191433 1_655
Cr0 O9 2.106490 1_555
Cr0 O11 2.106490 1_555
Cr0 O5 2.402935 1_465
Cr0 O6 2.402935 1_465
