# generated using pymatgen
data_CsVNiF6
_symmetry_space_group_name_H-M   'P 1'
_cell_length_a   7.43357711
_cell_length_b   7.43357711
_cell_length_c   7.43357711
_cell_angle_alpha   120.79358115
_cell_angle_beta   118.60995246
_cell_angle_gamma   90.52764478
_symmetry_Int_Tables_number   1
_chemical_formula_structural   CsVNiF6
_chemical_formula_sum   'Cs2 V2 Ni2 F12'
_cell_volume   291.61976382
_cell_formula_units_Z   2
loop_
 _symmetry_equiv_pos_site_id
 _symmetry_equiv_pos_as_xyz
  1  'x, y, z'
loop_
 _atom_site_type_symbol
 _atom_site_label
 _atom_site_symmetry_multiplicity
 _atom_site_fract_x
 _atom_site_fract_y
 _atom_site_fract_z
 _atom_site_occupancy
  Cs  Cs0  1  0.37237400  0.12237400  0.25000000  1
  Cs  Cs1  1  0.62762600  0.87762600  0.75000000  1
  V  V0  1  0.00000000  0.50000000  0.50000000  1
  V  V1  1  0.50000000  0.50000000  0.00000000  1
  Ni  Ni0  1  0.00000000  0.50000000  0.00000000  1
  Ni  Ni1  1  0.00000000  0.00000000  0.50000000  1
  F  F0  1  0.31624700  0.56624700  0.75000000  1
  F  F1  1  0.92982400  0.17982400  0.75000000  1
  F  F2  1  0.32588600  0.18646300  0.76003500  1
  F  F3  1  0.92642800  0.56585100  0.73996500  1
  F  F4  1  0.32588600  0.56585100  0.13942300  1
  F  F5  1  0.92642800  0.18646300  0.36057700  1
  F  F6  1  0.68375300  0.43375300  0.25000000  1
  F  F7  1  0.07017600  0.82017600  0.25000000  1
  F  F8  1  0.67411400  0.81353700  0.23996500  1
  F  F9  1  0.07357200  0.43414900  0.26003500  1
  F  F10  1  0.67411400  0.43414900  0.86057700  1
  F  F11  1  0.07357200  0.81353700  0.63942300  1
loop_
_geom_bond_atom_site_label_1
_geom_bond_atom_site_label_2
_geom_bond_distance
_geom_bond_site_symmetry_2
Cs0 F7 3.162245 1_545
Cs0 F9 3.222873 1_555
Cs0 F11 3.222873 1_544
Cs0 F8 3.222873 1_545
Cs0 F10 3.222873 1_555
Cs0 F6 3.258316 1_555
Cs1 F1 3.162245 1_565
Cs1 F5 3.222873 1_566
Cs1 F3 3.222873 1_555
Cs1 F2 3.222873 1_565
Cs1 F4 3.222873 1_555
Cs1 F0 3.258316 1_555
F0 V1 2.019977 1_556
F0 V0 2.019977 1_555
F1 Ni0 1.977462 1_656
F1 Ni1 1.977462 1_655
F2 V1 1.940574 1_556
F2 Ni1 2.058276 1_555
F3 V0 1.940574 1_655
F3 Ni0 2.058276 1_656
F4 V1 1.940574 1_555
F4 Ni0 2.058276 1_555
F5 V0 1.940574 1_655
F5 Ni1 2.058276 1_655
F6 V0 2.019977 1_655
F6 V1 2.019977 1_555
F7 Ni0 1.977462 1_555
F7 Ni1 1.977462 1_565
F8 V1 1.940574 1_555
F8 Ni1 2.058276 1_665
F9 V0 1.940574 1_555
F9 Ni0 2.058276 1_555
F10 V1 1.940574 1_556
F10 Ni0 2.058276 1_656
F11 V0 1.940574 1_555
F11 Ni1 2.058276 1_565
