# generated using pymatgen
data_Li4FeC6ClO21
_symmetry_space_group_name_H-M   'P 1'
_cell_length_a   9.18310799
_cell_length_b   9.16672032
_cell_length_c   24.66825785
_cell_angle_alpha   90.00000000
_cell_angle_beta   90.00000000
_cell_angle_gamma   120.05915656
_symmetry_Int_Tables_number   1
_chemical_formula_structural   Li4FeC6ClO21
_chemical_formula_sum   'Li16 Fe4 C24 Cl4 O84'
_cell_volume   1797.27110224
_cell_formula_units_Z   4
loop_
 _symmetry_equiv_pos_site_id
 _symmetry_equiv_pos_as_xyz
  1  'x, y, z'
loop_
 _atom_site_type_symbol
 _atom_site_label
 _atom_site_symmetry_multiplicity
 _atom_site_fract_x
 _atom_site_fract_y
 _atom_site_fract_z
 _atom_site_occupancy
  Li  Li0  1  0.00076579  0.00056677  0.10519922  1
  Li  Li1  1  0.00076579  0.00056677  0.39480078  1
  Li  Li2  1  0.99980098  0.00056677  0.60519922  1
  Li  Li3  1  0.99980098  0.00056677  0.89480078  1
  Li  Li4  1  0.15764639  0.83860004  -0.00002532  1
  Li  Li5  1  0.68095365  0.83860004  0.00002532  1
  Li  Li6  1  0.16152617  0.32305234  0.00000000  1
  Li  Li7  1  0.15764639  0.83860004  0.50002532  1
  Li  Li8  1  0.68095365  0.83860004  0.49997468  1
  Li  Li9  1  0.16152617  0.32305234  0.50000000  1
  Li  Li10  1  0.99214839  0.66925547  0.25000000  1
  Li  Li11  1  0.67634031  0.00472559  0.25000000  1
  Li  Li12  1  0.32848268  0.32511488  0.25000000  1
  Li  Li13  1  0.67710707  0.66925547  0.75000000  1
  Li  Li14  1  0.32838528  0.00472559  0.75000000  1
  Li  Li15  1  0.99663220  0.32511488  0.75000000  1
  Fe  Fe0  1  0.66109515  0.32970907  0.10326342  1
  Fe  Fe1  1  0.66109515  0.32970907  0.39673658  1
  Fe  Fe2  1  0.66861392  0.32970907  0.60326342  1
  Fe  Fe3  1  0.66861392  0.32970907  0.89673658  1
  C  C0  1  0.87520128  0.66586490  0.07867454  1
  C  C1  1  0.78967533  0.11993825  0.07554114  1
  C  C2  1  0.33524700  0.21292033  0.07693680  1
  C  C3  1  0.87520128  0.66586490  0.42132546  1
  C  C4  1  0.78967533  0.11993825  0.42445886  1
  C  C5  1  0.33524700  0.21292033  0.42306320  1
  C  C6  1  0.79066362  0.66586490  0.57867454  1
  C  C7  1  0.33026291  0.11993825  0.57554114  1
  C  C8  1  0.87767333  0.21292033  0.57693680  1
  C  C9  1  0.79066362  0.66586490  0.92132546  1
  C  C10  1  0.33026291  0.11993825  0.92445886  1
  C  C11  1  0.87767333  0.21292033  0.92306320  1
  C  C12  1  0.78000336  0.66906437  0.13178277  1
  C  C13  1  0.88361976  0.21773409  0.12885826  1
  C  C14  1  0.33384196  0.11690218  0.12957582  1
  C  C15  1  0.78000336  0.66906437  0.36821723  1
  C  C16  1  0.88361976  0.21773409  0.37114174  1
  C  C17  1  0.33384196  0.11690218  0.37042418  1
  C  C18  1  0.88906101  0.66906437  0.63178277  1
  C  C19  1  0.33411433  0.21773409  0.62885826  1
  C  C20  1  0.78306022  0.11690218  0.62957582  1
  C  C21  1  0.88906101  0.66906437  0.86821723  1
  C  C22  1  0.33411433  0.21773409  0.87114174  1
  C  C23  1  0.78306022  0.11690218  0.87042418  1
  Cl  Cl0  1  0.33432379  0.66639174  0.07393120  1
  Cl  Cl1  1  0.33432379  0.66639174  0.42606880  1
  Cl  Cl2  1  0.33206794  0.66639174  0.57393120  1
  Cl  Cl3  1  0.33206794  0.66639174  0.92606880  1
  O  O0  1  0.83326340  0.51910447  0.06097173  1
  O  O1  1  0.68334350  0.15680962  0.05717032  1
  O  O2  1  0.48157258  0.32141557  0.05932077  1
  O  O3  1  0.83326340  0.51910447  0.43902827  1
  O  O4  1  0.68334350  0.15680962  0.44282968  1
  O  O5  1  0.48157258  0.32141557  0.44067923  1
  O  O6  1  0.68584107  0.51910447  0.56097173  1
  O  O7  1  0.47346612  0.15680962  0.55717032  1
  O  O8  1  0.83984300  0.32141557  0.55932077  1
  O  O9  1  0.68584107  0.51910447  0.93902827  1
  O  O10  1  0.47346612  0.15680962  0.94282968  1
  O  O11  1  0.83984300  0.32141557  0.94067923  1
  O  O12  1  0.98121965  0.80121707  0.05728302  1
  O  O13  1  0.82601206  0.01656523  0.05550345  1
  O  O14  1  0.19932888  0.18060611  0.05552455  1
  O  O15  1  0.98121965  0.80121707  0.44271698  1
  O  O16  1  0.82601206  0.01656523  0.44449655  1
  O  O17  1  0.19932888  0.18060611  0.44447545  1
  O  O18  1  0.81999742  0.80121707  0.55728302  1
  O  O19  1  0.19055318  0.01656523  0.55550345  1
  O  O20  1  0.98127723  0.18060611  0.55552455  1
  O  O21  1  0.81999742  0.80121707  0.94271698  1
  O  O22  1  0.19055318  0.01656523  0.94449655  1
  O  O23  1  0.98127723  0.18060611  0.94447545  1
  O  O24  1  0.81825783  0.81055626  0.15061220  1
  O  O25  1  0.98816438  0.18537261  0.14934472  1
  O  O26  1  0.19740909  0.01470069  0.15010540  1
  O  O27  1  0.81825783  0.81055626  0.34938780  1
  O  O28  1  0.98816438  0.18537261  0.35065528  1
  O  O29  1  0.19740909  0.01470069  0.34989460  1
  O  O30  1  0.99229843  0.81055626  0.65061220  1
  O  O31  1  0.19720824  0.18537261  0.64934472  1
  O  O32  1  0.81729160  0.01470069  0.65010540  1
  O  O33  1  0.99229843  0.81055626  0.84938780  1
  O  O34  1  0.19720824  0.18537261  0.85065528  1
  O  O35  1  0.81729160  0.01470069  0.84989460  1
  O  O36  1  0.67414129  0.52440024  0.14999023  1
  O  O37  1  0.84056500  0.32230057  0.14648711  1
  O  O38  1  0.48185201  0.15761266  0.14744244  1
  O  O39  1  0.67414129  0.52440024  0.35000977  1
  O  O40  1  0.84056500  0.32230057  0.35351289  1
  O  O41  1  0.48185201  0.15761266  0.35255756  1
  O  O42  1  0.85025895  0.52440024  0.64999023  1
  O  O43  1  0.48173557  0.32230057  0.64648711  1
  O  O44  1  0.67576065  0.15761266  0.64744244  1
  O  O45  1  0.85025895  0.52440024  0.85000977  1
  O  O46  1  0.48173557  0.32230057  0.85351289  1
  O  O47  1  0.67576065  0.15761266  0.85255756  1
  O  O48  1  0.32548823  0.81527098  0.05381314  1
  O  O49  1  0.49098699  0.67404581  0.05320256  1
  O  O50  1  0.18509525  0.51037682  0.05278657  1
  O  O51  1  0.32548823  0.81527098  0.44618686  1
  O  O52  1  0.49098699  0.67404581  0.44679744  1
  O  O53  1  0.18509525  0.51037682  0.44721343  1
  O  O54  1  0.48978275  0.81527098  0.55381314  1
  O  O55  1  0.18305882  0.67404581  0.55320256  1
  O  O56  1  0.32528157  0.51037682  0.55278657  1
  O  O57  1  0.48978275  0.81527098  0.94618686  1
  O  O58  1  0.18305882  0.67404581  0.94679744  1
  O  O59  1  0.32528157  0.51037682  0.94721343  1
  O  O60  1  0.12873153  0.71198926  0.18182319  1
  O  O61  1  0.59405876  0.86726878  0.18037034  1
  O  O62  1  0.27749440  0.41262551  0.18112039  1
  O  O63  1  0.12873153  0.71198926  0.31817681  1
  O  O64  1  0.59405876  0.86726878  0.31962966  1
  O  O65  1  0.27749440  0.41262551  0.31887961  1
  O  O66  1  0.58325773  0.71198926  0.68182319  1
  O  O67  1  0.27321002  0.86726878  0.68037034  1
  O  O68  1  0.13513111  0.41262551  0.68112039  1
  O  O69  1  0.58325773  0.71198926  0.81817681  1
  O  O70  1  0.27321002  0.86726878  0.81962966  1
  O  O71  1  0.13513111  0.41262551  0.81887961  1
  O  O72  1  0.91107752  0.84854666  0.25000000  1
  O  O73  1  0.93648635  0.08898407  0.25000000  1
  O  O74  1  0.15258459  0.06487492  0.25000000  1
  O  O75  1  0.93746914  0.84854666  0.75000000  1
  O  O76  1  0.15249772  0.08898407  0.75000000  1
  O  O77  1  0.91229033  0.06487492  0.75000000  1
  O  O78  1  0.81595537  0.38766326  0.25000000  1
  O  O79  1  0.57176419  0.18165938  0.25000000  1
  O  O80  1  0.61053846  0.42632339  0.25000000  1
  O  O81  1  0.57170789  0.38766326  0.75000000  1
  O  O82  1  0.60989519  0.18165938  0.75000000  1
  O  O83  1  0.81578493  0.42632339  0.75000000  1
loop_
_geom_bond_atom_site_label_1
_geom_bond_atom_site_label_2
_geom_bond_distance
_geom_bond_site_symmetry_2
Li0 O24 2.042862 1_445
Li0 O25 2.065317 1_455
Li0 O26 2.066503 1_555
Li0 O13 2.082175 1_455
Li0 O12 2.107155 1_445
Li0 O14 2.129665 1_555
Li1 O27 2.042862 1_445
Li1 O28 2.065317 1_455
Li1 O29 2.066503 1_555
Li1 O16 2.082175 1_455
Li1 O15 2.107155 1_445
Li1 O17 2.129665 1_555
Li2 O30 2.042862 1_545
Li2 O31 2.065317 1_655
Li2 O32 2.066503 1_555
Li2 O19 2.082175 1_655
Li2 O18 2.107155 1_545
Li2 O20 2.129665 1_555
Li3 O33 2.042862 1_545
Li3 O34 2.065317 1_655
Li3 O35 2.066503 1_555
Li3 O22 2.082175 1_655
Li3 O21 2.107155 1_545
Li3 O23 2.129665 1_555
Li4 O22 2.032662 1_564
Li4 O12 2.045644 1_455
Li4 O58 2.098388 1_554
Li4 O48 2.124952 1_555
Li5 O13 2.032662 1_565
Li5 O21 2.045644 1_554
Li5 O49 2.098388 1_555
Li5 O57 2.124952 1_554
Li6 O23 2.038552 1_454
Li6 O14 2.038552 1_555
Li6 O59 2.078157 1_554
Li6 O50 2.078157 1_555
Li7 O19 2.032662 1_565
Li7 O15 2.045644 1_455
Li7 O55 2.098388 1_555
Li7 O51 2.124952 1_555
Li8 O16 2.032662 1_565
Li8 O18 2.045644 1_555
Li8 O52 2.098388 1_555
Li8 O54 2.124952 1_555
Li9 O20 2.038552 1_455
Li9 O17 2.038552 1_555
Li9 O56 2.078157 1_555
Li9 O53 2.078157 1_555
Li10 O60 2.015656 1_655
Li10 O63 2.015656 1_655
Li10 O72 2.116870 1_555
Li10 O78 2.257641 1_555
Li11 O64 2.038411 1_545
Li11 O61 2.038411 1_545
Li11 O73 2.110729 1_555
Li11 O79 2.261230 1_555
Li12 O65 2.031280 1_555
Li12 O62 2.031280 1_555
Li12 O74 2.107073 1_555
Li12 O80 2.272066 1_555
Li13 O69 2.015656 1_555
Li13 O66 2.015656 1_555
Li13 O75 2.116870 1_555
Li13 O81 2.257641 1_555
Li14 O70 2.038411 1_545
Li14 O67 2.038411 1_545
Li14 O76 2.110729 1_555
Li14 O82 2.261230 1_555
Li15 O68 2.031280 1_655
Li15 O71 2.031280 1_655
Li15 O77 2.107073 1_555
Li15 O83 2.272066 1_555
Fe0 O2 1.942435 1_555
Fe0 O38 1.945360 1_555
Fe0 O0 1.962764 1_555
Fe0 O37 1.992445 1_555
Fe0 O1 2.042293 1_555
Fe0 O36 2.076990 1_555
Fe1 O5 1.942435 1_555
Fe1 O41 1.945360 1_555
Fe1 O3 1.962764 1_555
Fe1 O40 1.992445 1_555
Fe1 O4 2.042293 1_555
Fe1 O39 2.076990 1_555
Fe2 O8 1.942435 1_555
Fe2 O44 1.945360 1_555
Fe2 O6 1.962764 1_555
Fe2 O43 1.992445 1_555
Fe2 O7 2.042293 1_555
Fe2 O42 2.076990 1_555
Fe3 O11 1.942435 1_555
Fe3 O47 1.945360 1_555
Fe3 O9 1.962764 1_555
Fe3 O46 1.992445 1_555
Fe3 O10 2.042293 1_555
Fe3 O45 2.076990 1_555
C0 O12 1.247247 1_555
C0 O0 1.276657 1_555
C1 O13 1.253142 1_555
C1 O1 1.266371 1_555
C2 O14 1.246692 1_555
C2 O2 1.282486 1_555
C3 O15 1.247247 1_555
C3 O3 1.276657 1_555
C4 O16 1.253142 1_555
C4 O4 1.266371 1_555
C5 O17 1.246692 1_555
C5 O5 1.282486 1_555
C6 O18 1.247247 1_555
C6 O6 1.276657 1_555
C7 O19 1.253141 1_555
C7 O7 1.266371 1_555
C8 O20 1.246692 1_555
C8 O8 1.282486 1_555
C9 O21 1.247247 1_555
C9 O9 1.276657 1_555
C10 O22 1.253141 1_555
C10 O10 1.266371 1_555
C11 O23 1.246692 1_555
C11 O11 1.282486 1_555
C12 O24 1.250984 1_555
C12 O36 1.270380 1_555
C13 O25 1.245145 1_555
C13 O37 1.282138 1_555
C14 O26 1.236125 1_555
C14 O38 1.293362 1_555
C15 O27 1.250984 1_555
C15 O39 1.270380 1_555
C16 O28 1.245145 1_555
C16 O40 1.282138 1_555
C17 O29 1.236125 1_555
C17 O41 1.293362 1_555
C18 O30 1.250984 1_555
C18 O42 1.270380 1_555
C19 O31 1.245144 1_555
C19 O43 1.282138 1_555
C20 O32 1.236125 1_555
C20 O44 1.293362 1_555
C21 O33 1.250984 1_555
C21 O45 1.270380 1_555
C22 O34 1.245144 1_555
C22 O46 1.282138 1_555
C23 O35 1.236125 1_555
C23 O47 1.293362 1_555
Cl0 O48 1.492080 1_555
Cl0 O50 1.493981 1_555
Cl0 O49 1.494991 1_555
Cl1 O51 1.492080 1_555
Cl1 O53 1.493981 1_555
Cl1 O52 1.494991 1_555
Cl2 O54 1.492081 1_555
Cl2 O56 1.493982 1_555
Cl2 O55 1.494991 1_555
Cl3 O57 1.492081 1_555
Cl3 O59 1.493982 1_555
Cl3 O58 1.494991 1_555
