# generated using pymatgen
data_Re2BiO6
_symmetry_space_group_name_H-M   'P 1'
_cell_length_a   4.95191849
_cell_length_b   5.55158446
_cell_length_c   8.42560422
_cell_angle_alpha   92.21116248
_cell_angle_beta   107.08747406
_cell_angle_gamma   90.00056753
_symmetry_Int_Tables_number   1
_chemical_formula_structural   Re2BiO6
_chemical_formula_sum   'Re4 Bi2 O12'
_cell_volume   221.22306685
_cell_formula_units_Z   2
loop_
 _symmetry_equiv_pos_site_id
 _symmetry_equiv_pos_as_xyz
  1  'x, y, z'
loop_
 _atom_site_type_symbol
 _atom_site_label
 _atom_site_symmetry_multiplicity
 _atom_site_fract_x
 _atom_site_fract_y
 _atom_site_fract_z
 _atom_site_occupancy
  Re  Re0  1  0.58346431  0.11074991  0.63738858  1
  Re  Re1  1  0.94609609  0.38930304  0.36258015  1
  Re  Re2  1  0.41651735  0.88924894  0.36256329  1
  Re  Re3  1  0.05387460  0.61068731  0.63737413  1
  Bi  Bi0  1  0.72563217  0.74998844  -0.00001320  1
  Bi  Bi1  1  0.27438950  0.25002278  0.00005742  1
  O  O0  1  0.30441742  0.83000261  0.56858115  1
  O  O1  1  0.73591605  0.66991442  0.43134727  1
  O  O2  1  0.69555918  0.16999369  0.43136780  1
  O  O3  1  0.26405879  0.33007756  0.56860007  1
  O  O4  1  0.88825621  0.88699734  0.72301849  1
  O  O5  1  0.16533831  0.61291771  0.27704262  1
  O  O6  1  0.11175255  0.11300739  0.27699753  1
  O  O7  1  0.83465861  0.38707517  0.72297162  1
  O  O8  1  0.52580625  0.08167252  0.85921924  1
  O  O9  1  0.66675854  0.41830813  0.14083550  1
  O  O10  1  0.47422956  0.91833324  0.14083633  1
  O  O11  1  0.33327351  0.58169882  0.85923200  1
loop_
_geom_bond_atom_site_label_1
_geom_bond_atom_site_label_2
_geom_bond_distance
_geom_bond_site_symmetry_2
Bi0 O10 2.148090 1_555
Bi0 O11 2.148179 1_554
Bi0 O8 2.292464 1_564
Bi0 O9 2.292561 1_555
Bi1 O8 2.148087 1_554
Bi1 O9 2.148260 1_555
Bi1 O11 2.292441 1_554
Bi1 O10 2.292549 1_545
O0 Re3 1.958230 1_555
O0 Re2 2.009907 1_555
O0 Re0 2.033270 1_565
O1 Re2 1.958558 1_555
O1 Re3 2.009575 1_655
O1 Re1 2.032385 1_555
O2 Re1 1.958166 1_555
O2 Re0 2.009914 1_555
O2 Re2 2.033243 1_545
O3 Re0 1.958562 1_555
O3 Re1 2.009547 1_455
O3 Re3 2.032414 1_555
O4 Re0 1.941860 1_565
O4 Re3 1.951602 1_655
O5 Re1 1.941143 1_455
O5 Re2 1.951322 1_555
O6 Re2 1.941701 1_545
O6 Re1 1.951399 1_455
O7 Re3 1.941330 1_655
O7 Re0 1.951416 1_555
O8 Re0 1.984399 1_555
O9 Re1 1.983549 1_555
O10 Re2 1.983654 1_555
O11 Re3 1.984372 1_555
