# generated using pymatgen
data_Ba2SiO4
_symmetry_space_group_name_H-M   'P 1'
_cell_length_a   5.82781508
_cell_length_b   7.55940909
_cell_length_c   10.28390539
_cell_angle_alpha   90.00000000
_cell_angle_beta   90.00000000
_cell_angle_gamma   90.00000000
_symmetry_Int_Tables_number   1
_chemical_formula_structural   Ba2SiO4
_chemical_formula_sum   'Ba8 Si4 O16'
_cell_volume   453.05578895
_cell_formula_units_Z   4
loop_
 _symmetry_equiv_pos_site_id
 _symmetry_equiv_pos_as_xyz
  1  'x, y, z'
loop_
 _atom_site_type_symbol
 _atom_site_label
 _atom_site_symmetry_multiplicity
 _atom_site_fract_x
 _atom_site_fract_y
 _atom_site_fract_z
 _atom_site_occupancy
  Ba  Ba0  1  0.25000000  0.99187558  0.30634708  1
  Ba  Ba1  1  0.75000000  0.00812442  0.69365292  1
  Ba  Ba2  1  0.25000000  0.49187558  0.19365292  1
  Ba  Ba3  1  0.75000000  0.50812442  0.80634708  1
  Ba  Ba4  1  0.25000000  0.16021657  0.91488288  1
  Ba  Ba5  1  0.75000000  0.83978343  0.08511712  1
  Ba  Ba6  1  0.25000000  0.66021657  0.58511712  1
  Ba  Ba7  1  0.75000000  0.33978343  0.41488288  1
  Si  Si0  1  0.25000000  0.22834609  0.58005985  1
  Si  Si1  1  0.75000000  0.77165391  0.41994015  1
  Si  Si2  1  0.25000000  0.72834609  0.91994015  1
  Si  Si3  1  0.75000000  0.27165391  0.08005985  1
  O  O0  1  0.51984799  0.69349576  0.34907421  1
  O  O1  1  0.01984799  0.30650424  0.65092579  1
  O  O2  1  0.98015201  0.19349576  0.15092579  1
  O  O3  1  0.48015201  0.80650424  0.84907421  1
  O  O4  1  0.48015201  0.30650424  0.65092579  1
  O  O5  1  0.98015201  0.69349576  0.34907421  1
  O  O6  1  0.01984799  0.80650424  0.84907421  1
  O  O7  1  0.51984799  0.19349576  0.15092579  1
  O  O8  1  0.25000000  0.30726643  0.43034661  1
  O  O9  1  0.75000000  0.69273357  0.56965339  1
  O  O10  1  0.25000000  0.80726643  0.06965339  1
  O  O11  1  0.75000000  0.19273357  0.93034661  1
  O  O12  1  0.75000000  0.48734682  0.08385301  1
  O  O13  1  0.25000000  0.51265318  0.91614699  1
  O  O14  1  0.75000000  0.98734682  0.41614699  1
  O  O15  1  0.25000000  0.01265318  0.58385301  1
loop_
_geom_bond_atom_site_label_1
_geom_bond_atom_site_label_2
_geom_bond_distance
_geom_bond_site_symmetry_2
Ba0 O8 2.703774 1_565
Ba0 O2 2.711236 1_465
Ba0 O7 2.711236 1_565
Ba0 O0 2.784572 1_555
Ba0 O5 2.784572 1_455
Ba0 O10 2.805804 1_555
Ba0 O15 2.858164 1_565
Ba0 O14 3.125229 1_455
Ba0 O14 3.125229 1_555
Ba1 O9 2.703774 1_545
Ba1 O6 2.711236 1_645
Ba1 O3 2.711236 1_545
Ba1 O1 2.784572 1_655
Ba1 O4 2.784572 1_555
Ba1 O11 2.805804 1_555
Ba1 O14 2.858164 1_545
Ba1 O15 3.125229 1_655
Ba1 O15 3.125229 1_555
Ba2 O10 2.703774 1_555
Ba2 O0 2.711236 1_555
Ba2 O5 2.711236 1_455
Ba2 O2 2.784572 1_455
Ba2 O7 2.784572 1_555
Ba2 O8 2.805804 1_555
Ba2 O13 2.858164 1_554
Ba2 O12 3.125229 1_455
Ba2 O12 3.125229 1_555
Ba3 O11 2.703774 1_555
Ba3 O4 2.711236 1_555
Ba3 O1 2.711236 1_655
Ba3 O3 2.784572 1_555
Ba3 O6 2.784572 1_655
Ba3 O9 2.805804 1_555
Ba3 O12 2.858164 1_556
Ba3 O13 3.125229 1_555
Ba3 O13 3.125229 1_655
Ba4 O13 2.664244 1_555
Ba4 O2 2.903259 1_456
Ba4 O7 2.903259 1_556
Ba4 O11 2.928578 1_555
Ba4 O11 2.928578 1_455
Ba4 O6 3.067013 1_545
Ba4 O3 3.067013 1_545
Ba4 O10 3.106777 1_546
Ba4 O4 3.223431 1_555
Ba4 O1 3.223431 1_555
Ba5 O12 2.664244 1_555
Ba5 O6 2.903259 1_654
Ba5 O3 2.903259 1_554
Ba5 O10 2.928578 1_555
Ba5 O10 2.928578 1_655
Ba5 O2 3.067013 1_565
Ba5 O7 3.067013 1_565
Ba5 O11 3.106777 1_564
Ba5 O5 3.223431 1_555
Ba5 O0 3.223431 1_555
Ba6 O15 2.664244 1_565
Ba6 O0 2.903259 1_555
Ba6 O5 2.903259 1_455
Ba6 O9 2.928578 1_455
Ba6 O9 2.928578 1_555
Ba6 O4 3.067013 1_555
Ba6 O1 3.067013 1_555
Ba6 O8 3.106777 1_555
Ba6 O6 3.223431 1_555
Ba6 O3 3.223431 1_555
Ba7 O14 2.664244 1_545
Ba7 O4 2.903259 1_555
Ba7 O1 2.903259 1_655
Ba7 O8 2.928578 1_555
Ba7 O8 2.928578 1_655
Ba7 O0 3.067013 1_555
Ba7 O5 3.067013 1_555
Ba7 O9 3.106777 1_555
Ba7 O7 3.223431 1_555
Ba7 O2 3.223431 1_555
O0 Si1 1.636838 1_555
O1 Si0 1.636838 1_555
O2 Si3 1.636838 1_555
O3 Si2 1.636838 1_555
O4 Si0 1.636838 1_555
O5 Si1 1.636838 1_555
O6 Si2 1.636838 1_555
O7 Si3 1.636838 1_555
O8 Si0 1.651182 1_555
O9 Si1 1.651182 1_555
O10 Si2 1.651182 1_554
O11 Si3 1.651182 1_556
O12 Si3 1.630977 1_555
O13 Si2 1.630977 1_555
O14 Si1 1.630977 1_555
O15 Si0 1.630977 1_555
