# generated using pymatgen
data_Cr2O3
_symmetry_space_group_name_H-M   'P 1'
_cell_length_a   10.11740222
_cell_length_b   9.59381499
_cell_length_c   9.71082220
_cell_angle_alpha   89.53034462
_cell_angle_beta   94.50274163
_cell_angle_gamma   91.25311659
_symmetry_Int_Tables_number   1
_chemical_formula_structural   Cr2O3
_chemical_formula_sum   'Cr32 O48'
_cell_volume   939.42218140
_cell_formula_units_Z   16
loop_
 _symmetry_equiv_pos_site_id
 _symmetry_equiv_pos_as_xyz
  1  'x, y, z'
loop_
 _atom_site_type_symbol
 _atom_site_label
 _atom_site_symmetry_multiplicity
 _atom_site_fract_x
 _atom_site_fract_y
 _atom_site_fract_z
 _atom_site_occupancy
  Cr  Cr0  1  0.62576800  0.52569500  0.44080000  1
  Cr  Cr1  1  0.58978400  0.16437400  0.50179400  1
  Cr  Cr2  1  0.72715400  0.13550900  0.86737400  1
  Cr  Cr3  1  0.33094900  0.94881100  0.48314700  1
  Cr  Cr4  1  0.56990300  0.37202500  0.16295600  1
  Cr  Cr5  1  0.71633200  0.08977200  0.15592300  1
  Cr  Cr6  1  0.41705900  0.90040500  0.84721100  1
  Cr  Cr7  1  0.92574800  0.71301200  0.48990800  1
  Cr  Cr8  1  0.38319700  0.66425900  0.66707300  1
  Cr  Cr9  1  0.63935300  0.70613900  0.93483200  1
  Cr  Cr10  1  0.86601700  0.61700400  0.75603100  1
  Cr  Cr11  1  0.06736900  0.35467100  0.29478400  1
  Cr  Cr12  1  0.69317200  0.82741200  0.29243500  1
  Cr  Cr13  1  0.83047100  0.52529800  0.12861000  1
  Cr  Cr14  1  0.89707100  0.81845600  0.00231800  1
  Cr  Cr15  1  0.82678600  0.28639200  0.65474900  1
  Cr  Cr16  1  0.65568100  0.90260800  0.66108800  1
  Cr  Cr17  1  0.07469800  0.35540200  0.83374600  1
  Cr  Cr18  1  0.89696700  0.00899600  0.48565400  1
  Cr  Cr19  1  0.33989200  0.57176700  0.96622300  1
  Cr  Cr20  1  0.40754100  0.85212200  0.14658400  1
  Cr  Cr21  1  0.12442000  0.86146000  0.73342400  1
  Cr  Cr22  1  0.01273300  0.08284100  0.95523500  1
  Cr  Cr23  1  0.80132700  0.30070300  0.35485900  1
  Cr  Cr24  1  0.54593000  0.36369000  0.88680800  1
  Cr  Cr25  1  0.33952600  0.39708400  0.61450500  1
  Cr  Cr26  1  0.10051500  0.62574700  0.09099000  1
  Cr  Cr27  1  0.15061800  0.14430300  0.61231200  1
  Cr  Cr28  1  0.27335100  0.17365400  0.06344900  1
  Cr  Cr29  1  0.36985000  0.60372300  0.35943900  1
  Cr  Cr30  1  0.11366100  0.94560600  0.27107000  1
  Cr  Cr31  1  0.32740000  0.28205900  0.35256300  1
  O  O0  1  0.17872500  0.34081800  0.67600700  1
  O  O1  1  0.27964400  0.99063200  0.67843800  1
  O  O2  1  0.92584000  0.61098200  0.97102500  1
  O  O3  1  0.82877700  0.01556600  0.00973900  1
  O  O4  1  0.89644800  0.30316900  0.18680400  1
  O  O5  1  0.82307000  0.99046500  0.29175800  1
  O  O6  1  0.04413100  0.89506400  0.90128000  1
  O  O7  1  0.75660400  0.72809900  0.11889000  1
  O  O8  1  0.75393100  0.08553700  0.59777500  1
  O  O9  1  0.01939800  0.01564700  0.65260400  1
  O  O10  1  0.03395900  0.79951800  0.15672100  1
  O  O11  1  0.19938500  0.12949700  0.42152000  1
  O  O12  1  0.62851400  0.20508900  0.29378400  1
  O  O13  1  0.11748200  0.07612700  0.12542100  1
  O  O14  1  0.31150000  0.74920800  0.49787900  1
  O  O15  1  0.16260800  0.50211800  0.94681400  1
  O  O16  1  0.47199700  0.74587000  0.99238300  1
  O  O17  1  0.03692900  0.87158500  0.43284600  1
  O  O18  1  0.54921000  0.69557700  0.33872500  1
  O  O19  1  0.66452000  0.29591300  0.75853200  1
  O  O20  1  0.94859000  0.24013100  0.48376000  1
  O  O21  1  0.64145900  0.22642400  0.01643000  1
  O  O22  1  0.23531700  0.43733600  0.42157300  1
  O  O23  1  0.91205400  0.20942100  0.83258200  1
  O  O24  1  0.78244400  0.83963100  0.49660100  1
  O  O25  1  0.46539800  0.43186200  0.30665800  1
  O  O26  1  0.00831000  0.70901900  0.67097300  1
  O  O27  1  0.27755300  0.74387100  0.81300600  1
  O  O28  1  0.16715700  0.18764600  0.89552800  1
  O  O29  1  0.46299300  0.54046600  0.54214700  1
  O  O30  1  0.52366100  0.97187500  0.51103000  1
  O  O31  1  0.57979500  0.01267600  0.80673800  1
  O  O32  1  0.77542500  0.78942400  0.82321900  1
  O  O33  1  0.35858100  0.99635600  0.00732100  1
  O  O34  1  0.58531800  0.94134300  0.17321100  1
  O  O35  1  0.29298200  0.66210900  0.15596400  1
  O  O36  1  0.41153900  0.49295400  0.79333500  1
  O  O37  1  0.41341400  0.35669200  0.02712000  1
  O  O38  1  0.30958600  0.94229100  0.28278500  1
  O  O39  1  0.21520500  0.32056500  0.18665800  1
  O  O40  1  0.72235600  0.46934400  0.27742500  1
  O  O41  1  0.00584500  0.54058000  0.24219800  1
  O  O42  1  0.63655200  0.50749100  0.00621500  1
  O  O43  1  0.69435000  0.34069600  0.50791800  1
  O  O44  1  0.53503000  0.76199700  0.74155200  1
  O  O45  1  0.78767800  0.58921000  0.55765300  1
  O  O46  1  0.93271100  0.44243200  0.72956200  1
  O  O47  1  0.42258600  0.24597400  0.52980500  1
loop_
_geom_bond_atom_site_label_1
_geom_bond_atom_site_label_2
_geom_bond_distance
_geom_bond_site_symmetry_2
Cr0 O29 1.991930 1_555
Cr0 O45 2.004534 1_555
Cr0 O43 2.005052 1_555
Cr0 O40 2.011175 1_555
Cr0 O18 2.036413 1_555
Cr0 O25 2.182501 1_555
Cr1 O47 1.918868 1_555
Cr1 O30 1.954209 1_545
Cr1 O43 1.974278 1_555
Cr1 O8 1.999797 1_555
Cr1 O12 2.119189 1_555
Cr2 O31 1.937750 1_555
Cr2 O19 1.948768 1_555
Cr2 O21 1.964288 1_556
Cr2 O3 2.023608 1_556
Cr2 O23 2.038089 1_555
Cr3 O14 1.926054 1_555
Cr3 O38 1.942079 1_555
Cr3 O30 1.955250 1_555
Cr3 O1 2.050130 1_555
Cr3 O11 2.256919 1_565
Cr4 O25 1.914717 1_555
Cr4 O37 1.983282 1_555
Cr4 O40 2.042365 1_555
Cr4 O12 2.102508 1_555
Cr4 O42 2.133280 1_555
Cr4 O21 2.176817 1_555
Cr5 O5 1.901207 1_545
Cr5 O34 1.939441 1_545
Cr5 O21 1.995174 1_555
Cr5 O12 2.014858 1_555
Cr5 O3 2.030225 1_555
Cr6 O33 1.951039 1_556
Cr6 O31 2.010616 1_565
Cr6 O27 2.049298 1_555
Cr6 O16 2.091197 1_555
Cr6 O44 2.127085 1_555
Cr6 O1 2.244966 1_555
Cr7 O26 1.886925 1_655
Cr7 O24 1.917054 1_555
Cr7 O45 1.963099 1_555
Cr7 O17 1.973823 1_655
Cr8 O44 1.880367 1_555
Cr8 O14 1.925267 1_555
Cr8 O29 1.937347 1_555
Cr8 O27 2.006321 1_555
Cr8 O36 2.054003 1_555
Cr9 O16 1.872132 1_555
Cr9 O32 1.969883 1_555
Cr9 O42 2.022973 1_556
Cr9 O7 2.075716 1_556
Cr9 O44 2.149697 1_555
Cr10 O46 1.846644 1_555
Cr10 O26 1.911350 1_655
Cr10 O45 2.042010 1_555
Cr10 O32 2.044488 1_555
Cr10 O2 2.128284 1_555
Cr11 O39 1.928819 1_555
Cr11 O41 1.952714 1_555
Cr11 O4 2.005107 1_455
Cr11 O22 2.158873 1_555
Cr11 O20 2.504951 1_455
Cr12 O34 1.886509 1_555
Cr12 O18 1.983971 1_555
Cr12 O5 2.021274 1_555
Cr12 O7 2.093485 1_555
Cr12 O24 2.116202 1_555
Cr13 O40 1.944946 1_555
Cr13 O41 2.017522 1_655
Cr13 O2 2.031017 1_554
Cr13 O7 2.098199 1_555
Cr13 O42 2.216676 1_555
Cr13 O4 2.299916 1_555
Cr14 O10 1.969703 1_655
Cr14 O6 1.971333 1_654
Cr14 O3 2.031216 1_565
Cr14 O2 2.046501 1_554
Cr14 O7 2.057968 1_555
Cr14 O32 2.067359 1_554
Cr15 O46 1.934628 1_555
Cr15 O43 1.954022 1_555
Cr15 O19 1.996775 1_555
Cr15 O23 2.011163 1_555
Cr15 O8 2.110436 1_555
Cr15 O20 2.197726 1_555
Cr16 O31 1.983802 1_565
Cr16 O44 1.995203 1_555
Cr16 O30 2.016540 1_555
Cr16 O8 2.109042 1_565
Cr16 O32 2.203559 1_555
Cr16 O24 2.220952 1_555
Cr17 O46 1.895986 1_455
Cr17 O0 1.933060 1_555
Cr17 O28 1.946056 1_555
Cr17 O15 1.948108 1_555
Cr17 O23 2.136795 1_455
Cr18 O9 1.962064 1_655
Cr18 O5 1.978508 1_545
Cr18 O24 1.981956 1_545
Cr18 O8 2.031236 1_555
Cr18 O17 2.052518 1_645
Cr18 O20 2.267260 1_555
Cr19 O15 1.896252 1_555
Cr19 O36 2.037569 1_555
Cr19 O16 2.120582 1_555
Cr19 O35 2.133752 1_556
Cr19 O37 2.266861 1_556
Cr19 O27 2.279409 1_555
Cr20 O38 1.934404 1_555
Cr20 O33 1.970568 1_555
Cr20 O34 1.974315 1_555
Cr20 O16 1.978397 1_554
Cr20 O35 2.143888 1_555
Cr21 O6 1.910164 1_555
Cr21 O26 1.927224 1_555
Cr21 O9 1.962626 1_565
Cr21 O27 2.035784 1_555
Cr21 O1 2.079161 1_555
Cr22 O13 1.893351 1_556
Cr22 O6 1.920277 1_545
Cr22 O23 1.941861 1_455
Cr22 O28 1.962684 1_555
Cr22 O3 2.063284 1_456
Cr23 O40 1.940024 1_555
Cr23 O43 1.951390 1_555
Cr23 O4 1.958307 1_555
Cr23 O20 1.964055 1_555
Cr23 O12 2.006519 1_555
Cr24 O19 1.922535 1_555
Cr24 O42 1.972925 1_556
Cr24 O37 1.984932 1_556
Cr24 O36 2.017949 1_555
Cr24 O21 2.022440 1_556
Cr25 O0 1.844914 1_555
Cr25 O47 1.914618 1_555
Cr25 O29 1.998293 1_555
Cr25 O36 2.047129 1_555
Cr25 O22 2.113441 1_555
Cr26 O10 1.942732 1_555
Cr26 O41 1.976869 1_555
Cr26 O15 1.989858 1_554
Cr26 O35 2.023024 1_555
Cr26 O2 2.041786 1_454
Cr27 O9 1.855020 1_555
Cr27 O11 1.961428 1_555
Cr27 O0 1.996487 1_555
Cr27 O1 2.055968 1_545
Cr27 O20 2.498850 1_455
Cr28 O28 1.886539 1_554
Cr28 O13 1.949295 1_555
Cr28 O39 1.984575 1_555
Cr28 O33 2.021652 1_545
Cr28 O37 2.275017 1_555
Cr29 O25 2.019189 1_555
Cr29 O18 2.023480 1_555
Cr29 O29 2.036942 1_555
Cr29 O14 2.072531 1_555
Cr29 O35 2.140662 1_555
Cr29 O22 2.187001 1_555
Cr30 O13 1.883445 1_565
Cr30 O10 1.919138 1_555
Cr30 O17 1.929780 1_555
Cr30 O38 1.977515 1_555
Cr30 O11 2.403238 1_565
Cr31 O22 1.926486 1_555
Cr31 O39 1.934419 1_555
Cr31 O47 1.937590 1_555
Cr31 O25 2.052556 1_555
Cr31 O11 2.074937 1_555
