# generated using pymatgen
data_Rb3Ir
_symmetry_space_group_name_H-M   'P 1'
_cell_length_a   8.26072900
_cell_length_b   8.26072997
_cell_length_c   5.45696700
_cell_angle_alpha   90.00000000
_cell_angle_beta   90.00000000
_cell_angle_gamma   120.00000012
_symmetry_Int_Tables_number   1
_chemical_formula_structural   Rb3Ir
_chemical_formula_sum   'Rb6 Ir2'
_cell_volume   322.49186193
_cell_formula_units_Z   2
loop_
 _symmetry_equiv_pos_site_id
 _symmetry_equiv_pos_as_xyz
  1  'x, y, z'
loop_
 _atom_site_type_symbol
 _atom_site_label
 _atom_site_symmetry_multiplicity
 _atom_site_fract_x
 _atom_site_fract_y
 _atom_site_fract_z
 _atom_site_occupancy
  Rb  Rb0  1  0.18856900  0.37713900  0.24999900  1
  Rb  Rb1  1  0.62286000  0.81143000  0.24999900  1
  Rb  Rb2  1  0.18856900  0.81143000  0.24999900  1
  Rb  Rb3  1  0.81143000  0.62286000  0.75000000  1
  Rb  Rb4  1  0.37714000  0.18856900  0.75000000  1
  Rb  Rb5  1  0.81143000  0.18856900  0.75000000  1
  Ir  Ir0  1  0.33333400  0.66666800  0.75000000  1
  Ir  Ir1  1  0.66666600  0.33333300  0.24999900  1
loop_
_geom_bond_atom_site_label_1
_geom_bond_atom_site_label_2
_geom_bond_distance
_geom_bond_site_symmetry_2
Rb0 Rb1 3.587560 1_555
Rb0 Rb2 3.587561 1_555
Rb0 Rb5 3.837197 1_454
Rb0 Rb5 3.837205 1_455
Rb0 Rb4 3.837207 1_554
Rb0 Rb4 3.837215 1_555
Rb1 Rb2 3.587560 1_555
Rb1 Rb5 3.837197 1_564
Rb1 Rb3 3.837202 1_554
Rb1 Rb5 3.837205 1_565
Rb1 Rb3 3.837210 1_555
Rb2 Rb3 3.837197 1_454
Rb2 Rb4 3.837197 1_564
Rb2 Rb3 3.837205 1_455
Rb2 Rb4 3.837205 1_565
Rb3 Rb4 3.587556 1_555
Rb3 Rb5 3.587561 1_555
Rb4 Rb5 3.587552 1_555
Ir0 Rb1 3.425602 1_556
Ir0 Rb2 3.425606 1_556
Ir0 Rb1 3.425611 1_555
Ir0 Rb2 3.425615 1_555
Ir0 Rb0 3.425615 1_556
Ir0 Rb0 3.425624 1_555
Ir0 Rb4 4.142221 1_565
Ir0 Rb5 4.142224 1_565
Ir0 Rb3 4.142238 1_455
Ir0 Rb3 4.142238 1_555
Ir0 Rb5 4.142248 1_455
Ir0 Rb4 4.142253 1_555
Ir1 Rb4 3.425602 1_554
Ir1 Rb3 3.425606 1_554
Ir1 Rb4 3.425611 1_555
Ir1 Rb5 3.425611 1_554
Ir1 Rb3 3.425615 1_555
Ir1 Rb5 3.425619 1_555
Ir1 Rb0 4.142236 1_655
Ir1 Rb0 4.142237 1_555
Ir1 Rb2 4.142237 1_655
Ir1 Rb2 4.142237 1_545
Ir1 Rb1 4.142237 1_555
Ir1 Rb1 4.142237 1_545
