# generated using pymatgen
data_HfCrAgS4
_symmetry_space_group_name_H-M   'P 1'
_cell_length_a   14.17815965
_cell_length_b   3.60183700
_cell_length_c   6.09858392
_cell_angle_alpha   90.00000000
_cell_angle_beta   114.61767076
_cell_angle_gamma   90.00000000
_symmetry_Int_Tables_number   1
_chemical_formula_structural   HfCrAgS4
_chemical_formula_sum   'Hf2 Cr2 Ag2 S8'
_cell_volume   283.13153773
_cell_formula_units_Z   2
loop_
 _symmetry_equiv_pos_site_id
 _symmetry_equiv_pos_as_xyz
  1  'x, y, z'
loop_
 _atom_site_type_symbol
 _atom_site_label
 _atom_site_symmetry_multiplicity
 _atom_site_fract_x
 _atom_site_fract_y
 _atom_site_fract_z
 _atom_site_occupancy
  Hf  Hf0  1  0.75325900  0.00000000  0.76728500  1
  Hf  Hf1  1  0.25325900  0.50000000  0.76728500  1
  Cr  Cr0  1  0.24618400  0.00000000  0.23252300  1
  Cr  Cr1  1  0.74618400  0.50000000  0.23252300  1
  Ag  Ag0  1  0.00165100  0.50000000  0.51934000  1
  Ag  Ag1  1  0.50165100  0.00000000  0.51934000  1
  S  S0  1  0.13806300  0.50000000  0.98590000  1
  S  S1  1  0.86648900  0.50000000  0.03418900  1
  S  S2  1  0.63806300  0.00000000  0.98590000  1
  S  S3  1  0.36648900  0.00000000  0.03418900  1
  S  S4  1  0.14334000  0.00000000  0.46767900  1
  S  S5  1  0.85101400  0.00000000  0.49308400  1
  S  S6  1  0.64334000  0.50000000  0.46767900  1
  S  S7  1  0.35101400  0.50000000  0.49308400  1
loop_
_geom_bond_atom_site_label_1
_geom_bond_atom_site_label_2
_geom_bond_distance
_geom_bond_site_symmetry_2
Hf0 S2 2.501850 1_555
Hf0 S1 2.508593 1_546
Hf0 S1 2.508593 1_556
Hf0 S6 2.576484 1_555
Hf0 S6 2.576484 1_545
Hf0 S5 2.578423 1_555
Hf1 S0 2.501850 1_555
Hf1 S3 2.508593 1_556
Hf1 S3 2.508593 1_566
Hf1 S4 2.576484 1_565
Hf1 S4 2.576484 1_555
Hf1 S7 2.578423 1_555
Cr0 S4 2.434141 1_555
Cr0 S0 2.436093 1_544
Cr0 S0 2.436093 1_554
Cr0 S7 2.451490 1_555
Cr0 S7 2.451490 1_545
Cr0 S3 2.468057 1_555
Cr1 S6 2.434141 1_555
Cr1 S2 2.436093 1_554
Cr1 S2 2.436093 1_564
Cr1 S5 2.451490 1_565
Cr1 S5 2.451490 1_555
Cr1 S1 2.468057 1_555
Ag0 S0 2.692936 1_555
Ag0 S5 2.746904 1_465
Ag0 S5 2.746904 1_455
Ag0 S1 2.775378 1_455
Ag0 S4 2.811673 1_565
Ag0 S4 2.811673 1_555
Ag1 S2 2.692936 1_555
Ag1 S7 2.746904 1_555
Ag1 S7 2.746904 1_545
Ag1 S3 2.775378 1_555
Ag1 S6 2.811673 1_545
Ag1 S6 2.811673 1_555
