# generated using pymatgen
data_Er6MnSb2
_symmetry_space_group_name_H-M   'P 1'
_cell_length_a   4.32213954
_cell_length_b   8.03592073
_cell_length_c   8.03592073
_cell_angle_alpha   119.99981252
_cell_angle_beta   90.00000000
_cell_angle_gamma   90.00000000
_symmetry_Int_Tables_number   1
_chemical_formula_structural   Er6MnSb2
_chemical_formula_sum   'Er6 Mn1 Sb2'
_cell_volume   241.71384339
_cell_formula_units_Z   1
loop_
 _symmetry_equiv_pos_site_id
 _symmetry_equiv_pos_as_xyz
  1  'x, y, z'
loop_
 _atom_site_type_symbol
 _atom_site_label
 _atom_site_symmetry_multiplicity
 _atom_site_fract_x
 _atom_site_fract_y
 _atom_site_fract_z
 _atom_site_occupancy
  Er  Er0  1  0.50000000  0.76139133  0.76139133  1
  Er  Er1  1  0.50000000  0.00000082  0.23860795  1
  Er  Er2  1  0.50000000  0.23860795  -0.00000018  1
  Er  Er3  1  -0.00000000  0.40110193  0.40110193  1
  Er  Er4  1  -0.00000000  -0.00000006  0.59889922  1
  Er  Er5  1  -0.00000000  0.59889822  -0.00000006  1
  Mn  Mn0  1  -0.00000000  0.00000293  0.00000193  1
  Sb  Sb0  1  0.50000000  0.66666614  0.33333175  1
  Sb  Sb1  1  0.50000000  0.33333175  0.66666614  1
loop_
_geom_bond_atom_site_label_1
_geom_bond_atom_site_label_2
_geom_bond_distance
_geom_bond_site_symmetry_2
Er0 Mn0 2.889099 1_566
Er0 Mn0 2.889099 1_666
Er0 Sb1 3.129473 1_555
Er0 Sb0 3.129473 1_555
Er1 Mn0 2.889074 1_555
Er1 Mn0 2.889074 1_655
Er1 Sb1 3.129463 1_555
Er1 Sb0 3.129464 1_545
Er2 Mn0 2.889069 1_555
Er2 Mn0 2.889069 1_655
Er2 Sb1 3.129456 1_554
Er2 Sb0 3.129466 1_555
Er3 Mn0 3.223213 1_555
Er3 Sb1 3.268513 1_455
Er3 Sb0 3.268513 1_555
Er3 Sb1 3.268513 1_555
Er3 Sb0 3.268513 1_455
Er4 Mn0 3.223218 1_556
Er4 Sb1 3.268507 1_455
Er4 Sb1 3.268507 1_555
Er4 Sb0 3.268523 1_545
Er4 Sb0 3.268523 1_445
Er5 Mn0 3.223238 1_565
Er5 Sb0 3.268505 1_555
Er5 Sb0 3.268505 1_455
Er5 Sb1 3.268521 1_554
Er5 Sb1 3.268521 1_454
