# generated using pymatgen
data_Mg5As
_symmetry_space_group_name_H-M   'P 1'
_cell_length_a   15.78180919
_cell_length_b   15.78180919
_cell_length_c   10.27690800
_cell_angle_alpha   90.00000000
_cell_angle_beta   90.00000000
_cell_angle_gamma   155.81238758
_symmetry_Int_Tables_number   1
_chemical_formula_structural   Mg5As
_chemical_formula_sum   'Mg40 As8'
_cell_volume   1048.74373247
_cell_formula_units_Z   8
loop_
 _symmetry_equiv_pos_site_id
 _symmetry_equiv_pos_as_xyz
  1  'x, y, z'
loop_
 _atom_site_type_symbol
 _atom_site_label
 _atom_site_symmetry_multiplicity
 _atom_site_fract_x
 _atom_site_fract_y
 _atom_site_fract_z
 _atom_site_occupancy
  Mg  Mg0_0  1  0.16436650  0.33563350  0.00000000  1
  Mg  Mg0_1  1  0.16436650  0.33563350  0.50000000  1
  Mg  Mg0_2  1  0.16436650  0.83563350  0.00000000  1
  Mg  Mg0_3  1  0.16436650  0.83563350  0.50000000  1
  Mg  Mg0_4  1  0.66436650  0.33563350  0.00000000  1
  Mg  Mg0_5  1  0.66436650  0.33563350  0.50000000  1
  Mg  Mg0_6  1  0.66436650  0.83563350  0.00000000  1
  Mg  Mg0_7  1  0.66436650  0.83563350  0.50000000  1
  Mg  Mg1_0  1  0.33394000  0.16606000  0.00000000  1
  Mg  Mg1_1  1  0.33394000  0.16606000  0.50000000  1
  Mg  Mg1_2  1  0.33394000  0.66606000  0.00000000  1
  Mg  Mg1_3  1  0.33394000  0.66606000  0.50000000  1
  Mg  Mg1_4  1  0.83394000  0.16606000  0.00000000  1
  Mg  Mg1_5  1  0.83394000  0.16606000  0.50000000  1
  Mg  Mg1_6  1  0.83394000  0.66606000  0.00000000  1
  Mg  Mg1_7  1  0.83394000  0.66606000  0.50000000  1
  Mg  Mg2_0  1  0.00016050  0.49983950  0.00000000  1
  Mg  Mg2_1  1  0.00016050  0.49983950  0.50000000  1
  Mg  Mg2_2  1  0.00016050  0.99983950  0.00000000  1
  Mg  Mg2_3  1  0.00016050  0.99983950  0.50000000  1
  Mg  Mg2_4  1  0.50016050  0.49983950  0.00000000  1
  Mg  Mg2_5  1  0.50016050  0.49983950  0.50000000  1
  Mg  Mg2_6  1  0.50016050  0.99983950  0.00000000  1
  Mg  Mg2_7  1  0.50016050  0.99983950  0.50000000  1
  Mg  Mg3_0  1  0.22046400  0.27953600  0.25000000  1
  Mg  Mg3_1  1  0.22046400  0.27953600  0.75000000  1
  Mg  Mg3_2  1  0.22046400  0.77953600  0.25000000  1
  Mg  Mg3_3  1  0.22046400  0.77953600  0.75000000  1
  Mg  Mg3_4  1  0.72046400  0.27953600  0.25000000  1
  Mg  Mg3_5  1  0.72046400  0.27953600  0.75000000  1
  Mg  Mg3_6  1  0.72046400  0.77953600  0.25000000  1
  Mg  Mg3_7  1  0.72046400  0.77953600  0.75000000  1
  Mg  Mg4_0  1  0.06003500  0.43996500  0.25000000  1
  Mg  Mg4_1  1  0.06003500  0.43996500  0.75000000  1
  Mg  Mg4_2  1  0.06003500  0.93996500  0.25000000  1
  Mg  Mg4_3  1  0.06003500  0.93996500  0.75000000  1
  Mg  Mg4_4  1  0.56003500  0.43996500  0.25000000  1
  Mg  Mg4_5  1  0.56003500  0.43996500  0.75000000  1
  Mg  Mg4_6  1  0.56003500  0.93996500  0.25000000  1
  Mg  Mg4_7  1  0.56003500  0.93996500  0.75000000  1
  As  As0_0  1  0.38769850  0.11230150  0.25000000  1
  As  As0_1  1  0.38769850  0.11230150  0.75000000  1
  As  As0_2  1  0.38769850  0.61230150  0.25000000  1
  As  As0_3  1  0.38769850  0.61230150  0.75000000  1
  As  As0_4  1  0.88769850  0.11230150  0.25000000  1
  As  As0_5  1  0.88769850  0.11230150  0.75000000  1
  As  As0_6  1  0.88769850  0.61230150  0.25000000  1
  As  As0_7  1  0.88769850  0.61230150  0.75000000  1
loop_
_geom_bond_atom_site_label_1
_geom_bond_atom_site_label_2
_geom_bond_distance
_geom_bond_site_symmetry_2
Mg0_0 Mg1_2 2.982380 1_555
Mg0_0 Mg1_4 2.982380 1_455
Mg0_0 Mg3_1 3.098140 1_554
Mg0_0 Mg3_0 3.098140 1_555
Mg0_0 Mg2_4 3.121607 1_555
Mg0_0 Mg2_2 3.121607 1_545
Mg0_0 Mg0_6 3.306492 1_445
Mg0_0 Mg0_6 3.306492 1_555
Mg0_1 Mg1_3 2.982380 1_555
Mg0_1 Mg1_5 2.982380 1_455
Mg0_1 Mg3_0 3.098140 1_555
Mg0_1 Mg3_1 3.098140 1_555
Mg0_1 Mg2_5 3.121607 1_555
Mg0_1 Mg2_3 3.121607 1_545
Mg0_1 Mg0_7 3.306492 1_445
Mg0_1 Mg0_7 3.306492 1_555
Mg0_2 Mg1_6 2.982380 1_455
Mg0_2 Mg1_0 2.982380 1_565
Mg0_2 Mg3_3 3.098140 1_554
Mg0_2 Mg3_2 3.098140 1_555
Mg0_2 Mg2_0 3.121607 1_555
Mg0_2 Mg2_6 3.121607 1_555
Mg0_2 Mg0_4 3.306492 1_565
Mg0_2 Mg0_4 3.306492 1_455
Mg0_3 Mg1_7 2.982380 1_455
Mg0_3 Mg1_1 2.982380 1_565
Mg0_3 Mg3_2 3.098140 1_555
Mg0_3 Mg3_3 3.098140 1_555
Mg0_3 Mg2_1 3.121607 1_555
Mg0_3 Mg2_7 3.121607 1_555
Mg0_3 Mg0_5 3.306492 1_565
Mg0_3 Mg0_5 3.306492 1_455
Mg0_4 Mg1_6 2.982380 1_555
Mg0_4 Mg1_0 2.982380 1_555
Mg0_4 Mg3_5 3.098140 1_554
Mg0_4 Mg3_4 3.098140 1_555
Mg0_4 Mg2_0 3.121607 1_655
Mg0_4 Mg2_6 3.121607 1_545
Mg0_5 Mg1_7 2.982380 1_555
Mg0_5 Mg1_1 2.982380 1_555
Mg0_5 Mg3_5 3.098140 1_555
Mg0_5 Mg3_4 3.098140 1_555
Mg0_5 Mg2_1 3.121607 1_655
Mg0_5 Mg2_7 3.121607 1_545
Mg0_6 Mg1_2 2.982380 1_555
Mg0_6 Mg1_4 2.982380 1_565
Mg0_6 Mg3_7 3.098140 1_554
Mg0_6 Mg3_6 3.098140 1_555
Mg0_6 Mg2_4 3.121607 1_555
Mg0_6 Mg2_2 3.121607 1_655
Mg0_7 Mg1_3 2.982380 1_555
Mg0_7 Mg1_5 2.982380 1_565
Mg0_7 Mg3_7 3.098140 1_555
Mg0_7 Mg3_6 3.098140 1_555
Mg0_7 Mg2_5 3.121607 1_555
Mg0_7 Mg2_3 3.121607 1_655
Mg1_0 Mg2_2 3.069045 1_545
Mg1_0 Mg2_4 3.069045 1_555
Mg1_1 Mg2_3 3.069045 1_545
Mg1_1 Mg2_5 3.069045 1_555
Mg1_2 Mg2_6 3.069045 1_555
Mg1_2 Mg2_0 3.069045 1_555
Mg1_3 Mg2_7 3.069045 1_555
Mg1_3 Mg2_1 3.069045 1_555
Mg1_4 Mg2_6 3.069045 1_545
Mg1_4 Mg2_0 3.069045 1_655
Mg1_5 Mg2_7 3.069045 1_545
Mg1_5 Mg2_1 3.069045 1_655
Mg1_6 Mg2_2 3.069045 1_655
Mg1_6 Mg2_4 3.069045 1_555
Mg1_7 Mg2_3 3.069045 1_655
Mg1_7 Mg2_5 3.069045 1_555
Mg2_0 Mg4_1 3.164760 1_554
Mg2_0 Mg4_0 3.164760 1_555
Mg2_0 Mg3_2 3.189697 1_555
Mg2_0 Mg3_3 3.189697 1_554
Mg2_0 Mg3_5 3.189697 1_454
Mg2_0 Mg3_4 3.189697 1_455
Mg2_0 Mg2_6 3.306492 1_445
Mg2_0 Mg2_6 3.306492 1_555
Mg2_1 Mg4_0 3.164760 1_555
Mg2_1 Mg4_1 3.164760 1_555
Mg2_1 Mg3_3 3.189697 1_555
Mg2_1 Mg3_2 3.189697 1_555
Mg2_1 Mg3_5 3.189697 1_455
Mg2_1 Mg3_4 3.189697 1_455
Mg2_1 Mg2_7 3.306492 1_445
Mg2_1 Mg2_7 3.306492 1_555
Mg2_2 Mg4_3 3.164760 1_554
Mg2_2 Mg4_2 3.164760 1_555
Mg2_2 Mg3_7 3.189697 1_454
Mg2_2 Mg3_6 3.189697 1_455
Mg2_2 Mg3_0 3.189697 1_565
Mg2_2 Mg3_1 3.189697 1_564
Mg2_2 Mg2_4 3.306492 1_565
Mg2_2 Mg2_4 3.306492 1_455
Mg2_3 Mg4_2 3.164760 1_555
Mg2_3 Mg4_3 3.164760 1_555
Mg2_3 Mg3_7 3.189697 1_455
Mg2_3 Mg3_6 3.189697 1_455
Mg2_3 Mg3_0 3.189697 1_565
Mg2_3 Mg3_1 3.189697 1_565
Mg2_3 Mg2_5 3.306492 1_565
Mg2_3 Mg2_5 3.306492 1_455
Mg2_4 Mg4_5 3.164760 1_554
Mg2_4 Mg4_4 3.164760 1_555
Mg2_4 Mg3_7 3.189697 1_554
Mg2_4 Mg3_6 3.189697 1_555
Mg2_4 Mg3_0 3.189697 1_555
Mg2_4 Mg3_1 3.189697 1_554
Mg2_5 Mg4_5 3.164760 1_555
Mg2_5 Mg4_4 3.164760 1_555
Mg2_5 Mg3_6 3.189697 1_555
Mg2_5 Mg3_7 3.189697 1_555
Mg2_5 Mg3_0 3.189697 1_555
Mg2_5 Mg3_1 3.189697 1_555
Mg2_6 Mg4_7 3.164760 1_554
Mg2_6 Mg4_6 3.164760 1_555
Mg2_6 Mg3_3 3.189697 1_554
Mg2_6 Mg3_2 3.189697 1_555
Mg2_6 Mg3_4 3.189697 1_565
Mg2_6 Mg3_5 3.189697 1_564
Mg2_7 Mg4_6 3.164760 1_555
Mg2_7 Mg4_7 3.164760 1_555
Mg2_7 Mg3_3 3.189697 1_555
Mg2_7 Mg3_2 3.189697 1_555
Mg2_7 Mg3_4 3.189697 1_565
Mg2_7 Mg3_5 3.189697 1_565
As0_0 Mg4_2 2.911790 1_545
As0_0 Mg4_4 2.911790 1_555
As0_0 Mg3_4 3.042725 1_555
As0_0 Mg3_2 3.042725 1_545
As0_0 Mg1_0 3.058385 1_555
As0_0 Mg1_1 3.058385 1_555
As0_0 Mg0_5 3.164107 1_555
As0_0 Mg0_4 3.164107 1_555
As0_0 Mg0_3 3.164107 1_545
As0_0 Mg0_2 3.164107 1_545
As0_1 Mg4_3 2.911790 1_545
As0_1 Mg4_5 2.911790 1_555
As0_1 Mg3_5 3.042725 1_555
As0_1 Mg3_3 3.042725 1_545
As0_1 Mg1_0 3.058385 1_556
As0_1 Mg1_1 3.058385 1_555
As0_1 Mg0_5 3.164107 1_555
As0_1 Mg0_4 3.164107 1_556
As0_1 Mg0_2 3.164107 1_546
As0_1 Mg0_3 3.164107 1_545
As0_2 Mg4_6 2.911790 1_555
As0_2 Mg4_0 2.911790 1_555
As0_2 Mg3_0 3.042725 1_555
As0_2 Mg3_6 3.042725 1_555
As0_2 Mg1_2 3.058385 1_555
As0_2 Mg1_3 3.058385 1_555
As0_2 Mg0_0 3.164107 1_555
As0_2 Mg0_1 3.164107 1_555
As0_2 Mg0_6 3.164107 1_555
As0_2 Mg0_7 3.164107 1_555
As0_3 Mg4_7 2.911790 1_555
As0_3 Mg4_1 2.911790 1_555
As0_3 Mg3_1 3.042725 1_555
As0_3 Mg3_7 3.042725 1_555
As0_3 Mg1_2 3.058385 1_556
As0_3 Mg1_3 3.058385 1_555
As0_3 Mg0_0 3.164107 1_556
As0_3 Mg0_1 3.164107 1_555
As0_3 Mg0_7 3.164107 1_555
As0_3 Mg0_6 3.164107 1_556
As0_4 Mg4_6 2.911790 1_545
As0_4 Mg4_0 2.911790 1_655
As0_4 Mg3_0 3.042725 1_655
As0_4 Mg3_6 3.042725 1_545
As0_4 Mg1_5 3.058385 1_555
As0_4 Mg1_4 3.058385 1_555
As0_4 Mg0_6 3.164107 1_545
As0_4 Mg0_7 3.164107 1_545
As0_4 Mg0_0 3.164107 1_655
As0_4 Mg0_1 3.164107 1_655
As0_5 Mg4_7 2.911790 1_545
As0_5 Mg4_1 2.911790 1_655
As0_5 Mg3_1 3.042725 1_655
As0_5 Mg3_7 3.042725 1_545
As0_5 Mg1_5 3.058385 1_555
As0_5 Mg1_4 3.058385 1_556
As0_5 Mg0_0 3.164107 1_656
As0_5 Mg0_6 3.164107 1_546
As0_5 Mg0_7 3.164107 1_545
As0_5 Mg0_1 3.164107 1_655
As0_6 Mg4_2 2.911790 1_655
As0_6 Mg4_4 2.911790 1_555
As0_6 Mg3_4 3.042725 1_555
As0_6 Mg3_2 3.042725 1_655
As0_6 Mg1_6 3.058385 1_555
As0_6 Mg1_7 3.058385 1_555
As0_6 Mg0_5 3.164107 1_555
As0_6 Mg0_2 3.164107 1_655
As0_6 Mg0_4 3.164107 1_555
As0_6 Mg0_3 3.164107 1_655
As0_7 Mg4_3 2.911790 1_655
As0_7 Mg4_5 2.911790 1_555
As0_7 Mg3_5 3.042725 1_555
As0_7 Mg3_3 3.042725 1_655
As0_7 Mg1_6 3.058385 1_556
As0_7 Mg1_7 3.058385 1_555
As0_7 Mg0_5 3.164107 1_555
As0_7 Mg0_4 3.164107 1_556
As0_7 Mg0_3 3.164107 1_655
As0_7 Mg0_2 3.164107 1_656
