# generated using pymatgen
data_Mg2Fe3MoS8
_symmetry_space_group_name_H-M   'P 1'
_cell_length_a   7.05402175
_cell_length_b   7.06063122
_cell_length_c   7.04134336
_cell_angle_alpha   60.13830880
_cell_angle_beta   59.91448967
_cell_angle_gamma   60.13574475
_symmetry_Int_Tables_number   1
_chemical_formula_structural   Mg2Fe3MoS8
_chemical_formula_sum   'Mg2 Fe3 Mo1 S8'
_cell_volume   248.33311786
_cell_formula_units_Z   1
loop_
 _symmetry_equiv_pos_site_id
 _symmetry_equiv_pos_as_xyz
  1  'x, y, z'
loop_
 _atom_site_type_symbol
 _atom_site_label
 _atom_site_symmetry_multiplicity
 _atom_site_fract_x
 _atom_site_fract_y
 _atom_site_fract_z
 _atom_site_occupancy
  Mg  Mg0  1  0.87249300  0.88472900  0.87162700  1
  Mg  Mg1  1  0.12749600  0.11527700  0.12839500  1
  Fe  Fe0  1  0.49998000  0.49999200  0.50002300  1
  Fe  Fe1  1  0.49996200  0.50004000  0.99995200  1
  Fe  Fe2  1  0.00002800  0.49999200  0.50001300  1
  Mo  Mo0  1  0.50001100  0.99999100  0.50000000  1
  S  S0  1  0.74499700  0.71739200  0.74523800  1
  S  S1  1  0.25509900  0.28257900  0.70770100  1
  S  S2  1  0.26896100  0.69336000  0.26897300  1
  S  S3  1  0.70727600  0.28291700  0.25500300  1
  S  S4  1  0.73106100  0.30665500  0.73099500  1
  S  S5  1  0.29270700  0.71709500  0.74498600  1
  S  S6  1  0.25502100  0.28259600  0.25476600  1
  S  S7  1  0.74491300  0.71738000  0.29232800  1
loop_
_geom_bond_atom_site_label_1
_geom_bond_atom_site_label_2
_geom_bond_distance
_geom_bond_site_symmetry_2
Mg0 S7 2.425263 1_556
Mg0 S5 2.426827 1_655
Mg0 S0 2.429933 1_555
Mg0 S4 2.437963 1_565
Mg1 S1 2.425203 1_554
Mg1 S3 2.426863 1_455
Mg1 S6 2.429887 1_555
Mg1 S2 2.437911 1_545
Fe0 S5 2.309789 1_555
Fe0 S3 2.309940 1_555
Fe0 S1 2.313353 1_555
Fe0 S7 2.313496 1_555
Fe0 S4 2.323057 1_555
Fe0 S2 2.323118 1_555
Fe1 S0 2.313489 1_555
Fe1 S6 2.313504 1_556
Fe1 S5 2.317209 1_555
Fe1 S4 2.317642 1_555
Fe1 S2 2.317687 1_556
Fe1 S3 2.317933 1_556
Fe2 S0 2.312793 1_455
Fe2 S6 2.312862 1_555
Fe2 S2 2.320105 1_555
Fe2 S4 2.320147 1_455
Fe2 S1 2.320420 1_555
Fe2 S7 2.320649 1_455
Mo0 S7 2.458521 1_555
Mo0 S1 2.458530 1_565
Mo0 S3 2.460155 1_565
Mo0 S5 2.460173 1_555
Mo0 S0 2.465024 1_555
Mo0 S6 2.465029 1_565
