# generated using pymatgen
data_YbSe
_symmetry_space_group_name_H-M   'P 1'
_cell_length_a   4.76058461
_cell_length_b   4.76058461
_cell_length_c   5.54398844
_cell_angle_alpha   90.00000000
_cell_angle_beta   90.00000000
_cell_angle_gamma   119.99999903
_symmetry_Int_Tables_number   1
_chemical_formula_structural   YbSe
_chemical_formula_sum   'Yb2 Se2'
_cell_volume   108.81118226
_cell_formula_units_Z   2
loop_
 _symmetry_equiv_pos_site_id
 _symmetry_equiv_pos_as_xyz
  1  'x, y, z'
loop_
 _atom_site_type_symbol
 _atom_site_label
 _atom_site_symmetry_multiplicity
 _atom_site_fract_x
 _atom_site_fract_y
 _atom_site_fract_z
 _atom_site_occupancy
  Yb  Yb0  1  0.66666700  0.33333300  0.25000000  1
  Yb  Yb1  1  0.33333300  0.66666700  0.75000000  1
  Se  Se0  1  0.66666700  0.33333300  0.75000000  1
  Se  Se1  1  0.33333300  0.66666700  0.25000000  1
loop_
_geom_bond_atom_site_label_1
_geom_bond_atom_site_label_2
_geom_bond_distance
_geom_bond_site_symmetry_2
Se0 Yb1 2.748522 1_655
Se0 Yb1 2.748522 1_545
Se0 Yb1 2.748530 1_555
Se0 Yb0 2.771994 1_555
Se0 Yb0 2.771994 1_556
Se1 Yb0 2.748522 1_565
Se1 Yb0 2.748522 1_455
Se1 Yb0 2.748530 1_555
Se1 Yb1 2.771994 1_555
Se1 Yb1 2.771994 1_554
