# generated using pymatgen
data_Na3Th10BeF45
_symmetry_space_group_name_H-M   'P 1'
_cell_length_a   11.95133169
_cell_length_b   11.95133169
_cell_length_c   23.66826598
_cell_angle_alpha   90.00000000
_cell_angle_beta   90.00000000
_cell_angle_gamma   90.00000000
_symmetry_Int_Tables_number   1
_chemical_formula_structural   Na3Th10BeF45
_chemical_formula_sum   'Na12 Th40 Be4 F180'
_cell_volume   3380.64089374
_cell_formula_units_Z   4
loop_
 _symmetry_equiv_pos_site_id
 _symmetry_equiv_pos_as_xyz
  1  'x, y, z'
loop_
 _atom_site_type_symbol
 _atom_site_label
 _atom_site_symmetry_multiplicity
 _atom_site_fract_x
 _atom_site_fract_y
 _atom_site_fract_z
 _atom_site_occupancy
  Na  Na0  1  0.75000000  0.75000000  0.55371900  1
  Na  Na1  1  0.75000000  0.75000000  0.05371900  1
  Na  Na2  1  0.25000000  0.25000000  0.44628100  1
  Na  Na3  1  0.25000000  0.25000000  0.94628100  1
  Na  Na4  1  0.58503658  0.58503658  0.30129100  1
  Na  Na5  1  0.58503658  0.91496342  0.80129100  1
  Na  Na6  1  0.91496342  0.58503658  0.80129100  1
  Na  Na7  1  0.91496342  0.91496342  0.30129100  1
  Na  Na8  1  0.41496342  0.41496342  0.69870900  1
  Na  Na9  1  0.41496342  0.08503658  0.19870900  1
  Na  Na10  1  0.08503658  0.41496342  0.19870900  1
  Na  Na11  1  0.08503658  0.08503658  0.69870900  1
  Th  Th0  1  0.01566184  0.75793063  0.95194460  1
  Th  Th1  1  0.01566184  0.74206937  0.45194460  1
  Th  Th2  1  0.48433816  0.75793063  0.45194460  1
  Th  Th3  1  0.48433816  0.74206937  0.95194460  1
  Th  Th4  1  0.75793063  0.01566184  0.95194460  1
  Th  Th5  1  0.74206937  0.01566184  0.45194460  1
  Th  Th6  1  0.75793063  0.48433816  0.45194460  1
  Th  Th7  1  0.74206937  0.48433816  0.95194460  1
  Th  Th8  1  0.98433816  0.24206937  0.04805540  1
  Th  Th9  1  0.98433816  0.25793063  0.54805540  1
  Th  Th10  1  0.51566184  0.24206937  0.54805540  1
  Th  Th11  1  0.51566184  0.25793063  0.04805540  1
  Th  Th12  1  0.24206937  0.98433816  0.04805540  1
  Th  Th13  1  0.25793063  0.98433816  0.54805540  1
  Th  Th14  1  0.24206937  0.51566184  0.54805540  1
  Th  Th15  1  0.25793063  0.51566184  0.04805540  1
  Th  Th16  1  0.48063826  0.74471375  0.64688864  1
  Th  Th17  1  0.48063826  0.75528625  0.14688864  1
  Th  Th18  1  0.01936174  0.74471375  0.14688864  1
  Th  Th19  1  0.01936174  0.75528625  0.64688864  1
  Th  Th20  1  0.74471375  0.48063826  0.64688864  1
  Th  Th21  1  0.75528625  0.48063826  0.14688864  1
  Th  Th22  1  0.74471375  0.01936174  0.14688864  1
  Th  Th23  1  0.75528625  0.01936174  0.64688864  1
  Th  Th24  1  0.51936174  0.25528625  0.35311136  1
  Th  Th25  1  0.51936174  0.24471375  0.85311136  1
  Th  Th26  1  0.98063826  0.25528625  0.85311136  1
  Th  Th27  1  0.98063826  0.24471375  0.35311136  1
  Th  Th28  1  0.25528625  0.51936174  0.35311136  1
  Th  Th29  1  0.24471375  0.51936174  0.85311136  1
  Th  Th30  1  0.25528625  0.98063826  0.85311136  1
  Th  Th31  1  0.24471375  0.98063826  0.35311136  1
  Th  Th32  1  0.60588155  0.60588155  0.80037475  1
  Th  Th33  1  0.60588155  0.89411845  0.30037475  1
  Th  Th34  1  0.89411845  0.60588155  0.30037475  1
  Th  Th35  1  0.89411845  0.89411845  0.80037475  1
  Th  Th36  1  0.39411845  0.39411845  0.19962525  1
  Th  Th37  1  0.39411845  0.10588155  0.69962525  1
  Th  Th38  1  0.10588155  0.39411845  0.69962525  1
  Th  Th39  1  0.10588155  0.10588155  0.19962525  1
  Be  Be0  1  0.75000000  0.25000000  0.25000000  1
  Be  Be1  1  0.75000000  0.25000000  0.75000000  1
  Be  Be2  1  0.25000000  0.75000000  0.25000000  1
  Be  Be3  1  0.25000000  0.75000000  0.75000000  1
  F  F0  1  0.65762449  0.65762449  0.63308104  1
  F  F1  1  0.65762449  0.84237551  0.13308104  1
  F  F2  1  0.84237551  0.65762449  0.13308104  1
  F  F3  1  0.84237551  0.84237551  0.63308104  1
  F  F4  1  0.34237551  0.34237551  0.36691896  1
  F  F5  1  0.34237551  0.15762449  0.86691896  1
  F  F6  1  0.15762449  0.34237551  0.86691896  1
  F  F7  1  0.15762449  0.15762449  0.36691896  1
  F  F8  1  0.66626502  0.66626502  0.97190941  1
  F  F9  1  0.66626502  0.83373498  0.47190941  1
  F  F10  1  0.83373498  0.66626502  0.47190941  1
  F  F11  1  0.83373498  0.83373498  0.97190941  1
  F  F12  1  0.33373498  0.33373498  0.02809059  1
  F  F13  1  0.33373498  0.16626502  0.52809059  1
  F  F14  1  0.16626502  0.33373498  0.52809059  1
  F  F15  1  0.16626502  0.16626502  0.02809059  1
  F  F16  1  0.54657692  0.54657692  0.70618780  1
  F  F17  1  0.54657692  0.95342308  0.20618780  1
  F  F18  1  0.95342308  0.54657692  0.20618780  1
  F  F19  1  0.95342308  0.95342308  0.70618780  1
  F  F20  1  0.45342308  0.45342308  0.29381220  1
  F  F21  1  0.45342308  0.04657692  0.79381220  1
  F  F22  1  0.04657692  0.45342308  0.79381220  1
  F  F23  1  0.04657692  0.04657692  0.29381220  1
  F  F24  1  0.55875579  0.55875579  0.90089989  1
  F  F25  1  0.55875579  0.94124421  0.40089989  1
  F  F26  1  0.94124421  0.55875579  0.40089989  1
  F  F27  1  0.94124421  0.94124421  0.90089989  1
  F  F28  1  0.44124421  0.44124421  0.09910011  1
  F  F29  1  0.44124421  0.05875579  0.59910011  1
  F  F30  1  0.05875579  0.44124421  0.59910011  1
  F  F31  1  0.05875579  0.05875579  0.09910011  1
  F  F32  1  0.60181761  0.60181761  0.46083090  1
  F  F33  1  0.60181761  0.89818239  0.96083090  1
  F  F34  1  0.89818239  0.60181761  0.96083090  1
  F  F35  1  0.89818239  0.89818239  0.46083090  1
  F  F36  1  0.39818239  0.39818239  0.53916910  1
  F  F37  1  0.39818239  0.10181761  0.03916910  1
  F  F38  1  0.10181761  0.39818239  0.03916910  1
  F  F39  1  0.10181761  0.10181761  0.53916910  1
  F  F40  1  0.61642443  0.61642443  0.13400985  1
  F  F41  1  0.61642443  0.88357557  0.63400985  1
  F  F42  1  0.88357557  0.61642443  0.63400985  1
  F  F43  1  0.88357557  0.88357557  0.13400985  1
  F  F44  1  0.38357557  0.38357557  0.86599015  1
  F  F45  1  0.38357557  0.11642443  0.36599015  1
  F  F46  1  0.11642443  0.38357557  0.36599015  1
  F  F47  1  0.11642443  0.11642443  0.86599015  1
  F  F48  1  0.41129812  0.58870188  -0.00000000  1
  F  F49  1  0.41129812  0.91129812  0.50000000  1
  F  F50  1  0.08870188  0.58870188  0.50000000  1
  F  F51  1  0.08870188  0.91129812  -0.00000000  1
  F  F52  1  0.58870188  0.41129812  -0.00000000  1
  F  F53  1  0.91129812  0.41129812  0.50000000  1
  F  F54  1  0.58870188  0.08870188  0.50000000  1
  F  F55  1  0.91129812  0.08870188  -0.00000000  1
  F  F56  1  0.33989144  0.66010856  0.50000000  1
  F  F57  1  0.33989144  0.83989144  -0.00000000  1
  F  F58  1  0.16010856  0.66010856  -0.00000000  1
  F  F59  1  0.16010856  0.83989144  0.50000000  1
  F  F60  1  0.66010856  0.33989144  0.50000000  1
  F  F61  1  0.83989144  0.33989144  -0.00000000  1
  F  F62  1  0.66010856  0.16010856  -0.00000000  1
  F  F63  1  0.83989144  0.16010856  0.50000000  1
  F  F64  1  0.75000000  0.75000000  0.79873745  1
  F  F65  1  0.75000000  0.75000000  0.29873745  1
  F  F66  1  0.25000000  0.25000000  0.20126255  1
  F  F67  1  0.25000000  0.25000000  0.70126255  1
  F  F68  1  0.08587254  0.91973509  0.80720531  1
  F  F69  1  0.08587254  0.58026491  0.30720531  1
  F  F70  1  0.41412746  0.91973509  0.30720531  1
  F  F71  1  0.41412746  0.58026491  0.80720531  1
  F  F72  1  0.91973509  0.08587254  0.80720531  1
  F  F73  1  0.58026491  0.08587254  0.30720531  1
  F  F74  1  0.91973509  0.41412746  0.30720531  1
  F  F75  1  0.58026491  0.41412746  0.80720531  1
  F  F76  1  0.91412746  0.08026491  0.19279469  1
  F  F77  1  0.91412746  0.41973509  0.69279469  1
  F  F78  1  0.58587254  0.08026491  0.69279469  1
  F  F79  1  0.58587254  0.41973509  0.19279469  1
  F  F80  1  0.08026491  0.91412746  0.19279469  1
  F  F81  1  0.41973509  0.91412746  0.69279469  1
  F  F82  1  0.08026491  0.58587254  0.69279469  1
  F  F83  1  0.41973509  0.58587254  0.19279469  1
  F  F84  1  0.75826647  0.55951528  0.85965701  1
  F  F85  1  0.75826647  0.94048472  0.35965701  1
  F  F86  1  0.74173353  0.55951528  0.35965701  1
  F  F87  1  0.74173353  0.94048472  0.85965701  1
  F  F88  1  0.55951528  0.75826647  0.85965701  1
  F  F89  1  0.94048472  0.75826647  0.35965701  1
  F  F90  1  0.55951528  0.74173353  0.35965701  1
  F  F91  1  0.94048472  0.74173353  0.85965701  1
  F  F92  1  0.24173353  0.44048472  0.14034299  1
  F  F93  1  0.24173353  0.05951528  0.64034299  1
  F  F94  1  0.25826647  0.44048472  0.64034299  1
  F  F95  1  0.25826647  0.05951528  0.14034299  1
  F  F96  1  0.44048472  0.24173353  0.14034299  1
  F  F97  1  0.05951528  0.24173353  0.64034299  1
  F  F98  1  0.44048472  0.25826647  0.64034299  1
  F  F99  1  0.05951528  0.25826647  0.14034299  1
  F  F100  1  0.75709209  0.55682916  0.73959046  1
  F  F101  1  0.75709209  0.94317084  0.23959046  1
  F  F102  1  0.74290791  0.55682916  0.23959046  1
  F  F103  1  0.74290791  0.94317084  0.73959046  1
  F  F104  1  0.55682916  0.75709209  0.73959046  1
  F  F105  1  0.94317084  0.75709209  0.23959046  1
  F  F106  1  0.55682916  0.74290791  0.23959046  1
  F  F107  1  0.94317084  0.74290791  0.73959046  1
  F  F108  1  0.24290791  0.44317084  0.26040954  1
  F  F109  1  0.24290791  0.05682916  0.76040954  1
  F  F110  1  0.25709209  0.44317084  0.76040954  1
  F  F111  1  0.25709209  0.05682916  0.26040954  1
  F  F112  1  0.44317084  0.24290791  0.26040954  1
  F  F113  1  0.05682916  0.24290791  0.76040954  1
  F  F114  1  0.44317084  0.25709209  0.76040954  1
  F  F115  1  0.05682916  0.25709209  0.26040954  1
  F  F116  1  0.09333746  0.60534309  0.89419473  1
  F  F117  1  0.09333746  0.89465691  0.39419473  1
  F  F118  1  0.40666254  0.60534309  0.39419473  1
  F  F119  1  0.40666254  0.89465691  0.89419473  1
  F  F120  1  0.60534309  0.09333746  0.89419473  1
  F  F121  1  0.89465691  0.09333746  0.39419473  1
  F  F122  1  0.60534309  0.40666254  0.39419473  1
  F  F123  1  0.89465691  0.40666254  0.89419473  1
  F  F124  1  0.90666254  0.39465691  0.10580527  1
  F  F125  1  0.90666254  0.10534309  0.60580527  1
  F  F126  1  0.59333746  0.39465691  0.60580527  1
  F  F127  1  0.59333746  0.10534309  0.10580527  1
  F  F128  1  0.39465691  0.90666254  0.10580527  1
  F  F129  1  0.10534309  0.90666254  0.60580527  1
  F  F130  1  0.39465691  0.59333746  0.60580527  1
  F  F131  1  0.10534309  0.59333746  0.10580527  1
  F  F132  1  0.33512624  0.66462015  0.90150872  1
  F  F133  1  0.33512624  0.83537985  0.40150872  1
  F  F134  1  0.16487376  0.66462015  0.40150872  1
  F  F135  1  0.16487376  0.83537985  0.90150872  1
  F  F136  1  0.66462015  0.33512624  0.90150872  1
  F  F137  1  0.83537985  0.33512624  0.40150872  1
  F  F138  1  0.66462015  0.16487376  0.40150872  1
  F  F139  1  0.83537985  0.16487376  0.90150872  1
  F  F140  1  0.66487376  0.33537985  0.09849128  1
  F  F141  1  0.66487376  0.16462015  0.59849128  1
  F  F142  1  0.83512624  0.33537985  0.59849128  1
  F  F143  1  0.83512624  0.16462015  0.09849128  1
  F  F144  1  0.33537985  0.66487376  0.09849128  1
  F  F145  1  0.16462015  0.66487376  0.59849128  1
  F  F146  1  0.33537985  0.83512624  0.59849128  1
  F  F147  1  0.16462015  0.83512624  0.09849128  1
  F  F148  1  0.33744502  0.69325063  0.70960645  1
  F  F149  1  0.33744502  0.80674937  0.20960645  1
  F  F150  1  0.16255498  0.69325063  0.20960645  1
  F  F151  1  0.16255498  0.80674937  0.70960645  1
  F  F152  1  0.69325063  0.33744502  0.70960645  1
  F  F153  1  0.80674937  0.33744502  0.20960645  1
  F  F154  1  0.69325063  0.16255498  0.20960645  1
  F  F155  1  0.80674937  0.16255498  0.70960645  1
  F  F156  1  0.66255498  0.30674937  0.29039355  1
  F  F157  1  0.66255498  0.19325063  0.79039355  1
  F  F158  1  0.83744502  0.30674937  0.79039355  1
  F  F159  1  0.83744502  0.19325063  0.29039355  1
  F  F160  1  0.30674937  0.66255498  0.29039355  1
  F  F161  1  0.19325063  0.66255498  0.79039355  1
  F  F162  1  0.30674937  0.83744502  0.79039355  1
  F  F163  1  0.19325063  0.83744502  0.29039355  1
  F  F164  1  0.53265389  0.74486677  0.54951351  1
  F  F165  1  0.53265389  0.75513323  0.04951351  1
  F  F166  1  0.96734611  0.74486677  0.04951351  1
  F  F167  1  0.96734611  0.75513323  0.54951351  1
  F  F168  1  0.74486677  0.53265389  0.54951351  1
  F  F169  1  0.75513323  0.53265389  0.04951351  1
  F  F170  1  0.74486677  0.96734611  0.04951351  1
  F  F171  1  0.75513323  0.96734611  0.54951351  1
  F  F172  1  0.46734611  0.25513323  0.45048649  1
  F  F173  1  0.46734611  0.24486677  0.95048649  1
  F  F174  1  0.03265389  0.25513323  0.95048649  1
  F  F175  1  0.03265389  0.24486677  0.45048649  1
  F  F176  1  0.25513323  0.46734611  0.45048649  1
  F  F177  1  0.24486677  0.46734611  0.95048649  1
  F  F178  1  0.25513323  0.03265389  0.95048649  1
  F  F179  1  0.24486677  0.03265389  0.45048649  1
loop_
_geom_bond_atom_site_label_1
_geom_bond_atom_site_label_2
_geom_bond_distance
_geom_bond_site_symmetry_2
Be0 F154 1.570421 1_555
Be0 F153 1.570421 1_555
Be0 F159 1.570421 1_555
Be0 F156 1.570421 1_555
Be1 F152 1.570421 1_555
Be1 F158 1.570421 1_555
Be1 F157 1.570421 1_555
Be1 F155 1.570421 1_555
Be2 F163 1.570421 1_555
Be2 F160 1.570421 1_555
Be2 F149 1.570421 1_555
Be2 F150 1.570421 1_555
Be3 F151 1.570421 1_555
Be3 F148 1.570421 1_555
Be3 F161 1.570421 1_555
Be3 F162 1.570421 1_555
F0 Th16 2.379977 1_555
F0 Th20 2.379977 1_555
F0 Na0 2.442524 1_555
F1 Th22 2.379977 1_565
F1 Th17 2.379977 1_555
F1 Na1 2.442524 1_555
F2 Th18 2.379977 1_655
F2 Th21 2.379977 1_555
F2 Na1 2.442524 1_555
F3 Th19 2.379977 1_655
F3 Th23 2.379977 1_565
F3 Na0 2.442524 1_555
F4 Th28 2.379977 1_555
F4 Th24 2.379977 1_555
F4 Na2 2.442524 1_555
F5 Th25 2.379977 1_555
F5 Th30 2.379977 1_545
F5 Na3 2.442524 1_555
F6 Th26 2.379977 1_455
F6 Th29 2.379977 1_555
F6 Na3 2.442524 1_555
F7 Th27 2.379977 1_455
F7 Th31 2.379977 1_545
F7 Na2 2.442524 1_555
F8 Na1 2.398375 1_556
F8 Th3 2.402394 1_555
F8 Th7 2.402394 1_555
F9 Na0 2.398375 1_555
F9 Th2 2.402394 1_555
F9 Th5 2.402394 1_565
F10 Na0 2.398375 1_555
F10 Th6 2.402394 1_555
F10 Th1 2.402394 1_655
F11 Na1 2.398375 1_556
F11 Th0 2.402394 1_655
F11 Th4 2.402394 1_565
F12 Na3 2.398375 1_554
F12 Th15 2.402394 1_555
F12 Th11 2.402394 1_555
F13 Na2 2.398375 1_555
F13 Th13 2.402394 1_545
F13 Th10 2.402394 1_555
F14 Na2 2.398375 1_555
F14 Th9 2.402394 1_455
F14 Th14 2.402394 1_555
F15 Na3 2.398375 1_554
F15 Th8 2.402394 1_455
F15 Th12 2.402394 1_545
F16 Na8 2.231528 1_555
F16 Th32 2.444223 1_555
F17 Na9 2.231528 1_565
F17 Th33 2.444223 1_555
F18 Na10 2.231528 1_655
F18 Th34 2.444223 1_555
F19 Na11 2.231528 1_665
F19 Th35 2.444223 1_555
F20 Na4 2.231528 1_555
F20 Th36 2.444223 1_555
F21 Na5 2.231528 1_545
F21 Th37 2.444223 1_555
F22 Na6 2.231528 1_455
F22 Th38 2.444223 1_555
F23 Na7 2.231528 1_445
F23 Th39 2.444223 1_555
F24 Th32 2.509040 1_555
F24 Th3 2.655259 1_555
F24 Th7 2.655259 1_555
F25 Th33 2.509040 1_555
F25 Th2 2.655259 1_555
F25 Th5 2.655259 1_565
F26 Th34 2.509040 1_555
F26 Th6 2.655259 1_555
F26 Th1 2.655259 1_655
F27 Th35 2.509040 1_555
F27 Th4 2.655259 1_565
F27 Th0 2.655259 1_655
F28 Th36 2.509040 1_555
F28 Th15 2.655259 1_555
F28 Th11 2.655259 1_555
F29 Th37 2.509040 1_555
F29 Th13 2.655259 1_545
F29 Th10 2.655259 1_555
F30 Th38 2.509040 1_555
F30 Th9 2.655259 1_455
F30 Th14 2.655259 1_555
F31 Th39 2.509040 1_555
F31 Th12 2.655259 1_545
F31 Th8 2.655259 1_455
F32 Th2 2.344484 1_555
F32 Th6 2.344484 1_555
F33 Th3 2.344484 1_555
F33 Th4 2.344484 1_565
F34 Th7 2.344484 1_555
F34 Th0 2.344484 1_655
F35 Th1 2.344484 1_655
F35 Th5 2.344484 1_565
F36 Th14 2.344484 1_555
F36 Th10 2.344484 1_555
F37 Th12 2.344484 1_545
F37 Th11 2.344484 1_555
F38 Th8 2.344484 1_455
F38 Th15 2.344484 1_555
F39 Th9 2.344484 1_455
F39 Th13 2.344484 1_545
F40 Th17 2.341088 1_555
F40 Th21 2.341088 1_555
F41 Th16 2.341088 1_555
F41 Th23 2.341088 1_565
F42 Th19 2.341088 1_655
F42 Th20 2.341088 1_555
F43 Th18 2.341088 1_655
F43 Th22 2.341088 1_565
F44 Th25 2.341088 1_555
F44 Th29 2.341088 1_555
F45 Th24 2.341088 1_555
F45 Th31 2.341088 1_545
F46 Th28 2.341088 1_555
F46 Th27 2.341088 1_455
F47 Th30 2.341088 1_545
F47 Th26 2.341088 1_455
F48 Th15 2.327089 1_555
F48 Th3 2.327089 1_554
F49 Th2 2.327089 1_555
F49 Th13 2.327089 1_555
F50 Th14 2.327089 1_555
F50 Th1 2.327089 1_555
F51 Th12 2.327089 1_555
F51 Th0 2.327089 1_554
F52 Th11 2.327089 1_555
F52 Th7 2.327089 1_554
F53 Th6 2.327089 1_555
F53 Th9 2.327089 1_555
F54 Th10 2.327089 1_555
F54 Th5 2.327089 1_555
F55 Th8 2.327089 1_555
F55 Th4 2.327089 1_554
F56 Th14 2.375010 1_555
F56 Th2 2.375010 1_555
F57 Th12 2.375010 1_555
F57 Th3 2.375010 1_554
F58 Th15 2.375010 1_555
F58 Th0 2.375010 1_554
F59 Th13 2.375010 1_555
F59 Th1 2.375010 1_555
F60 Th10 2.375010 1_555
F60 Th6 2.375010 1_555
F61 Th8 2.375010 1_555
F61 Th7 2.375010 1_554
F62 Th11 2.375010 1_555
F62 Th4 2.375010 1_554
F63 Th9 2.375010 1_555
F63 Th5 2.375010 1_555
F64 Th32 2.436160 1_555
F64 Th35 2.436160 1_555
F64 Na6 2.788823 1_555
F64 Na5 2.788823 1_555
F65 Th34 2.436160 1_555
F65 Th33 2.436160 1_555
F65 Na4 2.788823 1_555
F65 Na7 2.788823 1_555
F66 Th39 2.436160 1_555
F66 Th36 2.436160 1_555
F66 Na9 2.788823 1_555
F66 Na10 2.788823 1_555
F67 Th38 2.436160 1_555
F67 Th37 2.436160 1_555
F67 Na11 2.788823 1_555
F67 Na8 2.788823 1_555
F68 Th35 2.317721 1_455
F68 Th30 2.410354 1_555
F69 Th34 2.317721 1_455
F69 Th28 2.410354 1_555
F70 Th33 2.317721 1_555
F70 Th31 2.410354 1_555
F71 Th32 2.317721 1_555
F71 Th29 2.410354 1_555
F72 Th35 2.317721 1_545
F72 Th26 2.410354 1_555
F73 Th33 2.317721 1_545
F73 Th24 2.410354 1_555
F74 Th34 2.317721 1_555
F74 Th27 2.410354 1_555
F75 Th32 2.317721 1_555
F75 Th25 2.410354 1_555
F76 Th39 2.317721 1_655
F76 Th22 2.410354 1_555
F77 Th38 2.317721 1_655
F77 Th20 2.410354 1_555
F78 Th37 2.317721 1_555
F78 Th23 2.410354 1_555
F79 Th36 2.317721 1_555
F79 Th21 2.410354 1_555
F80 Th39 2.317721 1_565
F80 Th18 2.410354 1_555
F81 Th37 2.317721 1_565
F81 Th16 2.410354 1_555
F82 Th38 2.317721 1_555
F82 Th19 2.410354 1_555
F83 Th36 2.317721 1_555
F83 Th17 2.410354 1_555
F84 Na6 2.347021 1_555
F84 Th32 2.364860 1_555
F84 Th7 2.369773 1_555
F85 Na7 2.347021 1_555
F85 Th33 2.364860 1_555
F85 Th5 2.369773 1_565
F86 Na4 2.347021 1_555
F86 Th34 2.364860 1_555
F86 Th6 2.369773 1_555
F87 Na5 2.347021 1_555
F87 Th35 2.364860 1_555
F87 Th4 2.369773 1_565
F88 Na5 2.347021 1_555
F88 Th32 2.364860 1_555
F88 Th3 2.369773 1_555
F89 Na7 2.347021 1_555
F89 Th34 2.364860 1_555
F89 Th1 2.369773 1_655
F90 Na4 2.347021 1_555
F90 Th33 2.364860 1_555
F90 Th2 2.369773 1_555
F91 Na6 2.347021 1_555
F91 Th35 2.364860 1_555
F91 Th0 2.369773 1_655
F92 Na10 2.347021 1_555
F92 Th36 2.364860 1_555
F92 Th15 2.369773 1_555
F93 Na11 2.347021 1_555
F93 Th37 2.364860 1_555
F93 Th13 2.369773 1_545
F94 Na8 2.347021 1_555
F94 Th38 2.364860 1_555
F94 Th14 2.369773 1_555
F95 Na9 2.347021 1_555
F95 Th39 2.364860 1_555
F95 Th12 2.369773 1_545
F96 Na9 2.347021 1_555
F96 Th36 2.364860 1_555
F96 Th11 2.369773 1_555
F97 Na11 2.347021 1_555
F97 Th38 2.364860 1_555
F97 Th9 2.369773 1_455
F98 Na8 2.347021 1_555
F98 Th37 2.364860 1_555
F98 Th10 2.369773 1_555
F99 Na10 2.347021 1_555
F99 Th39 2.364860 1_555
F99 Th8 2.369773 1_455
F100 Th20 2.380144 1_555
F100 Th32 2.383122 1_555
F100 Na6 2.409599 1_555
F101 Th22 2.380144 1_565
F101 Th33 2.383122 1_555
F101 Na7 2.409599 1_555
F102 Th21 2.380144 1_555
F102 Th34 2.383122 1_555
F102 Na4 2.409599 1_555
F103 Th23 2.380144 1_565
F103 Th35 2.383122 1_555
F103 Na5 2.409599 1_555
F104 Th16 2.380144 1_555
F104 Th32 2.383122 1_555
F104 Na5 2.409599 1_555
F105 Th18 2.380144 1_655
F105 Th34 2.383122 1_555
F105 Na7 2.409599 1_555
F106 Th17 2.380144 1_555
F106 Th33 2.383122 1_555
F106 Na4 2.409599 1_555
F107 Th19 2.380144 1_655
F107 Th35 2.383122 1_555
F107 Na6 2.409599 1_555
F108 Th28 2.380144 1_555
F108 Th36 2.383122 1_555
F108 Na10 2.409599 1_555
F109 Th30 2.380144 1_545
F109 Th37 2.383122 1_555
F109 Na11 2.409599 1_555
F110 Th29 2.380144 1_555
F110 Th38 2.383122 1_555
F110 Na8 2.409599 1_555
F111 Th31 2.380144 1_545
F111 Th39 2.383122 1_555
F111 Na9 2.409599 1_555
F112 Th24 2.380144 1_555
F112 Th36 2.383122 1_555
F112 Na9 2.409599 1_555
F113 Th26 2.380144 1_455
F113 Th38 2.383122 1_555
F113 Na11 2.409599 1_555
F114 Th25 2.380144 1_555
F114 Th37 2.383122 1_555
F114 Na8 2.409599 1_555
F115 Th27 2.380144 1_455
F115 Th39 2.383122 1_555
F115 Na10 2.409599 1_555
F116 Th29 2.296621 1_555
F116 Th0 2.460822 1_555
F117 Th31 2.296621 1_555
F117 Th1 2.460822 1_555
F118 Th28 2.296621 1_555
F118 Th2 2.460822 1_555
F119 Th30 2.296621 1_555
F119 Th3 2.460822 1_555
F120 Th25 2.296621 1_555
F120 Th4 2.460822 1_555
F121 Th27 2.296621 1_555
F121 Th5 2.460822 1_555
F122 Th24 2.296621 1_555
F122 Th6 2.460822 1_555
F123 Th26 2.296621 1_555
F123 Th7 2.460822 1_555
F124 Th21 2.296621 1_555
F124 Th8 2.460822 1_555
F125 Th23 2.296621 1_555
F125 Th9 2.460822 1_555
F126 Th20 2.296621 1_555
F126 Th10 2.460822 1_555
F127 Th22 2.296621 1_555
F127 Th11 2.460822 1_555
F128 Th17 2.296621 1_555
F128 Th12 2.460822 1_555
F129 Th19 2.296621 1_555
F129 Th13 2.460822 1_555
F130 Th16 2.296621 1_555
F130 Th14 2.460822 1_555
F131 Th18 2.296621 1_555
F131 Th15 2.460822 1_555
F132 Th3 2.337062 1_555
F132 Th29 2.343826 1_555
F133 Th2 2.337062 1_555
F133 Th31 2.343826 1_555
F134 Th1 2.337062 1_555
F134 Th28 2.343826 1_555
F135 Th0 2.337062 1_555
F135 Th30 2.343826 1_555
F136 Th7 2.337062 1_555
F136 Th25 2.343826 1_555
F137 Th6 2.337062 1_555
F137 Th27 2.343826 1_555
F138 Th5 2.337062 1_555
F138 Th24 2.343826 1_555
F139 Th4 2.337062 1_555
F139 Th26 2.343826 1_555
F140 Th11 2.337062 1_555
F140 Th21 2.343826 1_555
F141 Th10 2.337062 1_555
F141 Th23 2.343826 1_555
F142 Th9 2.337062 1_555
F142 Th20 2.343826 1_555
F143 Th8 2.337062 1_555
F143 Th22 2.343826 1_555
F144 Th15 2.337062 1_555
F144 Th17 2.343826 1_555
F145 Th14 2.337062 1_555
F145 Th19 2.343826 1_555
F146 Th13 2.337062 1_555
F146 Th16 2.343826 1_555
F147 Th12 2.337062 1_555
F147 Th18 2.343826 1_555
F148 Th16 2.347449 1_555
F149 Th17 2.347449 1_555
F150 Th18 2.347449 1_555
F151 Th19 2.347449 1_555
F152 Th20 2.347449 1_555
F153 Th21 2.347449 1_555
F154 Th22 2.347449 1_555
F155 Th23 2.347449 1_555
F156 Th24 2.347449 1_555
F157 Th25 2.347449 1_555
F158 Th26 2.347449 1_555
F159 Th27 2.347449 1_555
F160 Th28 2.347449 1_555
F161 Th29 2.347449 1_555
F162 Th30 2.347449 1_555
F163 Th31 2.347449 1_555
F164 Th2 2.385501 1_555
F164 Th16 2.387070 1_555
F164 Na0 2.600206 1_555
F165 Th3 2.385501 1_554
F165 Th17 2.387070 1_555
F165 Na1 2.600206 1_555
F166 Th0 2.385501 1_654
F166 Th18 2.387070 1_655
F166 Na1 2.600206 1_555
F167 Th1 2.385501 1_655
F167 Th19 2.387070 1_655
F167 Na0 2.600206 1_555
F168 Th6 2.385501 1_555
F168 Th20 2.387070 1_555
F168 Na0 2.600206 1_555
F169 Th7 2.385501 1_554
F169 Th21 2.387070 1_555
F169 Na1 2.600206 1_555
F170 Th4 2.385501 1_564
F170 Th22 2.387070 1_565
F170 Na1 2.600206 1_555
F171 Th5 2.385501 1_565
F171 Th23 2.387070 1_565
F171 Na0 2.600206 1_555
F172 Th10 2.385501 1_555
F172 Th24 2.387070 1_555
F172 Na2 2.600206 1_555
F173 Th11 2.385501 1_556
F173 Th25 2.387070 1_555
F173 Na3 2.600206 1_555
F174 Th8 2.385501 1_456
F174 Th26 2.387070 1_455
F174 Na3 2.600206 1_555
F175 Th9 2.385501 1_455
F175 Th27 2.387070 1_455
F175 Na2 2.600206 1_555
F176 Th14 2.385501 1_555
F176 Th28 2.387070 1_555
F176 Na2 2.600206 1_555
F177 Th15 2.385501 1_556
F177 Th29 2.387070 1_555
F177 Na3 2.600206 1_555
F178 Th12 2.385501 1_546
F178 Th30 2.387070 1_545
F178 Na3 2.600206 1_555
F179 Th13 2.385501 1_545
F179 Th31 2.387070 1_545
F179 Na2 2.600206 1_555
