# generated using pymatgen
data_EuGa3Ni2
_symmetry_space_group_name_H-M   'P 1'
_cell_length_a   6.33168237
_cell_length_b   6.33168876
_cell_length_c   5.09057640
_cell_angle_alpha   90.00002044
_cell_angle_beta   90.00006681
_cell_angle_gamma   104.43899949
_symmetry_Int_Tables_number   1
_chemical_formula_structural   EuGa3Ni2
_chemical_formula_sum   'Eu2 Ga6 Ni4'
_cell_volume   197.63622314
_cell_formula_units_Z   2
loop_
 _symmetry_equiv_pos_site_id
 _symmetry_equiv_pos_as_xyz
  1  'x, y, z'
loop_
 _atom_site_type_symbol
 _atom_site_label
 _atom_site_symmetry_multiplicity
 _atom_site_fract_x
 _atom_site_fract_y
 _atom_site_fract_z
 _atom_site_occupancy
  Eu  Eu0  1  0.65500944  0.65500944  0.25000000  1
  Eu  Eu1  1  0.34499056  0.34499056  0.75000000  1
  Ga  Ga0  1  0.06077683  0.06077683  0.25000000  1
  Ga  Ga1  1  0.93922317  0.93922317  0.75000000  1
  Ga  Ga2  1  0.08497562  0.47196726  0.25000000  1
  Ga  Ga3  1  0.52803274  0.91502438  0.75000000  1
  Ga  Ga4  1  0.91502438  0.52803274  0.75000000  1
  Ga  Ga5  1  0.47196726  0.08497562  0.25000000  1
  Ni  Ni0  1  0.20368836  0.79631264  0.50000000  1
  Ni  Ni1  1  0.20368836  0.79631264  0.00000000  1
  Ni  Ni2  1  0.79631164  0.20368736  0.50000000  1
  Ni  Ni3  1  0.79631164  0.20368736  -0.00000000  1
loop_
_geom_bond_atom_site_label_1
_geom_bond_atom_site_label_2
_geom_bond_distance
_geom_bond_site_symmetry_2
Eu0 Ga0 3.147969 1_665
Eu0 Ga2 3.213751 1_655
Eu0 Ga5 3.213753 1_565
Eu0 Ga4 3.239654 1_555
Eu0 Ga3 3.239655 1_554
Eu0 Ga3 3.239656 1_555
Eu0 Ga4 3.239656 1_554
Eu0 Ga1 3.367532 1_555
Eu0 Ga1 3.367537 1_554
Eu0 Ni1 3.443994 1_555
Eu0 Ni0 3.443996 1_555
Eu0 Ni2 3.444000 1_555
Eu0 Ni3 3.444000 1_555
Eu0 Eu1 3.501886 1_554
Eu0 Eu1 3.501890 1_555
Eu0 Ga2 3.504852 1_555
Eu0 Ga5 3.504855 1_555
Eu1 Ga1 3.147969 1_445
Eu1 Ga4 3.213751 1_455
Eu1 Ga3 3.213753 1_545
Eu1 Ga2 3.239654 1_555
Eu1 Ga5 3.239655 1_556
Eu1 Ga5 3.239656 1_555
Eu1 Ga2 3.239656 1_556
Eu1 Ga0 3.367532 1_555
Eu1 Ga0 3.367537 1_556
Eu1 Ni3 3.443994 1_556
Eu1 Ni2 3.443996 1_555
Eu1 Ni0 3.444000 1_555
Eu1 Ni1 3.444000 1_556
Eu1 Ga4 3.504852 1_555
Eu1 Ga3 3.504855 1_555
Ga0 Ni0 2.449084 1_545
Ga0 Ni3 2.449084 1_455
Ga0 Ni1 2.449084 1_545
Ga0 Ni2 2.449086 1_455
Ga0 Ga5 2.569610 1_555
Ga0 Ga2 2.569612 1_555
Ga0 Ga1 2.714365 1_444
Ga0 Ga1 2.714367 1_445
Ga1 Ni2 2.449084 1_565
Ga1 Ni1 2.449084 1_656
Ga1 Ni3 2.449084 1_566
Ga1 Ni0 2.449086 1_655
Ga1 Ga3 2.569610 1_555
Ga1 Ga4 2.569612 1_555
Ga2 Ni0 2.373244 1_555
Ga2 Ni1 2.373246 1_555
Ga2 Ni3 2.509455 1_455
Ga2 Ni2 2.509457 1_455
Ga2 Ga4 2.820097 1_454
Ga2 Ga4 2.820099 1_455
Ga3 Ni0 2.373236 1_555
Ga3 Ni1 2.373239 1_556
Ga3 Ni3 2.509448 1_566
Ga3 Ni2 2.509451 1_565
Ga3 Ga5 2.820098 1_565
Ga3 Ga5 2.820098 1_566
Ga4 Ni2 2.373244 1_555
Ga4 Ni3 2.373246 1_556
Ga4 Ni1 2.509455 1_656
Ga4 Ni0 2.509457 1_655
Ga5 Ni2 2.373236 1_555
Ga5 Ni3 2.373239 1_555
Ga5 Ni1 2.509448 1_545
Ga5 Ni0 2.509451 1_545
Ni0 Ni1 2.545288 1_556
Ni0 Ni1 2.545288 1_555
Ni2 Ni3 2.545288 1_555
Ni2 Ni3 2.545288 1_556
