# generated using pymatgen
data_Sr4Ta3PO14
_symmetry_space_group_name_H-M   'P 1'
_cell_length_a   3.95323796
_cell_length_b   5.81061719
_cell_length_c   13.49915926
_cell_angle_alpha   94.77894936
_cell_angle_beta   98.41982846
_cell_angle_gamma   90.00000429
_symmetry_Int_Tables_number   1
_chemical_formula_structural   Sr4Ta3PO14
_chemical_formula_sum   'Sr4 Ta3 P1 O14'
_cell_volume   305.65386281
_cell_formula_units_Z   1
loop_
 _symmetry_equiv_pos_site_id
 _symmetry_equiv_pos_as_xyz
  1  'x, y, z'
loop_
 _atom_site_type_symbol
 _atom_site_label
 _atom_site_symmetry_multiplicity
 _atom_site_fract_x
 _atom_site_fract_y
 _atom_site_fract_z
 _atom_site_occupancy
  Sr  Sr0  1  0.56559100  0.80853100  0.13118200  1
  Sr  Sr1  1  0.44494900  0.26431800  0.88989900  1
  Sr  Sr2  1  0.69363700  0.16636200  0.38727400  1
  Sr  Sr3  1  0.28418800  0.72046200  0.56837700  1
  Ta  Ta0  1  0.05593000  0.30916200  0.11186000  1
  Ta  Ta1  1  0.94564400  0.76902800  0.89128700  1
  Ta  Ta2  1  0.83566000  0.23273500  0.67132000  1
  P  P0  1  0.16611500  0.67026600  0.33222900  1
  O  O0  1  0.79238700  0.46867600  0.58477400  1
  O  O1  1  0.19905600  0.90362700  0.39811300  1
  O  O2  1  0.90236600  0.49300700  0.80473200  1
  O  O3  1  0.10717900  0.11289900  0.21435900  1
  O  O4  1  0.34808800  0.23396200  0.69617600  1
  O  O5  1  0.65792000  0.70761700  0.31584000  1
  O  O6  1  0.45378500  0.78799700  0.90757000  1
  O  O7  1  0.55080300  0.33456800  0.10160600  1
  O  O8  1  0.00644100  0.57961300  0.01288300  1
  O  O9  1  0.00143200  0.06744500  0.00286400  1
  O  O10  1  0.10662600  0.61357900  0.21325300  1
  O  O11  1  0.89883700  0.00817700  0.79767300  1
  O  O12  1  0.19763100  0.45939600  0.39526000  1
  O  O13  1  0.78573400  0.98817000  0.57146900  1
loop_
_geom_bond_atom_site_label_1
_geom_bond_atom_site_label_2
_geom_bond_distance
_geom_bond_site_symmetry_2
O0 Ta2 1.866032 1_555
O0 Sr3 2.479794 1_655
O0 Sr3 2.479798 1_555
O0 Sr2 3.043190 1_555
O1 P0 1.552981 1_555
O1 Sr2 2.509154 1_465
O1 Sr2 2.509157 1_565
O1 Sr3 2.590330 1_555
O2 Ta1 1.896320 1_555
O2 Ta2 2.237684 1_555
O2 Sr1 2.687150 1_655
O2 Sr1 2.687153 1_555
O3 Ta0 1.853886 1_555
O3 Sr0 2.817384 1_445
O3 Sr0 2.817387 1_545
O3 Sr2 3.035523 1_455
O3 Sr2 3.035526 1_555
O4 Ta2 2.004207 1_455
O4 Ta2 2.004207 1_555
O4 Sr1 2.578054 1_555
O5 P0 2.002502 1_555
O5 P0 2.002506 1_655
O5 Sr0 2.582218 1_555
O5 Sr2 2.754455 1_565
O6 Ta1 1.990579 1_455
O6 Ta1 1.990583 1_555
O6 Sr1 2.797492 1_565
O6 Sr0 2.978364 1_556
O6 Sr1 3.032155 1_555
O7 Ta0 1.987705 1_555
O7 Ta0 1.987705 1_655
O7 Sr0 2.749070 1_555
O7 Sr1 2.822151 1_554
O7 Sr0 3.114823 1_545
O8 Ta1 2.036898 1_454
O8 Ta0 2.136898 1_555
O8 Sr0 2.796054 1_455
O8 Sr0 2.796057 1_555
O8 Sr1 3.074699 1_454
O8 Sr1 3.074699 1_554
O9 Ta0 1.935671 1_555
O9 Ta1 2.188954 1_444
O9 Sr1 2.789601 1_554
O9 Sr1 2.789604 1_454
O9 Sr0 3.088810 1_445
O9 Sr0 3.088810 1_545
O10 P0 1.595156 1_555
O10 Ta0 2.135101 1_555
O10 Sr0 2.569134 1_455
O10 Sr0 2.569137 1_555
O11 Ta1 1.945847 1_545
O11 Ta2 2.218172 1_555
O11 Sr1 2.707423 1_655
O11 Sr1 2.707429 1_555
O12 P0 1.543854 1_555
O12 Sr2 2.605189 1_555
O12 Sr2 2.605195 1_455
O12 Sr3 2.656056 1_555
O13 Ta2 1.864988 1_565
O13 Sr3 2.513492 1_555
O13 Sr3 2.513492 1_655
O13 Sr2 2.747918 1_565
