# generated using pymatgen
data_DySiOs2C
_symmetry_space_group_name_H-M   'P 1'
_cell_length_a   5.89482453
_cell_length_b   5.89482453
_cell_length_c   7.13988600
_cell_angle_alpha   90.00000000
_cell_angle_beta   90.00000000
_cell_angle_gamma   141.77368954
_symmetry_Int_Tables_number   1
_chemical_formula_structural   DySiOs2C
_chemical_formula_sum   'Dy2 Si2 Os4 C2'
_cell_volume   153.51885711
_cell_formula_units_Z   2
loop_
 _symmetry_equiv_pos_site_id
 _symmetry_equiv_pos_as_xyz
  1  'x, y, z'
loop_
 _atom_site_type_symbol
 _atom_site_label
 _atom_site_symmetry_multiplicity
 _atom_site_fract_x
 _atom_site_fract_y
 _atom_site_fract_z
 _atom_site_occupancy
  Dy  Dy0  1  0.54681100  0.45318900  0.25000000  1
  Dy  Dy1  1  0.45318900  0.54681100  0.75000000  1
  Si  Si0  1  0.26879200  0.73120800  0.25000000  1
  Si  Si1  1  0.73120800  0.26879200  0.75000000  1
  Os  Os0  1  0.83502900  0.16497100  0.05827100  1
  Os  Os1  1  0.16497100  0.83502900  0.94172900  1
  Os  Os2  1  0.16497100  0.83502900  0.55827100  1
  Os  Os3  1  0.83502900  0.16497100  0.44172900  1
  C  C0  1  0.00000000  0.00000000  0.00000000  1
  C  C1  1  0.00000000  0.00000000  0.50000000  1
loop_
_geom_bond_atom_site_label_1
_geom_bond_atom_site_label_2
_geom_bond_distance
_geom_bond_site_symmetry_2
Dy0 Si0 3.097057 1_555
Dy0 Si0 3.136932 1_545
Dy0 Si0 3.136932 1_655
Dy1 Si1 3.097057 1_555
Dy1 Si1 3.136932 1_455
Dy1 Si1 3.136932 1_565
Os0 Si0 2.478700 1_545
Os0 Si0 2.478700 1_655
Os0 Si1 2.486376 1_554
Os1 Si1 2.478700 1_455
Os1 Si1 2.478700 1_565
Os1 Si0 2.486376 1_556
Os2 Si1 2.478700 1_455
Os2 Si1 2.478700 1_565
Os2 Si0 2.486376 1_555
Os3 Si0 2.478700 1_545
Os3 Si0 2.478700 1_655
Os3 Si1 2.486376 1_555
C0 Os0 1.884239 1_455
C0 Os1 1.884239 1_544
C0 Dy1 2.680225 1_554
C0 Dy0 2.680225 1_555
C0 Dy0 2.680225 1_445
C0 Dy1 2.680225 1_444
C1 Os2 1.884239 1_545
C1 Os3 1.884239 1_455
C1 Dy1 2.680225 1_555
C1 Dy0 2.680225 1_555
C1 Dy0 2.680225 1_445
C1 Dy1 2.680225 1_445
