# generated using pymatgen
data_Ba(Ni2B)6
_symmetry_space_group_name_H-M   'P 1'
_cell_length_a   6.08444543
_cell_length_b   6.08444543
_cell_length_c   6.08447756
_cell_angle_alpha   104.68616740
_cell_angle_beta   104.68616740
_cell_angle_gamma   104.68553658
_symmetry_Int_Tables_number   1
_chemical_formula_structural   Ba(Ni2B)6
_chemical_formula_sum   'Ba1 Ni12 B6'
_cell_volume   198.24486188
_cell_formula_units_Z   1
loop_
 _symmetry_equiv_pos_site_id
 _symmetry_equiv_pos_as_xyz
  1  'x, y, z'
loop_
 _atom_site_type_symbol
 _atom_site_label
 _atom_site_symmetry_multiplicity
 _atom_site_fract_x
 _atom_site_fract_y
 _atom_site_fract_z
 _atom_site_occupancy
  Ba  Ba0  1  0.00000000  -0.00000000  0.00000000  1
  Ni  Ni0  1  0.13293869  0.49999560  0.86705075  1
  Ni  Ni1  1  0.18783086  0.46746855  0.46746894  1
  Ni  Ni2  1  0.50000440  0.86706131  0.13294925  1
  Ni  Ni3  1  0.46746855  0.18783086  0.46746894  1
  Ni  Ni4  1  0.53253145  0.81216914  0.53253106  1
  Ni  Ni5  1  0.81216914  0.53253145  0.53253106  1
  Ni  Ni6  1  0.53253780  0.53253780  0.81218356  1
  Ni  Ni7  1  0.49999560  0.13293869  0.86705075  1
  Ni  Ni8  1  0.86706131  0.50000440  0.13294925  1
  Ni  Ni9  1  0.13293831  0.86706169  0.50000000  1
  Ni  Ni10  1  0.46746220  0.46746220  0.18781644  1
  Ni  Ni11  1  0.86706169  0.13293831  0.50000000  1
  B  B0  1  0.76961975  0.76961975  0.35453703  1
  B  B1  1  0.23038460  0.64546541  0.23038564  1
  B  B2  1  0.23038025  0.23038025  0.64546297  1
  B  B3  1  0.64546541  0.23038460  0.23038564  1
  B  B4  1  0.35453459  0.76961540  0.76961436  1
  B  B5  1  0.76961540  0.35453459  0.76961436  1
loop_
_geom_bond_atom_site_label_1
_geom_bond_atom_site_label_2
_geom_bond_distance
_geom_bond_site_symmetry_2
Ba0 Ni6 3.176091 1_444
Ba0 Ni10 3.176091 1_555
Ba0 Ni1 3.176122 1_555
Ba0 Ni3 3.176122 1_555
Ba0 Ni5 3.176122 1_444
Ba0 Ni4 3.176122 1_444
Ba0 Ni11 3.300823 1_455
Ba0 Ni9 3.300823 1_544
Ba0 Ni9 3.300823 1_545
Ba0 Ni11 3.300823 1_454
Ba0 Ni2 3.300832 1_445
Ba0 Ni7 3.300832 1_554
Ba0 Ni8 3.300832 1_445
Ba0 Ni0 3.300832 1_554
Ba0 Ni7 3.300834 1_454
Ba0 Ni8 3.300834 1_455
Ba0 Ni0 3.300834 1_544
Ba0 Ni2 3.300834 1_545
B0 Ni11 2.024581 1_565
B0 Ni9 2.024581 1_655
B0 Ni4 2.039660 1_555
B0 Ni5 2.039660 1_555
B0 Ni10 2.045468 1_555
B0 Ni2 2.153452 1_555
B0 Ni8 2.153452 1_555
B0 Ba0 3.263939 1_665
B1 Ni8 2.024612 1_455
B1 Ni0 2.024678 1_554
B1 Ni10 2.039651 1_555
B1 Ni1 2.039655 1_555
B1 Ni4 2.045385 1_555
B1 Ni2 2.153490 1_555
B1 Ni9 2.153495 1_555
B1 Ba0 3.263932 1_565
B2 Ni9 2.024581 1_545
B2 Ni11 2.024581 1_455
B2 Ni3 2.039660 1_555
B2 Ni1 2.039660 1_555
B2 Ni6 2.045468 1_555
B2 Ni0 2.153452 1_555
B2 Ni7 2.153452 1_555
B2 Ba0 3.263939 1_556
B3 Ni2 2.024612 1_545
B3 Ni7 2.024678 1_554
B3 Ni10 2.039651 1_555
B3 Ni3 2.039655 1_555
B3 Ni5 2.045385 1_555
B3 Ni8 2.153490 1_555
B3 Ni11 2.153495 1_555
B3 Ba0 3.263932 1_655
B4 Ni7 2.024612 1_565
B4 Ni2 2.024678 1_556
B4 Ni6 2.039651 1_555
B4 Ni4 2.039655 1_555
B4 Ni1 2.045385 1_555
B4 Ni0 2.153490 1_555
B4 Ni9 2.153495 1_555
B4 Ba0 3.263932 1_566
B5 Ni0 2.024612 1_655
B5 Ni8 2.024678 1_556
B5 Ni6 2.039651 1_555
B5 Ni5 2.039655 1_555
B5 Ni3 2.045385 1_555
B5 Ni7 2.153490 1_555
B5 Ni11 2.153495 1_555
B5 Ba0 3.263932 1_656
