# generated using pymatgen
data_Cr2Ni3N4
_symmetry_space_group_name_H-M   'P 1'
_cell_length_a   5.62973987
_cell_length_b   7.23176868
_cell_length_c   5.48996544
_cell_angle_alpha   89.99999973
_cell_angle_beta   91.23771142
_cell_angle_gamma   129.96224889
_symmetry_Int_Tables_number   1
_chemical_formula_structural   Cr2Ni3N4
_chemical_formula_sum   'Cr4 Ni6 N8'
_cell_volume   171.24734533
_cell_formula_units_Z   2
loop_
 _symmetry_equiv_pos_site_id
 _symmetry_equiv_pos_as_xyz
  1  'x, y, z'
loop_
 _atom_site_type_symbol
 _atom_site_label
 _atom_site_symmetry_multiplicity
 _atom_site_fract_x
 _atom_site_fract_y
 _atom_site_fract_z
 _atom_site_occupancy
  Cr  Cr0  1  0.62837600  0.18916300  0.63835900  1
  Cr  Cr1  1  0.37162400  0.56078700  0.86164100  1
  Cr  Cr2  1  0.37162400  0.81083700  0.36164100  1
  Cr  Cr3  1  0.62837600  0.43921300  0.13835900  1
  Ni  Ni0  1  0.22980100  0.00746900  0.00642300  1
  Ni  Ni1  1  0.77019900  0.77766700  0.49357700  1
  Ni  Ni2  1  0.77019900  0.99253100  0.99357700  1
  Ni  Ni3  1  0.22980100  0.22233300  0.50642300  1
  Ni  Ni4  1  0.00000000  0.65116400  0.75000000  1
  Ni  Ni5  1  0.00000000  0.34883600  0.25000000  1
  N  N0  1  0.21320700  0.93567500  0.52268500  1
  N  N1  1  0.78679300  0.72246800  0.97731500  1
  N  N2  1  0.78679300  0.06432500  0.47731500  1
  N  N3  1  0.21320700  0.27753200  0.02268500  1
  N  N4  1  0.68390100  0.24124600  0.97326700  1
  N  N5  1  0.31609900  0.55734500  0.52673300  1
  N  N6  1  0.31609900  0.75875400  0.02673300  1
  N  N7  1  0.68390100  0.44265500  0.47326700  1
loop_
_geom_bond_atom_site_label_1
_geom_bond_atom_site_label_2
_geom_bond_distance
_geom_bond_site_symmetry_2
Cr0 N4 1.855824 1_555
Cr0 N2 1.860231 1_555
Cr0 N7 1.885714 1_555
Cr0 N0 1.912770 1_545
Cr1 N5 1.855824 1_555
Cr1 N3 1.860231 1_556
Cr1 N6 1.885715 1_556
Cr1 N1 1.912770 1_555
Cr2 N6 1.855824 1_555
Cr2 N0 1.860231 1_555
Cr2 N5 1.885714 1_555
Cr2 N2 1.912770 1_565
Cr3 N7 1.855824 1_555
Cr3 N1 1.860231 1_554
Cr3 N4 1.885715 1_554
Cr3 N3 1.912770 1_555
N0 Ni1 1.968079 1_455
N0 Ni3 2.016382 1_565
N0 Ni4 2.030710 1_555
N1 Ni0 1.968080 1_666
N1 Ni2 2.016375 1_555
N1 Ni4 2.030710 1_655
N2 Ni3 1.968079 1_655
N2 Ni1 2.016382 1_545
N2 Ni5 2.030710 1_655
N3 Ni2 1.968080 1_444
N3 Ni0 2.016375 1_555
N3 Ni5 2.030710 1_555
N4 Ni0 1.973585 1_556
N4 Ni5 2.045707 1_656
N4 Ni2 2.145643 1_545
N5 Ni1 1.973586 1_555
N5 Ni5 2.045707 1_555
N5 Ni3 2.145635 1_555
N6 Ni2 1.973585 1_554
N6 Ni4 2.045707 1_554
N6 Ni0 2.145643 1_565
N7 Ni3 1.973586 1_555
N7 Ni4 2.045707 1_655
N7 Ni1 2.145635 1_555
