# generated using pymatgen
data_NaPdN
_symmetry_space_group_name_H-M   'P 1'
_cell_length_a   3.11626700
_cell_length_b   3.11623784
_cell_length_c   10.54660400
_cell_angle_alpha   90.00000000
_cell_angle_beta   90.00000000
_cell_angle_gamma   120.00029897
_symmetry_Int_Tables_number   1
_chemical_formula_structural   NaPdN
_chemical_formula_sum   'Na2 Pd2 N2'
_cell_volume   88.69665055
_cell_formula_units_Z   2
loop_
 _symmetry_equiv_pos_site_id
 _symmetry_equiv_pos_as_xyz
  1  'x, y, z'
loop_
 _atom_site_type_symbol
 _atom_site_label
 _atom_site_symmetry_multiplicity
 _atom_site_fract_x
 _atom_site_fract_y
 _atom_site_fract_z
 _atom_site_occupancy
  Na  Na0  1  0.66667600  0.33335000  0.75039100  1
  Na  Na1  1  0.33332400  0.66665000  0.25039100  1
  Pd  Pd0  1  0.99999500  0.99998800  0.50102900  1
  Pd  Pd1  1  0.00000500  0.00001200  0.00102900  1
  N  N0  1  0.33333900  0.66668000  0.59322000  1
  N  N1  1  0.66666100  0.33332000  0.09322000  1
loop_
_geom_bond_atom_site_label_1
_geom_bond_atom_site_label_2
_geom_bond_distance
_geom_bond_site_symmetry_2
N0 Pd0 2.045055 1_455
N0 Pd0 2.045064 1_555
N0 Pd0 2.045135 1_445
N0 Na0 2.446363 1_455
N0 Na0 2.446364 1_565
N0 Na0 2.446370 1_555
N1 Pd1 2.045055 1_655
N1 Pd1 2.045064 1_555
N1 Pd1 2.045135 1_665
N1 Na1 2.446363 1_655
N1 Na1 2.446364 1_545
N1 Na1 2.446370 1_555
