# generated using pymatgen
data_Ca(BH)12
_symmetry_space_group_name_H-M   'P 1'
_cell_length_a   7.14164492
_cell_length_b   7.14164492
_cell_length_c   10.77114143
_cell_angle_alpha   89.82472765
_cell_angle_beta   89.82472765
_cell_angle_gamma   122.02929170
_symmetry_Int_Tables_number   1
_chemical_formula_structural   Ca(BH)12
_chemical_formula_sum   'Ca2 B24 H24'
_cell_volume   465.72681922
_cell_formula_units_Z   2
loop_
 _symmetry_equiv_pos_site_id
 _symmetry_equiv_pos_as_xyz
  1  'x, y, z'
loop_
 _atom_site_type_symbol
 _atom_site_label
 _atom_site_symmetry_multiplicity
 _atom_site_fract_x
 _atom_site_fract_y
 _atom_site_fract_z
 _atom_site_occupancy
  Ca  Ca0  1  0.83025731  0.16974269  0.75000000  1
  Ca  Ca1  1  0.16974269  0.83025731  0.25000000  1
  B  B0  1  0.39016973  0.92195561  0.83597924  1
  B  B1  1  0.07804439  0.60983027  0.66402076  1
  B  B2  1  0.60983027  0.07804439  0.16402076  1
  B  B3  1  0.92195561  0.39016973  0.33597924  1
  B  B4  1  0.25099141  0.06659723  0.83755918  1
  B  B5  1  0.93340277  0.74900859  0.66244082  1
  B  B6  1  0.74900859  0.93340277  0.16244082  1
  B  B7  1  0.06659723  0.25099141  0.33755918  1
  B  B8  1  0.19497213  0.63760460  0.81296399  1
  B  B9  1  0.36239540  0.80502787  0.68703601  1
  B  B10  1  0.80502787  0.36239540  0.18703601  1
  B  B11  1  0.63760460  0.19497213  0.31296399  1
  B  B12  1  0.96614031  0.86792768  0.81265995  1
  B  B13  1  0.13207232  0.03385969  0.68734005  1
  B  B14  1  0.03385969  0.13207232  0.18734005  1
  B  B15  1  0.86792768  0.96614031  0.31265995  1
  B  B16  1  0.12648562  0.79953327  0.90550243  1
  B  B17  1  0.20046673  0.87351438  0.59449757  1
  B  B18  1  0.87351438  0.20046673  0.09449757  1
  B  B19  1  0.79953327  0.12648562  0.40550243  1
  B  B20  1  0.93283856  0.60598639  0.79865026  1
  B  B21  1  0.39401361  0.06716144  0.70134974  1
  B  B22  1  0.06716144  0.39401361  0.20134974  1
  B  B23  1  0.60598639  0.93283856  0.29865026  1
  H  H0  1  0.55087067  0.98083868  0.89839872  1
  H  H1  1  0.01916132  0.44912933  0.60160128  1
  H  H2  1  0.44912933  0.01916132  0.10160128  1
  H  H3  1  0.98083868  0.55087067  0.39839872  1
  H  H4  1  0.31390992  0.22797527  0.89796891  1
  H  H5  1  0.77202473  0.68609008  0.60203109  1
  H  H6  1  0.68609008  0.77202473  0.10203109  1
  H  H7  1  0.22797527  0.31390992  0.39796891  1
  H  H8  1  0.21569039  0.49489032  0.85583775  1
  H  H9  1  0.50510968  0.78430961  0.64416225  1
  H  H10  1  0.78430961  0.50510968  0.14416225  1
  H  H11  1  0.49489032  0.21569039  0.35583775  1
  H  H12  1  0.82121631  0.88198115  0.85990700  1
  H  H13  1  0.11801885  0.17878369  0.64009300  1
  H  H14  1  0.17878369  0.11801885  0.14009300  1
  H  H15  1  0.88198115  0.82121631  0.35990700  1
  H  H16  1  0.09518608  0.76863671  0.01479184  1
  H  H17  1  0.23136329  0.90481392  0.48520816  1
  H  H18  1  0.90481392  0.23136329  0.98520816  1
  H  H19  1  0.76863671  0.09518608  0.51479184  1
  H  H20  1  0.76792043  0.44313772  0.83597080  1
  H  H21  1  0.55686228  0.23207957  0.66402920  1
  H  H22  1  0.23207957  0.55686228  0.16402920  1
  H  H23  1  0.44313772  0.76792043  0.33597080  1
loop_
_geom_bond_atom_site_label_1
_geom_bond_atom_site_label_2
_geom_bond_distance
_geom_bond_site_symmetry_2
Ca0 H1 2.338422 1_655
Ca0 H0 2.338422 1_545
Ca0 H13 2.339424 1_655
Ca0 H12 2.339424 1_545
Ca0 H20 2.407992 1_555
Ca0 H21 2.407992 1_555
Ca0 H18 2.581109 1_555
Ca0 H19 2.581109 1_555
Ca0 H9 2.743021 1_545
Ca0 H8 2.743021 1_655
Ca1 H2 2.338422 1_565
Ca1 H3 2.338422 1_455
Ca1 H14 2.339424 1_565
Ca1 H15 2.339424 1_455
Ca1 H22 2.407992 1_555
Ca1 H23 2.407992 1_555
Ca1 H16 2.581109 1_555
Ca1 H17 2.581109 1_555
Ca1 H10 2.743021 1_455
Ca1 H11 2.743021 1_565
B0 H0 1.200226 1_555
B1 H1 1.200226 1_555
B2 H2 1.200226 1_555
B3 H3 1.200226 1_555
B4 H4 1.187701 1_555
B5 H5 1.187701 1_555
B6 H6 1.187701 1_555
B7 H7 1.187701 1_555
B8 H8 1.196432 1_555
B9 H9 1.196432 1_555
B10 H10 1.196432 1_555
B11 H11 1.196432 1_555
B12 H12 1.203140 1_555
B13 H13 1.203140 1_555
B14 H14 1.203140 1_555
B15 H15 1.203140 1_555
B16 H16 1.195354 1_556
B17 H17 1.195354 1_555
B18 H18 1.195354 1_554
B19 H19 1.195354 1_555
B20 H20 1.201114 1_555
B21 H21 1.201114 1_555
B22 H22 1.201114 1_555
B23 H23 1.201114 1_555
