# generated using pymatgen
data_Zr5AlPb3
_symmetry_space_group_name_H-M   'P 1'
_cell_length_a   8.82227312
_cell_length_b   8.82227312
_cell_length_c   5.95611145
_cell_angle_alpha   90.00000000
_cell_angle_beta   90.00000000
_cell_angle_gamma   119.99999133
_symmetry_Int_Tables_number   1
_chemical_formula_structural   Zr5AlPb3
_chemical_formula_sum   'Zr10 Al2 Pb6'
_cell_volume   401.47128003
_cell_formula_units_Z   2
loop_
 _symmetry_equiv_pos_site_id
 _symmetry_equiv_pos_as_xyz
  1  'x, y, z'
loop_
 _atom_site_type_symbol
 _atom_site_label
 _atom_site_symmetry_multiplicity
 _atom_site_fract_x
 _atom_site_fract_y
 _atom_site_fract_z
 _atom_site_occupancy
  Zr  Zr0  1  0.66666700  0.33333300  -0.00000000  1
  Zr  Zr1  1  0.33333300  0.66666700  -0.00000000  1
  Zr  Zr2  1  0.33333300  0.66666700  0.50000000  1
  Zr  Zr3  1  0.66666700  0.33333300  0.50000000  1
  Zr  Zr4  1  0.73375503  0.73375503  0.75000000  1
  Zr  Zr5  1  0.26624497  -0.00000000  0.75000000  1
  Zr  Zr6  1  -0.00000000  0.26624497  0.75000000  1
  Zr  Zr7  1  0.26624497  0.26624497  0.25000000  1
  Zr  Zr8  1  0.73375503  0.00000000  0.25000000  1
  Zr  Zr9  1  0.00000000  0.73375503  0.25000000  1
  Al  Al0  1  0.00000000  -0.00000000  -0.00000000  1
  Al  Al1  1  0.00000000  -0.00000000  0.50000000  1
  Pb  Pb0  1  0.38646674  0.38646674  0.75000000  1
  Pb  Pb1  1  0.61353326  0.00000000  0.75000000  1
  Pb  Pb2  1  0.00000000  0.61353326  0.75000000  1
  Pb  Pb3  1  0.61353326  0.61353326  0.25000000  1
  Pb  Pb4  1  0.38646674  -0.00000000  0.25000000  1
  Pb  Pb5  1  -0.00000000  0.38646674  0.25000000  1
loop_
_geom_bond_atom_site_label_1
_geom_bond_atom_site_label_2
_geom_bond_distance
_geom_bond_site_symmetry_2
Zr0 Zr3 2.978056 1_554
Zr0 Zr3 2.978056 1_555
Zr1 Zr2 2.978056 1_555
Zr1 Zr2 2.978056 1_554
Al0 Zr9 2.781091 1_545
Al0 Zr8 2.781091 1_455
Al0 Zr5 2.781091 1_554
Al0 Zr6 2.781091 1_554
Al0 Zr4 2.781092 1_444
Al0 Zr7 2.781092 1_555
Al0 Al1 2.978056 1_555
Al0 Al1 2.978056 1_554
Al1 Zr6 2.781091 1_555
Al1 Zr9 2.781091 1_545
Al1 Zr8 2.781091 1_455
Al1 Zr5 2.781091 1_555
Al1 Zr4 2.781092 1_445
Al1 Zr7 2.781092 1_555
Pb0 Zr6 3.022168 1_555
Pb0 Zr5 3.022168 1_555
Pb0 Zr4 3.063873 1_555
Pb0 Zr1 3.115528 1_556
Pb0 Zr3 3.115528 1_555
Pb0 Zr2 3.115528 1_555
Pb0 Zr0 3.115528 1_556
Pb0 Zr7 3.161289 1_555
Pb0 Zr7 3.161289 1_556
Pb1 Zr4 3.022167 1_545
Pb1 Zr6 3.022168 1_655
Pb1 Zr5 3.063872 1_555
Pb1 Zr3 3.115521 1_555
Pb1 Zr0 3.115521 1_556
Pb1 Zr1 3.115524 1_546
Pb1 Zr2 3.115524 1_545
Pb1 Zr8 3.161289 1_555
Pb1 Zr8 3.161289 1_556
Pb2 Zr4 3.022167 1_455
Pb2 Zr5 3.022168 1_565
Pb2 Zr6 3.063872 1_555
Pb2 Zr2 3.115521 1_555
Pb2 Zr1 3.115521 1_556
Pb2 Zr3 3.115524 1_455
Pb2 Zr0 3.115524 1_456
Pb2 Zr9 3.161289 1_556
Pb2 Zr9 3.161289 1_555
Pb3 Zr9 3.022168 1_655
Pb3 Zr8 3.022168 1_565
Pb3 Zr7 3.063873 1_555
Pb3 Zr3 3.115528 1_555
Pb3 Zr0 3.115528 1_555
Pb3 Zr2 3.115528 1_555
Pb3 Zr1 3.115528 1_555
Pb3 Zr4 3.161289 1_554
Pb3 Zr4 3.161289 1_555
Pb4 Zr7 3.022167 1_555
Pb4 Zr9 3.022168 1_545
Pb4 Zr8 3.063872 1_555
Pb4 Zr2 3.115521 1_545
Pb4 Zr1 3.115521 1_545
Pb4 Zr3 3.115524 1_555
Pb4 Zr0 3.115524 1_555
Pb4 Zr5 3.161289 1_555
Pb4 Zr5 3.161289 1_554
Pb5 Zr7 3.022167 1_555
Pb5 Zr8 3.022168 1_455
Pb5 Zr9 3.063872 1_555
Pb5 Zr3 3.115521 1_455
Pb5 Zr0 3.115521 1_455
Pb5 Zr2 3.115524 1_555
Pb5 Zr1 3.115524 1_555
Pb5 Zr6 3.161289 1_554
Pb5 Zr6 3.161289 1_555
