# generated using pymatgen
data_LiMn2O3
_symmetry_space_group_name_H-M   'P 1'
_cell_length_a   5.23709108
_cell_length_b   5.23721022
_cell_length_c   10.08917424
_cell_angle_alpha   86.64072381
_cell_angle_beta   93.36250231
_cell_angle_gamma   63.22679370
_symmetry_Int_Tables_number   1
_chemical_formula_structural   LiMn2O3
_chemical_formula_sum   'Li4 Mn8 O12'
_cell_volume   245.50764006
_cell_formula_units_Z   4
loop_
 _symmetry_equiv_pos_site_id
 _symmetry_equiv_pos_as_xyz
  1  'x, y, z'
loop_
 _atom_site_type_symbol
 _atom_site_label
 _atom_site_symmetry_multiplicity
 _atom_site_fract_x
 _atom_site_fract_y
 _atom_site_fract_z
 _atom_site_occupancy
  Li  Li0  1  0.41011000  0.41057000  0.74996100  1
  Li  Li1  1  0.57932100  0.57950300  0.25001600  1
  Li  Li2  1  0.75304000  0.75296700  0.74994500  1
  Li  Li3  1  0.26283200  0.26302500  0.24999300  1
  Mn  Mn0  1  0.33434100  0.83277400  0.49999100  1
  Mn  Mn1  1  0.83266700  0.33408500  0.00004500  1
  Mn  Mn2  1  0.99595600  0.50589600  0.50006500  1
  Mn  Mn3  1  0.50576100  0.99572100  0.99993700  1
  Mn  Mn4  1  0.08022900  0.08032600  0.75001800  1
  Mn  Mn5  1  0.92164900  0.92166100  0.25001400  1
  Mn  Mn6  1  0.17301300  0.65517400  0.99814100  1
  Mn  Mn7  1  0.65536300  0.17321400  0.50183500  1
  O  O0  1  0.03113600  0.78190000  0.62073200  1
  O  O1  1  0.23377200  0.92894100  0.11516100  1
  O  O2  1  0.78182200  0.03081700  0.87931300  1
  O  O3  1  0.92914200  0.23388500  0.38485900  1
  O  O4  1  0.13516900  0.38163300  0.88007000  1
  O  O5  1  0.62750600  0.90040500  0.38246600  1
  O  O6  1  0.38180800  0.13539200  0.61988600  1
  O  O7  1  0.90038300  0.62726200  0.11759300  1
  O  O8  1  0.43279400  0.72918800  0.88213200  1
  O  O9  1  0.26533000  0.54758700  0.37832200  1
  O  O10  1  0.72937300  0.43300200  0.61785400  1
  O  O11  1  0.54748200  0.26507200  0.12165100  1
loop_
_geom_bond_atom_site_label_1
_geom_bond_atom_site_label_2
_geom_bond_distance
_geom_bond_site_symmetry_2
Li0 O6 2.052429 1_555
Li0 O4 2.052905 1_555
Li0 O8 2.235524 1_555
Li0 O10 2.237397 1_555
Li0 O0 2.311493 1_555
Li0 O2 2.314738 1_555
Li1 O9 2.209005 1_555
Li1 O11 2.211068 1_555
Li1 O1 2.216061 1_555
Li1 O3 2.216991 1_555
Li1 O7 2.297396 1_555
Li1 O5 2.297750 1_555
Li2 O2 2.059348 1_565
Li2 O0 2.059614 1_655
Li2 O10 2.242529 1_555
Li2 O8 2.244571 1_555
Li2 O4 2.323122 1_655
Li2 O6 2.323294 1_565
Li3 O11 2.034281 1_555
Li3 O9 2.034513 1_555
Li3 O7 2.273345 1_455
Li3 O5 2.275064 1_545
Li3 O3 2.328867 1_455
Li3 O1 2.330147 1_545
Mn0 O9 2.125421 1_555
Mn0 O5 2.131413 1_555
Mn0 O6 2.140374 1_565
Mn0 O0 2.155561 1_555
Mn0 O10 2.365362 1_555
Mn0 O3 2.382041 1_465
Mn1 O11 2.125067 1_555
Mn1 O7 2.131772 1_555
Mn1 O4 2.140566 1_654
Mn1 O2 2.155683 1_554
Mn1 O8 2.365972 1_554
Mn1 O1 2.381833 1_645
Mn2 O9 1.998970 1_655
Mn2 O0 2.006335 1_655
Mn2 O3 2.024429 1_555
Mn2 O10 2.031946 1_555
Mn2 O6 2.283850 1_655
Mn2 O5 2.291797 1_555
Mn3 O11 1.998714 1_566
Mn3 O2 2.006158 1_565
Mn3 O1 2.024398 1_556
Mn3 O8 2.031975 1_555
Mn3 O4 2.284396 1_565
Mn3 O7 2.292337 1_556
Mn4 O0 2.184456 1_545
Mn4 O2 2.185352 1_455
Mn4 O4 2.214038 1_555
Mn4 O6 2.216002 1_555
Mn4 O10 2.220855 1_455
Mn4 O8 2.220972 1_545
Mn5 O5 2.133006 1_555
Mn5 O7 2.133833 1_555
Mn5 O1 2.198975 1_655
Mn5 O3 2.199662 1_565
Mn5 O11 2.237398 1_565
Mn5 O9 2.237441 1_655
Mn6 O7 1.970185 1_456
Mn6 O4 1.984628 1_555
Mn6 O8 1.994959 1_555
Mn6 O1 2.028842 1_556
Mn6 O2 2.304168 1_465
Mn6 O11 2.319081 1_556
Mn7 O5 1.970251 1_545
Mn7 O6 1.984544 1_555
Mn7 O10 1.995004 1_555
Mn7 O3 2.028451 1_555
Mn7 O0 2.305058 1_645
Mn7 O9 2.318709 1_555
