# generated using pymatgen
data_HoAlFe
_symmetry_space_group_name_H-M   'P 1'
_cell_length_a   5.30285588
_cell_length_b   5.37508103
_cell_length_c   8.68733400
_cell_angle_alpha   90.00000000
_cell_angle_beta   90.00000000
_cell_angle_gamma   120.44262989
_symmetry_Int_Tables_number   1
_chemical_formula_structural   HoAlFe
_chemical_formula_sum   'Ho4 Al4 Fe4'
_cell_volume   213.48020232
_cell_formula_units_Z   4
loop_
 _symmetry_equiv_pos_site_id
 _symmetry_equiv_pos_as_xyz
  1  'x, y, z'
loop_
 _atom_site_type_symbol
 _atom_site_label
 _atom_site_symmetry_multiplicity
 _atom_site_fract_x
 _atom_site_fract_y
 _atom_site_fract_z
 _atom_site_occupancy
  Ho  Ho0  1  0.66804900  0.33388600  0.55437100  1
  Ho  Ho1  1  0.33699600  0.66855800  0.42602400  1
  Ho  Ho2  1  0.33699600  0.66855800  0.07397600  1
  Ho  Ho3  1  0.66804900  0.33388600  0.94562900  1
  Al  Al0  1  0.99013400  0.99538400  0.48453100  1
  Al  Al1  1  0.99013400  0.99538400  0.01546900  1
  Al  Al2  1  0.17402100  0.33996600  0.75000000  1
  Al  Al3  1  0.17388500  0.83409000  0.75000000  1
  Fe  Fe0  1  0.66588200  0.83300900  0.75000000  1
  Fe  Fe1  1  0.82410600  0.64296900  0.25000000  1
  Fe  Fe2  1  0.82404100  0.18050700  0.25000000  1
  Fe  Fe3  1  0.34770800  0.17380500  0.25000000  1
loop_
_geom_bond_atom_site_label_1
_geom_bond_atom_site_label_2
_geom_bond_distance
_geom_bond_site_symmetry_2
Ho0 Ho1 3.255198 1_655
Ho0 Ho1 3.279072 1_545
Ho0 Ho1 3.280433 1_555
Ho0 Ho3 3.398989 1_555
Ho1 Ho2 3.058359 1_555
Ho2 Ho3 3.255198 1_454
Ho2 Ho3 3.279072 1_564
Ho2 Ho3 3.280433 1_554
Al0 Fe2 2.608675 1_565
Al0 Fe3 2.612205 1_665
Al0 Fe1 2.612383 1_555
Al0 Fe0 2.741566 1_555
Al0 Al2 2.805316 1_665
Al0 Al3 2.806385 1_655
Al0 Ho1 3.028958 1_555
Al0 Ho0 3.121677 1_565
Al0 Ho0 3.126285 1_555
Al0 Ho0 3.158113 1_665
Al0 Ho1 3.160667 1_665
Al0 Ho1 3.162594 1_655
Al1 Fe2 2.608675 1_565
Al1 Fe3 2.612205 1_665
Al1 Fe1 2.612383 1_555
Al1 Fe0 2.741566 1_554
Al1 Al2 2.805316 1_664
Al1 Al3 2.806385 1_654
Al1 Ho2 3.028958 1_555
Al1 Ho3 3.121677 1_564
Al1 Ho3 3.126285 1_554
Al1 Ho3 3.158113 1_664
Al1 Ho2 3.160667 1_665
Al1 Ho2 3.162594 1_655
Al2 Fe0 2.611850 1_555
Al2 Al3 2.656322 1_555
Al2 Fe0 2.691741 1_445
Al2 Al3 2.718759 1_545
Al2 Ho3 3.136757 1_555
Al2 Ho0 3.136757 1_555
Al2 Ho3 3.162199 1_455
Al2 Ho0 3.162199 1_455
Al2 Ho2 3.200147 1_556
Al2 Ho1 3.200147 1_555
Al3 Fe0 2.611938 1_555
Al3 Fe0 2.690927 1_455
Al3 Ho3 3.136626 1_565
Al3 Ho0 3.136626 1_565
Al3 Ho3 3.162905 1_455
Al3 Ho0 3.162905 1_455
Al3 Ho2 3.200157 1_556
Al3 Ho1 3.200157 1_555
Fe0 Ho3 3.178883 1_565
Fe0 Ho0 3.178883 1_565
Fe0 Ho3 3.180757 1_555
Fe0 Ho0 3.180757 1_555
Fe0 Ho2 3.190947 1_556
Fe0 Ho1 3.190947 1_555
Fe1 Fe2 2.485596 1_555
Fe1 Fe3 2.507130 1_555
Fe1 Fe3 2.796875 1_665
Fe1 Fe2 2.889485 1_565
Fe1 Ho0 3.007217 1_555
Fe1 Ho3 3.007217 1_554
Fe1 Ho1 3.061934 1_655
Fe1 Ho2 3.061934 1_655
Fe1 Ho1 3.064246 1_555
Fe1 Ho2 3.064246 1_555
Fe2 Fe3 2.507865 1_555
Fe2 Fe3 2.795356 1_655
Fe2 Ho0 3.007767 1_555
Fe2 Ho3 3.007767 1_554
Fe2 Ho1 3.062540 1_545
Fe2 Ho2 3.062540 1_545
Fe2 Ho1 3.064023 1_655
Fe2 Ho2 3.064023 1_655
Fe3 Ho0 3.022664 1_555
Fe3 Ho3 3.022664 1_554
Fe3 Ho1 3.092015 1_545
Fe3 Ho2 3.092015 1_545
Fe3 Ho1 3.093020 1_555
Fe3 Ho2 3.093020 1_555
