# generated using pymatgen
data_MgAl2Ga2Cu4(AsO5)4
_symmetry_space_group_name_H-M   'P 1'
_cell_length_a   5.89749086
_cell_length_b   7.70550252
_cell_length_c   10.40101808
_cell_angle_alpha   90.24071051
_cell_angle_beta   89.81889998
_cell_angle_gamma   100.58340803
_symmetry_Int_Tables_number   1
_chemical_formula_structural   MgAl2Ga2Cu4(AsO5)4
_chemical_formula_sum   'Mg1 Al2 Ga2 Cu4 As4 O20'
_cell_volume   464.60882025
_cell_formula_units_Z   1
loop_
 _symmetry_equiv_pos_site_id
 _symmetry_equiv_pos_as_xyz
  1  'x, y, z'
loop_
 _atom_site_type_symbol
 _atom_site_label
 _atom_site_symmetry_multiplicity
 _atom_site_fract_x
 _atom_site_fract_y
 _atom_site_fract_z
 _atom_site_occupancy
  Mg  Mg0  1  0.64370313  0.33063266  0.06631681  1
  Al  Al0  1  0.43680431  0.12827220  0.32071711  1
  Al  Al1  1  0.06629993  0.85730787  0.81895788  1
  Ga  Ga0  1  0.56920165  0.87343476  0.68299426  1
  Ga  Ga1  1  0.94356789  0.12218892  0.18410956  1
  Cu  Cu0  1  0.87436857  0.51705565  0.36851776  1
  Cu  Cu1  1  0.59206592  0.54862733  0.84538980  1
  Cu  Cu2  1  0.11234612  0.53868603  0.64430324  1
  Cu  Cu3  1  0.32797076  0.48174908  0.17376871  1
  As  As0  1  0.59194340  0.28153857  0.60680688  1
  As  As1  1  0.92156754  0.72139300  0.10065575  1
  As  As2  1  0.43153621  0.73007507  0.40028962  1
  As  As3  1  0.10056396  0.27057440  0.88702459  1
  O  O0  1  0.64438659  0.11757535  0.70949916  1
  O  O1  1  0.85099038  0.88137347  0.20001664  1
  O  O2  1  0.37406945  0.89504668  0.30071791  1
  O  O3  1  0.13504599  0.09106842  0.79866696  1
  O  O4  1  0.84664523  0.39231957  0.53868314  1
  O  O5  1  0.67529610  0.59609912  0.03264797  1
  O  O6  1  0.17224257  0.62795974  0.46642761  1
  O  O7  1  0.35622660  0.35561037  0.96649083  1
  O  O8  1  0.69487463  0.21981439  0.23735670  1
  O  O9  1  0.77556687  0.77664470  0.78066530  1
  O  O10  1  0.27168125  0.77164452  0.72790249  1
  O  O11  1  0.23343048  0.21700564  0.22977521  1
  O  O12  1  0.45311709  0.42659408  0.68870212  1
  O  O13  1  0.02272684  0.56386675  0.19035381  1
  O  O14  1  0.55076757  0.57466578  0.31449861  1
  O  O15  1  0.99073829  0.43226263  0.81214206  1
  O  O16  1  0.41779841  0.18313477  0.48465853  1
  O  O17  1  0.11304559  0.81865499  0.98680131  1
  O  O18  1  0.63323822  0.82212735  0.51198169  1
  O  O19  1  0.89492243  0.20106713  0.00966098  1
loop_
_geom_bond_atom_site_label_1
_geom_bond_atom_site_label_2
_geom_bond_distance
_geom_bond_site_symmetry_2
Mg0 O19 2.017893 1_555
Mg0 O8 2.023822 1_555
Mg0 O7 2.030298 1_554
Mg0 O5 2.051156 1_555
Al0 O16 1.763230 1_555
Al0 O11 1.764821 1_555
Al0 O2 1.778454 1_545
Al0 O8 1.779925 1_555
Al1 O10 1.755254 1_555
Al1 O9 1.759420 1_455
Al1 O3 1.785437 1_565
Al1 O17 1.802748 1_555
Ga0 O10 1.845112 1_555
Ga0 O9 1.848522 1_555
Ga0 O0 1.871262 1_565
Ga0 O18 1.872807 1_555
Ga1 O11 1.795852 1_655
Ga1 O1 1.843526 1_545
Ga1 O8 1.849422 1_555
Ga1 O19 1.954618 1_555
Cu0 O4 2.009430 1_555
Cu0 O13 2.051584 1_655
Cu0 O6 2.075072 1_655
Cu0 O14 2.115404 1_555
Cu1 O12 1.980957 1_555
Cu1 O9 2.004554 1_555
Cu1 O5 2.025409 1_556
Cu1 O7 2.231110 1_555
Cu2 O6 1.984467 1_555
Cu2 O15 2.005580 1_455
Cu2 O10 2.057606 1_555
Cu2 O4 2.070146 1_455
Cu2 O12 2.375918 1_555
Cu3 O14 2.009816 1_555
Cu3 O13 2.021461 1_555
Cu3 O11 2.098059 1_555
Cu3 O7 2.379077 1_554
Cu3 O5 2.540753 1_555
Cu3 Mg0 2.616191 1_555
As0 O16 1.719853 1_555
As0 O12 1.723055 1_555
As0 O0 1.729073 1_555
As0 O4 1.736198 1_555
As1 O17 1.710942 1_654
As1 O1 1.713462 1_555
As1 O13 1.725893 1_655
As1 O5 1.739983 1_555
As2 O18 1.720338 1_555
As2 O2 1.724784 1_555
As2 O6 1.728192 1_555
As2 O14 1.738118 1_555
As3 O15 1.698861 1_455
As3 O3 1.700174 1_555
As3 O7 1.739621 1_555
As3 O19 1.772579 1_456
