# generated using pymatgen
data_Dy2Nb2Fe15
_symmetry_space_group_name_H-M   'P 1'
_cell_length_a   8.47496900
_cell_length_b   8.49214512
_cell_length_c   8.49243798
_cell_angle_alpha   120.00184284
_cell_angle_beta   89.99947566
_cell_angle_gamma   90.00172651
_symmetry_Int_Tables_number   1
_chemical_formula_structural   Dy2Nb2Fe15
_chemical_formula_sum   'Dy4 Nb4 Fe30'
_cell_volume   529.31045907
_cell_formula_units_Z   2
loop_
 _symmetry_equiv_pos_site_id
 _symmetry_equiv_pos_as_xyz
  1  'x, y, z'
loop_
 _atom_site_type_symbol
 _atom_site_label
 _atom_site_symmetry_multiplicity
 _atom_site_fract_x
 _atom_site_fract_y
 _atom_site_fract_z
 _atom_site_occupancy
  Dy  Dy0  1  0.75003700  0.99997400  0.00002500  1
  Dy  Dy1  1  0.24996300  0.00002600  0.99997500  1
  Dy  Dy2  1  0.24997600  0.66672700  0.33328100  1
  Dy  Dy3  1  0.75002400  0.33327300  0.66671900  1
  Nb  Nb0  1  0.59911100  0.66671900  0.33328800  1
  Nb  Nb1  1  0.40088900  0.33328100  0.66671200  1
  Nb  Nb2  1  0.09907500  0.33327200  0.66671000  1
  Nb  Nb3  1  0.90092500  0.66672800  0.33329000  1
  Fe  Fe0  1  0.49999900  0.50000000  0.99999900  1
  Fe  Fe1  1  0.49999900  0.50000000  0.50000000  1
  Fe  Fe2  1  0.49999900  0.00000000  0.50000100  1
  Fe  Fe3  1  0.00000100  0.50000000  0.00000000  1
  Fe  Fe4  1  0.00000100  0.50000000  0.50000000  1
  Fe  Fe5  1  0.00000100  0.00000000  0.50000000  1
  Fe  Fe6  1  0.75001900  0.67013000  0.02832600  1
  Fe  Fe7  1  0.75001500  0.35822700  0.32994500  1
  Fe  Fe8  1  0.75002200  0.97174000  0.64177700  1
  Fe  Fe9  1  0.75001900  0.35822200  0.02825800  1
  Fe  Fe10  1  0.75002200  0.97167800  0.32987400  1
  Fe  Fe11  1  0.75001500  0.67005900  0.64177200  1
  Fe  Fe12  1  0.24998100  0.32987000  0.97167400  1
  Fe  Fe13  1  0.24998500  0.64177300  0.67005600  1
  Fe  Fe14  1  0.24997800  0.02826000  0.35822300  1
  Fe  Fe15  1  0.24998100  0.64177800  0.97174100  1
  Fe  Fe16  1  0.24997800  0.02832300  0.67012700  1
  Fe  Fe17  1  0.24998500  0.32994000  0.35822900  1
  Fe  Fe18  1  0.48842600  0.83704700  0.67400200  1
  Fe  Fe19  1  0.48847600  0.83700500  0.16300100  1
  Fe  Fe20  1  0.48842400  0.32599700  0.16295500  1
  Fe  Fe21  1  0.51157300  0.16295300  0.32599900  1
  Fe  Fe22  1  0.51152300  0.16299500  0.83699900  1
  Fe  Fe23  1  0.51157500  0.67400300  0.83704400  1
  Fe  Fe24  1  0.98844300  0.16294300  0.32599000  1
  Fe  Fe25  1  0.98849100  0.16298800  0.83699900  1
  Fe  Fe26  1  0.98844100  0.67401500  0.83705300  1
  Fe  Fe27  1  0.01155800  0.83705800  0.67401000  1
  Fe  Fe28  1  0.01151000  0.83701200  0.16300100  1
  Fe  Fe29  1  0.01156000  0.32598400  0.16294600  1
loop_
_geom_bond_atom_site_label_1
_geom_bond_atom_site_label_2
_geom_bond_distance
_geom_bond_site_symmetry_2
Dy0 Fe6 2.928668 1_555
Dy0 Fe10 2.928778 1_555
Dy0 Fe11 2.929412 1_554
Dy0 Fe7 2.929414 1_565
Dy0 Fe9 2.929771 1_565
Dy0 Fe8 2.929876 1_554
Dy0 Fe26 3.135140 1_554
Dy0 Fe24 3.135192 1_565
Dy0 Fe23 3.135433 1_554
Dy0 Fe21 3.135580 1_565
Dy0 Fe25 3.135871 1_564
Dy0 Fe22 3.136308 1_564
Dy0 Fe28 3.264521 1_655
Dy0 Fe19 3.264992 1_555
Dy0 Fe29 3.265034 1_665
Dy0 Fe27 3.265169 1_654
Dy0 Fe18 3.265708 1_554
Dy0 Fe20 3.265718 1_565
Dy1 Fe12 2.928668 1_555
Dy1 Fe16 2.928774 1_555
Dy1 Fe13 2.929410 1_545
Dy1 Fe17 2.929413 1_556
Dy1 Fe15 2.929767 1_545
Dy1 Fe14 2.929876 1_556
Dy1 Fe29 3.135129 1_556
Dy1 Fe27 3.135186 1_545
Dy1 Fe20 3.135428 1_556
Dy1 Fe18 3.135569 1_545
Dy1 Fe28 3.135865 1_546
Dy1 Fe19 3.136302 1_546
Dy1 Fe25 3.264516 1_455
Dy1 Fe22 3.264986 1_555
Dy1 Fe26 3.265033 1_445
Dy1 Fe24 3.265163 1_456
Dy1 Fe21 3.265707 1_556
Dy1 Fe23 3.265712 1_545
Dy2 Nb3 2.958196 1_455
Dy2 Nb0 2.958908 1_555
Dy2 Fe14 2.969946 1_565
Dy2 Fe15 2.970088 1_554
Dy2 Fe16 2.971178 1_565
Dy2 Fe12 2.971285 1_554
Dy2 Fe17 2.971654 1_555
Dy2 Fe13 2.971675 1_555
Dy2 Fe28 3.218427 1_555
Dy2 Fe19 3.218496 1_555
Dy2 Fe29 3.219010 1_555
Dy2 Fe27 3.219065 1_555
Dy2 Fe18 3.219168 1_555
Dy2 Fe20 3.219198 1_555
Dy2 Fe5 3.239721 1_565
Dy2 Fe3 3.239771 1_555
Dy2 Fe2 3.239892 1_565
Dy2 Fe0 3.240064 1_554
Dy2 Fe4 3.240683 1_555
Dy2 Fe1 3.241022 1_555
Dy3 Nb2 2.958196 1_655
Dy3 Nb1 2.958908 1_555
Dy3 Fe8 2.969946 1_545
Dy3 Fe9 2.970079 1_556
Dy3 Fe10 2.971169 1_545
Dy3 Fe6 2.971285 1_556
Dy3 Fe11 2.971641 1_555
Dy3 Fe7 2.971667 1_555
Dy3 Fe25 3.218432 1_555
Dy3 Fe22 3.218502 1_555
Dy3 Fe26 3.219009 1_555
Dy3 Fe24 3.219070 1_555
Dy3 Fe21 3.219167 1_555
Dy3 Fe23 3.219204 1_555
Dy3 Fe5 3.239732 1_655
Dy3 Fe3 3.239782 1_656
Dy3 Fe2 3.239903 1_555
Dy3 Fe0 3.240064 1_555
Dy3 Fe4 3.240694 1_655
Dy3 Fe1 3.241033 1_555
Nb0 Nb3 2.557864 1_555
Nb1 Nb2 2.557864 1_555
Fe0 Fe23 2.480575 1_555
Fe0 Fe20 2.480582 1_556
Fe0 Fe19 2.480795 1_556
Fe0 Fe22 2.480795 1_555
Fe0 Fe15 2.507196 1_555
Fe0 Fe9 2.507214 1_556
Fe0 Fe12 2.507430 1_555
Fe0 Fe6 2.507441 1_556
Fe0 Nb1 2.591086 1_555
Fe0 Nb0 2.591105 1_556
Fe1 Fe18 2.481115 1_555
Fe1 Fe21 2.481115 1_555
Fe1 Fe23 2.481175 1_555
Fe1 Fe20 2.481181 1_555
Fe1 Fe17 2.507147 1_555
Fe1 Fe11 2.507161 1_555
Fe1 Fe13 2.507195 1_555
Fe1 Fe7 2.507206 1_555
Fe1 Nb1 2.592100 1_555
Fe1 Nb0 2.592105 1_555
Fe2 Fe21 2.480556 1_555
Fe2 Fe22 2.480828 1_555
Fe2 Fe8 2.507231 1_545
Fe2 Nb1 2.590993 1_555
Fe2 Nb0 2.590999 1_545
Fe3 Fe9 2.506874 1_455
Fe3 Fe6 2.507240 1_455
Fe3 Nb2 2.591019 1_554
Fe3 Nb3 2.591024 1_455
Fe4 Fe7 2.506953 1_455
Fe4 Nb2 2.592086 1_555
Fe4 Nb3 2.592091 1_455
Fe5 Fe8 2.506889 1_445
Fe5 Nb2 2.590785 1_555
Fe5 Nb3 2.590790 1_445
Fe6 Fe9 2.648479 1_555
Fe6 Nb3 2.901532 1_555
Fe6 Nb0 2.901538 1_555
Fe7 Fe9 2.562037 1_555
Fe7 Nb0 2.902648 1_555
Fe7 Nb3 2.902662 1_555
Fe8 Nb3 2.902078 1_555
Fe8 Nb0 2.902102 1_555
Fe9 Nb3 2.902188 1_555
Fe9 Nb0 2.902202 1_555
Fe10 Fe5 2.507205 1_665
Fe10 Fe2 2.507515 1_565
Fe10 Fe6 2.560762 1_555
Fe10 Fe28 2.570334 1_655
Fe10 Fe19 2.570731 1_555
Fe10 Fe24 2.602983 1_565
Fe10 Fe21 2.603273 1_565
Fe10 Fe8 2.648554 1_555
Fe10 Nb3 2.901413 1_555
Fe10 Nb0 2.901434 1_555
Fe11 Fe4 2.507001 1_655
Fe11 Fe8 2.561898 1_555
Fe11 Fe27 2.571167 1_655
Fe11 Fe18 2.571537 1_555
Fe11 Fe26 2.603620 1_555
Fe11 Fe23 2.603673 1_555
Fe11 Fe7 2.648073 1_555
Fe11 Nb0 2.902655 1_555
Fe11 Nb3 2.902676 1_555
Fe12 Fe3 2.507226 1_556
Fe12 Fe16 2.560754 1_555
Fe12 Fe25 2.570331 1_455
Fe12 Fe22 2.570747 1_555
Fe12 Fe29 2.603087 1_556
Fe12 Fe20 2.603269 1_556
Fe12 Fe15 2.648484 1_555
Fe12 Nb2 2.901532 1_555
Fe12 Nb1 2.901538 1_555
Fe13 Fe4 2.506941 1_555
Fe13 Fe15 2.562020 1_555
Fe13 Fe26 2.571216 1_455
Fe13 Fe23 2.571540 1_555
Fe13 Fe18 2.603621 1_555
Fe13 Fe27 2.603644 1_555
Fe13 Fe17 2.648078 1_555
Fe13 Nb1 2.902644 1_555
Fe13 Nb2 2.902659 1_555
Fe14 Fe5 2.506875 1_555
Fe14 Fe2 2.507226 1_555
Fe14 Fe17 2.561885 1_555
Fe14 Fe24 2.570843 1_455
Fe14 Fe21 2.571235 1_555
Fe14 Fe28 2.603451 1_545
Fe14 Fe19 2.603719 1_545
Fe14 Fe16 2.648558 1_555
Fe14 Nb2 2.902078 1_555
Fe14 Nb1 2.902102 1_555
Fe15 Fe3 2.506862 1_556
Fe15 Fe26 2.570913 1_455
Fe15 Fe23 2.571280 1_555
Fe15 Fe28 2.603587 1_556
Fe15 Fe19 2.603671 1_556
Fe15 Nb2 2.902184 1_555
Fe15 Nb1 2.902198 1_555
Fe16 Fe5 2.507194 1_555
Fe16 Fe2 2.507494 1_555
Fe16 Fe25 2.570322 1_455
Fe16 Fe22 2.570719 1_555
Fe16 Fe27 2.602974 1_545
Fe16 Fe18 2.603272 1_545
Fe16 Nb2 2.901409 1_555
Fe16 Nb1 2.901430 1_555
Fe17 Fe4 2.506988 1_555
Fe17 Fe24 2.571149 1_455
Fe17 Fe21 2.571526 1_555
Fe17 Fe29 2.603624 1_555
Fe17 Fe20 2.603680 1_555
Fe17 Nb1 2.902644 1_555
Fe17 Nb2 2.902665 1_555
Fe18 Fe22 2.405085 1_565
Fe18 Fe23 2.406250 1_555
Fe18 Fe2 2.480548 1_565
Fe18 Fe8 2.571245 1_555
Fe18 Nb0 2.675624 1_555
Fe19 Fe21 2.405085 1_565
Fe19 Fe23 2.405242 1_554
Fe19 Fe2 2.480842 1_565
Fe19 Fe6 2.570754 1_555
Fe19 Nb0 2.674543 1_555
Fe20 Fe22 2.405235 1_554
Fe20 Fe21 2.406265 1_555
Fe20 Fe9 2.571287 1_555
Fe20 Fe7 2.571556 1_555
Fe20 Nb0 2.675572 1_555
Fe21 Fe7 2.603628 1_555
Fe21 Nb1 2.675614 1_555
Fe22 Fe9 2.603675 1_556
Fe22 Fe8 2.603725 1_545
Fe22 Nb1 2.674540 1_555
Fe23 Fe6 2.603281 1_556
Fe23 Nb1 2.675569 1_555
Fe24 Fe28 2.404951 1_645
Fe24 Fe29 2.406212 1_655
Fe24 Fe5 2.480542 1_655
Fe24 Fe4 2.481178 1_655
Fe24 Fe7 2.603643 1_555
Fe24 Nb2 2.675496 1_655
Fe25 Fe27 2.404944 1_645
Fe25 Fe29 2.405145 1_656
Fe25 Fe5 2.480833 1_655
Fe25 Fe3 2.480837 1_656
Fe25 Fe8 2.603457 1_545
Fe25 Fe9 2.603591 1_556
Fe25 Nb2 2.674352 1_655
Fe26 Fe28 2.405153 1_656
Fe26 Fe27 2.406219 1_655
Fe26 Fe3 2.480605 1_656
Fe26 Fe4 2.481238 1_655
Fe26 Fe6 2.603096 1_556
Fe26 Nb2 2.675611 1_655
Fe27 Fe5 2.480534 1_565
Fe27 Fe4 2.481185 1_555
Fe27 Fe8 2.570846 1_455
Fe27 Nb3 2.675499 1_455
Fe28 Fe5 2.480833 1_565
Fe28 Fe3 2.480836 1_555
Fe28 Fe6 2.570338 1_455
Fe28 Nb3 2.674355 1_455
Fe29 Fe3 2.480605 1_555
Fe29 Fe4 2.481245 1_555
Fe29 Fe9 2.570923 1_455
Fe29 Fe7 2.571231 1_455
Fe29 Nb3 2.675621 1_455
