# generated using pymatgen
data_CaHfMg6
_symmetry_space_group_name_H-M   'P 1'
_cell_length_a   5.13200000
_cell_length_b   6.75943300
_cell_length_c   10.94454800
_cell_angle_alpha   90.00000000
_cell_angle_beta   90.00000000
_cell_angle_gamma   90.00000000
_symmetry_Int_Tables_number   1
_chemical_formula_structural   CaHfMg6
_chemical_formula_sum   'Ca2 Hf2 Mg12'
_cell_volume   379.65991454
_cell_formula_units_Z   2
loop_
 _symmetry_equiv_pos_site_id
 _symmetry_equiv_pos_as_xyz
  1  'x, y, z'
loop_
 _atom_site_type_symbol
 _atom_site_label
 _atom_site_symmetry_multiplicity
 _atom_site_fract_x
 _atom_site_fract_y
 _atom_site_fract_z
 _atom_site_occupancy
  Ca  Ca0  1  0.00000000  0.50000000  0.39618600  1
  Ca  Ca1  1  0.00000000  0.00000000  0.89618600  1
  Hf  Hf0  1  0.50000000  0.50000000  0.09991100  1
  Hf  Hf1  1  0.50000000  0.00000000  0.59991100  1
  Mg  Mg0  1  0.00000000  0.24450800  0.15346800  1
  Mg  Mg1  1  0.00000000  0.75549200  0.15346800  1
  Mg  Mg2  1  0.00000000  0.50000000  0.92016000  1
  Mg  Mg3  1  0.50000000  0.27003000  0.84287000  1
  Mg  Mg4  1  0.50000000  0.72997000  0.84287000  1
  Mg  Mg5  1  0.50000000  0.50000000  0.59106600  1
  Mg  Mg6  1  0.00000000  0.74450800  0.65346800  1
  Mg  Mg7  1  0.00000000  0.25549200  0.65346800  1
  Mg  Mg8  1  0.00000000  0.00000000  0.42016000  1
  Mg  Mg9  1  0.50000000  0.77003000  0.34287000  1
  Mg  Mg10  1  0.50000000  0.22997000  0.34287000  1
  Mg  Mg11  1  0.50000000  0.00000000  0.09106600  1
loop_
_geom_bond_atom_site_label_1
_geom_bond_atom_site_label_2
_geom_bond_distance
_geom_bond_site_symmetry_2
Ca0 Mg1 3.168459 1_555
Ca0 Mg0 3.168459 1_555
Ca0 Mg10 3.202560 1_455
Ca0 Mg10 3.202560 1_555
Ca0 Mg9 3.202560 1_455
Ca0 Mg9 3.202560 1_555
Ca0 Mg6 3.265036 1_555
Ca0 Mg7 3.265036 1_555
Ca0 Mg5 3.336691 1_455
Ca0 Mg5 3.336691 1_555
Ca0 Mg8 3.389886 1_565
Ca0 Mg8 3.389886 1_555
Ca1 Mg7 3.168459 1_555
Ca1 Mg6 3.168459 1_545
Ca1 Mg4 3.202560 1_445
Ca1 Mg4 3.202560 1_545
Ca1 Mg3 3.202560 1_455
Ca1 Mg3 3.202560 1_555
Ca1 Mg0 3.265036 1_556
Ca1 Mg1 3.265036 1_546
Ca1 Mg11 3.336691 1_556
Ca1 Mg11 3.336691 1_456
Ca1 Mg2 3.389886 1_545
Ca1 Mg2 3.389886 1_555
Hf0 Mg1 3.148079 1_555
Hf0 Mg1 3.148079 1_655
Hf0 Mg0 3.148079 1_555
Hf0 Mg0 3.148079 1_655
Hf0 Mg3 3.214101 1_554
Hf0 Mg4 3.214101 1_554
Hf0 Mg10 3.225248 1_555
Hf0 Mg9 3.225248 1_555
Hf0 Mg2 3.233357 1_654
Hf0 Mg2 3.233357 1_554
Hf0 Mg11 3.381103 1_565
Hf0 Mg11 3.381103 1_555
Hf1 Mg6 3.148079 1_545
Hf1 Mg7 3.148079 1_555
Hf1 Mg7 3.148079 1_655
Hf1 Mg6 3.148079 1_645
Hf1 Mg9 3.214101 1_545
Hf1 Mg10 3.214101 1_555
Hf1 Mg4 3.225248 1_545
Hf1 Mg3 3.225248 1_555
Hf1 Mg8 3.233357 1_555
Hf1 Mg8 3.233357 1_655
Hf1 Mg5 3.381103 1_555
Hf1 Mg5 3.381103 1_545
Mg0 Mg2 3.082624 1_554
Mg0 Mg11 3.127671 1_455
Mg0 Mg11 3.127671 1_555
Mg0 Mg10 3.300153 1_455
Mg0 Mg10 3.300153 1_555
Mg0 Mg1 3.305471 1_545
Mg0 Mg8 3.354261 1_555
Mg0 Mg1 3.453962 1_555
Mg1 Mg2 3.082624 1_554
Mg1 Mg11 3.127671 1_565
Mg1 Mg11 3.127671 1_465
Mg1 Mg9 3.300153 1_555
Mg1 Mg9 3.300153 1_455
Mg1 Mg8 3.354261 1_565
Mg2 Mg3 3.117094 1_555
Mg2 Mg4 3.117094 1_555
Mg2 Mg3 3.117094 1_455
Mg2 Mg4 3.117094 1_455
Mg2 Mg7 3.354261 1_555
Mg2 Mg6 3.354261 1_555
Mg3 Mg4 3.108934 1_555
Mg3 Mg5 3.164055 1_555
Mg3 Mg7 3.300153 1_555
Mg3 Mg7 3.300153 1_655
Mg4 Mg5 3.164055 1_555
Mg4 Mg6 3.300153 1_555
Mg4 Mg6 3.300153 1_655
Mg5 Mg7 3.127671 1_555
Mg5 Mg7 3.127671 1_655
Mg5 Mg6 3.127671 1_555
Mg5 Mg6 3.127671 1_655
Mg5 Mg9 3.272664 1_555
Mg6 Mg8 3.082624 1_565
Mg6 Mg7 3.305471 1_555
Mg6 Mg7 3.453962 1_565
Mg7 Mg8 3.082624 1_555
Mg8 Mg9 3.117094 1_545
Mg8 Mg9 3.117094 1_445
Mg10 Mg9 3.108934 1_545
Mg10 Mg8 3.117094 1_655
Mg10 Mg8 3.117094 1_555
Mg10 Mg11 3.164055 1_555
Mg10 Mg5 3.272664 1_555
Mg11 Mg9 3.164055 1_545
Mg11 Mg4 3.272664 1_544
Mg11 Mg3 3.272664 1_554
