# generated using pymatgen
data_Mn5NiN4
_symmetry_space_group_name_H-M   'P 1'
_cell_length_a   7.78952400
_cell_length_b   5.51299900
_cell_length_c   4.90033400
_cell_angle_alpha   90.00000000
_cell_angle_beta   90.00000000
_cell_angle_gamma   90.00000000
_symmetry_Int_Tables_number   1
_chemical_formula_structural   Mn5NiN4
_chemical_formula_sum   'Mn10 Ni2 N8'
_cell_volume   210.43816949
_cell_formula_units_Z   2
loop_
 _symmetry_equiv_pos_site_id
 _symmetry_equiv_pos_as_xyz
  1  'x, y, z'
loop_
 _atom_site_type_symbol
 _atom_site_label
 _atom_site_symmetry_multiplicity
 _atom_site_fract_x
 _atom_site_fract_y
 _atom_site_fract_z
 _atom_site_occupancy
  Mn  Mn0  1  0.53526400  0.51097600  0.25386300  1
  Mn  Mn1  1  0.96473600  0.51097600  0.25386300  1
  Mn  Mn2  1  0.53526400  0.98902400  0.25386300  1
  Mn  Mn3  1  0.96473600  0.98902400  0.25386300  1
  Mn  Mn4  1  0.46473600  0.48902400  0.74613700  1
  Mn  Mn5  1  0.03526400  0.48902400  0.74613700  1
  Mn  Mn6  1  0.46473600  0.01097600  0.74613700  1
  Mn  Mn7  1  0.03526400  0.01097600  0.74613700  1
  Mn  Mn8  1  0.75000000  0.75000000  0.82993000  1
  Mn  Mn9  1  0.25000000  0.25000000  0.17007000  1
  Ni  Ni0  1  0.75000000  0.25000000  0.90511100  1
  Ni  Ni1  1  0.25000000  0.75000000  0.09488900  1
  N  N0  1  0.75000000  0.97633100  0.10835900  1
  N  N1  1  0.75000000  0.52366900  0.10835900  1
  N  N2  1  0.25000000  0.02366900  0.89164100  1
  N  N3  1  0.25000000  0.47633100  0.89164100  1
  N  N4  1  0.56732600  0.75000000  0.55560500  1
  N  N5  1  0.93267400  0.75000000  0.55560500  1
  N  N6  1  0.43267400  0.25000000  0.44439500  1
  N  N7  1  0.06732600  0.25000000  0.44439500  1
loop_
_geom_bond_atom_site_label_1
_geom_bond_atom_site_label_2
_geom_bond_distance
_geom_bond_site_symmetry_2
Mn0 N1 1.819667 1_555
Mn0 N6 1.892188 1_555
Mn0 N4 1.996291 1_555
Mn1 N1 1.819667 1_555
Mn1 N7 1.892188 1_655
Mn1 N5 1.996291 1_555
Mn2 N0 1.819667 1_555
Mn2 N6 1.892188 1_565
Mn2 N4 1.996291 1_555
Mn3 N0 1.819667 1_555
Mn3 N7 1.892188 1_665
Mn3 N5 1.996291 1_555
Mn4 N3 1.819667 1_555
Mn4 N4 1.892188 1_555
Mn4 N6 1.996291 1_555
Mn5 N3 1.819667 1_555
Mn5 N5 1.892188 1_455
Mn5 N7 1.996291 1_555
Mn6 N2 1.819667 1_555
Mn6 N4 1.892188 1_545
Mn6 N6 1.996291 1_555
Mn7 N2 1.819667 1_555
Mn7 N5 1.892188 1_445
Mn7 N7 1.996291 1_555
Mn8 N1 1.848915 1_556
Mn8 N0 1.848915 1_556
Mn8 N4 1.957516 1_555
Mn8 N5 1.957516 1_555
Mn9 N2 1.848915 1_554
Mn9 N3 1.848915 1_554
Mn9 N7 1.957516 1_555
Mn9 N6 1.957516 1_555
N0 Ni0 1.807836 1_564
N1 Ni0 1.807836 1_554
N2 Ni1 1.807836 1_546
N3 Ni1 1.807836 1_556
