# generated using pymatgen
data_Ba2C4O9
_symmetry_space_group_name_H-M   'P 1'
_cell_length_a   6.31389223
_cell_length_b   8.76757560
_cell_length_c   9.55218307
_cell_angle_alpha   64.41644267
_cell_angle_beta   84.63605123
_cell_angle_gamma   83.42531735
_symmetry_Int_Tables_number   1
_chemical_formula_structural   Ba2C4O9
_chemical_formula_sum   'Ba4 C8 O18'
_cell_volume   473.23204381
_cell_formula_units_Z   2
loop_
 _symmetry_equiv_pos_site_id
 _symmetry_equiv_pos_as_xyz
  1  'x, y, z'
loop_
 _atom_site_type_symbol
 _atom_site_label
 _atom_site_symmetry_multiplicity
 _atom_site_fract_x
 _atom_site_fract_y
 _atom_site_fract_z
 _atom_site_occupancy
  Ba  Ba0  1  0.20985900  0.14111400  0.57249700  1
  Ba  Ba1  1  0.79014100  0.85888600  0.42750300  1
  Ba  Ba2  1  0.71977900  0.46961200  0.19865900  1
  Ba  Ba3  1  0.28022100  0.53038800  0.80134100  1
  C  C0  1  0.38613200  0.20930800  0.19298200  1
  C  C1  1  0.61386800  0.79069200  0.80701800  1
  C  C2  1  0.32960600  0.68354100  0.37154000  1
  C  C3  1  0.67039400  0.31645900  0.62846000  1
  C  C4  1  0.18842600  0.58731500  0.31625100  1
  C  C5  1  0.81157400  0.41268500  0.68374900  1
  C  C6  1  0.13753500  0.22098400  0.18828200  1
  C  C7  1  0.86246500  0.77901600  0.81171800  1
  O  O0  1  0.48752500  0.29650600  0.06845200  1
  O  O1  1  0.51247500  0.70349400  0.93154800  1
  O  O2  1  0.28026900  0.46058700  0.29638700  1
  O  O3  1  0.71973100  0.53941300  0.70361300  1
  O  O4  1  0.23949600  0.74144200  0.46511600  1
  O  O5  1  0.76050400  0.25855800  0.53488400  1
  O  O6  1  0.00869100  0.36522500  0.69657100  1
  O  O7  1  0.99130900  0.63477500  0.30342900  1
  O  O8  1  0.47504400  0.30890500  0.67495700  1
  O  O9  1  0.52495600  0.69109500  0.32504300  1
  O  O10  1  0.03037100  0.14345400  0.31568600  1
  O  O11  1  0.96962900  0.85654600  0.68431400  1
  O  O12  1  0.46869500  0.12102000  0.32386200  1
  O  O13  1  0.53130500  0.87898000  0.67613800  1
  O  O14  1  0.05553800  0.31406600  0.06037600  1
  O  O15  1  0.94446200  0.68593400  0.93962400  1
  O  O16  1  0.91422500  0.01105500  0.03191300  1
  O  O17  1  0.08577500  0.98894500  0.96808700  1
loop_
_geom_bond_atom_site_label_1
_geom_bond_atom_site_label_2
_geom_bond_distance
_geom_bond_site_symmetry_2
Ba0 O13 2.779172 1_545
Ba0 O10 2.788085 1_555
Ba0 O12 2.812876 1_555
Ba0 O11 2.815765 1_445
Ba0 O6 2.834977 1_555
Ba0 O8 2.835394 1_555
Ba0 O5 2.905344 1_455
Ba0 O2 2.947048 1_555
Ba1 O12 2.779172 1_565
Ba1 O11 2.788085 1_555
Ba1 O13 2.812876 1_555
Ba1 O10 2.815765 1_665
Ba1 O7 2.834977 1_555
Ba1 O9 2.835394 1_555
Ba1 O4 2.905344 1_655
Ba1 O3 2.947048 1_555
Ba2 O15 2.763854 1_554
Ba2 O1 2.814124 1_554
Ba2 O9 2.818057 1_555
Ba2 O2 2.842639 1_555
Ba2 O7 2.859827 1_555
Ba2 O14 2.910154 1_655
Ba2 O0 2.912351 1_555
Ba2 O5 2.952604 1_555
Ba2 O10 3.104447 1_655
Ba2 O12 3.298905 1_555
Ba3 O14 2.763854 1_556
Ba3 O0 2.814124 1_556
Ba3 O8 2.818057 1_555
Ba3 O3 2.842639 1_555
Ba3 O6 2.859827 1_555
Ba3 O15 2.910154 1_455
Ba3 O1 2.912351 1_555
Ba3 O4 2.952604 1_555
Ba3 O11 3.104447 1_455
Ba3 O13 3.298905 1_555
C0 O0 1.262374 1_555
C0 O12 1.275759 1_555
C1 O1 1.262374 1_555
C1 O13 1.275759 1_555
C2 O4 1.269276 1_555
C2 O9 1.270376 1_555
C3 O5 1.269276 1_555
C3 O8 1.270376 1_555
C4 O7 1.266099 1_455
C4 O2 1.273095 1_555
C5 O6 1.266099 1_655
C5 O3 1.273095 1_555
C6 O14 1.259829 1_555
C6 O10 1.279784 1_555
C7 O15 1.259829 1_555
C7 O11 1.279784 1_555
O16 O17 1.230049 1_644
