# generated using pymatgen
data_FeH12C2(N5O3)2
_symmetry_space_group_name_H-M   'P 1'
_cell_length_a   6.36577298
_cell_length_b   7.25044579
_cell_length_c   7.84348559
_cell_angle_alpha   75.33541349
_cell_angle_beta   73.30347735
_cell_angle_gamma   67.99625923
_symmetry_Int_Tables_number   1
_chemical_formula_structural   FeH12C2(N5O3)2
_chemical_formula_sum   'Fe1 H12 C2 N10 O6'
_cell_volume   317.14825799
_cell_formula_units_Z   1
loop_
 _symmetry_equiv_pos_site_id
 _symmetry_equiv_pos_as_xyz
  1  'x, y, z'
loop_
 _atom_site_type_symbol
 _atom_site_label
 _atom_site_symmetry_multiplicity
 _atom_site_fract_x
 _atom_site_fract_y
 _atom_site_fract_z
 _atom_site_occupancy
  Fe  Fe0  1  0.00000000  0.00000000  0.00000000  1
  H  H0  1  0.57542800  0.16027000  0.16926400  1
  H  H1  1  0.42457200  0.83973000  0.83073600  1
  H  H2  1  0.66945500  0.34454400  0.10492400  1
  H  H3  1  0.33054500  0.65545600  0.89507600  1
  H  H4  1  0.16188300  0.20214300  0.16967600  1
  H  H5  1  0.83811700  0.79785700  0.83032400  1
  H  H6  1  0.71765700  0.47848400  0.30427900  1
  H  H7  1  0.28234300  0.52151600  0.69572100  1
  H  H8  1  0.22602400  0.28690900  0.95753000  1
  H  H9  1  0.77397600  0.71309100  0.04247000  1
  H  H10  1  0.48084400  0.61764200  0.23918700  1
  H  H11  1  0.51915600  0.38235800  0.76081300  1
  C  C0  1  0.20083900  0.12314100  0.55966500  1
  C  C1  1  0.79916100  0.87685900  0.44033500  1
  N  N0  1  0.10499000  0.68383100  0.53108600  1
  N  N1  1  0.89501000  0.31616900  0.46891400  1
  N  N2  1  0.11998800  0.22556100  0.40921300  1
  N  N3  1  0.88001200  0.77443900  0.59078700  1
  N  N4  1  0.02720600  0.14882800  0.70884200  1
  N  N5  1  0.97279400  0.85117200  0.29115800  1
  N  N6  1  0.16172500  0.72944200  0.35167500  1
  N  N7  1  0.83827500  0.27055800  0.64832500  1
  N  N8  1  0.42529600  0.00508500  0.57464200  1
  N  N9  1  0.57470400  0.99491500  0.42535800  1
  O  O0  1  0.64798800  0.54557800  0.19623500  1
  O  O1  1  0.35201200  0.45442200  0.80376500  1
  O  O2  1  0.67064500  0.22256300  0.06565500  1
  O  O3  1  0.32935500  0.77743700  0.93434500  1
  O  O4  1  0.15845500  0.18864400  0.04811900  1
  O  O5  1  0.84154500  0.81135600  0.95188100  1
loop_
_geom_bond_atom_site_label_1
_geom_bond_atom_site_label_2
_geom_bond_distance
_geom_bond_site_symmetry_2
Fe0 O2 2.128395 1_455
Fe0 O3 2.128395 1_544
Fe0 O4 2.131802 1_555
Fe0 O5 2.131802 1_444
Fe0 N5 2.252712 1_445
Fe0 N4 2.252712 1_554
H0 O2 0.983898 1_555
H1 O3 0.983898 1_555
H2 O2 1.004331 1_555
H3 O3 1.004331 1_555
H4 O4 0.989893 1_555
H5 O5 0.989893 1_555
H6 O0 0.998527 1_555
H7 O1 0.998527 1_555
H8 O4 0.997589 1_556
H9 O5 0.997589 1_554
H10 O0 0.992557 1_555
H11 O1 0.992557 1_555
C0 N2 1.351962 1_555
C0 N4 1.355878 1_555
C0 N8 1.384606 1_555
C1 N3 1.351962 1_555
C1 N5 1.355878 1_555
C1 N9 1.384606 1_555
N0 N3 1.329409 1_455
N0 N6 1.334870 1_555
N1 N2 1.329409 1_655
N1 N7 1.334870 1_555
N4 N7 1.330883 1_455
N5 N6 1.330883 1_655
N8 N9 1.277616 1_545
