# generated using pymatgen
data_NaMn4(AsO4)3
_symmetry_space_group_name_H-M   'P 1'
_cell_length_a   9.12152656
_cell_length_b   9.12152656
_cell_length_c   6.92305674
_cell_angle_alpha   72.86393085
_cell_angle_beta   72.86393085
_cell_angle_gamma   93.54221250
_symmetry_Int_Tables_number   1
_chemical_formula_structural   NaMn4(AsO4)3
_chemical_formula_sum   'Na2 Mn8 As6 O24'
_cell_volume   518.99699738
_cell_formula_units_Z   2
loop_
 _symmetry_equiv_pos_site_id
 _symmetry_equiv_pos_as_xyz
  1  'x, y, z'
loop_
 _atom_site_type_symbol
 _atom_site_label
 _atom_site_symmetry_multiplicity
 _atom_site_fract_x
 _atom_site_fract_y
 _atom_site_fract_z
 _atom_site_occupancy
  Na  Na0  1  0.51209400  0.48790600  0.25000000  1
  Na  Na1  1  0.48790600  0.51209400  0.75000000  1
  Mn  Mn0  1  0.23534500  0.76465500  0.25000000  1
  Mn  Mn1  1  0.76465500  0.23534500  0.75000000  1
  Mn  Mn2  1  0.56277200  0.87401700  0.36555600  1
  Mn  Mn3  1  0.43722800  0.12598300  0.63444400  1
  Mn  Mn4  1  0.12598300  0.43722800  0.13444400  1
  Mn  Mn5  1  0.87401700  0.56277200  0.86555600  1
  Mn  Mn6  1  0.00000000  0.00000000  0.00000000  1
  Mn  Mn7  1  0.00000000  0.00000000  0.50000000  1
  As  As0  1  0.79185400  0.20814600  0.25000000  1
  As  As1  1  0.20814600  0.79185400  0.75000000  1
  As  As2  1  0.37811200  0.15767700  0.13184000  1
  As  As3  1  0.62188800  0.84232300  0.86816000  1
  As  As4  1  0.84232300  0.62188800  0.36816000  1
  As  As5  1  0.15767700  0.37811200  0.63184000  1
  O  O0  1  0.78479200  0.02430700  0.22044900  1
  O  O1  1  0.21520800  0.97569300  0.77955100  1
  O  O2  1  0.97569300  0.21520800  0.27955100  1
  O  O3  1  0.02430700  0.78479200  0.72044900  1
  O  O4  1  0.45999800  0.09398300  0.32844900  1
  O  O5  1  0.54000200  0.90601700  0.67155100  1
  O  O6  1  0.90601700  0.54000200  0.17155100  1
  O  O7  1  0.09398300  0.45999800  0.82844900  1
  O  O8  1  0.65704300  0.65962700  0.39276000  1
  O  O9  1  0.34295700  0.34037300  0.60724000  1
  O  O10  1  0.34037300  0.34295700  0.10724000  1
  O  O11  1  0.65962700  0.65704300  0.89276000  1
  O  O12  1  0.20821300  0.02355300  0.20477400  1
  O  O13  1  0.79178700  0.97644700  0.79522600  1
  O  O14  1  0.97644700  0.79178700  0.29522600  1
  O  O15  1  0.02355300  0.20821300  0.70477400  1
  O  O16  1  0.49095700  0.83192900  0.11177300  1
  O  O17  1  0.50904300  0.16807100  0.88822700  1
  O  O18  1  0.16807100  0.50904300  0.38822700  1
  O  O19  1  0.83192900  0.49095700  0.61177300  1
  O  O20  1  0.67701100  0.24189000  0.47296500  1
  O  O21  1  0.32298900  0.75811000  0.52703500  1
  O  O22  1  0.75811000  0.32298900  0.02703500  1
  O  O23  1  0.24189000  0.67701100  0.97296500  1
loop_
_geom_bond_atom_site_label_1
_geom_bond_atom_site_label_2
_geom_bond_distance
_geom_bond_site_symmetry_2
Na0 O9 2.416930 1_555
Na0 O11 2.416930 1_554
Na0 O8 2.569976 1_555
Na0 O10 2.569976 1_555
Na1 O10 2.416930 1_556
Na1 O8 2.416930 1_555
Na1 O11 2.569976 1_555
Na1 O9 2.569976 1_555
Mn0 O18 2.211536 1_555
Mn0 O16 2.211536 1_555
Mn0 O23 2.272244 1_554
Mn0 O21 2.272244 1_555
Mn0 O12 2.327733 1_565
Mn0 O14 2.327733 1_455
Mn1 O19 2.211536 1_555
Mn1 O17 2.211536 1_555
Mn1 O22 2.272244 1_556
Mn1 O20 2.272244 1_555
Mn1 O15 2.327733 1_655
Mn1 O13 2.327733 1_545
Mn2 O0 2.153208 1_565
Mn2 O8 2.164558 1_555
Mn2 O16 2.169792 1_555
Mn2 O21 2.174449 1_555
Mn2 O5 2.174543 1_555
Mn2 O4 2.245253 1_565
Mn3 O1 2.153208 1_545
Mn3 O9 2.164558 1_555
Mn3 O17 2.169792 1_555
Mn3 O20 2.174449 1_555
Mn3 O4 2.174543 1_555
Mn3 O5 2.245253 1_545
Mn4 O2 2.153208 1_455
Mn4 O10 2.164558 1_555
Mn4 O18 2.169792 1_555
Mn4 O23 2.174449 1_554
Mn4 O7 2.174543 1_554
Mn4 O6 2.245253 1_455
Mn5 O3 2.153208 1_655
Mn5 O11 2.164558 1_555
Mn5 O19 2.169792 1_555
Mn5 O22 2.174449 1_556
Mn5 O6 2.174543 1_556
Mn5 O7 2.245253 1_655
Mn6 O1 2.172460 1_544
Mn6 O0 2.172460 1_455
Mn6 O14 2.287784 1_445
Mn6 O15 2.287784 1_554
Mn6 O13 2.716365 1_444
Mn6 O12 2.716365 1_555
Mn7 O3 2.172460 1_545
Mn7 O2 2.172460 1_455
Mn7 O13 2.287784 1_445
Mn7 O12 2.287784 1_555
Mn7 O14 2.716365 1_445
Mn7 O15 2.716365 1_555
As0 O20 1.715150 1_555
As0 O22 1.715150 1_555
As0 O0 1.747728 1_555
As0 O2 1.747728 1_555
As1 O23 1.715150 1_555
As1 O21 1.715150 1_555
As1 O3 1.747728 1_555
As1 O1 1.747728 1_555
As2 O4 1.713141 1_555
As2 O10 1.714804 1_555
As2 O17 1.727596 1_554
As2 O12 1.758967 1_555
As3 O5 1.713141 1_555
As3 O11 1.714804 1_555
As3 O16 1.727596 1_556
As3 O13 1.758967 1_555
As4 O6 1.713141 1_555
As4 O8 1.714804 1_555
As4 O19 1.727596 1_555
As4 O14 1.758967 1_555
As5 O7 1.713141 1_555
As5 O9 1.714804 1_555
As5 O18 1.727596 1_555
As5 O15 1.758967 1_555
