# generated using pymatgen
data_NbTlV2O8
_symmetry_space_group_name_H-M   'P 1'
_cell_length_a   5.62769491
_cell_length_b   8.96742431
_cell_length_c   14.90228756
_cell_angle_alpha   90.00000000
_cell_angle_beta   90.00000000
_cell_angle_gamma   90.00000000
_symmetry_Int_Tables_number   1
_chemical_formula_structural   NbTlV2O8
_chemical_formula_sum   'Nb4 Tl4 V8 O32'
_cell_volume   752.05777320
_cell_formula_units_Z   4
loop_
 _symmetry_equiv_pos_site_id
 _symmetry_equiv_pos_as_xyz
  1  'x, y, z'
loop_
 _atom_site_type_symbol
 _atom_site_label
 _atom_site_symmetry_multiplicity
 _atom_site_fract_x
 _atom_site_fract_y
 _atom_site_fract_z
 _atom_site_occupancy
  Nb  Nb0  1  0.25000000  0.99682754  0.66007995  1
  Nb  Nb1  1  0.25000000  0.50317246  0.16007995  1
  Nb  Nb2  1  0.75000000  0.00317246  0.33992005  1
  Nb  Nb3  1  0.75000000  0.49682754  0.83992005  1
  Tl  Tl0  1  0.25000000  0.44048313  0.59767953  1
  Tl  Tl1  1  0.25000000  0.05951687  0.09767953  1
  Tl  Tl2  1  0.75000000  0.55951687  0.40232047  1
  Tl  Tl3  1  0.75000000  0.94048313  0.90232047  1
  V  V0  1  0.25000000  0.24586034  0.84092810  1
  V  V1  1  0.25000000  0.25413966  0.34092810  1
  V  V2  1  0.75000000  0.75413966  0.15907190  1
  V  V3  1  0.75000000  0.74586034  0.65907190  1
  V  V4  1  0.25000000  0.81329794  0.43762606  1
  V  V5  1  0.25000000  0.68670206  0.93762606  1
  V  V6  1  0.75000000  0.18670206  0.56237394  1
  V  V7  1  0.75000000  0.31329794  0.06237394  1
  O  O0  1  0.99944062  0.34803374  0.81065491  1
  O  O1  1  0.50055938  0.15196626  0.31065491  1
  O  O2  1  0.49944062  0.65196626  0.18934509  1
  O  O3  1  0.00055938  0.84803374  0.68934509  1
  O  O4  1  0.00055938  0.65196626  0.18934509  1
  O  O5  1  0.49944062  0.84803374  0.68934509  1
  O  O6  1  0.50055938  0.34803374  0.81065491  1
  O  O7  1  0.99944062  0.15196626  0.31065491  1
  O  O8  1  0.99629004  0.85396040  0.37445991  1
  O  O9  1  0.50370996  0.64603960  0.87445991  1
  O  O10  1  0.49629004  0.14603960  0.62554009  1
  O  O11  1  0.00370996  0.35396040  0.12554009  1
  O  O12  1  0.00370996  0.14603960  0.62554009  1
  O  O13  1  0.49629004  0.35396040  0.12554009  1
  O  O14  1  0.50370996  0.85396040  0.37445991  1
  O  O15  1  0.99629004  0.64603960  0.87445991  1
  O  O16  1  0.25000000  0.07440142  0.78402624  1
  O  O17  1  0.25000000  0.42559858  0.28402624  1
  O  O18  1  0.75000000  0.92559858  0.21597376  1
  O  O19  1  0.75000000  0.57440142  0.71597376  1
  O  O20  1  0.25000000  0.91923157  0.53423449  1
  O  O21  1  0.25000000  0.58076843  0.03423449  1
  O  O22  1  0.75000000  0.08076843  0.46576551  1
  O  O23  1  0.75000000  0.41923157  0.96576551  1
  O  O24  1  0.25000000  0.21642914  0.94899608  1
  O  O25  1  0.25000000  0.28357086  0.44899608  1
  O  O26  1  0.75000000  0.78357086  0.05100392  1
  O  O27  1  0.75000000  0.71642914  0.55100392  1
  O  O28  1  0.25000000  0.63332904  0.46030683  1
  O  O29  1  0.25000000  0.86667096  0.96030683  1
  O  O30  1  0.75000000  0.36667096  0.53969317  1
  O  O31  1  0.75000000  0.13332904  0.03969317  1
loop_
_geom_bond_atom_site_label_1
_geom_bond_atom_site_label_2
_geom_bond_distance
_geom_bond_site_symmetry_2
Nb0 O16 1.973735 1_565
Nb0 O3 1.985229 1_555
Nb0 O5 1.985229 1_555
Nb0 O12 1.994100 1_565
Nb0 O10 1.994100 1_565
Nb0 O20 2.000314 1_555
Nb1 O17 1.973735 1_555
Nb1 O2 1.985229 1_555
Nb1 O4 1.985229 1_555
Nb1 O11 1.994100 1_555
Nb1 O13 1.994100 1_555
Nb1 O21 2.000314 1_555
Nb2 O18 1.973735 1_545
Nb2 O7 1.985229 1_555
Nb2 O1 1.985229 1_555
Nb2 O14 1.994100 1_545
Nb2 O8 1.994100 1_545
Nb2 O22 2.000314 1_555
Nb3 O19 1.973735 1_555
Nb3 O6 1.985229 1_555
Nb3 O0 1.985229 1_555
Nb3 O9 1.994100 1_555
Nb3 O15 1.994100 1_555
Nb3 O23 2.000314 1_555
O0 V0 1.741066 1_655
O1 V1 1.741066 1_555
O2 V2 1.741066 1_555
O3 V3 1.741066 1_455
O4 V2 1.741066 1_455
O5 V3 1.741066 1_555
O6 V0 1.741066 1_555
O7 V1 1.741066 1_655
O8 V4 1.748618 1_655
O9 V5 1.748618 1_555
O10 V6 1.748618 1_555
O11 V7 1.748618 1_455
O12 V6 1.748618 1_455
O13 V7 1.748618 1_555
O14 V4 1.748618 1_555
O15 V5 1.748618 1_655
O16 V0 1.755874 1_555
O17 V1 1.755874 1_555
O18 V2 1.755874 1_555
O19 V3 1.755874 1_555
O20 V4 1.724850 1_555
O21 V5 1.724850 1_554
O22 V6 1.724850 1_555
O23 V7 1.724850 1_556
O24 V0 1.631943 1_555
O24 Tl1 2.624759 1_556
O25 V1 1.631943 1_555
O25 Tl0 2.624759 1_555
O26 V2 1.631943 1_555
O26 Tl3 2.624759 1_554
O27 V3 1.631943 1_555
O27 Tl2 2.624759 1_555
O28 V4 1.648871 1_555
O28 Tl0 2.679828 1_555
O29 V5 1.648871 1_555
O29 Tl1 2.679828 1_566
O30 V6 1.648871 1_555
O30 Tl2 2.679828 1_555
O31 V7 1.648871 1_555
O31 Tl3 2.679828 1_544
