# generated using pymatgen
data_Ho3Si2(SnRh3)3
_symmetry_space_group_name_H-M   'P 1'
_cell_length_a   9.81887595
_cell_length_b   9.81887595
_cell_length_c   3.50368300
_cell_angle_alpha   90.00000000
_cell_angle_beta   90.00000000
_cell_angle_gamma   119.99999969
_symmetry_Int_Tables_number   1
_chemical_formula_structural   Ho3Si2(SnRh3)3
_chemical_formula_sum   'Ho3 Si2 Sn3 Rh9'
_cell_volume   292.53577579
_cell_formula_units_Z   1
loop_
 _symmetry_equiv_pos_site_id
 _symmetry_equiv_pos_as_xyz
  1  'x, y, z'
loop_
 _atom_site_type_symbol
 _atom_site_label
 _atom_site_symmetry_multiplicity
 _atom_site_fract_x
 _atom_site_fract_y
 _atom_site_fract_z
 _atom_site_occupancy
  Ho  Ho0  1  0.40008200  0.00000000  0.50000000  1
  Ho  Ho1  1  0.00000000  0.40008200  0.50000000  1
  Ho  Ho2  1  0.59991800  0.59991800  0.50000000  1
  Si  Si0  1  0.33333300  0.66666700  0.50000000  1
  Si  Si1  1  0.66666700  0.33333300  0.50000000  1
  Sn  Sn0  1  0.76061400  0.00000000  0.50000000  1
  Sn  Sn1  1  0.00000000  0.76061400  0.50000000  1
  Sn  Sn2  1  0.23938600  0.23938600  0.50000000  1
  Rh  Rh0  1  0.81591900  0.51732800  0.00000000  1
  Rh  Rh1  1  0.48267200  0.29859200  0.00000000  1
  Rh  Rh2  1  0.70140800  0.18408100  0.00000000  1
  Rh  Rh3  1  0.29859200  0.48267200  0.00000000  1
  Rh  Rh4  1  0.18408100  0.70140800  0.00000000  1
  Rh  Rh5  1  0.51732800  0.81591900  0.00000000  1
  Rh  Rh6  1  0.16545600  0.00000000  0.00000000  1
  Rh  Rh7  1  0.00000000  0.16545600  0.00000000  1
  Rh  Rh8  1  0.83454400  0.83454400  0.00000000  1
loop_
_geom_bond_atom_site_label_1
_geom_bond_atom_site_label_2
_geom_bond_distance
_geom_bond_site_symmetry_2
Ho0 Rh6 2.894180 1_555
Ho0 Rh6 2.894180 1_556
Ho0 Si0 2.999448 1_545
Ho0 Si1 2.999452 1_555
Ho0 Rh2 3.121213 1_555
Ho0 Rh2 3.121213 1_556
Ho0 Rh5 3.121219 1_545
Ho0 Rh5 3.121219 1_546
Ho0 Rh4 3.153520 1_546
Ho0 Rh4 3.153520 1_545
Ho0 Rh1 3.153522 1_555
Ho0 Rh1 3.153522 1_556
Ho1 Rh7 2.894180 1_556
Ho1 Rh7 2.894180 1_555
Ho1 Si1 2.999448 1_455
Ho1 Si0 2.999452 1_555
Ho1 Rh4 3.121213 1_556
Ho1 Rh4 3.121213 1_555
Ho1 Rh0 3.121219 1_456
Ho1 Rh0 3.121219 1_455
Ho1 Rh2 3.153520 1_456
Ho1 Rh2 3.153520 1_455
Ho1 Rh3 3.153522 1_556
Ho1 Rh3 3.153522 1_555
Ho2 Rh8 2.894180 1_556
Ho2 Rh8 2.894180 1_555
Ho2 Si1 2.999458 1_555
Ho2 Si0 2.999458 1_555
Ho2 Rh3 3.121212 1_556
Ho2 Rh3 3.121212 1_555
Ho2 Rh1 3.121212 1_556
Ho2 Rh1 3.121212 1_555
Ho2 Rh5 3.153514 1_556
Ho2 Rh0 3.153514 1_556
Ho2 Rh5 3.153514 1_555
Ho2 Rh0 3.153514 1_555
Rh0 Si1 2.415141 1_554
Rh0 Si1 2.415141 1_555
Rh0 Sn1 2.779309 1_655
Rh0 Sn1 2.779309 1_654
Rh1 Si1 2.415146 1_555
Rh1 Si1 2.415146 1_554
Rh1 Sn2 2.779307 1_555
Rh1 Sn2 2.779307 1_554
Rh2 Si1 2.415132 1_555
Rh2 Si1 2.415132 1_554
Rh2 Sn0 2.779315 1_555
Rh2 Sn0 2.779315 1_554
Rh3 Si0 2.415146 1_554
Rh3 Si0 2.415146 1_555
Rh3 Sn2 2.779307 1_555
Rh3 Sn2 2.779307 1_554
Rh4 Si0 2.415132 1_554
Rh4 Si0 2.415132 1_555
Rh4 Sn1 2.779315 1_555
Rh4 Sn1 2.779315 1_554
Rh5 Si0 2.415141 1_555
Rh5 Si0 2.415141 1_554
Rh5 Sn0 2.779309 1_564
Rh5 Sn0 2.779309 1_565
Rh6 Sn2 2.722958 1_554
Rh6 Sn2 2.722958 1_555
Rh6 Sn1 2.722958 1_545
Rh6 Sn1 2.722958 1_544
Rh7 Sn2 2.722958 1_554
Rh7 Sn2 2.722958 1_555
Rh7 Sn0 2.722958 1_455
Rh7 Sn0 2.722958 1_454
Rh8 Sn0 2.722958 1_564
Rh8 Sn0 2.722958 1_565
Rh8 Sn1 2.722958 1_655
Rh8 Sn1 2.722958 1_654
