# generated using pymatgen
data_Tb2Mn3Al
_symmetry_space_group_name_H-M   'P 1'
_cell_length_a   5.44827048
_cell_length_b   5.33590804
_cell_length_c   5.44827048
_cell_angle_alpha   90.00000000
_cell_angle_beta   60.00000000
_cell_angle_gamma   120.69906563
_symmetry_Int_Tables_number   1
_chemical_formula_structural   Tb2Mn3Al
_chemical_formula_sum   'Tb2 Mn3 Al1'
_cell_volume   110.80006090
_cell_formula_units_Z   1
loop_
 _symmetry_equiv_pos_site_id
 _symmetry_equiv_pos_as_xyz
  1  'x, y, z'
loop_
 _atom_site_type_symbol
 _atom_site_label
 _atom_site_symmetry_multiplicity
 _atom_site_fract_x
 _atom_site_fract_y
 _atom_site_fract_z
 _atom_site_occupancy
  Tb  Tb0  1  0.74763400  0.37145000  0.37618300  1
  Tb  Tb1  1  0.25236600  0.62855000  0.62381700  1
  Mn  Mn0  1  0.50000000  0.00000000  0.00000000  1
  Mn  Mn1  1  0.00000000  0.00000000  0.50000000  1
  Mn  Mn2  1  0.00000000  0.00000000  0.00000000  1
  Al  Al0  1  0.50000000  0.50000000  0.00000000  1
loop_
_geom_bond_atom_site_label_1
_geom_bond_atom_site_label_2
_geom_bond_distance
_geom_bond_site_symmetry_2
Tb0 Tb1 3.202008 1_545
Tb0 Tb1 3.335042 1_655
Tb0 Tb1 3.335042 1_654
Tb0 Tb1 3.335050 1_555
Mn0 Mn2 2.724135 1_655
Mn0 Mn1 2.724135 1_555
Mn0 Mn2 2.724135 1_555
Mn0 Mn1 2.724135 1_654
Mn0 Tb0 3.132584 1_445
Mn0 Tb1 3.132584 1_654
Mn0 Tb1 3.159767 1_545
Mn0 Tb0 3.159767 1_554
Mn0 Tb1 3.159767 1_544
Mn0 Tb0 3.159767 1_555
Mn1 Mn2 2.724135 1_555
Mn1 Mn2 2.724135 1_556
Mn1 Tb0 3.132586 1_445
Mn1 Tb1 3.132586 1_555
Mn1 Tb1 3.159764 1_545
Mn1 Tb0 3.159764 1_455
Mn1 Tb1 3.159769 1_445
Mn1 Tb0 3.159769 1_555
Mn2 Tb0 3.132586 1_445
Mn2 Tb1 3.132586 1_554
Mn2 Tb1 3.159764 1_544
Mn2 Tb0 3.159764 1_455
Mn2 Tb0 3.159769 1_554
Mn2 Tb1 3.159769 1_445
Al0 Mn2 2.667954 1_555
Al0 Mn2 2.667954 1_665
Al0 Mn0 2.667954 1_565
Al0 Mn1 2.667954 1_664
Al0 Mn0 2.667954 1_555
Al0 Mn1 2.667954 1_555
Al0 Tb1 3.193982 1_654
Al0 Tb0 3.193982 1_455
Al0 Tb0 3.193987 1_555
Al0 Tb0 3.193987 1_554
Al0 Tb1 3.193987 1_555
Al0 Tb1 3.193987 1_554
