# generated using pymatgen
data_PrCrO3
_symmetry_space_group_name_H-M   'P 1'
_cell_length_a   5.46700644
_cell_length_b   5.52184358
_cell_length_c   7.75249120
_cell_angle_alpha   90.00000000
_cell_angle_beta   90.00000000
_cell_angle_gamma   90.00000000
_symmetry_Int_Tables_number   1
_chemical_formula_structural   PrCrO3
_chemical_formula_sum   'Pr4 Cr4 O12'
_cell_volume   234.03185093
_cell_formula_units_Z   4
loop_
 _symmetry_equiv_pos_site_id
 _symmetry_equiv_pos_as_xyz
  1  'x, y, z'
loop_
 _atom_site_type_symbol
 _atom_site_label
 _atom_site_symmetry_multiplicity
 _atom_site_fract_x
 _atom_site_fract_y
 _atom_site_fract_z
 _atom_site_occupancy
  Pr  Pr0  1  0.50898854  0.54157774  0.25000000  1
  Pr  Pr1  1  0.99101146  0.04157774  0.25000000  1
  Pr  Pr2  1  0.49101146  0.45842226  0.75000000  1
  Pr  Pr3  1  0.00898854  0.95842226  0.75000000  1
  Cr  Cr0  1  -0.00000000  0.50000000  0.00000000  1
  Cr  Cr1  1  0.50000000  0.00000000  0.50000000  1
  Cr  Cr2  1  -0.00000000  0.50000000  0.50000000  1
  Cr  Cr3  1  0.50000000  0.00000000  0.00000000  1
  O  O0  1  0.42242458  0.98398889  0.25000000  1
  O  O1  1  0.07757542  0.48398889  0.25000000  1
  O  O2  1  0.57757542  0.01601111  0.75000000  1
  O  O3  1  0.92242458  0.51601111  0.75000000  1
  O  O4  1  0.78768809  0.78743883  0.04143481  1
  O  O5  1  0.71231191  0.28743883  0.45856519  1
  O  O6  1  0.21231191  0.21256117  0.54143481  1
  O  O7  1  0.28768809  0.71256117  0.95856519  1
  O  O8  1  0.21231191  0.21256117  0.95856519  1
  O  O9  1  0.28768809  0.71256117  0.54143481  1
  O  O10  1  0.78768809  0.78743883  0.45856519  1
  O  O11  1  0.71231191  0.28743883  0.04143481  1
loop_
_geom_bond_atom_site_label_1
_geom_bond_atom_site_label_2
_geom_bond_distance
_geom_bond_site_symmetry_2
Cr0 O3 1.985951 1_454
Cr0 O1 1.985951 1_555
Cr0 O7 1.988593 1_554
Cr0 O11 1.988593 1_455
Cr0 O4 1.992389 1_455
Cr0 O8 1.992389 1_554
Cr1 O0 1.985951 1_545
Cr1 O2 1.985951 1_555
Cr1 O10 1.988593 1_545
Cr1 O6 1.988593 1_555
Cr1 O5 1.992389 1_555
Cr1 O9 1.992389 1_545
Cr2 O1 1.985951 1_555
Cr2 O3 1.985951 1_455
Cr2 O5 1.988593 1_455
Cr2 O9 1.988593 1_555
Cr2 O10 1.992389 1_455
Cr2 O6 1.992389 1_555
Cr3 O2 1.985951 1_554
Cr3 O0 1.985951 1_545
Cr3 O8 1.988593 1_554
Cr3 O4 1.988593 1_545
Cr3 O11 1.992389 1_555
Cr3 O7 1.992389 1_544
O0 Pr1 2.379879 1_465
O0 Pr0 2.488342 1_555
O1 Pr0 2.379879 1_555
O1 Pr1 2.488342 1_455
O2 Pr3 2.379879 1_645
O2 Pr2 2.488342 1_555
O3 Pr2 2.379879 1_555
O3 Pr3 2.488342 1_655
O4 Pr1 2.412312 1_565
O4 Pr0 2.603647 1_555
O4 Pr3 2.731262 1_654
O5 Pr0 2.412312 1_555
O5 Pr1 2.603647 1_555
O5 Pr2 2.731262 1_555
O6 Pr3 2.412312 1_545
O6 Pr2 2.603647 1_555
O6 Pr1 2.731262 1_455
O7 Pr2 2.412312 1_555
O7 Pr3 2.603647 1_555
O7 Pr0 2.731262 1_556
O8 Pr3 2.412312 1_545
O8 Pr2 2.603647 1_555
O8 Pr1 2.731262 1_456
O9 Pr2 2.412312 1_555
O9 Pr3 2.603647 1_555
O9 Pr0 2.731262 1_555
O10 Pr1 2.412312 1_565
O10 Pr0 2.603647 1_555
O10 Pr3 2.731262 1_655
O11 Pr0 2.412312 1_555
O11 Pr1 2.603647 1_555
O11 Pr2 2.731262 1_554
