# generated using pymatgen
data_MgSi2
_symmetry_space_group_name_H-M   'P 1'
_cell_length_a   6.59153200
_cell_length_b   6.61381213
_cell_length_c   10.79012832
_cell_angle_alpha   91.36846707
_cell_angle_beta   96.16120301
_cell_angle_gamma   89.95399920
_symmetry_Int_Tables_number   1
_chemical_formula_structural   MgSi2
_chemical_formula_sum   'Mg8 Si16'
_cell_volume   467.54610857
_cell_formula_units_Z   8
loop_
 _symmetry_equiv_pos_site_id
 _symmetry_equiv_pos_as_xyz
  1  'x, y, z'
loop_
 _atom_site_type_symbol
 _atom_site_label
 _atom_site_symmetry_multiplicity
 _atom_site_fract_x
 _atom_site_fract_y
 _atom_site_fract_z
 _atom_site_occupancy
  Mg  Mg0  1  0.74773000  0.93911000  0.07023800  1
  Mg  Mg1  1  0.32300100  0.08935700  0.68527700  1
  Mg  Mg2  1  0.64164000  0.39334800  0.54139400  1
  Mg  Mg3  1  0.07783600  0.41644500  0.92230200  1
  Mg  Mg4  1  0.28486000  0.53503900  0.36086300  1
  Mg  Mg5  1  0.68242500  0.67514700  0.79429900  1
  Mg  Mg6  1  0.19099100  0.05380500  0.09486900  1
  Mg  Mg7  1  0.82435300  0.00021600  0.60951000  1
  Si  Si0  1  0.92192100  0.33036300  0.16912900  1
  Si  Si1  1  0.69102200  0.26737700  0.79128900  1
  Si  Si2  1  0.95431200  0.83272000  0.35938600  1
  Si  Si3  1  0.40033900  0.82709100  0.92883800  1
  Si  Si4  1  0.08265500  0.16871300  0.35164800  1
  Si  Si5  1  0.44776800  0.19490600  0.93423000  1
  Si  Si6  1  0.04525700  0.67100600  0.16039700  1
  Si  Si7  1  0.48204000  0.76561600  0.55232100  1
  Si  Si8  1  0.58292500  0.84301400  0.34533900  1
  Si  Si9  1  0.10336100  0.75148000  0.77786000  1
  Si  Si10  1  0.55300900  0.33960500  0.13966300  1
  Si  Si11  1  0.05551500  0.32861000  0.54941600  1
  Si  Si12  1  0.42384500  0.68481300  0.14303800  1
  Si  Si13  1  0.11296600  0.69078600  0.55725600  1
  Si  Si14  1  0.45444000  0.17586800  0.32307100  1
  Si  Si15  1  0.93552900  0.02530600  0.86933800  1
loop_
_geom_bond_atom_site_label_1
_geom_bond_atom_site_label_2
_geom_bond_distance
_geom_bond_site_symmetry_2
Mg0 Si15 2.681901 1_564
Mg0 Si3 2.705346 1_554
Mg0 Si6 2.757538 1_655
Mg0 Si5 2.900958 1_564
Mg0 Si12 2.903855 1_555
Mg0 Si0 2.960215 1_565
Mg0 Si10 3.054642 1_565
Mg1 Si11 2.704278 1_555
Mg1 Si5 2.795832 1_555
Mg1 Si7 2.813208 1_545
Mg1 Si1 2.814953 1_555
Mg1 Si9 2.917180 1_545
Mg1 Si3 3.178686 1_545
Mg1 Si13 3.192990 1_545
Mg2 Si7 2.681643 1_555
Mg2 Si11 2.753614 1_655
Mg2 Si1 2.826504 1_555
Mg2 Si14 2.891027 1_555
Mg3 Si9 2.754859 1_555
Mg3 Si15 2.777922 1_455
Mg3 Si5 2.836409 1_555
Mg3 Si1 2.938562 1_455
Mg3 Si0 3.022313 1_456
Mg3 Si6 3.064651 1_556
Mg4 Si14 2.665709 1_555
Mg4 Si13 2.691602 1_555
Mg4 Si6 2.709086 1_555
Mg4 Si7 2.749362 1_555
Mg4 Si4 2.760724 1_555
Mg4 Si12 2.814174 1_555
Mg4 Si8 2.851386 1_555
Mg4 Si2 2.934426 1_455
Mg4 Si11 3.014093 1_555
Mg5 Si3 2.661072 1_555
Mg5 Si1 2.696957 1_555
Mg5 Si9 2.845520 1_655
Mg5 Si7 2.872788 1_555
Mg5 Si15 2.903267 1_565
Mg6 Si0 2.713502 1_455
Mg6 Si5 2.729385 1_554
Mg6 Si3 2.785857 1_544
Mg6 Si15 2.809265 1_454
Mg6 Si6 2.840372 1_545
Mg6 Si12 2.909475 1_545
Mg6 Si14 2.952933 1_555
Mg6 Si4 3.014535 1_555
Mg6 Si10 3.035920 1_555
Mg7 Si7 2.745989 1_545
Mg7 Si11 2.782825 1_655
Mg7 Si1 2.818450 1_555
Mg7 Si15 2.821626 1_555
Mg7 Si13 2.879952 1_645
Mg7 Si9 2.968013 1_645
Mg7 Si2 3.097876 1_545
Si0 Si6 2.403144 1_655
Si0 Si4 2.407269 1_655
Si0 Si10 2.419235 1_555
Si1 Si15 2.374633 1_555
Si1 Si5 2.397273 1_555
Si2 Si4 2.384919 1_665
Si2 Si8 2.437404 1_555
Si2 Si6 2.505787 1_655
Si3 Si5 2.451430 1_565
Si3 Si9 2.452357 1_555
Si7 Si8 2.462945 1_555
Si10 Si5 2.424932 1_554
Si10 Si14 2.427093 1_555
Si10 Si12 2.436900 1_555
Si11 Si4 2.382841 1_555
Si11 Si13 2.423475 1_555
Si12 Si3 2.505618 1_554
Si12 Si8 2.522002 1_555
Si12 Si6 2.524348 1_555
Si13 Si9 2.412024 1_555
Si13 Si2 2.479544 1_455
Si13 Si7 2.489399 1_555
Si14 Si8 2.366410 1_545
Si14 Si4 2.503199 1_555
Si15 Si9 2.371445 1_645
