# generated using pymatgen
data_KLi2FeO3
_symmetry_space_group_name_H-M   'P 1'
_cell_length_a   5.49907231
_cell_length_b   5.49909008
_cell_length_c   6.12543500
_cell_angle_alpha   89.99993336
_cell_angle_beta   89.99995880
_cell_angle_gamma   106.83632181
_symmetry_Int_Tables_number   1
_chemical_formula_structural   KLi2FeO3
_chemical_formula_sum   'K2 Li4 Fe2 O6'
_cell_volume   177.29271357
_cell_formula_units_Z   2
loop_
 _symmetry_equiv_pos_site_id
 _symmetry_equiv_pos_as_xyz
  1  'x, y, z'
loop_
 _atom_site_type_symbol
 _atom_site_label
 _atom_site_symmetry_multiplicity
 _atom_site_fract_x
 _atom_site_fract_y
 _atom_site_fract_z
 _atom_site_occupancy
  K  K0  1  0.67508600  0.67508500  0.75000000  1
  K  K1  1  0.32493700  0.32494300  0.25000100  1
  Li  Li0  1  0.76782300  0.23221700  0.50000300  1
  Li  Li1  1  0.76782400  0.23221700  0.99999700  1
  Li  Li2  1  0.23221900  0.76782500  0.50000400  1
  Li  Li3  1  0.23221800  0.76782600  0.99999600  1
  Fe  Fe0  1  0.81815000  0.81814600  0.25000000  1
  Fe  Fe1  1  0.18172200  0.18172300  0.75000000  1
  O  O0  1  0.00000000  0.00000000  0.00002200  1
  O  O1  1  0.00000000  0.00000000  0.49997700  1
  O  O2  1  0.48391600  0.83973300  0.25000100  1
  O  O3  1  0.83973300  0.48391200  0.25000000  1
  O  O4  1  0.51607700  0.16029600  0.75000000  1
  O  O5  1  0.16029600  0.51607700  0.75000000  1
loop_
_geom_bond_atom_site_label_1
_geom_bond_atom_site_label_2
_geom_bond_distance
_geom_bond_site_symmetry_2
K0 O1 2.623168 1_665
K0 O0 2.623168 1_666
K0 O5 2.710073 1_555
K0 O4 2.710076 1_555
K0 O5 3.038978 1_655
K0 O4 3.038993 1_565
K1 O1 2.623135 1_555
K1 O0 2.623150 1_555
K1 O2 2.710078 1_555
K1 O3 2.710100 1_555
K1 O3 3.038830 1_455
K1 O2 3.038899 1_545
Li0 O3 2.024881 1_555
Li0 O4 2.025027 1_555
Li0 O1 2.050670 1_655
Li1 O3 2.024884 1_556
Li1 O4 2.025032 1_555
Li1 O0 2.050665 1_656
Li2 O2 2.024886 1_555
Li2 O5 2.025031 1_555
Li2 O1 2.050670 1_565
Li3 O2 2.024901 1_556
Li3 O5 2.025038 1_555
Li3 O0 2.050661 1_566
Fe0 O3 1.875802 1_555
Fe0 O2 1.875804 1_555
Fe0 O1 1.940467 1_665
Fe0 O0 1.940468 1_665
Fe1 O5 1.876161 1_555
Fe1 O4 1.876163 1_555
Fe1 O0 1.940160 1_556
Fe1 O1 1.940168 1_555
