# generated using pymatgen
data_KRbMg6O7
_symmetry_space_group_name_H-M   'P 1'
_cell_length_a   4.29360600
_cell_length_b   4.29360600
_cell_length_c   11.39932300
_cell_angle_alpha   90.00000000
_cell_angle_beta   90.00000000
_cell_angle_gamma   90.00000000
_symmetry_Int_Tables_number   1
_chemical_formula_structural   KRbMg6O7
_chemical_formula_sum   'K1 Rb1 Mg6 O7'
_cell_volume   210.14711778
_cell_formula_units_Z   1
loop_
 _symmetry_equiv_pos_site_id
 _symmetry_equiv_pos_as_xyz
  1  'x, y, z'
loop_
 _atom_site_type_symbol
 _atom_site_label
 _atom_site_symmetry_multiplicity
 _atom_site_fract_x
 _atom_site_fract_y
 _atom_site_fract_z
 _atom_site_occupancy
  K  K0  1  0.00000000  0.00000000  0.00068000  1
  Rb  Rb0  1  0.50000000  0.50000000  0.97591300  1
  Mg  Mg0  1  0.00000000  0.00000000  0.48415300  1
  Mg  Mg1  1  0.50000000  0.50000000  0.50253200  1
  Mg  Mg2  1  0.00000000  0.50000000  0.26908200  1
  Mg  Mg3  1  0.00000000  0.50000000  0.67799700  1
  Mg  Mg4  1  0.50000000  0.00000000  0.26908200  1
  Mg  Mg5  1  0.50000000  0.00000000  0.67799700  1
  O  O0  1  0.00000000  0.00000000  0.30882000  1
  O  O1  1  0.00000000  0.00000000  0.69348500  1
  O  O2  1  0.50000000  0.50000000  0.68791300  1
  O  O3  1  0.00000000  0.50000000  0.10511500  1
  O  O4  1  0.00000000  0.50000000  0.49605700  1
  O  O5  1  0.50000000  0.00000000  0.10511500  1
  O  O6  1  0.50000000  0.00000000  0.49605700  1
loop_
_geom_bond_atom_site_label_1
_geom_bond_atom_site_label_2
_geom_bond_distance
_geom_bond_site_symmetry_2
K0 O5 2.454796 1_455
K0 O3 2.454796 1_555
K0 O5 2.454796 1_555
K0 O3 2.454796 1_545
Mg0 O0 1.998677 1_555
Mg0 O6 2.151087 1_555
Mg0 O4 2.151087 1_555
Mg0 O6 2.151087 1_455
Mg0 O4 2.151087 1_545
Mg0 O1 2.386243 1_555
Mg1 O2 2.113218 1_555
Mg1 O4 2.148071 1_655
Mg1 O6 2.148071 1_555
Mg1 O6 2.148071 1_565
Mg1 O4 2.148071 1_555
Mg2 O3 1.869113 1_555
Mg2 O0 2.194074 1_555
Mg2 O0 2.194074 1_565
Mg2 O4 2.587361 1_555
Mg3 O4 2.073993 1_555
Mg3 O2 2.149777 1_455
Mg3 O2 2.149777 1_555
Mg3 O1 2.154051 1_555
Mg3 O1 2.154051 1_565
Mg4 O5 1.869113 1_555
Mg4 O0 2.194074 1_555
Mg4 O0 2.194074 1_655
Mg4 O6 2.587361 1_555
Mg5 O6 2.073993 1_555
Mg5 O2 2.149777 1_545
Mg5 O2 2.149777 1_555
Mg5 O1 2.154051 1_555
Mg5 O1 2.154051 1_655
O2 Rb0 3.283005 1_555
O3 Rb0 2.603449 1_554
O3 Rb0 2.603449 1_454
O5 Rb0 2.603449 1_554
O5 Rb0 2.603449 1_544
