# generated using pymatgen
data_Nb4Cr7Si8
_symmetry_space_group_name_H-M   'P 1'
_cell_length_a   4.85997200
_cell_length_b   13.23112700
_cell_length_c   15.91697200
_cell_angle_alpha   90.00000000
_cell_angle_beta   90.00000000
_cell_angle_gamma   90.00000000
_symmetry_Int_Tables_number   1
_chemical_formula_structural   Nb4Cr7Si8
_chemical_formula_sum   'Nb16 Cr28 Si32'
_cell_volume   1023.50756623
_cell_formula_units_Z   4
loop_
 _symmetry_equiv_pos_site_id
 _symmetry_equiv_pos_as_xyz
  1  'x, y, z'
loop_
 _atom_site_type_symbol
 _atom_site_label
 _atom_site_symmetry_multiplicity
 _atom_site_fract_x
 _atom_site_fract_y
 _atom_site_fract_z
 _atom_site_occupancy
  Nb  Nb0  1  0.25000000  0.86678900  0.45763400  1
  Nb  Nb1  1  0.25000000  0.36678900  0.04236600  1
  Nb  Nb2  1  0.75000000  0.13321100  0.54236600  1
  Nb  Nb3  1  0.75000000  0.63321100  0.95763400  1
  Nb  Nb4  1  0.25000000  0.75069300  0.02670200  1
  Nb  Nb5  1  0.25000000  0.25069300  0.47329800  1
  Nb  Nb6  1  0.75000000  0.24930700  0.97329800  1
  Nb  Nb7  1  0.75000000  0.74930700  0.52670200  1
  Nb  Nb8  1  0.25000000  0.56790200  0.30158900  1
  Nb  Nb9  1  0.25000000  0.06790200  0.19841100  1
  Nb  Nb10  1  0.75000000  0.43209800  0.69841100  1
  Nb  Nb11  1  0.75000000  0.93209800  0.80158900  1
  Nb  Nb12  1  0.25000000  0.95811700  0.90790500  1
  Nb  Nb13  1  0.25000000  0.45811700  0.59209500  1
  Nb  Nb14  1  0.75000000  0.04188300  0.09209500  1
  Nb  Nb15  1  0.75000000  0.54188300  0.40790500  1
  Cr  Cr0  1  0.00771700  0.56129500  0.12121900  1
  Cr  Cr1  1  0.49228300  0.06129500  0.37878100  1
  Cr  Cr2  1  0.50771700  0.43870500  0.87878100  1
  Cr  Cr3  1  0.99228300  0.93870500  0.62121900  1
  Cr  Cr4  1  0.99228300  0.43870500  0.87878100  1
  Cr  Cr5  1  0.50771700  0.93870500  0.62121900  1
  Cr  Cr6  1  0.49228300  0.56129500  0.12121900  1
  Cr  Cr7  1  0.00771700  0.06129500  0.37878100  1
  Cr  Cr8  1  0.25000000  0.81098700  0.75050500  1
  Cr  Cr9  1  0.25000000  0.31098700  0.74949500  1
  Cr  Cr10  1  0.75000000  0.18901300  0.24949500  1
  Cr  Cr11  1  0.75000000  0.68901300  0.25050500  1
  Cr  Cr12  1  0.99141500  0.86341300  0.17639400  1
  Cr  Cr13  1  0.50858500  0.36341300  0.32360600  1
  Cr  Cr14  1  0.49141500  0.13658700  0.82360600  1
  Cr  Cr15  1  0.00858500  0.63658700  0.67639400  1
  Cr  Cr16  1  0.00858500  0.13658700  0.82360600  1
  Cr  Cr17  1  0.49141500  0.63658700  0.67639400  1
  Cr  Cr18  1  0.50858500  0.86341300  0.17639400  1
  Cr  Cr19  1  0.99141500  0.36341300  0.32360600  1
  Cr  Cr20  1  0.25000000  0.63580700  0.84463000  1
  Cr  Cr21  1  0.25000000  0.13580700  0.65537000  1
  Cr  Cr22  1  0.75000000  0.36419300  0.15537000  1
  Cr  Cr23  1  0.75000000  0.86419300  0.34463000  1
  Cr  Cr24  1  0.25000000  0.62667900  0.50379100  1
  Cr  Cr25  1  0.25000000  0.12667900  0.99620900  1
  Cr  Cr26  1  0.75000000  0.37332100  0.49620900  1
  Cr  Cr27  1  0.75000000  0.87332100  0.00379100  1
  Si  Si0  1  0.25000000  0.91320400  0.30200400  1
  Si  Si1  1  0.25000000  0.41320400  0.19799600  1
  Si  Si2  1  0.75000000  0.08679600  0.69799600  1
  Si  Si3  1  0.75000000  0.58679600  0.80200400  1
  Si  Si4  1  0.25000000  0.94903000  0.06657400  1
  Si  Si5  1  0.25000000  0.44903000  0.43342600  1
  Si  Si6  1  0.75000000  0.05097000  0.93342600  1
  Si  Si7  1  0.75000000  0.55097000  0.56657400  1
  Si  Si8  1  0.25000000  0.55019700  0.98193000  1
  Si  Si9  1  0.25000000  0.05019700  0.51807000  1
  Si  Si10  1  0.75000000  0.44980300  0.01807000  1
  Si  Si11  1  0.75000000  0.94980300  0.48193000  1
  Si  Si12  1  0.00215100  0.71582500  0.38084300  1
  Si  Si13  1  0.49784900  0.21582500  0.11915700  1
  Si  Si14  1  0.50215100  0.28417500  0.61915700  1
  Si  Si15  1  0.99784900  0.78417500  0.88084300  1
  Si  Si16  1  0.99784900  0.28417500  0.61915700  1
  Si  Si17  1  0.50215100  0.78417500  0.88084300  1
  Si  Si18  1  0.49784900  0.71582500  0.38084300  1
  Si  Si19  1  0.00215100  0.21582500  0.11915700  1
  Si  Si20  1  0.25000000  0.99690800  0.74782600  1
  Si  Si21  1  0.25000000  0.49690800  0.75217400  1
  Si  Si22  1  0.75000000  0.00309200  0.25217400  1
  Si  Si23  1  0.75000000  0.50309200  0.24782600  1
  Si  Si24  1  0.25000000  0.70892900  0.19287000  1
  Si  Si25  1  0.25000000  0.20892900  0.30713000  1
  Si  Si26  1  0.75000000  0.29107100  0.80713000  1
  Si  Si27  1  0.75000000  0.79107100  0.69287000  1
  Si  Si28  1  0.25000000  0.77375300  0.60261600  1
  Si  Si29  1  0.25000000  0.27375300  0.89738400  1
  Si  Si30  1  0.75000000  0.22624700  0.39738400  1
  Si  Si31  1  0.75000000  0.72624700  0.10261600  1
loop_
_geom_bond_atom_site_label_1
_geom_bond_atom_site_label_2
_geom_bond_distance
_geom_bond_site_symmetry_2
Nb0 Si0 2.552148 1_555
Nb0 Si9 2.610404 1_565
Nb0 Si28 2.615464 1_555
Nb0 Si18 2.633360 1_555
Nb0 Si12 2.633360 1_555
Nb0 Si11 2.694587 1_455
Nb0 Si11 2.694587 1_555
Nb1 Si1 2.552148 1_555
Nb1 Si8 2.610404 1_554
Nb1 Si29 2.615464 1_554
Nb1 Si13 2.633360 1_555
Nb1 Si19 2.633360 1_555
Nb1 Si10 2.694587 1_455
Nb1 Si10 2.694587 1_555
Nb2 Si2 2.552148 1_555
Nb2 Si11 2.610404 1_545
Nb2 Si30 2.615464 1_555
Nb2 Si14 2.633360 1_555
Nb2 Si16 2.633360 1_555
Nb2 Si9 2.694587 1_555
Nb2 Si9 2.694587 1_655
Nb3 Si3 2.552148 1_555
Nb3 Si10 2.610404 1_556
Nb3 Si31 2.615464 1_556
Nb3 Si17 2.633360 1_555
Nb3 Si15 2.633360 1_555
Nb3 Si8 2.694587 1_555
Nb3 Si8 2.694587 1_655
Nb4 Si17 2.662321 1_554
Nb4 Si15 2.662321 1_454
Nb4 Si4 2.699872 1_555
Nb4 Si24 2.701999 1_555
Nb4 Si31 2.733037 1_455
Nb4 Si31 2.733037 1_555
Nb4 Si8 2.746840 1_554
Nb5 Si16 2.662321 1_455
Nb5 Si14 2.662321 1_555
Nb5 Si5 2.699872 1_555
Nb5 Si25 2.701999 1_555
Nb5 Si30 2.733037 1_455
Nb5 Si30 2.733037 1_555
Nb5 Si9 2.746840 1_555
Nb6 Si19 2.662321 1_656
Nb6 Si13 2.662321 1_556
Nb6 Si6 2.699872 1_555
Nb6 Si26 2.701999 1_555
Nb6 Si29 2.733037 1_655
Nb6 Si29 2.733037 1_555
Nb6 Si10 2.746840 1_556
Nb7 Si12 2.662321 1_655
Nb7 Si18 2.662321 1_555
Nb7 Si7 2.699872 1_555
Nb7 Si27 2.701999 1_555
Nb7 Si28 2.733037 1_555
Nb7 Si28 2.733037 1_655
Nb7 Si11 2.746840 1_555
Nb8 Si24 2.544859 1_555
Nb8 Si18 2.621610 1_555
Nb8 Si12 2.621610 1_555
Nb8 Si5 2.622443 1_555
Nb8 Si1 2.628371 1_555
Nb8 Si23 2.715226 1_455
Nb8 Si23 2.715226 1_555
Nb9 Si25 2.544859 1_555
Nb9 Si13 2.621610 1_555
Nb9 Si19 2.621610 1_555
Nb9 Si4 2.622443 1_545
Nb9 Si0 2.628371 1_545
Nb9 Si22 2.715226 1_555
Nb9 Si22 2.715226 1_455
Nb10 Si26 2.544859 1_555
Nb10 Si16 2.621610 1_555
Nb10 Si14 2.621610 1_555
Nb10 Si7 2.622443 1_555
Nb10 Si3 2.628371 1_555
Nb10 Si21 2.715226 1_555
Nb10 Si21 2.715226 1_655
Nb11 Si27 2.544859 1_555
Nb11 Si17 2.621610 1_555
Nb11 Si15 2.621610 1_555
Nb11 Si6 2.622443 1_565
Nb11 Si2 2.628371 1_565
Nb11 Si20 2.715226 1_655
Nb11 Si20 2.715226 1_555
Nb12 Si4 2.528390 1_556
Nb12 Si20 2.599152 1_555
Nb12 Si17 2.642712 1_555
Nb12 Si15 2.642712 1_455
Nb12 Si6 2.753031 1_465
Nb12 Si6 2.753031 1_565
Nb13 Si5 2.528390 1_555
Nb13 Si21 2.599152 1_555
Nb13 Si16 2.642712 1_455
Nb13 Si14 2.642712 1_555
Nb13 Si7 2.753031 1_555
Nb13 Si7 2.753031 1_455
Nb14 Si6 2.528390 1_554
Nb14 Si22 2.599152 1_555
Nb14 Si19 2.642712 1_655
Nb14 Si13 2.642712 1_555
Nb14 Si4 2.753031 1_545
Nb14 Si4 2.753031 1_645
Nb15 Si7 2.528390 1_555
Nb15 Si23 2.599152 1_555
Nb15 Si12 2.642712 1_655
Nb15 Si18 2.642712 1_555
Nb15 Si5 2.753031 1_555
Nb15 Si5 2.753031 1_655
Cr0 Cr6 2.354977 1_555
Cr0 Si23 2.494558 1_455
Cr0 Cr6 2.504995 1_455
Cr0 Si8 2.514636 1_554
Cr0 Si31 2.533720 1_455
Cr0 Si10 2.537801 1_455
Cr0 Si24 2.550054 1_555
Cr0 Si1 2.592141 1_555
Cr1 Cr7 2.354977 1_555
Cr1 Si22 2.494558 1_555
Cr1 Cr7 2.504995 1_655
Cr1 Si9 2.514636 1_555
Cr1 Si30 2.533720 1_555
Cr1 Si11 2.537801 1_545
Cr1 Si25 2.550054 1_555
Cr1 Si0 2.592141 1_545
Cr2 Cr4 2.354977 1_555
Cr2 Si21 2.494558 1_555
Cr2 Cr4 2.504995 1_455
Cr2 Si10 2.514636 1_556
Cr2 Si29 2.533720 1_555
Cr2 Si8 2.537801 1_555
Cr2 Si26 2.550054 1_555
Cr2 Si3 2.592141 1_555
Cr3 Cr5 2.354977 1_555
Cr3 Si20 2.494558 1_655
Cr3 Cr5 2.504995 1_655
Cr3 Si11 2.514636 1_555
Cr3 Si28 2.533720 1_655
Cr3 Si9 2.537801 1_665
Cr3 Si27 2.550054 1_555
Cr3 Si2 2.592141 1_565
Cr4 Si21 2.494558 1_655
Cr4 Si10 2.514636 1_556
Cr4 Si29 2.533720 1_655
Cr4 Si8 2.537801 1_655
Cr4 Si26 2.550054 1_555
Cr4 Si3 2.592141 1_555
Cr5 Si20 2.494558 1_555
Cr5 Si11 2.514636 1_555
Cr5 Si28 2.533720 1_555
Cr5 Si9 2.537801 1_565
Cr5 Si27 2.550054 1_555
Cr5 Si2 2.592141 1_565
Cr6 Si23 2.494558 1_555
Cr6 Si8 2.514636 1_554
Cr6 Si31 2.533720 1_555
Cr6 Si10 2.537801 1_555
Cr6 Si24 2.550054 1_555
Cr6 Si1 2.592141 1_555
Cr7 Si22 2.494558 1_455
Cr7 Si9 2.514636 1_555
Cr7 Si30 2.533720 1_455
Cr7 Si11 2.537801 1_445
Cr7 Si25 2.550054 1_555
Cr7 Si0 2.592141 1_545
Cr8 Si28 2.404945 1_555
Cr8 Si17 2.435463 1_555
Cr8 Si15 2.435463 1_455
Cr8 Si20 2.460314 1_555
Cr8 Si27 2.610718 1_555
Cr8 Si27 2.610718 1_455
Cr9 Si29 2.404945 1_555
Cr9 Si16 2.435463 1_455
Cr9 Si14 2.435463 1_555
Cr9 Si21 2.460314 1_555
Cr9 Si26 2.610718 1_555
Cr9 Si26 2.610718 1_455
Cr10 Si30 2.404945 1_555
Cr10 Si19 2.435463 1_655
Cr10 Si13 2.435463 1_555
Cr10 Si22 2.460314 1_555
Cr10 Si25 2.610718 1_555
Cr10 Si25 2.610718 1_655
Cr10 Cr19 2.844762 1_555
Cr10 Cr13 2.844762 1_555
Cr11 Si31 2.404945 1_555
Cr11 Si12 2.435463 1_655
Cr11 Si18 2.435463 1_555
Cr11 Si23 2.460314 1_555
Cr11 Si24 2.610718 1_655
Cr11 Si24 2.610718 1_555
Cr11 Cr12 2.844762 1_555
Cr11 Cr18 2.844762 1_555
Cr12 Cr18 2.346540 1_555
Cr12 Si24 2.413718 1_655
Cr12 Si4 2.432715 1_655
Cr12 Si0 2.451666 1_655
Cr12 Si31 2.459536 1_555
Cr12 Si22 2.499393 1_565
Cr12 Cr18 2.513432 1_655
Cr12 Cr23 2.923581 1_555
Cr12 Nb14 2.958541 1_565
Cr12 Cr27 2.990234 1_555
Cr12 Nb9 3.003752 1_665
Cr12 Nb4 3.079064 1_655
Cr13 Cr19 2.346540 1_555
Cr13 Si25 2.413718 1_555
Cr13 Si5 2.432715 1_555
Cr13 Si1 2.451666 1_555
Cr13 Si30 2.459536 1_555
Cr13 Si23 2.499393 1_555
Cr13 Cr19 2.513432 1_455
Cr13 Cr22 2.923581 1_555
Cr13 Nb15 2.958541 1_555
Cr13 Cr26 2.990234 1_555
Cr13 Nb8 3.003752 1_555
Cr13 Nb5 3.079064 1_555
Cr14 Cr16 2.346540 1_555
Cr14 Si26 2.413718 1_555
Cr14 Si6 2.432715 1_555
Cr14 Si2 2.451666 1_555
Cr14 Si29 2.459536 1_555
Cr14 Si20 2.499393 1_545
Cr14 Cr16 2.513432 1_655
Cr14 Cr9 2.844762 1_555
Cr14 Cr21 2.923581 1_555
Cr14 Nb12 2.958541 1_545
Cr14 Cr25 2.990234 1_555
Cr14 Nb11 3.003752 1_545
Cr14 Nb6 3.079064 1_555
Cr15 Cr17 2.346540 1_555
Cr15 Si27 2.413718 1_455
Cr15 Si7 2.432715 1_455
Cr15 Si3 2.451666 1_455
Cr15 Si28 2.459536 1_555
Cr15 Si21 2.499393 1_555
Cr15 Cr17 2.513432 1_455
Cr15 Cr8 2.844762 1_555
Cr15 Cr20 2.923581 1_555
Cr15 Nb13 2.958541 1_555
Cr15 Cr24 2.990234 1_555
Cr15 Nb10 3.003752 1_455
Cr15 Nb7 3.079064 1_455
Cr16 Si26 2.413718 1_455
Cr16 Si6 2.432715 1_455
Cr16 Si2 2.451666 1_455
Cr16 Si29 2.459536 1_555
Cr16 Si20 2.499393 1_545
Cr16 Cr9 2.844762 1_555
Cr16 Cr21 2.923581 1_555
Cr16 Nb12 2.958541 1_545
Cr16 Cr25 2.990234 1_555
Cr16 Nb11 3.003752 1_445
Cr16 Nb6 3.079064 1_455
Cr17 Si27 2.413718 1_555
Cr17 Si7 2.432715 1_555
Cr17 Si3 2.451666 1_555
Cr17 Si28 2.459536 1_555
Cr17 Si21 2.499393 1_555
Cr17 Cr8 2.844762 1_555
Cr17 Cr20 2.923581 1_555
Cr17 Nb13 2.958541 1_555
Cr17 Cr24 2.990234 1_555
Cr17 Nb10 3.003752 1_555
Cr17 Nb7 3.079064 1_555
Cr18 Si24 2.413718 1_555
Cr18 Si4 2.432715 1_555
Cr18 Si0 2.451666 1_555
Cr18 Si31 2.459536 1_555
Cr18 Si22 2.499393 1_565
Cr18 Cr23 2.923581 1_555
Cr18 Nb14 2.958541 1_565
Cr18 Cr27 2.990234 1_555
Cr18 Nb9 3.003752 1_565
Cr18 Nb4 3.079064 1_555
Cr19 Si25 2.413718 1_655
Cr19 Si5 2.432715 1_655
Cr19 Si1 2.451666 1_655
Cr19 Si30 2.459536 1_555
Cr19 Si23 2.499393 1_555
Cr19 Cr22 2.923581 1_555
Cr19 Nb15 2.958541 1_555
Cr19 Cr26 2.990234 1_555
Cr19 Nb8 3.003752 1_655
Cr19 Nb5 3.079064 1_655
Cr20 Si21 2.354387 1_555
Cr20 Si15 2.384874 1_455
Cr20 Si17 2.384874 1_555
Cr20 Si8 2.461508 1_555
Cr20 Si3 2.604933 1_555
Cr20 Si3 2.604933 1_455
Cr21 Si20 2.354387 1_545
Cr21 Si16 2.384874 1_455
Cr21 Si14 2.384874 1_555
Cr21 Si9 2.461508 1_555
Cr21 Si2 2.604933 1_455
Cr21 Si2 2.604933 1_555
Cr22 Si23 2.354387 1_555
Cr22 Si19 2.384874 1_655
Cr22 Si13 2.384874 1_555
Cr22 Si10 2.461508 1_555
Cr22 Si1 2.604933 1_555
Cr22 Si1 2.604933 1_655
Cr23 Si22 2.354387 1_565
Cr23 Si12 2.384874 1_655
Cr23 Si18 2.384874 1_555
Cr23 Si11 2.461508 1_555
Cr23 Si0 2.604933 1_655
Cr23 Si0 2.604933 1_555
Cr24 Si28 2.502210 1_555
Cr24 Si18 2.582989 1_555
Cr24 Si12 2.582989 1_555
Cr24 Si5 2.603695 1_555
Cr24 Nb13 2.636210 1_555
Cr24 Si7 2.811920 1_455
Cr24 Si7 2.811920 1_555
Cr25 Si29 2.502210 1_555
Cr25 Si13 2.582989 1_556
Cr25 Si19 2.582989 1_556
Cr25 Si4 2.603695 1_546
Cr25 Nb12 2.636210 1_545
Cr25 Si6 2.811920 1_455
Cr25 Si6 2.811920 1_555
Cr26 Si30 2.502210 1_555
Cr26 Si16 2.582989 1_555
Cr26 Si14 2.582989 1_555
Cr26 Si7 2.603695 1_555
Cr26 Nb15 2.636210 1_555
Cr26 Si5 2.811920 1_555
Cr26 Si5 2.811920 1_655
Cr27 Si31 2.502210 1_555
Cr27 Si15 2.582989 1_554
Cr27 Si17 2.582989 1_554
Cr27 Si6 2.603695 1_564
Cr27 Nb14 2.636210 1_565
Cr27 Si4 2.811920 1_555
Cr27 Si4 2.811920 1_655
Si12 Si18 2.409078 1_555
Si12 Si18 2.450894 1_455
Si13 Si19 2.409078 1_555
Si13 Si19 2.450894 1_655
Si14 Si16 2.409078 1_555
Si14 Si16 2.450894 1_455
Si15 Si17 2.409078 1_555
Si15 Si17 2.450894 1_655
