# generated using pymatgen
data_CeMg3
_symmetry_space_group_name_H-M   'P 1'
_cell_length_a   6.83601633
_cell_length_b   6.83604963
_cell_length_c   5.22320834
_cell_angle_alpha   90.00000000
_cell_angle_beta   90.00000000
_cell_angle_gamma   120.00094615
_symmetry_Int_Tables_number   1
_chemical_formula_structural   CeMg3
_chemical_formula_sum   'Ce2 Mg6'
_cell_volume   211.38401323
_cell_formula_units_Z   2
loop_
 _symmetry_equiv_pos_site_id
 _symmetry_equiv_pos_as_xyz
  1  'x, y, z'
loop_
 _atom_site_type_symbol
 _atom_site_label
 _atom_site_symmetry_multiplicity
 _atom_site_fract_x
 _atom_site_fract_y
 _atom_site_fract_z
 _atom_site_occupancy
  Ce  Ce0  1  0.33332997  0.66667194  0.25000000  1
  Ce  Ce1  1  0.66667003  0.33332806  0.75000000  1
  Mg  Mg0  1  0.32412933  0.16206865  0.25000000  1
  Mg  Mg1  1  0.83794384  0.16205556  0.25000000  1
  Mg  Mg2  1  0.83793122  0.67587103  0.25000000  1
  Mg  Mg3  1  0.67587067  0.83793135  0.75000000  1
  Mg  Mg4  1  0.16206878  0.32412897  0.75000000  1
  Mg  Mg5  1  0.16205616  0.83794444  0.75000000  1
loop_
_geom_bond_atom_site_label_1
_geom_bond_atom_site_label_2
_geom_bond_distance
_geom_bond_site_symmetry_2
Ce0 Mg3 3.306473 1_555
Ce0 Mg3 3.306473 1_554
Ce0 Mg4 3.306487 1_554
Ce0 Mg4 3.306487 1_555
Ce0 Mg5 3.306514 1_554
Ce0 Mg5 3.306514 1_555
Ce0 Mg1 3.418396 1_565
Ce0 Mg1 3.418413 1_455
Ce0 Mg2 3.418431 1_455
Ce0 Mg0 3.418439 1_565
Ce0 Mg2 3.418453 1_555
Ce0 Mg0 3.418478 1_555
Ce1 Mg0 3.306473 1_556
Ce1 Mg0 3.306473 1_555
Ce1 Mg2 3.306487 1_555
Ce1 Mg2 3.306487 1_556
Ce1 Mg1 3.306514 1_555
Ce1 Mg1 3.306514 1_556
Ce1 Mg5 3.418396 1_545
Ce1 Mg5 3.418413 1_655
Ce1 Mg4 3.418431 1_655
Ce1 Mg3 3.418439 1_545
Ce1 Mg4 3.418453 1_555
Ce1 Mg3 3.418478 1_555
Mg0 Mg5 3.240756 1_545
Mg0 Mg5 3.240756 1_544
Mg0 Mg4 3.240758 1_555
Mg0 Mg4 3.240758 1_554
Mg0 Mg1 3.323527 1_455
Mg0 Mg2 3.323617 1_445
Mg0 Mg2 3.512318 1_555
Mg0 Mg1 3.512489 1_555
Mg1 Mg4 3.240753 1_654
Mg1 Mg4 3.240753 1_655
Mg1 Mg3 3.240756 1_545
Mg1 Mg3 3.240756 1_544
Mg1 Mg2 3.323538 1_545
Mg1 Mg2 3.512511 1_555
Mg2 Mg5 3.240753 1_654
Mg2 Mg5 3.240753 1_655
Mg2 Mg3 3.240758 1_555
Mg2 Mg3 3.240758 1_554
Mg3 Mg5 3.323527 1_655
Mg3 Mg4 3.323617 1_665
Mg3 Mg4 3.512318 1_555
Mg3 Mg5 3.512489 1_555
Mg4 Mg5 3.323538 1_545
Mg4 Mg5 3.512511 1_555
