# generated using pymatgen
data_MgSi2(AgO)8
_symmetry_space_group_name_H-M   'P 1'
_cell_length_a   5.10732300
_cell_length_b   7.71160200
_cell_length_c   7.71160200
_cell_angle_alpha   90.00000000
_cell_angle_beta   90.00000000
_cell_angle_gamma   90.00000000
_symmetry_Int_Tables_number   1
_chemical_formula_structural   MgSi2(AgO)8
_chemical_formula_sum   'Mg1 Si2 Ag8 O8'
_cell_volume   303.72639763
_cell_formula_units_Z   1
loop_
 _symmetry_equiv_pos_site_id
 _symmetry_equiv_pos_as_xyz
  1  'x, y, z'
loop_
 _atom_site_type_symbol
 _atom_site_label
 _atom_site_symmetry_multiplicity
 _atom_site_fract_x
 _atom_site_fract_y
 _atom_site_fract_z
 _atom_site_occupancy
  Mg  Mg0  1  0.75000000  0.75000000  0.75000000  1
  Si  Si0  1  0.75000000  0.25000000  0.25000000  1
  Si  Si1  1  0.25000000  0.75000000  0.75000000  1
  Ag  Ag0  1  0.23842600  0.15679100  0.56587500  1
  Ag  Ag1  1  0.83366700  0.62648100  0.11638000  1
  Ag  Ag2  1  0.83366700  0.87351900  0.38362000  1
  Ag  Ag3  1  0.66633300  0.38362000  0.62648100  1
  Ag  Ag4  1  0.66633300  0.11638000  0.87351900  1
  Ag  Ag5  1  0.26157400  0.56587500  0.34320900  1
  Ag  Ag6  1  0.23842600  0.34320900  0.93412500  1
  Ag  Ag7  1  0.26157400  0.93412500  0.15679100  1
  O  O0  1  0.45487800  0.59155500  0.80070200  1
  O  O1  1  0.93996900  0.31734000  0.41248100  1
  O  O2  1  0.04512200  0.80070200  0.90844500  1
  O  O3  1  0.56003100  0.41248100  0.18266000  1
  O  O4  1  0.93996900  0.18266000  0.08751900  1
  O  O5  1  0.45487800  0.90844500  0.69929800  1
  O  O6  1  0.04512200  0.69929800  0.59155500  1
  O  O7  1  0.56003100  0.08751900  0.31734000  1
loop_
_geom_bond_atom_site_label_1
_geom_bond_atom_site_label_2
_geom_bond_distance
_geom_bond_site_symmetry_2
Mg0 O2 1.979326 1_655
Mg0 O5 1.979326 1_555
Mg0 O6 1.979326 1_655
Mg0 O0 1.979326 1_555
Ag0 O1 2.292529 1_455
Ag0 O5 2.438962 1_545
Ag0 O7 2.580053 1_555
Ag1 O3 2.222121 1_555
Ag1 O2 2.354281 1_654
Ag2 O7 2.222121 1_565
Ag2 O6 2.354281 1_655
Ag3 O1 2.222121 1_555
Ag3 O0 2.354281 1_555
Ag4 O4 2.222121 1_556
Ag4 O5 2.354281 1_545
Ag5 O3 2.292529 1_555
Ag5 O6 2.438962 1_555
Ag5 O1 2.580053 1_455
Ag6 O4 2.292529 1_456
Ag6 O0 2.438962 1_555
Ag6 O3 2.580053 1_556
Ag7 O7 2.292529 1_565
Ag7 O2 2.438962 1_554
Ag7 O4 2.580053 1_465
O0 Si1 1.655517 1_555
O1 Si0 1.667635 1_555
O2 Si1 1.655517 1_555
O3 Si0 1.667635 1_555
O4 Si0 1.667635 1_555
O5 Si1 1.655517 1_555
O6 Si1 1.655517 1_555
O7 Si0 1.667635 1_555
