# generated using pymatgen
data_La2(MgAg3)3
_symmetry_space_group_name_H-M   'P 1'
_cell_length_a   5.79198006
_cell_length_b   5.79198006
_cell_length_c   10.17951099
_cell_angle_alpha   90.00000000
_cell_angle_beta   90.00000000
_cell_angle_gamma   122.52215552
_symmetry_Int_Tables_number   1
_chemical_formula_structural   La2(MgAg3)3
_chemical_formula_sum   'La2 Mg3 Ag9'
_cell_volume   287.94078895
_cell_formula_units_Z   1
loop_
 _symmetry_equiv_pos_site_id
 _symmetry_equiv_pos_as_xyz
  1  'x, y, z'
loop_
 _atom_site_type_symbol
 _atom_site_label
 _atom_site_symmetry_multiplicity
 _atom_site_fract_x
 _atom_site_fract_y
 _atom_site_fract_z
 _atom_site_occupancy
  La  La0  1  -0.00000000  0.50000000  0.75267700  1
  La  La1  1  0.50000000  -0.00000000  0.24732300  1
  Mg  Mg0  1  0.00000000  -0.00000000  0.50000000  1
  Mg  Mg1  1  -0.00000000  0.00000000  -0.00000000  1
  Mg  Mg2  1  0.50000000  0.50000000  0.50000000  1
  Ag  Ag0  1  -0.00000000  0.50000000  0.05709008  1
  Ag  Ag1  1  0.50000000  0.00000000  0.55460715  1
  Ag  Ag2  1  0.50000000  -0.00000000  0.94290992  1
  Ag  Ag3  1  0.00000000  0.50000000  0.44539285  1
  Ag  Ag4  1  0.19382328  0.30589559  0.25064618  1
  Ag  Ag5  1  0.69410441  0.80617672  0.74935382  1
  Ag  Ag6  1  0.30589559  0.19382328  0.74935382  1
  Ag  Ag7  1  0.80617672  0.69410441  0.25064618  1
  Ag  Ag8  1  0.50000000  0.50000000  -0.00000000  1
loop_
_geom_bond_atom_site_label_1
_geom_bond_atom_site_label_2
_geom_bond_distance
_geom_bond_site_symmetry_2
Mg0 Mg2 2.784896 1_555
Mg0 Mg2 2.784896 1_445
Ag0 Ag7 2.786288 1_455
Ag0 Ag4 2.786288 1_555
Ag0 Mg1 2.953725 1_565
Ag0 Ag8 2.953725 1_455
Ag0 Mg1 2.953725 1_555
Ag0 Ag8 2.953725 1_555
Ag0 Ag2 3.017711 1_454
Ag0 Ag2 3.017711 1_564
Ag0 La0 3.098776 1_554
Ag0 La1 3.391989 1_455
Ag0 La1 3.391989 1_565
Ag1 Ag5 2.794871 1_545
Ag1 Ag6 2.794871 1_555
Ag1 Mg0 2.948856 1_655
Ag1 Mg2 2.948856 1_555
Ag1 Mg0 2.948856 1_555
Ag1 Mg2 2.948856 1_545
Ag1 Ag3 2.998604 1_545
Ag1 Ag3 2.998604 1_655
Ag1 La1 3.128002 1_555
Ag1 La0 3.438157 1_545
Ag1 La0 3.438157 1_655
Ag2 Ag5 2.786288 1_545
Ag2 Ag6 2.786288 1_555
Ag2 Mg1 2.953725 1_556
Ag2 Ag8 2.953725 1_556
Ag2 Mg1 2.953725 1_656
Ag2 Ag8 2.953725 1_546
Ag2 La1 3.098776 1_556
Ag2 La0 3.391989 1_545
Ag2 La0 3.391989 1_655
Ag3 Ag7 2.794871 1_455
Ag3 Ag4 2.794871 1_555
Ag3 Mg2 2.948856 1_455
Ag3 Mg2 2.948856 1_555
Ag3 Mg0 2.948856 1_555
Ag3 Mg0 2.948856 1_565
Ag3 La0 3.128002 1_555
Ag3 La1 3.438157 1_455
Ag3 La1 3.438157 1_565
Ag4 Mg0 2.950194 1_555
Ag4 Mg2 2.950933 1_555
Ag4 Mg1 2.961520 1_555
Ag4 Ag8 2.962256 1_555
Ag4 Ag7 3.007109 1_445
Ag4 Ag7 3.010008 1_555
Ag4 La1 3.108607 1_555
Ag4 La1 3.410824 1_455
Ag4 La1 3.412102 1_565
Ag5 Mg0 2.950194 1_665
Ag5 Mg2 2.950933 1_555
Ag5 Mg1 2.961520 1_666
Ag5 Ag8 2.962256 1_556
Ag5 Ag6 3.007109 1_665
Ag5 Ag6 3.010008 1_555
Ag5 La0 3.108607 1_655
Ag5 La0 3.410824 1_665
Ag5 La0 3.412102 1_555
Ag6 Mg0 2.950194 1_555
Ag6 Mg2 2.950933 1_555
Ag6 Mg1 2.961520 1_556
Ag6 Ag8 2.962256 1_556
Ag6 La0 3.108607 1_555
Ag6 La0 3.410824 1_545
Ag6 La0 3.412102 1_655
Ag7 Mg0 2.950194 1_665
Ag7 Mg2 2.950933 1_555
Ag7 Mg1 2.961520 1_665
Ag7 Ag8 2.962256 1_555
Ag7 La1 3.108607 1_565
Ag7 La1 3.410824 1_665
Ag7 La1 3.412102 1_555
Ag8 Mg1 2.784896 1_555
Ag8 Mg1 2.784896 1_665
