# generated using pymatgen
data_NaAl6Sb7(TeCl3)8
_symmetry_space_group_name_H-M   'P 1'
_cell_length_a   11.96074253
_cell_length_b   12.74829446
_cell_length_c   12.51187392
_cell_angle_alpha   112.13427847
_cell_angle_beta   78.90083136
_cell_angle_gamma   68.00624671
_symmetry_Int_Tables_number   1
_chemical_formula_structural   NaAl6Sb7(TeCl3)8
_chemical_formula_sum   'Na1 Al6 Sb7 Te8 Cl24'
_cell_volume   1509.93152173
_cell_formula_units_Z   1
loop_
 _symmetry_equiv_pos_site_id
 _symmetry_equiv_pos_as_xyz
  1  'x, y, z'
loop_
 _atom_site_type_symbol
 _atom_site_label
 _atom_site_symmetry_multiplicity
 _atom_site_fract_x
 _atom_site_fract_y
 _atom_site_fract_z
 _atom_site_occupancy
  Na  Na0  1  0.51997291  0.46984985  0.03110574  1
  Al  Al0  1  0.88260155  0.26008903  0.83363679  1
  Al  Al1  1  0.11943314  0.74034088  0.16370206  1
  Al  Al2  1  0.42027141  0.88193911  0.79004012  1
  Al  Al3  1  0.58012801  0.11789158  0.21020284  1
  Al  Al4  1  0.53261046  0.71699935  0.29417824  1
  Al  Al5  1  0.46787999  0.28488307  0.70550176  1
  Sb  Sb0  1  0.85378059  0.24594260  0.45993699  1
  Sb  Sb1  1  0.14570472  0.75388759  0.54072592  1
  Sb  Sb2  1  0.85451818  0.40897324  0.23112204  1
  Sb  Sb3  1  0.14799432  0.58951617  0.76986037  1
  Sb  Sb4  1  0.00009429  0.50013262  0.50044686  1
  Sb  Sb5  1  0.20881887  0.13528826  0.19913605  1
  Sb  Sb6  1  0.79153526  0.86346447  0.80014051  1
  Te  Te0  1  0.96493411  0.13924251  0.19157071  1
  Te  Te1  1  0.03533191  0.85985668  0.80858180  1
  Te  Te2  1  0.10204964  0.22459102  0.46607750  1
  Te  Te3  1  0.89772284  0.77553413  0.53374623  1
  Te  Te4  1  0.74076077  0.50817471  0.49660703  1
  Te  Te5  1  0.25891164  0.49165703  0.50416050  1
  Te  Te6  1  0.11000689  0.38769463  0.21563238  1
  Te  Te7  1  0.89122193  0.61137444  0.78413451  1
  Cl  Cl0  1  0.52037401  0.81110577  0.89509632  1
  Cl  Cl1  1  0.48034974  0.19007076  0.10527593  1
  Cl  Cl2  1  0.71114610  0.70523543  0.32272582  1
  Cl  Cl3  1  0.28813931  0.29549191  0.67842086  1
  Cl  Cl4  1  0.74813919  0.38581505  0.78443708  1
  Cl  Cl5  1  0.24949076  0.61447326  0.21763303  1
  Cl  Cl6  1  0.23403383  0.05869352  0.91797116  1
  Cl  Cl7  1  0.76600664  0.94130502  0.08211589  1
  Cl  Cl8  1  0.53136079  0.54490424  0.29155255  1
  Cl  Cl9  1  0.46761083  0.45434741  0.70366310  1
  Cl  Cl10  1  0.37525226  0.74046181  0.67285847  1
  Cl  Cl11  1  0.62478942  0.25996431  0.32665739  1
  Cl  Cl12  1  0.55617920  0.68675742  0.10774526  1
  Cl  Cl13  1  0.44202038  0.30629355  0.88983925  1
  Cl  Cl14  1  0.54609152  0.91709995  0.67837478  1
  Cl  Cl15  1  0.45378127  0.08285045  0.32131103  1
  Cl  Cl16  1  0.01406547  0.07755787  0.66314284  1
  Cl  Cl17  1  0.98697123  0.92065830  0.33712921  1
  Cl  Cl18  1  0.76740831  0.23226727  0.96589399  1
  Cl  Cl19  1  0.22752513  0.77412696  0.03467224  1
  Cl  Cl20  1  0.35739399  0.88835921  0.43481336  1
  Cl  Cl21  1  0.64260085  0.11175671  0.56597905  1
  Cl  Cl22  1  0.98086248  0.35425094  0.92339966  1
  Cl  Cl23  1  0.02012384  0.64482993  0.07704477  1
loop_
_geom_bond_atom_site_label_1
_geom_bond_atom_site_label_2
_geom_bond_distance
_geom_bond_site_symmetry_2
Al0 Cl22 2.152342 1_555
Al0 Cl16 2.159900 1_655
Al0 Cl18 2.166315 1_555
Al0 Cl4 2.174475 1_555
Al1 Cl19 2.144942 1_555
Al1 Cl23 2.157162 1_555
Al1 Cl17 2.166222 1_455
Al1 Cl5 2.190972 1_555
Al2 Cl14 2.141334 1_555
Al2 Cl0 2.160391 1_555
Al2 Cl10 2.175137 1_555
Al2 Cl6 2.179729 1_565
Al3 Cl15 2.140237 1_555
Al3 Cl1 2.164602 1_555
Al3 Cl11 2.173587 1_555
Al3 Cl7 2.177103 1_545
Al4 Cl20 2.124841 1_555
Al4 Cl12 2.158007 1_555
Al4 Cl8 2.187469 1_555
Al4 Cl2 2.191859 1_555
Al5 Cl21 2.126782 1_555
Al5 Cl13 2.162731 1_555
Al5 Cl9 2.167962 1_555
Al5 Cl3 2.202746 1_555
Sb0 Te0 2.894360 1_555
Sb0 Te2 2.897586 1_655
Sb0 Te4 2.904161 1_555
Sb1 Te1 2.889394 1_555
Sb1 Te3 2.895866 1_455
Sb1 Te5 2.904631 1_555
Sb2 Te4 2.879223 1_555
Sb2 Te6 2.925875 1_655
Sb2 Te0 2.979549 1_555
Sb3 Te5 2.881854 1_555
Sb3 Te7 2.941437 1_455
Sb3 Te1 2.989991 1_555
Sb4 Te7 3.057715 1_455
Sb4 Te5 3.066839 1_555
Sb4 Te6 3.068804 1_555
Sb4 Te4 3.075225 1_455
Sb4 Te2 3.076091 1_555
Sb4 Te3 3.079066 1_455
Sb5 Te6 2.889721 1_555
Sb5 Te2 2.913015 1_555
Sb5 Te0 2.918973 1_455
Sb6 Te7 2.888382 1_555
Sb6 Te3 2.909881 1_555
Sb6 Te1 2.921993 1_655
Cl2 Sb2 3.106285 1_555
Cl3 Sb3 3.080996 1_555
Cl4 Na0 3.193170 1_556
Cl5 Na0 2.948759 1_555
Cl6 Sb5 3.194129 1_556
Cl7 Sb6 3.200800 1_554
Cl8 Na0 3.077658 1_555
Cl12 Na0 2.795009 1_555
Cl13 Na0 2.766653 1_556
Cl18 Na0 3.015306 1_556
