# generated using pymatgen
data_Sm3AlNiS7
_symmetry_space_group_name_H-M   'P 1'
_cell_length_a   9.78152736
_cell_length_b   9.78152736
_cell_length_c   6.11513600
_cell_angle_alpha   90.00000000
_cell_angle_beta   90.00000000
_cell_angle_gamma   119.99999569
_symmetry_Int_Tables_number   1
_chemical_formula_structural   Sm3AlNiS7
_chemical_formula_sum   'Sm6 Al2 Ni2 S14'
_cell_volume   506.69908380
_cell_formula_units_Z   2
loop_
 _symmetry_equiv_pos_site_id
 _symmetry_equiv_pos_as_xyz
  1  'x, y, z'
loop_
 _atom_site_type_symbol
 _atom_site_label
 _atom_site_symmetry_multiplicity
 _atom_site_fract_x
 _atom_site_fract_y
 _atom_site_fract_z
 _atom_site_occupancy
  Sm  Sm0  1  0.77191400  0.14480600  0.23542300  1
  Sm  Sm1  1  0.37289200  0.22808600  0.23542300  1
  Sm  Sm2  1  0.85519400  0.62710800  0.23542300  1
  Sm  Sm3  1  0.22808600  0.85519400  0.73542300  1
  Sm  Sm4  1  0.62710800  0.77191400  0.73542300  1
  Sm  Sm5  1  0.14480600  0.37289200  0.73542300  1
  Al  Al0  1  0.66666700  0.33333300  0.66171000  1
  Al  Al1  1  0.33333300  0.66666700  0.16171000  1
  Ni  Ni0  1  0.00000000  0.00000000  0.03140700  1
  Ni  Ni1  1  0.00000000  0.00000000  0.53140700  1
  S  S0  1  0.86236800  0.09134000  0.80269900  1
  S  S1  1  0.22897300  0.13763200  0.80269900  1
  S  S2  1  0.90866000  0.77102700  0.80269900  1
  S  S3  1  0.13763200  0.90866000  0.30269900  1
  S  S4  1  0.77102700  0.86236800  0.30269900  1
  S  S5  1  0.09134000  0.22897300  0.30269900  1
  S  S6  1  0.90572000  0.42406900  0.51022000  1
  S  S7  1  0.51834900  0.09428000  0.51022000  1
  S  S8  1  0.57593100  0.48165100  0.51022000  1
  S  S9  1  0.09428000  0.57593100  0.01022000  1
  S  S10  1  0.48165100  0.90572000  0.01022000  1
  S  S11  1  0.42406900  0.51834900  0.01022000  1
  S  S12  1  0.66666700  0.33333300  0.02588700  1
  S  S13  1  0.33333300  0.66666700  0.52588700  1
loop_
_geom_bond_atom_site_label_1
_geom_bond_atom_site_label_2
_geom_bond_distance
_geom_bond_site_symmetry_2
Al0 S12 2.226992 1_556
Al0 S6 2.244602 1_555
Al0 S7 2.244603 1_555
Al0 S8 2.244610 1_555
Al1 S13 2.226992 1_555
Al1 S9 2.244602 1_555
Al1 S10 2.244603 1_555
Al1 S11 2.244610 1_555
Ni0 S0 2.401971 1_454
Ni0 S1 2.401977 1_554
Ni0 S2 2.401978 1_444
Ni0 S3 2.562357 1_545
Ni0 S4 2.562364 1_445
Ni0 S5 2.562364 1_555
Ni1 S3 2.401971 1_545
Ni1 S4 2.401977 1_445
Ni1 S5 2.401978 1_555
Ni1 S0 2.562357 1_455
Ni1 S1 2.562364 1_555
Ni1 S2 2.562364 1_445
S0 Sm5 2.788863 1_655
S0 Sm4 2.834974 1_545
S0 Sm0 2.919119 1_556
S1 Sm3 2.788858 1_545
S1 Sm5 2.834980 1_555
S1 Sm1 2.919116 1_556
S2 Sm4 2.788868 1_555
S2 Sm3 2.834971 1_655
S2 Sm2 2.919115 1_556
S3 Sm2 2.788863 1_455
S3 Sm1 2.834974 1_565
S3 Sm3 2.919119 1_555
S4 Sm0 2.788858 1_565
S4 Sm2 2.834980 1_555
S4 Sm4 2.919116 1_555
S5 Sm1 2.788868 1_555
S5 Sm0 2.834971 1_455
S5 Sm5 2.919115 1_555
S6 Sm2 2.827354 1_555
S6 Sm0 2.902304 1_555
S6 Sm5 2.964285 1_655
S7 Sm0 2.827354 1_555
S7 Sm1 2.902304 1_555
S7 Sm3 2.964285 1_545
S8 Sm1 2.827354 1_555
S8 Sm2 2.902304 1_555
S8 Sm4 2.964285 1_555
S9 Sm5 2.827354 1_554
S9 Sm3 2.902304 1_554
S9 Sm2 2.964285 1_455
S10 Sm3 2.827354 1_554
S10 Sm4 2.902304 1_554
S10 Sm0 2.964285 1_565
S11 Sm4 2.827354 1_554
S11 Sm5 2.902304 1_554
S11 Sm1 2.964285 1_555
S12 Sm0 2.828557 1_555
S12 Sm2 2.828564 1_555
S12 Sm1 2.828565 1_555
S13 Sm3 2.828557 1_555
S13 Sm5 2.828564 1_555
S13 Sm4 2.828565 1_555
