# generated using pymatgen
data_Nd2MgSe4
_symmetry_space_group_name_H-M   'P 1'
_cell_length_a   13.48813700
_cell_length_b   4.13893000
_cell_length_c   14.66522400
_cell_angle_alpha   90.00000000
_cell_angle_beta   90.00000000
_cell_angle_gamma   90.00000000
_symmetry_Int_Tables_number   1
_chemical_formula_structural   Nd2MgSe4
_chemical_formula_sum   'Nd8 Mg4 Se16'
_cell_volume   818.70746584
_cell_formula_units_Z   4
loop_
 _symmetry_equiv_pos_site_id
 _symmetry_equiv_pos_as_xyz
  1  'x, y, z'
loop_
 _atom_site_type_symbol
 _atom_site_label
 _atom_site_symmetry_multiplicity
 _atom_site_fract_x
 _atom_site_fract_y
 _atom_site_fract_z
 _atom_site_occupancy
  Nd  Nd0  1  0.11914300  0.25000000  0.07352100  1
  Nd  Nd1  1  0.88085700  0.75000000  0.92647900  1
  Nd  Nd2  1  0.38085700  0.75000000  0.57352100  1
  Nd  Nd3  1  0.61914300  0.25000000  0.42647900  1
  Nd  Nd4  1  0.13622300  0.25000000  0.70457300  1
  Nd  Nd5  1  0.86377700  0.75000000  0.29542700  1
  Nd  Nd6  1  0.36377700  0.75000000  0.20457300  1
  Nd  Nd7  1  0.63622300  0.25000000  0.79542700  1
  Mg  Mg0  1  0.10708900  0.75000000  0.46119400  1
  Mg  Mg1  1  0.89291100  0.25000000  0.53880600  1
  Mg  Mg2  1  0.39291100  0.25000000  0.96119400  1
  Mg  Mg3  1  0.60708900  0.75000000  0.03880600  1
  Se  Se0  1  0.00196200  0.75000000  0.61439500  1
  Se  Se1  1  0.99803800  0.25000000  0.38560500  1
  Se  Se2  1  0.49803800  0.25000000  0.11439500  1
  Se  Se3  1  0.50196200  0.75000000  0.88560500  1
  Se  Se4  1  0.02816700  0.25000000  0.88330700  1
  Se  Se5  1  0.97183300  0.75000000  0.11669300  1
  Se  Se6  1  0.47183300  0.75000000  0.38330700  1
  Se  Se7  1  0.52816700  0.25000000  0.61669300  1
  Se  Se8  1  0.22488900  0.25000000  0.24658800  1
  Se  Se9  1  0.77511100  0.75000000  0.75341200  1
  Se  Se10  1  0.27511100  0.75000000  0.74658800  1
  Se  Se11  1  0.72488900  0.25000000  0.25341200  1
  Se  Se12  1  0.26664900  0.75000000  0.01407000  1
  Se  Se13  1  0.73335100  0.25000000  0.98593000  1
  Se  Se14  1  0.23335100  0.25000000  0.51407000  1
  Se  Se15  1  0.76664900  0.75000000  0.48593000  1
loop_
_geom_bond_atom_site_label_1
_geom_bond_atom_site_label_2
_geom_bond_distance
_geom_bond_site_symmetry_2
Nd0 Se8 2.911384 1_555
Nd0 Se5 2.937934 1_455
Nd0 Se5 2.937934 1_445
Nd0 Se12 3.000210 1_555
Nd0 Se12 3.000210 1_545
Nd0 Se4 3.047499 1_554
Nd1 Se9 2.911384 1_555
Nd1 Se4 2.937934 1_655
Nd1 Se4 2.937934 1_665
Nd1 Se13 3.000210 1_555
Nd1 Se13 3.000210 1_565
Nd1 Se5 3.047499 1_556
Nd2 Se10 2.911384 1_555
Nd2 Se7 2.937934 1_565
Nd2 Se7 2.937934 1_555
Nd2 Se14 3.000210 1_555
Nd2 Se14 3.000210 1_565
Nd2 Se6 3.047499 1_555
Nd3 Se11 2.911384 1_555
Nd3 Se6 2.937934 1_555
Nd3 Se6 2.937934 1_545
Nd3 Se15 3.000210 1_545
Nd3 Se15 3.000210 1_555
Nd3 Se7 3.047499 1_555
Nd4 Se10 2.858626 1_545
Nd4 Se10 2.858626 1_555
Nd4 Se4 2.999131 1_555
Nd4 Se0 3.051411 1_555
Nd4 Se0 3.051411 1_545
Nd4 Se14 3.085684 1_555
Nd5 Se11 2.858626 1_565
Nd5 Se11 2.858626 1_555
Nd5 Se5 2.999131 1_555
Nd5 Se1 3.051411 1_555
Nd5 Se1 3.051411 1_565
Nd5 Se15 3.085684 1_555
Nd6 Se8 2.858626 1_555
Nd6 Se8 2.858626 1_565
Nd6 Se6 2.999131 1_555
Nd6 Se2 3.051411 1_565
Nd6 Se2 3.051411 1_555
Nd6 Se12 3.085684 1_555
Nd7 Se9 2.858626 1_545
Nd7 Se9 2.858626 1_555
Nd7 Se7 2.999131 1_555
Nd7 Se3 3.051411 1_555
Nd7 Se3 3.051411 1_545
Nd7 Se13 3.085684 1_555
Mg0 Se0 2.656768 1_555
Mg0 Se1 2.770389 1_465
Mg0 Se1 2.770389 1_455
Mg0 Se14 2.790042 1_555
Mg0 Se14 2.790042 1_565
Mg1 Se1 2.656768 1_555
Mg1 Se0 2.770389 1_655
Mg1 Se0 2.770389 1_645
Mg1 Se15 2.790042 1_545
Mg1 Se15 2.790042 1_555
Mg2 Se2 2.656768 1_556
Mg2 Se3 2.770389 1_545
Mg2 Se3 2.770389 1_555
Mg2 Se12 2.790042 1_546
Mg2 Se12 2.790042 1_556
Mg3 Se3 2.656768 1_554
Mg3 Se2 2.770389 1_555
Mg3 Se2 2.770389 1_565
Mg3 Se13 2.790042 1_554
Mg3 Se13 2.790042 1_564
