# generated using pymatgen
data_RbU3F10
_symmetry_space_group_name_H-M   'P 1'
_cell_length_a   8.63244107
_cell_length_b   8.63244107
_cell_length_c   14.08315300
_cell_angle_alpha   90.00000000
_cell_angle_beta   90.00000000
_cell_angle_gamma   119.99999291
_symmetry_Int_Tables_number   1
_chemical_formula_structural   RbU3F10
_chemical_formula_sum   'Rb4 U12 F40'
_cell_volume   908.86170607
_cell_formula_units_Z   4
loop_
 _symmetry_equiv_pos_site_id
 _symmetry_equiv_pos_as_xyz
  1  'x, y, z'
loop_
 _atom_site_type_symbol
 _atom_site_label
 _atom_site_symmetry_multiplicity
 _atom_site_fract_x
 _atom_site_fract_y
 _atom_site_fract_z
 _atom_site_occupancy
  Rb  Rb0  1  0.66666700  0.33333300  0.73449200  1
  Rb  Rb1  1  0.33333300  0.66666700  0.23449200  1
  Rb  Rb2  1  0.00000000  0.00000000  0.97812600  1
  Rb  Rb3  1  0.00000000  0.00000000  0.47812600  1
  U  U0  1  0.17907800  0.35815500  0.72214800  1
  U  U1  1  0.17907800  0.82092200  0.72214800  1
  U  U2  1  0.82092200  0.64184500  0.22214800  1
  U  U3  1  0.64184500  0.82092200  0.72214800  1
  U  U4  1  0.82092200  0.17907800  0.22214800  1
  U  U5  1  0.35815500  0.17907800  0.22214800  1
  U  U6  1  0.50792200  0.01584400  0.98717100  1
  U  U7  1  0.50792200  0.49207800  0.98717100  1
  U  U8  1  0.49207800  0.98415600  0.48717100  1
  U  U9  1  0.98415600  0.49207800  0.98717100  1
  U  U10  1  0.49207800  0.50792200  0.48717100  1
  U  U11  1  0.01584400  0.50792200  0.48717100  1
  F  F0  1  0.17489100  0.34978300  0.54501600  1
  F  F1  1  0.17489100  0.82510900  0.54501600  1
  F  F2  1  0.82510900  0.65021700  0.04501600  1
  F  F3  1  0.65021700  0.82510900  0.54501600  1
  F  F4  1  0.82510900  0.17489100  0.04501600  1
  F  F5  1  0.34978300  0.17489100  0.04501600  1
  F  F6  1  0.66666700  0.33333300  0.93279100  1
  F  F7  1  0.33333300  0.66666700  0.43279100  1
  F  F8  1  0.66666700  0.33333300  0.29680500  1
  F  F9  1  0.33333300  0.66666700  0.79680500  1
  F  F10  1  0.77740600  0.55481300  0.52146900  1
  F  F11  1  0.77740600  0.22259400  0.52146900  1
  F  F12  1  0.22259400  0.44518700  0.02146900  1
  F  F13  1  0.44518700  0.22259400  0.52146900  1
  F  F14  1  0.22259400  0.77740600  0.02146900  1
  F  F15  1  0.55481300  0.77740600  0.02146900  1
  F  F16  1  0.89095100  0.78190300  0.69352900  1
  F  F17  1  0.89095100  0.10904900  0.69352900  1
  F  F18  1  0.10904900  0.21809700  0.19352900  1
  F  F19  1  0.21809700  0.10904900  0.69352900  1
  F  F20  1  0.10904900  0.89095100  0.19352900  1
  F  F21  1  0.78190300  0.89095100  0.19352900  1
  F  F22  1  0.66137900  0.66385500  0.85404500  1
  F  F23  1  0.00247600  0.33862100  0.85404500  1
  F  F24  1  0.33862100  0.33614500  0.35404500  1
  F  F25  1  0.00247600  0.66385500  0.85404500  1
  F  F26  1  0.33614500  0.99752400  0.85404500  1
  F  F27  1  0.99752400  0.66137900  0.35404500  1
  F  F28  1  0.33614500  0.33862100  0.85404500  1
  F  F29  1  0.99752400  0.33614500  0.35404500  1
  F  F30  1  0.66385500  0.00247600  0.35404500  1
  F  F31  1  0.66385500  0.66137900  0.35404500  1
  F  F32  1  0.66137900  0.99752400  0.85404500  1
  F  F33  1  0.33862100  0.00247600  0.35404500  1
  F  F34  1  0.49275900  0.98551900  0.66347200  1
  F  F35  1  0.49275900  0.50724100  0.66347200  1
  F  F36  1  0.50724100  0.01448100  0.16347200  1
  F  F37  1  0.01448100  0.50724100  0.66347200  1
  F  F38  1  0.50724100  0.49275900  0.16347200  1
  F  F39  1  0.98551900  0.49275900  0.16347200  1
loop_
_geom_bond_atom_site_label_1
_geom_bond_atom_site_label_2
_geom_bond_distance
_geom_bond_site_symmetry_2
F0 U0 2.495362 1_555
F0 U11 2.507290 1_555
F0 U10 2.507297 1_555
F0 Rb3 2.779453 1_555
F1 U1 2.495362 1_555
F1 U8 2.507297 1_555
F1 U11 2.507297 1_555
F1 Rb3 2.779445 1_565
F2 U2 2.495362 1_555
F2 U9 2.507290 1_554
F2 U7 2.507297 1_554
F2 Rb2 2.779453 1_664
F3 U3 2.495362 1_555
F3 U8 2.507290 1_555
F3 U10 2.507297 1_555
F3 Rb3 2.779453 1_665
F4 U4 2.495362 1_555
F4 U9 2.507297 1_554
F4 U6 2.507297 1_554
F4 Rb2 2.779445 1_654
F5 U5 2.495362 1_555
F5 U6 2.507290 1_554
F5 U7 2.507297 1_554
F5 Rb2 2.779453 1_554
F6 U9 2.494015 1_555
F6 U6 2.494015 1_555
F6 U7 2.494022 1_555
F6 Rb0 2.792675 1_555
F7 U8 2.494015 1_555
F7 U11 2.494015 1_555
F7 U10 2.494022 1_555
F7 Rb1 2.792675 1_555
F8 U4 2.534740 1_555
F8 U5 2.534754 1_555
F8 U2 2.534754 1_555
F9 U1 2.534740 1_555
F9 U3 2.534754 1_555
F9 U0 2.534754 1_555
F10 U10 2.338140 1_555
F10 U11 2.338148 1_655
F11 U11 2.338143 1_655
F11 U8 2.338143 1_545
F12 U7 2.338140 1_554
F12 U9 2.338148 1_454
F13 U10 2.338140 1_555
F13 U8 2.338148 1_545
F14 U6 2.338143 1_564
F14 U9 2.338143 1_454
F15 U7 2.338140 1_554
F15 U6 2.338148 1_564
F16 U3 2.371583 1_555
F16 U1 2.371600 1_655
F17 U3 2.371593 1_545
F17 U0 2.371593 1_655
F18 U5 2.371583 1_555
F18 U4 2.371600 1_455
F19 U0 2.371583 1_555
F19 U1 2.371600 1_545
F20 U2 2.371593 1_455
F20 U5 2.371593 1_565
F21 U2 2.371583 1_555
F21 U4 2.371600 1_565
F22 U7 2.346138 1_555
F22 U3 2.354965 1_555
F23 U9 2.346138 1_455
F23 U0 2.354970 1_555
F24 U10 2.346138 1_555
F24 U5 2.354965 1_555
F25 U9 2.346138 1_455
F25 U1 2.354968 1_555
F26 U6 2.346138 1_565
F26 U1 2.354968 1_555
F27 U11 2.346138 1_655
F27 U2 2.354970 1_555
F28 U7 2.346138 1_555
F28 U0 2.354965 1_555
F29 U11 2.346138 1_655
F29 U4 2.354968 1_555
F30 U8 2.346138 1_545
F30 U4 2.354968 1_555
F31 U10 2.346138 1_555
F31 U2 2.354965 1_555
F32 U6 2.346138 1_565
F32 U3 2.354970 1_555
F33 U8 2.346138 1_545
F33 U5 2.354970 1_555
F34 U8 2.482895 1_555
F34 U1 2.487287 1_555
F34 U3 2.487300 1_555
F34 Rb0 2.785957 1_565
F35 U10 2.482895 1_555
F35 U3 2.487286 1_555
F35 U0 2.487286 1_555
F35 Rb0 2.785970 1_555
F36 U6 2.482895 1_554
F36 U4 2.487287 1_555
F36 U5 2.487300 1_555
F36 Rb1 2.785957 1_545
F37 U11 2.482895 1_555
F37 U1 2.487287 1_555
F37 U0 2.487300 1_555
F37 Rb0 2.785957 1_455
F38 U7 2.482895 1_554
F38 U5 2.487286 1_555
F38 U2 2.487286 1_555
F38 Rb1 2.785970 1_555
F39 U9 2.482895 1_554
F39 U4 2.487287 1_555
F39 U2 2.487300 1_555
F39 Rb1 2.785957 1_655
