# generated using pymatgen
data_Ce2Ni5B4
_symmetry_space_group_name_H-M   'P 1'
_cell_length_a   5.47865939
_cell_length_b   5.47865939
_cell_length_c   6.65635185
_cell_angle_alpha   59.32454256
_cell_angle_beta   59.32454256
_cell_angle_gamma   55.35634273
_symmetry_Int_Tables_number   1
_chemical_formula_structural   Ce2Ni5B4
_chemical_formula_sum   'Ce2 Ni5 B4'
_cell_volume   134.35472005
_cell_formula_units_Z   1
loop_
 _symmetry_equiv_pos_site_id
 _symmetry_equiv_pos_as_xyz
  1  'x, y, z'
loop_
 _atom_site_type_symbol
 _atom_site_label
 _atom_site_symmetry_multiplicity
 _atom_site_fract_x
 _atom_site_fract_y
 _atom_site_fract_z
 _atom_site_occupancy
  Ce  Ce0  1  0.27076500  0.27076500  0.65300400  1
  Ce  Ce1  1  0.72923500  0.72923500  0.34699600  1
  Ni  Ni0  1  0.18037500  0.67039200  0.87004700  1
  Ni  Ni1  1  0.67039200  0.18037500  0.87004700  1
  Ni  Ni2  1  0.81962500  0.32960800  0.12995300  1
  Ni  Ni3  1  0.32960800  0.81962500  0.12995300  1
  Ni  Ni4  1  0.00000000  0.00000000  0.50000000  1
  B  B0  1  0.77851600  0.77851600  0.83808700  1
  B  B1  1  0.22148400  0.22148400  0.16191300  1
  B  B2  1  0.40032500  0.40032500  0.14459800  1
  B  B3  1  0.59967500  0.59967500  0.85540200  1
loop_
_geom_bond_atom_site_label_1
_geom_bond_atom_site_label_2
_geom_bond_distance
_geom_bond_site_symmetry_2
B0 B3 1.671639 1_555
B0 Ni0 2.027299 1_655
B0 Ni1 2.027299 1_565
B0 Ni4 2.027486 1_665
B0 Ni3 2.194350 1_556
B0 Ni2 2.194350 1_556
B0 Ce0 2.847194 1_565
B0 Ce0 2.847194 1_655
B1 B2 1.671639 1_555
B1 Ni3 2.027299 1_545
B1 Ni2 2.027299 1_455
B1 Ni4 2.027486 1_555
B1 Ni0 2.194350 1_554
B1 Ni1 2.194350 1_554
B1 Ce1 2.847194 1_455
B1 Ce1 2.847194 1_545
B2 B3 1.776808 1_554
B2 Ni2 2.057886 1_555
B2 Ni3 2.057886 1_555
B2 Ni0 2.107602 1_554
B2 Ni1 2.107602 1_554
B2 Ce0 2.851467 1_555
B2 Ce1 2.910410 1_455
B2 Ce1 2.910410 1_545
B3 Ni1 2.057886 1_555
B3 Ni0 2.057886 1_555
B3 Ni3 2.107602 1_556
B3 Ni2 2.107602 1_556
B3 Ce1 2.851467 1_555
B3 Ce0 2.910410 1_565
B3 Ce0 2.910410 1_655
