# generated using pymatgen
data_Sr2LiFeO3F
_symmetry_space_group_name_H-M   'P 1'
_cell_length_a   3.76757200
_cell_length_b   3.76757000
_cell_length_c   8.48702484
_cell_angle_alpha   77.17579318
_cell_angle_beta   77.17577933
_cell_angle_gamma   90.00000000
_symmetry_Int_Tables_number   1
_chemical_formula_structural   Sr2LiFeO3F
_chemical_formula_sum   'Sr2 Li1 Fe1 O3 F1'
_cell_volume   114.38083950
_cell_formula_units_Z   1
loop_
 _symmetry_equiv_pos_site_id
 _symmetry_equiv_pos_as_xyz
  1  'x, y, z'
loop_
 _atom_site_type_symbol
 _atom_site_label
 _atom_site_symmetry_multiplicity
 _atom_site_fract_x
 _atom_site_fract_y
 _atom_site_fract_z
 _atom_site_occupancy
  Sr  Sr0  1  0.35388900  0.35388900  0.29222300  1
  Sr  Sr1  1  0.67198100  0.67198100  0.65603800  1
  Li  Li0  1  0.50206600  0.50206600  0.99586700  1
  Fe  Fe0  1  0.02170900  0.02170900  0.95658200  1
  O  O0  1  0.97474600  0.47474600  0.05050900  1
  O  O1  1  0.47474600  0.97474600  0.05050900  1
  O  O2  1  0.18273900  0.18273900  0.63452200  1
  F  F0  1  0.81812500  0.81812500  0.36374900  1
loop_
_geom_bond_atom_site_label_1
_geom_bond_atom_site_label_2
_geom_bond_distance
_geom_bond_site_symmetry_2
Li0 O1 1.934555 1_546
Li0 O0 1.934556 1_456
Li0 O1 1.934562 1_556
Li0 O0 1.934563 1_556
Li0 Sr0 2.388054 1_556
Fe0 O0 2.030145 1_446
Fe0 O1 2.030146 1_446
Fe0 O0 2.030149 1_456
Fe0 O1 2.030150 1_546
Fe0 O2 2.595178 1_555
O0 Sr0 2.709679 1_555
O0 Sr0 2.709679 1_655
O1 Sr0 2.709678 1_565
O1 Sr0 2.709679 1_555
O2 Sr1 2.669711 1_455
O2 Sr1 2.669711 1_555
O2 Sr1 2.669711 1_445
O2 Sr1 2.669711 1_545
O2 Sr0 2.758265 1_555
F0 Sr1 2.355282 1_555
F0 Sr0 2.725703 1_555
F0 Sr0 2.725709 1_655
F0 Sr0 2.725709 1_565
F0 Sr0 2.725714 1_665
