# generated using pymatgen
data_MgTi2P2O9
_symmetry_space_group_name_H-M   'P 1'
_cell_length_a   6.36497800
_cell_length_b   7.45689300
_cell_length_c   14.33888800
_cell_angle_alpha   90.00000000
_cell_angle_beta   90.00000000
_cell_angle_gamma   90.00000000
_symmetry_Int_Tables_number   1
_chemical_formula_structural   MgTi2P2O9
_chemical_formula_sum   'Mg4 Ti8 P8 O36'
_cell_volume   680.56606606
_cell_formula_units_Z   4
loop_
 _symmetry_equiv_pos_site_id
 _symmetry_equiv_pos_as_xyz
  1  'x, y, z'
loop_
 _atom_site_type_symbol
 _atom_site_label
 _atom_site_symmetry_multiplicity
 _atom_site_fract_x
 _atom_site_fract_y
 _atom_site_fract_z
 _atom_site_occupancy
  Mg  Mg0  1  0.75000000  0.92927400  0.77150600  1
  Mg  Mg1  1  0.75000000  0.57072600  0.27150600  1
  Mg  Mg2  1  0.25000000  0.42927400  0.72849400  1
  Mg  Mg3  1  0.25000000  0.07072600  0.22849400  1
  Ti  Ti0  1  0.75000000  0.35270600  0.88191700  1
  Ti  Ti1  1  0.25000000  0.64729400  0.11808300  1
  Ti  Ti2  1  0.25000000  0.85270600  0.61808300  1
  Ti  Ti3  1  0.75000000  0.14729400  0.38191700  1
  Ti  Ti4  1  0.50000000  0.00000000  0.00000000  1
  Ti  Ti5  1  0.50000000  0.50000000  0.50000000  1
  Ti  Ti6  1  0.00000000  0.50000000  0.50000000  1
  Ti  Ti7  1  0.00000000  0.00000000  0.00000000  1
  P  P0  1  0.25000000  0.36564600  0.92663100  1
  P  P1  1  0.75000000  0.63435400  0.07336900  1
  P  P2  1  0.75000000  0.86564600  0.57336900  1
  P  P3  1  0.25000000  0.13435400  0.42663100  1
  P  P4  1  0.75000000  0.38090700  0.69506000  1
  P  P5  1  0.75000000  0.11909300  0.19506000  1
  P  P6  1  0.25000000  0.88090700  0.80494000  1
  P  P7  1  0.25000000  0.61909300  0.30494000  1
  O  O0  1  0.04155200  0.60814500  0.36263100  1
  O  O1  1  0.54155200  0.39185500  0.63736900  1
  O  O2  1  0.95844800  0.10814500  0.13736900  1
  O  O3  1  0.45844800  0.89185500  0.86263100  1
  O  O4  1  0.95844800  0.39185500  0.63736900  1
  O  O5  1  0.45844800  0.60814500  0.36263100  1
  O  O6  1  0.04155200  0.89185500  0.86263100  1
  O  O7  1  0.54155200  0.10814500  0.13736900  1
  O  O8  1  0.25000000  0.32309300  0.47299900  1
  O  O9  1  0.75000000  0.67690700  0.52700100  1
  O  O10  1  0.75000000  0.82309300  0.02700100  1
  O  O11  1  0.25000000  0.17690700  0.97299900  1
  O  O12  1  0.75000000  0.12873600  0.94197400  1
  O  O13  1  0.25000000  0.87126400  0.05802600  1
  O  O14  1  0.25000000  0.62873600  0.55802600  1
  O  O15  1  0.75000000  0.37126400  0.44197400  1
  O  O16  1  0.75000000  0.20283900  0.75309400  1
  O  O17  1  0.25000000  0.79716100  0.24690600  1
  O  O18  1  0.25000000  0.70283900  0.74690600  1
  O  O19  1  0.75000000  0.29716100  0.25309400  1
  O  O20  1  0.43632800  0.12000000  0.35749700  1
  O  O21  1  0.93632800  0.88000000  0.64250300  1
  O  O22  1  0.56367200  0.62000000  0.14250300  1
  O  O23  1  0.06367200  0.38000000  0.85749700  1
  O  O24  1  0.56367200  0.88000000  0.64250300  1
  O  O25  1  0.06367200  0.12000000  0.35749700  1
  O  O26  1  0.43632800  0.38000000  0.85749700  1
  O  O27  1  0.93632800  0.62000000  0.14250300  1
  O  O28  1  0.75000000  0.49304600  0.99806700  1
  O  O29  1  0.25000000  0.03355400  0.73141900  1
  O  O30  1  0.25000000  0.46644600  0.23141900  1
  O  O31  1  0.75000000  0.53355400  0.76858100  1
  O  O32  1  0.75000000  0.00695400  0.49806700  1
  O  O33  1  0.25000000  0.99304600  0.50193300  1
  O  O34  1  0.25000000  0.50695400  0.00193300  1
  O  O35  1  0.75000000  0.96644600  0.26858100  1
loop_
_geom_bond_atom_site_label_1
_geom_bond_atom_site_label_2
_geom_bond_distance
_geom_bond_site_symmetry_2
Mg0 O16 2.056958 1_565
Mg0 O24 2.227813 1_555
Mg0 O21 2.227813 1_555
Mg0 O3 2.286667 1_555
Mg0 O6 2.286667 1_655
Mg1 O19 2.056958 1_555
Mg1 O27 2.227813 1_555
Mg1 O22 2.227813 1_555
Mg1 O5 2.286667 1_555
Mg1 O0 2.286667 1_655
Mg2 O18 2.056958 1_555
Mg2 O23 2.227813 1_555
Mg2 O26 2.227813 1_555
Mg2 O1 2.286667 1_555
Mg2 O4 2.286667 1_455
Mg3 O17 2.056958 1_545
Mg3 O20 2.227813 1_555
Mg3 O25 2.227813 1_555
Mg3 O7 2.286667 1_555
Mg3 O2 2.286667 1_455
O0 P7 1.565655 1_555
O0 Ti6 2.144776 1_555
O1 P4 1.565655 1_555
O1 Ti5 2.144776 1_555
O2 P5 1.565655 1_555
O2 Ti7 2.144776 1_655
O3 P6 1.565655 1_555
O3 Ti4 2.144776 1_566
O4 P4 1.565655 1_555
O4 Ti6 2.144776 1_655
O5 P7 1.565655 1_555
O5 Ti5 2.144776 1_555
O6 P6 1.565655 1_555
O6 Ti7 2.144776 1_566
O7 P5 1.565655 1_555
O7 Ti4 2.144776 1_555
O8 P3 1.556547 1_555
O8 Ti6 2.102898 1_555
O8 Ti5 2.102898 1_555
O9 P2 1.556547 1_555
O9 Ti6 2.102898 1_655
O9 Ti5 2.102898 1_555
O10 P1 1.556547 1_555
O10 Ti4 2.102898 1_565
O10 Ti7 2.102898 1_665
O11 P0 1.556547 1_555
O11 Ti7 2.102898 1_556
O11 Ti4 2.102898 1_556
O12 Ti0 1.879064 1_555
O12 Ti7 2.036142 1_656
O12 Ti4 2.036142 1_556
O13 Ti1 1.879064 1_555
O13 Ti7 2.036142 1_565
O13 Ti4 2.036142 1_565
O14 Ti2 1.879064 1_555
O14 Ti6 2.036142 1_555
O14 Ti5 2.036142 1_555
O15 Ti3 1.879064 1_555
O15 Ti6 2.036142 1_655
O15 Ti5 2.036142 1_555
O16 P4 1.567037 1_555
O16 Ti0 2.158928 1_555
O17 P7 1.567037 1_555
O17 Ti1 2.158928 1_555
O18 P6 1.567037 1_555
O18 Ti2 2.158928 1_555
O19 P5 1.567037 1_555
O19 Ti3 2.158928 1_555
O20 P3 1.549411 1_555
O20 Ti3 2.037181 1_555
O21 P2 1.549411 1_555
O21 Ti2 2.037181 1_655
O22 P1 1.549411 1_555
O22 Ti1 2.037181 1_555
O23 P0 1.549411 1_555
O23 Ti0 2.037181 1_455
O24 P2 1.549411 1_555
O24 Ti2 2.037181 1_555
O25 P3 1.549411 1_555
O25 Ti3 2.037181 1_455
O26 P0 1.549411 1_555
O26 Ti0 2.037181 1_555
O27 P1 1.549411 1_555
O27 Ti1 2.037181 1_655
O28 P1 1.508700 1_556
O28 Ti0 1.966959 1_555
O29 P6 1.551458 1_545
O29 Ti2 2.111780 1_545
O30 P7 1.551458 1_555
O30 Ti1 2.111780 1_555
O31 P4 1.551458 1_555
O31 Ti0 2.111780 1_555
O32 P2 1.508700 1_545
O32 Ti3 1.966959 1_555
O33 P3 1.508700 1_565
O33 Ti2 1.966959 1_555
O34 P0 1.508700 1_554
O34 Ti1 1.966959 1_555
O35 P5 1.551458 1_565
O35 Ti3 2.111780 1_565
