# generated using pymatgen
data_RbMg6Ga
_symmetry_space_group_name_H-M   'P 1'
_cell_length_a   5.09323600
_cell_length_b   7.10823300
_cell_length_c   12.01946400
_cell_angle_alpha   90.00000000
_cell_angle_beta   90.00000000
_cell_angle_gamma   90.00000000
_symmetry_Int_Tables_number   1
_chemical_formula_structural   RbMg6Ga
_chemical_formula_sum   'Rb2 Mg12 Ga2'
_cell_volume   435.15157141
_cell_formula_units_Z   2
loop_
 _symmetry_equiv_pos_site_id
 _symmetry_equiv_pos_as_xyz
  1  'x, y, z'
loop_
 _atom_site_type_symbol
 _atom_site_label
 _atom_site_symmetry_multiplicity
 _atom_site_fract_x
 _atom_site_fract_y
 _atom_site_fract_z
 _atom_site_occupancy
  Rb  Rb0  1  0.00000000  0.50000000  0.33149000  1
  Rb  Rb1  1  0.00000000  0.00000000  0.83149000  1
  Mg  Mg0  1  0.00000000  0.26508600  0.08275700  1
  Mg  Mg1  1  0.00000000  0.73491400  0.08275700  1
  Mg  Mg2  1  0.00000000  0.50000000  0.83651200  1
  Mg  Mg3  1  0.50000000  0.28690400  0.93073000  1
  Mg  Mg4  1  0.50000000  0.71309600  0.93073000  1
  Mg  Mg5  1  0.50000000  0.50000000  0.66572300  1
  Mg  Mg6  1  0.00000000  0.76508600  0.58275700  1
  Mg  Mg7  1  0.00000000  0.23491400  0.58275700  1
  Mg  Mg8  1  0.00000000  0.00000000  0.33651200  1
  Mg  Mg9  1  0.50000000  0.78690400  0.43073000  1
  Mg  Mg10  1  0.50000000  0.21309600  0.43073000  1
  Mg  Mg11  1  0.50000000  0.00000000  0.16572300  1
  Ga  Ga0  1  0.50000000  0.50000000  0.13930100  1
  Ga  Ga1  1  0.50000000  0.00000000  0.63930100  1
loop_
_geom_bond_atom_site_label_1
_geom_bond_atom_site_label_2
_geom_bond_distance
_geom_bond_site_symmetry_2
Mg0 Mg3 3.138197 1_554
Mg0 Mg3 3.138197 1_454
Mg0 Mg11 3.321181 1_555
Mg0 Mg11 3.321181 1_455
Mg0 Mg1 3.339647 1_555
Mg0 Mg2 3.398283 1_554
Mg0 Rb0 3.424360 1_555
Mg0 Rb1 3.559710 1_554
Mg1 Mg4 3.138197 1_454
Mg1 Mg4 3.138197 1_554
Mg1 Mg11 3.321181 1_465
Mg1 Mg11 3.321181 1_565
Mg1 Mg2 3.398283 1_554
Mg1 Rb0 3.424360 1_555
Mg1 Rb1 3.559710 1_564
Mg2 Mg3 3.172086 1_455
Mg2 Mg4 3.172086 1_455
Mg2 Mg3 3.172086 1_555
Mg2 Mg4 3.172086 1_555
Mg2 Mg5 3.270966 1_455
Mg2 Mg5 3.270966 1_555
Mg2 Rb1 3.554629 1_565
Mg2 Rb1 3.554629 1_555
Mg3 Mg4 3.029472 1_555
Mg3 Rb1 3.473778 1_655
Mg3 Rb1 3.473778 1_555
Mg3 Mg5 3.527066 1_555
Mg4 Rb1 3.473778 1_665
Mg4 Rb1 3.473778 1_565
Mg4 Mg5 3.527066 1_555
Mg5 Mg6 3.321181 1_555
Mg5 Mg6 3.321181 1_655
Mg5 Mg7 3.321181 1_655
Mg5 Mg7 3.321181 1_555
Mg5 Mg9 3.483793 1_555
Mg6 Mg9 3.138197 1_455
Mg6 Mg9 3.138197 1_555
Mg6 Mg7 3.339647 1_565
Mg6 Mg8 3.398283 1_565
Mg6 Rb1 3.424360 1_565
Mg6 Rb0 3.559710 1_555
Mg7 Mg8 3.398283 1_555
Mg7 Rb1 3.424360 1_555
Mg7 Rb0 3.559710 1_555
Mg8 Mg9 3.172086 1_445
Mg8 Mg9 3.172086 1_545
Mg8 Rb0 3.554629 1_555
Mg8 Rb0 3.554629 1_545
Mg9 Rb0 3.473778 1_655
Mg9 Rb0 3.473778 1_555
Mg10 Mg9 3.029472 1_545
Mg10 Mg7 3.138197 1_655
Mg10 Mg7 3.138197 1_555
Mg10 Mg8 3.172086 1_555
Mg10 Mg8 3.172086 1_655
Mg10 Rb0 3.473778 1_555
Mg10 Rb0 3.473778 1_655
Mg10 Mg5 3.483793 1_555
Mg10 Mg11 3.527066 1_555
Mg11 Mg8 3.270966 1_555
Mg11 Mg8 3.270966 1_655
Mg11 Mg3 3.483793 1_554
Mg11 Mg4 3.483793 1_544
Mg11 Mg9 3.527066 1_545
Ga0 Mg3 2.928998 1_554
Ga0 Mg4 2.928998 1_554
Ga0 Mg1 3.120171 1_555
Ga0 Mg1 3.120171 1_655
Ga0 Mg0 3.120171 1_555
Ga0 Mg0 3.120171 1_655
Ga0 Rb0 3.438227 1_655
Ga0 Rb0 3.438227 1_555
Ga1 Mg10 2.928998 1_555
Ga1 Mg9 2.928998 1_545
Ga1 Mg7 3.120171 1_655
Ga1 Mg7 3.120171 1_555
Ga1 Mg6 3.120171 1_645
Ga1 Mg6 3.120171 1_545
Ga1 Rb1 3.438227 1_555
Ga1 Rb1 3.438227 1_655
