# generated using pymatgen
data_BaPr2MnS5
_symmetry_space_group_name_H-M   'P 1'
_cell_length_a   8.90016398
_cell_length_b   8.90016398
_cell_length_c   8.90016398
_cell_angle_alpha   126.80394977
_cell_angle_beta   126.80394977
_cell_angle_gamma   78.57075924
_symmetry_Int_Tables_number   1
_chemical_formula_structural   BaPr2MnS5
_chemical_formula_sum   'Ba2 Pr4 Mn2 S10'
_cell_volume   437.54731190
_cell_formula_units_Z   2
loop_
 _symmetry_equiv_pos_site_id
 _symmetry_equiv_pos_as_xyz
  1  'x, y, z'
loop_
 _atom_site_type_symbol
 _atom_site_label
 _atom_site_symmetry_multiplicity
 _atom_site_fract_x
 _atom_site_fract_y
 _atom_site_fract_z
 _atom_site_occupancy
  Ba  Ba0  1  0.75000000  0.75000000  0.00000000  1
  Ba  Ba1  1  0.25000000  0.25000000  0.00000000  1
  Pr  Pr0  1  0.83809700  0.66190300  0.50000000  1
  Pr  Pr1  1  0.66190300  0.16190300  0.82380700  1
  Pr  Pr2  1  0.33809700  0.83809700  0.17619300  1
  Pr  Pr3  1  0.16190300  0.33809700  0.50000000  1
  Mn  Mn0  1  0.25000000  0.75000000  0.50000000  1
  Mn  Mn1  1  0.75000000  0.25000000  0.50000000  1
  S  S0  1  0.98390100  0.48390100  0.19980200  1
  S  S1  1  0.71590100  0.21590100  0.19980200  1
  S  S2  1  0.01609900  0.51609900  0.80019800  1
  S  S3  1  0.51609900  0.71590100  0.50000000  1
  S  S4  1  0.21590100  0.01609900  0.50000000  1
  S  S5  1  0.48390100  0.28409900  0.50000000  1
  S  S6  1  0.78409900  0.98390100  0.50000000  1
  S  S7  1  0.28409900  0.78409900  0.80019800  1
  S  S8  1  0.00000000  0.00000000  0.00000000  1
  S  S9  1  0.50000000  0.50000000  0.00000000  1
loop_
_geom_bond_atom_site_label_1
_geom_bond_atom_site_label_2
_geom_bond_distance
_geom_bond_site_symmetry_2
Ba0 S6 3.429512 1_555
Ba0 S3 3.429512 1_554
Ba0 S0 3.429512 1_555
Ba0 S7 3.429512 1_554
Ba0 S5 3.429512 1_554
Ba0 S4 3.429512 1_665
Ba0 S2 3.429512 1_654
Ba0 S1 3.429512 1_565
Ba0 S8 3.444371 1_665
Ba0 S9 3.444371 1_555
Ba1 S5 3.429512 1_555
Ba1 S2 3.429512 1_554
Ba1 S0 3.429512 1_455
Ba1 S7 3.429512 1_544
Ba1 S3 3.429512 1_555
Ba1 S4 3.429512 1_554
Ba1 S1 3.429512 1_555
Ba1 S6 3.429512 1_444
Ba1 S9 3.444371 1_555
Ba1 S8 3.444371 1_555
Pr0 S3 2.810362 1_555
Pr0 S6 2.810362 1_555
Pr0 S9 2.987548 1_555
Pr0 S8 2.987548 1_666
Pr0 S7 3.098427 1_655
Pr0 S2 3.098427 1_655
Pr0 S0 3.098427 1_555
Pr0 S1 3.098427 1_555
Pr1 S1 2.810353 1_556
Pr1 S0 2.810362 1_556
Pr1 S8 2.987546 1_656
Pr1 S9 2.987546 1_556
Pr1 S3 3.098426 1_545
Pr1 S4 3.098426 1_555
Pr1 S6 3.098434 1_545
Pr1 S5 3.098434 1_555
Pr2 S7 2.810353 1_554
Pr2 S2 2.810362 1_554
Pr2 S8 2.987546 1_565
Pr2 S9 2.987546 1_555
Pr2 S5 3.098426 1_565
Pr2 S6 3.098426 1_555
Pr2 S4 3.098434 1_565
Pr2 S3 3.098434 1_555
Pr3 S5 2.810362 1_555
Pr3 S4 2.810362 1_555
Pr3 S8 2.987548 1_555
Pr3 S9 2.987548 1_556
Pr3 S7 3.098427 1_555
Pr3 S2 3.098427 1_555
Pr3 S0 3.098427 1_455
Pr3 S1 3.098427 1_455
Mn0 S0 2.327276 1_455
Mn0 S3 2.327276 1_555
Mn0 S7 2.327276 1_555
Mn0 S4 2.327276 1_565
Mn1 S6 2.327276 1_545
Mn1 S1 2.327276 1_555
Mn1 S5 2.327276 1_555
Mn1 S2 2.327276 1_655
