# generated using pymatgen
data_Ba3Ga3N5
_symmetry_space_group_name_H-M   'P 1'
_cell_length_a   9.48055707
_cell_length_b   9.48055707
_cell_length_c   11.78328422
_cell_angle_alpha   72.28277557
_cell_angle_beta   72.28277557
_cell_angle_gamma   52.69179844
_symmetry_Int_Tables_number   1
_chemical_formula_structural   Ba3Ga3N5
_chemical_formula_sum   'Ba12 Ga12 N20'
_cell_volume   792.32755353
_cell_formula_units_Z   4
loop_
 _symmetry_equiv_pos_site_id
 _symmetry_equiv_pos_as_xyz
  1  'x, y, z'
loop_
 _atom_site_type_symbol
 _atom_site_label
 _atom_site_symmetry_multiplicity
 _atom_site_fract_x
 _atom_site_fract_y
 _atom_site_fract_z
 _atom_site_occupancy
  Ba  Ba0  1  0.65472700  0.34527300  0.25000000  1
  Ba  Ba1  1  0.34527300  0.65472700  0.75000000  1
  Ba  Ba2  1  0.16159400  0.83840600  0.25000000  1
  Ba  Ba3  1  0.83840600  0.16159400  0.75000000  1
  Ba  Ba4  1  0.09879500  0.27891900  0.11537700  1
  Ba  Ba5  1  0.72108100  0.90120500  0.38462300  1
  Ba  Ba6  1  0.90120500  0.72108100  0.88462300  1
  Ba  Ba7  1  0.27891900  0.09879500  0.61537700  1
  Ba  Ba8  1  0.58120300  0.83005600  0.16306500  1
  Ba  Ba9  1  0.16994400  0.41879700  0.33693500  1
  Ba  Ba10  1  0.41879700  0.16994400  0.83693500  1
  Ba  Ba11  1  0.83005600  0.58120300  0.66306500  1
  Ga  Ga0  1  0.85558500  0.98490900  0.05705300  1
  Ga  Ga1  1  0.01509100  0.14441500  0.44294700  1
  Ga  Ga2  1  0.14441500  0.01509100  0.94294700  1
  Ga  Ga3  1  0.98490900  0.85558500  0.55705300  1
  Ga  Ga4  1  0.84263300  0.35276100  0.95045400  1
  Ga  Ga5  1  0.64723900  0.15736700  0.54954600  1
  Ga  Ga6  1  0.15736700  0.64723900  0.04954600  1
  Ga  Ga7  1  0.35276100  0.84263300  0.45045400  1
  Ga  Ga8  1  0.48865100  0.35265900  0.99818200  1
  Ga  Ga9  1  0.64734100  0.51134900  0.50181800  1
  Ga  Ga10  1  0.51134900  0.64734100  0.00181800  1
  Ga  Ga11  1  0.35265900  0.48865100  0.49818200  1
  N  N0  1  0.61919800  0.47134700  0.88260600  1
  N  N1  1  0.52865300  0.38080200  0.61739400  1
  N  N2  1  0.38080200  0.52865300  0.11739400  1
  N  N3  1  0.47134700  0.61919800  0.38260600  1
  N  N4  1  0.92885800  0.13118200  0.07928600  1
  N  N5  1  0.86881800  0.07114200  0.42071400  1
  N  N6  1  0.07114200  0.86881800  0.92071400  1
  N  N7  1  0.13118200  0.92885800  0.57928600  1
  N  N8  1  0.06502200  0.24934000  0.82618900  1
  N  N9  1  0.75066000  0.93497800  0.67381100  1
  N  N10  1  0.93497800  0.75066000  0.17381100  1
  N  N11  1  0.24934000  0.06502200  0.32618900  1
  N  N12  1  0.75474300  0.54784400  0.03968200  1
  N  N13  1  0.45215600  0.24525700  0.46031800  1
  N  N14  1  0.24525700  0.45215600  0.96031800  1
  N  N15  1  0.54784400  0.75474300  0.53968200  1
  N  N16  1  0.63178300  0.09446200  0.00220700  1
  N  N17  1  0.90553800  0.36821700  0.49779300  1
  N  N18  1  0.36821700  0.90553800  0.99779300  1
  N  N19  1  0.09446200  0.63178300  0.50220700  1
loop_
_geom_bond_atom_site_label_1
_geom_bond_atom_site_label_2
_geom_bond_distance
_geom_bond_site_symmetry_2
Ba0 N2 2.748019 1_555
Ba0 N3 2.748019 1_555
Ba0 N5 2.798064 1_555
Ba0 N4 2.798064 1_555
Ba0 N13 2.934190 1_555
Ba0 N12 2.934190 1_555
Ba1 N1 2.748019 1_555
Ba1 N0 2.748019 1_555
Ba1 N7 2.798064 1_555
Ba1 N6 2.798064 1_555
Ba1 N14 2.934190 1_555
Ba1 N15 2.934190 1_555
Ba2 N5 2.915190 1_465
Ba2 N4 2.915190 1_465
Ba2 N2 2.966924 1_555
Ba2 N3 2.966924 1_555
Ba2 N19 3.145001 1_555
Ba2 N18 3.145001 1_554
Ba2 N11 3.147826 1_565
Ba2 N10 3.147826 1_455
Ba3 N7 2.915190 1_645
Ba3 N6 2.915190 1_645
Ba3 N1 2.966924 1_555
Ba3 N0 2.966924 1_555
Ba3 N17 3.145001 1_555
Ba3 N16 3.145001 1_556
Ba3 N8 3.147826 1_655
Ba3 N9 3.147826 1_545
Ba4 N14 2.712509 1_554
Ba4 N11 2.811282 1_555
Ba4 N12 2.870703 1_455
Ba4 N4 2.872838 1_455
Ba4 N18 3.293214 1_544
Ba5 N15 2.712509 1_555
Ba5 N10 2.811282 1_555
Ba5 N13 2.870703 1_565
Ba5 N5 2.872838 1_565
Ba5 N19 3.293214 1_655
Ba6 N12 2.712509 1_556
Ba6 N9 2.811282 1_555
Ba6 N14 2.870703 1_655
Ba6 N6 2.872838 1_655
Ba6 N16 3.293214 1_566
Ba7 N13 2.712509 1_555
Ba7 N8 2.811282 1_555
Ba7 N15 2.870703 1_545
Ba7 N7 2.872838 1_545
Ba7 N17 3.293214 1_455
Ba8 N12 2.748570 1_555
Ba8 N16 2.849268 1_565
Ba8 N18 2.859279 1_554
Ba8 N10 2.995324 1_555
Ba8 N11 2.997524 1_565
Ba8 N3 3.083752 1_555
Ba9 N13 2.748570 1_555
Ba9 N17 2.849268 1_455
Ba9 N19 2.859279 1_555
Ba9 N11 2.995324 1_555
Ba9 N10 2.997524 1_455
Ba9 N2 3.083752 1_555
Ba10 N14 2.748570 1_555
Ba10 N18 2.849268 1_545
Ba10 N16 2.859279 1_556
Ba10 N8 2.995324 1_555
Ba10 N9 2.997524 1_545
Ba10 N1 3.083752 1_555
Ba11 N15 2.748570 1_555
Ba11 N19 2.849268 1_655
Ba11 N17 2.859279 1_555
Ba11 N9 2.995324 1_555
Ba11 N8 2.997524 1_655
Ba11 N0 3.083752 1_555
Ga0 N16 1.937263 1_565
Ga0 N4 1.993466 1_565
Ga0 N10 2.033643 1_555
Ga0 N6 2.078463 1_654
Ga1 N17 1.937263 1_455
Ga1 N5 1.993466 1_455
Ga1 N11 2.033643 1_555
Ga1 N7 2.078463 1_545
Ga2 N18 1.937263 1_545
Ga2 N6 1.993466 1_545
Ga2 N8 2.033643 1_555
Ga2 N4 2.078463 1_456
Ga3 N19 1.937263 1_655
Ga3 N7 1.993466 1_655
Ga3 N9 2.033643 1_555
Ga3 N5 2.078463 1_565
Ga4 N0 1.996765 1_555
Ga4 N12 2.000646 1_556
Ga4 N8 2.009860 1_655
Ga4 N4 2.029381 1_556
Ga5 N1 1.996765 1_555
Ga5 N13 2.000646 1_555
Ga5 N9 2.009860 1_545
Ga5 N5 2.029381 1_555
Ga6 N2 1.996765 1_555
Ga6 N14 2.000646 1_554
Ga6 N10 2.009860 1_455
Ga6 N6 2.029381 1_554
Ga7 N3 1.996765 1_555
Ga7 N15 2.000646 1_555
Ga7 N11 2.009860 1_565
Ga7 N7 2.029381 1_555
Ga8 N16 1.943597 1_556
Ga8 N14 2.036019 1_555
Ga8 N2 2.070490 1_556
Ga8 N0 2.093377 1_555
Ga9 N17 1.943597 1_555
Ga9 N15 2.036019 1_555
Ga9 N3 2.070490 1_555
Ga9 N1 2.093377 1_555
Ga10 N18 1.943597 1_554
Ga10 N12 2.036019 1_555
Ga10 N0 2.070490 1_554
Ga10 N2 2.093377 1_555
Ga11 N19 1.943597 1_555
Ga11 N13 2.036019 1_555
Ga11 N1 2.070490 1_555
Ga11 N3 2.093377 1_555
