# generated using pymatgen
data_MgTi
_symmetry_space_group_name_H-M   'P 1'
_cell_length_a   8.10882975
_cell_length_b   8.10882975
_cell_length_c   4.87363500
_cell_angle_alpha   90.00000000
_cell_angle_beta   90.00000000
_cell_angle_gamma   141.89760035
_symmetry_Int_Tables_number   1
_chemical_formula_structural   MgTi
_chemical_formula_sum   'Mg5 Ti5'
_cell_volume   197.74384607
_cell_formula_units_Z   5
loop_
 _symmetry_equiv_pos_site_id
 _symmetry_equiv_pos_as_xyz
  1  'x, y, z'
loop_
 _atom_site_type_symbol
 _atom_site_label
 _atom_site_symmetry_multiplicity
 _atom_site_fract_x
 _atom_site_fract_y
 _atom_site_fract_z
 _atom_site_occupancy
  Mg  Mg0  1  0.00812300  0.39915300  0.00000000  1
  Mg  Mg1  1  0.06100400  0.66660000  0.50000000  1
  Mg  Mg2  1  0.88161800  0.88161800  0.50000000  1
  Mg  Mg3  1  0.39915300  0.00812300  0.00000000  1
  Mg  Mg4  1  0.66660000  0.06100400  0.50000000  1
  Ti  Ti0  1  0.28677700  0.46061400  0.50000000  1
  Ti  Ti1  1  0.77344200  0.59921200  0.00000000  1
  Ti  Ti2  1  0.59921200  0.77344200  0.00000000  1
  Ti  Ti3  1  0.19673500  0.19673500  0.00000000  1
  Ti  Ti4  1  0.46061400  0.28677700  0.50000000  1
loop_
_geom_bond_atom_site_label_1
_geom_bond_atom_site_label_2
_geom_bond_distance
_geom_bond_site_symmetry_2
Mg0 Ti3 2.997345 1_555
Mg0 Mg4 3.029036 1_455
Mg0 Mg4 3.029036 1_454
Mg0 Ti2 3.047991 1_555
Mg0 Mg1 3.059670 1_554
Mg0 Mg1 3.059670 1_555
Mg0 Ti0 3.085412 1_555
Mg0 Ti0 3.085412 1_554
Mg0 Mg3 3.129867 1_455
Mg0 Mg3 3.129867 1_565
Mg0 Ti2 3.203194 1_445
Mg0 Ti1 3.333406 1_455
Mg1 Mg2 3.024454 1_455
Mg1 Mg3 3.029036 1_566
Mg1 Mg3 3.029036 1_565
Mg1 Ti4 3.096650 1_455
Mg1 Mg4 3.102571 1_565
Mg1 Mg4 3.102571 1_455
Mg1 Ti1 3.109437 1_455
Mg1 Ti1 3.109437 1_456
Mg1 Ti4 3.184922 1_565
Mg1 Ti0 3.309712 1_555
Mg2 Ti4 2.925876 1_665
Mg2 Ti0 2.925876 1_665
Mg2 Ti3 2.953084 1_666
Mg2 Ti3 2.953084 1_665
Mg2 Ti2 2.964822 1_556
Mg2 Ti1 2.964822 1_556
Mg2 Ti1 2.964822 1_555
Mg2 Ti2 2.964822 1_555
Mg2 Ti4 3.000795 1_555
Mg2 Ti0 3.000795 1_555
Mg2 Mg4 3.024454 1_565
Mg3 Ti3 2.997345 1_555
Mg3 Ti1 3.047991 1_555
Mg3 Mg4 3.059670 1_555
Mg3 Mg4 3.059670 1_554
Mg3 Ti4 3.085412 1_554
Mg3 Ti4 3.085412 1_555
Mg3 Ti1 3.203194 1_445
Mg3 Ti2 3.333406 1_545
Mg4 Ti0 3.096650 1_545
Mg4 Ti2 3.109437 1_546
Mg4 Ti2 3.109437 1_545
Mg4 Ti0 3.184922 1_655
Mg4 Ti4 3.309712 1_555
Ti0 Ti4 2.664812 1_555
Ti0 Ti3 2.931027 1_556
Ti0 Ti3 2.931027 1_555
Ti0 Ti2 2.945673 1_556
Ti0 Ti2 2.945673 1_555
Ti1 Ti2 2.670837 1_555
Ti1 Ti3 2.915546 1_555
Ti1 Ti4 2.945673 1_555
Ti1 Ti4 2.945673 1_554
Ti1 Ti3 3.013923 1_665
Ti2 Ti3 2.915546 1_555
Ti2 Ti3 3.013923 1_665
Ti3 Ti4 2.931027 1_555
Ti3 Ti4 2.931027 1_554
