# generated using pymatgen
data_Dy3AlN
_symmetry_space_group_name_H-M   'P 1'
_cell_length_a   4.75093043
_cell_length_b   4.75093043
_cell_length_c   4.75093043
_cell_angle_alpha   90.00000000
_cell_angle_beta   90.00000000
_cell_angle_gamma   90.00000000
_symmetry_Int_Tables_number   1
_chemical_formula_structural   Dy3AlN
_chemical_formula_sum   'Dy3 Al1 N1'
_cell_volume   107.23486582
_cell_formula_units_Z   1
loop_
 _symmetry_equiv_pos_site_id
 _symmetry_equiv_pos_as_xyz
  1  'x, y, z'
loop_
 _atom_site_type_symbol
 _atom_site_label
 _atom_site_symmetry_multiplicity
 _atom_site_fract_x
 _atom_site_fract_y
 _atom_site_fract_z
 _atom_site_occupancy
  Dy  Dy0  1  0.50000000  0.50000000  -0.00000000  1
  Dy  Dy1  1  0.50000000  -0.00000000  0.50000000  1
  Dy  Dy2  1  -0.00000000  0.50000000  0.50000000  1
  Al  Al0  1  -0.00000000  -0.00000000  -0.00000000  1
  N  N0  1  0.50000000  0.50000000  0.50000000  1
loop_
_geom_bond_atom_site_label_1
_geom_bond_atom_site_label_2
_geom_bond_distance
_geom_bond_site_symmetry_2
Dy0 N0 2.375465 1_555
Dy0 N0 2.375465 1_554
Dy1 N0 2.375465 1_555
Dy1 N0 2.375465 1_545
Dy2 N0 2.375465 1_555
Dy2 N0 2.375465 1_455
Al0 Dy1 3.359415 1_455
Al0 Dy2 3.359415 1_554
Al0 Dy1 3.359415 1_454
Al0 Dy1 3.359415 1_555
Al0 Dy0 3.359415 1_455
Al0 Dy2 3.359415 1_544
Al0 Dy2 3.359415 1_555
Al0 Dy1 3.359415 1_554
Al0 Dy0 3.359415 1_555
Al0 Dy2 3.359415 1_545
Al0 Dy0 3.359415 1_445
Al0 Dy0 3.359415 1_545
