# generated using pymatgen
data_Fe15Co
_symmetry_space_group_name_H-M   'P 1'
_cell_length_a   5.72597497
_cell_length_b   5.72600537
_cell_length_c   5.72605524
_cell_angle_alpha   90.00002161
_cell_angle_beta   90.00000000
_cell_angle_gamma   90.00000000
_symmetry_Int_Tables_number   1
_chemical_formula_structural   Fe15Co
_chemical_formula_sum   'Fe15 Co1'
_cell_volume   187.73996373
_cell_formula_units_Z   1
loop_
 _symmetry_equiv_pos_site_id
 _symmetry_equiv_pos_as_xyz
  1  'x, y, z'
loop_
 _atom_site_type_symbol
 _atom_site_label
 _atom_site_symmetry_multiplicity
 _atom_site_fract_x
 _atom_site_fract_y
 _atom_site_fract_z
 _atom_site_occupancy
  Fe  Fe0  1  0.50000000  0.50000000  0.50000000  1
  Fe  Fe1  1  0.50000000  -0.00000000  0.50000000  1
  Fe  Fe2  1  0.50000000  0.50000000  -0.00000000  1
  Fe  Fe3  1  -0.00000000  0.50000000  0.50000000  1
  Fe  Fe4  1  0.50000000  -0.00000000  -0.00000000  1
  Fe  Fe5  1  -0.00000000  -0.00000000  0.50000000  1
  Fe  Fe6  1  -0.00000000  0.50000000  -0.00000000  1
  Fe  Fe7  1  0.24772914  0.24771971  0.24771777  1
  Fe  Fe8  1  0.24772914  0.75228029  0.24771877  1
  Fe  Fe9  1  0.24772914  0.24771971  0.75228123  1
  Fe  Fe10  1  0.75227086  0.24771971  0.24771877  1
  Fe  Fe11  1  0.75227086  0.75228029  0.24771877  1
  Fe  Fe12  1  0.24772914  0.75228029  0.75228123  1
  Fe  Fe13  1  0.75227086  0.24771971  0.75228123  1
  Fe  Fe14  1  0.75227086  0.75228029  0.75228223  1
  Co  Co0  1  -0.00000000  -0.00000000  -0.00000000  1
loop_
_geom_bond_atom_site_label_1
_geom_bond_atom_site_label_2
_geom_bond_distance
_geom_bond_site_symmetry_2
Fe0 Fe10 2.502023 1_555
Fe0 Fe12 2.502023 1_555
Fe0 Fe8 2.502023 1_555
Fe0 Fe11 2.502023 1_555
Fe0 Fe9 2.502023 1_555
Fe0 Fe13 2.502023 1_555
Fe0 Fe7 2.502026 1_555
Fe0 Fe14 2.502026 1_555
Fe1 Fe9 2.487037 1_555
Fe1 Fe13 2.487037 1_555
Fe1 Fe11 2.487037 1_545
Fe1 Fe8 2.487037 1_545
Fe1 Fe12 2.487038 1_545
Fe1 Fe10 2.487038 1_555
Fe1 Fe7 2.487041 1_555
Fe1 Fe14 2.487041 1_545
Fe2 Fe7 2.487028 1_555
Fe2 Fe8 2.487031 1_555
Fe2 Fe9 2.487031 1_554
Fe3 Fe9 2.487100 1_555
Fe3 Fe8 2.487100 1_555
Fe3 Fe7 2.487103 1_555
Fe4 Fe7 2.471951 1_555
Fe4 Fe8 2.471955 1_545
Fe4 Fe9 2.471955 1_554
Fe5 Fe8 2.472023 1_545
Fe5 Fe9 2.472023 1_555
Fe5 Fe7 2.472027 1_555
Fe6 Fe7 2.472014 1_555
Fe6 Fe8 2.472017 1_555
Fe6 Fe9 2.472017 1_554
Fe10 Fe4 2.471954 1_555
Fe10 Fe6 2.472018 1_655
Fe10 Fe5 2.472024 1_655
Fe10 Fe2 2.487031 1_555
Fe10 Fe3 2.487100 1_655
Fe11 Fe4 2.471955 1_565
Fe11 Fe6 2.472017 1_655
Fe11 Fe5 2.472023 1_665
Fe11 Fe2 2.487031 1_555
Fe11 Fe3 2.487100 1_655
Fe12 Fe4 2.471954 1_566
Fe12 Fe6 2.472018 1_556
Fe12 Fe5 2.472024 1_565
Fe12 Fe2 2.487031 1_556
Fe12 Fe3 2.487100 1_555
Fe13 Fe4 2.471955 1_556
Fe13 Fe6 2.472017 1_656
Fe13 Fe5 2.472023 1_655
Fe13 Fe2 2.487031 1_556
Fe13 Fe3 2.487100 1_655
Fe14 Fe4 2.471951 1_566
Fe14 Fe6 2.472014 1_656
Fe14 Fe5 2.472027 1_665
Fe14 Fe2 2.487028 1_556
Fe14 Fe3 2.487103 1_655
Co0 Fe14 2.456845 1_444
Co0 Fe7 2.456845 1_555
Co0 Fe10 2.456848 1_455
Co0 Fe12 2.456848 1_544
Co0 Fe9 2.456849 1_554
Co0 Fe13 2.456849 1_454
Co0 Fe11 2.456849 1_445
Co0 Fe8 2.456849 1_545
