# generated using pymatgen
data_LiAlSi2O7
_symmetry_space_group_name_H-M   'P 1'
_cell_length_a   5.06587000
_cell_length_b   7.68655531
_cell_length_c   8.76953591
_cell_angle_alpha   114.03946298
_cell_angle_beta   90.55182810
_cell_angle_gamma   89.90169626
_symmetry_Int_Tables_number   1
_chemical_formula_structural   LiAlSi2O7
_chemical_formula_sum   'Li2 Al2 Si4 O14'
_cell_volume   311.84433330
_cell_formula_units_Z   2
loop_
 _symmetry_equiv_pos_site_id
 _symmetry_equiv_pos_as_xyz
  1  'x, y, z'
loop_
 _atom_site_type_symbol
 _atom_site_label
 _atom_site_symmetry_multiplicity
 _atom_site_fract_x
 _atom_site_fract_y
 _atom_site_fract_z
 _atom_site_occupancy
  Li  Li0  1  0.34670700  0.12167000  0.29161600  1
  Li  Li1  1  0.84468100  0.92855200  0.71662400  1
  Al  Al0  1  0.85497200  0.93750900  0.37761400  1
  Al  Al1  1  0.33387400  0.91104400  0.89316700  1
  Si  Si0  1  0.83619100  0.09802700  0.10110600  1
  Si  Si1  1  0.81381700  0.50817300  0.10590500  1
  Si  Si2  1  0.30688100  0.49513700  0.88657600  1
  Si  Si3  1  0.35452400  0.07389800  0.61470400  1
  O  O0  1  0.71847800  0.05092200  0.25405100  1
  O  O1  1  0.15276400  0.04770800  0.07760200  1
  O  O2  1  0.78625000  0.32485100  0.15567900  1
  O  O3  1  0.53193800  0.54275500  0.03204700  1
  O  O4  1  0.89123100  0.69431300  0.26918200  1
  O  O5  1  0.17080800  0.04143400  0.45021600  1
  O  O6  1  0.44171400  0.47334600  0.45675400  1
  O  O7  1  0.22122900  0.96945700  0.72621400  1
  O  O8  1  0.67421400  0.97466400  0.92643300  1
  O  O9  1  0.27571700  0.67088600  0.83283000  1
  O  O10  1  0.03113500  0.44966500  0.95747500  1
  O  O11  1  0.38739400  0.30235800  0.72449000  1
  O  O12  1  0.65105200  0.98744400  0.55460100  1
  O  O13  1  0.63002900  0.57108500  0.53391600  1
loop_
_geom_bond_atom_site_label_1
_geom_bond_atom_site_label_2
_geom_bond_distance
_geom_bond_site_symmetry_2
Li0 O0 1.952873 1_555
Li0 O5 1.957927 1_555
Li0 O1 1.976860 1_555
Li0 O6 2.537254 1_555
Li1 O12 1.918750 1_555
Li1 O7 1.929269 1_655
Li1 O8 1.937765 1_555
Al0 O4 1.728102 1_555
Al0 O0 1.779145 1_565
Al0 O12 1.779784 1_555
Al0 O5 1.781525 1_665
Al1 O9 1.725546 1_555
Al1 O8 1.781517 1_555
Al1 O7 1.785898 1_555
Al1 O1 1.789494 1_566
O0 Si0 1.642399 1_555
O1 Si0 1.644165 1_455
O2 Si0 1.629057 1_555
O2 Si1 1.642742 1_555
O3 Si1 1.628006 1_555
O3 Si2 1.629188 1_554
O4 Si1 1.604100 1_555
O5 Si3 1.640387 1_555
O7 Si3 1.646479 1_565
O8 Si0 1.647401 1_566
O9 Si2 1.608914 1_555
O10 Si2 1.629574 1_555
O10 Si1 1.630195 1_456
O11 Si3 1.630611 1_555
O11 Si2 1.635723 1_555
O12 Si3 1.643896 1_565
O13 O6 1.228097 1_555
