# generated using pymatgen
data_Eu2Cu(GeO3)4
_symmetry_space_group_name_H-M   'P 1'
_cell_length_a   4.96519200
_cell_length_b   7.41288800
_cell_length_c   8.21101287
_cell_angle_alpha   114.24424566
_cell_angle_beta   86.14014825
_cell_angle_gamma   103.66800771
_symmetry_Int_Tables_number   1
_chemical_formula_structural   Eu2Cu(GeO3)4
_chemical_formula_sum   'Eu2 Cu1 Ge4 O12'
_cell_volume   267.60905688
_cell_formula_units_Z   1
loop_
 _symmetry_equiv_pos_site_id
 _symmetry_equiv_pos_as_xyz
  1  'x, y, z'
loop_
 _atom_site_type_symbol
 _atom_site_label
 _atom_site_symmetry_multiplicity
 _atom_site_fract_x
 _atom_site_fract_y
 _atom_site_fract_z
 _atom_site_occupancy
  Eu  Eu0  1  0.96020200  0.76878500  0.54441700  1
  Eu  Eu1  1  0.03979800  0.23121500  0.45558300  1
  Cu  Cu0  1  0.00000000  0.00000000  0.00000000  1
  Ge  Ge0  1  0.42424200  0.61885200  0.79965900  1
  Ge  Ge1  1  0.57575800  0.38114800  0.20034100  1
  Ge  Ge2  1  0.54252600  0.17401300  0.78563100  1
  Ge  Ge3  1  0.45747400  0.82598700  0.21436900  1
  O  O0  1  0.75396000  0.78166200  0.81558000  1
  O  O1  1  0.24604000  0.21833800  0.18442000  1
  O  O2  1  0.74020300  0.29821800  0.99203000  1
  O  O3  1  0.25979700  0.70178200  0.00797000  1
  O  O4  1  0.77018200  0.41812500  0.38474300  1
  O  O5  1  0.22981800  0.58187500  0.61525700  1
  O  O6  1  0.75650900  0.99841500  0.19251900  1
  O  O7  1  0.24349100  0.00158500  0.80748100  1
  O  O8  1  0.42952000  0.35326000  0.72618700  1
  O  O9  1  0.57048000  0.64674000  0.27381300  1
  O  O10  1  0.76155900  0.06452900  0.61750200  1
  O  O11  1  0.23844100  0.93547100  0.38249800  1
loop_
_geom_bond_atom_site_label_1
_geom_bond_atom_site_label_2
_geom_bond_distance
_geom_bond_site_symmetry_2
Eu0 O11 2.344801 1_655
Eu0 O4 2.361069 1_555
Eu0 O0 2.362169 1_555
Eu0 O5 2.386095 1_655
Eu0 O7 2.413063 1_665
Eu0 O10 2.449674 1_565
Eu0 O9 2.756902 1_555
Eu1 O10 2.344801 1_455
Eu1 O5 2.361069 1_555
Eu1 O1 2.362169 1_555
Eu1 O4 2.386095 1_455
Eu1 O6 2.413063 1_445
Eu1 O11 2.449674 1_545
Eu1 O8 2.756902 1_555
Cu0 O1 1.925318 1_555
Cu0 O0 1.925318 1_444
Cu0 O6 1.926620 1_445
Cu0 O7 1.926620 1_554
Ge0 O5 1.740836 1_555
Ge0 O0 1.766155 1_555
Ge0 O3 1.776473 1_556
Ge0 O8 1.813185 1_555
Ge1 O4 1.740836 1_555
Ge1 O1 1.766155 1_555
Ge1 O2 1.776473 1_554
Ge1 O9 1.813185 1_555
Ge2 O10 1.744158 1_555
Ge2 O7 1.768068 1_555
Ge2 O2 1.788472 1_555
Ge2 O8 1.800125 1_555
Ge3 O11 1.744158 1_555
Ge3 O6 1.768068 1_555
Ge3 O3 1.788472 1_555
Ge3 O9 1.800125 1_555
