# generated using pymatgen
data_Nb5(CuSi)4
_symmetry_space_group_name_H-M   'P 1'
_cell_length_a   3.59804003
_cell_length_b   7.43295445
_cell_length_c   7.43295550
_cell_angle_alpha   86.64169389
_cell_angle_beta   75.99343761
_cell_angle_gamma   75.99344297
_symmetry_Int_Tables_number   1
_chemical_formula_structural   Nb5(CuSi)4
_chemical_formula_sum   'Nb5 Cu4 Si4'
_cell_volume   187.14250207
_cell_formula_units_Z   1
loop_
 _symmetry_equiv_pos_site_id
 _symmetry_equiv_pos_as_xyz
  1  'x, y, z'
loop_
 _atom_site_type_symbol
 _atom_site_label
 _atom_site_symmetry_multiplicity
 _atom_site_fract_x
 _atom_site_fract_y
 _atom_site_fract_z
 _atom_site_occupancy
  Nb  Nb0  1  0.50000000  0.00000000  -0.00000000  1
  Nb  Nb1  1  0.80410943  0.06591075  0.32586939  1
  Nb  Nb2  1  0.12997982  0.67413061  0.06591075  1
  Nb  Nb3  1  0.87002018  0.32586939  0.93408925  1
  Nb  Nb4  1  0.19589057  0.93408925  0.67413061  1
  Cu  Cu0  1  0.91938107  0.68422280  0.47701406  1
  Cu  Cu1  1  0.08061893  0.31577720  0.52298594  1
  Cu  Cu2  1  0.60360487  0.47701406  0.31577720  1
  Cu  Cu3  1  0.39639513  0.52298594  0.68422280  1
  Si  Si0  1  0.55822693  0.19581320  0.68773293  1
  Si  Si1  1  0.24595987  0.31226707  0.19581320  1
  Si  Si2  1  0.75404013  0.68773293  0.80418680  1
  Si  Si3  1  0.44177307  0.80418680  0.31226707  1
loop_
_geom_bond_atom_site_label_1
_geom_bond_atom_site_label_2
_geom_bond_distance
_geom_bond_site_symmetry_2
Nb0 Si1 2.658206 1_555
Nb0 Si2 2.658206 1_544
Nb0 Si3 2.658206 1_545
Nb0 Si0 2.658206 1_554
Nb1 Si3 2.609388 1_545
Nb1 Si3 2.609390 1_645
Nb1 Si1 2.696839 1_555
Nb1 Si1 2.696841 1_655
Nb1 Si0 2.772807 1_555
Nb2 Si2 2.609388 1_554
Nb2 Si2 2.609391 1_454
Nb2 Si3 2.696839 1_555
Nb2 Si3 2.696841 1_455
Nb2 Si1 2.772807 1_555
Nb3 Si1 2.609388 1_556
Nb3 Si1 2.609391 1_656
Nb3 Si0 2.696839 1_555
Nb3 Si0 2.696841 1_655
Nb3 Si2 2.772807 1_555
Nb4 Si0 2.609388 1_565
Nb4 Si0 2.609390 1_465
Nb4 Si2 2.696839 1_555
Nb4 Si2 2.696841 1_455
Nb4 Si3 2.772807 1_555
Cu0 Si3 2.323078 1_555
Cu0 Si3 2.323081 1_655
Cu0 Si2 2.359692 1_555
Cu0 Cu2 2.611861 1_555
Cu0 Cu3 2.611863 1_555
Cu0 Cu3 2.611863 1_655
Cu0 Cu2 2.611866 1_655
Cu0 Cu1 2.677818 1_655
Cu0 Nb4 2.916281 1_555
Cu0 Nb4 2.916286 1_655
Cu0 Nb1 2.960686 1_565
Cu0 Nb2 2.965753 1_655
Cu1 Si0 2.323078 1_555
Cu1 Si0 2.323081 1_455
Cu1 Si1 2.359692 1_555
Cu1 Cu3 2.611861 1_555
Cu1 Cu2 2.611863 1_555
Cu1 Cu2 2.611863 1_455
Cu1 Cu3 2.611866 1_455
Cu1 Nb1 2.916281 1_555
Cu1 Nb1 2.916286 1_455
Cu1 Nb4 2.960686 1_545
Cu1 Nb3 2.965753 1_455
Cu2 Si1 2.323078 1_655
Cu2 Si1 2.323081 1_555
Cu2 Si3 2.359692 1_555
Cu2 Cu3 2.677819 1_555
Cu2 Nb2 2.916283 1_655
Cu2 Nb2 2.916284 1_555
Cu2 Nb3 2.960686 1_554
Cu2 Nb1 2.965753 1_555
Cu3 Si2 2.323078 1_455
Cu3 Si2 2.323081 1_555
Cu3 Si0 2.359692 1_555
Cu3 Nb3 2.916283 1_455
Cu3 Nb3 2.916284 1_555
Cu3 Nb2 2.960686 1_556
Cu3 Nb4 2.965753 1_555
