# generated using pymatgen
data_MoCl3
_symmetry_space_group_name_H-M   'P 1'
_cell_length_a   5.82929919
_cell_length_b   5.82929919
_cell_length_c   13.09367860
_cell_angle_alpha   88.73968153
_cell_angle_beta   88.73968153
_cell_angle_gamma   120.13679563
_symmetry_Int_Tables_number   1
_chemical_formula_structural   MoCl3
_chemical_formula_sum   'Mo4 Cl12'
_cell_volume   384.41678348
_cell_formula_units_Z   4
loop_
 _symmetry_equiv_pos_site_id
 _symmetry_equiv_pos_as_xyz
  1  'x, y, z'
loop_
 _atom_site_type_symbol
 _atom_site_label
 _atom_site_symmetry_multiplicity
 _atom_site_fract_x
 _atom_site_fract_y
 _atom_site_fract_z
 _atom_site_occupancy
  Mo  Mo0  1  0.87040100  0.12959900  0.00000000  1
  Mo  Mo1  1  0.12959900  0.87040100  0.00000000  1
  Mo  Mo2  1  0.81336700  0.18663300  0.50000000  1
  Mo  Mo3  1  0.18663300  0.81336700  0.50000000  1
  Cl  Cl0  1  0.83578600  0.83578600  0.40299400  1
  Cl  Cl1  1  0.16421400  0.16421400  0.59700600  1
  Cl  Cl2  1  0.15524400  0.15524400  0.13250400  1
  Cl  Cl3  1  0.84475600  0.84475600  0.86749600  1
  Cl  Cl4  1  0.16848000  0.52141200  0.89533600  1
  Cl  Cl5  1  0.52141200  0.16848000  0.89533600  1
  Cl  Cl6  1  0.83152000  0.47858800  0.10466400  1
  Cl  Cl7  1  0.47858800  0.83152000  0.10466400  1
  Cl  Cl8  1  0.16999300  0.49841800  0.38052600  1
  Cl  Cl9  1  0.49841800  0.16999300  0.38052600  1
  Cl  Cl10  1  0.83000700  0.50158200  0.61947400  1
  Cl  Cl11  1  0.50158200  0.83000700  0.61947400  1
loop_
_geom_bond_atom_site_label_1
_geom_bond_atom_site_label_2
_geom_bond_distance
_geom_bond_site_symmetry_2
Cl0 Mo3 2.487683 1_655
Cl0 Mo2 2.487683 1_565
Cl1 Mo3 2.487683 1_545
Cl1 Mo2 2.487683 1_455
Cl2 Mo1 2.382936 1_545
Cl2 Mo0 2.382936 1_455
Cl3 Mo0 2.382936 1_566
Cl3 Mo1 2.382936 1_656
Cl4 Mo0 2.426203 1_456
Cl4 Mo1 2.576832 1_556
Cl5 Mo1 2.426203 1_546
Cl5 Mo0 2.576832 1_556
Cl6 Mo1 2.426203 1_655
Cl6 Mo0 2.576832 1_555
Cl7 Mo0 2.426203 1_565
Cl7 Mo1 2.576832 1_555
Cl8 Mo3 2.404466 1_555
Cl8 Mo2 2.451555 1_455
Cl9 Mo2 2.404466 1_555
Cl9 Mo3 2.451555 1_545
Cl10 Mo2 2.404466 1_555
Cl10 Mo3 2.451555 1_655
Cl11 Mo3 2.404466 1_555
Cl11 Mo2 2.451555 1_565
