# generated using pymatgen
data_Li3NiN2
_symmetry_space_group_name_H-M   'P 1'
_cell_length_a   8.23322671
_cell_length_b   9.50691109
_cell_length_c   9.50691036
_cell_angle_alpha   90.00000040
_cell_angle_beta   125.26439133
_cell_angle_gamma   54.73561177
_symmetry_Int_Tables_number   1
_chemical_formula_structural   Li3NiN2
_chemical_formula_sum   'Li24 Ni8 N16'
_cell_volume   429.62374787
_cell_formula_units_Z   8
loop_
 _symmetry_equiv_pos_site_id
 _symmetry_equiv_pos_as_xyz
  1  'x, y, z'
loop_
 _atom_site_type_symbol
 _atom_site_label
 _atom_site_symmetry_multiplicity
 _atom_site_fract_x
 _atom_site_fract_y
 _atom_site_fract_z
 _atom_site_occupancy
  Li  Li0  1  0.22661216  0.02911562  0.98426563  1
  Li  Li1  1  0.77338784  0.75572779  0.51573437  1
  Li  Li2  1  0.77338784  0.47088438  0.75765347  1
  Li  Li3  1  0.22661216  0.74427221  0.74234653  1
  Li  Li4  1  0.25808090  0.75765347  0.27146215  1
  Li  Li5  1  0.74191910  0.74234653  0.01338126  1
  Li  Li6  1  0.25808090  0.98426563  0.48661874  1
  Li  Li7  1  0.74191910  0.51573437  0.22853785  1
  Li  Li8  1  0.71515759  0.01338126  0.74427221  1
  Li  Li9  1  0.71515759  0.27146215  0.47088438  1
  Li  Li10  1  0.28484241  0.22853785  0.75572779  1
  Li  Li11  1  0.28484241  0.48661874  0.02911562  1
  Li  Li12  1  0.77338784  0.97088438  0.01573437  1
  Li  Li13  1  0.22661216  0.24427221  0.48426563  1
  Li  Li14  1  0.22661216  0.52911562  0.24234653  1
  Li  Li15  1  0.77338784  0.25572779  0.25765347  1
  Li  Li16  1  0.74191910  0.24234653  0.72853785  1
  Li  Li17  1  0.25808090  0.25765347  0.98661874  1
  Li  Li18  1  0.74191910  0.01573437  0.51338126  1
  Li  Li19  1  0.25808090  0.48426563  0.77146215  1
  Li  Li20  1  0.28484241  0.98661874  0.25572779  1
  Li  Li21  1  0.28484241  0.72853785  0.52911562  1
  Li  Li22  1  0.71515759  0.77146215  0.24427221  1
  Li  Li23  1  0.71515759  0.51338126  0.97088438  1
  Ni  Ni0  1  0.23352249  1.00000000  0.73352249  1
  Ni  Ni1  1  0.76647751  0.73352249  0.76647751  1
  Ni  Ni2  1  0.76647751  0.50000000  0.50000000  1
  Ni  Ni3  1  0.23352249  0.76647751  1.00000000  1
  Ni  Ni4  1  0.76647751  0.00000000  0.26647751  1
  Ni  Ni5  1  0.23352249  0.26647751  0.23352249  1
  Ni  Ni6  1  0.23352249  0.50000000  0.50000000  1
  Ni  Ni7  1  0.76647751  0.23352249  0.00000000  1
  N  N0  1  0.00000000  0.00000000  0.50000000  1
  N  N1  1  0.00000000  0.50000000  -0.00000000  1
  N  N2  1  0.00000000  0.50000000  0.50000000  1
  N  N3  1  0.00000000  -0.00000000  -0.00000000  1
  N  N4  1  0.50000000  0.97111194  0.75000000  1
  N  N5  1  0.50000000  0.52888806  0.25000000  1
  N  N6  1  1.00000000  0.25000000  0.72111194  1
  N  N7  1  0.00000000  0.75000000  0.77888806  1
  N  N8  1  0.55777613  0.72111194  0.52888806  1
  N  N9  1  0.44222387  0.77888806  0.97111194  1
  N  N10  1  0.50000000  0.02888806  0.25000000  1
  N  N11  1  0.50000000  0.47111194  0.75000000  1
  N  N12  1  0.00000000  0.75000000  0.27888806  1
  N  N13  1  1.00000000  0.25000000  0.22111194  1
  N  N14  1  0.44222387  0.27888806  0.47111194  1
  N  N15  1  0.55777613  0.22111194  0.02888806  1
loop_
_geom_bond_atom_site_label_1
_geom_bond_atom_site_label_2
_geom_bond_distance
_geom_bond_site_symmetry_2
Li0 N9 2.050878 1_545
Li0 N6 2.058102 1_455
Li0 N3 2.120993 1_556
Li0 N10 2.208383 1_556
Li1 N8 2.050878 1_555
Li1 N7 2.058101 1_655
Li1 N2 2.120993 1_655
Li1 N10 2.208382 1_565
Li2 N8 2.050878 1_555
Li2 N6 2.058102 1_555
Li2 N1 2.120992 1_656
Li2 N11 2.208383 1_555
Li3 N9 2.050878 1_555
Li3 N7 2.058102 1_555
Li3 N0 2.120993 1_565
Li3 N11 2.208383 1_555
Li4 N5 2.050878 1_555
Li4 N8 2.058102 1_555
Li4 N3 2.120992 1_565
Li4 N12 2.208383 1_555
Li5 N4 2.050878 1_554
Li5 N9 2.058102 1_554
Li5 N1 2.120993 1_655
Li5 N12 2.208382 1_655
Li6 N4 2.050878 1_555
Li6 N8 2.058102 1_555
Li6 N0 2.120993 1_565
Li6 N13 2.208382 1_465
Li7 N5 2.050878 1_555
Li7 N9 2.058102 1_554
Li7 N2 2.120992 1_655
Li7 N13 2.208383 1_555
Li8 N7 2.050875 1_645
Li8 N4 2.058110 1_545
Li8 N3 2.120989 1_656
Li8 N14 2.208380 1_555
Li9 N6 2.050874 1_555
Li9 N5 2.058098 1_555
Li9 N0 2.120990 1_655
Li9 N14 2.208391 1_555
Li10 N6 2.050870 1_455
Li10 N4 2.058103 1_545
Li10 N2 2.120995 1_555
Li10 N15 2.208385 1_556
Li11 N7 2.050880 1_554
Li11 N5 2.058105 1_555
Li11 N1 2.120985 1_555
Li11 N15 2.208386 1_555
Li12 N15 2.050878 1_565
Li12 N12 2.058102 1_655
Li12 N3 2.120993 1_665
Li12 N4 2.208383 1_554
Li13 N14 2.050878 1_555
Li13 N13 2.058101 1_455
Li13 N2 2.120993 1_555
Li13 N4 2.208382 1_545
Li14 N14 2.050878 1_555
Li14 N12 2.058102 1_555
Li14 N1 2.120992 1_555
Li14 N5 2.208383 1_555
Li15 N15 2.050878 1_555
Li15 N13 2.058102 1_555
Li15 N0 2.120993 1_655
Li15 N5 2.208383 1_555
Li16 N11 2.050878 1_555
Li16 N14 2.058102 1_555
Li16 N3 2.120992 1_656
Li16 N6 2.208383 1_555
Li17 N10 2.050878 1_556
Li17 N15 2.058102 1_556
Li17 N1 2.120993 1_556
Li17 N6 2.208382 1_455
Li18 N10 2.050878 1_555
Li18 N14 2.058102 1_555
Li18 N0 2.120993 1_655
Li18 N7 2.208382 1_645
Li19 N11 2.050878 1_555
Li19 N15 2.058102 1_556
Li19 N2 2.120992 1_555
Li19 N7 2.208383 1_555
Li20 N13 2.050875 1_465
Li20 N10 2.058110 1_565
Li20 N3 2.120989 1_565
Li20 N8 2.208380 1_555
Li21 N12 2.050874 1_555
Li21 N11 2.058098 1_555
Li21 N0 2.120990 1_565
Li21 N8 2.208391 1_555
Li22 N12 2.050870 1_655
Li22 N10 2.058103 1_565
Li22 N2 2.120995 1_655
Li22 N9 2.208385 1_554
Li23 N13 2.050880 1_556
Li23 N11 2.058105 1_555
Li23 N1 2.120985 1_656
Li23 N9 2.208386 1_555
N0 Ni0 1.922643 1_545
N0 Ni4 1.922643 1_455
N1 Ni1 1.922643 1_454
N1 Ni5 1.922643 1_555
N2 Ni6 1.922644 1_555
N2 Ni2 1.922644 1_455
N3 Ni7 1.922644 1_455
N3 Ni3 1.922644 1_544
N4 Ni0 1.954701 1_555
N4 Ni1 1.954701 1_555
N5 Ni2 1.954701 1_555
N5 Ni3 1.954701 1_554
N6 Ni2 1.954701 1_555
N6 Ni0 1.954701 1_645
N7 Ni3 1.954701 1_555
N7 Ni1 1.954701 1_455
N8 Ni1 1.954701 1_555
N8 Ni2 1.954701 1_555
N9 Ni0 1.954701 1_555
N9 Ni3 1.954701 1_555
N10 Ni4 1.954701 1_555
N10 Ni5 1.954701 1_555
N11 Ni6 1.954701 1_555
N11 Ni7 1.954701 1_556
N12 Ni6 1.954701 1_555
N12 Ni4 1.954701 1_465
N13 Ni7 1.954701 1_555
N13 Ni5 1.954701 1_655
N14 Ni5 1.954701 1_555
N14 Ni6 1.954701 1_555
N15 Ni4 1.954701 1_555
N15 Ni7 1.954701 1_555
