# generated using pymatgen
data_Ce2Zn(SeO)2
_symmetry_space_group_name_H-M   'P 1'
_cell_length_a   5.62700993
_cell_length_b   16.92183580
_cell_length_c   16.92183580
_cell_angle_alpha   64.08499793
_cell_angle_beta   80.42928520
_cell_angle_gamma   80.42928520
_symmetry_Int_Tables_number   1
_chemical_formula_structural   Ce2Zn(SeO)2
_chemical_formula_sum   'Ce20 Zn10 Se20 O20'
_cell_volume   1421.10798257
_cell_formula_units_Z   10
loop_
 _symmetry_equiv_pos_site_id
 _symmetry_equiv_pos_as_xyz
  1  'x, y, z'
loop_
 _atom_site_type_symbol
 _atom_site_label
 _atom_site_symmetry_multiplicity
 _atom_site_fract_x
 _atom_site_fract_y
 _atom_site_fract_z
 _atom_site_occupancy
  Ce  Ce0  1  0.55773365  0.01938814  0.38084350  1
  Ce  Ce1  1  0.04203470  0.38084350  0.01938814  1
  Ce  Ce2  1  0.45796530  0.48061186  0.11915650  1
  Ce  Ce3  1  0.94226635  0.11915650  0.48061186  1
  Ce  Ce4  1  0.44226635  0.98061186  0.61915650  1
  Ce  Ce5  1  0.95796530  0.61915650  0.98061186  1
  Ce  Ce6  1  0.54203470  0.51938814  0.88084350  1
  Ce  Ce7  1  0.05773365  0.88084350  0.51938814  1
  Ce  Ce8  1  0.32831389  0.21933427  0.58102169  1
  Ce  Ce9  1  0.87133014  0.58102169  0.21933427  1
  Ce  Ce10  1  0.62866986  0.28066573  0.91897831  1
  Ce  Ce11  1  0.17168611  0.91897831  0.28066573  1
  Ce  Ce12  1  0.67168611  0.78066573  0.41897831  1
  Ce  Ce13  1  0.12866986  0.41897831  0.78066573  1
  Ce  Ce14  1  0.37133014  0.71933427  0.08102169  1
  Ce  Ce15  1  0.82831389  0.08102169  0.71933427  1
  Ce  Ce16  1  0.72604608  0.31950153  0.68049847  1
  Ce  Ce17  1  0.27395392  0.68049847  0.31950153  1
  Ce  Ce18  1  0.22604608  0.18049847  0.81950153  1
  Ce  Ce19  1  0.77395392  0.81950153  0.18049847  1
  Zn  Zn0  1  0.94394340  0.55605660  0.55605660  1
  Zn  Zn1  1  0.55605660  0.94394340  0.94394340  1
  Zn  Zn2  1  0.05605660  0.44394340  0.44394340  1
  Zn  Zn3  1  0.44394340  0.05605660  0.05605660  1
  Zn  Zn4  1  0.34826271  0.65173729  0.65173729  1
  Zn  Zn5  1  0.15173729  0.84826271  0.84826271  1
  Zn  Zn6  1  0.65173729  0.34826271  0.34826271  1
  Zn  Zn7  1  0.84826271  0.15173729  0.15173729  1
  Zn  Zn8  1  0.75000000  0.75000000  0.75000000  1
  Zn  Zn9  1  0.25000000  0.25000000  0.25000000  1
  Se  Se0  1  0.54575423  0.28645868  0.11355880  1
  Se  Se1  1  0.05422829  0.11355880  0.28645868  1
  Se  Se2  1  0.44577171  0.21354132  0.38644120  1
  Se  Se3  1  0.95424577  0.38644120  0.21354132  1
  Se  Se4  1  0.45424577  0.71354132  0.88644120  1
  Se  Se5  1  0.94577171  0.88644120  0.71354132  1
  Se  Se6  1  0.55422829  0.78645868  0.61355880  1
  Se  Se7  1  0.04575423  0.61355880  0.78645868  1
  Se  Se8  1  0.36589312  0.48653610  0.31224141  1
  Se  Se9  1  0.83532937  0.31224141  0.48653610  1
  Se  Se10  1  0.66467063  0.01346390  0.18775859  1
  Se  Se11  1  0.13410688  0.18775859  0.01346390  1
  Se  Se12  1  0.63410688  0.51346390  0.68775859  1
  Se  Se13  1  0.16467063  0.68775859  0.51346390  1
  Se  Se14  1  0.33532937  0.98653610  0.81224141  1
  Se  Se15  1  0.86589312  0.81224141  0.98653610  1
  Se  Se16  1  0.78029018  0.58613591  0.41386409  1
  Se  Se17  1  0.21970982  0.41386409  0.58613591  1
  Se  Se18  1  0.28029018  0.91386409  0.08613591  1
  Se  Se19  1  0.71970982  0.08613591  0.91386409  1
  O  O0  1  0.75000000  0.50224051  0.99775949  1
  O  O1  1  0.75000000  0.99775949  0.50224051  1
  O  O2  1  0.25000000  0.49775949  0.00224051  1
  O  O3  1  0.25000000  0.00224051  0.49775949  1
  O  O4  1  0.16410797  0.60137611  0.09857581  1
  O  O5  1  0.13594011  0.09857581  0.60137611  1
  O  O6  1  0.36405989  0.89862389  0.40142419  1
  O  O7  1  0.33589203  0.40142419  0.89862389  1
  O  O8  1  0.83589203  0.39862389  0.90142419  1
  O  O9  1  0.86405989  0.90142419  0.39862389  1
  O  O10  1  0.63594011  0.10137611  0.59857581  1
  O  O11  1  0.66410797  0.59857581  0.10137611  1
  O  O12  1  0.57415957  0.69992906  0.19991574  1
  O  O13  1  0.52599563  0.19991574  0.69992906  1
  O  O14  1  0.97400437  0.80007094  0.30008426  1
  O  O15  1  0.92584043  0.30008426  0.80007094  1
  O  O16  1  0.42584043  0.30007094  0.80008426  1
  O  O17  1  0.47400437  0.80008426  0.30007094  1
  O  O18  1  0.02599563  0.19992906  0.69991574  1
  O  O19  1  0.07415957  0.69991574  0.19992906  1
loop_
_geom_bond_atom_site_label_1
_geom_bond_atom_site_label_2
_geom_bond_distance
_geom_bond_site_symmetry_2
Ce0 O1 2.339788 1_545
Ce0 O6 2.340375 1_545
Ce0 O3 2.350104 1_555
Ce0 O9 2.355775 1_545
Ce0 Se10 3.264993 1_555
Ce0 Se1 3.266114 1_655
Ce0 Se2 3.280825 1_555
Ce0 Se1 3.300949 1_555
Ce1 O0 2.339788 1_454
Ce1 O7 2.340375 1_554
Ce1 O2 2.350104 1_555
Ce1 O8 2.355775 1_454
Ce1 Se11 3.264993 1_555
Ce1 Se0 3.266114 1_455
Ce1 Se3 3.280825 1_455
Ce1 Se0 3.300949 1_555
Ce2 O0 2.339788 1_554
Ce2 O4 2.340375 1_555
Ce2 O2 2.350104 1_555
Ce2 O11 2.355775 1_555
Ce2 Se8 3.264993 1_555
Ce2 Se3 3.266114 1_555
Ce2 Se0 3.280825 1_555
Ce2 Se3 3.300949 1_455
Ce3 O1 2.339788 1_545
Ce3 O5 2.340375 1_655
Ce3 O3 2.350104 1_655
Ce3 O10 2.355775 1_555
Ce3 Se9 3.264993 1_555
Ce3 Se2 3.266114 1_555
Ce3 Se1 3.280825 1_655
Ce3 Se2 3.300949 1_655
Ce4 O3 2.339788 1_565
Ce4 O10 2.340375 1_565
Ce4 O1 2.350104 1_555
Ce4 O5 2.355775 1_565
Ce4 Se14 3.264993 1_555
Ce4 Se5 3.266114 1_455
Ce4 Se6 3.280825 1_555
Ce4 Se5 3.300949 1_555
Ce5 O2 2.339788 1_656
Ce5 O11 2.340375 1_556
Ce5 O0 2.350104 1_555
Ce5 O4 2.355775 1_656
Ce5 Se15 3.264993 1_555
Ce5 Se4 3.266114 1_655
Ce5 Se7 3.280825 1_655
Ce5 Se4 3.300949 1_555
Ce6 O2 2.339788 1_556
Ce6 O8 2.340375 1_555
Ce6 O0 2.350104 1_555
Ce6 O7 2.355775 1_555
Ce6 Se12 3.264993 1_555
Ce6 Se7 3.266114 1_555
Ce6 Se4 3.280825 1_555
Ce6 Se7 3.300949 1_655
Ce7 O3 2.339788 1_565
Ce7 O9 2.340375 1_455
Ce7 O1 2.350104 1_455
Ce7 O6 2.355775 1_555
Ce7 Se13 3.264993 1_555
Ce7 Se6 3.266114 1_555
Ce7 Se5 3.280825 1_455
Ce7 Se6 3.300949 1_455
Ce8 O13 2.332121 1_555
Ce8 O5 2.337199 1_555
Ce8 O18 2.349402 1_555
Ce8 O10 2.360657 1_555
Ce8 Se9 3.248200 1_455
Ce8 Se17 3.283198 1_555
Ce8 Se2 3.290132 1_555
Ce8 Se9 3.308336 1_555
Ce9 O12 2.332121 1_555
Ce9 O4 2.337199 1_655
Ce9 O19 2.349402 1_655
Ce9 O11 2.360657 1_555
Ce9 Se8 3.248200 1_655
Ce9 Se16 3.283198 1_555
Ce9 Se3 3.290132 1_555
Ce9 Se8 3.308336 1_555
Ce10 O15 2.332121 1_555
Ce10 O7 2.337199 1_555
Ce10 O16 2.349402 1_555
Ce10 O8 2.360657 1_555
Ce10 Se11 3.248200 1_556
Ce10 Se19 3.283198 1_555
Ce10 Se0 3.290132 1_556
Ce10 Se11 3.308336 1_656
Ce11 O14 2.332121 1_455
Ce11 O6 2.337199 1_555
Ce11 O17 2.349402 1_555
Ce11 O9 2.360657 1_455
Ce11 Se10 3.248200 1_565
Ce11 Se18 3.283198 1_555
Ce11 Se1 3.290132 1_565
Ce11 Se10 3.308336 1_465
Ce12 O17 2.332121 1_555
Ce12 O9 2.337199 1_555
Ce12 O14 2.349402 1_555
Ce12 O6 2.360657 1_555
Ce12 Se13 3.248200 1_655
Ce12 Se16 3.283198 1_555
Ce12 Se6 3.290132 1_555
Ce12 Se13 3.308336 1_555
Ce13 O16 2.332121 1_555
Ce13 O8 2.337199 1_455
Ce13 O15 2.349402 1_455
Ce13 O7 2.360657 1_555
Ce13 Se12 3.248200 1_455
Ce13 Se17 3.283198 1_555
Ce13 Se7 3.290132 1_555
Ce13 Se12 3.308336 1_555
Ce14 O19 2.332121 1_555
Ce14 O11 2.337199 1_555
Ce14 O12 2.349402 1_555
Ce14 O4 2.360657 1_555
Ce14 Se15 3.248200 1_554
Ce14 Se18 3.283198 1_555
Ce14 Se4 3.290132 1_554
Ce14 Se15 3.308336 1_454
Ce15 O18 2.332121 1_655
Ce15 O10 2.337199 1_555
Ce15 O13 2.349402 1_555
Ce15 O5 2.360657 1_655
Ce15 Se14 3.248200 1_545
Ce15 Se19 3.283198 1_555
Ce15 Se5 3.290132 1_545
Ce15 Se14 3.308336 1_645
Ce16 O15 2.349140 1_555
Ce16 O18 2.349140 1_655
Ce16 O13 2.350130 1_555
Ce16 O16 2.350130 1_555
Ce16 Se17 3.253807 1_655
Ce16 Se12 3.289719 1_555
Ce16 Se9 3.289719 1_555
Ce16 Se17 3.314893 1_555
Ce17 O19 2.349140 1_555
Ce17 O14 2.349140 1_455
Ce17 O17 2.350130 1_555
Ce17 O12 2.350130 1_555
Ce17 Se16 3.253807 1_455
Ce17 Se8 3.289719 1_555
Ce17 Se13 3.289719 1_555
Ce17 Se16 3.314893 1_555
Ce18 O16 2.349140 1_555
Ce18 O13 2.349140 1_555
Ce18 O18 2.350130 1_555
Ce18 O15 2.350130 1_455
Ce18 Se19 3.253807 1_555
Ce18 Se11 3.289719 1_556
Ce18 Se14 3.289719 1_545
Ce18 Se19 3.314893 1_455
Ce19 O12 2.349140 1_555
Ce19 O17 2.349140 1_555
Ce19 O14 2.350130 1_555
Ce19 O19 2.350130 1_655
Ce19 Se18 3.253807 1_555
Ce19 Se15 3.289719 1_554
Ce19 Se10 3.289719 1_565
Ce19 Se18 3.314893 1_655
Se0 Zn9 2.509900 1_555
Se0 Zn7 2.509986 1_555
Se1 Zn9 2.509900 1_555
Se1 Zn7 2.509986 1_455
Se2 Zn9 2.509900 1_555
Se2 Zn6 2.509986 1_555
Se3 Zn9 2.509900 1_655
Se3 Zn6 2.509986 1_555
Se4 Zn8 2.509900 1_555
Se4 Zn5 2.509986 1_555
Se5 Zn8 2.509900 1_555
Se5 Zn5 2.509986 1_655
Se6 Zn8 2.509900 1_555
Se6 Zn4 2.509986 1_555
Se7 Zn8 2.509900 1_455
Se7 Zn4 2.509986 1_555
Se8 Zn2 2.499545 1_555
Se8 Zn6 2.502279 1_555
Se9 Zn2 2.499545 1_655
Se9 Zn6 2.502279 1_555
Se10 Zn3 2.499545 1_555
Se10 Zn7 2.502279 1_555
Se11 Zn3 2.499545 1_555
Se11 Zn7 2.502279 1_455
Se12 Zn0 2.499545 1_555
Se12 Zn4 2.502279 1_555
Se13 Zn0 2.499545 1_455
Se13 Zn4 2.502279 1_555
Se14 Zn1 2.499545 1_555
Se14 Zn5 2.502279 1_555
Se15 Zn1 2.499545 1_555
Se15 Zn5 2.502279 1_655
Se16 Zn0 2.531232 1_555
Se16 Zn2 2.531232 1_655
Se17 Zn2 2.531232 1_555
Se17 Zn0 2.531232 1_455
Se18 Zn3 2.531232 1_565
Se18 Zn1 2.531232 1_554
Se19 Zn1 2.531232 1_545
Se19 Zn3 2.531232 1_556
