# generated using pymatgen
data_RbMg14Ti
_symmetry_space_group_name_H-M   'P 1'
_cell_length_a   6.53346777
_cell_length_b   6.62123868
_cell_length_c   10.45936693
_cell_angle_alpha   90.00000000
_cell_angle_beta   90.00000000
_cell_angle_gamma   120.44540434
_symmetry_Int_Tables_number   1
_chemical_formula_structural   RbMg14Ti
_chemical_formula_sum   'Rb1 Mg14 Ti1'
_cell_volume   390.07874062
_cell_formula_units_Z   1
loop_
 _symmetry_equiv_pos_site_id
 _symmetry_equiv_pos_as_xyz
  1  'x, y, z'
loop_
 _atom_site_type_symbol
 _atom_site_label
 _atom_site_symmetry_multiplicity
 _atom_site_fract_x
 _atom_site_fract_y
 _atom_site_fract_z
 _atom_site_occupancy
  Rb  Rb0  1  0.15951851  0.82975876  0.12500000  1
  Mg  Mg0  1  0.16592633  0.33296267  0.62500000  1
  Mg  Mg1  1  0.16840449  0.83420174  0.62500000  1
  Mg  Mg2  1  0.66166360  0.33136337  0.12500000  1
  Mg  Mg3  1  0.66690780  0.33057715  0.62500000  1
  Mg  Mg4  1  0.66166360  0.83029923  0.12500000  1
  Mg  Mg5  1  0.66690780  0.83632965  0.62500000  1
  Mg  Mg6  1  0.33546704  0.18144931  0.38271435  1
  Mg  Mg7  1  0.33546704  0.18144931  0.86728565  1
  Mg  Mg8  1  0.33546704  0.65401873  0.38271435  1
  Mg  Mg9  1  0.33546704  0.65401873  0.86728565  1
  Mg  Mg10  1  0.84070108  0.17035104  0.36781732  1
  Mg  Mg11  1  0.84070108  0.17035104  0.88218268  1
  Mg  Mg12  1  0.81841350  0.65920725  0.38976414  1
  Mg  Mg13  1  0.81841350  0.65920725  0.86023586  1
  Ti  Ti0  1  0.18891053  0.34445476  0.12500000  1
loop_
_geom_bond_atom_site_label_1
_geom_bond_atom_site_label_2
_geom_bond_distance
_geom_bond_site_symmetry_2
Rb0 Ti0 3.314756 1_565
Rb0 Ti0 3.314756 1_555
Mg0 Mg6 3.127540 1_555
Mg0 Mg7 3.127540 1_555
Mg0 Mg9 3.127546 1_555
Mg0 Mg8 3.127546 1_555
Mg0 Mg5 3.252346 1_445
Mg0 Mg3 3.252346 1_455
Mg0 Mg11 3.254479 1_455
Mg0 Mg10 3.254479 1_455
Mg0 Mg5 3.281178 1_555
Mg0 Mg3 3.281178 1_555
Mg0 Mg1 3.310649 1_555
Mg0 Mg1 3.310649 1_545
Mg1 Mg13 3.152759 1_455
Mg1 Mg12 3.152759 1_455
Mg1 Mg8 3.218125 1_555
Mg1 Mg9 3.218125 1_555
Mg1 Mg6 3.218132 1_565
Mg1 Mg7 3.218132 1_565
Mg1 Mg3 3.249838 1_565
Mg1 Mg5 3.249839 1_555
Mg1 Mg3 3.283674 1_455
Mg1 Mg5 3.283674 1_455
Mg2 Ti0 3.133531 1_555
Mg2 Rb0 3.254534 1_655
Mg2 Mg7 3.263323 1_554
Mg2 Mg6 3.263323 1_555
Mg2 Rb0 3.278937 1_545
Mg2 Mg4 3.303573 1_555
Mg2 Mg4 3.317665 1_545
Mg2 Ti0 3.401649 1_655
Mg3 Mg6 3.149477 1_555
Mg3 Mg7 3.149477 1_555
Mg3 Mg5 3.272531 1_545
Mg3 Mg5 3.348708 1_555
Mg4 Ti0 3.133531 1_555
Mg4 Rb0 3.254534 1_655
Mg4 Mg9 3.263322 1_554
Mg4 Mg8 3.263322 1_555
Mg4 Rb0 3.278937 1_555
Mg4 Ti0 3.401649 1_665
Mg5 Mg8 3.149476 1_555
Mg5 Mg9 3.149476 1_555
Mg6 Mg8 3.128995 1_555
Mg6 Ti0 3.224119 1_555
Mg6 Rb0 3.361103 1_545
Mg6 Mg8 3.492244 1_545
Mg7 Mg9 3.128995 1_555
Mg7 Ti0 3.224119 1_556
Mg7 Rb0 3.361103 1_546
Mg7 Mg9 3.492244 1_545
Mg8 Ti0 3.224126 1_555
Mg8 Rb0 3.361096 1_555
Mg9 Ti0 3.224126 1_556
Mg9 Rb0 3.361096 1_556
Mg10 Mg2 3.196688 1_555
Mg10 Mg4 3.196695 1_545
Mg10 Mg8 3.199725 1_655
Mg10 Mg6 3.199726 1_655
Mg10 Ti0 3.208882 1_655
Mg10 Mg3 3.297200 1_555
Mg10 Mg5 3.297206 1_545
Mg10 Mg12 3.320942 1_545
Mg10 Mg12 3.320942 1_555
Mg10 Mg8 3.342401 1_545
Mg10 Mg6 3.342401 1_555
Mg11 Mg2 3.196688 1_556
Mg11 Mg4 3.196695 1_546
Mg11 Mg9 3.199725 1_655
Mg11 Mg7 3.199726 1_655
Mg11 Ti0 3.208882 1_656
Mg11 Mg3 3.297200 1_555
Mg11 Mg5 3.297206 1_545
Mg11 Mg13 3.320942 1_545
Mg11 Mg13 3.320942 1_555
Mg11 Mg9 3.342401 1_545
Mg11 Mg7 3.342401 1_555
Mg12 Mg5 3.096019 1_555
Mg12 Mg3 3.096026 1_555
Mg12 Mg6 3.138913 1_555
Mg12 Mg8 3.138913 1_555
Mg12 Mg4 3.343162 1_555
Mg12 Mg2 3.343169 1_555
Mg12 Rb0 3.370495 1_655
Mg12 Mg6 3.396490 1_665
Mg12 Mg8 3.396490 1_655
Mg13 Mg5 3.096019 1_555
Mg13 Mg3 3.096026 1_555
Mg13 Mg7 3.138913 1_555
Mg13 Mg9 3.138913 1_555
Mg13 Mg4 3.343162 1_556
Mg13 Mg2 3.343169 1_556
Mg13 Rb0 3.370495 1_656
Mg13 Mg7 3.396490 1_665
Mg13 Mg9 3.396490 1_655
