# generated using pymatgen
data_Zr2InNi2
_symmetry_space_group_name_H-M   'P 1'
_cell_length_a   6.63505468
_cell_length_b   14.36734846
_cell_length_c   14.36734846
_cell_angle_alpha   90.00000000
_cell_angle_beta   90.00000000
_cell_angle_gamma   90.00000000
_symmetry_Int_Tables_number   1
_chemical_formula_structural   Zr2InNi2
_chemical_formula_sum   'Zr32 In16 Ni32'
_cell_volume   1369.61264333
_cell_formula_units_Z   16
loop_
 _symmetry_equiv_pos_site_id
 _symmetry_equiv_pos_as_xyz
  1  'x, y, z'
loop_
 _atom_site_type_symbol
 _atom_site_label
 _atom_site_symmetry_multiplicity
 _atom_site_fract_x
 _atom_site_fract_y
 _atom_site_fract_z
 _atom_site_occupancy
  Zr  Zr0_0  1  0.25000000  0.33381193  0.08381192  1
  Zr  Zr0_1  1  0.25000000  0.33381193  0.58381192  1
  Zr  Zr0_2  1  0.25000000  0.83381193  0.08381192  1
  Zr  Zr0_3  1  0.25000000  0.83381193  0.58381192  1
  Zr  Zr0_4  1  0.75000000  0.33381193  0.08381192  1
  Zr  Zr0_5  1  0.75000000  0.33381193  0.58381192  1
  Zr  Zr0_6  1  0.75000000  0.83381193  0.08381192  1
  Zr  Zr0_7  1  0.75000000  0.83381193  0.58381192  1
  Zr  Zr1_0  1  0.25000000  0.41618807  0.33381193  1
  Zr  Zr1_1  1  0.25000000  0.41618807  0.83381193  1
  Zr  Zr1_2  1  0.25000000  0.91618807  0.33381193  1
  Zr  Zr1_3  1  0.25000000  0.91618807  0.83381193  1
  Zr  Zr1_4  1  0.75000000  0.41618807  0.33381193  1
  Zr  Zr1_5  1  0.75000000  0.41618807  0.83381193  1
  Zr  Zr1_6  1  0.75000000  0.91618807  0.33381193  1
  Zr  Zr1_7  1  0.75000000  0.91618807  0.83381193  1
  Zr  Zr2_0  1  0.25000000  0.08381192  0.16618807  1
  Zr  Zr2_1  1  0.25000000  0.08381192  0.66618807  1
  Zr  Zr2_2  1  0.25000000  0.58381192  0.16618807  1
  Zr  Zr2_3  1  0.25000000  0.58381192  0.66618807  1
  Zr  Zr2_4  1  0.75000000  0.08381192  0.16618807  1
  Zr  Zr2_5  1  0.75000000  0.08381192  0.66618807  1
  Zr  Zr2_6  1  0.75000000  0.58381192  0.16618807  1
  Zr  Zr2_7  1  0.75000000  0.58381192  0.66618807  1
  Zr  Zr3_0  1  0.25000000  0.16618807  0.41618807  1
  Zr  Zr3_1  1  0.25000000  0.16618807  0.91618807  1
  Zr  Zr3_2  1  0.25000000  0.66618807  0.41618807  1
  Zr  Zr3_3  1  0.25000000  0.66618807  0.91618807  1
  Zr  Zr3_4  1  0.75000000  0.16618807  0.41618807  1
  Zr  Zr3_5  1  0.75000000  0.16618807  0.91618807  1
  Zr  Zr3_6  1  0.75000000  0.66618807  0.41618807  1
  Zr  Zr3_7  1  0.75000000  0.66618807  0.91618807  1
  In  In0_0  1  0.00000000  0.00000000  0.00000000  1
  In  In0_1  1  0.00000000  0.00000000  0.50000000  1
  In  In0_2  1  0.00000000  0.50000000  0.00000000  1
  In  In0_3  1  0.00000000  0.50000000  0.50000000  1
  In  In0_4  1  0.50000000  0.00000000  0.00000000  1
  In  In0_5  1  0.50000000  0.00000000  0.50000000  1
  In  In0_6  1  0.50000000  0.50000000  0.00000000  1
  In  In0_7  1  0.50000000  0.50000000  0.50000000  1
  In  In1_0  1  0.00000000  0.25000000  0.25000000  1
  In  In1_1  1  0.00000000  0.25000000  0.75000000  1
  In  In1_2  1  0.00000000  0.75000000  0.25000000  1
  In  In1_3  1  0.00000000  0.75000000  0.75000000  1
  In  In1_4  1  0.50000000  0.25000000  0.25000000  1
  In  In1_5  1  0.50000000  0.25000000  0.75000000  1
  In  In1_6  1  0.50000000  0.75000000  0.25000000  1
  In  In1_7  1  0.50000000  0.75000000  0.75000000  1
  Ni  Ni0_0  1  0.00000000  0.18761900  0.06238100  1
  Ni  Ni0_1  1  0.00000000  0.18761900  0.56238100  1
  Ni  Ni0_2  1  0.00000000  0.68761900  0.06238100  1
  Ni  Ni0_3  1  0.00000000  0.68761900  0.56238100  1
  Ni  Ni0_4  1  0.50000000  0.18761900  0.06238100  1
  Ni  Ni0_5  1  0.50000000  0.18761900  0.56238100  1
  Ni  Ni0_6  1  0.50000000  0.68761900  0.06238100  1
  Ni  Ni0_7  1  0.50000000  0.68761900  0.56238100  1
  Ni  Ni1_0  1  0.00000000  0.43761900  0.18761900  1
  Ni  Ni1_1  1  0.00000000  0.43761900  0.68761900  1
  Ni  Ni1_2  1  0.00000000  0.93761900  0.18761900  1
  Ni  Ni1_3  1  0.00000000  0.93761900  0.68761900  1
  Ni  Ni1_4  1  0.50000000  0.43761900  0.18761900  1
  Ni  Ni1_5  1  0.50000000  0.43761900  0.68761900  1
  Ni  Ni1_6  1  0.50000000  0.93761900  0.18761900  1
  Ni  Ni1_7  1  0.50000000  0.93761900  0.68761900  1
  Ni  Ni2_0  1  0.00000000  0.06238100  0.31238100  1
  Ni  Ni2_1  1  0.00000000  0.06238100  0.81238100  1
  Ni  Ni2_2  1  0.00000000  0.56238100  0.31238100  1
  Ni  Ni2_3  1  0.00000000  0.56238100  0.81238100  1
  Ni  Ni2_4  1  0.50000000  0.06238100  0.31238100  1
  Ni  Ni2_5  1  0.50000000  0.06238100  0.81238100  1
  Ni  Ni2_6  1  0.50000000  0.56238100  0.31238100  1
  Ni  Ni2_7  1  0.50000000  0.56238100  0.81238100  1
  Ni  Ni3_0  1  0.00000000  0.31238100  0.43761900  1
  Ni  Ni3_1  1  0.00000000  0.31238100  0.93761900  1
  Ni  Ni3_2  1  0.00000000  0.81238100  0.43761900  1
  Ni  Ni3_3  1  0.00000000  0.81238100  0.93761900  1
  Ni  Ni3_4  1  0.50000000  0.31238100  0.43761900  1
  Ni  Ni3_5  1  0.50000000  0.31238100  0.93761900  1
  Ni  Ni3_6  1  0.50000000  0.81238100  0.43761900  1
  Ni  Ni3_7  1  0.50000000  0.81238100  0.93761900  1
loop_
_geom_bond_atom_site_label_1
_geom_bond_atom_site_label_2
_geom_bond_distance
_geom_bond_site_symmetry_2
In0_0 Ni0_0 2.840679 1_555
In0_0 Ni1_2 2.840679 1_545
In0_0 Ni2_1 2.840679 1_554
In0_0 Ni3_3 2.840679 1_544
In0_0 Zr0_2 3.146826 1_545
In0_0 Zr2_4 3.146826 1_455
In0_0 Zr2_0 3.146826 1_555
In0_0 Zr0_6 3.146826 1_445
In0_0 Zr3_5 3.146826 1_454
In0_0 Zr3_1 3.146826 1_554
In0_0 Zr1_3 3.146826 1_544
In0_0 Zr1_7 3.146826 1_444
In0_0 In0_4 3.317527 1_555
In0_0 In0_4 3.317527 1_455
In0_1 Ni0_1 2.840679 1_555
In0_1 Ni1_3 2.840679 1_545
In0_1 Ni2_0 2.840679 1_555
In0_1 Ni3_2 2.840679 1_545
In0_1 Zr2_1 3.146826 1_555
In0_1 Zr2_5 3.146826 1_455
In0_1 Zr0_3 3.146826 1_545
In0_1 Zr0_7 3.146826 1_445
In0_1 Zr3_4 3.146826 1_455
In0_1 Zr1_2 3.146826 1_545
In0_1 Zr1_6 3.146826 1_445
In0_1 Zr3_0 3.146826 1_555
In0_1 In0_5 3.317527 1_455
In0_1 In0_5 3.317527 1_555
In0_2 Ni1_0 2.840679 1_555
In0_2 Ni0_2 2.840679 1_555
In0_2 Ni3_1 2.840679 1_554
In0_2 Ni2_3 2.840679 1_554
In0_2 Zr0_0 3.146826 1_555
In0_2 Zr0_4 3.146826 1_455
In0_2 Zr1_5 3.146826 1_454
In0_2 Zr2_6 3.146826 1_455
In0_2 Zr3_7 3.146826 1_454
In0_2 Zr1_1 3.146826 1_554
In0_2 Zr2_2 3.146826 1_555
In0_2 Zr3_3 3.146826 1_554
In0_2 In0_6 3.317527 1_455
In0_2 In0_6 3.317527 1_555
In0_3 Ni0_3 2.840679 1_555
In0_3 Ni1_1 2.840679 1_555
In0_3 Ni2_2 2.840679 1_555
In0_3 Ni3_0 2.840679 1_555
In0_3 Zr3_6 3.146826 1_455
In0_3 Zr0_5 3.146826 1_455
In0_3 Zr2_3 3.146826 1_555
In0_3 Zr1_4 3.146826 1_455
In0_3 Zr1_0 3.146826 1_555
In0_3 Zr0_1 3.146826 1_555
In0_3 Zr3_2 3.146826 1_555
In0_3 Zr2_7 3.146826 1_455
In0_3 In0_7 3.317527 1_455
In0_3 In0_7 3.317527 1_555
In0_4 Ni0_4 2.840679 1_555
In0_4 Ni1_6 2.840679 1_545
In0_4 Ni2_5 2.840679 1_554
In0_4 Ni3_7 2.840679 1_544
In0_4 Zr0_2 3.146826 1_545
In0_4 Zr0_6 3.146826 1_545
In0_4 Zr2_0 3.146826 1_555
In0_4 Zr2_4 3.146826 1_555
In0_4 Zr1_7 3.146826 1_544
In0_4 Zr3_5 3.146826 1_554
In0_4 Zr3_1 3.146826 1_554
In0_4 Zr1_3 3.146826 1_544
In0_5 Ni0_5 2.840679 1_555
In0_5 Ni1_7 2.840679 1_545
In0_5 Ni2_4 2.840679 1_555
In0_5 Ni3_6 2.840679 1_545
In0_5 Zr2_1 3.146826 1_555
In0_5 Zr2_5 3.146826 1_555
In0_5 Zr0_3 3.146826 1_545
In0_5 Zr0_7 3.146826 1_545
In0_5 Zr1_2 3.146826 1_545
In0_5 Zr3_0 3.146826 1_555
In0_5 Zr1_6 3.146826 1_545
In0_5 Zr3_4 3.146826 1_555
In0_6 Ni0_6 2.840679 1_555
In0_6 Ni1_4 2.840679 1_555
In0_6 Ni3_5 2.840679 1_554
In0_6 Ni2_7 2.840679 1_554
In0_6 Zr0_0 3.146826 1_555
In0_6 Zr0_4 3.146826 1_555
In0_6 Zr1_5 3.146826 1_554
In0_6 Zr3_7 3.146826 1_554
In0_6 Zr1_1 3.146826 1_554
In0_6 Zr2_2 3.146826 1_555
In0_6 Zr2_6 3.146826 1_555
In0_6 Zr3_3 3.146826 1_554
In0_7 Ni0_7 2.840679 1_555
In0_7 Ni1_5 2.840679 1_555
In0_7 Ni2_6 2.840679 1_555
In0_7 Ni3_4 2.840679 1_555
In0_7 Zr0_5 3.146826 1_555
In0_7 Zr2_7 3.146826 1_555
In0_7 Zr3_6 3.146826 1_555
In0_7 Zr1_0 3.146826 1_555
In0_7 Zr1_4 3.146826 1_555
In0_7 Zr0_1 3.146826 1_555
In0_7 Zr3_2 3.146826 1_555
In0_7 Zr2_3 3.146826 1_555
In1_0 Ni3_0 2.840679 1_555
In1_0 Ni2_0 2.840679 1_555
In1_0 Ni1_0 2.840679 1_555
In1_0 Ni0_0 2.840679 1_555
In1_0 Zr3_0 3.146826 1_555
In1_0 Zr3_4 3.146826 1_455
In1_0 Zr1_0 3.146826 1_555
In1_0 Zr1_4 3.146826 1_455
In1_0 Zr2_4 3.146826 1_455
In1_0 Zr0_0 3.146826 1_555
In1_0 Zr0_4 3.146826 1_455
In1_0 Zr2_0 3.146826 1_555
In1_0 In1_4 3.317527 1_555
In1_0 In1_4 3.317527 1_455
In1_1 Ni2_1 2.840679 1_555
In1_1 Ni3_1 2.840679 1_555
In1_1 Ni1_1 2.840679 1_555
In1_1 Ni0_1 2.840679 1_555
In1_1 Zr2_5 3.146826 1_455
In1_1 Zr0_1 3.146826 1_555
In1_1 Zr3_1 3.146826 1_555
In1_1 Zr3_5 3.146826 1_455
In1_1 Zr0_5 3.146826 1_455
In1_1 Zr2_1 3.146826 1_555
In1_1 Zr1_1 3.146826 1_555
In1_1 Zr1_5 3.146826 1_455
In1_1 In1_5 3.317527 1_555
In1_1 In1_5 3.317527 1_455
In1_2 Ni3_2 2.840679 1_555
In1_2 Ni2_2 2.840679 1_555
In1_2 Ni0_2 2.840679 1_555
In1_2 Ni1_2 2.840679 1_555
In1_2 Zr2_6 3.146826 1_455
In1_2 Zr3_6 3.146826 1_455
In1_2 Zr2_2 3.146826 1_555
In1_2 Zr3_2 3.146826 1_555
In1_2 Zr1_6 3.146826 1_455
In1_2 Zr1_2 3.146826 1_555
In1_2 Zr0_6 3.146826 1_455
In1_2 Zr0_2 3.146826 1_555
In1_2 In1_6 3.317527 1_455
In1_2 In1_6 3.317527 1_555
In1_3 Ni2_3 2.840679 1_555
In1_3 Ni3_3 2.840679 1_555
In1_3 Ni0_3 2.840679 1_555
In1_3 Ni1_3 2.840679 1_555
In1_3 Zr3_3 3.146826 1_555
In1_3 Zr3_7 3.146826 1_455
In1_3 Zr2_3 3.146826 1_555
In1_3 Zr2_7 3.146826 1_455
In1_3 Zr1_7 3.146826 1_455
In1_3 Zr1_3 3.146826 1_555
In1_3 Zr0_3 3.146826 1_555
In1_3 Zr0_7 3.146826 1_455
In1_3 In1_7 3.317527 1_555
In1_3 In1_7 3.317527 1_455
In1_4 Ni3_4 2.840679 1_555
In1_4 Ni2_4 2.840679 1_555
In1_4 Ni1_4 2.840679 1_555
In1_4 Ni0_4 2.840679 1_555
In1_4 Zr3_4 3.146826 1_555
In1_4 Zr3_0 3.146826 1_555
In1_4 Zr1_0 3.146826 1_555
In1_4 Zr1_4 3.146826 1_555
In1_4 Zr0_0 3.146826 1_555
In1_4 Zr0_4 3.146826 1_555
In1_4 Zr2_0 3.146826 1_555
In1_4 Zr2_4 3.146826 1_555
In1_5 Ni3_5 2.840679 1_555
In1_5 Ni2_5 2.840679 1_555
In1_5 Ni1_5 2.840679 1_555
In1_5 Ni0_5 2.840679 1_555
In1_5 Zr0_5 3.146826 1_555
In1_5 Zr2_5 3.146826 1_555
In1_5 Zr0_1 3.146826 1_555
In1_5 Zr3_1 3.146826 1_555
In1_5 Zr3_5 3.146826 1_555
In1_5 Zr2_1 3.146826 1_555
In1_5 Zr1_5 3.146826 1_555
In1_5 Zr1_1 3.146826 1_555
In1_6 Ni3_6 2.840679 1_555
In1_6 Ni2_6 2.840679 1_555
In1_6 Ni1_6 2.840679 1_555
In1_6 Ni0_6 2.840679 1_555
In1_6 Zr1_6 3.146826 1_555
In1_6 Zr3_6 3.146826 1_555
In1_6 Zr2_6 3.146826 1_555
In1_6 Zr2_2 3.146826 1_555
In1_6 Zr3_2 3.146826 1_555
In1_6 Zr1_2 3.146826 1_555
In1_6 Zr0_6 3.146826 1_555
In1_6 Zr0_2 3.146826 1_555
In1_7 Ni3_7 2.840679 1_555
In1_7 Ni2_7 2.840679 1_555
In1_7 Ni1_7 2.840679 1_555
In1_7 Ni0_7 2.840679 1_555
In1_7 Zr3_7 3.146826 1_555
In1_7 Zr3_3 3.146826 1_555
In1_7 Zr2_3 3.146826 1_555
In1_7 Zr2_7 3.146826 1_555
In1_7 Zr0_7 3.146826 1_555
In1_7 Zr1_3 3.146826 1_555
In1_7 Zr1_7 3.146826 1_555
In1_7 Zr0_3 3.146826 1_555
Ni0_0 Ni3_1 2.534977 1_554
Ni0_0 Zr2_4 2.683326 1_455
Ni0_0 Zr2_0 2.683326 1_555
Ni0_0 Zr3_5 2.694068 1_454
Ni0_0 Zr3_1 2.694068 1_554
Ni0_0 Zr0_0 2.694068 1_555
Ni0_0 Zr0_4 2.694068 1_455
Ni0_1 Ni3_0 2.534977 1_555
Ni0_1 Zr2_1 2.683326 1_555
Ni0_1 Zr2_5 2.683326 1_455
Ni0_1 Zr3_4 2.694068 1_455
Ni0_1 Zr3_0 2.694068 1_555
Ni0_1 Zr0_5 2.694068 1_455
Ni0_1 Zr0_1 2.694068 1_555
Ni0_2 Ni3_3 2.534977 1_554
Ni0_2 Zr2_6 2.683326 1_455
Ni0_2 Zr2_2 2.683326 1_555
Ni0_2 Zr3_7 2.694068 1_454
Ni0_2 Zr3_3 2.694068 1_554
Ni0_2 Zr0_2 2.694068 1_555
Ni0_2 Zr0_6 2.694068 1_455
Ni0_3 Ni3_2 2.534977 1_555
Ni0_3 Zr2_3 2.683326 1_555
Ni0_3 Zr2_7 2.683326 1_455
Ni0_3 Zr3_2 2.694068 1_555
Ni0_3 Zr3_6 2.694068 1_455
Ni0_3 Zr0_7 2.694068 1_455
Ni0_3 Zr0_3 2.694068 1_555
Ni0_4 Ni3_5 2.534977 1_554
Ni0_4 Zr2_0 2.683326 1_555
Ni0_4 Zr2_4 2.683326 1_555
Ni0_4 Zr3_1 2.694068 1_554
Ni0_4 Zr3_5 2.694068 1_554
Ni0_4 Zr0_0 2.694068 1_555
Ni0_4 Zr0_4 2.694068 1_555
Ni0_5 Ni3_4 2.534977 1_555
Ni0_5 Zr2_1 2.683326 1_555
Ni0_5 Zr2_5 2.683326 1_555
Ni0_5 Zr3_0 2.694068 1_555
Ni0_5 Zr3_4 2.694068 1_555
Ni0_5 Zr0_5 2.694068 1_555
Ni0_5 Zr0_1 2.694068 1_555
Ni0_6 Ni3_7 2.534977 1_554
Ni0_6 Zr2_6 2.683326 1_555
Ni0_6 Zr2_2 2.683326 1_555
Ni0_6 Zr3_7 2.694068 1_554
Ni0_6 Zr3_3 2.694068 1_554
Ni0_6 Zr0_2 2.694068 1_555
Ni0_6 Zr0_6 2.694068 1_555
Ni0_7 Ni3_6 2.534977 1_555
Ni0_7 Zr2_7 2.683326 1_555
Ni0_7 Zr2_3 2.683326 1_555
Ni0_7 Zr3_2 2.694068 1_555
Ni0_7 Zr3_6 2.694068 1_555
Ni0_7 Zr0_7 2.694068 1_555
Ni0_7 Zr0_3 2.694068 1_555
Ni1_0 Ni2_2 2.534977 1_555
Ni1_0 Zr0_0 2.683326 1_555
Ni1_0 Zr0_4 2.683326 1_455
Ni1_0 Zr2_2 2.694068 1_555
Ni1_0 Zr2_6 2.694068 1_455
Ni1_0 Zr1_0 2.694068 1_555
Ni1_0 Zr1_4 2.694068 1_455
Ni1_1 Ni2_3 2.534977 1_555
Ni1_1 Zr0_5 2.683326 1_455
Ni1_1 Zr0_1 2.683326 1_555
Ni1_1 Zr2_3 2.694068 1_555
Ni1_1 Zr2_7 2.694068 1_455
Ni1_1 Zr1_1 2.694068 1_555
Ni1_1 Zr1_5 2.694068 1_455
Ni1_2 Ni2_0 2.534977 1_565
Ni1_2 Zr0_6 2.683326 1_455
Ni1_2 Zr0_2 2.683326 1_555
Ni1_2 Zr2_4 2.694068 1_465
Ni1_2 Zr2_0 2.694068 1_565
Ni1_2 Zr1_2 2.694068 1_555
Ni1_2 Zr1_6 2.694068 1_455
Ni1_3 Ni2_1 2.534977 1_565
Ni1_3 Zr0_3 2.683326 1_555
Ni1_3 Zr0_7 2.683326 1_455
Ni1_3 Zr2_1 2.694068 1_565
Ni1_3 Zr2_5 2.694068 1_465
Ni1_3 Zr1_3 2.694068 1_555
Ni1_3 Zr1_7 2.694068 1_455
Ni1_4 Ni2_6 2.534977 1_555
Ni1_4 Zr0_4 2.683326 1_555
Ni1_4 Zr0_0 2.683326 1_555
Ni1_4 Zr2_2 2.694068 1_555
Ni1_4 Zr2_6 2.694068 1_555
Ni1_4 Zr1_0 2.694068 1_555
Ni1_4 Zr1_4 2.694068 1_555
Ni1_5 Ni2_7 2.534977 1_555
Ni1_5 Zr0_5 2.683326 1_555
Ni1_5 Zr0_1 2.683326 1_555
Ni1_5 Zr2_3 2.694068 1_555
Ni1_5 Zr2_7 2.694068 1_555
Ni1_5 Zr1_1 2.694068 1_555
Ni1_5 Zr1_5 2.694068 1_555
Ni1_6 Ni2_4 2.534977 1_565
Ni1_6 Zr0_2 2.683326 1_555
Ni1_6 Zr0_6 2.683326 1_555
Ni1_6 Zr2_4 2.694068 1_565
Ni1_6 Zr2_0 2.694068 1_565
Ni1_6 Zr1_6 2.694068 1_555
Ni1_6 Zr1_2 2.694068 1_555
Ni1_7 Ni2_5 2.534977 1_565
Ni1_7 Zr0_3 2.683326 1_555
Ni1_7 Zr0_7 2.683326 1_555
Ni1_7 Zr2_1 2.694068 1_565
Ni1_7 Zr2_5 2.694068 1_565
Ni1_7 Zr1_3 2.694068 1_555
Ni1_7 Zr1_7 2.694068 1_555
Ni2_0 Zr3_4 2.683326 1_455
Ni2_0 Zr3_0 2.683326 1_555
Ni2_0 Zr2_0 2.694068 1_555
Ni2_0 Zr2_4 2.694068 1_455
Ni2_0 Zr1_2 2.694068 1_545
Ni2_0 Zr1_6 2.694068 1_445
Ni2_1 Zr3_5 2.683326 1_455
Ni2_1 Zr3_1 2.683326 1_555
Ni2_1 Zr2_5 2.694068 1_455
Ni2_1 Zr2_1 2.694068 1_555
Ni2_1 Zr1_3 2.694068 1_545
Ni2_1 Zr1_7 2.694068 1_445
Ni2_2 Zr3_2 2.683326 1_555
Ni2_2 Zr3_6 2.683326 1_455
Ni2_2 Zr2_6 2.694068 1_455
Ni2_2 Zr2_2 2.694068 1_555
Ni2_2 Zr1_0 2.694068 1_555
Ni2_2 Zr1_4 2.694068 1_455
Ni2_3 Zr3_7 2.683326 1_455
Ni2_3 Zr3_3 2.683326 1_555
Ni2_3 Zr2_3 2.694068 1_555
Ni2_3 Zr2_7 2.694068 1_455
Ni2_3 Zr1_1 2.694068 1_555
Ni2_3 Zr1_5 2.694068 1_455
Ni2_4 Zr3_0 2.683326 1_555
Ni2_4 Zr3_4 2.683326 1_555
Ni2_4 Zr2_0 2.694068 1_555
Ni2_4 Zr2_4 2.694068 1_555
Ni2_4 Zr1_2 2.694068 1_545
Ni2_4 Zr1_6 2.694068 1_545
Ni2_5 Zr3_1 2.683326 1_555
Ni2_5 Zr3_5 2.683326 1_555
Ni2_5 Zr2_5 2.694068 1_555
Ni2_5 Zr2_1 2.694068 1_555
Ni2_5 Zr1_7 2.694068 1_545
Ni2_5 Zr1_3 2.694068 1_545
Ni2_6 Zr3_2 2.683326 1_555
Ni2_6 Zr3_6 2.683326 1_555
Ni2_6 Zr2_2 2.694068 1_555
Ni2_6 Zr2_6 2.694068 1_555
Ni2_6 Zr1_0 2.694068 1_555
Ni2_6 Zr1_4 2.694068 1_555
Ni2_7 Zr3_3 2.683326 1_555
Ni2_7 Zr3_7 2.683326 1_555
Ni2_7 Zr2_3 2.694068 1_555
Ni2_7 Zr2_7 2.694068 1_555
Ni2_7 Zr1_1 2.694068 1_555
Ni2_7 Zr1_5 2.694068 1_555
Ni3_0 Zr1_4 2.683326 1_455
Ni3_0 Zr1_0 2.683326 1_555
Ni3_0 Zr3_4 2.694068 1_455
Ni3_0 Zr3_0 2.694068 1_555
Ni3_0 Zr0_1 2.694068 1_555
Ni3_0 Zr0_5 2.694068 1_455
Ni3_1 Zr1_1 2.683326 1_555
Ni3_1 Zr1_5 2.683326 1_455
Ni3_1 Zr3_1 2.694068 1_555
Ni3_1 Zr3_5 2.694068 1_455
Ni3_1 Zr0_0 2.694068 1_556
Ni3_1 Zr0_4 2.694068 1_456
Ni3_2 Zr1_2 2.683326 1_555
Ni3_2 Zr1_6 2.683326 1_455
Ni3_2 Zr3_2 2.694068 1_555
Ni3_2 Zr3_6 2.694068 1_455
Ni3_2 Zr0_3 2.694068 1_555
Ni3_2 Zr0_7 2.694068 1_455
Ni3_3 Zr1_3 2.683326 1_555
Ni3_3 Zr1_7 2.683326 1_455
Ni3_3 Zr3_3 2.694068 1_555
Ni3_3 Zr3_7 2.694068 1_455
Ni3_3 Zr0_6 2.694068 1_456
Ni3_3 Zr0_2 2.694068 1_556
Ni3_4 Zr1_4 2.683326 1_555
Ni3_4 Zr1_0 2.683326 1_555
Ni3_4 Zr3_4 2.694068 1_555
Ni3_4 Zr3_0 2.694068 1_555
Ni3_4 Zr0_5 2.694068 1_555
Ni3_4 Zr0_1 2.694068 1_555
Ni3_5 Zr1_1 2.683326 1_555
Ni3_5 Zr1_5 2.683326 1_555
Ni3_5 Zr3_1 2.694068 1_555
Ni3_5 Zr3_5 2.694068 1_555
Ni3_5 Zr0_0 2.694068 1_556
Ni3_5 Zr0_4 2.694068 1_556
Ni3_6 Zr1_2 2.683326 1_555
Ni3_6 Zr1_6 2.683326 1_555
Ni3_6 Zr3_6 2.694068 1_555
Ni3_6 Zr3_2 2.694068 1_555
Ni3_6 Zr0_3 2.694068 1_555
Ni3_6 Zr0_7 2.694068 1_555
Ni3_7 Zr1_3 2.683326 1_555
Ni3_7 Zr1_7 2.683326 1_555
Ni3_7 Zr3_3 2.694068 1_555
Ni3_7 Zr3_7 2.694068 1_555
Ni3_7 Zr0_6 2.694068 1_556
Ni3_7 Zr0_2 2.694068 1_556
