# generated using pymatgen
data_Sr2Ca6Mn5(FeO8)3
_symmetry_space_group_name_H-M   'P 1'
_cell_length_a   7.68521703
_cell_length_b   7.68521703
_cell_length_c   7.72217000
_cell_angle_alpha   90.00000000
_cell_angle_beta   90.00000000
_cell_angle_gamma   90.01944207
_symmetry_Int_Tables_number   1
_chemical_formula_structural   Sr2Ca6Mn5(FeO8)3
_chemical_formula_sum   'Sr2 Ca6 Mn5 Fe3 O24'
_cell_volume   456.09110910
_cell_formula_units_Z   1
loop_
 _symmetry_equiv_pos_site_id
 _symmetry_equiv_pos_as_xyz
  1  'x, y, z'
loop_
 _atom_site_type_symbol
 _atom_site_label
 _atom_site_symmetry_multiplicity
 _atom_site_fract_x
 _atom_site_fract_y
 _atom_site_fract_z
 _atom_site_occupancy
  Sr  Sr0  1  0.74937300  0.25062700  0.74953500  1
  Sr  Sr1  1  0.74937300  0.25062700  0.25046500  1
  Ca  Ca0  1  0.25085400  0.25092000  0.74873600  1
  Ca  Ca1  1  0.25092800  0.74907200  0.74912600  1
  Ca  Ca2  1  0.74908000  0.74914600  0.74873600  1
  Ca  Ca3  1  0.25085400  0.25092000  0.25126400  1
  Ca  Ca4  1  0.25092800  0.74907200  0.25087400  1
  Ca  Ca5  1  0.74908000  0.74914600  0.25126400  1
  Mn  Mn0  1  0.49897600  0.50102400  0.00000000  1
  Mn  Mn1  1  0.00090500  0.99909500  0.50000000  1
  Mn  Mn2  1  0.49877500  0.99881900  0.50000000  1
  Mn  Mn3  1  0.00118100  0.50122500  0.50000000  1
  Mn  Mn4  1  0.49916200  0.50083800  0.50000000  1
  Fe  Fe0  1  0.00136500  0.99863500  0.00000000  1
  Fe  Fe1  1  0.49869900  0.99864900  0.00000000  1
  Fe  Fe2  1  0.00135100  0.50130100  0.00000000  1
  O  O0  1  0.00408600  0.99591400  0.74748800  1
  O  O1  1  0.49624300  0.99614900  0.74598000  1
  O  O2  1  0.00385100  0.50375700  0.74598000  1
  O  O3  1  0.49578000  0.50422000  0.74974700  1
  O  O4  1  0.00408600  0.99591400  0.25251200  1
  O  O5  1  0.49624300  0.99614900  0.25402000  1
  O  O6  1  0.00385100  0.50375700  0.25402000  1
  O  O7  1  0.49578000  0.50422000  0.25025300  1
  O  O8  1  0.00543900  0.24851800  0.00000000  1
  O  O9  1  0.49421200  0.25274600  0.00000000  1
  O  O10  1  0.00206700  0.75124500  0.00000000  1
  O  O11  1  0.49794700  0.74770600  0.00000000  1
  O  O12  1  0.00690700  0.24950800  0.50000000  1
  O  O13  1  0.49308400  0.25012600  0.50000000  1
  O  O14  1  0.00124900  0.75054400  0.50000000  1
  O  O15  1  0.49863700  0.74995300  0.50000000  1
  O  O16  1  0.24875500  0.99793300  0.00000000  1
  O  O17  1  0.75148200  0.99456100  0.00000000  1
  O  O18  1  0.25229400  0.50205300  0.00000000  1
  O  O19  1  0.74725400  0.50578800  0.00000000  1
  O  O20  1  0.24945600  0.99875100  0.50000000  1
  O  O21  1  0.75049200  0.99309300  0.50000000  1
  O  O22  1  0.25004700  0.50136300  0.50000000  1
  O  O23  1  0.74987400  0.50691600  0.50000000  1
loop_
_geom_bond_atom_site_label_1
_geom_bond_atom_site_label_2
_geom_bond_distance
_geom_bond_site_symmetry_2
Ca0 O13 2.674877 1_555
Ca0 O12 2.684088 1_555
Ca0 O9 2.694963 1_556
Ca0 O8 2.705983 1_556
Ca0 O3 2.707429 1_555
Ca0 O2 2.716994 1_555
Ca0 O1 2.719026 1_545
Ca0 O22 2.719182 1_555
Ca0 O0 2.726697 1_545
Ca0 O20 2.728598 1_545
Ca0 O18 2.736755 1_556
Ca0 O16 2.746846 1_546
Ca1 O3 2.661639 1_555
Ca1 O2 2.675464 1_555
Ca1 O1 2.675464 1_555
Ca1 O0 2.683297 1_555
Ca1 O22 2.706489 1_555
Ca1 O15 2.706489 1_555
Ca1 O11 2.712402 1_556
Ca1 O18 2.712402 1_556
Ca1 O14 2.717179 1_555
Ca1 O20 2.717179 1_555
Ca1 O10 2.722361 1_556
Ca1 O16 2.722361 1_556
Ca2 O23 2.674877 1_555
Ca2 O21 2.684088 1_555
Ca2 O19 2.694963 1_556
Ca2 O17 2.705983 1_556
Ca2 O3 2.707429 1_555
Ca2 O1 2.716994 1_555
Ca2 O2 2.719026 1_655
Ca2 O15 2.719182 1_555
Ca2 O0 2.726697 1_655
Ca2 O14 2.728598 1_655
Ca2 O11 2.736755 1_556
Ca2 O10 2.746846 1_656
Ca3 O13 2.674877 1_555
Ca3 O12 2.684088 1_555
Ca3 O9 2.694963 1_555
Ca3 O8 2.705983 1_555
Ca3 O7 2.707429 1_555
Ca3 O6 2.716994 1_555
Ca3 O5 2.719026 1_545
Ca3 O22 2.719182 1_555
Ca3 O4 2.726697 1_545
Ca3 O20 2.728598 1_545
Ca3 O18 2.736755 1_555
Ca3 O16 2.746846 1_545
Ca4 O7 2.661639 1_555
Ca4 O6 2.675464 1_555
Ca4 O5 2.675464 1_555
Ca4 O4 2.683297 1_555
Ca4 O15 2.706489 1_555
Ca4 O22 2.706489 1_555
Ca4 O18 2.712402 1_555
Ca4 O11 2.712402 1_555
Ca4 O14 2.717179 1_555
Ca4 O20 2.717179 1_555
Ca4 O10 2.722361 1_555
Ca4 O16 2.722361 1_555
Ca5 O23 2.674877 1_555
Ca5 O21 2.684088 1_555
Ca5 O19 2.694963 1_555
Ca5 O17 2.705983 1_555
Ca5 O7 2.707429 1_555
Ca5 O5 2.716994 1_555
Ca5 O6 2.719026 1_655
Ca5 O15 2.719182 1_555
Ca5 O4 2.726697 1_655
Ca5 O14 2.728598 1_655
Ca5 O11 2.736755 1_555
Ca5 O10 2.746846 1_655
Mn0 O11 1.895824 1_555
Mn0 O18 1.895824 1_555
Mn0 O19 1.908409 1_555
Mn0 O9 1.908409 1_555
Mn0 O3 1.932808 1_554
Mn0 O7 1.932808 1_555
Mn1 O14 1.910171 1_555
Mn1 O20 1.910171 1_555
Mn1 O4 1.911457 1_555
Mn1 O0 1.911457 1_555
Mn1 O21 1.925015 1_455
Mn1 O12 1.925015 1_565
Mn2 O1 1.899710 1_555
Mn2 O5 1.899710 1_555
Mn2 O15 1.912589 1_555
Mn2 O20 1.916071 1_555
Mn2 O13 1.931859 1_565
Mn2 O21 1.935015 1_555
Mn3 O2 1.899710 1_555
Mn3 O6 1.899710 1_555
Mn3 O22 1.912589 1_555
Mn3 O14 1.916071 1_555
Mn3 O23 1.931859 1_455
Mn3 O12 1.935015 1_555
Mn4 O15 1.914508 1_555
Mn4 O22 1.914508 1_555
Mn4 O13 1.927326 1_555
Mn4 O23 1.927326 1_555
Mn4 O7 1.928939 1_555
Mn4 O3 1.928939 1_555
Fe0 O16 1.901255 1_555
Fe0 O10 1.901255 1_555
Fe0 O8 1.920650 1_565
Fe0 O17 1.920650 1_455
Fe0 O0 1.950165 1_554
Fe0 O4 1.950165 1_555
Fe1 O16 1.920880 1_555
Fe1 O11 1.928558 1_555
Fe1 O17 1.942957 1_555
Fe1 O9 1.953107 1_565
Fe1 O5 1.961770 1_555
Fe1 O1 1.961770 1_554
Fe2 O10 1.920880 1_555
Fe2 O18 1.928558 1_555
Fe2 O8 1.942957 1_555
Fe2 O19 1.953107 1_455
Fe2 O6 1.961770 1_555
Fe2 O2 1.961770 1_554
O0 Sr0 2.768873 1_465
O1 Sr0 2.758157 1_565
O2 Sr0 2.758157 1_455
O3 Sr0 2.756653 1_555
O4 Sr1 2.768873 1_465
O5 Sr1 2.758157 1_565
O6 Sr1 2.758157 1_455
O7 Sr1 2.756653 1_555
O8 Sr1 2.759325 1_455
O8 Sr0 2.759325 1_454
O9 Sr1 2.754370 1_555
O9 Sr0 2.754370 1_554
O12 Sr1 2.762332 1_455
O12 Sr0 2.762332 1_455
O13 Sr0 2.755471 1_555
O13 Sr1 2.755471 1_555
O17 Sr1 2.759325 1_565
O17 Sr0 2.759325 1_564
O19 Sr1 2.754370 1_555
O19 Sr0 2.754370 1_554
O21 Sr0 2.762332 1_565
O21 Sr1 2.762332 1_565
O23 Sr0 2.755471 1_555
O23 Sr1 2.755471 1_555
