# generated using pymatgen
data_Ba2EuTa3Ti2O15
_symmetry_space_group_name_H-M   'P 1'
_cell_length_a   3.96225600
_cell_length_b   12.51873300
_cell_length_c   12.58964400
_cell_angle_alpha   90.00000000
_cell_angle_beta   90.00000000
_cell_angle_gamma   90.00000000
_symmetry_Int_Tables_number   1
_chemical_formula_structural   Ba2EuTa3Ti2O15
_chemical_formula_sum   'Ba4 Eu2 Ta6 Ti4 O30'
_cell_volume   624.47687155
_cell_formula_units_Z   2
loop_
 _symmetry_equiv_pos_site_id
 _symmetry_equiv_pos_as_xyz
  1  'x, y, z'
loop_
 _atom_site_type_symbol
 _atom_site_label
 _atom_site_symmetry_multiplicity
 _atom_site_fract_x
 _atom_site_fract_y
 _atom_site_fract_z
 _atom_site_occupancy
  Ba  Ba0  1  0.00000000  0.17180100  0.67166000  1
  Ba  Ba1  1  0.00000000  0.82819900  0.32834000  1
  Ba  Ba2  1  0.00000000  0.32819900  0.17166000  1
  Ba  Ba3  1  0.00000000  0.67180100  0.82834000  1
  Eu  Eu0  1  0.00000000  0.50000000  0.50000000  1
  Eu  Eu1  1  0.00000000  0.00000000  0.00000000  1
  Ta  Ta0  1  0.50000000  0.57635700  0.29040800  1
  Ta  Ta1  1  0.50000000  0.42364300  0.70959200  1
  Ta  Ta2  1  0.50000000  0.07635700  0.20959200  1
  Ta  Ta3  1  0.50000000  0.92364300  0.79040800  1
  Ta  Ta4  1  0.50000000  0.00000000  0.50000000  1
  Ta  Ta5  1  0.50000000  0.50000000  0.00000000  1
  Ti  Ti0  1  0.50000000  0.71250500  0.57567100  1
  Ti  Ti1  1  0.50000000  0.28749500  0.42432900  1
  Ti  Ti2  1  0.50000000  0.78749500  0.07567100  1
  Ti  Ti3  1  0.50000000  0.21250500  0.92432900  1
  O  O0  1  0.50000000  0.50826800  0.84195400  1
  O  O1  1  0.50000000  0.49173200  0.15804600  1
  O  O2  1  0.50000000  0.99173200  0.34195400  1
  O  O3  1  0.50000000  0.00826800  0.65804600  1
  O  O4  1  0.50000000  0.84173500  0.49583700  1
  O  O5  1  0.50000000  0.15826500  0.50416300  1
  O  O6  1  0.50000000  0.34173500  0.00416300  1
  O  O7  1  0.50000000  0.65826500  0.99583700  1
  O  O8  1  0.50000000  0.56478100  0.63475000  1
  O  O9  1  0.50000000  0.43521900  0.36525000  1
  O  O10  1  0.50000000  0.93521900  0.13475000  1
  O  O11  1  0.50000000  0.06478100  0.86525000  1
  O  O12  1  0.50000000  0.63610900  0.43504900  1
  O  O13  1  0.50000000  0.36389100  0.56495100  1
  O  O14  1  0.50000000  0.13610900  0.06495100  1
  O  O15  1  0.50000000  0.86389100  0.93504900  1
  O  O16  1  0.00000000  0.69397200  0.57482400  1
  O  O17  1  0.00000000  0.30602800  0.42517600  1
  O  O18  1  0.00000000  0.80602800  0.07482400  1
  O  O19  1  0.00000000  0.19397200  0.92517600  1
  O  O20  1  0.00000000  0.57599800  0.30351800  1
  O  O21  1  0.00000000  0.42400200  0.69648200  1
  O  O22  1  0.00000000  0.07599800  0.19648200  1
  O  O23  1  0.00000000  0.92400200  0.80351800  1
  O  O24  1  0.50000000  0.28349200  0.78298100  1
  O  O25  1  0.50000000  0.71650800  0.21701900  1
  O  O26  1  0.50000000  0.21650800  0.28298100  1
  O  O27  1  0.50000000  0.78349200  0.71701900  1
  O  O28  1  0.00000000  0.00000000  0.50000000  1
  O  O29  1  0.00000000  0.50000000  0.00000000  1
loop_
_geom_bond_atom_site_label_1
_geom_bond_atom_site_label_2
_geom_bond_distance
_geom_bond_site_symmetry_2
Ba0 O24 2.800731 1_455
Ba0 O24 2.800731 1_555
Ba0 O3 2.854011 1_555
Ba0 O3 2.854011 1_455
Ba0 O5 2.898330 1_455
Ba0 O5 2.898330 1_555
Ba1 O25 2.800731 1_455
Ba1 O25 2.800731 1_555
Ba1 O2 2.854011 1_455
Ba1 O2 2.854011 1_555
Ba1 O4 2.898330 1_455
Ba1 O4 2.898330 1_555
Ba2 O26 2.800731 1_455
Ba2 O26 2.800731 1_555
Ba2 O1 2.854011 1_455
Ba2 O1 2.854011 1_555
Ba2 O6 2.898330 1_455
Ba2 O6 2.898330 1_555
Ba3 O27 2.800731 1_455
Ba3 O27 2.800731 1_555
Ba3 O0 2.854011 1_555
Ba3 O0 2.854011 1_455
Ba3 O7 2.898330 1_555
Ba3 O7 2.898330 1_455
Eu0 O16 2.604600 1_555
Eu0 O17 2.604600 1_555
Eu0 O20 2.650292 1_555
Eu0 O21 2.650292 1_555
Eu0 O9 2.731393 1_455
Eu0 O9 2.731393 1_555
Eu0 O8 2.731393 1_455
Eu0 O8 2.731393 1_555
Eu0 O13 2.738035 1_455
Eu0 O13 2.738035 1_555
Eu0 O12 2.738035 1_555
Eu0 O12 2.738035 1_455
Eu1 O19 2.604600 1_554
Eu1 O18 2.604600 1_545
Eu1 O22 2.650292 1_555
Eu1 O23 2.650292 1_544
Eu1 O10 2.731393 1_445
Eu1 O10 2.731393 1_545
Eu1 O11 2.731393 1_454
Eu1 O11 2.731393 1_554
Eu1 O14 2.738035 1_555
Eu1 O15 2.738035 1_444
Eu1 O15 2.738035 1_544
Eu1 O14 2.738035 1_455
O0 Ta1 1.974634 1_555
O0 Ta5 1.992433 1_556
O1 Ta0 1.974634 1_555
O1 Ta5 1.992433 1_555
O2 Ta2 1.974634 1_565
O2 Ta4 1.992433 1_565
O3 Ta3 1.974634 1_545
O3 Ta4 1.992433 1_555
O4 Ti0 1.904587 1_555
O4 Ta4 1.981970 1_565
O5 Ti1 1.904587 1_555
O5 Ta4 1.981970 1_555
O6 Ti3 1.904587 1_554
O6 Ta5 1.981970 1_555
O7 Ti2 1.904587 1_556
O7 Ta5 1.981970 1_556
O8 Ti0 1.993286 1_555
O8 Ta1 2.002406 1_555
O9 Ti1 1.993286 1_555
O9 Ta0 2.002406 1_555
O10 Ti2 1.993286 1_555
O10 Ta2 2.002406 1_565
O11 Ti3 1.993286 1_555
O11 Ta3 2.002406 1_545
O12 Ta0 1.968628 1_555
O12 Ti0 2.012191 1_555
O13 Ta1 1.968628 1_555
O13 Ti1 2.012191 1_555
O14 Ta2 1.968628 1_555
O14 Ti3 2.012191 1_554
O15 Ta3 1.968628 1_555
O15 Ti2 2.012191 1_556
O16 Ti0 1.994696 1_555
O16 Ti0 1.994696 1_455
O17 Ti1 1.994696 1_555
O17 Ti1 1.994696 1_455
O18 Ti2 1.994696 1_555
O18 Ti2 1.994696 1_455
O19 Ti3 1.994696 1_555
O19 Ti3 1.994696 1_455
O20 Ta0 1.987996 1_555
O20 Ta0 1.987996 1_455
O21 Ta1 1.987996 1_455
O21 Ta1 1.987996 1_555
O22 Ta2 1.987996 1_455
O22 Ta2 1.987996 1_555
O23 Ta3 1.987996 1_555
O23 Ta3 1.987996 1_455
O24 Ta1 1.982923 1_555
O24 Ti3 1.989076 1_555
O25 Ta0 1.982923 1_555
O25 Ti2 1.989076 1_555
O26 Ta2 1.982923 1_555
O26 Ti1 1.989076 1_555
O27 Ta3 1.982923 1_555
O27 Ti0 1.989076 1_555
O28 Ta4 1.981128 1_555
O28 Ta4 1.981128 1_455
O29 Ta5 1.981128 1_555
O29 Ta5 1.981128 1_455
