# generated using pymatgen
data_BaSi9Rh2
_symmetry_space_group_name_H-M   'P 1'
_cell_length_a   11.21513019
_cell_length_b   11.21513019
_cell_length_c   6.27844951
_cell_angle_alpha   89.91948667
_cell_angle_beta   89.91948667
_cell_angle_gamma   147.57229843
_symmetry_Int_Tables_number   1
_chemical_formula_structural   BaSi9Rh2
_chemical_formula_sum   'Ba2 Si18 Rh4'
_cell_volume   423.45831231
_cell_formula_units_Z   2
loop_
 _symmetry_equiv_pos_site_id
 _symmetry_equiv_pos_as_xyz
  1  'x, y, z'
loop_
 _atom_site_type_symbol
 _atom_site_label
 _atom_site_symmetry_multiplicity
 _atom_site_fract_x
 _atom_site_fract_y
 _atom_site_fract_z
 _atom_site_occupancy
  Ba  Ba0  1  0.68693700  0.31306300  0.75000000  1
  Ba  Ba1  1  0.31306300  0.68693700  0.25000000  1
  Si  Si0  1  0.16011700  0.83949700  0.52407300  1
  Si  Si1  1  0.16050300  0.83988300  0.97592700  1
  Si  Si2  1  0.83988300  0.16050300  0.47592700  1
  Si  Si3  1  0.83949700  0.16011700  0.02407300  1
  Si  Si4  1  0.11401100  0.43217900  0.75287400  1
  Si  Si5  1  0.56782100  0.88598900  0.74712600  1
  Si  Si6  1  0.88598900  0.56782100  0.24712600  1
  Si  Si7  1  0.43217900  0.11401100  0.25287400  1
  Si  Si8  1  0.08391300  0.17284400  0.61102300  1
  Si  Si9  1  0.82715600  0.91608700  0.88897700  1
  Si  Si10  1  0.91608700  0.82715600  0.38897700  1
  Si  Si11  1  0.17284400  0.08391300  0.11102300  1
  Si  Si12  1  0.67203900  0.58349200  0.88857600  1
  Si  Si13  1  0.41650800  0.32796100  0.61142400  1
  Si  Si14  1  0.32796100  0.41650800  0.11142400  1
  Si  Si15  1  0.58349200  0.67203900  0.38857600  1
  Si  Si16  1  0.25050700  0.74949300  0.75000000  1
  Si  Si17  1  0.74949300  0.25050700  0.25000000  1
  Rh  Rh0  1  0.06960700  0.93039300  0.75000000  1
  Rh  Rh1  1  0.93039300  0.06960700  0.25000000  1
  Rh  Rh2  1  0.43180100  0.56819900  0.75000000  1
  Rh  Rh3  1  0.56819900  0.43180100  0.25000000  1
loop_
_geom_bond_atom_site_label_1
_geom_bond_atom_site_label_2
_geom_bond_distance
_geom_bond_site_symmetry_2
Ba0 Si12 3.293298 1_555
Ba0 Si13 3.293298 1_555
Ba0 Si17 3.416146 1_556
Ba0 Si17 3.416146 1_555
Ba0 Si16 3.417762 1_545
Ba0 Si16 3.417762 1_655
Ba0 Si1 3.477808 1_545
Ba0 Si0 3.477808 1_655
Ba0 Si6 3.487961 1_556
Ba0 Si7 3.487961 1_555
Ba0 Si0 3.492808 1_545
Ba0 Si1 3.492808 1_655
Ba0 Si7 3.507512 1_556
Ba0 Si6 3.507512 1_555
Ba0 Si2 3.712837 1_555
Ba0 Si3 3.712837 1_556
Ba0 Si5 3.731590 1_545
Ba0 Si4 3.731590 1_655
Ba1 Si15 3.293298 1_555
Ba1 Si14 3.293298 1_555
Ba1 Si16 3.416146 1_555
Ba1 Si16 3.416146 1_554
Ba1 Si17 3.417762 1_565
Ba1 Si17 3.417762 1_455
Ba1 Si3 3.477808 1_565
Ba1 Si2 3.477808 1_455
Ba1 Si5 3.487961 1_555
Ba1 Si4 3.487961 1_554
Ba1 Si3 3.492808 1_455
Ba1 Si2 3.492808 1_565
Ba1 Si5 3.507512 1_554
Ba1 Si4 3.507512 1_555
Ba1 Si0 3.712837 1_555
Ba1 Si1 3.712837 1_554
Ba1 Si6 3.731590 1_455
Ba1 Si7 3.731590 1_565
Si0 Si16 2.405424 1_555
Si0 Si10 2.756123 1_455
Si1 Si16 2.405424 1_555
Si1 Si11 2.756123 1_566
Si2 Si8 2.756123 1_655
Si3 Si9 2.756123 1_544
Si4 Si8 2.777971 1_555
Si5 Si9 2.777971 1_555
Si8 Si9 2.367092 1_445
Si10 Si11 2.367092 1_665
Si10 Si15 2.446548 1_555
Si10 Si6 2.777971 1_555
Si10 Si8 2.867194 1_665
Si11 Si14 2.446548 1_555
Si11 Si7 2.777971 1_555
Si11 Si9 2.867194 1_444
Si12 Si13 2.370067 1_555
Si12 Si9 2.446548 1_555
Si13 Si8 2.446548 1_555
Si14 Si15 2.370067 1_555
Si16 Si4 2.410682 1_555
Si16 Si5 2.410682 1_555
Si17 Si2 2.405424 1_555
Si17 Si3 2.405424 1_555
Si17 Si6 2.410682 1_555
Si17 Si7 2.410682 1_555
Rh0 Si0 2.414234 1_555
Rh0 Si1 2.414234 1_555
Rh0 Si10 2.468971 1_455
Rh0 Si11 2.468971 1_566
Rh0 Si13 2.543491 1_565
Rh0 Si12 2.543491 1_455
Rh0 Si9 2.727119 1_455
Rh0 Si8 2.727119 1_565
Rh1 Si3 2.414234 1_555
Rh1 Si2 2.414234 1_555
Rh1 Si8 2.468971 1_655
Rh1 Si9 2.468971 1_544
Rh1 Si15 2.543491 1_545
Rh1 Si14 2.543491 1_655
Rh1 Si10 2.727119 1_545
Rh1 Si11 2.727119 1_655
Rh2 Si5 2.418971 1_555
Rh2 Si4 2.418971 1_555
Rh2 Si14 2.456986 1_556
Rh2 Si15 2.456986 1_555
Rh2 Si9 2.541709 1_555
Rh2 Si8 2.541709 1_555
Rh2 Si13 2.696767 1_555
Rh2 Si12 2.696767 1_555
Rh3 Si6 2.418971 1_555
Rh3 Si7 2.418971 1_555
Rh3 Si12 2.456986 1_554
Rh3 Si13 2.456986 1_555
Rh3 Si10 2.541709 1_555
Rh3 Si11 2.541709 1_555
Rh3 Si14 2.696767 1_555
Rh3 Si15 2.696767 1_555
