# generated using pymatgen
data_Pr3NbO7
_symmetry_space_group_name_H-M   'P 1'
_cell_length_a   6.70116877
_cell_length_b   6.70116877
_cell_length_c   7.74940451
_cell_angle_alpha   90.00000000
_cell_angle_beta   90.00000000
_cell_angle_gamma   111.50244913
_symmetry_Int_Tables_number   1
_chemical_formula_structural   Pr3NbO7
_chemical_formula_sum   'Pr6 Nb2 O14'
_cell_volume   323.77255488
_cell_formula_units_Z   2
loop_
 _symmetry_equiv_pos_site_id
 _symmetry_equiv_pos_as_xyz
  1  'x, y, z'
loop_
 _atom_site_type_symbol
 _atom_site_label
 _atom_site_symmetry_multiplicity
 _atom_site_fract_x
 _atom_site_fract_y
 _atom_site_fract_z
 _atom_site_occupancy
  Pr  Pr0  1  0.47616772  0.92656885  0.75000000  1
  Pr  Pr1  1  0.52383228  0.07343115  0.25000000  1
  Pr  Pr2  1  0.92656885  0.47616772  0.75000000  1
  Pr  Pr3  1  0.07343115  0.52383228  0.25000000  1
  Pr  Pr4  1  0.00000000  0.00000000  0.50000000  1
  Pr  Pr5  1  0.00000000  0.00000000  0.00000000  1
  Nb  Nb0  1  0.50000000  0.50000000  0.50000000  1
  Nb  Nb1  1  0.50000000  0.50000000  0.00000000  1
  O  O0  1  0.57154102  0.57154102  0.75000000  1
  O  O1  1  0.42845898  0.42845898  0.25000000  1
  O  O2  1  0.84536039  0.10697532  0.75000000  1
  O  O3  1  0.15463961  0.89302468  0.25000000  1
  O  O4  1  0.10697532  0.84536039  0.75000000  1
  O  O5  1  0.89302468  0.15463961  0.25000000  1
  O  O6  1  0.43854964  0.18609103  0.96450062  1
  O  O7  1  0.56145036  0.81390897  0.46450062  1
  O  O8  1  0.18609103  0.43854964  0.96450062  1
  O  O9  1  0.81390897  0.56145036  0.46450062  1
  O  O10  1  0.43854964  0.18609103  0.53549938  1
  O  O11  1  0.56145036  0.81390897  0.03549938  1
  O  O12  1  0.81390897  0.56145036  0.03549938  1
  O  O13  1  0.18609103  0.43854964  0.53549938  1
loop_
_geom_bond_atom_site_label_1
_geom_bond_atom_site_label_2
_geom_bond_distance
_geom_bond_site_symmetry_2
Nb0 O9 2.008778 1_555
Nb0 O7 2.008778 1_555
Nb0 O10 2.008778 1_555
Nb0 O13 2.008778 1_555
Nb0 O0 2.011096 1_555
Nb0 O1 2.011096 1_555
Nb1 O11 2.008778 1_555
Nb1 O12 2.008778 1_555
Nb1 O8 2.008778 1_554
Nb1 O6 2.008778 1_554
Nb1 O1 2.011096 1_555
Nb1 O0 2.011096 1_554
O0 Pr0 2.680158 1_555
O0 Pr2 2.680158 1_555
O1 Pr3 2.680158 1_555
O1 Pr1 2.680158 1_555
O2 Pr0 2.321575 1_545
O2 Pr2 2.330224 1_555
O2 Pr4 2.426034 1_655
O2 Pr5 2.426034 1_656
O3 Pr1 2.321575 1_565
O3 Pr3 2.330224 1_555
O3 Pr4 2.426034 1_565
O3 Pr5 2.426034 1_565
O4 Pr2 2.321575 1_455
O4 Pr0 2.330224 1_555
O4 Pr5 2.426034 1_566
O4 Pr4 2.426034 1_565
O5 Pr3 2.321575 1_655
O5 Pr1 2.330224 1_555
O5 Pr5 2.426034 1_655
O5 Pr4 2.426034 1_655
O6 Pr1 2.471393 1_556
O6 Pr0 2.484449 1_545
O6 Pr5 2.753308 1_556
O7 Pr0 2.471393 1_555
O7 Pr1 2.484449 1_565
O7 Pr4 2.753308 1_665
O8 Pr3 2.471393 1_556
O8 Pr2 2.484449 1_455
O8 Pr5 2.753308 1_556
O9 Pr2 2.471393 1_555
O9 Pr3 2.484449 1_655
O9 Pr4 2.753308 1_665
O10 Pr1 2.471393 1_555
O10 Pr0 2.484449 1_545
O10 Pr4 2.753308 1_555
O11 Pr0 2.471393 1_554
O11 Pr1 2.484449 1_565
O11 Pr5 2.753308 1_665
O12 Pr2 2.471393 1_554
O12 Pr3 2.484449 1_655
O12 Pr5 2.753308 1_665
O13 Pr3 2.471393 1_555
O13 Pr2 2.484449 1_455
O13 Pr4 2.753308 1_555
