# generated using pymatgen
data_EuFeO3
_symmetry_space_group_name_H-M   'P 1'
_cell_length_a   5.52242708
_cell_length_b   5.52242708
_cell_length_c   5.52242708
_cell_angle_alpha   120.33491129
_cell_angle_beta   119.50903296
_cell_angle_gamma   90.13668600
_symmetry_Int_Tables_number   1
_chemical_formula_structural   EuFeO3
_chemical_formula_sum   'Eu2 Fe2 O6'
_cell_volume   119.22227858
_cell_formula_units_Z   2
loop_
 _symmetry_equiv_pos_site_id
 _symmetry_equiv_pos_as_xyz
  1  'x, y, z'
loop_
 _atom_site_type_symbol
 _atom_site_label
 _atom_site_symmetry_multiplicity
 _atom_site_fract_x
 _atom_site_fract_y
 _atom_site_fract_z
 _atom_site_occupancy
  Eu  Eu0  1  0.23908800  0.25000000  0.98908800  1
  Eu  Eu1  1  0.76091200  0.75000000  0.01091200  1
  Fe  Fe0  1  0.00000000  0.50000000  0.50000000  1
  Fe  Fe1  1  0.50000000  0.00000000  0.50000000  1
  O  O0  1  0.79785900  0.29785900  0.00000000  1
  O  O1  1  0.20214100  0.20214100  0.50000000  1
  O  O2  1  0.20214100  0.70214100  0.00000000  1
  O  O3  1  0.79785900  0.79785900  0.50000000  1
  O  O4  1  0.33607200  0.75000000  0.58607200  1
  O  O5  1  0.66392800  0.25000000  0.41392800  1
loop_
_geom_bond_atom_site_label_1
_geom_bond_atom_site_label_2
_geom_bond_distance
_geom_bond_site_symmetry_2
Eu0 O5 2.363537 1_556
Eu0 O2 2.478388 1_556
Eu0 O0 2.478388 1_456
Eu0 O3 2.478388 1_445
Eu0 O1 2.478388 1_555
Eu1 O4 2.363537 1_554
Eu1 O3 2.478388 1_555
Eu1 O0 2.478388 1_555
Eu1 O1 2.478388 1_665
Eu1 O2 2.478388 1_655
Fe0 O3 1.990130 1_455
Fe0 O0 1.990130 1_455
Fe0 O1 1.990130 1_555
Fe0 O2 1.990130 1_556
Fe0 O5 2.008072 1_455
Fe0 O4 2.008072 1_555
Fe1 O0 1.990130 1_556
Fe1 O2 1.990130 1_545
Fe1 O1 1.990130 1_555
Fe1 O3 1.990130 1_545
Fe1 O4 2.008072 1_545
Fe1 O5 2.008072 1_555
