# generated using pymatgen
data_BaZr2SnO6
_symmetry_space_group_name_H-M   'P 1'
_cell_length_a   8.45589274
_cell_length_b   8.45589274
_cell_length_c   8.45567941
_cell_angle_alpha   90.00000000
_cell_angle_beta   90.00000000
_cell_angle_gamma   90.00000000
_symmetry_Int_Tables_number   1
_chemical_formula_structural   BaZr2SnO6
_chemical_formula_sum   'Ba4 Zr8 Sn4 O24'
_cell_volume   604.59902102
_cell_formula_units_Z   4
loop_
 _symmetry_equiv_pos_site_id
 _symmetry_equiv_pos_as_xyz
  1  'x, y, z'
loop_
 _atom_site_type_symbol
 _atom_site_label
 _atom_site_symmetry_multiplicity
 _atom_site_fract_x
 _atom_site_fract_y
 _atom_site_fract_z
 _atom_site_occupancy
  Ba  Ba0  1  0.50000000  -0.00000000  0.50000000  1
  Ba  Ba1  1  0.00000000  0.50000000  0.00000000  1
  Ba  Ba2  1  0.50000000  0.50000000  0.00000000  1
  Ba  Ba3  1  0.50000000  0.50000000  0.50000000  1
  Zr  Zr0  1  0.75143436  0.75143436  0.75000000  1
  Zr  Zr1  1  0.24856564  0.75143436  0.75000000  1
  Zr  Zr2  1  0.75143436  0.75143436  0.25000000  1
  Zr  Zr3  1  0.24856564  0.75143436  0.25000000  1
  Zr  Zr4  1  0.75143436  0.24856564  0.75000000  1
  Zr  Zr5  1  0.24856564  0.24856564  0.75000000  1
  Zr  Zr6  1  0.75143436  0.24856564  0.25000000  1
  Zr  Zr7  1  0.24856564  0.24856564  0.25000000  1
  Sn  Sn0  1  0.00000000  -0.00000000  0.00000000  1
  Sn  Sn1  1  0.50000000  -0.00000000  0.00000000  1
  Sn  Sn2  1  0.00000000  -0.00000000  0.50000000  1
  Sn  Sn3  1  0.00000000  0.50000000  0.50000000  1
  O  O0  1  0.00000000  0.75016435  0.74997070  1
  O  O1  1  0.50000000  0.75010441  0.74995559  1
  O  O2  1  0.00000000  0.75016435  0.25002930  1
  O  O3  1  0.50000000  0.75010441  0.25004441  1
  O  O4  1  0.00000000  0.24983565  0.74997070  1
  O  O5  1  0.50000000  0.24989559  0.74995559  1
  O  O6  1  0.00000000  0.24983565  0.25002930  1
  O  O7  1  0.50000000  0.24989559  0.25004441  1
  O  O8  1  0.75016435  -0.00000000  0.75002930  1
  O  O9  1  0.24983565  -0.00000000  0.75002930  1
  O  O10  1  0.75016435  -0.00000000  0.24997070  1
  O  O11  1  0.24983565  -0.00000000  0.24997070  1
  O  O12  1  0.75010441  0.50000000  0.75004441  1
  O  O13  1  0.24989559  0.50000000  0.75004441  1
  O  O14  1  0.75010441  0.50000000  0.24995559  1
  O  O15  1  0.24989559  0.50000000  0.24995559  1
  O  O16  1  0.75013560  0.75011588  0.00000000  1
  O  O17  1  0.24986440  0.75011588  -0.00000000  1
  O  O18  1  0.75011588  0.75013560  0.50000000  1
  O  O19  1  0.24988412  0.75013560  0.50000000  1
  O  O20  1  0.75013560  0.24988412  0.00000000  1
  O  O21  1  0.24986440  0.24988412  -0.00000000  1
  O  O22  1  0.75011588  0.24986440  0.50000000  1
  O  O23  1  0.24988412  0.24986440  0.50000000  1
loop_
_geom_bond_atom_site_label_1
_geom_bond_atom_site_label_2
_geom_bond_distance
_geom_bond_site_symmetry_2
Ba0 O3 2.988682 1_545
Ba0 O5 2.988682 1_555
Ba0 O7 2.988682 1_555
Ba0 O1 2.988682 1_545
Ba0 O22 2.989492 1_555
Ba0 O18 2.989492 1_545
Ba0 O19 2.989492 1_545
Ba0 O23 2.989492 1_555
Ba0 O10 2.990730 1_555
Ba0 O9 2.990730 1_555
Ba0 O8 2.990730 1_555
Ba0 O11 2.990730 1_555
Ba1 O13 2.988682 1_554
Ba1 O14 2.988682 1_455
Ba1 O12 2.988682 1_454
Ba1 O15 2.988682 1_555
Ba1 O17 2.989492 1_555
Ba1 O16 2.989492 1_455
Ba1 O21 2.989492 1_555
Ba1 O20 2.989492 1_455
Ba1 O6 2.990730 1_555
Ba1 O0 2.990730 1_554
Ba1 O2 2.990730 1_555
Ba1 O4 2.990730 1_554
Ba2 O13 2.989931 1_554
Ba2 O15 2.989931 1_555
Ba2 O14 2.989931 1_555
Ba2 O12 2.989931 1_554
Ba2 O5 2.990462 1_554
Ba2 O7 2.990462 1_555
Ba2 O1 2.990462 1_554
Ba2 O3 2.990462 1_555
Ba2 O16 2.991113 1_555
Ba2 O17 2.991113 1_555
Ba2 O20 2.991113 1_555
Ba2 O21 2.991113 1_555
Ba3 O5 2.989931 1_555
Ba3 O7 2.989931 1_555
Ba3 O3 2.989931 1_555
Ba3 O1 2.989931 1_555
Ba3 O14 2.990462 1_555
Ba3 O15 2.990462 1_555
Ba3 O12 2.990462 1_555
Ba3 O13 2.990462 1_555
Ba3 O18 2.991113 1_555
Ba3 O22 2.991113 1_555
Ba3 O19 2.991113 1_555
Ba3 O23 2.991113 1_555
O0 Zr1 2.101872 1_555
O0 Zr0 2.101872 1_455
O1 Zr0 2.126132 1_555
O1 Zr1 2.126132 1_555
O2 Zr3 2.101872 1_555
O2 Zr2 2.101872 1_455
O3 Zr2 2.126132 1_555
O3 Zr3 2.126132 1_555
O4 Zr5 2.101872 1_555
O4 Zr4 2.101872 1_455
O5 Zr5 2.126132 1_555
O5 Zr4 2.126132 1_555
O6 Zr7 2.101872 1_555
O6 Zr6 2.101872 1_455
O7 Zr6 2.126132 1_555
O7 Zr7 2.126132 1_555
O8 Zr4 2.101872 1_555
O8 Zr0 2.101872 1_545
O9 Zr5 2.101872 1_555
O9 Zr1 2.101872 1_545
O10 Zr6 2.101872 1_555
O10 Zr2 2.101872 1_545
O11 Zr7 2.101872 1_555
O11 Zr3 2.101872 1_545
O12 Zr4 2.126132 1_555
O12 Zr0 2.126132 1_555
O13 Zr5 2.126132 1_555
O13 Zr1 2.126132 1_555
O14 Zr2 2.126132 1_555
O14 Zr6 2.126132 1_555
O15 Zr3 2.126132 1_555
O15 Zr7 2.126132 1_555
O16 Zr2 2.113978 1_555
O16 Zr0 2.113978 1_554
O17 Zr3 2.113978 1_555
O17 Zr1 2.113978 1_554
O18 Zr0 2.113978 1_555
O18 Zr2 2.113978 1_555
O19 Zr3 2.113978 1_555
O19 Zr1 2.113978 1_555
O20 Zr4 2.113978 1_554
O20 Zr6 2.113978 1_555
O21 Zr7 2.113978 1_555
O21 Zr5 2.113978 1_554
O22 Zr4 2.113978 1_555
O22 Zr6 2.113978 1_555
O23 Zr5 2.113978 1_555
O23 Zr7 2.113978 1_555
