# generated using pymatgen
data_YMg14Bi
_symmetry_space_group_name_H-M   'P 1'
_cell_length_a   6.51245240
_cell_length_b   6.51245185
_cell_length_c   10.51774496
_cell_angle_alpha   90.00000000
_cell_angle_beta   90.00000000
_cell_angle_gamma   120.00000281
_symmetry_Int_Tables_number   1
_chemical_formula_structural   YMg14Bi
_chemical_formula_sum   'Y1 Mg14 Bi1'
_cell_volume   386.31568554
_cell_formula_units_Z   1
loop_
 _symmetry_equiv_pos_site_id
 _symmetry_equiv_pos_as_xyz
  1  'x, y, z'
loop_
 _atom_site_type_symbol
 _atom_site_label
 _atom_site_symmetry_multiplicity
 _atom_site_fract_x
 _atom_site_fract_y
 _atom_site_fract_z
 _atom_site_occupancy
  Y  Y0  1  0.16666700  0.33333300  0.12500000  1
  Mg  Mg0  1  0.17297306  0.83648603  0.12500000  1
  Mg  Mg1  1  0.16307635  0.83153768  0.62500000  1
  Mg  Mg2  1  0.66351397  0.32702694  0.12500000  1
  Mg  Mg3  1  0.66846232  0.33692365  0.62500000  1
  Mg  Mg4  1  0.66351397  0.83648603  0.12500000  1
  Mg  Mg5  1  0.66846232  0.83153768  0.62500000  1
  Mg  Mg6  1  0.33489052  0.16510948  0.37435863  1
  Mg  Mg7  1  0.33489052  0.16510948  0.87564137  1
  Mg  Mg8  1  0.33489052  0.66978205  0.37435863  1
  Mg  Mg9  1  0.33489052  0.66978205  0.87564137  1
  Mg  Mg10  1  0.83021795  0.16510948  0.37435863  1
  Mg  Mg11  1  0.83021795  0.16510948  0.87564137  1
  Mg  Mg12  1  0.83333300  0.66666700  0.36996953  1
  Mg  Mg13  1  0.83333300  0.66666700  0.88003047  1
  Bi  Bi0  1  0.16666700  0.33333300  0.62500000  1
loop_
_geom_bond_atom_site_label_1
_geom_bond_atom_site_label_2
_geom_bond_distance
_geom_bond_site_symmetry_2
Mg0 Mg2 3.194624 1_565
Mg0 Mg4 3.194624 1_555
Mg0 Mg12 3.210581 1_455
Mg0 Mg13 3.210581 1_454
Mg0 Mg9 3.211521 1_554
Mg0 Mg8 3.211521 1_555
Mg0 Mg6 3.211528 1_565
Mg0 Mg7 3.211528 1_564
Mg0 Y0 3.256420 1_555
Mg0 Y0 3.256420 1_565
Mg0 Mg2 3.317828 1_455
Mg0 Mg4 3.317828 1_455
Mg1 Mg3 3.221150 1_455
Mg1 Mg5 3.221150 1_455
Mg1 Mg8 3.238809 1_555
Mg1 Mg9 3.238809 1_555
Mg1 Mg6 3.238815 1_565
Mg1 Mg7 3.238815 1_565
Mg1 Mg12 3.263984 1_455
Mg1 Mg13 3.263984 1_455
Mg1 Mg3 3.291302 1_565
Mg1 Mg5 3.291302 1_555
Mg2 Mg4 3.194624 1_545
Mg2 Mg7 3.211528 1_554
Mg2 Mg6 3.211528 1_555
Mg2 Y0 3.256420 1_655
Mg2 Y0 3.256420 1_555
Mg2 Mg4 3.317828 1_555
Mg3 Mg5 3.221150 1_555
Mg3 Mg6 3.238815 1_555
Mg3 Mg7 3.238815 1_555
Mg3 Mg5 3.291302 1_545
Mg4 Mg8 3.211528 1_555
Mg4 Mg9 3.211528 1_554
Mg4 Y0 3.256420 1_555
Mg4 Y0 3.256420 1_665
Mg5 Mg8 3.238815 1_555
Mg5 Mg9 3.238815 1_555
Mg6 Mg8 3.225796 1_545
Mg6 Y0 3.237156 1_555
Mg6 Mg8 3.286656 1_555
Mg7 Mg9 3.225796 1_545
Mg7 Y0 3.237156 1_556
Mg7 Mg9 3.286656 1_555
Mg8 Y0 3.237163 1_555
Mg9 Y0 3.237163 1_556
Mg10 Mg2 3.211521 1_555
Mg10 Mg4 3.211528 1_545
Mg10 Mg8 3.225796 1_545
Mg10 Mg6 3.225796 1_555
Mg10 Y0 3.237163 1_655
Mg10 Mg3 3.238809 1_555
Mg10 Mg5 3.238815 1_545
Mg10 Mg12 3.256600 1_555
Mg10 Mg12 3.256601 1_545
Mg10 Mg8 3.286656 1_655
Mg10 Mg6 3.286656 1_655
Mg11 Mg2 3.211521 1_556
Mg11 Mg4 3.211528 1_546
Mg11 Mg9 3.225796 1_545
Mg11 Mg7 3.225796 1_555
Mg11 Y0 3.237163 1_656
Mg11 Mg3 3.238809 1_555
Mg11 Mg5 3.238815 1_545
Mg11 Mg13 3.256600 1_555
Mg11 Mg13 3.256601 1_545
Mg11 Mg9 3.286656 1_655
Mg11 Mg7 3.286656 1_655
Mg12 Mg4 3.210575 1_555
Mg12 Mg2 3.210581 1_555
Mg12 Mg6 3.256601 1_555
Mg12 Mg6 3.256601 1_665
Mg12 Mg8 3.256601 1_655
Mg12 Mg8 3.256601 1_555
Mg12 Mg5 3.263978 1_555
Mg12 Mg3 3.263984 1_555
Mg13 Mg4 3.210575 1_556
Mg13 Mg2 3.210581 1_556
Mg13 Mg7 3.256601 1_555
Mg13 Mg7 3.256601 1_665
Mg13 Mg9 3.256601 1_655
Mg13 Mg9 3.256601 1_555
Mg13 Mg5 3.263978 1_555
Mg13 Mg3 3.263984 1_555
Bi0 Mg6 3.248096 1_555
Bi0 Mg7 3.248096 1_555
Bi0 Mg8 3.248103 1_555
Bi0 Mg9 3.248103 1_555
Bi0 Mg10 3.248103 1_455
Bi0 Mg11 3.248103 1_455
Bi0 Mg1 3.256289 1_545
Bi0 Mg5 3.256289 1_445
Bi0 Mg5 3.256289 1_555
Bi0 Mg1 3.256289 1_555
Bi0 Mg3 3.256289 1_555
Bi0 Mg3 3.256289 1_455
