# generated using pymatgen
data_Ce5Al2Ru3
_symmetry_space_group_name_H-M   'P 1'
_cell_length_a   8.43246824
_cell_length_b   8.43246824
_cell_length_c   8.43246771
_cell_angle_alpha   109.70722478
_cell_angle_beta   109.70722478
_cell_angle_gamma   109.70723306
_symmetry_Int_Tables_number   1
_chemical_formula_structural   Ce5Al2Ru3
_chemical_formula_sum   'Ce10 Al4 Ru6'
_cell_volume   457.49730110
_cell_formula_units_Z   2
loop_
 _symmetry_equiv_pos_site_id
 _symmetry_equiv_pos_as_xyz
  1  'x, y, z'
loop_
 _atom_site_type_symbol
 _atom_site_label
 _atom_site_symmetry_multiplicity
 _atom_site_fract_x
 _atom_site_fract_y
 _atom_site_fract_z
 _atom_site_occupancy
  Ce  Ce0  1  0.46454400  0.15341000  0.21094600  1
  Ce  Ce1  1  0.15341000  0.21094600  0.46454400  1
  Ce  Ce2  1  0.21094600  0.46454400  0.15341000  1
  Ce  Ce3  1  0.41464800  0.69312100  0.90530800  1
  Ce  Ce4  1  0.69312100  0.90530800  0.41464800  1
  Ce  Ce5  1  0.90530800  0.41464800  0.69312100  1
  Ce  Ce6  1  0.65389800  0.10176600  0.84808200  1
  Ce  Ce7  1  0.10176600  0.84808200  0.65389800  1
  Ce  Ce8  1  0.84808200  0.65389800  0.10176600  1
  Ce  Ce9  1  0.61580000  0.61580000  0.61580000  1
  Al  Al0  1  0.40553600  0.31147800  0.91093800  1
  Al  Al1  1  0.31147800  0.91093800  0.40553600  1
  Al  Al2  1  0.91093800  0.40553600  0.31147800  1
  Al  Al3  1  0.00048700  0.00048700  0.00048700  1
  Ru  Ru0  1  0.02969900  0.16523900  0.78864100  1
  Ru  Ru1  1  0.16523900  0.78864100  0.02969900  1
  Ru  Ru2  1  0.78864100  0.02969900  0.16523900  1
  Ru  Ru3  1  0.66022100  0.52684900  0.28939100  1
  Ru  Ru4  1  0.52684900  0.28939100  0.66022100  1
  Ru  Ru5  1  0.28939100  0.66022100  0.52684900  1
loop_
_geom_bond_atom_site_label_1
_geom_bond_atom_site_label_2
_geom_bond_distance
_geom_bond_site_symmetry_2
Ce0 Ru1 2.675673 1_545
Ce0 Ru3 2.726018 1_555
Ce0 Ru2 3.326823 1_555
Ce0 Ru4 3.356349 1_555
Ce1 Ru2 2.675673 1_455
Ce1 Ru4 2.726018 1_555
Ce1 Ru0 3.326823 1_555
Ce1 Ru5 3.356349 1_555
Ce2 Ru0 2.675673 1_554
Ce2 Ru5 2.726018 1_555
Ce2 Ru1 3.326823 1_555
Ce2 Ru3 3.356349 1_555
Ce3 Ru2 2.812675 1_566
Ce3 Ru1 2.869264 1_556
Ce3 Ru5 2.882562 1_555
Ce4 Ru0 2.812675 1_665
Ce4 Ru2 2.869264 1_565
Ce4 Ru3 2.882562 1_555
Ce5 Ru1 2.812675 1_656
Ce5 Ru0 2.869264 1_655
Ce5 Ru4 2.882562 1_555
Ce6 Ru4 2.801661 1_555
Ce6 Ru2 2.885341 1_556
Ce6 Ru5 3.242296 1_545
Ce6 Ru0 3.269266 1_655
Ce7 Ru5 2.801661 1_555
Ce7 Ru0 2.885341 1_565
Ce7 Ru3 3.242296 1_455
Ce7 Ru1 3.269265 1_556
Ce8 Ru3 2.801661 1_555
Ce8 Ru1 2.885341 1_655
Ce8 Ru4 3.242296 1_554
Ce8 Ru2 3.269266 1_565
Ce9 Ru3 2.787698 1_555
Ce9 Ru4 2.787698 1_555
Ce9 Ru5 2.787698 1_555
Al0 Ru4 2.621521 1_555
Al0 Ru0 2.632589 1_555
Al0 Ru3 2.633111 1_556
Al0 Ce0 3.208839 1_556
Al0 Ce3 3.209930 1_555
Al0 Ce7 3.212684 1_545
Al0 Ce8 3.225221 1_556
Al0 Ce6 3.226225 1_555
Al0 Ce2 3.232677 1_556
Al0 Ce1 3.262350 1_555
Al1 Ru5 2.621521 1_555
Al1 Ru1 2.632589 1_555
Al1 Ru4 2.633111 1_565
Al1 Ce1 3.208840 1_565
Al1 Ce4 3.209930 1_555
Al1 Ce8 3.212684 1_455
Al1 Ce6 3.225221 1_565
Al1 Ce7 3.226225 1_555
Al1 Ce0 3.232677 1_565
Al1 Ce2 3.262350 1_555
Al2 Ru3 2.621521 1_555
Al2 Ru2 2.632589 1_555
Al2 Ru5 2.633111 1_655
Al2 Ce2 3.208839 1_655
Al2 Ce5 3.209930 1_555
Al2 Ce6 3.212684 1_554
Al2 Ce7 3.225221 1_655
Al2 Ce8 3.226225 1_555
Al2 Ce1 3.232677 1_655
Al2 Ce0 3.262350 1_555
Al3 Ru0 2.630903 1_554
Al3 Ru2 2.630903 1_455
Al3 Ru1 2.630904 1_545
Al3 Ce9 3.205873 1_444
Al3 Ce1 3.239569 1_555
Al3 Ce2 3.239569 1_555
Al3 Ce0 3.239569 1_555
Al3 Ce8 3.288317 1_445
Al3 Ce7 3.288317 1_544
Al3 Ce6 3.288317 1_454
