# generated using pymatgen
data_Tm5(In2Ni)2
_symmetry_space_group_name_H-M   'P 1'
_cell_length_a   3.52048600
_cell_length_b   7.97747200
_cell_length_c   17.82575400
_cell_angle_alpha   90.00000000
_cell_angle_beta   90.00000000
_cell_angle_gamma   90.00000000
_symmetry_Int_Tables_number   1
_chemical_formula_structural   Tm5(In2Ni)2
_chemical_formula_sum   'Tm10 In8 Ni4'
_cell_volume   500.62878738
_cell_formula_units_Z   2
loop_
 _symmetry_equiv_pos_site_id
 _symmetry_equiv_pos_as_xyz
  1  'x, y, z'
loop_
 _atom_site_type_symbol
 _atom_site_label
 _atom_site_symmetry_multiplicity
 _atom_site_fract_x
 _atom_site_fract_y
 _atom_site_fract_z
 _atom_site_occupancy
  Tm  Tm0  1  0.00000000  0.50000000  0.50000000  1
  Tm  Tm1  1  0.00000000  0.00000000  0.00000000  1
  Tm  Tm2  1  0.00000000  0.74571700  0.27861300  1
  Tm  Tm3  1  0.00000000  0.25428300  0.72138700  1
  Tm  Tm4  1  0.00000000  0.75428300  0.77861300  1
  Tm  Tm5  1  0.00000000  0.24571700  0.22138700  1
  Tm  Tm6  1  0.00000000  0.61780800  0.08737100  1
  Tm  Tm7  1  0.00000000  0.38219200  0.91262900  1
  Tm  Tm8  1  0.00000000  0.88219200  0.58737100  1
  Tm  Tm9  1  0.00000000  0.11780800  0.41262900  1
  In  In0  1  0.50000000  0.70582100  0.93041500  1
  In  In1  1  0.50000000  0.29417900  0.06958500  1
  In  In2  1  0.50000000  0.79417900  0.43041500  1
  In  In3  1  0.50000000  0.20582100  0.56958500  1
  In  In4  1  0.50000000  0.57322900  0.65191000  1
  In  In5  1  0.50000000  0.42677100  0.34809000  1
  In  In6  1  0.50000000  0.92677100  0.15191000  1
  In  In7  1  0.50000000  0.07322900  0.84809000  1
  Ni  Ni0  1  0.50000000  0.52464800  0.19536100  1
  Ni  Ni1  1  0.50000000  0.47535200  0.80463900  1
  Ni  Ni2  1  0.50000000  0.97535200  0.69536100  1
  Ni  Ni3  1  0.50000000  0.02464800  0.30463900  1
loop_
_geom_bond_atom_site_label_1
_geom_bond_atom_site_label_2
_geom_bond_distance
_geom_bond_site_symmetry_2
In0 Ni1 2.899500 1_555
In0 Tm7 3.140758 1_655
In0 Tm7 3.140758 1_555
In0 Tm1 3.185051 1_666
In0 Tm1 3.185051 1_566
In0 Tm4 3.251196 1_555
In0 Tm4 3.251196 1_655
In0 Tm6 3.379267 1_656
In0 Tm6 3.379267 1_556
In1 Ni0 2.899500 1_555
In1 Tm6 3.140758 1_555
In1 Tm6 3.140758 1_655
In1 Tm1 3.185051 1_655
In1 Tm1 3.185051 1_555
In1 Tm5 3.251196 1_655
In1 Tm5 3.251196 1_555
In1 Tm7 3.379267 1_554
In1 Tm7 3.379267 1_654
In2 Ni3 2.899500 1_565
In2 Tm9 3.140758 1_565
In2 Tm9 3.140758 1_665
In2 Tm0 3.185051 1_555
In2 Tm0 3.185051 1_655
In2 Tm2 3.251196 1_655
In2 Tm2 3.251196 1_555
In2 Tm8 3.379267 1_655
In2 Tm8 3.379267 1_555
In3 Ni2 2.899500 1_545
In3 Tm8 3.140758 1_645
In3 Tm8 3.140758 1_545
In3 Tm0 3.185051 1_555
In3 Tm0 3.185051 1_655
In3 Tm3 3.251196 1_555
In3 Tm3 3.251196 1_655
In3 Tm9 3.379267 1_655
In3 Tm9 3.379267 1_555
In4 Ni1 2.832265 1_555
In4 Tm4 3.207145 1_655
In4 Tm4 3.207145 1_555
In4 Tm8 3.239902 1_655
In4 Tm8 3.239902 1_555
In4 Tm0 3.282149 1_555
In4 Tm0 3.282149 1_655
In4 Tm3 3.332592 1_655
In4 Tm3 3.332592 1_555
In5 Ni0 2.832265 1_555
In5 Tm5 3.207145 1_555
In5 Tm5 3.207145 1_655
In5 Tm9 3.239902 1_655
In5 Tm9 3.239902 1_555
In5 Tm0 3.282149 1_555
In5 Tm0 3.282149 1_655
In5 Tm2 3.332592 1_655
In5 Tm2 3.332592 1_555
In6 Ni3 2.832265 1_565
In6 Tm2 3.207145 1_655
In6 Tm2 3.207145 1_555
In6 Tm6 3.239902 1_555
In6 Tm6 3.239902 1_655
In6 Tm1 3.282149 1_565
In6 Tm1 3.282149 1_665
In6 Tm5 3.332592 1_665
In6 Tm5 3.332592 1_565
In7 Ni2 2.832265 1_545
In7 Tm3 3.207145 1_655
In7 Tm3 3.207145 1_555
In7 Tm7 3.239902 1_655
In7 Tm7 3.239902 1_555
In7 Tm1 3.282149 1_556
In7 Tm1 3.282149 1_656
In7 Tm4 3.332592 1_545
In7 Tm4 3.332592 1_645
Ni0 Tm6 2.712270 1_555
Ni0 Tm6 2.712270 1_655
Ni0 Tm5 2.874899 1_655
Ni0 Tm5 2.874899 1_555
Ni0 Tm2 2.900170 1_555
Ni0 Tm2 2.900170 1_655
Ni1 Tm7 2.712270 1_555
Ni1 Tm7 2.712270 1_655
Ni1 Tm4 2.874899 1_655
Ni1 Tm4 2.874899 1_555
Ni1 Tm3 2.900170 1_655
Ni1 Tm3 2.900170 1_555
Ni2 Tm8 2.712270 1_655
Ni2 Tm8 2.712270 1_555
Ni2 Tm3 2.874899 1_565
Ni2 Tm3 2.874899 1_665
Ni2 Tm4 2.900170 1_555
Ni2 Tm4 2.900170 1_655
Ni3 Tm9 2.712270 1_555
Ni3 Tm9 2.712270 1_655
Ni3 Tm2 2.874899 1_545
Ni3 Tm2 2.874899 1_645
Ni3 Tm5 2.900170 1_555
Ni3 Tm5 2.900170 1_655
