# generated using pymatgen
data_SrMoO2
_symmetry_space_group_name_H-M   'P 1'
_cell_length_a   7.61145371
_cell_length_b   7.61145371
_cell_length_c   7.61145371
_cell_angle_alpha   128.29910068
_cell_angle_beta   128.29910068
_cell_angle_gamma   76.14099547
_symmetry_Int_Tables_number   1
_chemical_formula_structural   SrMoO2
_chemical_formula_sum   'Sr4 Mo4 O8'
_cell_volume   263.99584018
_cell_formula_units_Z   4
loop_
 _symmetry_equiv_pos_site_id
 _symmetry_equiv_pos_as_xyz
  1  'x, y, z'
loop_
 _atom_site_type_symbol
 _atom_site_label
 _atom_site_symmetry_multiplicity
 _atom_site_fract_x
 _atom_site_fract_y
 _atom_site_fract_z
 _atom_site_occupancy
  Sr  Sr0  1  0.87500000  0.62500000  0.25000000  1
  Sr  Sr1  1  0.37500000  0.62500000  0.75000000  1
  Sr  Sr2  1  0.37500000  0.62500000  0.25000000  1
  Sr  Sr3  1  0.37500000  0.12500000  0.75000000  1
  Mo  Mo0  1  0.37500000  0.12500000  0.25000000  1
  Mo  Mo1  1  0.87500000  0.12500000  0.75000000  1
  Mo  Mo2  1  0.87500000  0.12500000  0.25000000  1
  Mo  Mo3  1  0.87500000  0.62500000  0.75000000  1
  O  O0  1  0.15824700  0.37634400  0.21809700  1
  O  O1  1  0.15824700  0.94015000  0.78190300  1
  O  O2  1  0.12634400  0.40824700  0.71809700  1
  O  O3  1  0.59175300  0.87365600  0.28190300  1
  O  O4  1  0.69015000  0.40824700  0.28190300  1
  O  O5  1  0.59175300  0.30985000  0.71809700  1
  O  O6  1  0.62365600  0.84175300  0.78190300  1
  O  O7  1  0.05985000  0.84175300  0.21809700  1
loop_
_geom_bond_atom_site_label_1
_geom_bond_atom_site_label_2
_geom_bond_distance
_geom_bond_site_symmetry_2
Mo0 O1 2.237845 1_544
Mo0 O0 2.237845 1_555
Mo0 O5 2.237845 1_555
Mo0 O3 2.237845 1_545
Mo1 O3 2.237845 1_545
Mo1 O1 2.237845 1_645
Mo1 O0 2.237845 1_656
Mo1 O5 2.237845 1_555
Mo2 O2 2.237845 1_655
Mo2 O6 2.237845 1_544
Mo2 O7 2.237845 1_645
Mo2 O4 2.237845 1_555
Mo3 O4 2.237845 1_555
Mo3 O6 2.237845 1_555
Mo3 O7 2.237845 1_656
Mo3 O2 2.237845 1_655
O0 Sr1 2.532489 1_555
O0 Sr0 2.532489 1_455
O0 Sr2 2.606244 1_555
O1 Sr1 2.532489 1_555
O1 Sr0 2.532489 1_455
O1 Sr3 2.606244 1_565
O2 Sr3 2.532489 1_555
O2 Sr2 2.532489 1_556
O2 Sr1 2.606244 1_555
O3 Sr0 2.532489 1_555
O3 Sr1 2.532489 1_554
O3 Sr2 2.606244 1_555
O4 Sr2 2.532489 1_555
O4 Sr3 2.532489 1_554
O4 Sr0 2.606244 1_555
O5 Sr1 2.532489 1_555
O5 Sr0 2.532489 1_556
O5 Sr3 2.606244 1_555
O6 Sr3 2.532489 1_565
O6 Sr2 2.532489 1_555
O6 Sr1 2.606244 1_555
O7 Sr2 2.532489 1_555
O7 Sr3 2.532489 1_565
O7 Sr0 2.606244 1_455
