# generated using pymatgen
data_TaNbMo
_symmetry_space_group_name_H-M   'P 1'
_cell_length_a   14.32445178
_cell_length_b   13.89987977
_cell_length_c   5.73862438
_cell_angle_alpha   82.45457367
_cell_angle_beta   74.14539064
_cell_angle_gamma   23.40003570
_symmetry_Int_Tables_number   1
_chemical_formula_structural   TaNbMo
_chemical_formula_sum   'Ta8 Nb8 Mo8'
_cell_volume   414.64914509
_cell_formula_units_Z   8
loop_
 _symmetry_equiv_pos_site_id
 _symmetry_equiv_pos_as_xyz
  1  'x, y, z'
loop_
 _atom_site_type_symbol
 _atom_site_label
 _atom_site_symmetry_multiplicity
 _atom_site_fract_x
 _atom_site_fract_y
 _atom_site_fract_z
 _atom_site_occupancy
  Ta  Ta0_0  1  0.33075381  0.33075381  0.16924619  1
  Ta  Ta0_1  1  0.33075381  0.33075381  0.66924619  1
  Ta  Ta0_2  1  0.33075381  0.83075381  0.16924619  1
  Ta  Ta0_3  1  0.33075381  0.83075381  0.66924619  1
  Ta  Ta0_4  1  0.83075381  0.33075381  0.16924619  1
  Ta  Ta0_5  1  0.83075381  0.33075381  0.66924619  1
  Ta  Ta0_6  1  0.83075381  0.83075381  0.16924619  1
  Ta  Ta0_7  1  0.83075381  0.83075381  0.66924619  1
  Nb  Nb0_0  1  0.16890712  0.16890712  0.33109288  1
  Nb  Nb0_1  1  0.16890712  0.16890712  0.83109288  1
  Nb  Nb0_2  1  0.16890712  0.66890712  0.33109288  1
  Nb  Nb0_3  1  0.16890712  0.66890712  0.83109288  1
  Nb  Nb0_4  1  0.66890712  0.16890712  0.33109288  1
  Nb  Nb0_5  1  0.66890712  0.16890712  0.83109288  1
  Nb  Nb0_6  1  0.66890712  0.66890712  0.33109288  1
  Nb  Nb0_7  1  0.66890712  0.66890712  0.83109288  1
  Mo  Mo0_0  1  0.00033957  0.00033958  0.49966043  1
  Mo  Mo0_1  1  0.00033957  0.00033958  0.99966042  1
  Mo  Mo0_2  1  0.00033958  0.50033958  0.49966042  1
  Mo  Mo0_3  1  0.00033957  0.50033958  0.99966042  1
  Mo  Mo0_4  1  0.50033958  0.00033958  0.49966042  1
  Mo  Mo0_5  1  0.50033958  0.00033958  0.99966042  1
  Mo  Mo0_6  1  0.50033958  0.50033958  0.49966042  1
  Mo  Mo0_7  1  0.50033957  0.50033958  0.99966042  1
loop_
_geom_bond_atom_site_label_1
_geom_bond_atom_site_label_2
_geom_bond_distance
_geom_bond_site_symmetry_2
Ta0_0 Ta0_1 2.869312 1_554
Ta0_0 Ta0_6 2.869312 1_455
Ta0_0 Ta0_6 2.869312 1_545
Ta0_0 Ta0_1 2.869312 1_555
Ta0_1 Ta0_7 2.869312 1_545
Ta0_1 Ta0_7 2.869312 1_455
Ta0_2 Ta0_3 2.869312 1_555
Ta0_2 Ta0_4 2.869312 1_555
Ta0_2 Ta0_3 2.869312 1_554
Ta0_2 Ta0_4 2.869312 1_465
Ta0_3 Ta0_5 2.869312 1_465
Ta0_3 Ta0_5 2.869312 1_555
Ta0_4 Ta0_5 2.869312 1_554
Ta0_4 Ta0_5 2.869312 1_555
Ta0_6 Ta0_7 2.869312 1_554
Ta0_6 Ta0_7 2.869312 1_555
Nb0_0 Nb0_1 2.869312 1_554
Nb0_0 Nb0_6 2.869312 1_545
Nb0_0 Nb0_1 2.869312 1_555
Nb0_0 Nb0_6 2.869312 1_455
Nb0_0 Ta0_2 2.880734 1_545
Nb0_0 Ta0_5 2.880734 1_455
Nb0_1 Nb0_7 2.869312 1_545
Nb0_1 Nb0_7 2.869312 1_455
Nb0_1 Ta0_4 2.880734 1_456
Nb0_1 Ta0_3 2.880734 1_545
Nb0_2 Nb0_3 2.869312 1_554
Nb0_2 Nb0_3 2.869312 1_555
Nb0_2 Nb0_4 2.869312 1_555
Nb0_2 Nb0_4 2.869312 1_465
Nb0_2 Ta0_7 2.880734 1_455
Nb0_2 Ta0_0 2.880734 1_555
Nb0_3 Nb0_5 2.869312 1_465
Nb0_3 Nb0_5 2.869312 1_555
Nb0_3 Ta0_6 2.880734 1_456
Nb0_3 Ta0_1 2.880734 1_555
Nb0_4 Nb0_5 2.869312 1_555
Nb0_4 Nb0_5 2.869312 1_554
Nb0_4 Ta0_6 2.880734 1_545
Nb0_4 Ta0_1 2.880734 1_555
Nb0_5 Ta0_7 2.880734 1_545
Nb0_5 Ta0_0 2.880734 1_556
Nb0_6 Nb0_7 2.869312 1_555
Nb0_6 Nb0_7 2.869312 1_554
Nb0_6 Ta0_3 2.880734 1_555
Nb0_6 Ta0_4 2.880734 1_555
Nb0_7 Ta0_2 2.880734 1_556
Nb0_7 Ta0_5 2.880734 1_555
Mo0_0 Ta0_2 2.710182 1_545
Mo0_0 Ta0_5 2.710182 1_455
Mo0_0 Nb0_5 2.732314 1_455
Mo0_0 Nb0_2 2.732314 1_545
Mo0_0 Mo0_1 2.869312 1_555
Mo0_0 Mo0_1 2.869312 1_554
Mo0_0 Mo0_6 2.869312 1_455
Mo0_0 Mo0_6 2.869312 1_545
Mo0_1 Ta0_3 2.710182 1_545
Mo0_1 Ta0_4 2.710182 1_456
Mo0_1 Nb0_3 2.732314 1_545
Mo0_1 Nb0_4 2.732314 1_456
Mo0_1 Mo0_7 2.869312 1_545
Mo0_1 Mo0_7 2.869312 1_455
Mo0_2 Ta0_0 2.710182 1_555
Mo0_2 Ta0_7 2.710182 1_455
Mo0_2 Nb0_7 2.732314 1_455
Mo0_2 Nb0_0 2.732314 1_555
Mo0_2 Mo0_3 2.869312 1_555
Mo0_2 Mo0_4 2.869312 1_555
Mo0_2 Mo0_3 2.869312 1_554
Mo0_2 Mo0_4 2.869312 1_465
Mo0_3 Ta0_1 2.710182 1_555
Mo0_3 Ta0_6 2.710182 1_456
Mo0_3 Nb0_6 2.732314 1_456
Mo0_3 Nb0_1 2.732314 1_555
Mo0_3 Mo0_5 2.869312 1_465
Mo0_3 Mo0_5 2.869312 1_555
Mo0_4 Ta0_1 2.710182 1_555
Mo0_4 Ta0_6 2.710182 1_545
Mo0_4 Nb0_6 2.732314 1_545
Mo0_4 Nb0_1 2.732314 1_555
Mo0_4 Mo0_5 2.869312 1_554
Mo0_4 Mo0_5 2.869312 1_555
Mo0_5 Ta0_0 2.710182 1_556
Mo0_5 Ta0_7 2.710182 1_545
Mo0_5 Nb0_7 2.732314 1_545
Mo0_5 Nb0_0 2.732314 1_556
Mo0_6 Ta0_3 2.710182 1_555
Mo0_6 Ta0_4 2.710182 1_555
Mo0_6 Nb0_4 2.732314 1_555
Mo0_6 Nb0_3 2.732314 1_555
Mo0_6 Mo0_7 2.869312 1_555
Mo0_6 Mo0_7 2.869312 1_554
Mo0_7 Ta0_2 2.710182 1_556
Mo0_7 Ta0_5 2.710182 1_555
Mo0_7 Nb0_2 2.732314 1_556
Mo0_7 Nb0_5 2.732314 1_555
