# generated using pymatgen
data_KMg3AlSi3(HO6)2
_symmetry_space_group_name_H-M   'P 1'
_cell_length_a   5.36146700
_cell_length_b   5.36375061
_cell_length_c   10.57924437
_cell_angle_alpha   79.10671227
_cell_angle_beta   84.56679242
_cell_angle_gamma   60.02136489
_symmetry_Int_Tables_number   1
_chemical_formula_structural   KMg3AlSi3(HO6)2
_chemical_formula_sum   'K1 Mg3 Al1 Si3 H2 O12'
_cell_volume   258.78193439
_cell_formula_units_Z   1
loop_
 _symmetry_equiv_pos_site_id
 _symmetry_equiv_pos_as_xyz
  1  'x, y, z'
loop_
 _atom_site_type_symbol
 _atom_site_label
 _atom_site_symmetry_multiplicity
 _atom_site_fract_x
 _atom_site_fract_y
 _atom_site_fract_z
 _atom_site_occupancy
  K  K0  1  0.99900600  0.99529200  0.97864200  1
  Mg  Mg0  1  0.33698400  0.82768100  0.50627100  1
  Mg  Mg1  1  0.66610400  0.16023300  0.50526300  1
  Mg  Mg2  1  0.99780400  0.50417800  0.50567900  1
  Al  Al0  1  0.66582700  0.73456600  0.76830100  1
  Si  Si0  1  0.33355600  0.39890000  0.77261900  1
  Si  Si1  1  0.33168000  0.26748900  0.23459700  1
  Si  Si2  1  0.66452800  0.59963100  0.23482500  1
  H  H0  1  0.99938200  0.09773400  0.69090900  1
  H  H1  1  0.01200200  0.90288100  0.30504600  1
  O  O0  1  0.66456500  0.79634700  0.59980900  1
  O  O1  1  0.33506200  0.45696000  0.61232300  1
  O  O2  1  0.33134400  0.21301300  0.38955300  1
  O  O3  1  0.66437200  0.53952800  0.38976600  1
  O  O4  1  0.01265300  0.46742700  0.82746100  1
  O  O5  1  0.99793500  0.46691600  0.17572000  1
  O  O6  1  0.56475000  0.05811900  0.82851000  1
  O  O7  1  0.42115400  0.61037200  0.82834500  1
  O  O8  1  0.48682900  0.95540400  0.17606600  1
  O  O9  1  0.50893100  0.44538200  0.17438000  1
  O  O10  1  0.00005000  0.13288200  0.59792300  1
  O  O11  1  0.00548200  0.86906400  0.39799300  1
loop_
_geom_bond_atom_site_label_1
_geom_bond_atom_site_label_2
_geom_bond_distance
_geom_bond_site_symmetry_2
K0 O4 2.758379 1_665
K0 O6 2.787623 1_565
K0 O7 2.793363 1_655
K0 O5 3.187422 1_556
Mg0 O0 2.015786 1_555
Mg0 O10 2.048465 1_565
Mg0 O1 2.094734 1_555
Mg0 O11 2.101322 1_555
Mg0 O3 2.141988 1_555
Mg0 O2 2.185727 1_565
Mg1 O0 2.021554 1_545
Mg1 O10 2.050281 1_655
Mg1 O1 2.108012 1_555
Mg1 O11 2.115824 1_645
Mg1 O2 2.139450 1_555
Mg1 O3 2.162346 1_555
Mg2 O0 2.023481 1_555
Mg2 O10 2.040195 1_655
Mg2 O11 2.087805 1_655
Mg2 O1 2.104104 1_655
Mg2 O2 2.159705 1_655
Mg2 O3 2.173482 1_555
Al0 O0 1.750433 1_555
Al0 O4 1.766719 1_655
Al0 O7 1.767384 1_555
Al0 O6 1.767423 1_565
H0 O10 0.966010 1_655
H1 O11 0.966144 1_555
O1 Si0 1.665274 1_555
O2 Si1 1.609865 1_555
O3 Si2 1.609675 1_555
O4 Si0 1.640567 1_555
O5 Si2 1.666725 1_555
O5 Si1 1.667463 1_655
O6 Si0 1.641102 1_555
O7 Si0 1.640817 1_555
O8 Si1 1.667378 1_565
O8 Si2 1.668095 1_555
O9 Si2 1.667364 1_555
O9 Si1 1.667692 1_555
