# generated using pymatgen
data_Zr(CdN)4
_symmetry_space_group_name_H-M   'P 1'
_cell_length_a   6.06164373
_cell_length_b   6.03226903
_cell_length_c   9.14246664
_cell_angle_alpha   68.98584017
_cell_angle_beta   85.70546327
_cell_angle_gamma   68.49106143
_symmetry_Int_Tables_number   1
_chemical_formula_structural   Zr(CdN)4
_chemical_formula_sum   'Zr2 Cd8 N8'
_cell_volume   289.71576801
_cell_formula_units_Z   2
loop_
 _symmetry_equiv_pos_site_id
 _symmetry_equiv_pos_as_xyz
  1  'x, y, z'
loop_
 _atom_site_type_symbol
 _atom_site_label
 _atom_site_symmetry_multiplicity
 _atom_site_fract_x
 _atom_site_fract_y
 _atom_site_fract_z
 _atom_site_occupancy
  Zr  Zr0  1  0.72141600  0.83842700  0.77517700  1
  Zr  Zr1  1  0.27858400  0.16157300  0.22482300  1
  Cd  Cd0  1  0.71278200  0.63249200  0.19512300  1
  Cd  Cd1  1  0.28721800  0.36750800  0.80487700  1
  Cd  Cd2  1  0.75910400  0.23039100  0.00000800  1
  Cd  Cd3  1  0.24089600  0.76960900  0.99999200  1
  Cd  Cd4  1  0.75535800  0.47396600  0.57237000  1
  Cd  Cd5  1  0.24464200  0.52603400  0.42763000  1
  Cd  Cd6  1  0.25353500  0.92161200  0.58587400  1
  Cd  Cd7  1  0.74646500  0.07838800  0.41412600  1
  N  N0  1  0.96635500  0.70230700  0.61381000  1
  N  N1  1  0.03364500  0.29769300  0.38619000  1
  N  N2  1  0.84898600  0.83644600  0.98152000  1
  N  N3  1  0.15101400  0.16355400  0.01848000  1
  N  N4  1  0.47778600  0.65114000  0.81162300  1
  N  N5  1  0.52221400  0.34886000  0.18837700  1
  N  N6  1  0.46034800  0.78517400  0.36907500  1
  N  N7  1  0.53965200  0.21482600  0.63092500  1
loop_
_geom_bond_atom_site_label_1
_geom_bond_atom_site_label_2
_geom_bond_distance
_geom_bond_site_symmetry_2
Cd0 N2 2.188422 1_554
Cd0 N6 2.317652 1_555
Cd0 N5 2.408559 1_555
Cd0 N1 2.451790 1_655
Cd1 N3 2.188422 1_556
Cd1 N7 2.317652 1_555
Cd1 N4 2.408559 1_555
Cd1 N0 2.451790 1_455
Cd2 N3 2.267938 1_655
Cd2 N2 2.301624 1_544
Cd2 N5 2.301799 1_555
Cd2 N4 2.539103 1_554
Cd3 N2 2.267938 1_455
Cd3 N3 2.301624 1_566
Cd3 N4 2.301799 1_555
Cd3 N5 2.539103 1_556
Cd4 N7 2.287711 1_555
Cd4 N0 2.327080 1_555
Cd4 N6 2.389593 1_555
Cd4 N1 2.535006 1_655
Cd5 N6 2.287711 1_555
Cd5 N1 2.327080 1_555
Cd5 N7 2.389593 1_555
Cd5 N0 2.535006 1_455
Cd6 N4 2.268974 1_555
Cd6 N1 2.330840 1_565
Cd6 N6 2.493759 1_555
Cd6 N0 2.495080 1_455
Cd7 N5 2.268974 1_555
Cd7 N0 2.330840 1_545
Cd7 N7 2.493759 1_555
Cd7 N1 2.495080 1_655
N0 Zr0 2.168389 1_555
N1 Zr1 2.168389 1_555
N2 Zr0 2.086257 1_555
N3 Zr1 2.086257 1_555
N4 Zr0 2.109052 1_555
N5 Zr1 2.109052 1_555
N6 Zr1 2.084263 1_565
N7 Zr0 2.084263 1_545
