# generated using pymatgen
data_Nd3Sb4Pt7
_symmetry_space_group_name_H-M   'P 1'
_cell_length_a   8.60489334
_cell_length_b   8.60489334
_cell_length_c   10.47694307
_cell_angle_alpha   52.63664060
_cell_angle_beta   52.63664060
_cell_angle_gamma   28.97590108
_symmetry_Int_Tables_number   1
_chemical_formula_structural   Nd3Sb4Pt7
_chemical_formula_sum   'Nd3 Sb4 Pt7'
_cell_volume   292.82294609
_cell_formula_units_Z   1
loop_
 _symmetry_equiv_pos_site_id
 _symmetry_equiv_pos_as_xyz
  1  'x, y, z'
loop_
 _atom_site_type_symbol
 _atom_site_label
 _atom_site_symmetry_multiplicity
 _atom_site_fract_x
 _atom_site_fract_y
 _atom_site_fract_z
 _atom_site_occupancy
  Nd  Nd0  1  0.50000000  0.50000000  0.00000000  1
  Nd  Nd1  1  0.82841517  0.82841517  0.68400175  1
  Nd  Nd2  1  0.17158483  0.17158483  0.31599825  1
  Sb  Sb0  1  0.63810676  0.63810676  0.59167604  1
  Sb  Sb1  1  0.17197190  0.17197190  0.97466775  1
  Sb  Sb2  1  0.82802810  0.82802810  0.02533225  1
  Sb  Sb3  1  0.36189324  0.36189324  0.40832396  1
  Pt  Pt0  1  0.82936285  0.82936285  0.27159839  1
  Pt  Pt1  1  0.62327430  0.62327430  0.15382061  1
  Pt  Pt2  1  0.50000000  0.50000000  0.50000000  1
  Pt  Pt3  1  0.17063715  0.17063715  0.72840161  1
  Pt  Pt4  1  0.98415828  0.98415828  0.32114760  1
  Pt  Pt5  1  0.01584172  0.01584172  0.67885240  1
  Pt  Pt6  1  0.37672570  0.37672570  0.84617939  1
loop_
_geom_bond_atom_site_label_1
_geom_bond_atom_site_label_2
_geom_bond_distance
_geom_bond_site_symmetry_2
Nd0 Pt3 3.266965 1_564
Nd0 Pt3 3.266965 1_654
Nd0 Pt0 3.266965 1_455
Nd0 Pt0 3.266965 1_545
Nd0 Pt1 3.311505 1_555
Nd0 Pt6 3.311505 1_554
Nd0 Sb3 3.354940 1_555
Nd0 Sb0 3.354940 1_554
Nd0 Sb2 3.458665 1_545
Nd0 Sb2 3.458665 1_455
Nd0 Sb1 3.458665 1_564
Nd0 Sb1 3.458665 1_654
Nd1 Pt4 2.969727 1_555
Nd1 Pt5 3.089469 1_665
Nd1 Pt2 3.100869 1_655
Nd1 Pt2 3.100869 1_565
Nd1 Pt6 3.143871 1_565
Nd1 Pt6 3.143871 1_655
Nd1 Pt3 3.198303 1_655
Nd1 Pt3 3.198303 1_565
Nd1 Sb1 3.278987 1_565
Nd1 Sb1 3.278987 1_655
Nd1 Sb3 3.356750 1_565
Nd1 Sb3 3.356750 1_655
Nd1 Sb2 3.572061 1_556
Nd2 Pt5 2.969727 1_555
Nd2 Pt4 3.089469 1_445
Nd2 Pt2 3.100869 1_545
Nd2 Pt2 3.100869 1_455
Nd2 Pt1 3.143871 1_455
Nd2 Pt1 3.143871 1_545
Nd2 Pt0 3.198303 1_455
Nd2 Pt0 3.198303 1_545
Nd2 Sb2 3.278987 1_545
Nd2 Sb2 3.278987 1_455
Nd2 Sb0 3.356750 1_545
Nd2 Sb0 3.356750 1_455
Nd2 Sb1 3.572061 1_554
Pt0 Sb2 2.594114 1_555
Pt0 Sb3 2.820181 1_565
Pt0 Sb3 2.820181 1_655
Pt0 Sb0 2.829199 1_555
Pt1 Sb1 2.628017 1_564
Pt1 Sb1 2.628017 1_654
Pt1 Sb2 2.773898 1_555
Pt1 Pt2 2.834505 1_555
Pt2 Pt6 2.834505 1_555
Pt2 Pt4 2.972415 1_545
Pt2 Pt4 2.972415 1_455
Pt2 Pt5 2.972415 1_655
Pt2 Pt5 2.972415 1_565
Pt2 Sb0 2.998146 1_555
Pt2 Sb3 2.998146 1_555
Pt3 Sb1 2.594114 1_555
Pt3 Sb0 2.820181 1_545
Pt3 Sb0 2.820181 1_455
Pt3 Sb3 2.829199 1_555
Pt4 Sb3 2.699311 1_565
Pt4 Sb3 2.699311 1_655
Pt4 Sb1 2.954615 1_664
Pt5 Sb0 2.699311 1_545
Pt5 Sb0 2.699311 1_455
Pt5 Sb2 2.954615 1_446
Pt6 Sb2 2.628017 1_546
Pt6 Sb2 2.628017 1_456
Pt6 Sb1 2.773898 1_555
