# generated using pymatgen
data_RbHfMg14O15
_symmetry_space_group_name_H-M   'P 1'
_cell_length_a   4.17764700
_cell_length_b   8.41779500
_cell_length_c   10.78961400
_cell_angle_alpha   90.00000000
_cell_angle_beta   90.00000000
_cell_angle_gamma   90.00000000
_symmetry_Int_Tables_number   1
_chemical_formula_structural   RbHfMg14O15
_chemical_formula_sum   'Rb1 Hf1 Mg14 O15'
_cell_volume   379.43378105
_cell_formula_units_Z   1
loop_
 _symmetry_equiv_pos_site_id
 _symmetry_equiv_pos_as_xyz
  1  'x, y, z'
loop_
 _atom_site_type_symbol
 _atom_site_label
 _atom_site_symmetry_multiplicity
 _atom_site_fract_x
 _atom_site_fract_y
 _atom_site_fract_z
 _atom_site_occupancy
  Rb  Rb0  1  0.00000000  0.00000000  0.93644000  1
  Hf  Hf0  1  0.00000000  0.50000000  0.98985700  1
  Mg  Mg0  1  0.00000000  0.00000000  0.47404800  1
  Mg  Mg1  1  0.00000000  0.50000000  0.46045100  1
  Mg  Mg2  1  0.50000000  0.76649700  0.07739200  1
  Mg  Mg3  1  0.50000000  0.23350300  0.07739200  1
  Mg  Mg4  1  0.50000000  0.74441700  0.48156000  1
  Mg  Mg5  1  0.50000000  0.25558300  0.48156000  1
  Mg  Mg6  1  0.50000000  0.00000000  0.67227500  1
  Mg  Mg7  1  0.50000000  0.50000000  0.72415900  1
  Mg  Mg8  1  0.50000000  0.00000000  0.26831700  1
  Mg  Mg9  1  0.50000000  0.50000000  0.27085700  1
  Mg  Mg10  1  0.00000000  0.74774900  0.68409800  1
  Mg  Mg11  1  0.00000000  0.25225100  0.68409800  1
  Mg  Mg12  1  0.00000000  0.75315000  0.26645200  1
  Mg  Mg13  1  0.00000000  0.24685000  0.26645200  1
  O  O0  1  0.00000000  0.50000000  0.79290000  1
  O  O1  1  0.00000000  0.00000000  0.28954300  1
  O  O2  1  0.00000000  0.50000000  0.27418800  1
  O  O3  1  0.50000000  0.74147100  0.68448200  1
  O  O4  1  0.50000000  0.25852900  0.68448200  1
  O  O5  1  0.50000000  0.74606600  0.26968900  1
  O  O6  1  0.50000000  0.25393400  0.26968900  1
  O  O7  1  0.50000000  0.00000000  0.07932100  1
  O  O8  1  0.50000000  0.50000000  0.03441000  1
  O  O9  1  0.50000000  0.00000000  0.48174600  1
  O  O10  1  0.50000000  0.50000000  0.47632300  1
  O  O11  1  0.00000000  0.71885300  0.06339400  1
  O  O12  1  0.00000000  0.28114700  0.06339400  1
  O  O13  1  0.00000000  0.74299100  0.48551700  1
  O  O14  1  0.00000000  0.25700900  0.48551700  1
loop_
_geom_bond_atom_site_label_1
_geom_bond_atom_site_label_2
_geom_bond_distance
_geom_bond_site_symmetry_2
Hf0 O11 2.005857 1_556
Hf0 O12 2.005857 1_556
Hf0 O0 2.125090 1_555
Hf0 O8 2.143424 1_456
Hf0 O8 2.143424 1_556
Mg0 O1 1.990738 1_555
Mg0 O9 2.090474 1_455
Mg0 O9 2.090474 1_555
Mg0 O14 2.166985 1_555
Mg0 O13 2.166985 1_545
Mg1 O2 2.009706 1_555
Mg1 O13 2.063251 1_555
Mg1 O14 2.063251 1_555
Mg1 O10 2.095832 1_455
Mg1 O10 2.095832 1_555
Mg2 O7 1.965691 1_565
Mg2 O5 2.081926 1_555
Mg2 O11 2.132332 1_555
Mg2 O11 2.132332 1_655
Mg2 O8 2.290752 1_555
Mg3 O7 1.965691 1_555
Mg3 O6 2.081926 1_555
Mg3 O12 2.132332 1_655
Mg3 O12 2.132332 1_555
Mg3 O8 2.290752 1_555
Mg4 O10 2.058228 1_555
Mg4 O13 2.089294 1_555
Mg4 O13 2.089294 1_655
Mg4 O9 2.151446 1_565
Mg4 O3 2.189590 1_555
Mg4 O5 2.286048 1_555
Mg5 O10 2.058228 1_555
Mg5 O14 2.089294 1_655
Mg5 O14 2.089294 1_555
Mg5 O9 2.151446 1_555
Mg5 O4 2.189590 1_555
Mg5 O6 2.286048 1_555
Mg6 O9 2.055734 1_555
Mg6 O4 2.180226 1_555
Mg6 O3 2.180226 1_545
Mg7 O3 2.077246 1_555
Mg7 O4 2.077246 1_555
Mg7 O0 2.216593 1_555
Mg7 O0 2.216593 1_655
Mg7 O10 2.674055 1_555
Mg8 O7 2.039194 1_555
Mg8 O1 2.101341 1_655
Mg8 O1 2.101341 1_555
Mg8 O6 2.137616 1_555
Mg8 O5 2.137616 1_545
Mg8 O9 2.302817 1_555
Mg9 O5 2.071371 1_555
Mg9 O6 2.071371 1_555
Mg9 O2 2.089133 1_655
Mg9 O2 2.089133 1_555
Mg9 O10 2.216899 1_555
Mg9 O8 2.551172 1_555
Mg10 O3 2.089496 1_455
Mg10 O3 2.089496 1_555
Mg10 O13 2.142987 1_555
Mg10 O0 2.393204 1_555
Mg11 O4 2.089496 1_555
Mg11 O4 2.089496 1_455
Mg11 O14 2.142987 1_555
Mg11 O0 2.393204 1_555
Mg12 O5 2.089966 1_555
Mg12 O5 2.089966 1_455
Mg12 O1 2.092815 1_565
Mg12 O2 2.132599 1_555
Mg12 O11 2.209857 1_555
Mg12 O13 2.365173 1_555
Mg13 O6 2.089966 1_455
Mg13 O6 2.089966 1_555
Mg13 O1 2.092815 1_555
Mg13 O2 2.132599 1_555
Mg13 O12 2.209857 1_555
Mg13 O14 2.365173 1_555
O7 Rb0 2.596114 1_554
O7 Rb0 2.596114 1_654
O11 Rb0 2.734462 1_564
O12 Rb0 2.734462 1_554
