# generated using pymatgen
data_Sb2IrC3O3F13
_symmetry_space_group_name_H-M   'P 1'
_cell_length_a   8.66146100
_cell_length_b   8.93403418
_cell_length_c   10.91336768
_cell_angle_alpha   110.64528979
_cell_angle_beta   102.88582663
_cell_angle_gamma   88.46591310
_symmetry_Int_Tables_number   1
_chemical_formula_structural   Sb2IrC3O3F13
_chemical_formula_sum   'Sb4 Ir2 C6 O6 F26'
_cell_volume   769.11587882
_cell_formula_units_Z   2
loop_
 _symmetry_equiv_pos_site_id
 _symmetry_equiv_pos_as_xyz
  1  'x, y, z'
loop_
 _atom_site_type_symbol
 _atom_site_label
 _atom_site_symmetry_multiplicity
 _atom_site_fract_x
 _atom_site_fract_y
 _atom_site_fract_z
 _atom_site_occupancy
  Sb  Sb0  1  0.32139900  0.24830800  0.63924300  1
  Sb  Sb1  1  0.67860100  0.75169200  0.36075700  1
  Sb  Sb2  1  0.68033000  0.79443400  0.83875600  1
  Sb  Sb3  1  0.31967000  0.20556600  0.16124400  1
  Ir  Ir0  1  0.21865600  0.69782900  0.70350600  1
  Ir  Ir1  1  0.78134400  0.30217100  0.29649400  1
  C  C0  1  0.11748100  0.89172400  0.75145900  1
  C  C1  1  0.88251900  0.10827600  0.24854100  1
  C  C2  1  0.19858300  0.70140600  0.51818000  1
  C  C3  1  0.80141700  0.29859400  0.48182000  1
  C  C4  1  0.23379600  0.68532200  0.88452100  1
  C  C5  1  0.76620400  0.31467800  0.11547900  1
  O  O0  1  0.05296000  0.00800000  0.77898200  1
  O  O1  1  0.94704000  0.99200000  0.22101800  1
  O  O2  1  0.19005700  0.70588600  0.41416700  1
  O  O3  1  0.80994300  0.29411400  0.58583300  1
  O  O4  1  0.23790600  0.67412900  0.98559400  1
  O  O5  1  0.76209400  0.32587100  0.01440600  1
  F  F0  1  0.01927100  0.56993800  0.64523000  1
  F  F1  1  0.98072900  0.43006200  0.35477000  1
  F  F2  1  0.33322900  0.48366900  0.64473300  1
  F  F3  1  0.66677100  0.51633100  0.35526700  1
  F  F4  1  0.13630300  0.21310200  0.49721800  1
  F  F5  1  0.86369700  0.78689800  0.50278200  1
  F  F6  1  0.45459900  0.20128900  0.51575500  1
  F  F7  1  0.54540100  0.79871100  0.48424500  1
  F  F8  1  0.19184300  0.33000000  0.76592100  1
  F  F9  1  0.80815700  0.67000000  0.23407900  1
  F  F10  1  0.29795000  0.03369800  0.63231100  1
  F  F11  1  0.70205000  0.96630200  0.36768900  1
  F  F12  1  0.50392800  0.30255400  0.78271400  1
  F  F13  1  0.49607200  0.69744600  0.21728600  1
  F  F14  1  0.44255300  0.81894200  0.76179000  1
  F  F15  1  0.55744700  0.18105800  0.23821000  1
  F  F16  1  0.67199800  0.97667300  0.99595300  1
  F  F17  1  0.32800200  0.02332700  0.00404700  1
  F  F18  1  0.66889200  0.61562400  0.67723500  1
  F  F19  1  0.33110800  0.38437600  0.32276500  1
  F  F20  1  0.59887300  0.66408900  0.91741500  1
  F  F21  1  0.40112700  0.33591100  0.08258500  1
  F  F22  1  0.72693300  0.93954800  0.75867900  1
  F  F23  1  0.27306700  0.06045200  0.24132100  1
  F  F24  1  0.89910000  0.77309200  0.90737000  1
  F  F25  1  0.10090000  0.22690800  0.09263000  1
loop_
_geom_bond_atom_site_label_1
_geom_bond_atom_site_label_2
_geom_bond_distance
_geom_bond_site_symmetry_2
C0 O0 1.142549 1_565
C0 Ir0 1.877914 1_555
C1 O1 1.142549 1_545
C1 Ir1 1.877914 1_555
C2 O2 1.135813 1_555
C2 Ir0 2.002579 1_555
C3 O3 1.135813 1_555
C3 Ir1 2.002579 1_555
C4 O4 1.134926 1_555
C4 Ir0 1.992873 1_555
C5 O5 1.134926 1_555
C5 Ir1 1.992873 1_555
F0 Ir0 1.948267 1_555
F1 Ir1 1.948267 1_555
F2 Sb0 2.086982 1_555
F2 Ir0 2.091367 1_555
F3 Sb1 2.086982 1_555
F3 Ir1 2.091367 1_555
F4 Sb0 1.909581 1_555
F5 Sb1 1.909581 1_555
F6 Sb0 1.895266 1_555
F7 Sb1 1.895266 1_555
F8 Sb0 1.907802 1_555
F9 Sb1 1.907802 1_555
F10 Sb0 1.906529 1_555
F11 Sb1 1.906529 1_555
F12 Sb0 1.894141 1_555
F13 Sb1 1.894141 1_555
F14 Sb2 2.080620 1_555
F14 Ir0 2.100717 1_555
F15 Sb3 2.080620 1_555
F15 Ir1 2.100717 1_555
F16 Sb2 1.917924 1_555
F17 Sb3 1.917924 1_555
F18 Sb2 1.901031 1_555
F19 Sb3 1.901031 1_555
F20 Sb2 1.899950 1_555
F21 Sb3 1.899950 1_555
F22 Sb2 1.895187 1_555
F23 Sb3 1.895187 1_555
F24 Sb2 1.906850 1_555
F25 Sb3 1.906850 1_555
