# generated using pymatgen
data_Rb5Tl9
_symmetry_space_group_name_H-M   'P 1'
_cell_length_a   10.43827861
_cell_length_b   10.43832030
_cell_length_c   17.84151011
_cell_angle_alpha   90.00000000
_cell_angle_beta   90.00000000
_cell_angle_gamma   119.99991105
_symmetry_Int_Tables_number   1
_chemical_formula_structural   Rb5Tl9
_chemical_formula_sum   'Rb15 Tl27'
_cell_volume   1683.53494332
_cell_formula_units_Z   3
loop_
 _symmetry_equiv_pos_site_id
 _symmetry_equiv_pos_as_xyz
  1  'x, y, z'
loop_
 _atom_site_type_symbol
 _atom_site_label
 _atom_site_symmetry_multiplicity
 _atom_site_fract_x
 _atom_site_fract_y
 _atom_site_fract_z
 _atom_site_occupancy
  Rb  Rb0  1  0.61304054  -0.00000000  0.18518728  1
  Rb  Rb1  1  0.38695736  0.38695807  0.18518697  1
  Rb  Rb2  1  -0.00000071  0.61304193  0.18518697  1
  Rb  Rb3  1  0.61304054  -0.00000000  0.81481272  1
  Rb  Rb4  1  0.38695736  0.38695807  0.81481303  1
  Rb  Rb5  1  -0.00000071  0.61304193  0.81481303  1
  Rb  Rb6  1  0.66667396  0.33332394  0.00000000  1
  Rb  Rb7  1  0.33335202  0.66667606  0.00000000  1
  Rb  Rb8  1  0.27334334  -0.00000000  0.31436004  1
  Rb  Rb9  1  0.72663825  0.72664223  0.31435838  1
  Rb  Rb10  1  0.99999602  0.27335677  0.31435838  1
  Rb  Rb11  1  0.27334334  -0.00000000  0.68563996  1
  Rb  Rb12  1  0.72663825  0.72664223  0.68564162  1
  Rb  Rb13  1  0.99999602  0.27335677  0.68564162  1
  Rb  Rb14  1  0.99999357  0.00000000  0.50000000  1
  Tl  Tl0  1  -0.00000002  0.00000000  0.14881342  1
  Tl  Tl1  1  -0.00000002  0.00000000  0.85118658  1
  Tl  Tl2  1  0.78616838  -0.00000000  0.00000000  1
  Tl  Tl3  1  0.21383120  0.21382409  0.00000000  1
  Tl  Tl4  1  0.00000811  0.78617591  0.00000000  1
  Tl  Tl5  1  0.28208802  0.00000000  0.09105708  1
  Tl  Tl6  1  0.71791390  0.71791392  0.09104706  1
  Tl  Tl7  1  -0.00000102  0.28208608  0.09104706  1
  Tl  Tl8  1  0.28208802  0.00000000  0.90894292  1
  Tl  Tl9  1  0.71791390  0.71791392  0.90895294  1
  Tl  Tl10  1  -0.00000102  0.28208608  0.90895294  1
  Tl  Tl11  1  0.17307704  0.46289017  0.50000000  1
  Tl  Tl12  1  0.28978260  0.82690067  0.50000000  1
  Tl  Tl13  1  0.53710829  0.71021071  0.50000000  1
  Tl  Tl14  1  0.71018588  0.53710983  0.50000000  1
  Tl  Tl15  1  0.46288393  0.17309933  0.50000000  1
  Tl  Tl16  1  0.82689659  0.28978829  0.50000000  1
  Tl  Tl17  1  0.62050429  0.00000000  0.39822691  1
  Tl  Tl18  1  0.37949926  0.37950515  0.39823149  1
  Tl  Tl19  1  -0.00000689  0.62049485  0.39823049  1
  Tl  Tl20  1  0.62050429  0.00000000  0.60177309  1
  Tl  Tl21  1  0.37949926  0.37950515  0.60176851  1
  Tl  Tl22  1  -0.00000689  0.62049485  0.60176951  1
  Tl  Tl23  1  0.33333096  0.66666306  0.34553594  1
  Tl  Tl24  1  0.33333096  0.66666306  0.65446406  1
  Tl  Tl25  1  0.66666591  0.33333694  0.34553594  1
  Tl  Tl26  1  0.66666591  0.33333694  0.65446406  1
loop_
_geom_bond_atom_site_label_1
_geom_bond_atom_site_label_2
_geom_bond_distance
_geom_bond_site_symmetry_2
Rb0 Tl2 3.765948 1_555
Rb0 Tl17 3.801747 1_555
Rb0 Tl5 3.841166 1_555
Rb0 Tl7 3.989085 1_655
Rb0 Tl6 3.989094 1_545
Rb0 Tl0 4.090992 1_655
Rb0 Tl23 4.319365 1_545
Rb0 Tl25 4.319372 1_555
Rb1 Tl3 3.765958 1_555
Rb1 Tl18 3.801833 1_555
Rb1 Tl6 3.841286 1_555
Rb1 Tl5 3.989020 1_555
Rb1 Tl7 3.989077 1_555
Rb1 Tl0 4.090987 1_555
Rb1 Tl25 4.319321 1_555
Rb1 Tl23 4.319327 1_555
Rb2 Tl4 3.765956 1_555
Rb2 Tl19 3.801815 1_555
Rb2 Tl7 3.841284 1_555
Rb2 Tl5 3.989019 1_565
Rb2 Tl6 3.989069 1_455
Rb2 Tl0 4.090989 1_565
Rb2 Tl25 4.319334 1_455
Rb2 Tl23 4.319336 1_555
Rb3 Tl2 3.765948 1_556
Rb3 Tl20 3.801747 1_555
Rb3 Tl8 3.841166 1_555
Rb3 Tl10 3.989085 1_655
Rb3 Tl9 3.989094 1_545
Rb3 Tl1 4.090992 1_655
Rb3 Tl24 4.319365 1_545
Rb3 Tl26 4.319372 1_555
Rb4 Tl3 3.765958 1_556
Rb4 Tl21 3.801833 1_555
Rb4 Tl9 3.841286 1_555
Rb4 Tl8 3.989020 1_555
Rb4 Tl10 3.989077 1_555
Rb4 Tl1 4.090987 1_555
Rb4 Tl26 4.319321 1_555
Rb4 Tl24 4.319327 1_555
Rb5 Tl4 3.765956 1_556
Rb5 Tl22 3.801815 1_555
Rb5 Tl10 3.841284 1_555
Rb5 Tl8 3.989019 1_565
Rb5 Tl9 3.989069 1_455
Rb5 Tl1 4.090989 1_565
Rb5 Tl26 4.319334 1_455
Rb5 Tl24 4.319336 1_555
Rb6 Tl7 4.109922 1_655
Rb6 Tl10 4.109922 1_654
Rb6 Tl5 4.110131 1_555
Rb6 Tl8 4.110131 1_554
Rb6 Tl6 4.110187 1_555
Rb6 Tl9 4.110187 1_554
Rb6 Tl2 4.242811 1_555
Rb6 Tl3 4.243031 1_555
Rb6 Tl4 4.243093 1_655
Rb7 Tl9 4.109912 1_554
Rb7 Tl6 4.109912 1_555
Rb7 Tl8 4.110145 1_564
Rb7 Tl5 4.110145 1_565
Rb7 Tl10 4.110196 1_554
Rb7 Tl7 4.110196 1_555
Rb7 Tl2 4.242793 1_565
Rb7 Tl4 4.243043 1_555
Rb7 Tl3 4.243086 1_555
Rb8 Tl12 3.817624 1_545
Rb8 Tl15 3.817629 1_555
Rb8 Tl19 3.843190 1_545
Rb8 Tl18 3.843196 1_555
Rb8 Tl25 3.871285 1_555
Rb8 Tl23 3.871300 1_545
Rb8 Tl17 3.920536 1_555
Rb8 Tl5 3.985108 1_555
Rb8 Tl0 4.106666 1_555
Rb9 Tl14 3.817589 1_555
Rb9 Tl13 3.817619 1_555
Rb9 Tl17 3.843097 1_565
Rb9 Tl19 3.843180 1_655
Rb9 Tl23 3.871148 1_555
Rb9 Tl25 3.871171 1_555
Rb9 Tl18 3.920369 1_555
Rb9 Tl6 3.985252 1_555
Rb9 Tl0 4.106770 1_665
Rb10 Tl11 3.817593 1_655
Rb10 Tl16 3.817624 1_555
Rb10 Tl17 3.843092 1_555
Rb10 Tl18 3.843192 1_655
Rb10 Tl25 3.871175 1_555
Rb10 Tl23 3.871183 1_655
Rb10 Tl19 3.920379 1_655
Rb10 Tl7 3.985253 1_655
Rb10 Tl0 4.106765 1_655
Rb10 Rb14 4.371718 1_555
Rb11 Tl12 3.817624 1_545
Rb11 Tl15 3.817629 1_555
Rb11 Tl22 3.843190 1_545
Rb11 Tl21 3.843196 1_555
Rb11 Tl26 3.871285 1_555
Rb11 Tl24 3.871300 1_545
Rb11 Tl20 3.920536 1_555
Rb11 Tl8 3.985108 1_555
Rb11 Tl1 4.106666 1_555
Rb11 Rb14 4.371649 1_455
Rb12 Tl14 3.817589 1_555
Rb12 Tl13 3.817619 1_555
Rb12 Tl20 3.843097 1_565
Rb12 Tl22 3.843180 1_655
Rb12 Tl24 3.871148 1_555
Rb12 Tl26 3.871171 1_555
Rb12 Tl21 3.920369 1_555
Rb12 Tl9 3.985252 1_555
Rb12 Tl1 4.106770 1_665
Rb12 Rb14 4.371724 1_565
Rb13 Tl11 3.817593 1_655
Rb13 Tl16 3.817624 1_555
Rb13 Tl20 3.843092 1_555
Rb13 Tl21 3.843192 1_655
Rb13 Tl26 3.871175 1_555
Rb13 Tl24 3.871183 1_655
Rb13 Tl22 3.920379 1_655
Rb13 Tl10 3.985253 1_655
Rb13 Tl1 4.106765 1_655
Rb13 Rb14 4.371718 1_555
Rb14 Tl13 4.228494 1_545
Rb14 Tl16 4.228495 1_555
Rb14 Tl12 4.228516 1_645
Rb14 Tl15 4.228533 1_655
Rb14 Tl11 4.228574 1_655
Rb14 Tl14 4.228575 1_545
Rb14 Tl20 4.357557 1_555
Rb14 Tl17 4.357557 1_555
Rb14 Tl21 4.357688 1_655
Rb14 Tl18 4.357688 1_655
Rb14 Tl19 4.357693 1_645
Rb14 Tl22 4.357693 1_645
Rb14 Rb8 4.371649 1_655
Rb14 Rb9 4.371724 1_545
Tl0 Tl5 3.119617 1_555
Tl0 Tl6 3.119666 1_445
Tl0 Tl7 3.119673 1_555
Tl0 Tl3 3.468594 1_555
Tl0 Tl4 3.468599 1_545
Tl0 Tl2 3.468616 1_455
Tl1 Tl8 3.119617 1_555
Tl1 Tl9 3.119666 1_445
Tl1 Tl10 3.119673 1_555
Tl1 Tl3 3.468594 1_556
Tl1 Tl4 3.468599 1_546
Tl1 Tl2 3.468616 1_456
Tl2 Tl7 3.117464 1_655
Tl2 Tl9 3.117468 1_544
Tl2 Tl6 3.117468 1_545
Tl3 Tl5 3.117506 1_555
Tl3 Tl8 3.117506 1_554
Tl3 Tl7 3.117509 1_555
Tl4 Tl5 3.117498 1_565
Tl4 Tl8 3.117498 1_564
Tl4 Tl9 3.117508 1_454
Tl4 Tl6 3.117508 1_455
Tl5 Tl8 3.249192 1_554
Tl6 Tl9 3.248834 1_554
Tl10 Tl2 3.117464 1_456
Tl10 Tl3 3.117509 1_556
Tl10 Tl7 3.248834 1_556
Tl11 Tl16 3.129410 1_455
Tl11 Tl21 3.251540 1_555
Tl11 Tl18 3.251540 1_555
Tl11 Tl12 3.360458 1_555
Tl11 Tl13 3.360642 1_555
Tl11 Tl23 3.370352 1_555
Tl11 Tl24 3.370352 1_555
Tl11 Tl22 3.498527 1_555
Tl11 Tl19 3.498527 1_555
Tl12 Tl15 3.129587 1_565
Tl12 Tl22 3.251409 1_555
Tl12 Tl19 3.251409 1_555
Tl12 Tl13 3.360528 1_555
Tl12 Tl23 3.370373 1_555
Tl12 Tl24 3.370373 1_555
Tl12 Tl20 3.498815 1_565
Tl12 Tl17 3.498815 1_565
Tl13 Tl14 3.129394 1_555
Tl13 Tl20 3.251424 1_565
Tl13 Tl17 3.251424 1_565
Tl13 Tl24 3.370320 1_555
Tl13 Tl23 3.370320 1_555
Tl13 Tl18 3.498659 1_555
Tl13 Tl21 3.498659 1_555
Tl14 Tl19 3.251549 1_655
Tl14 Tl22 3.251549 1_655
Tl14 Tl15 3.360450 1_555
Tl14 Tl16 3.360655 1_555
Tl14 Tl26 3.370351 1_555
Tl14 Tl25 3.370351 1_555
Tl14 Tl18 3.498501 1_555
Tl14 Tl21 3.498501 1_555
Tl15 Tl18 3.251407 1_555
Tl15 Tl21 3.251407 1_555
Tl15 Tl16 3.360499 1_555
Tl15 Tl25 3.370356 1_555
Tl15 Tl26 3.370356 1_555
Tl15 Tl17 3.498801 1_555
Tl15 Tl20 3.498801 1_555
Tl16 Tl20 3.251414 1_555
Tl16 Tl17 3.251414 1_555
Tl16 Tl25 3.370330 1_555
Tl16 Tl26 3.370330 1_555
Tl16 Tl22 3.498676 1_655
Tl16 Tl19 3.498676 1_655
Tl17 Tl23 3.397950 1_545
Tl17 Tl25 3.397960 1_555
Tl17 Tl20 3.631571 1_555
Tl18 Tl23 3.397847 1_555
Tl18 Tl25 3.397923 1_555
Tl18 Tl21 3.631408 1_555
Tl19 Tl25 3.397846 1_455
Tl19 Tl23 3.397947 1_555
Tl19 Tl22 3.631443 1_555
Tl20 Tl24 3.397950 1_545
Tl20 Tl26 3.397960 1_555
Tl21 Tl24 3.397847 1_555
Tl21 Tl26 3.397923 1_555
Tl22 Tl26 3.397846 1_455
Tl22 Tl24 3.397947 1_555
