# generated using pymatgen
data_Co(W3Cl7)2
_symmetry_space_group_name_H-M   'P 1'
_cell_length_a   12.77919900
_cell_length_b   12.77919900
_cell_length_c   12.77919900
_cell_angle_alpha   90.00000000
_cell_angle_beta   90.00000000
_cell_angle_gamma   90.00000000
_symmetry_Int_Tables_number   1
_chemical_formula_structural   Co(W3Cl7)2
_chemical_formula_sum   'Co4 W24 Cl56'
_cell_volume   2086.94449845
_cell_formula_units_Z   4
loop_
 _symmetry_equiv_pos_site_id
 _symmetry_equiv_pos_as_xyz
  1  'x, y, z'
loop_
 _atom_site_type_symbol
 _atom_site_label
 _atom_site_symmetry_multiplicity
 _atom_site_fract_x
 _atom_site_fract_y
 _atom_site_fract_z
 _atom_site_occupancy
  Co  Co0  1  0.75000000  0.25000000  0.25000000  1
  Co  Co1  1  0.25000000  0.25000000  0.75000000  1
  Co  Co2  1  0.25000000  0.75000000  0.25000000  1
  Co  Co3  1  0.75000000  0.75000000  0.75000000  1
  W  W0  1  0.10865900  0.22280800  0.27271800  1
  W  W1  1  0.89134100  0.22280800  0.72728200  1
  W  W2  1  0.89134100  0.77719200  0.27271800  1
  W  W3  1  0.10865900  0.77719200  0.72728200  1
  W  W4  1  0.27271800  0.10865900  0.22280800  1
  W  W5  1  0.72728200  0.89134100  0.22280800  1
  W  W6  1  0.27271800  0.89134100  0.77719200  1
  W  W7  1  0.72728200  0.10865900  0.77719200  1
  W  W8  1  0.22280800  0.27271800  0.10865900  1
  W  W9  1  0.22280800  0.72728200  0.89134100  1
  W  W10  1  0.77719200  0.27271800  0.89134100  1
  W  W11  1  0.77719200  0.72728200  0.10865900  1
  W  W12  1  0.39134100  0.27719200  0.22728200  1
  W  W13  1  0.60865900  0.27719200  0.77271800  1
  W  W14  1  0.60865900  0.72280800  0.22728200  1
  W  W15  1  0.39134100  0.72280800  0.77271800  1
  W  W16  1  0.22728200  0.39134100  0.27719200  1
  W  W17  1  0.77271800  0.60865900  0.27719200  1
  W  W18  1  0.22728200  0.60865900  0.72280800  1
  W  W19  1  0.77271800  0.39134100  0.72280800  1
  W  W20  1  0.27719200  0.22728200  0.39134100  1
  W  W21  1  0.27719200  0.77271800  0.60865900  1
  W  W22  1  0.72280800  0.22728200  0.60865900  1
  W  W23  1  0.72280800  0.77271800  0.39134100  1
  Cl  Cl0  1  0.92199000  0.18089900  0.30965000  1
  Cl  Cl1  1  0.07801000  0.18089900  0.69035000  1
  Cl  Cl2  1  0.07801000  0.81910100  0.30965000  1
  Cl  Cl3  1  0.92199000  0.81910100  0.69035000  1
  Cl  Cl4  1  0.30965000  0.92199000  0.18089900  1
  Cl  Cl5  1  0.69035000  0.07801000  0.18089900  1
  Cl  Cl6  1  0.30965000  0.07801000  0.81910100  1
  Cl  Cl7  1  0.69035000  0.92199000  0.81910100  1
  Cl  Cl8  1  0.18089900  0.30965000  0.92199000  1
  Cl  Cl9  1  0.18089900  0.69035000  0.07801000  1
  Cl  Cl10  1  0.81910100  0.30965000  0.07801000  1
  Cl  Cl11  1  0.81910100  0.69035000  0.92199000  1
  Cl  Cl12  1  0.57801000  0.31910100  0.19035000  1
  Cl  Cl13  1  0.42199000  0.31910100  0.80965000  1
  Cl  Cl14  1  0.42199000  0.68089900  0.19035000  1
  Cl  Cl15  1  0.57801000  0.68089900  0.80965000  1
  Cl  Cl16  1  0.19035000  0.57801000  0.31910100  1
  Cl  Cl17  1  0.80965000  0.42199000  0.31910100  1
  Cl  Cl18  1  0.19035000  0.42199000  0.68089900  1
  Cl  Cl19  1  0.80965000  0.57801000  0.68089900  1
  Cl  Cl20  1  0.31910100  0.19035000  0.57801000  1
  Cl  Cl21  1  0.31910100  0.80965000  0.42199000  1
  Cl  Cl22  1  0.68089900  0.19035000  0.42199000  1
  Cl  Cl23  1  0.68089900  0.80965000  0.57801000  1
  Cl  Cl24  1  0.38916400  0.61083600  0.61083600  1
  Cl  Cl25  1  0.61083600  0.61083600  0.38916400  1
  Cl  Cl26  1  0.61083600  0.38916400  0.61083600  1
  Cl  Cl27  1  0.38916400  0.38916400  0.38916400  1
  Cl  Cl28  1  0.11083600  0.88916400  0.88916400  1
  Cl  Cl29  1  0.88916400  0.88916400  0.11083600  1
  Cl  Cl30  1  0.88916400  0.11083600  0.88916400  1
  Cl  Cl31  1  0.11083600  0.11083600  0.11083600  1
  Cl  Cl32  1  0.06811000  0.37982400  0.16390400  1
  Cl  Cl33  1  0.93189000  0.37982400  0.83609600  1
  Cl  Cl34  1  0.93189000  0.62017600  0.16390400  1
  Cl  Cl35  1  0.06811000  0.62017600  0.83609600  1
  Cl  Cl36  1  0.16390400  0.06811000  0.37982400  1
  Cl  Cl37  1  0.83609600  0.93189000  0.37982400  1
  Cl  Cl38  1  0.16390400  0.93189000  0.62017600  1
  Cl  Cl39  1  0.83609600  0.06811000  0.62017600  1
  Cl  Cl40  1  0.37982400  0.16390400  0.06811000  1
  Cl  Cl41  1  0.37982400  0.83609600  0.93189000  1
  Cl  Cl42  1  0.62017600  0.16390400  0.93189000  1
  Cl  Cl43  1  0.62017600  0.83609600  0.06811000  1
  Cl  Cl44  1  0.43189000  0.12017600  0.33609600  1
  Cl  Cl45  1  0.56811000  0.12017600  0.66390400  1
  Cl  Cl46  1  0.56811000  0.87982400  0.33609600  1
  Cl  Cl47  1  0.43189000  0.87982400  0.66390400  1
  Cl  Cl48  1  0.33609600  0.43189000  0.12017600  1
  Cl  Cl49  1  0.66390400  0.56811000  0.12017600  1
  Cl  Cl50  1  0.33609600  0.56811000  0.87982400  1
  Cl  Cl51  1  0.66390400  0.43189000  0.87982400  1
  Cl  Cl52  1  0.12017600  0.33609600  0.43189000  1
  Cl  Cl53  1  0.12017600  0.66390400  0.56811000  1
  Cl  Cl54  1  0.87982400  0.33609600  0.56811000  1
  Cl  Cl55  1  0.87982400  0.66390400  0.43189000  1
loop_
_geom_bond_atom_site_label_1
_geom_bond_atom_site_label_2
_geom_bond_distance
_geom_bond_site_symmetry_2
Cl0 Co0 2.488292 1_555
Cl0 W0 2.489998 1_655
Cl1 Co1 2.488292 1_555
Cl1 W1 2.489998 1_455
Cl2 Co2 2.488292 1_555
Cl2 W2 2.489998 1_455
Cl3 Co3 2.488292 1_555
Cl3 W3 2.489998 1_655
Cl4 Co2 2.488292 1_555
Cl4 W4 2.489998 1_565
Cl5 Co0 2.488292 1_555
Cl5 W5 2.489998 1_545
Cl6 Co1 2.488292 1_555
Cl6 W6 2.489998 1_545
Cl7 Co3 2.488292 1_555
Cl7 W7 2.489998 1_565
Cl8 Co1 2.488292 1_555
Cl8 W8 2.489998 1_556
Cl9 Co2 2.488292 1_555
Cl9 W9 2.489998 1_554
Cl10 Co0 2.488292 1_555
Cl10 W10 2.489998 1_554
Cl11 Co3 2.488292 1_555
Cl11 W11 2.489998 1_556
Cl12 Co0 2.488292 1_555
Cl12 W12 2.489998 1_555
Cl13 Co1 2.488292 1_555
Cl13 W13 2.489998 1_555
Cl14 Co2 2.488292 1_555
Cl14 W14 2.489998 1_555
Cl15 Co3 2.488292 1_555
Cl15 W15 2.489998 1_555
Cl16 Co2 2.488292 1_555
Cl16 W16 2.489998 1_555
Cl17 Co0 2.488292 1_555
Cl17 W17 2.489998 1_555
Cl18 Co1 2.488292 1_555
Cl18 W18 2.489998 1_555
Cl19 Co3 2.488292 1_555
Cl19 W19 2.489998 1_555
Cl20 Co1 2.488292 1_555
Cl20 W20 2.489998 1_555
Cl21 Co2 2.488292 1_555
Cl21 W21 2.489998 1_555
Cl22 Co0 2.488292 1_555
Cl22 W22 2.489998 1_555
Cl23 Co3 2.488292 1_555
Cl23 W23 2.489998 1_555
Cl24 W15 2.515531 1_555
Cl24 W21 2.515531 1_555
Cl24 W18 2.515531 1_555
Cl25 W23 2.515531 1_555
Cl25 W14 2.515531 1_555
Cl25 W17 2.515531 1_555
Cl26 W19 2.515531 1_555
Cl26 W13 2.515531 1_555
Cl26 W22 2.515531 1_555
Cl27 W20 2.515531 1_555
Cl27 W16 2.515531 1_555
Cl27 W12 2.515531 1_555
Cl28 W9 2.515531 1_555
Cl28 W3 2.515531 1_555
Cl28 W6 2.515531 1_555
Cl29 W11 2.515531 1_555
Cl29 W5 2.515531 1_555
Cl29 W2 2.515531 1_555
Cl30 W7 2.515531 1_555
Cl30 W1 2.515531 1_555
Cl30 W10 2.515531 1_555
Cl31 W8 2.515531 1_555
Cl31 W0 2.515531 1_555
Cl31 W4 2.515531 1_555
Cl32 W0 2.495668 1_555
Cl32 W16 2.501021 1_555
Cl32 W8 2.506000 1_555
Cl33 W1 2.495668 1_555
Cl33 W19 2.501021 1_555
Cl33 W10 2.506000 1_555
Cl34 W2 2.495668 1_555
Cl34 W17 2.501021 1_555
Cl34 W11 2.506000 1_555
Cl35 W3 2.495668 1_555
Cl35 W18 2.501021 1_555
Cl35 W9 2.506000 1_555
Cl36 W4 2.495668 1_555
Cl36 W20 2.501021 1_555
Cl36 W0 2.506000 1_555
Cl37 W5 2.495668 1_555
Cl37 W23 2.501021 1_555
Cl37 W2 2.506000 1_555
Cl38 W6 2.495668 1_555
Cl38 W21 2.501021 1_555
Cl38 W3 2.506000 1_555
Cl39 W7 2.495668 1_555
Cl39 W22 2.501021 1_555
Cl39 W1 2.506000 1_555
Cl40 W8 2.495668 1_555
Cl40 W12 2.501021 1_555
Cl40 W4 2.506000 1_555
Cl41 W9 2.495668 1_555
Cl41 W15 2.501021 1_555
Cl41 W6 2.506000 1_555
Cl42 W10 2.495668 1_555
Cl42 W13 2.501021 1_555
Cl42 W7 2.506000 1_555
Cl43 W11 2.495668 1_555
Cl43 W14 2.501021 1_555
Cl43 W5 2.506000 1_555
Cl44 W12 2.495668 1_555
Cl44 W4 2.501021 1_555
Cl44 W20 2.506000 1_555
Cl45 W13 2.495668 1_555
Cl45 W7 2.501021 1_555
Cl45 W22 2.506000 1_555
Cl46 W14 2.495668 1_555
Cl46 W5 2.501021 1_555
Cl46 W23 2.506000 1_555
Cl47 W15 2.495668 1_555
Cl47 W6 2.501021 1_555
Cl47 W21 2.506000 1_555
Cl48 W16 2.495668 1_555
Cl48 W8 2.501021 1_555
Cl48 W12 2.506000 1_555
Cl49 W17 2.495668 1_555
Cl49 W11 2.501021 1_555
Cl49 W14 2.506000 1_555
Cl50 W18 2.495668 1_555
Cl50 W9 2.501021 1_555
Cl50 W15 2.506000 1_555
Cl51 W19 2.495668 1_555
Cl51 W10 2.501021 1_555
Cl51 W13 2.506000 1_555
Cl52 W20 2.495668 1_555
Cl52 W0 2.501021 1_555
Cl52 W16 2.506000 1_555
Cl53 W21 2.495668 1_555
Cl53 W3 2.501021 1_555
Cl53 W18 2.506000 1_555
Cl54 W22 2.495668 1_555
Cl54 W1 2.501021 1_555
Cl54 W19 2.506000 1_555
Cl55 W23 2.495668 1_555
Cl55 W2 2.501021 1_555
Cl55 W17 2.506000 1_555
