# generated using pymatgen
data_Dy6FeTe2
_symmetry_space_group_name_H-M   'P 1'
_cell_length_a   8.30401594
_cell_length_b   8.30377422
_cell_length_c   4.02965596
_cell_angle_alpha   90.00000000
_cell_angle_beta   90.00000000
_cell_angle_gamma   119.99904002
_symmetry_Int_Tables_number   1
_chemical_formula_structural   Dy6FeTe2
_chemical_formula_sum   'Dy6 Fe1 Te2'
_cell_volume   240.63927374
_cell_formula_units_Z   1
loop_
 _symmetry_equiv_pos_site_id
 _symmetry_equiv_pos_as_xyz
  1  'x, y, z'
loop_
 _atom_site_type_symbol
 _atom_site_label
 _atom_site_symmetry_multiplicity
 _atom_site_fract_x
 _atom_site_fract_y
 _atom_site_fract_z
 _atom_site_occupancy
  Dy  Dy0  1  0.60056062  -0.00000132  0.50000000  1
  Dy  Dy1  1  0.39943938  0.39943907  0.50000000  1
  Dy  Dy2  1  0.00000000  0.60058577  0.50000000  1
  Dy  Dy3  1  -0.00000000  0.23739205  0.00000000  1
  Dy  Dy4  1  0.76260083  0.76259446  -0.00000000  1
  Dy  Dy5  1  0.23739917  -0.00000737  0.00000000  1
  Fe  Fe0  1  0.00000000  -0.00002670  0.50000000  1
  Te  Te0  1  0.33335038  0.66668771  0.00000000  1
  Te  Te1  1  0.66664962  0.33333633  -0.00000000  1
loop_
_geom_bond_atom_site_label_1
_geom_bond_atom_site_label_2
_geom_bond_distance
_geom_bond_site_symmetry_2
Dy0 Te0 3.240725 1_545
Dy0 Te0 3.240725 1_546
Dy0 Te1 3.240879 1_555
Dy0 Te1 3.240879 1_556
Dy0 Fe0 3.317056 1_655
Dy1 Te1 3.240734 1_555
Dy1 Te1 3.240734 1_556
Dy1 Te0 3.240879 1_555
Dy1 Te0 3.240879 1_556
Dy1 Fe0 3.317060 1_555
Dy2 Te0 3.240999 1_555
Dy2 Te0 3.240999 1_556
Dy2 Te1 3.241001 1_456
Dy2 Te1 3.241001 1_455
Dy2 Fe0 3.316424 1_565
Dy3 Fe0 2.818906 1_555
Dy3 Fe0 2.818906 1_554
Dy3 Te1 3.240785 1_455
Dy3 Te0 3.240790 1_555
Dy4 Fe0 2.818774 1_664
Dy4 Fe0 2.818774 1_665
Dy4 Te1 3.240408 1_555
Dy4 Te0 3.240566 1_555
Dy5 Fe0 2.818777 1_554
Dy5 Fe0 2.818777 1_555
Dy5 Te0 3.240391 1_545
Dy5 Te1 3.240566 1_555
