# generated using pymatgen
data_Zn(FeO2)2
_symmetry_space_group_name_H-M   'P 1'
_cell_length_a   5.07849391
_cell_length_b   5.07849391
_cell_length_c   10.05653000
_cell_angle_alpha   90.00000000
_cell_angle_beta   90.00000000
_cell_angle_gamma   146.39748321
_symmetry_Int_Tables_number   1
_chemical_formula_structural   Zn(FeO2)2
_chemical_formula_sum   'Zn2 Fe4 O8'
_cell_volume   143.54208835
_cell_formula_units_Z   2
loop_
 _symmetry_equiv_pos_site_id
 _symmetry_equiv_pos_as_xyz
  1  'x, y, z'
loop_
 _atom_site_type_symbol
 _atom_site_label
 _atom_site_symmetry_multiplicity
 _atom_site_fract_x
 _atom_site_fract_y
 _atom_site_fract_z
 _atom_site_occupancy
  Zn  Zn0  1  0.61256300  0.38743700  0.75000000  1
  Zn  Zn1  1  0.38743700  0.61256300  0.25000000  1
  Fe  Fe0  1  0.13152100  0.86847900  0.07385400  1
  Fe  Fe1  1  0.86847900  0.13152100  0.92614600  1
  Fe  Fe2  1  0.13152100  0.86847900  0.42614600  1
  Fe  Fe3  1  0.86847900  0.13152100  0.57385400  1
  O  O0  1  0.77005300  0.22994700  0.38658300  1
  O  O1  1  0.22994700  0.77005300  0.61341700  1
  O  O2  1  0.22994700  0.77005300  0.88658300  1
  O  O3  1  0.77005300  0.22994700  0.11341700  1
  O  O4  1  0.03552500  0.96447500  0.25000000  1
  O  O5  1  0.96447500  0.03552500  0.75000000  1
  O  O6  1  0.50000000  0.50000000  0.00000000  1
  O  O7  1  0.50000000  0.50000000  0.50000000  1
loop_
_geom_bond_atom_site_label_1
_geom_bond_atom_site_label_2
_geom_bond_distance
_geom_bond_site_symmetry_2
Fe0 O4 2.002292 1_555
Fe0 O3 2.031651 1_455
Fe0 O3 2.031651 1_565
Fe0 O6 2.083729 1_455
Fe0 O6 2.083729 1_565
Fe0 O2 2.112516 1_554
Fe1 O5 2.002292 1_555
Fe1 O2 2.031651 1_655
Fe1 O2 2.031651 1_545
Fe1 O6 2.083729 1_546
Fe1 O6 2.083729 1_656
Fe1 O3 2.112516 1_556
Fe2 O4 2.002292 1_555
Fe2 O0 2.031651 1_455
Fe2 O0 2.031651 1_565
Fe2 O7 2.083729 1_565
Fe2 O7 2.083729 1_455
Fe2 O1 2.112516 1_555
Fe3 O5 2.002292 1_555
Fe3 O1 2.031651 1_655
Fe3 O1 2.031651 1_545
Fe3 O7 2.083729 1_655
Fe3 O7 2.083729 1_545
Fe3 O0 2.112516 1_555
O0 Zn1 2.311766 1_655
O0 Zn1 2.311766 1_545
O1 Zn0 2.311766 1_565
O1 Zn0 2.311766 1_455
O2 Zn0 2.311766 1_565
O2 Zn0 2.311766 1_455
O3 Zn1 2.311766 1_655
O3 Zn1 2.311766 1_545
O4 Zn1 2.056273 1_455
O4 Zn1 2.056273 1_565
O5 Zn0 2.056273 1_545
O5 Zn0 2.056273 1_655
