# generated using pymatgen
data_NaAl3(PO7)2
_symmetry_space_group_name_H-M   'P 1'
_cell_length_a   7.16649600
_cell_length_b   7.16649600
_cell_length_c   19.39231700
_cell_angle_alpha   90.00000000
_cell_angle_beta   90.00000000
_cell_angle_gamma   90.00000000
_symmetry_Int_Tables_number   1
_chemical_formula_structural   NaAl3(PO7)2
_chemical_formula_sum   'Na4 Al12 P8 O56'
_cell_volume   995.96351079
_cell_formula_units_Z   4
loop_
 _symmetry_equiv_pos_site_id
 _symmetry_equiv_pos_as_xyz
  1  'x, y, z'
loop_
 _atom_site_type_symbol
 _atom_site_label
 _atom_site_symmetry_multiplicity
 _atom_site_fract_x
 _atom_site_fract_y
 _atom_site_fract_z
 _atom_site_occupancy
  Na  Na0  1  0.88365800  0.11634200  0.25000000  1
  Na  Na1  1  0.11634200  0.88365800  0.75000000  1
  Na  Na2  1  0.61634200  0.61634200  0.00000000  1
  Na  Na3  1  0.38365800  0.38365800  0.50000000  1
  Al  Al0  1  0.90389700  0.39577200  0.48541400  1
  Al  Al1  1  0.09610300  0.60422800  0.98541400  1
  Al  Al2  1  0.89577200  0.59610300  0.23541400  1
  Al  Al3  1  0.10422800  0.40389700  0.73541400  1
  Al  Al4  1  0.60422800  0.09610300  0.01458600  1
  Al  Al5  1  0.39577200  0.90389700  0.51458600  1
  Al  Al6  1  0.59610300  0.89577200  0.76458600  1
  Al  Al7  1  0.40389700  0.10422800  0.26458600  1
  Al  Al8  1  0.61398500  0.38601500  0.75000000  1
  Al  Al9  1  0.38601500  0.61398500  0.25000000  1
  Al  Al10  1  0.88601500  0.88601500  0.50000000  1
  Al  Al11  1  0.11398500  0.11398600  0.00000000  1
  P  P0  1  0.63664800  0.13259900  0.40391800  1
  P  P1  1  0.36335200  0.86740100  0.90391800  1
  P  P2  1  0.63259900  0.86335200  0.15391800  1
  P  P3  1  0.36740100  0.13664800  0.65391800  1
  P  P4  1  0.86740100  0.36335200  0.09608200  1
  P  P5  1  0.13259900  0.63664800  0.59608200  1
  P  P6  1  0.86335200  0.63259900  0.84608200  1
  P  P7  1  0.13664800  0.36740100  0.34608200  1
  O  O0  1  0.46040200  0.07437300  0.44417600  1
  O  O1  1  0.53959800  0.92562700  0.94417600  1
  O  O2  1  0.57437300  0.03959800  0.19417600  1
  O  O3  1  0.42562700  0.96040200  0.69417600  1
  O  O4  1  0.92562700  0.53959800  0.05582400  1
  O  O5  1  0.07437300  0.46040200  0.55582400  1
  O  O6  1  0.03959800  0.57437300  0.80582400  1
  O  O7  1  0.96040200  0.42562700  0.30582400  1
  O  O8  1  0.80609100  0.99839900  0.41616700  1
  O  O9  1  0.19390900  0.00160100  0.91616700  1
  O  O10  1  0.49839900  0.69390900  0.16616700  1
  O  O11  1  0.50160100  0.30609100  0.66616700  1
  O  O12  1  0.00160100  0.19390900  0.08383300  1
  O  O13  1  0.99839900  0.80609100  0.58383300  1
  O  O14  1  0.69390900  0.49839900  0.83383300  1
  O  O15  1  0.30609100  0.50160100  0.33383300  1
  O  O16  1  0.69571200  0.33074700  0.42855000  1
  O  O17  1  0.30428800  0.66925300  0.92855000  1
  O  O18  1  0.83074700  0.80428800  0.17855000  1
  O  O19  1  0.16925300  0.19571200  0.67855000  1
  O  O20  1  0.66925300  0.30428800  0.07145000  1
  O  O21  1  0.33074700  0.69571200  0.57145000  1
  O  O22  1  0.80428800  0.83074700  0.82145000  1
  O  O23  1  0.19571200  0.16925300  0.32145000  1
  O  O24  1  0.60009500  0.13618700  0.32597300  1
  O  O25  1  0.39990500  0.86381300  0.82597300  1
  O  O26  1  0.63618700  0.89990500  0.07597300  1
  O  O27  1  0.36381300  0.10009500  0.57597300  1
  O  O28  1  0.86381300  0.39990500  0.17402700  1
  O  O29  1  0.13618700  0.60009500  0.67402700  1
  O  O30  1  0.89990500  0.63618700  0.92402700  1
  O  O31  1  0.10009500  0.36381300  0.42402700  1
  O  O32  1  0.63237400  0.14738000  0.78604800  1
  O  O33  1  0.36762600  0.85262000  0.28604800  1
  O  O34  1  0.64738000  0.86762600  0.53604800  1
  O  O35  1  0.35262000  0.13237400  0.03604800  1
  O  O36  1  0.85262000  0.36762600  0.71395200  1
  O  O37  1  0.14738000  0.63237400  0.21395200  1
  O  O38  1  0.86762600  0.64738000  0.46395200  1
  O  O39  1  0.13237400  0.35262000  0.96395200  1
  O  O40  1  0.69975500  0.47498800  0.54129300  1
  O  O41  1  0.30024500  0.52501200  0.04129300  1
  O  O42  1  0.97498800  0.80024500  0.29129300  1
  O  O43  1  0.02501200  0.19975500  0.79129300  1
  O  O44  1  0.52501200  0.30024500  0.95870700  1
  O  O45  1  0.47498800  0.69975500  0.45870700  1
  O  O46  1  0.80024500  0.97498800  0.70870700  1
  O  O47  1  0.19975500  0.02501200  0.20870700  1
  O  O48  1  0.89778600  0.14445800  0.51723200  1
  O  O49  1  0.10221400  0.85554200  0.01723200  1
  O  O50  1  0.64445800  0.60221400  0.26723200  1
  O  O51  1  0.35554200  0.39778600  0.76723200  1
  O  O52  1  0.85554200  0.10221400  0.98276800  1
  O  O53  1  0.14445800  0.89778600  0.48276800  1
  O  O54  1  0.60221400  0.64445800  0.73276800  1
  O  O55  1  0.39778600  0.35554200  0.23276800  1
loop_
_geom_bond_atom_site_label_1
_geom_bond_atom_site_label_2
_geom_bond_distance
_geom_bond_site_symmetry_2
Na0 O47 2.490229 1_655
Na0 O42 2.490229 1_545
Na0 O28 2.514053 1_555
Na0 O24 2.514053 1_555
Na0 O7 2.527299 1_555
Na0 O2 2.527299 1_555
Na0 O23 2.657970 1_655
Na0 O18 2.657970 1_545
Na1 O43 2.490229 1_565
Na1 O46 2.490229 1_455
Na1 O25 2.514053 1_555
Na1 O29 2.514053 1_555
Na1 O3 2.527299 1_555
Na1 O6 2.527299 1_555
Na1 O19 2.657970 1_565
Na1 O22 2.657970 1_455
Na2 O41 2.490229 1_555
Na2 O44 2.490229 1_554
Na2 O30 2.514053 1_554
Na2 O26 2.514053 1_555
Na2 O4 2.527299 1_555
Na2 O1 2.527299 1_554
Na2 O20 2.657970 1_555
Na2 O17 2.657970 1_554
Na3 O45 2.490229 1_555
Na3 O40 2.490229 1_555
Na3 O27 2.514053 1_555
Na3 O31 2.514053 1_555
Na3 O0 2.527299 1_555
Na3 O5 2.527299 1_555
Na3 O21 2.657970 1_555
Na3 O16 2.657970 1_555
Al0 O31 1.856496 1_655
Al0 O38 1.868724 1_555
Al0 O5 1.889833 1_655
Al0 O48 1.904307 1_555
Al0 O40 1.907051 1_555
Al0 O16 1.912876 1_555
Al1 O30 1.856496 1_455
Al1 O39 1.868724 1_555
Al1 O4 1.889833 1_456
Al1 O49 1.904307 1_556
Al1 O41 1.907051 1_556
Al1 O17 1.912876 1_555
Al2 O28 1.856496 1_555
Al2 O37 1.868724 1_655
Al2 O7 1.889833 1_555
Al2 O50 1.904307 1_555
Al2 O42 1.907051 1_555
Al2 O18 1.912876 1_555
Al3 O29 1.856496 1_555
Al3 O36 1.868724 1_455
Al3 O6 1.889833 1_555
Al3 O51 1.904307 1_555
Al3 O43 1.907051 1_555
Al3 O19 1.912876 1_555
Al4 O26 1.856496 1_545
Al4 O35 1.868724 1_555
Al4 O1 1.889833 1_544
Al4 O52 1.904307 1_554
Al4 O44 1.907051 1_554
Al4 O20 1.912876 1_555
Al5 O27 1.856496 1_565
Al5 O34 1.868724 1_555
Al5 O0 1.889833 1_565
Al5 O53 1.904307 1_555
Al5 O45 1.907051 1_555
Al5 O21 1.912876 1_555
Al6 O25 1.856496 1_555
Al6 O32 1.868724 1_565
Al6 O3 1.889833 1_555
Al6 O54 1.904307 1_555
Al6 O46 1.907051 1_555
Al6 O22 1.912876 1_555
Al7 O24 1.856496 1_555
Al7 O33 1.868724 1_545
Al7 O2 1.889833 1_555
Al7 O55 1.904307 1_555
Al7 O47 1.907051 1_555
Al7 O23 1.912876 1_555
Al8 O32 1.852228 1_555
Al8 O36 1.852228 1_555
Al8 O54 1.883925 1_555
Al8 O51 1.883925 1_555
Al8 O11 1.902549 1_555
Al8 O14 1.902549 1_555
Al9 O37 1.852228 1_555
Al9 O33 1.852228 1_555
Al9 O50 1.883925 1_555
Al9 O55 1.883925 1_555
Al9 O10 1.902549 1_555
Al9 O15 1.902549 1_555
Al10 O34 1.852228 1_555
Al10 O38 1.852228 1_555
Al10 O53 1.883925 1_655
Al10 O48 1.883925 1_565
Al10 O8 1.902549 1_555
Al10 O13 1.902549 1_555
Al11 O39 1.852221 1_554
Al11 O35 1.852228 1_555
Al11 O52 1.883925 1_454
Al11 O49 1.883932 1_545
Al11 O12 1.902547 1_555
Al11 O9 1.902552 1_554
O0 P0 1.542382 1_555
O1 P1 1.542382 1_555
O2 P2 1.542382 1_545
O3 P3 1.542382 1_565
O4 P4 1.542382 1_555
O5 P5 1.542382 1_555
O6 P6 1.542382 1_455
O7 P7 1.542382 1_655
O8 P0 1.567141 1_565
O9 P1 1.567141 1_545
O10 P2 1.567141 1_555
O11 P3 1.567141 1_555
O12 P4 1.567141 1_455
O13 P5 1.567141 1_655
O14 P6 1.567141 1_555
O15 P7 1.567141 1_555
O16 P0 1.556860 1_555
O17 P1 1.556860 1_555
O18 P2 1.556860 1_555
O19 P3 1.556860 1_555
O20 P4 1.556860 1_555
O21 P5 1.556860 1_555
O22 P6 1.556860 1_555
O23 P7 1.556860 1_555
O24 P0 1.534281 1_555
O25 P1 1.534281 1_555
O26 P2 1.534281 1_555
O27 P3 1.534281 1_555
O28 P4 1.534281 1_555
O29 P5 1.534281 1_555
O30 P6 1.534281 1_555
O31 P7 1.534281 1_555
