# generated using pymatgen
data_CaCo6(OF5)2
_symmetry_space_group_name_H-M   'P 1'
_cell_length_a   4.88601676
_cell_length_b   5.15028054
_cell_length_c   9.62484316
_cell_angle_alpha   89.17802336
_cell_angle_beta   89.68941356
_cell_angle_gamma   93.98965077
_symmetry_Int_Tables_number   1
_chemical_formula_structural   CaCo6(OF5)2
_chemical_formula_sum   'Ca1 Co6 O2 F10'
_cell_volume   241.58617746
_cell_formula_units_Z   1
loop_
 _symmetry_equiv_pos_site_id
 _symmetry_equiv_pos_as_xyz
  1  'x, y, z'
loop_
 _atom_site_type_symbol
 _atom_site_label
 _atom_site_symmetry_multiplicity
 _atom_site_fract_x
 _atom_site_fract_y
 _atom_site_fract_z
 _atom_site_occupancy
  Ca  Ca0  1  0.54842800  0.03515100  0.00915300  1
  Co  Co0  1  0.03414800  0.58983600  0.01214000  1
  Co  Co1  1  0.03660100  0.07313200  0.34086000  1
  Co  Co2  1  0.97988700  0.02696500  0.65638600  1
  Co  Co3  1  0.55177500  0.51953300  0.19984600  1
  Co  Co4  1  0.49072000  0.50569800  0.81175800  1
  Co  Co5  1  0.48022900  0.53474000  0.48908400  1
  O  O0  1  0.31486600  0.35402300  0.33079300  1
  O  O1  1  0.64879200  0.62113300  0.00088900  1
  F  F0  1  0.20912500  0.83288700  0.15163500  1
  F  F1  1  0.20543700  0.79671000  0.84083300  1
  F  F2  1  0.20285300  0.85355300  0.50619400  1
  F  F3  1  0.21482300  0.28712300  0.95096900  1
  F  F4  1  0.27459100  0.33571200  0.65612200  1
  F  F5  1  0.69779600  0.70769500  0.65634000  1
  F  F6  1  0.72676400  0.77095200  0.33513600  1
  F  F7  1  0.83063400  0.23959100  0.16609700  1
  F  F8  1  0.73581300  0.18908100  0.80717200  1
  F  F9  1  0.80282800  0.22648500  0.50002400  1
loop_
_geom_bond_atom_site_label_1
_geom_bond_atom_site_label_2
_geom_bond_distance
_geom_bond_site_symmetry_2
Ca0 F3 2.222161 1_554
Ca0 O1 2.223395 1_545
Ca0 F8 2.254223 1_554
Ca0 F7 2.271100 1_555
Ca0 F0 2.325576 1_545
Ca0 F1 2.596400 1_544
Co0 O1 1.904415 1_455
Co0 F3 1.941345 1_554
Co0 F0 2.003059 1_555
Co0 F1 2.089197 1_554
Co0 F7 2.469046 1_455
Co1 O0 1.916147 1_555
Co1 F6 2.095818 1_445
Co1 F9 2.101559 1_455
Co1 F2 2.135710 1_545
Co1 F7 2.161971 1_455
Co1 F0 2.398270 1_545
Co2 F9 2.040270 1_555
Co2 F2 2.056584 1_645
Co2 F4 2.069579 1_655
Co2 F5 2.070795 1_545
Co2 F8 2.092871 1_555
Co2 F1 2.432090 1_645
Co3 O0 1.863075 1_555
Co3 F6 2.002425 1_555
Co3 O1 2.022959 1_555
Co3 F7 2.079103 1_555
Co3 F0 2.446570 1_555
Co4 F4 2.012874 1_555
Co4 F5 2.033743 1_555
Co4 O1 2.060598 1_556
Co4 F8 2.090053 1_555
Co4 F1 2.136858 1_555
Co4 F3 2.146094 1_555
Co5 O0 1.946692 1_555
Co5 F4 2.106392 1_555
Co5 F5 2.107828 1_555
Co5 F6 2.202620 1_555
Co5 F2 2.207927 1_555
Co5 F9 2.315440 1_555
