# generated using pymatgen
data_Zr3Ti2Si3
_symmetry_space_group_name_H-M   'P 1'
_cell_length_a   7.79426969
_cell_length_b   7.79426969
_cell_length_c   5.32789535
_cell_angle_alpha   90.00000000
_cell_angle_beta   90.00000000
_cell_angle_gamma   119.99999515
_symmetry_Int_Tables_number   1
_chemical_formula_structural   Zr3Ti2Si3
_chemical_formula_sum   'Zr6 Ti4 Si6'
_cell_volume   280.30909950
_cell_formula_units_Z   2
loop_
 _symmetry_equiv_pos_site_id
 _symmetry_equiv_pos_as_xyz
  1  'x, y, z'
loop_
 _atom_site_type_symbol
 _atom_site_label
 _atom_site_symmetry_multiplicity
 _atom_site_fract_x
 _atom_site_fract_y
 _atom_site_fract_z
 _atom_site_occupancy
  Zr  Zr0  1  0.74756647  0.74756647  0.75000000  1
  Zr  Zr1  1  0.25243353  0.00000000  0.75000000  1
  Zr  Zr2  1  0.00000000  0.25243353  0.75000000  1
  Zr  Zr3  1  0.25243353  0.25243353  0.25000000  1
  Zr  Zr4  1  0.74756647  -0.00000000  0.25000000  1
  Zr  Zr5  1  -0.00000000  0.74756647  0.25000000  1
  Ti  Ti0  1  0.66666700  0.33333300  0.00000000  1
  Ti  Ti1  1  0.33333300  0.66666700  0.00000000  1
  Ti  Ti2  1  0.33333300  0.66666700  0.50000000  1
  Ti  Ti3  1  0.66666700  0.33333300  0.50000000  1
  Si  Si0  1  0.39776400  0.39776400  0.75000000  1
  Si  Si1  1  0.60223600  -0.00000000  0.75000000  1
  Si  Si2  1  -0.00000000  0.60223600  0.75000000  1
  Si  Si3  1  0.60223600  0.60223600  0.25000000  1
  Si  Si4  1  0.39776400  0.00000000  0.25000000  1
  Si  Si5  1  0.00000000  0.39776400  0.25000000  1
loop_
_geom_bond_atom_site_label_1
_geom_bond_atom_site_label_2
_geom_bond_distance
_geom_bond_site_symmetry_2
Si0 Zr2 2.717171 1_555
Si0 Zr1 2.717171 1_555
Si0 Zr0 2.726455 1_555
Si0 Ti2 2.733442 1_555
Si0 Ti3 2.733442 1_555
Si0 Ti1 2.733442 1_556
Si0 Ti0 2.733442 1_556
Si0 Zr3 2.894776 1_555
Si0 Zr3 2.894776 1_556
Si1 Zr0 2.717171 1_545
Si1 Zr2 2.717172 1_655
Si1 Zr1 2.726455 1_555
Si1 Ti0 2.733435 1_556
Si1 Ti3 2.733435 1_555
Si1 Ti1 2.733438 1_546
Si1 Ti2 2.733438 1_545
Si1 Zr4 2.894776 1_555
Si1 Zr4 2.894776 1_556
Si2 Zr0 2.717171 1_455
Si2 Zr1 2.717172 1_565
Si2 Zr2 2.726455 1_555
Si2 Ti1 2.733435 1_556
Si2 Ti2 2.733435 1_555
Si2 Ti3 2.733438 1_455
Si2 Ti0 2.733438 1_456
Si2 Zr5 2.894776 1_556
Si2 Zr5 2.894776 1_555
Si3 Zr5 2.717171 1_655
Si3 Zr4 2.717171 1_565
Si3 Zr3 2.726455 1_555
Si3 Ti2 2.733442 1_555
Si3 Ti3 2.733442 1_555
Si3 Ti1 2.733442 1_555
Si3 Ti0 2.733442 1_555
Si3 Zr0 2.894776 1_555
Si3 Zr0 2.894776 1_554
Si4 Zr3 2.717171 1_555
Si4 Zr5 2.717172 1_545
Si4 Zr4 2.726455 1_555
Si4 Ti2 2.733435 1_545
Si4 Ti1 2.733435 1_545
Si4 Ti0 2.733438 1_555
Si4 Ti3 2.733438 1_555
Si4 Zr1 2.894776 1_555
Si4 Zr1 2.894776 1_554
Si5 Zr3 2.717171 1_555
Si5 Zr4 2.717172 1_455
Si5 Zr5 2.726455 1_555
Si5 Ti0 2.733435 1_455
Si5 Ti3 2.733435 1_455
Si5 Ti2 2.733438 1_555
Si5 Ti1 2.733438 1_555
Si5 Zr2 2.894776 1_555
Si5 Zr2 2.894776 1_554
