# generated using pymatgen
data_Ba2Ca3Tl2(NiO3)4
_symmetry_space_group_name_H-M   'P 1'
_cell_length_a   3.82044802
_cell_length_b   3.82044778
_cell_length_c   21.95347421
_cell_angle_alpha   94.99174836
_cell_angle_beta   94.99174873
_cell_angle_gamma   89.99999811
_symmetry_Int_Tables_number   1
_chemical_formula_structural   Ba2Ca3Tl2(NiO3)4
_chemical_formula_sum   'Ba2 Ca3 Tl2 Ni4 O12'
_cell_volume   317.99373961
_cell_formula_units_Z   1
loop_
 _symmetry_equiv_pos_site_id
 _symmetry_equiv_pos_as_xyz
  1  'x, y, z'
loop_
 _atom_site_type_symbol
 _atom_site_label
 _atom_site_symmetry_multiplicity
 _atom_site_fract_x
 _atom_site_fract_y
 _atom_site_fract_z
 _atom_site_occupancy
  Ba  Ba0  1  0.15667500  0.15667500  0.31334900  1
  Ba  Ba1  1  0.84332500  0.84332500  0.68665100  1
  Ca  Ca0  1  0.07429700  0.07429700  0.14859400  1
  Ca  Ca1  1  0.92570300  0.92570300  0.85140600  1
  Ca  Ca2  1  0.00000000  0.00000000  0.00000000  1
  Tl  Tl0  1  0.72340000  0.72340000  0.44680000  1
  Tl  Tl1  1  0.27660000  0.27660000  0.55320000  1
  Ni  Ni0  1  0.53727000  0.53727000  0.07454000  1
  Ni  Ni1  1  0.39015700  0.39015700  0.78031500  1
  Ni  Ni2  1  0.60984300  0.60984300  0.21968500  1
  Ni  Ni3  1  0.46273000  0.46273000  0.92546000  1
  O  O0  1  0.38990000  0.88990000  0.77980000  1
  O  O1  1  0.53709300  0.03709300  0.07418600  1
  O  O2  1  0.22846800  0.22846800  0.45693700  1
  O  O3  1  0.96290700  0.46290700  0.92581400  1
  O  O4  1  0.77153200  0.77153200  0.54306300  1
  O  O5  1  0.11010000  0.61010000  0.22020000  1
  O  O6  1  0.61010000  0.11010000  0.22020000  1
  O  O7  1  0.32357300  0.32357300  0.64714600  1
  O  O8  1  0.88990000  0.38990000  0.77980000  1
  O  O9  1  0.03709300  0.53709300  0.07418600  1
  O  O10  1  0.46290700  0.96290700  0.92581400  1
  O  O11  1  0.67642700  0.67642700  0.35285400  1
loop_
_geom_bond_atom_site_label_1
_geom_bond_atom_site_label_2
_geom_bond_distance
_geom_bond_site_symmetry_2
Ba0 O5 2.787009 1_555
Ba0 O6 2.787010 1_555
Ba0 O5 2.787012 1_545
Ba0 O6 2.787012 1_455
Ba0 O11 2.835255 1_555
Ba0 O11 2.835257 1_545
Ba0 O11 2.835257 1_455
Ba0 O11 2.835260 1_445
Ba0 O2 3.128298 1_555
Ba1 O8 2.787009 1_555
Ba1 O0 2.787010 1_555
Ba1 O8 2.787012 1_565
Ba1 O0 2.787012 1_655
Ba1 O7 2.835255 1_555
Ba1 O7 2.835257 1_565
Ba1 O7 2.835257 1_655
Ba1 O7 2.835260 1_665
Ba1 O4 3.128298 1_555
Ca0 O5 2.466317 1_545
Ca0 O6 2.466317 1_455
Ca0 O5 2.466318 1_555
Ca0 O6 2.466318 1_555
Ca0 O9 2.505378 1_555
Ca0 O1 2.505378 1_555
Ca0 O9 2.505378 1_545
Ca0 O1 2.505378 1_455
Ca1 O8 2.466317 1_565
Ca1 O0 2.466317 1_655
Ca1 O8 2.466318 1_555
Ca1 O0 2.466318 1_555
Ca1 O3 2.505378 1_555
Ca1 O10 2.505378 1_555
Ca1 O3 2.505378 1_565
Ca1 O10 2.505378 1_655
Ca2 O3 2.502251 1_454
Ca2 O9 2.502251 1_545
Ca2 O10 2.502251 1_544
Ca2 O1 2.502251 1_455
Ca2 O3 2.502251 1_444
Ca2 O9 2.502251 1_555
Ca2 O10 2.502251 1_444
Ca2 O1 2.502251 1_555
Ni0 O1 1.910239 1_565
Ni0 O1 1.910239 1_555
Ni0 O9 1.910240 1_655
Ni0 O9 1.910240 1_555
Ni1 O0 1.910255 1_545
Ni1 O8 1.910255 1_455
Ni1 O0 1.910259 1_555
Ni1 O8 1.910259 1_555
Ni2 O6 1.910255 1_565
Ni2 O5 1.910255 1_655
Ni2 O6 1.910259 1_555
Ni2 O5 1.910259 1_555
Ni3 O10 1.910239 1_545
Ni3 O10 1.910239 1_555
Ni3 O3 1.910240 1_455
Ni3 O3 1.910240 1_555
O2 Tl1 2.097246 1_555
O2 Tl0 2.710475 1_445
O2 Tl0 2.710477 1_455
O2 Tl0 2.710477 1_545
O2 Tl0 2.710480 1_555
O4 Tl0 2.097246 1_555
O4 Tl1 2.710475 1_665
O4 Tl1 2.710477 1_655
O4 Tl1 2.710477 1_565
O4 Tl1 2.710480 1_555
O7 Tl1 2.046767 1_555
O11 Tl0 2.046767 1_555
