# generated using pymatgen
data_Li9Mn2Co5O16
_symmetry_space_group_name_H-M   'P 1'
_cell_length_a   5.12138313
_cell_length_b   5.12138313
_cell_length_c   20.84645548
_cell_angle_alpha   82.10651461
_cell_angle_beta   82.10651461
_cell_angle_gamma   32.63956858
_symmetry_Int_Tables_number   1
_chemical_formula_structural   Li9Mn2Co5O16
_chemical_formula_sum   'Li9 Mn2 Co5 O16'
_cell_volume   291.86818300
_cell_formula_units_Z   1
loop_
 _symmetry_equiv_pos_site_id
 _symmetry_equiv_pos_as_xyz
  1  'x, y, z'
loop_
 _atom_site_type_symbol
 _atom_site_label
 _atom_site_symmetry_multiplicity
 _atom_site_fract_x
 _atom_site_fract_y
 _atom_site_fract_z
 _atom_site_occupancy
  Li  Li0  1  0.24760600  0.24760600  0.06428100  1
  Li  Li1  1  0.74725300  0.74725300  0.19510300  1
  Li  Li2  1  0.23530800  0.23530800  0.32129500  1
  Li  Li3  1  0.75832500  0.75832500  0.43213000  1
  Li  Li4  1  0.25627400  0.25627400  0.56256700  1
  Li  Li5  1  0.74927100  0.74927100  0.68498900  1
  Li  Li6  1  0.25445900  0.25445900  0.80875900  1
  Li  Li7  1  0.75632700  0.75632700  0.92844900  1
  Li  Li8  1  0.50032600  0.50032600  0.37640900  1
  Mn  Mn0  1  0.99871000  0.99871000  0.99834600  1
  Mn  Mn1  1  0.49684100  0.49684100  0.12860900  1
  Co  Co0  1  0.98793700  0.98793700  0.26484200  1
  Co  Co1  1  0.01169200  0.01169200  0.49139400  1
  Co  Co2  1  0.49381800  0.49381800  0.62392100  1
  Co  Co3  1  0.00092400  0.00092400  0.74659300  1
  Co  Co4  1  0.50939700  0.50939700  0.86962100  1
  O  O0  1  0.38377600  0.38377600  0.97081200  1
  O  O1  1  0.88339600  0.88339600  0.10048200  1
  O  O2  1  0.39553200  0.39553200  0.21271700  1
  O  O3  1  0.87560500  0.87560500  0.33983000  1
  O  O4  1  0.39265800  0.39265800  0.47378700  1
  O  O5  1  0.87854700  0.87854700  0.59509700  1
  O  O6  1  0.38236100  0.38236100  0.71751000  1
  O  O7  1  0.89070300  0.89070300  0.84329600  1
  O  O8  1  0.11297300  0.11297300  0.15000800  1
  O  O9  1  0.61566400  0.61566400  0.27854700  1
  O  O10  1  0.12258600  0.12258600  0.41416300  1
  O  O11  1  0.60546400  0.60546400  0.53143500  1
  O  O12  1  0.11324200  0.11324200  0.65552100  1
  O  O13  1  0.61811400  0.61811400  0.78057700  1
  O  O14  1  0.12170500  0.12170500  0.90343200  1
  O  O15  1  0.60321100  0.60321100  0.03547800  1
loop_
_geom_bond_atom_site_label_1
_geom_bond_atom_site_label_2
_geom_bond_distance
_geom_bond_site_symmetry_2
Li0 O8 2.066004 1_555
Li0 O15 2.165683 1_455
Li0 O15 2.165683 1_545
Li0 O1 2.170386 1_545
Li0 O1 2.170386 1_455
Li0 O0 2.200440 1_554
Li1 O9 2.013740 1_555
Li1 O2 2.117448 1_655
Li1 O2 2.117448 1_565
Li1 O1 2.219536 1_555
Li1 O8 2.247715 1_655
Li1 O8 2.247715 1_565
Li2 O3 2.067561 1_545
Li2 O3 2.067561 1_455
Li2 O10 2.088502 1_555
Li2 O9 2.132682 1_455
Li2 O9 2.132682 1_545
Li2 O2 2.565865 1_555
Li3 O10 2.033407 1_655
Li3 O10 2.033407 1_565
Li3 O3 2.096788 1_555
Li3 O4 2.212926 1_655
Li3 O4 2.212926 1_565
Li3 O11 2.377645 1_555
Li4 O5 2.051545 1_455
Li4 O5 2.051545 1_545
Li4 O4 2.124272 1_555
Li4 O12 2.225320 1_555
Li4 O11 2.228289 1_455
Li4 O11 2.228289 1_545
Li5 O5 2.108314 1_555
Li5 O12 2.114592 1_565
Li5 O12 2.114592 1_655
Li5 O6 2.120393 1_655
Li5 O6 2.120393 1_565
Li5 O13 2.213079 1_555
Li6 O13 2.106623 1_545
Li6 O13 2.106623 1_455
Li6 O6 2.124789 1_555
Li6 O7 2.158477 1_455
Li6 O7 2.158477 1_545
Li6 O14 2.204759 1_555
Li7 O7 2.055452 1_555
Li7 O14 2.071651 1_655
Li7 O14 2.071651 1_565
Li7 O0 2.176497 1_655
Li7 O0 2.176497 1_565
Li7 O15 2.506488 1_556
Li8 O10 2.098933 1_565
Li8 O10 2.098933 1_655
Li8 O3 2.103129 1_455
Li8 O3 2.103129 1_545
Li8 O4 2.150844 1_555
Li8 O9 2.187555 1_555
Mn0 O0 1.965332 1_565
Mn0 O0 1.965332 1_655
Mn0 O15 1.988218 1_656
Mn0 O15 1.988218 1_566
Mn0 O14 2.166123 1_665
Mn0 O1 2.264413 1_556
Mn1 O2 1.888461 1_555
Mn1 O8 1.928463 1_655
Mn1 O8 1.928463 1_565
Mn1 O1 1.961009 1_545
Mn1 O1 1.961009 1_455
Mn1 O15 2.069198 1_555
Co0 O3 1.780170 1_555
Co0 O9 1.957482 1_655
Co0 O9 1.957482 1_565
Co0 O2 2.087901 1_655
Co0 O2 2.087901 1_565
Co0 O8 2.529684 1_665
Co1 O10 1.810552 1_555
Co1 O4 1.922968 1_545
Co1 O4 1.922968 1_455
Co1 O11 1.958991 1_455
Co1 O11 1.958991 1_545
Co1 O5 2.361523 1_445
Co2 O5 1.977596 1_545
Co2 O5 1.977596 1_455
Co2 O12 2.025939 1_655
Co2 O12 2.025939 1_565
Co2 O11 2.077524 1_555
Co2 O6 2.096435 1_555
Co3 O6 1.999789 1_545
Co3 O6 1.999789 1_455
Co3 O13 2.033111 1_455
Co3 O13 2.033111 1_545
Co3 O12 2.055121 1_555
Co3 O7 2.147727 1_445
Co4 O7 1.979084 1_545
Co4 O7 1.979084 1_455
Co4 O14 2.002326 1_655
Co4 O14 2.002326 1_565
Co4 O13 2.005003 1_555
Co4 O0 2.286756 1_555
