# generated using pymatgen
data_Yb5Ir3
_symmetry_space_group_name_H-M   'P 1'
_cell_length_a   6.16185000
_cell_length_b   10.88223500
_cell_length_c   10.88223500
_cell_angle_alpha   90.00000000
_cell_angle_beta   90.00000000
_cell_angle_gamma   90.00000000
_symmetry_Int_Tables_number   1
_chemical_formula_structural   Yb5Ir3
_chemical_formula_sum   'Yb20 Ir12'
_cell_volume   729.70500037
_cell_formula_units_Z   4
loop_
 _symmetry_equiv_pos_site_id
 _symmetry_equiv_pos_as_xyz
  1  'x, y, z'
loop_
 _atom_site_type_symbol
 _atom_site_label
 _atom_site_symmetry_multiplicity
 _atom_site_fract_x
 _atom_site_fract_y
 _atom_site_fract_z
 _atom_site_occupancy
  Yb  Yb0  1  0.36554500  0.83530400  0.54128400  1
  Yb  Yb1  1  0.86554500  0.66469600  0.54128400  1
  Yb  Yb2  1  0.86554500  0.83530400  0.95871600  1
  Yb  Yb3  1  0.36554500  0.66469600  0.95871600  1
  Yb  Yb4  1  0.86554500  0.54128400  0.83530400  1
  Yb  Yb5  1  0.36554500  0.95871600  0.83530400  1
  Yb  Yb6  1  0.36554500  0.54128400  0.66469600  1
  Yb  Yb7  1  0.86554500  0.95871600  0.66469600  1
  Yb  Yb8  1  0.63445500  0.16469600  0.45871700  1
  Yb  Yb9  1  0.13445500  0.33530400  0.45871700  1
  Yb  Yb10  1  0.13445500  0.16469600  0.04128400  1
  Yb  Yb11  1  0.63445500  0.33530400  0.04128400  1
  Yb  Yb12  1  0.13445500  0.45871700  0.16469600  1
  Yb  Yb13  1  0.63445500  0.04128400  0.16469600  1
  Yb  Yb14  1  0.63445500  0.45871700  0.33530400  1
  Yb  Yb15  1  0.13445500  0.04128400  0.33530400  1
  Yb  Yb16  1  0.50000000  0.75000000  0.25000000  1
  Yb  Yb17  1  0.00000000  0.75000000  0.25000000  1
  Yb  Yb18  1  0.00000000  0.25000000  0.75000000  1
  Yb  Yb19  1  0.50000000  0.25000000  0.75000000  1
  Ir  Ir0  1  0.25000000  0.90384700  0.09615300  1
  Ir  Ir1  1  0.75000000  0.59615300  0.09615300  1
  Ir  Ir2  1  0.75000000  0.90384700  0.40384700  1
  Ir  Ir3  1  0.25000000  0.59615300  0.40384700  1
  Ir  Ir4  1  0.75000000  0.09615300  0.90384700  1
  Ir  Ir5  1  0.25000000  0.40384700  0.90384700  1
  Ir  Ir6  1  0.25000000  0.09615300  0.59615300  1
  Ir  Ir7  1  0.75000000  0.40384700  0.59615300  1
  Ir  Ir8  1  0.11995300  0.75000000  0.75000000  1
  Ir  Ir9  1  0.61995300  0.75000000  0.75000000  1
  Ir  Ir10  1  0.88004700  0.25000000  0.25000000  1
  Ir  Ir11  1  0.38004700  0.25000000  0.25000000  1
loop_
_geom_bond_atom_site_label_1
_geom_bond_atom_site_label_2
_geom_bond_distance
_geom_bond_site_symmetry_2
Ir0 Yb16 2.824697 1_555
Ir0 Yb17 2.824697 1_555
Ir0 Yb2 2.899172 1_454
Ir0 Yb13 2.899172 1_565
Ir0 Yb5 2.986836 1_554
Ir0 Yb10 2.986836 1_565
Ir0 Yb3 3.084928 1_554
Ir0 Yb15 3.084928 1_565
Ir1 Yb17 2.824697 1_655
Ir1 Yb16 2.824697 1_555
Ir1 Yb12 2.899166 1_655
Ir1 Yb3 2.899172 1_554
Ir1 Yb4 2.986836 1_554
Ir1 Yb11 2.986836 1_555
Ir1 Yb14 3.084923 1_555
Ir1 Yb2 3.084928 1_554
Ir2 Yb17 2.824697 1_655
Ir2 Yb16 2.824697 1_555
Ir2 Yb0 2.899172 1_555
Ir2 Yb15 2.899172 1_665
Ir2 Yb7 2.986836 1_555
Ir2 Yb8 2.986839 1_565
Ir2 Yb1 3.084928 1_555
Ir2 Yb13 3.084928 1_565
Ir3 Yb16 2.824697 1_555
Ir3 Yb17 2.824697 1_555
Ir3 Yb14 2.899166 1_555
Ir3 Yb1 2.899172 1_455
Ir3 Yb6 2.986836 1_555
Ir3 Yb9 2.986839 1_555
Ir3 Yb12 3.084923 1_555
Ir3 Yb0 3.084928 1_555
Ir4 Yb18 2.824697 1_655
Ir4 Yb19 2.824697 1_555
Ir4 Yb5 2.899172 1_545
Ir4 Yb10 2.899172 1_656
Ir4 Yb2 2.986836 1_545
Ir4 Yb13 2.986836 1_556
Ir4 Yb7 3.084928 1_545
Ir4 Yb11 3.084928 1_556
Ir5 Yb18 2.824697 1_555
Ir5 Yb19 2.824697 1_555
Ir5 Yb4 2.899172 1_455
Ir5 Yb11 2.899172 1_556
Ir5 Yb3 2.986836 1_555
Ir5 Yb12 2.986839 1_556
Ir5 Yb6 3.084928 1_555
Ir5 Yb10 3.084928 1_556
Ir6 Yb18 2.824697 1_555
Ir6 Yb19 2.824697 1_555
Ir6 Yb8 2.899166 1_555
Ir6 Yb7 2.899172 1_445
Ir6 Yb0 2.986836 1_545
Ir6 Yb15 2.986836 1_555
Ir6 Yb9 3.084923 1_555
Ir6 Yb5 3.084928 1_545
Ir7 Yb18 2.824697 1_655
Ir7 Yb19 2.824697 1_555
Ir7 Yb9 2.899166 1_655
Ir7 Yb6 2.899172 1_555
Ir7 Yb1 2.986836 1_555
Ir7 Yb14 2.986839 1_555
Ir7 Yb8 3.084923 1_555
Ir7 Yb4 3.084928 1_555
Ir8 Yb5 2.882812 1_555
Ir8 Yb0 2.882812 1_555
Ir8 Yb6 2.882812 1_555
Ir8 Yb3 2.882812 1_555
Ir8 Yb7 2.911695 1_455
Ir8 Yb1 2.911695 1_455
Ir8 Yb4 2.911695 1_455
Ir8 Yb2 2.911695 1_455
Ir9 Yb7 2.882812 1_555
Ir9 Yb4 2.882812 1_555
Ir9 Yb1 2.882812 1_555
Ir9 Yb2 2.882812 1_555
Ir9 Yb5 2.911695 1_555
Ir9 Yb3 2.911695 1_555
Ir9 Yb0 2.911695 1_555
Ir9 Yb6 2.911695 1_555
Ir10 Yb13 2.882812 1_555
Ir10 Yb11 2.882812 1_555
Ir10 Yb14 2.882821 1_555
Ir10 Yb8 2.882821 1_555
Ir10 Yb15 2.911695 1_655
Ir10 Yb10 2.911695 1_655
Ir10 Yb12 2.911704 1_655
Ir10 Yb9 2.911704 1_655
Ir11 Yb15 2.882812 1_555
Ir11 Yb10 2.882812 1_555
Ir11 Yb12 2.882821 1_555
Ir11 Yb9 2.882821 1_555
Ir11 Yb11 2.911695 1_555
Ir11 Yb13 2.911695 1_555
Ir11 Yb8 2.911704 1_555
Ir11 Yb14 2.911704 1_555
