# generated using pymatgen
data_Pr2CoRuO6
_symmetry_space_group_name_H-M   'P 1'
_cell_length_a   5.50572060
_cell_length_b   5.82293100
_cell_length_c   7.86056686
_cell_angle_alpha   90.00000000
_cell_angle_beta   89.68436605
_cell_angle_gamma   90.00000000
_symmetry_Int_Tables_number   1
_chemical_formula_structural   Pr2CoRuO6
_chemical_formula_sum   'Pr4 Co2 Ru2 O12'
_cell_volume   252.00147850
_cell_formula_units_Z   2
loop_
 _symmetry_equiv_pos_site_id
 _symmetry_equiv_pos_as_xyz
  1  'x, y, z'
loop_
 _atom_site_type_symbol
 _atom_site_label
 _atom_site_symmetry_multiplicity
 _atom_site_fract_x
 _atom_site_fract_y
 _atom_site_fract_z
 _atom_site_occupancy
  Pr  Pr0  1  0.01839600  0.43530400  0.25077700  1
  Pr  Pr1  1  0.98160400  0.56469700  0.74922300  1
  Pr  Pr2  1  0.48160400  0.93530300  0.24922300  1
  Pr  Pr3  1  0.51839600  0.06469700  0.75077700  1
  Co  Co0  1  0.00000000  0.00000000  0.00000000  1
  Co  Co1  1  0.50000000  0.50000000  0.50000000  1
  Ru  Ru0  1  0.00000000  0.00000000  0.50000000  1
  Ru  Ru1  1  0.50000000  0.50000000  0.00000000  1
  O  O0  1  0.30700400  0.20906700  0.05311400  1
  O  O1  1  0.69299600  0.79093300  0.94688600  1
  O  O2  1  0.19299600  0.70906700  0.44688600  1
  O  O3  1  0.80700400  0.29093300  0.55311400  1
  O  O4  1  0.90385200  0.02722400  0.25181900  1
  O  O5  1  0.09614800  0.97277600  0.74818100  1
  O  O6  1  0.59614800  0.52722400  0.24818100  1
  O  O7  1  0.40385200  0.47277600  0.75181900  1
  O  O8  1  0.20169900  0.69685300  0.04755500  1
  O  O9  1  0.79830100  0.30314700  0.95244500  1
  O  O10  1  0.29830100  0.19685300  0.45244500  1
  O  O11  1  0.70169900  0.80314700  0.54755500  1
loop_
_geom_bond_atom_site_label_1
_geom_bond_atom_site_label_2
_geom_bond_distance
_geom_bond_site_symmetry_2
Co0 O4 2.052314 1_455
Co0 O5 2.052314 1_544
Co0 O8 2.119778 1_545
Co0 O9 2.119778 1_454
Co0 O0 2.126299 1_555
Co0 O1 2.126299 1_444
Co1 O7 2.052314 1_555
Co1 O6 2.052314 1_555
Co1 O11 2.119778 1_555
Co1 O10 2.119778 1_555
Co1 O3 2.126299 1_555
Co1 O2 2.126299 1_555
O0 Ru1 2.041671 1_555
O0 Pr2 2.420313 1_545
O0 Pr0 2.578229 1_555
O0 Pr3 2.771057 1_554
O1 Ru1 2.041671 1_556
O1 Pr3 2.420313 1_565
O1 Pr1 2.578226 1_555
O1 Pr2 2.771057 1_556
O2 Ru0 2.041671 1_565
O2 Pr0 2.420309 1_555
O2 Pr2 2.578226 1_555
O2 Pr1 2.771057 1_455
O3 Ru0 2.041671 1_655
O3 Pr1 2.420313 1_555
O3 Pr3 2.578226 1_555
O3 Pr0 2.771058 1_655
O4 Ru0 2.030400 1_655
O4 Pr2 2.385798 1_545
O4 Pr0 2.458486 1_655
O5 Ru0 2.030400 1_565
O5 Pr3 2.385798 1_565
O5 Pr1 2.458481 1_455
O6 Ru1 2.030400 1_555
O6 Pr0 2.385796 1_655
O6 Pr2 2.458481 1_555
O7 Ru1 2.030400 1_556
O7 Pr1 2.385798 1_455
O7 Pr3 2.458481 1_555
O8 Ru1 2.035740 1_555
O8 Pr0 2.423230 1_555
O8 Pr2 2.615846 1_555
O8 Pr1 2.755215 1_454
O9 Ru1 2.035740 1_556
O9 Pr1 2.423233 1_555
O9 Pr3 2.615846 1_555
O9 Pr0 2.755216 1_656
O10 Ru0 2.035740 1_555
O10 Pr2 2.423233 1_545
O10 Pr0 2.615849 1_555
O10 Pr3 2.755215 1_555
O11 Ru0 2.035740 1_665
O11 Pr3 2.423233 1_565
O11 Pr1 2.615846 1_555
O11 Pr2 2.755215 1_555
