# generated using pymatgen
data_ErZnNi
_symmetry_space_group_name_H-M   'P 1'
_cell_length_a   6.88478403
_cell_length_b   6.88478403
_cell_length_c   3.73001886
_cell_angle_alpha   90.00000000
_cell_angle_beta   90.00000000
_cell_angle_gamma   120.00000299
_symmetry_Int_Tables_number   1
_chemical_formula_structural   ErZnNi
_chemical_formula_sum   'Er3 Zn3 Ni3'
_cell_volume   153.11660432
_cell_formula_units_Z   3
loop_
 _symmetry_equiv_pos_site_id
 _symmetry_equiv_pos_as_xyz
  1  'x, y, z'
loop_
 _atom_site_type_symbol
 _atom_site_label
 _atom_site_symmetry_multiplicity
 _atom_site_fract_x
 _atom_site_fract_y
 _atom_site_fract_z
 _atom_site_occupancy
  Er  Er0  1  0.00000000  0.40855653  0.50000000  1
  Er  Er1  1  0.59144347  0.59144347  0.50000000  1
  Er  Er2  1  0.40855653  0.00000000  0.50000000  1
  Zn  Zn0  1  -0.00000000  0.75698131  -0.00000000  1
  Zn  Zn1  1  0.24301869  0.24301869  -0.00000000  1
  Zn  Zn2  1  0.75698131  -0.00000000  0.00000000  1
  Ni  Ni0  1  0.33333300  0.66666700  -0.00000000  1
  Ni  Ni1  1  0.66666700  0.33333300  -0.00000000  1
  Ni  Ni2  1  -0.00000000  -0.00000000  0.50000000  1
loop_
_geom_bond_atom_site_label_1
_geom_bond_atom_site_label_2
_geom_bond_distance
_geom_bond_site_symmetry_2
Er0 Ni1 2.797253 1_456
Er0 Ni1 2.797253 1_455
Er0 Ni0 2.797255 1_556
Er0 Ni0 2.797255 1_555
Er0 Ni2 2.812823 1_555
Er0 Zn0 3.038526 1_555
Er0 Zn0 3.038526 1_556
Er0 Zn2 3.079510 1_455
Er0 Zn2 3.079510 1_456
Er0 Zn1 3.079510 1_556
Er0 Zn1 3.079510 1_555
Er1 Ni1 2.797258 1_555
Er1 Ni0 2.797258 1_556
Er1 Ni0 2.797258 1_555
Er1 Ni1 2.797258 1_556
Er1 Ni2 2.812823 1_665
Er1 Zn1 3.038526 1_555
Er1 Zn1 3.038526 1_556
Er1 Zn2 3.079510 1_566
Er1 Zn2 3.079510 1_565
Er1 Zn0 3.079510 1_655
Er1 Zn0 3.079510 1_656
Er2 Ni0 2.797253 1_546
Er2 Ni0 2.797253 1_545
Er2 Ni1 2.797255 1_556
Er2 Ni1 2.797255 1_555
Er2 Ni2 2.812823 1_555
Er2 Zn2 3.038526 1_555
Er2 Zn2 3.038526 1_556
Er2 Zn0 3.079510 1_546
Er2 Zn0 3.079510 1_545
Er2 Zn1 3.079510 1_555
Er2 Zn1 3.079510 1_556
Zn0 Zn1 2.897948 1_565
Zn0 Zn2 2.897948 1_465
Zn1 Zn2 2.897948 1_455
Ni0 Zn0 2.660880 1_555
Ni0 Zn2 2.660885 1_565
Ni0 Zn1 2.660887 1_555
Ni1 Zn2 2.660880 1_555
Ni1 Zn0 2.660885 1_655
Ni1 Zn1 2.660887 1_555
Ni2 Zn1 2.505519 1_555
Ni2 Zn1 2.505519 1_556
Ni2 Zn0 2.505520 1_546
Ni2 Zn2 2.505520 1_455
Ni2 Zn2 2.505520 1_456
Ni2 Zn0 2.505520 1_545
