# generated using pymatgen
data_Er6Co30P19
_symmetry_space_group_name_H-M   'P 1'
_cell_length_a   3.56943700
_cell_length_b   14.68507388
_cell_length_c   14.68507388
_cell_angle_alpha   119.99999945
_cell_angle_beta   90.00000000
_cell_angle_gamma   90.00000000
_symmetry_Int_Tables_number   1
_chemical_formula_structural   Er6Co30P19
_chemical_formula_sum   'Er6 Co30 P19'
_cell_volume   666.62658102
_cell_formula_units_Z   1
loop_
 _symmetry_equiv_pos_site_id
 _symmetry_equiv_pos_as_xyz
  1  'x, y, z'
loop_
 _atom_site_type_symbol
 _atom_site_label
 _atom_site_symmetry_multiplicity
 _atom_site_fract_x
 _atom_site_fract_y
 _atom_site_fract_z
 _atom_site_occupancy
  Er  Er0  1  0.50000000  0.29524200  0.90275300  1
  Er  Er1  1  0.50000000  0.09724700  0.39248900  1
  Er  Er2  1  0.50000000  0.60751100  0.70475800  1
  Er  Er3  1  0.00000000  0.70478900  0.09727300  1
  Er  Er4  1  0.00000000  0.90272700  0.60751600  1
  Er  Er5  1  0.00000000  0.39248400  0.29521100  1
  Co  Co0  1  0.50000000  0.42717200  0.77507200  1
  Co  Co1  1  0.50000000  0.22492800  0.65210000  1
  Co  Co2  1  0.50000000  0.34790100  0.57282800  1
  Co  Co3  1  0.00000000  0.57291000  0.22495300  1
  Co  Co4  1  0.00000000  0.77504700  0.34795700  1
  Co  Co5  1  0.00000000  0.65204300  0.42709000  1
  Co  Co6  1  0.50000000  0.53711700  0.07363900  1
  Co  Co7  1  0.50000000  0.92636100  0.46347800  1
  Co  Co8  1  0.50000000  0.53652200  0.46288300  1
  Co  Co9  1  0.00000000  0.46193900  0.92622900  1
  Co  Co10  1  0.00000000  0.07377100  0.53571000  1
  Co  Co11  1  0.00000000  0.46429000  0.53806100  1
  Co  Co12  1  0.50000000  0.04480700  0.77379600  1
  Co  Co13  1  0.50000000  0.22620400  0.27101100  1
  Co  Co14  1  0.50000000  0.72898900  0.95519300  1
  Co  Co15  1  0.00000000  0.95091700  0.22475500  1
  Co  Co16  1  0.00000000  0.77524500  0.72616200  1
  Co  Co17  1  0.00000000  0.27383800  0.04908300  1
  Co  Co18  1  0.50000000  0.73427600  0.58339900  1
  Co  Co19  1  0.50000000  0.41660100  0.15087600  1
  Co  Co20  1  0.50000000  0.84912400  0.26572400  1
  Co  Co21  1  0.00000000  0.26583000  0.41551500  1
  Co  Co22  1  0.00000000  0.58448500  0.85031500  1
  Co  Co23  1  0.00000000  0.14968500  0.73417000  1
  Co  Co24  1  0.50000000  0.12955400  0.97180100  1
  Co  Co25  1  0.50000000  0.02819900  0.15775300  1
  Co  Co26  1  0.50000000  0.84224700  0.87044600  1
  Co  Co27  1  0.00000000  0.88759600  0.02489000  1
  Co  Co28  1  0.00000000  0.97511000  0.86270500  1
  Co  Co29  1  0.00000000  0.13729500  0.11240400  1
  P  P0  1  0.50000000  0.68257500  0.23182500  1
  P  P1  1  0.50000000  0.76817500  0.45074900  1
  P  P2  1  0.50000000  0.54925100  0.31742500  1
  P  P3  1  0.00000000  0.31644500  0.76773500  1
  P  P4  1  0.00000000  0.23226500  0.54871000  1
  P  P5  1  0.00000000  0.45129000  0.68355500  1
  P  P6  1  0.50000000  0.87934300  0.74355800  1
  P  P7  1  0.50000000  0.25644200  0.13578500  1
  P  P8  1  0.50000000  0.86421500  0.12065700  1
  P  P9  1  0.00000000  0.12085300  0.25541900  1
  P  P10  1  0.00000000  0.74458100  0.86543400  1
  P  P11  1  0.00000000  0.13456600  0.87914700  1
  P  P12  1  0.50000000  0.06209600  0.62931900  1
  P  P13  1  0.50000000  0.37068100  0.43277700  1
  P  P14  1  0.50000000  0.56722300  0.93790400  1
  P  P15  1  0.00000000  0.93728100  0.37060400  1
  P  P16  1  0.00000000  0.62939600  0.56667700  1
  P  P17  1  0.00000000  0.43332300  0.06271900  1
  P  P18  1  0.50000000  0.00000000  0.00000000  1
loop_
_geom_bond_atom_site_label_1
_geom_bond_atom_site_label_2
_geom_bond_distance
_geom_bond_site_symmetry_2
Er0 P3 2.798362 1_655
Er0 P3 2.798362 1_555
Er0 P17 2.837582 1_556
Er0 P17 2.837582 1_656
Er0 P11 2.838110 1_555
Er0 P11 2.838110 1_655
Er1 P4 2.798362 1_555
Er1 P4 2.798362 1_655
Er1 P15 2.837582 1_645
Er1 P15 2.837582 1_545
Er1 P9 2.838110 1_655
Er1 P9 2.838110 1_555
Er2 P5 2.798362 1_655
Er2 P5 2.798362 1_555
Er2 P16 2.837582 1_555
Er2 P16 2.837582 1_655
Er2 P10 2.838110 1_555
Er2 P10 2.838110 1_655
Er3 P0 2.800073 1_555
Er3 P0 2.800073 1_455
Er3 P8 2.824947 1_555
Er3 P8 2.824947 1_455
Er3 P14 2.831188 1_454
Er3 P14 2.831188 1_554
Er4 P1 2.800080 1_455
Er4 P1 2.800080 1_555
Er4 P6 2.824947 1_555
Er4 P6 2.824947 1_455
Er4 P12 2.831188 1_465
Er4 P12 2.831188 1_565
Er5 P2 2.800084 1_555
Er5 P2 2.800084 1_455
Er5 P7 2.824947 1_555
Er5 P7 2.824947 1_455
Er5 P13 2.831188 1_555
Er5 P13 2.831188 1_455
Co0 P14 2.242722 1_555
Co0 P5 2.364911 1_655
Co0 P5 2.364911 1_555
Co0 P3 2.380256 1_655
Co0 P3 2.380256 1_555
Co1 P12 2.242722 1_555
Co1 P3 2.364911 1_555
Co1 P3 2.364911 1_655
Co1 P4 2.380256 1_555
Co1 P4 2.380256 1_655
Co2 P13 2.242713 1_555
Co2 P4 2.364921 1_655
Co2 P4 2.364921 1_555
Co2 P5 2.380252 1_655
Co2 P5 2.380252 1_555
Co3 P17 2.234769 1_555
Co3 P2 2.371030 1_555
Co3 P2 2.371030 1_455
Co3 P0 2.372003 1_455
Co3 P0 2.372003 1_555
Co4 P15 2.234769 1_555
Co4 P0 2.371036 1_455
Co4 P0 2.371036 1_555
Co4 P1 2.371993 1_455
Co4 P1 2.371993 1_555
Co5 P16 2.234769 1_555
Co5 P1 2.371039 1_455
Co5 P1 2.371039 1_555
Co5 P2 2.371999 1_555
Co5 P2 2.371999 1_455
Co6 P0 2.235386 1_555
Co6 P14 2.247191 1_554
Co6 P17 2.299949 1_655
Co6 P17 2.299949 1_555
Co6 Er3 2.917859 1_655
Co6 Er3 2.917859 1_555
Co7 P1 2.235379 1_555
Co7 P12 2.247191 1_565
Co7 P15 2.299949 1_655
Co7 P15 2.299949 1_555
Co7 Er4 2.917859 1_655
Co7 Er4 2.917859 1_555
Co8 P2 2.235394 1_555
Co8 P13 2.247191 1_555
Co8 P16 2.299949 1_655
Co8 P16 2.299949 1_555
Co8 Er5 2.917859 1_555
Co8 Er5 2.917859 1_655
Co9 P3 2.238158 1_555
Co9 P17 2.244185 1_556
Co9 P14 2.310838 1_555
Co9 P14 2.310838 1_455
Co9 Er0 2.907343 1_455
Co9 Er0 2.907343 1_555
Co10 P4 2.238158 1_555
Co10 P15 2.244185 1_545
Co10 P12 2.310838 1_555
Co10 P12 2.310838 1_455
Co10 Er1 2.907343 1_455
Co10 Er1 2.907343 1_555
Co11 P5 2.238158 1_555
Co11 P16 2.244185 1_555
Co11 P13 2.310838 1_455
Co11 P13 2.310838 1_555
Co11 Er2 2.907343 1_455
Co11 Er2 2.907343 1_555
Co12 P6 2.241068 1_545
Co12 P12 2.259325 1_555
Co12 P11 2.297148 1_555
Co12 P11 2.297148 1_655
Co12 Er4 2.899361 1_645
Co12 Er4 2.899361 1_545
Co13 P7 2.241068 1_555
Co13 P13 2.259325 1_555
Co13 P9 2.297148 1_555
Co13 P9 2.297148 1_655
Co13 Er5 2.899361 1_555
Co13 Er5 2.899361 1_655
Co14 P8 2.241068 1_556
Co14 P14 2.259325 1_555
Co14 P10 2.297148 1_555
Co14 P10 2.297148 1_655
Co14 Er3 2.899361 1_556
Co14 Er3 2.899361 1_656
Co15 P15 2.248623 1_555
Co15 P8 2.279659 1_555
Co15 P8 2.279659 1_455
Co15 P9 2.303620 1_565
Co15 Er1 2.928665 1_465
Co15 Er1 2.928665 1_565
Co16 P16 2.248623 1_555
Co16 P6 2.279659 1_555
Co16 P6 2.279659 1_455
Co16 P10 2.303620 1_555
Co16 Er2 2.928665 1_555
Co16 Er2 2.928665 1_455
Co17 P17 2.248623 1_555
Co17 P7 2.279659 1_455
Co17 P7 2.279659 1_555
Co17 P11 2.303620 1_554
Co17 Er0 2.928665 1_554
Co17 Er0 2.928665 1_454
Co18 P1 2.238781 1_555
Co18 P6 2.249337 1_555
Co18 P16 2.288982 1_555
Co18 P16 2.288982 1_655
Co18 Er4 2.924693 1_555
Co18 Er4 2.924693 1_655
Co19 P2 2.238781 1_555
Co19 P7 2.249343 1_555
Co19 P17 2.288973 1_655
Co19 P17 2.288973 1_555
Co19 Er5 2.924704 1_655
Co19 Er5 2.924704 1_555
Co20 P0 2.238781 1_555
Co20 P8 2.249329 1_555
Co20 P15 2.288978 1_655
Co20 P15 2.288978 1_555
Co20 Er3 2.924697 1_655
Co20 Er3 2.924697 1_555
Co21 P4 2.243416 1_555
Co21 P9 2.248247 1_555
Co21 P13 2.286914 1_555
Co21 P13 2.286914 1_455
Co21 Er1 2.931093 1_555
Co21 Er1 2.931093 1_455
Co22 P5 2.243416 1_555
Co22 P10 2.248247 1_555
Co22 P14 2.286914 1_555
Co22 P14 2.286914 1_455
Co22 Er2 2.931093 1_555
Co22 Er2 2.931093 1_455
Co23 P3 2.243416 1_555
Co23 P11 2.248247 1_555
Co23 P12 2.286914 1_555
Co23 P12 2.286914 1_455
Co23 Er0 2.931093 1_455
Co23 Er0 2.931093 1_555
Co24 P18 2.139828 1_556
Co24 P7 2.187224 1_556
Co24 P11 2.267619 1_555
Co24 P11 2.267619 1_655
Co25 P18 2.139828 1_555
Co25 P8 2.187224 1_545
Co25 P9 2.267620 1_655
Co25 P9 2.267620 1_555
Co26 P18 2.139828 1_566
Co26 P6 2.187224 1_555
Co26 P10 2.267619 1_555
Co26 P10 2.267619 1_655
Co27 P10 2.230725 1_554
Co27 P8 2.400789 1_455
Co27 P8 2.400789 1_555
Co27 P18 2.578146 1_565
Co27 P18 2.578146 1_465
Co28 P11 2.230719 1_565
Co28 P6 2.400783 1_455
Co28 P6 2.400783 1_555
Co28 P18 2.578156 1_466
Co28 P18 2.578156 1_566
Co29 P9 2.230734 1_555
Co29 P7 2.400780 1_555
Co29 P7 2.400780 1_455
Co29 P18 2.578153 1_555
Co29 P18 2.578153 1_455
