# generated using pymatgen
data_TbB4Os
_symmetry_space_group_name_H-M   'P 1'
_cell_length_a   5.97116434
_cell_length_b   11.55208004
_cell_length_c   3.57332835
_cell_angle_alpha   90.00000000
_cell_angle_beta   90.00000000
_cell_angle_gamma   90.00000000
_symmetry_Int_Tables_number   1
_chemical_formula_structural   TbB4Os
_chemical_formula_sum   'Tb4 B16 Os4'
_cell_volume   246.48593262
_cell_formula_units_Z   4
loop_
 _symmetry_equiv_pos_site_id
 _symmetry_equiv_pos_as_xyz
  1  'x, y, z'
loop_
 _atom_site_type_symbol
 _atom_site_label
 _atom_site_symmetry_multiplicity
 _atom_site_fract_x
 _atom_site_fract_y
 _atom_site_fract_z
 _atom_site_occupancy
  Tb  Tb0  1  0.62790128  0.34982384  -0.00000000  1
  Tb  Tb1  1  0.37209872  0.65017616  0.00000000  1
  Tb  Tb2  1  0.12790128  0.15017616  -0.00000000  1
  Tb  Tb3  1  0.87209872  0.84982384  0.00000000  1
  B  B0  1  0.78807850  0.18544530  0.50000000  1
  B  B1  1  0.21192150  0.81455470  0.50000000  1
  B  B2  1  0.28807850  0.31455470  0.50000000  1
  B  B3  1  0.71192150  0.68544530  0.50000000  1
  B  B4  1  0.86287415  0.03013372  0.50000000  1
  B  B5  1  0.13712585  0.96986628  0.50000000  1
  B  B6  1  0.36287415  0.46986628  0.50000000  1
  B  B7  1  0.63712585  0.53013372  0.50000000  1
  B  B8  1  0.88790612  0.45353578  0.50000000  1
  B  B9  1  0.11209388  0.54646422  0.50000000  1
  B  B10  1  0.38790612  0.04646422  0.50000000  1
  B  B11  1  0.61209388  0.95353578  0.50000000  1
  B  B12  1  0.97481711  0.30918549  0.50000000  1
  B  B13  1  0.02518289  0.69081451  0.50000000  1
  B  B14  1  0.47481711  0.19081451  0.50000000  1
  B  B15  1  0.52518289  0.80918549  0.50000000  1
  Os  Os0  1  0.64078840  0.09342724  0.00000000  1
  Os  Os1  1  0.35921160  0.90657276  0.00000000  1
  Os  Os2  1  0.14078840  0.40657276  -0.00000000  1
  Os  Os3  1  0.85921160  0.59342724  -0.00000000  1
loop_
_geom_bond_atom_site_label_1
_geom_bond_atom_site_label_2
_geom_bond_distance
_geom_bond_site_symmetry_2
B0 B12 1.812919 1_555
B0 B4 1.848924 1_555
B0 B14 1.871563 1_555
B0 Os0 2.257354 1_556
B0 Os0 2.257354 1_555
B0 Tb2 2.734149 1_655
B0 Tb2 2.734149 1_656
B0 Tb0 2.777198 1_556
B0 Tb0 2.777198 1_555
B1 B13 1.812919 1_555
B1 B5 1.848924 1_555
B1 B15 1.871563 1_555
B1 Os1 2.257354 1_556
B1 Os1 2.257354 1_555
B1 Tb3 2.734149 1_455
B1 Tb3 2.734149 1_456
B1 Tb1 2.777198 1_556
B1 Tb1 2.777198 1_555
B2 B6 1.848924 1_555
B2 Os2 2.257354 1_556
B2 Os2 2.257354 1_555
B2 Tb0 2.734149 1_555
B2 Tb0 2.734149 1_556
B2 Tb2 2.777198 1_555
B2 Tb2 2.777198 1_556
B3 B7 1.848924 1_555
B3 Os3 2.257354 1_556
B3 Os3 2.257354 1_555
B3 Tb1 2.734149 1_555
B3 Tb1 2.734149 1_556
B3 Tb3 2.777198 1_555
B3 Tb3 2.777198 1_556
B4 B5 1.779453 1_645
B4 Os0 2.342082 1_555
B4 Os0 2.342082 1_556
B4 Tb3 2.744795 1_546
B4 Tb3 2.744795 1_545
B4 Tb2 2.760360 1_655
B4 Tb2 2.760360 1_656
B5 Os1 2.342082 1_556
B5 Os1 2.342082 1_555
B5 Tb2 2.744795 1_566
B5 Tb2 2.744795 1_565
B5 Tb3 2.760360 1_456
B5 Tb3 2.760360 1_455
B6 B9 1.739352 1_555
B6 B7 1.779453 1_555
B6 Os2 2.342082 1_555
B6 Os2 2.342082 1_556
B6 Tb1 2.744795 1_556
B6 Tb1 2.744795 1_555
B6 Tb0 2.760360 1_555
B6 Tb0 2.760360 1_556
B7 B8 1.739352 1_555
B7 Os3 2.342082 1_555
B7 Os3 2.342082 1_556
B7 Tb0 2.744795 1_555
B7 Tb0 2.744795 1_556
B7 Tb1 2.760360 1_556
B7 Tb1 2.760360 1_555
B8 B9 1.715941 1_655
B8 Os2 2.401375 1_656
B8 Os2 2.401375 1_655
B8 Os3 2.415182 1_555
B8 Os3 2.415182 1_556
B8 Tb0 2.652912 1_555
B8 Tb0 2.652912 1_556
B9 Os3 2.401375 1_456
B9 Os3 2.401375 1_455
B9 Os2 2.415182 1_556
B9 Os2 2.415182 1_555
B9 Tb1 2.652912 1_555
B9 Tb1 2.652912 1_556
B10 B11 1.715941 1_545
B10 B5 1.739352 1_545
B10 B14 1.746433 1_555
B10 Os0 2.401375 1_555
B10 Os0 2.401375 1_556
B10 Os1 2.415182 1_545
B10 Os1 2.415182 1_546
B10 Tb2 2.652912 1_555
B10 Tb2 2.652912 1_556
B11 B4 1.739352 1_565
B11 B15 1.746433 1_555
B11 Os1 2.401375 1_556
B11 Os1 2.401375 1_555
B11 Os0 2.415182 1_566
B11 Os0 2.415182 1_565
B11 Tb3 2.652912 1_556
B11 Tb3 2.652912 1_555
B12 B8 1.746433 1_555
B12 B2 1.871563 1_655
B12 Os2 2.332384 1_656
B12 Os2 2.332384 1_655
B12 Tb2 2.720641 1_655
B12 Tb2 2.720641 1_656
B12 Tb0 2.775542 1_555
B12 Tb0 2.775542 1_556
B13 B9 1.746433 1_555
B13 B3 1.871563 1_455
B13 Os3 2.332384 1_456
B13 Os3 2.332384 1_455
B13 Tb3 2.720641 1_456
B13 Tb3 2.720641 1_455
B13 Tb1 2.775542 1_555
B13 Tb1 2.775542 1_556
B14 B2 1.812919 1_555
B14 Os0 2.332384 1_555
B14 Os0 2.332384 1_556
B14 Tb0 2.720641 1_556
B14 Tb0 2.720641 1_555
B14 Tb2 2.775542 1_555
B14 Tb2 2.775542 1_556
B15 B3 1.812919 1_555
B15 Os1 2.332384 1_555
B15 Os1 2.332384 1_556
B15 Tb1 2.720641 1_555
B15 Tb1 2.720641 1_556
B15 Tb3 2.775542 1_555
B15 Tb3 2.775542 1_556
Os0 Os1 2.736107 1_545
Os0 Tb0 2.962913 1_555
Os0 Tb2 2.981594 1_655
Os0 Tb2 3.131913 1_555
Os0 Tb3 3.134804 1_545
Os1 Tb1 2.962913 1_555
Os1 Tb3 2.981594 1_455
Os1 Tb3 3.131913 1_555
Os1 Tb2 3.134804 1_565
Os2 Os3 2.736107 1_455
Os2 Tb2 2.962913 1_555
Os2 Tb0 2.981594 1_555
Os2 Tb0 3.131913 1_455
Os2 Tb1 3.134804 1_555
Os3 Tb3 2.962913 1_555
Os3 Tb1 2.981594 1_555
Os3 Tb1 3.131913 1_655
Os3 Tb0 3.134804 1_555
