# generated using pymatgen
data_Li4MnCo2O7
_symmetry_space_group_name_H-M   'P 1'
_cell_length_a   2.99187800
_cell_length_b   5.11833474
_cell_length_c   17.21049497
_cell_angle_alpha   85.26358563
_cell_angle_beta   88.62385640
_cell_angle_gamma   75.36879208
_symmetry_Int_Tables_number   1
_chemical_formula_structural   Li4MnCo2O7
_chemical_formula_sum   'Li8 Mn2 Co4 O14'
_cell_volume   254.13305742
_cell_formula_units_Z   2
loop_
 _symmetry_equiv_pos_site_id
 _symmetry_equiv_pos_as_xyz
  1  'x, y, z'
loop_
 _atom_site_type_symbol
 _atom_site_label
 _atom_site_symmetry_multiplicity
 _atom_site_fract_x
 _atom_site_fract_y
 _atom_site_fract_z
 _atom_site_occupancy
  Li  Li0  1  0.71556900  0.56635800  0.92598700  1
  Li  Li1  1  0.14426900  0.71668500  0.78395000  1
  Li  Li2  1  0.57078900  0.85705200  0.64167300  1
  Li  Li3  1  0.99427900  0.99788700  0.49910800  1
  Li  Li4  1  0.43156000  0.13191800  0.35698900  1
  Li  Li5  1  0.88618900  0.27366500  0.22276600  1
  Li  Li6  1  0.27087800  0.44373000  0.07059100  1
  Li  Li7  1  0.12385000  0.73045700  0.28770700  1
  Mn  Mn0  1  0.00973100  0.99654700  0.99833400  1
  Mn  Mn1  1  0.57801900  0.85709300  0.14876100  1
  Co  Co0  1  0.42063900  0.14307900  0.85540400  1
  Co  Co1  1  0.85337400  0.28366300  0.71275300  1
  Co  Co2  1  0.28320600  0.43009300  0.56958800  1
  Co  Co3  1  0.70877300  0.57542700  0.42358900  1
  O  O0  1  0.33642900  0.27051400  0.96010700  1
  O  O1  1  0.75553000  0.40711200  0.81786300  1
  O  O2  1  0.22646900  0.55616200  0.67393100  1
  O  O3  1  0.66235500  0.69094800  0.52956100  1
  O  O4  1  0.05518900  0.82977200  0.39738900  1
  O  O5  1  0.49707500  0.00354100  0.24271800  1
  O  O6  1  0.97017800  0.10623600  0.10749100  1
  O  O7  1  0.09143500  0.87664800  0.89306300  1
  O  O8  1  0.47770400  0.01971100  0.75328800  1
  O  O9  1  0.91818300  0.15579200  0.61037000  1
  O  O10  1  0.37885000  0.30492600  0.46824600  1
  O  O11  1  0.78366000  0.43289200  0.33458900  1
  O  O12  1  0.18015600  0.61387800  0.17529300  1
  O  O13  1  0.67566000  0.72821300  0.03888900  1
loop_
_geom_bond_atom_site_label_1
_geom_bond_atom_site_label_2
_geom_bond_distance
_geom_bond_site_symmetry_2
Li0 O1 2.081354 1_555
Li0 O0 2.138396 1_655
Li0 O0 2.147872 1_555
Li0 O13 2.163540 1_556
Li0 O7 2.175839 1_555
Li0 O7 2.197952 1_655
Li1 O8 2.073754 1_565
Li1 O7 2.096679 1_555
Li1 O2 2.110276 1_555
Li1 O1 2.151856 1_555
Li1 O1 2.224786 1_455
Li1 O8 2.239189 1_465
Li2 O9 2.085293 1_565
Li2 O2 2.091424 1_555
Li2 O8 2.140564 1_565
Li2 O3 2.156080 1_555
Li2 O9 2.201544 1_465
Li2 O2 2.216566 1_655
Li3 O4 1.998140 1_655
Li3 O3 2.087146 1_555
Li3 O9 2.124491 1_565
Li3 O10 2.142300 1_565
Li3 O10 2.195896 1_665
Li3 O3 2.250767 1_655
Li4 O11 2.081755 1_555
Li4 O5 2.113705 1_555
Li4 O10 2.161105 1_555
Li4 O11 2.169909 1_455
Li4 O4 2.187093 1_645
Li4 O4 2.192633 1_545
Li5 O5 2.011237 1_655
Li5 O5 2.024924 1_555
Li5 O11 2.136929 1_555
Li5 O6 2.209428 1_555
Li5 O12 2.231040 1_655
Li5 O12 2.480227 1_555
Li6 O13 2.048090 1_455
Li6 O12 2.048280 1_555
Li6 O13 2.147658 1_555
Li6 O0 2.147737 1_554
Li6 O6 2.184749 1_455
Li6 O6 2.412770 1_555
Li7 O4 1.987718 1_555
Li7 O12 2.061964 1_555
Li7 O5 2.090050 1_565
Li7 O11 2.132450 1_455
Li7 O5 2.153264 1_465
Li7 O11 2.285232 1_555
Mn0 O7 1.950747 1_555
Mn0 O0 1.965639 1_565
Mn0 O13 1.968282 1_456
Mn0 O6 1.997111 1_466
Mn0 O13 2.206607 1_556
Mn0 O0 2.222920 1_465
Mn1 O5 1.823457 1_565
Mn1 O12 1.950321 1_555
Mn1 O12 1.953542 1_655
Mn1 O6 2.018288 1_565
Mn1 O13 2.044086 1_555
Mn1 O6 2.044204 1_465
Co0 O8 1.905504 1_555
Co0 O7 1.936938 1_545
Co0 O1 1.938151 1_555
Co0 O0 1.955853 1_555
Co0 O1 2.182326 1_455
Co0 O7 2.200318 1_645
Co1 O9 1.918526 1_555
Co1 O1 1.956344 1_555
Co1 O8 2.036900 1_555
Co1 O2 2.057803 1_655
Co1 O8 2.105483 1_655
Co1 O2 2.119998 1_555
Co2 O10 1.897973 1_555
Co2 O2 1.947163 1_555
Co2 O3 2.029697 1_555
Co2 O9 2.057058 1_455
Co2 O3 2.089063 1_455
Co2 O9 2.150987 1_555
Co3 O11 1.736123 1_555
Co3 O4 1.880029 1_655
Co3 O3 1.954403 1_555
Co3 O10 1.990018 1_555
Co3 O4 2.093131 1_555
Co3 O10 2.241159 1_655
