# generated using pymatgen
data_SrMg
_symmetry_space_group_name_H-M   'P 1'
_cell_length_a   9.43891187
_cell_length_b   9.43891187
_cell_length_c   6.01833300
_cell_angle_alpha   90.00000000
_cell_angle_beta   90.00000000
_cell_angle_gamma   154.44262285
_symmetry_Int_Tables_number   1
_chemical_formula_structural   SrMg
_chemical_formula_sum   'Sr3 Mg3'
_cell_volume   231.32100133
_cell_formula_units_Z   3
loop_
 _symmetry_equiv_pos_site_id
 _symmetry_equiv_pos_as_xyz
  1  'x, y, z'
loop_
 _atom_site_type_symbol
 _atom_site_label
 _atom_site_symmetry_multiplicity
 _atom_site_fract_x
 _atom_site_fract_y
 _atom_site_fract_z
 _atom_site_occupancy
  Sr  Sr0  1  0.99214800  0.00785200  0.00000000  1
  Sr  Sr1  1  0.67583900  0.32416100  0.00000000  1
  Sr  Sr2  1  0.43801100  0.56198900  0.50000000  1
  Mg  Mg0  1  0.33273500  0.66726500  0.00000000  1
  Mg  Mg1  1  0.11695800  0.88304200  0.50000000  1
  Mg  Mg2  1  0.77764300  0.22235700  0.50000000  1
loop_
_geom_bond_atom_site_label_1
_geom_bond_atom_site_label_2
_geom_bond_distance
_geom_bond_site_symmetry_2
Mg0 Sr1 3.564003 1_565
Mg0 Sr1 3.564003 1_455
Mg0 Sr2 3.579321 1_555
Mg0 Sr2 3.579321 1_554
Mg0 Sr0 3.601661 1_565
Mg0 Sr0 3.601661 1_455
Mg1 Sr0 3.786145 1_465
Mg1 Sr0 3.786145 1_466
Mg1 Sr1 3.819540 1_456
Mg1 Sr1 3.819540 1_455
Mg1 Sr1 3.819540 1_566
Mg1 Sr1 3.819540 1_565
Mg1 Sr2 3.900279 1_455
Mg1 Sr2 3.900279 1_565
Mg2 Sr1 3.545116 1_556
Mg2 Sr1 3.545116 1_555
Mg2 Sr2 3.616002 1_655
Mg2 Sr2 3.616002 1_545
