# generated using pymatgen
data_NdDy
_symmetry_space_group_name_H-M   'P 1'
_cell_length_a   35.66937652
_cell_length_b   35.66937652
_cell_length_c   35.66937623
_cell_angle_alpha   11.69367987
_cell_angle_beta   11.69367987
_cell_angle_gamma   11.69367749
_symmetry_Int_Tables_number   1
_chemical_formula_structural   NdDy
_chemical_formula_sum   'Nd24 Dy24'
_cell_volume   1620.09572996
_cell_formula_units_Z   24
loop_
 _symmetry_equiv_pos_site_id
 _symmetry_equiv_pos_as_xyz
  1  'x, y, z'
loop_
 _atom_site_type_symbol
 _atom_site_label
 _atom_site_symmetry_multiplicity
 _atom_site_fract_x
 _atom_site_fract_y
 _atom_site_fract_z
 _atom_site_occupancy
  Nd  Nd0_0  1  0.05608550  0.05608550  0.05608550  1
  Nd  Nd0_1  1  0.05608550  0.05608550  0.55608550  1
  Nd  Nd0_2  1  0.05608550  0.55608550  0.05608550  1
  Nd  Nd0_3  1  0.05608550  0.55608550  0.55608550  1
  Nd  Nd0_4  1  0.55608550  0.05608550  0.05608550  1
  Nd  Nd0_5  1  0.55608550  0.05608550  0.55608550  1
  Nd  Nd0_6  1  0.55608550  0.55608550  0.05608550  1
  Nd  Nd0_7  1  0.55608550  0.55608550  0.55608550  1
  Nd  Nd1_0  1  0.44446050  0.44446050  0.44446050  1
  Nd  Nd1_1  1  0.44446050  0.44446050  0.94446050  1
  Nd  Nd1_2  1  0.44446050  0.94446050  0.44446050  1
  Nd  Nd1_3  1  0.44446050  0.94446050  0.94446050  1
  Nd  Nd1_4  1  0.94446050  0.44446050  0.44446050  1
  Nd  Nd1_5  1  0.94446050  0.44446050  0.94446050  1
  Nd  Nd1_6  1  0.94446050  0.94446050  0.44446050  1
  Nd  Nd1_7  1  0.94446050  0.94446050  0.94446050  1
  Nd  Nd2_0  1  0.19390350  0.19390350  0.19390350  1
  Nd  Nd2_1  1  0.19390350  0.19390350  0.69390350  1
  Nd  Nd2_2  1  0.19390350  0.69390350  0.19390350  1
  Nd  Nd2_3  1  0.19390350  0.69390350  0.69390350  1
  Nd  Nd2_4  1  0.69390350  0.19390350  0.19390350  1
  Nd  Nd2_5  1  0.69390350  0.19390350  0.69390350  1
  Nd  Nd2_6  1  0.69390350  0.69390350  0.19390350  1
  Nd  Nd2_7  1  0.69390350  0.69390350  0.69390350  1
  Dy  Dy0_0  1  0.49947150  0.49947150  0.49947150  1
  Dy  Dy0_1  1  0.49947150  0.49947150  0.99947150  1
  Dy  Dy0_2  1  0.49947150  0.99947150  0.49947150  1
  Dy  Dy0_3  1  0.49947150  0.99947150  0.99947150  1
  Dy  Dy0_4  1  0.99947150  0.49947150  0.49947150  1
  Dy  Dy0_5  1  0.99947150  0.49947150  0.99947150  1
  Dy  Dy0_6  1  0.99947150  0.99947150  0.49947150  1
  Dy  Dy0_7  1  0.99947150  0.99947150  0.99947150  1
  Dy  Dy1_0  1  0.25009150  0.25009150  0.25009150  1
  Dy  Dy1_1  1  0.25009150  0.25009150  0.75009150  1
  Dy  Dy1_2  1  0.25009150  0.75009150  0.25009150  1
  Dy  Dy1_3  1  0.25009150  0.75009150  0.75009150  1
  Dy  Dy1_4  1  0.75009150  0.25009150  0.25009150  1
  Dy  Dy1_5  1  0.75009150  0.25009150  0.75009150  1
  Dy  Dy1_6  1  0.75009150  0.75009150  0.25009150  1
  Dy  Dy1_7  1  0.75009150  0.75009150  0.75009150  1
  Dy  Dy2_0  1  0.30598700  0.30598700  0.30598700  1
  Dy  Dy2_1  1  0.30598700  0.30598700  0.80598700  1
  Dy  Dy2_2  1  0.30598700  0.80598700  0.30598700  1
  Dy  Dy2_3  1  0.30598700  0.80598700  0.80598700  1
  Dy  Dy2_4  1  0.80598700  0.30598700  0.30598700  1
  Dy  Dy2_5  1  0.80598700  0.30598700  0.80598700  1
  Dy  Dy2_6  1  0.80598700  0.80598700  0.30598700  1
  Dy  Dy2_7  1  0.80598700  0.80598700  0.80598700  1
loop_
_geom_bond_atom_site_label_1
_geom_bond_atom_site_label_2
_geom_bond_distance
_geom_bond_site_symmetry_2
Nd0_0 Nd0_6 3.633624 1_545
Nd0_0 Nd0_6 3.633624 1_455
Nd0_0 Nd0_3 3.633625 1_554
Nd0_0 Nd0_5 3.633625 1_554
Nd0_0 Nd0_3 3.633625 1_545
Nd0_0 Nd0_5 3.633625 1_455
Nd0_0 Nd2_2 3.714706 1_545
Nd0_0 Nd2_4 3.714706 1_455
Nd0_0 Nd2_1 3.714706 1_554
Nd0_1 Nd0_7 3.633624 1_545
Nd0_1 Nd0_7 3.633624 1_455
Nd0_1 Nd0_2 3.633625 1_546
Nd0_1 Nd0_4 3.633625 1_456
Nd0_1 Nd0_4 3.633625 1_555
Nd0_1 Nd0_2 3.633625 1_555
Nd0_1 Nd2_3 3.714706 1_545
Nd0_1 Nd2_5 3.714706 1_455
Nd0_1 Nd2_0 3.714706 1_555
Nd0_2 Nd0_4 3.633624 1_465
Nd0_2 Nd0_4 3.633624 1_555
Nd0_2 Nd0_7 3.633625 1_554
Nd0_2 Nd0_7 3.633625 1_455
Nd0_2 Nd2_0 3.714706 1_555
Nd0_2 Nd2_6 3.714706 1_455
Nd0_2 Nd2_3 3.714706 1_554
Nd0_3 Nd0_5 3.633624 1_465
Nd0_3 Nd0_5 3.633624 1_555
Nd0_3 Nd0_6 3.633625 1_456
Nd0_3 Nd0_6 3.633625 1_555
Nd0_3 Nd2_7 3.714706 1_455
Nd0_3 Nd2_1 3.714706 1_555
Nd0_3 Nd2_2 3.714706 1_555
Nd0_4 Nd0_7 3.633625 1_554
Nd0_4 Nd0_7 3.633625 1_545
Nd0_4 Nd2_6 3.714706 1_545
Nd0_4 Nd2_0 3.714706 1_555
Nd0_4 Nd2_5 3.714706 1_554
Nd0_5 Nd0_6 3.633625 1_546
Nd0_5 Nd0_6 3.633625 1_555
Nd0_5 Nd2_7 3.714706 1_545
Nd0_5 Nd2_1 3.714706 1_555
Nd0_5 Nd2_4 3.714706 1_555
Nd0_6 Nd2_2 3.714706 1_555
Nd0_6 Nd2_4 3.714706 1_555
Nd0_6 Nd2_7 3.714706 1_554
Nd0_7 Nd2_3 3.714706 1_555
Nd0_7 Nd2_5 3.714706 1_555
Nd0_7 Nd2_6 3.714706 1_555
Nd1_0 Nd1_6 3.633624 1_455
Nd1_0 Nd1_6 3.633624 1_545
Nd1_0 Nd1_5 3.633625 1_455
Nd1_0 Nd1_3 3.633625 1_545
Nd1_0 Nd1_3 3.633625 1_554
Nd1_0 Nd1_5 3.633625 1_554
Nd1_1 Nd1_7 3.633624 1_545
Nd1_1 Nd1_7 3.633624 1_455
Nd1_1 Nd1_2 3.633625 1_555
Nd1_1 Nd1_4 3.633625 1_555
Nd1_1 Nd1_2 3.633625 1_546
Nd1_1 Nd1_4 3.633625 1_456
Nd1_2 Nd1_4 3.633624 1_465
Nd1_2 Nd1_4 3.633624 1_555
Nd1_2 Nd1_7 3.633625 1_554
Nd1_2 Nd1_7 3.633625 1_455
Nd1_3 Nd1_5 3.633624 1_465
Nd1_3 Nd1_5 3.633624 1_555
Nd1_3 Nd1_6 3.633625 1_555
Nd1_3 Nd1_6 3.633625 1_456
Nd1_4 Nd1_7 3.633625 1_554
Nd1_4 Nd1_7 3.633625 1_545
Nd1_5 Nd1_6 3.633625 1_555
Nd1_5 Nd1_6 3.633625 1_546
Nd2_0 Nd2_6 3.633624 1_455
Nd2_0 Nd2_6 3.633624 1_545
Nd2_0 Nd2_3 3.633625 1_554
Nd2_0 Nd2_5 3.633625 1_554
Nd2_0 Nd2_5 3.633625 1_455
Nd2_0 Nd2_3 3.633625 1_545
Nd2_1 Nd2_7 3.633624 1_455
Nd2_1 Nd2_7 3.633624 1_545
Nd2_1 Nd2_2 3.633625 1_546
Nd2_1 Nd2_4 3.633625 1_555
Nd2_1 Nd2_4 3.633625 1_456
Nd2_1 Nd2_2 3.633625 1_555
Nd2_2 Nd2_4 3.633624 1_555
Nd2_2 Nd2_4 3.633624 1_465
Nd2_2 Nd2_7 3.633625 1_455
Nd2_2 Nd2_7 3.633625 1_554
Nd2_3 Nd2_5 3.633624 1_465
Nd2_3 Nd2_5 3.633624 1_555
Nd2_3 Nd2_6 3.633625 1_555
Nd2_3 Nd2_6 3.633625 1_456
Nd2_4 Nd2_7 3.633625 1_554
Nd2_4 Nd2_7 3.633625 1_545
Nd2_5 Nd2_6 3.633625 1_546
Nd2_5 Nd2_6 3.633625 1_555
Dy0_0 Dy2_4 3.538708 1_555
Dy0_0 Dy2_2 3.538708 1_555
Dy0_0 Dy2_1 3.538708 1_555
Dy0_0 Nd2_3 3.620285 1_555
Dy0_0 Nd2_5 3.620285 1_555
Dy0_0 Nd2_6 3.620286 1_555
Dy0_0 Dy0_6 3.633624 1_545
Dy0_0 Dy0_6 3.633624 1_455
Dy0_0 Dy0_5 3.633625 1_554
Dy0_0 Dy0_3 3.633625 1_554
Dy0_0 Dy0_3 3.633625 1_545
Dy0_0 Dy0_5 3.633625 1_455
Dy0_1 Dy2_5 3.538708 1_555
Dy0_1 Dy2_3 3.538708 1_555
Dy0_1 Dy2_0 3.538708 1_556
Dy0_1 Nd2_4 3.620285 1_556
Dy0_1 Nd2_2 3.620285 1_556
Dy0_1 Nd2_7 3.620286 1_555
Dy0_1 Dy0_7 3.633624 1_455
Dy0_1 Dy0_7 3.633624 1_545
Dy0_1 Dy0_4 3.633625 1_456
Dy0_1 Dy0_2 3.633625 1_546
Dy0_1 Dy0_4 3.633625 1_555
Dy0_1 Dy0_2 3.633625 1_555
Dy0_2 Dy2_6 3.538708 1_555
Dy0_2 Dy2_0 3.538708 1_565
Dy0_2 Dy2_3 3.538708 1_555
Dy0_2 Nd2_1 3.620285 1_565
Dy0_2 Nd2_7 3.620285 1_555
Dy0_2 Nd2_4 3.620286 1_565
Dy0_2 Dy0_4 3.633624 1_465
Dy0_2 Dy0_4 3.633624 1_555
Dy0_2 Dy0_7 3.633625 1_554
Dy0_2 Dy0_7 3.633625 1_455
Dy0_3 Dy2_7 3.538708 1_555
Dy0_3 Dy2_1 3.538708 1_565
Dy0_3 Dy2_2 3.538708 1_556
Dy0_3 Nd2_6 3.620285 1_556
Dy0_3 Nd2_0 3.620285 1_566
Dy0_3 Nd2_5 3.620286 1_565
Dy0_3 Dy0_5 3.633624 1_465
Dy0_3 Dy0_5 3.633624 1_555
Dy0_3 Dy0_6 3.633625 1_456
Dy0_3 Dy0_6 3.633625 1_555
Dy0_4 Dy2_6 3.538708 1_555
Dy0_4 Dy2_0 3.538708 1_655
Dy0_4 Dy2_5 3.538708 1_555
Dy0_4 Nd2_7 3.620285 1_555
Dy0_4 Nd2_1 3.620285 1_655
Dy0_4 Nd2_2 3.620286 1_655
Dy0_4 Dy0_7 3.633625 1_554
Dy0_4 Dy0_7 3.633625 1_545
Dy0_5 Dy2_7 3.538708 1_555
Dy0_5 Dy2_1 3.538708 1_655
Dy0_5 Dy2_4 3.538708 1_556
Dy0_5 Nd2_0 3.620285 1_656
Dy0_5 Nd2_6 3.620285 1_556
Dy0_5 Nd2_3 3.620286 1_655
Dy0_5 Dy0_6 3.633625 1_546
Dy0_5 Dy0_6 3.633625 1_555
Dy0_6 Dy2_4 3.538708 1_565
Dy0_6 Dy2_2 3.538708 1_655
Dy0_6 Dy2_7 3.538708 1_555
Dy0_6 Nd2_5 3.620285 1_565
Dy0_6 Nd2_3 3.620285 1_655
Dy0_6 Nd2_0 3.620286 1_665
Dy0_7 Dy2_5 3.538708 1_565
Dy0_7 Dy2_3 3.538708 1_655
Dy0_7 Dy2_6 3.538708 1_556
Dy0_7 Nd2_2 3.620285 1_656
Dy0_7 Nd2_4 3.620285 1_566
Dy0_7 Nd2_1 3.620286 1_665
Dy1_0 Nd0_4 3.583487 1_555
Dy1_0 Nd0_2 3.583487 1_555
Dy1_0 Nd0_1 3.583488 1_555
Dy1_0 Nd1_2 3.614831 1_545
Dy1_0 Nd1_4 3.614831 1_455
Dy1_0 Nd1_1 3.614832 1_554
Dy1_0 Dy1_6 3.633624 1_545
Dy1_0 Dy1_6 3.633624 1_455
Dy1_0 Dy1_5 3.633625 1_455
Dy1_0 Dy1_3 3.633625 1_545
Dy1_0 Dy1_3 3.633625 1_554
Dy1_0 Dy1_5 3.633625 1_554
Dy1_1 Nd0_3 3.583487 1_555
Dy1_1 Nd0_5 3.583487 1_555
Dy1_1 Nd0_0 3.583488 1_556
Dy1_1 Nd1_5 3.614831 1_455
Dy1_1 Nd1_3 3.614831 1_545
Dy1_1 Nd1_0 3.614832 1_555
Dy1_1 Dy1_7 3.633624 1_545
Dy1_1 Dy1_7 3.633624 1_455
Dy1_1 Dy1_4 3.633625 1_456
Dy1_1 Dy1_2 3.633625 1_546
Dy1_1 Dy1_2 3.633625 1_555
Dy1_1 Dy1_4 3.633625 1_555
Dy1_2 Nd0_6 3.583487 1_555
Dy1_2 Nd0_0 3.583487 1_565
Dy1_2 Nd0_3 3.583488 1_555
Dy1_2 Nd1_0 3.614831 1_555
Dy1_2 Nd1_6 3.614831 1_455
Dy1_2 Nd1_3 3.614832 1_554
Dy1_2 Dy1_4 3.633624 1_465
Dy1_2 Dy1_4 3.633624 1_555
Dy1_2 Dy1_7 3.633625 1_554
Dy1_2 Dy1_7 3.633625 1_455
Dy1_3 Nd0_1 3.583487 1_565
Dy1_3 Nd0_7 3.583487 1_555
Dy1_3 Nd0_2 3.583488 1_556
Dy1_3 Nd1_7 3.614831 1_455
Dy1_3 Nd1_1 3.614831 1_555
Dy1_3 Nd1_2 3.614832 1_555
Dy1_3 Dy1_5 3.633624 1_465
Dy1_3 Dy1_5 3.633624 1_555
Dy1_3 Dy1_6 3.633625 1_456
Dy1_3 Dy1_6 3.633625 1_555
Dy1_4 Nd0_6 3.583487 1_555
Dy1_4 Nd0_0 3.583487 1_655
Dy1_4 Nd0_5 3.583488 1_555
Dy1_4 Nd1_0 3.614831 1_555
Dy1_4 Nd1_6 3.614831 1_545
Dy1_4 Nd1_5 3.614832 1_554
Dy1_4 Dy1_7 3.633625 1_554
Dy1_4 Dy1_7 3.633625 1_545
Dy1_5 Nd0_1 3.583487 1_655
Dy1_5 Nd0_7 3.583487 1_555
Dy1_5 Nd0_4 3.583488 1_556
Dy1_5 Nd1_7 3.614831 1_545
Dy1_5 Nd1_1 3.614831 1_555
Dy1_5 Nd1_4 3.614832 1_555
Dy1_5 Dy1_6 3.633625 1_546
Dy1_5 Dy1_6 3.633625 1_555
Dy1_6 Nd0_2 3.583487 1_655
Dy1_6 Nd0_4 3.583487 1_565
Dy1_6 Nd0_7 3.583488 1_555
Dy1_6 Nd1_2 3.614831 1_555
Dy1_6 Nd1_4 3.614831 1_555
Dy1_6 Nd1_7 3.614832 1_554
Dy1_7 Nd0_3 3.583487 1_655
Dy1_7 Nd0_5 3.583487 1_565
Dy1_7 Nd0_6 3.583488 1_556
Dy1_7 Nd1_5 3.614831 1_555
Dy1_7 Nd1_3 3.614831 1_555
Dy1_7 Nd1_6 3.614832 1_555
Dy2_0 Dy2_6 3.633624 1_545
Dy2_0 Dy2_6 3.633624 1_455
Dy2_0 Dy2_3 3.633625 1_554
Dy2_0 Dy2_5 3.633625 1_455
Dy2_0 Dy2_3 3.633625 1_545
Dy2_0 Dy2_5 3.633625 1_554
Dy2_0 Nd1_4 3.657433 1_455
Dy2_0 Nd1_2 3.657433 1_545
Dy2_0 Nd1_1 3.657433 1_554
Dy2_1 Dy2_7 3.633624 1_455
Dy2_1 Dy2_7 3.633624 1_545
Dy2_1 Dy2_4 3.633625 1_456
Dy2_1 Dy2_2 3.633625 1_546
Dy2_1 Dy2_4 3.633625 1_555
Dy2_1 Dy2_2 3.633625 1_555
Dy2_1 Nd1_3 3.657433 1_545
Dy2_1 Nd1_5 3.657433 1_455
Dy2_1 Nd1_0 3.657433 1_555
Dy2_2 Dy2_4 3.633624 1_465
Dy2_2 Dy2_4 3.633624 1_555
Dy2_2 Dy2_7 3.633625 1_554
Dy2_2 Dy2_7 3.633625 1_455
Dy2_2 Nd1_6 3.657433 1_455
Dy2_2 Nd1_0 3.657433 1_555
Dy2_2 Nd1_3 3.657433 1_554
Dy2_3 Dy2_5 3.633624 1_555
Dy2_3 Dy2_5 3.633624 1_465
Dy2_3 Dy2_6 3.633625 1_456
Dy2_3 Dy2_6 3.633625 1_555
Dy2_3 Nd1_1 3.657433 1_555
Dy2_3 Nd1_7 3.657433 1_455
Dy2_3 Nd1_2 3.657433 1_555
Dy2_4 Dy2_7 3.633625 1_554
Dy2_4 Dy2_7 3.633625 1_545
Dy2_4 Nd1_6 3.657433 1_545
Dy2_4 Nd1_0 3.657433 1_555
Dy2_4 Nd1_5 3.657433 1_554
Dy2_5 Dy2_6 3.633625 1_546
Dy2_5 Dy2_6 3.633625 1_555
Dy2_5 Nd1_1 3.657433 1_555
Dy2_5 Nd1_7 3.657433 1_545
Dy2_5 Nd1_4 3.657433 1_555
Dy2_6 Nd1_4 3.657433 1_555
Dy2_6 Nd1_2 3.657433 1_555
Dy2_6 Nd1_7 3.657433 1_554
Dy2_7 Nd1_3 3.657433 1_555
Dy2_7 Nd1_5 3.657433 1_555
Dy2_7 Nd1_6 3.657433 1_555
