# generated using pymatgen
data_Li4Co3O7
_symmetry_space_group_name_H-M   'P 1'
_cell_length_a   2.94542200
_cell_length_b   5.90500410
_cell_length_c   14.54984004
_cell_angle_alpha   96.08656753
_cell_angle_beta   95.67181772
_cell_angle_gamma   91.43738602
_symmetry_Int_Tables_number   1
_chemical_formula_structural   Li4Co3O7
_chemical_formula_sum   'Li8 Co6 O14'
_cell_volume   250.24116279
_cell_formula_units_Z   2
loop_
 _symmetry_equiv_pos_site_id
 _symmetry_equiv_pos_as_xyz
  1  'x, y, z'
loop_
 _atom_site_type_symbol
 _atom_site_label
 _atom_site_symmetry_multiplicity
 _atom_site_fract_x
 _atom_site_fract_y
 _atom_site_fract_z
 _atom_site_occupancy
  Li  Li0  1  0.92952500  0.20974500  0.86160000  1
  Li  Li1  1  0.50000000  0.50000000  0.00000000  1
  Li  Li2  1  0.07047500  0.79025500  0.13840000  1
  Li  Li3  1  0.35620500  0.92785100  0.71578600  1
  Li  Li4  1  0.78562200  0.64229100  0.57065300  1
  Li  Li5  1  0.21437800  0.35770900  0.42934700  1
  Li  Li6  1  0.64379500  0.07214900  0.28421400  1
  Li  Li7  1  0.50000000  0.00000000  0.00000000  1
  Co  Co0  1  0.93421500  0.72457900  0.86545900  1
  Co  Co1  1  0.06578500  0.27542100  0.13454100  1
  Co  Co2  1  0.64297200  0.57016400  0.28280900  1
  Co  Co3  1  0.21371200  0.85492400  0.42824900  1
  Co  Co4  1  0.78628800  0.14507600  0.57175100  1
  Co  Co5  1  0.35702800  0.42983600  0.71719100  1
  O  O0  1  0.46817400  0.48056700  0.85539400  1
  O  O1  1  0.99467800  0.74516400  0.98643000  1
  O  O2  1  0.60532800  0.05539300  0.14353600  1
  O  O3  1  0.85383400  0.19635200  0.71164700  1
  O  O4  1  0.27986900  0.90702500  0.56855200  1
  O  O5  1  0.70658400  0.61878600  0.42487800  1
  O  O6  1  0.13049200  0.33544100  0.27510300  1
  O  O7  1  0.39467200  0.94460700  0.85646400  1
  O  O8  1  0.00532200  0.25483600  0.01357000  1
  O  O9  1  0.53182600  0.51943300  0.14460600  1
  O  O10  1  0.86950800  0.66455900  0.72489700  1
  O  O11  1  0.29341600  0.38121400  0.57512200  1
  O  O12  1  0.72013100  0.09297500  0.43144800  1
  O  O13  1  0.14616600  0.80364800  0.28835300  1
loop_
_geom_bond_atom_site_label_1
_geom_bond_atom_site_label_2
_geom_bond_distance
_geom_bond_site_symmetry_2
Li0 O7 2.106396 1_645
Li0 O0 2.127801 1_555
Li0 O3 2.163921 1_555
Li0 O7 2.183296 1_545
Li0 O8 2.187343 1_656
Li0 O0 2.239285 1_655
Li1 O8 2.066255 1_555
Li1 O1 2.066255 1_554
Li1 O0 2.087588 1_554
Li1 O9 2.087588 1_555
Li1 O8 2.112043 1_655
Li1 O1 2.112043 1_454
Li2 O2 2.106396 1_465
Li2 O9 2.127801 1_555
Li2 O13 2.163921 1_555
Li2 O2 2.183296 1_565
Li2 O1 2.187343 1_454
Li2 O9 2.239285 1_455
Li3 O7 2.030478 1_555
Li3 O10 2.111693 1_455
Li3 O4 2.121879 1_555
Li3 O3 2.141705 1_565
Li3 O3 2.197104 1_465
Li3 O10 2.200598 1_555
Li4 O5 2.100111 1_555
Li4 O11 2.100118 1_555
Li4 O4 2.113934 1_655
Li4 O11 2.176162 1_655
Li4 O4 2.186719 1_555
Li4 O10 2.222853 1_555
Li5 O11 2.100111 1_555
Li5 O5 2.100118 1_555
Li5 O12 2.113934 1_455
Li5 O5 2.176162 1_455
Li5 O12 2.186719 1_555
Li5 O6 2.222853 1_555
Li6 O2 2.030478 1_555
Li6 O6 2.111693 1_655
Li6 O12 2.121879 1_555
Li6 O13 2.141705 1_545
Li6 O13 2.197104 1_645
Li6 O6 2.200598 1_555
Li7 O1 2.070088 1_444
Li7 O8 2.070088 1_655
Li7 O2 2.070445 1_555
Li7 O7 2.070445 1_544
Li7 O1 2.128435 1_544
Li7 O8 2.128435 1_555
Co0 O1 1.742429 1_555
Co0 O7 1.878124 1_655
Co0 O0 1.948891 1_555
Co0 O10 2.027424 1_555
Co0 O7 2.080687 1_555
Co0 O0 2.164619 1_655
Co1 O8 1.742429 1_555
Co1 O2 1.878124 1_455
Co1 O9 1.948891 1_555
Co1 O6 2.027424 1_555
Co1 O2 2.080687 1_555
Co1 O9 2.164619 1_455
Co2 O13 1.988550 1_655
Co2 O9 1.994386 1_555
Co2 O6 2.010176 1_555
Co2 O6 2.023452 1_655
Co2 O13 2.037058 1_555
Co2 O5 2.045790 1_555
Co3 O5 2.011076 1_455
Co3 O13 2.015096 1_555
Co3 O12 2.017491 1_565
Co3 O4 2.021154 1_555
Co3 O5 2.038468 1_555
Co3 O12 2.047855 1_465
Co4 O11 2.011076 1_655
Co4 O3 2.015096 1_555
Co4 O4 2.017491 1_545
Co4 O12 2.021154 1_555
Co4 O11 2.038468 1_555
Co4 O4 2.047855 1_645
Co5 O3 1.988550 1_455
Co5 O0 1.994386 1_555
Co5 O10 2.010176 1_555
Co5 O10 2.023452 1_455
Co5 O3 2.037058 1_555
Co5 O11 2.045790 1_555
