# generated using pymatgen
data_Rb2P
_symmetry_space_group_name_H-M   'P 1'
_cell_length_a   5.49043000
_cell_length_b   8.42026000
_cell_length_c   10.61028400
_cell_angle_alpha   90.00000000
_cell_angle_beta   90.00000000
_cell_angle_gamma   90.00000000
_symmetry_Int_Tables_number   1
_chemical_formula_structural   Rb2P
_chemical_formula_sum   'Rb8 P4'
_cell_volume   490.52242803
_cell_formula_units_Z   4
loop_
 _symmetry_equiv_pos_site_id
 _symmetry_equiv_pos_as_xyz
  1  'x, y, z'
loop_
 _atom_site_type_symbol
 _atom_site_label
 _atom_site_symmetry_multiplicity
 _atom_site_fract_x
 _atom_site_fract_y
 _atom_site_fract_z
 _atom_site_occupancy
  Rb  Rb0  1  0.25000000  0.83956900  0.92756700  1
  Rb  Rb1  1  0.25000000  0.33956900  0.57243300  1
  Rb  Rb2  1  0.75000000  0.16043100  0.07243300  1
  Rb  Rb3  1  0.75000000  0.66043100  0.42756700  1
  Rb  Rb4  1  0.25000000  0.98125700  0.32620400  1
  Rb  Rb5  1  0.25000000  0.48125700  0.17379600  1
  Rb  Rb6  1  0.75000000  0.01874300  0.67379600  1
  Rb  Rb7  1  0.75000000  0.51874300  0.82620400  1
  P  P0  1  0.25000000  0.24821300  0.88485200  1
  P  P1  1  0.25000000  0.74821300  0.61514800  1
  P  P2  1  0.75000000  0.75178700  0.11514800  1
  P  P3  1  0.75000000  0.25178700  0.38485200  1
loop_
_geom_bond_atom_site_label_1
_geom_bond_atom_site_label_2
_geom_bond_distance
_geom_bond_site_symmetry_2
P0 Rb1 3.402939 1_555
P0 Rb2 3.470416 1_556
P0 Rb2 3.470416 1_456
P0 Rb0 3.470608 1_545
P0 Rb7 3.621106 1_455
P0 Rb7 3.621106 1_555
P0 Rb5 3.639997 1_556
P1 Rb0 3.402939 1_555
P1 Rb3 3.470416 1_555
P1 Rb3 3.470416 1_455
P1 Rb1 3.470608 1_555
P1 Rb6 3.621106 1_565
P1 Rb6 3.621106 1_465
P1 Rb4 3.639997 1_555
P2 Rb3 3.402939 1_555
P2 Rb0 3.470416 1_654
P2 Rb0 3.470416 1_554
P2 Rb2 3.470608 1_565
P2 Rb5 3.621106 1_555
P2 Rb5 3.621106 1_655
P2 Rb7 3.639997 1_554
P3 Rb2 3.402939 1_555
P3 Rb1 3.470416 1_655
P3 Rb1 3.470416 1_555
P3 Rb3 3.470608 1_555
P3 Rb4 3.621106 1_645
P3 Rb4 3.621106 1_545
P3 Rb6 3.639997 1_555
