# generated using pymatgen
data_Mn2CdO4
_symmetry_space_group_name_H-M   'P 1'
_cell_length_a   5.84471617
_cell_length_b   5.84471726
_cell_length_c   6.42464390
_cell_angle_alpha   117.05724184
_cell_angle_beta   117.05722695
_cell_angle_gamma   90.00078819
_symmetry_Int_Tables_number   1
_chemical_formula_structural   Mn2CdO4
_chemical_formula_sum   'Mn4 Cd2 O8'
_cell_volume   168.02923742
_cell_formula_units_Z   2
loop_
 _symmetry_equiv_pos_site_id
 _symmetry_equiv_pos_as_xyz
  1  'x, y, z'
loop_
 _atom_site_type_symbol
 _atom_site_label
 _atom_site_symmetry_multiplicity
 _atom_site_fract_x
 _atom_site_fract_y
 _atom_site_fract_z
 _atom_site_occupancy
  Mn  Mn0  1  -0.00000000  0.00000000  0.00000000  1
  Mn  Mn1  1  0.50000000  0.00000000  0.50000000  1
  Mn  Mn2  1  0.00000100  0.00000000  0.50000100  1
  Mn  Mn3  1  0.00000100  0.49999900  0.00000000  1
  Cd  Cd0  1  0.62498498  0.37501383  0.24999984  1
  Cd  Cd1  1  0.37501402  0.62498517  0.74999916  1
  O  O0  1  0.76618642  0.80021061  0.53236996  1
  O  O1  1  0.76784057  0.23381183  0.96764209  1
  O  O2  1  0.19978890  0.23381348  0.96762918  1
  O  O3  1  0.23381358  0.19979039  0.46762904  1
  O  O4  1  0.23381185  0.76783991  0.46764115  1
  O  O5  1  0.23215843  0.76618717  0.03235791  1
  O  O6  1  0.76618715  0.23215909  0.53235885  1
  O  O7  1  0.80021010  0.76618552  0.03237082  1
loop_
_geom_bond_atom_site_label_1
_geom_bond_atom_site_label_2
_geom_bond_distance
_geom_bond_site_symmetry_2
Mn0 O2 1.937466 1_554
Mn0 O1 1.937469 1_454
Mn0 O5 1.937470 1_545
Mn0 O7 1.937474 1_445
Mn0 O3 2.308753 1_555
Mn0 O0 2.308758 1_444
Mn1 O0 1.937497 1_545
Mn1 O3 1.937501 1_555
Mn1 O6 1.937509 1_555
Mn1 O4 1.937517 1_545
Mn1 O1 2.308804 1_555
Mn1 O5 2.308805 1_545
Mn2 O0 1.937464 1_445
Mn2 O4 1.937469 1_545
Mn2 O3 1.937472 1_555
Mn2 O6 1.937477 1_455
Mn2 O2 2.308749 1_555
Mn2 O7 2.308758 1_445
Mn3 O2 1.937487 1_554
Mn3 O7 1.937503 1_455
Mn3 O5 1.937510 1_555
Mn3 O1 1.937517 1_454
Mn3 O6 2.308799 1_454
Mn3 O4 2.308800 1_555
Cd0 O2 2.164361 1_554
Cd0 O0 2.164364 1_555
Cd0 O1 2.164481 1_554
Cd0 O6 2.164484 1_555
Cd1 O3 2.164355 1_555
Cd1 O7 2.164362 1_556
Cd1 O4 2.164479 1_555
Cd1 O5 2.164486 1_556
