# generated using pymatgen
data_Na3CaFe4(SiO3)8
_symmetry_space_group_name_H-M   'P 1'
_cell_length_a   10.70870639
_cell_length_b   9.40021806
_cell_length_c   19.95528409
_cell_angle_alpha   78.93514090
_cell_angle_beta   77.52759216
_cell_angle_gamma   43.74713434
_symmetry_Int_Tables_number   1
_chemical_formula_structural   Na3CaFe4(SiO3)8
_chemical_formula_sum   'Na9 Ca3 Fe12 Si24 O72'
_cell_volume   1354.32662181
_cell_formula_units_Z   3
loop_
 _symmetry_equiv_pos_site_id
 _symmetry_equiv_pos_as_xyz
  1  'x, y, z'
loop_
 _atom_site_type_symbol
 _atom_site_label
 _atom_site_symmetry_multiplicity
 _atom_site_fract_x
 _atom_site_fract_y
 _atom_site_fract_z
 _atom_site_occupancy
  Na  Na0  1  0.22147255  0.30198912  0.56685715  1
  Na  Na1  1  0.22707417  0.30136130  0.89894010  1
  Na  Na2  1  0.27640557  0.70060817  0.10077249  1
  Na  Na3  1  0.27421864  0.69845507  0.43310460  1
  Na  Na4  1  0.27526348  0.69703619  0.76692529  1
  Na  Na5  1  0.72698812  0.30144883  0.23315014  1
  Na  Na6  1  0.77447981  0.69746767  0.10001546  1
  Na  Na7  1  0.77741551  0.69850744  0.43399751  1
  Na  Na8  1  0.77573799  0.70058278  0.76709681  1
  Ca  Ca0  1  0.21891622  0.30098062  0.23304297  1
  Ca  Ca1  1  0.72942312  0.30097827  0.56537712  1
  Ca  Ca2  1  0.71903893  0.30186845  0.90011592  1
  Fe  Fe0  1  0.07431593  0.09412682  0.30039696  1
  Fe  Fe1  1  0.07992143  0.09824655  0.63494069  1
  Fe  Fe2  1  0.07877766  0.09985155  0.96817808  1
  Fe  Fe3  1  0.57802933  0.09967925  0.30118540  1
  Fe  Fe4  1  0.57328631  0.09677763  0.63362699  1
  Fe  Fe5  1  0.57350989  0.09472485  0.96633168  1
  Fe  Fe6  1  0.42732392  0.90086605  0.03370415  1
  Fe  Fe7  1  0.42471925  0.89683796  0.36698475  1
  Fe  Fe8  1  0.42283869  0.89961910  0.69965216  1
  Fe  Fe9  1  0.92453724  0.89785020  0.03383314  1
  Fe  Fe10  1  0.92743363  0.90115956  0.36666193  1
  Fe  Fe11  1  0.92683352  0.89862093  0.70087093  1
  Si  Si0  1  0.03404528  0.19790419  0.12658406  1
  Si  Si1  1  0.03568831  0.19766744  0.45798280  1
  Si  Si2  1  0.03617507  0.19816389  0.79334329  1
  Si  Si3  1  0.19215797  0.37837163  0.06553423  1
  Si  Si4  1  0.19231462  0.38151766  0.40001059  1
  Si  Si5  1  0.19258950  0.38115157  0.73280764  1
  Si  Si6  1  0.53558724  0.19863851  0.12586370  1
  Si  Si7  1  0.30718976  0.61801877  0.26775789  1
  Si  Si8  1  0.53443832  0.19806252  0.46020301  1
  Si  Si9  1  0.30411392  0.62258001  0.60008243  1
  Si  Si10  1  0.53388112  0.19792282  0.79239798  1
  Si  Si11  1  0.69228802  0.38176438  0.06667301  1
  Si  Si12  1  0.30283213  0.62619665  0.93373652  1
  Si  Si13  1  0.46736477  0.79951644  0.20728787  1
  Si  Si14  1  0.69184947  0.37843659  0.39863584  1
  Si  Si15  1  0.46733379  0.80394704  0.54004600  1
  Si  Si16  1  0.69261627  0.37830546  0.73246501  1
  Si  Si17  1  0.46651020  0.80440244  0.87291774  1
  Si  Si18  1  0.80293143  0.62571840  0.26714142  1
  Si  Si19  1  0.80609450  0.62100145  0.60084736  1
  Si  Si20  1  0.80689544  0.61845907  0.93431385  1
  Si  Si21  1  0.96638036  0.80403768  0.20656623  1
  Si  Si22  1  0.96665692  0.79954286  0.53970341  1
  Si  Si23  1  0.96715414  0.79985502  0.87389420  1
  O  O0  1  0.04591055  0.10178426  0.20250371  1
  O  O1  1  0.16404513  0.03605382  0.06373202  1
  O  O2  1  0.03433095  0.11096340  0.53543170  1
  O  O3  1  0.16929199  0.02989993  0.39853057  1
  O  O4  1  0.07739754  0.33935554  0.12231862  1
  O  O5  1  0.03428042  0.11794153  0.87306148  1
  O  O6  1  0.17119411  0.02534677  0.73607859  1
  O  O7  1  0.04037084  0.61451343  0.03581647  1
  O  O8  1  0.07732423  0.33902285  0.45252630  1
  O  O9  1  0.32404566  0.19545234  0.01229907  1
  O  O10  1  0.03974401  0.61512604  0.36920187  1
  O  O11  1  0.07615044  0.34101636  0.78646195  1
  O  O12  1  0.33082135  0.19985740  0.34326079  1
  O  O13  1  0.31692641  0.35617774  0.11345681  1
  O  O14  1  0.03947775  0.61557096  0.70203229  1
  O  O15  1  0.18425605  0.63430180  0.22103716  1
  O  O16  1  0.33329350  0.19573394  0.67822527  1
  O  O17  1  0.53524770  0.11638585  0.20563259  1
  O  O18  1  0.31857070  0.35716618  0.44639766  1
  O  O19  1  0.66861106  0.02937952  0.06708296  1
  O  O20  1  0.18291752  0.64051809  0.55321145  1
  O  O21  1  0.16903136  0.79315501  0.32414234  1
  O  O22  1  0.54556151  0.10528228  0.53830656  1
  O  O23  1  0.31705304  0.36307508  0.77761980  1
  O  O24  1  0.46155367  0.38196507  0.29758774  1
  O  O25  1  0.66377296  0.03465556  0.39837147  1
  O  O26  1  0.57708073  0.33958006  0.11992631  1
  O  O27  1  0.18431142  0.64059124  0.88631854  1
  O  O28  1  0.16711725  0.79926606  0.65650356  1
  O  O29  1  0.54603999  0.10067492  0.86825468  1
  O  O30  1  0.42210475  0.66106031  0.21494400  1
  O  O31  1  0.46516497  0.38341065  0.62733736  1
  O  O32  1  0.66372964  0.03741841  0.72910707  1
  O  O33  1  0.53890361  0.61502555  0.03557098  1
  O  O34  1  0.57808063  0.33816281  0.45618384  1
  O  O35  1  0.83060940  0.19885533  0.01036284  1
  O  O36  1  0.16237020  0.81132312  0.98845530  1
  O  O37  1  0.42477968  0.66075846  0.54765742  1
  O  O38  1  0.46160880  0.39541075  0.96334109  1
  O  O39  1  0.34593961  0.96731499  0.26681981  1
  O  O40  1  0.53895524  0.61403803  0.36871534  1
  O  O41  1  0.57912480  0.33734185  0.78877456  1
  O  O42  1  0.45477876  0.89319889  0.12899283  1
  O  O43  1  0.82360693  0.19461265  0.34578987  1
  O  O44  1  0.81758250  0.36020383  0.11187332  1
  O  O45  1  0.42202719  0.66488770  0.87959289  1
  O  O46  1  0.34723801  0.96296274  0.60156547  1
  O  O47  1  0.54035490  0.61316931  0.70211353  1
  O  O48  1  0.68463762  0.63975842  0.21982049  1
  O  O49  1  0.45798714  0.89234341  0.46139825  1
  O  O50  1  0.82075159  0.19907842  0.67709782  1
  O  O51  1  0.81575440  0.35999938  0.44493789  1
  O  O52  1  0.33634651  0.96640081  0.93473618  1
  O  O53  1  0.68657870  0.63301894  0.55361782  1
  O  O54  1  0.45892379  0.89295084  0.79466163  1
  O  O55  1  0.66221982  0.81156621  0.32169577  1
  O  O56  1  0.81812235  0.35337692  0.78037629  1
  O  O57  1  0.96163330  0.39549667  0.29682168  1
  O  O58  1  0.68450706  0.63406922  0.88754206  1
  O  O59  1  0.66362058  0.80875324  0.65482884  1
  O  O60  1  0.92214674  0.66457354  0.21308657  1
  O  O61  1  0.95614371  0.39212832  0.63342950  1
  O  O62  1  0.66854937  0.79409174  0.99070030  1
  O  O63  1  0.92070678  0.66315648  0.54680366  1
  O  O64  1  0.96103597  0.38289938  0.96410184  1
  O  O65  1  0.83576990  0.96641323  0.26835818  1
  O  O66  1  0.95731182  0.89406971  0.12839858  1
  O  O67  1  0.92213236  0.66133275  0.88146336  1
  O  O68  1  0.83476529  0.96976124  0.60013623  1
  O  O69  1  0.95496526  0.89364701  0.46206705  1
  O  O70  1  0.84513135  0.96782073  0.93346108  1
  O  O71  1  0.95452063  0.89350111  0.79537458  1
loop_
_geom_bond_atom_site_label_1
_geom_bond_atom_site_label_2
_geom_bond_distance
_geom_bond_site_symmetry_2
Na0 O46 2.409245 1_545
Na0 O61 2.424708 1_455
Na0 O16 2.437198 1_555
Na0 O22 2.463142 1_555
Na0 O63 2.509337 1_455
Na0 O18 2.519819 1_555
Na0 O8 2.854685 1_555
Na0 O20 2.861640 1_555
Na1 O29 2.414747 1_555
Na1 O9 2.417268 1_556
Na1 O52 2.442995 1_545
Na1 O64 2.454022 1_455
Na1 O67 2.511876 1_455
Na1 O23 2.527262 1_555
Na1 O27 2.841398 1_555
Na1 O11 2.857323 1_555
Na2 O33 2.407606 1_555
Na2 O66 2.424959 1_455
Na2 O1 2.438233 1_565
Na2 O36 2.459384 1_554
Na2 O26 2.505373 1_555
Na2 O15 2.532472 1_555
Na2 O30 2.852305 1_555
Na2 O13 2.904864 1_555
Na3 O21 2.378104 1_555
Na3 O69 2.424716 1_455
Na3 O40 2.425999 1_555
Na3 O3 2.428498 1_565
Na3 O20 2.500627 1_555
Na3 O34 2.529237 1_555
Na3 O18 2.848631 1_555
Na3 O37 2.899346 1_555
Na4 O6 2.396532 1_565
Na4 O28 2.408655 1_555
Na4 O47 2.434131 1_555
Na4 O71 2.434303 1_455
Na4 O27 2.483081 1_555
Na4 O41 2.522252 1_555
Na4 O23 2.802747 1_555
Na4 O45 2.862794 1_555
Na5 O43 2.401732 1_555
Na5 O0 2.416163 1_655
Na5 O65 2.443963 1_545
Na5 O24 2.447940 1_555
Na5 O30 2.512754 1_555
Na5 O44 2.519949 1_555
Na5 O48 2.834364 1_555
Na5 O26 2.869656 1_555
Na6 O62 2.385386 1_554
Na6 O19 2.424056 1_565
Na6 O42 2.427538 1_555
Na6 O7 2.440620 1_655
Na6 O48 2.489639 1_555
Na6 O4 2.514829 1_655
Na6 O44 2.822262 1_555
Na6 O60 2.873029 1_555
Na7 O10 2.411775 1_655
Na7 O49 2.426805 1_555
Na7 O25 2.434484 1_565
Na7 O55 2.461528 1_555
Na7 O8 2.494729 1_655
Na7 O53 2.514244 1_555
Na7 O63 2.828518 1_555
Na7 O51 2.868137 1_555
Na8 O54 2.407212 1_555
Na8 O14 2.419622 1_655
Na8 O59 2.453193 1_555
Na8 O32 2.454235 1_565
Na8 O11 2.499710 1_655
Na8 O58 2.532537 1_555
Na8 O67 2.861609 1_555
Na8 O56 2.916910 1_555
Ca0 O57 2.320101 1_455
Ca0 O39 2.358552 1_545
Ca0 O17 2.420062 1_555
Ca0 O12 2.422248 1_555
Ca0 O60 2.504184 1_455
Ca0 O13 2.509038 1_555
Ca0 O4 2.767567 1_555
Ca0 O15 2.843008 1_555
Ca1 O2 2.312888 1_655
Ca1 O50 2.369163 1_555
Ca1 O31 2.413627 1_555
Ca1 O68 2.425310 1_545
Ca1 O51 2.491654 1_555
Ca1 O37 2.510836 1_555
Ca1 O53 2.775632 1_555
Ca1 O34 2.812703 1_555
Ca2 O38 2.320754 1_555
Ca2 O70 2.363567 1_545
Ca2 O5 2.411484 1_655
Ca2 O35 2.418944 1_556
Ca2 O56 2.504551 1_555
Ca2 O45 2.504735 1_555
Ca2 O41 2.779279 1_555
Ca2 O58 2.832357 1_555
Fe0 O0 2.021109 1_555
Fe0 O57 2.123052 1_455
Fe0 O43 2.129490 1_455
Fe0 O3 2.180165 1_555
Fe0 O39 2.187646 1_545
Fe0 O21 2.191962 1_545
Fe1 O61 2.020975 1_455
Fe1 O2 2.106913 1_555
Fe1 O46 2.120691 1_545
Fe1 O50 2.192188 1_455
Fe1 O6 2.202655 1_555
Fe1 O28 2.207631 1_545
Fe2 O64 1.946795 1_455
Fe2 O5 2.002095 1_555
Fe2 O52 2.038132 1_545
Fe2 O1 2.085970 1_556
Fe2 O35 2.097238 1_456
Fe2 O36 2.132751 1_545
Fe3 O24 1.945722 1_555
Fe3 O17 2.007190 1_555
Fe3 O65 2.038357 1_545
Fe3 O12 2.083620 1_555
Fe3 O25 2.116877 1_555
Fe3 O55 2.126370 1_545
Fe4 O22 1.965698 1_555
Fe4 O31 2.010433 1_555
Fe4 O16 2.034236 1_555
Fe4 O68 2.092950 1_545
Fe4 O59 2.097210 1_545
Fe4 O32 2.118464 1_555
Fe5 O29 2.025588 1_555
Fe5 O9 2.120116 1_556
Fe5 O38 2.121611 1_555
Fe5 O70 2.185615 1_545
Fe5 O62 2.188480 1_545
Fe5 O19 2.227829 1_556
Fe6 O42 1.966124 1_555
Fe6 O33 1.997761 1_555
Fe6 O62 2.010943 1_554
Fe6 O1 2.075797 1_565
Fe6 O9 2.097404 1_565
Fe6 O52 2.173934 1_554
Fe7 O40 1.961925 1_555
Fe7 O49 1.978878 1_555
Fe7 O3 2.014446 1_565
Fe7 O55 2.065810 1_555
Fe7 O39 2.135057 1_555
Fe7 O12 2.213302 1_565
Fe8 O47 1.979082 1_555
Fe8 O54 1.995918 1_555
Fe8 O6 2.017232 1_565
Fe8 O59 2.071988 1_555
Fe8 O46 2.093279 1_555
Fe8 O16 2.171243 1_565
Fe9 O7 1.959977 1_655
Fe9 O66 1.981877 1_555
Fe9 O19 2.028232 1_565
Fe9 O36 2.064393 1_654
Fe9 O70 2.142295 1_554
Fe9 O35 2.195466 1_565
Fe10 O69 1.969077 1_555
Fe10 O10 1.995101 1_655
Fe10 O21 2.007914 1_655
Fe10 O43 2.084915 1_565
Fe10 O25 2.088318 1_565
Fe10 O65 2.165159 1_555
Fe11 O71 1.957729 1_555
Fe11 O14 1.971384 1_655
Fe11 O28 2.034301 1_655
Fe11 O32 2.059952 1_565
Fe11 O50 2.139035 1_565
Fe11 O68 2.201729 1_555
O0 Si0 1.587328 1_555
O1 Si0 1.656506 1_555
O2 Si1 1.605310 1_555
O3 Si1 1.632983 1_555
O4 Si3 1.678988 1_555
O4 Si0 1.679928 1_555
O5 Si2 1.627092 1_555
O6 Si2 1.625032 1_555
O7 Si3 1.618408 1_555
O8 Si1 1.660048 1_555
O8 Si4 1.663354 1_555
O9 Si3 1.619952 1_555
O10 Si4 1.612952 1_555
O11 Si2 1.655209 1_555
O11 Si5 1.670769 1_555
O12 Si4 1.660066 1_555
O13 Si3 1.678042 1_555
O13 Si6 1.684332 1_555
O14 Si5 1.617620 1_555
O15 Si21 1.675851 1_455
O15 Si7 1.676297 1_555
O16 Si5 1.649264 1_555
O17 Si6 1.631209 1_555
O18 Si4 1.658122 1_555
O18 Si8 1.666820 1_555
O19 Si6 1.629917 1_555
O20 Si9 1.653876 1_555
O20 Si22 1.668457 1_455
O21 Si7 1.624233 1_555
O22 Si8 1.616274 1_555
O23 Si5 1.653568 1_555
O23 Si10 1.673461 1_555
O24 Si7 1.621456 1_555
O25 Si8 1.647955 1_555
O26 Si6 1.653586 1_555
O26 Si11 1.669549 1_555
O27 Si12 1.657114 1_555
O27 Si23 1.669476 1_455
O28 Si9 1.631673 1_555
O29 Si10 1.589355 1_555
O30 Si13 1.659907 1_555
O30 Si7 1.668616 1_555
O31 Si9 1.630499 1_555
O32 Si10 1.657343 1_555
O33 Si11 1.614151 1_555
O34 Si8 1.670867 1_555
O34 Si14 1.685704 1_555
O35 Si11 1.660133 1_555
O36 Si12 1.649627 1_555
O37 Si15 1.679371 1_555
O37 Si9 1.683733 1_555
O38 Si12 1.599687 1_555
O39 Si13 1.636705 1_555
O40 Si14 1.617969 1_555
O41 Si16 1.675761 1_555
O41 Si10 1.680316 1_555
O42 Si13 1.620531 1_555
O43 Si14 1.619569 1_555
O44 Si11 1.647607 1_555
O44 Si0 1.673185 1_655
O45 Si17 1.665157 1_555
O45 Si12 1.689119 1_555
O46 Si15 1.624926 1_555
O47 Si16 1.616164 1_555
O48 Si18 1.655640 1_555
O48 Si13 1.670401 1_555
O49 Si15 1.615778 1_555
O50 Si16 1.631448 1_555
O51 Si14 1.667379 1_555
O51 Si1 1.692081 1_655
O52 Si17 1.641720 1_555
O53 Si19 1.676405 1_555
O53 Si15 1.680655 1_555
O54 Si17 1.611296 1_555
O55 Si18 1.651013 1_555
O56 Si16 1.670140 1_555
O56 Si2 1.685821 1_655
O57 Si18 1.597331 1_555
O58 Si20 1.675808 1_555
O58 Si17 1.677223 1_555
O59 Si19 1.653021 1_555
O60 Si21 1.662868 1_555
O60 Si18 1.689502 1_555
O61 Si19 1.597824 1_555
O62 Si20 1.626600 1_555
O63 Si22 1.648488 1_555
O63 Si19 1.671347 1_555
O64 Si20 1.618314 1_555
O65 Si21 1.643034 1_555
O66 Si21 1.612082 1_555
O67 Si23 1.658587 1_555
O67 Si20 1.670572 1_555
O68 Si22 1.658085 1_555
O69 Si22 1.611245 1_555
O70 Si23 1.637685 1_555
O71 Si23 1.624314 1_555
