# generated using pymatgen
data_Na2NiPCO7
_symmetry_space_group_name_H-M   'P 1'
_cell_length_a   6.61799000
_cell_length_b   8.92853187
_cell_length_c   10.35142520
_cell_angle_alpha   88.50779335
_cell_angle_beta   89.84608635
_cell_angle_gamma   89.95406599
_symmetry_Int_Tables_number   1
_chemical_formula_structural   Na2NiPCO7
_chemical_formula_sum   'Na8 Ni4 P4 C4 O28'
_cell_volume   611.44489016
_cell_formula_units_Z   4
loop_
 _symmetry_equiv_pos_site_id
 _symmetry_equiv_pos_as_xyz
  1  'x, y, z'
loop_
 _atom_site_type_symbol
 _atom_site_label
 _atom_site_symmetry_multiplicity
 _atom_site_fract_x
 _atom_site_fract_y
 _atom_site_fract_z
 _atom_site_occupancy
  Na  Na0  1  0.00841800  0.75308500  0.87739900  1
  Na  Na1  1  0.49349700  0.75439800  0.88310500  1
  Na  Na2  1  0.46389600  0.73453700  0.37825700  1
  Na  Na3  1  0.51040900  0.26097400  0.62997800  1
  Na  Na4  1  0.98812100  0.26066000  0.63376100  1
  Na  Na5  1  0.51199400  0.25211300  0.11578200  1
  Na  Na6  1  0.98971400  0.25238500  0.11196800  1
  Na  Na7  1  0.76988800  0.07611500  0.38826400  1
  Ni  Ni0  1  0.75254600  0.65147700  0.60406000  1
  Ni  Ni1  1  0.75398900  0.64799600  0.11232200  1
  Ni  Ni2  1  0.25349800  0.35249100  0.89048200  1
  Ni  Ni3  1  0.24785000  0.34974900  0.39225500  1
  P  P0  1  0.24972900  0.57934900  0.64524200  1
  P  P1  1  0.25127200  0.57525300  0.14200400  1
  P  P2  1  0.75118000  0.42472700  0.85678000  1
  P  P3  1  0.74849300  0.41827400  0.35990400  1
  C  C0  1  0.74444700  0.92864000  0.63744200  1
  C  C1  1  0.74832700  0.92696200  0.14165900  1
  C  C2  1  0.25088800  0.07698800  0.85917200  1
  C  C3  1  0.25321600  0.07705800  0.35698000  1
  O  O0  1  0.25127900  0.93724500  0.84850100  1
  O  O1  1  0.26407600  0.93915400  0.34038800  1
  O  O2  1  0.73984000  0.86655900  0.52529900  1
  O  O3  1  0.75435000  0.86778400  0.02855000  1
  O  O4  1  0.74735900  0.83595500  0.73598600  1
  O  O5  1  0.74036000  0.83107900  0.23779600  1
  O  O6  1  0.05955400  0.67403800  0.61810200  1
  O  O7  1  0.43622500  0.67352000  0.60531500  1
  O  O8  1  0.06372000  0.66758600  0.10119300  1
  O  O9  1  0.43936800  0.67078200  0.10556400  1
  O  O10  1  0.75028500  0.57670600  0.92568400  1
  O  O11  1  0.73786400  0.56887900  0.42713600  1
  O  O12  1  0.25800400  0.54606900  0.79586500  1
  O  O13  1  0.25539800  0.53844800  0.29032100  1
  O  O14  1  0.74914400  0.45521800  0.70650500  1
  O  O15  1  0.75195600  0.44743300  0.20947100  1
  O  O16  1  0.24770300  0.42725700  0.57598900  1
  O  O17  1  0.25413300  0.42295600  0.07248800  1
  O  O18  1  0.56459300  0.32822500  0.89391400  1
  O  O19  1  0.94054100  0.33069100  0.89219800  1
  O  O20  1  0.56423500  0.31531300  0.39492700  1
  O  O21  1  0.93496800  0.32130000  0.40014200  1
  O  O22  1  0.25134900  0.17162300  0.76140500  1
  O  O23  1  0.24641800  0.17609600  0.26166800  1
  O  O24  1  0.25029600  0.14198300  0.97070500  1
  O  O25  1  0.24706400  0.13626800  0.47107400  1
  O  O26  1  0.74762500  0.07038800  0.64622500  1
  O  O27  1  0.75107400  0.06796500  0.15975500  1
loop_
_geom_bond_atom_site_label_1
_geom_bond_atom_site_label_2
_geom_bond_distance
_geom_bond_site_symmetry_2
Na0 O0 2.313532 1_555
Na0 O10 2.367895 1_455
Na0 O4 2.372820 1_455
Na0 O8 2.448525 1_556
Na0 O3 2.527955 1_456
Na0 O12 2.631707 1_555
Na0 O6 2.812543 1_555
Na1 O0 2.309020 1_555
Na1 O10 2.358527 1_555
Na1 O4 2.366960 1_555
Na1 O9 2.427939 1_556
Na1 O3 2.523480 1_556
Na1 O12 2.608442 1_555
Na2 O1 2.280725 1_555
Na2 O11 2.385946 1_555
Na2 O7 2.405359 1_555
Na2 O13 2.427222 1_555
Na2 O5 2.475393 1_555
Na2 O2 2.674522 1_555
Na2 O9 2.899079 1_555
Na3 O22 2.315120 1_555
Na3 O26 2.317478 1_555
Na3 O16 2.344590 1_555
Na3 O14 2.492843 1_555
Na3 O20 2.493283 1_555
Na3 O25 2.663962 1_555
Na3 O18 2.836305 1_555
Na4 O22 2.316883 1_655
Na4 O26 2.329752 1_555
Na4 O16 2.339584 1_655
Na4 O14 2.478549 1_555
Na4 O21 2.490197 1_555
Na4 O25 2.661781 1_655
Na4 O19 2.780116 1_555
Na5 O27 2.318331 1_555
Na5 O17 2.324686 1_555
Na5 O23 2.400938 1_555
Na5 O18 2.402579 1_554
Na5 O24 2.513023 1_554
Na5 O15 2.569933 1_555
Na6 O27 2.325463 1_555
Na6 O17 2.348751 1_655
Na6 O19 2.385543 1_554
Na6 O23 2.389290 1_655
Na6 O24 2.478447 1_654
Na6 O15 2.570200 1_555
Na7 O2 2.326651 1_545
Na7 O27 2.372013 1_555
Na7 O21 2.453485 1_555
Na7 O20 2.533924 1_555
Na7 O26 2.673092 1_555
Na7 O5 2.725893 1_545
Ni0 O11 1.994696 1_555
Ni0 O14 2.024547 1_555
Ni0 O6 2.047825 1_655
Ni0 O2 2.068367 1_555
Ni0 O7 2.102520 1_555
Ni0 O4 2.167004 1_555
Ni1 O15 2.030856 1_555
Ni1 O10 2.050020 1_554
Ni1 O8 2.060046 1_655
Ni1 O9 2.093091 1_555
Ni1 O5 2.115878 1_555
Ni1 O3 2.124686 1_555
Ni2 O12 1.964477 1_555
Ni2 O17 2.001790 1_556
Ni2 O24 2.035032 1_555
Ni2 O18 2.070322 1_555
Ni2 O19 2.080413 1_455
Ni2 O22 2.122692 1_555
Ni3 O13 1.965119 1_555
Ni3 O16 2.040761 1_555
Ni3 O25 2.053731 1_555
Ni3 O23 2.083397 1_555
Ni3 O21 2.087494 1_455
Ni3 O20 2.116192 1_555
C0 O26 1.271417 1_565
C0 O4 1.296864 1_555
C0 O2 1.299788 1_555
C1 O27 1.277776 1_565
C1 O5 1.296700 1_555
C1 O3 1.297523 1_555
C2 O0 1.255442 1_545
C2 O22 1.301386 1_555
C2 O24 1.305592 1_555
C3 O1 1.249608 1_545
C3 O25 1.306984 1_555
C3 O23 1.308470 1_555
O6 P0 1.538025 1_555
O7 P0 1.543348 1_555
O8 P1 1.543294 1_555
O9 P1 1.549766 1_555
O10 P2 1.549339 1_555
O11 P3 1.531595 1_555
O12 P0 1.580691 1_555
O13 P1 1.561983 1_555
O14 P2 1.572296 1_555
O15 P3 1.572218 1_555
O16 P0 1.552067 1_555
O17 P1 1.555005 1_555
O18 P2 1.548180 1_555
O19 P2 1.547444 1_555
O20 P3 1.563833 1_555
O21 P3 1.558334 1_555
