# generated using pymatgen
data_TiSiIr
_symmetry_space_group_name_H-M   'P 1'
_cell_length_a   3.85645518
_cell_length_b   6.26124255
_cell_length_c   7.20684568
_cell_angle_alpha   90.00000000
_cell_angle_beta   90.00000000
_cell_angle_gamma   90.00000000
_symmetry_Int_Tables_number   1
_chemical_formula_structural   TiSiIr
_chemical_formula_sum   'Ti4 Si4 Ir4'
_cell_volume   174.01794628
_cell_formula_units_Z   4
loop_
 _symmetry_equiv_pos_site_id
 _symmetry_equiv_pos_as_xyz
  1  'x, y, z'
loop_
 _atom_site_type_symbol
 _atom_site_label
 _atom_site_symmetry_multiplicity
 _atom_site_fract_x
 _atom_site_fract_y
 _atom_site_fract_z
 _atom_site_occupancy
  Ti  Ti0  1  0.25000000  0.02309211  0.81996656  1
  Ti  Ti1  1  0.25000000  0.52309211  0.68003344  1
  Ti  Ti2  1  0.75000000  0.97690789  0.18003344  1
  Ti  Ti3  1  0.75000000  0.47690789  0.31996656  1
  Si  Si0  1  0.25000000  0.77260632  0.37655377  1
  Si  Si1  1  0.25000000  0.27260632  0.12344623  1
  Si  Si2  1  0.75000000  0.22739368  0.62344623  1
  Si  Si3  1  0.75000000  0.72739368  0.87655377  1
  Ir  Ir0  1  0.25000000  0.15637098  0.43776816  1
  Ir  Ir1  1  0.25000000  0.65637098  0.06223184  1
  Ir  Ir2  1  0.75000000  0.84362902  0.56223184  1
  Ir  Ir3  1  0.75000000  0.34362902  0.93776816  1
loop_
_geom_bond_atom_site_label_1
_geom_bond_atom_site_label_2
_geom_bond_distance
_geom_bond_site_symmetry_2
Si0 Ti1 2.687792 1_555
Si0 Ti3 2.704109 1_455
Si0 Ti3 2.704109 1_555
Si0 Ti2 2.712978 1_555
Si0 Ti2 2.712978 1_455
Si1 Ti0 2.687792 1_554
Si1 Ti2 2.704109 1_445
Si1 Ti2 2.704109 1_545
Si1 Ti3 2.712978 1_555
Si1 Ti3 2.712978 1_455
Si2 Ti3 2.687792 1_555
Si2 Ti1 2.704109 1_555
Si2 Ti1 2.704109 1_655
Si2 Ti0 2.712978 1_555
Si2 Ti0 2.712978 1_655
Si3 Ti2 2.687792 1_556
Si3 Ti0 2.704109 1_665
Si3 Ti0 2.704109 1_565
Si3 Ti1 2.712978 1_555
Si3 Ti1 2.712978 1_655
Ir0 Si1 2.379308 1_555
Ir0 Si2 2.388821 1_555
Ir0 Si2 2.388821 1_455
Ir0 Si0 2.443007 1_545
Ir0 Ti0 2.878080 1_555
Ir0 Ti1 2.884548 1_555
Ir0 Ti2 2.903586 1_445
Ir0 Ti2 2.903586 1_545
Ir0 Ti3 2.909761 1_455
Ir0 Ti3 2.909761 1_555
Ir1 Si0 2.379308 1_555
Ir1 Si3 2.388821 1_554
Ir1 Si3 2.388821 1_454
Ir1 Si1 2.443007 1_555
Ir1 Ti1 2.878080 1_554
Ir1 Ti0 2.884548 1_564
Ir1 Ti3 2.903586 1_455
Ir1 Ti3 2.903586 1_555
Ir1 Ti2 2.909761 1_455
Ir1 Ti2 2.909761 1_555
Ir2 Si3 2.379308 1_555
Ir2 Si0 2.388821 1_555
Ir2 Si0 2.388821 1_655
Ir2 Si2 2.443007 1_565
Ir2 Ti2 2.878080 1_555
Ir2 Ti3 2.884548 1_555
Ir2 Ti0 2.903586 1_565
Ir2 Ti0 2.903586 1_665
Ir2 Ti1 2.909761 1_555
Ir2 Ti1 2.909761 1_655
Ir3 Si2 2.379308 1_555
Ir3 Si1 2.388821 1_656
Ir3 Si1 2.388821 1_556
Ir3 Si3 2.443007 1_555
Ir3 Ti3 2.878080 1_556
Ir3 Ti2 2.884548 1_546
Ir3 Ti1 2.903586 1_655
Ir3 Ti1 2.903586 1_555
Ir3 Ti0 2.909761 1_555
Ir3 Ti0 2.909761 1_655
