# generated using pymatgen
data_K2YAuBr6
_symmetry_space_group_name_H-M   'P 1'
_cell_length_a   7.97628329
_cell_length_b   7.97628329
_cell_length_c   7.97628329
_cell_angle_alpha   60.00000000
_cell_angle_beta   60.00000000
_cell_angle_gamma   60.00000000
_symmetry_Int_Tables_number   1
_chemical_formula_structural   K2YAuBr6
_chemical_formula_sum   'K2 Y1 Au1 Br6'
_cell_volume   358.82832028
_cell_formula_units_Z   1
loop_
 _symmetry_equiv_pos_site_id
 _symmetry_equiv_pos_as_xyz
  1  'x, y, z'
loop_
 _atom_site_type_symbol
 _atom_site_label
 _atom_site_symmetry_multiplicity
 _atom_site_fract_x
 _atom_site_fract_y
 _atom_site_fract_z
 _atom_site_occupancy
  K  K0  1  0.75000000  0.75000000  0.75000000  1
  K  K1  1  0.25000000  0.25000000  0.25000000  1
  Y  Y0  1  0.00000000  0.00000000  0.00000000  1
  Au  Au0  1  0.50000000  0.50000000  0.50000000  1
  Br  Br0  1  0.75254200  0.24745800  0.24745800  1
  Br  Br1  1  0.24745800  0.24745800  0.75254200  1
  Br  Br2  1  0.24745800  0.75254200  0.75254200  1
  Br  Br3  1  0.24745800  0.75254200  0.24745800  1
  Br  Br4  1  0.75254200  0.24745800  0.75254200  1
  Br  Br5  1  0.75254200  0.75254200  0.24745800  1
loop_
_geom_bond_atom_site_label_1
_geom_bond_atom_site_label_2
_geom_bond_distance
_geom_bond_site_symmetry_2
Au0 Br4 2.848716 1_555
Au0 Br5 2.848716 1_555
Au0 Br2 2.848716 1_555
Au0 Br3 2.848716 1_555
Au0 Br0 2.848716 1_555
Au0 Br1 2.848716 1_555
Br0 Y0 2.791368 1_655
Br0 K1 3.988245 1_555
Br0 K0 3.988245 1_545
Br0 K0 3.988245 1_554
Br0 K1 3.988245 1_655
Br1 Y0 2.791368 1_556
Br1 K1 3.988245 1_555
Br1 K0 3.988245 1_455
Br1 K0 3.988245 1_545
Br1 K1 3.988245 1_556
Br2 Y0 2.791368 1_566
Br2 K0 3.988245 1_455
Br2 K1 3.988245 1_556
Br2 K1 3.988245 1_565
Br2 K0 3.988245 1_555
Br3 Y0 2.791368 1_565
Br3 K1 3.988245 1_555
Br3 K0 3.988245 1_455
Br3 K0 3.988245 1_554
Br3 K1 3.988245 1_565
Br4 Y0 2.791368 1_656
Br4 K0 3.988245 1_545
Br4 K1 3.988245 1_655
Br4 K1 3.988245 1_556
Br4 K0 3.988245 1_555
Br5 Y0 2.791368 1_665
Br5 K0 3.988245 1_554
Br5 K1 3.988245 1_655
Br5 K1 3.988245 1_565
Br5 K0 3.988245 1_555
