# generated using pymatgen
data_Li2AlHgF6
_symmetry_space_group_name_H-M   'P 1'
_cell_length_a   6.06856859
_cell_length_b   6.06856859
_cell_length_c   6.06856859
_cell_angle_alpha   60.00000000
_cell_angle_beta   60.00000000
_cell_angle_gamma   60.00000000
_symmetry_Int_Tables_number   1
_chemical_formula_structural   Li2AlHgF6
_chemical_formula_sum   'Li2 Al1 Hg1 F6'
_cell_volume   158.03154874
_cell_formula_units_Z   1
loop_
 _symmetry_equiv_pos_site_id
 _symmetry_equiv_pos_as_xyz
  1  'x, y, z'
loop_
 _atom_site_type_symbol
 _atom_site_label
 _atom_site_symmetry_multiplicity
 _atom_site_fract_x
 _atom_site_fract_y
 _atom_site_fract_z
 _atom_site_occupancy
  Li  Li0  1  0.75000000  0.75000000  0.75000000  1
  Li  Li1  1  0.25000000  0.25000000  0.25000000  1
  Al  Al0  1  0.00000000  0.00000000  0.00000000  1
  Hg  Hg0  1  0.50000000  0.50000000  0.50000000  1
  F  F0  1  0.78747400  0.21252600  0.21252600  1
  F  F1  1  0.21252600  0.21252600  0.78747400  1
  F  F2  1  0.21252600  0.78747400  0.78747400  1
  F  F3  1  0.21252600  0.78747400  0.21252600  1
  F  F4  1  0.78747400  0.21252600  0.78747400  1
  F  F5  1  0.78747400  0.78747400  0.21252600  1
loop_
_geom_bond_atom_site_label_1
_geom_bond_atom_site_label_2
_geom_bond_distance
_geom_bond_site_symmetry_2
Al0 F4 1.823952 1_454
Al0 F1 1.823952 1_554
Al0 F3 1.823952 1_545
Al0 F2 1.823952 1_544
Al0 F0 1.823952 1_455
Al0 F5 1.823952 1_445
F0 Hg0 2.467174 1_555
F1 Hg0 2.467174 1_555
F2 Hg0 2.467174 1_555
F3 Hg0 2.467174 1_555
F4 Hg0 2.467174 1_555
F5 Hg0 2.467174 1_555
