# generated using pymatgen
data_Ba4NdY(CuO2)8
_symmetry_space_group_name_H-M   'P 1'
_cell_length_a   3.92237400
_cell_length_b   3.92689400
_cell_length_c   27.54331400
_cell_angle_alpha   90.00000000
_cell_angle_beta   90.00000000
_cell_angle_gamma   90.00000000
_symmetry_Int_Tables_number   1
_chemical_formula_structural   Ba4NdY(CuO2)8
_chemical_formula_sum   'Ba4 Nd1 Y1 Cu8 O16'
_cell_volume   424.24269506
_cell_formula_units_Z   1
loop_
 _symmetry_equiv_pos_site_id
 _symmetry_equiv_pos_as_xyz
  1  'x, y, z'
loop_
 _atom_site_type_symbol
 _atom_site_label
 _atom_site_symmetry_multiplicity
 _atom_site_fract_x
 _atom_site_fract_y
 _atom_site_fract_z
 _atom_site_occupancy
  Ba  Ba0  1  0.50000000  0.50000000  0.13648600  1
  Ba  Ba1  1  0.00000000  0.50000000  0.63660100  1
  Ba  Ba2  1  0.00000000  0.50000000  0.36339900  1
  Ba  Ba3  1  0.50000000  0.50000000  0.86351400  1
  Nd  Nd0  1  0.00000000  0.50000000  0.50000000  1
  Y  Y0  1  0.50000000  0.50000000  0.00000000  1
  Cu  Cu0  1  0.00000000  0.00000000  0.06237600  1
  Cu  Cu1  1  0.50000000  0.00000000  0.56315000  1
  Cu  Cu2  1  0.50000000  0.00000000  0.43685000  1
  Cu  Cu3  1  0.00000000  0.00000000  0.93762400  1
  Cu  Cu4  1  0.00000000  0.00000000  0.21257100  1
  Cu  Cu5  1  0.50000000  0.00000000  0.71258000  1
  Cu  Cu6  1  0.50000000  0.00000000  0.28742000  1
  Cu  Cu7  1  0.00000000  0.00000000  0.78742900  1
  O  O0  1  0.50000000  0.00000000  0.21855100  1
  O  O1  1  0.00000000  0.00000000  0.71858800  1
  O  O2  1  0.00000000  0.00000000  0.28141200  1
  O  O3  1  0.50000000  0.00000000  0.78144900  1
  O  O4  1  0.50000000  0.00000000  0.05263000  1
  O  O5  1  0.00000000  0.00000000  0.55497300  1
  O  O6  1  0.00000000  0.00000000  0.44502700  1
  O  O7  1  0.50000000  0.00000000  0.94737000  1
  O  O8  1  0.00000000  0.00000000  0.14552900  1
  O  O9  1  0.50000000  0.00000000  0.64567500  1
  O  O10  1  0.50000000  0.00000000  0.35432500  1
  O  O11  1  0.00000000  0.00000000  0.85447100  1
  O  O12  1  0.00000000  0.50000000  0.05270000  1
  O  O13  1  0.50000000  0.50000000  0.55500100  1
  O  O14  1  0.50000000  0.50000000  0.44499900  1
  O  O15  1  0.00000000  0.50000000  0.94730000  1
loop_
_geom_bond_atom_site_label_1
_geom_bond_atom_site_label_2
_geom_bond_distance
_geom_bond_site_symmetry_2
Ba0 O8 2.786291 1_565
Ba0 O8 2.786291 1_655
Ba0 O8 2.786291 1_665
Ba0 O8 2.786291 1_555
Ba0 O0 2.994039 1_565
Ba0 O0 2.994039 1_555
Ba0 O12 3.028521 1_655
Ba0 O12 3.028521 1_555
Ba0 O4 3.031453 1_565
Ba0 O4 3.031453 1_555
Ba1 O9 2.786367 1_565
Ba1 O9 2.786367 1_555
Ba1 O9 2.786367 1_465
Ba1 O9 2.786367 1_455
Ba1 O13 2.982895 1_555
Ba1 O13 2.982895 1_455
Ba1 O5 2.984963 1_555
Ba1 O5 2.984963 1_565
Ba1 O1 2.992418 1_555
Ba1 O1 2.992418 1_565
Ba2 O10 2.786367 1_555
Ba2 O10 2.786367 1_565
Ba2 O10 2.786367 1_455
Ba2 O10 2.786367 1_465
Ba2 O14 2.982895 1_455
Ba2 O14 2.982895 1_555
Ba2 O6 2.984963 1_555
Ba2 O6 2.984963 1_565
Ba2 O2 2.992418 1_565
Ba2 O2 2.992418 1_555
Ba3 O11 2.786291 1_555
Ba3 O11 2.786291 1_655
Ba3 O11 2.786291 1_565
Ba3 O11 2.786291 1_665
Ba3 O3 2.994039 1_555
Ba3 O3 2.994039 1_565
Ba3 O15 3.028521 1_655
Ba3 O15 3.028521 1_555
Ba3 O7 3.031453 1_555
Ba3 O7 3.031453 1_565
Nd0 O13 2.478146 1_455
Nd0 O13 2.478146 1_555
Nd0 O14 2.478146 1_555
Nd0 O14 2.478146 1_455
Nd0 O5 2.479464 1_555
Nd0 O5 2.479464 1_565
Nd0 O6 2.479464 1_555
Nd0 O6 2.479464 1_565
Cu0 O4 1.979473 1_555
Cu0 O4 1.979473 1_455
Cu0 O12 1.981452 1_545
Cu0 O12 1.981452 1_555
Cu0 O8 2.290309 1_555
Cu1 O5 1.974077 1_555
Cu1 O5 1.974077 1_655
Cu1 O13 1.976234 1_555
Cu1 O13 1.976234 1_545
Cu1 O9 2.273012 1_555
Cu2 O6 1.974077 1_655
Cu2 O6 1.974077 1_555
Cu2 O14 1.976234 1_555
Cu2 O14 1.976234 1_545
Cu2 O10 2.273012 1_555
Cu3 O7 1.979473 1_455
Cu3 O7 1.979473 1_555
Cu3 O15 1.981452 1_545
Cu3 O15 1.981452 1_555
Cu3 O11 2.290309 1_555
Cu4 O8 1.846559 1_555
Cu4 O2 1.896109 1_555
Cu4 O0 1.968091 1_555
Cu4 O0 1.968091 1_455
Cu5 O9 1.842785 1_555
Cu5 O3 1.896880 1_555
Cu5 O1 1.968156 1_555
Cu5 O1 1.968156 1_655
Cu6 O10 1.842785 1_555
Cu6 O0 1.896880 1_555
Cu6 O2 1.968156 1_555
Cu6 O2 1.968156 1_655
Cu7 O11 1.846559 1_555
Cu7 O1 1.896109 1_555
Cu7 O3 1.968091 1_555
Cu7 O3 1.968091 1_455
O4 Y0 2.440590 1_545
O4 Y0 2.440590 1_555
O7 Y0 2.440590 1_546
O7 Y0 2.440590 1_556
O12 Y0 2.439918 1_555
O12 Y0 2.439918 1_455
O15 Y0 2.439918 1_456
O15 Y0 2.439918 1_556
