# generated using pymatgen
data_Sm(Co2B)6
_symmetry_space_group_name_H-M   'P 1'
_cell_length_a   5.97270114
_cell_length_b   5.97270114
_cell_length_c   5.97270181
_cell_angle_alpha   103.99807275
_cell_angle_beta   103.99807275
_cell_angle_gamma   103.99807644
_symmetry_Int_Tables_number   1
_chemical_formula_structural   Sm(Co2B)6
_chemical_formula_sum   'Sm1 Co12 B6'
_cell_volume   190.11364960
_cell_formula_units_Z   1
loop_
 _symmetry_equiv_pos_site_id
 _symmetry_equiv_pos_as_xyz
  1  'x, y, z'
loop_
 _atom_site_type_symbol
 _atom_site_label
 _atom_site_symmetry_multiplicity
 _atom_site_fract_x
 _atom_site_fract_y
 _atom_site_fract_z
 _atom_site_occupancy
  Sm  Sm0  1  0.00000000  0.00000000  0.00000000  1
  Co  Co0  1  0.13270100  0.86729900  0.50000000  1
  Co  Co1  1  0.50000000  0.13270100  0.86729900  1
  Co  Co2  1  0.86729900  0.50000000  0.13270100  1
  Co  Co3  1  0.50000000  0.86729900  0.13270100  1
  Co  Co4  1  0.13270100  0.50000000  0.86729900  1
  Co  Co5  1  0.86729900  0.13270100  0.50000000  1
  Co  Co6  1  0.54253800  0.81362800  0.54253800  1
  Co  Co7  1  0.54253800  0.54253800  0.81362800  1
  Co  Co8  1  0.81362800  0.54253800  0.54253800  1
  Co  Co9  1  0.45746200  0.18637200  0.45746200  1
  Co  Co10  1  0.45746200  0.45746200  0.18637200  1
  Co  Co11  1  0.18637200  0.45746200  0.45746200  1
  B  B0  1  0.76747400  0.32486000  0.76747400  1
  B  B1  1  0.76747400  0.76747400  0.32486000  1
  B  B2  1  0.32486000  0.76747400  0.76747400  1
  B  B3  1  0.23252600  0.67514000  0.23252700  1
  B  B4  1  0.23252600  0.23252700  0.67514000  1
  B  B5  1  0.67514000  0.23252700  0.23252700  1
loop_
_geom_bond_atom_site_label_1
_geom_bond_atom_site_label_2
_geom_bond_distance
_geom_bond_site_symmetry_2
Co0 Sm0 3.237062 1_566
Co0 Sm0 3.237062 1_565
Co1 Sm0 3.237062 1_556
Co1 Sm0 3.237062 1_656
Co2 Sm0 3.237062 1_665
Co2 Sm0 3.237062 1_655
Co3 Sm0 3.237062 1_665
Co3 Sm0 3.237062 1_565
Co4 Sm0 3.237062 1_556
Co4 Sm0 3.237062 1_566
Co5 Sm0 3.237062 1_656
Co5 Sm0 3.237062 1_655
Co6 Sm0 3.100887 1_666
Co7 Sm0 3.100887 1_666
Co8 Sm0 3.100887 1_666
Co9 Sm0 3.100887 1_555
Co10 Sm0 3.100887 1_555
Co11 Sm0 3.100887 1_555
B0 Co1 2.032163 1_555
B0 Co5 2.032164 1_555
B0 Co4 2.042877 1_655
B0 Co2 2.042878 1_556
B0 Co9 2.097762 1_555
B0 Co7 2.102863 1_555
B0 Co8 2.102864 1_555
B0 Sm0 3.049012 1_656
B1 Co3 2.032163 1_555
B1 Co2 2.032163 1_555
B1 Co0 2.042877 1_655
B1 Co5 2.042877 1_565
B1 Co10 2.097762 1_555
B1 Co8 2.102864 1_555
B1 Co6 2.102864 1_555
B1 Sm0 3.049012 1_665
B2 Co4 2.032163 1_555
B2 Co0 2.032164 1_555
B2 Co1 2.042877 1_565
B2 Co3 2.042878 1_556
B2 Co11 2.097762 1_555
B2 Co7 2.102863 1_555
B2 Co6 2.102864 1_555
B2 Sm0 3.049012 1_566
B3 Co0 2.032159 1_555
B3 Co3 2.032167 1_555
B3 Co2 2.042877 1_455
B3 Co4 2.042883 1_554
B3 Co6 2.097759 1_555
B3 Co11 2.102859 1_555
B3 Co10 2.102864 1_555
B3 Sm0 3.049015 1_565
B4 Co4 2.032159 1_555
B4 Co1 2.032167 1_555
B4 Co5 2.042877 1_455
B4 Co0 2.042883 1_545
B4 Co7 2.097759 1_555
B4 Co11 2.102859 1_555
B4 Co9 2.102864 1_555
B4 Sm0 3.049015 1_556
B5 Co2 2.032163 1_555
B5 Co5 2.032163 1_555
B5 Co3 2.042882 1_545
B5 Co1 2.042882 1_554
B5 Co8 2.097755 1_555
B5 Co10 2.102859 1_555
B5 Co9 2.102859 1_555
B5 Sm0 3.049018 1_655
