# generated using pymatgen
data_Ba2MnS3
_symmetry_space_group_name_H-M   'P 1'
_cell_length_a   4.34481373
_cell_length_b   8.90420681
_cell_length_c   17.23114905
_cell_angle_alpha   90.00000000
_cell_angle_beta   90.00000000
_cell_angle_gamma   90.00000000
_symmetry_Int_Tables_number   1
_chemical_formula_structural   Ba2MnS3
_chemical_formula_sum   'Ba8 Mn4 S12'
_cell_volume   666.62353108
_cell_formula_units_Z   4
loop_
 _symmetry_equiv_pos_site_id
 _symmetry_equiv_pos_as_xyz
  1  'x, y, z'
loop_
 _atom_site_type_symbol
 _atom_site_label
 _atom_site_symmetry_multiplicity
 _atom_site_fract_x
 _atom_site_fract_y
 _atom_site_fract_z
 _atom_site_occupancy
  Ba  Ba0  1  0.25000000  0.75687787  0.95628982  1
  Ba  Ba1  1  0.75000000  0.74312213  0.45628982  1
  Ba  Ba2  1  0.25000000  0.25687787  0.54371018  1
  Ba  Ba3  1  0.75000000  0.24312213  0.04371018  1
  Ba  Ba4  1  0.25000000  0.41735918  0.28634222  1
  Ba  Ba5  1  0.75000000  0.58264082  0.71365778  1
  Ba  Ba6  1  0.25000000  0.91735918  0.21365778  1
  Ba  Ba7  1  0.75000000  0.08264082  0.78634222  1
  Mn  Mn0  1  0.75000000  0.12803843  0.36660978  1
  Mn  Mn1  1  0.75000000  0.62803843  0.13339022  1
  Mn  Mn2  1  0.25000000  0.87196157  0.63339022  1
  Mn  Mn3  1  0.25000000  0.37196157  0.86660978  1
  S  S0  1  0.25000000  0.00479485  0.39861466  1
  S  S1  1  0.75000000  0.99520515  0.60138534  1
  S  S2  1  0.25000000  0.50479485  0.10138534  1
  S  S3  1  0.75000000  0.49520515  0.89861466  1
  S  S4  1  0.25000000  0.12985255  0.92736452  1
  S  S5  1  0.75000000  0.87014745  0.07263548  1
  S  S6  1  0.25000000  0.62985255  0.57263548  1
  S  S7  1  0.75000000  0.17882572  0.22916892  1
  S  S8  1  0.25000000  0.32117428  0.72916892  1
  S  S9  1  0.75000000  0.67882572  0.27083108  1
  S  S10  1  0.25000000  0.82117428  0.77083108  1
  S  S11  1  0.75000000  0.37014745  0.42736452  1
loop_
_geom_bond_atom_site_label_1
_geom_bond_atom_site_label_2
_geom_bond_distance
_geom_bond_site_symmetry_2
Ba0 S5 3.123408 1_556
Ba0 S5 3.123408 1_456
Ba0 S10 3.246545 1_555
Ba0 S3 3.337042 1_455
Ba0 S3 3.337042 1_555
Ba0 S4 3.358236 1_565
Ba0 S2 3.359917 1_556
Ba1 S6 3.123408 1_555
Ba1 S6 3.123408 1_655
Ba1 S9 3.246545 1_555
Ba1 S0 3.337042 1_665
Ba1 S0 3.337042 1_565
Ba1 S11 3.358236 1_555
Ba1 S1 3.359917 1_555
Ba2 S11 3.123408 1_555
Ba2 S11 3.123408 1_455
Ba2 S8 3.246545 1_555
Ba2 S1 3.337042 1_545
Ba2 S1 3.337042 1_445
Ba2 S6 3.358236 1_555
Ba2 S0 3.359917 1_555
Ba3 S4 3.123408 1_554
Ba3 S4 3.123408 1_654
Ba3 S7 3.246545 1_555
Ba3 S2 3.337042 1_555
Ba3 S2 3.337042 1_655
Ba3 S5 3.358236 1_545
Ba3 S3 3.359917 1_554
Ba4 S7 3.193910 1_555
Ba4 S7 3.193910 1_455
Ba4 S9 3.195478 1_555
Ba4 S9 3.195478 1_455
Ba4 S2 3.280736 1_555
Ba4 S11 3.286466 1_555
Ba4 S11 3.286466 1_455
Ba5 S10 3.193910 1_555
Ba5 S10 3.193910 1_655
Ba5 S8 3.195478 1_655
Ba5 S8 3.195478 1_555
Ba5 S3 3.280736 1_555
Ba5 S6 3.286466 1_655
Ba5 S6 3.286466 1_555
Ba6 S9 3.193910 1_455
Ba6 S9 3.193910 1_555
Ba6 S7 3.195478 1_565
Ba6 S7 3.195478 1_465
Ba6 S0 3.280736 1_565
Ba6 S5 3.286466 1_455
Ba6 S5 3.286466 1_555
Ba7 S8 3.193910 1_555
Ba7 S8 3.193910 1_655
Ba7 S10 3.195478 1_645
Ba7 S10 3.195478 1_545
Ba7 S1 3.280736 1_545
Ba7 S4 3.286466 1_555
Ba7 S4 3.286466 1_655
Mn0 S11 2.396533 1_555
Mn0 S7 2.411053 1_555
Mn0 S0 2.495544 1_555
Mn0 S0 2.495544 1_655
Mn1 S5 2.396533 1_555
Mn1 S9 2.411053 1_555
Mn1 S2 2.495544 1_555
Mn1 S2 2.495544 1_655
Mn2 S6 2.396533 1_555
Mn2 S10 2.411053 1_555
Mn2 S1 2.495544 1_555
Mn2 S1 2.495544 1_455
Mn3 S4 2.396533 1_555
Mn3 S8 2.411053 1_555
Mn3 S3 2.495544 1_455
Mn3 S3 2.495544 1_555
