# generated using pymatgen
data_BaEu3
_symmetry_space_group_name_H-M   'P 1'
_cell_length_a   8.24872714
_cell_length_b   8.24872714
_cell_length_c   6.65840200
_cell_angle_alpha   90.00000000
_cell_angle_beta   90.00000000
_cell_angle_gamma   119.99999308
_symmetry_Int_Tables_number   1
_chemical_formula_structural   BaEu3
_chemical_formula_sum   'Ba2 Eu6'
_cell_volume   392.35080618
_cell_formula_units_Z   2
loop_
 _symmetry_equiv_pos_site_id
 _symmetry_equiv_pos_as_xyz
  1  'x, y, z'
loop_
 _atom_site_type_symbol
 _atom_site_label
 _atom_site_symmetry_multiplicity
 _atom_site_fract_x
 _atom_site_fract_y
 _atom_site_fract_z
 _atom_site_occupancy
  Ba  Ba0  1  0.33333300  0.66666700  0.75000000  1
  Ba  Ba1  1  0.66666700  0.33333300  0.25000000  1
  Eu  Eu0  1  0.16427700  0.32855500  0.25000000  1
  Eu  Eu1  1  0.67144500  0.83572300  0.25000000  1
  Eu  Eu2  1  0.16427700  0.83572300  0.25000000  1
  Eu  Eu3  1  0.83572300  0.67144500  0.75000000  1
  Eu  Eu4  1  0.32855500  0.16427700  0.75000000  1
  Eu  Eu5  1  0.83572300  0.16427700  0.75000000  1
loop_
_geom_bond_atom_site_label_1
_geom_bond_atom_site_label_2
_geom_bond_distance
_geom_bond_site_symmetry_2
Ba0 Eu2 4.113082 1_555
Ba0 Eu2 4.113082 1_556
Ba0 Eu0 4.113082 1_555
Ba0 Eu0 4.113082 1_556
Ba0 Eu1 4.113082 1_555
Ba0 Eu1 4.113082 1_556
Ba0 Eu3 4.124497 1_455
Ba0 Eu4 4.124497 1_565
Ba0 Eu5 4.124505 1_565
Ba0 Eu5 4.124505 1_455
Ba0 Eu4 4.124513 1_555
Ba0 Eu3 4.124513 1_555
Ba1 Eu5 4.113082 1_555
Ba1 Eu5 4.113082 1_554
Ba1 Eu3 4.113082 1_555
Ba1 Eu4 4.113082 1_554
Ba1 Eu3 4.113082 1_554
Ba1 Eu4 4.113082 1_555
Ba1 Eu1 4.124497 1_545
Ba1 Eu0 4.124497 1_655
Ba1 Eu2 4.124505 1_545
Ba1 Eu2 4.124505 1_655
Ba1 Eu1 4.124513 1_555
Ba1 Eu0 4.124513 1_555
Eu0 Eu2 4.065237 1_545
Eu0 Eu1 4.065237 1_445
Eu0 Eu5 4.073362 1_454
Eu0 Eu5 4.073362 1_455
Eu0 Eu4 4.073370 1_554
Eu0 Eu4 4.073370 1_555
Eu0 Eu2 4.183490 1_555
Eu0 Eu1 4.183491 1_555
Eu1 Eu2 4.065237 1_655
Eu1 Eu5 4.073362 1_565
Eu1 Eu5 4.073362 1_564
Eu1 Eu3 4.073370 1_555
Eu1 Eu3 4.073370 1_554
Eu1 Eu2 4.183490 1_555
Eu2 Eu4 4.073362 1_564
Eu2 Eu3 4.073362 1_455
Eu2 Eu3 4.073362 1_454
Eu2 Eu4 4.073362 1_565
Eu3 Eu5 4.065237 1_565
Eu3 Eu4 4.065237 1_665
Eu3 Eu5 4.183490 1_555
Eu3 Eu4 4.183491 1_555
Eu4 Eu5 4.065237 1_455
Eu4 Eu5 4.183490 1_555
