# generated using pymatgen
data_Ca2Cu
_symmetry_space_group_name_H-M   'P 1'
_cell_length_a   4.12390800
_cell_length_b   6.06484848
_cell_length_c   14.65520553
_cell_angle_alpha   90.00000000
_cell_angle_beta   90.00000000
_cell_angle_gamma   90.00000000
_symmetry_Int_Tables_number   1
_chemical_formula_structural   Ca2Cu
_chemical_formula_sum   'Ca8 Cu4'
_cell_volume   366.53954535
_cell_formula_units_Z   4
loop_
 _symmetry_equiv_pos_site_id
 _symmetry_equiv_pos_as_xyz
  1  'x, y, z'
loop_
 _atom_site_type_symbol
 _atom_site_label
 _atom_site_symmetry_multiplicity
 _atom_site_fract_x
 _atom_site_fract_y
 _atom_site_fract_z
 _atom_site_occupancy
  Ca  Ca0  1  0.75000000  0.63030299  0.33458612  1
  Ca  Ca1  1  0.25000000  0.36969601  0.66541388  1
  Ca  Ca2  1  0.75000000  0.13030299  0.16541388  1
  Ca  Ca3  1  0.25000000  0.86969701  0.83458612  1
  Ca  Ca4  1  0.75000000  0.86663257  0.59136008  1
  Ca  Ca5  1  0.25000000  0.13336743  0.40863992  1
  Ca  Ca6  1  0.75000000  0.36663257  0.90863992  1
  Ca  Ca7  1  0.25000000  0.63336743  0.09136008  1
  Cu  Cu0  1  0.75000000  0.89767863  0.98539292  1
  Cu  Cu1  1  0.25000000  0.10232137  0.01460708  1
  Cu  Cu2  1  0.75000000  0.39767863  0.51460708  1
  Cu  Cu3  1  0.25000000  0.60232137  0.48539292  1
loop_
_geom_bond_atom_site_label_1
_geom_bond_atom_site_label_2
_geom_bond_distance
_geom_bond_site_symmetry_2
Ca0 Cu2 2.991785 1_555
Ca0 Cu3 3.027378 1_555
Ca0 Cu3 3.027378 1_655
Ca1 Cu3 2.991788 1_555
Ca1 Cu2 3.027378 1_555
Ca1 Cu2 3.027378 1_455
Ca2 Cu0 2.991785 1_544
Ca2 Cu1 3.027378 1_655
Ca2 Cu1 3.027378 1_555
Ca3 Cu1 2.991785 1_566
Ca3 Cu0 3.027378 1_555
Ca3 Cu0 3.027378 1_455
Ca4 Cu3 3.038586 1_555
Ca4 Cu3 3.038586 1_655
Ca4 Cu2 3.058488 1_555
Ca4 Cu2 3.411487 1_565
Ca5 Cu2 3.038586 1_455
Ca5 Cu2 3.038586 1_555
Ca5 Cu3 3.058488 1_555
Ca5 Cu3 3.411487 1_545
Ca6 Cu1 3.038586 1_656
Ca6 Cu1 3.038586 1_556
Ca6 Cu0 3.058488 1_545
Ca6 Cu0 3.411487 1_555
Ca7 Cu0 3.038586 1_454
Ca7 Cu0 3.038586 1_554
Ca7 Cu1 3.058488 1_565
Ca7 Cu1 3.411487 1_555
Cu0 Cu1 2.444454 1_566
Cu0 Cu1 2.444454 1_666
Cu2 Cu3 2.444454 1_655
Cu2 Cu3 2.444454 1_555
