# generated using pymatgen
data_MgSnF5
_symmetry_space_group_name_H-M   'P 1'
_cell_length_a   10.30862800
_cell_length_b   5.36378500
_cell_length_c   8.06170992
_cell_angle_alpha   73.04423586
_cell_angle_beta   90.00000000
_cell_angle_gamma   90.00000000
_symmetry_Int_Tables_number   1
_chemical_formula_structural   MgSnF5
_chemical_formula_sum   'Mg4 Sn4 F20'
_cell_volume   426.38123442
_cell_formula_units_Z   4
loop_
 _symmetry_equiv_pos_site_id
 _symmetry_equiv_pos_as_xyz
  1  'x, y, z'
loop_
 _atom_site_type_symbol
 _atom_site_label
 _atom_site_symmetry_multiplicity
 _atom_site_fract_x
 _atom_site_fract_y
 _atom_site_fract_z
 _atom_site_occupancy
  Mg  Mg0  1  0.00718700  0.51209500  0.78898300  1
  Mg  Mg1  1  0.50718700  0.48790500  0.71101700  1
  Mg  Mg2  1  0.99281300  0.48790500  0.21101700  1
  Mg  Mg3  1  0.49281300  0.51209500  0.28898300  1
  Sn  Sn0  1  0.76236500  0.09543900  0.61197200  1
  Sn  Sn1  1  0.26236500  0.90456100  0.88802800  1
  Sn  Sn2  1  0.23763500  0.90456100  0.38802800  1
  Sn  Sn3  1  0.73763500  0.09543900  0.11197200  1
  F  F0  1  0.89932900  0.38558800  0.62650200  1
  F  F1  1  0.39932900  0.61441200  0.87349800  1
  F  F2  1  0.10067100  0.61441200  0.37349800  1
  F  F3  1  0.60067100  0.38558800  0.12650200  1
  F  F4  1  0.59552800  0.35640800  0.50678700  1
  F  F5  1  0.09552800  0.64359200  0.99321300  1
  F  F6  1  0.40447200  0.64359200  0.49321300  1
  F  F7  1  0.90447200  0.35640800  0.00678700  1
  F  F8  1  0.41399200  0.15820600  0.78302000  1
  F  F9  1  0.91399200  0.84179400  0.71698000  1
  F  F10  1  0.58600800  0.84179400  0.21698000  1
  F  F11  1  0.08600800  0.15820600  0.28302000  1
  F  F12  1  0.14074400  0.24464000  0.82506100  1
  F  F13  1  0.64074400  0.75536000  0.67493900  1
  F  F14  1  0.85925600  0.75536000  0.17493900  1
  F  F15  1  0.35925600  0.24464000  0.32506100  1
  F  F16  1  0.67873100  0.18236300  0.83864700  1
  F  F17  1  0.17873100  0.81763700  0.66135300  1
  F  F18  1  0.32126900  0.81763700  0.16135300  1
  F  F19  1  0.82126900  0.18236300  0.33864700  1
loop_
_geom_bond_atom_site_label_1
_geom_bond_atom_site_label_2
_geom_bond_distance
_geom_bond_site_symmetry_2
F0 Mg0 1.982645 1_655
F0 Sn0 2.129695 1_555
F1 Mg1 1.982645 1_555
F1 Sn1 2.129695 1_555
F2 Mg2 1.982645 1_455
F2 Sn2 2.129695 1_555
F3 Mg3 1.982645 1_555
F3 Sn3 2.129695 1_555
F4 Mg3 2.011558 1_555
F4 Mg1 2.171385 1_555
F4 Sn0 2.223520 1_555
F5 Mg2 2.011558 1_456
F5 Mg0 2.171385 1_555
F5 Sn1 2.223520 1_555
F6 Mg1 2.011558 1_555
F6 Mg3 2.171385 1_555
F6 Sn2 2.223520 1_555
F7 Mg0 2.011558 1_654
F7 Mg2 2.171385 1_555
F7 Sn3 2.223520 1_555
F8 Mg1 1.946417 1_555
F8 Sn1 2.083028 1_545
F9 Mg0 1.946417 1_655
F9 Sn0 2.083028 1_565
F10 Mg3 1.946417 1_555
F10 Sn3 2.083028 1_565
F11 Mg2 1.946417 1_455
F11 Sn2 2.083028 1_545
F12 Mg0 1.948017 1_555
F12 Sn1 2.148687 1_545
F13 Mg1 1.948017 1_555
F13 Sn0 2.148687 1_565
F14 Mg2 1.948017 1_555
F14 Sn3 2.148687 1_565
F15 Mg3 1.948017 1_555
F15 Sn2 2.148687 1_545
F16 Sn0 2.190201 1_555
F16 Sn3 2.200487 1_556
F16 Mg1 2.426557 1_555
F17 Sn1 2.190201 1_555
F17 Sn2 2.200487 1_555
F17 Mg0 2.426557 1_555
F18 Sn2 2.190201 1_555
F18 Sn1 2.200487 1_554
F18 Mg3 2.426557 1_555
F19 Sn3 2.190201 1_555
F19 Sn0 2.200487 1_555
F19 Mg2 2.426557 1_555
