# generated using pymatgen
data_CeFeSb2
_symmetry_space_group_name_H-M   'P 1'
_cell_length_a   4.33860400
_cell_length_b   4.33860400
_cell_length_c   9.64555800
_cell_angle_alpha   90.00000000
_cell_angle_beta   90.00000000
_cell_angle_gamma   90.00000000
_symmetry_Int_Tables_number   1
_chemical_formula_structural   CeFeSb2
_chemical_formula_sum   'Ce2 Fe2 Sb4'
_cell_volume   181.56301314
_cell_formula_units_Z   2
loop_
 _symmetry_equiv_pos_site_id
 _symmetry_equiv_pos_as_xyz
  1  'x, y, z'
loop_
 _atom_site_type_symbol
 _atom_site_label
 _atom_site_symmetry_multiplicity
 _atom_site_fract_x
 _atom_site_fract_y
 _atom_site_fract_z
 _atom_site_occupancy
  Ce  Ce0  1  0.00000000  0.50000000  0.73423400  1
  Ce  Ce1  1  0.50000000  0.00000000  0.26576600  1
  Fe  Fe0  1  0.50000000  0.50000000  0.50000000  1
  Fe  Fe1  1  0.00000000  0.00000000  0.50000000  1
  Sb  Sb0  1  0.50000000  0.50000000  0.00000000  1
  Sb  Sb1  1  0.00000000  0.00000000  0.00000000  1
  Sb  Sb2  1  0.00000000  0.50000000  0.35848300  1
  Sb  Sb3  1  0.50000000  0.00000000  0.64151700  1
loop_
_geom_bond_atom_site_label_1
_geom_bond_atom_site_label_2
_geom_bond_distance
_geom_bond_site_symmetry_2
Ce0 Fe1 3.132154 1_555
Ce0 Fe1 3.132154 1_565
Ce0 Fe0 3.132154 1_455
Ce0 Fe0 3.132154 1_555
Ce0 Sb3 3.195548 1_555
Ce0 Sb3 3.195548 1_455
Ce0 Sb3 3.195548 1_565
Ce0 Sb3 3.195548 1_465
Ce0 Sb0 3.358155 1_456
Ce0 Sb1 3.358155 1_566
Ce0 Sb0 3.358155 1_556
Ce0 Sb1 3.358155 1_556
Ce1 Fe0 3.132154 1_555
Ce1 Fe1 3.132154 1_555
Ce1 Fe1 3.132154 1_655
Ce1 Fe0 3.132154 1_545
Ce1 Sb2 3.195548 1_655
Ce1 Sb2 3.195548 1_645
Ce1 Sb2 3.195548 1_545
Ce1 Sb2 3.195548 1_555
Ce1 Sb0 3.358155 1_555
Ce1 Sb0 3.358155 1_545
Ce1 Sb1 3.358155 1_655
Ce1 Sb1 3.358155 1_555
Fe0 Sb3 2.563030 1_565
Fe0 Sb2 2.563030 1_555
Fe0 Sb3 2.563030 1_555
Fe0 Sb2 2.563030 1_655
Fe1 Sb3 2.563030 1_455
Fe1 Sb2 2.563030 1_545
Fe1 Sb2 2.563030 1_555
Fe1 Sb3 2.563030 1_555
Sb0 Sb1 3.067856 1_665
Sb0 Sb1 3.067856 1_565
Sb0 Sb1 3.067856 1_655
Sb0 Sb1 3.067856 1_555
