# generated using pymatgen
data_RbTaGeO5
_symmetry_space_group_name_H-M   'P 1'
_cell_length_a   7.54123976
_cell_length_b   10.53036208
_cell_length_c   20.89603572
_cell_angle_alpha   90.00000000
_cell_angle_beta   90.00000000
_cell_angle_gamma   90.00000000
_symmetry_Int_Tables_number   1
_chemical_formula_structural   RbTaGeO5
_chemical_formula_sum   'Rb12 Ta12 Ge12 O60'
_cell_volume   1659.39567944
_cell_formula_units_Z   12
loop_
 _symmetry_equiv_pos_site_id
 _symmetry_equiv_pos_as_xyz
  1  'x, y, z'
loop_
 _atom_site_type_symbol
 _atom_site_label
 _atom_site_symmetry_multiplicity
 _atom_site_fract_x
 _atom_site_fract_y
 _atom_site_fract_z
 _atom_site_occupancy
  Rb  Rb0  1  0.24023251  0.38133343  0.34920487  1
  Rb  Rb1  1  0.25976749  0.61866657  0.84920487  1
  Rb  Rb2  1  0.75976749  0.88133343  0.15079513  1
  Rb  Rb3  1  0.74023251  0.11866657  0.65079513  1
  Rb  Rb4  1  0.25920737  0.68535913  0.16651310  1
  Rb  Rb5  1  0.24079263  0.31464087  0.66651310  1
  Rb  Rb6  1  0.74079263  0.18535913  0.33348690  1
  Rb  Rb7  1  0.75920737  0.81464087  0.83348690  1
  Rb  Rb8  1  0.22229851  0.38651899  0.01703834  1
  Rb  Rb9  1  0.27770149  0.61348101  0.51703834  1
  Rb  Rb10  1  0.77770149  0.88651899  0.48296166  1
  Rb  Rb11  1  0.72229851  0.11348101  0.98296166  1
  Ta  Ta0  1  0.25385442  0.02026111  0.40024874  1
  Ta  Ta1  1  0.24614558  0.97973889  0.90024874  1
  Ta  Ta2  1  0.74614558  0.52026111  0.09975126  1
  Ta  Ta3  1  0.75385442  0.47973889  0.59975126  1
  Ta  Ta4  1  0.48726058  0.25973235  0.49976198  1
  Ta  Ta5  1  0.01273942  0.74026765  0.99976198  1
  Ta  Ta6  1  0.51273942  0.75973235  0.00023802  1
  Ta  Ta7  1  0.98726058  0.24026765  0.50023802  1
  Ta  Ta8  1  0.24031871  0.01448620  0.07399583  1
  Ta  Ta9  1  0.25968129  0.98551380  0.57399583  1
  Ta  Ta10  1  0.75968129  0.51448620  0.42600417  1
  Ta  Ta11  1  0.74031871  0.48551380  0.92600417  1
  Ge  Ge0  1  0.51934467  0.24601737  0.14844451  1
  Ge  Ge1  1  0.98065533  0.75398263  0.64844451  1
  Ge  Ge2  1  0.48065533  0.74601737  0.35155549  1
  Ge  Ge3  1  0.01934467  0.25398263  0.85155549  1
  Ge  Ge4  1  0.23505080  0.11636089  0.23127323  1
  Ge  Ge5  1  0.26494920  0.88363911  0.73127323  1
  Ge  Ge6  1  0.76494920  0.61636089  0.26872677  1
  Ge  Ge7  1  0.73505080  0.38363911  0.76872677  1
  Ge  Ge8  1  0.06401651  0.73039949  0.35208691  1
  Ge  Ge9  1  0.43598349  0.26960051  0.85208691  1
  Ge  Ge10  1  0.93598349  0.23039949  0.14791309  1
  Ge  Ge11  1  0.56401651  0.76960051  0.64791309  1
  O  O0  1  0.06116880  0.10334845  0.56245697  1
  O  O1  1  0.43883120  0.89665155  0.06245697  1
  O  O2  1  0.93883120  0.60334845  0.93754303  1
  O  O3  1  0.56116880  0.39665155  0.43754303  1
  O  O4  1  0.24036393  0.08869595  0.31244080  1
  O  O5  1  0.25963607  0.91130405  0.81244080  1
  O  O6  1  0.75963607  0.58869595  0.18755920  1
  O  O7  1  0.74036393  0.41130405  0.68755920  1
  O  O8  1  0.03105879  0.13776886  0.08792263  1
  O  O9  1  0.46894121  0.86223114  0.58792263  1
  O  O10  1  0.96894121  0.63776886  0.41207737  1
  O  O11  1  0.53105879  0.36223114  0.91207737  1
  O  O12  1  0.03590481  0.20860815  0.22463403  1
  O  O13  1  0.46409519  0.79139185  0.72463403  1
  O  O14  1  0.96409519  0.70860815  0.27536597  1
  O  O15  1  0.53590481  0.29139185  0.77536597  1
  O  O16  1  0.41019404  0.16609768  0.08692016  1
  O  O17  1  0.08980596  0.83390232  0.58692016  1
  O  O18  1  0.58980596  0.66609768  0.41307984  1
  O  O19  1  0.91019404  0.33390232  0.91307984  1
  O  O20  1  0.40958527  0.23162283  0.22369033  1
  O  O21  1  0.09041473  0.76837717  0.72369033  1
  O  O22  1  0.59041473  0.73162283  0.27630967  1
  O  O23  1  0.90958527  0.26837717  0.77630967  1
  O  O24  1  0.23746721  0.31167213  0.50151746  1
  O  O25  1  0.26253279  0.68832787  0.00151746  1
  O  O26  1  0.76253279  0.81167213  0.99848254  1
  O  O27  1  0.73746721  0.18832787  0.49848254  1
  O  O28  1  0.42761723  0.14635607  0.42530420  1
  O  O29  1  0.07238277  0.85364393  0.92530420  1
  O  O30  1  0.57238277  0.64635607  0.07469580  1
  O  O31  1  0.92761723  0.35364393  0.57469580  1
  O  O32  1  0.73458105  0.43856713  0.01446260  1
  O  O33  1  0.76541895  0.56143287  0.51446260  1
  O  O34  1  0.26541895  0.93856713  0.48553740  1
  O  O35  1  0.23458105  0.06143287  0.98553740  1
  O  O36  1  0.05586426  0.12597298  0.42889150  1
  O  O37  1  0.44413574  0.87402702  0.92889150  1
  O  O38  1  0.94413574  0.62597298  0.07110850  1
  O  O39  1  0.55586426  0.37402702  0.57110850  1
  O  O40  1  0.72220953  0.16375911  0.16444788  1
  O  O41  1  0.77779047  0.83624089  0.66444788  1
  O  O42  1  0.27779047  0.66375911  0.33555212  1
  O  O43  1  0.22220953  0.33624089  0.83555212  1
  O  O44  1  0.24618284  0.99324927  0.17509617  1
  O  O45  1  0.25381716  0.00675073  0.67509617  1
  O  O46  1  0.75381716  0.49324927  0.32490383  1
  O  O47  1  0.74618284  0.50675073  0.82490383  1
  O  O48  1  0.54447427  0.40521496  0.12991694  1
  O  O49  1  0.95552573  0.59478504  0.62991694  1
  O  O50  1  0.45552573  0.90521496  0.37008306  1
  O  O51  1  0.04447427  0.09478504  0.87008306  1
  O  O52  1  0.06618836  0.88887236  0.37350445  1
  O  O53  1  0.43381164  0.11112764  0.87350445  1
  O  O54  1  0.93381164  0.38887236  0.12649555  1
  O  O55  1  0.56618836  0.61112764  0.62649555  1
  O  O56  1  0.42535168  0.12444191  0.56494672  1
  O  O57  1  0.07464832  0.87555809  0.06494672  1
  O  O58  1  0.57464832  0.62444191  0.93505328  1
  O  O59  1  0.92535168  0.37555809  0.43505328  1
loop_
_geom_bond_atom_site_label_1
_geom_bond_atom_site_label_2
_geom_bond_distance
_geom_bond_site_symmetry_2
Ge0 O48 1.730938 1_555
Ge0 O16 1.743162 1_555
Ge0 O20 1.783354 1_555
Ge0 O40 1.789580 1_555
Ge1 O49 1.730938 1_555
Ge1 O17 1.743162 1_655
Ge1 O21 1.783354 1_655
Ge1 O41 1.789580 1_555
Ge2 O50 1.730938 1_555
Ge2 O18 1.743162 1_555
Ge2 O22 1.783354 1_555
Ge2 O42 1.789580 1_555
Ge3 O51 1.730938 1_555
Ge3 O19 1.743162 1_455
Ge3 O23 1.783354 1_455
Ge3 O43 1.789580 1_555
Ge4 O4 1.721384 1_555
Ge4 O44 1.750918 1_545
Ge4 O12 1.793958 1_555
Ge4 O20 1.797413 1_555
Ge5 O5 1.721384 1_555
Ge5 O45 1.750918 1_565
Ge5 O13 1.793958 1_555
Ge5 O21 1.797413 1_555
Ge6 O6 1.721384 1_555
Ge6 O46 1.750918 1_555
Ge6 O14 1.793958 1_555
Ge6 O22 1.797413 1_555
Ge7 O7 1.721384 1_555
Ge7 O47 1.750918 1_555
Ge7 O15 1.793958 1_555
Ge7 O23 1.797413 1_555
Ge8 O52 1.727824 1_555
Ge8 O10 1.742687 1_455
Ge8 O14 1.786225 1_455
Ge8 O42 1.791860 1_555
Ge9 O53 1.727824 1_555
Ge9 O11 1.742687 1_555
Ge9 O15 1.786225 1_555
Ge9 O43 1.791860 1_555
Ge10 O54 1.727824 1_555
Ge10 O8 1.742687 1_655
Ge10 O12 1.786225 1_655
Ge10 O40 1.791860 1_555
Ge11 O55 1.727824 1_555
Ge11 O9 1.742687 1_555
Ge11 O13 1.786225 1_555
Ge11 O41 1.791860 1_555
O0 Ta9 1.959317 1_545
O0 Ta7 2.019851 1_455
O0 Rb3 3.048127 1_455
O0 Rb5 3.393127 1_555
O0 Rb10 3.541545 1_445
O1 Ta8 1.959317 1_565
O1 Ta6 2.019851 1_555
O1 Rb2 3.048127 1_555
O1 Rb4 3.393127 1_555
O1 Rb11 3.541545 1_564
O2 Ta11 1.959317 1_555
O2 Ta5 2.019851 1_655
O2 Rb1 3.048127 1_655
O2 Rb7 3.393127 1_555
O2 Rb8 3.541545 1_656
O3 Ta10 1.959317 1_555
O3 Ta4 2.019851 1_555
O3 Rb0 3.048127 1_555
O3 Rb6 3.393127 1_555
O3 Rb9 3.541545 1_555
O4 Ta0 1.973907 1_555
O4 Rb0 3.175893 1_555
O5 Ta1 1.973907 1_555
O5 Rb1 3.175893 1_555
O6 Ta2 1.973907 1_555
O6 Rb2 3.175893 1_555
O7 Ta3 1.973907 1_555
O7 Rb3 3.175893 1_555
O8 Ta8 2.064068 1_555
O8 Rb11 3.208964 1_454
O8 Rb8 3.336954 1_555
O9 Ta9 2.064068 1_555
O9 Rb10 3.208964 1_555
O9 Rb9 3.336954 1_555
O10 Ta10 2.064068 1_555
O10 Rb9 3.208964 1_655
O10 Rb10 3.336954 1_555
O11 Ta11 2.064068 1_555
O11 Rb8 3.208964 1_556
O11 Rb11 3.336954 1_555
O12 Rb6 3.191648 1_455
O12 Rb0 3.529642 1_555
O13 Rb7 3.191648 1_555
O13 Rb1 3.529642 1_555
O14 Rb4 3.191648 1_655
O14 Rb2 3.529642 1_555
O15 Rb5 3.191648 1_555
O15 Rb3 3.529642 1_555
O16 Ta8 2.064695 1_555
O16 Rb8 3.086699 1_555
O16 Rb11 3.250487 1_554
O17 Ta9 2.064695 1_555
O17 Rb9 3.086699 1_555
O17 Rb10 3.250487 1_455
O18 Ta10 2.064695 1_555
O18 Rb10 3.086699 1_555
O18 Rb9 3.250487 1_555
O19 Ta11 2.064695 1_555
O19 Rb11 3.086699 1_555
O19 Rb8 3.250487 1_656
O20 Rb0 3.315914 1_555
O20 Rb6 3.426337 1_555
O21 Rb1 3.315914 1_555
O21 Rb7 3.426337 1_455
O22 Rb2 3.315914 1_555
O22 Rb4 3.426337 1_555
O23 Rb3 3.315914 1_555
O23 Rb5 3.426337 1_655
O24 Ta4 1.961891 1_555
O24 Ta7 2.031345 1_455
O24 Rb9 3.209039 1_555
O24 Rb0 3.266238 1_555
O24 Rb5 3.447988 1_555
O25 Ta5 1.961891 1_554
O25 Ta6 2.031345 1_555
O25 Rb8 3.209039 1_555
O25 Rb1 3.266238 1_554
O25 Rb4 3.447988 1_555
O26 Ta6 1.961891 1_556
O26 Ta5 2.031345 1_655
O26 Rb11 3.209039 1_565
O26 Rb2 3.266238 1_556
O26 Rb7 3.447988 1_555
O27 Ta7 1.961891 1_555
O27 Ta4 2.031345 1_555
O27 Rb10 3.209039 1_545
O27 Rb3 3.266238 1_555
O27 Rb6 3.447988 1_555
O28 Ta0 1.937614 1_555
O28 Ta4 2.012070 1_555
O28 Rb6 3.070432 1_555
O28 Rb0 3.263155 1_555
O29 Ta1 1.937614 1_555
O29 Ta5 2.012070 1_555
O29 Rb7 3.070432 1_455
O29 Rb1 3.263155 1_555
O30 Ta2 1.937614 1_555
O30 Ta6 2.012070 1_555
O30 Rb4 3.070432 1_555
O30 Rb2 3.263155 1_555
O31 Ta3 1.937614 1_555
O31 Ta7 2.012070 1_555
O31 Rb5 3.070432 1_655
O31 Rb3 3.263155 1_555
O32 Ta11 1.913887 1_554
O32 Ta2 1.980880 1_555
O32 Rb11 3.487216 1_554
O33 Ta10 1.913887 1_555
O33 Ta3 1.980880 1_555
O33 Rb10 3.487216 1_555
O34 Ta9 1.913887 1_555
O34 Ta0 1.980880 1_565
O34 Rb9 3.487216 1_555
O35 Ta8 1.913887 1_556
O35 Ta1 1.980880 1_545
O35 Rb8 3.487216 1_556
O36 Ta0 1.956202 1_555
O36 Ta7 1.984663 1_455
O36 Rb6 3.164008 1_455
O36 Rb0 3.454955 1_555
O36 Rb10 3.469154 1_445
O37 Ta1 1.956202 1_555
O37 Ta6 1.984663 1_556
O37 Rb7 3.164008 1_555
O37 Rb1 3.454955 1_555
O37 Rb11 3.469154 1_565
O38 Ta2 1.956202 1_555
O38 Ta5 1.984663 1_654
O38 Rb4 3.164008 1_655
O38 Rb2 3.454955 1_555
O38 Rb8 3.469154 1_655
O39 Ta3 1.956202 1_555
O39 Ta4 1.984663 1_555
O39 Rb5 3.164008 1_555
O39 Rb3 3.454955 1_555
O39 Rb9 3.469154 1_555
O40 Rb2 3.001092 1_545
O40 Rb6 3.542334 1_555
O41 Rb3 3.001092 1_565
O41 Rb7 3.542334 1_555
O42 Rb0 3.001092 1_555
O42 Rb4 3.542334 1_555
O43 Rb1 3.001092 1_555
O43 Rb5 3.542334 1_555
O44 Ta8 2.124860 1_565
O44 Rb4 3.248637 1_555
O45 Ta9 2.124860 1_545
O45 Rb5 3.248637 1_555
O46 Ta10 2.124860 1_555
O46 Rb6 3.248637 1_555
O47 Ta11 2.124860 1_555
O47 Rb7 3.248637 1_555
O48 Ta2 2.044016 1_555
O48 Rb8 3.391943 1_555
O49 Ta3 2.044016 1_555
O49 Rb9 3.391943 1_655
O50 Ta0 2.044016 1_565
O50 Rb10 3.391943 1_555
O51 Ta1 2.044016 1_545
O51 Rb11 3.391943 1_455
O52 Ta0 2.056568 1_565
O52 Rb10 3.156740 1_455
O53 Ta1 2.056568 1_545
O53 Rb11 3.156740 1_555
O54 Ta2 2.056568 1_555
O54 Rb8 3.156740 1_655
O55 Ta3 2.056568 1_555
O55 Rb9 3.156740 1_555
O56 Ta9 1.933111 1_545
O56 Ta4 2.025571 1_555
O56 Rb3 2.976648 1_555
O56 Rb5 3.233092 1_555
O57 Ta8 1.933111 1_565
O57 Ta5 2.025571 1_554
O57 Rb2 2.976648 1_455
O57 Rb4 3.233092 1_555
O58 Ta11 1.933111 1_555
O58 Ta6 2.025571 1_556
O58 Rb1 2.976648 1_555
O58 Rb7 3.233092 1_555
O59 Ta10 1.933111 1_555
O59 Ta7 2.025571 1_555
O59 Rb0 2.976648 1_655
O59 Rb6 3.233092 1_555
