# generated using pymatgen
data_Mg3V2O7
_symmetry_space_group_name_H-M   'P 1'
_cell_length_a   5.18707354
_cell_length_b   9.20331546
_cell_length_c   5.35252002
_cell_angle_alpha   90.00227439
_cell_angle_beta   89.99025379
_cell_angle_gamma   106.37251911
_symmetry_Int_Tables_number   1
_chemical_formula_structural   Mg3V2O7
_chemical_formula_sum   'Mg6 V4 O14'
_cell_volume   245.15854288
_cell_formula_units_Z   2
loop_
 _symmetry_equiv_pos_site_id
 _symmetry_equiv_pos_as_xyz
  1  'x, y, z'
loop_
 _atom_site_type_symbol
 _atom_site_label
 _atom_site_symmetry_multiplicity
 _atom_site_fract_x
 _atom_site_fract_y
 _atom_site_fract_z
 _atom_site_occupancy
  Mg  Mg0  1  0.75320800  0.00000600  0.69943500  1
  Mg  Mg1  1  0.24694800  0.00007600  0.19955400  1
  Mg  Mg2  1  0.57026000  0.61472700  0.81667800  1
  Mg  Mg3  1  0.42962500  0.38528700  0.31660800  1
  Mg  Mg4  1  0.95551900  0.38529300  0.81671200  1
  Mg  Mg5  1  0.04435400  0.61468300  0.31656400  1
  V  V0  1  0.64610500  0.79038800  0.25339600  1
  V  V1  1  0.85562400  0.20958000  0.25342900  1
  V  V2  1  0.35389100  0.20961500  0.75341600  1
  V  V3  1  0.14434700  0.79041000  0.75339900  1
  O  O0  1  0.36812200  0.99999200  0.80954100  1
  O  O1  1  0.63180800  0.00000600  0.30966000  1
  O  O2  1  0.92933800  0.58958700  0.69552500  1
  O  O3  1  0.07069100  0.41041900  0.19553300  1
  O  O4  1  0.66030600  0.58953300  0.19544500  1
  O  O5  1  0.33973600  0.41043000  0.69561300  1
  O  O6  1  0.30444500  0.73810700  0.05847000  1
  O  O7  1  0.69563600  0.26183600  0.55857600  1
  O  O8  1  0.43391600  0.73820300  0.55852600  1
  O  O9  1  0.56614900  0.26177500  0.05857000  1
  O  O10  1  0.84873600  0.84277700  0.93133000  1
  O  O11  1  0.15126500  0.15727300  0.43135700  1
  O  O12  1  0.00590700  0.15722800  0.93136300  1
  O  O13  1  0.99406300  0.84276800  0.43130600  1
loop_
_geom_bond_atom_site_label_1
_geom_bond_atom_site_label_2
_geom_bond_distance
_geom_bond_site_symmetry_2
Mg0 O12 2.069794 1_655
Mg0 O10 2.069936 1_545
Mg0 O0 2.082466 1_545
Mg0 O1 2.179344 1_555
Mg0 O11 2.594491 1_655
Mg0 O13 2.594827 1_545
Mg0 O8 2.620661 1_545
Mg0 O7 2.621108 1_555
Mg1 O11 2.069596 1_555
Mg1 O13 2.069864 1_445
Mg1 O1 2.081743 1_555
Mg1 O0 2.180083 1_544
Mg1 O12 2.595377 1_554
Mg1 O10 2.595860 1_444
Mg1 O9 2.619784 1_555
Mg1 O6 2.622442 1_545
Mg2 O5 2.029184 1_555
Mg2 O8 2.038226 1_555
Mg2 O2 2.045904 1_555
Mg2 O4 2.107965 1_556
Mg2 O10 2.271384 1_555
Mg2 O6 2.397360 1_556
Mg3 O4 2.029180 1_555
Mg3 O9 2.038276 1_555
Mg3 O3 2.045247 1_555
Mg3 O5 2.108734 1_555
Mg3 O11 2.270964 1_555
Mg3 O7 2.399306 1_555
Mg4 O2 2.029373 1_555
Mg4 O7 2.038192 1_555
Mg4 O5 2.045777 1_655
Mg4 O3 2.108130 1_656
Mg4 O12 2.271552 1_655
Mg4 O9 2.398361 1_556
Mg5 O3 2.029049 1_555
Mg5 O6 2.038222 1_555
Mg5 O4 2.045175 1_455
Mg5 O2 2.108461 1_455
Mg5 O13 2.271602 1_455
Mg5 O8 2.399693 1_555
O0 V3 1.973814 1_555
O0 V2 1.974323 1_565
O1 V1 1.973857 1_555
O1 V0 1.974470 1_545
O2 V3 1.895722 1_655
O3 V1 1.895917 1_455
O4 V0 1.896160 1_555
O5 V2 1.895621 1_555
O6 V3 1.952839 1_554
O6 V0 1.995167 1_555
O7 V1 1.952470 1_555
O7 V2 1.994998 1_555
O8 V0 1.952153 1_555
O8 V3 1.995288 1_555
O9 V2 1.952699 1_554
O9 V1 1.995086 1_555
O10 V3 1.976505 1_655
O10 V0 2.005658 1_556
O11 V1 1.976643 1_455
O11 V2 2.005848 1_555
O12 V2 1.976503 1_555
O12 V1 2.005676 1_456
O13 V0 1.976572 1_555
O13 V3 2.006083 1_655
