# generated using pymatgen
data_KH2OsNCl4
_symmetry_space_group_name_H-M   'P 1'
_cell_length_a   8.05953206
_cell_length_b   8.05953206
_cell_length_c   7.68694700
_cell_angle_alpha   90.00000000
_cell_angle_beta   90.00000000
_cell_angle_gamma   115.04626023
_symmetry_Int_Tables_number   1
_chemical_formula_structural   KH2OsNCl4
_chemical_formula_sum   'K2 H4 Os2 N2 Cl8'
_cell_volume   452.36143235
_cell_formula_units_Z   2
loop_
 _symmetry_equiv_pos_site_id
 _symmetry_equiv_pos_as_xyz
  1  'x, y, z'
loop_
 _atom_site_type_symbol
 _atom_site_label
 _atom_site_symmetry_multiplicity
 _atom_site_fract_x
 _atom_site_fract_y
 _atom_site_fract_z
 _atom_site_occupancy
  K  K0  1  0.35308700  0.64691300  0.65101400  1
  K  K1  1  0.64691300  0.35308700  0.15101400  1
  H  H0  1  0.57289200  0.42710800  0.50686700  1
  H  H1  1  0.42710800  0.57289200  0.00686700  1
  H  H2  1  0.85748500  0.14251500  0.06222400  1
  H  H3  1  0.14251500  0.85748500  0.56222400  1
  Os  Os0  1  0.84523700  0.15476300  0.71020400  1
  Os  Os1  1  0.15476300  0.84523700  0.21020400  1
  N  N0  1  0.83777400  0.16222600  0.49543900  1
  N  N1  1  0.16222600  0.83777400  0.99543900  1
  Cl  Cl0  1  0.91168100  0.45529400  0.79679500  1
  Cl  Cl1  1  0.08831900  0.54470600  0.29679500  1
  Cl  Cl2  1  0.45529400  0.91168100  0.29679500  1
  Cl  Cl3  1  0.54470600  0.08831900  0.79679500  1
  Cl  Cl4  1  0.15045600  0.21902800  0.77233100  1
  Cl  Cl5  1  0.84954400  0.78097200  0.27233100  1
  Cl  Cl6  1  0.21902800  0.15045600  0.27233100  1
  Cl  Cl7  1  0.78097200  0.84954400  0.77233100  1
loop_
_geom_bond_atom_site_label_1
_geom_bond_atom_site_label_2
_geom_bond_distance
_geom_bond_site_symmetry_2
H0 K1 2.914736 1_555
H1 K0 2.914736 1_554
H2 K1 2.943615 1_555
H3 K0 2.943615 1_555
N0 Os0 1.654003 1_555
N1 Os1 1.654003 1_556
Cl0 Os0 2.344855 1_555
Cl0 K1 3.340325 1_556
Cl0 K0 3.412470 1_655
Cl1 Os1 2.344855 1_555
Cl1 K0 3.340325 1_555
Cl1 K1 3.412470 1_455
Cl2 Os1 2.344855 1_555
Cl2 K0 3.340325 1_555
Cl2 K1 3.412470 1_565
Cl3 Os0 2.344855 1_555
Cl3 K1 3.340325 1_556
Cl3 K0 3.412470 1_545
Cl4 Os0 2.338540 1_455
Cl4 K0 3.265077 1_555
Cl5 Os1 2.338540 1_655
Cl5 K1 3.265077 1_555
Cl6 Os1 2.338540 1_545
Cl6 K1 3.265077 1_555
Cl7 Os0 2.338540 1_565
Cl7 K0 3.265077 1_555
