# generated using pymatgen
data_BaH2(S2O3)2
_symmetry_space_group_name_H-M   'P 1'
_cell_length_a   9.78410500
_cell_length_b   5.79178000
_cell_length_c   18.44232945
_cell_angle_alpha   84.53271766
_cell_angle_beta   90.00000000
_cell_angle_gamma   90.00000000
_symmetry_Int_Tables_number   1
_chemical_formula_structural   BaH2(S2O3)2
_chemical_formula_sum   'Ba4 H8 S16 O24'
_cell_volume   1040.32425282
_cell_formula_units_Z   4
loop_
 _symmetry_equiv_pos_site_id
 _symmetry_equiv_pos_as_xyz
  1  'x, y, z'
loop_
 _atom_site_type_symbol
 _atom_site_label
 _atom_site_symmetry_multiplicity
 _atom_site_fract_x
 _atom_site_fract_y
 _atom_site_fract_z
 _atom_site_occupancy
  Ba  Ba0  1  0.40930300  0.74300300  0.13924400  1
  Ba  Ba1  1  0.59069700  0.25699700  0.86075600  1
  Ba  Ba2  1  0.90930300  0.25699700  0.36075600  1
  Ba  Ba3  1  0.09069700  0.74300300  0.63924400  1
  H  H0  1  0.62748100  0.48277500  0.33962300  1
  H  H1  1  0.37251900  0.51722500  0.66037700  1
  H  H2  1  0.12748100  0.51722500  0.16037700  1
  H  H3  1  0.87251900  0.48277500  0.83962300  1
  H  H4  1  0.55571500  0.24934000  0.12867700  1
  H  H5  1  0.44428500  0.75066000  0.87132300  1
  H  H6  1  0.05571500  0.75066000  0.37132300  1
  H  H7  1  0.94428500  0.24934000  0.62867700  1
  S  S0  1  0.89878800  0.68266900  0.05386300  1
  S  S1  1  0.10121200  0.31733100  0.94613700  1
  S  S2  1  0.39878800  0.31733100  0.44613700  1
  S  S3  1  0.60121200  0.68266900  0.55386300  1
  S  S4  1  0.79930500  0.80153300  0.21870300  1
  S  S5  1  0.20069500  0.19846700  0.78129700  1
  S  S6  1  0.29930500  0.19846700  0.28129700  1
  S  S7  1  0.70069500  0.80153300  0.71870300  1
  S  S8  1  0.89846600  0.94020300  0.11894300  1
  S  S9  1  0.10153400  0.05979700  0.88105700  1
  S  S10  1  0.39846600  0.05979700  0.38105700  1
  S  S11  1  0.60153400  0.94020300  0.61894300  1
  S  S12  1  0.79062600  0.72318900  0.49161000  1
  S  S13  1  0.20937400  0.27681100  0.50839000  1
  S  S14  1  0.29062600  0.27681100  0.00839000  1
  S  S15  1  0.70937400  0.72318900  0.99161000  1
  O  O0  1  0.76504100  0.88077100  0.42550100  1
  O  O1  1  0.23495900  0.11922900  0.57449900  1
  O  O2  1  0.26504100  0.11922900  0.07449900  1
  O  O3  1  0.73495900  0.88077100  0.92550100  1
  O  O4  1  0.79993700  0.01429100  0.25637200  1
  O  O5  1  0.20006300  0.98570900  0.74362800  1
  O  O6  1  0.29993700  0.98570900  0.24362800  1
  O  O7  1  0.70006300  0.01429100  0.75637200  1
  O  O8  1  0.88549200  0.61526400  0.25390900  1
  O  O9  1  0.11450800  0.38473600  0.74609100  1
  O  O10  1  0.38549200  0.38473600  0.24609100  1
  O  O11  1  0.61450800  0.61526400  0.75390900  1
  O  O12  1  0.81538300  0.48259600  0.47567100  1
  O  O13  1  0.18461700  0.51740400  0.52432900  1
  O  O14  1  0.31538300  0.51740400  0.02432900  1
  O  O15  1  0.68461700  0.48259600  0.97567100  1
  O  O16  1  0.66249000  0.72021800  0.20100100  1
  O  O17  1  0.33751000  0.27978200  0.79899900  1
  O  O18  1  0.16249000  0.27978200  0.29899900  1
  O  O19  1  0.83751000  0.72021800  0.70100100  1
  O  O20  1  0.60762000  0.81618000  0.03939400  1
  O  O21  1  0.39238000  0.18382000  0.96060600  1
  O  O22  1  0.10762000  0.18382000  0.46060600  1
  O  O23  1  0.89238000  0.81618000  0.53939400  1
loop_
_geom_bond_atom_site_label_1
_geom_bond_atom_site_label_2
_geom_bond_distance
_geom_bond_site_symmetry_2
Ba0 O20 2.680836 1_555
Ba0 O6 2.709724 1_555
Ba0 O16 2.724431 1_555
Ba0 O10 2.731972 1_555
Ba0 O14 2.751505 1_555
Ba0 O2 2.769537 1_565
Ba0 H2 3.060698 1_555
Ba1 O21 2.680836 1_555
Ba1 O7 2.709724 1_555
Ba1 O17 2.724431 1_555
Ba1 O11 2.731972 1_555
Ba1 O15 2.751505 1_555
Ba1 O3 2.769537 1_545
Ba1 H3 3.060698 1_555
Ba2 O22 2.680836 1_655
Ba2 O4 2.709724 1_555
Ba2 O18 2.724431 1_655
Ba2 O8 2.731972 1_555
Ba2 O12 2.751505 1_555
Ba2 O0 2.769537 1_545
Ba2 H0 3.060698 1_555
Ba3 O23 2.680836 1_455
Ba3 O5 2.709724 1_555
Ba3 O19 2.724431 1_455
Ba3 O9 2.731972 1_555
Ba3 O13 2.751505 1_555
Ba3 O1 2.769537 1_565
Ba3 H1 3.060698 1_555
S0 S8 2.001625 1_555
S0 S15 2.180910 1_554
S1 S9 2.001625 1_555
S1 S14 2.180910 1_556
S4 S8 2.165561 1_555
S5 S9 2.165561 1_555
S10 S2 2.001625 1_555
S10 S6 2.165561 1_555
S11 S3 2.001625 1_555
S11 S7 2.165561 1_555
S12 S3 2.180910 1_555
S13 S2 2.180910 1_555
O0 S12 1.473115 1_555
O1 S13 1.473115 1_555
O2 S14 1.473115 1_555
O3 S15 1.473115 1_555
O4 S4 1.471125 1_545
O5 S5 1.471125 1_565
O6 S6 1.471125 1_565
O7 S7 1.471125 1_545
O8 S4 1.470732 1_555
O9 S5 1.470732 1_555
O10 S6 1.470732 1_555
O11 S7 1.470732 1_555
O12 S12 1.471350 1_555
O13 S13 1.471350 1_555
O14 S14 1.471350 1_555
O15 S15 1.471350 1_555
O16 S4 1.466139 1_555
O17 S5 1.466139 1_555
O18 S6 1.466139 1_555
O19 S7 1.466139 1_555
O20 S15 1.465700 1_554
O21 S14 1.465700 1_556
O22 S13 1.465700 1_555
O23 S12 1.465700 1_555
