# generated using pymatgen
data_Na4FeO5
_symmetry_space_group_name_H-M   'P 1'
_cell_length_a   5.75061559
_cell_length_b   5.72210416
_cell_length_c   8.73639940
_cell_angle_alpha   108.19003112
_cell_angle_beta   76.75162173
_cell_angle_gamma   79.52818493
_symmetry_Int_Tables_number   1
_chemical_formula_structural   Na4FeO5
_chemical_formula_sum   'Na8 Fe2 O10'
_cell_volume   255.67502759
_cell_formula_units_Z   2
loop_
 _symmetry_equiv_pos_site_id
 _symmetry_equiv_pos_as_xyz
  1  'x, y, z'
loop_
 _atom_site_type_symbol
 _atom_site_label
 _atom_site_symmetry_multiplicity
 _atom_site_fract_x
 _atom_site_fract_y
 _atom_site_fract_z
 _atom_site_occupancy
  Na  Na0  1  0.49476800  0.18899500  0.90032300  1
  Na  Na1  1  0.99535700  0.20251100  0.39973900  1
  Na  Na2  1  0.48235700  0.60569000  0.69464600  1
  Na  Na3  1  0.98425900  0.59442900  0.19605700  1
  Na  Na4  1  0.50667400  0.40013000  0.30449000  1
  Na  Na5  1  0.01776500  0.39314100  0.80253400  1
  Na  Na6  1  0.49500800  0.80968900  0.10508000  1
  Na  Na7  1  0.99774700  0.81427000  0.60736600  1
  Fe  Fe0  1  0.51335100  0.00005100  0.49080100  1
  Fe  Fe1  1  0.97334900  0.99678500  0.02867400  1
  O  O0  1  0.31466500  0.00334800  0.69260100  1
  O  O1  1  0.72551600  0.00049800  0.27736300  1
  O  O2  1  0.18130100  0.16441000  0.12075300  1
  O  O3  1  0.68788500  0.17020400  0.61776500  1
  O  O4  1  0.20334100  0.68684300  0.96914200  1
  O  O5  1  0.71705500  0.68304700  0.45819600  1
  O  O6  1  0.78934000  0.30265900  0.03538800  1
  O  O7  1  0.29275500  0.31490200  0.52756400  1
  O  O8  1  0.81183600  0.83027200  0.88758600  1
  O  O9  1  0.31567100  0.83812500  0.38393200  1
loop_
_geom_bond_atom_site_label_1
_geom_bond_atom_site_label_2
_geom_bond_distance
_geom_bond_site_symmetry_2
Na0 O6 2.349982 1_556
Na0 O0 2.356322 1_555
Na0 O2 2.376559 1_556
Na0 O3 2.423409 1_555
Na0 O8 2.440130 1_545
Na0 O4 2.831747 1_555
Na1 O7 2.326441 1_655
Na1 O2 2.349565 1_655
Na1 O1 2.351171 1_555
Na1 O3 2.362976 1_555
Na1 O9 2.463135 1_645
Na1 O5 2.744421 1_555
Na2 O0 2.311609 1_565
Na2 O3 2.361817 1_555
Na2 O5 2.407258 1_555
Na2 O4 2.410662 1_555
Na2 O7 2.441455 1_555
Na3 O5 2.289503 1_555
Na3 O1 2.312106 1_565
Na3 O2 2.324976 1_655
Na3 O4 2.355586 1_654
Na3 O6 2.439745 1_555
Na4 O7 2.293868 1_555
Na4 O1 2.312562 1_555
Na4 O9 2.352313 1_555
Na4 O6 2.362342 1_555
Na4 O5 2.446829 1_555
Na5 O0 2.310634 1_555
Na5 O8 2.360212 1_455
Na5 O7 2.408724 1_555
Na5 O6 2.410803 1_456
Na5 O4 2.432806 1_555
Na6 O4 2.353320 1_554
Na6 O9 2.359005 1_555
Na6 O8 2.361101 1_554
Na6 O1 2.372591 1_565
Na6 O2 2.403187 1_565
Na6 O6 2.879708 1_555
Na7 O5 2.379379 1_555
Na7 O8 2.401972 1_555
Na7 O9 2.406832 1_655
Na7 O3 2.413003 1_565
Na7 O0 2.425333 1_665
Na7 O7 2.825073 1_655
Fe0 O9 1.830772 1_545
Fe0 O3 1.837635 1_555
Fe0 O0 1.860681 1_555
Fe0 O5 1.869700 1_545
Fe0 O7 1.891937 1_555
Fe0 O1 1.981661 1_555
Fe1 O2 1.836661 1_665
Fe1 O8 1.844719 1_554
Fe1 O6 1.849523 1_565
Fe1 O4 1.849677 1_654
Fe1 O1 2.300641 1_565
