# generated using pymatgen
data_KCo
_symmetry_space_group_name_H-M   'P 1'
_cell_length_a   7.39956400
_cell_length_b   11.43847600
_cell_length_c   12.89507345
_cell_angle_alpha   116.32876208
_cell_angle_beta   106.67331429
_cell_angle_gamma   90.00000000
_symmetry_Int_Tables_number   1
_chemical_formula_structural   KCo
_chemical_formula_sum   'K16 Co16'
_cell_volume   926.73688108
_cell_formula_units_Z   16
loop_
 _symmetry_equiv_pos_site_id
 _symmetry_equiv_pos_as_xyz
  1  'x, y, z'
loop_
 _atom_site_type_symbol
 _atom_site_label
 _atom_site_symmetry_multiplicity
 _atom_site_fract_x
 _atom_site_fract_y
 _atom_site_fract_z
 _atom_site_occupancy
  K  K0_0  1  0.04890300  0.17390300  0.34780600  1
  K  K0_1  1  0.04890300  0.17390300  0.84780600  1
  K  K0_2  1  0.04890300  0.67390300  0.34780600  1
  K  K0_3  1  0.04890300  0.67390300  0.84780600  1
  K  K0_4  1  0.54890300  0.17390300  0.34780600  1
  K  K0_5  1  0.54890300  0.17390300  0.84780600  1
  K  K0_6  1  0.54890300  0.67390300  0.34780600  1
  K  K0_7  1  0.54890300  0.67390300  0.84780600  1
  K  K1_0  1  0.45109700  0.32609700  0.15219400  1
  K  K1_1  1  0.45109700  0.32609700  0.65219400  1
  K  K1_2  1  0.45109700  0.82609700  0.15219400  1
  K  K1_3  1  0.45109700  0.82609700  0.65219400  1
  K  K1_4  1  0.95109700  0.32609700  0.15219400  1
  K  K1_5  1  0.95109700  0.32609700  0.65219400  1
  K  K1_6  1  0.95109700  0.82609700  0.15219400  1
  K  K1_7  1  0.95109700  0.82609700  0.65219400  1
  Co  Co0_0  1  0.34763250  0.47263250  0.44526450  1
  Co  Co0_1  1  0.34763250  0.47263250  0.94526450  1
  Co  Co0_2  1  0.34763250  0.97263250  0.44526450  1
  Co  Co0_3  1  0.34763250  0.97263250  0.94526450  1
  Co  Co0_4  1  0.84763250  0.47263250  0.44526450  1
  Co  Co0_5  1  0.84763250  0.47263250  0.94526450  1
  Co  Co0_6  1  0.84763250  0.97263250  0.44526450  1
  Co  Co0_7  1  0.84763250  0.97263250  0.94526450  1
  Co  Co1_0  1  0.15236750  0.02736750  0.05473550  1
  Co  Co1_1  1  0.15236750  0.02736750  0.55473550  1
  Co  Co1_2  1  0.15236750  0.52736750  0.05473550  1
  Co  Co1_3  1  0.15236750  0.52736750  0.55473550  1
  Co  Co1_4  1  0.65236750  0.02736750  0.05473550  1
  Co  Co1_5  1  0.65236750  0.02736750  0.55473550  1
  Co  Co1_6  1  0.65236750  0.52736750  0.05473550  1
  Co  Co1_7  1  0.65236750  0.52736750  0.55473550  1
loop_
_geom_bond_atom_site_label_1
_geom_bond_atom_site_label_2
_geom_bond_distance
_geom_bond_site_symmetry_2
K0_0 K1_4 3.572772 1_455
K0_0 K1_6 3.572772 1_445
K0_0 K0_4 3.699782 1_455
K0_0 K0_4 3.699782 1_555
K0_0 K1_1 3.811781 1_555
K0_0 K1_5 3.811781 1_455
K0_1 K1_5 3.572772 1_455
K0_1 K1_7 3.572772 1_445
K0_1 K0_5 3.699782 1_455
K0_1 K0_5 3.699782 1_555
K0_1 K1_4 3.811781 1_456
K0_1 K1_0 3.811781 1_556
K0_2 K1_6 3.572772 1_455
K0_2 K1_4 3.572772 1_455
K0_2 K0_6 3.699782 1_555
K0_2 K0_6 3.699782 1_455
K0_2 K1_7 3.811781 1_455
K0_2 K1_3 3.811781 1_555
K0_3 K1_7 3.572772 1_455
K0_3 K1_5 3.572772 1_455
K0_3 K0_7 3.699782 1_455
K0_3 K0_7 3.699782 1_555
K0_3 K1_6 3.811781 1_456
K0_3 K1_2 3.811781 1_556
K0_4 K1_0 3.572772 1_555
K0_4 K1_2 3.572772 1_545
K0_4 K1_1 3.811781 1_555
K0_4 K1_5 3.811781 1_555
K0_5 K1_1 3.572772 1_555
K0_5 K1_3 3.572772 1_545
K0_5 K1_0 3.811781 1_556
K0_5 K1_4 3.811781 1_556
K0_6 K1_2 3.572772 1_555
K0_6 K1_0 3.572772 1_555
K0_6 K1_3 3.811781 1_555
K0_6 K1_7 3.811781 1_555
K0_7 K1_3 3.572772 1_555
K0_7 K1_1 3.572772 1_555
K0_7 K1_6 3.811781 1_556
K0_7 K1_2 3.811781 1_556
K1_0 K1_4 3.699782 1_455
K1_0 K1_4 3.699782 1_555
K1_1 K1_5 3.699782 1_455
K1_1 K1_5 3.699782 1_555
K1_2 K1_6 3.699782 1_455
K1_2 K1_6 3.699782 1_555
K1_3 K1_7 3.699782 1_555
K1_3 K1_7 3.699782 1_455
Co0_0 Co1_7 2.204262 1_555
Co0_0 Co1_3 2.204268 1_555
Co0_0 K0_6 3.569059 1_555
Co0_0 K0_2 3.569061 1_555
Co0_0 K0_4 3.569063 1_555
Co0_0 K0_0 3.569065 1_555
Co0_0 K1_3 3.648404 1_555
Co0_0 K1_1 3.648409 1_555
Co0_0 K1_0 3.703922 1_555
Co0_0 K1_4 3.703924 1_455
Co0_1 Co1_6 2.204262 1_556
Co0_1 Co1_2 2.204268 1_556
Co0_1 K0_7 3.569059 1_555
Co0_1 K0_3 3.569061 1_555
Co0_1 K0_5 3.569063 1_555
Co0_1 K0_1 3.569065 1_555
Co0_1 K1_2 3.648404 1_556
Co0_1 K1_0 3.648409 1_556
Co0_1 K1_1 3.703922 1_555
Co0_1 K1_5 3.703924 1_455
Co0_2 Co1_5 2.204262 1_565
Co0_2 Co1_1 2.204268 1_565
Co0_2 K0_4 3.569059 1_565
Co0_2 K0_0 3.569061 1_565
Co0_2 K0_6 3.569063 1_555
Co0_2 K0_2 3.569065 1_555
Co0_2 K1_1 3.648404 1_565
Co0_2 K1_3 3.648409 1_555
Co0_2 K1_2 3.703922 1_555
Co0_2 K1_6 3.703924 1_455
Co0_3 Co1_4 2.204262 1_566
Co0_3 Co1_0 2.204268 1_566
Co0_3 K0_5 3.569059 1_565
Co0_3 K0_1 3.569061 1_565
Co0_3 K0_7 3.569063 1_555
Co0_3 K0_3 3.569065 1_555
Co0_3 K1_0 3.648404 1_566
Co0_3 K1_2 3.648409 1_556
Co0_3 K1_3 3.703922 1_555
Co0_3 K1_7 3.703924 1_455
Co0_4 Co1_3 2.204262 1_655
Co0_4 Co1_7 2.204268 1_555
Co0_4 K0_2 3.569059 1_655
Co0_4 K0_6 3.569061 1_555
Co0_4 K0_0 3.569063 1_655
Co0_4 K0_4 3.569065 1_555
Co0_4 K1_7 3.648404 1_555
Co0_4 K1_5 3.648409 1_555
Co0_4 K1_4 3.703922 1_555
Co0_4 K1_0 3.703924 1_555
Co0_5 Co1_2 2.204262 1_656
Co0_5 Co1_6 2.204268 1_556
Co0_5 K0_3 3.569059 1_655
Co0_5 K0_7 3.569061 1_555
Co0_5 K0_1 3.569063 1_655
Co0_5 K0_5 3.569065 1_555
Co0_5 K1_6 3.648404 1_556
Co0_5 K1_4 3.648409 1_556
Co0_5 K1_5 3.703922 1_555
Co0_5 K1_1 3.703924 1_555
Co0_6 Co1_1 2.204262 1_665
Co0_6 Co1_5 2.204268 1_565
Co0_6 K0_0 3.569059 1_665
Co0_6 K0_4 3.569061 1_565
Co0_6 K0_2 3.569063 1_655
Co0_6 K0_6 3.569065 1_555
Co0_6 K1_5 3.648404 1_565
Co0_6 K1_7 3.648409 1_555
Co0_6 K1_6 3.703922 1_555
Co0_6 K1_2 3.703924 1_555
Co0_7 Co1_0 2.204262 1_666
Co0_7 Co1_4 2.204268 1_566
Co0_7 K0_1 3.569059 1_665
Co0_7 K0_5 3.569061 1_565
Co0_7 K0_3 3.569063 1_655
Co0_7 K0_7 3.569065 1_555
Co0_7 K1_4 3.648404 1_566
Co0_7 K1_6 3.648409 1_556
Co0_7 K1_7 3.703922 1_555
Co0_7 K1_3 3.703924 1_555
Co1_0 K1_6 3.569059 1_445
Co1_0 K1_2 3.569061 1_545
Co1_0 K1_4 3.569063 1_455
Co1_0 K1_0 3.569065 1_555
Co1_0 K0_3 3.648404 1_544
Co1_0 K0_1 3.648409 1_554
Co1_0 K0_0 3.703922 1_555
Co1_0 K0_4 3.703924 1_555
Co1_1 K1_7 3.569059 1_445
Co1_1 K1_3 3.569061 1_545
Co1_1 K1_5 3.569063 1_455
Co1_1 K1_1 3.569065 1_555
Co1_1 K0_2 3.648404 1_545
Co1_1 K0_0 3.648409 1_555
Co1_1 K0_1 3.703922 1_555
Co1_1 K0_5 3.703924 1_555
Co1_2 K1_4 3.569059 1_455
Co1_2 K1_0 3.569061 1_555
Co1_2 K1_6 3.569063 1_455
Co1_2 K1_2 3.569065 1_555
Co1_2 K0_1 3.648404 1_554
Co1_2 K0_3 3.648409 1_554
Co1_2 K0_2 3.703922 1_555
Co1_2 K0_6 3.703924 1_555
Co1_3 K1_5 3.569059 1_455
Co1_3 K1_1 3.569061 1_555
Co1_3 K1_7 3.569063 1_455
Co1_3 K1_3 3.569065 1_555
Co1_3 K0_0 3.648404 1_555
Co1_3 K0_2 3.648409 1_555
Co1_3 K0_3 3.703922 1_555
Co1_3 K0_7 3.703924 1_555
Co1_4 K1_2 3.569059 1_545
Co1_4 K1_6 3.569061 1_545
Co1_4 K1_0 3.569063 1_555
Co1_4 K1_4 3.569065 1_555
Co1_4 K0_7 3.648404 1_544
Co1_4 K0_5 3.648409 1_554
Co1_4 K0_4 3.703922 1_555
Co1_4 K0_0 3.703924 1_655
Co1_5 K1_3 3.569059 1_545
Co1_5 K1_7 3.569061 1_545
Co1_5 K1_1 3.569063 1_555
Co1_5 K1_5 3.569065 1_555
Co1_5 K0_6 3.648404 1_545
Co1_5 K0_4 3.648409 1_555
Co1_5 K0_5 3.703922 1_555
Co1_5 K0_1 3.703924 1_655
Co1_6 K1_0 3.569059 1_555
Co1_6 K1_4 3.569061 1_555
Co1_6 K1_2 3.569063 1_555
Co1_6 K1_6 3.569065 1_555
Co1_6 K0_5 3.648404 1_554
Co1_6 K0_7 3.648409 1_554
Co1_6 K0_6 3.703922 1_555
Co1_6 K0_2 3.703924 1_655
Co1_7 K1_1 3.569059 1_555
Co1_7 K1_5 3.569061 1_555
Co1_7 K1_3 3.569063 1_555
Co1_7 K1_7 3.569065 1_555
Co1_7 K0_4 3.648404 1_555
Co1_7 K0_6 3.648409 1_555
Co1_7 K0_7 3.703922 1_555
Co1_7 K0_3 3.703924 1_655
