# generated using pymatgen
data_Zr8MnCu2(PO4)12
_symmetry_space_group_name_H-M   'P 1'
_cell_length_a   9.01276700
_cell_length_b   9.04731613
_cell_length_c   15.66254672
_cell_angle_alpha   90.21274472
_cell_angle_beta   106.69389863
_cell_angle_gamma   119.68015530
_symmetry_Int_Tables_number   1
_chemical_formula_structural   Zr8MnCu2(PO4)12
_chemical_formula_sum   'Zr8 Mn1 Cu2 P12 O48'
_cell_volume   1046.34852997
_cell_formula_units_Z   1
loop_
 _symmetry_equiv_pos_site_id
 _symmetry_equiv_pos_as_xyz
  1  'x, y, z'
loop_
 _atom_site_type_symbol
 _atom_site_label
 _atom_site_symmetry_multiplicity
 _atom_site_fract_x
 _atom_site_fract_y
 _atom_site_fract_z
 _atom_site_occupancy
  Zr  Zr0  1  0.14037100  0.10372200  0.68146500  1
  Zr  Zr1  1  0.36702800  0.66054400  0.57253500  1
  Zr  Zr2  1  0.13957400  0.59290800  0.17924300  1
  Zr  Zr3  1  0.34924900  0.12930100  0.07175600  1
  Zr  Zr4  1  0.63297200  0.33945600  0.42746500  1
  Zr  Zr5  1  0.85962900  0.89627800  0.31853500  1
  Zr  Zr6  1  0.65075100  0.87069900  0.92824400  1
  Zr  Zr7  1  0.86042600  0.40709200  0.82075700  1
  Mn  Mn0  1  0.50000000  0.50000000  0.00000000  1
  Cu  Cu0  1  0.08440500  0.34088800  0.33000500  1
  Cu  Cu1  1  0.91559500  0.65911200  0.66999500  1
  P  P0  1  0.74816800  0.76417200  0.51674900  1
  P  P1  1  0.03733600  0.62301100  0.37792000  1
  P  P2  1  0.46811900  0.98992000  0.73138100  1
  P  P3  1  0.53188100  0.01008000  0.26861900  1
  P  P4  1  0.96266400  0.37698900  0.62208000  1
  P  P5  1  0.74134500  0.27628600  0.01642800  1
  P  P6  1  0.25183200  0.23582800  0.48325100  1
  P  P7  1  0.04922500  0.14091500  0.87753200  1
  P  P8  1  0.46710400  0.47910800  0.22679200  1
  P  P9  1  0.53289600  0.52089200  0.77320800  1
  P  P10  1  0.95077500  0.85908500  0.12246800  1
  P  P11  1  0.25865500  0.72371400  0.98357200  1
  O  O0  1  0.30664100  0.42511900  0.50516100  1
  O  O1  1  0.49701000  0.61995700  0.69908000  1
  O  O2  1  0.91316000  0.84490400  0.61001300  1
  O  O3  1  0.12312200  0.52036600  0.59976400  1
  O  O4  1  0.80802400  0.86260200  0.44177400  1
  O  O5  1  0.59621400  0.77924400  0.53281900  1
  O  O6  1  0.05797200  0.53406600  0.29740600  1
  O  O7  1  0.21607600  0.69807900  0.45652800  1
  O  O8  1  0.36729500  0.82630800  0.25024400  1
  O  O9  1  0.43882300  0.89106700  0.64293300  1
  O  O10  1  0.70500300  0.00941500  0.27483000  1
  O  O11  1  0.99587500  0.23182600  0.65250900  1
  O  O12  1  0.31472800  0.91588800  0.00149300  1
  O  O13  1  0.00412500  0.76817400  0.34749100  1
  O  O14  1  0.29499700  0.99058500  0.72517000  1
  O  O15  1  0.56117700  0.10893300  0.35706700  1
  O  O16  1  0.63270500  0.17369200  0.74975600  1
  O  O17  1  0.49346900  0.10192400  0.18835700  1
  O  O18  1  0.78392400  0.30192100  0.54347200  1
  O  O19  1  0.90518000  0.36469100  0.10349000  1
  O  O20  1  0.10327000  0.00144700  0.09143200  1
  O  O21  1  0.94202800  0.46593400  0.70259400  1
  O  O22  1  0.78431900  0.36187500  0.93544200  1
  O  O23  1  0.40378600  0.22075600  0.46718100  1
  O  O24  1  0.58219400  0.29278700  0.02759300  1
  O  O25  1  0.19197600  0.13739800  0.55822600  1
  O  O26  1  0.06010500  0.05644700  0.79633300  1
  O  O27  1  0.87687800  0.47963400  0.40023600  1
  O  O28  1  0.08684000  0.15509600  0.38998700  1
  O  O29  1  0.23584300  0.22395500  0.95649300  1
  O  O30  1  0.50299000  0.38004300  0.30092000  1
  O  O31  1  0.37328300  0.33321700  0.75326200  1
  O  O32  1  0.44119400  0.39458300  0.13119300  1
  O  O33  1  0.71004200  0.52616800  0.77942500  1
  O  O34  1  0.98992500  0.71461800  0.14486500  1
  O  O35  1  0.69335900  0.57488100  0.49483900  1
  O  O36  1  0.01007500  0.28538200  0.85513500  1
  O  O37  1  0.28995800  0.47383200  0.22057500  1
  O  O38  1  0.55880600  0.60541700  0.86880700  1
  O  O39  1  0.62671700  0.66678300  0.24673800  1
  O  O40  1  0.76415700  0.77604500  0.04350700  1
  O  O41  1  0.93989500  0.94355300  0.20366700  1
  O  O42  1  0.41780600  0.70721300  0.97240700  1
  O  O43  1  0.21568100  0.63812500  0.06455800  1
  O  O44  1  0.89673000  0.99855300  0.90856800  1
  O  O45  1  0.09482000  0.63530900  0.89651000  1
  O  O46  1  0.50653100  0.89807600  0.81164300  1
  O  O47  1  0.68527200  0.08411200  0.99850700  1
loop_
_geom_bond_atom_site_label_1
_geom_bond_atom_site_label_2
_geom_bond_distance
_geom_bond_site_symmetry_2
Mn0 O42 2.333999 1_554
Mn0 O24 2.333999 1_555
Mn0 O40 2.353036 1_555
Mn0 O29 2.353036 1_554
Mn0 O38 2.356363 1_554
Mn0 O32 2.356363 1_555
Cu0 O6 1.929025 1_555
Cu0 O28 1.935198 1_555
Cu1 O21 1.929025 1_555
Cu1 O2 1.935198 1_555
O0 P6 1.534651 1_555
O0 Zr1 2.109940 1_555
O1 P9 1.528062 1_555
O1 Zr1 2.129100 1_555
O2 P0 1.595950 1_555
O2 Zr0 2.200962 1_665
O3 P4 1.527169 1_455
O3 Zr1 2.098665 1_555
O4 P0 1.535906 1_555
O4 Zr5 2.101137 1_555
O5 P0 1.529795 1_555
O5 Zr1 2.086461 1_555
O6 P1 1.596196 1_555
O6 Zr2 2.156641 1_555
O7 P1 1.530704 1_555
O7 Zr1 2.075948 1_555
O8 P3 1.535041 1_565
O8 Zr2 2.070598 1_555
O9 P2 1.528233 1_555
O9 Zr1 2.054457 1_555
O10 P3 1.538232 1_555
O10 Zr5 2.080445 1_545
O11 P4 1.534139 1_555
O11 Zr0 2.098642 1_655
O12 P11 1.549787 1_554
O12 Zr3 2.056340 1_565
O13 P1 1.534139 1_555
O13 Zr5 2.098642 1_455
O14 P2 1.538232 1_555
O14 Zr0 2.080445 1_565
O15 P3 1.528233 1_555
O15 Zr4 2.054457 1_555
O16 P2 1.535041 1_545
O16 Zr7 2.070598 1_555
O17 P3 1.559886 1_555
O17 Zr3 2.011102 1_555
O18 P4 1.530704 1_555
O18 Zr4 2.075948 1_555
O19 P5 1.531351 1_555
O19 Zr2 2.087085 1_655
O20 P10 1.555510 1_445
O20 Zr3 2.050233 1_555
O21 P4 1.596196 1_555
O21 Zr7 2.156641 1_555
O22 P5 1.533338 1_556
O22 Zr7 2.073607 1_555
O23 P6 1.529795 1_555
O23 Zr4 2.086461 1_555
O24 P5 1.570454 1_555
O24 Zr3 2.200152 1_555
O25 P6 1.535906 1_555
O25 Zr0 2.101137 1_555
O26 P7 1.532875 1_555
O26 Zr0 2.095272 1_555
O27 P1 1.527169 1_655
O27 Zr4 2.098665 1_555
O28 P6 1.595950 1_555
O28 Zr5 2.200962 1_445
O29 P7 1.571473 1_555
O29 Zr3 2.203496 1_556
O30 P8 1.528062 1_555
O30 Zr4 2.129100 1_555
O31 P9 1.539158 1_555
O31 Zr0 2.071790 1_555
O32 P8 1.579581 1_555
O32 Zr3 2.210054 1_555
O33 P9 1.547899 1_555
O33 Zr7 2.088984 1_555
O34 P10 1.531314 1_555
O34 Zr2 2.092737 1_655
O35 P0 1.534651 1_555
O35 Zr4 2.109940 1_555
O36 P7 1.531314 1_555
O36 Zr7 2.092737 1_455
O37 P8 1.547899 1_555
O37 Zr2 2.088984 1_555
O38 P9 1.579581 1_555
O38 Zr6 2.210054 1_555
O39 P8 1.539158 1_555
O39 Zr5 2.071790 1_555
O40 P10 1.571473 1_555
O40 Zr6 2.203496 1_554
O41 P10 1.532875 1_555
O41 Zr5 2.095272 1_555
O42 P11 1.570454 1_555
O42 Zr6 2.200152 1_555
O43 P11 1.533338 1_554
O43 Zr2 2.073607 1_555
O44 P7 1.555510 1_665
O44 Zr6 2.050233 1_555
O45 P11 1.531351 1_555
O45 Zr7 2.087085 1_455
O46 P2 1.559886 1_555
O46 Zr6 2.011102 1_555
O47 P5 1.549787 1_556
O47 Zr6 2.056340 1_545
