# generated using pymatgen
data_Ba3SrMg4F16
_symmetry_space_group_name_H-M   'P 1'
_cell_length_a   4.12300500
_cell_length_b   9.60655563
_cell_length_c   9.72859520
_cell_angle_alpha   80.00293611
_cell_angle_beta   102.23379677
_cell_angle_gamma   77.60833468
_symmetry_Int_Tables_number   1
_chemical_formula_structural   Ba3SrMg4F16
_chemical_formula_sum   'Ba3 Sr1 Mg4 F16'
_cell_volume   357.98775824
_cell_formula_units_Z   1
loop_
 _symmetry_equiv_pos_site_id
 _symmetry_equiv_pos_as_xyz
  1  'x, y, z'
loop_
 _atom_site_type_symbol
 _atom_site_label
 _atom_site_symmetry_multiplicity
 _atom_site_fract_x
 _atom_site_fract_y
 _atom_site_fract_z
 _atom_site_occupancy
  Ba  Ba0  1  0.92646800  0.42322100  0.27615800  1
  Ba  Ba1  1  0.42696600  0.92200300  0.77593600  1
  Ba  Ba2  1  0.17710600  0.47247800  0.82669100  1
  Sr  Sr0  1  0.68161800  0.97810800  0.34134400  1
  Mg  Mg0  1  0.91172100  0.17370000  0.99714100  1
  Mg  Mg1  1  0.40018500  0.68491500  0.48528500  1
  Mg  Mg2  1  0.15598000  0.76082700  0.07278700  1
  Mg  Mg3  1  0.65696800  0.25804400  0.57197900  1
  F  F0  1  0.53421700  0.62959200  0.69802600  1
  F  F1  1  0.05172500  0.10700000  0.21045000  1
  F  F2  1  0.29085600  0.54535400  0.12706600  1
  F  F3  1  0.78932700  0.04322200  0.62187600  1
  F  F4  1  0.74980800  0.27647200  0.77608800  1
  F  F5  1  0.24556400  0.78239000  0.27351700  1
  F  F6  1  0.99555800  0.97484700  0.96596300  1
  F  F7  1  0.49661000  0.47625900  0.46947900  1
  F  F8  1  0.40210700  0.17939300  0.98360600  1
  F  F9  1  0.89214900  0.69090300  0.47520000  1
  F  F10  1  0.65087800  0.76790500  0.06966100  1
  F  F11  1  0.15034200  0.26991700  0.57060200  1
  F  F12  1  0.81345800  0.38256700  0.00948300  1
  F  F13  1  0.29954100  0.89720400  0.49628500  1
  F  F14  1  0.06179400  0.74171400  0.86530100  1
  F  F15  1  0.56415500  0.23686700  0.36517700  1
loop_
_geom_bond_atom_site_label_1
_geom_bond_atom_site_label_2
_geom_bond_distance
_geom_bond_site_symmetry_2
Ba0 F2 2.612797 1_555
Ba0 F2 2.612800 1_655
Ba0 F12 2.649147 1_555
Ba0 F15 2.710006 1_555
Ba0 F15 2.710009 1_655
Ba0 F11 2.838615 1_655
Ba0 F7 2.880217 1_555
Ba0 F7 2.880220 1_655
Ba1 F3 2.631385 1_465
Ba1 F3 2.631388 1_565
Ba1 F14 2.678337 1_555
Ba1 F14 2.678344 1_655
Ba1 F13 2.721670 1_555
Ba1 F10 2.834777 1_556
Ba1 F6 2.858501 1_455
Ba1 F6 2.858504 1_555
Ba1 F0 3.001503 1_555
Ba2 F14 2.634764 1_555
Ba2 F0 2.663015 1_455
Ba2 F0 2.663018 1_555
Ba2 F12 2.703493 1_456
Ba2 F12 2.703496 1_556
Ba2 F8 2.811545 1_555
Ba2 F4 2.875691 1_455
Ba2 F4 2.875694 1_555
Ba2 F2 3.085430 1_556
F0 Mg1 1.969444 1_555
F1 Mg0 1.980440 1_454
F1 Sr0 2.563256 1_445
F1 Sr0 2.563256 1_545
F2 Mg2 1.968453 1_555
F3 Mg3 1.961855 1_555
F3 Sr0 2.869707 1_545
F4 Mg3 1.987422 1_555
F4 Mg0 2.101601 1_555
F5 Mg2 1.964801 1_555
F5 Mg1 2.011237 1_555
F5 Sr0 2.929420 1_555
F5 Sr0 2.929423 1_455
F6 Mg0 1.955227 1_565
F6 Mg2 2.031705 1_656
F7 Mg1 1.997620 1_555
F7 Mg3 2.055705 1_555
F8 Mg0 2.065442 1_455
F8 Mg0 2.065442 1_555
F9 Mg1 2.063895 1_655
F9 Mg1 2.063899 1_555
F9 Sr0 2.703195 1_555
F10 Mg2 2.062566 1_555
F10 Mg2 2.062566 1_655
F11 Mg3 2.064386 1_455
F11 Mg3 2.064394 1_555
F12 Mg0 1.989960 1_554
F13 Mg1 2.018427 1_555
F13 Sr0 2.546140 1_555
F13 Sr0 2.546144 1_455
F14 Mg2 2.021416 1_556
F15 Mg3 2.021082 1_555
F15 Sr0 2.489666 1_545
