# generated using pymatgen
data_LaMg14V
_symmetry_space_group_name_H-M   'P 1'
_cell_length_a   6.55917634
_cell_length_b   6.55917578
_cell_length_c   10.24853590
_cell_angle_alpha   90.00000000
_cell_angle_beta   90.00000000
_cell_angle_gamma   120.00000283
_symmetry_Int_Tables_number   1
_chemical_formula_structural   LaMg14V
_chemical_formula_sum   'La1 Mg14 V1'
_cell_volume   381.84844166
_cell_formula_units_Z   1
loop_
 _symmetry_equiv_pos_site_id
 _symmetry_equiv_pos_as_xyz
  1  'x, y, z'
loop_
 _atom_site_type_symbol
 _atom_site_label
 _atom_site_symmetry_multiplicity
 _atom_site_fract_x
 _atom_site_fract_y
 _atom_site_fract_z
 _atom_site_occupancy
  La  La0  1  0.16666700  0.33333300  0.62500000  1
  Mg  Mg0  1  0.16648192  0.83324046  0.12500000  1
  Mg  Mg1  1  0.17800263  0.83900082  0.62500000  1
  Mg  Mg2  1  0.66675954  0.33351808  0.12500000  1
  Mg  Mg3  1  0.66099918  0.32199737  0.62500000  1
  Mg  Mg4  1  0.66675954  0.83324046  0.12500000  1
  Mg  Mg5  1  0.66099918  0.83900082  0.62500000  1
  Mg  Mg6  1  0.33387059  0.16612941  0.36387564  1
  Mg  Mg7  1  0.33387059  0.16612941  0.88612436  1
  Mg  Mg8  1  0.33387059  0.66774218  0.36387564  1
  Mg  Mg9  1  0.33387059  0.66774218  0.88612436  1
  Mg  Mg10  1  0.83225782  0.16612941  0.36387564  1
  Mg  Mg11  1  0.83225782  0.16612941  0.88612436  1
  Mg  Mg12  1  0.83333300  0.66666700  0.38128243  1
  Mg  Mg13  1  0.83333300  0.66666700  0.86871757  1
  V  V0  1  0.16666700  0.33333300  0.12500000  1
loop_
_geom_bond_atom_site_label_1
_geom_bond_atom_site_label_2
_geom_bond_distance
_geom_bond_site_symmetry_2
La0 Mg1 3.280220 1_545
La0 Mg5 3.280220 1_555
La0 Mg5 3.280220 1_445
La0 Mg1 3.280220 1_555
La0 Mg3 3.280220 1_555
La0 Mg3 3.280220 1_455
La0 Mg6 3.281784 1_555
La0 Mg7 3.281784 1_555
La0 Mg8 3.281791 1_555
La0 Mg9 3.281791 1_555
La0 Mg11 3.281791 1_455
La0 Mg10 3.281791 1_455
Mg0 Mg9 3.093379 1_554
Mg0 Mg8 3.093379 1_555
Mg0 Mg7 3.093386 1_564
Mg0 Mg6 3.093386 1_565
Mg0 Mg13 3.237263 1_454
Mg0 Mg12 3.237263 1_455
Mg0 Mg2 3.277767 1_455
Mg0 Mg4 3.277767 1_455
Mg0 V0 3.279588 1_565
Mg0 V0 3.279588 1_555
Mg0 Mg2 3.281409 1_565
Mg0 Mg4 3.281409 1_555
Mg1 Mg3 3.168059 1_565
Mg1 Mg5 3.168060 1_555
Mg1 Mg12 3.173639 1_455
Mg1 Mg13 3.173639 1_455
Mg1 Mg8 3.258412 1_555
Mg1 Mg9 3.258412 1_555
Mg1 Mg6 3.258418 1_565
Mg1 Mg7 3.258418 1_565
Mg1 Mg3 3.391117 1_455
Mg1 Mg5 3.391117 1_455
Mg2 Mg7 3.093386 1_554
Mg2 Mg6 3.093386 1_555
Mg2 Mg4 3.277767 1_555
Mg2 V0 3.279588 1_655
Mg2 V0 3.279588 1_555
Mg2 Mg4 3.281409 1_545
Mg3 Mg5 3.168059 1_545
Mg3 Mg6 3.258418 1_555
Mg3 Mg7 3.258418 1_555
Mg3 Mg5 3.391117 1_555
Mg4 Mg9 3.093386 1_554
Mg4 Mg8 3.093386 1_555
Mg4 V0 3.279588 1_665
Mg4 V0 3.279588 1_555
Mg5 Mg8 3.258418 1_555
Mg5 Mg9 3.258418 1_555
Mg6 V0 3.098659 1_555
Mg6 Mg8 3.269009 1_545
Mg6 Mg8 3.290166 1_555
Mg7 V0 3.098659 1_556
Mg7 Mg9 3.269009 1_545
Mg7 Mg9 3.290166 1_555
Mg8 V0 3.098666 1_555
Mg9 V0 3.098666 1_556
Mg10 Mg2 3.093379 1_555
Mg10 Mg4 3.093386 1_545
Mg10 V0 3.098666 1_655
Mg10 Mg3 3.258412 1_555
Mg10 Mg5 3.258418 1_545
Mg10 Mg8 3.269009 1_545
Mg10 Mg6 3.269010 1_555
Mg10 Mg12 3.284442 1_555
Mg10 Mg12 3.284442 1_545
Mg10 Mg8 3.290166 1_655
Mg10 Mg6 3.290167 1_655
Mg11 Mg2 3.093379 1_556
Mg11 Mg4 3.093386 1_546
Mg11 V0 3.098666 1_656
Mg11 Mg3 3.258412 1_555
Mg11 Mg5 3.258418 1_545
Mg11 Mg9 3.269009 1_545
Mg11 Mg7 3.269010 1_555
Mg11 Mg13 3.284442 1_555
Mg11 Mg13 3.284442 1_545
Mg11 Mg9 3.290166 1_655
Mg11 Mg7 3.290167 1_655
Mg12 Mg5 3.173632 1_555
Mg12 Mg3 3.173639 1_555
Mg12 Mg4 3.237256 1_555
Mg12 Mg2 3.237263 1_555
Mg12 Mg6 3.284442 1_555
Mg12 Mg6 3.284442 1_665
Mg12 Mg8 3.284442 1_555
Mg12 Mg8 3.284442 1_655
Mg13 Mg5 3.173632 1_555
Mg13 Mg3 3.173639 1_555
Mg13 Mg4 3.237256 1_556
Mg13 Mg2 3.237263 1_556
Mg13 Mg7 3.284442 1_555
Mg13 Mg7 3.284442 1_665
Mg13 Mg9 3.284442 1_555
Mg13 Mg9 3.284442 1_655
