# generated using pymatgen
data_YbAlNi
_symmetry_space_group_name_H-M   'P 1'
_cell_length_a   5.33803281
_cell_length_b   5.46640300
_cell_length_c   8.26307200
_cell_angle_alpha   90.00000000
_cell_angle_beta   90.00000000
_cell_angle_gamma   120.80577685
_symmetry_Int_Tables_number   1
_chemical_formula_structural   YbAlNi
_chemical_formula_sum   'Yb4 Al4 Ni4'
_cell_volume   207.09575845
_cell_formula_units_Z   4
loop_
 _symmetry_equiv_pos_site_id
 _symmetry_equiv_pos_as_xyz
  1  'x, y, z'
loop_
 _atom_site_type_symbol
 _atom_site_label
 _atom_site_symmetry_multiplicity
 _atom_site_fract_x
 _atom_site_fract_y
 _atom_site_fract_z
 _atom_site_occupancy
  Yb  Yb0  1  0.66940400  0.33470500  0.54281800  1
  Yb  Yb1  1  0.33703800  0.66852300  0.42162800  1
  Yb  Yb2  1  0.33703800  0.66852300  0.07837200  1
  Yb  Yb3  1  0.66940400  0.33470500  0.95718200  1
  Al  Al0  1  0.99349600  0.99676200  0.48350200  1
  Al  Al1  1  0.99349600  0.99676200  0.01649800  1
  Al  Al2  1  0.17008300  0.33707900  0.75000000  1
  Al  Al3  1  0.17004700  0.83298100  0.75000000  1
  Ni  Ni0  1  0.66363400  0.83178300  0.75000000  1
  Ni  Ni1  1  0.82765500  0.65712900  0.25000000  1
  Ni  Ni2  1  0.82772200  0.17057800  0.25000000  1
  Ni  Ni3  1  0.34098400  0.17046800  0.25000000  1
loop_
_geom_bond_atom_site_label_1
_geom_bond_atom_site_label_2
_geom_bond_distance
_geom_bond_site_symmetry_2
Yb0 Yb1 3.220662 1_655
Yb0 Yb1 3.285466 1_545
Yb0 Yb1 3.285786 1_555
Yb1 Yb2 2.836349 1_555
Yb2 Yb3 3.220662 1_454
Yb2 Yb3 3.285466 1_564
Yb2 Yb3 3.285786 1_554
Al0 Ni3 2.502201 1_665
Al0 Ni2 2.503954 1_565
Al0 Ni1 2.503972 1_555
Al0 Ni0 2.671422 1_555
Al0 Al2 2.720733 1_665
Al0 Al3 2.720876 1_655
Al0 Yb1 3.052897 1_555
Al0 Yb0 3.137478 1_665
Al0 Yb0 3.149273 1_555
Al0 Yb0 3.149485 1_565
Al0 Yb1 3.195523 1_665
Al0 Yb1 3.195947 1_655
Al1 Ni3 2.502201 1_665
Al1 Ni2 2.503954 1_565
Al1 Ni1 2.503972 1_555
Al1 Ni0 2.671422 1_554
Al1 Al2 2.720733 1_664
Al1 Al3 2.720876 1_654
Al1 Yb2 3.052897 1_555
Al1 Yb3 3.137478 1_664
Al1 Yb3 3.149273 1_554
Al1 Yb3 3.149485 1_564
Al1 Yb2 3.195523 1_665
Al1 Yb2 3.195947 1_655
Al2 Ni0 2.637540 1_555
Al2 Ni0 2.699928 1_445
Al2 Al3 2.710899 1_555
Al2 Al3 2.755504 1_545
Al2 Yb2 3.128156 1_556
Al2 Yb1 3.128156 1_555
Al2 Yb3 3.168353 1_455
Al2 Yb0 3.168353 1_455
Al2 Yb3 3.173439 1_555
Al2 Yb0 3.173439 1_555
Al3 Ni0 2.638143 1_555
Al3 Ni0 2.699901 1_455
Al3 Yb2 3.128247 1_556
Al3 Yb1 3.128247 1_555
Al3 Yb0 3.167967 1_455
Al3 Yb3 3.167967 1_455
Al3 Yb0 3.173341 1_565
Al3 Yb3 3.173341 1_565
Ni0 Yb2 3.099121 1_556
Ni0 Yb1 3.099121 1_555
Ni0 Yb3 3.225028 1_555
Ni0 Yb0 3.225028 1_555
Ni0 Yb3 3.225366 1_565
Ni0 Yb0 3.225366 1_565
Ni1 Ni3 2.597557 1_555
Ni1 Ni2 2.659867 1_555
Ni1 Ni3 2.739899 1_665
Ni1 Ni2 2.806536 1_565
Ni1 Yb3 2.854710 1_554
Ni1 Yb0 2.854710 1_555
Ni1 Yb1 3.006820 1_555
Ni1 Yb2 3.006820 1_555
Ni1 Yb1 3.038940 1_655
Ni1 Yb2 3.038940 1_655
Ni2 Ni3 2.597916 1_555
Ni2 Ni3 2.740117 1_655
Ni2 Yb0 2.854839 1_555
Ni2 Yb3 2.854839 1_554
Ni2 Yb1 3.006819 1_545
Ni2 Yb2 3.006819 1_545
Ni2 Yb1 3.038428 1_655
Ni2 Yb2 3.038428 1_655
Ni3 Yb0 2.849856 1_555
Ni3 Yb3 2.849856 1_554
Ni3 Yb2 3.079138 1_545
Ni3 Yb1 3.079138 1_545
Ni3 Yb1 3.079413 1_555
Ni3 Yb2 3.079413 1_555
