# generated using pymatgen
data_KBaMg14
_symmetry_space_group_name_H-M   'P 1'
_cell_length_a   6.89059217
_cell_length_b   6.89059153
_cell_length_c   10.58298331
_cell_angle_alpha   90.00000000
_cell_angle_beta   90.00000000
_cell_angle_gamma   120.00000310
_symmetry_Int_Tables_number   1
_chemical_formula_structural   KBaMg14
_chemical_formula_sum   'K1 Ba1 Mg14'
_cell_volume   435.16281947
_cell_formula_units_Z   1
loop_
 _symmetry_equiv_pos_site_id
 _symmetry_equiv_pos_as_xyz
  1  'x, y, z'
loop_
 _atom_site_type_symbol
 _atom_site_label
 _atom_site_symmetry_multiplicity
 _atom_site_fract_x
 _atom_site_fract_y
 _atom_site_fract_z
 _atom_site_occupancy
  K  K0  1  0.16666700  0.33333300  0.12500000  1
  Ba  Ba0  1  0.16666700  0.33333300  0.62500000  1
  Mg  Mg0  1  0.16963203  0.83481552  0.12500000  1
  Mg  Mg1  1  0.17752576  0.83876238  0.62500000  1
  Mg  Mg2  1  0.66518448  0.33036797  0.12500000  1
  Mg  Mg3  1  0.66123762  0.32247424  0.62500000  1
  Mg  Mg4  1  0.66518448  0.83481552  0.12500000  1
  Mg  Mg5  1  0.66123762  0.83876238  0.62500000  1
  Mg  Mg6  1  0.34551998  0.15448002  0.37283762  1
  Mg  Mg7  1  0.34551998  0.15448002  0.87716238  1
  Mg  Mg8  1  0.34551998  0.69104095  0.37283762  1
  Mg  Mg9  1  0.34551998  0.69104095  0.87716238  1
  Mg  Mg10  1  0.80895905  0.15448002  0.37283762  1
  Mg  Mg11  1  0.80895905  0.15448002  0.87716238  1
  Mg  Mg12  1  0.83333300  0.66666700  0.37615828  1
  Mg  Mg13  1  0.83333300  0.66666700  0.87384172  1
loop_
_geom_bond_atom_site_label_1
_geom_bond_atom_site_label_2
_geom_bond_distance
_geom_bond_site_symmetry_2
K0 Mg6 3.381694 1_555
K0 Mg7 3.381694 1_554
K0 Mg9 3.381701 1_554
K0 Mg8 3.381701 1_555
K0 Mg10 3.381701 1_455
K0 Mg11 3.381701 1_454
K0 Mg0 3.445341 1_545
K0 Mg4 3.445341 1_555
K0 Mg4 3.445341 1_445
K0 Mg0 3.445341 1_555
K0 Mg2 3.445341 1_555
K0 Mg2 3.445342 1_455
Ba0 Mg6 3.417314 1_555
Ba0 Mg7 3.417314 1_555
Ba0 Mg8 3.417322 1_555
Ba0 Mg9 3.417322 1_555
Ba0 Mg10 3.417322 1_455
Ba0 Mg11 3.417322 1_455
Ba0 Mg5 3.445905 1_555
Ba0 Mg1 3.445905 1_555
Ba0 Mg5 3.445905 1_445
Ba0 Mg1 3.445905 1_545
Ba0 Mg3 3.445905 1_455
Ba0 Mg3 3.445905 1_555
Mg0 Mg9 3.245064 1_554
Mg0 Mg8 3.245064 1_555
Mg0 Mg7 3.245070 1_564
Mg0 Mg6 3.245070 1_565
Mg0 Mg13 3.330524 1_454
Mg0 Mg12 3.330524 1_455
Mg0 Mg2 3.414650 1_565
Mg0 Mg4 3.414650 1_555
Mg0 Mg2 3.475942 1_455
Mg0 Mg4 3.475942 1_455
Mg1 Mg8 3.267409 1_555
Mg1 Mg9 3.267409 1_555
Mg1 Mg6 3.267415 1_565
Mg1 Mg7 3.267415 1_565
Mg1 Mg3 3.333061 1_565
Mg1 Mg5 3.333061 1_555
Mg1 Mg12 3.339753 1_455
Mg1 Mg13 3.339753 1_455
Mg2 Mg6 3.245071 1_555
Mg2 Mg7 3.245071 1_554
Mg2 Mg4 3.414650 1_545
Mg2 Mg4 3.475942 1_555
Mg3 Mg7 3.267416 1_555
Mg3 Mg6 3.267416 1_555
Mg3 Mg5 3.333061 1_545
Mg4 Mg8 3.245071 1_555
Mg4 Mg9 3.245071 1_554
Mg5 Mg9 3.267416 1_555
Mg5 Mg8 3.267416 1_555
Mg6 Mg8 3.193369 1_545
Mg7 Mg9 3.193369 1_545
Mg10 Mg8 3.193369 1_545
Mg10 Mg6 3.193370 1_555
Mg10 Mg2 3.245064 1_555
Mg10 Mg4 3.245071 1_545
Mg10 Mg3 3.267409 1_555
Mg10 Mg5 3.267416 1_545
Mg10 Mg12 3.448544 1_545
Mg10 Mg12 3.448544 1_555
Mg11 Mg9 3.193369 1_545
Mg11 Mg7 3.193370 1_555
Mg11 Mg2 3.245064 1_556
Mg11 Mg4 3.245071 1_546
Mg11 Mg3 3.267409 1_555
Mg11 Mg5 3.267416 1_545
Mg11 Mg13 3.448544 1_545
Mg11 Mg13 3.448544 1_555
Mg12 Mg4 3.330517 1_555
Mg12 Mg2 3.330524 1_555
Mg12 Mg5 3.339746 1_555
Mg12 Mg3 3.339753 1_555
Mg12 Mg6 3.448544 1_555
Mg12 Mg6 3.448544 1_665
Mg12 Mg8 3.448544 1_555
Mg12 Mg8 3.448544 1_655
Mg13 Mg4 3.330517 1_556
Mg13 Mg2 3.330524 1_556
Mg13 Mg5 3.339746 1_555
Mg13 Mg3 3.339753 1_555
Mg13 Mg7 3.448544 1_555
Mg13 Mg7 3.448544 1_665
Mg13 Mg9 3.448544 1_555
Mg13 Mg9 3.448544 1_655
