# generated using pymatgen
data_YbHSO5
_symmetry_space_group_name_H-M   'P 1'
_cell_length_a   8.07154600
_cell_length_b   11.25710900
_cell_length_c   11.22715288
_cell_angle_alpha   90.00000000
_cell_angle_beta   132.51785715
_cell_angle_gamma   90.00000000
_symmetry_Int_Tables_number   1
_chemical_formula_structural   YbHSO5
_chemical_formula_sum   'Yb8 H8 S8 O40'
_cell_volume   751.89993890
_cell_formula_units_Z   8
loop_
 _symmetry_equiv_pos_site_id
 _symmetry_equiv_pos_as_xyz
  1  'x, y, z'
loop_
 _atom_site_type_symbol
 _atom_site_label
 _atom_site_symmetry_multiplicity
 _atom_site_fract_x
 _atom_site_fract_y
 _atom_site_fract_z
 _atom_site_occupancy
  Yb  Yb0  1  0.21442700  0.06146600  0.37112000  1
  Yb  Yb1  1  0.21442700  0.43853400  0.87112000  1
  Yb  Yb2  1  0.78557300  0.93853400  0.62888000  1
  Yb  Yb3  1  0.78557300  0.56146600  0.12888000  1
  Yb  Yb4  1  0.73001500  0.07266900  0.91353900  1
  Yb  Yb5  1  0.73001500  0.42733100  0.41353900  1
  Yb  Yb6  1  0.26998500  0.92733100  0.08646100  1
  Yb  Yb7  1  0.26998500  0.57266900  0.58646100  1
  H  H0  1  0.97289000  0.87688200  0.13187200  1
  H  H1  1  0.97289000  0.62311800  0.63187200  1
  H  H2  1  0.02711000  0.12311800  0.86812800  1
  H  H3  1  0.02711000  0.37688200  0.36812800  1
  H  H4  1  0.54138200  0.09100800  0.35318800  1
  H  H5  1  0.54138200  0.40899200  0.85318800  1
  H  H6  1  0.45861800  0.90899200  0.64681200  1
  H  H7  1  0.45861800  0.59100800  0.14681200  1
  S  S0  1  0.59042100  0.30676100  0.63295600  1
  S  S1  1  0.59042100  0.19323900  0.13295600  1
  S  S2  1  0.40957900  0.69323900  0.36704400  1
  S  S3  1  0.40957900  0.80676100  0.86704400  1
  S  S4  1  0.13385300  0.17193600  0.63409500  1
  S  S5  1  0.13385300  0.32806400  0.13409500  1
  S  S6  1  0.86614700  0.82806400  0.36590500  1
  S  S7  1  0.86614700  0.67193600  0.86590500  1
  O  O0  1  0.95862900  0.09392800  0.60184700  1
  O  O1  1  0.95862900  0.40607200  0.10184700  1
  O  O2  1  0.04137100  0.90607200  0.39815300  1
  O  O3  1  0.04137100  0.59392800  0.89815300  1
  O  O4  1  0.35398300  0.12606000  0.78088800  1
  O  O5  1  0.35398300  0.37394000  0.28088800  1
  O  O6  1  0.64601700  0.87394000  0.21911200  1
  O  O7  1  0.64601700  0.62606000  0.71911200  1
  O  O8  1  0.12281000  0.16883200  0.49748400  1
  O  O9  1  0.12281000  0.33116800  0.99748400  1
  O  O10  1  0.87719000  0.83116800  0.50251600  1
  O  O11  1  0.87719000  0.66883200  0.00251600  1
  O  O12  1  0.09651200  0.29630500  0.65889000  1
  O  O13  1  0.09651200  0.20369500  0.15889000  1
  O  O14  1  0.90348800  0.70369500  0.34111000  1
  O  O15  1  0.90348800  0.79630500  0.84111000  1
  O  O16  1  0.41158000  0.39542100  0.57403200  1
  O  O17  1  0.41158000  0.10457900  0.07403200  1
  O  O18  1  0.58842000  0.60457900  0.42596800  1
  O  O19  1  0.58842000  0.89542100  0.92596800  1
  O  O20  1  0.76451700  0.37091900  0.64700300  1
  O  O21  1  0.76451700  0.12908100  0.14700300  1
  O  O22  1  0.23548300  0.62908100  0.35299700  1
  O  O23  1  0.23548300  0.87091900  0.85299700  1
  O  O24  1  0.50051800  0.20766300  0.51793400  1
  O  O25  1  0.50051800  0.29233700  0.01793400  1
  O  O26  1  0.49948200  0.79233700  0.48206600  1
  O  O27  1  0.49948200  0.70766300  0.98206600  1
  O  O28  1  0.67977400  0.26204600  0.79118800  1
  O  O29  1  0.67977400  0.23795400  0.29118800  1
  O  O30  1  0.32022600  0.73795400  0.20881200  1
  O  O31  1  0.32022600  0.76204600  0.70881200  1
  O  O32  1  0.03091800  0.95361600  0.13253600  1
  O  O33  1  0.03091800  0.54638400  0.63253600  1
  O  O34  1  0.96908200  0.04638400  0.86746400  1
  O  O35  1  0.96908200  0.45361600  0.36746400  1
  O  O36  1  0.48387100  0.01445500  0.35413300  1
  O  O37  1  0.48387100  0.48554500  0.85413300  1
  O  O38  1  0.51612900  0.98554500  0.64586700  1
  O  O39  1  0.51612900  0.51445500  0.14586700  1
loop_
_geom_bond_atom_site_label_1
_geom_bond_atom_site_label_2
_geom_bond_distance
_geom_bond_site_symmetry_2
H0 O32 0.980238 1_655
H1 O33 0.980238 1_655
H2 O34 0.980238 1_455
H3 O35 0.980238 1_455
H4 O36 0.982290 1_555
H5 O37 0.982290 1_555
H6 O38 0.982290 1_555
H7 O39 0.982290 1_555
O0 S4 1.486749 1_655
O0 Yb2 2.382493 1_545
O1 S5 1.486749 1_655
O1 Yb3 2.382493 1_555
O2 S6 1.486749 1_455
O2 Yb0 2.382493 1_565
O3 S7 1.486749 1_455
O3 Yb1 2.382493 1_555
O4 S4 1.477106 1_555
O4 Yb4 2.383628 1_555
O5 S5 1.477106 1_555
O5 Yb5 2.383628 1_555
O6 S6 1.477106 1_555
O6 Yb6 2.383628 1_555
O7 S7 1.477106 1_555
O7 Yb7 2.383628 1_555
O8 S4 1.475392 1_555
O8 Yb0 2.332038 1_555
O9 S5 1.475392 1_556
O9 Yb1 2.332038 1_555
O10 S6 1.475392 1_555
O10 Yb2 2.332038 1_555
O11 S7 1.475392 1_554
O11 Yb3 2.332038 1_555
O12 S4 1.497278 1_555
O12 Yb1 2.466077 1_555
O12 Yb5 2.738658 1_455
O13 S5 1.497278 1_555
O13 Yb0 2.466077 1_555
O13 Yb4 2.738658 1_454
O14 S6 1.497278 1_555
O14 Yb3 2.466077 1_555
O14 Yb7 2.738658 1_655
O15 S7 1.497278 1_555
O15 Yb2 2.466077 1_555
O15 Yb6 2.738658 1_656
O16 S0 1.492232 1_555
O16 Yb7 2.349990 1_555
O17 S1 1.492232 1_555
O17 Yb6 2.349990 1_545
O18 S2 1.492232 1_555
O18 Yb5 2.349990 1_555
O19 S3 1.492232 1_555
O19 Yb4 2.349990 1_565
O20 S0 1.490505 1_555
O20 Yb5 2.522807 1_555
O20 Yb1 2.783445 1_655
O21 S1 1.490505 1_555
O21 Yb4 2.522807 1_554
O21 Yb0 2.783445 1_655
O22 S2 1.490505 1_555
O22 Yb7 2.522807 1_555
O22 Yb3 2.783445 1_455
O23 S3 1.490505 1_555
O23 Yb6 2.522807 1_556
O23 Yb2 2.783445 1_455
O24 S0 1.473795 1_555
O24 Yb0 2.369202 1_555
O25 S1 1.473795 1_555
O25 Yb1 2.369202 1_554
O26 S2 1.473795 1_555
O26 Yb2 2.369202 1_555
O27 S3 1.473795 1_555
O27 Yb3 2.369202 1_556
O28 S0 1.482460 1_555
O28 Yb4 2.417266 1_555
O29 S1 1.482460 1_555
O29 Yb5 2.417266 1_555
O30 S2 1.482460 1_555
O30 Yb6 2.417266 1_555
O31 S3 1.482460 1_555
O31 Yb7 2.417266 1_555
O32 Yb6 2.329773 1_555
O32 Yb0 2.340986 1_565
O32 Yb4 2.380917 1_464
O33 Yb7 2.329773 1_555
O33 Yb1 2.340986 1_555
O33 Yb5 2.380917 1_455
O34 Yb4 2.329773 1_555
O34 Yb2 2.340986 1_545
O34 Yb6 2.380917 1_646
O35 Yb5 2.329773 1_555
O35 Yb3 2.340986 1_555
O35 Yb7 2.380917 1_655
O36 Yb0 2.367898 1_555
O36 Yb6 2.441520 1_545
O36 Yb2 2.454070 1_545
O37 Yb1 2.367898 1_555
O37 Yb7 2.441520 1_555
O37 Yb3 2.454070 1_556
O38 Yb2 2.367898 1_555
O38 Yb4 2.441520 1_565
O38 Yb0 2.454070 1_565
O39 Yb3 2.367898 1_555
O39 Yb5 2.441520 1_555
O39 Yb1 2.454070 1_554
