# generated using pymatgen
data_MgGaCu2
_symmetry_space_group_name_H-M   'P 1'
_cell_length_a   10.22333798
_cell_length_b   10.22333798
_cell_length_c   10.22333798
_cell_angle_alpha   121.95023855
_cell_angle_beta   119.35021214
_cell_angle_gamma   88.89245802
_symmetry_Int_Tables_number   1
_chemical_formula_structural   MgGaCu2
_chemical_formula_sum   'Mg1 Ga1 Cu2'
_cell_volume   747.47957914
_cell_formula_units_Z   1
loop_
 _symmetry_equiv_pos_site_id
 _symmetry_equiv_pos_as_xyz
  1  'x, y, z'
loop_
 _atom_site_type_symbol
 _atom_site_label
 _atom_site_symmetry_multiplicity
 _atom_site_fract_x
 _atom_site_fract_y
 _atom_site_fract_z
 _atom_site_occupancy
  Mg  Mg0  1  0.00000000  0.00000000  0.00000000  1
  Ga  Ga0  1  0.00000000  0.50000000  0.50000000  1
  Cu  Cu0  1  0.00000000  0.26124100  0.26124100  1
  Cu  Cu1  1  0.00000000  0.73875900  0.73875900  1
loop_
_geom_bond_atom_site_label_1
_geom_bond_atom_site_label_2
_geom_bond_distance
_geom_bond_site_symmetry_2
Cu0 Ga0 2.368611 1_555
Cu0 Mg0 2.591644 1_555
Cu1 Ga0 2.368611 1_555
Cu1 Mg0 2.591644 1_566
