# generated using pymatgen
data_AgClO4
_symmetry_space_group_name_H-M   'P 1'
_cell_length_a   5.53302200
_cell_length_b   4.96620700
_cell_length_c   6.73199982
_cell_angle_alpha   67.30890616
_cell_angle_beta   90.00000000
_cell_angle_gamma   90.00000000
_symmetry_Int_Tables_number   1
_chemical_formula_structural   AgClO4
_chemical_formula_sum   'Ag2 Cl2 O8'
_cell_volume   170.66475803
_cell_formula_units_Z   2
loop_
 _symmetry_equiv_pos_site_id
 _symmetry_equiv_pos_as_xyz
  1  'x, y, z'
loop_
 _atom_site_type_symbol
 _atom_site_label
 _atom_site_symmetry_multiplicity
 _atom_site_fract_x
 _atom_site_fract_y
 _atom_site_fract_z
 _atom_site_occupancy
  Ag  Ag0  1  0.25000000  0.96327600  0.74893900  1
  Ag  Ag1  1  0.75000000  0.03672400  0.25106100  1
  Cl  Cl0  1  0.75000000  0.44110100  0.73138700  1
  Cl  Cl1  1  0.25000000  0.55889900  0.26861300  1
  O  O0  1  0.75000000  0.37301500  0.54107700  1
  O  O1  1  0.25000000  0.62698500  0.45892300  1
  O  O2  1  0.75000000  0.76298800  0.66596000  1
  O  O3  1  0.25000000  0.23701200  0.33404000  1
  O  O4  1  0.96563900  0.31732700  0.86383000  1
  O  O5  1  0.46563900  0.68267300  0.13617000  1
  O  O6  1  0.03436100  0.68267300  0.13617000  1
  O  O7  1  0.53436100  0.31732700  0.86383000  1
loop_
_geom_bond_atom_site_label_1
_geom_bond_atom_site_label_2
_geom_bond_distance
_geom_bond_site_symmetry_2
Ag0 O3 2.592288 1_565
Ag0 O4 2.685991 1_465
Ag0 O7 2.685991 1_565
Ag0 O6 2.712634 1_556
Ag0 O5 2.712634 1_556
Ag1 O2 2.592288 1_545
Ag1 O5 2.685991 1_545
Ag1 O6 2.685991 1_645
Ag1 O4 2.712634 1_554
Ag1 O7 2.712634 1_554
Cl0 O0 1.445664 1_555
Cl0 O4 1.474291 1_555
Cl0 O7 1.474291 1_555
Cl0 O2 1.485315 1_555
Cl1 O1 1.445664 1_555
Cl1 O6 1.474291 1_555
Cl1 O5 1.474291 1_555
Cl1 O3 1.485315 1_555
