# generated using pymatgen
data_Rb2Co3S4
_symmetry_space_group_name_H-M   'P 1'
_cell_length_a   8.83904046
_cell_length_b   8.83904046
_cell_length_c   8.83904046
_cell_angle_alpha   144.56998564
_cell_angle_beta   104.75345280
_cell_angle_gamma   86.01562359
_symmetry_Int_Tables_number   1
_chemical_formula_structural   Rb2Co3S4
_chemical_formula_sum   'Rb4 Co6 S8'
_cell_volume   375.22073661
_cell_formula_units_Z   2
loop_
 _symmetry_equiv_pos_site_id
 _symmetry_equiv_pos_as_xyz
  1  'x, y, z'
loop_
 _atom_site_type_symbol
 _atom_site_label
 _atom_site_symmetry_multiplicity
 _atom_site_fract_x
 _atom_site_fract_y
 _atom_site_fract_z
 _atom_site_occupancy
  Rb  Rb0  1  0.62371500  0.25860500  0.88232100  1
  Rb  Rb1  1  0.37628500  0.74139500  0.11767900  1
  Rb  Rb2  1  0.12371500  0.24139500  0.36511000  1
  Rb  Rb3  1  0.87628500  0.75860500  0.63489000  1
  Co  Co0  1  0.75000000  0.25000000  0.50000000  1
  Co  Co1  1  0.25000000  0.75000000  0.50000000  1
  Co  Co2  1  0.00315800  0.75000000  0.25315800  1
  Co  Co3  1  0.49684200  0.75000000  0.74684200  1
  Co  Co4  1  0.99684200  0.25000000  0.74684200  1
  Co  Co5  1  0.50315800  0.25000000  0.25315800  1
  S  S0  1  0.03938600  0.41474100  0.12458300  1
  S  S1  1  0.29015700  0.91480300  0.87541700  1
  S  S2  1  0.20984300  0.08525900  0.62464600  1
  S  S3  1  0.46061400  0.58519700  0.37535400  1
  S  S4  1  0.96061400  0.58525900  0.87541700  1
  S  S5  1  0.70984300  0.08519700  0.12458300  1
  S  S6  1  0.79015700  0.91474100  0.37535400  1
  S  S7  1  0.53938600  0.41480300  0.62464600  1
loop_
_geom_bond_atom_site_label_1
_geom_bond_atom_site_label_2
_geom_bond_distance
_geom_bond_site_symmetry_2
Rb0 S3 3.394616 1_556
Rb0 S6 3.394630 1_556
Rb0 S2 3.430160 1_555
Rb0 S7 3.430168 1_555
Rb0 S5 3.445392 1_556
Rb0 S0 3.445400 1_656
Rb0 S3 3.467454 1_545
Rb0 S6 3.467464 1_545
Rb1 S7 3.394616 1_554
Rb1 S2 3.394630 1_554
Rb1 S6 3.430160 1_555
Rb1 S3 3.430168 1_555
Rb1 S1 3.445392 1_554
Rb1 S4 3.445400 1_454
Rb1 S7 3.467454 1_565
Rb1 S2 3.467464 1_565
Rb2 S1 3.394622 1_544
Rb2 S4 3.394628 1_444
Rb2 S5 3.430160 1_455
Rb2 S0 3.430168 1_555
Rb2 S7 3.445401 1_555
Rb2 S2 3.445409 1_555
Rb2 S1 3.467456 1_555
Rb2 S4 3.467458 1_455
Rb3 S5 3.394622 1_566
Rb3 S0 3.394628 1_666
Rb3 S1 3.430160 1_655
Rb3 S4 3.430168 1_555
Rb3 S3 3.445401 1_555
Rb3 S6 3.445409 1_555
Rb3 S5 3.467456 1_555
Rb3 S0 3.467458 1_655
Co0 S6 2.203127 1_545
Co0 S4 2.203134 1_555
Co0 S5 2.203135 1_555
Co0 S7 2.203135 1_555
Co1 S2 2.203127 1_565
Co1 S0 2.203134 1_555
Co1 S1 2.203135 1_555
Co1 S3 2.203135 1_555
Co2 S0 2.177342 1_555
Co2 S2 2.177348 1_565
Co2 S4 2.218840 1_454
Co2 S6 2.218846 1_455
Co3 S3 2.177350 1_555
Co3 S1 2.177350 1_555
Co3 S5 2.218845 1_566
Co3 S7 2.218845 1_555
Co4 S4 2.177342 1_555
Co4 S6 2.177348 1_545
Co4 S0 2.218840 1_656
Co4 S2 2.218846 1_655
Co5 S5 2.177350 1_555
Co5 S7 2.177350 1_555
Co5 S1 2.218845 1_544
Co5 S3 2.218845 1_555
