# generated using pymatgen
data_DyNi4B
_symmetry_space_group_name_H-M   'P 1'
_cell_length_a   4.98063200
_cell_length_b   4.99232111
_cell_length_c   6.95596400
_cell_angle_alpha   90.00000000
_cell_angle_beta   90.00000000
_cell_angle_gamma   119.92257668
_symmetry_Int_Tables_number   1
_chemical_formula_structural   DyNi4B
_chemical_formula_sum   'Dy2 Ni8 B2'
_cell_volume   149.90399889
_cell_formula_units_Z   2
loop_
 _symmetry_equiv_pos_site_id
 _symmetry_equiv_pos_as_xyz
  1  'x, y, z'
loop_
 _atom_site_type_symbol
 _atom_site_label
 _atom_site_symmetry_multiplicity
 _atom_site_fract_x
 _atom_site_fract_y
 _atom_site_fract_z
 _atom_site_occupancy
  Dy  Dy0  1  0.50000000  0.00000000  0.00000000  1
  Dy  Dy1  1  0.50000000  0.00000000  0.50000000  1
  Ni  Ni0  1  0.83332900  0.66665800  0.00000000  1
  Ni  Ni1  1  0.16667100  0.33334200  0.00000000  1
  Ni  Ni2  1  0.00000000  0.00000000  0.70708300  1
  Ni  Ni3  1  0.50000000  0.50000000  0.70736100  1
  Ni  Ni4  1  0.00000000  0.50000000  0.70736100  1
  Ni  Ni5  1  0.00000000  0.00000000  0.29291700  1
  Ni  Ni6  1  0.50000000  0.50000000  0.29263900  1
  Ni  Ni7  1  0.00000000  0.50000000  0.29263900  1
  B  B0  1  0.83334100  0.66668100  0.50000000  1
  B  B1  1  0.16665900  0.33331900  0.50000000  1
loop_
_geom_bond_atom_site_label_1
_geom_bond_atom_site_label_2
_geom_bond_distance
_geom_bond_site_symmetry_2
Dy0 Ni1 2.877839 1_655
Dy0 Ni0 2.877839 1_445
Dy0 Ni0 2.877839 1_545
Dy0 Ni1 2.877839 1_555
Dy0 Ni0 2.884527 1_555
Dy0 Ni1 2.884527 1_545
Dy1 Ni5 2.876909 1_555
Dy1 Ni2 2.876909 1_555
Dy1 Ni5 2.876909 1_655
Dy1 Ni2 2.876909 1_655
Dy1 Ni7 2.882936 1_655
Dy1 Ni4 2.882936 1_655
Dy1 Ni7 2.882936 1_545
Dy1 Ni3 2.882936 1_555
Dy1 Ni6 2.882936 1_545
Dy1 Ni6 2.882936 1_555
Dy1 Ni4 2.882936 1_545
Dy1 Ni3 2.882936 1_545
Ni0 Ni6 2.492794 1_555
Ni0 Ni3 2.492794 1_554
Ni0 Ni4 2.492794 1_654
Ni0 Ni7 2.492794 1_655
Ni0 Ni5 2.496352 1_665
Ni0 Ni2 2.496352 1_664
Ni0 Ni1 2.877783 1_555
Ni0 Ni1 2.877783 1_655
Ni0 Ni1 2.884639 1_665
Ni1 Ni4 2.492794 1_554
Ni1 Ni6 2.492794 1_555
Ni1 Ni7 2.492794 1_555
Ni1 Ni3 2.492794 1_554
Ni1 Ni5 2.496352 1_555
Ni1 Ni2 2.496352 1_554
B0 Ni7 2.037413 1_655
B0 Ni4 2.037413 1_655
B0 Ni3 2.037416 1_555
B0 Ni6 2.037416 1_555
B0 Ni2 2.038364 1_665
B0 Ni5 2.038364 1_665
B0 Dy1 2.877787 1_665
B0 Dy1 2.877792 1_565
B0 Dy1 2.884626 1_555
B1 Ni7 2.037413 1_555
B1 Ni4 2.037413 1_555
B1 Ni3 2.037416 1_555
B1 Ni6 2.037416 1_555
B1 Ni5 2.038364 1_555
B1 Ni2 2.038364 1_555
B1 Dy1 2.877787 1_455
B1 Dy1 2.877792 1_555
B1 Dy1 2.884626 1_565
