# generated using pymatgen
data_Ca(Cu2O3)2
_symmetry_space_group_name_H-M   'P 1'
_cell_length_a   5.18600270
_cell_length_b   5.18600270
_cell_length_c   14.74326500
_cell_angle_alpha   90.00000000
_cell_angle_beta   90.00000000
_cell_angle_gamma   145.18995841
_symmetry_Int_Tables_number   1
_chemical_formula_structural   Ca(Cu2O3)2
_chemical_formula_sum   'Ca2 Cu8 O12'
_cell_volume   226.35330425
_cell_formula_units_Z   2
loop_
 _symmetry_equiv_pos_site_id
 _symmetry_equiv_pos_as_xyz
  1  'x, y, z'
loop_
 _atom_site_type_symbol
 _atom_site_label
 _atom_site_symmetry_multiplicity
 _atom_site_fract_x
 _atom_site_fract_y
 _atom_site_fract_z
 _atom_site_occupancy
  Ca  Ca0  1  0.33940200  0.66059800  0.75000000  1
  Ca  Ca1  1  0.66059800  0.33940200  0.25000000  1
  Cu  Cu0  1  0.13819200  0.86180800  0.04079700  1
  Cu  Cu1  1  0.59000200  0.40999800  0.63161000  1
  Cu  Cu2  1  0.86180800  0.13819200  0.95920300  1
  Cu  Cu3  1  0.40999800  0.59000200  0.36839000  1
  Cu  Cu4  1  0.13819200  0.86180800  0.45920300  1
  Cu  Cu5  1  0.86180800  0.13819200  0.54079700  1
  Cu  Cu6  1  0.40999800  0.59000200  0.13161000  1
  Cu  Cu7  1  0.59000200  0.40999800  0.86839000  1
  O  O0  1  0.50000000  0.50000000  0.50000000  1
  O  O1  1  0.50000000  0.50000000  0.00000000  1
  O  O2  1  0.95580700  0.04419300  0.84914400  1
  O  O3  1  0.04419300  0.95580700  0.15085600  1
  O  O4  1  0.04419300  0.95580700  0.34914400  1
  O  O5  1  0.95580700  0.04419300  0.65085600  1
  O  O6  1  0.21812200  0.78187800  0.92156800  1
  O  O7  1  0.78187800  0.21812200  0.07843200  1
  O  O8  1  0.78187800  0.21812200  0.42156800  1
  O  O9  1  0.21812200  0.78187800  0.57843200  1
  O  O10  1  0.67277900  0.32722100  0.75000000  1
  O  O11  1  0.32722100  0.67277900  0.25000000  1
loop_
_geom_bond_atom_site_label_1
_geom_bond_atom_site_label_2
_geom_bond_distance
_geom_bond_site_symmetry_2
Ca0 O10 2.264044 1_565
Ca0 O10 2.264044 1_455
Ca0 O2 2.422863 1_565
Ca0 O5 2.422863 1_565
Ca0 O5 2.422863 1_455
Ca0 O2 2.422863 1_455
Ca0 O9 2.799822 1_555
Ca0 O6 2.799822 1_555
Ca1 O11 2.264044 1_655
Ca1 O11 2.264044 1_545
Ca1 O3 2.422863 1_545
Ca1 O4 2.422863 1_545
Ca1 O3 2.422863 1_655
Ca1 O4 2.422863 1_655
Ca1 O8 2.799822 1_555
Ca1 O7 2.799822 1_555
Cu0 O3 1.870406 1_555
Cu0 O6 1.927628 1_554
Cu0 O1 2.153786 1_455
Cu0 O1 2.153786 1_565
Cu0 O7 2.176369 1_455
Cu0 O7 2.176369 1_565
Cu1 O10 1.928157 1_555
Cu1 O5 2.061768 1_565
Cu1 O5 2.061768 1_455
Cu1 O0 2.135054 1_555
Cu1 O9 2.151502 1_655
Cu1 O9 2.151502 1_545
Cu2 O2 1.870406 1_555
Cu2 O7 1.927628 1_556
Cu2 O1 2.153786 1_656
Cu2 O1 2.153786 1_546
Cu2 O6 2.176369 1_545
Cu2 O6 2.176369 1_655
Cu3 O11 1.928157 1_555
Cu3 O4 2.061768 1_655
Cu3 O4 2.061768 1_545
Cu3 O0 2.135054 1_555
Cu3 O8 2.151502 1_565
Cu3 O8 2.151502 1_455
Cu4 O4 1.870406 1_555
Cu4 O9 1.927628 1_555
Cu4 O0 2.153786 1_455
Cu4 O0 2.153786 1_565
Cu4 O8 2.176369 1_565
Cu4 O8 2.176369 1_455
Cu5 O5 1.870406 1_555
Cu5 O8 1.927628 1_555
Cu5 O0 2.153786 1_545
Cu5 O0 2.153786 1_655
Cu5 O9 2.176369 1_545
Cu5 O9 2.176369 1_655
Cu6 O11 1.928157 1_555
Cu6 O3 2.061768 1_655
Cu6 O3 2.061768 1_545
Cu6 O1 2.135054 1_555
Cu6 O7 2.151502 1_565
Cu6 O7 2.151502 1_455
Cu7 O10 1.928157 1_555
Cu7 O2 2.061768 1_565
Cu7 O2 2.061768 1_455
Cu7 O1 2.135054 1_556
Cu7 O6 2.151502 1_655
Cu7 O6 2.151502 1_545
