# generated using pymatgen
data_Ca5(CoN3)2
_symmetry_space_group_name_H-M   'P 1'
_cell_length_a   5.81472610
_cell_length_b   6.21556148
_cell_length_c   12.51150202
_cell_angle_alpha   89.99999860
_cell_angle_beta   100.34184470
_cell_angle_gamma   122.30779633
_symmetry_Int_Tables_number   1
_chemical_formula_structural   Ca5(CoN3)2
_chemical_formula_sum   'Ca10 Co4 N12'
_cell_volume   373.46379045
_cell_formula_units_Z   2
loop_
 _symmetry_equiv_pos_site_id
 _symmetry_equiv_pos_as_xyz
  1  'x, y, z'
loop_
 _atom_site_type_symbol
 _atom_site_label
 _atom_site_symmetry_multiplicity
 _atom_site_fract_x
 _atom_site_fract_y
 _atom_site_fract_z
 _atom_site_occupancy
  Ca  Ca0  1  0.00000000  0.36891900  0.75000000  1
  Ca  Ca1  1  0.00000000  0.63108100  0.25000000  1
  Ca  Ca2  1  0.13135300  0.80589400  0.99969200  1
  Ca  Ca3  1  0.86864700  0.67454200  0.50030800  1
  Ca  Ca4  1  0.86864700  0.19410600  0.00030800  1
  Ca  Ca5  1  0.13135300  0.32545800  0.49969200  1
  Ca  Ca6  1  0.31774400  0.05231600  0.72268400  1
  Ca  Ca7  1  0.68225600  0.73457100  0.77731600  1
  Ca  Ca8  1  0.68225600  0.94768400  0.27731600  1
  Ca  Ca9  1  0.31774400  0.26542900  0.22268400  1
  Co  Co0  1  0.54340600  0.88523700  0.56584800  1
  Co  Co1  1  0.45659400  0.34183200  0.93415200  1
  Co  Co2  1  0.45659400  0.11476300  0.43415200  1
  Co  Co3  1  0.54340600  0.65816800  0.06584800  1
  N  N0  1  0.28952000  0.67667100  0.64519900  1
  N  N1  1  0.71048000  0.38715200  0.85480100  1
  N  N2  1  0.71048000  0.32332900  0.35480100  1
  N  N3  1  0.28952000  0.61284800  0.14519900  1
  N  N4  1  0.56555100  0.22908300  0.57330900  1
  N  N5  1  0.43444900  0.66353200  0.92669100  1
  N  N6  1  0.43444900  0.77091700  0.42669100  1
  N  N7  1  0.56555100  0.33646800  0.07330900  1
  N  N8  1  0.89271600  0.98459400  0.62880600  1
  N  N9  1  0.10728400  0.09187600  0.87119400  1
  N  N10  1  0.10728400  0.01540600  0.37119400  1
  N  N11  1  0.89271600  0.90812400  0.12880600  1
loop_
_geom_bond_atom_site_label_1
_geom_bond_atom_site_label_2
_geom_bond_distance
_geom_bond_site_symmetry_2
Ca0 N0 2.358541 1_555
Ca0 N1 2.358544 1_455
Ca0 N8 2.542082 1_445
Ca0 N9 2.542092 1_555
Ca0 N5 2.769849 1_555
Ca0 N4 2.769849 1_455
Ca1 N2 2.358541 1_455
Ca1 N3 2.358544 1_555
Ca1 N10 2.542082 1_565
Ca1 N11 2.542092 1_455
Ca1 N7 2.769849 1_455
Ca1 N6 2.769849 1_555
Ca2 N9 2.439073 1_565
Ca2 N3 2.485618 1_556
Ca2 N11 2.585743 1_456
Ca2 N5 2.639747 1_555
Ca2 N1 2.765505 1_455
Ca2 N7 2.891926 1_566
Ca3 N8 2.439078 1_555
Ca3 N2 2.485618 1_555
Ca3 N10 2.585732 1_665
Ca3 N4 2.639751 1_555
Ca3 N0 2.765511 1_655
Ca3 N6 2.891922 1_555
Ca4 N11 2.439073 1_545
Ca4 N1 2.485618 1_554
Ca4 N9 2.585743 1_654
Ca4 N7 2.639747 1_555
Ca4 N3 2.765505 1_655
Ca4 N5 2.891926 1_544
Ca5 N10 2.439078 1_555
Ca5 N0 2.485618 1_555
Ca5 N8 2.585732 1_445
Ca5 N6 2.639751 1_555
Ca5 N2 2.765511 1_455
Ca5 N4 2.891922 1_555
Ca6 N8 2.347433 1_445
Ca6 N1 2.417253 1_555
Ca6 N0 2.439580 1_545
Ca6 N4 2.459844 1_555
Ca6 N9 2.479638 1_555
Ca7 N9 2.347431 1_665
Ca7 N0 2.417253 1_555
Ca7 N1 2.439569 1_555
Ca7 N5 2.459845 1_555
Ca7 N8 2.479644 1_555
Ca8 N10 2.347433 1_665
Ca8 N3 2.417253 1_555
Ca8 N2 2.439580 1_565
Ca8 N6 2.459844 1_555
Ca8 N11 2.479638 1_555
Ca9 N11 2.347431 1_445
Ca9 N2 2.417253 1_555
Ca9 N3 2.439569 1_555
Ca9 N7 2.459845 1_555
Ca9 N10 2.479644 1_555
Co0 N6 1.749381 1_555
Co0 N8 1.792241 1_555
Co0 N0 1.823762 1_555
Co0 N4 2.072297 1_565
Co1 N7 1.749383 1_556
Co1 N9 1.792246 1_555
Co1 N1 1.823762 1_555
Co1 N5 2.072291 1_555
Co2 N4 1.749381 1_555
Co2 N10 1.792241 1_555
Co2 N2 1.823762 1_555
Co2 N6 2.072297 1_545
Co3 N5 1.749383 1_554
Co3 N11 1.792246 1_555
Co3 N3 1.823762 1_555
Co3 N7 2.072291 1_555
