# generated using pymatgen
data_Ba3ScN3
_symmetry_space_group_name_H-M   'P 1'
_cell_length_a   8.55202700
_cell_length_b   8.55200355
_cell_length_c   5.67649400
_cell_angle_alpha   90.00000000
_cell_angle_beta   90.00000000
_cell_angle_gamma   120.00003787
_symmetry_Int_Tables_number   1
_chemical_formula_structural   Ba3ScN3
_chemical_formula_sum   'Ba6 Sc2 N6'
_cell_volume   359.54030694
_cell_formula_units_Z   2
loop_
 _symmetry_equiv_pos_site_id
 _symmetry_equiv_pos_as_xyz
  1  'x, y, z'
loop_
 _atom_site_type_symbol
 _atom_site_label
 _atom_site_symmetry_multiplicity
 _atom_site_fract_x
 _atom_site_fract_y
 _atom_site_fract_z
 _atom_site_occupancy
  Ba  Ba0  1  0.93146000  0.64834100  0.25000000  1
  Ba  Ba1  1  0.71688000  0.06853900  0.25000000  1
  Ba  Ba2  1  0.35166100  0.28312100  0.25000000  1
  Ba  Ba3  1  0.06854000  0.35165900  0.75000000  1
  Ba  Ba4  1  0.28312000  0.93146100  0.75000000  1
  Ba  Ba5  1  0.64833900  0.71687900  0.75000000  1
  Sc  Sc0  1  0.66666500  0.33333200  0.75000000  1
  Sc  Sc1  1  0.33333500  0.66666800  0.25000000  1
  N  N0  1  0.88069200  0.59327600  0.75000000  1
  N  N1  1  0.71258600  0.11930800  0.75000000  1
  N  N2  1  0.40672600  0.28741800  0.75000000  1
  N  N3  1  0.11930800  0.40672400  0.25000000  1
  N  N4  1  0.28741400  0.88069200  0.25000000  1
  N  N5  1  0.59327400  0.71258200  0.25000000  1
loop_
_geom_bond_atom_site_label_1
_geom_bond_atom_site_label_2
_geom_bond_distance
_geom_bond_site_symmetry_2
Ba0 N4 2.676987 1_655
Ba0 N0 2.874274 1_554
Ba0 N0 2.874274 1_555
Ba0 N3 3.189029 1_655
Ba0 N5 3.202412 1_555
Ba1 N5 2.677000 1_545
Ba1 N1 2.874273 1_554
Ba1 N1 2.874273 1_555
Ba1 N4 3.189041 1_545
Ba1 N3 3.202410 1_655
Ba2 N3 2.677003 1_555
Ba2 N2 2.874275 1_555
Ba2 N2 2.874275 1_554
Ba2 N5 3.188993 1_555
Ba2 N4 3.202401 1_545
Ba3 N1 2.676987 1_455
Ba3 N3 2.874274 1_556
Ba3 N3 2.874274 1_555
Ba3 N0 3.189029 1_455
Ba3 N2 3.202412 1_555
Ba4 N2 2.677000 1_565
Ba4 N4 2.874273 1_556
Ba4 N4 2.874273 1_555
Ba4 N1 3.189041 1_565
Ba4 N0 3.202410 1_455
Ba5 N0 2.677003 1_555
Ba5 N5 2.874275 1_556
Ba5 N5 2.874275 1_555
Ba5 N2 3.188993 1_555
Ba5 N1 3.202401 1_565
N0 Sc0 2.055035 1_555
N1 Sc0 2.055032 1_555
N2 Sc0 2.055007 1_555
N3 Sc1 2.055035 1_555
N4 Sc1 2.055032 1_555
N5 Sc1 2.055007 1_555
