# generated using pymatgen
data_RbMg6Sb
_symmetry_space_group_name_H-M   'P 1'
_cell_length_a   6.94023126
_cell_length_b   6.94023126
_cell_length_c   5.30086400
_cell_angle_alpha   90.00000000
_cell_angle_beta   90.00000000
_cell_angle_gamma   121.63997942
_symmetry_Int_Tables_number   1
_chemical_formula_structural   RbMg6Sb
_chemical_formula_sum   'Rb1 Mg6 Sb1'
_cell_volume   217.37437735
_cell_formula_units_Z   1
loop_
 _symmetry_equiv_pos_site_id
 _symmetry_equiv_pos_as_xyz
  1  'x, y, z'
loop_
 _atom_site_type_symbol
 _atom_site_label
 _atom_site_symmetry_multiplicity
 _atom_site_fract_x
 _atom_site_fract_y
 _atom_site_fract_z
 _atom_site_occupancy
  Rb  Rb0  1  0.83230700  0.16769300  0.50000000  1
  Mg  Mg0  1  0.33578100  0.16966700  0.50000000  1
  Mg  Mg1  1  0.83033300  0.66421900  0.50000000  1
  Mg  Mg2  1  0.18497100  0.34132300  0.00000000  1
  Mg  Mg3  1  0.65867700  0.81502900  0.00000000  1
  Mg  Mg4  1  0.65587600  0.34412400  0.00000000  1
  Mg  Mg5  1  0.16437200  0.83562800  0.00000000  1
  Sb  Sb0  1  0.33768700  0.66231300  0.50000000  1
loop_
_geom_bond_atom_site_label_1
_geom_bond_atom_site_label_2
_geom_bond_distance
_geom_bond_site_symmetry_2
Rb0 Sb0 3.384373 1_545
Rb0 Sb0 3.384373 1_655
Mg0 Mg4 3.256374 1_556
Mg0 Mg4 3.256374 1_555
Mg0 Mg2 3.293595 1_556
Mg0 Mg2 3.293595 1_555
Mg0 Mg5 3.304702 1_545
Mg0 Mg5 3.304702 1_546
Mg0 Mg1 3.346876 1_555
Mg0 Sb0 3.412157 1_555
Mg0 Mg1 3.420614 1_445
Mg0 Rb0 3.453212 1_555
Mg0 Rb0 3.487059 1_455
Mg0 Sb0 3.528111 1_545
Mg1 Mg4 3.256374 1_555
Mg1 Mg4 3.256374 1_556
Mg1 Mg3 3.293595 1_555
Mg1 Mg3 3.293595 1_556
Mg1 Mg5 3.304702 1_655
Mg1 Mg5 3.304702 1_656
Mg1 Sb0 3.412157 1_555
Mg1 Rb0 3.453212 1_555
Mg1 Rb0 3.487059 1_565
Mg1 Sb0 3.528111 1_655
Mg2 Mg4 3.258034 1_555
Mg2 Sb0 3.260945 1_555
Mg2 Sb0 3.260945 1_554
Mg2 Rb0 3.372402 1_454
Mg2 Rb0 3.372402 1_455
Mg3 Mg4 3.258034 1_555
Mg3 Sb0 3.260945 1_554
Mg3 Sb0 3.260945 1_555
Mg3 Rb0 3.372402 1_565
Mg3 Rb0 3.372402 1_564
Mg4 Mg5 3.385311 1_655
Mg4 Mg5 3.385311 1_545
Mg4 Rb0 3.405362 1_555
Mg4 Rb0 3.405362 1_554
Mg5 Sb0 3.381780 1_554
Mg5 Sb0 3.381780 1_555
