# generated using pymatgen
data_PrMg(NiO3)2
_symmetry_space_group_name_H-M   'P 1'
_cell_length_a   5.24125700
_cell_length_b   5.41626000
_cell_length_c   7.49120000
_cell_angle_alpha   90.00000000
_cell_angle_beta   90.00000000
_cell_angle_gamma   90.00000000
_symmetry_Int_Tables_number   1
_chemical_formula_structural   PrMg(NiO3)2
_chemical_formula_sum   'Pr2 Mg2 Ni4 O12'
_cell_volume   212.66026530
_cell_formula_units_Z   2
loop_
 _symmetry_equiv_pos_site_id
 _symmetry_equiv_pos_as_xyz
  1  'x, y, z'
loop_
 _atom_site_type_symbol
 _atom_site_label
 _atom_site_symmetry_multiplicity
 _atom_site_fract_x
 _atom_site_fract_y
 _atom_site_fract_z
 _atom_site_occupancy
  Pr  Pr0  1  0.01019900  0.70348400  0.00000000  1
  Pr  Pr1  1  0.51019900  0.29651600  0.50000000  1
  Mg  Mg0  1  0.47302500  0.18745300  0.00000000  1
  Mg  Mg1  1  0.97302500  0.81254700  0.50000000  1
  Ni  Ni0  1  0.99875000  0.24953100  0.75133600  1
  Ni  Ni1  1  0.99875000  0.24953100  0.24866400  1
  Ni  Ni2  1  0.49875000  0.75046900  0.25133600  1
  Ni  Ni3  1  0.49875000  0.75046900  0.74866400  1
  O  O0  1  0.07516900  0.19840900  0.50000000  1
  O  O1  1  0.22830500  0.98214000  0.80579900  1
  O  O2  1  0.22830500  0.98214000  0.19420100  1
  O  O3  1  0.30878100  0.44634500  0.19279400  1
  O  O4  1  0.30878100  0.44634500  0.80720600  1
  O  O5  1  0.37026700  0.73190600  0.50000000  1
  O  O6  1  0.57516900  0.80159100  0.00000000  1
  O  O7  1  0.72830500  0.01786000  0.69420100  1
  O  O8  1  0.72830500  0.01786000  0.30579900  1
  O  O9  1  0.80878100  0.55365500  0.69279400  1
  O  O10  1  0.80878100  0.55365500  0.30720600  1
  O  O11  1  0.87026700  0.26809400  0.00000000  1
loop_
_geom_bond_atom_site_label_1
_geom_bond_atom_site_label_2
_geom_bond_distance
_geom_bond_site_symmetry_2
Mg0 O11 2.127367 1_555
Mg0 O6 2.157410 1_545
Mg0 O3 2.189332 1_555
Mg0 O4 2.189332 1_554
Mg0 O1 2.235668 1_544
Mg0 O2 2.235668 1_545
Mg1 O5 2.127367 1_655
Mg1 O0 2.157410 1_665
Mg1 O9 2.189332 1_555
Mg1 O10 2.189332 1_555
Mg1 O8 2.235668 1_565
Mg1 O7 2.235668 1_565
Ni0 O1 1.926525 1_645
Ni0 O7 1.940855 1_555
Ni0 O0 1.944752 1_655
Ni0 O9 1.974085 1_555
Ni0 O11 1.983327 1_556
Ni0 O4 1.987960 1_655
Ni1 O2 1.926525 1_645
Ni1 O8 1.940855 1_555
Ni1 O0 1.944752 1_655
Ni1 O10 1.974085 1_555
Ni1 O11 1.983327 1_555
Ni1 O3 1.987960 1_655
Ni2 O8 1.926525 1_565
Ni2 O2 1.940855 1_555
Ni2 O6 1.944752 1_555
Ni2 O3 1.974085 1_555
Ni2 O5 1.983327 1_555
Ni2 O10 1.987960 1_555
Ni3 O7 1.926525 1_565
Ni3 O1 1.940855 1_555
Ni3 O6 1.944752 1_556
Ni3 O4 1.974085 1_555
Ni3 O5 1.983327 1_555
Ni3 O9 1.987960 1_555
O0 Pr1 2.341203 1_555
O1 Pr0 2.387705 1_556
O2 Pr0 2.387705 1_555
O3 Pr0 2.544531 1_555
O3 Pr1 2.658796 1_555
O4 Pr0 2.544531 1_556
O4 Pr1 2.658796 1_555
O5 Pr1 2.469604 1_555
O6 Pr0 2.341203 1_655
O7 Pr1 2.387705 1_555
O8 Pr1 2.387705 1_555
O9 Pr1 2.544531 1_555
O9 Pr0 2.658796 1_656
O10 Pr1 2.544531 1_555
O10 Pr0 2.658796 1_655
O11 Pr0 2.469604 1_655
