# generated using pymatgen
data_Co2NiO4
_symmetry_space_group_name_H-M   'P 1'
_cell_length_a   5.88844331
_cell_length_b   5.90909921
_cell_length_c   8.26665017
_cell_angle_alpha   44.85417754
_cell_angle_beta   45.37483367
_cell_angle_gamma   60.47912445
_symmetry_Int_Tables_number   1
_chemical_formula_structural   Co2NiO4
_chemical_formula_sum   'Co4 Ni2 O8'
_cell_volume   144.38172572
_cell_formula_units_Z   2
loop_
 _symmetry_equiv_pos_site_id
 _symmetry_equiv_pos_as_xyz
  1  'x, y, z'
loop_
 _atom_site_type_symbol
 _atom_site_label
 _atom_site_symmetry_multiplicity
 _atom_site_fract_x
 _atom_site_fract_y
 _atom_site_fract_z
 _atom_site_occupancy
  Co  Co0  1  0.75001600  0.75001300  0.87497500  1
  Co  Co1  1  0.75000000  0.25000400  0.37500100  1
  Co  Co2  1  0.25001300  0.74999500  0.37498000  1
  Co  Co3  1  0.25000000  0.25001100  0.37499300  1
  Ni  Ni0  1  0.49797400  0.51631700  0.74777900  1
  Ni  Ni1  1  0.00194700  0.98360500  0.00239600  1
  O  O0  1  0.28697100  0.24817700  0.58677300  1
  O  O1  1  0.28863800  0.70525600  0.12825100  1
  O  O2  1  0.70663400  0.24859000  0.14099100  1
  O  O3  1  0.73738200  0.70783200  0.13465400  1
  O  O4  1  0.21302100  0.25181500  0.16322900  1
  O  O5  1  0.21139500  0.79475400  0.62169200  1
  O  O6  1  0.79337000  0.25145100  0.60898200  1
  O  O7  1  0.76264000  0.79218100  0.61530500  1
loop_
_geom_bond_atom_site_label_1
_geom_bond_atom_site_label_2
_geom_bond_distance
_geom_bond_site_symmetry_2
Co0 O3 1.926438 1_556
Co0 O7 1.926454 1_555
Co0 O5 1.940630 1_655
Co0 O1 1.940632 1_556
Co0 O2 2.097349 1_556
Co0 O6 2.097408 1_565
Co1 O7 1.913193 1_545
Co1 O3 1.913226 1_555
Co1 O4 1.948040 1_655
Co1 O0 1.948082 1_555
Co1 O6 2.127479 1_555
Co1 O2 2.127562 1_555
Co2 O3 2.057174 1_555
Co2 O7 2.057205 1_455
Co2 O5 2.082087 1_555
Co2 O1 2.082109 1_555
Co2 O0 2.108133 1_555
Co2 O4 2.108173 1_565
Co3 O0 1.902299 1_555
Co3 O4 1.902327 1_555
Co3 O1 1.902737 1_555
Co3 O5 1.902781 1_545
Co3 O6 1.914460 1_455
Co3 O2 1.914476 1_555
Ni0 O6 1.962385 1_555
Ni0 O7 1.964723 1_555
Ni0 O4 1.982696 1_556
Ni0 O5 1.986124 1_555
Ni1 O2 1.962009 1_465
Ni1 O3 1.964847 1_455
Ni1 O0 1.983522 1_564
Ni1 O1 1.985614 1_555
