# generated using pymatgen
data_Ce5S8
_symmetry_space_group_name_H-M   'P 1'
_cell_length_a   8.34564617
_cell_length_b   8.34564617
_cell_length_c   8.34564617
_cell_angle_alpha   60.00000000
_cell_angle_beta   60.00000000
_cell_angle_gamma   60.00000000
_symmetry_Int_Tables_number   1
_chemical_formula_structural   Ce5S8
_chemical_formula_sum   'Ce5 S8'
_cell_volume   411.02184665
_cell_formula_units_Z   1
loop_
 _symmetry_equiv_pos_site_id
 _symmetry_equiv_pos_as_xyz
  1  'x, y, z'
loop_
 _atom_site_type_symbol
 _atom_site_label
 _atom_site_symmetry_multiplicity
 _atom_site_fract_x
 _atom_site_fract_y
 _atom_site_fract_z
 _atom_site_occupancy
  Ce  Ce0  1  0.11267900  0.62910700  0.62910700  1
  Ce  Ce1  1  0.62910700  0.11267900  0.62910700  1
  Ce  Ce2  1  0.62910700  0.62910700  0.11267900  1
  Ce  Ce3  1  0.62910700  0.62910700  0.62910700  1
  Ce  Ce4  1  0.25000000  0.25000000  0.25000000  1
  S  S0  1  0.84558700  0.38480400  0.38480400  1
  S  S1  1  0.38480400  0.84558700  0.38480400  1
  S  S2  1  0.38480400  0.38480400  0.84558700  1
  S  S3  1  0.38480400  0.38480400  0.38480400  1
  S  S4  1  0.41761200  0.86079600  0.86079600  1
  S  S5  1  0.86079600  0.41761200  0.86079600  1
  S  S6  1  0.86079600  0.86079600  0.41761200  1
  S  S7  1  0.86079600  0.86079600  0.86079600  1
loop_
_geom_bond_atom_site_label_1
_geom_bond_atom_site_label_2
_geom_bond_distance
_geom_bond_site_symmetry_2
Ce0 S6 2.739704 1_455
Ce0 S5 2.739704 1_455
Ce0 S7 2.739704 1_455
Ce0 S1 2.892721 1_555
Ce0 S2 2.892721 1_555
Ce0 S3 2.892726 1_555
Ce1 S6 2.739704 1_545
Ce1 S4 2.739704 1_545
Ce1 S7 2.739704 1_545
Ce1 S2 2.892721 1_555
Ce1 S0 2.892721 1_555
Ce1 S3 2.892726 1_555
Ce2 S5 2.739704 1_554
Ce2 S4 2.739704 1_554
Ce2 S7 2.739704 1_554
Ce2 S1 2.892721 1_555
Ce2 S0 2.892721 1_555
Ce2 S3 2.892726 1_555
Ce3 S6 2.739704 1_555
Ce3 S5 2.739704 1_555
Ce3 S4 2.739704 1_555
Ce3 S1 2.892727 1_555
Ce3 S2 2.892727 1_555
Ce3 S0 2.892727 1_555
Ce4 S3 2.755741 1_555
Ce4 S2 2.755748 1_554
Ce4 S0 2.755748 1_455
Ce4 S1 2.755748 1_545
