# generated using pymatgen
data_Ca7Si6CO23
_symmetry_space_group_name_H-M   'P 1'
_cell_length_a   9.48127673
_cell_length_b   9.48127673
_cell_length_c   6.69226020
_cell_angle_alpha   75.33258242
_cell_angle_beta   75.33258242
_cell_angle_gamma   107.93211103
_symmetry_Int_Tables_number   1
_chemical_formula_structural   Ca7Si6CO23
_chemical_formula_sum   'Ca7 Si6 C1 O23'
_cell_volume   516.63764683
_cell_formula_units_Z   1
loop_
 _symmetry_equiv_pos_site_id
 _symmetry_equiv_pos_as_xyz
  1  'x, y, z'
loop_
 _atom_site_type_symbol
 _atom_site_label
 _atom_site_symmetry_multiplicity
 _atom_site_fract_x
 _atom_site_fract_y
 _atom_site_fract_z
 _atom_site_occupancy
  Ca  Ca0  1  0.65200800  0.93090400  0.01538300  1
  Ca  Ca1  1  0.08055000  0.36449600  0.98244100  1
  Ca  Ca2  1  0.36449600  0.08055000  0.98244100  1
  Ca  Ca3  1  0.93090400  0.65200800  0.01538300  1
  Ca  Ca4  1  0.99459200  0.99459200  0.47762800  1
  Ca  Ca5  1  0.25252300  0.75080600  0.49728500  1
  Ca  Ca6  1  0.75080600  0.25252300  0.49728500  1
  Si  Si0  1  0.83194000  0.62450800  0.56800300  1
  Si  Si1  1  0.37551900  0.16936100  0.43294600  1
  Si  Si2  1  0.16936100  0.37551900  0.43294600  1
  Si  Si3  1  0.62450800  0.83194000  0.56800300  1
  Si  Si4  1  0.67926800  0.32754200  0.99904900  1
  Si  Si5  1  0.32754200  0.67926800  0.99904900  1
  C  C0  1  0.98410700  0.98410700  0.02001500  1
  O  O0  1  0.25384200  0.25384200  0.51953300  1
  O  O1  1  0.75357000  0.75357000  0.48158200  1
  O  O2  1  0.70492900  0.49294300  0.81085400  1
  O  O3  1  0.50739400  0.28943600  0.18558200  1
  O  O4  1  0.28943600  0.50739400  0.18558200  1
  O  O5  1  0.49294300  0.70492900  0.81085400  1
  O  O6  1  0.13676600  0.46395300  0.60619400  1
  O  O7  1  0.53808800  0.86319600  0.39259900  1
  O  O8  1  0.86319600  0.53808800  0.39259900  1
  O  O9  1  0.46395300  0.13676600  0.60619400  1
  O  O10  1  0.98489300  0.72881400  0.61316700  1
  O  O11  1  0.26566100  0.01736600  0.39060800  1
  O  O12  1  0.01736600  0.26566100  0.39060800  1
  O  O13  1  0.72881400  0.98489300  0.61316700  1
  O  O14  1  0.65334000  0.18466300  0.89991300  1
  O  O15  1  0.82174800  0.36397800  0.09675300  1
  O  O16  1  0.36397800  0.82174800  0.09675300  1
  O  O17  1  0.18466300  0.65334000  0.89991300  1
  O  O18  1  0.66875000  0.66875000  0.12368000  1
  O  O19  1  0.31019400  0.31019400  0.89754900  1
  O  O20  1  0.91834600  0.91834600  0.89587800  1
  O  O21  1  0.93876700  0.08514000  0.08289100  1
  O  O22  1  0.08514000  0.93876700  0.08289100  1
loop_
_geom_bond_atom_site_label_1
_geom_bond_atom_site_label_2
_geom_bond_distance
_geom_bond_site_symmetry_2
Ca0 O7 2.307163 1_555
Ca0 O14 2.328253 1_564
Ca0 O16 2.458968 1_555
Ca0 O18 2.473337 1_555
Ca0 O13 2.473417 1_554
Ca0 O20 2.498234 1_554
Ca1 O6 2.306898 1_555
Ca1 O19 2.353834 1_555
Ca1 O15 2.376199 1_456
Ca1 O21 2.392181 1_456
Ca1 O17 2.464286 1_555
Ca1 O12 2.495552 1_556
Ca1 O4 2.872305 1_556
Ca2 O9 2.306898 1_555
Ca2 O19 2.353834 1_555
Ca2 O16 2.376199 1_546
Ca2 O22 2.392181 1_546
Ca2 O14 2.464286 1_555
Ca2 O11 2.495552 1_556
Ca2 O3 2.872305 1_556
Ca3 O8 2.307163 1_555
Ca3 O17 2.328253 1_654
Ca3 O15 2.458968 1_555
Ca3 O18 2.473337 1_555
Ca3 O10 2.473417 1_554
Ca3 O20 2.498234 1_554
Ca4 O11 2.414066 1_665
Ca4 O12 2.414066 1_665
Ca4 O13 2.416346 1_555
Ca4 O10 2.416346 1_555
Ca4 O20 2.551194 1_555
Ca4 O1 2.677316 1_555
Ca4 O22 2.799119 1_655
Ca4 O21 2.799119 1_565
Ca4 O0 3.023258 1_665
Ca5 O10 2.383156 1_455
Ca5 O11 2.399993 1_565
Ca5 O7 2.416967 1_555
Ca5 O6 2.426044 1_555
Ca5 O16 2.443120 1_555
Ca5 O17 2.454217 1_555
Ca6 O13 2.383156 1_545
Ca6 O12 2.399993 1_655
Ca6 O8 2.416967 1_555
Ca6 O9 2.426044 1_555
Ca6 O15 2.443120 1_555
Ca6 O14 2.454217 1_555
C0 O22 1.282795 1_655
C0 O21 1.282795 1_565
C0 O20 1.323969 1_554
O0 Si1 1.665474 1_555
O0 Si2 1.665474 1_555
O1 Si0 1.674250 1_555
O1 Si3 1.674250 1_555
O2 Si0 1.644610 1_555
O2 Si4 1.647532 1_555
O3 Si1 1.649463 1_555
O3 Si4 1.650235 1_554
O4 Si2 1.649463 1_555
O4 Si5 1.650235 1_554
O5 Si3 1.644610 1_555
O5 Si5 1.647532 1_555
O6 Si2 1.616541 1_555
O7 Si3 1.611692 1_555
O8 Si0 1.611692 1_555
O9 Si1 1.616541 1_555
O10 Si0 1.631762 1_555
O11 Si1 1.635208 1_555
O12 Si2 1.635208 1_555
O13 Si3 1.631762 1_555
O14 Si4 1.633525 1_555
O15 Si4 1.626690 1_554
O16 Si5 1.626690 1_554
O17 Si5 1.633525 1_555
