# generated using pymatgen
data_Nb3B4W3
_symmetry_space_group_name_H-M   'P 1'
_cell_length_a   6.16348761
_cell_length_b   6.16348761
_cell_length_c   3.22368000
_cell_angle_alpha   90.00000000
_cell_angle_beta   90.00000000
_cell_angle_gamma   90.65357008
_symmetry_Int_Tables_number   1
_chemical_formula_structural   Nb3B4W3
_chemical_formula_sum   'Nb3 B4 W3'
_cell_volume   122.45505681
_cell_formula_units_Z   1
loop_
 _symmetry_equiv_pos_site_id
 _symmetry_equiv_pos_as_xyz
  1  'x, y, z'
loop_
 _atom_site_type_symbol
 _atom_site_label
 _atom_site_symmetry_multiplicity
 _atom_site_fract_x
 _atom_site_fract_y
 _atom_site_fract_z
 _atom_site_occupancy
  Nb  Nb0  1  0.49864400  0.99952800  0.00000000  1
  Nb  Nb1  1  0.00047200  0.50135600  0.00000000  1
  Nb  Nb2  1  0.82594900  0.17405100  0.50000000  1
  B  B0  1  0.39060600  0.60939400  0.00000000  1
  B  B1  1  0.60759400  0.39240600  0.00000000  1
  B  B2  1  0.11453800  0.11043900  0.00000000  1
  B  B3  1  0.88956100  0.88546200  0.00000000  1
  W  W0  1  0.17421500  0.82578500  0.50000000  1
  W  W1  1  0.67062600  0.67220600  0.50000000  1
  W  W2  1  0.32779400  0.32937400  0.50000000  1
loop_
_geom_bond_atom_site_label_1
_geom_bond_atom_site_label_2
_geom_bond_distance
_geom_bond_site_symmetry_2
Nb0 W0 2.773875 1_555
Nb0 W0 2.773875 1_554
Nb0 W1 2.800093 1_555
Nb0 W1 2.800093 1_554
Nb0 W2 2.808708 1_565
Nb0 W2 2.808708 1_564
Nb1 W0 2.773875 1_554
Nb1 W0 2.773875 1_555
Nb1 W2 2.800093 1_555
Nb1 W2 2.800093 1_554
Nb1 W1 2.808708 1_454
Nb1 W1 2.808708 1_455
B0 B1 1.902130 1_555
B0 W1 2.389852 1_555
B0 W1 2.389852 1_554
B0 W2 2.389852 1_555
B0 W2 2.389852 1_554
B0 Nb0 2.487753 1_555
B0 Nb1 2.487753 1_555
B0 W0 2.489226 1_554
B0 W0 2.489226 1_555
B1 W1 2.389085 1_555
B1 W1 2.389085 1_554
B1 W2 2.389085 1_555
B1 W2 2.389085 1_554
B1 Nb2 2.502370 1_555
B1 Nb2 2.502370 1_554
B1 Nb0 2.505492 1_545
B1 Nb1 2.505492 1_655
B2 B3 1.949793 1_445
B2 W0 2.413747 1_544
B2 W0 2.413747 1_545
B2 Nb2 2.435464 1_454
B2 Nb2 2.435464 1_455
B2 W2 2.471053 1_555
B2 W2 2.471053 1_554
B2 Nb0 2.471632 1_545
B2 Nb1 2.517575 1_555
B3 W0 2.413747 1_655
B3 W0 2.413747 1_654
B3 Nb2 2.435464 1_565
B3 Nb2 2.435464 1_564
B3 W1 2.471053 1_555
B3 W1 2.471053 1_554
B3 Nb1 2.471632 1_655
B3 Nb0 2.517575 1_555
