# generated using pymatgen
data_Al10(Cu2O7)3
_symmetry_space_group_name_H-M   'P 1'
_cell_length_a   6.00495104
_cell_length_b   6.00495104
_cell_length_c   14.35350907
_cell_angle_alpha   85.64385878
_cell_angle_beta   85.64385878
_cell_angle_gamma   58.29917247
_symmetry_Int_Tables_number   1
_chemical_formula_structural   Al10(Cu2O7)3
_chemical_formula_sum   'Al10 Cu6 O21'
_cell_volume   438.68985542
_cell_formula_units_Z   1
loop_
 _symmetry_equiv_pos_site_id
 _symmetry_equiv_pos_as_xyz
  1  'x, y, z'
loop_
 _atom_site_type_symbol
 _atom_site_label
 _atom_site_symmetry_multiplicity
 _atom_site_fract_x
 _atom_site_fract_y
 _atom_site_fract_z
 _atom_site_occupancy
  Al  Al0  1  0.04057700  0.04057700  0.61443600  1
  Al  Al1  1  0.33013700  0.33013700  0.28910900  1
  Al  Al2  1  0.33997700  0.82547500  0.79886200  1
  Al  Al3  1  0.65308300  0.15807200  0.46679600  1
  Al  Al4  1  0.99891800  0.49713200  0.11731900  1
  Al  Al5  1  0.82918300  0.82918300  0.80135600  1
  Al  Al6  1  0.49598800  0.49598800  0.10844000  1
  Al  Al7  1  0.82547500  0.33997700  0.79886200  1
  Al  Al8  1  0.15807200  0.65308300  0.46679600  1
  Al  Al9  1  0.49713200  0.99891800  0.11731900  1
  Cu  Cu0  1  0.32013700  0.32013700  0.94437100  1
  Cu  Cu1  1  0.63681800  0.63681800  0.50229300  1
  Cu  Cu2  1  0.09816100  0.09816100  0.32385200  1
  Cu  Cu3  1  0.98480800  0.98480800  0.98972700  1
  Cu  Cu4  1  0.34128500  0.34128500  0.67794400  1
  Cu  Cu5  1  0.63688100  0.63688100  0.31535100  1
  O  O0  1  0.00372600  0.00372600  0.74795200  1
  O  O1  1  0.33827500  0.33827500  0.41373200  1
  O  O2  1  0.66549000  0.66549000  0.09169800  1
  O  O3  1  0.82040200  0.30065100  0.91963400  1
  O  O4  1  0.20937600  0.70833700  0.58022000  1
  O  O5  1  0.45745400  0.00464700  0.24491500  1
  O  O6  1  0.50559700  0.99165700  0.76327100  1
  O  O7  1  0.80462200  0.31842100  0.40254100  1
  O  O8  1  0.16082600  0.66456500  0.08101100  1
  O  O9  1  0.50212100  0.50212100  0.75789400  1
  O  O10  1  0.82042700  0.82042700  0.44485900  1
  O  O11  1  0.19120400  0.19120400  0.06489200  1
  O  O12  1  0.99165700  0.50559700  0.76327100  1
  O  O13  1  0.31842100  0.80462200  0.40254100  1
  O  O14  1  0.66456500  0.16082700  0.08101100  1
  O  O15  1  0.30065100  0.82040200  0.91963400  1
  O  O16  1  0.70833700  0.20937600  0.58022000  1
  O  O17  1  0.00464700  0.45745400  0.24491500  1
  O  O18  1  0.83298700  0.83298700  0.92215300  1
  O  O19  1  0.20649400  0.20649400  0.59592200  1
  O  O20  1  0.47984100  0.47984100  0.23176500  1
loop_
_geom_bond_atom_site_label_1
_geom_bond_atom_site_label_2
_geom_bond_distance
_geom_bond_site_symmetry_2
Al0 O19 1.737456 1_555
Al0 O16 1.787983 1_455
Al0 O4 1.787983 1_545
Al0 O0 1.921779 1_555
Al1 O20 1.708295 1_555
Al1 O1 1.798213 1_555
Al1 O5 1.830672 1_555
Al1 O17 1.830672 1_555
Al2 O15 1.731784 1_555
Al2 O6 1.770408 1_555
Al2 O9 1.778660 1_555
Al2 O0 1.894895 1_565
Al3 O16 1.766684 1_555
Al3 O10 1.768471 1_545
Al3 O7 1.806739 1_555
Al3 O1 1.807858 1_555
Al4 O2 1.759035 1_555
Al4 O8 1.760263 1_655
Al4 O11 1.767224 1_655
Al4 O17 1.829435 1_655
Al5 O18 1.737786 1_555
Al5 O12 1.764750 1_555
Al5 O6 1.764750 1_555
Al5 O0 1.922277 1_665
Al6 O20 1.763507 1_555
Al6 O2 1.773217 1_555
Al6 O14 1.774548 1_555
Al6 O8 1.774553 1_555
Al7 O3 1.731784 1_555
Al7 O12 1.770408 1_555
Al7 O9 1.778660 1_555
Al7 O0 1.894895 1_655
Al8 O4 1.766684 1_555
Al8 O10 1.768471 1_455
Al8 O13 1.806739 1_555
Al8 O1 1.807858 1_555
Al9 O2 1.759035 1_555
Al9 O14 1.760268 1_565
Al9 O11 1.767224 1_565
Al9 O5 1.829435 1_565
Cu0 O11 2.101072 1_556
Cu1 O10 2.027891 1_555
Cu1 O7 2.211986 1_555
Cu1 O13 2.211986 1_555
Cu1 O16 2.549931 1_555
Cu1 O4 2.549931 1_555
Cu2 O13 1.899055 1_545
Cu2 O7 1.899055 1_455
Cu2 O5 2.169339 1_555
Cu2 O17 2.169339 1_555
Cu3 O3 1.864719 1_565
Cu3 O15 1.864719 1_655
Cu3 O18 1.935263 1_555
Cu3 O8 2.055103 1_656
Cu3 O14 2.055103 1_566
Cu3 O11 2.501372 1_666
Cu4 O19 1.916874 1_555
Cu4 O6 2.120676 1_545
Cu4 O12 2.120676 1_455
Cu4 O9 2.121217 1_555
Cu4 O4 2.305942 1_555
Cu4 O16 2.305942 1_555
Cu5 O7 2.010311 1_555
Cu5 O13 2.010311 1_555
Cu5 O17 2.094206 1_655
Cu5 O5 2.094206 1_565
Cu5 O20 2.120452 1_555
