# generated using pymatgen
data_Ni2Hg2SF6
_symmetry_space_group_name_H-M   'P 1'
_cell_length_a   7.68672730
_cell_length_b   7.68672730
_cell_length_c   7.68672730
_cell_angle_alpha   60.00000000
_cell_angle_beta   60.00000000
_cell_angle_gamma   60.00000000
_symmetry_Int_Tables_number   1
_chemical_formula_structural   Ni2Hg2SF6
_chemical_formula_sum   'Ni4 Hg4 S2 F12'
_cell_volume   321.15110777
_cell_formula_units_Z   2
loop_
 _symmetry_equiv_pos_site_id
 _symmetry_equiv_pos_as_xyz
  1  'x, y, z'
loop_
 _atom_site_type_symbol
 _atom_site_label
 _atom_site_symmetry_multiplicity
 _atom_site_fract_x
 _atom_site_fract_y
 _atom_site_fract_z
 _atom_site_occupancy
  Ni  Ni0  1  0.12500000  0.62500000  0.62500000  1
  Ni  Ni1  1  0.62500000  0.12500000  0.62500000  1
  Ni  Ni2  1  0.62500000  0.62500000  0.12500000  1
  Ni  Ni3  1  0.62500000  0.62500000  0.62500000  1
  Hg  Hg0  1  0.62500000  0.12500000  0.12500000  1
  Hg  Hg1  1  0.12500000  0.12500000  0.62500000  1
  Hg  Hg2  1  0.12500000  0.12500000  0.12500000  1
  Hg  Hg3  1  0.12500000  0.62500000  0.12500000  1
  S  S0  1  0.00000000  0.00000000  0.00000000  1
  S  S1  1  0.25000000  0.25000000  0.25000000  1
  F  F0  1  0.94411100  0.55588900  0.55588900  1
  F  F1  1  0.69411100  0.69411100  0.30588900  1
  F  F2  1  0.55588900  0.55588900  0.94411100  1
  F  F3  1  0.30588900  0.69411100  0.30588900  1
  F  F4  1  0.69411100  0.30588900  0.69411100  1
  F  F5  1  0.94411100  0.94411100  0.55588900  1
  F  F6  1  0.30588900  0.30588900  0.69411100  1
  F  F7  1  0.55588900  0.94411100  0.94411100  1
  F  F8  1  0.30588900  0.69411100  0.69411100  1
  F  F9  1  0.94411100  0.55588900  0.94411100  1
  F  F10  1  0.69411100  0.30588900  0.30588900  1
  F  F11  1  0.55588900  0.94411100  0.55588900  1
loop_
_geom_bond_atom_site_label_1
_geom_bond_atom_site_label_2
_geom_bond_distance
_geom_bond_site_symmetry_2
Hg0 S1 2.353570 1_555
Hg0 S0 2.353570 1_655
Hg1 S1 2.353570 1_555
Hg1 S0 2.353570 1_556
Hg2 S1 2.353570 1_555
Hg2 S0 2.353570 1_555
Hg3 S1 2.353570 1_555
Hg3 S0 2.353570 1_565
F0 Ni0 2.063320 1_655
F0 Ni3 2.063320 1_555
F1 Ni3 2.063320 1_555
F1 Ni2 2.063320 1_555
F2 Ni3 2.063320 1_555
F2 Ni2 2.063320 1_556
F3 Ni0 2.063320 1_555
F3 Ni2 2.063320 1_555
F4 Ni3 2.063320 1_555
F4 Ni1 2.063320 1_555
F5 Ni0 2.063320 1_655
F5 Ni1 2.063320 1_565
F6 Ni1 2.063320 1_555
F6 Ni0 2.063320 1_555
F7 Ni2 2.063320 1_556
F7 Ni1 2.063320 1_565
F8 Ni3 2.063320 1_555
F8 Ni0 2.063320 1_555
F9 Ni0 2.063320 1_655
F9 Ni2 2.063320 1_556
F10 Ni1 2.063320 1_555
F10 Ni2 2.063320 1_555
F11 Ni3 2.063320 1_555
F11 Ni1 2.063320 1_565
