# generated using pymatgen
data_Al2ZnS4
_symmetry_space_group_name_H-M   'P 1'
_cell_length_a   24.06810447
_cell_length_b   24.06810447
_cell_length_c   24.06810466
_cell_angle_alpha   8.78408752
_cell_angle_beta   8.78408752
_cell_angle_gamma   8.78408629
_symmetry_Int_Tables_number   1
_chemical_formula_structural   Al2ZnS4
_chemical_formula_sum   'Al4 Zn2 S8'
_cell_volume   282.12972176
_cell_formula_units_Z   2
loop_
 _symmetry_equiv_pos_site_id
 _symmetry_equiv_pos_as_xyz
  1  'x, y, z'
loop_
 _atom_site_type_symbol
 _atom_site_label
 _atom_site_symmetry_multiplicity
 _atom_site_fract_x
 _atom_site_fract_y
 _atom_site_fract_z
 _atom_site_occupancy
  Al  Al0  1  0.60545900  0.60545900  0.60545900  1
  Al  Al1  1  0.88802100  0.88802100  0.88802100  1
  Al  Al2  1  0.77202000  0.77202000  0.77202000  1
  Al  Al3  1  0.05451400  0.05451400  0.05451400  1
  Zn  Zn0  1  0.32407700  0.32407700  0.32407700  1
  Zn  Zn1  1  0.49155100  0.49155100  0.49155100  1
  S  S0  1  0.00085100  0.00085100  0.00085100  1
  S  S1  1  0.28791800  0.28791800  0.28791800  1
  S  S2  1  0.91931000  0.91931000  0.91931000  1
  S  S3  1  0.54240700  0.54240700  0.54240700  1
  S  S4  1  0.83493700  0.83493700  0.83493700  1
  S  S5  1  0.45455800  0.45455800  0.45455800  1
  S  S6  1  0.08582100  0.08582100  0.08582100  1
  S  S7  1  0.37550900  0.37550900  0.37550900  1
loop_
_geom_bond_atom_site_label_1
_geom_bond_atom_site_label_2
_geom_bond_distance
_geom_bond_site_symmetry_2
Al0 S1 2.412397 1_565
Al0 S1 2.412397 1_655
Al0 S1 2.412397 1_556
Al0 S2 2.548127 1_455
Al0 S2 2.548127 1_545
Al0 S2 2.548128 1_554
Al1 S2 2.250351 1_555
Al1 S3 2.304282 1_565
Al1 S3 2.304282 1_655
Al1 S3 2.304283 1_556
Al2 S5 2.415077 1_565
Al2 S5 2.415077 1_655
Al2 S5 2.415077 1_556
Al2 S6 2.550107 1_656
Al2 S6 2.550107 1_566
Al2 S6 2.550107 1_665
Al3 S6 2.251645 1_555
Al3 S7 2.305875 1_455
Al3 S7 2.305875 1_545
Al3 S7 2.305876 1_554
S0 Zn0 2.249007 1_545
S0 Zn0 2.249007 1_455
S0 Zn0 2.249007 1_554
S1 Zn0 2.600608 1_555
S4 Zn1 2.247739 1_565
S4 Zn1 2.247739 1_655
S4 Zn1 2.247739 1_556
S5 Zn1 2.660591 1_555
