# generated using pymatgen
data_U4Ga20Ni11
_symmetry_space_group_name_H-M   'P 1'
_cell_length_a   10.57296582
_cell_length_b   10.57296582
_cell_length_c   15.32195695
_cell_angle_alpha   56.12318031
_cell_angle_beta   56.12318031
_cell_angle_gamma   22.48378577
_symmetry_Int_Tables_number   1
_chemical_formula_structural   U4Ga20Ni11
_chemical_formula_sum   'U4 Ga20 Ni11'
_cell_volume   538.95359670
_cell_formula_units_Z   1
loop_
 _symmetry_equiv_pos_site_id
 _symmetry_equiv_pos_as_xyz
  1  'x, y, z'
loop_
 _atom_site_type_symbol
 _atom_site_label
 _atom_site_symmetry_multiplicity
 _atom_site_fract_x
 _atom_site_fract_y
 _atom_site_fract_z
 _atom_site_occupancy
  U  U0  1  0.88409900  0.88409900  0.83072000  1
  U  U1  1  0.77476400  0.77476400  0.32289100  1
  U  U2  1  0.22977900  0.22977900  0.67788200  1
  U  U3  1  0.11590100  0.11590100  0.16928000  1
  Ga  Ga0  1  0.93729200  0.93729200  0.29698500  1
  Ga  Ga1  1  0.70413100  0.70413100  0.99988000  1
  Ga  Ga2  1  0.40238300  0.40238300  0.49639400  1
  Ga  Ga3  1  0.75044200  0.75044200  0.79801000  1
  Ga  Ga4  1  0.11227900  0.11227900  0.95165300  1
  Ga  Ga5  1  0.25455400  0.25455400  0.20224700  1
  Ga  Ga6  1  0.37576300  0.37576300  0.69345500  1
  Ga  Ga7  1  0.30095000  0.30095000  0.00132900  1
  Ga  Ga8  1  0.60318800  0.60318800  0.50505300  1
  Ga  Ga9  1  0.06735600  0.06735600  0.70608400  1
  Ga  Ga10  1  0.54286300  0.54286300  0.12266700  1
  Ga  Ga11  1  0.00803700  0.00803700  0.41178900  1
  Ga  Ga12  1  0.20002700  0.20002700  0.49758400  1
  Ga  Ga13  1  0.45713700  0.45713700  0.87733300  1
  Ga  Ga14  1  0.99798600  0.99798600  0.58995900  1
  Ga  Ga15  1  0.80513400  0.80513400  0.50249600  1
  Ga  Ga16  1  0.89266800  0.89266800  0.04934800  1
  Ga  Ga17  1  0.63010300  0.63010300  0.30529500  1
  Ga  Ga18  1  0.39230700  0.39230700  0.19215500  1
  Ga  Ga19  1  0.61188900  0.61188900  0.81014300  1
  Ni  Ni0  1  0.86869300  0.86869300  0.60678300  1
  Ni  Ni1  1  0.49694600  0.49694600  0.69190600  1
  Ni  Ni2  1  0.13593800  0.13593800  0.39396800  1
  Ni  Ni3  1  0.02624900  0.02624900  0.88937100  1
  Ni  Ni4  1  0.50000000  0.50000000  0.00000000  1
  Ni  Ni5  1  0.34707700  0.34707700  0.38735400  1
  Ni  Ni6  1  0.97821100  0.97821100  0.11283600  1
  Ni  Ni7  1  0.65880200  0.65880200  0.61380700  1
  Ni  Ni8  1  0.75549500  0.75549500  0.11404900  1
  Ni  Ni9  1  0.50812300  0.50812300  0.30988500  1
  Ni  Ni10  1  0.25002600  0.25002600  0.88723900  1
loop_
_geom_bond_atom_site_label_1
_geom_bond_atom_site_label_2
_geom_bond_distance
_geom_bond_site_symmetry_2
Ga0 Ni6 2.441216 1_555
Ga0 Ni5 2.592687 1_565
Ga0 Ni5 2.592687 1_655
Ga0 Ni9 2.603040 1_565
Ga0 Ni9 2.603040 1_655
Ga0 Ga15 2.760076 1_555
Ga0 Ga11 2.860176 1_665
Ga0 U3 3.051632 1_665
Ga0 U1 3.162194 1_555
Ga1 Ni10 2.503211 1_565
Ga1 Ni10 2.503211 1_655
Ga1 Ni8 2.512572 1_556
Ga1 Ga3 2.666966 1_555
Ga1 Ga10 2.752154 1_556
Ga1 Ga7 2.886525 1_656
Ga1 Ga7 2.886525 1_566
Ga1 U3 2.989227 1_566
Ga1 U3 2.989227 1_656
Ga1 U0 3.107050 1_555
Ga2 Ni9 2.419205 1_555
Ga2 Ni0 2.500860 1_455
Ga2 Ni0 2.500860 1_545
Ga2 Ni5 2.507036 1_555
Ga2 Ga6 2.743464 1_555
Ga2 U2 3.038605 1_555
Ga3 Ni10 2.470711 1_565
Ga3 Ni10 2.470711 1_655
Ga3 Ni0 2.536148 1_555
Ga3 U2 2.952394 1_655
Ga3 U2 2.952394 1_565
Ga3 Ga6 2.972873 1_565
Ga3 Ga6 2.972873 1_655
Ga3 U0 3.084591 1_555
Ga4 Ni10 2.435385 1_555
Ga4 Ni6 2.454697 1_446
Ga4 Ni3 2.455535 1_555
Ga4 Ni4 2.873923 1_456
Ga4 Ni4 2.873923 1_546
Ga4 U3 3.377729 1_556
Ga5 Ni8 2.458700 1_455
Ga5 Ni8 2.458700 1_545
Ga5 Ni2 2.543083 1_555
Ga5 Ga7 2.652515 1_555
Ga5 U1 2.953294 1_455
Ga5 U1 2.953294 1_545
Ga5 U3 3.189948 1_555
Ga6 Ni1 2.499948 1_555
Ga6 Ni0 2.500997 1_545
Ga6 Ni0 2.500997 1_455
Ga6 Ni10 2.610679 1_555
Ga6 U0 3.019125 1_545
Ga6 U0 3.019125 1_455
Ga6 U2 3.169429 1_555
Ga7 Ni8 2.503909 1_545
Ga7 Ni8 2.503909 1_455
Ga7 Ni10 2.503962 1_554
Ga7 U0 2.988644 1_454
Ga7 U0 2.988644 1_544
Ga7 U3 3.182173 1_555
Ga8 Ni1 2.425172 1_555
Ga8 Ni7 2.508323 1_555
Ga8 Ni2 2.508559 1_655
Ga8 Ni2 2.508559 1_565
Ga8 U1 3.027224 1_555
Ga9 Ni3 2.427366 1_555
Ga9 Ni1 2.605553 1_545
Ga9 Ni1 2.605553 1_455
Ga9 Ni7 2.607073 1_545
Ga9 Ni7 2.607073 1_455
Ga9 U0 3.137340 1_445
Ga9 U2 3.143285 1_555
Ga10 Ni4 2.494383 1_555
Ga10 Ni6 2.509756 1_455
Ga10 Ni6 2.509756 1_545
Ga10 Ni9 2.529522 1_555
Ga10 U3 2.878036 1_565
Ga10 U3 2.878036 1_655
Ga11 Ni2 2.507598 1_555
Ga11 Ni9 2.585212 1_545
Ga11 Ni9 2.585212 1_455
Ga11 Ga14 2.617069 1_445
Ga11 Ni0 2.732092 1_445
Ga11 Ga2 2.738992 1_545
Ga11 Ga2 2.738992 1_455
Ga11 Ga17 2.936851 1_545
Ga11 Ga17 2.936851 1_455
Ga11 U3 3.059905 1_555
Ga12 Ni5 2.509842 1_555
Ga12 Ni7 2.533807 1_545
Ga12 Ni7 2.533807 1_455
Ga12 Ni2 2.585708 1_555
Ga12 Ga9 2.790279 1_555
Ga12 Ga8 2.834496 1_455
Ga12 Ga8 2.834496 1_545
Ga12 U1 3.016601 1_545
Ga12 U1 3.016601 1_455
Ga12 Ga15 3.031979 1_545
Ga12 Ga15 3.031979 1_455
Ga12 U2 3.154334 1_555
Ga13 Ni1 2.467251 1_555
Ga13 Ni4 2.494383 1_556
Ga13 Ni3 2.576386 1_655
Ga13 Ni3 2.576386 1_565
Ga13 Ga7 2.666027 1_556
Ga13 U0 2.878036 1_455
Ga13 U0 2.878036 1_545
Ga14 Ni0 2.543922 1_555
Ga14 Ni1 2.578897 1_655
Ga14 Ni1 2.578897 1_565
Ga14 Ni2 2.727299 1_665
Ga14 Ga8 2.734124 1_655
Ga14 Ga8 2.734124 1_565
Ga14 Ga9 2.854020 1_665
Ga14 Ga6 2.936003 1_565
Ga14 Ga6 2.936003 1_655
Ga14 U0 3.046892 1_555
Ga15 Ni7 2.497272 1_555
Ga15 Ni5 2.524556 1_655
Ga15 Ni5 2.524556 1_565
Ga15 Ni0 2.585556 1_555
Ga15 Ga2 2.848009 1_565
Ga15 Ga2 2.848009 1_655
Ga15 U2 3.023058 1_655
Ga15 U2 3.023058 1_565
Ga15 U1 3.152760 1_555
Ga16 Ni8 2.423026 1_555
Ga16 Ni3 2.442352 1_664
Ga16 Ni6 2.460818 1_555
Ga16 Ni4 2.804041 1_655
Ga16 Ni4 2.804041 1_565
Ga16 U0 3.453908 1_554
Ga17 Ni9 2.490594 1_555
Ga17 Ni2 2.509194 1_655
Ga17 Ni2 2.509194 1_565
Ga17 Ni8 2.586129 1_555
Ga17 Ga8 2.781622 1_555
Ga17 Ga5 2.961697 1_565
Ga17 Ga5 2.961697 1_655
Ga17 U3 3.062061 1_655
Ga17 U3 3.062061 1_565
Ga17 U1 3.161311 1_555
Ga18 Ni4 2.486478 1_555
Ga18 Ni6 2.537482 1_455
Ga18 Ni6 2.537482 1_545
Ga18 Ni5 2.576063 1_555
Ga18 U1 2.941729 1_545
Ga18 U1 2.941729 1_455
Ga19 Ni4 2.484846 1_556
Ga19 Ni3 2.535020 1_655
Ga19 Ni3 2.535020 1_565
Ga19 Ni7 2.582516 1_555
Ga19 Ga3 2.772190 1_555
Ga19 U2 2.949872 1_565
Ga19 U2 2.949872 1_655
Ni0 U2 3.188838 1_565
Ni0 U2 3.188838 1_655
Ni1 U0 2.931220 1_545
Ni1 U0 2.931220 1_455
Ni2 U1 3.187602 1_545
Ni2 U1 3.187602 1_455
Ni3 Ni4 2.523750 1_546
Ni3 Ni4 2.523750 1_456
Ni4 Ni6 2.560036 1_455
Ni4 Ni6 2.560036 1_545
Ni5 U1 3.026095 1_545
Ni5 U1 3.026095 1_455
Ni7 U2 3.003688 1_655
Ni7 U2 3.003688 1_565
Ni8 U3 3.249949 1_655
Ni8 U3 3.249949 1_565
Ni9 U3 2.900501 1_565
Ni9 U3 2.900501 1_655
Ni10 U0 3.161296 1_545
Ni10 U0 3.161296 1_455
