# generated using pymatgen
data_TbPO4
_symmetry_space_group_name_H-M   'P 1'
_cell_length_a   6.62501101
_cell_length_b   6.62501101
_cell_length_c   6.62501101
_cell_angle_alpha   136.80986353
_cell_angle_beta   136.80986353
_cell_angle_gamma   62.73072765
_symmetry_Int_Tables_number   1
_chemical_formula_structural   TbPO4
_chemical_formula_sum   'Tb2 P2 O8'
_cell_volume   134.52717862
_cell_formula_units_Z   2
loop_
 _symmetry_equiv_pos_site_id
 _symmetry_equiv_pos_as_xyz
  1  'x, y, z'
loop_
 _atom_site_type_symbol
 _atom_site_label
 _atom_site_symmetry_multiplicity
 _atom_site_fract_x
 _atom_site_fract_y
 _atom_site_fract_z
 _atom_site_occupancy
  Tb  Tb0  1  0.75000000  0.25000000  0.50000000  1
  Tb  Tb1  1  0.00000000  0.00000000  0.00000000  1
  P  P0  1  0.25000000  0.75000000  0.50000000  1
  P  P1  1  0.50000000  0.50000000  0.00000000  1
  O  O0  1  0.56478600  0.94762600  0.86428400  1
  O  O1  1  0.08334200  0.70050200  0.13571600  1
  O  O2  1  0.45050200  0.81478600  0.11716000  1
  O  O3  1  0.69762600  0.33334300  0.88284000  1
  O  O4  1  0.18521400  0.30237400  0.63571600  1
  O  O5  1  0.66665700  0.54949800  0.36428400  1
  O  O6  1  0.29949800  0.43521400  0.38284000  1
  O  O7  1  0.05237400  0.91665700  0.61716000  1
loop_
_geom_bond_atom_site_label_1
_geom_bond_atom_site_label_2
_geom_bond_distance
_geom_bond_site_symmetry_2
O0 P0 1.563099 1_555
O0 Tb0 2.381337 1_566
O0 Tb1 2.433894 1_666
O1 P0 1.563099 1_555
O1 Tb0 2.381337 1_454
O1 Tb1 2.433894 1_565
O2 P1 1.563099 1_555
O2 Tb1 2.381337 1_565
O2 Tb0 2.433894 1_565
O3 P1 1.563099 1_556
O3 Tb1 2.381343 1_656
O3 Tb0 2.433890 1_555
O4 P1 1.563099 1_556
O4 Tb1 2.381337 1_555
O4 Tb0 2.433894 1_455
O5 P1 1.563101 1_555
O5 Tb1 2.381339 1_666
O5 Tb0 2.433891 1_555
O6 P0 1.563099 1_555
O6 Tb0 2.381337 1_555
O6 Tb1 2.433894 1_555
O7 P0 1.563099 1_555
O7 Tb0 2.381343 1_465
O7 Tb1 2.433890 1_566
