# generated using pymatgen
data_Zn4FeS5
_symmetry_space_group_name_H-M   'P 1'
_cell_length_a   15.86413042
_cell_length_b   15.86413042
_cell_length_c   15.86413028
_cell_angle_alpha   13.90929328
_cell_angle_beta   13.90929328
_cell_angle_gamma   13.90929577
_symmetry_Int_Tables_number   1
_chemical_formula_structural   Zn4FeS5
_chemical_formula_sum   'Zn4 Fe1 S5'
_cell_volume   200.78141795
_cell_formula_units_Z   1
loop_
 _symmetry_equiv_pos_site_id
 _symmetry_equiv_pos_as_xyz
  1  'x, y, z'
loop_
 _atom_site_type_symbol
 _atom_site_label
 _atom_site_symmetry_multiplicity
 _atom_site_fract_x
 _atom_site_fract_y
 _atom_site_fract_z
 _atom_site_occupancy
  Zn  Zn0  1  0.99995900  0.99995900  0.99995900  1
  Zn  Zn1  1  0.59997000  0.59997000  0.59997000  1
  Zn  Zn2  1  0.19998000  0.19998000  0.19998000  1
  Zn  Zn3  1  0.79997400  0.79997400  0.79997400  1
  Fe  Fe0  1  0.39994300  0.39994300  0.39994300  1
  S  S0  1  0.95000900  0.95000900  0.95000900  1
  S  S1  1  0.55002000  0.55002000  0.55002000  1
  S  S2  1  0.15000300  0.15000300  0.15000300  1
  S  S3  1  0.74982900  0.74982900  0.74982900  1
  S  S4  1  0.35031400  0.35031400  0.35031400  1
loop_
_geom_bond_atom_site_label_1
_geom_bond_atom_site_label_2
_geom_bond_distance
_geom_bond_site_symmetry_2
Fe0 S4 2.338763 1_555
Fe0 S3 2.351214 1_554
Fe0 S3 2.351214 1_455
Fe0 S3 2.351214 1_545
S0 Zn1 2.353616 1_556
S0 Zn1 2.353616 1_565
S0 Zn1 2.353616 1_655
S0 Zn0 2.353890 1_555
S1 Zn2 2.353632 1_556
S1 Zn2 2.353632 1_655
S1 Zn2 2.353632 1_565
S1 Zn1 2.353890 1_555
S2 Zn3 2.353458 1_445
S2 Zn3 2.353459 1_454
S2 Zn3 2.353459 1_544
S2 Zn2 2.355162 1_555
S3 Zn3 2.363079 1_555
S4 Zn0 2.358639 1_445
S4 Zn0 2.358639 1_544
S4 Zn0 2.358639 1_454
