# generated using pymatgen
data_Li3Fe3O8
_symmetry_space_group_name_H-M   'P 1'
_cell_length_a   5.86516133
_cell_length_b   5.86516133
_cell_length_c   9.86604593
_cell_angle_alpha   89.71875767
_cell_angle_beta   89.71875767
_cell_angle_gamma   120.37816970
_symmetry_Int_Tables_number   1
_chemical_formula_structural   Li3Fe3O8
_chemical_formula_sum   'Li6 Fe6 O16'
_cell_volume   292.78236409
_cell_formula_units_Z   2
loop_
 _symmetry_equiv_pos_site_id
 _symmetry_equiv_pos_as_xyz
  1  'x, y, z'
loop_
 _atom_site_type_symbol
 _atom_site_label
 _atom_site_symmetry_multiplicity
 _atom_site_fract_x
 _atom_site_fract_y
 _atom_site_fract_z
 _atom_site_occupancy
  Li  Li0  1  0.66828800  0.33668900  0.49887100  1
  Li  Li1  1  0.65867600  0.32608200  0.88522600  1
  Li  Li2  1  0.00615600  0.00715000  0.00162600  1
  Li  Li3  1  0.00715000  0.00615600  0.50162600  1
  Li  Li4  1  0.33668900  0.66828800  0.99887100  1
  Li  Li5  1  0.32608200  0.65867600  0.38522600  1
  Fe  Fe0  1  0.33780600  0.16863600  0.21471200  1
  Fe  Fe1  1  0.83137900  0.66324200  0.21566600  1
  Fe  Fe2  1  0.83103300  0.16797800  0.21591100  1
  Fe  Fe3  1  0.16797800  0.83103300  0.71591100  1
  Fe  Fe4  1  0.16863600  0.33780600  0.71471200  1
  Fe  Fe5  1  0.66324200  0.83137900  0.71566600  1
  O  O0  1  0.31195500  0.15992700  0.61288200  1
  O  O1  1  0.51329000  0.47877300  0.32130300  1
  O  O2  1  0.64358900  0.32154500  0.09959800  1
  O  O3  1  0.02278600  0.01092300  0.32044400  1
  O  O4  1  0.01092300  0.02278600  0.82044400  1
  O  O5  1  0.84752100  0.69405700  0.61483500  1
  O  O6  1  0.51124100  0.03094300  0.32182100  1
  O  O7  1  0.96270200  0.48088600  0.31932900  1
  O  O8  1  0.15740100  0.84904800  0.11169700  1
  O  O9  1  0.84904800  0.15740100  0.61169700  1
  O  O10  1  0.03094300  0.51124100  0.82182100  1
  O  O11  1  0.48088600  0.96270200  0.81932900  1
  O  O12  1  0.32154500  0.64358900  0.59959800  1
  O  O13  1  0.15992700  0.31195500  0.11288200  1
  O  O14  1  0.47877300  0.51329000  0.82130300  1
  O  O15  1  0.69405700  0.84752100  0.11483500  1
loop_
_geom_bond_atom_site_label_1
_geom_bond_atom_site_label_2
_geom_bond_distance
_geom_bond_site_symmetry_2
Li0 O0 2.117073 1_555
Li0 O9 2.143948 1_555
Li0 O5 2.148063 1_555
Li0 O7 2.304995 1_555
Li0 O1 2.314643 1_555
Li0 O6 2.343365 1_555
Li1 O11 1.955731 1_545
Li1 O14 1.971863 1_555
Li1 O10 1.979815 1_655
Li1 O2 2.115894 1_556
Li2 O4 1.788808 1_554
Li2 O13 1.900654 1_555
Li2 O8 1.912495 1_545
Li2 O15 1.926434 1_445
Li3 O3 1.788808 1_555
Li3 O0 1.900654 1_555
Li3 O9 1.912495 1_455
Li3 O5 1.926434 1_445
Li4 O13 2.117073 1_556
Li4 O8 2.143948 1_556
Li4 O15 2.148063 1_556
Li4 O11 2.304995 1_555
Li4 O14 2.314643 1_555
Li4 O10 2.343365 1_555
Li5 O7 1.955731 1_455
Li5 O1 1.971863 1_555
Li5 O6 1.979815 1_565
Li5 O12 2.115894 1_555
Fe0 O3 1.897530 1_555
Fe0 O1 1.899971 1_555
Fe0 O6 1.907014 1_555
Fe0 O2 1.911519 1_555
Fe0 O8 1.920766 1_545
Fe0 O13 1.921813 1_555
Fe1 O7 1.900890 1_555
Fe1 O1 1.914611 1_555
Fe1 O15 1.919445 1_555
Fe1 O8 1.938648 1_655
Fe1 O3 2.050360 1_665
Fe1 O2 2.084050 1_555
Fe2 O7 1.896910 1_555
Fe2 O15 1.916133 1_545
Fe2 O6 1.924482 1_555
Fe2 O13 1.947365 1_655
Fe2 O3 2.055940 1_655
Fe2 O2 2.083394 1_555
Fe3 O11 1.896910 1_555
Fe3 O5 1.916133 1_455
Fe3 O10 1.924482 1_555
Fe3 O0 1.947365 1_565
Fe3 O4 2.055940 1_565
Fe3 O12 2.083394 1_555
Fe4 O4 1.897530 1_555
Fe4 O14 1.899971 1_555
Fe4 O10 1.907014 1_555
Fe4 O12 1.911519 1_555
Fe4 O9 1.920766 1_455
Fe4 O0 1.921813 1_555
Fe5 O11 1.900890 1_555
Fe5 O14 1.914611 1_555
Fe5 O5 1.919445 1_555
Fe5 O9 1.938648 1_565
Fe5 O4 2.050360 1_665
Fe5 O12 2.084050 1_555
