# generated using pymatgen
data_MgU2Si2(HO3)4
_symmetry_space_group_name_H-M   'P 1'
_cell_length_a   6.63420340
_cell_length_b   6.81553200
_cell_length_c   9.66811436
_cell_angle_alpha   110.63875556
_cell_angle_beta   122.00162175
_cell_angle_gamma   90.00000000
_symmetry_Int_Tables_number   1
_chemical_formula_structural   MgU2Si2(HO3)4
_chemical_formula_sum   'Mg1 U2 Si2 H4 O12'
_cell_volume   337.17877376
_cell_formula_units_Z   1
loop_
 _symmetry_equiv_pos_site_id
 _symmetry_equiv_pos_as_xyz
  1  'x, y, z'
loop_
 _atom_site_type_symbol
 _atom_site_label
 _atom_site_symmetry_multiplicity
 _atom_site_fract_x
 _atom_site_fract_y
 _atom_site_fract_z
 _atom_site_occupancy
  Mg  Mg0  1  0.00000000  0.00000000  0.00000000  1
  U  U0  1  0.37199400  0.76101900  0.52203800  1
  U  U1  1  0.62800600  0.23898100  0.47796200  1
  Si  Si0  1  0.91735900  0.81140300  0.62280600  1
  Si  Si1  1  0.08264100  0.18859700  0.37719400  1
  H  H0  1  0.60886700  0.51429000  0.79946700  1
  H  H1  1  0.39113300  0.48571000  0.20053300  1
  H  H2  1  0.39113300  0.71482300  0.20053300  1
  H  H3  1  0.60886700  0.28517700  0.79946700  1
  O  O0  1  0.60651900  0.88914700  0.77829300  1
  O  O1  1  0.39348100  0.11085300  0.22170700  1
  O  O2  1  0.95151200  0.24309200  0.48618500  1
  O  O3  1  0.04848800  0.75690800  0.51381500  1
  O  O4  1  0.71345700  0.58762600  0.54442300  1
  O  O5  1  0.28654300  0.41237400  0.45557700  1
  O  O6  1  0.28654300  0.04320200  0.45557700  1
  O  O7  1  0.71345700  0.95679800  0.54442300  1
  O  O8  1  0.69432800  0.39719100  0.79438200  1
  O  O9  1  0.30567200  0.60280900  0.20561800  1
  O  O10  1  0.09373700  0.91740900  0.83481700  1
  O  O11  1  0.90626300  0.08259100  0.16518300  1
loop_
_geom_bond_atom_site_label_1
_geom_bond_atom_site_label_2
_geom_bond_distance
_geom_bond_site_symmetry_2
Mg0 O11 1.916482 1_455
Mg0 O10 1.916482 1_544
Mg0 O1 2.215301 1_555
Mg0 O0 2.215301 1_444
H0 O8 0.981173 1_555
H1 O9 0.981173 1_555
H2 O9 0.981173 1_555
H3 O8 0.981173 1_555
O0 U0 1.926309 1_555
O1 U1 1.926309 1_555
O2 Si1 1.643406 1_655
O2 U1 2.104967 1_555
O3 Si0 1.643406 1_455
O3 U0 2.104967 1_555
O4 Si0 1.681959 1_555
O4 U1 2.217693 1_555
O4 U0 2.497163 1_555
O5 Si1 1.681959 1_555
O5 U0 2.217693 1_555
O5 U1 2.497163 1_555
O6 Si1 1.681964 1_555
O6 U0 2.217686 1_545
O6 U1 2.497166 1_555
O7 Si0 1.681964 1_555
O7 U1 2.217686 1_565
O7 U0 2.497166 1_555
O8 U1 2.638726 1_555
O9 U0 2.638726 1_555
O10 Si0 1.583217 1_455
O11 Si1 1.583217 1_655
