# generated using pymatgen
data_LaZnFeBiO6
_symmetry_space_group_name_H-M   'P 1'
_cell_length_a   6.22224700
_cell_length_b   5.56269600
_cell_length_c   9.68223606
_cell_angle_alpha   55.80893553
_cell_angle_beta   90.00000000
_cell_angle_gamma   90.00000000
_symmetry_Int_Tables_number   1
_chemical_formula_structural   LaZnFeBiO6
_chemical_formula_sum   'La2 Zn2 Fe2 Bi2 O12'
_cell_volume   277.20565298
_cell_formula_units_Z   2
loop_
 _symmetry_equiv_pos_site_id
 _symmetry_equiv_pos_as_xyz
  1  'x, y, z'
loop_
 _atom_site_type_symbol
 _atom_site_label
 _atom_site_symmetry_multiplicity
 _atom_site_fract_x
 _atom_site_fract_y
 _atom_site_fract_z
 _atom_site_occupancy
  La  La0  1  0.16709200  0.72211300  0.24985700  1
  La  La1  1  0.83290800  0.72211300  0.74985700  1
  Zn  Zn0  1  0.87095400  0.24017000  0.23631500  1
  Zn  Zn1  1  0.12904600  0.24017000  0.73631500  1
  Fe  Fe0  1  0.72689800  0.98042100  0.00660100  1
  Fe  Fe1  1  0.27310200  0.98042100  0.50660100  1
  Bi  Bi0  1  0.69473200  0.49749600  0.49230400  1
  Bi  Bi1  1  0.30526800  0.49749600  0.99230400  1
  O  O0  1  0.20733000  0.89889700  0.73699000  1
  O  O1  1  0.07359000  0.24591400  0.93813100  1
  O  O2  1  0.06065700  0.65212300  0.55705100  1
  O  O3  1  0.93934300  0.65212300  0.05705100  1
  O  O4  1  0.92641000  0.24591400  0.43813100  1
  O  O5  1  0.79267000  0.89889700  0.23699000  1
  O  O6  1  0.76843000  0.14062600  0.76186100  1
  O  O7  1  0.53926900  0.76937400  0.56582100  1
  O  O8  1  0.60667200  0.35286500  0.95506800  1
  O  O9  1  0.39332800  0.35286500  0.45506800  1
  O  O10  1  0.46073100  0.76937400  0.06582100  1
  O  O11  1  0.23157000  0.14062600  0.26186100  1
loop_
_geom_bond_atom_site_label_1
_geom_bond_atom_site_label_2
_geom_bond_distance
_geom_bond_site_symmetry_2
La0 O9 2.358294 1_555
La0 O11 2.428671 1_565
La0 O10 2.460891 1_555
La0 O5 2.504518 1_455
La0 O3 2.541960 1_455
La0 O4 2.674989 1_455
La0 O1 2.837955 1_564
La0 O2 2.852244 1_555
La1 O8 2.358294 1_555
La1 O6 2.428671 1_565
La1 O7 2.460891 1_555
La1 O0 2.504518 1_655
La1 O2 2.541960 1_655
La1 O1 2.674989 1_655
La1 O4 2.837955 1_565
La1 O3 2.852244 1_556
Fe0 O10 1.921802 1_555
Fe0 O8 1.984711 1_564
Fe0 O6 2.025514 1_564
Fe0 O5 2.052348 1_555
Fe0 O3 2.078096 1_555
Fe0 O1 2.484701 1_664
Fe1 O7 1.921802 1_555
Fe1 O9 1.984711 1_565
Fe1 O11 2.025514 1_565
Fe1 O0 2.052348 1_555
Fe1 O2 2.078096 1_555
Fe1 O4 2.484701 1_465
Bi0 O9 2.149517 1_555
Bi0 O7 2.222518 1_555
Bi0 O4 2.266437 1_555
Bi0 O6 2.267094 1_555
Bi0 O5 2.294405 1_555
Bi0 O2 2.631167 1_655
Bi1 O8 2.149517 1_555
Bi1 O10 2.222518 1_556
Bi1 O1 2.266437 1_555
Bi1 O11 2.267094 1_556
Bi1 O0 2.294405 1_555
Bi1 O3 2.631167 1_456
O0 Zn1 1.956344 1_565
O1 Zn1 2.002122 1_555
O2 Zn1 1.993660 1_555
O3 Zn0 1.993660 1_555
O4 Zn0 2.002122 1_555
O5 Zn0 1.956344 1_565
O6 Zn1 2.291002 1_655
O11 Zn0 2.291002 1_455
