# generated using pymatgen
data_Rh2O3
_symmetry_space_group_name_H-M   'P 1'
_cell_length_a   3.06249500
_cell_length_b   7.74436500
_cell_length_c   9.20670200
_cell_angle_alpha   90.00000000
_cell_angle_beta   90.00000000
_cell_angle_gamma   90.00000000
_symmetry_Int_Tables_number   1
_chemical_formula_structural   Rh2O3
_chemical_formula_sum   'Rh8 O12'
_cell_volume   218.35607950
_cell_formula_units_Z   4
loop_
 _symmetry_equiv_pos_site_id
 _symmetry_equiv_pos_as_xyz
  1  'x, y, z'
loop_
 _atom_site_type_symbol
 _atom_site_label
 _atom_site_symmetry_multiplicity
 _atom_site_fract_x
 _atom_site_fract_y
 _atom_site_fract_z
 _atom_site_occupancy
  Rh  Rh0  1  0.25000000  0.48421500  0.33900800  1
  Rh  Rh1  1  0.25000000  0.98421500  0.16099200  1
  Rh  Rh2  1  0.75000000  0.51578500  0.66099200  1
  Rh  Rh3  1  0.75000000  0.01578500  0.83900800  1
  Rh  Rh4  1  0.25000000  0.32536300  0.96649200  1
  Rh  Rh5  1  0.25000000  0.82536300  0.53350800  1
  Rh  Rh6  1  0.75000000  0.67463700  0.03350800  1
  Rh  Rh7  1  0.75000000  0.17463700  0.46649200  1
  O  O0  1  0.25000000  0.53556000  0.11859200  1
  O  O1  1  0.25000000  0.03556000  0.38140800  1
  O  O2  1  0.75000000  0.46444000  0.88140800  1
  O  O3  1  0.75000000  0.96444000  0.61859200  1
  O  O4  1  0.25000000  0.35814100  0.54182300  1
  O  O5  1  0.25000000  0.85814100  0.95817700  1
  O  O6  1  0.75000000  0.64185900  0.45817700  1
  O  O7  1  0.75000000  0.14185900  0.04182300  1
  O  O8  1  0.25000000  0.16992600  0.79423300  1
  O  O9  1  0.25000000  0.66992600  0.70576700  1
  O  O10  1  0.75000000  0.83007400  0.20576700  1
  O  O11  1  0.75000000  0.33007400  0.29423300  1
loop_
_geom_bond_atom_site_label_1
_geom_bond_atom_site_label_2
_geom_bond_distance
_geom_bond_site_symmetry_2
O0 Rh6 2.029387 1_555
O0 Rh6 2.029387 1_455
O0 Rh0 2.067895 1_555
O0 Rh4 2.147282 1_554
O1 Rh7 2.029387 1_455
O1 Rh7 2.029387 1_555
O1 Rh1 2.067895 1_545
O1 Rh5 2.147282 1_545
O2 Rh4 2.029387 1_555
O2 Rh4 2.029387 1_655
O2 Rh2 2.067895 1_555
O2 Rh6 2.147282 1_556
O3 Rh5 2.029387 1_555
O3 Rh5 2.029387 1_655
O3 Rh3 2.067895 1_565
O3 Rh7 2.147282 1_565
O4 Rh0 2.107115 1_555
O4 Rh7 2.201208 1_455
O4 Rh7 2.201208 1_555
O4 Rh2 2.244760 1_555
O4 Rh2 2.244760 1_455
O5 Rh1 2.107115 1_556
O5 Rh6 2.201208 1_456
O5 Rh6 2.201208 1_556
O5 Rh3 2.244760 1_565
O5 Rh3 2.244760 1_465
O6 Rh2 2.107115 1_555
O6 Rh5 2.201208 1_655
O6 Rh5 2.201208 1_555
O6 Rh0 2.244760 1_655
O6 Rh0 2.244760 1_555
O7 Rh3 2.107115 1_554
O7 Rh4 2.201208 1_554
O7 Rh4 2.201208 1_654
O7 Rh1 2.244760 1_645
O7 Rh1 2.244760 1_545
O8 Rh3 1.984850 1_555
O8 Rh3 1.984850 1_455
O8 Rh4 1.991039 1_555
O9 Rh2 1.984850 1_455
O9 Rh2 1.984850 1_555
O9 Rh5 1.991039 1_555
O10 Rh1 1.984850 1_555
O10 Rh1 1.984850 1_655
O10 Rh6 1.991039 1_555
O11 Rh0 1.984850 1_555
O11 Rh0 1.984850 1_655
O11 Rh7 1.991039 1_555
