# generated using pymatgen
data_SrCeVO4
_symmetry_space_group_name_H-M   'P 1'
_cell_length_a   6.85641268
_cell_length_b   6.85641268
_cell_length_c   6.85641268
_cell_angle_alpha   146.73453105
_cell_angle_beta   146.73453105
_cell_angle_gamma   47.75701377
_symmetry_Int_Tables_number   1
_chemical_formula_structural   SrCeVO4
_chemical_formula_sum   'Sr1 Ce1 V1 O4'
_cell_volume   96.59126387
_cell_formula_units_Z   1
loop_
 _symmetry_equiv_pos_site_id
 _symmetry_equiv_pos_as_xyz
  1  'x, y, z'
loop_
 _atom_site_type_symbol
 _atom_site_label
 _atom_site_symmetry_multiplicity
 _atom_site_fract_x
 _atom_site_fract_y
 _atom_site_fract_z
 _atom_site_occupancy
  Sr  Sr0  1  0.64407900  0.64407900  0.00000000  1
  Ce  Ce0  1  0.35732200  0.35732200  0.00000000  1
  V  V0  1  0.00125700  0.00125700  0.00000000  1
  O  O0  1  0.99244600  0.49244600  0.50000000  1
  O  O1  1  0.49244600  0.99244600  0.50000000  1
  O  O2  1  0.83330500  0.83330500  0.00000000  1
  O  O3  1  0.17914400  0.17914400  0.00000000  1
loop_
_geom_bond_atom_site_label_1
_geom_bond_atom_site_label_2
_geom_bond_distance
_geom_bond_site_symmetry_2
Ce0 O3 2.234190 1_555
Ce0 O0 2.592753 1_555
Ce0 O1 2.592753 1_555
Ce0 O1 2.592753 1_544
Ce0 O0 2.592753 1_454
Ce0 O2 2.791757 1_545
Ce0 O2 2.791757 1_455
Ce0 O2 2.791757 1_556
Ce0 O2 2.791757 1_444
O0 V0 1.965658 1_666
O0 V0 1.965658 1_655
O0 Sr0 2.732526 1_555
O0 Sr0 2.732526 1_656
O1 V0 1.965658 1_666
O1 V0 1.965658 1_565
O1 Sr0 2.732526 1_555
O1 Sr0 2.732526 1_566
O2 V0 2.105965 1_665
O2 Sr0 2.372721 1_555
O3 V0 2.230541 1_555
O3 Sr0 2.810077 1_455
O3 Sr0 2.810077 1_556
O3 Sr0 2.810077 1_444
O3 Sr0 2.810077 1_545
