# generated using pymatgen
data_Fe6Pb(SO7)4
_symmetry_space_group_name_H-M   'P 1'
_cell_length_a   12.62466416
_cell_length_b   12.62466416
_cell_length_c   12.62466375
_cell_angle_alpha   32.40722777
_cell_angle_beta   32.40722777
_cell_angle_gamma   32.40723077
_symmetry_Int_Tables_number   1
_chemical_formula_structural   Fe6Pb(SO7)4
_chemical_formula_sum   'Fe6 Pb1 S4 O28'
_cell_volume   513.82527575
_cell_formula_units_Z   1
loop_
 _symmetry_equiv_pos_site_id
 _symmetry_equiv_pos_as_xyz
  1  'x, y, z'
loop_
 _atom_site_type_symbol
 _atom_site_label
 _atom_site_symmetry_multiplicity
 _atom_site_fract_x
 _atom_site_fract_y
 _atom_site_fract_z
 _atom_site_occupancy
  Fe  Fe0  1  0.25861700  0.73972900  0.25861700  1
  Fe  Fe1  1  0.25861700  0.25861700  0.73972900  1
  Fe  Fe2  1  0.73972900  0.25861700  0.25861700  1
  Fe  Fe3  1  0.74138300  0.26027100  0.74138300  1
  Fe  Fe4  1  0.74138300  0.74138300  0.26027100  1
  Fe  Fe5  1  0.26027100  0.74138300  0.74138300  1
  Pb  Pb0  1  0.00000000  0.00000000  0.00000000  1
  S  S0  1  0.84682100  0.84682100  0.84682100  1
  S  S1  1  0.15317900  0.15317900  0.15317900  1
  S  S2  1  0.34582800  0.34582800  0.34582800  1
  S  S3  1  0.65417200  0.65417200  0.65417200  1
  O  O0  1  0.80606900  0.80606900  0.80606900  1
  O  O1  1  0.19393100  0.19393100  0.19393100  1
  O  O2  1  0.30545900  0.30545900  0.30545900  1
  O  O3  1  0.69454100  0.69454100  0.69454100  1
  O  O4  1  0.75465600  0.40800800  0.75465600  1
  O  O5  1  0.75465600  0.75465600  0.40800800  1
  O  O6  1  0.40800800  0.75465600  0.75465600  1
  O  O7  1  0.24534400  0.59199200  0.24534400  1
  O  O8  1  0.24534400  0.24534400  0.59199200  1
  O  O9  1  0.59199200  0.24534400  0.24534400  1
  O  O10  1  0.25550400  0.90741300  0.25550400  1
  O  O11  1  0.25550400  0.25550400  0.90741300  1
  O  O12  1  0.90741300  0.25550400  0.25550400  1
  O  O13  1  0.74449600  0.09258700  0.74449600  1
  O  O14  1  0.74449600  0.74449600  0.09258700  1
  O  O15  1  0.09258700  0.74449600  0.74449600  1
  O  O16  1  0.95824500  0.28911600  0.95824500  1
  O  O17  1  0.95824500  0.95824500  0.28911600  1
  O  O18  1  0.28911600  0.95824500  0.95824500  1
  O  O19  1  0.04175500  0.71088400  0.04175500  1
  O  O20  1  0.04175500  0.04175500  0.71088400  1
  O  O21  1  0.71088400  0.04175500  0.04175500  1
  O  O22  1  0.44276500  0.82665600  0.44276500  1
  O  O23  1  0.44276500  0.44276500  0.82665600  1
  O  O24  1  0.82665600  0.44276500  0.44276500  1
  O  O25  1  0.55723500  0.17334400  0.55723500  1
  O  O26  1  0.55723500  0.55723500  0.17334400  1
  O  O27  1  0.17334400  0.55723500  0.55723500  1
loop_
_geom_bond_atom_site_label_1
_geom_bond_atom_site_label_2
_geom_bond_distance
_geom_bond_site_symmetry_2
Fe0 O27 1.829945 1_555
Fe0 O26 1.829945 1_555
Fe0 O18 1.950069 1_554
Fe0 O17 1.950069 1_455
Fe0 O10 2.050910 1_555
Fe0 O7 2.153537 1_555
Fe1 O27 1.829945 1_555
Fe1 O25 1.829945 1_555
Fe1 O16 1.950069 1_455
Fe1 O18 1.950069 1_545
Fe1 O11 2.050910 1_555
Fe1 O8 2.153537 1_555
Fe2 O25 1.829945 1_555
Fe2 O26 1.829945 1_555
Fe2 O16 1.950069 1_554
Fe2 O17 1.950069 1_545
Fe2 O12 2.050910 1_555
Fe2 O9 2.153537 1_555
Fe3 O24 1.829945 1_555
Fe3 O23 1.829945 1_555
Fe3 O21 1.950069 1_556
Fe3 O20 1.950069 1_655
Fe3 O13 2.050910 1_555
Fe3 O4 2.153537 1_555
Fe4 O24 1.829945 1_555
Fe4 O22 1.829945 1_555
Fe4 O19 1.950069 1_655
Fe4 O21 1.950069 1_565
Fe4 O14 2.050910 1_555
Fe4 O5 2.153537 1_555
Fe5 O22 1.829945 1_555
Fe5 O23 1.829945 1_555
Fe5 O19 1.950069 1_556
Fe5 O20 1.950069 1_565
Fe5 O15 2.050910 1_555
Fe5 O6 2.153537 1_555
O0 S0 1.461121 1_555
O1 S1 1.461121 1_555
O2 S2 1.447389 1_555
O3 S3 1.447389 1_555
O4 S3 1.510054 1_555
O4 Pb0 2.835537 1_656
O5 S3 1.510053 1_555
O5 Pb0 2.835537 1_665
O6 S3 1.510054 1_555
O6 Pb0 2.835537 1_566
O7 S2 1.510054 1_555
O7 Pb0 2.835537 1_565
O8 S2 1.510053 1_555
O8 Pb0 2.835537 1_556
O9 S2 1.510054 1_555
O9 Pb0 2.835537 1_655
O10 S1 1.498850 1_565
O11 S1 1.498850 1_556
O12 S1 1.498850 1_655
O13 S0 1.498850 1_545
O14 S0 1.498850 1_554
O15 S0 1.498850 1_455
O16 Pb0 2.801741 1_656
O17 Pb0 2.801741 1_665
O18 Pb0 2.801741 1_566
O19 Pb0 2.801741 1_565
O20 Pb0 2.801741 1_556
O21 Pb0 2.801741 1_655
