# generated using pymatgen
data_RbPH6C2(NO)4
_symmetry_space_group_name_H-M   'P 1'
_cell_length_a   7.90041959
_cell_length_b   7.90041959
_cell_length_c   8.38984870
_cell_angle_alpha   115.46302656
_cell_angle_beta   115.46302656
_cell_angle_gamma   94.98384955
_symmetry_Int_Tables_number   1
_chemical_formula_structural   RbPH6C2(NO)4
_chemical_formula_sum   'Rb2 P2 H12 C4 N8 O8'
_cell_volume   402.46044138
_cell_formula_units_Z   2
loop_
 _symmetry_equiv_pos_site_id
 _symmetry_equiv_pos_as_xyz
  1  'x, y, z'
loop_
 _atom_site_type_symbol
 _atom_site_label
 _atom_site_symmetry_multiplicity
 _atom_site_fract_x
 _atom_site_fract_y
 _atom_site_fract_z
 _atom_site_occupancy
  Rb  Rb0  1  0.26337600  0.73662400  0.50000000  1
  Rb  Rb1  1  0.01337600  0.98662400  0.00000000  1
  P  P0  1  0.58629900  0.41370100  0.50000000  1
  P  P1  1  0.33629900  0.66370100  0.00000000  1
  H  H0  1  0.09363900  0.11165600  0.47378400  1
  H  H1  1  0.88834400  0.90636100  0.52621600  1
  H  H2  1  0.86985500  0.38787200  0.02621600  1
  H  H3  1  0.61212800  0.13014500  0.97378400  1
  H  H4  1  0.17416100  0.37152200  0.60095600  1
  H  H5  1  0.62847800  0.82583900  0.39904400  1
  H  H6  1  0.82320500  0.52056600  0.89904400  1
  H  H7  1  0.47943400  0.17679500  0.10095600  1
  H  H8  1  0.31189500  0.41858400  0.08638500  1
  H  H9  1  0.58141600  0.68810500  0.91361500  1
  H  H10  1  0.47551000  0.08219900  0.41361500  1
  H  H11  1  0.91780100  0.52449000  0.58638500  1
  C  C0  1  0.20305700  0.24882800  0.77970900  1
  C  C1  1  0.75117200  0.79694300  0.22029100  1
  C  C2  1  0.67334800  0.21911900  0.72029100  1
  C  C3  1  0.78088100  0.32665200  0.27970900  1
  N  N0  1  0.17662500  0.24628900  0.60844600  1
  N  N1  1  0.75371100  0.82337500  0.39155400  1
  N  N2  1  0.81817900  0.38784300  0.89155400  1
  N  N3  1  0.61215700  0.18182100  0.10844600  1
  N  N4  1  0.27914400  0.42976300  0.95900700  1
  N  N5  1  0.57023700  0.72085600  0.04099300  1
  N  N6  1  0.57013800  0.22075600  0.54099300  1
  N  N7  1  0.77924400  0.42986200  0.45900700  1
  O  O0  1  0.16250800  0.08839500  0.77702700  1
  O  O1  1  0.91160500  0.83749200  0.22297300  1
  O  O2  1  0.63548000  0.06136700  0.72297300  1
  O  O3  1  0.93863300  0.36452000  0.27702700  1
  O  O4  1  0.65120400  0.60634300  0.69620800  1
  O  O5  1  0.39365700  0.34879600  0.30379200  1
  O  O6  1  0.20499600  0.66013600  0.80379200  1
  O  O7  1  0.33986400  0.79500400  0.19620800  1
loop_
_geom_bond_atom_site_label_1
_geom_bond_atom_site_label_2
_geom_bond_distance
_geom_bond_site_symmetry_2
H0 N0 1.022870 1_555
H1 N1 1.022870 1_555
H2 N2 1.022870 1_554
H3 N3 1.022870 1_556
H4 N0 1.019305 1_555
H5 N1 1.019305 1_555
H6 N2 1.019305 1_555
H7 N3 1.019305 1_555
H8 N4 1.031598 1_554
H9 N5 1.031598 1_556
H10 N6 1.031599 1_555
H11 N7 1.031599 1_555
C0 O0 1.268222 1_555
C0 N0 1.350960 1_555
C0 N4 1.375421 1_555
C1 O1 1.268222 1_555
C1 N1 1.350960 1_555
C1 N5 1.375421 1_555
C2 O2 1.268231 1_555
C2 N2 1.350960 1_555
C2 N6 1.375420 1_555
C3 O3 1.268231 1_555
C3 N3 1.350960 1_555
C3 N7 1.375420 1_555
N4 P1 1.706737 1_556
N5 P1 1.706737 1_555
N6 P0 1.706737 1_555
N7 P0 1.706737 1_555
O0 Rb1 2.925425 1_546
O0 Rb0 3.191230 1_545
O1 Rb1 2.925425 1_655
O1 Rb0 3.191230 1_655
O2 Rb0 2.925416 1_545
O2 Rb1 3.191230 1_646
O3 Rb0 2.925416 1_655
O3 Rb1 3.191230 1_645
O4 P0 1.507791 1_555
O4 Rb1 3.059554 1_656
O4 Rb0 3.290172 1_555
O5 P0 1.507791 1_555
O5 Rb1 3.059554 1_545
O5 Rb0 3.290172 1_555
O6 P1 1.507795 1_556
O6 Rb0 3.059550 1_555
O6 Rb1 3.290168 1_556
O7 P1 1.507795 1_555
O7 Rb0 3.059550 1_555
O7 Rb1 3.290168 1_555
