# generated using pymatgen
data_KLiSnO2
_symmetry_space_group_name_H-M   'P 1'
_cell_length_a   7.11384346
_cell_length_b   7.11384346
_cell_length_c   10.00257611
_cell_angle_alpha   54.29837315
_cell_angle_beta   54.29837315
_cell_angle_gamma   27.55683129
_symmetry_Int_Tables_number   1
_chemical_formula_structural   KLiSnO2
_chemical_formula_sum   'K2 Li2 Sn2 O4'
_cell_volume   187.19496571
_cell_formula_units_Z   2
loop_
 _symmetry_equiv_pos_site_id
 _symmetry_equiv_pos_as_xyz
  1  'x, y, z'
loop_
 _atom_site_type_symbol
 _atom_site_label
 _atom_site_symmetry_multiplicity
 _atom_site_fract_x
 _atom_site_fract_y
 _atom_site_fract_z
 _atom_site_occupancy
  K  K0  1  0.49550100  0.49550100  0.69642000  1
  K  K1  1  0.50449900  0.50449900  0.30358000  1
  Li  Li0  1  0.24330500  0.24330500  0.42380800  1
  Li  Li1  1  0.75669500  0.75669500  0.57619200  1
  Sn  Sn0  1  0.19806700  0.19806700  0.83818900  1
  Sn  Sn1  1  0.80193300  0.80193300  0.16181100  1
  O  O0  1  0.83328400  0.83328400  0.33937700  1
  O  O1  1  0.17797500  0.17797500  0.29314200  1
  O  O2  1  0.82202500  0.82202500  0.70685800  1
  O  O3  1  0.16671600  0.16671600  0.66062300  1
loop_
_geom_bond_atom_site_label_1
_geom_bond_atom_site_label_2
_geom_bond_distance
_geom_bond_site_symmetry_2
K0 O3 2.752865 1_655
K0 O3 2.752865 1_565
K0 O2 2.885658 1_455
K0 O2 2.885658 1_545
K1 O0 2.752865 1_455
K1 O0 2.752865 1_545
K1 O1 2.885658 1_655
K1 O1 2.885658 1_565
Li0 O3 1.928338 1_555
Li0 O0 1.966701 1_545
Li0 O0 1.966701 1_455
Li0 O1 1.985214 1_555
Li1 O0 1.928338 1_555
Li1 O3 1.966701 1_655
Li1 O3 1.966701 1_565
Li1 O2 1.985214 1_555
O0 Sn1 2.065652 1_555
O1 Sn1 2.196874 1_545
O1 Sn1 2.196874 1_455
O2 Sn0 2.196874 1_565
O2 Sn0 2.196874 1_655
O3 Sn0 2.065652 1_555
