# generated using pymatgen
data_Rb5Ti6AgSe27
_symmetry_space_group_name_H-M   'P 1'
_cell_length_a   13.49591415
_cell_length_b   13.49591415
_cell_length_c   14.03328338
_cell_angle_alpha   90.00000000
_cell_angle_beta   90.00000000
_cell_angle_gamma   120.00000300
_symmetry_Int_Tables_number   1
_chemical_formula_structural   Rb5Ti6AgSe27
_chemical_formula_sum   'Rb10 Ti12 Ag2 Se54'
_cell_volume   2213.57646060
_cell_formula_units_Z   2
loop_
 _symmetry_equiv_pos_site_id
 _symmetry_equiv_pos_as_xyz
  1  'x, y, z'
loop_
 _atom_site_type_symbol
 _atom_site_label
 _atom_site_symmetry_multiplicity
 _atom_site_fract_x
 _atom_site_fract_y
 _atom_site_fract_z
 _atom_site_occupancy
  Rb  Rb0  1  0.65895884  0.62217604  0.73597949  1
  Rb  Rb1  1  0.37782396  0.03678280  0.73597949  1
  Rb  Rb2  1  0.33333300  0.66666700  0.06576792  1
  Rb  Rb3  1  0.66666700  0.33333300  0.56576792  1
  Rb  Rb4  1  0.33333300  0.66666700  0.42770101  1
  Rb  Rb5  1  0.66666700  0.33333300  0.92770101  1
  Rb  Rb6  1  0.96321720  0.34104116  0.73597949  1
  Rb  Rb7  1  0.03678280  0.37782396  0.23597949  1
  Rb  Rb8  1  0.62217604  0.65895884  0.23597949  1
  Rb  Rb9  1  0.34104116  0.96321720  0.23597949  1
  Ti  Ti0  1  0.98882355  0.66788393  0.61467279  1
  Ti  Ti1  1  0.01395495  0.66983272  0.37426455  1
  Ti  Ti2  1  0.33016728  0.34412223  0.37426455  1
  Ti  Ti3  1  0.65587777  0.98604505  0.37426455  1
  Ti  Ti4  1  0.66983272  0.01395495  0.87426455  1
  Ti  Ti5  1  0.34412223  0.33016728  0.87426455  1
  Ti  Ti6  1  0.98604505  0.65587777  0.87426455  1
  Ti  Ti7  1  0.01117645  0.67906038  0.11467279  1
  Ti  Ti8  1  0.32093962  0.33211607  0.11467279  1
  Ti  Ti9  1  0.66788393  0.98882355  0.11467279  1
  Ti  Ti10  1  0.67906038  0.01117645  0.61467279  1
  Ti  Ti11  1  0.33211607  0.32093962  0.61467279  1
  Ag  Ag0  1  0.00000000  -0.00000000  0.98901520  1
  Ag  Ag1  1  0.00000000  -0.00000000  0.48901520  1
  Se  Se0  1  0.84373397  0.66114819  0.98744083  1
  Se  Se1  1  0.50392208  0.81357648  0.65887386  1
  Se  Se2  1  0.18642352  0.69034560  0.65887386  1
  Se  Se3  1  0.30965440  0.49607792  0.65887386  1
  Se  Se4  1  0.81357648  0.50392208  0.15887386  1
  Se  Se5  1  0.69034560  0.18642352  0.15887386  1
  Se  Se6  1  0.49607792  0.30965440  0.15887386  1
  Se  Se7  1  0.45665211  0.87031961  0.88080895  1
  Se  Se8  1  0.12968039  0.58633250  0.88080895  1
  Se  Se9  1  0.41366750  0.54334789  0.88080895  1
  Se  Se10  1  0.87031961  0.45665211  0.38080895  1
  Se  Se11  1  0.58633250  0.12968039  0.38080895  1
  Se  Se12  1  0.98597949  0.51077995  -0.00000890  1
  Se  Se13  1  0.48922005  0.47519954  -0.00000890  1
  Se  Se14  1  0.52480046  0.01402051  -0.00000890  1
  Se  Se15  1  0.51077995  0.98597949  0.49999110  1
  Se  Se16  1  0.47519954  0.48922005  0.49999110  1
  Se  Se17  1  0.01402051  0.52480046  0.49999110  1
  Se  Se18  1  0.92112930  0.80573869  0.86914261  1
  Se  Se19  1  0.19426131  0.11539061  0.86914261  1
  Se  Se20  1  0.88460939  0.07887070  0.86914261  1
  Se  Se21  1  0.80573869  0.92112930  0.36914261  1
  Se  Se22  1  0.11539061  0.19426131  0.36914261  1
  Se  Se23  1  0.07887070  0.88460939  0.36914261  1
  Se  Se24  1  0.90351912  0.79634126  0.60104683  1
  Se  Se25  1  0.20365874  0.10717787  0.60104683  1
  Se  Se26  1  0.89282213  0.09648088  0.60104683  1
  Se  Se27  1  0.79634126  0.90351912  0.10104683  1
  Se  Se28  1  0.10717787  0.20365874  0.10104683  1
  Se  Se29  1  0.09648088  0.89282213  0.10104683  1
  Se  Se30  1  0.86151248  0.52787049  0.74110603  1
  Se  Se31  1  0.47212951  0.33364199  0.74110603  1
  Se  Se32  1  0.66635801  0.13848752  0.74110603  1
  Se  Se33  1  0.52787049  0.86151248  0.24110603  1
  Se  Se34  1  0.33364199  0.47212951  0.24110603  1
  Se  Se35  1  0.13848752  0.66635801  0.24110603  1
  Se  Se36  1  0.54334789  0.41366750  0.38080895  1
  Se  Se37  1  0.33885181  0.18258578  0.98744083  1
  Se  Se38  1  0.81741422  0.15626603  0.98744083  1
  Se  Se39  1  0.66114819  0.84373397  0.48744083  1
  Se  Se40  1  0.18258578  0.33885181  0.48744083  1
  Se  Se41  1  0.15626603  0.81741422  0.48744083  1
  Se  Se42  1  0.67783180  0.88040135  0.74500565  1
  Se  Se43  1  0.11959865  0.79743045  0.74500565  1
  Se  Se44  1  0.20256955  0.32216820  0.74500565  1
  Se  Se45  1  0.88040135  0.67783180  0.24500565  1
  Se  Se46  1  0.35727986  0.19628999  0.49309860  1
  Se  Se47  1  0.32216820  0.20256955  0.24500565  1
  Se  Se48  1  0.64272014  0.83901013  0.99309860  1
  Se  Se49  1  0.16098987  0.80371001  0.99309860  1
  Se  Se50  1  0.19628999  0.35727986  0.99309860  1
  Se  Se51  1  0.83901013  0.64272014  0.49309860  1
  Se  Se52  1  0.80371001  0.16098987  0.49309860  1
  Se  Se53  1  0.79743045  0.11959865  0.24500565  1
loop_
_geom_bond_atom_site_label_1
_geom_bond_atom_site_label_2
_geom_bond_distance
_geom_bond_site_symmetry_2
Rb0 Se42 3.367254 1_555
Rb0 Se31 3.421657 1_555
Rb0 Se24 3.499450 1_555
Rb0 Se30 3.546419 1_555
Rb0 Se9 3.563664 1_555
Rb0 Se18 3.658277 1_555
Rb0 Se16 3.985903 1_555
Rb1 Se43 3.367254 1_545
Rb1 Se32 3.421657 1_555
Rb1 Se25 3.499450 1_555
Rb1 Se31 3.546419 1_555
Rb1 Se7 3.563664 1_545
Rb1 Se19 3.658277 1_555
Rb1 Se15 3.985903 1_545
Rb2 Se8 3.533663 1_554
Rb2 Se7 3.533664 1_554
Rb2 Se9 3.533671 1_554
Rb2 Se35 3.599770 1_555
Rb2 Se33 3.599775 1_555
Rb2 Se34 3.599780 1_555
Rb2 Se49 3.764637 1_554
Rb2 Se48 3.764647 1_554
Rb2 Se50 3.764648 1_554
Rb3 Se11 3.533663 1_555
Rb3 Se10 3.533664 1_555
Rb3 Se36 3.533671 1_555
Rb3 Se32 3.599770 1_555
Rb3 Se30 3.599775 1_555
Rb3 Se31 3.599780 1_555
Rb3 Se52 3.764637 1_555
Rb3 Se51 3.764647 1_555
Rb3 Se46 3.764648 1_555
Rb4 Se35 3.709541 1_555
Rb4 Se33 3.709546 1_555
Rb4 Se34 3.709551 1_555
Rb4 Se17 3.874929 1_555
Rb4 Se15 3.874929 1_555
Rb4 Se16 3.874940 1_555
Rb4 Se2 3.897564 1_555
Rb4 Se1 3.897568 1_555
Rb4 Se3 3.897571 1_555
Rb4 Se41 3.926093 1_555
Rb4 Se39 3.926104 1_555
Rb4 Se40 3.926105 1_555
Rb5 Se32 3.709541 1_555
Rb5 Se30 3.709546 1_555
Rb5 Se31 3.709551 1_555
Rb5 Se14 3.874929 1_556
Rb5 Se12 3.874929 1_556
Rb5 Se13 3.874940 1_556
Rb5 Se5 3.897564 1_556
Rb5 Se4 3.897568 1_556
Rb5 Se6 3.897571 1_556
Rb5 Se38 3.926093 1_555
Rb5 Se0 3.926104 1_555
Rb5 Se37 3.926105 1_555
Rb6 Se44 3.367254 1_655
Rb6 Se30 3.421657 1_555
Rb6 Se26 3.499450 1_555
Rb6 Se32 3.546419 1_555
Rb6 Se8 3.563664 1_655
Rb6 Se20 3.658277 1_555
Rb6 Se17 3.985903 1_655
Rb7 Se53 3.367254 1_455
Rb7 Se35 3.421657 1_555
Rb7 Se28 3.499450 1_555
Rb7 Se34 3.546419 1_555
Rb7 Se10 3.563664 1_455
Rb7 Se22 3.658277 1_555
Rb7 Se12 3.985903 1_455
Rb8 Se45 3.367254 1_555
Rb8 Se34 3.421657 1_555
Rb8 Se27 3.499450 1_555
Rb8 Se33 3.546419 1_555
Rb8 Se36 3.563664 1_555
Rb8 Se21 3.658277 1_555
Rb8 Se13 3.985903 1_555
Rb9 Se47 3.367254 1_565
Rb9 Se33 3.421657 1_555
Rb9 Se29 3.499450 1_555
Rb9 Se35 3.546419 1_555
Rb9 Se11 3.563664 1_565
Rb9 Se23 3.658277 1_555
Rb9 Se14 3.985903 1_565
Ag0 Se19 2.836488 1_555
Ag0 Se18 2.836488 1_445
Ag0 Se20 2.836488 1_455
Ag0 Se28 2.853572 1_556
Ag0 Se27 2.853572 1_446
Ag0 Se29 2.853572 1_546
Ag1 Se22 2.836488 1_555
Ag1 Se21 2.836488 1_445
Ag1 Se23 2.836488 1_545
Ag1 Se25 2.853572 1_555
Ag1 Se24 2.853572 1_445
Ag1 Se26 2.853572 1_455
Se0 Se18 2.369942 1_555
Se0 Ti6 2.520503 1_555
Se0 Ti7 2.794056 1_656
Se1 Se42 2.380409 1_555
Se1 Ti10 2.603846 1_565
Se2 Se43 2.380409 1_555
Se2 Ti0 2.603846 1_455
Se3 Se44 2.380409 1_555
Se3 Ti11 2.603847 1_555
Se4 Se45 2.380409 1_555
Se4 Ti7 2.603846 1_655
Se5 Se53 2.380409 1_555
Se5 Ti9 2.603846 1_545
Se6 Ti8 2.603847 1_555
Se7 Ti4 2.542937 1_565
Se8 Ti6 2.542937 1_455
Se9 Ti5 2.542937 1_555
Se10 Se17 2.370800 1_655
Se10 Ti1 2.542937 1_655
Se11 Se15 2.370800 1_545
Se11 Ti3 2.542937 1_545
Se12 Se8 2.370800 1_654
Se12 Ti6 2.635503 1_554
Se12 Ti7 2.662943 1_655
Se13 Se9 2.370800 1_554
Se13 Ti5 2.635503 1_554
Se13 Ti8 2.662943 1_555
Se14 Se7 2.370800 1_544
Se14 Ti4 2.635503 1_554
Se14 Ti9 2.662943 1_545
Se15 Ti3 2.635503 1_555
Se15 Ti10 2.662943 1_565
Se16 Se36 2.370800 1_555
Se16 Ti2 2.635503 1_555
Se16 Ti11 2.662943 1_555
Se17 Ti1 2.635503 1_555
Se17 Ti0 2.662943 1_455
Se18 Ti6 2.575884 1_555
Se19 Se37 2.369942 1_555
Se19 Ti5 2.575883 1_555
Se20 Se38 2.369942 1_555
Se20 Ti4 2.575883 1_555
Se21 Se39 2.369942 1_555
Se21 Ti3 2.575884 1_555
Se22 Se40 2.369942 1_555
Se22 Ti2 2.575883 1_555
Se23 Se41 2.369942 1_555
Se23 Ti1 2.575883 1_555
Se24 Se51 2.355034 1_555
Se24 Ti0 2.522576 1_555
Se25 Se46 2.355034 1_555
Se25 Ti11 2.522576 1_555
Se26 Se52 2.355034 1_555
Se26 Ti10 2.522576 1_555
Se27 Se48 2.355034 1_554
Se27 Ti9 2.522576 1_555
Se28 Se50 2.355034 1_554
Se28 Ti8 2.522576 1_555
Se29 Se49 2.355034 1_554
Se29 Ti7 2.522576 1_555
Se30 Ti6 2.529340 1_555
Se30 Ti0 2.534585 1_555
Se31 Ti5 2.529340 1_555
Se31 Ti11 2.534585 1_555
Se32 Ti4 2.529340 1_555
Se32 Ti10 2.534585 1_555
Se33 Ti3 2.529340 1_555
Se33 Ti9 2.534585 1_555
Se34 Ti2 2.529340 1_555
Se34 Ti8 2.534585 1_555
Se35 Ti1 2.529340 1_555
Se35 Ti7 2.534585 1_555
Se36 Ti2 2.542937 1_555
Se37 Ti5 2.520503 1_555
Se37 Ti8 2.794056 1_556
Se38 Ti4 2.520503 1_555
Se38 Ti9 2.794056 1_546
Se39 Ti3 2.520503 1_555
Se39 Ti10 2.794056 1_565
Se40 Ti2 2.520503 1_555
Se40 Ti11 2.794056 1_555
Se41 Ti1 2.520503 1_555
Se41 Ti0 2.794056 1_455
Se42 Ti10 2.535985 1_565
Se42 Ti4 2.597174 1_565
Se43 Ti0 2.535985 1_455
Se43 Ti6 2.597174 1_455
Se44 Ti11 2.535985 1_555
Se44 Ti5 2.597174 1_555
Se45 Ti7 2.535985 1_655
Se45 Ti1 2.597174 1_655
Se46 Ti11 2.535226 1_555
Se46 Ti2 2.761426 1_555
Se47 Se6 2.380409 1_555
Se47 Ti8 2.535985 1_555
Se47 Ti2 2.597174 1_555
Se48 Ti9 2.535226 1_556
Se48 Ti4 2.761425 1_565
Se49 Ti7 2.535226 1_556
Se49 Ti6 2.761425 1_455
Se50 Ti8 2.535226 1_556
Se50 Ti5 2.761426 1_555
Se51 Ti0 2.535226 1_555
Se51 Ti1 2.761425 1_655
Se52 Ti10 2.535226 1_555
Se52 Ti3 2.761425 1_545
Se53 Ti9 2.535985 1_545
Se53 Ti3 2.597174 1_545
