# generated using pymatgen
data_Y3Cd
_symmetry_space_group_name_H-M   'P 1'
_cell_length_a   4.87912700
_cell_length_b   4.87912700
_cell_length_c   4.87912700
_cell_angle_alpha   90.00000000
_cell_angle_beta   90.00000000
_cell_angle_gamma   90.00000000
_symmetry_Int_Tables_number   1
_chemical_formula_structural   Y3Cd
_chemical_formula_sum   'Y3 Cd1'
_cell_volume   116.15191324
_cell_formula_units_Z   1
loop_
 _symmetry_equiv_pos_site_id
 _symmetry_equiv_pos_as_xyz
  1  'x, y, z'
loop_
 _atom_site_type_symbol
 _atom_site_label
 _atom_site_symmetry_multiplicity
 _atom_site_fract_x
 _atom_site_fract_y
 _atom_site_fract_z
 _atom_site_occupancy
  Y  Y0  1  0.00000000  0.50000000  0.50000000  1
  Y  Y1  1  0.50000000  0.00000000  0.50000000  1
  Y  Y2  1  0.50000000  0.50000000  0.00000000  1
  Cd  Cd0  1  0.00000000  0.00000000  0.00000000  1
loop_
_geom_bond_atom_site_label_1
_geom_bond_atom_site_label_2
_geom_bond_distance
_geom_bond_site_symmetry_2
Y0 Y1 3.450064 1_565
Y0 Y1 3.450064 1_555
Y0 Y2 3.450064 1_555
Y0 Y1 3.450064 1_465
Y0 Y1 3.450064 1_455
Y0 Y2 3.450064 1_456
Y0 Y2 3.450064 1_556
Y0 Y2 3.450064 1_455
Y1 Y2 3.450064 1_546
Y1 Y2 3.450064 1_545
Y1 Y2 3.450064 1_555
Y1 Y2 3.450064 1_556
Cd0 Y0 3.450064 1_554
Cd0 Y1 3.450064 1_555
Cd0 Y2 3.450064 1_545
Cd0 Y2 3.450064 1_555
Cd0 Y2 3.450064 1_445
Cd0 Y0 3.450064 1_544
Cd0 Y0 3.450064 1_555
Cd0 Y1 3.450064 1_554
Cd0 Y1 3.450064 1_455
Cd0 Y1 3.450064 1_454
Cd0 Y0 3.450064 1_545
Cd0 Y2 3.450064 1_455
