# generated using pymatgen
data_Na6Zr2Si4O17
_symmetry_space_group_name_H-M   'P 1'
_cell_length_a   5.38857740
_cell_length_b   5.38857740
_cell_length_c   14.26004485
_cell_angle_alpha   89.12388093
_cell_angle_beta   89.12388093
_cell_angle_gamma   62.28620250
_symmetry_Int_Tables_number   1
_chemical_formula_structural   Na6Zr2Si4O17
_chemical_formula_sum   'Na6 Zr2 Si4 O17'
_cell_volume   366.50617040
_cell_formula_units_Z   1
loop_
 _symmetry_equiv_pos_site_id
 _symmetry_equiv_pos_as_xyz
  1  'x, y, z'
loop_
 _atom_site_type_symbol
 _atom_site_label
 _atom_site_symmetry_multiplicity
 _atom_site_fract_x
 _atom_site_fract_y
 _atom_site_fract_z
 _atom_site_occupancy
  Na  Na0  1  0.17436800  0.17436800  0.11887600  1
  Na  Na1  1  0.82563200  0.82563200  0.88112400  1
  Na  Na2  1  0.49297000  0.49297000  0.24456300  1
  Na  Na3  1  0.50703100  0.50703100  0.75543700  1
  Na  Na4  1  0.81667800  0.81667800  0.37620500  1
  Na  Na5  1  0.18332200  0.18332200  0.62379500  1
  Zr  Zr0  1  0.50000000  0.50000000  0.00000000  1
  Zr  Zr1  1  0.50000000  0.50000000  0.50000000  1
  Si  Si0  1  0.15948000  0.15948000  0.37747100  1
  Si  Si1  1  0.84052000  0.84052000  0.62252900  1
  Si  Si2  1  0.84408100  0.84408100  0.11785100  1
  Si  Si3  1  0.15591900  0.15591900  0.88214900  1
  O  O0  1  0.76658700  0.76658700  0.22259300  1
  O  O1  1  0.23341300  0.23341300  0.77740700  1
  O  O2  1  0.71109600  0.18683400  0.10429400  1
  O  O3  1  0.18683400  0.71109600  0.10429400  1
  O  O4  1  0.28890400  0.81316600  0.89570600  1
  O  O5  1  0.81316600  0.28890400  0.89570600  1
  O  O6  1  0.23176400  0.23176400  0.27184800  1
  O  O7  1  0.76823600  0.76823600  0.72815200  1
  O  O8  1  0.80903100  0.31805500  0.38497300  1
  O  O9  1  0.31805500  0.80903100  0.38497300  1
  O  O10  1  0.19096900  0.68194500  0.61502700  1
  O  O11  1  0.68194500  0.19096900  0.61502700  1
  O  O12  1  0.71717500  0.71717500  0.03845000  1
  O  O13  1  0.28282500  0.28282500  0.96155000  1
  O  O14  1  0.29271800  0.29271800  0.45331200  1
  O  O15  1  0.70728200  0.70728200  0.54668800  1
  O  O16  1  0.00000000  0.00000000  0.50000000  1
loop_
_geom_bond_atom_site_label_1
_geom_bond_atom_site_label_2
_geom_bond_distance
_geom_bond_site_symmetry_2
Na0 O6 2.253885 1_555
Na0 O13 2.440039 1_554
Na0 O3 2.477726 1_545
Na0 O2 2.477726 1_455
Na1 O7 2.253885 1_555
Na1 O12 2.440039 1_556
Na1 O4 2.477726 1_655
Na1 O5 2.477726 1_565
Na2 O6 2.433689 1_555
Na2 O2 2.515824 1_555
Na2 O3 2.515824 1_555
Na2 O9 2.520222 1_555
Na2 O8 2.520222 1_555
Na2 O0 2.537635 1_555
Na3 O7 2.433680 1_555
Na3 O4 2.515822 1_555
Na3 O5 2.515822 1_555
Na3 O10 2.520224 1_555
Na3 O11 2.520224 1_555
Na3 O1 2.537644 1_555
Na4 O0 2.246774 1_555
Na4 O16 2.466239 1_665
Na4 O15 2.615488 1_555
Na4 O8 2.687599 1_565
Na4 O9 2.687599 1_655
Na4 O8 2.707239 1_555
Na4 O9 2.707239 1_555
Na5 O1 2.246774 1_555
Na5 O16 2.466239 1_555
Na5 O14 2.615488 1_555
Na5 O10 2.687599 1_545
Na5 O11 2.687599 1_455
Na5 O11 2.707239 1_555
Na5 O10 2.707239 1_555
O0 Si2 1.644296 1_555
O1 Si3 1.644296 1_555
O2 Si2 1.650579 1_545
O2 Zr0 2.131454 1_555
O3 Si2 1.650579 1_455
O3 Zr0 2.131454 1_555
O4 Si3 1.650579 1_565
O4 Zr0 2.131454 1_556
O5 Si3 1.650579 1_655
O5 Zr0 2.131454 1_556
O6 Si0 1.636236 1_555
O7 Si1 1.636236 1_555
O8 Si0 1.674363 1_655
O8 Zr1 2.207241 1_555
O9 Si0 1.674363 1_565
O9 Zr1 2.207241 1_555
O10 Si1 1.674363 1_455
O10 Zr1 2.207241 1_555
O11 Si1 1.674363 1_545
O11 Zr1 2.207241 1_555
O12 Si2 1.643050 1_555
O12 Zr0 2.086317 1_555
O13 Si3 1.643050 1_555
O13 Zr0 2.086317 1_556
O14 Si0 1.651518 1_555
O14 Zr1 2.035758 1_555
O15 Si1 1.651518 1_555
O15 Zr1 2.035758 1_555
O16 Si1 2.263857 1_445
O16 Si0 2.263857 1_555
