# generated using pymatgen
data_PrGeBO5
_symmetry_space_group_name_H-M   'P 1'
_cell_length_a   6.96564296
_cell_length_b   6.96564283
_cell_length_c   6.78635678
_cell_angle_alpha   90.00000000
_cell_angle_beta   90.00000000
_cell_angle_gamma   119.99999648
_symmetry_Int_Tables_number   1
_chemical_formula_structural   PrGeBO5
_chemical_formula_sum   'Pr3 Ge3 B3 O15'
_cell_volume   285.16074900
_cell_formula_units_Z   3
loop_
 _symmetry_equiv_pos_site_id
 _symmetry_equiv_pos_as_xyz
  1  'x, y, z'
loop_
 _atom_site_type_symbol
 _atom_site_label
 _atom_site_symmetry_multiplicity
 _atom_site_fract_x
 _atom_site_fract_y
 _atom_site_fract_z
 _atom_site_occupancy
  Pr  Pr0  1  0.41616992  0.41379786  0.67026875  1
  Pr  Pr1  1  0.99762894  0.58383008  0.33693475  1
  Pr  Pr2  1  0.58620214  0.00237106  0.00360175  1
  Ge  Ge0  1  0.41702299  0.42281756  0.17058195  1
  Ge  Ge1  1  0.00579357  0.58297701  0.83724795  1
  Ge  Ge2  1  0.57718244  0.99420643  0.50391495  1
  B  B0  1  0.89962675  0.88304499  0.63812877  1
  B  B1  1  0.98341824  0.10037325  0.30479577  1
  B  B2  1  0.11695501  0.01658176  0.97146177  1
  O  O0  1  0.15740137  0.54483787  0.65639784  1
  O  O1  1  0.38743650  0.84259863  0.32306484  1
  O  O2  1  0.45516213  0.61256350  0.98973184  1
  O  O3  1  0.06595409  0.04420816  0.76955848  1
  O  O4  1  0.95579184  0.02174693  0.10289148  1
  O  O5  1  0.97825307  0.93404591  0.43622548  1
  O  O6  1  0.35129073  0.19501344  0.01217880  1
  O  O7  1  0.80498656  0.15627829  0.34551180  1
  O  O8  1  0.84372171  0.64870927  0.67884580  1
  O  O9  1  0.18478106  0.32582207  0.33115112  1
  O  O10  1  0.67417793  0.85895898  0.66448412  1
  O  O11  1  0.14104102  0.81521894  0.99781812  1
  O  O12  1  0.61275651  0.47286606  0.34770029  1
  O  O13  1  0.52713394  0.13989045  0.68103329  1
  O  O14  1  0.86010955  0.38724349  0.01436629  1
loop_
_geom_bond_atom_site_label_1
_geom_bond_atom_site_label_2
_geom_bond_distance
_geom_bond_site_symmetry_2
Ge0 O12 1.717523 1_555
Ge0 O2 1.724136 1_554
Ge0 O6 1.776688 1_555
Ge0 O9 1.779859 1_555
Ge1 O14 1.717522 1_456
Ge1 O0 1.724141 1_555
Ge1 O8 1.776684 1_455
Ge1 O11 1.779864 1_555
Ge2 O13 1.717518 1_565
Ge2 O1 1.724137 1_555
Ge2 O7 1.776688 1_565
Ge2 O10 1.779864 1_555
B0 O3 1.448259 1_665
B0 O5 1.452243 1_555
B0 O8 1.502250 1_555
B0 O10 1.504264 1_555
B1 O5 1.448257 1_545
B1 O4 1.452249 1_555
B1 O7 1.502256 1_555
B1 O9 1.504264 1_655
B2 O4 1.448262 1_456
B2 O3 1.452245 1_555
B2 O6 1.502252 1_556
B2 O11 1.504264 1_545
O0 Pr0 2.395050 1_555
O0 Pr1 2.512929 1_455
O1 Pr1 2.395045 1_455
O1 Pr2 2.512932 1_565
O2 Pr2 2.395043 1_566
O2 Pr0 2.512933 1_555
O3 Pr0 2.598558 1_555
O4 Pr2 2.598552 1_555
O5 Pr1 2.598567 1_555
O6 Pr2 2.584039 1_555
O6 Pr0 2.687362 1_554
O7 Pr1 2.584027 1_555
O7 Pr2 2.687363 1_555
O8 Pr0 2.584028 1_555
O8 Pr1 2.687374 1_555
O9 Pr1 2.696995 1_455
O9 Pr0 2.698510 1_555
O10 Pr0 2.697001 1_555
O10 Pr2 2.698506 1_566
O11 Pr2 2.697002 1_566
O11 Pr1 2.698504 1_456
O12 Pr1 2.391183 1_555
O12 Pr0 2.504596 1_555
O13 Pr0 2.391176 1_555
O13 Pr2 2.504599 1_556
O14 Pr2 2.391181 1_555
O14 Pr1 2.504597 1_555
