# generated using pymatgen
data_LaMg14C
_symmetry_space_group_name_H-M   'P 1'
_cell_length_a   6.44277000
_cell_length_b   6.44276947
_cell_length_c   10.13667216
_cell_angle_alpha   90.00000000
_cell_angle_beta   90.00000000
_cell_angle_gamma   120.00000272
_symmetry_Int_Tables_number   1
_chemical_formula_structural   LaMg14C
_chemical_formula_sum   'La1 Mg14 C1'
_cell_volume   364.39401937
_cell_formula_units_Z   1
loop_
 _symmetry_equiv_pos_site_id
 _symmetry_equiv_pos_as_xyz
  1  'x, y, z'
loop_
 _atom_site_type_symbol
 _atom_site_label
 _atom_site_symmetry_multiplicity
 _atom_site_fract_x
 _atom_site_fract_y
 _atom_site_fract_z
 _atom_site_occupancy
  La  La0  1  0.16666700  0.33333300  0.12500000  1
  Mg  Mg0  1  0.18544614  0.84272257  0.12500000  1
  Mg  Mg1  1  0.15281264  0.82640582  0.62500000  1
  Mg  Mg2  1  0.65727743  0.31455386  0.12500000  1
  Mg  Mg3  1  0.67359418  0.34718736  0.62500000  1
  Mg  Mg4  1  0.65727743  0.84272257  0.12500000  1
  Mg  Mg5  1  0.67359418  0.82640582  0.62500000  1
  Mg  Mg6  1  0.32485133  0.17514867  0.40394803  1
  Mg  Mg7  1  0.32485133  0.17514867  0.84605197  1
  Mg  Mg8  1  0.32485133  0.64970365  0.40394803  1
  Mg  Mg9  1  0.32485133  0.64970365  0.84605197  1
  Mg  Mg10  1  0.85029635  0.17514867  0.40394803  1
  Mg  Mg11  1  0.85029635  0.17514867  0.84605197  1
  Mg  Mg12  1  0.83333300  0.66666700  0.36229759  1
  Mg  Mg13  1  0.83333300  0.66666700  0.88770241  1
  C  C0  1  0.16666700  0.33333300  0.62500000  1
loop_
_geom_bond_atom_site_label_1
_geom_bond_atom_site_label_2
_geom_bond_distance
_geom_bond_site_symmetry_2
La0 Mg0 3.223088 1_555
La0 Mg4 3.223088 1_555
La0 Mg4 3.223088 1_445
La0 Mg0 3.223088 1_545
La0 Mg2 3.223089 1_455
La0 Mg2 3.223089 1_555
La0 Mg7 3.333365 1_554
La0 Mg6 3.333365 1_555
La0 Mg8 3.333370 1_555
La0 Mg9 3.333370 1_554
La0 Mg11 3.333370 1_454
La0 Mg10 3.333370 1_455
Mg0 Mg2 3.039900 1_565
Mg0 Mg4 3.039900 1_555
Mg0 Mg12 3.105776 1_455
Mg0 Mg13 3.105776 1_454
Mg0 Mg8 3.386065 1_555
Mg0 Mg9 3.386065 1_554
Mg0 Mg7 3.386072 1_564
Mg0 Mg6 3.386072 1_565
Mg0 Mg2 3.402869 1_455
Mg0 Mg4 3.402870 1_455
Mg1 Mg8 2.967723 1_555
Mg1 Mg9 2.967723 1_555
Mg1 Mg6 2.967730 1_565
Mg1 Mg7 2.967730 1_565
Mg1 Mg3 3.087494 1_455
Mg1 Mg5 3.087494 1_455
Mg1 Mg12 3.204487 1_455
Mg1 Mg13 3.204487 1_455
Mg1 Mg3 3.355275 1_565
Mg1 Mg5 3.355276 1_555
Mg2 Mg4 3.039900 1_545
Mg2 Mg6 3.386072 1_555
Mg2 Mg7 3.386072 1_554
Mg2 Mg4 3.402869 1_555
Mg3 Mg6 2.967730 1_555
Mg3 Mg7 2.967730 1_555
Mg3 Mg5 3.087494 1_555
Mg3 Mg5 3.355275 1_545
Mg4 Mg9 3.386071 1_554
Mg4 Mg8 3.386071 1_555
Mg5 Mg9 2.967730 1_555
Mg5 Mg8 2.967730 1_555
Mg10 Mg3 2.967723 1_555
Mg10 Mg5 2.967730 1_545
Mg10 Mg12 3.250312 1_545
Mg10 Mg12 3.250312 1_555
Mg10 Mg2 3.386065 1_555
Mg10 Mg4 3.386071 1_545
Mg11 Mg3 2.967723 1_555
Mg11 Mg5 2.967730 1_545
Mg11 Mg13 3.250312 1_545
Mg11 Mg13 3.250312 1_555
Mg11 Mg2 3.386065 1_556
Mg11 Mg4 3.386071 1_546
Mg12 Mg4 3.105768 1_555
Mg12 Mg2 3.105775 1_555
Mg12 Mg5 3.204481 1_555
Mg12 Mg3 3.204487 1_555
Mg12 Mg6 3.250312 1_665
Mg12 Mg6 3.250312 1_555
Mg12 Mg8 3.250312 1_555
Mg12 Mg8 3.250312 1_655
Mg13 Mg4 3.105768 1_556
Mg13 Mg2 3.105775 1_556
Mg13 Mg5 3.204481 1_555
Mg13 Mg3 3.204487 1_555
Mg13 Mg7 3.250312 1_665
Mg13 Mg7 3.250312 1_555
Mg13 Mg9 3.250312 1_555
Mg13 Mg9 3.250312 1_655
C0 Mg6 2.852516 1_555
C0 Mg7 2.852516 1_555
C0 Mg8 2.852523 1_555
C0 Mg9 2.852523 1_555
C0 Mg10 2.852523 1_455
C0 Mg11 2.852523 1_455
