# generated using pymatgen
data_Tm2Ga3Fe14
_symmetry_space_group_name_H-M   'P 1'
_cell_length_a   8.51378467
_cell_length_b   8.51378467
_cell_length_c   8.25275300
_cell_angle_alpha   90.00000000
_cell_angle_beta   90.00000000
_cell_angle_gamma   120.00000521
_symmetry_Int_Tables_number   1
_chemical_formula_structural   Tm2Ga3Fe14
_chemical_formula_sum   'Tm4 Ga6 Fe28'
_cell_volume   518.05369986
_cell_formula_units_Z   2
loop_
 _symmetry_equiv_pos_site_id
 _symmetry_equiv_pos_as_xyz
  1  'x, y, z'
loop_
 _atom_site_type_symbol
 _atom_site_label
 _atom_site_symmetry_multiplicity
 _atom_site_fract_x
 _atom_site_fract_y
 _atom_site_fract_z
 _atom_site_occupancy
  Tm  Tm0  1  0.00000000  0.00000000  0.25000000  1
  Tm  Tm1  1  0.00000000  0.00000000  0.75000000  1
  Tm  Tm2  1  0.33333300  0.66666700  0.75000000  1
  Tm  Tm3  1  0.66666700  0.33333300  0.25000000  1
  Ga  Ga0  1  0.50000000  0.50000000  0.50000000  1
  Ga  Ga1  1  0.50000000  0.00000000  0.50000000  1
  Ga  Ga2  1  0.00000000  0.50000000  0.50000000  1
  Ga  Ga3  1  0.50000000  0.50000000  0.00000000  1
  Ga  Ga4  1  0.50000000  0.00000000  0.00000000  1
  Ga  Ga5  1  0.00000000  0.50000000  0.00000000  1
  Fe  Fe0  1  0.33333300  0.66666700  0.38871900  1
  Fe  Fe1  1  0.66666700  0.33333300  0.61128100  1
  Fe  Fe2  1  0.66666700  0.33333300  0.88871900  1
  Fe  Fe3  1  0.33333300  0.66666700  0.11128100  1
  Fe  Fe4  1  0.32122100  0.34757100  0.25000000  1
  Fe  Fe5  1  0.65242900  0.97365000  0.25000000  1
  Fe  Fe6  1  0.02635000  0.67877900  0.25000000  1
  Fe  Fe7  1  0.65242900  0.67877900  0.25000000  1
  Fe  Fe8  1  0.02635000  0.34757100  0.25000000  1
  Fe  Fe9  1  0.32122100  0.97365000  0.25000000  1
  Fe  Fe10  1  0.67877900  0.65242900  0.75000000  1
  Fe  Fe11  1  0.34757100  0.02635000  0.75000000  1
  Fe  Fe12  1  0.97365000  0.32122100  0.75000000  1
  Fe  Fe13  1  0.34757100  0.32122100  0.75000000  1
  Fe  Fe14  1  0.97365000  0.65242900  0.75000000  1
  Fe  Fe15  1  0.67877900  0.02635000  0.75000000  1
  Fe  Fe16  1  0.16481300  0.83518700  0.51302100  1
  Fe  Fe17  1  0.16481300  0.32962600  0.51302100  1
  Fe  Fe18  1  0.67037400  0.83518700  0.51302100  1
  Fe  Fe19  1  0.83518700  0.16481300  0.48697900  1
  Fe  Fe20  1  0.83518700  0.67037400  0.48697900  1
  Fe  Fe21  1  0.32962600  0.16481300  0.48697900  1
  Fe  Fe22  1  0.83518700  0.16481300  0.01302100  1
  Fe  Fe23  1  0.83518700  0.67037400  0.01302100  1
  Fe  Fe24  1  0.32962600  0.16481300  0.01302100  1
  Fe  Fe25  1  0.16481300  0.83518700  0.98697900  1
  Fe  Fe26  1  0.16481300  0.32962600  0.98697900  1
  Fe  Fe27  1  0.67037400  0.83518700  0.98697900  1
loop_
_geom_bond_atom_site_label_1
_geom_bond_atom_site_label_2
_geom_bond_distance
_geom_bond_site_symmetry_2
Ga0 Tm2 3.208917 1_555
Ga0 Tm3 3.208917 1_555
Ga1 Tm2 3.208911 1_545
Ga1 Tm3 3.208911 1_555
Ga2 Tm3 3.208911 1_455
Ga2 Tm2 3.208911 1_555
Ga3 Tm3 3.208917 1_555
Ga3 Tm2 3.208917 1_554
Ga4 Tm3 3.208911 1_555
Ga4 Tm2 3.208911 1_544
Ga5 Tm2 3.208911 1_554
Ga5 Tm3 3.208911 1_455
Fe0 Fe3 2.289627 1_555
Fe0 Ga1 2.623695 1_565
Fe0 Ga2 2.623695 1_555
Fe0 Ga0 2.623702 1_555
Fe0 Fe16 2.688456 1_555
Fe0 Fe18 2.688463 1_555
Fe0 Fe17 2.688463 1_555
Fe0 Fe6 2.901996 1_555
Fe0 Fe9 2.901996 1_555
Fe0 Fe5 2.902000 1_555
Fe0 Fe8 2.902000 1_555
Fe0 Fe7 2.902004 1_555
Fe0 Fe4 2.902004 1_555
Fe0 Tm2 2.981563 1_555
Fe1 Fe2 2.289627 1_555
Fe1 Ga1 2.623695 1_555
Fe1 Ga2 2.623695 1_655
Fe1 Ga0 2.623702 1_555
Fe1 Fe19 2.688456 1_555
Fe1 Fe20 2.688463 1_555
Fe1 Fe21 2.688463 1_555
Fe1 Fe15 2.901996 1_555
Fe1 Fe12 2.901996 1_555
Fe1 Fe14 2.902000 1_555
Fe1 Fe11 2.902000 1_555
Fe1 Fe10 2.902004 1_555
Fe1 Fe13 2.902004 1_555
Fe1 Tm3 2.981563 1_555
Fe2 Ga4 2.623695 1_556
Fe2 Ga5 2.623695 1_656
Fe2 Ga3 2.623702 1_556
Fe2 Fe22 2.688456 1_556
Fe2 Fe23 2.688463 1_556
Fe2 Fe24 2.688463 1_556
Fe2 Tm3 2.981563 1_556
Fe3 Ga4 2.623695 1_565
Fe3 Ga5 2.623695 1_555
Fe3 Ga3 2.623702 1_555
Fe3 Fe6 2.901996 1_555
Fe3 Fe9 2.901996 1_555
Fe3 Fe5 2.902000 1_555
Fe3 Fe8 2.902000 1_555
Fe3 Fe7 2.902004 1_555
Fe3 Fe4 2.902004 1_555
Fe3 Tm2 2.981563 1_554
Fe4 Ga0 2.506463 1_555
Fe4 Ga3 2.506463 1_555
Fe4 Fe8 2.510468 1_555
Fe4 Fe7 2.819833 1_555
Fe4 Tm0 2.853597 1_555
Fe4 Tm3 3.003498 1_555
Fe5 Ga4 2.506463 1_565
Fe5 Ga1 2.506463 1_565
Fe5 Fe7 2.510468 1_555
Fe5 Fe9 2.819834 1_555
Fe5 Tm0 2.853597 1_665
Fe5 Tm3 3.003489 1_565
Fe6 Ga2 2.506463 1_555
Fe6 Ga5 2.506463 1_555
Fe6 Fe9 2.510468 1_555
Fe6 Fe8 2.819834 1_555
Fe6 Tm0 2.853597 1_565
Fe6 Tm3 3.003493 1_455
Fe7 Ga3 2.506463 1_555
Fe7 Ga0 2.506463 1_555
Fe7 Tm0 2.853597 1_665
Fe7 Tm3 3.003498 1_555
Fe8 Ga2 2.506463 1_555
Fe8 Ga5 2.506463 1_555
Fe8 Tm0 2.853597 1_555
Fe8 Tm3 3.003489 1_455
Fe9 Ga4 2.506463 1_565
Fe9 Ga1 2.506463 1_565
Fe9 Tm0 2.853597 1_565
Fe9 Tm3 3.003493 1_565
Fe10 Ga0 2.506463 1_555
Fe10 Ga3 2.506463 1_556
Fe10 Fe14 2.510468 1_555
Fe10 Fe23 2.510942 1_556
Fe10 Fe20 2.510942 1_555
Fe10 Fe27 2.522371 1_555
Fe10 Fe18 2.522371 1_555
Fe10 Fe13 2.819833 1_555
Fe10 Tm1 2.853597 1_665
Fe10 Fe2 2.902004 1_555
Fe10 Tm2 3.003498 1_555
Fe11 Ga1 2.506463 1_555
Fe11 Ga4 2.506463 1_556
Fe11 Fe13 2.510468 1_555
Fe11 Fe24 2.510942 1_556
Fe11 Fe21 2.510942 1_555
Fe11 Fe25 2.522371 1_545
Fe11 Fe16 2.522371 1_545
Fe11 Fe15 2.819834 1_555
Fe11 Tm1 2.853597 1_555
Fe11 Fe2 2.902000 1_555
Fe11 Tm2 3.003489 1_545
Fe12 Ga5 2.506463 1_656
Fe12 Ga2 2.506463 1_655
Fe12 Fe15 2.510468 1_555
Fe12 Fe22 2.510942 1_556
Fe12 Fe19 2.510942 1_555
Fe12 Fe26 2.522371 1_655
Fe12 Fe17 2.522371 1_655
Fe12 Fe14 2.819834 1_555
Fe12 Tm1 2.853597 1_655
Fe12 Fe2 2.901996 1_555
Fe12 Tm2 3.003493 1_655
Fe13 Ga3 2.506463 1_556
Fe13 Ga0 2.506463 1_555
Fe13 Fe24 2.510942 1_556
Fe13 Fe21 2.510942 1_555
Fe13 Fe26 2.522371 1_555
Fe13 Fe17 2.522371 1_555
Fe13 Tm1 2.853597 1_555
Fe13 Fe2 2.902004 1_555
Fe13 Tm2 3.003498 1_555
Fe14 Ga2 2.506463 1_655
Fe14 Ga5 2.506463 1_656
Fe14 Fe23 2.510942 1_556
Fe14 Fe20 2.510942 1_555
Fe14 Fe25 2.522371 1_655
Fe14 Fe16 2.522371 1_655
Fe14 Tm1 2.853597 1_665
Fe14 Fe2 2.902000 1_555
Fe14 Tm2 3.003489 1_655
Fe15 Ga1 2.506463 1_555
Fe15 Ga4 2.506463 1_556
Fe15 Fe22 2.510942 1_556
Fe15 Fe19 2.510942 1_555
Fe15 Fe27 2.522371 1_545
Fe15 Fe18 2.522371 1_545
Fe15 Tm1 2.853597 1_655
Fe15 Fe2 2.901996 1_555
Fe15 Tm2 3.003493 1_545
Fe16 Fe20 2.439867 1_455
Fe16 Fe21 2.439867 1_565
Fe16 Ga1 2.473834 1_565
Fe16 Ga2 2.473834 1_555
Fe16 Fe6 2.510942 1_555
Fe16 Fe9 2.510942 1_555
Fe16 Tm1 3.119558 1_565
Fe16 Tm2 3.162331 1_555
Fe16 Tm0 3.258600 1_565
Fe17 Fe19 2.439867 1_455
Fe17 Fe21 2.439867 1_555
Fe17 Ga0 2.473834 1_555
Fe17 Ga2 2.473834 1_555
Fe17 Fe4 2.510942 1_555
Fe17 Fe8 2.510942 1_555
Fe17 Tm1 3.119557 1_555
Fe17 Tm2 3.162337 1_555
Fe17 Tm0 3.258600 1_555
Fe18 Fe19 2.439867 1_565
Fe18 Fe20 2.439867 1_555
Fe18 Ga0 2.473834 1_555
Fe18 Ga1 2.473834 1_565
Fe18 Fe7 2.510942 1_555
Fe18 Fe5 2.510942 1_555
Fe18 Tm1 3.119557 1_665
Fe18 Tm2 3.162337 1_555
Fe18 Tm0 3.258600 1_665
Fe19 Ga1 2.473834 1_555
Fe19 Ga2 2.473834 1_655
Fe19 Fe8 2.522371 1_655
Fe19 Fe5 2.522371 1_545
Fe19 Tm0 3.119558 1_655
Fe19 Tm3 3.162331 1_555
Fe19 Tm1 3.258600 1_655
Fe20 Ga0 2.473834 1_555
Fe20 Ga2 2.473834 1_655
Fe20 Fe6 2.522371 1_655
Fe20 Fe7 2.522371 1_555
Fe20 Tm0 3.119557 1_665
Fe20 Tm3 3.162337 1_555
Fe20 Tm1 3.258600 1_665
Fe21 Ga0 2.473834 1_555
Fe21 Ga1 2.473834 1_555
Fe21 Fe9 2.522371 1_545
Fe21 Fe4 2.522371 1_555
Fe21 Tm0 3.119557 1_555
Fe21 Tm3 3.162337 1_555
Fe21 Tm1 3.258600 1_555
Fe22 Fe27 2.439867 1_544
Fe22 Fe26 2.439867 1_654
Fe22 Ga4 2.473834 1_555
Fe22 Ga5 2.473834 1_655
Fe22 Fe8 2.522371 1_655
Fe22 Fe5 2.522371 1_545
Fe22 Tm0 3.119558 1_655
Fe22 Tm3 3.162331 1_555
Fe22 Tm1 3.258600 1_654
Fe23 Fe25 2.439867 1_654
Fe23 Fe27 2.439867 1_554
Fe23 Ga3 2.473834 1_555
Fe23 Ga5 2.473834 1_655
Fe23 Fe6 2.522371 1_655
Fe23 Fe7 2.522371 1_555
Fe23 Tm0 3.119557 1_665
Fe23 Tm3 3.162337 1_555
Fe23 Tm1 3.258600 1_664
Fe24 Fe25 2.439867 1_544
Fe24 Fe26 2.439867 1_554
Fe24 Ga3 2.473834 1_555
Fe24 Ga4 2.473834 1_555
Fe24 Fe9 2.522371 1_545
Fe24 Fe4 2.522371 1_555
Fe24 Tm0 3.119557 1_555
Fe24 Tm3 3.162337 1_555
Fe24 Tm1 3.258600 1_554
Fe25 Ga4 2.473834 1_566
Fe25 Ga5 2.473834 1_556
Fe25 Fe6 2.510942 1_556
Fe25 Fe9 2.510942 1_556
Fe25 Fe3 2.688456 1_556
Fe25 Tm1 3.119558 1_565
Fe25 Tm2 3.162331 1_555
Fe25 Tm0 3.258600 1_566
Fe26 Ga3 2.473834 1_556
Fe26 Ga5 2.473834 1_556
Fe26 Fe4 2.510942 1_556
Fe26 Fe8 2.510942 1_556
Fe26 Fe3 2.688463 1_556
Fe26 Tm1 3.119557 1_555
Fe26 Tm2 3.162337 1_555
Fe26 Tm0 3.258600 1_556
Fe27 Ga3 2.473834 1_556
Fe27 Ga4 2.473834 1_566
Fe27 Fe7 2.510942 1_556
Fe27 Fe5 2.510942 1_556
Fe27 Fe3 2.688463 1_556
Fe27 Tm1 3.119557 1_665
Fe27 Tm2 3.162337 1_555
Fe27 Tm0 3.258600 1_666
