# generated using pymatgen
data_Mg30AlCO32
_symmetry_space_group_name_H-M   'P 1'
_cell_length_a   8.46177900
_cell_length_b   8.46177900
_cell_length_c   8.60049300
_cell_angle_alpha   90.00000000
_cell_angle_beta   90.00000000
_cell_angle_gamma   90.00000000
_symmetry_Int_Tables_number   1
_chemical_formula_structural   Mg30AlCO32
_chemical_formula_sum   'Mg30 Al1 C1 O32'
_cell_volume   615.80995271
_cell_formula_units_Z   1
loop_
 _symmetry_equiv_pos_site_id
 _symmetry_equiv_pos_as_xyz
  1  'x, y, z'
loop_
 _atom_site_type_symbol
 _atom_site_label
 _atom_site_symmetry_multiplicity
 _atom_site_fract_x
 _atom_site_fract_y
 _atom_site_fract_z
 _atom_site_occupancy
  Mg  Mg0  1  0.00000000  0.50000000  0.00000000  1
  Mg  Mg1  1  0.00000000  0.50000000  0.50000000  1
  Mg  Mg2  1  0.50000000  0.00000000  0.00000000  1
  Mg  Mg3  1  0.50000000  0.00000000  0.50000000  1
  Mg  Mg4  1  0.50000000  0.50000000  0.00000000  1
  Mg  Mg5  1  0.50000000  0.50000000  0.50000000  1
  Mg  Mg6  1  0.00000000  0.24575200  0.25289500  1
  Mg  Mg7  1  0.00000000  0.24575200  0.74710500  1
  Mg  Mg8  1  0.00000000  0.75424800  0.25289500  1
  Mg  Mg9  1  0.00000000  0.75424800  0.74710500  1
  Mg  Mg10  1  0.50000000  0.24927900  0.25088500  1
  Mg  Mg11  1  0.50000000  0.24927900  0.74911500  1
  Mg  Mg12  1  0.50000000  0.75072100  0.25088500  1
  Mg  Mg13  1  0.50000000  0.75072100  0.74911500  1
  Mg  Mg14  1  0.24575200  0.00000000  0.25289500  1
  Mg  Mg15  1  0.24575200  0.00000000  0.74710500  1
  Mg  Mg16  1  0.24927900  0.50000000  0.25088500  1
  Mg  Mg17  1  0.24927900  0.50000000  0.74911500  1
  Mg  Mg18  1  0.75424800  0.00000000  0.25289500  1
  Mg  Mg19  1  0.75424800  0.00000000  0.74710500  1
  Mg  Mg20  1  0.75072100  0.50000000  0.25088500  1
  Mg  Mg21  1  0.75072100  0.50000000  0.74911500  1
  Mg  Mg22  1  0.24991800  0.24991800  0.00000000  1
  Mg  Mg23  1  0.24781200  0.24781200  0.50000000  1
  Mg  Mg24  1  0.24991800  0.75008200  0.00000000  1
  Mg  Mg25  1  0.24781200  0.75218800  0.50000000  1
  Mg  Mg26  1  0.75008200  0.24991800  0.00000000  1
  Mg  Mg27  1  0.75218800  0.24781200  0.50000000  1
  Mg  Mg28  1  0.75008200  0.75008200  0.00000000  1
  Mg  Mg29  1  0.75218800  0.75218800  0.50000000  1
  Al  Al0  1  0.00000000  0.00000000  0.00000000  1
  C  C0  1  0.00000000  0.00000000  0.50000000  1
  O  O0  1  0.24244400  0.00000000  0.00000000  1
  O  O1  1  0.25475800  0.00000000  0.50000000  1
  O  O2  1  0.24875500  0.50000000  0.00000000  1
  O  O3  1  0.25017400  0.50000000  0.50000000  1
  O  O4  1  0.75755600  0.00000000  0.00000000  1
  O  O5  1  0.74524200  0.00000000  0.50000000  1
  O  O6  1  0.75124500  0.50000000  0.00000000  1
  O  O7  1  0.74982600  0.50000000  0.50000000  1
  O  O8  1  0.24916900  0.24916900  0.25032300  1
  O  O9  1  0.24916900  0.24916900  0.74967700  1
  O  O10  1  0.24916900  0.75083100  0.25032300  1
  O  O11  1  0.24916900  0.75083100  0.74967700  1
  O  O12  1  0.75083100  0.24916900  0.25032300  1
  O  O13  1  0.75083100  0.24916900  0.74967700  1
  O  O14  1  0.75083100  0.75083100  0.25032300  1
  O  O15  1  0.75083100  0.75083100  0.74967700  1
  O  O16  1  0.00000000  0.00000000  0.21000400  1
  O  O17  1  0.00000000  0.00000000  0.78999600  1
  O  O18  1  0.00000000  0.50000000  0.24782400  1
  O  O19  1  0.00000000  0.50000000  0.75217600  1
  O  O20  1  0.50000000  0.00000000  0.24782400  1
  O  O21  1  0.50000000  0.00000000  0.75217600  1
  O  O22  1  0.50000000  0.50000000  0.24916600  1
  O  O23  1  0.50000000  0.50000000  0.75083400  1
  O  O24  1  0.00000000  0.24244400  0.00000000  1
  O  O25  1  0.00000000  0.25475800  0.50000000  1
  O  O26  1  0.00000000  0.75755600  0.00000000  1
  O  O27  1  0.00000000  0.74524200  0.50000000  1
  O  O28  1  0.50000000  0.24875500  0.00000000  1
  O  O29  1  0.50000000  0.25017400  0.50000000  1
  O  O30  1  0.50000000  0.75124500  0.00000000  1
  O  O31  1  0.50000000  0.74982600  0.50000000  1
loop_
_geom_bond_atom_site_label_1
_geom_bond_atom_site_label_2
_geom_bond_distance
_geom_bond_site_symmetry_2
Mg0 O2 2.104910 1_555
Mg0 O6 2.104910 1_455
Mg0 O18 2.131409 1_555
Mg0 O19 2.131409 1_554
Mg0 O26 2.179382 1_555
Mg0 O24 2.179382 1_555
Mg1 O27 2.075184 1_555
Mg1 O25 2.075184 1_555
Mg1 O3 2.116917 1_555
Mg1 O7 2.116917 1_455
Mg1 O19 2.168838 1_555
Mg1 O18 2.168838 1_555
Mg2 O28 2.104910 1_555
Mg2 O30 2.104910 1_545
Mg2 O20 2.131409 1_555
Mg2 O21 2.131409 1_554
Mg2 O4 2.179382 1_555
Mg2 O0 2.179382 1_555
Mg3 O5 2.075184 1_555
Mg3 O1 2.075184 1_555
Mg3 O31 2.116917 1_545
Mg3 O29 2.116917 1_555
Mg3 O21 2.168838 1_555
Mg3 O20 2.168838 1_555
Mg4 O6 2.125980 1_555
Mg4 O30 2.125980 1_555
Mg4 O2 2.125980 1_555
Mg4 O28 2.125980 1_555
Mg4 O22 2.142950 1_555
Mg4 O23 2.142950 1_554
Mg5 O7 2.113972 1_555
Mg5 O29 2.113972 1_555
Mg5 O31 2.113972 1_555
Mg5 O3 2.113972 1_555
Mg5 O22 2.157296 1_555
Mg5 O23 2.157296 1_555
Mg6 O8 2.108727 1_555
Mg6 O12 2.108727 1_455
Mg6 O16 2.111964 1_555
Mg6 O25 2.126591 1_555
Mg6 O18 2.151832 1_555
Mg6 O24 2.175202 1_555
Mg7 O9 2.108727 1_555
Mg7 O13 2.108727 1_455
Mg7 O17 2.111964 1_555
Mg7 O25 2.126591 1_555
Mg7 O19 2.151832 1_555
Mg7 O24 2.175202 1_556
Mg8 O10 2.108727 1_555
Mg8 O14 2.108727 1_455
Mg8 O16 2.111964 1_565
Mg8 O27 2.126591 1_555
Mg8 O18 2.151832 1_555
Mg8 O26 2.175202 1_555
Mg9 O11 2.108727 1_555
Mg9 O15 2.108727 1_455
Mg9 O17 2.111964 1_565
Mg9 O27 2.126591 1_555
Mg9 O19 2.151832 1_555
Mg9 O26 2.175202 1_556
Mg10 O20 2.109508 1_555
Mg10 O22 2.121597 1_555
Mg10 O12 2.122482 1_555
Mg10 O8 2.122482 1_555
Mg10 O29 2.142525 1_555
Mg10 O28 2.157739 1_555
Mg11 O21 2.109508 1_555
Mg11 O23 2.121597 1_555
Mg11 O13 2.122482 1_555
Mg11 O9 2.122482 1_555
Mg11 O29 2.142525 1_555
Mg11 O28 2.157739 1_556
Mg12 O20 2.109508 1_565
Mg12 O22 2.121597 1_555
Mg12 O14 2.122482 1_555
Mg12 O10 2.122482 1_555
Mg12 O31 2.142525 1_555
Mg12 O30 2.157739 1_555
Mg13 O21 2.109508 1_565
Mg13 O23 2.121597 1_555
Mg13 O15 2.122482 1_555
Mg13 O11 2.122482 1_555
Mg13 O31 2.142525 1_555
Mg13 O30 2.157739 1_556
Mg14 O8 2.108727 1_555
Mg14 O10 2.108727 1_545
Mg14 O16 2.111964 1_555
Mg14 O1 2.126591 1_555
Mg14 O20 2.151832 1_555
Mg14 O0 2.175202 1_555
Mg15 O9 2.108727 1_555
Mg15 O11 2.108727 1_545
Mg15 O17 2.111964 1_555
Mg15 O1 2.126591 1_555
Mg15 O21 2.151832 1_555
Mg15 O0 2.175202 1_556
Mg16 O18 2.109508 1_555
Mg16 O22 2.121597 1_555
Mg16 O10 2.122482 1_555
Mg16 O8 2.122482 1_555
Mg16 O3 2.142525 1_555
Mg16 O2 2.157739 1_555
Mg17 O19 2.109508 1_555
Mg17 O23 2.121597 1_555
Mg17 O11 2.122482 1_555
Mg17 O9 2.122482 1_555
Mg17 O3 2.142525 1_555
Mg17 O2 2.157739 1_556
Mg18 O12 2.108727 1_555
Mg18 O14 2.108727 1_545
Mg18 O16 2.111964 1_655
Mg18 O5 2.126591 1_555
Mg18 O20 2.151832 1_555
Mg18 O4 2.175202 1_555
Mg19 O13 2.108727 1_555
Mg19 O15 2.108727 1_545
Mg19 O17 2.111964 1_655
Mg19 O5 2.126591 1_555
Mg19 O21 2.151832 1_555
Mg19 O4 2.175202 1_556
Mg20 O18 2.109508 1_655
Mg20 O22 2.121597 1_555
Mg20 O14 2.122482 1_555
Mg20 O12 2.122482 1_555
Mg20 O7 2.142525 1_555
Mg20 O6 2.157739 1_555
Mg21 O19 2.109508 1_655
Mg21 O23 2.121597 1_555
Mg21 O15 2.122482 1_555
Mg21 O13 2.122482 1_555
Mg21 O7 2.142525 1_555
Mg21 O6 2.157739 1_556
Mg22 O24 2.115696 1_555
Mg22 O0 2.115696 1_555
Mg22 O2 2.116161 1_555
Mg22 O28 2.116161 1_555
Mg22 O8 2.152920 1_555
Mg22 O9 2.152920 1_554
Mg23 O25 2.097754 1_555
Mg23 O1 2.097754 1_555
Mg23 O3 2.134053 1_555
Mg23 O29 2.134053 1_555
Mg23 O9 2.147407 1_555
Mg23 O8 2.147407 1_555
Mg24 O26 2.115696 1_555
Mg24 O0 2.115696 1_565
Mg24 O2 2.116161 1_555
Mg24 O30 2.116161 1_555
Mg24 O10 2.152920 1_555
Mg24 O11 2.152920 1_554
Mg25 O27 2.097754 1_555
Mg25 O1 2.097754 1_565
Mg25 O3 2.134053 1_555
Mg25 O31 2.134053 1_555
Mg25 O11 2.147407 1_555
Mg25 O10 2.147407 1_555
Mg26 O4 2.115696 1_555
Mg26 O24 2.115696 1_655
Mg26 O28 2.116161 1_555
Mg26 O6 2.116161 1_555
Mg26 O12 2.152920 1_555
Mg26 O13 2.152920 1_554
Mg27 O5 2.097754 1_555
Mg27 O25 2.097754 1_655
Mg27 O29 2.134053 1_555
Mg27 O7 2.134053 1_555
Mg27 O13 2.147407 1_555
Mg27 O12 2.147407 1_555
Mg28 O26 2.115696 1_655
Mg28 O4 2.115696 1_565
Mg28 O6 2.116161 1_555
Mg28 O30 2.116161 1_555
Mg28 O14 2.152920 1_555
Mg28 O15 2.152920 1_554
Mg29 O27 2.097754 1_655
Mg29 O5 2.097754 1_565
Mg29 O7 2.134053 1_555
Mg29 O31 2.134053 1_555
Mg29 O15 2.147407 1_555
Mg29 O14 2.147407 1_555
Al0 O16 1.806138 1_555
Al0 O17 1.806138 1_554
Al0 O26 2.051508 1_545
Al0 O0 2.051508 1_555
Al0 O24 2.051508 1_555
Al0 O4 2.051508 1_455
C0 O1 2.155706 1_555
C0 O25 2.155706 1_555
C0 O5 2.155706 1_455
C0 O27 2.155706 1_545
