# generated using pymatgen
data_SrMg3
_symmetry_space_group_name_H-M   'P 1'
_cell_length_a   6.96383000
_cell_length_b   10.88968400
_cell_length_c   12.60683200
_cell_angle_alpha   90.00000000
_cell_angle_beta   90.00000000
_cell_angle_gamma   90.00000000
_symmetry_Int_Tables_number   1
_chemical_formula_structural   SrMg3
_chemical_formula_sum   'Sr8 Mg24'
_cell_volume   956.02533969
_cell_formula_units_Z   8
loop_
 _symmetry_equiv_pos_site_id
 _symmetry_equiv_pos_as_xyz
  1  'x, y, z'
loop_
 _atom_site_type_symbol
 _atom_site_label
 _atom_site_symmetry_multiplicity
 _atom_site_fract_x
 _atom_site_fract_y
 _atom_site_fract_z
 _atom_site_occupancy
  Sr  Sr0_0  1  0.25000000  0.00000000  0.08086950  1
  Sr  Sr0_1  1  0.25000000  0.00000000  0.58086950  1
  Sr  Sr0_2  1  0.25000000  0.50000000  0.08086950  1
  Sr  Sr0_3  1  0.25000000  0.50000000  0.58086950  1
  Sr  Sr0_4  1  0.75000000  0.00000000  0.08086950  1
  Sr  Sr0_5  1  0.75000000  0.00000000  0.58086950  1
  Sr  Sr0_6  1  0.75000000  0.50000000  0.08086950  1
  Sr  Sr0_7  1  0.75000000  0.50000000  0.58086950  1
  Mg  Mg0_0  1  0.00000000  0.00000000  0.32816550  1
  Mg  Mg0_1  1  0.00000000  0.00000000  0.82816550  1
  Mg  Mg0_2  1  0.00000000  0.50000000  0.32816550  1
  Mg  Mg0_3  1  0.00000000  0.50000000  0.82816550  1
  Mg  Mg0_4  1  0.50000000  0.00000000  0.32816550  1
  Mg  Mg0_5  1  0.50000000  0.00000000  0.82816550  1
  Mg  Mg0_6  1  0.50000000  0.50000000  0.32816550  1
  Mg  Mg0_7  1  0.50000000  0.50000000  0.82816550  1
  Mg  Mg1_0  1  0.00000000  0.25000000  0.18669100  1
  Mg  Mg1_1  1  0.00000000  0.25000000  0.68669100  1
  Mg  Mg1_2  1  0.00000000  0.75000000  0.18669100  1
  Mg  Mg1_3  1  0.00000000  0.75000000  0.68669100  1
  Mg  Mg1_4  1  0.50000000  0.25000000  0.18669100  1
  Mg  Mg1_5  1  0.50000000  0.25000000  0.68669100  1
  Mg  Mg1_6  1  0.50000000  0.75000000  0.18669100  1
  Mg  Mg1_7  1  0.50000000  0.75000000  0.68669100  1
  Mg  Mg2_0  1  0.25000000  0.25000000  0.40427400  1
  Mg  Mg2_1  1  0.25000000  0.25000000  0.90427400  1
  Mg  Mg2_2  1  0.25000000  0.75000000  0.40427400  1
  Mg  Mg2_3  1  0.25000000  0.75000000  0.90427400  1
  Mg  Mg2_4  1  0.75000000  0.25000000  0.40427400  1
  Mg  Mg2_5  1  0.75000000  0.25000000  0.90427400  1
  Mg  Mg2_6  1  0.75000000  0.75000000  0.40427400  1
  Mg  Mg2_7  1  0.75000000  0.75000000  0.90427400  1
loop_
_geom_bond_atom_site_label_1
_geom_bond_atom_site_label_2
_geom_bond_distance
_geom_bond_site_symmetry_2
Sr0_0 Sr0_4 3.481915 1_555
Sr0_0 Sr0_4 3.481915 1_455
Sr0_1 Sr0_5 3.481915 1_555
Sr0_1 Sr0_5 3.481915 1_455
Sr0_2 Sr0_6 3.481915 1_455
Sr0_2 Sr0_6 3.481915 1_555
Sr0_3 Sr0_7 3.481915 1_555
Sr0_3 Sr0_7 3.481915 1_455
Mg0_0 Mg1_2 3.254629 1_545
Mg0_0 Mg1_0 3.254629 1_555
Mg0_0 Mg2_4 3.370923 1_455
Mg0_0 Mg2_6 3.370923 1_445
Mg0_0 Mg2_2 3.370923 1_545
Mg0_0 Mg2_0 3.370923 1_555
Mg0_0 Mg0_4 3.481915 1_455
Mg0_0 Mg0_4 3.481915 1_555
Mg0_0 Sr0_4 3.570782 1_455
Mg0_0 Sr0_0 3.570782 1_555
Mg0_0 Sr0_1 3.630459 1_555
Mg0_0 Sr0_5 3.630459 1_455
Mg0_1 Mg1_1 3.254629 1_555
Mg0_1 Mg1_3 3.254629 1_545
Mg0_1 Mg2_1 3.370923 1_555
Mg0_1 Mg2_5 3.370923 1_455
Mg0_1 Mg2_3 3.370923 1_545
Mg0_1 Mg2_7 3.370923 1_445
Mg0_1 Mg0_5 3.481915 1_555
Mg0_1 Mg0_5 3.481915 1_455
Mg0_1 Sr0_1 3.570782 1_555
Mg0_1 Sr0_5 3.570782 1_455
Mg0_1 Sr0_4 3.630459 1_456
Mg0_1 Sr0_0 3.630459 1_556
Mg0_2 Mg1_2 3.254629 1_555
Mg0_2 Mg1_0 3.254629 1_555
Mg0_2 Mg2_2 3.370923 1_555
Mg0_2 Mg2_6 3.370923 1_455
Mg0_2 Mg2_4 3.370923 1_455
Mg0_2 Mg2_0 3.370923 1_555
Mg0_2 Mg0_6 3.481915 1_555
Mg0_2 Mg0_6 3.481915 1_455
Mg0_2 Sr0_6 3.570782 1_455
Mg0_2 Sr0_2 3.570782 1_555
Mg0_2 Sr0_3 3.630459 1_555
Mg0_2 Sr0_7 3.630459 1_455
Mg0_3 Mg1_1 3.254629 1_555
Mg0_3 Mg1_3 3.254629 1_555
Mg0_3 Mg2_7 3.370923 1_455
Mg0_3 Mg2_1 3.370923 1_555
Mg0_3 Mg2_5 3.370923 1_455
Mg0_3 Mg2_3 3.370923 1_555
Mg0_3 Mg0_7 3.481915 1_455
Mg0_3 Mg0_7 3.481915 1_555
Mg0_3 Sr0_3 3.570782 1_555
Mg0_3 Sr0_7 3.570782 1_455
Mg0_3 Sr0_6 3.630459 1_456
Mg0_3 Sr0_2 3.630459 1_556
Mg0_4 Mg1_4 3.254629 1_555
Mg0_4 Mg1_6 3.254629 1_545
Mg0_4 Mg2_2 3.370923 1_545
Mg0_4 Mg2_0 3.370923 1_555
Mg0_4 Mg2_4 3.370923 1_555
Mg0_4 Mg2_6 3.370923 1_545
Mg0_4 Sr0_0 3.570782 1_555
Mg0_4 Sr0_4 3.570782 1_555
Mg0_4 Sr0_1 3.630459 1_555
Mg0_4 Sr0_5 3.630459 1_555
Mg0_5 Mg1_7 3.254629 1_545
Mg0_5 Mg1_5 3.254629 1_555
Mg0_5 Mg2_7 3.370923 1_545
Mg0_5 Mg2_1 3.370923 1_555
Mg0_5 Mg2_5 3.370923 1_555
Mg0_5 Mg2_3 3.370923 1_545
Mg0_5 Sr0_1 3.570782 1_555
Mg0_5 Sr0_5 3.570782 1_555
Mg0_5 Sr0_0 3.630459 1_556
Mg0_5 Sr0_4 3.630459 1_556
Mg0_6 Mg1_6 3.254629 1_555
Mg0_6 Mg1_4 3.254629 1_555
Mg0_6 Mg2_2 3.370923 1_555
Mg0_6 Mg2_6 3.370923 1_555
Mg0_6 Mg2_0 3.370923 1_555
Mg0_6 Mg2_4 3.370923 1_555
Mg0_6 Sr0_6 3.570782 1_555
Mg0_6 Sr0_2 3.570782 1_555
Mg0_6 Sr0_7 3.630459 1_555
Mg0_6 Sr0_3 3.630459 1_555
Mg0_7 Mg1_7 3.254629 1_555
Mg0_7 Mg1_5 3.254629 1_555
Mg0_7 Mg2_7 3.370923 1_555
Mg0_7 Mg2_1 3.370923 1_555
Mg0_7 Mg2_5 3.370923 1_555
Mg0_7 Mg2_3 3.370923 1_555
Mg0_7 Sr0_3 3.570782 1_555
Mg0_7 Sr0_7 3.570782 1_555
Mg0_7 Sr0_2 3.630459 1_556
Mg0_7 Sr0_6 3.630459 1_556
Mg1_0 Mg2_4 3.248870 1_455
Mg1_0 Mg2_0 3.248870 1_555
Mg1_0 Mg1_4 3.481915 1_455
Mg1_0 Mg1_4 3.481915 1_555
Mg1_0 Sr0_2 3.496035 1_555
Mg1_0 Sr0_6 3.496035 1_455
Mg1_0 Sr0_4 3.496035 1_455
Mg1_0 Sr0_0 3.496035 1_555
Mg1_1 Mg2_1 3.248870 1_555
Mg1_1 Mg2_5 3.248870 1_455
Mg1_1 Mg1_5 3.481915 1_555
Mg1_1 Mg1_5 3.481915 1_455
Mg1_1 Sr0_1 3.496035 1_555
Mg1_1 Sr0_5 3.496035 1_455
Mg1_1 Sr0_3 3.496035 1_555
Mg1_1 Sr0_7 3.496035 1_455
Mg1_2 Mg2_2 3.248870 1_555
Mg1_2 Mg2_6 3.248870 1_455
Mg1_2 Mg1_6 3.481915 1_455
Mg1_2 Mg1_6 3.481915 1_555
Mg1_2 Sr0_4 3.496035 1_465
Mg1_2 Sr0_0 3.496035 1_565
Mg1_2 Sr0_2 3.496035 1_555
Mg1_2 Sr0_6 3.496035 1_455
Mg1_3 Mg2_3 3.248870 1_555
Mg1_3 Mg2_7 3.248870 1_455
Mg1_3 Mg1_7 3.481915 1_555
Mg1_3 Mg1_7 3.481915 1_455
Mg1_3 Sr0_1 3.496035 1_565
Mg1_3 Sr0_5 3.496035 1_465
Mg1_3 Sr0_3 3.496035 1_555
Mg1_3 Sr0_7 3.496035 1_455
Mg1_4 Mg2_0 3.248870 1_555
Mg1_4 Mg2_4 3.248870 1_555
Mg1_4 Sr0_4 3.496035 1_555
Mg1_4 Sr0_6 3.496035 1_555
Mg1_4 Sr0_2 3.496035 1_555
Mg1_4 Sr0_0 3.496035 1_555
Mg1_5 Mg2_1 3.248870 1_555
Mg1_5 Mg2_5 3.248870 1_555
Mg1_5 Sr0_7 3.496035 1_555
Mg1_5 Sr0_1 3.496035 1_555
Mg1_5 Sr0_5 3.496035 1_555
Mg1_5 Sr0_3 3.496035 1_555
Mg1_6 Mg2_2 3.248870 1_555
Mg1_6 Mg2_6 3.248870 1_555
Mg1_6 Sr0_4 3.496035 1_565
Mg1_6 Sr0_0 3.496035 1_565
Mg1_6 Sr0_2 3.496035 1_555
Mg1_6 Sr0_6 3.496035 1_555
Mg1_7 Mg2_3 3.248870 1_555
Mg1_7 Mg2_7 3.248870 1_555
Mg1_7 Sr0_7 3.496035 1_555
Mg1_7 Sr0_1 3.496035 1_565
Mg1_7 Sr0_5 3.496035 1_565
Mg1_7 Sr0_3 3.496035 1_555
Mg2_0 Mg2_4 3.481915 1_555
Mg2_0 Mg2_4 3.481915 1_455
Mg2_0 Sr0_1 3.516821 1_555
Mg2_0 Sr0_3 3.516821 1_555
Mg2_1 Mg2_5 3.481915 1_455
Mg2_1 Mg2_5 3.481915 1_555
Mg2_1 Sr0_2 3.516821 1_556
Mg2_1 Sr0_0 3.516821 1_556
Mg2_2 Mg2_6 3.481915 1_455
Mg2_2 Mg2_6 3.481915 1_555
Mg2_2 Sr0_1 3.516821 1_565
Mg2_2 Sr0_3 3.516821 1_555
Mg2_3 Mg2_7 3.481915 1_555
Mg2_3 Mg2_7 3.481915 1_455
Mg2_3 Sr0_2 3.516821 1_556
Mg2_3 Sr0_0 3.516821 1_566
Mg2_4 Sr0_5 3.516821 1_555
Mg2_4 Sr0_7 3.516821 1_555
Mg2_5 Sr0_6 3.516821 1_556
Mg2_5 Sr0_4 3.516821 1_556
Mg2_6 Sr0_5 3.516821 1_565
Mg2_6 Sr0_7 3.516821 1_555
Mg2_7 Sr0_4 3.516821 1_566
Mg2_7 Sr0_6 3.516821 1_556
