# generated using pymatgen
data_Li2V(Si2O5)3
_symmetry_space_group_name_H-M   'P 1'
_cell_length_a   7.15197723
_cell_length_b   7.35778926
_cell_length_c   15.10652520
_cell_angle_alpha   75.40292054
_cell_angle_beta   90.00000000
_cell_angle_gamma   60.92107149
_symmetry_Int_Tables_number   1
_chemical_formula_structural   Li2V(Si2O5)3
_chemical_formula_sum   'Li4 V2 Si12 O30'
_cell_volume   665.23142880
_cell_formula_units_Z   2
loop_
 _symmetry_equiv_pos_site_id
 _symmetry_equiv_pos_as_xyz
  1  'x, y, z'
loop_
 _atom_site_type_symbol
 _atom_site_label
 _atom_site_symmetry_multiplicity
 _atom_site_fract_x
 _atom_site_fract_y
 _atom_site_fract_z
 _atom_site_occupancy
  Li  Li0  1  0.85624587  0.81680069  0.92853974  1
  Li  Li1  1  0.35270858  0.60103663  0.84738452  1
  Li  Li2  1  0.32695344  0.81680069  0.42853974  1
  Li  Li3  1  0.04625479  0.60103663  0.34738452  1
  V  V0  1  0.32091580  0.90475139  0.91007930  1
  V  V1  1  0.77433381  0.90475139  0.41007930  1
  Si  Si0  1  0.63800098  0.79933749  0.74548595  1
  Si  Si1  1  0.07239082  0.88689966  0.57163215  1
  Si  Si2  1  0.56266053  0.79933749  0.24548595  1
  Si  Si3  1  0.04071052  0.88689966  0.07163215  1
  Si  Si4  1  0.16823838  0.47314861  0.55244233  1
  Si  Si5  1  0.00488944  0.34229914  0.74235130  1
  Si  Si6  1  0.35861301  0.47314861  0.05244233  1
  Si  Si7  1  0.65281143  0.34229914  0.24235130  1
  Si  Si8  1  0.92849504  0.98279091  0.75616238  1
  Si  Si9  1  0.41248212  0.02497013  0.53780546  1
  Si  Si10  1  0.08871505  0.98279091  0.25616238  1
  Si  Si11  1  0.56254775  0.02497013  0.03780546  1
  O  O0  1  0.55907276  0.91801294  0.95713286  1
  O  O1  1  0.07316180  0.85553088  0.85680650  1
  O  O2  1  0.06113550  0.86519693  0.68066235  1
  O  O3  1  0.47068634  0.78124538  0.81090065  1
  O  O4  1  0.54264038  0.87129949  0.63830799  1
  O  O5  1  0.52291330  0.91801294  0.45713286  1
  O  O6  1  0.43470347  0.59885183  0.97096793  1
  O  O7  1  0.07130631  0.85553088  0.35680650  1
  O  O8  1  0.86083007  0.56712694  0.76626702  1
  O  O9  1  0.07366757  0.86519693  0.18066235  1
  O  O10  1  0.74806828  0.78124538  0.31090065  1
  O  O11  1  0.24771353  0.64445448  0.56118406  1
  O  O12  1  0.58606013  0.87129949  0.13830799  1
  O  O13  1  0.96644471  0.59885183  0.47096793  1
  O  O14  1  0.11711241  0.37920587  0.65224106  1
  O  O15  1  0.57204299  0.56712694  0.26626702  1
  O  O16  1  0.18641324  0.17472454  0.83111215  1
  O  O17  1  0.85877102  0.23787579  0.72398223  1
  O  O18  1  0.10783199  0.64445448  0.06118406  1
  O  O19  1  0.36177896  0.27197510  0.52299979  1
  O  O20  1  0.50368172  0.37920587  0.15224106  1
  O  O21  1  0.70965162  0.96692034  0.76526709  1
  O  O22  1  0.63886221  0.17472454  0.33111215  1
  O  O23  1  0.90335220  0.23787579  0.22398223  1
  O  O24  1  0.17789616  0.03562480  0.52834849  1
  O  O25  1  0.84319583  0.97100005  0.51484367  1
  O  O26  1  0.36624793  0.27197510  0.02299979  1
  O  O27  1  0.32342604  0.96692034  0.26526709  1
  O  O28  1  0.78647905  0.03562480  0.02834849  1
  O  O29  1  0.18580411  0.97100005  0.01484367  1
loop_
_geom_bond_atom_site_label_1
_geom_bond_atom_site_label_2
_geom_bond_distance
_geom_bond_site_symmetry_2
Li0 O0 1.970282 1_555
Li0 O1 1.984020 1_655
Li0 O18 2.315643 1_656
Li0 O28 2.357397 1_566
Li0 O21 2.429804 1_555
Li1 O3 1.868952 1_555
Li1 O6 1.950702 1_555
Li1 O1 2.004778 1_555
Li2 O5 1.970276 1_555
Li2 O7 1.984026 1_555
Li2 O11 2.315643 1_555
Li2 O24 2.357397 1_565
Li2 O27 2.429801 1_555
Li3 O10 1.868952 1_455
Li3 O13 1.950702 1_455
Li3 O7 2.004774 1_555
O0 Si11 1.614789 1_566
O0 V0 1.900657 1_555
O1 Si8 1.612318 1_455
O1 V0 2.165458 1_555
O2 Si1 1.620104 1_555
O2 Si8 1.627561 1_455
O3 Si0 1.585779 1_555
O3 V0 1.989470 1_555
O4 Si9 1.600531 1_565
O4 Si0 1.607428 1_555
O5 Si9 1.614787 1_565
O5 V1 1.900670 1_555
O6 Si6 1.606833 1_556
O6 V0 1.936558 1_555
O7 Si10 1.612323 1_555
O7 V1 2.165445 1_455
O8 Si5 1.604088 1_655
O8 Si0 1.624942 1_555
O9 Si3 1.620103 1_555
O9 Si10 1.627563 1_555
O10 Si2 1.585785 1_555
O10 V1 1.989472 1_555
O11 Si4 1.646057 1_555
O11 Si1 1.657419 1_555
O12 Si11 1.600531 1_565
O12 Si2 1.607429 1_555
O13 Si4 1.606833 1_655
O13 V1 1.936557 1_555
O14 Si5 1.611359 1_555
O14 Si4 1.613937 1_555
O15 Si7 1.604088 1_555
O15 Si2 1.624939 1_555
O16 Si5 1.616902 1_555
O16 V0 1.800681 1_545
O17 Si8 1.624181 1_545
O17 Si5 1.627070 1_655
O18 Si6 1.646057 1_555
O18 Si3 1.657421 1_555
O19 Si9 1.624503 1_555
O19 Si4 1.626366 1_555
O20 Si7 1.611359 1_555
O20 Si6 1.613937 1_555
O21 Si8 1.628450 1_555
O21 Si0 1.634683 1_555
O22 Si7 1.616902 1_555
O22 V1 1.800681 1_545
O23 Si10 1.624185 1_645
O23 Si7 1.627064 1_555
O24 Si1 1.623687 1_545
O24 Si9 1.645576 1_555
O25 Si1 1.597594 1_655
O25 V1 1.899223 1_555
O26 Si11 1.624499 1_555
O26 Si6 1.626360 1_555
O27 Si10 1.628428 1_555
O27 Si2 1.634688 1_555
O28 Si3 1.623692 1_645
O28 Si11 1.645576 1_555
O29 Si3 1.597588 1_555
O29 V0 1.899226 1_554
