# generated using pymatgen
data_Cs2ZrCu3F12
_symmetry_space_group_name_H-M   'P 1'
_cell_length_a   7.25504100
_cell_length_b   7.90723900
_cell_length_c   10.42854725
_cell_angle_alpha   85.84987069
_cell_angle_beta   90.00000000
_cell_angle_gamma   90.00000000
_symmetry_Int_Tables_number   1
_chemical_formula_structural   Cs2ZrCu3F12
_chemical_formula_sum   'Cs4 Zr2 Cu6 F24'
_cell_volume   596.68932422
_cell_formula_units_Z   2
loop_
 _symmetry_equiv_pos_site_id
 _symmetry_equiv_pos_as_xyz
  1  'x, y, z'
loop_
 _atom_site_type_symbol
 _atom_site_label
 _atom_site_symmetry_multiplicity
 _atom_site_fract_x
 _atom_site_fract_y
 _atom_site_fract_z
 _atom_site_occupancy
  Cs  Cs0  1  0.75000000  0.98776900  0.14941800  1
  Cs  Cs1  1  0.25000000  0.01223100  0.85058200  1
  Cs  Cs2  1  0.75000000  0.44758700  0.37568000  1
  Cs  Cs3  1  0.25000000  0.55241300  0.62432000  1
  Zr  Zr0  1  0.25000000  0.70249400  0.23977000  1
  Zr  Zr1  1  0.75000000  0.29750600  0.76023000  1
  Cu  Cu0  1  0.25000000  0.21859500  0.22893400  1
  Cu  Cu1  1  0.75000000  0.78140500  0.77106600  1
  Cu  Cu2  1  0.00000000  0.50000000  0.00000000  1
  Cu  Cu3  1  0.50000000  0.50000000  0.00000000  1
  Cu  Cu4  1  0.00000000  0.00000000  0.50000000  1
  Cu  Cu5  1  0.50000000  0.00000000  0.50000000  1
  F  F0  1  0.05712600  0.29514700  0.10534700  1
  F  F1  1  0.55712600  0.70485300  0.89465300  1
  F  F2  1  0.94287400  0.70485300  0.89465300  1
  F  F3  1  0.44287400  0.29514700  0.10534700  1
  F  F4  1  0.04967500  0.14126800  0.34206900  1
  F  F5  1  0.54967500  0.85873200  0.65793100  1
  F  F6  1  0.95032500  0.85873200  0.65793100  1
  F  F7  1  0.45032500  0.14126800  0.34206900  1
  F  F8  1  0.25000000  0.46237400  0.32566600  1
  F  F9  1  0.75000000  0.53762600  0.67433400  1
  F  F10  1  0.25000000  0.93841400  0.14671700  1
  F  F11  1  0.75000000  0.06158600  0.85328300  1
  F  F12  1  0.25000000  0.59909000  0.03571500  1
  F  F13  1  0.75000000  0.40091000  0.96428500  1
  F  F14  1  0.98269800  0.64956500  0.17268800  1
  F  F15  1  0.48269800  0.35043500  0.82731200  1
  F  F16  1  0.01730200  0.35043500  0.82731200  1
  F  F17  1  0.51730200  0.64956500  0.17268800  1
  F  F18  1  0.25000000  0.01444200  0.56137100  1
  F  F19  1  0.75000000  0.98555800  0.43862900  1
  F  F20  1  0.92626100  0.23142400  0.61675400  1
  F  F21  1  0.42626100  0.76857600  0.38324600  1
  F  F22  1  0.07373900  0.76857600  0.38324600  1
  F  F23  1  0.57373900  0.23142400  0.61675400  1
loop_
_geom_bond_atom_site_label_1
_geom_bond_atom_site_label_2
_geom_bond_distance
_geom_bond_site_symmetry_2
Cs0 F19 3.014836 1_555
Cs0 F11 3.101149 1_564
Cs0 F17 3.157017 1_555
Cs0 F14 3.157017 1_555
Cs0 F4 3.254145 1_665
Cs0 F7 3.254145 1_565
Cs0 F3 3.304824 1_565
Cs0 F0 3.304824 1_665
Cs1 F18 3.014836 1_555
Cs1 F10 3.101149 1_546
Cs1 F15 3.157017 1_555
Cs1 F16 3.157017 1_555
Cs1 F5 3.254145 1_545
Cs1 F6 3.254145 1_445
Cs1 F1 3.304824 1_545
Cs1 F2 3.304824 1_445
Cs2 F17 3.064765 1_555
Cs2 F14 3.064765 1_555
Cs2 F23 3.202391 1_555
Cs2 F20 3.202391 1_555
Cs2 F9 3.244706 1_555
Cs2 F4 3.292331 1_655
Cs2 F7 3.292331 1_555
Cs2 F22 3.463225 1_655
Cs2 F21 3.463225 1_555
Cs3 F16 3.064765 1_555
Cs3 F15 3.064765 1_555
Cs3 F22 3.202391 1_555
Cs3 F21 3.202391 1_555
Cs3 F8 3.244706 1_555
Cs3 F5 3.292331 1_555
Cs3 F6 3.292331 1_455
Cs3 F23 3.463225 1_555
Cs3 F20 3.463225 1_455
Cu0 F7 1.942608 1_555
Cu0 F4 1.942608 1_555
Cu0 F3 1.967903 1_555
Cu0 F0 1.967903 1_555
Cu0 F8 2.239373 1_555
Cu0 F10 2.432763 1_545
Cu1 F5 1.942608 1_555
Cu1 F6 1.942608 1_555
Cu1 F1 1.967903 1_555
Cu1 F2 1.967903 1_555
Cu1 F9 2.239373 1_555
Cu1 F11 2.432763 1_565
Cu2 F2 1.935194 1_454
Cu2 F0 1.935194 1_555
Cu2 F12 2.021041 1_555
Cu2 F13 2.021041 1_454
Cu2 F16 2.228422 1_554
Cu2 F14 2.228422 1_455
Cu3 F1 1.935194 1_554
Cu3 F3 1.935194 1_555
Cu3 F13 2.021041 1_554
Cu3 F12 2.021041 1_555
Cu3 F15 2.228422 1_554
Cu3 F17 2.228422 1_555
Cu4 F18 1.929497 1_555
Cu4 F19 1.929497 1_445
Cu4 F4 1.955493 1_555
Cu4 F6 1.955493 1_445
Cu4 F20 2.332339 1_455
Cu4 F22 2.332339 1_545
Cu5 F18 1.929497 1_555
Cu5 F19 1.929497 1_545
Cu5 F7 1.955493 1_555
Cu5 F5 1.955493 1_545
Cu5 F21 2.332339 1_545
Cu5 F23 2.332339 1_555
F8 Zr0 2.039912 1_555
F9 Zr1 2.039912 1_555
F10 Zr0 2.039527 1_555
F11 Zr1 2.039527 1_555
F12 Zr0 2.334255 1_555
F13 Zr1 2.334255 1_555
F14 Zr0 2.113709 1_655
F15 Zr1 2.113709 1_555
F16 Zr1 2.113709 1_455
F17 Zr0 2.113709 1_555
F20 Zr1 2.064032 1_555
F21 Zr0 2.064032 1_555
F22 Zr0 2.064032 1_555
F23 Zr1 2.064032 1_555
