# generated using pymatgen
data_Hf4Ti(PbO3)5
_symmetry_space_group_name_H-M   'P 1'
_cell_length_a   8.24133100
_cell_length_b   8.41830785
_cell_length_c   10.68154070
_cell_angle_alpha   108.00813745
_cell_angle_beta   95.93294057
_cell_angle_gamma   100.21841717
_symmetry_Int_Tables_number   1
_chemical_formula_structural   Hf4Ti(PbO3)5
_chemical_formula_sum   'Hf4 Ti1 Pb5 O15'
_cell_volume   683.60219347
_cell_formula_units_Z   1
loop_
 _symmetry_equiv_pos_site_id
 _symmetry_equiv_pos_as_xyz
  1  'x, y, z'
loop_
 _atom_site_type_symbol
 _atom_site_label
 _atom_site_symmetry_multiplicity
 _atom_site_fract_x
 _atom_site_fract_y
 _atom_site_fract_z
 _atom_site_occupancy
  Hf  Hf0  1  0.40286800  0.59928600  0.79902100  1
  Hf  Hf1  1  0.59832100  0.39795700  0.20189000  1
  Hf  Hf2  1  0.80011700  0.20039300  0.60244400  1
  Hf  Hf3  1  0.00187500  0.00207600  0.99787500  1
  Ti  Ti0  1  0.26692500  0.78816500  0.42216500  1
  Pb  Pb0  1  0.36972800  0.93626000  0.12383100  1
  Pb  Pb1  1  0.77750500  0.53992900  0.92884500  1
  Pb  Pb2  1  0.97314300  0.33688100  0.32327800  1
  Pb  Pb3  1  0.58124400  0.73742800  0.52674500  1
  Pb  Pb4  1  0.17253200  0.13835500  0.72256800  1
  O  O0  1  0.57800000  0.64948200  0.70260800  1
  O  O1  1  0.77201800  0.44112800  0.10546300  1
  O  O2  1  0.97354400  0.25110800  0.50866600  1
  O  O3  1  0.17815300  0.04731300  0.90376300  1
  O  O4  1  0.37828900  0.84791400  0.30348600  1
  O  O5  1  0.78616600  0.96936800  0.59915700  1
  O  O6  1  0.99446100  0.77395400  0.99465900  1
  O  O7  1  0.19120800  0.56748800  0.39705100  1
  O  O8  1  0.39504300  0.37180300  0.79568300  1
  O  O9  1  0.59069100  0.17135200  0.19950500  1
  O  O10  1  0.67765900  0.53877600  0.38470400  1
  O  O11  1  0.88525200  0.33803500  0.78285800  1
  O  O12  1  0.08769000  0.14406100  0.17734200  1
  O  O13  1  0.28517000  0.94165900  0.58434500  1
  O  O14  1  0.48519900  0.73602700  0.97964600  1
loop_
_geom_bond_atom_site_label_1
_geom_bond_atom_site_label_2
_geom_bond_distance
_geom_bond_site_symmetry_2
Hf0 O8 1.893734 1_555
Hf0 O14 1.893917 1_555
Hf0 O0 1.918922 1_555
Hf1 O9 1.889634 1_555
Hf1 O1 1.895733 1_555
Hf1 O10 1.917222 1_555
Hf2 O2 1.890070 1_555
Hf2 O11 1.897365 1_555
Hf2 O5 1.916889 1_545
Hf3 O12 1.899144 1_556
Hf3 O3 1.899584 1_555
Hf3 O6 1.900000 1_445
O0 Pb3 2.222797 1_555
O1 Pb1 2.286349 1_554
O2 Pb2 2.307872 1_555
O3 Pb4 2.290570 1_555
O4 Ti0 1.781377 1_555
O4 Pb0 2.261350 1_555
O5 Pb3 2.211116 1_555
O6 Pb1 2.281766 1_555
O7 Ti0 1.777206 1_555
O7 Pb2 2.267805 1_455
O8 Pb4 2.304597 1_555
O9 Pb0 2.305247 1_545
O10 Pb3 2.209488 1_555
O11 Pb1 2.300395 1_555
O12 Pb2 2.288958 1_455
O13 Ti0 1.785059 1_555
O13 Pb4 2.258430 1_565
O14 Pb0 2.320747 1_556
