# generated using pymatgen
data_RbReO2
_symmetry_space_group_name_H-M   'P 1'
_cell_length_a   8.10952908
_cell_length_b   8.10952908
_cell_length_c   8.10952908
_cell_angle_alpha   132.14092875
_cell_angle_beta   132.14092875
_cell_angle_gamma   70.00653612
_symmetry_Int_Tables_number   1
_chemical_formula_structural   RbReO2
_chemical_formula_sum   'Rb4 Re4 O8'
_cell_volume   287.48648157
_cell_formula_units_Z   4
loop_
 _symmetry_equiv_pos_site_id
 _symmetry_equiv_pos_as_xyz
  1  'x, y, z'
loop_
 _atom_site_type_symbol
 _atom_site_label
 _atom_site_symmetry_multiplicity
 _atom_site_fract_x
 _atom_site_fract_y
 _atom_site_fract_z
 _atom_site_occupancy
  Rb  Rb0  1  0.87500000  0.62500000  0.25000000  1
  Rb  Rb1  1  0.37500000  0.62500000  0.75000000  1
  Rb  Rb2  1  0.37500000  0.62500000  0.25000000  1
  Rb  Rb3  1  0.37500000  0.12500000  0.75000000  1
  Re  Re0  1  0.37500000  0.12500000  0.25000000  1
  Re  Re1  1  0.87500000  0.12500000  0.75000000  1
  Re  Re2  1  0.87500000  0.12500000  0.25000000  1
  Re  Re3  1  0.87500000  0.62500000  0.75000000  1
  O  O0  1  0.14165400  0.31837500  0.17672100  1
  O  O1  1  0.14165400  0.96493300  0.82327900  1
  O  O2  1  0.06837500  0.39165400  0.67672100  1
  O  O3  1  0.60834600  0.93162500  0.32327900  1
  O  O4  1  0.71493300  0.39165400  0.32327900  1
  O  O5  1  0.60834600  0.28506700  0.67672100  1
  O  O6  1  0.68162500  0.85834600  0.82327900  1
  O  O7  1  0.03506700  0.85834600  0.17672100  1
loop_
_geom_bond_atom_site_label_1
_geom_bond_atom_site_label_2
_geom_bond_distance
_geom_bond_site_symmetry_2
O0 Re1 2.026199 1_454
O0 Re0 2.026199 1_555
O0 Rb0 2.697574 1_455
O0 Rb1 2.697574 1_555
O0 Rb2 3.137341 1_555
O1 Re0 2.026199 1_566
O1 Re1 2.026199 1_465
O1 Rb0 2.697574 1_455
O1 Rb1 2.697574 1_555
O1 Rb3 3.137341 1_565
O2 Re2 2.026199 1_455
O2 Re3 2.026199 1_455
O2 Rb3 2.697574 1_555
O2 Rb2 2.697574 1_556
O2 Rb1 3.137341 1_555
O3 Re0 2.026199 1_565
O3 Re1 2.026199 1_565
O3 Rb1 2.697574 1_554
O3 Rb0 2.697574 1_555
O3 Rb2 3.137341 1_555
O4 Re2 2.026199 1_555
O4 Re3 2.026199 1_555
O4 Rb3 2.697574 1_554
O4 Rb2 2.697574 1_555
O4 Rb0 3.137341 1_555
O5 Re1 2.026199 1_555
O5 Re0 2.026199 1_555
O5 Rb0 2.697574 1_556
O5 Rb1 2.697574 1_555
O5 Rb3 3.137341 1_555
O6 Re2 2.026199 1_566
O6 Re3 2.026199 1_555
O6 Rb3 2.697574 1_565
O6 Rb2 2.697574 1_555
O6 Rb1 3.137341 1_555
O7 Re2 2.026199 1_465
O7 Re3 2.026199 1_454
O7 Rb2 2.697574 1_555
O7 Rb3 2.697574 1_565
O7 Rb0 3.137341 1_455
