# generated using pymatgen
data_TiNb(SnO3)2
_symmetry_space_group_name_H-M   'P 1'
_cell_length_a   5.68798795
_cell_length_b   5.68798795
_cell_length_c   5.68798795
_cell_angle_alpha   60.00000000
_cell_angle_beta   60.00000000
_cell_angle_gamma   60.00000000
_symmetry_Int_Tables_number   1
_chemical_formula_structural   TiNb(SnO3)2
_chemical_formula_sum   'Ti1 Nb1 Sn2 O6'
_cell_volume   130.12507863
_cell_formula_units_Z   1
loop_
 _symmetry_equiv_pos_site_id
 _symmetry_equiv_pos_as_xyz
  1  'x, y, z'
loop_
 _atom_site_type_symbol
 _atom_site_label
 _atom_site_symmetry_multiplicity
 _atom_site_fract_x
 _atom_site_fract_y
 _atom_site_fract_z
 _atom_site_occupancy
  Ti  Ti0  1  0.50000000  0.50000000  0.50000000  1
  Nb  Nb0  1  -0.00000000  -0.00000000  0.00000000  1
  Sn  Sn0  1  0.25000000  0.25000000  0.25000000  1
  Sn  Sn1  1  0.75000000  0.75000000  0.75000000  1
  O  O0  1  0.74741074  0.25258926  0.25258926  1
  O  O1  1  0.25258926  0.74741074  0.74741074  1
  O  O2  1  0.74741074  0.25258926  0.74741074  1
  O  O3  1  0.25258926  0.74741074  0.25258926  1
  O  O4  1  0.74741074  0.74741074  0.25258926  1
  O  O5  1  0.25258926  0.25258926  0.74741074  1
loop_
_geom_bond_atom_site_label_1
_geom_bond_atom_site_label_2
_geom_bond_distance
_geom_bond_site_symmetry_2
Nb0 O3 2.031836 1_545
Nb0 O5 2.031836 1_554
Nb0 O0 2.031836 1_455
Nb0 O4 2.031836 1_445
Nb0 O1 2.031836 1_544
Nb0 O2 2.031836 1_454
O0 Ti0 1.990179 1_555
O1 Ti0 1.990179 1_555
O2 Ti0 1.990179 1_555
O3 Ti0 1.990179 1_555
O4 Ti0 1.990179 1_555
O5 Ti0 1.990179 1_555
