# generated using pymatgen
data_FeAsRh
_symmetry_space_group_name_H-M   'P 1'
_cell_length_a   5.70943200
_cell_length_b   14.93679417
_cell_length_c   14.93679412
_cell_angle_alpha   55.61190588
_cell_angle_beta   90.00000000
_cell_angle_gamma   90.00000000
_symmetry_Int_Tables_number   1
_chemical_formula_structural   FeAsRh
_chemical_formula_sum   'Fe24 As24 Rh24'
_cell_volume   1051.19470968
_cell_formula_units_Z   24
loop_
 _symmetry_equiv_pos_site_id
 _symmetry_equiv_pos_as_xyz
  1  'x, y, z'
loop_
 _atom_site_type_symbol
 _atom_site_label
 _atom_site_symmetry_multiplicity
 _atom_site_fract_x
 _atom_site_fract_y
 _atom_site_fract_z
 _atom_site_occupancy
  Fe  Fe0_0  1  0.00000000  0.16244900  0.33755100  1
  Fe  Fe0_1  1  0.00000000  0.16244900  0.83755100  1
  Fe  Fe0_2  1  0.00000000  0.66244900  0.33755100  1
  Fe  Fe0_3  1  0.00000000  0.66244900  0.83755100  1
  Fe  Fe0_4  1  0.50000000  0.16244900  0.33755100  1
  Fe  Fe0_5  1  0.50000000  0.16244900  0.83755100  1
  Fe  Fe0_6  1  0.50000000  0.66244900  0.33755100  1
  Fe  Fe0_7  1  0.50000000  0.66244900  0.83755100  1
  Fe  Fe1_0  1  0.00000000  0.32838950  0.00522200  1
  Fe  Fe1_1  1  0.00000000  0.32838950  0.50522200  1
  Fe  Fe1_2  1  0.00000000  0.82838950  0.00522200  1
  Fe  Fe1_3  1  0.00000000  0.82838950  0.50522200  1
  Fe  Fe1_4  1  0.50000000  0.32838950  0.00522200  1
  Fe  Fe1_5  1  0.50000000  0.32838950  0.50522200  1
  Fe  Fe1_6  1  0.50000000  0.82838950  0.00522200  1
  Fe  Fe1_7  1  0.50000000  0.82838950  0.50522200  1
  Fe  Fe2_0  1  0.00000000  0.49477800  0.17161050  1
  Fe  Fe2_1  1  0.00000000  0.49477800  0.67161050  1
  Fe  Fe2_2  1  0.00000000  0.99477800  0.17161050  1
  Fe  Fe2_3  1  0.00000000  0.99477800  0.67161050  1
  Fe  Fe2_4  1  0.50000000  0.49477800  0.17161050  1
  Fe  Fe2_5  1  0.50000000  0.49477800  0.67161050  1
  Fe  Fe2_6  1  0.50000000  0.99477800  0.17161050  1
  Fe  Fe2_7  1  0.50000000  0.99477800  0.67161050  1
  As  As0_0  1  0.25000000  0.17189050  0.16278600  1
  As  As0_1  1  0.25000000  0.17189050  0.66278600  1
  As  As0_2  1  0.25000000  0.67189050  0.16278600  1
  As  As0_3  1  0.25000000  0.67189050  0.66278600  1
  As  As0_4  1  0.75000000  0.17189050  0.16278600  1
  As  As0_5  1  0.75000000  0.17189050  0.66278600  1
  As  As0_6  1  0.75000000  0.67189050  0.16278600  1
  As  As0_7  1  0.75000000  0.67189050  0.66278600  1
  As  As1_0  1  0.25000000  0.33721400  0.32810950  1
  As  As1_1  1  0.25000000  0.33721400  0.82810950  1
  As  As1_2  1  0.25000000  0.83721400  0.32810950  1
  As  As1_3  1  0.25000000  0.83721400  0.82810950  1
  As  As1_4  1  0.75000000  0.33721400  0.32810950  1
  As  As1_5  1  0.75000000  0.33721400  0.82810950  1
  As  As1_6  1  0.75000000  0.83721400  0.32810950  1
  As  As1_7  1  0.75000000  0.83721400  0.82810950  1
  As  As2_0  1  0.25000000  0.00670650  0.49329350  1
  As  As2_1  1  0.25000000  0.00670650  0.99329350  1
  As  As2_2  1  0.25000000  0.50670650  0.49329350  1
  As  As2_3  1  0.25000000  0.50670650  0.99329350  1
  As  As2_4  1  0.75000000  0.00670650  0.49329350  1
  As  As2_5  1  0.75000000  0.00670650  0.99329350  1
  As  As2_6  1  0.75000000  0.50670650  0.49329350  1
  As  As2_7  1  0.75000000  0.50670650  0.99329350  1
  Rh  Rh0_0  1  0.25000000  0.33433300  0.16566700  1
  Rh  Rh0_1  1  0.25000000  0.33433300  0.66566700  1
  Rh  Rh0_2  1  0.25000000  0.83433300  0.16566700  1
  Rh  Rh0_3  1  0.25000000  0.83433300  0.66566700  1
  Rh  Rh0_4  1  0.75000000  0.33433300  0.16566700  1
  Rh  Rh0_5  1  0.75000000  0.33433300  0.66566700  1
  Rh  Rh0_6  1  0.75000000  0.83433300  0.16566700  1
  Rh  Rh0_7  1  0.75000000  0.83433300  0.66566700  1
  Rh  Rh1_0  1  0.25000000  0.16603450  0.00184500  1
  Rh  Rh1_1  1  0.25000000  0.16603450  0.50184500  1
  Rh  Rh1_2  1  0.25000000  0.66603450  0.00184500  1
  Rh  Rh1_3  1  0.25000000  0.66603450  0.50184500  1
  Rh  Rh1_4  1  0.75000000  0.16603450  0.00184500  1
  Rh  Rh1_5  1  0.75000000  0.16603450  0.50184500  1
  Rh  Rh1_6  1  0.75000000  0.66603450  0.00184500  1
  Rh  Rh1_7  1  0.75000000  0.66603450  0.50184500  1
  Rh  Rh2_0  1  0.25000000  0.49815500  0.33396550  1
  Rh  Rh2_1  1  0.25000000  0.49815500  0.83396550  1
  Rh  Rh2_2  1  0.25000000  0.99815500  0.33396550  1
  Rh  Rh2_3  1  0.25000000  0.99815500  0.83396550  1
  Rh  Rh2_4  1  0.75000000  0.49815500  0.33396550  1
  Rh  Rh2_5  1  0.75000000  0.49815500  0.83396550  1
  Rh  Rh2_6  1  0.75000000  0.99815500  0.33396550  1
  Rh  Rh2_7  1  0.75000000  0.99815500  0.83396550  1
loop_
_geom_bond_atom_site_label_1
_geom_bond_atom_site_label_2
_geom_bond_distance
_geom_bond_site_symmetry_2
Fe0_0 Rh0_0 2.788310 1_555
Fe0_0 Rh0_4 2.788310 1_455
Fe0_0 Fe0_4 2.854716 1_555
Fe0_0 Fe0_4 2.854716 1_455
Fe0_0 Rh1_1 2.865470 1_555
Fe0_0 Rh1_5 2.865470 1_455
Fe0_0 Rh2_6 2.865470 1_445
Fe0_0 Rh2_2 2.865470 1_545
Fe0_1 Rh0_5 2.788310 1_455
Fe0_1 Rh0_1 2.788310 1_555
Fe0_1 Fe0_5 2.854716 1_455
Fe0_1 Fe0_5 2.854716 1_555
Fe0_1 Rh1_0 2.865470 1_556
Fe0_1 Rh1_4 2.865470 1_456
Fe0_1 Rh2_3 2.865470 1_545
Fe0_1 Rh2_7 2.865470 1_445
Fe0_2 Rh0_2 2.788310 1_555
Fe0_2 Rh0_6 2.788310 1_455
Fe0_2 Fe0_6 2.854716 1_455
Fe0_2 Fe0_6 2.854716 1_555
Fe0_2 Rh1_3 2.865470 1_555
Fe0_2 Rh1_7 2.865470 1_455
Fe0_2 Rh2_0 2.865470 1_555
Fe0_2 Rh2_4 2.865470 1_455
Fe0_3 Rh0_3 2.788310 1_555
Fe0_3 Rh0_7 2.788310 1_455
Fe0_3 Fe0_7 2.854716 1_555
Fe0_3 Fe0_7 2.854716 1_455
Fe0_3 Rh1_2 2.865470 1_556
Fe0_3 Rh1_6 2.865470 1_456
Fe0_3 Rh2_1 2.865470 1_555
Fe0_3 Rh2_5 2.865470 1_455
Fe0_4 Rh0_0 2.788310 1_555
Fe0_4 Rh0_4 2.788310 1_555
Fe0_4 Rh1_1 2.865470 1_555
Fe0_4 Rh1_5 2.865470 1_555
Fe0_4 Rh2_2 2.865470 1_545
Fe0_4 Rh2_6 2.865470 1_545
Fe0_5 Rh0_5 2.788310 1_555
Fe0_5 Rh0_1 2.788310 1_555
Fe0_5 Rh1_4 2.865470 1_556
Fe0_5 Rh1_0 2.865470 1_556
Fe0_5 Rh2_7 2.865470 1_545
Fe0_5 Rh2_3 2.865470 1_545
Fe0_6 Rh0_6 2.788310 1_555
Fe0_6 Rh0_2 2.788310 1_555
Fe0_6 Rh1_3 2.865470 1_555
Fe0_6 Rh1_7 2.865470 1_555
Fe0_6 Rh2_0 2.865470 1_555
Fe0_6 Rh2_4 2.865470 1_555
Fe0_7 Rh0_7 2.788310 1_555
Fe0_7 Rh0_3 2.788310 1_555
Fe0_7 Rh1_2 2.865470 1_556
Fe0_7 Rh1_6 2.865470 1_556
Fe0_7 Rh2_1 2.865470 1_555
Fe0_7 Rh2_5 2.865470 1_555
Fe1_0 Rh2_5 2.771961 1_454
Fe1_0 Rh2_1 2.771961 1_554
Fe1_0 Rh0_0 2.833538 1_555
Fe1_0 Rh0_4 2.833538 1_455
Fe1_0 Rh1_4 2.838838 1_455
Fe1_0 Rh1_0 2.838838 1_555
Fe1_0 Fe1_4 2.854716 1_455
Fe1_0 Fe1_4 2.854716 1_555
Fe1_1 Rh2_0 2.771961 1_555
Fe1_1 Rh2_4 2.771961 1_455
Fe1_1 Rh0_5 2.833538 1_455
Fe1_1 Rh0_1 2.833538 1_555
Fe1_1 Rh1_1 2.838838 1_555
Fe1_1 Rh1_5 2.838838 1_455
Fe1_1 Fe1_5 2.854716 1_455
Fe1_1 Fe1_5 2.854716 1_555
Fe1_2 Rh2_7 2.771961 1_454
Fe1_2 Rh2_3 2.771961 1_554
Fe1_2 Rh0_2 2.833538 1_555
Fe1_2 Rh0_6 2.833538 1_455
Fe1_2 Rh1_2 2.838838 1_555
Fe1_2 Rh1_6 2.838838 1_455
Fe1_2 Fe1_6 2.854716 1_555
Fe1_2 Fe1_6 2.854716 1_455
Fe1_3 Rh2_2 2.771961 1_555
Fe1_3 Rh2_6 2.771961 1_455
Fe1_3 Rh0_3 2.833538 1_555
Fe1_3 Rh0_7 2.833538 1_455
Fe1_3 Rh1_3 2.838838 1_555
Fe1_3 Rh1_7 2.838838 1_455
Fe1_3 Fe1_7 2.854716 1_455
Fe1_3 Fe1_7 2.854716 1_555
Fe1_4 Rh2_1 2.771961 1_554
Fe1_4 Rh2_5 2.771961 1_554
Fe1_4 Rh0_0 2.833538 1_555
Fe1_4 Rh0_4 2.833538 1_555
Fe1_4 Rh1_0 2.838838 1_555
Fe1_4 Rh1_4 2.838838 1_555
Fe1_5 Rh2_0 2.771961 1_555
Fe1_5 Rh2_4 2.771961 1_555
Fe1_5 Rh0_5 2.833538 1_555
Fe1_5 Rh0_1 2.833538 1_555
Fe1_5 Rh1_1 2.838838 1_555
Fe1_5 Rh1_5 2.838838 1_555
Fe1_6 Rh2_3 2.771961 1_554
Fe1_6 Rh2_7 2.771961 1_554
Fe1_6 Rh0_2 2.833538 1_555
Fe1_6 Rh0_6 2.833538 1_555
Fe1_6 Rh1_2 2.838838 1_555
Fe1_6 Rh1_6 2.838838 1_555
Fe1_7 Rh2_2 2.771961 1_555
Fe1_7 Rh2_6 2.771961 1_555
Fe1_7 Rh0_7 2.833538 1_555
Fe1_7 Rh0_3 2.833538 1_555
Fe1_7 Rh1_3 2.838838 1_555
Fe1_7 Rh1_7 2.838838 1_555
Fe2_0 Rh1_2 2.771961 1_555
Fe2_0 Rh1_6 2.771961 1_455
Fe2_0 Rh0_0 2.833538 1_555
Fe2_0 Rh0_4 2.833538 1_455
Fe2_0 Rh2_0 2.838838 1_555
Fe2_0 Rh2_4 2.838838 1_455
Fe2_0 Fe2_4 2.854716 1_455
Fe2_0 Fe2_4 2.854716 1_555
Fe2_1 Rh1_3 2.771961 1_555
Fe2_1 Rh1_7 2.771961 1_455
Fe2_1 Rh0_5 2.833538 1_455
Fe2_1 Rh0_1 2.833538 1_555
Fe2_1 Rh2_5 2.838838 1_455
Fe2_1 Rh2_1 2.838838 1_555
Fe2_1 Fe2_5 2.854716 1_455
Fe2_1 Fe2_5 2.854716 1_555
Fe2_2 Rh1_4 2.771961 1_465
Fe2_2 Rh1_0 2.771961 1_565
Fe2_2 Rh0_2 2.833538 1_555
Fe2_2 Rh0_6 2.833538 1_455
Fe2_2 Rh2_2 2.838838 1_555
Fe2_2 Rh2_6 2.838838 1_455
Fe2_2 Fe2_6 2.854716 1_455
Fe2_2 Fe2_6 2.854716 1_555
Fe2_3 Rh1_1 2.771961 1_565
Fe2_3 Rh1_5 2.771961 1_465
Fe2_3 Rh0_3 2.833538 1_555
Fe2_3 Rh0_7 2.833538 1_455
Fe2_3 Rh2_7 2.838838 1_455
Fe2_3 Rh2_3 2.838838 1_555
Fe2_3 Fe2_7 2.854716 1_555
Fe2_3 Fe2_7 2.854716 1_455
Fe2_4 Rh1_2 2.771961 1_555
Fe2_4 Rh1_6 2.771961 1_555
Fe2_4 Rh0_0 2.833538 1_555
Fe2_4 Rh0_4 2.833538 1_555
Fe2_4 Rh2_4 2.838838 1_555
Fe2_4 Rh2_0 2.838838 1_555
Fe2_5 Rh1_3 2.771961 1_555
Fe2_5 Rh1_7 2.771961 1_555
Fe2_5 Rh0_1 2.833538 1_555
Fe2_5 Rh0_5 2.833538 1_555
Fe2_5 Rh2_5 2.838838 1_555
Fe2_5 Rh2_1 2.838838 1_555
Fe2_6 Rh1_4 2.771961 1_565
Fe2_6 Rh1_0 2.771961 1_565
Fe2_6 Rh0_2 2.833538 1_555
Fe2_6 Rh0_6 2.833538 1_555
Fe2_6 Rh2_2 2.838838 1_555
Fe2_6 Rh2_6 2.838838 1_555
Fe2_7 Rh1_1 2.771961 1_565
Fe2_7 Rh1_5 2.771961 1_565
Fe2_7 Rh0_3 2.833538 1_555
Fe2_7 Rh0_7 2.833538 1_555
Fe2_7 Rh2_3 2.838838 1_555
Fe2_7 Rh2_7 2.838838 1_555
As0_0 Rh2_2 2.403499 1_545
As0_0 Rh0_0 2.450932 1_555
As0_0 Rh1_0 2.454407 1_555
As0_0 Fe1_0 2.612697 1_555
As0_0 Fe1_4 2.612697 1_555
As0_0 As0_4 2.854716 1_455
As0_0 As0_4 2.854716 1_555
As0_0 Fe0_4 2.907874 1_555
As0_0 Fe0_0 2.907874 1_555
As0_0 Fe2_2 2.942697 1_545
As0_0 Fe2_6 2.942697 1_545
As0_1 Rh2_3 2.403499 1_545
As0_1 Rh0_1 2.450932 1_555
As0_1 Rh1_1 2.454407 1_555
As0_1 Fe1_5 2.612697 1_555
As0_1 Fe1_1 2.612697 1_555
As0_1 As0_5 2.854716 1_455
As0_1 As0_5 2.854716 1_555
As0_1 Fe0_1 2.907874 1_555
As0_1 Fe0_5 2.907874 1_555
As0_1 Fe2_3 2.942697 1_545
As0_1 Fe2_7 2.942697 1_545
As0_2 Rh2_0 2.403499 1_555
As0_2 Rh0_2 2.450932 1_555
As0_2 Rh1_2 2.454407 1_555
As0_2 Fe1_6 2.612697 1_555
As0_2 Fe1_2 2.612697 1_555
As0_2 As0_6 2.854716 1_555
As0_2 As0_6 2.854716 1_455
As0_2 Fe0_2 2.907874 1_555
As0_2 Fe0_6 2.907874 1_555
As0_2 Fe2_4 2.942697 1_555
As0_2 Fe2_0 2.942697 1_555
As0_3 Rh2_1 2.403499 1_555
As0_3 Rh0_3 2.450932 1_555
As0_3 Rh1_3 2.454407 1_555
As0_3 Fe1_3 2.612697 1_555
As0_3 Fe1_7 2.612697 1_555
As0_3 As0_7 2.854716 1_455
As0_3 As0_7 2.854716 1_555
As0_3 Fe0_3 2.907874 1_555
As0_3 Fe0_7 2.907874 1_555
As0_3 Fe2_5 2.942697 1_555
As0_3 Fe2_1 2.942697 1_555
As0_4 Rh2_6 2.403499 1_545
As0_4 Rh0_4 2.450932 1_555
As0_4 Rh1_4 2.454407 1_555
As0_4 Fe1_0 2.612697 1_655
As0_4 Fe1_4 2.612697 1_555
As0_4 Fe0_4 2.907874 1_555
As0_4 Fe0_0 2.907874 1_655
As0_4 Fe2_6 2.942697 1_545
As0_4 Fe2_2 2.942697 1_645
As0_5 Rh2_7 2.403499 1_545
As0_5 Rh0_5 2.450932 1_555
As0_5 Rh1_5 2.454407 1_555
As0_5 Fe1_5 2.612697 1_555
As0_5 Fe1_1 2.612697 1_655
As0_5 Fe0_1 2.907874 1_655
As0_5 Fe0_5 2.907874 1_555
As0_5 Fe2_7 2.942697 1_545
As0_5 Fe2_3 2.942697 1_645
As0_6 Rh2_4 2.403499 1_555
As0_6 Rh0_6 2.450932 1_555
As0_6 Rh1_6 2.454407 1_555
As0_6 Fe1_2 2.612697 1_655
As0_6 Fe1_6 2.612697 1_555
As0_6 Fe0_2 2.907874 1_655
As0_6 Fe0_6 2.907874 1_555
As0_6 Fe2_4 2.942697 1_555
As0_6 Fe2_0 2.942697 1_655
As0_7 Rh2_5 2.403499 1_555
As0_7 Rh0_7 2.450932 1_555
As0_7 Rh1_7 2.454407 1_555
As0_7 Fe1_7 2.612697 1_555
As0_7 Fe1_3 2.612697 1_655
As0_7 Fe0_7 2.907874 1_555
As0_7 Fe0_3 2.907874 1_655
As0_7 Fe2_5 2.942697 1_555
As0_7 Fe2_1 2.942697 1_655
As1_0 Rh1_1 2.403499 1_555
As1_0 Rh0_0 2.450932 1_555
As1_0 Rh2_0 2.454407 1_555
As1_0 Fe2_0 2.612697 1_555
As1_0 Fe2_4 2.612697 1_555
As1_0 As1_4 2.854716 1_555
As1_0 As1_4 2.854716 1_455
As1_0 Fe0_0 2.907874 1_555
As1_0 Fe0_4 2.907874 1_555
As1_0 Fe1_1 2.942697 1_555
As1_0 Fe1_5 2.942697 1_555
As1_1 Rh1_0 2.403499 1_556
As1_1 Rh0_1 2.450932 1_555
As1_1 Rh2_1 2.454407 1_555
As1_1 Fe2_1 2.612697 1_555
As1_1 Fe2_5 2.612697 1_555
As1_1 As1_5 2.854716 1_455
As1_1 As1_5 2.854716 1_555
As1_1 Fe0_5 2.907874 1_555
As1_1 Fe0_1 2.907874 1_555
As1_1 Fe1_0 2.942697 1_556
As1_1 Fe1_4 2.942697 1_556
As1_2 Rh1_3 2.403499 1_555
As1_2 Rh0_2 2.450932 1_555
As1_2 Rh2_2 2.454407 1_555
As1_2 Fe2_6 2.612697 1_555
As1_2 Fe2_2 2.612697 1_555
As1_2 As1_6 2.854716 1_455
As1_2 As1_6 2.854716 1_555
As1_2 Fe0_2 2.907874 1_555
As1_2 Fe0_6 2.907874 1_555
As1_2 Fe1_7 2.942697 1_555
As1_2 Fe1_3 2.942697 1_555
As1_3 Rh1_2 2.403499 1_556
As1_3 Rh0_3 2.450932 1_555
As1_3 Rh2_3 2.454407 1_555
As1_3 Fe2_3 2.612697 1_555
As1_3 Fe2_7 2.612697 1_555
As1_3 As1_7 2.854716 1_455
As1_3 As1_7 2.854716 1_555
As1_3 Fe0_3 2.907874 1_555
As1_3 Fe0_7 2.907874 1_555
As1_3 Fe1_2 2.942697 1_556
As1_3 Fe1_6 2.942697 1_556
As1_4 Rh1_5 2.403499 1_555
As1_4 Rh0_4 2.450932 1_555
As1_4 Rh2_4 2.454407 1_555
As1_4 Fe2_0 2.612697 1_655
As1_4 Fe2_4 2.612697 1_555
As1_4 Fe0_0 2.907874 1_655
As1_4 Fe0_4 2.907874 1_555
As1_4 Fe1_1 2.942697 1_655
As1_4 Fe1_5 2.942697 1_555
As1_5 Rh1_4 2.403499 1_556
As1_5 Rh0_5 2.450932 1_555
As1_5 Rh2_5 2.454407 1_555
As1_5 Fe2_1 2.612697 1_655
As1_5 Fe2_5 2.612697 1_555
As1_5 Fe0_1 2.907874 1_655
As1_5 Fe0_5 2.907874 1_555
As1_5 Fe1_4 2.942697 1_556
As1_5 Fe1_0 2.942697 1_656
As1_6 Rh1_7 2.403499 1_555
As1_6 Rh0_6 2.450932 1_555
As1_6 Rh2_6 2.454407 1_555
As1_6 Fe2_2 2.612697 1_655
As1_6 Fe2_6 2.612697 1_555
As1_6 Fe0_6 2.907874 1_555
As1_6 Fe0_2 2.907874 1_655
As1_6 Fe1_3 2.942697 1_655
As1_6 Fe1_7 2.942697 1_555
As1_7 Rh1_6 2.403499 1_556
As1_7 Rh0_7 2.450932 1_555
As1_7 Rh2_7 2.454407 1_555
As1_7 Fe2_3 2.612697 1_655
As1_7 Fe2_7 2.612697 1_555
As1_7 Fe0_3 2.907874 1_655
As1_7 Fe0_7 2.907874 1_555
As1_7 Fe1_2 2.942697 1_656
As1_7 Fe1_6 2.942697 1_556
As2_0 Rh0_3 2.402092 1_545
As2_0 Rh2_2 2.454257 1_545
As2_0 Rh1_1 2.454257 1_555
As2_0 Fe0_0 2.597632 1_555
As2_0 Fe0_4 2.597632 1_555
As2_0 As2_4 2.854716 1_555
As2_0 As2_4 2.854716 1_455
As2_0 Fe2_3 2.937207 1_545
As2_0 Fe2_7 2.937207 1_545
As2_0 Fe1_3 2.937207 1_545
As2_0 Fe1_7 2.937207 1_545
As2_1 Rh0_2 2.402092 1_546
As2_1 Rh2_3 2.454257 1_545
As2_1 Rh1_0 2.454257 1_556
As2_1 Fe0_1 2.597632 1_555
As2_1 Fe0_5 2.597632 1_555
As2_1 As2_5 2.854716 1_455
As2_1 As2_5 2.854716 1_555
As2_1 Fe2_2 2.937207 1_546
As2_1 Fe2_6 2.937207 1_546
As2_1 Fe1_6 2.937207 1_546
As2_1 Fe1_2 2.937207 1_546
As2_2 Rh0_1 2.402092 1_555
As2_2 Rh2_0 2.454257 1_555
As2_2 Rh1_3 2.454257 1_555
As2_2 Fe0_2 2.597632 1_555
As2_2 Fe0_6 2.597632 1_555
As2_2 As2_6 2.854716 1_555
As2_2 As2_6 2.854716 1_455
As2_2 Fe2_1 2.937207 1_555
As2_2 Fe2_5 2.937207 1_555
As2_2 Fe1_5 2.937207 1_555
As2_2 Fe1_1 2.937207 1_555
As2_3 Rh0_0 2.402092 1_556
As2_3 Rh2_1 2.454257 1_555
As2_3 Rh1_2 2.454257 1_556
As2_3 Fe0_3 2.597632 1_555
As2_3 Fe0_7 2.597632 1_555
As2_3 As2_7 2.854716 1_455
As2_3 As2_7 2.854716 1_555
As2_3 Fe2_4 2.937207 1_556
As2_3 Fe2_0 2.937207 1_556
As2_3 Fe1_0 2.937207 1_556
As2_3 Fe1_4 2.937207 1_556
As2_4 Rh0_7 2.402092 1_545
As2_4 Rh2_6 2.454257 1_545
As2_4 Rh1_5 2.454257 1_555
As2_4 Fe0_0 2.597632 1_655
As2_4 Fe0_4 2.597632 1_555
As2_4 Fe2_7 2.937207 1_545
As2_4 Fe2_3 2.937207 1_645
As2_4 Fe1_7 2.937207 1_545
As2_4 Fe1_3 2.937207 1_645
As2_5 Rh0_6 2.402092 1_546
As2_5 Rh2_7 2.454257 1_545
As2_5 Rh1_4 2.454257 1_556
As2_5 Fe0_5 2.597632 1_555
As2_5 Fe0_1 2.597632 1_655
As2_5 Fe2_6 2.937207 1_546
As2_5 Fe2_2 2.937207 1_646
As2_5 Fe1_6 2.937207 1_546
As2_5 Fe1_2 2.937207 1_646
As2_6 Rh0_5 2.402092 1_555
As2_6 Rh2_4 2.454257 1_555
As2_6 Rh1_7 2.454257 1_555
As2_6 Fe0_6 2.597632 1_555
As2_6 Fe0_2 2.597632 1_655
As2_6 Fe2_5 2.937207 1_555
As2_6 Fe2_1 2.937207 1_655
As2_6 Fe1_1 2.937207 1_655
As2_6 Fe1_5 2.937207 1_555
As2_7 Rh0_4 2.402092 1_556
As2_7 Rh2_5 2.454257 1_555
As2_7 Rh1_6 2.454257 1_556
As2_7 Fe0_7 2.597632 1_555
As2_7 Fe0_3 2.597632 1_655
As2_7 Fe2_4 2.937207 1_556
As2_7 Fe2_0 2.937207 1_656
As2_7 Fe1_4 2.937207 1_556
As2_7 Fe1_0 2.937207 1_656
Rh0_0 Rh0_4 2.854716 1_455
Rh0_0 Rh0_4 2.854716 1_555
Rh0_1 Rh0_5 2.854716 1_455
Rh0_1 Rh0_5 2.854716 1_555
Rh0_2 Rh0_6 2.854716 1_455
Rh0_2 Rh0_6 2.854716 1_555
Rh0_3 Rh0_7 2.854716 1_455
Rh0_3 Rh0_7 2.854716 1_555
Rh1_0 Rh1_4 2.854716 1_455
Rh1_0 Rh1_4 2.854716 1_555
Rh1_1 Rh1_5 2.854716 1_455
Rh1_1 Rh1_5 2.854716 1_555
Rh1_2 Rh1_6 2.854716 1_455
Rh1_2 Rh1_6 2.854716 1_555
Rh1_3 Rh1_7 2.854716 1_455
Rh1_3 Rh1_7 2.854716 1_555
Rh2_0 Rh2_4 2.854716 1_455
Rh2_0 Rh2_4 2.854716 1_555
Rh2_1 Rh2_5 2.854716 1_455
Rh2_1 Rh2_5 2.854716 1_555
Rh2_2 Rh2_6 2.854716 1_455
Rh2_2 Rh2_6 2.854716 1_555
Rh2_3 Rh2_7 2.854716 1_555
Rh2_3 Rh2_7 2.854716 1_455
