# generated using pymatgen
data_Li2CoSn(PO4)2
_symmetry_space_group_name_H-M   'P 1'
_cell_length_a   12.08105077
_cell_length_b   5.90657901
_cell_length_c   4.95054099
_cell_angle_alpha   89.99559043
_cell_angle_beta   79.54378402
_cell_angle_gamma   89.99591158
_symmetry_Int_Tables_number   1
_chemical_formula_structural   Li2CoSn(PO4)2
_chemical_formula_sum   'Li4 Co2 Sn2 P4 O16'
_cell_volume   347.39285969
_cell_formula_units_Z   2
loop_
 _symmetry_equiv_pos_site_id
 _symmetry_equiv_pos_as_xyz
  1  'x, y, z'
loop_
 _atom_site_type_symbol
 _atom_site_label
 _atom_site_symmetry_multiplicity
 _atom_site_fract_x
 _atom_site_fract_y
 _atom_site_fract_z
 _atom_site_occupancy
  Li  Li0  1  0.00021500  0.00038100  0.99954300  1
  Li  Li1  1  0.99979300  0.50033000  0.00037700  1
  Li  Li2  1  0.50001000  0.99996900  0.50005300  1
  Li  Li3  1  0.49996100  0.50001700  0.49994100  1
  Co  Co0  1  0.31695700  0.24994300  0.04106500  1
  Co  Co1  1  0.68306200  0.74989100  0.95893200  1
  Sn  Sn0  1  0.21788900  0.74995300  0.54401800  1
  Sn  Sn1  1  0.78204000  0.25009500  0.45606400  1
  P  P0  1  0.10548000  0.25002200  0.40248600  1
  P  P1  1  0.41884200  0.74994600  0.93139500  1
  P  P2  1  0.58116400  0.24993900  0.06865800  1
  P  P3  1  0.89451400  0.74997600  0.59739500  1
  O  O0  1  0.00365900  0.75027400  0.71903200  1
  O  O1  1  0.08470200  0.25007300  0.71575400  1
  O  O2  1  0.18203300  0.04407900  0.27138600  1
  O  O3  1  0.18197100  0.45602700  0.27135700  1
  O  O4  1  0.36483000  0.53445700  0.82125800  1
  O  O5  1  0.36479600  0.96541700  0.82126500  1
  O  O6  1  0.40513100  0.74991000  0.24744400  1
  O  O7  1  0.45684200  0.24984300  0.22816600  1
  O  O8  1  0.54316600  0.75001000  0.77187400  1
  O  O9  1  0.59488200  0.24999000  0.75260400  1
  O  O10  1  0.63526100  0.03449900  0.17873900  1
  O  O11  1  0.63513900  0.46545800  0.17880400  1
  O  O12  1  0.81808900  0.54400400  0.72901200  1
  O  O13  1  0.81792200  0.95593900  0.72823400  1
  O  O14  1  0.91528900  0.74964900  0.28425400  1
  O  O15  1  0.99636000  0.24991200  0.28089200  1
loop_
_geom_bond_atom_site_label_1
_geom_bond_atom_site_label_2
_geom_bond_distance
_geom_bond_site_symmetry_2
Li0 O15 2.022674 1_456
Li0 O0 2.022832 1_545
Li0 O1 2.161041 1_555
Li0 O14 2.169689 1_446
Li1 O15 2.024049 1_555
Li1 O0 2.024274 1_654
Li1 O14 2.159905 1_555
Li1 O1 2.167505 1_654
Li2 O5 2.072647 1_555
Li2 O10 2.073240 1_565
Li2 O7 2.125162 1_565
Li2 O8 2.125237 1_555
Li2 O9 2.361849 1_565
Li2 O6 2.362216 1_555
Li3 O11 2.072139 1_555
Li3 O4 2.072258 1_555
Li3 O7 2.126000 1_555
Li3 O8 2.126161 1_555
Li3 O6 2.360694 1_555
Li3 O9 2.362335 1_555
Co0 O4 2.028328 1_554
Co0 O5 2.028364 1_544
Co0 O7 2.069314 1_555
Co0 O2 2.181987 1_555
Co0 O3 2.183113 1_555
Co1 O11 2.028201 1_556
Co1 O10 2.028696 1_566
Co1 O8 2.069307 1_555
Co1 O12 2.182076 1_555
Co1 O13 2.182812 1_555
O0 P3 1.545795 1_455
O0 Sn0 2.575877 1_555
O1 P0 1.525396 1_555
O2 P0 1.593211 1_555
O2 Sn0 2.288918 1_545
O3 P0 1.593179 1_555
O3 Sn0 2.288538 1_555
O4 P1 1.572405 1_555
O4 Sn0 2.745716 1_555
O5 P1 1.572357 1_555
O5 Sn0 2.745562 1_555
O6 P1 1.543173 1_554
O6 Sn0 2.463156 1_555
O7 P2 1.564893 1_555
O8 P1 1.564935 1_555
O9 P2 1.543191 1_556
O9 Sn1 2.462261 1_555
O10 P2 1.572402 1_555
O10 Sn1 2.745023 1_555
O11 P2 1.572354 1_555
O11 Sn1 2.745057 1_555
O12 P3 1.593359 1_555
O12 Sn1 2.289819 1_555
O13 P3 1.593150 1_555
O13 Sn1 2.287719 1_565
O14 P3 1.524778 1_555
O15 P0 1.545399 1_655
O15 Sn1 2.577024 1_555
