# generated using pymatgen
data_Ba3CeIr2O9
_symmetry_space_group_name_H-M   'P 1'
_cell_length_a   5.98867279
_cell_length_b   5.98867279
_cell_length_c   14.76048400
_cell_angle_alpha   90.00000000
_cell_angle_beta   90.00000000
_cell_angle_gamma   120.00000874
_symmetry_Int_Tables_number   1
_chemical_formula_structural   Ba3CeIr2O9
_chemical_formula_sum   'Ba6 Ce2 Ir4 O18'
_cell_volume   458.45040560
_cell_formula_units_Z   2
loop_
 _symmetry_equiv_pos_site_id
 _symmetry_equiv_pos_as_xyz
  1  'x, y, z'
loop_
 _atom_site_type_symbol
 _atom_site_label
 _atom_site_symmetry_multiplicity
 _atom_site_fract_x
 _atom_site_fract_y
 _atom_site_fract_z
 _atom_site_occupancy
  Ba  Ba0  1  0.33333300  0.66666700  0.09650000  1
  Ba  Ba1  1  0.66666700  0.33333300  0.90350000  1
  Ba  Ba2  1  0.66666700  0.33333300  0.59650000  1
  Ba  Ba3  1  0.33333300  0.66666700  0.40350000  1
  Ba  Ba4  1  0.00000000  0.00000000  0.25000000  1
  Ba  Ba5  1  0.00000000  0.00000000  0.75000000  1
  Ce  Ce0  1  0.00000000  0.00000000  0.00000000  1
  Ce  Ce1  1  0.00000000  0.00000000  0.50000000  1
  Ir  Ir0  1  0.33333300  0.66666700  0.66492600  1
  Ir  Ir1  1  0.66666700  0.33333300  0.33507400  1
  Ir  Ir2  1  0.66666700  0.33333300  0.16492600  1
  Ir  Ir3  1  0.33333300  0.66666700  0.83507400  1
  O  O0  1  0.50836300  0.01672600  0.25000000  1
  O  O1  1  0.49163700  0.98327400  0.75000000  1
  O  O2  1  0.98327400  0.49163700  0.25000000  1
  O  O3  1  0.01672600  0.50836300  0.75000000  1
  O  O4  1  0.50836300  0.49163700  0.25000000  1
  O  O5  1  0.49163700  0.50836300  0.75000000  1
  O  O6  1  0.17537800  0.35075600  0.58665400  1
  O  O7  1  0.82462200  0.64924400  0.41334600  1
  O  O8  1  0.64924400  0.82462200  0.58665400  1
  O  O9  1  0.82462200  0.64924400  0.08665400  1
  O  O10  1  0.35075600  0.17537800  0.41334600  1
  O  O11  1  0.17537800  0.35075600  0.91334600  1
  O  O12  1  0.17537800  0.82462200  0.58665400  1
  O  O13  1  0.35075600  0.17537800  0.08665400  1
  O  O14  1  0.82462200  0.17537800  0.41334600  1
  O  O15  1  0.64924400  0.82462200  0.91334600  1
  O  O16  1  0.82462200  0.17537800  0.08665400  1
  O  O17  1  0.17537800  0.82462200  0.91334600  1
loop_
_geom_bond_atom_site_label_1
_geom_bond_atom_site_label_2
_geom_bond_distance
_geom_bond_site_symmetry_2
Ba0 O2 2.903392 1_455
Ba0 O0 2.903392 1_565
Ba0 O4 2.903396 1_555
Ba0 O13 2.999220 1_565
Ba0 O9 2.999220 1_455
Ba0 O16 2.999222 1_455
Ba0 O16 2.999222 1_565
Ba0 O13 2.999226 1_555
Ba0 O9 2.999226 1_555
Ba0 O17 3.161172 1_554
Ba0 O15 3.161175 1_554
Ba0 O11 3.161175 1_554
Ba1 O1 2.903392 1_545
Ba1 O3 2.903392 1_655
Ba1 O5 2.903396 1_555
Ba1 O11 2.999220 1_655
Ba1 O15 2.999220 1_545
Ba1 O17 2.999222 1_545
Ba1 O17 2.999222 1_655
Ba1 O15 2.999226 1_555
Ba1 O11 2.999226 1_555
Ba1 O16 3.161172 1_556
Ba1 O9 3.161175 1_556
Ba1 O13 3.161175 1_556
Ba2 O1 2.903392 1_545
Ba2 O3 2.903392 1_655
Ba2 O5 2.903396 1_555
Ba2 O6 2.999220 1_655
Ba2 O8 2.999220 1_545
Ba2 O12 2.999222 1_655
Ba2 O12 2.999222 1_545
Ba2 O8 2.999226 1_555
Ba2 O6 2.999226 1_555
Ba2 O14 3.161172 1_555
Ba2 O10 3.161175 1_555
Ba2 O7 3.161175 1_555
Ba3 O2 2.903392 1_455
Ba3 O0 2.903392 1_565
Ba3 O4 2.903396 1_555
Ba3 O10 2.999220 1_565
Ba3 O7 2.999220 1_455
Ba3 O14 2.999222 1_455
Ba3 O14 2.999222 1_565
Ba3 O10 2.999226 1_555
Ba3 O7 2.999226 1_555
Ba3 O12 3.161172 1_555
Ba3 O6 3.161175 1_555
Ba3 O8 3.161175 1_555
Ba4 O4 2.995592 1_555
Ba4 O4 2.995592 1_445
Ba4 O2 2.995593 1_445
Ba4 O0 2.995593 1_555
Ba4 O0 2.995593 1_455
Ba4 O2 2.995593 1_455
Ba4 O7 3.020350 1_445
Ba4 O9 3.020350 1_445
Ba4 O10 3.020350 1_555
Ba4 O13 3.020350 1_555
Ba4 O16 3.020350 1_455
Ba4 O14 3.020350 1_455
Ba5 O5 2.995592 1_555
Ba5 O5 2.995592 1_445
Ba5 O1 2.995593 1_445
Ba5 O3 2.995593 1_555
Ba5 O1 2.995593 1_545
Ba5 O3 2.995593 1_545
Ba5 O8 3.020350 1_445
Ba5 O15 3.020350 1_445
Ba5 O11 3.020350 1_555
Ba5 O6 3.020350 1_555
Ba5 O17 3.020350 1_545
Ba5 O12 3.020350 1_545
Ce0 O9 2.223793 1_445
Ce0 O15 2.223793 1_444
Ce0 O11 2.223793 1_554
Ce0 O13 2.223793 1_555
Ce0 O16 2.223793 1_455
Ce0 O17 2.223793 1_544
Ce1 O7 2.223793 1_445
Ce1 O8 2.223793 1_445
Ce1 O10 2.223793 1_555
Ce1 O6 2.223793 1_555
Ce1 O14 2.223793 1_455
Ce1 O12 2.223793 1_545
Ir0 O12 2.004796 1_555
Ir0 O8 2.004800 1_555
Ir0 O6 2.004800 1_555
Ir0 O3 2.067157 1_555
Ir0 O1 2.067157 1_555
Ir0 O5 2.067161 1_555
Ir1 O14 2.004796 1_555
Ir1 O10 2.004800 1_555
Ir1 O7 2.004800 1_555
Ir1 O2 2.067157 1_555
Ir1 O0 2.067157 1_555
Ir1 O4 2.067161 1_555
Ir2 O16 2.004796 1_555
Ir2 O13 2.004800 1_555
Ir2 O9 2.004800 1_555
Ir2 O2 2.067157 1_555
Ir2 O0 2.067157 1_555
Ir2 O4 2.067161 1_555
Ir3 O17 2.004796 1_555
Ir3 O15 2.004800 1_555
Ir3 O11 2.004800 1_555
Ir3 O3 2.067157 1_555
Ir3 O1 2.067157 1_555
Ir3 O5 2.067161 1_555
