# generated using pymatgen
data_Cs2Ti(GeO3)3
_symmetry_space_group_name_H-M   'P 1'
_cell_length_a   7.31773799
_cell_length_b   7.31773799
_cell_length_c   10.54541700
_cell_angle_alpha   90.00000000
_cell_angle_beta   90.00000000
_cell_angle_gamma   119.99999995
_symmetry_Int_Tables_number   1
_chemical_formula_structural   Cs2Ti(GeO3)3
_chemical_formula_sum   'Cs4 Ti2 Ge6 O18'
_cell_volume   489.04418751
_cell_formula_units_Z   2
loop_
 _symmetry_equiv_pos_site_id
 _symmetry_equiv_pos_as_xyz
  1  'x, y, z'
loop_
 _atom_site_type_symbol
 _atom_site_label
 _atom_site_symmetry_multiplicity
 _atom_site_fract_x
 _atom_site_fract_y
 _atom_site_fract_z
 _atom_site_occupancy
  Cs  Cs0  1  0.33333300  0.66666700  0.44129500  1
  Cs  Cs1  1  0.66666700  0.33333300  0.94129500  1
  Cs  Cs2  1  0.66666700  0.33333300  0.55870500  1
  Cs  Cs3  1  0.33333300  0.66666700  0.05870500  1
  Ti  Ti0  1  0.00000000  0.00000000  0.50000000  1
  Ti  Ti1  1  0.00000000  0.00000000  0.00000000  1
  Ge  Ge0  1  0.22720100  0.85760400  0.75000000  1
  Ge  Ge1  1  0.63040400  0.77279900  0.75000000  1
  Ge  Ge2  1  0.14239600  0.36959600  0.75000000  1
  Ge  Ge3  1  0.36959600  0.22720100  0.25000000  1
  Ge  Ge4  1  0.85760400  0.63040400  0.25000000  1
  Ge  Ge5  1  0.77279900  0.14239600  0.25000000  1
  O  O0  1  0.23878700  0.20076200  0.39265000  1
  O  O1  1  0.03802500  0.23878700  0.89265000  1
  O  O2  1  0.20076200  0.96197500  0.89265000  1
  O  O3  1  0.79923800  0.03802500  0.39265000  1
  O  O4  1  0.96197500  0.76121300  0.39265000  1
  O  O5  1  0.76121300  0.79923800  0.89265000  1
  O  O6  1  0.76121300  0.79923800  0.60735000  1
  O  O7  1  0.96197500  0.76121300  0.10735000  1
  O  O8  1  0.79923800  0.03802500  0.10735000  1
  O  O9  1  0.20076200  0.96197500  0.60735000  1
  O  O10  1  0.03802500  0.23878700  0.60735000  1
  O  O11  1  0.23878700  0.20076200  0.10735000  1
  O  O12  1  0.49589300  0.07064300  0.25000000  1
  O  O13  1  0.42524900  0.49589300  0.75000000  1
  O  O14  1  0.07064300  0.57475100  0.75000000  1
  O  O15  1  0.92935700  0.42524900  0.25000000  1
  O  O16  1  0.57475100  0.50410700  0.25000000  1
  O  O17  1  0.50410700  0.92935700  0.75000000  1
loop_
_geom_bond_atom_site_label_1
_geom_bond_atom_site_label_2
_geom_bond_distance
_geom_bond_site_symmetry_2
Cs0 O4 3.163348 1_455
Cs0 O3 3.163353 1_565
Cs0 O0 3.163355 1_555
Cs0 O12 3.272153 1_565
Cs0 O15 3.272154 1_455
Cs0 O16 3.272163 1_555
Cs0 O9 3.282351 1_555
Cs0 O10 3.282356 1_555
Cs0 O6 3.282357 1_555
Cs1 O1 3.163348 1_655
Cs1 O2 3.163353 1_545
Cs1 O5 3.163355 1_555
Cs1 O17 3.272153 1_545
Cs1 O14 3.272154 1_655
Cs1 O13 3.272163 1_555
Cs1 O8 3.282351 1_556
Cs1 O7 3.282356 1_556
Cs1 O11 3.282357 1_556
Cs2 O10 3.163348 1_655
Cs2 O9 3.163353 1_545
Cs2 O6 3.163355 1_555
Cs2 O17 3.272153 1_545
Cs2 O14 3.272154 1_655
Cs2 O13 3.272163 1_555
Cs2 O3 3.282351 1_555
Cs2 O4 3.282356 1_555
Cs2 O0 3.282357 1_555
Cs3 O7 3.163348 1_455
Cs3 O8 3.163353 1_565
Cs3 O11 3.163355 1_555
Cs3 O12 3.272153 1_565
Cs3 O15 3.272154 1_455
Cs3 O16 3.272163 1_555
Cs3 O2 3.282351 1_554
Cs3 O1 3.282356 1_554
Cs3 O5 3.282357 1_554
Ge0 O9 1.741108 1_555
Ge0 O2 1.741108 1_555
Ge0 O14 1.795954 1_555
Ge0 O17 1.821464 1_555
Ge1 O6 1.741105 1_555
Ge1 O5 1.741105 1_555
Ge1 O17 1.795967 1_555
Ge1 O13 1.821468 1_555
Ge2 O1 1.741106 1_555
Ge2 O10 1.741106 1_555
Ge2 O13 1.795953 1_555
Ge2 O14 1.821478 1_555
Ge3 O0 1.741105 1_555
Ge3 O11 1.741105 1_555
Ge3 O12 1.795967 1_555
Ge3 O16 1.821468 1_555
Ge4 O4 1.741106 1_555
Ge4 O7 1.741106 1_555
Ge4 O16 1.795953 1_555
Ge4 O15 1.821478 1_555
Ge5 O8 1.741108 1_555
Ge5 O3 1.741108 1_555
Ge5 O15 1.795954 1_555
Ge5 O12 1.821464 1_555
O0 Ti0 1.981435 1_555
O1 Ti1 1.981435 1_556
O2 Ti1 1.981435 1_566
O3 Ti0 1.981435 1_655
O4 Ti0 1.981435 1_665
O5 Ti1 1.981435 1_666
O6 Ti0 1.981435 1_665
O7 Ti1 1.981435 1_665
O8 Ti1 1.981435 1_655
O9 Ti0 1.981435 1_565
O10 Ti0 1.981435 1_555
O11 Ti1 1.981435 1_555
