# generated using pymatgen
data_Li3Al2CoO6
_symmetry_space_group_name_H-M   'P 1'
_cell_length_a   2.85832966
_cell_length_b   2.85832966
_cell_length_c   14.42732700
_cell_angle_alpha   90.00000000
_cell_angle_beta   90.00000000
_cell_angle_gamma   119.99999213
_symmetry_Int_Tables_number   1
_chemical_formula_structural   Li3Al2CoO6
_chemical_formula_sum   'Li3 Al2 Co1 O6'
_cell_volume   102.08012031
_cell_formula_units_Z   1
loop_
 _symmetry_equiv_pos_site_id
 _symmetry_equiv_pos_as_xyz
  1  'x, y, z'
loop_
 _atom_site_type_symbol
 _atom_site_label
 _atom_site_symmetry_multiplicity
 _atom_site_fract_x
 _atom_site_fract_y
 _atom_site_fract_z
 _atom_site_occupancy
  Li  Li0  1  0.66666700  0.33333300  0.83233400  1
  Li  Li1  1  0.33333300  0.66666700  0.16766600  1
  Li  Li2  1  0.00000000  0.00000000  0.50000000  1
  Al  Al0  1  0.66666700  0.33333300  0.33314200  1
  Al  Al1  1  0.33333300  0.66666700  0.66685800  1
  Co  Co0  1  0.00000000  0.00000000  0.00000000  1
  O  O0  1  0.33333300  0.66666700  0.92160600  1
  O  O1  1  0.00000000  0.00000000  0.26274000  1
  O  O2  1  0.66666700  0.33333300  0.59584800  1
  O  O3  1  0.66666700  0.33333300  0.07839400  1
  O  O4  1  0.33333300  0.66666700  0.40415200  1
  O  O5  1  0.00000000  0.00000000  0.73726000  1
loop_
_geom_bond_atom_site_label_1
_geom_bond_atom_site_label_2
_geom_bond_distance
_geom_bond_site_symmetry_2
Li0 O0 2.093365 1_545
Li0 O0 2.093365 1_655
Li0 O0 2.093369 1_555
Li0 O5 2.145881 1_655
Li0 O5 2.145883 1_555
Li0 O5 2.145883 1_665
Li1 O3 2.093365 1_455
Li1 O3 2.093365 1_565
Li1 O3 2.093369 1_555
Li1 O1 2.145881 1_565
Li1 O1 2.145883 1_555
Li1 O1 2.145883 1_665
Li2 O4 2.153036 1_545
Li2 O2 2.153036 1_455
Li2 O4 2.153038 1_445
Li2 O4 2.153038 1_555
Li2 O2 2.153038 1_555
Li2 O2 2.153038 1_445
Al0 O1 1.937786 1_655
Al0 O1 1.937789 1_555
Al0 O1 1.937789 1_665
Al0 O4 1.942399 1_545
Al0 O4 1.942399 1_655
Al0 O4 1.942403 1_555
Al1 O5 1.937786 1_565
Al1 O5 1.937789 1_555
Al1 O5 1.937789 1_665
Al1 O2 1.942399 1_455
Al1 O2 1.942399 1_565
Al1 O2 1.942403 1_555
Co0 O3 2.000635 1_455
Co0 O0 2.000635 1_544
Co0 O0 2.000637 1_444
Co0 O0 2.000637 1_554
Co0 O3 2.000637 1_555
Co0 O3 2.000637 1_445
