# generated using pymatgen
data_Mn2Cr3Sb3O16
_symmetry_space_group_name_H-M   'P 1'
_cell_length_a   6.10161432
_cell_length_b   6.10161432
_cell_length_c   8.93898348
_cell_angle_alpha   89.58298452
_cell_angle_beta   89.58298452
_cell_angle_gamma   60.24815168
_symmetry_Int_Tables_number   1
_chemical_formula_structural   Mn2Cr3Sb3O16
_chemical_formula_sum   'Mn2 Cr3 Sb3 O16'
_cell_volume   288.91723142
_cell_formula_units_Z   1
loop_
 _symmetry_equiv_pos_site_id
 _symmetry_equiv_pos_as_xyz
  1  'x, y, z'
loop_
 _atom_site_type_symbol
 _atom_site_label
 _atom_site_symmetry_multiplicity
 _atom_site_fract_x
 _atom_site_fract_y
 _atom_site_fract_z
 _atom_site_occupancy
  Mn  Mn0  1  0.34173900  0.34173900  0.52182000  1
  Mn  Mn1  1  0.67296900  0.67296900  0.00472900  1
  Cr  Cr0  1  0.66009200  0.16723100  0.79210000  1
  Cr  Cr1  1  0.16723100  0.66009200  0.79210000  1
  Cr  Cr2  1  0.82957400  0.82957400  0.28895300  1
  Sb  Sb0  1  0.16566100  0.16566100  0.79491000  1
  Sb  Sb1  1  0.82993800  0.33301500  0.28990100  1
  Sb  Sb2  1  0.33301500  0.82993800  0.28990100  1
  O  O0  1  0.66400700  0.17045000  0.39813600  1
  O  O1  1  0.47496200  0.47496200  0.65890000  1
  O  O2  1  0.32932000  0.32932000  0.90316800  1
  O  O3  1  0.00162000  0.00162000  0.68950200  1
  O  O4  1  0.99977100  0.99977100  0.17890300  1
  O  O5  1  0.17045000  0.66400700  0.39813600  1
  O  O6  1  0.47392000  0.05379100  0.65269300  1
  O  O7  1  0.05379100  0.47392000  0.65269300  1
  O  O8  1  0.82991600  0.82991600  0.90348600  1
  O  O9  1  0.16848700  0.16848700  0.39677500  1
  O  O10  1  0.94860800  0.52377700  0.15736500  1
  O  O11  1  0.52377700  0.94860800  0.15736500  1
  O  O12  1  0.66367200  0.66367200  0.40735600  1
  O  O13  1  0.82831400  0.34711100  0.90113600  1
  O  O14  1  0.52211300  0.52211300  0.15310800  1
  O  O15  1  0.34711100  0.82831400  0.90113600  1
loop_
_geom_bond_atom_site_label_1
_geom_bond_atom_site_label_2
_geom_bond_distance
_geom_bond_site_symmetry_2
Mn0 O1 1.872921 1_555
Mn0 O6 1.919214 1_555
Mn0 O7 1.919214 1_555
Mn0 O0 2.031437 1_555
Mn0 O5 2.031437 1_555
Mn0 O9 2.151259 1_555
Mn1 O8 1.880981 1_554
Mn1 O15 1.962832 1_554
Mn1 O13 1.962832 1_554
Mn1 O10 2.003672 1_555
Mn1 O11 2.003672 1_555
Mn1 O14 2.063755 1_555
Cr0 O2 2.010279 1_555
Cr0 O3 2.024964 1_655
Cr0 O1 2.025155 1_555
Cr0 O6 2.033693 1_555
Cr0 O8 2.041976 1_545
Cr0 O13 2.087200 1_555
Cr1 O2 2.010279 1_555
Cr1 O3 2.024964 1_565
Cr1 O1 2.025155 1_555
Cr1 O7 2.033693 1_555
Cr1 O8 2.041976 1_455
Cr1 O15 2.087200 1_555
Cr2 O11 2.016691 1_555
Cr2 O10 2.016691 1_555
Cr2 O12 2.038480 1_555
Cr2 O4 2.040881 1_555
Cr2 O0 2.056423 1_565
Cr2 O5 2.056423 1_655
O0 Sb1 1.978255 1_555
O2 Sb0 1.987116 1_555
O3 Sb0 1.978191 1_555
O4 Sb2 2.028769 1_655
O4 Sb1 2.028769 1_565
O5 Sb2 1.978255 1_555
O6 Sb0 2.079272 1_555
O7 Sb0 2.079272 1_555
O9 Sb1 2.035728 1_455
O9 Sb2 2.035728 1_545
O10 Sb1 2.021532 1_555
O11 Sb2 2.021532 1_555
O12 Sb1 2.045957 1_555
O12 Sb2 2.045957 1_555
O13 Sb0 2.022210 1_655
O14 Sb2 2.053360 1_555
O14 Sb1 2.053360 1_555
O15 Sb0 2.022210 1_565
