# generated using pymatgen
data_Sr7IrN6
_symmetry_space_group_name_H-M   'P 1'
_cell_length_a   11.92566166
_cell_length_b   6.70869366
_cell_length_c   14.15154002
_cell_angle_alpha   90.00000000
_cell_angle_beta   90.00000000
_cell_angle_gamma   90.00000000
_symmetry_Int_Tables_number   1
_chemical_formula_structural   Sr7IrN6
_chemical_formula_sum   'Sr28 Ir4 N24'
_cell_volume   1132.20260263
_cell_formula_units_Z   4
loop_
 _symmetry_equiv_pos_site_id
 _symmetry_equiv_pos_as_xyz
  1  'x, y, z'
loop_
 _atom_site_type_symbol
 _atom_site_label
 _atom_site_symmetry_multiplicity
 _atom_site_fract_x
 _atom_site_fract_y
 _atom_site_fract_z
 _atom_site_occupancy
  Sr  Sr0  1  0.03589223  0.73122568  0.98265326  1
  Sr  Sr1  1  0.46410777  0.76877432  0.48265326  1
  Sr  Sr2  1  0.53589223  0.76877432  0.01734674  1
  Sr  Sr3  1  0.96410777  0.73122568  0.51734674  1
  Sr  Sr4  1  0.96410777  0.26877432  0.01734674  1
  Sr  Sr5  1  0.53589223  0.23122568  0.51734674  1
  Sr  Sr6  1  0.46410777  0.23122568  0.98265326  1
  Sr  Sr7  1  0.03589223  0.26877432  0.48265326  1
  Sr  Sr8  1  0.21520828  0.87000466  0.62678928  1
  Sr  Sr9  1  0.28479172  0.62999534  0.12678928  1
  Sr  Sr10  1  0.71520828  0.62999534  0.37321072  1
  Sr  Sr11  1  0.78479172  0.87000466  0.87321072  1
  Sr  Sr12  1  0.78479172  0.12999534  0.37321072  1
  Sr  Sr13  1  0.71520828  0.37000466  0.87321072  1
  Sr  Sr14  1  0.28479172  0.37000466  0.62678928  1
  Sr  Sr15  1  0.21520828  0.12999534  0.12678928  1
  Sr  Sr16  1  0.28894767  0.60718484  0.88269052  1
  Sr  Sr17  1  0.21105233  0.89281516  0.38269052  1
  Sr  Sr18  1  0.78894767  0.89281516  0.11730948  1
  Sr  Sr19  1  0.71105233  0.60718484  0.61730948  1
  Sr  Sr20  1  0.71105233  0.39281516  0.11730948  1
  Sr  Sr21  1  0.78894767  0.10718484  0.61730948  1
  Sr  Sr22  1  0.21105233  0.10718484  0.88269052  1
  Sr  Sr23  1  0.28894767  0.39281516  0.38269052  1
  Sr  Sr24  1  0.00000000  0.42954118  0.75000000  1
  Sr  Sr25  1  0.50000000  0.07045882  0.25000000  1
  Sr  Sr26  1  -0.00000000  0.57045882  0.25000000  1
  Sr  Sr27  1  0.50000000  0.92954118  0.75000000  1
  Ir  Ir0  1  -0.00000000  0.92178155  0.75000000  1
  Ir  Ir1  1  0.50000000  0.57821845  0.25000000  1
  Ir  Ir2  1  0.00000000  0.07821845  0.25000000  1
  Ir  Ir3  1  0.50000000  0.42178155  0.75000000  1
  N  N0  1  0.12356619  0.75524009  0.79682695  1
  N  N1  1  0.37643381  0.74475991  0.29682695  1
  N  N2  1  0.62356619  0.74475991  0.20317305  1
  N  N3  1  0.87643381  0.75524009  0.70317305  1
  N  N4  1  0.87643381  0.24475991  0.20317305  1
  N  N5  1  0.62356619  0.25524009  0.70317305  1
  N  N6  1  0.37643381  0.25524009  0.79682695  1
  N  N7  1  0.12356619  0.24475991  0.29682695  1
  N  N8  1  0.16910944  0.59575808  0.50811908  1
  N  N9  1  0.33089056  0.90424192  0.00811908  1
  N  N10  1  0.66910944  0.90424192  0.49188092  1
  N  N11  1  0.83089056  0.59575808  0.99188092  1
  N  N12  1  0.83089056  0.40424192  0.49188092  1
  N  N13  1  0.66910944  0.09575808  0.99188092  1
  N  N14  1  0.33089056  0.09575808  0.50811908  1
  N  N15  1  0.16910944  0.40424192  0.00811908  1
  N  N16  1  0.47521173  0.58565640  0.63762605  1
  N  N17  1  0.02478827  0.91434360  0.13762605  1
  N  N18  1  0.97521173  0.91434360  0.36237395  1
  N  N19  1  0.52478827  0.58565640  0.86237395  1
  N  N20  1  0.52478827  0.41434360  0.36237395  1
  N  N21  1  0.97521173  0.08565640  0.86237395  1
  N  N22  1  0.02478827  0.08565640  0.63762605  1
  N  N23  1  0.47521173  0.41434360  0.13762605  1
loop_
_geom_bond_atom_site_label_1
_geom_bond_atom_site_label_2
_geom_bond_distance
_geom_bond_site_symmetry_2
Ir0 N22 1.955756 1_565
Ir0 N21 1.955756 1_465
Ir0 N0 1.964424 1_555
Ir0 N3 1.964424 1_455
Ir1 N23 1.955756 1_555
Ir1 N20 1.955756 1_555
Ir1 N1 1.964424 1_555
Ir1 N2 1.964424 1_555
Ir2 N18 1.955756 1_445
Ir2 N17 1.955756 1_545
Ir2 N4 1.964424 1_455
Ir2 N7 1.964424 1_555
Ir3 N16 1.955756 1_555
Ir3 N19 1.955756 1_555
Ir3 N6 1.964424 1_555
Ir3 N5 1.964424 1_555
N0 Sr16 2.520503 1_555
N0 Sr24 2.717526 1_555
N0 Sr8 2.752716 1_555
N0 Sr0 2.834545 1_555
N0 Sr22 2.853025 1_565
N1 Sr17 2.520503 1_555
N1 Sr25 2.717526 1_565
N1 Sr9 2.752716 1_555
N1 Sr1 2.834545 1_555
N1 Sr23 2.853025 1_555
N2 Sr18 2.520503 1_555
N2 Sr25 2.717526 1_565
N2 Sr10 2.752716 1_555
N2 Sr2 2.834545 1_555
N2 Sr20 2.853025 1_555
N3 Sr19 2.520503 1_555
N3 Sr24 2.717526 1_655
N3 Sr11 2.752716 1_555
N3 Sr3 2.834545 1_555
N3 Sr21 2.853025 1_565
N4 Sr20 2.520503 1_555
N4 Sr26 2.717526 1_655
N4 Sr12 2.752716 1_555
N4 Sr4 2.834545 1_555
N4 Sr18 2.853025 1_545
N5 Sr21 2.520503 1_555
N5 Sr27 2.717526 1_545
N5 Sr13 2.752716 1_555
N5 Sr5 2.834545 1_555
N5 Sr19 2.853025 1_555
N6 Sr22 2.520503 1_555
N6 Sr27 2.717526 1_545
N6 Sr14 2.752716 1_555
N6 Sr6 2.834545 1_555
N6 Sr16 2.853025 1_555
N7 Sr23 2.520503 1_555
N7 Sr26 2.717526 1_555
N7 Sr15 2.752716 1_555
N7 Sr7 2.834545 1_555
N7 Sr17 2.853025 1_545
N8 Sr8 2.550981 1_555
N8 Sr3 2.611502 1_455
N8 Sr14 2.649014 1_555
N8 Sr23 2.654572 1_555
N8 Sr17 2.715209 1_555
N8 Sr7 2.732377 1_555
N9 Sr9 2.550981 1_555
N9 Sr2 2.611502 1_555
N9 Sr15 2.649014 1_565
N9 Sr22 2.654572 1_564
N9 Sr16 2.715209 1_554
N9 Sr6 2.732377 1_564
N10 Sr10 2.550981 1_555
N10 Sr1 2.611502 1_555
N10 Sr12 2.649014 1_565
N10 Sr21 2.654572 1_565
N10 Sr19 2.715209 1_555
N10 Sr5 2.732377 1_565
N11 Sr11 2.550981 1_555
N11 Sr0 2.611502 1_655
N11 Sr13 2.649014 1_555
N11 Sr20 2.654572 1_556
N11 Sr18 2.715209 1_556
N11 Sr4 2.732377 1_556
N12 Sr12 2.550981 1_555
N12 Sr7 2.611502 1_655
N12 Sr10 2.649014 1_555
N12 Sr19 2.654572 1_555
N12 Sr21 2.715209 1_555
N12 Sr3 2.732377 1_555
N13 Sr13 2.550981 1_555
N13 Sr6 2.611502 1_555
N13 Sr11 2.649014 1_545
N13 Sr18 2.654572 1_546
N13 Sr20 2.715209 1_556
N13 Sr2 2.732377 1_546
N14 Sr14 2.550981 1_555
N14 Sr5 2.611502 1_555
N14 Sr8 2.649014 1_545
N14 Sr17 2.654572 1_545
N14 Sr23 2.715209 1_555
N14 Sr1 2.732377 1_545
N15 Sr15 2.550981 1_555
N15 Sr4 2.611502 1_455
N15 Sr9 2.649014 1_555
N15 Sr16 2.654572 1_554
N15 Sr22 2.715209 1_554
N15 Sr0 2.732377 1_554
N16 Sr1 2.517222 1_555
N16 Sr14 2.696942 1_555
N16 Sr27 2.817563 1_555
N16 Sr19 2.830899 1_555
N16 Sr5 3.012428 1_555
N17 Sr0 2.517222 1_554
N17 Sr15 2.696942 1_565
N17 Sr26 2.817563 1_555
N17 Sr18 2.830899 1_455
N17 Sr4 3.012428 1_465
N18 Sr3 2.517222 1_555
N18 Sr12 2.696942 1_565
N18 Sr26 2.817563 1_655
N18 Sr17 2.830899 1_655
N18 Sr7 3.012428 1_665
N19 Sr2 2.517222 1_556
N19 Sr13 2.696942 1_555
N19 Sr27 2.817563 1_555
N19 Sr16 2.830899 1_555
N19 Sr6 3.012428 1_555
N20 Sr5 2.517222 1_555
N20 Sr10 2.696942 1_555
N20 Sr25 2.817563 1_555
N20 Sr23 2.830899 1_555
N20 Sr1 3.012428 1_555
N21 Sr4 2.517222 1_556
N21 Sr11 2.696942 1_545
N21 Sr24 2.817563 1_655
N21 Sr22 2.830899 1_655
N21 Sr0 3.012428 1_645
N22 Sr7 2.517222 1_555
N22 Sr8 2.696942 1_545
N22 Sr24 2.817563 1_555
N22 Sr21 2.830899 1_455
N22 Sr3 3.012428 1_445
N23 Sr6 2.517222 1_554
N23 Sr9 2.696942 1_555
N23 Sr25 2.817563 1_555
N23 Sr20 2.830899 1_555
N23 Sr2 3.012428 1_555
