# generated using pymatgen
data_KVH4O7
_symmetry_space_group_name_H-M   'P 1'
_cell_length_a   6.44474605
_cell_length_b   7.73920433
_cell_length_c   7.63892958
_cell_angle_alpha   77.07403887
_cell_angle_beta   68.73175096
_cell_angle_gamma   84.21670653
_symmetry_Int_Tables_number   1
_chemical_formula_structural   KVH4O7
_chemical_formula_sum   'K2 V2 H8 O14'
_cell_volume   345.98088200
_cell_formula_units_Z   2
loop_
 _symmetry_equiv_pos_site_id
 _symmetry_equiv_pos_as_xyz
  1  'x, y, z'
loop_
 _atom_site_type_symbol
 _atom_site_label
 _atom_site_symmetry_multiplicity
 _atom_site_fract_x
 _atom_site_fract_y
 _atom_site_fract_z
 _atom_site_occupancy
  K  K0  1  0.01661000  0.04703200  0.01085700  1
  K  K1  1  0.16890100  0.35766300  0.43976900  1
  V  V0  1  0.50748300  0.36376500  0.92525100  1
  V  V1  1  0.68831000  0.05339600  0.58886700  1
  H  H0  1  0.57220500  0.72720900  0.65746100  1
  H  H1  1  0.46409500  0.82481800  0.49560800  1
  H  H2  1  0.67117300  0.51950000  0.08300200  1
  H  H3  1  0.51008000  0.68357000  0.03757300  1
  H  H4  1  0.37131400  0.88634900  0.28309700  1
  H  H5  1  0.14993000  0.86602300  0.48722000  1
  H  H6  1  0.23605200  0.55418000  0.73689800  1
  H  H7  1  0.15891300  0.57697200  0.94647700  1
  O  O0  1  0.52455000  0.88262200  0.93816800  1
  O  O1  1  0.56249500  0.96561800  0.06110500  1
  O  O2  1  0.78874400  0.46944500  0.72773600  1
  O  O3  1  0.81751900  0.35210600  0.90014900  1
  O  O4  1  0.52858200  0.26345500  0.68429200  1
  O  O5  1  0.38253600  0.13388600  0.67335300  1
  O  O6  1  0.91677100  0.07900900  0.67910800  1
  O  O7  1  0.92172100  0.90166200  0.64412600  1
  O  O8  1  0.28154800  0.25694400  0.09164000  1
  O  O9  1  0.78904900  0.13905000  0.35802900  1
  O  O10  1  0.59614900  0.82474900  0.54674400  1
  O  O11  1  0.51420500  0.54980100  0.09920600  1
  O  O12  1  0.29775000  0.81237800  0.41424300  1
  O  O13  1  0.29211500  0.57389900  0.83342000  1
loop_
_geom_bond_atom_site_label_1
_geom_bond_atom_site_label_2
_geom_bond_distance
_geom_bond_site_symmetry_2
K0 O3 2.686888 1_454
K0 O9 2.739350 1_455
K0 O8 2.776205 1_555
K0 O6 2.787067 1_454
K0 O5 2.791701 1_554
K0 O1 2.925425 1_445
K0 O0 3.286547 1_544
K1 O6 2.724110 1_455
K1 O8 2.760331 1_555
K1 O5 2.828078 1_555
K1 O2 2.846800 1_455
K1 O11 2.944092 1_555
H0 O10 0.975772 1_555
H1 O10 1.057295 1_555
H1 O12 1.440780 1_555
H2 O11 0.983881 1_555
H3 O11 1.039046 1_555
H3 O0 1.553286 1_554
H4 O12 1.004829 1_555
H4 O1 1.715007 1_555
H5 O12 1.014522 1_555
H5 O7 1.569418 1_455
H6 O13 0.975810 1_555
H7 O13 0.974982 1_555
O0 O1 1.349975 1_556
O0 V1 2.576970 1_565
O2 O3 1.483862 1_555
O2 V0 1.998428 1_555
O3 V0 1.931522 1_555
O4 O5 1.477560 1_555
O4 V1 1.970388 1_555
O4 V0 2.108473 1_555
O5 V1 1.922958 1_555
O6 O7 1.450976 1_545
O6 V1 1.881131 1_555
O7 V1 1.924293 1_565
O8 V0 1.687905 1_554
O9 V1 1.644261 1_555
O10 V1 2.047637 1_565
O11 V0 2.179651 1_554
O13 V0 2.191903 1_555
