# generated using pymatgen
data_CrFeCoNi
_symmetry_space_group_name_H-M   'P 1'
_cell_length_a   9.98964864
_cell_length_b   10.00915647
_cell_length_c   9.98709372
_cell_angle_alpha   60.03010497
_cell_angle_beta   59.96849581
_cell_angle_gamma   59.98299574
_symmetry_Int_Tables_number   1
_chemical_formula_structural   CrFeCoNi
_chemical_formula_sum   'Cr16 Fe16 Co16 Ni16'
_cell_volume   706.01045802
_cell_formula_units_Z   16
loop_
 _symmetry_equiv_pos_site_id
 _symmetry_equiv_pos_as_xyz
  1  'x, y, z'
loop_
 _atom_site_type_symbol
 _atom_site_label
 _atom_site_symmetry_multiplicity
 _atom_site_fract_x
 _atom_site_fract_y
 _atom_site_fract_z
 _atom_site_occupancy
  Cr  Cr0  1  0.99695600  0.00353400  0.25032000  1
  Cr  Cr1  1  0.99273600  0.00797000  0.74905400  1
  Cr  Cr2  1  0.99916200  0.25181300  0.99731700  1
  Cr  Cr3  1  0.99779400  0.50573800  0.74639600  1
  Cr  Cr4  1  0.99728600  0.74939600  0.00177900  1
  Cr  Cr5  1  0.99946200  0.75000700  0.50199200  1
  Cr  Cr6  1  0.25102800  0.00051800  0.49865100  1
  Cr  Cr7  1  0.50941500  0.99675600  0.74488000  1
  Cr  Cr8  1  0.49537300  0.25483600  0.75378000  1
  Cr  Cr9  1  0.49931400  0.50192700  0.00008600  1
  Cr  Cr10  1  0.75428500  0.99415900  0.75284800  1
  Cr  Cr11  1  0.75421400  0.24120600  0.99923500  1
  Cr  Cr12  1  0.75881800  0.23909500  0.49563100  1
  Cr  Cr13  1  0.75147800  0.50133200  0.49943100  1
  Cr  Cr14  1  0.75262300  0.50018000  0.74822800  1
  Cr  Cr15  1  0.74951400  0.74610500  0.75320500  1
  Fe  Fe0  1  0.99570100  0.25637300  0.49696900  1
  Fe  Fe1  1  0.99646400  0.25278700  0.75081600  1
  Fe  Fe2  1  0.00007500  0.49854700  0.00312000  1
  Fe  Fe3  1  0.00050800  0.50016200  0.49929200  1
  Fe  Fe4  1  0.25119100  0.00134700  0.00087200  1
  Fe  Fe5  1  0.24625600  0.25022300  0.24893400  1
  Fe  Fe6  1  0.24771800  0.49924800  0.25092200  1
  Fe  Fe7  1  0.25055800  0.75036600  0.99878300  1
  Fe  Fe8  1  0.50252100  0.99756500  0.24992300  1
  Fe  Fe9  1  0.50178800  0.25053800  0.00026500  1
  Fe  Fe10  1  0.49832500  0.50257100  0.24926600  1
  Fe  Fe11  1  0.49977100  0.50041900  0.50029900  1
  Fe  Fe12  1  0.49892700  0.49921400  0.75236600  1
  Fe  Fe13  1  0.75018400  0.24668900  0.25100700  1
  Fe  Fe14  1  0.75099900  0.24951400  0.74966800  1
  Fe  Fe15  1  0.75203600  0.49821300  0.25371900  1
  Co  Co0  1  0.99900800  0.00078500  0.49940000  1
  Co  Co1  1  0.00078600  0.24700200  0.25111700  1
  Co  Co2  1  0.99992200  0.50124000  0.24977100  1
  Co  Co3  1  0.99925000  0.75051900  0.25037200  1
  Co  Co4  1  0.99908600  0.75449200  0.74839800  1
  Co  Co5  1  0.24640200  0.00041900  0.25038800  1
  Co  Co6  1  0.25078400  0.24680600  0.99912700  1
  Co  Co7  1  0.25071900  0.24912700  0.49842100  1
  Co  Co8  1  0.25176800  0.49811400  0.49965200  1
  Co  Co9  1  0.24689200  0.75043500  0.25438900  1
  Co  Co10  1  0.50073400  0.00249700  0.49872000  1
  Co  Co11  1  0.49903800  0.75281400  0.99826200  1
  Co  Co12  1  0.75143300  0.99873000  0.99947700  1
  Co  Co13  1  0.75155800  0.00133100  0.25015900  1
  Co  Co14  1  0.75089500  0.00113400  0.49950200  1
  Co  Co15  1  0.75278100  0.74990000  0.24922900  1
  Ni  Ni0  1  0.99968200  0.00021900  0.00132900  1
  Ni  Ni1  1  0.24986900  0.00123000  0.75013300  1
  Ni  Ni2  1  0.25003400  0.24885900  0.74914900  1
  Ni  Ni3  1  0.24893400  0.49884300  0.00080100  1
  Ni  Ni4  1  0.24791600  0.49947100  0.75067000  1
  Ni  Ni5  1  0.24934500  0.74932500  0.49975900  1
  Ni  Ni6  1  0.24915600  0.74961500  0.75055000  1
  Ni  Ni7  1  0.50027700  0.00151900  0.99959700  1
  Ni  Ni8  1  0.49980600  0.24930900  0.25194000  1
  Ni  Ni9  1  0.50094500  0.24874100  0.49981600  1
  Ni  Ni10  1  0.49957600  0.75062200  0.24922300  1
  Ni  Ni11  1  0.50085300  0.74898900  0.50108000  1
  Ni  Ni12  1  0.49815800  0.75233300  0.74890400  1
  Ni  Ni13  1  0.75016500  0.49829500  0.00239400  1
  Ni  Ni14  1  0.75033800  0.74847900  0.00023400  1
  Ni  Ni15  1  0.75141000  0.75045800  0.49898900  1
loop_
_geom_bond_atom_site_label_1
_geom_bond_atom_site_label_2
_geom_bond_distance
_geom_bond_site_symmetry_2
Cr0 Fe13 2.448952 1_555
Cr0 Ni0 2.489829 1_555
Cr0 Cr2 2.507223 1_554
Cr0 Fe4 2.514511 1_655
Cr0 Cr5 2.526777 1_545
Cr1 Fe14 2.415645 1_555
Cr1 Cr10 2.434860 1_545
Cr1 Fe1 2.478156 1_555
Cr1 Fe0 2.503219 1_555
Cr1 Ni0 2.516545 1_556
Cr1 Cr6 2.540120 1_655
Cr1 Ni1 2.540931 1_655
Cr1 Cr4 2.557657 1_546
Cr1 Ni6 2.573142 1_645
Cr2 Fe1 2.470545 1_555
Cr2 Ni13 2.476924 1_556
Cr2 Ni2 2.491219 1_655
Cr2 Ni0 2.495896 1_556
Cr2 Fe2 2.503682 1_656
Cr2 Fe13 2.509627 1_556
Cr2 Fe4 2.512049 1_656
Cr2 Cr3 2.525053 1_555
Cr3 Cr5 2.444087 1_555
Cr3 Fe3 2.482591 1_655
Cr3 Ni4 2.489213 1_655
Cr3 Ni13 2.514958 1_556
Cr3 Fe1 2.516680 1_555
Cr3 Fe2 2.540056 1_656
Cr3 Ni2 2.545097 1_655
Cr4 Ni14 2.479301 1_555
Cr4 Fe2 2.490340 1_655
Cr4 Ni3 2.510208 1_655
Cr4 Ni6 2.511387 1_654
Cr4 Fe7 2.520099 1_654
Cr4 Ni0 2.520333 1_565
Cr5 Ni5 2.481765 1_655
Cr5 Ni15 2.490829 1_555
Cr5 Fe3 2.509078 1_655
Cr6 Fe8 2.497115 1_545
Cr6 Fe5 2.498196 1_555
Cr6 Ni11 2.506090 1_545
Cr6 Ni1 2.509359 1_555
Cr6 Ni6 2.514729 1_545
Cr6 Ni5 2.517155 1_545
Cr6 Fe0 2.555156 1_455
Cr7 Ni12 2.484345 1_555
Cr7 Ni9 2.486975 1_565
Cr7 Ni7 2.523156 1_565
Cr7 Ni1 2.545046 1_565
Cr7 Ni2 2.556999 1_565
Cr7 Cr8 2.560212 1_565
Cr7 Fe4 2.567119 1_566
Cr8 Fe12 2.456896 1_555
Cr8 Ni4 2.460123 1_555
Cr8 Fe9 2.472875 1_556
Cr8 Fe11 2.496484 1_555
Cr8 Ni7 2.497053 1_555
Cr8 Ni2 2.505056 1_555
Cr8 Fe14 2.507307 1_555
Cr8 Ni9 2.539652 1_555
Cr9 Fe7 2.485228 1_554
Cr9 Fe10 2.486874 1_555
Cr9 Fe12 2.489627 1_554
Cr9 Ni13 2.499458 1_555
Cr9 Fe9 2.503032 1_555
Cr9 Fe6 2.508261 1_555
Cr9 Ni12 2.508641 1_554
Cr9 Ni3 2.513204 1_555
Cr9 Ni8 2.523058 1_555
Cr10 Ni14 2.466214 1_556
Cr10 Cr7 2.473842 1_555
Cr10 Ni7 2.500445 1_565
Cr10 Cr15 2.505198 1_555
Cr10 Cr12 2.512761 1_565
Cr10 Fe14 2.524015 1_565
Cr10 Cr8 2.597254 1_565
Cr11 Ni0 2.432012 1_556
Cr11 Fe1 2.451273 1_555
Cr11 Fe14 2.467920 1_555
Cr11 Fe9 2.471209 1_556
Cr11 Cr2 2.492016 1_555
Cr11 Fe13 2.522207 1_556
Cr11 Ni8 2.532416 1_556
Cr11 Cr14 2.551487 1_555
Cr11 Ni13 2.569030 1_556
Cr11 Cr9 2.578009 1_556
Cr12 Fe13 2.449633 1_555
Cr12 Fe0 2.464394 1_555
Cr12 Ni9 2.508899 1_555
Cr12 Fe15 2.509158 1_555
Cr12 Fe14 2.551792 1_555
Cr12 Fe11 2.601778 1_555
Cr12 Cr8 2.607146 1_555
Cr12 Cr13 2.607761 1_555
Cr13 Fe0 2.445323 1_555
Cr13 Fe15 2.466889 1_555
Cr13 Fe3 2.481192 1_655
Cr13 Cr14 2.484750 1_555
Cr13 Ni11 2.490656 1_555
Cr13 Ni15 2.490999 1_555
Cr13 Fe14 2.511047 1_555
Cr13 Fe11 2.514713 1_555
Cr13 Fe12 2.523381 1_555
Cr14 Fe1 2.455605 1_555
Cr14 Cr3 2.468263 1_555
Cr14 Cr15 2.471160 1_555
Cr14 Fe3 2.480049 1_655
Cr14 Ni15 2.498290 1_555
Cr14 Fe14 2.509934 1_555
Cr14 Ni13 2.516855 1_556
Cr14 Fe12 2.518716 1_555
Cr14 Cr9 2.521727 1_556
Cr14 Ni12 2.532304 1_555
Cr15 Cr3 2.443120 1_555
Cr15 Cr7 2.454501 1_555
Cr15 Ni14 2.483207 1_556
Cr15 Ni13 2.485683 1_556
Cr15 Ni12 2.501863 1_555
Cr15 Cr5 2.501959 1_555
Cr15 Ni15 2.508055 1_555
Fe0 Fe3 2.476278 1_655
Fe0 Fe14 2.483776 1_555
Fe0 Fe5 2.489365 1_655
Fe0 Fe1 2.521252 1_555
Fe1 Fe14 2.474456 1_555
Fe1 Fe3 2.495360 1_655
Fe1 Ni2 2.505413 1_655
Fe1 Ni0 2.516236 1_556
Fe1 Ni1 2.524013 1_655
Fe2 Ni3 2.475981 1_555
Fe2 Ni4 2.497603 1_554
Fe2 Ni14 2.497715 1_455
Fe2 Ni13 2.501414 1_455
Fe3 Fe6 2.473888 1_555
Fe3 Ni15 2.496222 1_455
Fe4 Ni7 2.482793 1_554
Fe4 Ni2 2.497134 1_554
Fe4 Ni1 2.511376 1_554
Fe4 Ni0 2.515867 1_455
Fe4 Fe7 2.525777 1_544
Fe5 Ni3 2.484642 1_555
Fe5 Fe6 2.509874 1_555
Fe5 Fe9 2.517640 1_555
Fe5 Ni8 2.543442 1_555
Fe5 Fe8 2.544023 1_545
Fe6 Ni3 2.493947 1_555
Fe6 Ni8 2.509434 1_555
Fe6 Fe7 2.517083 1_554
Fe7 Ni12 2.483396 1_555
Fe7 Ni6 2.489939 1_555
Fe7 Ni1 2.498338 1_565
Fe7 Ni0 2.502930 1_466
Fe7 Ni3 2.515648 1_556
Fe8 Ni10 2.490059 1_555
Fe8 Ni7 2.491701 1_564
Fe8 Ni11 2.499365 1_555
Fe8 Fe9 2.514024 1_565
Fe8 Ni8 2.516356 1_565
Fe9 Ni8 2.497554 1_555
Fe9 Ni7 2.503405 1_554
Fe9 Ni3 2.505183 1_555
Fe10 Ni10 2.488841 1_555
Fe10 Ni13 2.489763 1_555
Fe10 Fe11 2.503629 1_555
Fe10 Fe6 2.511989 1_555
Fe10 Ni8 2.514376 1_555
Fe10 Ni9 2.522754 1_555
Fe10 Fe15 2.535303 1_555
Fe10 Fe13 2.538143 1_555
Fe11 Fe15 2.490466 1_555
Fe11 Ni5 2.495900 1_555
Fe11 Ni11 2.497315 1_555
Fe11 Ni10 2.507064 1_555
Fe11 Ni4 2.507106 1_555
Fe11 Fe12 2.507215 1_555
Fe11 Ni9 2.515646 1_555
Fe12 Fe9 2.483664 1_556
Fe12 Ni3 2.488115 1_556
Fe12 Ni6 2.500132 1_555
Fe12 Ni11 2.506013 1_555
Fe12 Fe14 2.508125 1_555
Fe12 Ni12 2.512607 1_555
Fe12 Ni4 2.514741 1_555
Fe13 Ni8 2.483548 1_555
Fe13 Ni9 2.486213 1_555
Fe13 Ni13 2.501967 1_555
Fe13 Fe15 2.540537 1_555
Fe14 Fe9 2.495011 1_556
Fe15 Fe2 2.489185 1_655
Fe15 Ni13 2.519001 1_555
Fe15 Ni14 2.519667 1_555
Fe15 Ni10 2.523950 1_555
Co0 Cr12 2.392207 1_555
Co0 Co1 2.473190 1_655
Co0 Co14 2.476307 1_555
Co0 Co4 2.477177 1_545
Co0 Co5 2.478010 1_655
Co0 Cr0 2.484220 1_555
Co0 Cr10 2.487675 1_545
Co0 Cr5 2.494992 1_545
Co0 Cr1 2.498800 1_555
Co0 Ni5 2.508229 1_645
Co0 Cr6 2.512522 1_655
Co0 Fe0 2.529894 1_555
Co1 Cr12 2.429459 1_455
Co1 Fe5 2.457536 1_555
Co1 Co5 2.460277 1_555
Co1 Cr0 2.460289 1_455
Co1 Fe0 2.478021 1_455
Co1 Fe2 2.498603 1_555
Co1 Fe15 2.499420 1_455
Co1 Fe13 2.505545 1_455
Co1 Co6 2.505888 1_554
Co1 Cr2 2.519096 1_454
Co1 Co2 2.533724 1_455
Co2 Fe0 2.461218 1_555
Co2 Fe6 2.471231 1_655
Co2 Fe15 2.471972 1_555
Co2 Fe2 2.476133 1_655
Co2 Cr4 2.481520 1_555
Co2 Ni3 2.485924 1_655
Co2 Cr13 2.486460 1_555
Co2 Fe5 2.486486 1_655
Co2 Fe3 2.489546 1_655
Co2 Co3 2.494721 1_555
Co3 Ni15 2.478224 1_555
Co3 Co9 2.493753 1_655
Co3 Ni0 2.494421 1_565
Co3 Fe3 2.497104 1_655
Co3 Fe6 2.498055 1_655
Co3 Cr4 2.498255 1_555
Co3 Fe7 2.510365 1_654
Co3 Cr5 2.511456 1_555
Co3 Cr0 2.520823 1_565
Co4 Cr10 2.421823 1_555
Co4 Cr5 2.481715 1_555
Co4 Ni6 2.484772 1_655
Co4 Ni5 2.490772 1_655
Co4 Cr4 2.496592 1_556
Co4 Ni14 2.499358 1_556
Co4 Cr3 2.506373 1_555
Co4 Cr1 2.509206 1_565
Co4 Cr15 2.512101 1_555
Co4 Ni4 2.518974 1_655
Co4 Fe2 2.554058 1_656
Co5 Fe4 2.463763 1_555
Co5 Cr0 2.476766 1_455
Co5 Co9 2.479984 1_545
Co5 Co6 2.489155 1_554
Co5 Fe5 2.492378 1_555
Co5 Ni5 2.503127 1_545
Co5 Cr6 2.503373 1_555
Co5 Ni10 2.514116 1_545
Co5 Ni7 2.519445 1_554
Co5 Fe8 2.542061 1_545
Co6 Fe4 2.446154 1_556
Co6 Cr8 2.446937 1_555
Co6 Ni7 2.473350 1_555
Co6 Fe5 2.489622 1_556
Co6 Ni2 2.490095 1_555
Co6 Cr2 2.497927 1_455
Co6 Ni4 2.506540 1_555
Co6 Fe2 2.511894 1_556
Co6 Ni3 2.521846 1_556
Co6 Fe9 2.532084 1_556
Co7 Ni8 2.473901 1_555
Co7 Cr6 2.485678 1_555
Co7 Fe6 2.488927 1_555
Co7 Ni1 2.498809 1_555
Co7 Ni2 2.499289 1_555
Co7 Co8 2.503586 1_555
Co7 Ni9 2.504736 1_555
Co7 Fe3 2.505496 1_555
Co7 Fe5 2.508749 1_555
Co7 Fe0 2.519226 1_455
Co7 Fe1 2.529255 1_455
Co8 Fe10 2.480950 1_555
Co8 Co9 2.489238 1_555
Co8 Ni9 2.491968 1_555
Co8 Fe11 2.492339 1_555
Co8 Ni2 2.494494 1_555
Co8 Ni4 2.494665 1_555
Co8 Fe6 2.498887 1_555
Co8 Cr3 2.500287 1_455
Co8 Fe3 2.501601 1_555
Co8 Ni5 2.502921 1_555
Co8 Cr5 2.520285 1_455
Co9 Ni5 2.457330 1_555
Co9 Cr5 2.471115 1_455
Co9 Fe10 2.495980 1_555
Co9 Ni10 2.499729 1_555
Co9 Cr0 2.514664 1_465
Co9 Fe4 2.523049 1_565
Co9 Fe6 2.527499 1_555
Co9 Fe7 2.534973 1_554
Co10 Ni8 2.468634 1_555
Co10 Ni9 2.471238 1_555
Co10 Cr7 2.474255 1_545
Co10 Co7 2.482571 1_555
Co10 Co13 2.492881 1_555
Co10 Co14 2.496131 1_555
Co10 Fe8 2.500810 1_545
Co10 Ni12 2.502567 1_545
Co10 Cr6 2.504789 1_555
Co10 Ni1 2.507307 1_555
Co10 Ni15 2.512831 1_545
Co10 Ni11 2.525118 1_545
Co11 Cr15 2.474184 1_555
Co11 Fe4 2.481312 1_566
Co11 Cr7 2.488707 1_555
Co11 Fe7 2.491963 1_555
Co11 Ni12 2.497186 1_555
Co11 Ni10 2.498166 1_556
Co11 Ni14 2.498805 1_556
Co11 Cr9 2.500744 1_556
Co11 Ni7 2.502245 1_565
Co11 Fe10 2.506907 1_556
Co11 Ni13 2.527728 1_556
Co11 Co9 2.537370 1_556
Co12 Cr11 2.439783 1_565
Co12 Cr1 2.455950 1_565
Co12 Cr10 2.472012 1_555
Co12 Cr4 2.475350 1_556
Co12 Fe8 2.492732 1_556
Co12 Co15 2.493623 1_556
Co12 Ni7 2.494516 1_565
Co12 Ni0 2.496745 1_566
Co12 Fe14 2.503666 1_565
Co12 Ni14 2.506515 1_556
Co12 Fe9 2.506633 1_566
Co12 Co13 2.517319 1_566
Co13 Fe13 2.453219 1_555
Co13 Cr11 2.455845 1_554
Co13 Cr0 2.463353 1_555
Co13 Ni0 2.480736 1_555
Co13 Co14 2.485921 1_555
Co13 Co3 2.491929 1_545
Co13 Ni8 2.497932 1_555
Co13 Ni15 2.499303 1_545
Co13 Fe8 2.508051 1_545
Co13 Co15 2.515164 1_545
Co14 Cr12 2.402963 1_555
Co14 Cr7 2.430606 1_545
Co14 Fe13 2.471028 1_555
Co14 Cr0 2.472283 1_555
Co14 Ni9 2.487025 1_555
Co14 Cr5 2.497826 1_545
Co14 Ni15 2.509046 1_545
Co14 Cr10 2.512927 1_545
Co14 Cr15 2.544486 1_545
Co15 Cr4 2.455900 1_555
Co15 Co3 2.470984 1_555
Co15 Co2 2.478277 1_555
Co15 Fe8 2.488865 1_555
Co15 Ni15 2.490337 1_555
Co15 Cr13 2.494528 1_555
Co15 Fe15 2.500774 1_555
Co15 Ni14 2.506209 1_555
Co15 Ni11 2.514794 1_555
Co15 Ni10 2.525852 1_555
Ni0 Ni1 2.502829 1_654
Ni1 Ni2 2.474486 1_555
Ni1 Ni12 2.485209 1_545
Ni1 Ni6 2.519944 1_545
Ni2 Ni9 2.497159 1_555
Ni2 Ni4 2.505488 1_555
Ni3 Ni4 2.500046 1_554
Ni3 Ni6 2.505810 1_554
Ni4 Ni5 2.504516 1_555
Ni4 Ni6 2.509350 1_555
Ni5 Ni6 2.505180 1_555
Ni8 Ni9 2.478433 1_555
Ni10 Ni14 2.494710 1_555
Ni10 Ni5 2.499770 1_555
Ni10 Ni7 2.503375 1_564
Ni10 Ni11 2.513582 1_555
Ni11 Ni12 2.478476 1_555
Ni11 Ni15 2.499948 1_555
Ni11 Ni6 2.501784 1_555
Ni11 Ni5 2.517420 1_555
Ni12 Ni6 2.492932 1_555
Ni12 Ni15 2.511817 1_555
Ni13 Ni14 2.494286 1_555
Ni14 Ni7 2.514872 1_564
