# generated using pymatgen
data_MgFe8(O7F)2
_symmetry_space_group_name_H-M   'P 1'
_cell_length_a   5.17318023
_cell_length_b   5.17482882
_cell_length_c   11.60459846
_cell_angle_alpha   90.64518617
_cell_angle_beta   89.40149404
_cell_angle_gamma   102.09013924
_symmetry_Int_Tables_number   1
_chemical_formula_structural   MgFe8(O7F)2
_chemical_formula_sum   'Mg1 Fe8 O14 F2'
_cell_volume   303.73855830
_cell_formula_units_Z   1
loop_
 _symmetry_equiv_pos_site_id
 _symmetry_equiv_pos_as_xyz
  1  'x, y, z'
loop_
 _atom_site_type_symbol
 _atom_site_label
 _atom_site_symmetry_multiplicity
 _atom_site_fract_x
 _atom_site_fract_y
 _atom_site_fract_z
 _atom_site_occupancy
  Mg  Mg0  1  0.69909400  0.29422800  0.25612500  1
  Fe  Fe0  1  0.00579200  0.98972200  0.99750400  1
  Fe  Fe1  1  0.03085400  0.96383300  0.25135400  1
  Fe  Fe2  1  0.02907100  0.02153600  0.50318600  1
  Fe  Fe3  1  0.00307900  0.98395600  0.74850600  1
  Fe  Fe4  1  0.41936700  0.57907400  0.11863100  1
  Fe  Fe5  1  0.58088300  0.39375400  0.63281300  1
  Fe  Fe6  1  0.42560300  0.56989900  0.86841300  1
  Fe  Fe7  1  0.40854400  0.57606800  0.38499400  1
  O  O0  1  0.18121100  0.81328100  0.12757700  1
  O  O1  1  0.16568400  0.85615200  0.61380800  1
  O  O2  1  0.17330500  0.81952900  0.87257900  1
  O  O3  1  0.18484500  0.81657900  0.37548300  1
  O  O4  1  0.27507000  0.34082400  0.99340500  1
  O  O5  1  0.32162300  0.31104100  0.24962100  1
  O  O6  1  0.34175700  0.31049700  0.50058200  1
  O  O7  1  0.30993600  0.30473100  0.75302400  1
  O  O8  1  0.65649400  0.71883100  0.99321400  1
  O  O9  1  0.68453000  0.67324400  0.25411000  1
  O  O10  1  0.68688000  0.67759400  0.74876500  1
  O  O11  1  0.86487100  0.12511000  0.13853800  1
  O  O12  1  0.87344300  0.13832600  0.37292200  1
  O  O13  1  0.83303100  0.16996100  0.62212000  1
  F  F0  1  0.70709800  0.68628200  0.50043500  1
  F  F1  1  0.83237700  0.15762100  0.87229000  1
loop_
_geom_bond_atom_site_label_1
_geom_bond_atom_site_label_2
_geom_bond_distance
_geom_bond_site_symmetry_2
Mg0 O11 1.904316 1_555
Mg0 O12 1.912173 1_555
Mg0 O5 1.975044 1_555
Mg0 O9 1.978904 1_555
Fe0 O11 1.965735 1_466
Fe0 O2 1.973061 1_555
Fe0 O8 2.042536 1_455
Fe0 O4 2.045535 1_565
Fe0 O0 2.083828 1_556
Fe1 O0 1.865604 1_555
Fe1 O11 1.869778 1_465
Fe1 O3 1.895574 1_555
Fe1 O12 1.929769 1_465
Fe1 O9 2.084088 1_455
Fe1 O5 2.087904 1_565
Fe2 O1 1.782392 1_545
Fe2 O12 1.883714 1_455
Fe2 O13 1.948467 1_455
Fe2 O6 1.959651 1_555
Fe2 O3 2.065947 1_545
Fe3 O1 1.941809 1_555
Fe3 O2 1.985071 1_555
Fe3 O10 2.025532 1_455
Fe3 O7 2.043056 1_565
Fe3 O13 2.065158 1_465
Fe4 O0 1.901986 1_555
Fe4 O8 1.939288 1_554
Fe4 O4 1.945724 1_554
Fe4 O5 2.056164 1_555
Fe4 O9 2.082946 1_555
Fe5 O13 1.919435 1_555
Fe5 O7 1.956024 1_555
Fe5 O6 1.967754 1_555
Fe5 O10 1.975401 1_555
Fe6 O7 1.914528 1_555
Fe6 O10 1.930807 1_555
Fe6 O8 1.934817 1_555
Fe6 O4 1.934937 1_555
Fe6 O2 2.019436 1_555
Fe7 O3 1.873370 1_555
Fe7 O6 1.907927 1_555
Fe7 O5 2.063712 1_555
Fe7 O9 2.066240 1_555
F0 Fe7 2.040186 1_555
F0 Fe2 2.138813 1_665
F0 Fe5 2.166824 1_555
F1 Fe3 1.981855 1_645
F1 Fe0 2.013270 1_645
