# generated using pymatgen
data_BH6N
_symmetry_space_group_name_H-M   'P 1'
_cell_length_a   4.92307937
_cell_length_b   4.92307937
_cell_length_c   5.74186511
_cell_angle_alpha   90.00000000
_cell_angle_beta   90.00000000
_cell_angle_gamma   103.32812533
_symmetry_Int_Tables_number   1
_chemical_formula_structural   BH6N
_chemical_formula_sum   'B2 H12 N2'
_cell_volume   135.41565753
_cell_formula_units_Z   2
loop_
 _symmetry_equiv_pos_site_id
 _symmetry_equiv_pos_as_xyz
  1  'x, y, z'
loop_
 _atom_site_type_symbol
 _atom_site_label
 _atom_site_symmetry_multiplicity
 _atom_site_fract_x
 _atom_site_fract_y
 _atom_site_fract_z
 _atom_site_occupancy
  B  B0  1  0.15513214  0.84486786  0.68375436  1
  B  B1  1  0.84486786  0.15513214  0.18375436  1
  H  H0  1  0.44829952  0.82241557  0.96976189  1
  H  H1  1  0.17758443  0.55170048  0.96976189  1
  H  H2  1  0.55170048  0.17758443  0.46976189  1
  H  H3  1  0.82241557  0.44829952  0.46976189  1
  H  H4  1  0.14248302  0.85751698  0.05917440  1
  H  H5  1  0.85751698  0.14248302  0.55917440  1
  H  H6  1  0.26939244  0.73060756  0.53783514  1
  H  H7  1  0.73060756  0.26939244  0.03783514  1
  H  H8  1  0.22814517  0.09869517  0.66938570  1
  H  H9  1  0.90130483  0.77185483  0.66938570  1
  H  H10  1  0.77185483  0.90130483  0.16938570  1
  H  H11  1  0.09869517  0.22814517  0.16938570  1
  N  N0  1  0.23903223  0.76096777  0.93694093  1
  N  N1  1  0.76096777  0.23903223  0.43694093  1
loop_
_geom_bond_atom_site_label_1
_geom_bond_atom_site_label_2
_geom_bond_distance
_geom_bond_site_symmetry_2
B0 H6 1.216848 1_555
B0 H9 1.220839 1_455
B0 H8 1.220839 1_565
B0 N0 1.591635 1_555
B1 H7 1.216848 1_555
B1 H10 1.220839 1_545
B1 H11 1.220839 1_655
B1 N1 1.591635 1_555
H0 N0 1.022120 1_555
H1 N0 1.022120 1_555
H2 N1 1.022120 1_555
H3 N1 1.022120 1_555
H4 N0 1.024018 1_554
H5 N1 1.024018 1_555
