# generated using pymatgen
data_Te4Mo3W(SeS)2
_symmetry_space_group_name_H-M   'P 1'
_cell_length_a   3.40200993
_cell_length_b   3.40200993
_cell_length_c   38.71509300
_cell_angle_alpha   90.00000000
_cell_angle_beta   90.00000000
_cell_angle_gamma   119.99999859
_symmetry_Int_Tables_number   1
_chemical_formula_structural   Te4Mo3W(SeS)2
_chemical_formula_sum   'Te4 Mo3 W1 Se2 S2'
_cell_volume   388.04500537
_cell_formula_units_Z   1
loop_
 _symmetry_equiv_pos_site_id
 _symmetry_equiv_pos_as_xyz
  1  'x, y, z'
loop_
 _atom_site_type_symbol
 _atom_site_label
 _atom_site_symmetry_multiplicity
 _atom_site_fract_x
 _atom_site_fract_y
 _atom_site_fract_z
 _atom_site_occupancy
  Te  Te0  1  0.33333300  0.66666700  0.33011500  1
  Te  Te1  1  0.33333300  0.66666700  0.70620100  1
  Te  Te2  1  0.33333300  0.66666700  0.23343600  1
  Te  Te3  1  0.33333300  0.66666700  0.60886500  1
  Mo  Mo0  1  0.33333300  0.66666700  0.09394600  1
  Mo  Mo1  1  0.33333300  0.66666700  0.46965900  1
  Mo  Mo2  1  0.66666700  0.33333300  0.28179700  1
  W  W0  1  0.66666700  0.33333300  0.65753500  1
  Se  Se0  1  0.66666700  0.33333300  0.42711800  1
  Se  Se1  1  0.66666700  0.33333300  0.51220300  1
  S  S0  1  0.66666700  0.33333300  0.05508500  1
  S  S1  1  0.66666700  0.33333300  0.13278700  1
loop_
_geom_bond_atom_site_label_1
_geom_bond_atom_site_label_2
_geom_bond_distance
_geom_bond_site_symmetry_2
Te1 W0 2.721718 1_455
Te1 W0 2.721718 1_565
Te1 W0 2.721722 1_555
Te3 W0 2.721825 1_455
Te3 W0 2.721825 1_565
Te3 W0 2.721829 1_555
Mo0 S1 2.473681 1_455
Mo0 S1 2.473681 1_565
Mo0 S1 2.473685 1_555
Mo0 S0 2.474151 1_565
Mo0 S0 2.474151 1_455
Mo0 S0 2.474156 1_555
Mo1 Se0 2.563283 1_565
Mo1 Se0 2.563283 1_455
Mo1 Se0 2.563288 1_555
Mo1 Se1 2.563358 1_565
Mo1 Se1 2.563358 1_455
Mo1 Se1 2.563363 1_555
Mo2 Te0 2.712409 1_545
Mo2 Te0 2.712409 1_655
Mo2 Te0 2.712413 1_555
Mo2 Te2 2.713557 1_545
Mo2 Te2 2.713557 1_655
Mo2 Te2 2.713561 1_555
