# generated using pymatgen
data_Dy2ZnCuSi2
_symmetry_space_group_name_H-M   'P 1'
_cell_length_a   4.01482200
_cell_length_b   4.07458701
_cell_length_c   7.05699106
_cell_angle_alpha   90.07890010
_cell_angle_beta   90.00000000
_cell_angle_gamma   90.00000000
_symmetry_Int_Tables_number   1
_chemical_formula_structural   Dy2ZnCuSi2
_chemical_formula_sum   'Dy2 Zn1 Cu1 Si2'
_cell_volume   115.44338368
_cell_formula_units_Z   1
loop_
 _symmetry_equiv_pos_site_id
 _symmetry_equiv_pos_as_xyz
  1  'x, y, z'
loop_
 _atom_site_type_symbol
 _atom_site_label
 _atom_site_symmetry_multiplicity
 _atom_site_fract_x
 _atom_site_fract_y
 _atom_site_fract_z
 _atom_site_occupancy
  Dy  Dy0  1  0.00000000  0.99998800  0.00339300  1
  Dy  Dy1  1  0.00000000  0.49991100  0.49655000  1
  Zn  Zn0  1  0.50000000  0.50022600  0.83513800  1
  Cu  Cu0  1  0.50000000  0.00013900  0.33228900  1
  Si  Si0  1  0.50000000  0.49977300  0.17279500  1
  Si  Si1  1  0.50000000  0.99976300  0.65983500  1
loop_
_geom_bond_atom_site_label_1
_geom_bond_atom_site_label_2
_geom_bond_distance
_geom_bond_site_symmetry_2
Dy0 Zn0 3.095079 1_554
Dy0 Zn0 3.095079 1_454
Dy0 Si0 3.098247 1_465
Dy0 Si0 3.098247 1_565
Dy0 Zn0 3.098506 1_464
Dy0 Zn0 3.098506 1_564
Dy0 Si0 3.101562 1_555
Dy0 Si0 3.101562 1_455
Dy0 Si1 3.147670 1_554
Dy0 Si1 3.147670 1_454
Dy1 Si0 3.041334 1_455
Dy1 Si0 3.041334 1_555
Dy1 Si1 3.082068 1_455
Dy1 Si1 3.082068 1_555
Dy1 Si1 3.084961 1_445
Dy1 Si1 3.084961 1_545
Dy1 Zn0 3.120735 1_555
Dy1 Zn0 3.120735 1_455
Cu0 Si1 2.311492 1_545
Cu0 Si0 2.327484 1_545
Cu0 Si0 2.327587 1_555
Cu0 Dy0 3.068682 1_645
Cu0 Dy0 3.068682 1_545
Cu0 Dy1 3.084428 1_655
Cu0 Dy1 3.084428 1_555
Cu0 Dy1 3.087762 1_545
Cu0 Dy1 3.087762 1_645
Si0 Zn0 2.382846 1_554
Si1 Zn0 2.383330 1_555
Si1 Zn0 2.383643 1_565
