# generated using pymatgen
data_Cs2RbSiF7
_symmetry_space_group_name_H-M   'P 1'
_cell_length_a   8.33162577
_cell_length_b   8.33162577
_cell_length_c   6.13561500
_cell_angle_alpha   90.00000000
_cell_angle_beta   90.00000000
_cell_angle_gamma   90.58617241
_symmetry_Int_Tables_number   1
_chemical_formula_structural   Cs2RbSiF7
_chemical_formula_sum   'Cs4 Rb2 Si2 F14'
_cell_volume   425.88748774
_cell_formula_units_Z   2
loop_
 _symmetry_equiv_pos_site_id
 _symmetry_equiv_pos_as_xyz
  1  'x, y, z'
loop_
 _atom_site_type_symbol
 _atom_site_label
 _atom_site_symmetry_multiplicity
 _atom_site_fract_x
 _atom_site_fract_y
 _atom_site_fract_z
 _atom_site_occupancy
  Cs  Cs0  1  0.50000000  0.00000000  0.00000000  1
  Cs  Cs1  1  0.00000000  0.50000000  0.00000000  1
  Cs  Cs2  1  0.19462600  0.80537400  0.50000000  1
  Cs  Cs3  1  0.80537400  0.19462600  0.50000000  1
  Rb  Rb0  1  0.69514100  0.69514100  0.50000000  1
  Rb  Rb1  1  0.30485900  0.30485900  0.50000000  1
  Si  Si0  1  0.50000000  0.50000000  0.00000000  1
  Si  Si1  1  0.00000000  0.00000000  0.00000000  1
  F  F0  1  0.14536100  0.85463900  0.00000000  1
  F  F1  1  0.85463900  0.14536100  0.00000000  1
  F  F2  1  0.64675900  0.64675900  0.00000000  1
  F  F3  1  0.35324100  0.35324100  0.00000000  1
  F  F4  1  0.39777100  0.60222900  0.79937900  1
  F  F5  1  0.60222900  0.39777100  0.79937900  1
  F  F6  1  0.89586300  0.89586300  0.80024700  1
  F  F7  1  0.10413700  0.10413700  0.80024700  1
  F  F8  1  0.60222900  0.39777100  0.20062100  1
  F  F9  1  0.39777100  0.60222900  0.20062100  1
  F  F10  1  0.10413700  0.10413700  0.19975300  1
  F  F11  1  0.89586300  0.89586300  0.19975300  1
  F  F12  1  0.50000000  0.00000000  0.50000000  1
  F  F13  1  0.00000000  0.50000000  0.50000000  1
loop_
_geom_bond_atom_site_label_1
_geom_bond_atom_site_label_2
_geom_bond_distance
_geom_bond_site_symmetry_2
Cs0 F12 3.067807 1_555
Cs0 F12 3.067807 1_554
Cs0 F1 3.181807 1_555
Cs0 F0 3.181807 1_545
Cs0 F2 3.198499 1_545
Cs0 F3 3.198499 1_555
Cs1 F13 3.067807 1_555
Cs1 F13 3.067807 1_554
Cs1 F1 3.181807 1_455
Cs1 F0 3.181807 1_555
Cs1 F2 3.198499 1_455
Cs1 F3 3.198499 1_555
Cs2 F12 3.003045 1_565
Cs2 F13 3.003045 1_555
Cs2 F4 3.026883 1_555
Cs2 F9 3.026883 1_555
Cs2 F0 3.122794 1_556
Cs2 F0 3.122794 1_555
Cs2 F10 3.193199 1_565
Cs2 F7 3.193199 1_565
Cs2 F11 3.193199 1_455
Cs2 F6 3.193199 1_455
Cs3 F13 3.003045 1_655
Cs3 F12 3.003045 1_555
Cs3 F5 3.026883 1_555
Cs3 F8 3.026883 1_555
Cs3 F1 3.122794 1_555
Cs3 F1 3.122794 1_556
Cs3 F10 3.193199 1_655
Cs3 F7 3.193199 1_655
Cs3 F6 3.193199 1_545
Cs3 F11 3.193199 1_545
F0 Si1 1.721484 1_565
F1 Si1 1.721484 1_655
F2 Si0 1.720349 1_555
F2 Rb0 3.119791 1_555
F2 Rb0 3.119791 1_554
F3 Si0 1.720349 1_555
F3 Rb1 3.119791 1_555
F3 Rb1 3.119791 1_554
F4 Si0 1.726540 1_556
F4 Rb1 3.173718 1_555
F4 Rb0 3.173718 1_555
F5 Si0 1.726540 1_556
F5 Rb1 3.173718 1_555
F5 Rb0 3.173718 1_555
F6 Si1 1.729820 1_666
F6 Rb0 2.988298 1_555
F7 Si1 1.729820 1_556
F7 Rb1 2.988298 1_555
F8 Si0 1.726540 1_555
F8 Rb1 3.173718 1_555
F8 Rb0 3.173718 1_555
F9 Si0 1.726540 1_555
F9 Rb1 3.173718 1_555
F9 Rb0 3.173718 1_555
F10 Si1 1.729820 1_555
F10 Rb1 2.988298 1_555
F11 Si1 1.729820 1_665
F11 Rb0 2.988298 1_555
F12 Rb0 3.029738 1_545
F12 Rb1 3.029738 1_555
F13 Rb1 3.029738 1_555
F13 Rb0 3.029738 1_455
