# generated using pymatgen
data_Ca6Cr2HN6
_symmetry_space_group_name_H-M   'P 1'
_cell_length_a   6.03316306
_cell_length_b   6.03316306
_cell_length_c   6.03316349
_cell_angle_alpha   96.36645365
_cell_angle_beta   96.36645365
_cell_angle_gamma   96.36645808
_symmetry_Int_Tables_number   1
_chemical_formula_structural   Ca6Cr2HN6
_chemical_formula_sum   'Ca6 Cr2 H1 N6'
_cell_volume   215.20777509
_cell_formula_units_Z   1
loop_
 _symmetry_equiv_pos_site_id
 _symmetry_equiv_pos_as_xyz
  1  'x, y, z'
loop_
 _atom_site_type_symbol
 _atom_site_label
 _atom_site_symmetry_multiplicity
 _atom_site_fract_x
 _atom_site_fract_y
 _atom_site_fract_z
 _atom_site_occupancy
  Ca  Ca0  1  0.62570000  0.10902200  0.78658800  1
  Ca  Ca1  1  0.10902200  0.78658800  0.62570000  1
  Ca  Ca2  1  0.78658800  0.62570000  0.10902200  1
  Ca  Ca3  1  0.37430000  0.89097800  0.21341200  1
  Ca  Ca4  1  0.89097800  0.21341200  0.37430000  1
  Ca  Ca5  1  0.21341200  0.37430000  0.89097800  1
  Cr  Cr0  1  0.62160500  0.62160500  0.62160500  1
  Cr  Cr1  1  0.37839500  0.37839500  0.37839500  1
  H  H0  1  0.00000000  0.00000000  0.00000000  1
  N  N0  1  0.72541200  0.84652800  0.47145800  1
  N  N1  1  0.84652800  0.47145800  0.72541200  1
  N  N2  1  0.47145800  0.72541200  0.84652800  1
  N  N3  1  0.27458800  0.15347200  0.52854200  1
  N  N4  1  0.15347200  0.52854200  0.27458800  1
  N  N5  1  0.52854200  0.27458800  0.15347200  1
loop_
_geom_bond_atom_site_label_1
_geom_bond_atom_site_label_2
_geom_bond_distance
_geom_bond_site_symmetry_2
Ca0 N2 2.477035 1_545
Ca0 N5 2.483562 1_556
Ca0 N0 2.506347 1_545
Ca0 N1 2.516854 1_555
Ca0 N3 2.543640 1_555
Ca0 H0 2.657507 1_656
Ca1 N0 2.477035 1_455
Ca1 N3 2.483561 1_565
Ca1 N1 2.506347 1_455
Ca1 N2 2.516854 1_555
Ca1 N4 2.543640 1_555
Ca1 H0 2.657507 1_566
Ca2 N1 2.477036 1_554
Ca2 N4 2.483562 1_655
Ca2 N2 2.506347 1_554
Ca2 N0 2.516854 1_555
Ca2 N5 2.543640 1_555
Ca2 H0 2.657507 1_665
Ca3 N5 2.477035 1_565
Ca3 N2 2.483562 1_554
Ca3 N3 2.506347 1_565
Ca3 N4 2.516854 1_555
Ca3 N0 2.543640 1_555
Ca3 H0 2.657507 1_565
Ca4 N3 2.477035 1_655
Ca4 N0 2.483561 1_545
Ca4 N4 2.506347 1_655
Ca4 N5 2.516854 1_555
Ca4 N1 2.543640 1_555
Ca4 H0 2.657507 1_655
Ca5 N4 2.477036 1_556
Ca5 N1 2.483562 1_455
Ca5 N5 2.506347 1_556
Ca5 N3 2.516854 1_555
Ca5 N2 2.543640 1_555
Ca5 H0 2.657507 1_556
Cr0 N0 1.806714 1_555
Cr0 N1 1.806714 1_555
Cr0 N2 1.806714 1_555
Cr1 N3 1.806714 1_555
Cr1 N4 1.806714 1_555
Cr1 N5 1.806714 1_555
