# generated using pymatgen
data_Ca(SnO2)2
_symmetry_space_group_name_H-M   'P 1'
_cell_length_a   6.90739232
_cell_length_b   6.90739232
_cell_length_c   16.91513194
_cell_angle_alpha   89.50690369
_cell_angle_beta   89.50690369
_cell_angle_gamma   56.98103381
_symmetry_Int_Tables_number   1
_chemical_formula_structural   Ca(SnO2)2
_chemical_formula_sum   'Ca6 Sn12 O24'
_cell_volume   676.67607784
_cell_formula_units_Z   6
loop_
 _symmetry_equiv_pos_site_id
 _symmetry_equiv_pos_as_xyz
  1  'x, y, z'
loop_
 _atom_site_type_symbol
 _atom_site_label
 _atom_site_symmetry_multiplicity
 _atom_site_fract_x
 _atom_site_fract_y
 _atom_site_fract_z
 _atom_site_occupancy
  Ca  Ca0  1  0.16919000  0.16919000  0.95596900  1
  Ca  Ca1  1  0.48605700  0.48605700  0.61614900  1
  Ca  Ca2  1  0.48597200  0.48597200  0.00359800  1
  Ca  Ca3  1  0.83406800  0.83406800  0.30055900  1
  Ca  Ca4  1  0.17647600  0.17647600  0.70960100  1
  Ca  Ca5  1  0.50417100  0.50417100  0.37077800  1
  Sn  Sn0  1  0.17215300  0.66686200  0.83222700  1
  Sn  Sn1  1  0.65907800  0.65907800  0.83972600  1
  Sn  Sn2  1  0.49314700  0.99592900  0.49764800  1
  Sn  Sn3  1  0.66686200  0.17215300  0.83222700  1
  Sn  Sn4  1  0.82983300  0.82983300  0.67574400  1
  Sn  Sn5  1  0.98306900  0.98306900  0.49673400  1
  Sn  Sn6  1  0.83035300  0.31295500  0.16863600  1
  Sn  Sn7  1  0.99592900  0.49314700  0.49764800  1
  Sn  Sn8  1  0.31295500  0.83035300  0.16863600  1
  Sn  Sn9  1  0.17397600  0.17397600  0.33456300  1
  Sn  Sn10  1  0.32685800  0.32685800  0.17106700  1
  Sn  Sn11  1  0.81598400  0.81598400  0.05027700  1
  O  O0  1  0.35051800  0.35051800  0.89999100  1
  O  O1  1  0.48830100  0.48830100  0.76142300  1
  O  O2  1  0.31682600  0.79712600  0.90679000  1
  O  O3  1  0.79712600  0.31682600  0.90679000  1
  O  O4  1  0.53030800  0.03662800  0.75698200  1
  O  O5  1  0.66287500  0.66287500  0.55678900  1
  O  O6  1  0.03662800  0.53030800  0.75698200  1
  O  O7  1  0.85157800  0.85157800  0.88983600  1
  O  O8  1  0.64370600  0.14604300  0.55631500  1
  O  O9  1  0.82445300  0.82445300  0.43640300  1
  O  O10  1  0.98654300  0.98654300  0.75506700  1
  O  O11  1  0.14604300  0.64370600  0.55631500  1
  O  O12  1  0.87803400  0.38010000  0.40856300  1
  O  O13  1  0.01493000  0.01493000  0.29817600  1
  O  O14  1  0.38010000  0.87803400  0.40856300  1
  O  O15  1  0.19393400  0.19393400  0.57165800  1
  O  O16  1  0.21135900  0.21135900  0.08254900  1
  O  O17  1  0.05471100  0.46321800  0.25657000  1
  O  O18  1  0.31023100  0.31023100  0.42157800  1
  O  O19  1  0.46321800  0.05471100  0.25657000  1
  O  O20  1  0.17636100  0.64320000  0.10299100  1
  O  O21  1  0.48269500  0.48269500  0.23579000  1
  O  O22  1  0.64320000  0.17636100  0.10299100  1
  O  O23  1  0.63960900  0.63960900  0.09251900  1
loop_
_geom_bond_atom_site_label_1
_geom_bond_atom_site_label_2
_geom_bond_distance
_geom_bond_site_symmetry_2
Ca0 O16 2.206355 1_556
Ca0 O3 2.345794 1_455
Ca0 O2 2.345794 1_545
Ca0 O0 2.388089 1_555
Ca1 O11 2.227286 1_555
Ca1 O8 2.227286 1_555
Ca1 O5 2.361158 1_555
Ca1 O1 2.457747 1_555
Ca2 O23 2.407717 1_555
Ca2 O0 2.415092 1_554
Ca2 O3 2.429306 1_554
Ca2 O2 2.429306 1_554
Ca2 O20 2.453158 1_555
Ca2 O22 2.453158 1_555
Ca3 O13 2.195958 1_665
Ca3 O17 2.279644 1_655
Ca3 O19 2.279644 1_565
Ca3 O9 2.299641 1_555
Ca4 O6 2.235229 1_555
Ca4 O4 2.235229 1_555
Ca4 O15 2.340865 1_555
Ca4 O10 2.423823 1_445
Ca5 O21 2.300716 1_555
Ca5 O12 2.327844 1_555
Ca5 O14 2.327844 1_555
Ca5 O18 2.498741 1_555
O0 Sn3 2.157244 1_555
O0 Sn0 2.157244 1_555
O1 Sn0 2.183910 1_555
O1 Sn3 2.183910 1_555
O1 Sn1 2.471364 1_555
O2 Sn0 2.102413 1_555
O2 Sn1 2.302309 1_555
O3 Sn3 2.102413 1_555
O3 Sn1 2.302309 1_555
O4 Sn3 2.095103 1_555
O4 Sn4 2.230073 1_545
O4 Sn1 2.642304 1_545
O5 Sn2 2.169994 1_555
O5 Sn7 2.169994 1_555
O6 Sn0 2.095103 1_555
O6 Sn4 2.230073 1_455
O6 Sn1 2.642304 1_455
O7 Sn3 2.094272 1_565
O7 Sn0 2.094272 1_655
O7 Sn1 2.494027 1_555
O7 Sn11 2.743894 1_556
O8 Sn2 2.086182 1_545
O8 Sn5 2.209255 1_545
O8 Sn4 2.722682 1_545
O9 Sn2 2.177028 1_555
O9 Sn7 2.177028 1_555
O9 Sn5 2.188362 1_555
O10 Sn3 2.262082 1_565
O10 Sn0 2.262082 1_655
O10 Sn4 2.338956 1_555
O11 Sn7 2.086182 1_455
O11 Sn5 2.209255 1_455
O11 Sn4 2.722682 1_455
O12 Sn7 2.068331 1_555
O12 Sn9 2.141812 1_655
O13 Sn9 2.032547 1_555
O14 Sn2 2.068331 1_555
O14 Sn9 2.141812 1_565
O15 Sn7 2.147948 1_455
O15 Sn2 2.147948 1_545
O16 Sn10 2.061462 1_555
O17 Sn10 2.135339 1_555
O17 Sn9 2.142507 1_555
O18 Sn9 2.225095 1_555
O18 Sn2 2.226162 1_545
O18 Sn7 2.226162 1_455
O19 Sn10 2.135339 1_555
O19 Sn9 2.142507 1_555
O20 Sn10 2.164030 1_555
O20 Sn8 2.272967 1_555
O20 Sn11 2.279915 1_455
O21 Sn10 2.195297 1_555
O21 Sn6 2.310677 1_555
O21 Sn8 2.310677 1_555
O22 Sn10 2.164030 1_555
O22 Sn6 2.272967 1_555
O22 Sn11 2.279915 1_545
O23 Sn11 2.250915 1_555
O23 Sn6 2.285606 1_555
O23 Sn8 2.285606 1_555
