# generated using pymatgen
data_Ba3Si2(B3O8)2
_symmetry_space_group_name_H-M   'P 1'
_cell_length_a   5.08359000
_cell_length_b   7.68193822
_cell_length_c   8.63008001
_cell_angle_alpha   102.81904634
_cell_angle_beta   102.29817024
_cell_angle_gamma   87.29315177
_symmetry_Int_Tables_number   1
_chemical_formula_structural   Ba3Si2(B3O8)2
_chemical_formula_sum   'Ba3 Si2 B6 O16'
_cell_volume   321.07929964
_cell_formula_units_Z   1
loop_
 _symmetry_equiv_pos_site_id
 _symmetry_equiv_pos_as_xyz
  1  'x, y, z'
loop_
 _atom_site_type_symbol
 _atom_site_label
 _atom_site_symmetry_multiplicity
 _atom_site_fract_x
 _atom_site_fract_y
 _atom_site_fract_z
 _atom_site_occupancy
  Ba  Ba0  1  0.50000000  0.00000000  0.50000000  1
  Ba  Ba1  1  0.38136000  0.42025800  0.23491700  1
  Ba  Ba2  1  0.61864000  0.57974200  0.76508300  1
  Si  Si0  1  0.75957800  0.17385800  0.94001900  1
  Si  Si1  1  0.24042200  0.82614200  0.05998100  1
  B  B0  1  0.18356300  0.23907000  0.79608900  1
  B  B1  1  0.81643700  0.76093000  0.20391100  1
  B  B2  1  0.03106500  0.69705200  0.47577600  1
  B  B3  1  0.96893500  0.30294800  0.52422400  1
  B  B4  1  0.97806600  0.09050900  0.24629700  1
  B  B5  1  0.02193400  0.90949100  0.75370300  1
  O  O0  1  0.78541400  0.17812500  0.13308000  1
  O  O1  1  0.21458600  0.82187500  0.86692000  1
  O  O2  1  0.85487800  0.64196600  0.32211000  1
  O  O3  1  0.14512200  0.35803400  0.67789000  1
  O  O4  1  0.00207700  0.29408800  0.91476400  1
  O  O5  1  0.99792300  0.70591200  0.08523600  1
  O  O6  1  0.09464100  0.22640100  0.39498400  1
  O  O7  1  0.90535900  0.77359900  0.60501600  1
  O  O8  1  0.29874200  0.67559900  0.49409700  1
  O  O9  1  0.70125800  0.32440100  0.50590300  1
  O  O10  1  0.52818700  0.72661300  0.11113900  1
  O  O11  1  0.47181300  0.27338700  0.88886100  1
  O  O12  1  0.13627100  0.05470100  0.70634300  1
  O  O13  1  0.86372900  0.94529900  0.29365700  1
  O  O14  1  0.22098700  0.02713700  0.17301200  1
  O  O15  1  0.77901300  0.97286300  0.82698800  1
loop_
_geom_bond_atom_site_label_1
_geom_bond_atom_site_label_2
_geom_bond_distance
_geom_bond_site_symmetry_2
Ba0 O9 2.724305 1_555
Ba0 O8 2.724305 1_545
Ba0 O6 2.767297 1_555
Ba0 O7 2.767297 1_545
Ba0 O13 2.786378 1_545
Ba0 O12 2.786378 1_555
Ba0 O15 2.923457 1_545
Ba0 O14 2.923457 1_555
Ba1 O8 2.720744 1_555
Ba1 O9 2.772541 1_555
Ba1 O0 2.852024 1_555
Ba1 O6 2.868108 1_555
Ba1 O2 2.882414 1_555
Ba1 O10 2.976209 1_555
Ba1 O4 3.001616 1_554
Ba1 O14 3.066127 1_555
Ba1 O11 3.073162 1_554
Ba1 O5 3.172483 1_455
Ba1 O2 3.238651 1_455
Ba2 O9 2.720744 1_555
Ba2 O8 2.772541 1_555
Ba2 O1 2.852024 1_555
Ba2 O7 2.868108 1_555
Ba2 O3 2.882414 1_555
Ba2 O11 2.976209 1_555
Ba2 O5 3.001616 1_556
Ba2 O15 3.066127 1_555
Ba2 O10 3.073162 1_556
Ba2 O4 3.172483 1_655
Ba2 O3 3.238651 1_655
B0 O12 1.459342 1_555
B0 O3 1.491901 1_555
B0 O4 1.500790 1_555
B0 O11 1.516835 1_555
B1 O13 1.459342 1_555
B1 O2 1.491901 1_555
B1 O5 1.500790 1_555
B1 O10 1.516835 1_555
B2 O8 1.342592 1_555
B2 O7 1.405440 1_455
B2 O2 1.421527 1_455
B3 O9 1.342592 1_555
B3 O6 1.405440 1_655
B3 O3 1.421527 1_655
B4 O13 1.453953 1_545
B4 O0 1.479443 1_555
B4 O6 1.492509 1_655
B4 O14 1.517006 1_655
B5 O12 1.453953 1_565
B5 O1 1.479443 1_555
B5 O7 1.492509 1_455
B5 O15 1.517006 1_455
O0 Si0 1.636237 1_554
O1 Si1 1.636237 1_556
O4 Si0 1.652748 1_455
O5 Si1 1.652748 1_655
O10 Si1 1.639672 1_555
O11 Si0 1.639672 1_555
O14 Si1 1.644271 1_545
O15 Si0 1.644271 1_565
