# generated using pymatgen
data_CoP2W
_symmetry_space_group_name_H-M   'P 1'
_cell_length_a   3.28334100
_cell_length_b   3.28334100
_cell_length_c   11.38483600
_cell_angle_alpha   90.00000000
_cell_angle_beta   90.00000000
_cell_angle_gamma   120.00002008
_symmetry_Int_Tables_number   1
_chemical_formula_structural   CoP2W
_chemical_formula_sum   'Co2 P4 W2'
_cell_volume   106.28923996
_cell_formula_units_Z   2
loop_
 _symmetry_equiv_pos_site_id
 _symmetry_equiv_pos_as_xyz
  1  'x, y, z'
loop_
 _atom_site_type_symbol
 _atom_site_label
 _atom_site_symmetry_multiplicity
 _atom_site_fract_x
 _atom_site_fract_y
 _atom_site_fract_z
 _atom_site_occupancy
  Co  Co0  1  0.00000000  0.00000000  0.75000000  1
  Co  Co1  1  0.00000000  0.00000000  0.25000000  1
  P  P0  1  0.66666700  0.33333300  0.85917800  1
  P  P1  1  0.33333300  0.66666700  0.14082200  1
  P  P2  1  0.33333300  0.66666700  0.35917800  1
  P  P3  1  0.66666700  0.33333300  0.64082200  1
  W  W0  1  0.00000000  0.00000000  0.00000000  1
  W  W1  1  0.00000000  0.00000000  0.50000000  1
loop_
_geom_bond_atom_site_label_1
_geom_bond_atom_site_label_2
_geom_bond_distance
_geom_bond_site_symmetry_2
Co0 P3 2.266808 1_455
Co0 P0 2.266808 1_455
Co0 P0 2.266810 1_445
Co0 P3 2.266810 1_555
Co0 P3 2.266810 1_445
Co0 P0 2.266810 1_555
Co1 P2 2.266808 1_545
Co1 P1 2.266808 1_545
Co1 P1 2.266810 1_445
Co1 P2 2.266810 1_445
Co1 P1 2.266810 1_555
Co1 P2 2.266810 1_555
P0 W0 2.482700 1_656
P0 W0 2.482702 1_556
P0 W0 2.482702 1_666
P1 W0 2.482700 1_565
P1 W0 2.482702 1_555
P1 W0 2.482702 1_665
P2 W1 2.482700 1_565
P2 W1 2.482702 1_665
P2 W1 2.482702 1_555
P3 W1 2.482700 1_655
P3 W1 2.482702 1_665
P3 W1 2.482702 1_555
