# generated using pymatgen
data_ThIrOs
_symmetry_space_group_name_H-M   'P 1'
_cell_length_a   5.51065975
_cell_length_b   5.51065975
_cell_length_c   5.51065975
_cell_angle_alpha   123.34214884
_cell_angle_beta   119.68738546
_cell_angle_gamma   87.42627138
_symmetry_Int_Tables_number   1
_chemical_formula_structural   ThIrOs
_chemical_formula_sum   'Th2 Ir2 Os2'
_cell_volume   115.33893883
_cell_formula_units_Z   2
loop_
 _symmetry_equiv_pos_site_id
 _symmetry_equiv_pos_as_xyz
  1  'x, y, z'
loop_
 _atom_site_type_symbol
 _atom_site_label
 _atom_site_symmetry_multiplicity
 _atom_site_fract_x
 _atom_site_fract_y
 _atom_site_fract_z
 _atom_site_occupancy
  Th  Th0  1  0.12765100  0.87765100  0.25000000  1
  Th  Th1  1  0.87234900  0.12234900  0.75000000  1
  Ir  Ir0  1  0.00000000  0.50000000  0.50000000  1
  Ir  Ir1  1  0.50000000  0.50000000  0.00000000  1
  Os  Os0  1  0.50000000  0.00000000  0.00000000  1
  Os  Os1  1  0.50000000  0.50000000  0.50000000  1
loop_
_geom_bond_atom_site_label_1
_geom_bond_atom_site_label_2
_geom_bond_distance
_geom_bond_site_symmetry_2
Ir0 Os1 2.755330 1_555
Ir0 Os0 2.755330 1_455
Ir0 Os0 2.755330 1_566
Ir0 Os1 2.755330 1_455
Ir0 Ir1 2.768339 1_556
Ir0 Ir1 2.768339 1_455
Ir0 Th1 3.115135 1_454
Ir0 Th0 3.115135 1_545
Ir0 Th0 3.115135 1_556
Ir0 Th1 3.115135 1_465
Ir0 Th0 3.311631 1_555
Ir0 Th1 3.311631 1_455
Ir1 Os1 2.755330 1_554
Ir1 Os0 2.755330 1_555
Ir1 Os1 2.755330 1_555
Ir1 Os0 2.755330 1_565
Ir1 Th1 3.115135 1_554
Ir1 Th1 3.115135 1_565
Ir1 Th0 3.115135 1_544
Ir1 Th0 3.115135 1_555
Ir1 Th0 3.311631 1_655
Ir1 Th1 3.311631 1_454
Os0 Os1 2.614988 1_544
Os0 Os1 2.614988 1_555
Os0 Th1 3.226041 1_555
Os0 Th0 3.226041 1_645
Os0 Th0 3.226041 1_544
Os0 Th1 3.226041 1_454
Os0 Th1 3.241629 1_554
Os0 Th0 3.241629 1_545
Os1 Th1 3.226041 1_555
Os1 Th0 3.226041 1_555
Os1 Th0 3.226041 1_656
Os1 Th1 3.226041 1_454
Os1 Th1 3.241629 1_565
Os1 Th0 3.241629 1_545
