# generated using pymatgen
data_Sm2Hf2(MoO4)7
_symmetry_space_group_name_H-M   'P 1'
_cell_length_a   10.00809405
_cell_length_b   11.72935550
_cell_length_c   14.10602219
_cell_angle_alpha   110.68804833
_cell_angle_beta   90.00000000
_cell_angle_gamma   115.25362459
_symmetry_Int_Tables_number   1
_chemical_formula_structural   Sm2Hf2(MoO4)7
_chemical_formula_sum   'Sm4 Hf4 Mo14 O56'
_cell_volume   1378.65079109
_cell_formula_units_Z   2
loop_
 _symmetry_equiv_pos_site_id
 _symmetry_equiv_pos_as_xyz
  1  'x, y, z'
loop_
 _atom_site_type_symbol
 _atom_site_label
 _atom_site_symmetry_multiplicity
 _atom_site_fract_x
 _atom_site_fract_y
 _atom_site_fract_z
 _atom_site_occupancy
  Sm  Sm0  1  0.14971625  0.27426482  0.93749951  1
  Sm  Sm1  1  0.85028375  0.72573518  0.06250049  1
  Sm  Sm2  1  0.87545143  0.72573518  0.56250049  1
  Sm  Sm3  1  0.12454857  0.27426482  0.43749951  1
  Hf  Hf0  1  0.41967264  0.76784495  0.81204680  1
  Hf  Hf1  1  0.58032736  0.23215505  0.18795320  1
  Hf  Hf2  1  0.65182768  0.23215505  0.68795320  1
  Hf  Hf3  1  0.34817232  0.76784495  0.31204680  1
  Mo  Mo0  1  0.49934775  0.48674962  0.82511219  1
  Mo  Mo1  1  0.50065225  0.51325038  0.17488781  1
  Mo  Mo2  1  0.01259814  0.51325038  0.67488781  1
  Mo  Mo3  1  0.98740186  0.48674962  0.32511219  1
  Mo  Mo4  1  0.45519345  0.68469313  0.52337497  1
  Mo  Mo5  1  0.54480655  0.31530687  0.47662503  1
  Mo  Mo6  1  0.77050031  0.31530687  0.97662503  1
  Mo  Mo7  1  0.22949969  0.68469313  0.02337497  1
  Mo  Mo8  1  0.81065333  0.87891107  0.85329594  1
  Mo  Mo9  1  0.18934667  0.12108893  0.14670406  1
  Mo  Mo10  1  0.93174226  0.12108893  0.64670406  1
  Mo  Mo11  1  0.06825774  0.87891107  0.35329594  1
  Mo  Mo12  1  0.29884149  0.00000000  0.75000000  1
  Mo  Mo13  1  0.70115851  1.00000000  0.25000000  1
  O  O0  1  0.48673826  0.61354244  0.78282973  1
  O  O1  1  0.51326174  0.38645756  0.21717027  1
  O  O2  1  0.87319582  0.38645756  0.71717027  1
  O  O3  1  0.12680418  0.61354244  0.28282973  1
  O  O4  1  0.63960424  0.71317507  0.50417328  1
  O  O5  1  0.36039576  0.28682493  0.49582672  1
  O  O6  1  0.92642917  0.28682493  0.99582672  1
  O  O7  1  0.07357083  0.71317507  0.00417328  1
  O  O8  1  0.31782478  0.37763616  0.83324945  1
  O  O9  1  0.68217522  0.62236384  0.16675055  1
  O  O10  1  0.94018862  0.62236384  0.66675055  1
  O  O11  1  0.05981138  0.37763616  0.33324945  1
  O  O12  1  0.93436924  0.96163542  0.60210848  1
  O  O13  1  0.06563076  0.03836458  0.39789152  1
  O  O14  1  0.97273382  0.03836458  0.89789152  1
  O  O15  1  0.02726618  0.96163542  0.10210848  1
  O  O16  1  0.79629805  0.79514134  0.71883793  1
  O  O17  1  0.20370195  0.20485866  0.28116207  1
  O  O18  1  0.00115671  0.20485866  0.78116207  1
  O  O19  1  0.99884329  0.79514134  0.21883793  1
  O  O20  1  0.57728617  0.38235095  0.73958081  1
  O  O21  1  0.42271383  0.61764905  0.26041919  1
  O  O22  1  0.19493522  0.61764905  0.76041919  1
  O  O23  1  0.80506478  0.38235095  0.23958081  1
  O  O24  1  0.66396633  0.49263853  0.52816513  1
  O  O25  1  0.33603367  0.50736147  0.47183487  1
  O  O26  1  0.17132780  0.50736147  0.97183487  1
  O  O27  1  0.82867220  0.49263853  0.02816513  1
  O  O28  1  0.82888427  0.77662781  0.91540906  1
  O  O29  1  0.17111573  0.22337219  0.08459094  1
  O  O30  1  0.05225646  0.22337219  0.58459094  1
  O  O31  1  0.94774354  0.77662781  0.41540906  1
  O  O32  1  0.60854336  0.56929537  0.94932966  1
  O  O33  1  0.39145664  0.43070463  0.05067034  1
  O  O34  1  0.03924799  0.43070463  0.55067034  1
  O  O35  1  0.96075201  0.56929537  0.44932966  1
  O  O36  1  0.37483529  0.76478171  0.95556292  1
  O  O37  1  0.62516471  0.23521829  0.04443708  1
  O  O38  1  0.61005358  0.23521829  0.54443708  1
  O  O39  1  0.38994642  0.76478171  0.45556292  1
  O  O40  1  0.26058131  0.12535795  0.84120069  1
  O  O41  1  0.73941869  0.87464205  0.15879931  1
  O  O42  1  0.13522336  0.87464205  0.65879931  1
  O  O43  1  0.86477664  0.12535795  0.34120069  1
  O  O44  1  0.44179515  0.08019935  0.68166356  1
  O  O45  1  0.55820485  0.91980065  0.31833644  1
  O  O46  1  0.36159581  0.91980065  0.81833644  1
  O  O47  1  0.63840419  0.08019935  0.18166356  1
  O  O48  1  0.64037888  0.90432213  0.87433055  1
  O  O49  1  0.35962112  0.09567787  0.12566945  1
  O  O50  1  0.73605675  0.09567787  0.62566945  1
  O  O51  1  0.26394325  0.90432213  0.37433055  1
  O  O52  1  0.44735539  0.75088064  0.66027861  1
  O  O53  1  0.55264461  0.24911936  0.33972139  1
  O  O54  1  0.69647475  0.24911936  0.83972139  1
  O  O55  1  0.30352525  0.75088064  0.16027861  1
loop_
_geom_bond_atom_site_label_1
_geom_bond_atom_site_label_2
_geom_bond_distance
_geom_bond_site_symmetry_2
Hf0 O48 2.050050 1_555
Hf0 O46 2.072357 1_555
Hf0 O36 2.082944 1_555
Hf0 O22 2.098903 1_555
Hf0 O0 2.098922 1_555
Hf0 O52 2.108465 1_555
Hf1 O49 2.050050 1_555
Hf1 O47 2.072357 1_555
Hf1 O37 2.082944 1_555
Hf1 O23 2.098903 1_555
Hf1 O1 2.098922 1_555
Hf1 O53 2.108465 1_555
Hf2 O50 2.050050 1_555
Hf2 O44 2.072357 1_555
Hf2 O38 2.082944 1_555
Hf2 O20 2.098903 1_555
Hf2 O2 2.098922 1_555
Hf2 O54 2.108465 1_555
Hf3 O51 2.050050 1_555
Hf3 O45 2.072357 1_555
Hf3 O39 2.082944 1_555
Hf3 O21 2.098903 1_555
Hf3 O3 2.098922 1_555
Hf3 O55 2.108465 1_555
Mo0 O8 1.752560 1_555
Mo0 O32 1.760816 1_555
Mo0 O20 1.826107 1_555
Mo0 O0 1.835836 1_555
Mo1 O9 1.752560 1_555
Mo1 O33 1.760816 1_555
Mo1 O21 1.826107 1_555
Mo1 O1 1.835836 1_555
Mo2 O10 1.752560 1_455
Mo2 O34 1.760816 1_555
Mo2 O22 1.826107 1_555
Mo2 O2 1.835836 1_455
Mo3 O11 1.752560 1_655
Mo3 O35 1.760816 1_555
Mo3 O23 1.826107 1_555
Mo3 O3 1.835836 1_655
Mo4 O25 1.758451 1_555
Mo4 O4 1.768914 1_555
Mo4 O52 1.825080 1_555
Mo4 O39 1.839065 1_555
Mo5 O24 1.758451 1_555
Mo5 O5 1.768914 1_555
Mo5 O53 1.825080 1_555
Mo5 O38 1.839065 1_555
Mo6 O27 1.758451 1_556
Mo6 O6 1.768915 1_555
Mo6 O54 1.825080 1_555
Mo6 O37 1.839065 1_556
Mo7 O26 1.758451 1_554
Mo7 O7 1.768915 1_555
Mo7 O55 1.825080 1_555
Mo7 O36 1.839065 1_554
Mo8 O14 1.762116 1_565
Mo8 O16 1.773762 1_555
Mo8 O28 1.780382 1_555
Mo8 O48 1.857905 1_555
Mo9 O15 1.762116 1_545
Mo9 O17 1.773762 1_555
Mo9 O29 1.780382 1_555
Mo9 O49 1.857905 1_555
Mo10 O12 1.762116 1_545
Mo10 O18 1.773762 1_655
Mo10 O30 1.780382 1_655
Mo10 O50 1.857905 1_555
Mo11 O13 1.762116 1_565
Mo11 O19 1.773762 1_455
Mo11 O31 1.780382 1_455
Mo11 O51 1.857905 1_555
Mo12 O42 1.762811 1_545
Mo12 O40 1.762811 1_555
Mo12 O44 1.831214 1_555
Mo12 O46 1.831214 1_545
Mo13 O43 1.762811 1_565
Mo13 O41 1.762811 1_555
Mo13 O45 1.831214 1_555
Mo13 O47 1.831214 1_565
O4 Sm2 2.426457 1_555
O5 Sm3 2.426457 1_555
O6 Sm0 2.426457 1_655
O7 Sm1 2.426457 1_455
O8 Sm0 2.445913 1_555
O9 Sm1 2.445913 1_555
O10 Sm2 2.445913 1_555
O11 Sm3 2.445913 1_555
O12 Sm2 2.414848 1_555
O13 Sm3 2.414848 1_555
O14 Sm0 2.414848 1_655
O15 Sm1 2.414848 1_455
O16 Sm2 2.331394 1_555
O17 Sm3 2.331394 1_555
O18 Sm0 2.331394 1_555
O19 Sm1 2.331394 1_555
O24 Sm2 2.513228 1_555
O25 Sm3 2.513228 1_555
O26 Sm0 2.513228 1_555
O27 Sm1 2.513228 1_555
O28 Sm1 2.385690 1_556
O29 Sm0 2.385690 1_554
O30 Sm3 2.385690 1_555
O31 Sm2 2.385690 1_555
O32 Sm1 2.431286 1_556
O33 Sm0 2.431286 1_554
O34 Sm3 2.431286 1_555
O35 Sm2 2.431286 1_555
O40 Sm0 2.470640 1_555
O41 Sm1 2.470640 1_555
O42 Sm2 2.470640 1_455
O43 Sm3 2.470640 1_655
