# generated using pymatgen
data_CuH6C3S(BrN)3
_symmetry_space_group_name_H-M   'P 1'
_cell_length_a   6.23055145
_cell_length_b   12.76079887
_cell_length_c   13.48086500
_cell_angle_alpha   90.00000000
_cell_angle_beta   90.00000000
_cell_angle_gamma   94.32974566
_symmetry_Int_Tables_number   1
_chemical_formula_structural   CuH6C3S(BrN)3
_chemical_formula_sum   'Cu4 H24 C12 S4 Br12 N12'
_cell_volume   1068.76172768
_cell_formula_units_Z   4
loop_
 _symmetry_equiv_pos_site_id
 _symmetry_equiv_pos_as_xyz
  1  'x, y, z'
loop_
 _atom_site_type_symbol
 _atom_site_label
 _atom_site_symmetry_multiplicity
 _atom_site_fract_x
 _atom_site_fract_y
 _atom_site_fract_z
 _atom_site_occupancy
  Cu  Cu0  1  0.24583300  0.04092200  0.93567100  1
  Cu  Cu1  1  0.74583300  0.54092200  0.56432900  1
  Cu  Cu2  1  0.75416700  0.95907800  0.06432900  1
  Cu  Cu3  1  0.25416700  0.45907800  0.43567100  1
  H  H0  1  0.64204000  0.25312100  0.22604900  1
  H  H1  1  0.14204000  0.75312100  0.27395100  1
  H  H2  1  0.35796000  0.74687900  0.77395100  1
  H  H3  1  0.85796000  0.24687900  0.72604900  1
  H  H4  1  0.81726800  0.35628400  0.25701800  1
  H  H5  1  0.31726800  0.85628400  0.24298200  1
  H  H6  1  0.18273200  0.64371600  0.74298200  1
  H  H7  1  0.68273200  0.14371600  0.75701800  1
  H  H8  1  0.81987900  0.30143300  0.14427200  1
  H  H9  1  0.31987900  0.80143300  0.35572800  1
  H  H10  1  0.18012100  0.69856700  0.85572800  1
  H  H11  1  0.68012100  0.19856700  0.64427200  1
  H  H12  1  0.09470400  0.59101300  0.02654400  1
  H  H13  1  0.59470400  0.09101300  0.47345600  1
  H  H14  1  0.90529600  0.40898700  0.97345600  1
  H  H15  1  0.40529600  0.90898700  0.52654400  1
  H  H16  1  0.28279300  0.67602700  0.09548600  1
  H  H17  1  0.78279300  0.17602700  0.40451400  1
  H  H18  1  0.71720700  0.32397300  0.90451400  1
  H  H19  1  0.21720700  0.82397300  0.59548600  1
  H  H20  1  0.05959200  0.60632300  0.15570000  1
  H  H21  1  0.55959200  0.10632300  0.34430000  1
  H  H22  1  0.94040800  0.39367700  0.84430000  1
  H  H23  1  0.44040800  0.89367700  0.65570000  1
  C  C0  1  0.31270600  0.51170900  0.11478100  1
  C  C1  1  0.81270600  0.01170900  0.38521900  1
  C  C2  1  0.68729400  0.48829100  0.88521900  1
  C  C3  1  0.18729400  0.98829100  0.61478100  1
  C  C4  1  0.55574900  0.38925600  0.16248500  1
  C  C5  1  0.05574900  0.88925600  0.33751500  1
  C  C6  1  0.44425100  0.61074400  0.83751500  1
  C  C7  1  0.94425100  0.11074400  0.66248500  1
  C  C8  1  0.18131800  0.60198200  0.09696800  1
  C  C9  1  0.68131800  0.10198200  0.40303200  1
  C  C10  1  0.81868200  0.39801800  0.90303200  1
  C  C11  1  0.31868200  0.89801800  0.59696800  1
  S  S0  1  0.53218200  0.51775300  0.19501400  1
  S  S1  1  0.03218200  0.01775300  0.30498600  1
  S  S2  1  0.46781800  0.48224700  0.80498600  1
  S  S3  1  0.96781800  0.98224700  0.69501400  1
  Br  Br0  1  0.51867400  0.94140000  0.85885400  1
  Br  Br1  1  0.01867400  0.44140000  0.64114600  1
  Br  Br2  1  0.48132600  0.05860000  0.14114600  1
  Br  Br3  1  0.98132600  0.55860000  0.35885400  1
  Br  Br4  1  0.94570500  0.12531600  0.01215200  1
  Br  Br5  1  0.44570500  0.62531600  0.48784800  1
  Br  Br6  1  0.05429500  0.87468400  0.98784800  1
  Br  Br7  1  0.55429500  0.37468400  0.51215200  1
  Br  Br8  1  0.35310800  0.19978100  0.84551600  1
  Br  Br9  1  0.85310800  0.69978100  0.65448400  1
  Br  Br10  1  0.64689200  0.80021900  0.15448400  1
  Br  Br11  1  0.14689200  0.30021900  0.34551600  1
  N  N0  1  0.27461800  0.41942400  0.07196300  1
  N  N1  1  0.77461800  0.91942400  0.42803700  1
  N  N2  1  0.72538200  0.58057600  0.92803700  1
  N  N3  1  0.22538200  0.08057600  0.57196300  1
  N  N4  1  0.41596500  0.34882300  0.09919400  1
  N  N5  1  0.91596500  0.84882300  0.40080600  1
  N  N6  1  0.58403500  0.65117700  0.90080600  1
  N  N7  1  0.08403500  0.15117700  0.59919400  1
  N  N8  1  0.71865700  0.32303500  0.20046400  1
  N  N9  1  0.21865700  0.82303500  0.29953600  1
  N  N10  1  0.28134300  0.67696500  0.79953600  1
  N  N11  1  0.78134300  0.17696500  0.70046400  1
loop_
_geom_bond_atom_site_label_1
_geom_bond_atom_site_label_2
_geom_bond_distance
_geom_bond_site_symmetry_2
H0 N8 1.038499 1_555
H1 N9 1.038499 1_555
H2 N10 1.038499 1_555
H3 N11 1.038499 1_555
H4 N8 1.048520 1_555
H5 N9 1.048520 1_555
H6 N10 1.048520 1_555
H7 N11 1.048520 1_555
H8 N8 1.036249 1_555
H9 N9 1.036249 1_555
H10 N10 1.036249 1_555
H11 N11 1.036249 1_555
C0 N0 1.316860 1_555
C0 C8 1.482293 1_555
C0 S0 1.740644 1_555
C1 N1 1.316860 1_545
C1 C9 1.482293 1_555
C1 S1 1.740644 1_655
C2 N2 1.316860 1_555
C2 S2 1.740644 1_555
C3 N3 1.316860 1_565
C3 S3 1.740644 1_455
C4 N4 1.298023 1_555
C4 N8 1.461493 1_555
C4 S0 1.714325 1_555
C5 N5 1.298023 1_455
C5 N9 1.461493 1_555
C5 S1 1.714325 1_565
C6 N6 1.298023 1_555
C6 N10 1.461493 1_555
C6 S2 1.714325 1_555
C7 N7 1.298023 1_655
C7 N11 1.461493 1_555
C7 S3 1.714325 1_545
C8 H12 1.095777 1_555
C8 H16 1.096685 1_555
C8 H20 1.100679 1_555
C9 H13 1.095777 1_555
C9 H17 1.096685 1_555
C9 H21 1.100679 1_555
C10 H14 1.095777 1_555
C10 H18 1.096685 1_555
C10 H22 1.100679 1_555
C10 C2 1.482293 1_555
C11 H15 1.095777 1_555
C11 H19 1.096685 1_555
C11 H23 1.100679 1_555
C11 C3 1.482293 1_555
Br0 Cu0 2.429206 1_565
Br0 Cu2 3.134730 1_556
Br1 Cu1 2.429206 1_455
Br1 Cu3 3.134730 1_555
Br2 Cu2 2.429206 1_545
Br2 Cu0 3.134730 1_554
Br3 Cu3 2.429206 1_655
Br3 Cu1 3.134730 1_555
Br4 Cu0 2.454312 1_654
Br4 Cu2 2.456974 1_545
Br5 Cu1 2.454312 1_555
Br5 Cu3 2.456974 1_555
Br6 Cu2 2.454312 1_456
Br6 Cu0 2.456974 1_565
Br7 Cu3 2.454312 1_555
Br7 Cu1 2.456974 1_555
Br8 Cu0 2.414266 1_555
Br9 Cu1 2.414266 1_555
Br10 Cu2 2.414266 1_555
Br11 Cu3 2.414266 1_555
