# generated using pymatgen
data_Mg6CdCoO8
_symmetry_space_group_name_H-M   'P 1'
_cell_length_a   8.69543858
_cell_length_b   4.35559033
_cell_length_c   4.35559033
_cell_angle_alpha   90.00000000
_cell_angle_beta   90.00000000
_cell_angle_gamma   90.00000000
_symmetry_Int_Tables_number   1
_chemical_formula_structural   Mg6CdCoO8
_chemical_formula_sum   'Mg6 Cd1 Co1 O8'
_cell_volume   164.96261851
_cell_formula_units_Z   1
loop_
 _symmetry_equiv_pos_site_id
 _symmetry_equiv_pos_as_xyz
  1  'x, y, z'
loop_
 _atom_site_type_symbol
 _atom_site_label
 _atom_site_symmetry_multiplicity
 _atom_site_fract_x
 _atom_site_fract_y
 _atom_site_fract_z
 _atom_site_occupancy
  Mg  Mg0  1  0.50000000  0.00000000  -0.00000000  1
  Mg  Mg1  1  0.50000000  0.50000000  0.50000000  1
  Mg  Mg2  1  0.25461380  -0.00000000  0.50000000  1
  Mg  Mg3  1  0.74538620  0.00000000  0.50000000  1
  Mg  Mg4  1  0.25461380  0.50000000  -0.00000000  1
  Mg  Mg5  1  0.74538620  0.50000000  0.00000000  1
  Cd  Cd0  1  0.00000000  0.50000000  0.50000000  1
  Co  Co0  1  0.00000000  0.00000000  -0.00000000  1
  O  O0  1  0.25214110  0.00000000  0.00000000  1
  O  O1  1  0.74785890  -0.00000000  -0.00000000  1
  O  O2  1  0.26595623  0.50000000  0.50000000  1
  O  O3  1  0.73404377  0.50000000  0.50000000  1
  O  O4  1  0.00000000  0.00000000  0.50000000  1
  O  O5  1  0.50000000  0.00000000  0.50000000  1
  O  O6  1  0.00000000  0.50000000  -0.00000000  1
  O  O7  1  0.50000000  0.50000000  -0.00000000  1
loop_
_geom_bond_atom_site_label_1
_geom_bond_atom_site_label_2
_geom_bond_distance
_geom_bond_site_symmetry_2
Mg0 O1 2.155242 1_555
Mg0 O0 2.155242 1_555
Mg0 O7 2.177795 1_555
Mg0 O5 2.177795 1_554
Mg0 O5 2.177795 1_555
Mg0 O7 2.177795 1_545
Mg1 O2 2.035113 1_555
Mg1 O3 2.035113 1_555
Mg1 O7 2.177795 1_555
Mg1 O7 2.177795 1_556
Mg1 O5 2.177795 1_555
Mg1 O5 2.177795 1_565
Mg2 O5 2.133741 1_555
Mg2 O0 2.177901 1_555
Mg2 O0 2.177901 1_556
Mg2 O2 2.180027 1_545
Mg2 O2 2.180027 1_555
Mg2 O4 2.213979 1_555
Mg3 O5 2.133741 1_555
Mg3 O1 2.177901 1_555
Mg3 O1 2.177901 1_556
Mg3 O3 2.180027 1_545
Mg3 O3 2.180027 1_555
Mg3 O4 2.213979 1_655
Mg4 O7 2.133741 1_555
Mg4 O0 2.177901 1_555
Mg4 O0 2.177901 1_565
Mg4 O2 2.180027 1_554
Mg4 O2 2.180027 1_555
Mg4 O6 2.213979 1_555
Mg5 O7 2.133741 1_555
Mg5 O1 2.177901 1_555
Mg5 O1 2.177901 1_565
Mg5 O3 2.180027 1_554
Mg5 O3 2.180027 1_555
Mg5 O6 2.213979 1_655
Cd0 O4 2.177795 1_555
Cd0 O4 2.177795 1_565
Cd0 O6 2.177795 1_556
Cd0 O6 2.177795 1_555
Cd0 O3 2.312606 1_455
Cd0 O2 2.312606 1_555
Co0 O4 2.177795 1_555
Co0 O4 2.177795 1_554
Co0 O6 2.177795 1_545
Co0 O6 2.177795 1_555
Co0 O1 2.192477 1_455
Co0 O0 2.192477 1_555
