# generated using pymatgen
data_ZnCu5P2O15
_symmetry_space_group_name_H-M   'P 1'
_cell_length_a   8.59533300
_cell_length_b   10.86353300
_cell_length_c   11.74861160
_cell_angle_alpha   84.12129037
_cell_angle_beta   90.00000000
_cell_angle_gamma   90.00000000
_symmetry_Int_Tables_number   1
_chemical_formula_structural   ZnCu5P2O15
_chemical_formula_sum   'Zn4 Cu20 P8 O60'
_cell_volume   1091.26527456
_cell_formula_units_Z   4
loop_
 _symmetry_equiv_pos_site_id
 _symmetry_equiv_pos_as_xyz
  1  'x, y, z'
loop_
 _atom_site_type_symbol
 _atom_site_label
 _atom_site_symmetry_multiplicity
 _atom_site_fract_x
 _atom_site_fract_y
 _atom_site_fract_z
 _atom_site_occupancy
  Zn  Zn0  1  0.59577900  0.16883900  0.03317800  1
  Zn  Zn1  1  0.09577900  0.33116100  0.96682200  1
  Zn  Zn2  1  0.40422100  0.83116100  0.96682200  1
  Zn  Zn3  1  0.90422100  0.66883900  0.03317800  1
  Cu  Cu0  1  0.90811000  0.30063900  0.30301900  1
  Cu  Cu1  1  0.40811000  0.19936100  0.69698100  1
  Cu  Cu2  1  0.09189000  0.69936100  0.69698100  1
  Cu  Cu3  1  0.59189000  0.80063900  0.30301900  1
  Cu  Cu4  1  0.75171300  0.04732400  0.28914100  1
  Cu  Cu5  1  0.25171300  0.45267600  0.71085900  1
  Cu  Cu6  1  0.24828700  0.95267600  0.71085900  1
  Cu  Cu7  1  0.74828700  0.54732400  0.28914100  1
  Cu  Cu8  1  0.09297700  0.05915000  0.30723500  1
  Cu  Cu9  1  0.59297700  0.44085000  0.69276500  1
  Cu  Cu10  1  0.90702300  0.94085000  0.69276500  1
  Cu  Cu11  1  0.40702300  0.55915000  0.30723500  1
  Cu  Cu12  1  0.26268900  0.30834200  0.30935600  1
  Cu  Cu13  1  0.76268900  0.19165800  0.69064400  1
  Cu  Cu14  1  0.73731100  0.69165800  0.69064400  1
  Cu  Cu15  1  0.23731100  0.80834200  0.30935600  1
  Cu  Cu16  1  0.42713900  0.05080000  0.28966900  1
  Cu  Cu17  1  0.92713900  0.44920000  0.71033100  1
  Cu  Cu18  1  0.57286100  0.94920000  0.71033100  1
  Cu  Cu19  1  0.07286100  0.55080000  0.28966900  1
  P  P0  1  0.74015900  0.42358300  0.04280100  1
  P  P1  1  0.24015900  0.07641700  0.95719900  1
  P  P2  1  0.25984100  0.57641700  0.95719900  1
  P  P3  1  0.75984100  0.92358300  0.04280100  1
  P  P4  1  0.59272700  0.32194300  0.43571700  1
  P  P5  1  0.09272700  0.17805700  0.56428300  1
  P  P6  1  0.40727300  0.67805700  0.56428300  1
  P  P7  1  0.90727300  0.82194300  0.43571700  1
  O  O0  1  0.91403600  0.15244300  0.23860000  1
  O  O1  1  0.41403600  0.34755700  0.76140000  1
  O  O2  1  0.08596400  0.84755700  0.76140000  1
  O  O3  1  0.58596400  0.65244300  0.23860000  1
  O  O4  1  0.10318500  0.18606100  0.43189500  1
  O  O5  1  0.60318500  0.31393900  0.56810500  1
  O  O6  1  0.89681500  0.81393900  0.56810500  1
  O  O7  1  0.39681500  0.68606100  0.43189500  1
  O  O8  1  0.08539100  0.34138700  0.22307400  1
  O  O9  1  0.58539100  0.15861300  0.77692600  1
  O  O10  1  0.91460900  0.65861300  0.77692600  1
  O  O11  1  0.41460900  0.84138700  0.22307400  1
  O  O12  1  0.91153800  0.45340800  0.35704200  1
  O  O13  1  0.41153800  0.04659200  0.64295800  1
  O  O14  1  0.08846200  0.54659200  0.64295800  1
  O  O15  1  0.58846200  0.95340800  0.35704200  1
  O  O16  1  0.69364900  0.41851300  0.17277200  1
  O  O17  1  0.19364900  0.08148700  0.82722800  1
  O  O18  1  0.30635100  0.58148700  0.82722800  1
  O  O19  1  0.80635100  0.91851300  0.17277200  1
  O  O20  1  0.73077000  0.25039300  0.38956100  1
  O  O21  1  0.23077000  0.24960700  0.61043900  1
  O  O22  1  0.26923000  0.74960700  0.61043900  1
  O  O23  1  0.76923000  0.75039300  0.38956100  1
  O  O24  1  0.90728600  0.96478700  0.38946400  1
  O  O25  1  0.40728600  0.53521300  0.61053600  1
  O  O26  1  0.09271400  0.03521300  0.61053600  1
  O  O27  1  0.59271400  0.46478700  0.38946400  1
  O  O28  1  0.58956100  0.12832700  0.20552800  1
  O  O29  1  0.08956100  0.37167300  0.79447200  1
  O  O30  1  0.41043900  0.87167300  0.79447200  1
  O  O31  1  0.91043900  0.62832700  0.20552800  1
  O  O32  1  0.27151200  0.15772200  0.23754800  1
  O  O33  1  0.77151200  0.34227800  0.76245200  1
  O  O34  1  0.72848800  0.84227800  0.76245200  1
  O  O35  1  0.22848800  0.65772200  0.23754800  1
  O  O36  1  0.27153500  0.96111800  0.37172200  1
  O  O37  1  0.77153500  0.53888200  0.62827800  1
  O  O38  1  0.72846500  0.03888200  0.62827800  1
  O  O39  1  0.22846500  0.46111800  0.37172200  1
  O  O40  1  0.10034100  0.93188100  0.20343900  1
  O  O41  1  0.60034100  0.56811900  0.79656100  1
  O  O42  1  0.89965900  0.06811900  0.79656100  1
  O  O43  1  0.39965900  0.43188100  0.20343900  1
  O  O44  1  0.43882300  0.26119100  0.40307400  1
  O  O45  1  0.93882300  0.23880900  0.59692600  1
  O  O46  1  0.56117700  0.73880900  0.59692600  1
  O  O47  1  0.06117700  0.76119100  0.40307400  1
  O  O48  1  0.90184000  0.36633800  0.03738700  1
  O  O49  1  0.40184000  0.13366200  0.96261300  1
  O  O50  1  0.09816000  0.63366200  0.96261300  1
  O  O51  1  0.59816000  0.86633800  0.03738700  1
  O  O52  1  0.73874700  0.55905900  0.98738300  1
  O  O53  1  0.23874700  0.94094100  0.01261700  1
  O  O54  1  0.26125300  0.44094100  0.01261700  1
  O  O55  1  0.76125300  0.05905900  0.98738300  1
  O  O56  1  0.61521000  0.34497900  0.99063900  1
  O  O57  1  0.11521000  0.15502100  0.00936100  1
  O  O58  1  0.38479000  0.65502100  0.00936100  1
  O  O59  1  0.88479000  0.84497900  0.99063900  1
loop_
_geom_bond_atom_site_label_1
_geom_bond_atom_site_label_2
_geom_bond_distance
_geom_bond_site_symmetry_2
Cu0 O8 1.820686 1_655
Cu0 O12 1.836788 1_555
Cu0 O0 1.848477 1_555
Cu0 O20 1.881893 1_555
Cu0 O4 2.503448 1_655
Cu1 O9 1.820686 1_555
Cu1 O13 1.836788 1_555
Cu1 O1 1.848477 1_555
Cu1 O21 1.881893 1_555
Cu1 O5 2.503448 1_555
Cu2 O10 1.820686 1_455
Cu2 O14 1.836788 1_555
Cu2 O2 1.848477 1_555
Cu2 O22 1.881893 1_555
Cu2 O6 2.503448 1_455
Cu3 O11 1.820686 1_555
Cu3 O15 1.836788 1_555
Cu3 O3 1.848477 1_555
Cu3 O23 1.881893 1_555
Cu3 O7 2.503448 1_555
Cu4 O0 1.861290 1_555
Cu4 O15 1.865358 1_545
Cu4 O28 1.872114 1_555
Cu4 O24 1.940314 1_545
Cu4 O19 2.107078 1_545
Cu5 O1 1.861290 1_555
Cu5 O14 1.865358 1_555
Cu5 O29 1.872114 1_555
Cu5 O25 1.940314 1_555
Cu5 O18 2.107078 1_555
Cu6 O2 1.861290 1_555
Cu6 O13 1.865358 1_565
Cu6 O30 1.872114 1_555
Cu6 O26 1.940314 1_565
Cu6 O17 2.107078 1_565
Cu7 O3 1.861290 1_555
Cu7 O12 1.865358 1_555
Cu7 O31 1.872114 1_555
Cu7 O27 1.940314 1_555
Cu7 O16 2.107078 1_555
Cu8 O40 1.935980 1_545
Cu8 O0 1.968655 1_455
Cu8 O36 1.974437 1_545
Cu8 O32 1.998078 1_555
Cu8 O24 2.080567 1_445
Cu8 O4 2.113563 1_555
Cu9 O41 1.935980 1_555
Cu9 O1 1.968655 1_555
Cu9 O37 1.974437 1_555
Cu9 O33 1.998078 1_555
Cu9 O25 2.080567 1_555
Cu9 O5 2.113563 1_555
Cu10 O42 1.935980 1_565
Cu10 O2 1.968655 1_655
Cu10 O38 1.974437 1_565
Cu10 O34 1.998078 1_555
Cu10 O26 2.080567 1_665
Cu10 O6 2.113563 1_555
Cu11 O43 1.935980 1_555
Cu11 O3 1.968655 1_555
Cu11 O39 1.974437 1_555
Cu11 O35 1.998078 1_555
Cu11 O27 2.080567 1_555
Cu11 O7 2.113563 1_555
Cu12 O8 1.845069 1_555
Cu12 O39 1.904488 1_555
Cu12 O44 1.910800 1_555
Cu12 O32 1.917714 1_555
Cu12 O43 2.096084 1_555
Cu12 O4 2.307627 1_555
Cu13 O9 1.845069 1_555
Cu13 O38 1.904488 1_555
Cu13 O45 1.910800 1_555
Cu13 O33 1.917714 1_555
Cu13 O42 2.096084 1_555
Cu13 O5 2.307627 1_555
Cu14 O10 1.845069 1_555
Cu14 O37 1.904488 1_555
Cu14 O46 1.910800 1_555
Cu14 O34 1.917714 1_555
Cu14 O41 2.096084 1_555
Cu14 O6 2.307627 1_555
Cu15 O11 1.845069 1_555
Cu15 O36 1.904488 1_555
Cu15 O47 1.910800 1_555
Cu15 O35 1.917714 1_555
Cu15 O40 2.096084 1_555
Cu15 O7 2.307627 1_555
Cu16 O32 1.835162 1_555
Cu16 O28 1.861453 1_555
Cu16 O36 1.864117 1_545
Cu16 O15 1.870059 1_545
Cu17 O33 1.835162 1_555
Cu17 O29 1.861453 1_655
Cu17 O37 1.864117 1_555
Cu17 O14 1.870059 1_655
Cu18 O34 1.835162 1_555
Cu18 O30 1.861453 1_555
Cu18 O38 1.864117 1_565
Cu18 O13 1.870059 1_565
Cu19 O35 1.835162 1_555
Cu19 O31 1.861453 1_455
Cu19 O39 1.864117 1_555
Cu19 O12 1.870059 1_455
O4 P5 1.551492 1_555
O5 P4 1.551492 1_555
O6 P7 1.551492 1_555
O7 P6 1.551492 1_555
O16 P0 1.573939 1_555
O17 P1 1.573939 1_555
O18 P2 1.573939 1_555
O19 P3 1.573939 1_555
O20 P4 1.546743 1_555
O21 P5 1.546743 1_555
O22 P6 1.546743 1_555
O23 P7 1.546743 1_555
O24 P7 1.590789 1_555
O25 P6 1.590789 1_555
O26 P5 1.590789 1_555
O27 P4 1.590789 1_555
O28 Zn0 2.028327 1_555
O29 Zn1 2.028327 1_555
O30 Zn2 2.028327 1_555
O31 Zn3 2.028327 1_555
O44 P4 1.544167 1_555
O45 P5 1.544167 1_655
O46 P6 1.544167 1_555
O47 P7 1.544167 1_455
O48 P0 1.526486 1_555
O48 Zn1 1.917559 1_654
O49 P1 1.526486 1_555
O49 Zn0 1.917559 1_556
O50 P2 1.526486 1_555
O50 Zn3 1.917559 1_456
O51 P3 1.526486 1_555
O51 Zn2 1.917559 1_554
O52 P0 1.547194 1_556
O52 Zn3 1.966254 1_556
O53 P1 1.547194 1_564
O53 Zn2 1.966254 1_554
O54 P2 1.547194 1_554
O54 Zn1 1.966254 1_554
O55 P3 1.547194 1_546
O55 Zn0 1.966254 1_556
O56 P0 1.537974 1_556
O56 Zn0 1.934751 1_556
O57 P1 1.537974 1_554
O57 Zn1 1.934751 1_554
O58 P2 1.537974 1_554
O58 Zn2 1.934751 1_554
O59 P3 1.537974 1_556
O59 Zn3 1.934751 1_556
