# generated using pymatgen
data_HoSc(BO3)2
_symmetry_space_group_name_H-M   'P 1'
_cell_length_a   6.05310036
_cell_length_b   6.05310036
_cell_length_c   6.05310033
_cell_angle_alpha   47.72503609
_cell_angle_beta   47.72503609
_cell_angle_gamma   47.72503891
_symmetry_Int_Tables_number   1
_chemical_formula_structural   HoSc(BO3)2
_chemical_formula_sum   'Ho1 Sc1 B2 O6'
_cell_volume   111.17326625
_cell_formula_units_Z   1
loop_
 _symmetry_equiv_pos_site_id
 _symmetry_equiv_pos_as_xyz
  1  'x, y, z'
loop_
 _atom_site_type_symbol
 _atom_site_label
 _atom_site_symmetry_multiplicity
 _atom_site_fract_x
 _atom_site_fract_y
 _atom_site_fract_z
 _atom_site_occupancy
  Ho  Ho0  1  0.00000000  0.00000000  0.00000000  1
  Sc  Sc0  1  0.50000000  0.50000000  0.50000000  1
  B  B0  1  0.75457100  0.75457100  0.75457100  1
  B  B1  1  0.24542900  0.24542900  0.24542900  1
  O  O0  1  0.04536500  0.47920400  0.73511900  1
  O  O1  1  0.47920400  0.73511900  0.04536500  1
  O  O2  1  0.73511900  0.04536500  0.47920400  1
  O  O3  1  0.52079600  0.26488100  0.95463500  1
  O  O4  1  0.26488100  0.95463500  0.52079600  1
  O  O5  1  0.95463500  0.52079600  0.26488100  1
loop_
_geom_bond_atom_site_label_1
_geom_bond_atom_site_label_2
_geom_bond_distance
_geom_bond_site_symmetry_2
Ho0 O5 2.298310 1_445
Ho0 O0 2.298310 1_554
Ho0 O4 2.298310 1_544
Ho0 O2 2.298310 1_455
Ho0 O1 2.298310 1_545
Ho0 O3 2.298310 1_454
B0 O1 1.388675 1_556
B0 O2 1.388675 1_565
B0 O0 1.388676 1_655
B1 O3 1.388675 1_554
B1 O4 1.388675 1_545
B1 O5 1.388676 1_455
O0 Sc0 2.137834 1_555
O1 Sc0 2.137834 1_555
O2 Sc0 2.137834 1_555
O3 Sc0 2.137834 1_555
O4 Sc0 2.137834 1_555
O5 Sc0 2.137834 1_555
