# generated using pymatgen
data_MgBi
_symmetry_space_group_name_H-M   'P 1'
_cell_length_a   6.54851800
_cell_length_b   11.25980800
_cell_length_c   11.84766000
_cell_angle_alpha   90.00000000
_cell_angle_beta   90.00000000
_cell_angle_gamma   90.00000000
_symmetry_Int_Tables_number   1
_chemical_formula_structural   MgBi
_chemical_formula_sum   'Mg16 Bi16'
_cell_volume   873.58786604
_cell_formula_units_Z   16
loop_
 _symmetry_equiv_pos_site_id
 _symmetry_equiv_pos_as_xyz
  1  'x, y, z'
loop_
 _atom_site_type_symbol
 _atom_site_label
 _atom_site_symmetry_multiplicity
 _atom_site_fract_x
 _atom_site_fract_y
 _atom_site_fract_z
 _atom_site_occupancy
  Mg  Mg0_0  1  0.00000000  0.37500000  0.41159900  1
  Mg  Mg0_1  1  0.00000000  0.37500000  0.91159900  1
  Mg  Mg0_2  1  0.00000000  0.87500000  0.41159900  1
  Mg  Mg0_3  1  0.00000000  0.87500000  0.91159900  1
  Mg  Mg0_4  1  0.50000000  0.37500000  0.41159900  1
  Mg  Mg0_5  1  0.50000000  0.37500000  0.91159900  1
  Mg  Mg0_6  1  0.50000000  0.87500000  0.41159900  1
  Mg  Mg0_7  1  0.50000000  0.87500000  0.91159900  1
  Mg  Mg1_0  1  0.00000000  0.12500000  0.08840100  1
  Mg  Mg1_1  1  0.00000000  0.12500000  0.58840100  1
  Mg  Mg1_2  1  0.00000000  0.62500000  0.08840100  1
  Mg  Mg1_3  1  0.00000000  0.62500000  0.58840100  1
  Mg  Mg1_4  1  0.50000000  0.12500000  0.08840100  1
  Mg  Mg1_5  1  0.50000000  0.12500000  0.58840100  1
  Mg  Mg1_6  1  0.50000000  0.62500000  0.08840100  1
  Mg  Mg1_7  1  0.50000000  0.62500000  0.58840100  1
  Bi  Bi0_0  1  0.25000000  0.37500000  0.15027450  1
  Bi  Bi0_1  1  0.25000000  0.37500000  0.65027450  1
  Bi  Bi0_2  1  0.25000000  0.87500000  0.15027450  1
  Bi  Bi0_3  1  0.25000000  0.87500000  0.65027450  1
  Bi  Bi0_4  1  0.75000000  0.37500000  0.15027450  1
  Bi  Bi0_5  1  0.75000000  0.37500000  0.65027450  1
  Bi  Bi0_6  1  0.75000000  0.87500000  0.15027450  1
  Bi  Bi0_7  1  0.75000000  0.87500000  0.65027450  1
  Bi  Bi1_0  1  0.25000000  0.12500000  0.34972550  1
  Bi  Bi1_1  1  0.25000000  0.12500000  0.84972550  1
  Bi  Bi1_2  1  0.25000000  0.62500000  0.34972550  1
  Bi  Bi1_3  1  0.25000000  0.62500000  0.84972550  1
  Bi  Bi1_4  1  0.75000000  0.12500000  0.34972550  1
  Bi  Bi1_5  1  0.75000000  0.12500000  0.84972550  1
  Bi  Bi1_6  1  0.75000000  0.62500000  0.34972550  1
  Bi  Bi1_7  1  0.75000000  0.62500000  0.84972550  1
loop_
_geom_bond_atom_site_label_1
_geom_bond_atom_site_label_2
_geom_bond_distance
_geom_bond_site_symmetry_2
Mg0_0 Mg0_4 3.274259 1_455
Mg0_0 Mg0_4 3.274259 1_555
Mg0_0 Mg1_1 3.508800 1_555
Mg0_0 Mg1_3 3.508800 1_555
Mg0_1 Mg0_5 3.274259 1_555
Mg0_1 Mg0_5 3.274259 1_455
Mg0_1 Mg1_0 3.508800 1_556
Mg0_1 Mg1_2 3.508800 1_556
Mg0_2 Mg0_6 3.274259 1_555
Mg0_2 Mg0_6 3.274259 1_455
Mg0_2 Mg1_1 3.508800 1_565
Mg0_2 Mg1_3 3.508800 1_555
Mg0_3 Mg0_7 3.274259 1_455
Mg0_3 Mg0_7 3.274259 1_555
Mg0_3 Mg1_0 3.508800 1_566
Mg0_3 Mg1_2 3.508800 1_556
Mg0_4 Mg1_7 3.508800 1_555
Mg0_4 Mg1_5 3.508800 1_555
Mg0_5 Mg1_6 3.508800 1_556
Mg0_5 Mg1_4 3.508800 1_556
Mg0_6 Mg1_5 3.508800 1_565
Mg0_6 Mg1_7 3.508800 1_555
Mg0_7 Mg1_4 3.508800 1_566
Mg0_7 Mg1_6 3.508800 1_556
Mg1_0 Mg1_4 3.274259 1_555
Mg1_0 Mg1_4 3.274259 1_455
Mg1_1 Mg1_5 3.274259 1_455
Mg1_1 Mg1_5 3.274259 1_555
Mg1_2 Mg1_6 3.274259 1_455
Mg1_2 Mg1_6 3.274259 1_555
Mg1_3 Mg1_7 3.274259 1_455
Mg1_3 Mg1_7 3.274259 1_555
Bi0_0 Mg0_1 3.267467 1_554
Bi0_0 Mg0_5 3.267467 1_554
Bi0_0 Bi0_4 3.274259 1_555
Bi0_0 Bi0_4 3.274259 1_455
Bi0_0 Mg1_4 3.337891 1_555
Bi0_0 Mg1_6 3.337891 1_555
Bi0_0 Mg1_2 3.337891 1_555
Bi0_0 Mg1_0 3.337891 1_555
Bi0_0 Mg0_4 3.502275 1_555
Bi0_0 Mg0_0 3.502275 1_555
Bi0_0 Bi1_2 3.675303 1_555
Bi0_0 Bi1_0 3.675303 1_555
Bi0_1 Mg0_0 3.267467 1_555
Bi0_1 Mg0_4 3.267467 1_555
Bi0_1 Bi0_5 3.274259 1_555
Bi0_1 Bi0_5 3.274259 1_455
Bi0_1 Mg1_1 3.337891 1_555
Bi0_1 Mg1_7 3.337891 1_555
Bi0_1 Mg1_3 3.337891 1_555
Bi0_1 Mg1_5 3.337891 1_555
Bi0_1 Mg0_1 3.502275 1_555
Bi0_1 Mg0_5 3.502275 1_555
Bi0_1 Bi1_3 3.675303 1_555
Bi0_1 Bi1_1 3.675303 1_555
Bi0_2 Mg0_3 3.267467 1_554
Bi0_2 Mg0_7 3.267467 1_554
Bi0_2 Bi0_6 3.274259 1_555
Bi0_2 Bi0_6 3.274259 1_455
Bi0_2 Mg1_4 3.337891 1_565
Bi0_2 Mg1_0 3.337891 1_565
Bi0_2 Mg1_6 3.337891 1_555
Bi0_2 Mg1_2 3.337891 1_555
Bi0_2 Mg0_2 3.502275 1_555
Bi0_2 Mg0_6 3.502275 1_555
Bi0_2 Bi1_0 3.675303 1_565
Bi0_2 Bi1_2 3.675303 1_555
Bi0_3 Mg0_2 3.267467 1_555
Bi0_3 Mg0_6 3.267467 1_555
Bi0_3 Bi0_7 3.274259 1_455
Bi0_3 Bi0_7 3.274259 1_555
Bi0_3 Mg1_5 3.337891 1_565
Bi0_3 Mg1_1 3.337891 1_565
Bi0_3 Mg1_3 3.337891 1_555
Bi0_3 Mg1_7 3.337891 1_555
Bi0_3 Mg0_7 3.502275 1_555
Bi0_3 Mg0_3 3.502275 1_555
Bi0_3 Bi1_1 3.675303 1_565
Bi0_3 Bi1_3 3.675303 1_555
Bi0_4 Mg0_1 3.267467 1_654
Bi0_4 Mg0_5 3.267467 1_554
Bi0_4 Mg1_4 3.337891 1_555
Bi0_4 Mg1_0 3.337891 1_655
Bi0_4 Mg1_2 3.337891 1_655
Bi0_4 Mg1_6 3.337891 1_555
Bi0_4 Mg0_4 3.502275 1_555
Bi0_4 Mg0_0 3.502275 1_655
Bi0_4 Bi1_4 3.675303 1_555
Bi0_4 Bi1_6 3.675303 1_555
Bi0_5 Mg0_0 3.267467 1_655
Bi0_5 Mg0_4 3.267467 1_555
Bi0_5 Mg1_3 3.337891 1_655
Bi0_5 Mg1_7 3.337891 1_555
Bi0_5 Mg1_1 3.337891 1_655
Bi0_5 Mg1_5 3.337891 1_555
Bi0_5 Mg0_1 3.502275 1_655
Bi0_5 Mg0_5 3.502275 1_555
Bi0_5 Bi1_5 3.675303 1_555
Bi0_5 Bi1_7 3.675303 1_555
Bi0_6 Mg0_7 3.267467 1_554
Bi0_6 Mg0_3 3.267467 1_654
Bi0_6 Mg1_4 3.337891 1_565
Bi0_6 Mg1_0 3.337891 1_665
Bi0_6 Mg1_6 3.337891 1_555
Bi0_6 Mg1_2 3.337891 1_655
Bi0_6 Mg0_2 3.502275 1_655
Bi0_6 Mg0_6 3.502275 1_555
Bi0_6 Bi1_4 3.675303 1_565
Bi0_6 Bi1_6 3.675303 1_555
Bi0_7 Mg0_2 3.267467 1_655
Bi0_7 Mg0_6 3.267467 1_555
Bi0_7 Mg1_1 3.337891 1_665
Bi0_7 Mg1_5 3.337891 1_565
Bi0_7 Mg1_3 3.337891 1_655
Bi0_7 Mg1_7 3.337891 1_555
Bi0_7 Mg0_7 3.502275 1_555
Bi0_7 Mg0_3 3.502275 1_655
Bi0_7 Bi1_5 3.675303 1_565
Bi0_7 Bi1_7 3.675303 1_555
Bi1_0 Mg1_1 3.267467 1_555
Bi1_0 Mg1_5 3.267467 1_555
Bi1_0 Bi1_4 3.274259 1_455
Bi1_0 Bi1_4 3.274259 1_555
Bi1_0 Mg0_2 3.337891 1_545
Bi1_0 Mg0_6 3.337891 1_545
Bi1_0 Mg0_0 3.337891 1_555
Bi1_0 Mg0_4 3.337891 1_555
Bi1_0 Mg1_0 3.502275 1_555
Bi1_0 Mg1_4 3.502275 1_555
Bi1_1 Mg1_4 3.267467 1_556
Bi1_1 Mg1_0 3.267467 1_556
Bi1_1 Bi1_5 3.274259 1_555
Bi1_1 Bi1_5 3.274259 1_455
Bi1_1 Mg0_7 3.337891 1_545
Bi1_1 Mg0_3 3.337891 1_545
Bi1_1 Mg0_1 3.337891 1_555
Bi1_1 Mg0_5 3.337891 1_555
Bi1_1 Mg1_1 3.502275 1_555
Bi1_1 Mg1_5 3.502275 1_555
Bi1_2 Mg1_3 3.267467 1_555
Bi1_2 Mg1_7 3.267467 1_555
Bi1_2 Bi1_6 3.274259 1_455
Bi1_2 Bi1_6 3.274259 1_555
Bi1_2 Mg0_0 3.337891 1_555
Bi1_2 Mg0_4 3.337891 1_555
Bi1_2 Mg0_2 3.337891 1_555
Bi1_2 Mg0_6 3.337891 1_555
Bi1_2 Mg1_2 3.502275 1_555
Bi1_2 Mg1_6 3.502275 1_555
Bi1_3 Mg1_6 3.267467 1_556
Bi1_3 Mg1_2 3.267467 1_556
Bi1_3 Bi1_7 3.274259 1_455
Bi1_3 Bi1_7 3.274259 1_555
Bi1_3 Mg0_1 3.337891 1_555
Bi1_3 Mg0_5 3.337891 1_555
Bi1_3 Mg0_3 3.337891 1_555
Bi1_3 Mg0_7 3.337891 1_555
Bi1_3 Mg1_7 3.502275 1_555
Bi1_3 Mg1_3 3.502275 1_555
Bi1_4 Mg1_1 3.267467 1_655
Bi1_4 Mg1_5 3.267467 1_555
Bi1_4 Mg0_6 3.337891 1_545
Bi1_4 Mg0_2 3.337891 1_645
Bi1_4 Mg0_0 3.337891 1_655
Bi1_4 Mg0_4 3.337891 1_555
Bi1_4 Mg1_4 3.502275 1_555
Bi1_4 Mg1_0 3.502275 1_655
Bi1_5 Mg1_4 3.267467 1_556
Bi1_5 Mg1_0 3.267467 1_656
Bi1_5 Mg0_7 3.337891 1_545
Bi1_5 Mg0_3 3.337891 1_645
Bi1_5 Mg0_1 3.337891 1_655
Bi1_5 Mg0_5 3.337891 1_555
Bi1_5 Mg1_5 3.502275 1_555
Bi1_5 Mg1_1 3.502275 1_655
Bi1_6 Mg1_7 3.267467 1_555
Bi1_6 Mg1_3 3.267467 1_655
Bi1_6 Mg0_0 3.337891 1_655
Bi1_6 Mg0_4 3.337891 1_555
Bi1_6 Mg0_2 3.337891 1_655
Bi1_6 Mg0_6 3.337891 1_555
Bi1_6 Mg1_2 3.502275 1_655
Bi1_6 Mg1_6 3.502275 1_555
Bi1_7 Mg1_2 3.267467 1_656
Bi1_7 Mg1_6 3.267467 1_556
Bi1_7 Mg0_1 3.337891 1_655
Bi1_7 Mg0_5 3.337891 1_555
Bi1_7 Mg0_3 3.337891 1_655
Bi1_7 Mg0_7 3.337891 1_555
Bi1_7 Mg1_3 3.502275 1_655
Bi1_7 Mg1_7 3.502275 1_555
