# generated using pymatgen
data_Pu2Zn17
_symmetry_space_group_name_H-M   'P 1'
_cell_length_a   8.91673473
_cell_length_b   8.91673473
_cell_length_c   8.90814700
_cell_angle_alpha   90.00000000
_cell_angle_beta   90.00000000
_cell_angle_gamma   120.00000538
_symmetry_Int_Tables_number   1
_chemical_formula_structural   Pu2Zn17
_chemical_formula_sum   'Pu4 Zn34'
_cell_volume   613.38009174
_cell_formula_units_Z   2
loop_
 _symmetry_equiv_pos_site_id
 _symmetry_equiv_pos_as_xyz
  1  'x, y, z'
loop_
 _atom_site_type_symbol
 _atom_site_label
 _atom_site_symmetry_multiplicity
 _atom_site_fract_x
 _atom_site_fract_y
 _atom_site_fract_z
 _atom_site_occupancy
  Pu  Pu0  1  0.00000000  0.00000000  0.75000000  1
  Pu  Pu1  1  0.00000000  0.00000000  0.25000000  1
  Pu  Pu2  1  0.33333300  0.66666700  0.25000000  1
  Pu  Pu3  1  0.66666700  0.33333300  0.75000000  1
  Zn  Zn0  1  0.33333300  0.66666700  0.90292100  1
  Zn  Zn1  1  0.66666700  0.33333300  0.09707900  1
  Zn  Zn2  1  0.66666700  0.33333300  0.40292100  1
  Zn  Zn3  1  0.33333300  0.66666700  0.59707900  1
  Zn  Zn4  1  0.50000000  0.50000000  0.00000000  1
  Zn  Zn5  1  0.50000000  0.00000000  0.00000000  1
  Zn  Zn6  1  0.00000000  0.50000000  0.00000000  1
  Zn  Zn7  1  0.50000000  0.50000000  0.50000000  1
  Zn  Zn8  1  0.50000000  0.00000000  0.50000000  1
  Zn  Zn9  1  0.00000000  0.50000000  0.50000000  1
  Zn  Zn10  1  0.32936300  0.36123000  0.75000000  1
  Zn  Zn11  1  0.63877000  0.96813400  0.75000000  1
  Zn  Zn12  1  0.03186600  0.67063700  0.75000000  1
  Zn  Zn13  1  0.63877000  0.67063700  0.75000000  1
  Zn  Zn14  1  0.03186600  0.36123000  0.75000000  1
  Zn  Zn15  1  0.32936300  0.96813400  0.75000000  1
  Zn  Zn16  1  0.67063700  0.63877000  0.25000000  1
  Zn  Zn17  1  0.36123000  0.03186600  0.25000000  1
  Zn  Zn18  1  0.96813400  0.32936300  0.25000000  1
  Zn  Zn19  1  0.36123000  0.32936300  0.25000000  1
  Zn  Zn20  1  0.96813400  0.63877000  0.25000000  1
  Zn  Zn21  1  0.67063700  0.03186600  0.25000000  1
  Zn  Zn22  1  0.16153800  0.83846200  0.01807000  1
  Zn  Zn23  1  0.16153800  0.32307600  0.01807000  1
  Zn  Zn24  1  0.67692400  0.83846200  0.01807000  1
  Zn  Zn25  1  0.83846200  0.16153800  0.98193000  1
  Zn  Zn26  1  0.83846200  0.67692400  0.98193000  1
  Zn  Zn27  1  0.32307600  0.16153800  0.98193000  1
  Zn  Zn28  1  0.83846200  0.16153800  0.51807000  1
  Zn  Zn29  1  0.83846200  0.67692400  0.51807000  1
  Zn  Zn30  1  0.32307600  0.16153800  0.51807000  1
  Zn  Zn31  1  0.16153800  0.83846200  0.48193000  1
  Zn  Zn32  1  0.16153800  0.32307600  0.48193000  1
  Zn  Zn33  1  0.67692400  0.83846200  0.48193000  1
loop_
_geom_bond_atom_site_label_1
_geom_bond_atom_site_label_2
_geom_bond_distance
_geom_bond_site_symmetry_2
Pu0 Zn15 3.088731 1_545
Pu0 Zn12 3.088731 1_545
Pu0 Zn10 3.088735 1_555
Pu0 Zn13 3.088735 1_445
Pu0 Zn11 3.088739 1_445
Pu0 Zn14 3.088739 1_555
Pu0 Zn30 3.239261 1_555
Pu0 Zn29 3.239261 1_445
Pu0 Zn26 3.239261 1_445
Pu0 Zn27 3.239261 1_555
Pu0 Zn28 3.239261 1_455
Pu0 Zn25 3.239261 1_455
Pu0 Zn32 3.453514 1_555
Pu0 Zn23 3.453514 1_556
Pu0 Zn33 3.453514 1_445
Pu0 Zn24 3.453514 1_446
Pu0 Zn31 3.453514 1_545
Pu0 Zn22 3.453514 1_546
Pu1 Zn18 3.088731 1_455
Pu1 Zn21 3.088731 1_455
Pu1 Zn19 3.088735 1_555
Pu1 Zn16 3.088735 1_445
Pu1 Zn20 3.088739 1_445
Pu1 Zn17 3.088739 1_555
Pu1 Zn33 3.239261 1_445
Pu1 Zn24 3.239261 1_445
Pu1 Zn32 3.239261 1_555
Pu1 Zn23 3.239261 1_555
Pu1 Zn22 3.239261 1_545
Pu1 Zn31 3.239261 1_545
Pu1 Zn27 3.453514 1_554
Pu1 Zn26 3.453514 1_444
Pu1 Zn29 3.453514 1_445
Pu1 Zn30 3.453514 1_555
Pu1 Zn25 3.453514 1_454
Pu1 Zn28 3.453514 1_455
Pu2 Zn3 3.091831 1_555
Pu2 Zn0 3.091831 1_554
Pu2 Zn17 3.139407 1_565
Pu2 Zn20 3.139407 1_455
Pu2 Zn21 3.139415 1_565
Pu2 Zn18 3.139415 1_455
Pu2 Zn16 3.139425 1_555
Pu2 Zn19 3.139425 1_555
Pu2 Zn31 3.362786 1_555
Pu2 Zn22 3.362786 1_555
Pu2 Zn23 3.362792 1_555
Pu2 Zn32 3.362792 1_555
Pu2 Zn24 3.362792 1_555
Pu2 Zn33 3.362792 1_555
Pu2 Zn9 3.403727 1_555
Pu2 Zn5 3.403727 1_565
Pu2 Zn8 3.403727 1_565
Pu2 Zn6 3.403727 1_555
Pu2 Zn7 3.403733 1_555
Pu2 Zn4 3.403733 1_555
Pu3 Zn1 3.091831 1_556
Pu3 Zn2 3.091831 1_555
Pu3 Zn14 3.139407 1_655
Pu3 Zn11 3.139407 1_545
Pu3 Zn12 3.139415 1_655
Pu3 Zn15 3.139415 1_545
Pu3 Zn13 3.139425 1_555
Pu3 Zn10 3.139425 1_555
Pu3 Zn28 3.362786 1_555
Pu3 Zn25 3.362786 1_555
Pu3 Zn29 3.362792 1_555
Pu3 Zn30 3.362792 1_555
Pu3 Zn26 3.362792 1_555
Pu3 Zn27 3.362792 1_555
Pu3 Zn8 3.403727 1_555
Pu3 Zn9 3.403727 1_655
Pu3 Zn6 3.403727 1_656
Pu3 Zn5 3.403727 1_556
Pu3 Zn4 3.403733 1_556
Pu3 Zn7 3.403733 1_555
Zn0 Zn6 2.715425 1_556
Zn0 Zn5 2.715425 1_566
Zn0 Zn4 2.715433 1_556
Zn0 Zn3 2.724485 1_555
Zn0 Zn22 2.844625 1_556
Zn0 Zn24 2.844632 1_556
Zn0 Zn23 2.844632 1_556
Zn0 Zn11 3.029522 1_555
Zn0 Zn14 3.029522 1_555
Zn0 Zn10 3.029522 1_555
Zn0 Zn13 3.029522 1_555
Zn0 Zn12 3.029522 1_555
Zn0 Zn15 3.029522 1_555
Zn1 Zn6 2.715425 1_655
Zn1 Zn5 2.715425 1_555
Zn1 Zn4 2.715433 1_555
Zn1 Zn2 2.724485 1_555
Zn1 Zn25 2.844625 1_554
Zn1 Zn26 2.844632 1_554
Zn1 Zn27 2.844632 1_554
Zn1 Zn20 3.029522 1_555
Zn1 Zn17 3.029522 1_555
Zn1 Zn19 3.029522 1_555
Zn1 Zn16 3.029522 1_555
Zn1 Zn21 3.029522 1_555
Zn1 Zn18 3.029522 1_555
Zn2 Zn9 2.715425 1_655
Zn2 Zn8 2.715425 1_555
Zn2 Zn7 2.715433 1_555
Zn2 Zn28 2.844625 1_555
Zn2 Zn29 2.844632 1_555
Zn2 Zn30 2.844632 1_555
Zn2 Zn20 3.029522 1_555
Zn2 Zn21 3.029522 1_555
Zn3 Zn8 2.715425 1_565
Zn3 Zn9 2.715425 1_555
Zn3 Zn7 2.715433 1_555
Zn3 Zn31 2.844625 1_555
Zn3 Zn33 2.844632 1_555
Zn3 Zn32 2.844632 1_555
Zn10 Zn7 2.631184 1_555
Zn10 Zn4 2.631184 1_556
Zn10 Zn14 2.652702 1_555
Zn10 Zn30 2.709703 1_555
Zn10 Zn27 2.709703 1_555
Zn10 Zn32 2.747468 1_555
Zn10 Zn23 2.747468 1_556
Zn10 Zn13 2.758900 1_555
Zn10 Zn3 3.029522 1_555
Zn11 Zn5 2.631181 1_566
Zn11 Zn8 2.631181 1_565
Zn11 Zn13 2.652702 1_555
Zn11 Zn28 2.709701 1_565
Zn11 Zn25 2.709701 1_565
Zn11 Zn33 2.747472 1_555
Zn11 Zn24 2.747472 1_556
Zn11 Zn15 2.758900 1_555
Zn11 Zn3 3.029522 1_555
Zn12 Zn9 2.631186 1_555
Zn12 Zn6 2.631186 1_556
Zn12 Zn15 2.652702 1_555
Zn12 Zn29 2.709698 1_455
Zn12 Zn26 2.709698 1_455
Zn12 Zn31 2.747469 1_555
Zn12 Zn22 2.747469 1_556
Zn12 Zn14 2.758900 1_555
Zn12 Zn3 3.029522 1_555
Zn13 Zn4 2.631184 1_556
Zn13 Zn7 2.631184 1_555
Zn13 Zn29 2.709703 1_555
Zn13 Zn26 2.709703 1_555
Zn13 Zn33 2.747468 1_555
Zn13 Zn24 2.747468 1_556
Zn13 Zn3 3.029522 1_555
Zn14 Zn9 2.631181 1_555
Zn14 Zn6 2.631181 1_556
Zn14 Zn28 2.709701 1_455
Zn14 Zn25 2.709701 1_455
Zn14 Zn32 2.747472 1_555
Zn14 Zn23 2.747472 1_556
Zn14 Zn3 3.029522 1_555
Zn15 Zn5 2.631186 1_566
Zn15 Zn8 2.631186 1_565
Zn15 Zn30 2.709698 1_565
Zn15 Zn27 2.709698 1_565
Zn15 Zn31 2.747469 1_555
Zn15 Zn22 2.747469 1_556
Zn15 Zn3 3.029522 1_555
Zn16 Zn4 2.631184 1_555
Zn16 Zn7 2.631184 1_555
Zn16 Zn20 2.652702 1_555
Zn16 Zn24 2.709703 1_555
Zn16 Zn33 2.709703 1_555
Zn16 Zn26 2.747468 1_554
Zn16 Zn29 2.747468 1_555
Zn16 Zn19 2.758900 1_555
Zn16 Zn2 3.029522 1_555
Zn17 Zn5 2.631181 1_555
Zn17 Zn8 2.631181 1_555
Zn17 Zn19 2.652702 1_555
Zn17 Zn22 2.709701 1_545
Zn17 Zn31 2.709701 1_545
Zn17 Zn27 2.747472 1_554
Zn17 Zn30 2.747472 1_555
Zn17 Zn21 2.758900 1_555
Zn17 Zn2 3.029522 1_555
Zn18 Zn9 2.631186 1_655
Zn18 Zn6 2.631186 1_655
Zn18 Zn21 2.652702 1_555
Zn18 Zn32 2.709698 1_655
Zn18 Zn23 2.709698 1_655
Zn18 Zn25 2.747469 1_554
Zn18 Zn28 2.747469 1_555
Zn18 Zn20 2.758900 1_555
Zn18 Zn2 3.029522 1_555
Zn19 Zn7 2.631184 1_555
Zn19 Zn4 2.631184 1_555
Zn19 Zn23 2.709703 1_555
Zn19 Zn32 2.709703 1_555
Zn19 Zn27 2.747468 1_554
Zn19 Zn30 2.747468 1_555
Zn19 Zn2 3.029522 1_555
Zn20 Zn6 2.631181 1_655
Zn20 Zn9 2.631181 1_655
Zn20 Zn31 2.709701 1_655
Zn20 Zn22 2.709701 1_655
Zn20 Zn26 2.747472 1_554
Zn20 Zn29 2.747472 1_555
Zn21 Zn5 2.631186 1_555
Zn21 Zn8 2.631186 1_555
Zn21 Zn33 2.709698 1_545
Zn21 Zn24 2.709698 1_545
Zn21 Zn25 2.747469 1_554
Zn21 Zn28 2.747469 1_555
Zn22 Zn26 2.515517 1_454
Zn22 Zn27 2.515517 1_564
Zn22 Zn6 2.619494 1_555
Zn22 Zn5 2.619494 1_565
Zn23 Zn25 2.515517 1_454
Zn23 Zn27 2.515518 1_554
Zn23 Zn4 2.619494 1_555
Zn23 Zn6 2.619494 1_555
Zn24 Zn25 2.515517 1_564
Zn24 Zn26 2.515518 1_554
Zn24 Zn4 2.619494 1_555
Zn24 Zn5 2.619494 1_565
Zn25 Zn5 2.619494 1_556
Zn25 Zn6 2.619494 1_656
Zn26 Zn4 2.619494 1_556
Zn26 Zn6 2.619494 1_656
Zn27 Zn4 2.619494 1_556
Zn27 Zn5 2.619494 1_556
Zn28 Zn32 2.515517 1_655
Zn28 Zn33 2.515517 1_545
Zn28 Zn8 2.619494 1_555
Zn28 Zn9 2.619494 1_655
Zn29 Zn31 2.515517 1_655
Zn29 Zn33 2.515518 1_555
Zn29 Zn7 2.619494 1_555
Zn29 Zn9 2.619494 1_655
Zn30 Zn31 2.515517 1_545
Zn30 Zn32 2.515518 1_555
Zn30 Zn7 2.619494 1_555
Zn30 Zn8 2.619494 1_555
Zn31 Zn9 2.619494 1_555
Zn31 Zn8 2.619494 1_565
Zn32 Zn7 2.619494 1_555
Zn32 Zn9 2.619494 1_555
Zn33 Zn7 2.619494 1_555
Zn33 Zn8 2.619494 1_565
