# generated using pymatgen
data_Co3Ni9P4
_symmetry_space_group_name_H-M   'P 1'
_cell_length_a   4.37347500
_cell_length_b   6.65010327
_cell_length_c   6.66696730
_cell_angle_alpha   83.82522046
_cell_angle_beta   70.95284086
_cell_angle_gamma   70.87934544
_symmetry_Int_Tables_number   1
_chemical_formula_structural   Co3Ni9P4
_chemical_formula_sum   'Co3 Ni9 P4'
_cell_volume   173.17458041
_cell_formula_units_Z   1
loop_
 _symmetry_equiv_pos_site_id
 _symmetry_equiv_pos_as_xyz
  1  'x, y, z'
loop_
 _atom_site_type_symbol
 _atom_site_label
 _atom_site_symmetry_multiplicity
 _atom_site_fract_x
 _atom_site_fract_y
 _atom_site_fract_z
 _atom_site_occupancy
  Co  Co0  1  0.32564600  0.81179100  0.03309800  1
  Co  Co1  1  0.86140300  0.96711900  0.81532900  1
  Co  Co2  1  0.64450500  0.03167300  0.18450100  1
  Ni  Ni0  1  0.58378100  0.39025500  0.94823800  1
  Ni  Ni1  1  0.92562800  0.61054300  0.05168700  1
  Ni  Ni2  1  0.46493200  0.94929100  0.61035300  1
  Ni  Ni3  1  0.02450300  0.05165800  0.38936600  1
  Ni  Ni4  1  0.61152800  0.39613500  0.33276700  1
  Ni  Ni5  1  0.33860700  0.60437500  0.66761700  1
  Ni  Ni6  1  0.05667100  0.33278000  0.60424600  1
  Ni  Ni7  1  0.99175000  0.66764400  0.39667300  1
  Ni  Ni8  1  0.16599400  0.18662400  0.96680300  1
  P  P0  1  0.19678200  0.33285200  0.23868800  1
  P  P1  1  0.76585900  0.66756800  0.76235100  1
  P  P2  1  0.57095100  0.23707200  0.66546600  1
  P  P3  1  0.47146100  0.76262000  0.33281600  1
loop_
_geom_bond_atom_site_label_1
_geom_bond_atom_site_label_2
_geom_bond_distance
_geom_bond_site_symmetry_2
Co0 P1 2.186148 1_554
Co0 P3 2.249667 1_555
Co1 P2 2.187067 1_565
Co1 P1 2.249580 1_555
Co2 P3 2.184011 1_545
Co2 P0 2.258510 1_555
Ni0 P0 2.210247 1_556
Ni0 P2 2.261545 1_555
Ni0 P1 2.323185 1_555
Ni1 P1 2.214015 1_554
Ni1 P3 2.267805 1_555
Ni1 P0 2.325060 1_655
Ni2 P2 2.203708 1_565
Ni2 P1 2.261798 1_555
Ni2 P3 2.324218 1_555
Ni3 P3 2.207084 1_545
Ni3 P0 2.257991 1_555
Ni3 P2 2.312174 1_455
Ni4 P0 2.271589 1_555
Ni4 P3 2.310194 1_555
Ni4 P0 2.329224 1_655
Ni4 P2 2.330593 1_555
Ni5 P1 2.277039 1_455
Ni5 P2 2.317556 1_555
Ni5 P1 2.325704 1_555
Ni5 P3 2.340106 1_555
Ni6 P2 2.288233 1_555
Ni6 P0 2.310941 1_555
Ni6 P2 2.312622 1_455
Ni6 P1 2.336712 1_455
Ni7 P3 2.282337 1_655
Ni7 P1 2.312509 1_555
Ni7 P3 2.321821 1_555
Ni7 P0 2.334623 1_655
Ni8 P0 2.207652 1_556
Ni8 P2 2.281941 1_555
