# generated using pymatgen
data_CsTaSe3
_symmetry_space_group_name_H-M   'P 1'
_cell_length_a   7.68437498
_cell_length_b   7.68437498
_cell_length_c   6.18527967
_cell_angle_alpha   90.00000000
_cell_angle_beta   90.00000000
_cell_angle_gamma   119.99999229
_symmetry_Int_Tables_number   1
_chemical_formula_structural   CsTaSe3
_chemical_formula_sum   'Cs2 Ta2 Se6'
_cell_volume   316.30576374
_cell_formula_units_Z   2
loop_
 _symmetry_equiv_pos_site_id
 _symmetry_equiv_pos_as_xyz
  1  'x, y, z'
loop_
 _atom_site_type_symbol
 _atom_site_label
 _atom_site_symmetry_multiplicity
 _atom_site_fract_x
 _atom_site_fract_y
 _atom_site_fract_z
 _atom_site_occupancy
  Cs  Cs0  1  0.33333300  0.66666700  0.25225025  1
  Cs  Cs1  1  0.66666700  0.33333300  0.75225025  1
  Ta  Ta0  1  -0.00000000  0.00000000  0.95510497  1
  Ta  Ta1  1  -0.00000000  0.00000000  0.45510497  1
  Se  Se0  1  0.15725640  0.84274360  0.74934426  1
  Se  Se1  1  0.15725640  0.31451179  0.74934426  1
  Se  Se2  1  0.68548821  0.84274360  0.74934426  1
  Se  Se3  1  0.84274360  0.15725640  0.24934426  1
  Se  Se4  1  0.84274360  0.68548821  0.24934426  1
  Se  Se5  1  0.31451179  0.15725640  0.24934426  1
loop_
_geom_bond_atom_site_label_1
_geom_bond_atom_site_label_2
_geom_bond_distance
_geom_bond_site_symmetry_2
Cs0 Se4 3.844271 1_555
Cs0 Se5 3.844271 1_555
Cs0 Se5 3.844271 1_565
Cs0 Se4 3.844271 1_455
Cs0 Se3 3.844271 1_565
Cs0 Se3 3.844271 1_455
Cs0 Se0 3.865968 1_555
Cs0 Se2 3.865976 1_555
Cs0 Se1 3.865976 1_555
Cs0 Se0 3.894619 1_554
Cs0 Se1 3.894628 1_554
Cs0 Se2 3.894628 1_554
Cs1 Se2 3.844271 1_555
Cs1 Se1 3.844271 1_555
Cs1 Se1 3.844271 1_655
Cs1 Se2 3.844271 1_545
Cs1 Se0 3.844271 1_655
Cs1 Se0 3.844271 1_545
Cs1 Se3 3.865968 1_556
Cs1 Se4 3.865976 1_556
Cs1 Se5 3.865976 1_556
Cs1 Se3 3.894619 1_555
Cs1 Se4 3.894628 1_555
Cs1 Se5 3.894628 1_555
Se0 Ta0 2.449602 1_565
Se0 Ta1 2.773633 1_565
Se1 Ta0 2.449596 1_555
Se1 Ta1 2.773628 1_555
Se2 Ta0 2.449596 1_665
Se2 Ta1 2.773628 1_665
Se3 Ta1 2.449602 1_655
Se3 Ta0 2.773633 1_654
Se4 Ta1 2.449596 1_665
Se4 Ta0 2.773628 1_664
Se5 Ta1 2.449596 1_555
Se5 Ta0 2.773628 1_554
