# generated using pymatgen
data_Pr5Sn3
_symmetry_space_group_name_H-M   'P 1'
_cell_length_a   6.93843657
_cell_length_b   9.37717952
_cell_length_c   9.37719888
_cell_angle_alpha   120.00009766
_cell_angle_beta   90.00000000
_cell_angle_gamma   90.00000000
_symmetry_Int_Tables_number   1
_chemical_formula_structural   Pr5Sn3
_chemical_formula_sum   'Pr10 Sn6'
_cell_volume   528.36882369
_cell_formula_units_Z   2
loop_
 _symmetry_equiv_pos_site_id
 _symmetry_equiv_pos_as_xyz
  1  'x, y, z'
loop_
 _atom_site_type_symbol
 _atom_site_label
 _atom_site_symmetry_multiplicity
 _atom_site_fract_x
 _atom_site_fract_y
 _atom_site_fract_z
 _atom_site_occupancy
  Pr  Pr0  1  0.50000100  0.33333568  0.66666836  1
  Pr  Pr1  1  0.50000100  0.66666732  0.33333164  1
  Pr  Pr2  1  0.00000100  0.66666432  0.33333164  1
  Pr  Pr3  1  0.00000100  0.33333268  0.66666836  1
  Pr  Pr4  1  0.75000000  0.24483687  0.00000000  1
  Pr  Pr5  1  0.74999800  0.75515952  0.75515965  1
  Pr  Pr6  1  0.74999800  -0.00000013  0.24483935  1
  Pr  Pr7  1  0.25000000  0.75516313  -0.00000000  1
  Pr  Pr8  1  0.24999800  0.24484048  0.24484035  1
  Pr  Pr9  1  0.24999800  0.00000013  0.75516065  1
  Sn  Sn0  1  0.75000100  0.60770899  -0.00000000  1
  Sn  Sn1  1  0.75000100  0.39229057  0.39229157  1
  Sn  Sn2  1  0.75000100  -0.00000000  0.60770943  1
  Sn  Sn3  1  0.25000100  0.39229101  0.00000000  1
  Sn  Sn4  1  0.25000100  0.60770943  0.60770843  1
  Sn  Sn5  1  0.25000100  0.00000000  0.39229057  1
loop_
_geom_bond_atom_site_label_1
_geom_bond_atom_site_label_2
_geom_bond_distance
_geom_bond_site_symmetry_2
Pr0 Sn0 3.369941 1_556
Pr0 Sn4 3.369954 1_555
Pr0 Sn3 3.369954 1_556
Pr0 Sn1 3.369956 1_555
Pr0 Sn2 3.369970 1_555
Pr0 Sn5 3.369973 1_555
Pr0 Pr3 3.469218 1_655
Pr0 Pr3 3.469218 1_555
Pr0 Pr5 4.007641 1_555
Pr0 Pr7 4.007670 1_556
Pr0 Pr6 4.007681 1_555
Pr0 Pr4 4.007690 1_556
Pr0 Pr8 4.007691 1_555
Pr0 Pr9 4.007693 1_555
Pr1 Sn0 3.369946 1_555
Pr1 Sn5 3.369947 1_565
Pr1 Sn3 3.369950 1_555
Pr1 Sn2 3.369957 1_565
Pr1 Sn4 3.369972 1_555
Pr1 Sn1 3.369978 1_555
Pr1 Pr2 3.469218 1_655
Pr1 Pr2 3.469218 1_555
Pr1 Pr6 4.007650 1_565
Pr1 Pr7 4.007679 1_555
Pr1 Pr4 4.007681 1_555
Pr1 Pr5 4.007681 1_555
Pr1 Pr8 4.007684 1_555
Pr1 Pr9 4.007691 1_565
Pr2 Sn3 3.369941 1_555
Pr2 Sn1 3.369954 1_455
Pr2 Sn0 3.369954 1_455
Pr2 Sn4 3.369956 1_555
Pr2 Sn5 3.369970 1_565
Pr2 Sn2 3.369973 1_465
Pr2 Pr8 4.007641 1_555
Pr2 Pr4 4.007670 1_455
Pr2 Pr9 4.007681 1_565
Pr2 Pr7 4.007690 1_555
Pr2 Pr5 4.007691 1_455
Pr2 Pr6 4.007693 1_465
Pr3 Sn3 3.369946 1_556
Pr3 Sn2 3.369947 1_455
Pr3 Sn0 3.369950 1_456
Pr3 Sn5 3.369957 1_555
Pr3 Sn1 3.369972 1_455
Pr3 Sn4 3.369978 1_555
Pr3 Pr9 4.007650 1_555
Pr3 Pr4 4.007679 1_456
Pr3 Pr7 4.007681 1_556
Pr3 Pr8 4.007681 1_555
Pr3 Pr5 4.007684 1_455
Pr3 Pr6 4.007691 1_455
Pr4 Sn2 3.218299 1_554
Pr4 Sn1 3.218310 1_555
Pr4 Sn0 3.402717 1_555
Pr4 Sn3 3.734608 1_555
Pr4 Sn3 3.734621 1_655
Pr4 Pr5 3.976605 1_544
Pr4 Pr6 3.976607 1_555
Pr4 Pr9 4.160107 1_654
Pr4 Pr8 4.160112 1_655
Pr4 Pr9 4.160130 1_554
Pr4 Pr8 4.160135 1_555
Pr5 Sn2 3.218306 1_565
Pr5 Sn0 3.218309 1_556
Pr5 Sn1 3.402682 1_555
Pr5 Sn4 3.734583 1_555
Pr5 Sn4 3.734622 1_655
Pr5 Pr6 3.976632 1_566
Pr5 Pr7 4.160112 1_556
Pr5 Pr9 4.160129 1_565
Pr5 Pr9 4.160129 1_665
Pr5 Pr7 4.160135 1_656
Pr6 Sn1 3.218297 1_555
Pr6 Sn0 3.218299 1_545
Pr6 Sn2 3.402704 1_555
Pr6 Sn5 3.734586 1_555
Pr6 Sn5 3.734625 1_655
Pr6 Pr7 4.160107 1_545
Pr6 Pr8 4.160129 1_555
Pr6 Pr8 4.160129 1_655
Pr6 Pr7 4.160130 1_645
Pr7 Sn5 3.218299 1_565
Pr7 Sn4 3.218310 1_554
Pr7 Sn3 3.402717 1_555
Pr7 Sn0 3.734608 1_455
Pr7 Sn0 3.734621 1_555
Pr7 Pr8 3.976605 1_565
Pr7 Pr9 3.976607 1_564
Pr8 Sn5 3.218306 1_555
Pr8 Sn3 3.218309 1_555
Pr8 Sn4 3.402682 1_555
Pr8 Sn1 3.734583 1_455
Pr8 Sn1 3.734622 1_555
Pr8 Pr9 3.976632 1_554
Pr9 Sn4 3.218297 1_545
Pr9 Sn3 3.218299 1_556
Pr9 Sn5 3.402704 1_555
Pr9 Sn2 3.734586 1_455
Pr9 Sn2 3.734625 1_555
