# generated using pymatgen
data_CsYbMnSe3
_symmetry_space_group_name_H-M   'P 1'
_cell_length_a   8.25284998
_cell_length_b   8.25284998
_cell_length_c   11.41116800
_cell_angle_alpha   90.00000000
_cell_angle_beta   90.00000000
_cell_angle_gamma   149.85052877
_symmetry_Int_Tables_number   1
_chemical_formula_structural   CsYbMnSe3
_chemical_formula_sum   'Cs2 Yb2 Mn2 Se6'
_cell_volume   390.35925154
_cell_formula_units_Z   2
loop_
 _symmetry_equiv_pos_site_id
 _symmetry_equiv_pos_as_xyz
  1  'x, y, z'
loop_
 _atom_site_type_symbol
 _atom_site_label
 _atom_site_symmetry_multiplicity
 _atom_site_fract_x
 _atom_site_fract_y
 _atom_site_fract_z
 _atom_site_occupancy
  Cs  Cs0  1  0.25792600  0.74207400  0.25000000  1
  Cs  Cs1  1  0.74207400  0.25792600  0.75000000  1
  Yb  Yb0  1  0.00000000  0.00000000  0.00000000  1
  Yb  Yb1  1  0.00000000  0.00000000  0.50000000  1
  Mn  Mn0  1  0.53785500  0.46214500  0.25000000  1
  Mn  Mn1  1  0.46214500  0.53785500  0.75000000  1
  Se  Se0  1  0.61488400  0.38511600  0.07170100  1
  Se  Se1  1  0.38511600  0.61488400  0.92829900  1
  Se  Se2  1  0.38511600  0.61488400  0.57170100  1
  Se  Se3  1  0.61488400  0.38511600  0.42829900  1
  Se  Se4  1  0.95679500  0.04320500  0.25000000  1
  Se  Se5  1  0.04320500  0.95679500  0.75000000  1
loop_
_geom_bond_atom_site_label_1
_geom_bond_atom_site_label_2
_geom_bond_distance
_geom_bond_site_symmetry_2
Cs0 Se0 3.734153 1_455
Cs0 Se3 3.734153 1_455
Cs0 Se0 3.734153 1_565
Cs0 Se3 3.734153 1_565
Cs0 Se4 3.827899 1_455
Cs0 Se4 3.827899 1_565
Cs0 Se2 4.193486 1_555
Cs0 Se1 4.193486 1_554
Cs1 Se2 3.734153 1_655
Cs1 Se1 3.734153 1_655
Cs1 Se1 3.734153 1_545
Cs1 Se2 3.734153 1_545
Cs1 Se5 3.827899 1_545
Cs1 Se5 3.827899 1_655
Cs1 Se3 4.193486 1_555
Cs1 Se0 4.193486 1_556
Mn0 Se0 2.376291 1_555
Mn0 Se3 2.376291 1_555
Mn0 Se4 2.505200 1_565
Mn0 Se4 2.505200 1_455
Mn1 Se2 2.376291 1_555
Mn1 Se1 2.376291 1_555
Mn1 Se5 2.505200 1_655
Mn1 Se5 2.505200 1_545
Se0 Yb0 2.937506 1_555
Se0 Yb0 2.937506 1_665
Se1 Yb0 2.937506 1_556
Se1 Yb0 2.937506 1_666
Se2 Yb1 2.937506 1_555
Se2 Yb1 2.937506 1_665
Se3 Yb1 2.937506 1_555
Se3 Yb1 2.937506 1_665
Se4 Yb1 2.934719 1_655
Se4 Yb0 2.934719 1_655
Se5 Yb1 2.934719 1_565
Se5 Yb0 2.934719 1_566
