# generated using pymatgen
data_LiAl4Tl4O12
_symmetry_space_group_name_H-M   'P 1'
_cell_length_a   5.27926994
_cell_length_b   5.47276100
_cell_length_c   8.04095987
_cell_angle_alpha   85.57588326
_cell_angle_beta   89.55054120
_cell_angle_gamma   90.40777935
_symmetry_Int_Tables_number   1
_chemical_formula_structural   LiAl4Tl4O12
_chemical_formula_sum   'Li1 Al4 Tl4 O12'
_cell_volume   231.61457687
_cell_formula_units_Z   1
loop_
 _symmetry_equiv_pos_site_id
 _symmetry_equiv_pos_as_xyz
  1  'x, y, z'
loop_
 _atom_site_type_symbol
 _atom_site_label
 _atom_site_symmetry_multiplicity
 _atom_site_fract_x
 _atom_site_fract_y
 _atom_site_fract_z
 _atom_site_occupancy
  Li  Li0  1  0.97832000  0.17971600  0.40704400  1
  Al  Al0  1  0.99179600  0.47942600  0.97301100  1
  Al  Al1  1  0.99701900  0.55999100  0.51583000  1
  Al  Al2  1  0.51044300  0.99477800  0.98517800  1
  Al  Al3  1  0.50323400  0.01539200  0.50653800  1
  Tl  Tl0  1  0.01007000  0.98857800  0.75180600  1
  Tl  Tl1  1  0.49213200  0.46796200  0.72988600  1
  Tl  Tl2  1  0.49535500  0.45429300  0.23200500  1
  Tl  Tl3  1  0.01005100  0.90524000  0.19231100  1
  O  O0  1  0.07719600  0.50355900  0.28277800  1
  O  O1  1  0.21257300  0.23787700  0.56561200  1
  O  O2  1  0.28559800  0.28306600  0.95210700  1
  O  O3  1  0.22045100  0.77504700  0.96216000  1
  O  O4  1  0.29316100  0.74065600  0.56304700  1
  O  O5  1  0.40547900  0.02309500  0.26244300  1
  O  O6  1  0.59187600  0.01969800  0.75394700  1
  O  O7  1  0.79088600  0.20389800  0.04108700  1
  O  O8  1  0.69356700  0.33803700  0.48004100  1
  O  O9  1  0.71748000  0.70468300  0.03979200  1
  O  O10  1  0.81632300  0.85507700  0.46244700  1
  O  O11  1  0.90698800  0.53243200  0.74926000  1
loop_
_geom_bond_atom_site_label_1
_geom_bond_atom_site_label_2
_geom_bond_distance
_geom_bond_site_symmetry_2
Li0 O1 1.827068 1_655
Li0 O8 1.854266 1_555
Li0 O10 1.984118 1_545
Li0 O0 2.029150 1_655
Li0 Tl3 2.380133 1_645
Al0 O11 1.858924 1_555
Al0 O7 1.881271 1_556
Al0 O2 1.906929 1_655
Al0 O9 2.005164 1_556
Al0 O3 2.007743 1_655
Al0 O0 2.548026 1_656
Al1 O4 1.900325 1_655
Al1 O10 1.903598 1_555
Al1 O11 1.926940 1_555
Al1 O0 1.965956 1_655
Al1 O8 2.039166 1_555
Al1 O1 2.118889 1_655
Al2 O6 1.899471 1_565
Al2 O7 1.941542 1_566
Al2 O9 1.957733 1_556
Al2 O3 1.958755 1_555
Al2 O2 1.983896 1_565
Al2 O5 2.310149 1_566
Al3 O4 1.886818 1_545
Al3 O10 1.920135 1_545
Al3 O8 2.021461 1_555
Al3 O5 2.030755 1_555
Al3 O1 2.041376 1_555
Al3 O6 2.049137 1_555
O0 Tl2 2.263642 1_555
O0 Tl3 2.292552 1_555
O1 Tl0 2.210181 1_545
O1 Tl1 2.401946 1_555
O2 Tl1 2.253989 1_555
O2 Tl2 2.742173 1_556
O2 Tl0 2.776906 1_545
O3 Tl0 2.281051 1_555
O3 Tl3 2.312738 1_556
O4 Tl1 2.205878 1_555
O4 Tl0 2.586358 1_555
O5 Tl3 2.268789 1_545
O5 Tl2 2.397296 1_555
O6 Tl0 2.215561 1_645
O6 Tl1 2.505967 1_555
O7 Tl3 2.287192 1_645
O7 Tl2 2.643140 1_555
O8 Tl2 2.307392 1_555
O8 Tl1 2.422841 1_555
O9 Tl2 2.294268 1_555
O9 Tl3 2.303847 1_655
O10 Tl3 2.389303 1_655
O10 Tl0 2.698633 1_655
O11 Tl1 2.224475 1_555
O11 Tl0 2.552880 1_655
