# generated using pymatgen
data_Sr3Al2(SiO4)3
_symmetry_space_group_name_H-M   'P 1'
_cell_length_a   10.63113560
_cell_length_b   10.63113560
_cell_length_c   10.63113560
_cell_angle_alpha   109.47122063
_cell_angle_beta   109.47122063
_cell_angle_gamma   109.47122063
_symmetry_Int_Tables_number   1
_chemical_formula_structural   Sr3Al2(SiO4)3
_chemical_formula_sum   'Sr12 Al8 Si12 O48'
_cell_volume   924.94749804
_cell_formula_units_Z   4
loop_
 _symmetry_equiv_pos_site_id
 _symmetry_equiv_pos_as_xyz
  1  'x, y, z'
loop_
 _atom_site_type_symbol
 _atom_site_label
 _atom_site_symmetry_multiplicity
 _atom_site_fract_x
 _atom_site_fract_y
 _atom_site_fract_z
 _atom_site_occupancy
  Sr  Sr0  1  0.87500000  0.75000000  0.62500000  1
  Sr  Sr1  1  0.87500000  0.62500000  0.25000000  1
  Sr  Sr2  1  0.62500000  0.87500000  0.75000000  1
  Sr  Sr3  1  0.25000000  0.87500000  0.62500000  1
  Sr  Sr4  1  0.75000000  0.62500000  0.87500000  1
  Sr  Sr5  1  0.62500000  0.25000000  0.87500000  1
  Sr  Sr6  1  0.12500000  0.25000000  0.37500000  1
  Sr  Sr7  1  0.12500000  0.37500000  0.75000000  1
  Sr  Sr8  1  0.37500000  0.12500000  0.25000000  1
  Sr  Sr9  1  0.75000000  0.12500000  0.37500000  1
  Sr  Sr10  1  0.25000000  0.37500000  0.12500000  1
  Sr  Sr11  1  0.37500000  0.75000000  0.12500000  1
  Al  Al0  1  0.00000000  0.00000000  0.50000000  1
  Al  Al1  1  0.50000000  0.50000000  0.50000000  1
  Al  Al2  1  0.50000000  0.00000000  0.50000000  1
  Al  Al3  1  0.00000000  0.00000000  0.00000000  1
  Al  Al4  1  0.00000000  0.50000000  0.50000000  1
  Al  Al5  1  0.50000000  0.50000000  0.00000000  1
  Al  Al6  1  0.50000000  0.00000000  0.00000000  1
  Al  Al7  1  0.00000000  0.50000000  0.00000000  1
  Si  Si0  1  0.62500000  0.37500000  0.25000000  1
  Si  Si1  1  0.87500000  0.12500000  0.75000000  1
  Si  Si2  1  0.25000000  0.62500000  0.37500000  1
  Si  Si3  1  0.62500000  0.75000000  0.37500000  1
  Si  Si4  1  0.37500000  0.25000000  0.62500000  1
  Si  Si5  1  0.37500000  0.62500000  0.75000000  1
  Si  Si6  1  0.25000000  0.12500000  0.87500000  1
  Si  Si7  1  0.12500000  0.87500000  0.25000000  1
  Si  Si8  1  0.75000000  0.37500000  0.62500000  1
  Si  Si9  1  0.87500000  0.25000000  0.12500000  1
  Si  Si10  1  0.75000000  0.87500000  0.12500000  1
  Si  Si11  1  0.12500000  0.75000000  0.87500000  1
  O  O0  1  0.89165100  0.39067700  0.08251100  1
  O  O1  1  0.80914000  0.89165100  0.00097400  1
  O  O2  1  0.39067700  0.80816600  0.49902600  1
  O  O3  1  0.69183400  0.08251100  0.69086000  1
  O  O4  1  0.80816600  0.49902600  0.39067700  1
  O  O5  1  0.00097400  0.80914000  0.89165100  1
  O  O6  1  0.08251100  0.69086000  0.69183400  1
  O  O7  1  0.00097400  0.69183400  0.10932300  1
  O  O8  1  0.80914000  0.41748900  0.80816600  1
  O  O9  1  0.41748900  0.80816600  0.80914000  1
  O  O10  1  0.69086000  0.49902600  0.60834900  1
  O  O11  1  0.08251100  0.89165100  0.39067700  1
  O  O12  1  0.39067700  0.08251100  0.89165100  1
  O  O13  1  0.10932300  0.00097400  0.69183400  1
  O  O14  1  0.49902600  0.60834900  0.69086000  1
  O  O15  1  0.80816600  0.80914000  0.41748900  1
  O  O16  1  0.10932300  0.60834900  0.41748900  1
  O  O17  1  0.60834900  0.69086000  0.49902600  1
  O  O18  1  0.89165100  0.00097400  0.80914000  1
  O  O19  1  0.69183400  0.10932300  0.00097400  1
  O  O20  1  0.49902600  0.39067700  0.80816600  1
  O  O21  1  0.69086000  0.69183400  0.08251100  1
  O  O22  1  0.60834900  0.41748900  0.10932300  1
  O  O23  1  0.41748900  0.10932300  0.60834900  1
  O  O24  1  0.10834900  0.60932300  0.91748900  1
  O  O25  1  0.19086000  0.10834900  0.99902600  1
  O  O26  1  0.60932300  0.19183400  0.50097400  1
  O  O27  1  0.30816600  0.91748900  0.30914000  1
  O  O28  1  0.19183400  0.50097400  0.60932300  1
  O  O29  1  0.99902600  0.19086000  0.10834900  1
  O  O30  1  0.91748900  0.30914000  0.30816600  1
  O  O31  1  0.99902600  0.30816600  0.89067700  1
  O  O32  1  0.19086000  0.58251100  0.19183400  1
  O  O33  1  0.58251100  0.19183400  0.19086000  1
  O  O34  1  0.30914000  0.50097400  0.39165100  1
  O  O35  1  0.91748900  0.10834900  0.60932300  1
  O  O36  1  0.60932300  0.91748900  0.10834900  1
  O  O37  1  0.89067700  0.99902600  0.30816600  1
  O  O38  1  0.50097400  0.39165100  0.30914000  1
  O  O39  1  0.19183400  0.19086000  0.58251100  1
  O  O40  1  0.89067700  0.39165100  0.58251100  1
  O  O41  1  0.39165100  0.30914000  0.50097400  1
  O  O42  1  0.10834900  0.99902600  0.19086000  1
  O  O43  1  0.30816600  0.89067700  0.99902600  1
  O  O44  1  0.50097400  0.60932300  0.19183400  1
  O  O45  1  0.30914000  0.30816600  0.91748900  1
  O  O46  1  0.39165100  0.58251100  0.89067700  1
  O  O47  1  0.58251100  0.89067700  0.39165100  1
loop_
_geom_bond_atom_site_label_1
_geom_bond_atom_site_label_2
_geom_bond_distance
_geom_bond_site_symmetry_2
Al0 O39 1.976818 1_555
Al0 O35 1.976818 1_455
Al0 O11 1.976818 1_545
Al0 O37 1.976818 1_445
Al0 O13 1.976818 1_555
Al0 O15 1.976818 1_445
Al1 O38 1.976818 1_555
Al1 O41 1.976818 1_555
Al1 O34 1.976818 1_555
Al1 O17 1.976818 1_555
Al1 O14 1.976818 1_555
Al1 O10 1.976818 1_555
Al2 O23 1.976818 1_555
Al2 O3 1.976818 1_555
Al2 O26 1.976818 1_555
Al2 O27 1.976818 1_545
Al2 O2 1.976818 1_545
Al2 O47 1.976818 1_545
Al3 O18 1.976818 1_454
Al3 O1 1.976818 1_445
Al3 O5 1.976818 1_544
Al3 O42 1.976818 1_545
Al3 O29 1.976818 1_455
Al3 O25 1.976818 1_554
Al4 O16 1.976818 1_555
Al4 O30 1.976818 1_455
Al4 O28 1.976818 1_555
Al4 O6 1.976818 1_555
Al4 O4 1.976818 1_455
Al4 O40 1.976818 1_455
Al5 O22 1.976818 1_555
Al5 O44 1.976818 1_555
Al5 O21 1.976818 1_555
Al5 O45 1.976818 1_554
Al5 O20 1.976818 1_554
Al5 O46 1.976818 1_554
Al6 O36 1.976818 1_545
Al6 O33 1.976818 1_555
Al6 O12 1.976818 1_554
Al6 O43 1.976818 1_544
Al6 O19 1.976818 1_555
Al6 O9 1.976818 1_544
Al7 O24 1.976818 1_554
Al7 O32 1.976818 1_555
Al7 O0 1.976818 1_455
Al7 O31 1.976818 1_454
Al7 O7 1.976818 1_555
Al7 O8 1.976818 1_454
O0 Si9 1.673094 1_555
O0 Sr5 2.438120 1_554
O0 Sr1 2.637146 1_555
O1 Si10 1.673094 1_555
O1 Sr4 2.438120 1_554
O1 Sr2 2.637146 1_554
O2 Si2 1.673094 1_555
O2 Sr3 2.438120 1_555
O2 Sr2 2.637146 1_555
O3 Si1 1.673094 1_555
O3 Sr2 2.438120 1_545
O3 Sr5 2.637146 1_555
O4 Si0 1.673094 1_555
O4 Sr1 2.438120 1_555
O4 Sr0 2.637146 1_555
O5 Si11 1.673094 1_555
O5 Sr0 2.438120 1_455
O5 Sr4 2.637146 1_455
O6 Si11 1.673094 1_555
O6 Sr0 2.438120 1_455
O6 Sr3 2.637146 1_555
O7 Si7 1.673094 1_555
O7 Sr1 2.438120 1_455
O7 Sr4 2.637146 1_454
O8 Si8 1.673094 1_555
O8 Sr4 2.438120 1_555
O8 Sr5 2.637146 1_555
O9 Si5 1.673094 1_555
O9 Sr2 2.438120 1_555
O9 Sr3 2.637146 1_555
O10 Si8 1.673094 1_555
O10 Sr4 2.438120 1_555
O10 Sr0 2.637146 1_555
O11 Si7 1.673094 1_555
O11 Sr1 2.438120 1_455
O11 Sr3 2.637146 1_555
O12 Si6 1.673094 1_555
O12 Sr3 2.438120 1_545
O12 Sr5 2.637146 1_555
O13 Si6 1.673094 1_555
O13 Sr3 2.438120 1_545
O13 Sr0 2.637146 1_445
O14 Si5 1.673094 1_555
O14 Sr2 2.438120 1_555
O14 Sr4 2.637146 1_555
O15 Si3 1.673094 1_555
O15 Sr0 2.438120 1_555
O15 Sr1 2.637146 1_555
O16 Si2 1.673094 1_555
O16 Sr3 2.438120 1_555
O16 Sr1 2.637146 1_455
O17 Si3 1.673094 1_555
O17 Sr0 2.438120 1_555
O17 Sr2 2.637146 1_555
O18 Si1 1.673094 1_555
O18 Sr2 2.438120 1_545
O18 Sr0 2.637146 1_545
O19 Si9 1.673094 1_555
O19 Sr5 2.438120 1_554
O19 Sr2 2.637146 1_544
O20 Si4 1.673094 1_555
O20 Sr5 2.438120 1_555
O20 Sr4 2.637146 1_555
O21 Si10 1.673094 1_555
O21 Sr4 2.438120 1_554
O21 Sr1 2.637146 1_555
O22 Si0 1.673094 1_555
O22 Sr1 2.438120 1_555
O22 Sr5 2.637146 1_554
O23 Si4 1.673094 1_555
O23 Sr5 2.438120 1_555
O23 Sr3 2.637146 1_545
O24 Si11 1.673094 1_555
O24 Sr11 2.438120 1_556
O24 Sr7 2.637146 1_555
O25 Si6 1.673094 1_555
O25 Sr10 2.438120 1_556
O25 Sr8 2.637146 1_556
O26 Si8 1.673094 1_555
O26 Sr9 2.438120 1_555
O26 Sr8 2.637146 1_555
O27 Si7 1.673094 1_555
O27 Sr8 2.438120 1_565
O27 Sr11 2.637146 1_555
O28 Si5 1.673094 1_555
O28 Sr7 2.438120 1_555
O28 Sr6 2.637146 1_555
O29 Si9 1.673094 1_555
O29 Sr6 2.438120 1_655
O29 Sr10 2.637146 1_655
O30 Si9 1.673094 1_555
O30 Sr6 2.438120 1_655
O30 Sr9 2.637146 1_555
O31 Si1 1.673094 1_555
O31 Sr7 2.438120 1_655
O31 Sr10 2.637146 1_656
O32 Si2 1.673094 1_555
O32 Sr10 2.438120 1_555
O32 Sr11 2.637146 1_555
O33 Si0 1.673094 1_555
O33 Sr8 2.438120 1_555
O33 Sr9 2.637146 1_555
O34 Si2 1.673094 1_555
O34 Sr10 2.438120 1_555
O34 Sr6 2.637146 1_555
O35 Si1 1.673094 1_555
O35 Sr7 2.438120 1_655
O35 Sr9 2.637146 1_555
O36 Si10 1.673094 1_555
O36 Sr9 2.438120 1_565
O36 Sr11 2.637146 1_555
O37 Si10 1.673094 1_555
O37 Sr9 2.438120 1_565
O37 Sr6 2.637146 1_665
O38 Si0 1.673094 1_555
O38 Sr8 2.438120 1_555
O38 Sr10 2.637146 1_555
O39 Si4 1.673094 1_555
O39 Sr6 2.438120 1_555
O39 Sr7 2.637146 1_555
O40 Si8 1.673094 1_555
O40 Sr9 2.438120 1_555
O40 Sr7 2.637146 1_655
O41 Si4 1.673094 1_555
O41 Sr6 2.438120 1_555
O41 Sr8 2.637146 1_555
O42 Si7 1.673094 1_555
O42 Sr8 2.438120 1_565
O42 Sr6 2.637146 1_565
O43 Si11 1.673094 1_555
O43 Sr11 2.438120 1_556
O43 Sr8 2.637146 1_566
O44 Si3 1.673094 1_555
O44 Sr11 2.438120 1_555
O44 Sr10 2.637146 1_555
O45 Si6 1.673094 1_555
O45 Sr10 2.438120 1_556
O45 Sr7 2.637146 1_555
O46 Si5 1.673094 1_555
O46 Sr7 2.438120 1_555
O46 Sr11 2.637146 1_556
O47 Si3 1.673094 1_555
O47 Sr11 2.438120 1_555
O47 Sr9 2.637146 1_565
