# generated using pymatgen
data_Ca4Al5CrSi6(HO13)2
_symmetry_space_group_name_H-M   'P 1'
_cell_length_a   5.68171700
_cell_length_b   8.94777470
_cell_length_c   10.25893201
_cell_angle_alpha   115.24299694
_cell_angle_beta   90.00714317
_cell_angle_gamma   90.07514980
_symmetry_Int_Tables_number   1
_chemical_formula_structural   Ca4Al5CrSi6(HO13)2
_chemical_formula_sum   'Ca4 Al5 Cr1 Si6 H2 O26'
_cell_volume   471.74614204
_cell_formula_units_Z   1
loop_
 _symmetry_equiv_pos_site_id
 _symmetry_equiv_pos_as_xyz
  1  'x, y, z'
loop_
 _atom_site_type_symbol
 _atom_site_label
 _atom_site_symmetry_multiplicity
 _atom_site_fract_x
 _atom_site_fract_y
 _atom_site_fract_z
 _atom_site_occupancy
  Ca  Ca0  1  0.24952100  0.24034500  0.84548000  1
  Ca  Ca1  1  0.75047900  0.75965500  0.15452000  1
  Ca  Ca2  1  0.24976500  0.39111800  0.57733400  1
  Ca  Ca3  1  0.75023500  0.60888200  0.42266600  1
  Al  Al0  1  0.50000000  0.00000000  0.50000000  1
  Al  Al1  1  0.00000000  0.00000000  0.50000000  1
  Al  Al2  1  0.00000000  0.00000000  0.00000000  1
  Al  Al3  1  0.75123500  0.70885700  0.77406200  1
  Al  Al4  1  0.24876500  0.29114300  0.22593800  1
  Cr  Cr0  1  0.50000000  0.00000000  0.00000000  1
  Si  Si0  1  0.75029000  0.32010100  0.72572300  1
  Si  Si1  1  0.24971000  0.67989900  0.27427700  1
  Si  Si2  1  0.24914800  0.65890500  0.95055300  1
  Si  Si3  1  0.75085200  0.34109500  0.04944700  1
  Si  Si4  1  0.24877300  0.81534900  0.68306100  1
  Si  Si5  1  0.75122700  0.18465100  0.31693900  1
  H  H0  1  0.75105000  0.94156400  0.67501300  1
  H  H1  1  0.24895000  0.05843600  0.32498700  1
  O  O0  1  0.75001500  0.91900800  0.57208800  1
  O  O1  1  0.24998500  0.08099200  0.42791200  1
  O  O2  1  0.24779600  0.48079100  0.81960100  1
  O  O3  1  0.75220400  0.51920900  0.18039900  1
  O  O4  1  0.51398400  0.20882700  0.65714300  1
  O  O5  1  0.01409700  0.79124000  0.34306100  1
  O  O6  1  0.48601600  0.79117300  0.34285700  1
  O  O7  1  0.98590300  0.20876000  0.65693900  1
  O  O8  1  0.24215200  0.96120100  0.85435500  1
  O  O9  1  0.75784800  0.03879900  0.14564500  1
  O  O10  1  0.48657200  0.69981100  0.65077200  1
  O  O11  1  0.98633700  0.30346000  0.35197100  1
  O  O12  1  0.51342800  0.30018900  0.34922800  1
  O  O13  1  0.01366300  0.69654000  0.64802900  1
  O  O14  1  0.50096800  0.75629000  0.95158300  1
  O  O15  1  0.99473500  0.23565000  0.04457700  1
  O  O16  1  0.49903200  0.24371000  0.04841700  1
  O  O17  1  0.00526500  0.76435000  0.95542300  1
  O  O18  1  0.25013900  0.93463600  0.59530700  1
  O  O19  1  0.74986100  0.06536400  0.40469300  1
  O  O20  1  0.75032300  0.36547500  0.89902600  1
  O  O21  1  0.24967700  0.63452500  0.10097400  1
  O  O22  1  0.75002500  0.48702300  0.70184500  1
  O  O23  1  0.24997500  0.51297700  0.29815500  1
  O  O24  1  0.76226800  0.93852800  0.86158700  1
  O  O25  1  0.23773200  0.06147200  0.13841300  1
loop_
_geom_bond_atom_site_label_1
_geom_bond_atom_site_label_2
_geom_bond_distance
_geom_bond_site_symmetry_2
Ca0 O2 2.277407 1_555
Ca0 O7 2.365683 1_455
Ca0 O4 2.368035 1_555
Ca0 O16 2.508128 1_556
Ca0 O15 2.518538 1_456
Ca0 O8 2.538174 1_545
Ca1 O3 2.277407 1_555
Ca1 O5 2.365683 1_655
Ca1 O6 2.368035 1_555
Ca1 O14 2.508128 1_554
Ca1 O17 2.518538 1_654
Ca1 O9 2.538174 1_565
Ca2 O2 2.262802 1_555
Ca2 O1 2.534172 1_555
Ca2 O11 2.578766 1_455
Ca2 O7 2.589862 1_455
Ca2 O4 2.594159 1_555
Ca2 O12 2.600477 1_555
Ca2 O13 2.848394 1_555
Ca2 O10 2.867453 1_555
Ca3 O3 2.262802 1_555
Ca3 O0 2.534172 1_555
Ca3 O13 2.578766 1_655
Ca3 O5 2.589862 1_655
Ca3 O6 2.594159 1_555
Ca3 O10 2.600477 1_555
Ca3 O11 2.848394 1_555
Ca3 O12 2.867453 1_555
Al0 O4 1.878033 1_555
Al0 O6 1.878033 1_545
Al0 O0 1.884021 1_545
Al0 O1 1.884021 1_555
Al0 O18 1.949189 1_545
Al0 O19 1.949189 1_555
Al1 O7 1.877000 1_455
Al1 O5 1.877000 1_545
Al1 O0 1.882597 1_445
Al1 O1 1.882597 1_555
Al1 O18 1.951279 1_545
Al1 O19 1.951279 1_455
Al2 O25 1.864063 1_555
Al2 O24 1.864063 1_444
Al2 O8 1.950722 1_544
Al2 O9 1.950722 1_455
Al2 O17 1.957988 1_544
Al2 O15 1.957988 1_455
Al3 O22 1.798482 1_555
Al3 O24 1.859889 1_555
Al3 O10 1.944082 1_555
Al3 O13 1.945888 1_655
Al3 O14 2.204930 1_555
Al3 O17 2.236281 1_655
Al4 O23 1.798482 1_555
Al4 O25 1.859889 1_555
Al4 O12 1.944082 1_555
Al4 O11 1.945888 1_455
Al4 O16 2.204930 1_555
Al4 O15 2.236281 1_455
Cr0 O25 1.968723 1_555
Cr0 O24 1.968723 1_544
Cr0 O9 2.013708 1_555
Cr0 O8 2.013708 1_544
Cr0 O14 2.019463 1_544
Cr0 O16 2.019463 1_555
H0 O0 0.986877 1_555
H1 O1 0.986877 1_555
O2 Si2 1.587022 1_555
O3 Si3 1.587022 1_555
O4 Si0 1.639436 1_555
O5 Si1 1.639108 1_555
O6 Si1 1.639436 1_555
O7 Si0 1.639108 1_555
O8 Si4 1.684267 1_555
O9 Si5 1.684267 1_555
O10 Si4 1.647929 1_555
O11 Si5 1.647428 1_555
O12 Si5 1.647929 1_555
O13 Si4 1.647428 1_555
O14 Si2 1.671941 1_555
O15 Si3 1.666139 1_555
O16 Si3 1.671941 1_555
O17 Si2 1.666139 1_555
O18 Si4 1.664128 1_555
O19 Si5 1.664128 1_555
O20 Si0 1.646244 1_555
O20 Si3 1.648047 1_556
O21 Si1 1.646244 1_555
O21 Si2 1.648047 1_554
O22 Si0 1.613337 1_555
O23 Si1 1.613337 1_555
