# generated using pymatgen
data_SrCa7Mn7CrO22
_symmetry_space_group_name_H-M   'P 1'
_cell_length_a   7.71894081
_cell_length_b   7.71894081
_cell_length_c   7.66542258
_cell_angle_alpha   89.89351248
_cell_angle_beta   89.89351248
_cell_angle_gamma   90.71054868
_symmetry_Int_Tables_number   1
_chemical_formula_structural   SrCa7Mn7CrO22
_chemical_formula_sum   'Sr1 Ca7 Mn7 Cr1 O22'
_cell_volume   456.68485222
_cell_formula_units_Z   1
loop_
 _symmetry_equiv_pos_site_id
 _symmetry_equiv_pos_as_xyz
  1  'x, y, z'
loop_
 _atom_site_type_symbol
 _atom_site_label
 _atom_site_symmetry_multiplicity
 _atom_site_fract_x
 _atom_site_fract_y
 _atom_site_fract_z
 _atom_site_occupancy
  Sr  Sr0  1  0.25122200  0.25122200  0.23029300  1
  Ca  Ca0  1  0.25234500  0.25234500  0.74021500  1
  Ca  Ca1  1  0.25084400  0.75011200  0.24133900  1
  Ca  Ca2  1  0.24975700  0.74792900  0.73243400  1
  Ca  Ca3  1  0.75011200  0.25084400  0.24133900  1
  Ca  Ca4  1  0.74792900  0.24975700  0.73243400  1
  Ca  Ca5  1  0.74886200  0.74886200  0.25067600  1
  Ca  Ca6  1  0.75044400  0.75044400  0.70325700  1
  Mn  Mn0  1  0.00053900  0.00053900  0.50670300  1
  Mn  Mn1  1  0.99430800  0.50567900  0.00389400  1
  Mn  Mn2  1  0.99904700  0.50102200  0.49572600  1
  Mn  Mn3  1  0.50567900  0.99430800  0.00389400  1
  Mn  Mn4  1  0.50102200  0.99904700  0.49572600  1
  Mn  Mn5  1  0.50685400  0.50685400  0.98617100  1
  Mn  Mn6  1  0.50128100  0.50128100  0.50802800  1
  Cr  Cr0  1  0.99183900  0.99183900  0.98806700  1
  O  O0  1  0.95898000  0.95898000  0.75757400  1
  O  O1  1  0.03046800  0.47051300  0.25200000  1
  O  O2  1  0.96541300  0.53392100  0.75171600  1
  O  O3  1  0.47051300  0.03046800  0.25200000  1
  O  O4  1  0.53392100  0.96541300  0.75171600  1
  O  O5  1  0.53914500  0.53914500  0.75002700  1
  O  O6  1  0.23916800  0.99572800  0.99289900  1
  O  O7  1  0.24931000  0.99944100  0.53225400  1
  O  O8  1  0.25453300  0.50445400  0.98297200  1
  O  O9  1  0.25223300  0.50106200  0.52698600  1
  O  O10  1  0.76064300  0.00072600  0.05893100  1
  O  O11  1  0.75522500  0.00324700  0.45655400  1
  O  O12  1  0.74296600  0.49841600  0.05687200  1
  O  O13  1  0.74499900  0.49732600  0.45491600  1
  O  O14  1  0.99572800  0.23916800  0.99289900  1
  O  O15  1  0.99944100  0.24931000  0.53225400  1
  O  O16  1  0.00072600  0.76064300  0.05893100  1
  O  O17  1  0.00324700  0.75522500  0.45655400  1
  O  O18  1  0.50445400  0.25453300  0.98297200  1
  O  O19  1  0.50106200  0.25223300  0.52698600  1
  O  O20  1  0.49841600  0.74296600  0.05687200  1
  O  O21  1  0.49732600  0.74499900  0.45491600  1
loop_
_geom_bond_atom_site_label_1
_geom_bond_atom_site_label_2
_geom_bond_distance
_geom_bond_site_symmetry_2
Ca0 O19 2.519067 1_555
Ca0 O9 2.519067 1_555
Ca0 O7 2.522538 1_545
Ca0 O15 2.522538 1_455
Ca0 O18 2.694945 1_555
Ca0 O8 2.694945 1_555
Ca0 O14 2.768694 1_455
Ca0 O6 2.768694 1_545
Ca1 O20 2.376393 1_555
Ca1 O16 2.388005 1_555
Ca1 O21 2.512937 1_555
Ca1 O17 2.523121 1_555
Ca1 O6 2.687141 1_554
Ca1 O1 2.732389 1_555
Ca1 O3 2.734056 1_565
Ca1 O8 2.744795 1_554
Ca1 O9 2.911197 1_555
Ca1 O7 2.948443 1_555
Ca2 O7 2.472400 1_555
Ca2 O9 2.474586 1_555
Ca2 O8 2.685181 1_555
Ca2 O2 2.734215 1_455
Ca2 O4 2.749916 1_555
Ca2 O6 2.769305 1_555
Ca2 O5 2.773938 1_555
Ca2 O0 2.796258 1_455
Ca2 O17 2.848348 1_555
Ca2 O21 2.857242 1_555
Ca3 O12 2.376393 1_555
Ca3 O10 2.388005 1_555
Ca3 O13 2.512937 1_555
Ca3 O11 2.523121 1_555
Ca3 O14 2.687141 1_554
Ca3 O3 2.732389 1_555
Ca3 O1 2.734056 1_655
Ca3 O18 2.744795 1_554
Ca3 O19 2.911197 1_555
Ca3 O15 2.948443 1_555
Ca4 O15 2.472400 1_555
Ca4 O19 2.474586 1_555
Ca4 O18 2.685181 1_555
Ca4 O4 2.734215 1_545
Ca4 O2 2.749916 1_555
Ca4 O14 2.769305 1_555
Ca4 O5 2.773938 1_555
Ca4 O0 2.796258 1_545
Ca4 O11 2.848348 1_555
Ca4 O13 2.857242 1_555
Ca5 O16 2.435716 1_655
Ca5 O10 2.435716 1_565
Ca5 O12 2.440280 1_555
Ca5 O20 2.440280 1_555
Ca5 O13 2.491750 1_555
Ca5 O21 2.491750 1_555
Ca5 O17 2.521511 1_655
Ca5 O11 2.521511 1_565
Ca6 O0 2.301347 1_555
Ca6 O5 2.319172 1_555
Ca6 O4 2.398640 1_555
Ca6 O2 2.398640 1_555
Ca6 O11 2.714709 1_565
Ca6 O17 2.714709 1_655
Ca6 O21 2.730392 1_555
Ca6 O13 2.730392 1_555
Mn0 O15 1.930695 1_455
Mn0 O7 1.930695 1_545
Mn0 O17 1.933249 1_545
Mn0 O11 1.933249 1_455
Mn0 O0 1.974013 1_445
Mn1 O1 1.941779 1_655
Mn1 O2 1.958366 1_554
Mn1 O12 1.981493 1_555
Mn1 O16 2.013557 1_655
Mn1 O8 2.014897 1_654
Mn1 O14 2.059229 1_554
Mn2 O1 1.898962 1_655
Mn2 O15 1.962548 1_555
Mn2 O9 1.969401 1_655
Mn2 O17 1.984326 1_655
Mn2 O13 1.986215 1_555
Mn2 O2 1.995994 1_555
Mn3 O3 1.941779 1_565
Mn3 O4 1.958366 1_554
Mn3 O20 1.981493 1_555
Mn3 O10 2.013557 1_565
Mn3 O18 2.014897 1_564
Mn3 O6 2.059229 1_554
Mn4 O3 1.898962 1_565
Mn4 O7 1.962548 1_555
Mn4 O19 1.969401 1_565
Mn4 O11 1.984326 1_565
Mn4 O21 1.986215 1_555
Mn4 O4 1.995994 1_555
Mn5 O5 1.842818 1_555
Mn5 O20 1.904225 1_556
Mn5 O12 1.904225 1_556
Mn5 O18 1.947710 1_555
Mn5 O8 1.947710 1_555
Mn6 O5 1.901019 1_555
Mn6 O13 1.924679 1_555
Mn6 O21 1.924679 1_555
Mn6 O19 1.927582 1_555
Mn6 O9 1.927582 1_555
Cr0 O0 1.803351 1_555
Cr0 O16 1.866575 1_656
Cr0 O10 1.866575 1_566
Cr0 O14 1.909411 1_565
Cr0 O6 1.909411 1_655
O1 Sr0 2.422396 1_555
O3 Sr0 2.422396 1_555
O6 Sr0 2.686787 1_566
O7 Sr0 3.019508 1_565
O8 Sr0 2.720364 1_556
O9 Sr0 2.984545 1_555
O14 Sr0 2.686787 1_656
O15 Sr0 3.019508 1_655
O18 Sr0 2.720364 1_556
O19 Sr0 2.984545 1_555
