# generated using pymatgen
data_TiCrSbO6
_symmetry_space_group_name_H-M   'P 1'
_cell_length_a   6.61258472
_cell_length_b   6.61252533
_cell_length_c   9.18279800
_cell_angle_alpha   89.99984701
_cell_angle_beta   90.00015299
_cell_angle_gamma   89.99996324
_symmetry_Int_Tables_number   1
_chemical_formula_structural   TiCrSbO6
_chemical_formula_sum   'Ti4 Cr4 Sb4 O24'
_cell_volume   401.52595990
_cell_formula_units_Z   4
loop_
 _symmetry_equiv_pos_site_id
 _symmetry_equiv_pos_as_xyz
  1  'x, y, z'
loop_
 _atom_site_type_symbol
 _atom_site_label
 _atom_site_symmetry_multiplicity
 _atom_site_fract_x
 _atom_site_fract_y
 _atom_site_fract_z
 _atom_site_occupancy
  Ti  Ti0  1  0.50000000  0.99999100  0.49564600  1
  Ti  Ti1  1  0.99994600  0.49998700  0.49568900  1
  Ti  Ti2  1  0.99997500  0.00002700  0.99567700  1
  Ti  Ti3  1  0.50005800  0.50000700  0.99563400  1
  Cr  Cr0  1  0.99995300  0.49998900  0.16700000  1
  Cr  Cr1  1  0.49998400  0.49999600  0.66700300  1
  Cr  Cr2  1  0.49998400  0.99997800  0.16701200  1
  Cr  Cr3  1  0.00001900  0.99999900  0.66696900  1
  Sb  Sb0  1  0.49999600  0.99999800  0.83322600  1
  Sb  Sb1  1  0.99998800  0.49999600  0.83325700  1
  Sb  Sb2  1  0.99999200  0.00001200  0.33325100  1
  Sb  Sb3  1  0.50002500  0.50000300  0.33322200  1
  O  O0  1  0.49999800  0.30747900  0.16491800  1
  O  O1  1  0.00001400  0.80748200  0.16492600  1
  O  O2  1  0.50000000  0.69252900  0.16491500  1
  O  O3  1  0.00001400  0.19253200  0.16492300  1
  O  O4  1  0.30745200  0.99999600  0.66490700  1
  O  O5  1  0.80746100  0.50000000  0.66490100  1
  O  O6  1  0.69253500  0.99999800  0.66490400  1
  O  O7  1  0.19253300  0.50000400  0.66490600  1
  O  O8  1  0.49999900  0.30340100  0.49906900  1
  O  O9  1  0.00000100  0.80339600  0.49908500  1
  O  O10  1  0.50000200  0.69659700  0.49907200  1
  O  O11  1  0.00000100  0.19660000  0.49909200  1
  O  O12  1  0.30338200  0.00000200  0.99905100  1
  O  O13  1  0.80342500  0.50000500  0.99908600  1
  O  O14  1  0.69659600  0.00000300  0.99906100  1
  O  O15  1  0.19662100  0.50000200  0.99906600  1
  O  O16  1  0.50000300  0.30604000  0.83805000  1
  O  O17  1  0.00000500  0.80603500  0.83807100  1
  O  O18  1  0.50000200  0.69395500  0.83804700  1
  O  O19  1  0.00000200  0.19395500  0.83806700  1
  O  O20  1  0.30601700  0.99999900  0.33806900  1
  O  O21  1  0.80604200  0.50000200  0.33808100  1
  O  O22  1  0.69396300  0.00000100  0.33806600  1
  O  O23  1  0.19401500  0.50000400  0.33808900  1
loop_
_geom_bond_atom_site_label_1
_geom_bond_atom_site_label_2
_geom_bond_distance
_geom_bond_site_symmetry_2
Cr0 O13 2.016521 1_554
Cr0 O15 2.017264 1_654
Cr0 O21 2.027864 1_555
Cr0 O23 2.028547 1_655
Cr0 O3 2.033157 1_655
Cr0 O1 2.033394 1_655
Cr1 O10 2.016944 1_555
Cr1 O8 2.016945 1_555
Cr1 O18 2.027794 1_555
Cr1 O16 2.027797 1_555
Cr1 O7 2.033137 1_555
Cr1 O5 2.033309 1_555
Cr2 O14 2.017145 1_564
Cr2 O12 2.017167 1_564
Cr2 O20 2.027927 1_555
Cr2 O22 2.027951 1_565
Cr2 O2 2.033106 1_555
Cr2 O0 2.033449 1_565
Cr3 O11 2.016565 1_565
Cr3 O9 2.016628 1_555
Cr3 O19 2.028166 1_565
Cr3 O17 2.028222 1_555
Cr3 O4 2.033015 1_555
Cr3 O6 2.033352 1_455
O0 Sb3 2.002322 1_555
O0 Ti3 2.009288 1_554
O1 Sb2 2.002496 1_465
O1 Ti2 2.009110 1_464
O2 Sb3 2.002346 1_555
O2 Ti3 2.009246 1_554
O3 Sb2 2.002470 1_455
O3 Ti2 2.008926 1_454
O4 Sb0 2.002514 1_555
O4 Ti0 2.009220 1_555
O5 Sb1 2.002705 1_555
O5 Ti1 2.008608 1_555
O6 Sb0 2.002520 1_555
O6 Ti0 2.009139 1_555
O7 Sb1 2.002750 1_455
O7 Ti1 2.009066 1_455
O8 Sb3 2.002355 1_555
O8 Ti0 2.006553 1_545
O9 Sb2 2.002325 1_465
O9 Ti1 2.006542 1_455
O10 Sb3 2.002347 1_555
O10 Ti0 2.006447 1_555
O11 Sb2 2.002259 1_455
O11 Ti1 2.006398 1_455
O12 Sb0 2.002266 1_545
O12 Ti2 2.006544 1_455
O13 Sb1 2.002075 1_555
O13 Ti3 2.006290 1_555
O14 Sb0 2.002271 1_545
O14 Ti2 2.006360 1_555
O15 Sb1 2.002231 1_455
O15 Ti3 2.006750 1_555
O16 Ti3 1.933673 1_555
O16 Sb0 2.024195 1_545
O17 Ti2 1.933934 1_465
O17 Sb1 2.024174 1_455
O18 Ti3 1.933605 1_555
O18 Sb0 2.024201 1_555
O19 Ti2 1.933676 1_455
O19 Sb1 2.024186 1_455
O20 Ti0 1.933698 1_555
O20 Sb2 2.024100 1_465
O21 Ti1 1.933564 1_555
O21 Sb3 2.024055 1_555
O22 Ti0 1.933636 1_545
O22 Sb2 2.024126 1_555
O23 Ti1 1.934238 1_455
O23 Sb3 2.024011 1_555
