# generated using pymatgen
data_Tm5Bi3
_symmetry_space_group_name_H-M   'P 1'
_cell_length_a   8.12699855
_cell_length_b   9.34584651
_cell_length_c   11.84829596
_cell_angle_alpha   90.00000000
_cell_angle_beta   90.00000000
_cell_angle_gamma   90.00000000
_symmetry_Int_Tables_number   1
_chemical_formula_structural   Tm5Bi3
_chemical_formula_sum   'Tm20 Bi12'
_cell_volume   899.92169216
_cell_formula_units_Z   4
loop_
 _symmetry_equiv_pos_site_id
 _symmetry_equiv_pos_as_xyz
  1  'x, y, z'
loop_
 _atom_site_type_symbol
 _atom_site_label
 _atom_site_symmetry_multiplicity
 _atom_site_fract_x
 _atom_site_fract_y
 _atom_site_fract_z
 _atom_site_occupancy
  Tm  Tm0  1  0.02387311  0.25000000  0.51124757  1
  Tm  Tm1  1  0.97612689  0.75000000  0.48875243  1
  Tm  Tm2  1  0.47612689  0.75000000  0.01124757  1
  Tm  Tm3  1  0.52387311  0.25000000  0.98875243  1
  Tm  Tm4  1  0.35586403  0.25000000  0.28406435  1
  Tm  Tm5  1  0.64413597  0.75000000  0.71593565  1
  Tm  Tm6  1  0.14413597  0.75000000  0.78406435  1
  Tm  Tm7  1  0.85586403  0.25000000  0.21593565  1
  Tm  Tm8  1  0.18611074  0.25000000  0.78315269  1
  Tm  Tm9  1  0.81388926  0.75000000  0.21684731  1
  Tm  Tm10  1  0.31388926  0.75000000  0.28315269  1
  Tm  Tm11  1  0.68611074  0.25000000  0.71684731  1
  Tm  Tm12  1  0.19332007  0.06586961  0.05959960  1
  Tm  Tm13  1  0.80667993  0.93413039  0.94040040  1
  Tm  Tm14  1  0.30667993  0.93413039  0.55959960  1
  Tm  Tm15  1  0.80667993  0.56586961  0.94040040  1
  Tm  Tm16  1  0.69332007  0.06586961  0.44040040  1
  Tm  Tm17  1  0.19332007  0.43413039  0.05959960  1
  Tm  Tm18  1  0.69332007  0.43413039  0.44040040  1
  Tm  Tm19  1  0.30667993  0.56586961  0.55959960  1
  Bi  Bi0  1  0.40570485  0.25000000  0.54207830  1
  Bi  Bi1  1  0.59429515  0.75000000  0.45792170  1
  Bi  Bi2  1  0.09429515  0.75000000  0.04207830  1
  Bi  Bi3  1  0.90570485  0.25000000  0.95792170  1
  Bi  Bi4  1  0.06605019  0.00397654  0.32588568  1
  Bi  Bi5  1  0.93394981  0.99602346  0.67411432  1
  Bi  Bi6  1  0.43394981  0.99602346  0.82588568  1
  Bi  Bi7  1  0.93394981  0.50397654  0.67411432  1
  Bi  Bi8  1  0.56605019  0.00397654  0.17411432  1
  Bi  Bi9  1  0.06605019  0.49602346  0.32588568  1
  Bi  Bi10  1  0.56605019  0.49602346  0.17411432  1
  Bi  Bi11  1  0.43394981  0.50397654  0.82588568  1
loop_
_geom_bond_atom_site_label_1
_geom_bond_atom_site_label_2
_geom_bond_distance
_geom_bond_site_symmetry_2
Bi0 Tm19 3.066834 1_555
Bi0 Tm14 3.066834 1_545
Bi0 Tm11 3.079132 1_555
Bi0 Tm4 3.083744 1_555
Bi0 Tm0 3.124572 1_555
Bi0 Tm16 3.142663 1_555
Bi0 Tm18 3.142663 1_555
Bi0 Tm8 3.368013 1_555
Bi1 Tm16 3.066834 1_565
Bi1 Tm18 3.066834 1_555
Bi1 Tm10 3.079132 1_555
Bi1 Tm5 3.083744 1_555
Bi1 Tm1 3.124572 1_555
Bi1 Tm19 3.142663 1_555
Bi1 Tm14 3.142663 1_555
Bi1 Tm9 3.368013 1_555
Bi2 Tm17 3.066834 1_555
Bi2 Tm12 3.066834 1_565
Bi2 Tm9 3.079132 1_455
Bi2 Tm6 3.083744 1_554
Bi2 Tm2 3.124572 1_555
Bi2 Tm13 3.142663 1_454
Bi2 Tm15 3.142663 1_454
Bi2 Tm10 3.368013 1_555
Bi3 Tm15 3.066834 1_555
Bi3 Tm13 3.066834 1_545
Bi3 Tm8 3.079132 1_655
Bi3 Tm7 3.083744 1_556
Bi3 Tm3 3.124572 1_555
Bi3 Tm12 3.142663 1_656
Bi3 Tm17 3.142663 1_656
Bi3 Tm11 3.368013 1_555
Bi4 Tm1 3.145138 1_445
Bi4 Tm7 3.146703 1_455
Bi4 Tm10 3.153951 1_545
Bi4 Tm0 3.198071 1_555
Bi4 Tm4 3.328636 1_555
Bi4 Tm16 3.369188 1_455
Bi4 Tm12 3.370263 1_555
Bi4 Tm9 3.391582 1_445
Bi4 Tm14 3.452311 1_545
Bi5 Tm0 3.145138 1_665
Bi5 Tm6 3.146703 1_655
Bi5 Tm11 3.153951 1_565
Bi5 Tm1 3.198071 1_555
Bi5 Tm5 3.328636 1_555
Bi5 Tm14 3.369188 1_655
Bi5 Tm13 3.370263 1_555
Bi5 Tm8 3.391582 1_665
Bi5 Tm16 3.452311 1_565
Bi6 Tm3 3.145138 1_565
Bi6 Tm5 3.146703 1_555
Bi6 Tm8 3.153951 1_565
Bi6 Tm2 3.198071 1_556
Bi6 Tm6 3.328636 1_555
Bi6 Tm13 3.369188 1_555
Bi6 Tm14 3.370263 1_555
Bi6 Tm11 3.391582 1_565
Bi6 Tm12 3.452311 1_566
Bi7 Tm0 3.145138 1_655
Bi7 Tm6 3.146703 1_655
Bi7 Tm11 3.153951 1_555
Bi7 Tm1 3.198071 1_555
Bi7 Tm5 3.328636 1_555
Bi7 Tm19 3.369188 1_655
Bi7 Tm15 3.370263 1_555
Bi7 Tm8 3.391582 1_655
Bi7 Tm18 3.452311 1_555
Bi8 Tm2 3.145138 1_545
Bi8 Tm4 3.146703 1_555
Bi8 Tm9 3.153951 1_545
Bi8 Tm3 3.198071 1_554
Bi8 Tm7 3.328636 1_555
Bi8 Tm12 3.369188 1_555
Bi8 Tm16 3.370263 1_555
Bi8 Tm10 3.391582 1_545
Bi8 Tm13 3.452311 1_544
Bi9 Tm1 3.145138 1_455
Bi9 Tm7 3.146703 1_455
Bi9 Tm10 3.153951 1_555
Bi9 Tm0 3.198071 1_555
Bi9 Tm4 3.328636 1_555
Bi9 Tm18 3.369188 1_455
Bi9 Tm17 3.370263 1_555
Bi9 Tm9 3.391582 1_455
Bi9 Tm19 3.452311 1_555
Bi10 Tm2 3.145138 1_555
Bi10 Tm4 3.146703 1_555
Bi10 Tm9 3.153951 1_555
Bi10 Tm3 3.198071 1_554
Bi10 Tm7 3.328636 1_555
Bi10 Tm17 3.369188 1_555
Bi10 Tm18 3.370263 1_555
Bi10 Tm10 3.391582 1_555
Bi10 Tm15 3.452311 1_554
Bi11 Tm3 3.145138 1_555
Bi11 Tm5 3.146703 1_555
Bi11 Tm8 3.153951 1_555
Bi11 Tm2 3.198071 1_556
Bi11 Tm6 3.328636 1_555
Bi11 Tm15 3.369188 1_555
Bi11 Tm19 3.370263 1_555
Bi11 Tm11 3.391582 1_555
Bi11 Tm17 3.452311 1_556
