# generated using pymatgen
data_Ba3NdV3O12
_symmetry_space_group_name_H-M   'P 1'
_cell_length_a   11.46656376
_cell_length_b   11.46656376
_cell_length_c   9.64979619
_cell_angle_alpha   85.47966051
_cell_angle_beta   85.47966051
_cell_angle_gamma   28.96392203
_symmetry_Int_Tables_number   1
_chemical_formula_structural   Ba3NdV3O12
_chemical_formula_sum   'Ba6 Nd2 V6 O24'
_cell_volume   612.37670904
_cell_formula_units_Z   2
loop_
 _symmetry_equiv_pos_site_id
 _symmetry_equiv_pos_as_xyz
  1  'x, y, z'
loop_
 _atom_site_type_symbol
 _atom_site_label
 _atom_site_symmetry_multiplicity
 _atom_site_fract_x
 _atom_site_fract_y
 _atom_site_fract_z
 _atom_site_occupancy
  Ba  Ba0  1  0.00387700  0.00387700  0.01512800  1
  Ba  Ba1  1  0.33282000  0.33282000  0.65884000  1
  Ba  Ba2  1  0.66122200  0.66122200  0.32499300  1
  Ba  Ba3  1  0.80096000  0.80096000  0.99265500  1
  Ba  Ba4  1  0.13698200  0.13698200  0.66138000  1
  Ba  Ba5  1  0.19540800  0.19540800  0.01076000  1
  Nd  Nd0  1  0.51252900  0.51252900  0.63182600  1
  Nd  Nd1  1  0.87702900  0.87702900  0.32852500  1
  V  V0  1  0.93795900  0.93795900  0.66065000  1
  V  V1  1  0.27468800  0.27468800  0.32085100  1
  V  V2  1  0.60294800  0.60294800  0.98040600  1
  V  V3  1  0.05374800  0.05374800  0.36454000  1
  V  V4  1  0.39727200  0.39727200  0.01705900  1
  V  V5  1  0.73514400  0.73514400  0.66273800  1
  O  O0  1  0.54994700  0.54994700  0.11766600  1
  O  O1  1  0.88145800  0.88145800  0.78939600  1
  O  O2  1  0.22170700  0.22170700  0.46128700  1
  O  O3  1  0.45229100  0.45229100  0.87340000  1
  O  O4  1  0.79538100  0.79538100  0.52823100  1
  O  O5  1  0.10841100  0.10841100  0.22727600  1
  O  O6  1  0.30993000  0.82307900  0.47003500  1
  O  O7  1  0.65571000  0.14231200  0.11738600  1
  O  O8  1  0.98159700  0.49824800  0.77051500  1
  O  O9  1  0.82307900  0.30993000  0.47003500  1
  O  O10  1  0.14231200  0.65571000  0.11738600  1
  O  O11  1  0.49824800  0.98159700  0.77051500  1
  O  O12  1  0.98216100  0.98216100  0.30293200  1
  O  O13  1  0.32699400  0.32699400  0.95066400  1
  O  O14  1  0.66317800  0.66317800  0.60444300  1
  O  O15  1  0.67976300  0.18757700  0.55960600  1
  O  O16  1  0.01523900  0.51136100  0.22085900  1
  O  O17  1  0.34358600  0.84687200  0.88201700  1
  O  O18  1  0.18757700  0.67976300  0.55960600  1
  O  O19  1  0.51136100  0.01523900  0.22085900  1
  O  O20  1  0.84687200  0.34358600  0.88201700  1
  O  O21  1  0.00813400  0.00813400  0.72499100  1
  O  O22  1  0.34702300  0.34702300  0.37854100  1
  O  O23  1  0.67536700  0.67536700  0.04525300  1
loop_
_geom_bond_atom_site_label_1
_geom_bond_atom_site_label_2
_geom_bond_distance
_geom_bond_site_symmetry_2
Ba0 O20 2.714583 1_454
Ba0 O17 2.714583 1_544
Ba0 O12 2.779858 1_445
Ba0 O21 2.793658 1_554
Ba0 O7 2.822851 1_455
Ba0 O10 2.822851 1_545
Ba1 O11 2.692425 1_545
Ba1 O8 2.692425 1_455
Ba1 O22 2.697533 1_555
Ba1 O18 2.752149 1_555
Ba1 O15 2.752149 1_555
Ba1 O13 2.808473 1_555
Ba2 O23 2.692130 1_555
Ba2 O14 2.700518 1_555
Ba2 O16 2.804290 1_655
Ba2 O19 2.804290 1_565
Ba2 O9 2.840451 1_555
Ba2 O6 2.840451 1_555
Ba3 O1 2.543860 1_555
Ba3 O16 2.708592 1_656
Ba3 O19 2.708592 1_566
Ba3 O23 2.793595 1_556
Ba3 O7 2.926151 1_566
Ba3 O10 2.926151 1_656
Ba3 O13 2.946659 1_655
Ba3 O13 2.946659 1_565
Ba3 O8 2.970837 1_555
Ba3 O11 2.970837 1_555
Ba4 O2 2.583802 1_555
Ba4 O20 2.664575 1_455
Ba4 O17 2.664575 1_545
Ba4 O21 2.876840 1_555
Ba4 O6 2.877092 1_545
Ba4 O9 2.877092 1_455
Ba4 O14 2.968292 1_455
Ba4 O14 2.968292 1_545
Ba4 O8 2.986705 1_455
Ba4 O11 2.986705 1_545
Ba5 O5 2.727602 1_555
Ba5 O11 2.858907 1_544
Ba5 O8 2.858907 1_454
Ba5 O23 2.916723 1_455
Ba5 O23 2.916723 1_545
Ba5 O13 2.932123 1_554
Ba5 O16 2.984028 1_555
Ba5 O19 2.984028 1_555
Ba5 O20 2.995008 1_454
Ba5 O17 2.995008 1_544
Nd0 O9 2.394673 1_555
Nd0 O6 2.394673 1_555
Nd0 O18 2.396313 1_555
Nd0 O15 2.396313 1_555
Nd0 O3 2.591457 1_555
Nd1 O12 2.327350 1_555
Nd1 O7 2.484852 1_565
Nd1 O10 2.484852 1_655
Nd1 O4 2.536100 1_555
Nd1 O22 2.974404 1_655
Nd1 O22 2.974404 1_565
Nd1 O15 3.021773 1_565
Nd1 O18 3.021773 1_655
Nd1 O19 3.157737 1_565
Nd1 O16 3.157737 1_655
O0 V2 1.698708 1_554
O1 V0 1.692247 1_555
O2 V1 1.720732 1_555
O3 V4 1.771590 1_556
O4 V5 1.786357 1_555
O5 V3 1.722199 1_555
O6 V3 1.764215 1_565
O7 V4 1.764128 1_555
O8 V5 1.741231 1_555
O9 V3 1.764215 1_655
O10 V4 1.764128 1_555
O11 V5 1.741231 1_555
O12 V3 1.741824 1_665
O13 V4 1.734466 1_556
O14 V5 1.736745 1_555
O15 V0 1.759350 1_545
O16 V1 1.748879 1_555
O17 V2 1.743572 1_555
O18 V0 1.759350 1_455
O19 V1 1.748879 1_555
O20 V2 1.743572 1_555
O21 V0 1.723650 1_445
O22 V1 1.742190 1_555
O23 V2 1.772324 1_554
