# generated using pymatgen
data_Mg2Sc3VS8
_symmetry_space_group_name_H-M   'P 1'
_cell_length_a   7.52530927
_cell_length_b   7.46340436
_cell_length_c   7.51697409
_cell_angle_alpha   59.78732040
_cell_angle_beta   59.96793968
_cell_angle_gamma   59.73776834
_symmetry_Int_Tables_number   1
_chemical_formula_structural   Mg2Sc3VS8
_chemical_formula_sum   'Mg2 Sc3 V1 S8'
_cell_volume   297.38327351
_cell_formula_units_Z   1
loop_
 _symmetry_equiv_pos_site_id
 _symmetry_equiv_pos_as_xyz
  1  'x, y, z'
loop_
 _atom_site_type_symbol
 _atom_site_label
 _atom_site_symmetry_multiplicity
 _atom_site_fract_x
 _atom_site_fract_y
 _atom_site_fract_z
 _atom_site_occupancy
  Mg  Mg0  1  0.87509400  0.87446900  0.87522800  1
  Mg  Mg1  1  0.12491700  0.12553100  0.12477000  1
  Sc  Sc0  1  0.50001100  0.49999500  0.49998600  1
  Sc  Sc1  1  0.49999200  0.49999900  0.00000000  1
  Sc  Sc2  1  0.99998100  0.50001200  0.50001700  1
  V  V0  1  0.50000000  0.99999800  0.50000400  1
  S  S0  1  0.73526900  0.75319700  0.73520000  1
  S  S1  1  0.26496600  0.24644700  0.72347400  1
  S  S2  1  0.25784000  0.72672500  0.25783500  1
  S  S3  1  0.72353900  0.24641100  0.26497900  1
  S  S4  1  0.74215200  0.27327100  0.74215000  1
  S  S5  1  0.27646500  0.75358300  0.73501700  1
  S  S6  1  0.26472700  0.24679700  0.26482100  1
  S  S7  1  0.73505100  0.75355900  0.27652100  1
loop_
_geom_bond_atom_site_label_1
_geom_bond_atom_site_label_2
_geom_bond_distance
_geom_bond_site_symmetry_2
Mg0 S4 2.421679 1_565
Mg0 S7 2.461944 1_556
Mg0 S0 2.462050 1_555
Mg0 S5 2.464086 1_655
Mg1 S2 2.421703 1_545
Mg1 S1 2.461961 1_554
Mg1 S6 2.462064 1_555
Mg1 S3 2.464132 1_455
S0 V0 2.494364 1_555
S0 Sc2 2.589830 1_555
S0 Sc1 2.593628 1_556
S1 V0 2.487955 1_545
S1 Sc2 2.594071 1_455
S1 Sc0 2.594531 1_555
S2 Sc1 2.568638 1_555
S2 Sc0 2.571024 1_555
S2 Sc2 2.572126 1_455
S3 V0 2.491313 1_545
S3 Sc0 2.591093 1_555
S3 Sc1 2.594299 1_555
S4 Sc1 2.568730 1_556
S4 Sc0 2.570933 1_555
S4 Sc2 2.572104 1_555
S5 V0 2.491303 1_555
S5 Sc0 2.591238 1_555
S5 Sc1 2.594220 1_556
S6 V0 2.494317 1_545
S6 Sc2 2.590063 1_455
S6 Sc1 2.593597 1_555
S7 V0 2.487969 1_555
S7 Sc2 2.593964 1_555
S7 Sc0 2.594603 1_555
