# generated using pymatgen
data_Ba7GeB3ClO13
_symmetry_space_group_name_H-M   'P 1'
_cell_length_a   7.51125050
_cell_length_b   11.29895293
_cell_length_c   20.64050957
_cell_angle_alpha   90.00000000
_cell_angle_beta   90.00000000
_cell_angle_gamma   90.00000000
_symmetry_Int_Tables_number   1
_chemical_formula_structural   Ba7GeB3ClO13
_chemical_formula_sum   'Ba28 Ge4 B12 Cl4 O52'
_cell_volume   1751.74489387
_cell_formula_units_Z   4
loop_
 _symmetry_equiv_pos_site_id
 _symmetry_equiv_pos_as_xyz
  1  'x, y, z'
loop_
 _atom_site_type_symbol
 _atom_site_label
 _atom_site_symmetry_multiplicity
 _atom_site_fract_x
 _atom_site_fract_y
 _atom_site_fract_z
 _atom_site_occupancy
  Ba  Ba0  1  0.87969334  0.00000000  0.63149245  1
  Ba  Ba1  1  0.12030666  0.00000000  0.36850755  1
  Ba  Ba2  1  0.62030666  0.00000000  0.13149245  1
  Ba  Ba3  1  0.37969334  0.00000000  0.86850755  1
  Ba  Ba4  1  0.63348576  0.50000000  0.58378146  1
  Ba  Ba5  1  0.36651424  0.50000000  0.41621854  1
  Ba  Ba6  1  0.86651424  0.50000000  0.08378146  1
  Ba  Ba7  1  0.13348576  0.50000000  0.91621854  1
  Ba  Ba8  1  0.97054824  0.50000000  0.72529713  1
  Ba  Ba9  1  0.02945176  0.50000000  0.27470287  1
  Ba  Ba10  1  0.52945176  0.50000000  0.22529713  1
  Ba  Ba11  1  0.47054824  0.50000000  0.77470287  1
  Ba  Ba12  1  0.50000000  0.18713354  0.50000000  1
  Ba  Ba13  1  -0.00000000  0.81286646  0.00000000  1
  Ba  Ba14  1  0.50000000  0.81286646  0.50000000  1
  Ba  Ba15  1  -0.00000000  0.18713354  0.00000000  1
  Ba  Ba16  1  0.30046871  0.23216914  0.68431621  1
  Ba  Ba17  1  0.69953129  0.23216914  0.31568379  1
  Ba  Ba18  1  0.19953129  0.76783086  0.18431621  1
  Ba  Ba19  1  0.80046871  0.76783086  0.81568379  1
  Ba  Ba20  1  0.69953129  0.76783086  0.31568379  1
  Ba  Ba21  1  0.30046871  0.76783086  0.68431621  1
  Ba  Ba22  1  0.80046871  0.23216914  0.81568379  1
  Ba  Ba23  1  0.19953129  0.23216914  0.18431621  1
  Ba  Ba24  1  -0.00000000  0.26549828  0.50000000  1
  Ba  Ba25  1  0.50000000  0.73450172  0.00000000  1
  Ba  Ba26  1  -0.00000000  0.73450172  0.50000000  1
  Ba  Ba27  1  0.50000000  0.26549828  0.00000000  1
  Ge  Ge0  1  0.20886046  0.50000000  0.58266547  1
  Ge  Ge1  1  0.79113954  0.50000000  0.41733453  1
  Ge  Ge2  1  0.29113954  0.50000000  0.08266547  1
  Ge  Ge3  1  0.70886046  0.50000000  0.91733453  1
  B  B0  1  0.77433579  0.27662782  0.66054007  1
  B  B1  1  0.22566421  0.27662782  0.33945993  1
  B  B2  1  0.72566421  0.72337218  0.16054007  1
  B  B3  1  0.27433579  0.72337218  0.83945993  1
  B  B4  1  0.22566421  0.72337218  0.33945993  1
  B  B5  1  0.77433579  0.72337218  0.66054007  1
  B  B6  1  0.27433579  0.27662782  0.83945993  1
  B  B7  1  0.72566421  0.27662782  0.16054007  1
  B  B8  1  0.21620557  0.00000000  0.54855972  1
  B  B9  1  0.78379443  0.00000000  0.45144028  1
  B  B10  1  0.28379443  0.00000000  0.04855972  1
  B  B11  1  0.71620557  0.00000000  0.95144028  1
  Cl  Cl0  1  0.55048664  0.00000000  0.72303150  1
  Cl  Cl1  1  0.44951336  0.00000000  0.27696850  1
  Cl  Cl2  1  0.94951336  0.00000000  0.22303150  1
  Cl  Cl3  1  0.05048664  0.00000000  0.77696850  1
  O  O0  1  0.28670342  0.50000000  0.66457901  1
  O  O1  1  0.71329658  0.50000000  0.33542099  1
  O  O2  1  0.21329658  0.50000000  0.16457901  1
  O  O3  1  0.78670342  0.50000000  0.83542099  1
  O  O4  1  0.73104407  0.00000000  0.51595139  1
  O  O5  1  0.26895593  0.00000000  0.48404861  1
  O  O6  1  0.76895593  0.00000000  0.01595139  1
  O  O7  1  0.23104407  0.00000000  0.98404861  1
  O  O8  1  0.93553097  0.23962248  0.68695487  1
  O  O9  1  0.06446903  0.23962248  0.31304513  1
  O  O10  1  0.56446903  0.76037752  0.18695487  1
  O  O11  1  0.43553097  0.76037752  0.81304513  1
  O  O12  1  0.06446903  0.76037752  0.31304513  1
  O  O13  1  0.93553097  0.76037752  0.68695487  1
  O  O14  1  0.43553097  0.23962248  0.81304513  1
  O  O15  1  0.56446903  0.23962248  0.18695487  1
  O  O16  1  0.16843705  0.64571649  0.80259269  1
  O  O17  1  0.83156295  0.64571649  0.19740731  1
  O  O18  1  0.33156295  0.35428351  0.30259269  1
  O  O19  1  0.66843705  0.35428351  0.69740731  1
  O  O20  1  0.83156295  0.35428351  0.19740731  1
  O  O21  1  0.16843705  0.35428351  0.80259269  1
  O  O22  1  0.66843705  0.64571649  0.69740731  1
  O  O23  1  0.33156295  0.64571649  0.30259269  1
  O  O24  1  0.18903960  0.10693605  0.58057636  1
  O  O25  1  0.81096040  0.10693605  0.41942364  1
  O  O26  1  0.31096040  0.89306395  0.08057636  1
  O  O27  1  0.68903960  0.89306395  0.91942364  1
  O  O28  1  0.81096040  0.89306395  0.41942364  1
  O  O29  1  0.18903960  0.89306395  0.58057636  1
  O  O30  1  0.68903960  0.10693605  0.91942364  1
  O  O31  1  0.31096040  0.10693605  0.08057636  1
  O  O32  1  0.97510607  0.50000000  0.58146537  1
  O  O33  1  0.02489393  0.50000000  0.41853463  1
  O  O34  1  0.52489393  0.50000000  0.08146537  1
  O  O35  1  0.47510607  0.50000000  0.91853463  1
  O  O36  1  0.30575286  0.37399754  0.54477779  1
  O  O37  1  0.69424714  0.37399754  0.45522221  1
  O  O38  1  0.19424714  0.62600246  0.04477779  1
  O  O39  1  0.80575286  0.62600246  0.95522221  1
  O  O40  1  0.69424714  0.62600246  0.45522221  1
  O  O41  1  0.30575286  0.62600246  0.54477779  1
  O  O42  1  0.80575286  0.37399754  0.95522221  1
  O  O43  1  0.19424714  0.37399754  0.04477779  1
  O  O44  1  0.71712766  0.24109165  0.59967150  1
  O  O45  1  0.28287234  0.24109165  0.40032850  1
  O  O46  1  0.78287234  0.75890835  0.09967150  1
  O  O47  1  0.21712766  0.75890835  0.90032850  1
  O  O48  1  0.28287234  0.75890835  0.40032850  1
  O  O49  1  0.71712766  0.75890835  0.59967150  1
  O  O50  1  0.21712766  0.24109165  0.90032850  1
  O  O51  1  0.78287234  0.24109165  0.09967150  1
loop_
_geom_bond_atom_site_label_1
_geom_bond_atom_site_label_2
_geom_bond_distance
_geom_bond_site_symmetry_2
Ba0 O4 2.633261 1_555
Ba0 O29 2.821946 1_645
Ba0 O24 2.821946 1_655
Ba0 O8 2.969322 1_555
Ba0 O13 2.969322 1_545
Ba0 O49 3.056637 1_545
Ba0 O44 3.056637 1_555
Ba0 Cl0 3.111976 1_555
Ba0 Cl3 3.265266 1_655
Ba1 O5 2.633261 1_555
Ba1 O28 2.821946 1_445
Ba1 O25 2.821946 1_455
Ba1 O9 2.969322 1_555
Ba1 O12 2.969322 1_545
Ba1 O45 3.056637 1_555
Ba1 O48 3.056637 1_545
Ba1 Cl1 3.111976 1_555
Ba1 Cl2 3.265266 1_455
Ba2 O6 2.633261 1_555
Ba2 O31 2.821946 1_555
Ba2 O26 2.821946 1_545
Ba2 O10 2.969322 1_545
Ba2 O15 2.969322 1_555
Ba2 O46 3.056637 1_545
Ba2 O51 3.056637 1_555
Ba2 Cl2 3.111976 1_555
Ba2 Cl1 3.265266 1_555
Ba3 O7 2.633261 1_555
Ba3 O27 2.821946 1_545
Ba3 O30 2.821946 1_555
Ba3 O11 2.969322 1_545
Ba3 O14 2.969322 1_555
Ba3 O50 3.056637 1_555
Ba3 O47 3.056637 1_545
Ba3 Cl3 3.111976 1_555
Ba3 Cl0 3.265266 1_555
Ba4 O32 2.566441 1_555
Ba4 O22 2.877518 1_555
Ba4 O19 2.877518 1_555
Ba4 O36 2.955488 1_555
Ba4 O41 2.955488 1_555
Ba4 O44 3.010017 1_555
Ba4 O49 3.010017 1_555
Ba4 O40 3.045721 1_555
Ba4 O37 3.045721 1_555
Ba4 O0 3.092904 1_555
Ba5 O33 2.566441 1_555
Ba5 O23 2.877518 1_555
Ba5 O18 2.877518 1_555
Ba5 O37 2.955488 1_555
Ba5 O40 2.955488 1_555
Ba5 O48 3.010017 1_555
Ba5 O45 3.010017 1_555
Ba5 O36 3.045721 1_555
Ba5 O41 3.045721 1_555
Ba5 O1 3.092904 1_555
Ba6 O34 2.566441 1_555
Ba6 O20 2.877518 1_555
Ba6 O17 2.877518 1_555
Ba6 O43 2.955488 1_655
Ba6 O38 2.955488 1_655
Ba6 O51 3.010017 1_555
Ba6 O46 3.010017 1_555
Ba6 O42 3.045721 1_554
Ba6 O39 3.045721 1_554
Ba6 O2 3.092904 1_655
Ba7 O35 2.566441 1_555
Ba7 O16 2.877518 1_555
Ba7 O21 2.877518 1_555
Ba7 O42 2.955488 1_455
Ba7 O39 2.955488 1_455
Ba7 O47 3.010017 1_555
Ba7 O50 3.010017 1_555
Ba7 O43 3.045721 1_556
Ba7 O38 3.045721 1_556
Ba7 O3 3.092904 1_455
Ba8 O3 2.659602 1_555
Ba8 O0 2.685133 1_655
Ba8 O16 2.732307 1_655
Ba8 O21 2.732307 1_655
Ba8 O19 2.862094 1_555
Ba8 O22 2.862094 1_555
Ba8 O32 2.968958 1_555
Ba8 O13 3.057912 1_555
Ba8 O8 3.057912 1_555
Ba9 O2 2.659602 1_555
Ba9 O1 2.685133 1_455
Ba9 O20 2.732307 1_455
Ba9 O17 2.732307 1_455
Ba9 O18 2.862094 1_555
Ba9 O23 2.862094 1_555
Ba9 O33 2.968958 1_555
Ba9 O12 3.057912 1_555
Ba9 O9 3.057912 1_555
Ba10 O1 2.659602 1_555
Ba10 O2 2.685133 1_555
Ba10 O18 2.732307 1_555
Ba10 O23 2.732307 1_555
Ba10 O20 2.862094 1_555
Ba10 O17 2.862094 1_555
Ba10 O34 2.968958 1_555
Ba10 O10 3.057912 1_555
Ba10 O15 3.057912 1_555
Ba11 O0 2.659602 1_555
Ba11 O3 2.685133 1_555
Ba11 O22 2.732307 1_555
Ba11 O19 2.732307 1_555
Ba11 O16 2.862094 1_555
Ba11 O21 2.862094 1_555
Ba11 O35 2.968958 1_555
Ba11 O14 3.057912 1_555
Ba11 O11 3.057912 1_555
Ba12 O44 2.695161 1_555
Ba12 O45 2.695161 1_555
Ba12 O37 2.727798 1_555
Ba12 O36 2.727798 1_555
Ba12 O5 2.755152 1_555
Ba12 O4 2.755152 1_555
Ba12 O25 3.007097 1_555
Ba12 O24 3.007097 1_555
Ba13 O46 2.695161 1_455
Ba13 O47 2.695161 1_554
Ba13 O38 2.727798 1_555
Ba13 O39 2.727798 1_454
Ba13 O7 2.755152 1_564
Ba13 O6 2.755152 1_465
Ba13 O26 3.007097 1_555
Ba13 O27 3.007097 1_454
Ba14 O48 2.695161 1_555
Ba14 O49 2.695161 1_555
Ba14 O40 2.727798 1_555
Ba14 O41 2.727798 1_555
Ba14 O5 2.755152 1_565
Ba14 O4 2.755152 1_565
Ba14 O29 3.007097 1_555
Ba14 O28 3.007097 1_555
Ba15 O51 2.695161 1_455
Ba15 O50 2.695161 1_554
Ba15 O43 2.727798 1_555
Ba15 O42 2.727798 1_454
Ba15 O7 2.755152 1_554
Ba15 O6 2.755152 1_455
Ba15 O30 3.007097 1_454
Ba15 O31 3.007097 1_555
Ba16 O24 2.699570 1_555
Ba16 O8 2.742973 1_455
Ba16 O14 2.845362 1_555
Ba16 O21 2.974415 1_555
Ba16 O0 3.055256 1_555
Ba16 O19 3.100954 1_555
Ba16 O36 3.296187 1_555
Ba16 Cl0 3.323671 1_555
Ba16 Cl3 3.750260 1_555
Ba17 O25 2.699570 1_555
Ba17 O9 2.742973 1_655
Ba17 O15 2.845362 1_555
Ba17 O20 2.974415 1_555
Ba17 O1 3.055256 1_555
Ba17 O18 3.100954 1_555
Ba17 O37 3.296187 1_555
Ba17 Cl1 3.323671 1_555
Ba17 Cl2 3.750260 1_555
Ba18 O26 2.699570 1_555
Ba18 O10 2.742973 1_555
Ba18 O12 2.845362 1_555
Ba18 O23 2.974415 1_555
Ba18 O2 3.055256 1_555
Ba18 O17 3.100954 1_455
Ba18 O38 3.296187 1_555
Ba18 Cl2 3.323671 1_465
Ba18 Cl1 3.750260 1_565
Ba19 O27 2.699570 1_555
Ba19 O11 2.742973 1_555
Ba19 O13 2.845362 1_555
Ba19 O22 2.974415 1_555
Ba19 O3 3.055256 1_555
Ba19 O16 3.100954 1_655
Ba19 O39 3.296187 1_555
Ba19 Cl3 3.323671 1_665
Ba19 Cl0 3.750260 1_565
Ba20 O28 2.699570 1_555
Ba20 O12 2.742973 1_655
Ba20 O10 2.845362 1_555
Ba20 O17 2.974415 1_555
Ba20 O1 3.055256 1_555
Ba20 O23 3.100954 1_555
Ba20 O40 3.296187 1_555
Ba20 Cl1 3.323671 1_565
Ba20 Cl2 3.750260 1_565
Ba21 O29 2.699570 1_555
Ba21 O13 2.742973 1_455
Ba21 O11 2.845362 1_555
Ba21 O16 2.974415 1_555
Ba21 O0 3.055256 1_555
Ba21 O22 3.100954 1_555
Ba21 O41 3.296187 1_555
Ba21 Cl0 3.323671 1_565
Ba21 Cl3 3.750260 1_565
Ba22 O30 2.699570 1_555
Ba22 O14 2.742973 1_555
Ba22 O8 2.845362 1_555
Ba22 O19 2.974415 1_555
Ba22 O3 3.055256 1_555
Ba22 O21 3.100954 1_655
Ba22 O42 3.296187 1_555
Ba22 Cl3 3.323671 1_655
Ba22 Cl0 3.750260 1_555
Ba23 O31 2.699570 1_555
Ba23 O15 2.742973 1_555
Ba23 O9 2.845362 1_555
Ba23 O18 2.974415 1_555
Ba23 O2 3.055256 1_555
Ba23 O20 3.100954 1_455
Ba23 O43 3.296187 1_555
Ba23 Cl2 3.323671 1_455
Ba23 Cl1 3.750260 1_555
Ba24 O37 2.762503 1_455
Ba24 O36 2.762503 1_555
Ba24 O25 2.827011 1_455
Ba24 O24 2.827011 1_555
Ba24 O45 2.970331 1_555
Ba24 O44 2.970331 1_455
Ba24 O32 3.143703 1_455
Ba24 O33 3.143703 1_555
Ba25 O38 2.762503 1_555
Ba25 O39 2.762503 1_554
Ba25 O26 2.827011 1_555
Ba25 O27 2.827011 1_554
Ba25 O46 2.970331 1_555
Ba25 O47 2.970331 1_554
Ba25 O35 3.143703 1_554
Ba25 O34 3.143703 1_555
Ba26 O40 2.762503 1_455
Ba26 O41 2.762503 1_555
Ba26 O28 2.827011 1_455
Ba26 O29 2.827011 1_555
Ba26 O48 2.970331 1_555
Ba26 O49 2.970331 1_455
Ba26 O32 3.143703 1_455
Ba26 O33 3.143703 1_555
Ba27 O43 2.762503 1_555
Ba27 O42 2.762503 1_554
Ba27 O30 2.827011 1_554
Ba27 O31 2.827011 1_555
Ba27 O51 2.970331 1_555
Ba27 O50 2.970331 1_554
Ba27 O35 3.143703 1_554
Ba27 O34 3.143703 1_555
Ge0 O32 1.755963 1_455
Ge0 O36 1.779926 1_555
Ge0 O41 1.779926 1_555
Ge0 O0 1.788984 1_555
Ge1 O33 1.755963 1_655
Ge1 O37 1.779926 1_555
Ge1 O40 1.779926 1_555
Ge1 O1 1.788984 1_555
Ge2 O34 1.755963 1_555
Ge2 O43 1.779926 1_555
Ge2 O38 1.779926 1_555
Ge2 O2 1.788984 1_555
Ge3 O35 1.755963 1_555
Ge3 O42 1.779926 1_555
Ge3 O39 1.779926 1_555
Ge3 O3 1.788984 1_555
B0 O44 1.387192 1_555
B0 O8 1.392145 1_555
B0 O19 1.407711 1_555
B1 O45 1.387192 1_555
B1 O9 1.392145 1_555
B1 O18 1.407711 1_555
B2 O46 1.387192 1_555
B2 O10 1.392145 1_555
B2 O17 1.407711 1_555
B3 O47 1.387192 1_555
B3 O11 1.392145 1_555
B3 O16 1.407711 1_555
B4 O48 1.387192 1_555
B4 O12 1.392145 1_555
B4 O23 1.407711 1_555
B5 O49 1.387192 1_555
B5 O13 1.392145 1_555
B5 O22 1.407711 1_555
B6 O50 1.387192 1_555
B6 O14 1.392145 1_555
B6 O21 1.407711 1_555
B7 O51 1.387192 1_555
B7 O15 1.392145 1_555
B7 O20 1.407711 1_555
B8 O5 1.389243 1_555
B8 O29 1.392211 1_545
B8 O24 1.392211 1_555
B9 O4 1.389243 1_555
B9 O28 1.392211 1_545
B9 O25 1.392211 1_555
B10 O7 1.389243 1_554
B10 O26 1.392211 1_545
B10 O31 1.392211 1_555
B11 O6 1.389243 1_556
B11 O27 1.392211 1_545
B11 O30 1.392211 1_555
