# generated using pymatgen
data_Li2VO2F
_symmetry_space_group_name_H-M   'P 1'
_cell_length_a   5.73433444
_cell_length_b   6.85851227
_cell_length_c   5.73433302
_cell_angle_alpha   77.98579937
_cell_angle_beta   91.67648646
_cell_angle_gamma   102.01418110
_symmetry_Int_Tables_number   1
_chemical_formula_structural   Li2VO2F
_chemical_formula_sum   'Li8 V4 O8 F4'
_cell_volume   215.73067072
_cell_formula_units_Z   4
loop_
 _symmetry_equiv_pos_site_id
 _symmetry_equiv_pos_as_xyz
  1  'x, y, z'
loop_
 _atom_site_type_symbol
 _atom_site_label
 _atom_site_symmetry_multiplicity
 _atom_site_fract_x
 _atom_site_fract_y
 _atom_site_fract_z
 _atom_site_occupancy
  Li  Li0  1  0.16666900  0.66666600  0.83333200  1
  Li  Li1  1  0.66666800  0.66666500  0.33333100  1
  Li  Li2  1  0.66666500  0.66666300  0.83333500  1
  Li  Li3  1  0.16666900  0.66666600  0.33333200  1
  Li  Li4  1  0.99651000  0.99357800  0.00270100  1
  Li  Li5  1  0.49730000  0.99357900  0.50348900  1
  Li  Li6  1  0.83603400  0.33975100  0.16317900  1
  Li  Li7  1  0.33682200  0.33975200  0.66396400  1
  V  V0  1  0.49858200  0.00479800  0.00140300  1
  V  V1  1  0.83474200  0.32852800  0.66525800  1
  V  V2  1  0.99874700  0.00431300  0.50125800  1
  V  V3  1  0.33459600  0.32903300  0.16541700  1
  O  O0  1  0.24465800  0.98557500  0.75524000  1
  O  O1  1  0.74476600  0.98557500  0.25534700  1
  O  O2  1  0.08868400  0.34775700  0.91143400  1
  O  O3  1  0.58857200  0.34776000  0.41132000  1
  O  O4  1  0.74980000  0.00943200  0.75019700  1
  O  O5  1  0.25024000  0.01032900  0.24975600  1
  O  O6  1  0.58352900  0.32390900  0.91646900  1
  O  O7  1  0.08308800  0.32300600  0.41690500  1
  F  F0  1  0.91668000  0.66666800  0.08335500  1
  F  F1  1  0.41664600  0.66666700  0.58331500  1
  F  F2  1  0.91750200  0.66678900  0.58249300  1
  F  F3  1  0.41583500  0.66654700  0.08416600  1
loop_
_geom_bond_atom_site_label_1
_geom_bond_atom_site_label_2
_geom_bond_distance
_geom_bond_site_symmetry_2
Li0 O0 2.093155 1_555
Li0 O2 2.093155 1_555
Li1 O3 2.093129 1_555
Li1 O1 2.093162 1_555
Li2 O6 2.249648 1_555
Li2 O4 2.249747 1_565
Li3 O7 2.255597 1_555
Li3 O5 2.255616 1_565
Li4 O4 1.997104 1_564
Li4 O5 2.003680 1_665
Li4 O0 2.055373 1_654
Li4 O1 2.059642 1_555
Li4 O2 2.325170 1_664
Li5 O4 1.997080 1_565
Li5 O5 2.003711 1_565
Li5 O1 2.055371 1_555
Li5 O0 2.059652 1_555
Li5 O3 2.325183 1_565
Li6 O6 1.997104 1_554
Li6 O7 2.003658 1_655
Li6 O3 2.055361 1_555
Li6 O2 2.059657 1_654
Li6 O1 2.325150 1_545
Li7 O6 1.997092 1_555
Li7 O7 2.003710 1_555
Li7 O2 2.055373 1_555
Li7 O3 2.059649 1_555
Li7 O0 2.325157 1_545
O0 V2 2.000876 1_465
O0 V0 2.001854 1_566
O1 V2 2.000872 1_565
O1 V0 2.002017 1_565
O2 V3 2.000879 1_556
O2 V1 2.001980 1_455
O3 V3 2.000816 1_555
O3 V1 2.001941 1_555
O4 V0 2.057810 1_556
O4 V2 2.058601 1_555
O4 V1 2.095341 1_555
O5 V0 2.054568 1_555
O5 V2 2.057563 1_455
O5 V3 2.092649 1_555
O6 V1 2.057839 1_555
O6 V3 2.058591 1_556
O6 V0 2.095439 1_556
O7 V1 2.054566 1_455
O7 V3 2.057547 1_555
O7 V2 2.092577 1_455
F0 Li3 1.997380 1_655
F0 Li2 1.997656 1_554
F0 Li1 2.056781 1_555
F0 Li0 2.056889 1_654
F0 Li4 2.145680 1_555
F0 Li6 2.145726 1_555
F1 Li3 1.997356 1_555
F1 Li2 1.997672 1_555
F1 Li0 2.056809 1_555
F1 Li1 2.056865 1_555
F1 Li5 2.145693 1_555
F1 Li7 2.145713 1_555
F2 Li1 1.997511 1_555
F2 Li0 1.997551 1_655
F2 Li3 2.050203 1_655
F2 Li2 2.063492 1_555
F2 V2 2.215323 1_565
F2 V1 2.220171 1_555
F3 Li1 1.997519 1_555
F3 Li0 1.997527 1_554
F3 Li3 2.050211 1_555
F3 Li2 2.063438 1_554
F3 V3 2.215257 1_555
F3 V0 2.220106 1_565
