# generated using pymatgen
data_BaCa3(CuN2)2
_symmetry_space_group_name_H-M   'P 1'
_cell_length_a   8.20826900
_cell_length_b   8.38334900
_cell_length_c   12.49616600
_cell_angle_alpha   90.00000000
_cell_angle_beta   90.00000000
_cell_angle_gamma   90.00000000
_symmetry_Int_Tables_number   1
_chemical_formula_structural   BaCa3(CuN2)2
_chemical_formula_sum   'Ba4 Ca12 Cu8 N16'
_cell_volume   859.89596820
_cell_formula_units_Z   4
loop_
 _symmetry_equiv_pos_site_id
 _symmetry_equiv_pos_as_xyz
  1  'x, y, z'
loop_
 _atom_site_type_symbol
 _atom_site_label
 _atom_site_symmetry_multiplicity
 _atom_site_fract_x
 _atom_site_fract_y
 _atom_site_fract_z
 _atom_site_occupancy
  Ba  Ba0  1  0.72233500  0.73699700  0.10163500  1
  Ba  Ba1  1  0.27766500  0.23699700  0.89836500  1
  Ba  Ba2  1  0.77766500  0.73699700  0.60163500  1
  Ba  Ba3  1  0.22233500  0.23699700  0.39836500  1
  Ca  Ca0  1  0.92709100  0.35738200  0.17059000  1
  Ca  Ca1  1  0.12274100  0.91428100  0.16395800  1
  Ca  Ca2  1  0.62274100  0.41428100  0.33604200  1
  Ca  Ca3  1  0.37725900  0.91428100  0.66395800  1
  Ca  Ca4  1  0.07290900  0.85738200  0.82941000  1
  Ca  Ca5  1  0.87725900  0.41428100  0.83604200  1
  Ca  Ca6  1  0.57290900  0.35738200  0.67059000  1
  Ca  Ca7  1  0.39851600  0.63013300  0.83546800  1
  Ca  Ca8  1  0.10148400  0.63013300  0.33546800  1
  Ca  Ca9  1  0.60148400  0.13013300  0.16453200  1
  Ca  Ca10  1  0.42709100  0.85738200  0.32941000  1
  Ca  Ca11  1  0.89851600  0.13013300  0.66453200  1
  Cu  Cu0  1  0.58683400  0.09819500  0.48724400  1
  Cu  Cu1  1  0.41316600  0.59819500  0.51275600  1
  Cu  Cu2  1  0.91316600  0.09819500  0.98724400  1
  Cu  Cu3  1  0.89281400  0.40812400  0.50278100  1
  Cu  Cu4  1  0.60718600  0.40812400  0.00278100  1
  Cu  Cu5  1  0.08683400  0.59819500  0.01275600  1
  Cu  Cu6  1  0.10718600  0.90812400  0.49721900  1
  Cu  Cu7  1  0.39281400  0.90812400  0.99721900  1
  N  N0  1  0.57317800  0.40849000  0.85985500  1
  N  N1  1  0.34802200  0.91393600  0.85535100  1
  N  N2  1  0.03473000  0.63641300  0.14991700  1
  N  N3  1  0.61997800  0.06289100  0.62627800  1
  N  N4  1  0.15197800  0.91393600  0.35535100  1
  N  N5  1  0.88002200  0.06289100  0.12627800  1
  N  N6  1  0.11997800  0.56289100  0.87372200  1
  N  N7  1  0.65197800  0.41393600  0.14464900  1
  N  N8  1  0.84802200  0.41393600  0.64464900  1
  N  N9  1  0.53473000  0.13641300  0.35008300  1
  N  N10  1  0.92682200  0.40849000  0.35985500  1
  N  N11  1  0.38002200  0.56289100  0.37372200  1
  N  N12  1  0.46527000  0.63641300  0.64991700  1
  N  N13  1  0.96527000  0.13641300  0.85008300  1
  N  N14  1  0.42682200  0.90849000  0.14014500  1
  N  N15  1  0.07317800  0.90849000  0.64014500  1
loop_
_geom_bond_atom_site_label_1
_geom_bond_atom_site_label_2
_geom_bond_distance
_geom_bond_site_symmetry_2
Ba0 N2 2.765916 1_655
Ba0 N7 2.820904 1_555
Ba0 N14 2.860472 1_555
Ba0 N5 3.038818 1_565
Ba1 N13 2.765916 1_455
Ba1 N1 2.820904 1_545
Ba1 N0 2.860472 1_555
Ba1 N6 3.038818 1_555
Ba2 N12 2.765916 1_555
Ba2 N8 2.820904 1_555
Ba2 N15 2.860472 1_655
Ba2 N3 3.038818 1_565
Ba3 N9 2.765916 1_555
Ba3 N4 2.820904 1_545
Ba3 N10 2.860472 1_455
Ba3 N11 3.038818 1_555
Ca0 N7 2.330094 1_555
Ca0 N10 2.403584 1_555
Ca0 N2 2.513819 1_655
Ca0 N5 2.559485 1_555
Ca1 N5 2.396480 1_465
Ca1 N4 2.403691 1_555
Ca1 N2 2.445215 1_555
Ca1 N14 2.514123 1_555
Ca2 N11 2.396480 1_555
Ca2 N7 2.403691 1_555
Ca2 N9 2.445215 1_555
Ca2 N10 2.514123 1_555
Ca3 N3 2.396480 1_565
Ca3 N1 2.403691 1_555
Ca3 N12 2.445215 1_555
Ca3 N15 2.514123 1_555
Ca4 N1 2.330094 1_555
Ca4 N15 2.403584 1_555
Ca4 N13 2.513819 1_465
Ca4 N6 2.559485 1_555
Ca5 N6 2.396480 1_655
Ca5 N8 2.403691 1_555
Ca5 N13 2.445215 1_555
Ca5 N0 2.514123 1_555
Ca6 N8 2.330094 1_555
Ca6 N0 2.403584 1_555
Ca6 N12 2.513819 1_555
Ca6 N3 2.559485 1_555
Ca7 N0 2.366614 1_555
Ca7 N12 2.383120 1_555
Ca7 N6 2.402815 1_555
Ca7 N1 2.427798 1_555
Ca8 N10 2.366614 1_455
Ca8 N2 2.383120 1_555
Ca8 N11 2.402815 1_555
Ca8 N4 2.427798 1_555
Ca9 N14 2.366614 1_545
Ca9 N9 2.383120 1_555
Ca9 N5 2.402815 1_555
Ca9 N7 2.427798 1_555
Ca10 N4 2.330094 1_555
Ca10 N14 2.403584 1_555
Ca10 N9 2.513819 1_565
Ca10 N11 2.559485 1_555
Ca11 N15 2.366614 1_645
Ca11 N13 2.383120 1_555
Ca11 N3 2.402815 1_555
Ca11 N8 2.427798 1_555
Cu0 N3 1.783295 1_555
Cu0 N9 1.795360 1_555
Cu1 N11 1.783295 1_555
Cu1 N12 1.795360 1_555
Cu2 N5 1.783295 1_556
Cu2 N13 1.795360 1_555
Cu3 N10 1.807713 1_555
Cu3 N8 1.811185 1_555
Cu4 N0 1.807713 1_554
Cu4 N7 1.811185 1_555
Cu5 N6 1.783295 1_554
Cu5 N2 1.795360 1_555
Cu6 N15 1.807713 1_555
Cu6 N4 1.811185 1_555
Cu7 N14 1.807713 1_556
Cu7 N1 1.811185 1_555
