# generated using pymatgen
data_Mg5Ge
_symmetry_space_group_name_H-M   'P 1'
_cell_length_a   11.69765468
_cell_length_b   11.69765468
_cell_length_c   14.91396645
_cell_angle_alpha   75.01667445
_cell_angle_beta   75.01667445
_cell_angle_gamma   32.09969359
_symmetry_Int_Tables_number   1
_chemical_formula_structural   Mg5Ge
_chemical_formula_sum   'Mg40 Ge8'
_cell_volume   1044.46504288
_cell_formula_units_Z   8
loop_
 _symmetry_equiv_pos_site_id
 _symmetry_equiv_pos_as_xyz
  1  'x, y, z'
loop_
 _atom_site_type_symbol
 _atom_site_label
 _atom_site_symmetry_multiplicity
 _atom_site_fract_x
 _atom_site_fract_y
 _atom_site_fract_z
 _atom_site_occupancy
  Mg  Mg0_0  1  0.13964550  0.13964550  0.47342400  1
  Mg  Mg0_1  1  0.13964550  0.13964550  0.97342400  1
  Mg  Mg0_2  1  0.13964550  0.63964550  0.47342400  1
  Mg  Mg0_3  1  0.13964550  0.63964550  0.97342400  1
  Mg  Mg0_4  1  0.63964550  0.13964550  0.47342400  1
  Mg  Mg0_5  1  0.63964550  0.13964550  0.97342400  1
  Mg  Mg0_6  1  0.63964550  0.63964550  0.47342400  1
  Mg  Mg0_7  1  0.63964550  0.63964550  0.97342400  1
  Mg  Mg1_0  1  0.33377950  0.33377950  0.33468600  1
  Mg  Mg1_1  1  0.33377950  0.33377950  0.83468600  1
  Mg  Mg1_2  1  0.33377950  0.83377950  0.33468600  1
  Mg  Mg1_3  1  0.33377950  0.83377950  0.83468600  1
  Mg  Mg1_4  1  0.83377950  0.33377950  0.33468600  1
  Mg  Mg1_5  1  0.83377950  0.33377950  0.83468600  1
  Mg  Mg1_6  1  0.83377950  0.83377950  0.33468600  1
  Mg  Mg1_7  1  0.83377950  0.83377950  0.83468600  1
  Mg  Mg2_0  1  0.47630250  0.47630250  0.29562450  1
  Mg  Mg2_1  1  0.47630250  0.47630250  0.79562450  1
  Mg  Mg2_2  1  0.47630250  0.97630250  0.29562450  1
  Mg  Mg2_3  1  0.47630250  0.97630250  0.79562450  1
  Mg  Mg2_4  1  0.97630250  0.47630250  0.29562450  1
  Mg  Mg2_5  1  0.97630250  0.47630250  0.79562450  1
  Mg  Mg2_6  1  0.97630250  0.97630250  0.29562450  1
  Mg  Mg2_7  1  0.97630250  0.97630250  0.79562450  1
  Mg  Mg3_0  1  0.16094450  0.16094450  0.16672400  1
  Mg  Mg3_1  1  0.16094450  0.16094450  0.66672400  1
  Mg  Mg3_2  1  0.16094450  0.66094450  0.16672400  1
  Mg  Mg3_3  1  0.16094450  0.66094450  0.66672400  1
  Mg  Mg3_4  1  0.66094450  0.16094450  0.16672400  1
  Mg  Mg3_5  1  0.66094450  0.16094450  0.66672400  1
  Mg  Mg3_6  1  0.66094450  0.66094450  0.16672400  1
  Mg  Mg3_7  1  0.66094450  0.66094450  0.66672400  1
  Mg  Mg4_0  1  0.00136300  0.00136300  0.00645550  1
  Mg  Mg4_1  1  0.00136300  0.00136300  0.50645550  1
  Mg  Mg4_2  1  0.00136300  0.50136300  0.00645550  1
  Mg  Mg4_3  1  0.00136300  0.50136300  0.50645550  1
  Mg  Mg4_4  1  0.50136300  0.00136300  0.00645550  1
  Mg  Mg4_5  1  0.50136300  0.00136300  0.50645550  1
  Mg  Mg4_6  1  0.50136300  0.50136300  0.00645550  1
  Mg  Mg4_7  1  0.50136300  0.50136300  0.50645550  1
  Ge  Ge0_0  1  0.30463350  0.30463350  0.13975250  1
  Ge  Ge0_1  1  0.30463350  0.30463350  0.63975250  1
  Ge  Ge0_2  1  0.30463350  0.80463350  0.13975250  1
  Ge  Ge0_3  1  0.30463350  0.80463350  0.63975250  1
  Ge  Ge0_4  1  0.80463350  0.30463350  0.13975250  1
  Ge  Ge0_5  1  0.80463350  0.30463350  0.63975250  1
  Ge  Ge0_6  1  0.80463350  0.80463350  0.13975250  1
  Ge  Ge0_7  1  0.80463350  0.80463350  0.63975250  1
loop_
_geom_bond_atom_site_label_1
_geom_bond_atom_site_label_2
_geom_bond_distance
_geom_bond_site_symmetry_2
Mg0_0 Mg4_1 3.014109 1_555
Mg0_0 Mg3_1 3.046810 1_555
Mg0_0 Mg4_3 3.135662 1_555
Mg0_0 Mg4_5 3.135662 1_555
Mg0_0 Mg1_2 3.142005 1_545
Mg0_0 Mg1_4 3.142005 1_455
Mg0_0 Mg0_6 3.234092 1_545
Mg0_0 Mg0_6 3.234092 1_455
Mg0_0 Mg2_2 3.265362 1_545
Mg0_0 Mg2_4 3.265362 1_455
Mg0_1 Mg4_0 3.014109 1_556
Mg0_1 Mg3_0 3.046810 1_556
Mg0_1 Mg4_2 3.135662 1_556
Mg0_1 Mg4_4 3.135662 1_556
Mg0_1 Mg1_5 3.142005 1_455
Mg0_1 Mg1_3 3.142005 1_545
Mg0_1 Mg0_7 3.234092 1_545
Mg0_1 Mg0_7 3.234092 1_455
Mg0_1 Mg2_3 3.265362 1_545
Mg0_1 Mg2_5 3.265362 1_455
Mg0_2 Mg4_3 3.014109 1_555
Mg0_2 Mg3_3 3.046810 1_555
Mg0_2 Mg4_7 3.135662 1_555
Mg0_2 Mg4_1 3.135662 1_565
Mg0_2 Mg1_6 3.142005 1_455
Mg0_2 Mg1_0 3.142005 1_555
Mg0_2 Mg0_4 3.234092 1_465
Mg0_2 Mg0_4 3.234092 1_555
Mg0_2 Mg2_0 3.265362 1_555
Mg0_2 Mg2_6 3.265362 1_455
Mg0_3 Mg4_2 3.014109 1_556
Mg0_3 Mg3_2 3.046810 1_556
Mg0_3 Mg4_0 3.135662 1_566
Mg0_3 Mg4_6 3.135662 1_556
Mg0_3 Mg1_1 3.142005 1_555
Mg0_3 Mg1_7 3.142005 1_455
Mg0_3 Mg0_5 3.234092 1_555
Mg0_3 Mg0_5 3.234092 1_465
Mg0_3 Mg2_7 3.265362 1_455
Mg0_3 Mg2_1 3.265362 1_555
Mg0_4 Mg4_5 3.014109 1_555
Mg0_4 Mg3_5 3.046810 1_555
Mg0_4 Mg4_7 3.135662 1_555
Mg0_4 Mg4_1 3.135662 1_655
Mg0_4 Mg1_6 3.142005 1_545
Mg0_4 Mg1_0 3.142005 1_555
Mg0_4 Mg2_0 3.265362 1_555
Mg0_4 Mg2_6 3.265362 1_545
Mg0_5 Mg4_4 3.014109 1_556
Mg0_5 Mg3_4 3.046810 1_556
Mg0_5 Mg4_6 3.135662 1_556
Mg0_5 Mg4_0 3.135662 1_656
Mg0_5 Mg1_1 3.142005 1_555
Mg0_5 Mg1_7 3.142005 1_545
Mg0_5 Mg2_7 3.265362 1_545
Mg0_5 Mg2_1 3.265362 1_555
Mg0_6 Mg4_7 3.014109 1_555
Mg0_6 Mg3_7 3.046810 1_555
Mg0_6 Mg4_5 3.135662 1_565
Mg0_6 Mg4_3 3.135662 1_655
Mg0_6 Mg1_2 3.142005 1_555
Mg0_6 Mg1_4 3.142005 1_555
Mg0_6 Mg2_4 3.265362 1_555
Mg0_6 Mg2_2 3.265362 1_555
Mg0_7 Mg4_6 3.014109 1_556
Mg0_7 Mg3_6 3.046810 1_556
Mg0_7 Mg4_4 3.135662 1_566
Mg0_7 Mg4_2 3.135662 1_656
Mg0_7 Mg1_5 3.142005 1_555
Mg0_7 Mg1_3 3.142005 1_555
Mg0_7 Mg2_3 3.265362 1_555
Mg0_7 Mg2_5 3.265362 1_555
Mg1_0 Mg2_4 3.090447 1_455
Mg1_0 Mg2_2 3.090447 1_545
Mg1_0 Mg3_2 3.092153 1_555
Mg1_0 Mg3_4 3.092153 1_555
Mg1_0 Mg2_0 3.098896 1_555
Mg1_0 Mg4_5 3.171278 1_555
Mg1_0 Mg4_3 3.171278 1_555
Mg1_0 Mg1_6 3.234092 1_455
Mg1_0 Mg1_6 3.234092 1_545
Mg1_1 Mg2_5 3.090447 1_455
Mg1_1 Mg2_3 3.090447 1_545
Mg1_1 Mg3_5 3.092153 1_555
Mg1_1 Mg3_3 3.092153 1_555
Mg1_1 Mg2_1 3.098896 1_555
Mg1_1 Mg4_2 3.171278 1_556
Mg1_1 Mg4_4 3.171278 1_556
Mg1_1 Mg1_7 3.234092 1_545
Mg1_1 Mg1_7 3.234092 1_455
Mg1_2 Mg2_6 3.090447 1_455
Mg1_2 Mg2_0 3.090447 1_555
Mg1_2 Mg3_6 3.092153 1_555
Mg1_2 Mg3_0 3.092153 1_565
Mg1_2 Mg2_2 3.098896 1_555
Mg1_2 Mg4_1 3.171278 1_565
Mg1_2 Mg4_7 3.171278 1_555
Mg1_2 Mg1_4 3.234092 1_555
Mg1_2 Mg1_4 3.234092 1_465
Mg1_3 Mg2_1 3.090447 1_555
Mg1_3 Mg2_7 3.090447 1_455
Mg1_3 Mg3_1 3.092153 1_565
Mg1_3 Mg3_7 3.092153 1_555
Mg1_3 Mg2_3 3.098896 1_555
Mg1_3 Mg4_0 3.171278 1_566
Mg1_3 Mg4_6 3.171278 1_556
Mg1_3 Mg1_5 3.234092 1_555
Mg1_3 Mg1_5 3.234092 1_465
Mg1_4 Mg2_6 3.090447 1_545
Mg1_4 Mg2_0 3.090447 1_555
Mg1_4 Mg3_0 3.092153 1_655
Mg1_4 Mg3_6 3.092153 1_555
Mg1_4 Mg2_4 3.098896 1_555
Mg1_4 Mg4_1 3.171278 1_655
Mg1_4 Mg4_7 3.171278 1_555
Mg1_5 Mg2_1 3.090447 1_555
Mg1_5 Mg2_7 3.090447 1_545
Mg1_5 Mg3_7 3.092153 1_555
Mg1_5 Mg3_1 3.092153 1_655
Mg1_5 Mg2_5 3.098896 1_555
Mg1_5 Mg4_0 3.171278 1_656
Mg1_5 Mg4_6 3.171278 1_556
Mg1_6 Mg2_2 3.090447 1_555
Mg1_6 Mg2_4 3.090447 1_555
Mg1_6 Mg3_4 3.092153 1_565
Mg1_6 Mg3_2 3.092153 1_655
Mg1_6 Mg2_6 3.098896 1_555
Mg1_6 Mg4_5 3.171278 1_565
Mg1_6 Mg4_3 3.171278 1_655
Mg1_7 Mg2_3 3.090447 1_555
Mg1_7 Mg2_5 3.090447 1_555
Mg1_7 Mg3_5 3.092153 1_565
Mg1_7 Mg3_3 3.092153 1_655
Mg1_7 Mg2_7 3.098896 1_555
Mg1_7 Mg4_4 3.171278 1_566
Mg1_7 Mg4_2 3.171278 1_656
Ge0_0 Mg2_2 2.986260 1_545
Ge0_0 Mg2_4 2.986260 1_455
Ge0_0 Mg3_2 3.001196 1_555
Ge0_0 Mg3_4 3.001196 1_555
Ge0_0 Mg4_4 3.046723 1_555
Ge0_0 Mg4_2 3.046723 1_555
Ge0_0 Mg0_3 3.141738 1_554
Ge0_0 Mg0_5 3.141738 1_554
Ge0_0 Mg3_0 3.146345 1_555
Ge0_0 Mg1_0 3.147453 1_555
Ge0_1 Mg2_3 2.986260 1_545
Ge0_1 Mg2_5 2.986260 1_455
Ge0_1 Mg3_3 3.001196 1_555
Ge0_1 Mg3_5 3.001196 1_555
Ge0_1 Mg4_5 3.046723 1_555
Ge0_1 Mg4_3 3.046723 1_555
Ge0_1 Mg0_4 3.141738 1_555
Ge0_1 Mg0_2 3.141738 1_555
Ge0_1 Mg3_1 3.146345 1_555
Ge0_1 Mg1_1 3.147453 1_555
Ge0_2 Mg2_6 2.986260 1_455
Ge0_2 Mg2_0 2.986260 1_555
Ge0_2 Mg3_0 3.001196 1_565
Ge0_2 Mg3_6 3.001196 1_555
Ge0_2 Mg4_6 3.046723 1_555
Ge0_2 Mg4_0 3.046723 1_565
Ge0_2 Mg0_7 3.141738 1_554
Ge0_2 Mg0_1 3.141738 1_564
Ge0_2 Mg3_2 3.146345 1_555
Ge0_2 Mg1_2 3.147453 1_555
Ge0_3 Mg2_1 2.986260 1_555
Ge0_3 Mg2_7 2.986260 1_455
Ge0_3 Mg3_1 3.001196 1_565
Ge0_3 Mg3_7 3.001196 1_555
Ge0_3 Mg4_1 3.046723 1_565
Ge0_3 Mg4_7 3.046723 1_555
Ge0_3 Mg0_0 3.141738 1_565
Ge0_3 Mg0_6 3.141738 1_555
Ge0_3 Mg3_3 3.146345 1_555
Ge0_3 Mg1_3 3.147453 1_555
Ge0_4 Mg2_6 2.986260 1_545
Ge0_4 Mg2_0 2.986260 1_555
Ge0_4 Mg3_0 3.001196 1_655
Ge0_4 Mg3_6 3.001196 1_555
Ge0_4 Mg4_6 3.046723 1_555
Ge0_4 Mg4_0 3.046723 1_655
Ge0_4 Mg0_7 3.141738 1_554
Ge0_4 Mg0_1 3.141738 1_654
Ge0_4 Mg3_4 3.146345 1_555
Ge0_4 Mg1_4 3.147453 1_555
Ge0_5 Mg2_1 2.986260 1_555
Ge0_5 Mg2_7 2.986260 1_545
Ge0_5 Mg3_7 3.001196 1_555
Ge0_5 Mg3_1 3.001196 1_655
Ge0_5 Mg4_1 3.046723 1_655
Ge0_5 Mg4_7 3.046723 1_555
Ge0_5 Mg0_0 3.141738 1_655
Ge0_5 Mg0_6 3.141738 1_555
Ge0_5 Mg3_5 3.146345 1_555
Ge0_5 Mg1_5 3.147453 1_555
Ge0_6 Mg2_4 2.986260 1_555
Ge0_6 Mg2_2 2.986260 1_555
Ge0_6 Mg3_2 3.001196 1_655
Ge0_6 Mg3_4 3.001196 1_565
Ge0_6 Mg4_2 3.046723 1_655
Ge0_6 Mg4_4 3.046723 1_565
Ge0_6 Mg0_5 3.141738 1_564
Ge0_6 Mg0_3 3.141738 1_654
Ge0_6 Mg3_6 3.146345 1_555
Ge0_6 Mg1_6 3.147453 1_555
Ge0_7 Mg2_5 2.986260 1_555
Ge0_7 Mg2_3 2.986260 1_555
Ge0_7 Mg3_5 3.001196 1_565
Ge0_7 Mg3_3 3.001196 1_655
Ge0_7 Mg4_5 3.046723 1_565
Ge0_7 Mg4_3 3.046723 1_655
Ge0_7 Mg0_2 3.141738 1_655
Ge0_7 Mg0_4 3.141738 1_565
Ge0_7 Mg3_7 3.146345 1_555
Ge0_7 Mg1_7 3.147453 1_555
