# generated using pymatgen
data_Tb2ZrAl9
_symmetry_space_group_name_H-M   'P 1'
_cell_length_a   4.22320500
_cell_length_b   4.22320500
_cell_length_c   12.62993100
_cell_angle_alpha   90.00000000
_cell_angle_beta   90.00000000
_cell_angle_gamma   90.00000000
_symmetry_Int_Tables_number   1
_chemical_formula_structural   Tb2ZrAl9
_chemical_formula_sum   'Tb2 Zr1 Al9'
_cell_volume   225.26063511
_cell_formula_units_Z   1
loop_
 _symmetry_equiv_pos_site_id
 _symmetry_equiv_pos_as_xyz
  1  'x, y, z'
loop_
 _atom_site_type_symbol
 _atom_site_label
 _atom_site_symmetry_multiplicity
 _atom_site_fract_x
 _atom_site_fract_y
 _atom_site_fract_z
 _atom_site_occupancy
  Tb  Tb0  1  0.00000000  0.00000000  0.32903700  1
  Tb  Tb1  1  0.00000000  0.00000000  0.67096300  1
  Zr  Zr0  1  0.00000000  0.00000000  0.00000000  1
  Al  Al0  1  0.50000000  0.50000000  0.00000000  1
  Al  Al1  1  0.50000000  0.50000000  0.33199800  1
  Al  Al2  1  0.50000000  0.50000000  0.66800200  1
  Al  Al3  1  0.50000000  0.00000000  0.15929500  1
  Al  Al4  1  0.50000000  0.00000000  0.50000000  1
  Al  Al5  1  0.50000000  0.00000000  0.84070500  1
  Al  Al6  1  0.00000000  0.50000000  0.15929500  1
  Al  Al7  1  0.00000000  0.50000000  0.50000000  1
  Al  Al8  1  0.00000000  0.50000000  0.84070500  1
loop_
_geom_bond_atom_site_label_1
_geom_bond_atom_site_label_2
_geom_bond_distance
_geom_bond_site_symmetry_2
Al0 Al5 2.916598 1_554
Al0 Al8 2.916598 1_554
Al0 Al5 2.916598 1_564
Al0 Al8 2.916598 1_654
Al0 Al3 2.916598 1_565
Al0 Al6 2.916598 1_555
Al0 Al3 2.916598 1_555
Al0 Al6 2.916598 1_655
Al0 Zr0 2.986257 1_665
Al0 Zr0 2.986257 1_565
Al0 Zr0 2.986257 1_555
Al0 Zr0 2.986257 1_655
Al1 Tb0 2.986491 1_555
Al1 Tb0 2.986491 1_565
Al1 Tb0 2.986491 1_665
Al1 Tb0 2.986491 1_655
Al1 Al4 2.993514 1_555
Al1 Al7 2.993514 1_555
Al1 Al7 2.993514 1_655
Al1 Al4 2.993514 1_565
Al1 Al6 3.035888 1_555
Al1 Al3 3.035888 1_555
Al1 Al6 3.035888 1_655
Al1 Al3 3.035888 1_565
Al2 Tb1 2.986491 1_655
Al2 Tb1 2.986491 1_555
Al2 Tb1 2.986491 1_565
Al2 Tb1 2.986491 1_665
Al2 Al4 2.993514 1_555
Al2 Al7 2.993514 1_555
Al2 Al7 2.993514 1_655
Al2 Al4 2.993514 1_565
Al2 Al5 3.035888 1_565
Al2 Al8 3.035888 1_655
Al2 Al8 3.035888 1_555
Al2 Al5 3.035888 1_555
Al3 Zr0 2.916598 1_555
Al3 Zr0 2.916598 1_655
Al3 Al6 2.986257 1_555
Al3 Al6 2.986257 1_645
Al3 Al6 2.986257 1_545
Al3 Al6 2.986257 1_655
Al3 Tb0 3.009131 1_555
Al3 Tb0 3.009131 1_655
Al4 Al7 2.986257 1_655
Al4 Al7 2.986257 1_545
Al4 Al7 2.986257 1_555
Al4 Al7 2.986257 1_645
Al4 Tb1 3.020137 1_555
Al4 Tb1 3.020137 1_655
Al4 Tb0 3.020137 1_655
Al4 Tb0 3.020137 1_555
Al5 Zr0 2.916598 1_556
Al5 Zr0 2.916598 1_656
Al5 Al8 2.986257 1_555
Al5 Al8 2.986257 1_655
Al5 Al8 2.986257 1_545
Al5 Al8 2.986257 1_645
Al5 Tb1 3.009131 1_655
Al5 Tb1 3.009131 1_555
Al6 Zr0 2.916598 1_555
Al6 Zr0 2.916598 1_565
Al6 Tb0 3.009131 1_555
Al6 Tb0 3.009131 1_565
Al7 Tb1 3.020137 1_555
Al7 Tb0 3.020137 1_565
Al7 Tb1 3.020137 1_565
Al7 Tb0 3.020137 1_555
Al8 Zr0 2.916598 1_556
Al8 Zr0 2.916598 1_566
Al8 Tb1 3.009131 1_565
Al8 Tb1 3.009131 1_555
