# generated using pymatgen
data_Rb(V3S4)2
_symmetry_space_group_name_H-M   'P 1'
_cell_length_a   3.24181395
_cell_length_b   9.28204199
_cell_length_c   9.28255481
_cell_angle_alpha   59.99651341
_cell_angle_beta   90.00013449
_cell_angle_gamma   89.99985066
_symmetry_Int_Tables_number   1
_chemical_formula_structural   Rb(V3S4)2
_chemical_formula_sum   'Rb1 V6 S8'
_cell_volume   241.88810390
_cell_formula_units_Z   1
loop_
 _symmetry_equiv_pos_site_id
 _symmetry_equiv_pos_as_xyz
  1  'x, y, z'
loop_
 _atom_site_type_symbol
 _atom_site_label
 _atom_site_symmetry_multiplicity
 _atom_site_fract_x
 _atom_site_fract_y
 _atom_site_fract_z
 _atom_site_occupancy
  Rb  Rb0  1  0.50000000  -0.00000000  -0.00000000  1
  V  V0  1  0.74805987  0.37836558  0.51131090  1
  V  V1  1  0.74807434  0.11028037  0.37839950  1
  V  V2  1  0.74805961  0.51131420  0.11027763  1
  V  V3  1  0.25194013  0.62163442  0.48868910  1
  V  V4  1  0.25192566  0.88971963  0.62160050  1
  V  V5  1  0.25194039  0.48868580  0.88972237  1
  S  S0  1  0.75105667  0.66668560  0.66665737  1
  S  S1  1  0.24894333  0.33331440  0.33334263  1
  S  S2  1  0.75416770  0.05465409  0.64910437  1
  S  S3  1  0.75418481  0.29624837  0.05466798  1
  S  S4  1  0.75417308  0.64908522  0.29626626  1
  S  S5  1  0.24583230  0.94534591  0.35089563  1
  S  S6  1  0.24581519  0.70375163  0.94533202  1
  S  S7  1  0.24582692  0.35091478  0.70373374  1
loop_
_geom_bond_atom_site_label_1
_geom_bond_atom_site_label_2
_geom_bond_distance
_geom_bond_site_symmetry_2
Rb0 S4 3.145281 1_545
Rb0 S7 3.145281 1_554
Rb0 S2 3.145335 1_554
Rb0 S5 3.145335 1_545
Rb0 S3 3.145382 1_555
Rb0 S6 3.145382 1_544
S0 V3 2.492570 1_555
S0 V4 2.492580 1_555
S0 V5 2.492763 1_555
S0 V4 2.496249 1_655
S0 V3 2.496296 1_655
S0 V5 2.496474 1_655
S1 V0 2.492570 1_555
S1 V1 2.492580 1_555
S1 V2 2.492763 1_555
S1 V1 2.496249 1_455
S1 V0 2.496296 1_455
S1 V2 2.496474 1_455
S2 V1 2.298637 1_555
S2 V4 2.324573 1_645
S2 V4 2.334692 1_545
S2 V0 2.611709 1_555
S3 V2 2.298357 1_555
S3 V5 2.324547 1_654
S3 V5 2.334660 1_554
S3 V1 2.612016 1_555
S4 V0 2.298441 1_555
S4 V3 2.324670 1_655
S4 V3 2.334750 1_555
S4 V2 2.612346 1_555
S5 V4 2.298637 1_555
S5 V1 2.324573 1_465
S5 V1 2.334692 1_565
S5 V3 2.611709 1_555
S6 V5 2.298357 1_555
S6 V2 2.324547 1_456
S6 V2 2.334660 1_556
S6 V4 2.612016 1_555
S7 V3 2.298441 1_555
S7 V0 2.324670 1_455
S7 V0 2.334750 1_555
S7 V5 2.612346 1_555
