# generated using pymatgen
data_Li(TiS2)2
_symmetry_space_group_name_H-M   'P 1'
_cell_length_a   7.18967649
_cell_length_b   7.18967649
_cell_length_c   7.18967649
_cell_angle_alpha   60.00000000
_cell_angle_beta   60.00000000
_cell_angle_gamma   60.00000000
_symmetry_Int_Tables_number   1
_chemical_formula_structural   Li(TiS2)2
_chemical_formula_sum   'Li2 Ti4 S8'
_cell_volume   262.79255015
_cell_formula_units_Z   2
loop_
 _symmetry_equiv_pos_site_id
 _symmetry_equiv_pos_as_xyz
  1  'x, y, z'
loop_
 _atom_site_type_symbol
 _atom_site_label
 _atom_site_symmetry_multiplicity
 _atom_site_fract_x
 _atom_site_fract_y
 _atom_site_fract_z
 _atom_site_occupancy
  Li  Li0  1  0.25000000  0.25000000  0.25000000  1
  Li  Li1  1  0.00000000  0.00000000  0.00000000  1
  Ti  Ti0  1  0.12500000  0.62500000  0.62500000  1
  Ti  Ti1  1  0.62500000  0.62500000  0.12500000  1
  Ti  Ti2  1  0.62500000  0.62500000  0.62500000  1
  Ti  Ti3  1  0.62500000  0.12500000  0.62500000  1
  S  S0  1  0.40064400  0.86645200  0.86645200  1
  S  S1  1  0.86645200  0.86645200  0.40064400  1
  S  S2  1  0.86645200  0.86645200  0.86645200  1
  S  S3  1  0.84935600  0.38354800  0.38354800  1
  S  S4  1  0.38354800  0.84935600  0.38354800  1
  S  S5  1  0.38354800  0.38354800  0.84935600  1
  S  S6  1  0.86645200  0.40064400  0.86645200  1
  S  S7  1  0.38354800  0.38354800  0.38354800  1
loop_
_geom_bond_atom_site_label_1
_geom_bond_atom_site_label_2
_geom_bond_distance
_geom_bond_site_symmetry_2
Li0 S3 2.351919 1_455
Li0 S7 2.351919 1_555
Li0 S5 2.351919 1_554
Li0 S4 2.351919 1_545
Li1 S0 2.351919 1_544
Li1 S1 2.351919 1_445
Li1 S6 2.351919 1_454
Li1 S2 2.351919 1_444
S0 Ti1 2.458096 1_556
S0 Ti3 2.458096 1_565
S0 Ti2 2.458096 1_555
S1 Ti2 2.458096 1_555
S1 Ti0 2.458096 1_655
S1 Ti3 2.458096 1_565
S2 Ti0 2.458096 1_655
S2 Ti3 2.458096 1_565
S2 Ti1 2.458096 1_556
S3 Ti1 2.458096 1_555
S3 Ti2 2.458096 1_555
S3 Ti3 2.458096 1_555
S4 Ti1 2.458096 1_555
S4 Ti2 2.458096 1_555
S4 Ti0 2.458096 1_555
S5 Ti2 2.458096 1_555
S5 Ti0 2.458096 1_555
S5 Ti3 2.458096 1_555
S6 Ti1 2.458096 1_556
S6 Ti2 2.458096 1_555
S6 Ti0 2.458096 1_655
S7 Ti1 2.458096 1_555
S7 Ti0 2.458096 1_555
S7 Ti3 2.458096 1_555
