# generated using pymatgen
data_YV2(FeCo)5
_symmetry_space_group_name_H-M   'P 1'
_cell_length_a   4.67684900
_cell_length_b   6.40475833
_cell_length_c   6.40475833
_cell_angle_alpha   97.46824129
_cell_angle_beta   111.41419568
_cell_angle_gamma   68.58580432
_symmetry_Int_Tables_number   1
_chemical_formula_structural   YV2(FeCo)5
_chemical_formula_sum   'Y1 V2 Fe5 Co5'
_cell_volume   166.27337413
_cell_formula_units_Z   1
loop_
 _symmetry_equiv_pos_site_id
 _symmetry_equiv_pos_as_xyz
  1  'x, y, z'
loop_
 _atom_site_type_symbol
 _atom_site_label
 _atom_site_symmetry_multiplicity
 _atom_site_fract_x
 _atom_site_fract_y
 _atom_site_fract_z
 _atom_site_occupancy
  Y  Y0  1  0.00000000  0.99845500  0.99845500  1
  V  V0  1  0.00000000  0.35853800  0.35853800  1
  V  V1  1  0.00000000  0.64219400  0.64219400  1
  Fe  Fe0  1  0.50102700  0.99871400  0.50166300  1
  Fe  Fe1  1  0.00192200  0.99871400  0.50166300  1
  Fe  Fe2  1  0.49897300  0.50166300  0.99871400  1
  Fe  Fe3  1  0.99807800  0.50166300  0.99871400  1
  Fe  Fe4  1  0.50000000  0.22538400  0.22538400  1
  Co  Co0  1  0.72566600  0.77493800  0.22627100  1
  Co  Co1  1  0.27433400  0.22627100  0.77493800  1
  Co  Co2  1  0.50000000  0.77583600  0.77583600  1
  Co  Co3  1  0.64149300  0.35732100  0.64030700  1
  Co  Co4  1  0.35850700  0.64030700  0.35732100  1
loop_
_geom_bond_atom_site_label_1
_geom_bond_atom_site_label_2
_geom_bond_distance
_geom_bond_site_symmetry_2
V0 V1 2.396488 1_555
V0 Y0 3.042186 1_544
V1 Y0 3.009896 1_555
Fe0 Fe1 2.334239 1_555
Fe0 Fe1 2.342610 1_655
Fe0 Fe4 2.428019 1_565
Fe0 V1 2.565032 1_655
Fe0 V0 2.584478 1_565
Fe0 Y0 3.185343 1_655
Fe0 Y0 3.219441 1_554
Fe1 Fe4 2.428019 1_465
Fe1 V1 2.565032 1_555
Fe1 V0 2.584478 1_565
Fe1 Y0 3.185343 1_555
Fe1 Y0 3.219441 1_554
Fe2 Fe3 2.334239 1_555
Fe2 Fe3 2.342610 1_455
Fe2 Fe4 2.428019 1_556
Fe2 V1 2.565032 1_555
Fe2 V0 2.584478 1_656
Fe2 Y0 3.185343 1_555
Fe2 Y0 3.219441 1_645
Fe3 Fe4 2.428019 1_656
Fe3 V1 2.565032 1_655
Fe3 V0 2.584478 1_656
Fe3 Y0 3.185343 1_655
Fe3 Y0 3.219441 1_645
Fe4 V0 2.594950 1_655
Fe4 V0 2.594950 1_555
Fe4 Y0 3.023902 1_544
Fe4 Y0 3.023902 1_644
Co0 Fe0 2.421867 1_555
Co0 Fe1 2.421869 1_655
Co0 Fe2 2.423877 1_554
Co0 Fe3 2.423879 1_554
Co0 Co4 2.591988 1_555
Co0 Co4 2.591992 1_655
Co0 V1 2.600333 1_655
Co0 V0 2.602190 1_655
Co0 Co2 2.685752 1_554
Co0 Fe4 2.685818 1_565
Co0 Y0 3.012593 1_554
Co0 Y0 3.012597 1_654
Co1 Fe2 2.421867 1_555
Co1 Fe3 2.421869 1_455
Co1 Fe0 2.423877 1_545
Co1 Fe1 2.423879 1_545
Co1 Co3 2.591988 1_555
Co1 Co3 2.591992 1_455
Co1 V1 2.600333 1_555
Co1 V0 2.602190 1_555
Co1 Co2 2.685752 1_545
Co1 Fe4 2.685818 1_556
Co1 Y0 3.012593 1_645
Co1 Y0 3.012597 1_545
Co2 Fe3 2.405012 1_555
Co2 Fe1 2.405012 1_555
Co2 Fe2 2.405012 1_555
Co2 Fe0 2.405012 1_555
Co2 V1 2.596740 1_555
Co2 V1 2.596740 1_655
Co2 Co3 2.625975 1_555
Co2 Co4 2.625975 1_555
Co2 Y0 3.000947 1_555
Co2 Y0 3.000947 1_655
Co3 Co4 2.381667 1_555
Co3 Fe1 2.577007 1_645
Co3 Fe0 2.577007 1_545
Co3 Fe3 2.585335 1_555
Co3 Fe2 2.585335 1_555
Co3 Fe4 2.598964 1_555
Co3 V0 2.879384 1_555
Co3 V0 2.879384 1_655
Co3 V1 2.890276 1_555
Co3 V1 2.890276 1_655
Co3 Y0 3.017269 1_645
Co4 Fe3 2.577007 1_454
Co4 Fe2 2.577007 1_554
Co4 Fe1 2.585335 1_555
Co4 Fe0 2.585335 1_555
Co4 Fe4 2.598964 1_555
Co4 V0 2.879384 1_655
Co4 V0 2.879384 1_555
Co4 V1 2.890276 1_655
Co4 V1 2.890276 1_555
Co4 Y0 3.017269 1_554
