# generated using pymatgen
data_Ca7InN4
_symmetry_space_group_name_H-M   'P 1'
_cell_length_a   3.58613600
_cell_length_b   12.17881300
_cell_length_c   11.76138500
_cell_angle_alpha   90.00000000
_cell_angle_beta   90.00000000
_cell_angle_gamma   90.00000000
_symmetry_Int_Tables_number   1
_chemical_formula_structural   Ca7InN4
_chemical_formula_sum   'Ca14 In2 N8'
_cell_volume   513.67707541
_cell_formula_units_Z   2
loop_
 _symmetry_equiv_pos_site_id
 _symmetry_equiv_pos_as_xyz
  1  'x, y, z'
loop_
 _atom_site_type_symbol
 _atom_site_label
 _atom_site_symmetry_multiplicity
 _atom_site_fract_x
 _atom_site_fract_y
 _atom_site_fract_z
 _atom_site_occupancy
  Ca  Ca0  1  0.49980700  0.67170700  0.23587600  1
  Ca  Ca1  1  0.49980700  0.32829300  0.76412400  1
  Ca  Ca2  1  0.50019300  0.17170700  0.26412400  1
  Ca  Ca3  1  0.50019300  0.82829300  0.73587600  1
  Ca  Ca4  1  0.49968800  0.50000000  0.00000000  1
  Ca  Ca5  1  0.50031200  0.00000000  0.50000000  1
  Ca  Ca6  1  0.99817100  0.92864600  0.27023900  1
  Ca  Ca7  1  0.99817100  0.07135400  0.72976100  1
  Ca  Ca8  1  0.00182900  0.42864600  0.22976100  1
  Ca  Ca9  1  0.00182900  0.57135400  0.77023900  1
  Ca  Ca10  1  0.00303500  0.76892400  0.48020400  1
  Ca  Ca11  1  0.00303500  0.23107600  0.51979600  1
  Ca  Ca12  1  0.99696500  0.26892400  0.01979600  1
  Ca  Ca13  1  0.99696500  0.73107600  0.98020400  1
  In  In0  1  0.60157100  0.50000000  0.50000000  1
  In  In1  1  0.39842900  0.00000000  0.00000000  1
  N  N0  1  0.99959800  0.60077900  0.13003900  1
  N  N1  1  0.99959800  0.39922100  0.86996100  1
  N  N2  1  0.00040200  0.10077900  0.36996100  1
  N  N3  1  0.00040200  0.89922100  0.63003900  1
  N  N4  1  0.50013600  0.83149200  0.36039700  1
  N  N5  1  0.50013600  0.16850800  0.63960300  1
  N  N6  1  0.49986400  0.33149200  0.13960300  1
  N  N7  1  0.49986400  0.66850800  0.86039700  1
loop_
_geom_bond_atom_site_label_1
_geom_bond_atom_site_label_2
_geom_bond_distance
_geom_bond_site_symmetry_2
Ca0 N0 2.346932 1_555
Ca0 N0 2.348077 1_455
Ca0 N4 2.435521 1_555
Ca0 In0 3.762494 1_555
Ca1 N1 2.346932 1_555
Ca1 N1 2.348077 1_455
Ca1 N5 2.435521 1_555
Ca1 In0 3.762494 1_555
Ca2 N2 2.346932 1_555
Ca2 N2 2.348077 1_655
Ca2 N6 2.435521 1_555
Ca2 In1 3.762494 1_555
Ca3 N3 2.346932 1_555
Ca3 N3 2.348077 1_655
Ca3 N7 2.435521 1_555
Ca3 In1 3.762494 1_566
Ca4 N6 2.628223 1_555
Ca4 N7 2.628223 1_554
Ca4 N0 2.656982 1_555
Ca4 N1 2.656982 1_554
Ca4 N0 2.657417 1_455
Ca4 N1 2.657417 1_454
Ca5 N5 2.628223 1_555
Ca5 N4 2.628223 1_545
Ca5 N2 2.656982 1_555
Ca5 N3 2.656982 1_545
Ca5 N2 2.657417 1_655
Ca5 N3 2.657417 1_645
Ca6 N4 2.390459 1_555
Ca6 N4 2.401007 1_655
Ca6 N2 2.402182 1_665
Ca6 In1 3.594109 1_665
Ca7 N5 2.390459 1_555
Ca7 N5 2.401007 1_655
Ca7 N3 2.402182 1_645
Ca7 In1 3.594109 1_656
Ca8 N6 2.390459 1_555
Ca8 N6 2.401007 1_455
Ca8 N0 2.402182 1_455
Ca8 In0 3.594109 1_455
Ca9 N7 2.390459 1_555
Ca9 N7 2.401007 1_455
Ca9 N1 2.402182 1_455
Ca9 In0 3.594109 1_455
Ca10 N3 2.371457 1_555
Ca10 N4 2.396690 1_555
Ca10 N4 2.412195 1_455
Ca10 In0 3.585210 1_455
Ca11 N2 2.371457 1_555
Ca11 N5 2.396690 1_555
Ca11 N5 2.412195 1_455
Ca11 In0 3.585210 1_455
Ca12 N1 2.371457 1_554
Ca12 N6 2.396690 1_555
Ca12 N6 2.412195 1_655
Ca12 In1 3.585210 1_655
Ca13 N0 2.371457 1_556
Ca13 N7 2.396690 1_555
Ca13 N7 2.412195 1_655
Ca13 In1 3.585210 1_666
