# generated using pymatgen
data_Sm6Cd(SiS7)2
_symmetry_space_group_name_H-M   'P 1'
_cell_length_a   10.17745785
_cell_length_b   10.17745785
_cell_length_c   5.68068200
_cell_angle_alpha   90.00000000
_cell_angle_beta   90.00000000
_cell_angle_gamma   119.99999902
_symmetry_Int_Tables_number   1
_chemical_formula_structural   Sm6Cd(SiS7)2
_chemical_formula_sum   'Sm6 Cd1 Si2 S14'
_cell_volume   509.57690800
_cell_formula_units_Z   1
loop_
 _symmetry_equiv_pos_site_id
 _symmetry_equiv_pos_as_xyz
  1  'x, y, z'
loop_
 _atom_site_type_symbol
 _atom_site_label
 _atom_site_symmetry_multiplicity
 _atom_site_fract_x
 _atom_site_fract_y
 _atom_site_fract_z
 _atom_site_occupancy
  Sm  Sm0  1  0.64225100  0.87714800  0.24857000  1
  Sm  Sm1  1  0.12285200  0.76510300  0.24857000  1
  Sm  Sm2  1  0.23489700  0.35774900  0.24857000  1
  Sm  Sm3  1  0.35779400  0.12276200  0.75013300  1
  Sm  Sm4  1  0.87723800  0.23503100  0.75013300  1
  Sm  Sm5  1  0.76496900  0.64220600  0.75013300  1
  Cd  Cd0  1  0.00000000  0.00000000  0.49045100  1
  Si  Si0  1  0.33333300  0.66666700  0.83437900  1
  Si  Si1  1  0.66666700  0.33333300  0.33729400  1
  S  S0  1  0.33333300  0.66666700  0.46386700  1
  S  S1  1  0.66666700  0.33333300  0.96634500  1
  S  S2  1  0.74263300  0.91156700  0.73263500  1
  S  S3  1  0.08843300  0.83106600  0.73263500  1
  S  S4  1  0.16893400  0.25736700  0.73263500  1
  S  S5  1  0.25688800  0.08627100  0.24081900  1
  S  S6  1  0.91372900  0.17061800  0.24081900  1
  S  S7  1  0.82938200  0.74311200  0.24081900  1
  S  S8  1  0.47817700  0.59041400  0.98359500  1
  S  S9  1  0.40958600  0.88776300  0.98359500  1
  S  S10  1  0.11223700  0.52182300  0.98359500  1
  S  S11  1  0.52172000  0.40951900  0.48544200  1
  S  S12  1  0.59048100  0.11220100  0.48544200  1
  S  S13  1  0.88779900  0.47828000  0.48544200  1
loop_
_geom_bond_atom_site_label_1
_geom_bond_atom_site_label_2
_geom_bond_distance
_geom_bond_site_symmetry_2
Cd0 S3 2.684449 1_545
Cd0 S2 2.684449 1_445
Cd0 S4 2.684449 1_555
Cd0 S5 2.705874 1_555
Cd0 S7 2.705875 1_445
Cd0 S6 2.705882 1_455
S0 Si0 2.104761 1_555
S0 Sm1 3.038816 1_555
S0 Sm0 3.038823 1_555
S0 Sm2 3.038825 1_555
S1 Si1 2.107243 1_556
S1 Sm4 3.040779 1_555
S1 Sm5 3.040779 1_555
S1 Sm3 3.040779 1_555
S2 Sm5 2.863577 1_555
S2 Sm4 2.866052 1_565
S2 Sm0 2.893108 1_555
S2 Sm0 3.065701 1_556
S3 Sm3 2.863572 1_565
S3 Sm5 2.866053 1_455
S3 Sm1 2.893108 1_555
S3 Sm1 3.065701 1_556
S4 Sm4 2.863567 1_455
S4 Sm3 2.866061 1_555
S4 Sm2 2.893108 1_555
S4 Sm2 3.065701 1_556
S5 Sm1 2.843961 1_545
S5 Sm2 2.881725 1_555
S5 Sm3 2.929327 1_554
S5 Sm3 3.030196 1_555
S6 Sm2 2.843960 1_655
S6 Sm0 2.881731 1_545
S6 Sm4 2.929322 1_554
S6 Sm4 3.030190 1_555
S7 Sm0 2.843952 1_555
S7 Sm1 2.881735 1_655
S7 Sm5 2.929326 1_554
S7 Sm5 3.030195 1_555
S8 Si0 2.153580 1_555
S8 Sm2 2.853132 1_556
S8 Sm0 2.949098 1_556
S8 Sm5 3.002940 1_555
S9 Si0 2.153571 1_555
S9 Sm0 2.853132 1_556
S9 Sm1 2.949098 1_556
S9 Sm3 3.002931 1_565
S10 Si0 2.153573 1_555
S10 Sm1 2.853132 1_556
S10 Sm2 2.949098 1_556
S10 Sm4 3.002937 1_455
S11 Si1 2.151627 1_555
S11 Sm5 2.852227 1_555
S11 Sm3 2.948333 1_555
S11 Sm2 3.011893 1_555
S12 Si1 2.151618 1_555
S12 Sm3 2.852223 1_555
S12 Sm4 2.948333 1_555
S12 Sm0 3.011893 1_545
S13 Si1 2.151620 1_555
S13 Sm4 2.852231 1_555
S13 Sm5 2.948325 1_555
S13 Sm1 3.011893 1_655
