# generated using pymatgen
data_Ce3(Si3Pd10)2
_symmetry_space_group_name_H-M   'P 1'
_cell_length_a   8.10502576
_cell_length_b   5.52171846
_cell_length_c   12.27576771
_cell_angle_alpha   81.58309611
_cell_angle_beta   66.52606156
_cell_angle_gamma   80.90701476
_symmetry_Int_Tables_number   1
_chemical_formula_structural   Ce3(Si3Pd10)2
_chemical_formula_sum   'Ce3 Si6 Pd20'
_cell_volume   495.47134358
_cell_formula_units_Z   1
loop_
 _symmetry_equiv_pos_site_id
 _symmetry_equiv_pos_as_xyz
  1  'x, y, z'
loop_
 _atom_site_type_symbol
 _atom_site_label
 _atom_site_symmetry_multiplicity
 _atom_site_fract_x
 _atom_site_fract_y
 _atom_site_fract_z
 _atom_site_occupancy
  Ce  Ce0  1  0.40932600  0.38584800  0.23484500  1
  Ce  Ce1  1  0.00004800  0.99989700  0.99992400  1
  Ce  Ce2  1  0.59039800  0.61402100  0.76519400  1
  Si  Si0  1  0.20310200  0.90378800  0.22444400  1
  Si  Si1  1  0.30115000  0.43935900  0.70037000  1
  Si  Si2  1  0.40542600  0.85074400  0.59946700  1
  Si  Si3  1  0.59476500  0.14905400  0.40030300  1
  Si  Si4  1  0.69891000  0.56046000  0.29949000  1
  Si  Si5  1  0.79700500  0.09626500  0.77577200  1
  Pd  Pd0  1  0.65475600  0.29959900  0.96318100  1
  Pd  Pd1  1  0.88457800  0.35649100  0.59299900  1
  Pd  Pd2  1  0.09970300  0.87936800  0.75090800  1
  Pd  Pd3  1  0.30376800  0.19488100  0.06068100  1
  Pd  Pd4  1  0.11515700  0.64369200  0.40731000  1
  Pd  Pd5  1  0.90054100  0.12048700  0.24888900  1
  Pd  Pd6  1  0.26906000  0.25356500  0.54171100  1
  Pd  Pd7  1  0.73086000  0.74614600  0.45824200  1
  Pd  Pd8  1  0.41061500  0.82745600  0.40362300  1
  Pd  Pd9  1  0.64600800  0.95089600  0.17222900  1
  Pd  Pd10  1  0.34517000  0.70073400  0.03686700  1
  Pd  Pd11  1  0.01697700  0.59293200  0.21497600  1
  Pd  Pd12  1  0.90204800  0.84696900  0.61343500  1
  Pd  Pd13  1  0.17893000  0.51505500  0.91346700  1
  Pd  Pd14  1  0.69610700  0.80526700  0.93939600  1
  Pd  Pd15  1  0.35428200  0.04908100  0.82769700  1
  Pd  Pd16  1  0.82144600  0.48504800  0.08639500  1
  Pd  Pd17  1  0.58943900  0.17256300  0.59615600  1
  Pd  Pd18  1  0.98312900  0.40703000  0.78517300  1
  Pd  Pd19  1  0.09729600  0.15330200  0.38685600  1
loop_
_geom_bond_atom_site_label_1
_geom_bond_atom_site_label_2
_geom_bond_distance
_geom_bond_site_symmetry_2
Ce0 Pd9 2.819285 1_545
Ce0 Pd4 2.825255 1_555
Ce0 Pd19 2.844666 1_555
Ce0 Pd10 2.946858 1_555
Ce0 Pd3 2.969387 1_555
Ce0 Si3 3.021165 1_555
Ce0 Si4 3.080788 1_555
Ce0 Si0 3.088916 1_555
Ce0 Pd0 3.191527 1_554
Ce0 Pd16 3.196079 1_555
Ce0 Pd11 3.296413 1_555
Ce0 Si0 3.401613 1_545
Ce0 Pd8 3.426816 1_555
Ce0 Pd8 3.454903 1_545
Ce0 Pd6 3.472977 1_555
Ce0 Pd9 3.744378 1_555
Ce1 Pd9 2.832619 1_456
Ce1 Pd15 2.833602 1_565
Ce1 Pd13 2.962220 1_555
Ce1 Pd16 2.963309 1_466
Ce1 Pd5 2.982742 1_466
Ce1 Pd2 2.983018 1_555
Ce1 Pd10 3.176426 1_556
Ce1 Pd0 3.177653 1_465
Ce1 Pd14 3.210050 1_455
Ce1 Pd3 3.211022 1_566
Ce1 Pd18 3.236968 1_465
Ce1 Pd11 3.239159 1_556
Ce1 Pd16 3.239938 1_456
Ce1 Pd13 3.242503 1_565
Ce2 Pd15 2.817574 1_565
Ce2 Pd1 2.822851 1_555
Ce2 Pd12 2.842887 1_555
Ce2 Pd0 2.946492 1_555
Ce2 Pd14 2.971353 1_555
Ce2 Si2 3.021095 1_555
Ce2 Si1 3.079764 1_555
Ce2 Si5 3.089612 1_555
Ce2 Pd13 3.191006 1_555
Ce2 Pd10 3.191841 1_556
Ce2 Pd18 3.299778 1_555
Ce2 Si5 3.405206 1_565
Ce2 Pd17 3.427468 1_555
Ce2 Pd17 3.456801 1_565
Ce2 Pd7 3.473749 1_555
Ce2 Pd15 3.741441 1_555
Si1 Si2 2.521434 1_555
Si3 Si4 2.520987 1_555
Pd0 Si5 2.473151 1_555
Pd0 Pd3 2.732098 1_556
Pd0 Pd14 2.741221 1_545
Pd0 Pd16 2.771337 1_556
Pd0 Pd18 2.774283 1_555
Pd0 Pd14 2.823627 1_555
Pd0 Pd9 2.957962 1_546
Pd0 Pd10 3.006994 1_556
Pd1 Si5 2.390063 1_555
Pd2 Si2 2.431746 1_555
Pd2 Si5 2.475540 1_465
Pd2 Si1 2.708164 1_555
Pd3 Si0 2.335047 1_545
Pd4 Si0 2.390588 1_555
Pd5 Si3 2.431921 1_555
Pd5 Si0 2.475239 1_645
Pd5 Si4 2.708642 1_555
Pd6 Si1 2.446703 1_555
Pd6 Si2 2.461137 1_545
Pd6 Si3 2.544835 1_555
Pd7 Si4 2.446845 1_555
Pd7 Si3 2.461346 1_565
Pd7 Si2 2.542632 1_555
Pd8 Si2 2.409650 1_555
Pd8 Si3 2.480079 1_565
Pd8 Si4 2.520067 1_555
Pd9 Si4 2.554936 1_555
Pd9 Si3 3.005878 1_565
Pd10 Si0 2.473991 1_555
Pd10 Pd14 2.731410 1_554
Pd10 Pd3 2.740248 1_565
Pd10 Pd13 2.771037 1_554
Pd10 Pd11 2.774270 1_555
Pd10 Pd3 2.824706 1_555
Pd10 Pd15 2.957424 1_564
Pd11 Si4 2.390650 1_455
Pd11 Si0 2.500395 1_555
Pd12 Si5 2.381597 1_565
Pd13 Si1 2.474645 1_555
Pd14 Si5 2.333882 1_565
Pd15 Si1 2.555270 1_555
Pd15 Si2 3.008365 1_545
Pd16 Si4 2.474095 1_555
Pd17 Si3 2.409570 1_555
Pd17 Si2 2.480316 1_545
Pd17 Si1 2.519693 1_555
Pd18 Si1 2.390145 1_655
Pd18 Si5 2.499674 1_555
Pd19 Si0 2.382681 1_545
