# generated using pymatgen
data_Ba2Tl2Zn2Co3O10
_symmetry_space_group_name_H-M   'P 1'
_cell_length_a   3.87369200
_cell_length_b   3.95413864
_cell_length_c   18.10656725
_cell_angle_alpha   94.69894975
_cell_angle_beta   95.93837004
_cell_angle_gamma   90.45492080
_symmetry_Int_Tables_number   1
_chemical_formula_structural   Ba2Tl2Zn2Co3O10
_chemical_formula_sum   'Ba2 Tl2 Zn2 Co3 O10'
_cell_volume   274.88723408
_cell_formula_units_Z   1
loop_
 _symmetry_equiv_pos_site_id
 _symmetry_equiv_pos_as_xyz
  1  'x, y, z'
loop_
 _atom_site_type_symbol
 _atom_site_label
 _atom_site_symmetry_multiplicity
 _atom_site_fract_x
 _atom_site_fract_y
 _atom_site_fract_z
 _atom_site_occupancy
  Ba  Ba0  1  0.12113900  0.16228000  0.27601000  1
  Ba  Ba1  1  0.83884700  0.82578300  0.72049900  1
  Tl  Tl0  1  0.63380600  0.72129400  0.43526600  1
  Tl  Tl1  1  0.19536700  0.26926700  0.56391100  1
  Zn  Zn0  1  0.85752200  0.89900600  0.91045900  1
  Zn  Zn1  1  0.97172700  0.04253900  0.08265100  1
  Co  Co0  1  0.38965900  0.37317000  0.84294700  1
  Co  Co1  1  0.57087900  0.60812900  0.15463000  1
  Co  Co2  1  0.31129300  0.52997100  0.99994000  1
  O  O0  1  0.42494000  0.87090400  0.83560300  1
  O  O1  1  0.31727400  0.31181600  0.68139900  1
  O  O2  1  0.90044300  0.37878500  0.84482100  1
  O  O3  1  0.83331700  0.76280500  0.55297800  1
  O  O4  1  0.79886600  0.58108700  0.01375200  1
  O  O5  1  0.08643700  0.62812500  0.17023000  1
  O  O6  1  0.64149600  0.67707200  0.31884400  1
  O  O7  1  0.58631800  0.11047500  0.14919400  1
  O  O8  1  0.28630300  0.22323300  0.44715400  1
  O  O9  1  0.23545400  0.04222300  0.99067200  1
loop_
_geom_bond_atom_site_label_1
_geom_bond_atom_site_label_2
_geom_bond_distance
_geom_bond_site_symmetry_2
Ba0 O5 2.725248 1_545
Ba0 O5 2.758298 1_555
Ba0 O6 2.856708 1_555
Ba0 O6 2.867046 1_445
Ba0 O6 2.880401 1_455
Ba0 O6 2.885698 1_545
Ba0 O7 2.922062 1_455
Ba0 O7 3.057208 1_555
Ba0 O8 3.087899 1_555
Ba1 O0 2.753406 1_555
Ba1 O1 2.840279 1_665
Ba1 O1 2.848966 1_555
Ba1 O1 2.856861 1_655
Ba1 O1 2.874956 1_565
Ba1 O0 2.912644 1_655
Ba1 O2 2.965737 1_555
Ba1 O2 2.996610 1_565
Ba1 O3 3.020873 1_555
Co0 O2 1.899156 1_455
Co0 O2 1.975315 1_555
Co0 O0 1.986322 1_545
Co0 O0 1.988010 1_555
Co1 O5 1.927683 1_555
Co1 O7 1.963881 1_555
Co1 O5 1.987865 1_655
Co1 O7 1.997548 1_565
Co2 O4 1.886407 1_556
Co2 O9 1.939543 1_555
Co2 O4 2.035772 1_456
Co2 O9 2.066910 1_565
O0 Zn0 2.039551 1_555
O1 Tl1 2.123433 1_555
O2 Zn0 2.305917 1_555
O2 Zn0 2.333334 1_545
O3 Tl0 2.183291 1_555
O3 Tl1 2.418595 1_665
O3 Tl1 2.421537 1_655
O4 Zn1 2.183764 1_565
O4 Zn0 2.366110 1_554
O5 Zn1 2.385109 1_465
O6 Tl0 2.104239 1_555
O7 Zn1 2.019486 1_555
O8 Tl1 2.172226 1_555
O8 Tl0 2.413344 1_555
O8 Tl0 2.414526 1_545
O9 Zn0 1.996371 1_445
O9 Zn1 2.041819 1_456
