# generated using pymatgen
data_Li9Mn2Co5O16
_symmetry_space_group_name_H-M   'P 1'
_cell_length_a   2.87508041
_cell_length_b   39.11277272
_cell_length_c   2.96217835
_cell_angle_alpha   86.24401349
_cell_angle_beta   119.03202004
_cell_angle_gamma   87.89369231
_symmetry_Int_Tables_number   1
_chemical_formula_structural   Li9Mn2Co5O16
_chemical_formula_sum   'Li9 Mn2 Co5 O16'
_cell_volume   289.72513370
_cell_formula_units_Z   1
loop_
 _symmetry_equiv_pos_site_id
 _symmetry_equiv_pos_as_xyz
  1  'x, y, z'
loop_
 _atom_site_type_symbol
 _atom_site_label
 _atom_site_symmetry_multiplicity
 _atom_site_fract_x
 _atom_site_fract_y
 _atom_site_fract_z
 _atom_site_occupancy
  Li  Li0  1  0.23371081  0.06729394  0.53471556  1
  Li  Li1  1  0.75962291  0.18656937  0.70581518  1
  Li  Li2  1  0.24766213  0.31255602  0.80788028  1
  Li  Li3  1  0.76005029  0.43529619  0.95539677  1
  Li  Li4  1  0.24318442  0.56478421  0.05115306  1
  Li  Li5  1  0.74835801  0.68792894  0.18464497  1
  Li  Li6  1  0.25195388  0.81196967  0.31587742  1
  Li  Li7  1  0.75641620  0.93451258  0.44734498  1
  Li  Li8  1  0.50108562  0.12456253  0.12673376  1
  Mn  Mn0  1  0.99810621  0.99910054  0.99531296  1
  Mn  Mn1  1  0.00172672  0.50015598  0.50360942  1
  Co  Co0  1  -0.00134667  0.25069837  0.24800503  1
  Co  Co1  1  0.50167112  0.37457910  0.37792133  1
  Co  Co2  1  0.49754661  0.62568228  0.62077549  1
  Co  Co3  1  0.99945354  0.75008328  0.74899035  1
  Co  Co4  1  0.50222469  0.87423108  0.87868046  1
  O  O0  1  0.61270642  0.02613603  0.25154887  1
  O  O1  1  0.12635528  0.15728425  0.40999480  1
  O  O2  1  0.62052334  0.27937411  0.52042079  1
  O  O3  1  0.12913174  0.40404713  0.66231062  1
  O  O4  1  0.60405676  0.52905987  0.73717339  1
  O  O5  1  0.12687265  0.65427722  0.90802252  1
  O  O6  1  0.62743973  0.77893021  0.03380968  1
  O  O7  1  0.12768267  0.90388875  0.15925410  1
  O  O8  1  0.87371416  0.09240242  0.83983074  1
  O  O9  1  0.37568002  0.22340971  0.97476975  1
  O  O10  1  0.87136395  0.34607492  0.08880283  1
  O  O11  1  0.39920597  0.47142645  0.26983840  1
  O  O12  1  0.87066392  0.59627991  0.33760774  1
  O  O13  1  0.37152650  0.72124588  0.46429887  1
  O  O14  1  0.87304543  0.84573861  0.59182946  1
  O  O15  1  0.38860497  0.97042045  0.74763038  1
loop_
_geom_bond_atom_site_label_1
_geom_bond_atom_site_label_2
_geom_bond_distance
_geom_bond_site_symmetry_2
Li0 O8 1.949897 1_555
Li0 O8 1.949897 1_455
Li0 O8 1.966021 1_454
Li0 O0 2.327536 1_455
Li0 O0 2.327536 1_555
Li0 O0 2.337750 1_556
Li1 O1 2.032501 1_555
Li1 O1 2.032501 1_655
Li1 O1 2.058699 1_656
Li1 O9 2.194670 1_655
Li1 O9 2.194670 1_555
Li1 O9 2.266777 1_554
Li2 O2 2.118286 1_455
Li2 O2 2.118286 1_555
Li2 O10 2.119951 1_556
Li2 O10 2.119951 1_456
Li2 O2 2.152029 1_556
Li2 O10 2.172436 1_455
Li3 O3 2.076404 1_655
Li3 O3 2.076404 1_555
Li3 O3 2.101759 1_656
Li3 O11 2.160703 1_555
Li3 O11 2.223393 1_656
Li3 O11 2.223393 1_556
Li4 O12 2.075254 1_455
Li4 O12 2.075254 1_555
Li4 O12 2.120570 1_454
Li4 O4 2.152530 1_555
Li4 O4 2.212280 1_454
Li4 O4 2.212280 1_554
Li5 O13 2.113501 1_555
Li5 O13 2.113501 1_655
Li5 O5 2.118883 1_554
Li5 O5 2.118883 1_654
Li5 O13 2.170966 1_554
Li5 O5 2.184050 1_655
Li6 O6 2.109003 1_555
Li6 O6 2.109003 1_455
Li6 O14 2.121189 1_555
Li6 O14 2.121189 1_455
Li6 O6 2.160341 1_556
Li6 O14 2.187826 1_454
Li7 O7 2.055818 1_655
Li7 O7 2.055818 1_555
Li7 O7 2.100336 1_656
Li7 O15 2.183767 1_554
Li7 O15 2.202149 1_555
Li7 O15 2.202149 1_655
Li8 O8 2.092121 1_554
Li8 O8 2.092121 1_454
Li8 O1 2.102266 1_655
Li8 O1 2.102266 1_555
Li8 O8 2.132666 1_555
Li8 O1 2.151471 1_554
Mn0 O0 1.938398 1_666
Mn0 O0 1.938398 1_566
Mn0 O15 1.967704 1_555
Mn0 O15 1.967704 1_655
Mn0 O0 2.106911 1_565
Mn0 O15 2.153263 1_656
Mn1 O11 1.955450 1_555
Mn1 O11 1.955450 1_455
Mn1 O4 1.959378 1_555
Mn1 O4 1.959378 1_455
Mn1 O11 2.184982 1_556
Mn1 O4 2.188363 1_454
Co0 O9 1.961883 1_454
Co0 O9 1.961883 1_554
Co0 O2 1.992849 1_555
Co0 O2 1.992849 1_455
Co0 O9 2.073095 1_555
Co0 O2 2.098664 1_454
Co1 O10 2.006904 1_555
Co1 O10 2.006904 1_455
Co1 O3 2.024235 1_655
Co1 O3 2.024235 1_555
Co1 O10 2.059087 1_556
Co1 O3 2.086752 1_554
Co2 O5 2.006943 1_655
Co2 O5 2.006943 1_555
Co2 O12 2.021365 1_455
Co2 O12 2.021365 1_555
Co2 O5 2.064788 1_554
Co2 O12 2.088200 1_556
Co3 O13 2.009779 1_555
Co3 O13 2.009779 1_655
Co3 O6 2.010140 1_656
Co3 O6 2.010140 1_556
Co3 O6 2.074583 1_555
Co3 O13 2.074691 1_656
Co4 O14 2.004139 1_455
Co4 O14 2.004139 1_555
Co4 O7 2.024612 1_656
Co4 O7 2.024612 1_556
Co4 O14 2.063830 1_556
Co4 O7 2.098473 1_555
