# generated using pymatgen
data_LiYb(MoO4)2
_symmetry_space_group_name_H-M   'P 1'
_cell_length_a   6.73835082
_cell_length_b   6.73835082
_cell_length_c   6.73835082
_cell_angle_alpha   134.65496950
_cell_angle_beta   134.65496950
_cell_angle_gamma   66.06677425
_symmetry_Int_Tables_number   1
_chemical_formula_structural   LiYb(MoO4)2
_chemical_formula_sum   'Li1 Yb1 Mo2 O8'
_cell_volume   152.44536358
_cell_formula_units_Z   1
loop_
 _symmetry_equiv_pos_site_id
 _symmetry_equiv_pos_as_xyz
  1  'x, y, z'
loop_
 _atom_site_type_symbol
 _atom_site_label
 _atom_site_symmetry_multiplicity
 _atom_site_fract_x
 _atom_site_fract_y
 _atom_site_fract_z
 _atom_site_occupancy
  Li  Li0  1  0.50000000  0.50000000  0.00000000  1
  Yb  Yb0  1  0.75000000  0.25000000  0.50000000  1
  Mo  Mo0  1  0.25000000  0.75000000  0.50000000  1
  Mo  Mo1  1  0.00000000  0.00000000  0.00000000  1
  O  O0  1  0.49496500  0.59116900  0.41200400  1
  O  O1  1  0.17916500  0.08296100  0.58799600  1
  O  O2  1  0.91703900  0.50503500  0.09620400  1
  O  O3  1  0.40883100  0.82083500  0.90379600  1
  O  O4  1  0.06615300  0.66645800  0.91015100  1
  O  O5  1  0.75630700  0.15600100  0.08984900  1
  O  O6  1  0.84399900  0.93384700  0.60030600  1
  O  O7  1  0.33354200  0.24369300  0.39969400  1
loop_
_geom_bond_atom_site_label_1
_geom_bond_atom_site_label_2
_geom_bond_distance
_geom_bond_site_symmetry_2
Li0 O3 2.409167 1_554
Li0 O1 2.409167 1_554
Li0 O2 2.409167 1_555
Li0 O0 2.409167 1_555
Li0 O4 2.444829 1_554
Li0 O6 2.444832 1_555
Li0 O7 2.444834 1_554
Li0 O5 2.444834 1_555
Mo0 O2 1.808904 1_455
Mo0 O0 1.808904 1_555
Mo0 O1 1.808904 1_565
Mo0 O3 1.808904 1_555
Mo1 O6 1.808418 1_444
Mo1 O4 1.808421 1_544
Mo1 O7 1.808421 1_555
Mo1 O5 1.808421 1_455
O0 Yb0 2.422450 1_555
O1 Yb0 2.422450 1_455
O2 Yb0 2.422450 1_554
O3 Yb0 2.422450 1_566
O4 Yb0 2.392457 1_455
O5 Yb0 2.392453 1_555
O6 Yb0 2.392460 1_565
O7 Yb0 2.392453 1_555
