# generated using pymatgen
data_Na2FePCO7
_symmetry_space_group_name_H-M   'P 1'
_cell_length_a   6.57679800
_cell_length_b   5.26414300
_cell_length_c   9.05256442
_cell_angle_alpha   88.67941543
_cell_angle_beta   90.00000000
_cell_angle_gamma   90.00000000
_symmetry_Int_Tables_number   1
_chemical_formula_structural   Na2FePCO7
_chemical_formula_sum   'Na4 Fe2 P2 C2 O14'
_cell_volume   313.32744604
_cell_formula_units_Z   2
loop_
 _symmetry_equiv_pos_site_id
 _symmetry_equiv_pos_as_xyz
  1  'x, y, z'
loop_
 _atom_site_type_symbol
 _atom_site_label
 _atom_site_symmetry_multiplicity
 _atom_site_fract_x
 _atom_site_fract_y
 _atom_site_fract_z
 _atom_site_occupancy
  Na  Na0  1  0.50400700  0.76257300  0.77366800  1
  Na  Na1  1  0.99599300  0.76257300  0.77366800  1
  Na  Na2  1  0.49599300  0.23742700  0.22633200  1
  Na  Na3  1  0.00400700  0.23742700  0.22633200  1
  Fe  Fe0  1  0.25000000  0.21433400  0.64275700  1
  Fe  Fe1  1  0.75000000  0.78566600  0.35724300  1
  P  P0  1  0.75000000  0.28279800  0.57258600  1
  P  P1  1  0.25000000  0.71720200  0.42741400  1
  C  C0  1  0.25000000  0.27324100  0.91858100  1
  C  C1  1  0.75000000  0.72675900  0.08141900  1
  O  O0  1  0.75000000  0.68991900  0.94508400  1
  O  O1  1  0.25000000  0.04839100  0.85902700  1
  O  O2  1  0.25000000  0.46111400  0.81850200  1
  O  O3  1  0.94094600  0.20365000  0.66154700  1
  O  O4  1  0.55905400  0.20365000  0.66154700  1
  O  O5  1  0.25000000  0.84747100  0.58039900  1
  O  O6  1  0.75000000  0.57884900  0.54550900  1
  O  O7  1  0.25000000  0.42115100  0.45449100  1
  O  O8  1  0.75000000  0.15252900  0.41960100  1
  O  O9  1  0.44094600  0.79635000  0.33845300  1
  O  O10  1  0.05905400  0.79635000  0.33845300  1
  O  O11  1  0.75000000  0.53888600  0.18149800  1
  O  O12  1  0.75000000  0.95160900  0.14097300  1
  O  O13  1  0.25000000  0.31008100  0.05491600  1
loop_
_geom_bond_atom_site_label_1
_geom_bond_atom_site_label_2
_geom_bond_distance
_geom_bond_site_symmetry_2
Na0 O0 2.268103 1_555
Na0 O2 2.333261 1_555
Na0 O1 2.388558 1_565
Na0 O5 2.452645 1_555
Na0 O4 2.538467 1_565
Na0 O6 2.812624 1_555
Na1 O0 2.268103 1_555
Na1 O2 2.333261 1_655
Na1 O1 2.388558 1_665
Na1 O5 2.452645 1_655
Na1 O3 2.538467 1_565
Na1 O6 2.812624 1_555
Na2 O13 2.268103 1_555
Na2 O11 2.333261 1_555
Na2 O12 2.388558 1_545
Na2 O8 2.452645 1_555
Na2 O9 2.538467 1_545
Na2 O7 2.812624 1_555
Na3 O13 2.268103 1_555
Na3 O11 2.333261 1_455
Na3 O12 2.388558 1_445
Na3 O8 2.452645 1_455
Na3 O10 2.538467 1_545
Na3 O7 2.812624 1_555
Fe0 O7 2.001094 1_555
Fe0 O5 2.024480 1_545
Fe0 O4 2.040358 1_555
Fe0 O3 2.040358 1_455
Fe0 O2 2.077014 1_555
Fe0 O1 2.125377 1_555
Fe1 O6 2.001094 1_555
Fe1 O8 2.024480 1_565
Fe1 O10 2.040358 1_655
Fe1 O9 2.040358 1_555
Fe1 O11 2.077014 1_555
Fe1 O12 2.125377 1_555
C0 O13 1.253732 1_556
C0 O1 1.311895 1_555
C0 O2 1.325740 1_555
C1 O0 1.253732 1_554
C1 O12 1.311895 1_555
C1 O11 1.325740 1_555
O3 P0 1.543938 1_555
O4 P0 1.543938 1_555
O5 P1 1.559487 1_555
O6 P0 1.572023 1_555
O7 P1 1.572023 1_555
O8 P0 1.559487 1_555
O9 P1 1.543938 1_555
O10 P1 1.543938 1_555
