# generated using pymatgen
data_CsB2P2HO9
_symmetry_space_group_name_H-M   'P 1'
_cell_length_a   12.68156700
_cell_length_b   6.94890900
_cell_length_c   9.11672430
_cell_angle_alpha   81.72979676
_cell_angle_beta   90.00000000
_cell_angle_gamma   90.00000000
_symmetry_Int_Tables_number   1
_chemical_formula_structural   CsB2P2HO9
_chemical_formula_sum   'Cs4 B8 P8 H4 O36'
_cell_volume   795.03888854
_cell_formula_units_Z   4
loop_
 _symmetry_equiv_pos_site_id
 _symmetry_equiv_pos_as_xyz
  1  'x, y, z'
loop_
 _atom_site_type_symbol
 _atom_site_label
 _atom_site_symmetry_multiplicity
 _atom_site_fract_x
 _atom_site_fract_y
 _atom_site_fract_z
 _atom_site_occupancy
  Cs  Cs0  1  0.37953000  0.27792500  0.19183400  1
  Cs  Cs1  1  0.87953000  0.72207500  0.30816600  1
  Cs  Cs2  1  0.62047000  0.72207500  0.80816600  1
  Cs  Cs3  1  0.12047000  0.27792500  0.69183400  1
  B  B0  1  0.14599300  0.92529700  0.13980400  1
  B  B1  1  0.64599300  0.07470300  0.36019600  1
  B  B2  1  0.85400700  0.07470300  0.86019600  1
  B  B3  1  0.35400700  0.92529700  0.63980400  1
  B  B4  1  0.13471800  0.61967300  0.02825900  1
  B  B5  1  0.63471800  0.38032700  0.47174100  1
  B  B6  1  0.86528200  0.38032700  0.97174100  1
  B  B7  1  0.36528200  0.61967300  0.52825900  1
  P  P0  1  0.20538200  0.85771200  0.44249900  1
  P  P1  1  0.70538200  0.14228800  0.05750100  1
  P  P2  1  0.79461800  0.14228800  0.55750100  1
  P  P3  1  0.29461800  0.85771200  0.94249900  1
  P  P4  1  0.54162900  0.71883600  0.33447000  1
  P  P5  1  0.04162900  0.28116400  0.16553000  1
  P  P6  1  0.45837100  0.28116400  0.66553000  1
  P  P7  1  0.95837100  0.71883600  0.83447000  1
  H  H0  1  0.48614900  0.77058500  0.10279800  1
  H  H1  1  0.98614900  0.22941500  0.39720200  1
  H  H2  1  0.51385100  0.22941500  0.89720200  1
  H  H3  1  0.01385100  0.77058500  0.60279800  1
  O  O0  1  0.21587700  0.99672800  0.01061700  1
  O  O1  1  0.71587700  0.00327200  0.48938300  1
  O  O2  1  0.78412300  0.00327200  0.98938300  1
  O  O3  1  0.28412300  0.99672800  0.51061700  1
  O  O4  1  0.55660100  0.93137800  0.36012400  1
  O  O5  1  0.05660100  0.06862200  0.13987600  1
  O  O6  1  0.44339900  0.06862200  0.63987600  1
  O  O7  1  0.94339900  0.93137800  0.86012400  1
  O  O8  1  0.21423600  0.93243900  0.27336300  1
  O  O9  1  0.71423600  0.06756100  0.22663700  1
  O  O10  1  0.78576400  0.06756100  0.72663700  1
  O  O11  1  0.28576400  0.93243900  0.77336300  1
  O  O12  1  0.09413300  0.86099500  0.49925400  1
  O  O13  1  0.59413300  0.13900500  0.00074600  1
  O  O14  1  0.90586700  0.13900500  0.50074600  1
  O  O15  1  0.40586700  0.86099500  0.99925400  1
  O  O16  1  0.10133500  0.73892500  0.13260700  1
  O  O17  1  0.60133500  0.26107500  0.36739300  1
  O  O18  1  0.89866500  0.26107500  0.86739300  1
  O  O19  1  0.39866500  0.73892500  0.63260700  1
  O  O20  1  0.54679100  0.69792900  0.16627900  1
  O  O21  1  0.04679100  0.30207100  0.33372100  1
  O  O22  1  0.45320900  0.30207100  0.83372100  1
  O  O23  1  0.95320900  0.69792900  0.66627900  1
  O  O24  1  0.25426200  0.64862900  0.47869700  1
  O  O25  1  0.75426200  0.35137100  0.02130300  1
  O  O26  1  0.74573800  0.35137100  0.52130300  1
  O  O27  1  0.24573800  0.64862900  0.97869700  1
  O  O28  1  0.43117100  0.64702300  0.38661200  1
  O  O29  1  0.93117100  0.35297700  0.11338800  1
  O  O30  1  0.56882900  0.35297700  0.61338800  1
  O  O31  1  0.06882900  0.64702300  0.88661200  1
  O  O32  1  0.13131300  0.40577200  0.08620800  1
  O  O33  1  0.63131300  0.59422800  0.41379200  1
  O  O34  1  0.86868700  0.59422800  0.91379200  1
  O  O35  1  0.36868700  0.40577200  0.58620800  1
loop_
_geom_bond_atom_site_label_1
_geom_bond_atom_site_label_2
_geom_bond_distance
_geom_bond_site_symmetry_2
Cs0 O8 3.193230 1_545
Cs0 O17 3.230095 1_555
Cs0 H2 3.238936 1_554
Cs0 O32 3.373271 1_555
Cs0 O22 3.376778 1_554
Cs0 O28 3.386844 1_555
Cs0 O0 3.432712 1_545
Cs0 O27 3.442410 1_554
Cs0 O13 3.443423 1_555
Cs0 O3 3.477738 1_545
Cs0 O4 3.483179 1_545
Cs0 O20 3.588302 1_555
Cs0 O15 3.612642 1_544
Cs1 O9 3.193230 1_565
Cs1 O16 3.230095 1_655
Cs1 H3 3.238936 1_655
Cs1 O33 3.373271 1_555
Cs1 O23 3.376778 1_555
Cs1 O29 3.386844 1_555
Cs1 O1 3.432712 1_565
Cs1 O26 3.442410 1_555
Cs1 O12 3.443423 1_655
Cs1 O2 3.477738 1_564
Cs1 O5 3.483179 1_665
Cs1 O21 3.588302 1_655
Cs1 O14 3.612642 1_565
Cs2 O10 3.193230 1_565
Cs2 O19 3.230095 1_555
Cs2 H0 3.238936 1_556
Cs2 O34 3.373271 1_555
Cs2 O20 3.376778 1_556
Cs2 O30 3.386844 1_555
Cs2 O2 3.432712 1_565
Cs2 O25 3.442410 1_556
Cs2 O15 3.443423 1_555
Cs2 O1 3.477738 1_565
Cs2 O6 3.483179 1_565
Cs2 O22 3.588302 1_555
Cs2 O13 3.612642 1_566
Cs3 O11 3.193230 1_545
Cs3 O18 3.230095 1_455
Cs3 H1 3.238936 1_455
Cs3 O35 3.373271 1_555
Cs3 O21 3.376778 1_555
Cs3 O31 3.386844 1_555
Cs3 O3 3.432712 1_545
Cs3 O24 3.442410 1_555
Cs3 O14 3.443423 1_455
Cs3 O0 3.477738 1_546
Cs3 O7 3.483179 1_445
Cs3 O23 3.588302 1_455
Cs3 O12 3.612642 1_545
B0 O16 1.423630 1_555
B0 O0 1.500248 1_555
B0 O8 1.500471 1_555
B0 O5 1.509049 1_565
B1 O17 1.423630 1_555
B1 O1 1.500248 1_555
B1 O9 1.500471 1_555
B1 O4 1.509049 1_545
B2 O18 1.423630 1_555
B2 O2 1.500248 1_555
B2 O10 1.500471 1_555
B2 O7 1.509049 1_545
B3 O19 1.423630 1_555
B3 O3 1.500248 1_555
B3 O11 1.500471 1_555
B3 O6 1.509049 1_565
B4 O16 1.413401 1_555
B4 O27 1.483475 1_554
B4 O32 1.504788 1_555
B4 O31 1.526861 1_554
B5 O17 1.413401 1_555
B5 O26 1.483475 1_555
B5 O33 1.504788 1_555
B5 O30 1.526861 1_555
B6 O18 1.413401 1_555
B6 O25 1.483475 1_556
B6 O34 1.504788 1_555
B6 O29 1.526861 1_556
B7 O19 1.413401 1_555
B7 O24 1.483475 1_555
B7 O35 1.504788 1_555
B7 O28 1.526861 1_555
H0 O20 1.047473 1_555
H0 O15 1.466874 1_554
H1 O21 1.047473 1_655
H1 O14 1.466874 1_555
H2 O22 1.047473 1_555
H2 O13 1.466874 1_556
H3 O23 1.047473 1_455
H3 O12 1.466874 1_555
O0 P3 1.577509 1_554
O1 P2 1.577509 1_555
O2 P1 1.577509 1_556
O3 P0 1.577509 1_555
O4 P4 1.539955 1_555
O5 P5 1.539955 1_555
O6 P6 1.539955 1_555
O7 P7 1.539955 1_555
O8 P0 1.558705 1_555
O9 P1 1.558705 1_555
O10 P2 1.558705 1_555
O11 P3 1.558705 1_555
O12 P0 1.504004 1_555
O13 P1 1.504004 1_555
O14 P2 1.504004 1_555
O15 P3 1.504004 1_555
O20 P4 1.562256 1_555
O21 P5 1.562256 1_555
O22 P6 1.562256 1_555
O23 P7 1.562256 1_555
O24 P0 1.570392 1_555
O25 P1 1.570392 1_555
O26 P2 1.570392 1_555
O27 P3 1.570392 1_555
O28 P4 1.539135 1_555
O29 P5 1.539135 1_655
O30 P6 1.539135 1_555
O31 P7 1.539135 1_455
O32 P5 1.544703 1_555
O33 P4 1.544703 1_555
O34 P7 1.544703 1_555
O35 P6 1.544703 1_555
