# generated using pymatgen
data_NaMoN2
_symmetry_space_group_name_H-M   'P 1'
_cell_length_a   5.65609900
_cell_length_b   11.24483200
_cell_length_c   15.51968800
_cell_angle_alpha   90.00000000
_cell_angle_beta   90.00000000
_cell_angle_gamma   90.00000000
_symmetry_Int_Tables_number   1
_chemical_formula_structural   NaMoN2
_chemical_formula_sum   'Na16 Mo16 N32'
_cell_volume   987.08138084
_cell_formula_units_Z   16
loop_
 _symmetry_equiv_pos_site_id
 _symmetry_equiv_pos_as_xyz
  1  'x, y, z'
loop_
 _atom_site_type_symbol
 _atom_site_label
 _atom_site_symmetry_multiplicity
 _atom_site_fract_x
 _atom_site_fract_y
 _atom_site_fract_z
 _atom_site_occupancy
  Na  Na0  1  0.27927400  0.99949900  0.44373100  1
  Na  Na1  1  0.77927400  0.50050100  0.55626900  1
  Na  Na2  1  0.72072600  0.49949900  0.05626900  1
  Na  Na3  1  0.22072600  0.00050100  0.94373100  1
  Na  Na4  1  0.72072600  0.00050100  0.55626900  1
  Na  Na5  1  0.22072600  0.49949900  0.44373100  1
  Na  Na6  1  0.27927400  0.50050100  0.94373100  1
  Na  Na7  1  0.77927400  0.99949900  0.05626900  1
  Na  Na8  1  0.23455100  0.27724500  0.31422600  1
  Na  Na9  1  0.73455100  0.22275500  0.68577400  1
  Na  Na10  1  0.76544900  0.77724500  0.18577400  1
  Na  Na11  1  0.26544900  0.72275500  0.81422600  1
  Na  Na12  1  0.76544900  0.72275500  0.68577400  1
  Na  Na13  1  0.26544900  0.77724500  0.31422600  1
  Na  Na14  1  0.23455100  0.22275500  0.81422600  1
  Na  Na15  1  0.73455100  0.27724500  0.18577400  1
  Mo  Mo0  1  0.78778200  0.02069000  0.30848800  1
  Mo  Mo1  1  0.28778200  0.47931000  0.69151200  1
  Mo  Mo2  1  0.21221800  0.52069000  0.19151200  1
  Mo  Mo3  1  0.71221800  0.97931000  0.80848800  1
  Mo  Mo4  1  0.21221800  0.97931000  0.69151200  1
  Mo  Mo5  1  0.71221800  0.52069000  0.30848800  1
  Mo  Mo6  1  0.78778200  0.47931000  0.80848800  1
  Mo  Mo7  1  0.28778200  0.02069000  0.19151200  1
  Mo  Mo8  1  0.72732400  0.27161200  0.43213600  1
  Mo  Mo9  1  0.22732400  0.22838800  0.56786400  1
  Mo  Mo10  1  0.27267600  0.77161200  0.06786400  1
  Mo  Mo11  1  0.77267600  0.72838800  0.93213600  1
  Mo  Mo12  1  0.27267600  0.72838800  0.56786400  1
  Mo  Mo13  1  0.77267600  0.77161200  0.43213600  1
  Mo  Mo14  1  0.72732400  0.22838800  0.93213600  1
  Mo  Mo15  1  0.22732400  0.27161200  0.06786400  1
  N  N0  1  0.99754700  0.31138500  0.50334900  1
  N  N1  1  0.49754700  0.18861500  0.49665100  1
  N  N2  1  0.00245300  0.81138500  0.99665100  1
  N  N3  1  0.50245300  0.68861500  0.00334900  1
  N  N4  1  0.00245300  0.68861500  0.49665100  1
  N  N5  1  0.50245300  0.81138500  0.50334900  1
  N  N6  1  0.99754700  0.18861500  0.00334900  1
  N  N7  1  0.49754700  0.31138500  0.99665100  1
  N  N8  1  0.59298800  0.41839900  0.39722600  1
  N  N9  1  0.09298800  0.08160100  0.60277400  1
  N  N10  1  0.40701200  0.91839900  0.10277400  1
  N  N11  1  0.90701200  0.58160100  0.89722600  1
  N  N12  1  0.40701200  0.58160100  0.60277400  1
  N  N13  1  0.90701200  0.91839900  0.39722600  1
  N  N14  1  0.59298800  0.08160100  0.89722600  1
  N  N15  1  0.09298800  0.41839900  0.10277400  1
  N  N16  1  0.83463300  0.18560200  0.33340800  1
  N  N17  1  0.33463300  0.31439800  0.66659200  1
  N  N18  1  0.16536700  0.68560200  0.16659200  1
  N  N19  1  0.66536700  0.81439800  0.83340800  1
  N  N20  1  0.16536700  0.81439800  0.66659200  1
  N  N21  1  0.66536700  0.68560200  0.33340800  1
  N  N22  1  0.83463300  0.31439800  0.83340800  1
  N  N23  1  0.33463300  0.18560200  0.16659200  1
  N  N24  1  0.54154700  0.48890300  0.20475300  1
  N  N25  1  0.04154700  0.01109700  0.79524700  1
  N  N26  1  0.45845300  0.98890300  0.29524700  1
  N  N27  1  0.95845300  0.51109700  0.70475300  1
  N  N28  1  0.45845300  0.51109700  0.79524700  1
  N  N29  1  0.95845300  0.98890300  0.20475300  1
  N  N30  1  0.54154700  0.01109700  0.70475300  1
  N  N31  1  0.04154700  0.48890300  0.29524700  1
loop_
_geom_bond_atom_site_label_1
_geom_bond_atom_site_label_2
_geom_bond_distance
_geom_bond_site_symmetry_2
Mo0 N26 1.907802 1_545
Mo0 N29 1.910895 1_545
Mo0 N16 1.912753 1_555
Mo0 N13 1.916896 1_545
Mo1 N27 1.907802 1_455
Mo1 N28 1.910895 1_555
Mo1 N17 1.912753 1_555
Mo1 N12 1.916896 1_555
Mo2 N24 1.907802 1_555
Mo2 N31 1.910895 1_555
Mo2 N18 1.912753 1_555
Mo2 N15 1.916896 1_555
Mo3 N25 1.907802 1_665
Mo3 N30 1.910895 1_565
Mo3 N19 1.912753 1_555
Mo3 N14 1.916896 1_565
Mo4 N30 1.907802 1_565
Mo4 N25 1.910895 1_565
Mo4 N20 1.912753 1_555
Mo4 N9 1.916896 1_565
Mo5 N31 1.907802 1_655
Mo5 N24 1.910895 1_555
Mo5 N21 1.912753 1_555
Mo5 N8 1.916896 1_555
Mo6 N28 1.907802 1_555
Mo6 N27 1.910895 1_555
Mo6 N22 1.912753 1_555
Mo6 N11 1.916896 1_555
Mo7 N29 1.907802 1_445
Mo7 N26 1.910895 1_545
Mo7 N23 1.912753 1_555
Mo7 N10 1.916896 1_545
Mo8 N1 1.887485 1_555
Mo8 N8 1.896135 1_555
Mo8 N16 1.910896 1_555
Mo8 N0 1.938435 1_555
Mo9 N0 1.887485 1_455
Mo9 N9 1.896135 1_555
Mo9 N17 1.910896 1_555
Mo9 N1 1.938435 1_555
Mo10 N3 1.887485 1_555
Mo10 N10 1.896135 1_555
Mo10 N18 1.910896 1_555
Mo10 N2 1.938435 1_554
Mo11 N2 1.887485 1_655
Mo11 N11 1.896135 1_555
Mo11 N19 1.910896 1_555
Mo11 N3 1.938435 1_556
Mo12 N5 1.887485 1_555
Mo12 N12 1.896135 1_555
Mo12 N20 1.910896 1_555
Mo12 N4 1.938435 1_555
Mo13 N4 1.887485 1_655
Mo13 N13 1.896135 1_555
Mo13 N21 1.910896 1_555
Mo13 N5 1.938435 1_555
Mo14 N7 1.887485 1_555
Mo14 N14 1.896135 1_555
Mo14 N22 1.910896 1_555
Mo14 N6 1.938435 1_556
Mo15 N6 1.887485 1_455
Mo15 N15 1.896135 1_555
Mo15 N23 1.910896 1_555
Mo15 N7 1.938435 1_554
N0 Na1 2.592497 1_555
N0 Na5 2.631366 1_655
N1 Na0 2.592497 1_545
N1 Na4 2.631366 1_555
N2 Na3 2.592497 1_565
N2 Na7 2.631366 1_456
N3 Na2 2.592497 1_555
N3 Na6 2.631366 1_554
N4 Na5 2.592497 1_555
N4 Na1 2.631366 1_455
N5 Na4 2.592497 1_565
N5 Na0 2.631366 1_555
N6 Na7 2.592497 1_545
N6 Na3 2.631366 1_654
N7 Na6 2.592497 1_555
N7 Na2 2.631366 1_556
N8 Na5 2.405394 1_555
N8 Na1 2.838136 1_555
N8 Na8 2.879033 1_555
N9 Na4 2.405394 1_455
N9 Na0 2.838136 1_545
N9 Na9 2.879033 1_455
N10 Na7 2.405394 1_555
N10 Na3 2.838136 1_564
N10 Na10 2.879033 1_555
N11 Na6 2.405394 1_655
N11 Na2 2.838136 1_556
N11 Na11 2.879033 1_655
N12 Na1 2.405394 1_555
N12 Na5 2.838136 1_555
N12 Na12 2.879033 1_555
N13 Na0 2.405394 1_655
N13 Na4 2.838136 1_565
N13 Na13 2.879033 1_655
N14 Na3 2.405394 1_555
N14 Na7 2.838136 1_546
N14 Na14 2.879033 1_555
N15 Na2 2.405394 1_455
N15 Na6 2.838136 1_554
N15 Na15 2.879033 1_455
N16 Na8 2.503420 1_655
N16 Na15 2.575295 1_555
N17 Na9 2.503420 1_555
N17 Na14 2.575295 1_555
N18 Na10 2.503420 1_455
N18 Na13 2.575295 1_555
N19 Na11 2.503420 1_555
N19 Na12 2.575295 1_555
N20 Na12 2.503420 1_455
N20 Na11 2.575295 1_555
N21 Na13 2.503420 1_555
N21 Na10 2.575295 1_555
N22 Na14 2.503420 1_655
N22 Na9 2.575295 1_555
N23 Na15 2.503420 1_555
N23 Na8 2.575295 1_555
N24 Na2 2.520250 1_555
N24 Na15 2.634983 1_555
N25 Na3 2.520250 1_555
N25 Na14 2.634983 1_555
N26 Na0 2.520250 1_555
N26 Na13 2.634983 1_555
N27 Na1 2.520250 1_555
N27 Na12 2.634983 1_555
N28 Na6 2.520250 1_555
N28 Na11 2.634983 1_555
N29 Na7 2.520250 1_555
N29 Na10 2.634983 1_555
N30 Na4 2.520250 1_555
N30 Na9 2.634983 1_555
N31 Na5 2.520250 1_555
N31 Na8 2.634983 1_555
