# generated using pymatgen
data_PrInPt4
_symmetry_space_group_name_H-M   'P 1'
_cell_length_a   5.42962263
_cell_length_b   5.42962263
_cell_length_c   5.42962263
_cell_angle_alpha   60.00000000
_cell_angle_beta   60.00000000
_cell_angle_gamma   60.00000000
_symmetry_Int_Tables_number   1
_chemical_formula_structural   PrInPt4
_chemical_formula_sum   'Pr1 In1 Pt4'
_cell_volume   113.18632016
_cell_formula_units_Z   1
loop_
 _symmetry_equiv_pos_site_id
 _symmetry_equiv_pos_as_xyz
  1  'x, y, z'
loop_
 _atom_site_type_symbol
 _atom_site_label
 _atom_site_symmetry_multiplicity
 _atom_site_fract_x
 _atom_site_fract_y
 _atom_site_fract_z
 _atom_site_occupancy
  Pr  Pr0  1  -0.00000000  -0.00000000  -0.00000000  1
  In  In0  1  0.25000000  0.25000000  0.25000000  1
  Pt  Pt0  1  0.62429727  0.62429727  0.12710820  1
  Pt  Pt1  1  0.62429727  0.12710820  0.62429727  1
  Pt  Pt2  1  0.12710820  0.62429727  0.62429727  1
  Pt  Pt3  1  0.62429727  0.62429727  0.62429727  1
loop_
_geom_bond_atom_site_label_1
_geom_bond_atom_site_label_2
_geom_bond_distance
_geom_bond_site_symmetry_2
Pr0 Pt2 3.185039 1_544
Pr0 Pt1 3.185039 1_454
Pr0 Pt0 3.185039 1_445
Pr0 Pt3 3.185039 1_544
Pr0 Pt3 3.185039 1_454
Pr0 Pt3 3.185039 1_445
Pr0 Pt1 3.185039 1_455
Pr0 Pt0 3.185039 1_545
Pr0 Pt0 3.185039 1_455
Pr0 Pt2 3.185039 1_554
Pr0 Pt2 3.185039 1_545
Pr0 Pt1 3.185039 1_554
In0 Pt2 3.181785 1_545
In0 Pt2 3.181785 1_554
In0 Pt1 3.181785 1_554
In0 Pt1 3.181785 1_455
In0 Pt0 3.181785 1_545
In0 Pt0 3.181785 1_455
In0 Pt3 3.181785 1_455
In0 Pt3 3.181785 1_545
In0 Pt3 3.181785 1_554
In0 Pt1 3.181785 1_555
In0 Pt2 3.181785 1_555
In0 Pt0 3.181785 1_555
In0 Pr0 3.324951 1_655
In0 Pr0 3.324951 1_556
In0 Pr0 3.324951 1_565
In0 Pr0 3.324951 1_555
Pt0 Pt3 2.699549 1_555
Pt0 Pt2 2.699549 1_555
Pt0 Pt1 2.699549 1_555
Pt0 Pt1 2.730074 1_564
Pt0 Pt2 2.730074 1_654
Pt0 Pt3 2.730074 1_554
Pt1 Pt3 2.699549 1_555
Pt1 Pt2 2.699549 1_555
Pt1 Pt2 2.730074 1_645
Pt1 Pt3 2.730074 1_545
Pt2 Pt3 2.699549 1_555
Pt2 Pt3 2.730074 1_455
