# generated using pymatgen
data_Ba2TiFeO6
_symmetry_space_group_name_H-M   'P 1'
_cell_length_a   5.76233929
_cell_length_b   5.76233929
_cell_length_c   14.19783700
_cell_angle_alpha   90.00000000
_cell_angle_beta   90.00000000
_cell_angle_gamma   119.99999179
_symmetry_Int_Tables_number   1
_chemical_formula_structural   Ba2TiFeO6
_chemical_formula_sum   'Ba6 Ti3 Fe3 O18'
_cell_volume   408.27285449
_cell_formula_units_Z   3
loop_
 _symmetry_equiv_pos_site_id
 _symmetry_equiv_pos_as_xyz
  1  'x, y, z'
loop_
 _atom_site_type_symbol
 _atom_site_label
 _atom_site_symmetry_multiplicity
 _atom_site_fract_x
 _atom_site_fract_y
 _atom_site_fract_z
 _atom_site_occupancy
  Ba  Ba0  1  0.66666700  0.33333300  0.59111400  1
  Ba  Ba1  1  0.33333300  0.66666700  0.40810600  1
  Ba  Ba2  1  0.33333300  0.66666700  0.09051000  1
  Ba  Ba3  1  0.66666700  0.33333300  0.90604000  1
  Ba  Ba4  1  0.00000000  0.00000000  0.74676100  1
  Ba  Ba5  1  0.00000000  0.00000000  0.25173900  1
  Ti  Ti0  1  0.66666700  0.33333300  0.14964500  1
  Ti  Ti1  1  0.00000000  0.00000000  0.49972700  1
  Ti  Ti2  1  0.00000000  0.00000000  0.99406000  1
  Fe  Fe0  1  0.66666700  0.33333300  0.34474000  1
  Fe  Fe1  1  0.33333300  0.66666700  0.65516100  1
  Fe  Fe2  1  0.33333300  0.66666700  0.84622700  1
  O  O0  1  0.16388100  0.32776100  0.58015200  1
  O  O1  1  0.16388100  0.83611900  0.58015200  1
  O  O2  1  0.67223900  0.83611900  0.58015200  1
  O  O3  1  0.83454700  0.66909500  0.41987900  1
  O  O4  1  0.83454700  0.16545300  0.41987900  1
  O  O5  1  0.33090500  0.16545300  0.41987900  1
  O  O6  1  0.83256300  0.66512600  0.08294800  1
  O  O7  1  0.83256300  0.16743700  0.08294800  1
  O  O8  1  0.33487400  0.16743700  0.08294800  1
  O  O9  1  0.16266000  0.32532100  0.92254100  1
  O  O10  1  0.16266000  0.83734000  0.92254100  1
  O  O11  1  0.67467900  0.83734000  0.92254100  1
  O  O12  1  0.48430500  0.96860900  0.74775100  1
  O  O13  1  0.48430500  0.51569500  0.74775100  1
  O  O14  1  0.03139100  0.51569500  0.74775100  1
  O  O15  1  0.51784900  0.03569900  0.25250300  1
  O  O16  1  0.51784900  0.48215100  0.25250300  1
  O  O17  1  0.96430100  0.48215100  0.25250300  1
loop_
_geom_bond_atom_site_label_1
_geom_bond_atom_site_label_2
_geom_bond_distance
_geom_bond_site_symmetry_2
Ba0 O13 2.873761 1_555
Ba0 O14 2.873761 1_655
Ba0 O12 2.873761 1_545
Ba0 O2 2.885504 1_545
Ba0 O0 2.885504 1_655
Ba0 O0 2.885504 1_555
Ba0 O2 2.885504 1_555
Ba0 O1 2.885505 1_655
Ba0 O1 2.885505 1_545
Ba0 O4 2.952635 1_555
Ba0 O5 2.952641 1_555
Ba0 O3 2.952641 1_555
Ba1 O16 2.876133 1_555
Ba1 O15 2.876133 1_565
Ba1 O17 2.876133 1_455
Ba1 O5 2.886040 1_565
Ba1 O3 2.886040 1_455
Ba1 O3 2.886040 1_555
Ba1 O5 2.886040 1_555
Ba1 O4 2.886040 1_565
Ba1 O4 2.886040 1_455
Ba1 O1 2.971026 1_555
Ba1 O2 2.971032 1_555
Ba1 O0 2.971032 1_555
Ba2 O8 2.883177 1_565
Ba2 O6 2.883177 1_455
Ba2 O7 2.883180 1_565
Ba2 O7 2.883180 1_455
Ba2 O6 2.883182 1_555
Ba2 O8 2.883182 1_555
Ba2 O10 2.930687 1_554
Ba2 O11 2.930687 1_554
Ba2 O9 2.930687 1_554
Ba2 O16 2.946393 1_555
Ba2 O15 2.946393 1_565
Ba2 O17 2.946393 1_455
Ba3 O11 2.890950 1_545
Ba3 O9 2.890950 1_655
Ba3 O10 2.890956 1_545
Ba3 O10 2.890956 1_655
Ba3 O9 2.890961 1_555
Ba3 O11 2.890961 1_555
Ba3 O13 2.891950 1_555
Ba3 O14 2.891950 1_655
Ba3 O12 2.891950 1_545
Ba3 O7 3.008356 1_556
Ba3 O6 3.008359 1_556
Ba3 O8 3.008359 1_556
Ba4 O0 2.875906 1_555
Ba4 O2 2.875906 1_445
Ba4 O1 2.875909 1_545
Ba4 O12 2.885457 1_445
Ba4 O14 2.885457 1_555
Ba4 O13 2.885459 1_445
Ba4 O13 2.885459 1_555
Ba4 O14 2.885462 1_545
Ba4 O12 2.885462 1_545
Ba4 O10 2.977264 1_545
Ba4 O9 2.977267 1_555
Ba4 O11 2.977267 1_445
Ba5 O15 2.886690 1_555
Ba5 O17 2.886690 1_445
Ba5 O16 2.886693 1_555
Ba5 O16 2.886693 1_445
Ba5 O15 2.886695 1_455
Ba5 O17 2.886695 1_455
Ba5 O5 2.902709 1_555
Ba5 O3 2.902709 1_445
Ba5 O4 2.902711 1_455
Ba5 O7 2.921599 1_455
Ba5 O8 2.921599 1_555
Ba5 O6 2.921599 1_445
Fe0 O17 1.980166 1_555
Fe0 O15 1.980166 1_555
Fe0 O16 1.980173 1_555
Fe0 O4 1.986345 1_555
Fe0 O5 1.986354 1_555
Fe0 O3 1.986354 1_555
Fe1 O1 1.998614 1_555
Fe1 O2 1.998622 1_555
Fe1 O0 1.998622 1_555
Fe1 O12 1.999633 1_555
Fe1 O14 1.999633 1_555
Fe1 O13 1.999641 1_555
Fe2 O10 2.018819 1_555
Fe2 O11 2.018820 1_555
Fe2 O9 2.018820 1_555
Fe2 O12 2.055537 1_555
Fe2 O14 2.055537 1_555
Fe2 O13 2.055544 1_555
O0 Ti1 1.994781 1_555
O1 Ti1 1.994785 1_565
O2 Ti1 1.994781 1_665
O3 Ti1 2.003018 1_665
O4 Ti1 2.003022 1_655
O5 Ti1 2.003018 1_555
O6 Ti0 1.907420 1_555
O6 Ti2 2.094128 1_664
O7 Ti0 1.907416 1_555
O7 Ti2 2.094128 1_654
O8 Ti0 1.907420 1_555
O8 Ti2 2.094128 1_554
O9 Ti2 1.914860 1_555
O10 Ti2 1.914856 1_565
O11 Ti2 1.914860 1_665
O15 Ti0 2.082966 1_555
O16 Ti0 2.082973 1_555
O17 Ti0 2.082966 1_555
