# generated using pymatgen
data_UInPt2
_symmetry_space_group_name_H-M   'P 1'
_cell_length_a   4.75424170
_cell_length_b   4.75424170
_cell_length_c   8.59964700
_cell_angle_alpha   90.00000000
_cell_angle_beta   90.00000000
_cell_angle_gamma   119.99999581
_symmetry_Int_Tables_number   1
_chemical_formula_structural   UInPt2
_chemical_formula_sum   'U2 In2 Pt4'
_cell_volume   168.33475389
_cell_formula_units_Z   2
loop_
 _symmetry_equiv_pos_site_id
 _symmetry_equiv_pos_as_xyz
  1  'x, y, z'
loop_
 _atom_site_type_symbol
 _atom_site_label
 _atom_site_symmetry_multiplicity
 _atom_site_fract_x
 _atom_site_fract_y
 _atom_site_fract_z
 _atom_site_occupancy
  U  U0  1  0.00000000  0.00000000  0.50000000  1
  U  U1  1  0.00000000  0.00000000  0.00000000  1
  In  In0  1  0.33333300  0.66666700  0.25000000  1
  In  In1  1  0.66666700  0.33333300  0.75000000  1
  Pt  Pt0  1  0.33333300  0.66666700  0.90554400  1
  Pt  Pt1  1  0.66666700  0.33333300  0.09445600  1
  Pt  Pt2  1  0.66666700  0.33333300  0.40554400  1
  Pt  Pt3  1  0.33333300  0.66666700  0.59445600  1
loop_
_geom_bond_atom_site_label_1
_geom_bond_atom_site_label_2
_geom_bond_distance
_geom_bond_site_symmetry_2
In0 Pt3 2.962200 1_555
In0 Pt0 2.962200 1_554
In0 Pt2 3.053440 1_455
In0 Pt1 3.053440 1_455
In0 Pt2 3.053440 1_565
In0 Pt1 3.053440 1_565
In0 Pt2 3.053447 1_555
In0 Pt1 3.053447 1_555
In1 Pt2 2.962200 1_555
In1 Pt1 2.962200 1_556
In1 Pt0 3.053440 1_545
In1 Pt3 3.053440 1_545
In1 Pt3 3.053440 1_655
In1 Pt0 3.053440 1_655
In1 Pt0 3.053447 1_555
In1 Pt3 3.053447 1_555
Pt0 Pt3 2.675247 1_555
Pt0 U1 2.862528 1_566
Pt0 U1 2.862532 1_666
Pt0 U1 2.862532 1_556
Pt1 Pt2 2.675247 1_555
Pt1 U1 2.862528 1_655
Pt1 U1 2.862532 1_665
Pt1 U1 2.862532 1_555
Pt2 U0 2.862528 1_655
Pt2 U0 2.862532 1_555
Pt2 U0 2.862532 1_665
Pt3 U0 2.862528 1_565
Pt3 U0 2.862532 1_555
Pt3 U0 2.862532 1_665
