# generated using pymatgen
data_Sr2YSbO6
_symmetry_space_group_name_H-M   'P 1'
_cell_length_a   5.93425500
_cell_length_b   5.86665600
_cell_length_c   10.17060300
_cell_angle_alpha   55.00471230
_cell_angle_beta   90.00000000
_cell_angle_gamma   90.00000000
_symmetry_Int_Tables_number   1
_chemical_formula_structural   Sr2YSbO6
_chemical_formula_sum   'Sr4 Y2 Sb2 O12'
_cell_volume   290.06348331
_cell_formula_units_Z   2
loop_
 _symmetry_equiv_pos_site_id
 _symmetry_equiv_pos_as_xyz
  1  'x, y, z'
loop_
 _atom_site_type_symbol
 _atom_site_label
 _atom_site_symmetry_multiplicity
 _atom_site_fract_x
 _atom_site_fract_y
 _atom_site_fract_z
 _atom_site_occupancy
  Sr  Sr0  1  0.53498600  0.75873400  0.74964800  1
  Sr  Sr1  1  0.03498600  0.24126600  0.75035200  1
  Sr  Sr2  1  0.46501400  0.24126600  0.25035200  1
  Sr  Sr3  1  0.96501400  0.75873400  0.24964800  1
  Y  Y0  1  0.00000000  0.50000000  0.00000000  1
  Y  Y1  1  0.50000000  0.50000000  0.50000000  1
  Sb  Sb0  1  0.50000000  0.00000000  0.00000000  1
  Sb  Sb1  1  0.00000000  0.00000000  0.50000000  1
  O  O0  1  0.97715700  0.68617800  0.73524700  1
  O  O1  1  0.47715700  0.31382200  0.76475300  1
  O  O2  1  0.02284300  0.31382200  0.26475300  1
  O  O3  1  0.52284300  0.68617800  0.23524700  1
  O  O4  1  0.30041800  0.76744600  0.95974200  1
  O  O5  1  0.80041800  0.23255400  0.54025800  1
  O  O6  1  0.69958200  0.23255400  0.04025800  1
  O  O7  1  0.19958200  0.76744600  0.45974200  1
  O  O8  1  0.72622400  0.84686800  0.45681100  1
  O  O9  1  0.22622400  0.15313200  0.04318900  1
  O  O10  1  0.27377600  0.15313200  0.54318900  1
  O  O11  1  0.77377600  0.84686800  0.95681100  1
loop_
_geom_bond_atom_site_label_1
_geom_bond_atom_site_label_2
_geom_bond_distance
_geom_bond_site_symmetry_2
O0 Sb1 2.019882 1_665
O0 Y0 2.255775 1_656
O0 Sr1 2.548389 1_655
O0 Sr0 2.675686 1_555
O1 Sb0 2.019882 1_556
O1 Y1 2.255775 1_555
O1 Sr0 2.548389 1_555
O1 Sr1 2.675686 1_555
O2 Sb1 2.019882 1_555
O2 Y0 2.255775 1_555
O2 Sr3 2.548389 1_455
O2 Sr2 2.675686 1_555
O3 Sb0 2.019882 1_565
O3 Y1 2.255775 1_555
O3 Sr2 2.548389 1_555
O3 Sr3 2.675686 1_555
O4 Sb0 2.018038 1_566
O4 Y0 2.251843 1_556
O4 Sr0 2.575140 1_555
O4 Sr1 2.820142 1_565
O4 Sr2 2.958686 1_556
O5 Sb1 2.018038 1_655
O5 Y1 2.251843 1_555
O5 Sr1 2.575140 1_655
O5 Sr0 2.820142 1_545
O5 Sr3 2.958686 1_555
O6 Sb0 2.018038 1_555
O6 Y0 2.251843 1_655
O6 Sr2 2.575140 1_555
O6 Sr3 2.820142 1_545
O6 Sr0 2.958686 1_554
O7 Sb1 2.018038 1_565
O7 Y1 2.251843 1_555
O7 Sr3 2.575140 1_455
O7 Sr2 2.820142 1_565
O7 Sr1 2.958686 1_555
O8 Sb1 2.022910 1_665
O8 Y1 2.260737 1_555
O8 Sr2 2.567646 1_565
O8 Sr3 2.822102 1_555
O8 Sr0 2.942674 1_555
O9 Sb0 2.022910 1_555
O9 Y0 2.260737 1_555
O9 Sr3 2.567646 1_445
O9 Sr2 2.822102 1_555
O9 Sr1 2.942674 1_554
O10 Sb1 2.022910 1_555
O10 Y1 2.260737 1_555
O10 Sr0 2.567646 1_545
O10 Sr1 2.822102 1_555
O10 Sr2 2.942674 1_555
O11 Sb0 2.022910 1_566
O11 Y0 2.260737 1_656
O11 Sr1 2.567646 1_665
O11 Sr0 2.822102 1_555
O11 Sr3 2.942674 1_556
