# generated using pymatgen
data_Te3Au
_symmetry_space_group_name_H-M   'P 1'
_cell_length_a   6.20520188
_cell_length_b   6.20520188
_cell_length_c   25.87893962
_cell_angle_alpha   90.00000000
_cell_angle_beta   90.00000000
_cell_angle_gamma   90.00000000
_symmetry_Int_Tables_number   1
_chemical_formula_structural   Te3Au
_chemical_formula_sum   'Te24 Au8'
_cell_volume   996.45641658
_cell_formula_units_Z   8
loop_
 _symmetry_equiv_pos_site_id
 _symmetry_equiv_pos_as_xyz
  1  'x, y, z'
loop_
 _atom_site_type_symbol
 _atom_site_label
 _atom_site_symmetry_multiplicity
 _atom_site_fract_x
 _atom_site_fract_y
 _atom_site_fract_z
 _atom_site_occupancy
  Te  Te0_0  1  0.00000000  0.00000000  0.10124738  1
  Te  Te0_1  1  0.00000000  0.00000000  0.60124738  1
  Te  Te0_2  1  0.00000000  0.50000000  0.10124738  1
  Te  Te0_3  1  0.00000000  0.50000000  0.60124738  1
  Te  Te0_4  1  0.50000000  0.00000000  0.10124738  1
  Te  Te0_5  1  0.50000000  0.00000000  0.60124738  1
  Te  Te0_6  1  0.50000000  0.50000000  0.10124738  1
  Te  Te0_7  1  0.50000000  0.50000000  0.60124738  1
  Te  Te1_0  1  0.00000000  0.00000000  0.25000000  1
  Te  Te1_1  1  0.00000000  0.00000000  0.75000000  1
  Te  Te1_2  1  0.00000000  0.50000000  0.25000000  1
  Te  Te1_3  1  0.00000000  0.50000000  0.75000000  1
  Te  Te1_4  1  0.50000000  0.00000000  0.25000000  1
  Te  Te1_5  1  0.50000000  0.00000000  0.75000000  1
  Te  Te1_6  1  0.50000000  0.50000000  0.25000000  1
  Te  Te1_7  1  0.50000000  0.50000000  0.75000000  1
  Te  Te2_0  1  0.00000000  0.00000000  0.39875262  1
  Te  Te2_1  1  0.00000000  0.00000000  0.89875262  1
  Te  Te2_2  1  0.00000000  0.50000000  0.39875262  1
  Te  Te2_3  1  0.00000000  0.50000000  0.89875262  1
  Te  Te2_4  1  0.50000000  0.00000000  0.39875262  1
  Te  Te2_5  1  0.50000000  0.00000000  0.89875262  1
  Te  Te2_6  1  0.50000000  0.50000000  0.39875262  1
  Te  Te2_7  1  0.50000000  0.50000000  0.89875262  1
  Au  Au0_0  1  0.00000000  0.00000000  0.00000000  1
  Au  Au0_1  1  0.00000000  0.00000000  0.50000000  1
  Au  Au0_2  1  0.00000000  0.50000000  0.00000000  1
  Au  Au0_3  1  0.00000000  0.50000000  0.50000000  1
  Au  Au0_4  1  0.50000000  0.00000000  0.00000000  1
  Au  Au0_5  1  0.50000000  0.00000000  0.50000000  1
  Au  Au0_6  1  0.50000000  0.50000000  0.00000000  1
  Au  Au0_7  1  0.50000000  0.50000000  0.50000000  1
loop_
_geom_bond_atom_site_label_1
_geom_bond_atom_site_label_2
_geom_bond_distance
_geom_bond_site_symmetry_2
Te1_0 Te1_2 3.102601 1_555
Te1_0 Te1_4 3.102601 1_555
Te1_0 Te1_4 3.102601 1_455
Te1_0 Te1_2 3.102601 1_545
Te1_1 Te1_3 3.102601 1_555
Te1_1 Te1_5 3.102601 1_555
Te1_1 Te1_5 3.102601 1_455
Te1_1 Te1_3 3.102601 1_545
Te1_2 Te1_6 3.102601 1_555
Te1_2 Te1_6 3.102601 1_455
Te1_3 Te1_7 3.102601 1_555
Te1_3 Te1_7 3.102601 1_455
Te1_4 Te1_6 3.102601 1_555
Te1_4 Te1_6 3.102601 1_545
Te1_5 Te1_7 3.102601 1_555
Te1_5 Te1_7 3.102601 1_545
Au0_0 Te0_0 2.620175 1_555
Au0_0 Te2_1 2.620175 1_554
Au0_1 Te2_0 2.620175 1_555
Au0_1 Te0_1 2.620175 1_555
Au0_2 Te0_2 2.620175 1_555
Au0_2 Te2_3 2.620175 1_554
Au0_3 Te2_2 2.620175 1_555
Au0_3 Te0_3 2.620175 1_555
Au0_4 Te0_4 2.620175 1_555
Au0_4 Te2_5 2.620175 1_554
Au0_5 Te2_4 2.620175 1_555
Au0_5 Te0_5 2.620175 1_555
Au0_6 Te0_6 2.620175 1_555
Au0_6 Te2_7 2.620175 1_554
Au0_7 Te2_6 2.620175 1_555
Au0_7 Te0_7 2.620175 1_555
