# generated using pymatgen
data_K2OsO6
_symmetry_space_group_name_H-M   'P 1'
_cell_length_a   6.34547788
_cell_length_b   6.34547788
_cell_length_c   6.34547788
_cell_angle_alpha   123.65643347
_cell_angle_beta   123.65643347
_cell_angle_gamma   83.77556443
_symmetry_Int_Tables_number   1
_chemical_formula_structural   K2OsO6
_chemical_formula_sum   'K2 Os1 O6'
_cell_volume   169.58581788
_cell_formula_units_Z   1
loop_
 _symmetry_equiv_pos_site_id
 _symmetry_equiv_pos_as_xyz
  1  'x, y, z'
loop_
 _atom_site_type_symbol
 _atom_site_label
 _atom_site_symmetry_multiplicity
 _atom_site_fract_x
 _atom_site_fract_y
 _atom_site_fract_z
 _atom_site_occupancy
  K  K0  1  0.75000000  0.25000000  0.50000000  1
  K  K1  1  0.25000000  0.75000000  0.50000000  1
  Os  Os0  1  0.00000000  0.00000000  0.00000000  1
  O  O0  1  0.19605100  0.19605100  0.00000000  1
  O  O1  1  0.80394900  0.80394900  0.00000000  1
  O  O2  1  0.26186600  0.16543600  0.42730200  1
  O  O3  1  0.73813400  0.83456400  0.57269800  1
  O  O4  1  0.16543600  0.73813400  0.90356900  1
  O  O5  1  0.83456400  0.26186600  0.09643100  1
loop_
_geom_bond_atom_site_label_1
_geom_bond_atom_site_label_2
_geom_bond_distance
_geom_bond_site_symmetry_2
K0 O5 2.932084 1_555
K0 O2 2.932091 1_555
K0 O3 2.932091 1_545
K0 O4 2.932092 1_655
K0 O0 3.038856 1_656
K0 O1 3.038856 1_545
K0 O0 3.038856 1_555
K0 O1 3.038856 1_556
K1 O4 2.932084 1_555
K1 O2 2.932091 1_565
K1 O3 2.932091 1_555
K1 O5 2.932092 1_455
K1 O0 3.038856 1_555
K1 O0 3.038856 1_566
K1 O1 3.038856 1_455
K1 O1 3.038856 1_556
O0 Os0 1.852257 1_555
O1 Os0 1.852257 1_665
O2 Os0 1.855881 1_555
O3 Os0 1.855881 1_666
O4 Os0 1.855882 1_566
O5 Os0 1.855882 1_655
