# generated using pymatgen
data_Dy2Al2Fe15
_symmetry_space_group_name_H-M   'P 1'
_cell_length_a   8.37808077
_cell_length_b   8.37808077
_cell_length_c   8.40296100
_cell_angle_alpha   90.00000000
_cell_angle_beta   90.00000000
_cell_angle_gamma   120.00000605
_symmetry_Int_Tables_number   1
_chemical_formula_structural   Dy2Al2Fe15
_chemical_formula_sum   'Dy4 Al4 Fe30'
_cell_volume   510.80135256
_cell_formula_units_Z   2
loop_
 _symmetry_equiv_pos_site_id
 _symmetry_equiv_pos_as_xyz
  1  'x, y, z'
loop_
 _atom_site_type_symbol
 _atom_site_label
 _atom_site_symmetry_multiplicity
 _atom_site_fract_x
 _atom_site_fract_y
 _atom_site_fract_z
 _atom_site_occupancy
  Dy  Dy0  1  0.00000000  0.00000000  0.25000000  1
  Dy  Dy1  1  0.00000000  0.00000000  0.75000000  1
  Dy  Dy2  1  0.33333300  0.66666700  0.75000000  1
  Dy  Dy3  1  0.66666700  0.33333300  0.25000000  1
  Al  Al0  1  0.33333300  0.66666700  0.39926500  1
  Al  Al1  1  0.66666700  0.33333300  0.60073500  1
  Al  Al2  1  0.66666700  0.33333300  0.89926500  1
  Al  Al3  1  0.33333300  0.66666700  0.10073500  1
  Fe  Fe0  1  0.50000000  0.50000000  0.50000000  1
  Fe  Fe1  1  0.50000000  0.00000000  0.50000000  1
  Fe  Fe2  1  0.00000000  0.50000000  0.50000000  1
  Fe  Fe3  1  0.50000000  0.50000000  0.00000000  1
  Fe  Fe4  1  0.50000000  0.00000000  0.00000000  1
  Fe  Fe5  1  0.00000000  0.50000000  0.00000000  1
  Fe  Fe6  1  0.33133400  0.36366000  0.25000000  1
  Fe  Fe7  1  0.63634000  0.96767400  0.25000000  1
  Fe  Fe8  1  0.03232600  0.66866600  0.25000000  1
  Fe  Fe9  1  0.63634000  0.66866600  0.25000000  1
  Fe  Fe10  1  0.03232600  0.36366000  0.25000000  1
  Fe  Fe11  1  0.33133400  0.96767400  0.25000000  1
  Fe  Fe12  1  0.66866600  0.63634000  0.75000000  1
  Fe  Fe13  1  0.36366000  0.03232600  0.75000000  1
  Fe  Fe14  1  0.96767400  0.33133400  0.75000000  1
  Fe  Fe15  1  0.36366000  0.33133400  0.75000000  1
  Fe  Fe16  1  0.96767400  0.63634000  0.75000000  1
  Fe  Fe17  1  0.66866600  0.03232600  0.75000000  1
  Fe  Fe18  1  0.16542300  0.83457700  0.50977900  1
  Fe  Fe19  1  0.16542300  0.33084700  0.50977900  1
  Fe  Fe20  1  0.66915300  0.83457700  0.50977900  1
  Fe  Fe21  1  0.83457700  0.16542300  0.49022100  1
  Fe  Fe22  1  0.83457700  0.66915300  0.49022100  1
  Fe  Fe23  1  0.33084700  0.16542300  0.49022100  1
  Fe  Fe24  1  0.83457700  0.16542300  0.00977900  1
  Fe  Fe25  1  0.83457700  0.66915300  0.00977900  1
  Fe  Fe26  1  0.33084700  0.16542300  0.00977900  1
  Fe  Fe27  1  0.16542300  0.83457700  0.99022100  1
  Fe  Fe28  1  0.16542300  0.33084700  0.99022100  1
  Fe  Fe29  1  0.66915300  0.83457700  0.99022100  1
loop_
_geom_bond_atom_site_label_1
_geom_bond_atom_site_label_2
_geom_bond_distance
_geom_bond_site_symmetry_2
Dy0 Fe6 2.920790 1_555
Dy0 Fe9 2.920790 1_445
Dy0 Fe10 2.920790 1_555
Dy0 Fe7 2.920790 1_445
Dy0 Fe11 2.920790 1_545
Dy0 Fe8 2.920790 1_545
Dy0 Fe21 3.136399 1_455
Dy0 Fe24 3.136399 1_455
Dy0 Fe22 3.136404 1_445
Dy0 Fe23 3.136404 1_555
Dy0 Fe25 3.136404 1_445
Dy0 Fe26 3.136404 1_555
Dy0 Fe18 3.244610 1_545
Dy0 Fe27 3.244610 1_544
Dy0 Fe28 3.244615 1_554
Dy0 Fe19 3.244615 1_555
Dy0 Fe20 3.244615 1_445
Dy0 Fe29 3.244615 1_444
Dy1 Fe15 2.920790 1_555
Dy1 Fe12 2.920790 1_445
Dy1 Fe13 2.920790 1_555
Dy1 Fe16 2.920790 1_445
Dy1 Fe17 2.920790 1_455
Dy1 Fe14 2.920790 1_455
Dy1 Fe18 3.136399 1_545
Dy1 Fe27 3.136399 1_545
Dy1 Fe19 3.136404 1_555
Dy1 Fe29 3.136404 1_445
Dy1 Fe20 3.136404 1_445
Dy1 Fe28 3.136404 1_555
Dy1 Fe24 3.244610 1_456
Dy1 Fe21 3.244610 1_455
Dy1 Fe25 3.244615 1_446
Dy1 Fe26 3.244615 1_556
Dy1 Fe22 3.244615 1_445
Dy1 Fe23 3.244615 1_555
Dy2 Fe16 2.944712 1_455
Dy2 Fe13 2.944712 1_565
Dy2 Fe14 2.944716 1_455
Dy2 Fe17 2.944716 1_565
Dy2 Fe12 2.944721 1_555
Dy2 Fe15 2.944721 1_555
Dy2 Fe19 3.164106 1_555
Dy2 Fe20 3.164106 1_555
Dy2 Fe28 3.164106 1_555
Dy2 Fe29 3.164106 1_555
Dy2 Fe27 3.164106 1_555
Dy2 Fe18 3.164106 1_555
Dy2 Fe1 3.203506 1_565
Dy2 Fe5 3.203506 1_556
Dy2 Fe4 3.203506 1_566
Dy2 Fe2 3.203506 1_555
Dy2 Fe0 3.203512 1_555
Dy2 Fe3 3.203512 1_556
Dy3 Fe7 2.944712 1_545
Dy3 Fe10 2.944712 1_655
Dy3 Fe11 2.944716 1_545
Dy3 Fe8 2.944716 1_655
Dy3 Fe9 2.944721 1_555
Dy3 Fe6 2.944721 1_555
Dy3 Fe22 3.164106 1_555
Dy3 Fe25 3.164106 1_555
Dy3 Fe26 3.164106 1_555
Dy3 Fe23 3.164106 1_555
Dy3 Fe21 3.164106 1_555
Dy3 Fe24 3.164106 1_555
Dy3 Fe4 3.203506 1_555
Dy3 Fe5 3.203506 1_655
Dy3 Fe1 3.203506 1_555
Dy3 Fe2 3.203506 1_655
Dy3 Fe0 3.203512 1_555
Dy3 Fe3 3.203512 1_555
Al0 Al3 2.508536 1_555
Al0 Fe1 2.562393 1_565
Al0 Fe2 2.562393 1_555
Al0 Fe0 2.562400 1_555
Al0 Fe19 2.607553 1_555
Al0 Fe20 2.607553 1_555
Al0 Fe18 2.607553 1_555
Al0 Fe8 2.824090 1_555
Al0 Fe11 2.824090 1_555
Al0 Fe10 2.824094 1_555
Al0 Fe7 2.824094 1_555
Al0 Fe9 2.824098 1_555
Al0 Fe6 2.824098 1_555
Al0 Dy2 2.947213 1_555
Al1 Al2 2.508536 1_555
Al1 Fe2 2.562393 1_655
Al1 Fe1 2.562393 1_555
Al1 Fe0 2.562400 1_555
Al1 Fe22 2.607553 1_555
Al1 Fe23 2.607553 1_555
Al1 Fe21 2.607553 1_555
Al1 Fe14 2.824090 1_555
Al1 Fe17 2.824090 1_555
Al1 Fe13 2.824094 1_555
Al1 Fe16 2.824094 1_555
Al1 Fe15 2.824098 1_555
Al1 Fe12 2.824098 1_555
Al1 Dy3 2.947213 1_555
Al2 Fe5 2.562393 1_656
Al2 Fe4 2.562393 1_556
Al2 Fe3 2.562400 1_556
Al2 Fe26 2.607553 1_556
Al2 Fe25 2.607553 1_556
Al2 Fe24 2.607553 1_556
Al2 Fe14 2.824090 1_555
Al2 Fe17 2.824090 1_555
Al2 Fe13 2.824094 1_555
Al2 Fe16 2.824094 1_555
Al2 Fe15 2.824098 1_555
Al2 Fe12 2.824098 1_555
Al2 Dy3 2.947213 1_556
Al3 Fe4 2.562393 1_565
Al3 Fe5 2.562393 1_555
Al3 Fe3 2.562400 1_555
Al3 Fe29 2.607553 1_554
Al3 Fe28 2.607553 1_554
Al3 Fe27 2.607553 1_554
Al3 Fe8 2.824090 1_555
Al3 Fe11 2.824090 1_555
Al3 Fe10 2.824094 1_555
Al3 Fe7 2.824094 1_555
Al3 Fe9 2.824098 1_555
Al3 Fe6 2.824098 1_555
Al3 Dy2 2.947213 1_554
Fe0 Fe19 2.429008 1_555
Fe0 Fe23 2.429008 1_555
Fe0 Fe20 2.429008 1_555
Fe0 Fe22 2.429008 1_555
Fe0 Fe15 2.469938 1_555
Fe0 Fe12 2.469938 1_555
Fe0 Fe9 2.469938 1_555
Fe0 Fe6 2.469938 1_555
Fe1 Fe20 2.429001 1_545
Fe1 Fe23 2.429001 1_555
Fe1 Fe18 2.429008 1_545
Fe1 Fe21 2.429008 1_555
Fe1 Fe17 2.469938 1_555
Fe1 Fe11 2.469938 1_545
Fe1 Fe7 2.469938 1_545
Fe1 Fe13 2.469938 1_555
Fe2 Fe22 2.429001 1_455
Fe2 Fe21 2.429008 1_455
Fe2 Fe8 2.469938 1_555
Fe3 Fe9 2.469938 1_555
Fe3 Fe6 2.469938 1_555
Fe4 Fe7 2.469938 1_545
Fe5 Fe8 2.469938 1_555
Fe6 Fe9 2.555365 1_555
Fe7 Fe9 2.505113 1_555
Fe10 Fe2 2.469938 1_555
Fe10 Fe5 2.469938 1_555
Fe10 Fe6 2.505113 1_555
Fe10 Fe28 2.527979 1_554
Fe10 Fe19 2.527979 1_555
Fe10 Fe8 2.555365 1_555
Fe10 Fe24 2.612709 1_455
Fe10 Fe21 2.612709 1_455
Fe11 Fe4 2.469938 1_565
Fe11 Fe8 2.505113 1_555
Fe11 Fe18 2.527982 1_555
Fe11 Fe27 2.527982 1_554
Fe11 Fe7 2.555365 1_555
Fe11 Fe26 2.612707 1_565
Fe11 Fe23 2.612707 1_565
Fe12 Fe3 2.469938 1_556
Fe12 Fe16 2.505113 1_555
Fe12 Fe22 2.527983 1_555
Fe12 Fe25 2.527983 1_556
Fe12 Fe15 2.555365 1_555
Fe12 Fe20 2.612712 1_555
Fe12 Fe29 2.612712 1_555
Fe13 Fe4 2.469938 1_556
Fe13 Fe15 2.505113 1_555
Fe13 Fe23 2.527979 1_555
Fe13 Fe26 2.527979 1_556
Fe13 Fe17 2.555365 1_555
Fe13 Fe27 2.612709 1_545
Fe13 Fe18 2.612709 1_545
Fe14 Fe5 2.469938 1_656
Fe14 Fe2 2.469938 1_655
Fe14 Fe17 2.505113 1_555
Fe14 Fe24 2.527982 1_556
Fe14 Fe21 2.527982 1_555
Fe14 Fe16 2.555365 1_555
Fe14 Fe19 2.612707 1_655
Fe14 Fe28 2.612707 1_655
Fe15 Fe3 2.469938 1_556
Fe15 Fe26 2.527983 1_556
Fe15 Fe23 2.527983 1_555
Fe15 Fe19 2.612712 1_555
Fe15 Fe28 2.612712 1_555
Fe16 Fe5 2.469938 1_656
Fe16 Fe2 2.469938 1_655
Fe16 Fe22 2.527979 1_555
Fe16 Fe25 2.527979 1_556
Fe16 Fe27 2.612709 1_655
Fe16 Fe18 2.612709 1_655
Fe17 Fe4 2.469938 1_556
Fe17 Fe24 2.527982 1_556
Fe17 Fe21 2.527982 1_555
Fe17 Fe29 2.612707 1_545
Fe17 Fe20 2.612707 1_545
Fe18 Fe22 2.406115 1_455
Fe18 Fe23 2.406115 1_565
Fe18 Fe2 2.429008 1_555
Fe18 Fe8 2.527982 1_555
Fe19 Fe21 2.406115 1_455
Fe19 Fe23 2.406130 1_555
Fe19 Fe2 2.429001 1_555
Fe19 Fe6 2.527983 1_555
Fe20 Fe21 2.406115 1_565
Fe20 Fe22 2.406130 1_555
Fe20 Fe7 2.527979 1_555
Fe20 Fe9 2.527983 1_555
Fe21 Fe7 2.612709 1_545
Fe22 Fe8 2.612707 1_655
Fe22 Fe9 2.612712 1_555
Fe23 Fe6 2.612712 1_555
Fe24 Fe29 2.406115 1_544
Fe24 Fe28 2.406115 1_654
Fe24 Fe5 2.429008 1_655
Fe24 Fe4 2.429008 1_555
Fe24 Fe7 2.612709 1_545
Fe25 Fe27 2.406115 1_654
Fe25 Fe29 2.406130 1_554
Fe25 Fe5 2.429001 1_655
Fe25 Fe3 2.429008 1_555
Fe25 Fe8 2.612707 1_655
Fe25 Fe9 2.612712 1_555
Fe26 Fe27 2.406115 1_544
Fe26 Fe28 2.406130 1_554
Fe26 Fe4 2.429001 1_555
Fe26 Fe3 2.429008 1_555
Fe26 Fe6 2.612712 1_555
Fe27 Fe4 2.429008 1_566
Fe27 Fe5 2.429008 1_556
Fe27 Fe8 2.527982 1_556
Fe28 Fe5 2.429001 1_556
Fe28 Fe3 2.429008 1_556
Fe28 Fe6 2.527983 1_556
Fe29 Fe4 2.429001 1_566
Fe29 Fe3 2.429008 1_556
Fe29 Fe7 2.527979 1_556
Fe29 Fe9 2.527983 1_556
