# generated using pymatgen
data_Mg14ZnB
_symmetry_space_group_name_H-M   'P 1'
_cell_length_a   6.20301309
_cell_length_b   6.29815726
_cell_length_c   10.03422917
_cell_angle_alpha   90.00000000
_cell_angle_beta   90.00000000
_cell_angle_gamma   120.50870513
_symmetry_Int_Tables_number   1
_chemical_formula_structural   Mg14ZnB
_chemical_formula_sum   'Mg14 Zn1 B1'
_cell_volume   337.73940035
_cell_formula_units_Z   1
loop_
 _symmetry_equiv_pos_site_id
 _symmetry_equiv_pos_as_xyz
  1  'x, y, z'
loop_
 _atom_site_type_symbol
 _atom_site_label
 _atom_site_symmetry_multiplicity
 _atom_site_fract_x
 _atom_site_fract_y
 _atom_site_fract_z
 _atom_site_occupancy
  Mg  Mg0  1  0.17304560  0.33652230  0.62500000  1
  Mg  Mg1  1  0.17063594  0.83531747  0.62500000  1
  Mg  Mg2  1  0.72629311  0.36982930  0.12500000  1
  Mg  Mg3  1  0.66134855  0.33143056  0.62500000  1
  Mg  Mg4  1  0.72629311  0.85646281  0.12500000  1
  Mg  Mg5  1  0.66134855  0.82991700  0.62500000  1
  Mg  Mg6  1  0.31735878  0.15070660  0.34258118  1
  Mg  Mg7  1  0.31735878  0.15070660  0.90741882  1
  Mg  Mg8  1  0.31735878  0.66665318  0.34258118  1
  Mg  Mg9  1  0.31735878  0.66665318  0.90741882  1
  Mg  Mg10  1  0.83183656  0.16591878  0.37728708  1
  Mg  Mg11  1  0.83183656  0.16591878  0.87271292  1
  Mg  Mg12  1  0.83109504  0.66554802  0.37336460  1
  Mg  Mg13  1  0.83109504  0.66554802  0.87663540  1
  Zn  Zn0  1  0.17061067  0.33530484  0.12500000  1
  B  B0  1  0.11512614  0.80756257  0.12500000  1
loop_
_geom_bond_atom_site_label_1
_geom_bond_atom_site_label_2
_geom_bond_distance
_geom_bond_site_symmetry_2
Mg0 Mg5 3.045355 1_555
Mg0 Mg3 3.045355 1_555
Mg0 Mg10 3.082756 1_455
Mg0 Mg11 3.082756 1_455
Mg0 Mg1 3.149105 1_545
Mg0 Mg1 3.149105 1_555
Mg0 Mg5 3.157904 1_445
Mg0 Mg3 3.157904 1_455
Mg0 Mg6 3.356391 1_555
Mg0 Mg7 3.356391 1_555
Mg0 Mg8 3.356397 1_555
Mg0 Mg9 3.356397 1_555
Mg1 Mg3 3.061304 1_565
Mg1 Mg5 3.061304 1_555
Mg1 Mg13 3.109367 1_455
Mg1 Mg12 3.109367 1_455
Mg1 Mg3 3.141985 1_455
Mg1 Mg5 3.141986 1_455
Mg1 Mg8 3.311966 1_555
Mg1 Mg9 3.311966 1_555
Mg1 Mg6 3.311971 1_565
Mg1 Mg7 3.311971 1_565
Mg2 Zn0 2.872611 1_655
Mg2 Zn0 3.341773 1_555
Mg3 Mg5 3.139546 1_555
Mg3 Mg5 3.158611 1_545
Mg3 Mg6 3.378359 1_555
Mg3 Mg7 3.378359 1_555
Mg4 Zn0 2.872610 1_665
Mg4 Zn0 3.341772 1_555
Mg5 Mg8 3.378360 1_555
Mg5 Mg9 3.378360 1_555
Mg6 Zn0 2.832223 1_555
Mg7 Zn0 2.832223 1_556
Mg8 Zn0 2.832230 1_555
Mg9 Zn0 2.832230 1_556
Mg10 Mg2 3.056166 1_555
Mg10 Mg4 3.056173 1_545
Mg10 Mg8 3.081196 1_655
Mg10 Mg6 3.081196 1_655
Mg10 Mg3 3.082626 1_555
Mg10 Mg5 3.082632 1_545
Mg10 Zn0 3.112294 1_655
Mg10 Mg12 3.149327 1_545
Mg10 Mg12 3.149327 1_555
Mg10 Mg8 3.162986 1_545
Mg10 Mg6 3.162987 1_555
Mg11 Mg2 3.056166 1_556
Mg11 Mg4 3.056173 1_546
Mg11 Mg9 3.081196 1_655
Mg11 Mg7 3.081196 1_655
Mg11 Mg3 3.082626 1_555
Mg11 Mg5 3.082632 1_545
Mg11 Zn0 3.112294 1_656
Mg11 Mg13 3.149327 1_545
Mg11 Mg13 3.149327 1_555
Mg11 Mg9 3.162986 1_545
Mg11 Mg7 3.162987 1_555
Mg12 Mg4 2.978736 1_555
Mg12 Mg2 2.978742 1_555
Mg12 Mg6 3.028566 1_665
Mg12 Mg8 3.028566 1_655
Mg12 Mg5 3.108468 1_555
Mg12 Mg3 3.108474 1_555
Mg12 Mg6 3.205171 1_555
Mg12 Mg8 3.205171 1_555
Mg13 Mg4 2.978736 1_556
Mg13 Mg2 2.978742 1_556
Mg13 Mg7 3.028566 1_665
Mg13 Mg9 3.028566 1_655
Mg13 Mg5 3.108468 1_555
Mg13 Mg3 3.108474 1_555
Mg13 Mg7 3.205171 1_555
Mg13 Mg9 3.205171 1_555
B0 Mg2 2.581959 1_455
B0 Mg4 2.581960 1_455
B0 Mg9 2.873715 1_554
B0 Mg8 2.873715 1_555
B0 Mg7 2.873721 1_564
B0 Mg6 2.873721 1_565
B0 Mg12 2.918029 1_455
B0 Mg13 2.918029 1_454
