# generated using pymatgen
data_Sr4Nb3PO14
_symmetry_space_group_name_H-M   'P 1'
_cell_length_a   4.06982270
_cell_length_b   5.78806995
_cell_length_c   13.32356130
_cell_angle_alpha   93.72141669
_cell_angle_beta   98.45686984
_cell_angle_gamma   90.17978741
_symmetry_Int_Tables_number   1
_chemical_formula_structural   Sr4Nb3PO14
_chemical_formula_sum   'Sr4 Nb3 P1 O14'
_cell_volume   309.76262112
_cell_formula_units_Z   1
loop_
 _symmetry_equiv_pos_site_id
 _symmetry_equiv_pos_as_xyz
  1  'x, y, z'
loop_
 _atom_site_type_symbol
 _atom_site_label
 _atom_site_symmetry_multiplicity
 _atom_site_fract_x
 _atom_site_fract_y
 _atom_site_fract_z
 _atom_site_occupancy
  Sr  Sr0  1  0.29448500  0.06918700  0.61310400  1
  Sr  Sr1  1  0.72292900  0.55814700  0.43115900  1
  Sr  Sr2  1  0.44377500  0.43668500  0.87929400  1
  Sr  Sr3  1  0.55431700  0.95763500  0.10738200  1
  Nb  Nb0  1  0.16844100  0.01834700  0.33065600  1
  Nb  Nb1  1  0.05475100  0.45953700  0.11164100  1
  Nb  Nb2  1  0.94763200  0.93161200  0.88101400  1
  P  P0  1  0.73825600  0.56170000  0.66861100  1
  O  O0  1  0.45462200  0.89779500  0.89525300  1
  O  O1  1  0.54872200  0.43482000  0.09267700  1
  O  O2  1  0.91477500  0.61019100  0.78566600  1
  O  O3  1  0.09341900  0.17123800  0.18573300  1
  O  O4  1  0.78003000  0.77857200  0.60914400  1
  O  O5  1  0.20950500  0.29408200  0.40964000  1
  O  O6  1  0.21794500  0.81503300  0.43631500  1
  O  O7  1  0.81818800  0.34861400  0.59888900  1
  O  O8  1  0.99700000  0.19004500  0.98090800  1
  O  O9  1  0.00417900  0.67864600  0.99972400  1
  O  O10  1  0.89066100  0.10932100  0.77208100  1
  O  O11  1  0.10750700  0.69438900  0.21459900  1
  O  O12  1  0.38363900  0.51647600  0.68839800  1
  O  O13  1  0.65519800  0.98821000  0.30806600  1
loop_
_geom_bond_atom_site_label_1
_geom_bond_atom_site_label_2
_geom_bond_distance
_geom_bond_site_symmetry_2
Nb0 O5 1.846910 1_555
Nb0 O6 1.881575 1_545
Nb0 O13 2.053329 1_545
Nb0 O13 2.071260 1_445
Nb0 O3 2.157496 1_555
Nb0 O11 2.340172 1_545
Nb1 O11 1.856106 1_555
Nb1 O3 1.988366 1_555
Nb1 O9 2.007752 1_554
Nb1 O1 2.041088 1_455
Nb1 O1 2.066986 1_555
Nb1 O8 2.246531 1_454
Nb2 O10 1.820593 1_565
Nb2 O8 1.926216 1_565
Nb2 O0 2.052929 1_555
Nb2 O0 2.055231 1_655
Nb2 O2 2.175896 1_555
Nb2 O9 2.212251 1_655
O0 Sr2 2.663309 1_555
O0 Sr3 2.794171 1_556
O0 Sr2 3.140119 1_565
O1 Sr3 2.781504 1_545
O1 Sr2 2.812857 1_554
O1 Sr3 3.019506 1_555
O2 P0 1.624673 1_555
O2 Sr2 2.566337 1_655
O2 Sr2 2.663274 1_555
O3 Sr3 2.561212 1_545
O3 Sr3 2.563968 1_445
O4 P0 1.549114 1_555
O4 Sr1 2.597802 1_555
O4 Sr0 2.603296 1_565
O4 Sr0 2.673926 1_665
O5 Sr1 2.543403 1_455
O5 Sr1 2.555650 1_555
O5 Sr0 3.057446 1_555
O6 Sr1 2.490276 1_455
O6 Sr1 2.546917 1_555
O6 Sr0 2.672219 1_565
O7 P0 1.559683 1_555
O7 Sr0 2.522041 1_655
O7 Sr1 2.591383 1_555
O7 Sr0 2.707638 1_555
O8 Sr2 2.852324 1_655
O8 Sr2 2.883530 1_555
O8 Sr3 2.997157 1_646
O8 Sr3 3.011145 1_546
O9 Sr2 2.881863 1_555
O9 Sr2 2.889571 1_455
O9 Sr3 2.900010 1_556
O9 Sr3 2.916749 1_456
O10 Sr0 2.864259 1_655
O10 Sr0 2.974647 1_555
O10 Sr2 3.061544 1_555
O10 Sr2 3.061733 1_655
O11 Sr3 2.949269 1_555
O11 Sr3 2.964645 1_455
O12 P0 1.529519 1_555
O12 Sr2 2.590801 1_555
O12 Sr0 2.718555 1_555
O13 Sr3 2.639025 1_555
O13 Sr1 3.059947 1_555
