# generated using pymatgen
data_LuTh
_symmetry_space_group_name_H-M   'P 1'
_cell_length_a   12.02513940
_cell_length_b   12.02513940
_cell_length_c   12.02513963
_cell_angle_alpha   34.17980499
_cell_angle_beta   34.17980499
_cell_angle_gamma   34.17980555
_symmetry_Int_Tables_number   1
_chemical_formula_structural   LuTh
_chemical_formula_sum   'Lu8 Th8'
_cell_volume   489.34197517
_cell_formula_units_Z   8
loop_
 _symmetry_equiv_pos_site_id
 _symmetry_equiv_pos_as_xyz
  1  'x, y, z'
loop_
 _atom_site_type_symbol
 _atom_site_label
 _atom_site_symmetry_multiplicity
 _atom_site_fract_x
 _atom_site_fract_y
 _atom_site_fract_z
 _atom_site_occupancy
  Lu  Lu0_0  1  0.00000000  0.00000000  0.00000000  1
  Lu  Lu0_1  1  0.00000000  0.00000000  0.50000000  1
  Lu  Lu0_2  1  0.00000000  0.50000000  0.00000000  1
  Lu  Lu0_3  1  0.00000000  0.50000000  0.50000000  1
  Lu  Lu0_4  1  0.50000000  0.00000000  0.00000000  1
  Lu  Lu0_5  1  0.50000000  0.00000000  0.50000000  1
  Lu  Lu0_6  1  0.50000000  0.50000000  0.00000000  1
  Lu  Lu0_7  1  0.50000000  0.50000000  0.50000000  1
  Th  Th0_0  1  0.25000000  0.25000000  0.25000000  1
  Th  Th0_1  1  0.25000000  0.25000000  0.75000000  1
  Th  Th0_2  1  0.25000000  0.75000000  0.25000000  1
  Th  Th0_3  1  0.25000000  0.75000000  0.75000000  1
  Th  Th0_4  1  0.75000000  0.25000000  0.25000000  1
  Th  Th0_5  1  0.75000000  0.25000000  0.75000000  1
  Th  Th0_6  1  0.75000000  0.75000000  0.25000000  1
  Th  Th0_7  1  0.75000000  0.75000000  0.75000000  1
loop_
_geom_bond_atom_site_label_1
_geom_bond_atom_site_label_2
_geom_bond_distance
_geom_bond_site_symmetry_2
Lu0_0 Th0_6 3.487087 1_445
Lu0_0 Th0_1 3.487087 1_554
Lu0_0 Th0_3 3.487087 1_544
Lu0_0 Th0_5 3.487087 1_454
Lu0_0 Th0_4 3.487087 1_455
Lu0_0 Th0_2 3.487087 1_545
Lu0_0 Lu0_5 3.533850 1_455
Lu0_0 Lu0_3 3.533850 1_545
Lu0_0 Lu0_3 3.533850 1_554
Lu0_0 Lu0_5 3.533850 1_554
Lu0_0 Lu0_6 3.533850 1_455
Lu0_0 Lu0_6 3.533850 1_545
Lu0_1 Th0_0 3.487087 1_555
Lu0_1 Th0_7 3.487087 1_445
Lu0_1 Th0_4 3.487087 1_455
Lu0_1 Th0_2 3.487087 1_545
Lu0_1 Th0_3 3.487087 1_545
Lu0_1 Th0_5 3.487087 1_455
Lu0_1 Lu0_2 3.533850 1_555
Lu0_1 Lu0_4 3.533850 1_555
Lu0_1 Lu0_2 3.533850 1_546
Lu0_1 Lu0_4 3.533850 1_456
Lu0_1 Lu0_7 3.533850 1_545
Lu0_1 Lu0_7 3.533850 1_455
Lu0_2 Th0_4 3.487087 1_455
Lu0_2 Th0_3 3.487087 1_554
Lu0_2 Th0_1 3.487087 1_554
Lu0_2 Th0_7 3.487087 1_454
Lu0_2 Th0_0 3.487087 1_555
Lu0_2 Th0_6 3.487087 1_455
Lu0_2 Lu0_7 3.533850 1_455
Lu0_2 Lu0_7 3.533850 1_554
Lu0_2 Lu0_4 3.533850 1_465
Lu0_2 Lu0_4 3.533850 1_555
Lu0_3 Th0_5 3.487087 1_455
Lu0_3 Th0_2 3.487087 1_555
Lu0_3 Th0_6 3.487087 1_455
Lu0_3 Th0_7 3.487087 1_455
Lu0_3 Th0_0 3.487087 1_555
Lu0_3 Th0_1 3.487087 1_555
Lu0_3 Lu0_6 3.533850 1_555
Lu0_3 Lu0_6 3.533850 1_456
Lu0_3 Lu0_5 3.533850 1_465
Lu0_3 Lu0_5 3.533850 1_555
Lu0_4 Th0_2 3.487087 1_545
Lu0_4 Th0_5 3.487087 1_554
Lu0_4 Th0_1 3.487087 1_554
Lu0_4 Th0_7 3.487087 1_544
Lu0_4 Th0_0 3.487087 1_555
Lu0_4 Th0_6 3.487087 1_545
Lu0_4 Lu0_7 3.533850 1_545
Lu0_4 Lu0_7 3.533850 1_554
Lu0_5 Th0_3 3.487087 1_545
Lu0_5 Th0_4 3.487087 1_555
Lu0_5 Th0_7 3.487087 1_545
Lu0_5 Th0_6 3.487087 1_545
Lu0_5 Th0_1 3.487087 1_555
Lu0_5 Th0_0 3.487087 1_555
Lu0_5 Lu0_6 3.533850 1_555
Lu0_5 Lu0_6 3.533850 1_546
Lu0_6 Th0_0 3.487087 1_555
Lu0_6 Th0_7 3.487087 1_554
Lu0_6 Th0_5 3.487087 1_554
Lu0_6 Th0_3 3.487087 1_554
Lu0_6 Th0_4 3.487087 1_555
Lu0_6 Th0_2 3.487087 1_555
Lu0_7 Th0_1 3.487087 1_555
Lu0_7 Th0_6 3.487087 1_555
Lu0_7 Th0_2 3.487087 1_555
Lu0_7 Th0_4 3.487087 1_555
Lu0_7 Th0_5 3.487087 1_555
Lu0_7 Th0_3 3.487087 1_555
Th0_0 Th0_3 3.533850 1_545
Th0_0 Th0_5 3.533850 1_455
Th0_0 Th0_5 3.533850 1_554
Th0_0 Th0_3 3.533850 1_554
Th0_0 Th0_6 3.533850 1_545
Th0_0 Th0_6 3.533850 1_455
Th0_1 Th0_4 3.533850 1_456
Th0_1 Th0_2 3.533850 1_546
Th0_1 Th0_2 3.533850 1_555
Th0_1 Th0_4 3.533850 1_555
Th0_1 Th0_7 3.533850 1_455
Th0_1 Th0_7 3.533850 1_545
Th0_2 Th0_7 3.533850 1_554
Th0_2 Th0_7 3.533850 1_455
Th0_2 Th0_4 3.533850 1_465
Th0_2 Th0_4 3.533850 1_555
Th0_3 Th0_6 3.533850 1_555
Th0_3 Th0_6 3.533850 1_456
Th0_3 Th0_5 3.533850 1_465
Th0_3 Th0_5 3.533850 1_555
Th0_4 Th0_7 3.533850 1_554
Th0_4 Th0_7 3.533850 1_545
Th0_5 Th0_6 3.533850 1_555
Th0_5 Th0_6 3.533850 1_546
