# generated using pymatgen
data_EuPuRh2
_symmetry_space_group_name_H-M   'P 1'
_cell_length_a   4.87836504
_cell_length_b   4.87836504
_cell_length_c   4.87836504
_cell_angle_alpha   60.00000000
_cell_angle_beta   60.00000000
_cell_angle_gamma   60.00000000
_symmetry_Int_Tables_number   1
_chemical_formula_structural   EuPuRh2
_chemical_formula_sum   'Eu1 Pu1 Rh2'
_cell_volume   82.09333255
_cell_formula_units_Z   1
loop_
 _symmetry_equiv_pos_site_id
 _symmetry_equiv_pos_as_xyz
  1  'x, y, z'
loop_
 _atom_site_type_symbol
 _atom_site_label
 _atom_site_symmetry_multiplicity
 _atom_site_fract_x
 _atom_site_fract_y
 _atom_site_fract_z
 _atom_site_occupancy
  Eu  Eu0  1  0.50000000  0.50000000  0.50000000  1
  Pu  Pu0  1  0.00000000  0.00000000  0.00000000  1
  Rh  Rh0  1  0.25000000  0.25000000  0.25000000  1
  Rh  Rh1  1  0.75000000  0.75000000  0.75000000  1
loop_
_geom_bond_atom_site_label_1
_geom_bond_atom_site_label_2
_geom_bond_distance
_geom_bond_site_symmetry_2
Eu0 Rh1 2.987376 1_554
Eu0 Rh1 2.987376 1_555
Eu0 Rh0 2.987376 1_555
Eu0 Rh0 2.987376 1_556
Eu0 Rh1 2.987376 1_545
Eu0 Rh0 2.987376 1_565
Eu0 Rh1 2.987376 1_455
Eu0 Rh0 2.987376 1_655
Pu0 Rh1 2.987376 1_445
Pu0 Rh1 2.987376 1_444
Pu0 Rh0 2.987376 1_555
Pu0 Rh0 2.987376 1_554
Pu0 Rh1 2.987376 1_544
Pu0 Rh0 2.987376 1_455
Pu0 Rh1 2.987376 1_454
Pu0 Rh0 2.987376 1_545
