# generated using pymatgen
data_InGaS3
_symmetry_space_group_name_H-M   'P 1'
_cell_length_a   10.08237472
_cell_length_b   10.08237472
_cell_length_c   6.23336500
_cell_angle_alpha   90.00000000
_cell_angle_beta   90.00000000
_cell_angle_gamma   158.23496641
_symmetry_Int_Tables_number   1
_chemical_formula_structural   InGaS3
_chemical_formula_sum   'In2 Ga2 S6'
_cell_volume   234.95748089
_cell_formula_units_Z   2
loop_
 _symmetry_equiv_pos_site_id
 _symmetry_equiv_pos_as_xyz
  1  'x, y, z'
loop_
 _atom_site_type_symbol
 _atom_site_label
 _atom_site_symmetry_multiplicity
 _atom_site_fract_x
 _atom_site_fract_y
 _atom_site_fract_z
 _atom_site_occupancy
  In  In0  1  0.66746500  0.33253500  0.49794400  1
  In  In1  1  0.33253500  0.66746500  0.99794400  1
  Ga  Ga0  1  0.11553500  0.88446500  0.94254800  1
  Ga  Ga1  1  0.88446500  0.11553500  0.44254800  1
  S  S0  1  0.10482200  0.89517800  0.30343800  1
  S  S1  1  0.89517800  0.10482200  0.80343800  1
  S  S2  1  0.43332300  0.56667700  0.29174600  1
  S  S3  1  0.56667700  0.43332300  0.79174600  1
  S  S4  1  0.21931100  0.78068900  0.75842400  1
  S  S5  1  0.78068900  0.21931100  0.25842400  1
loop_
_geom_bond_atom_site_label_1
_geom_bond_atom_site_label_2
_geom_bond_distance
_geom_bond_site_symmetry_2
In0 S0 2.575282 1_545
In0 S0 2.575282 1_655
In0 S5 2.693695 1_555
In0 S4 2.704381 1_545
In0 S4 2.704381 1_655
In0 S3 2.708729 1_555
In1 S1 2.575282 1_565
In1 S1 2.575282 1_455
In1 S4 2.693695 1_555
In1 S5 2.704381 1_566
In1 S5 2.704381 1_456
In1 S2 2.708729 1_556
Ga0 S0 2.259540 1_556
Ga0 S3 2.333023 1_455
Ga0 S3 2.333023 1_565
Ga0 S4 2.353764 1_555
Ga1 S1 2.259540 1_555
Ga1 S2 2.333023 1_545
Ga1 S2 2.333023 1_655
Ga1 S5 2.353764 1_555
