# generated using pymatgen
data_Ho13(Mg2Zn27)2
_symmetry_space_group_name_H-M   'P 1'
_cell_length_a   13.94756782
_cell_length_b   14.38268754
_cell_length_c   14.38268754
_cell_angle_alpha   119.99999799
_cell_angle_beta   90.00000000
_cell_angle_gamma   90.00000000
_symmetry_Int_Tables_number   1
_chemical_formula_structural   Ho13(Mg2Zn27)2
_chemical_formula_sum   'Ho26 Mg8 Zn108'
_cell_volume   2498.67179053
_cell_formula_units_Z   2
loop_
 _symmetry_equiv_pos_site_id
 _symmetry_equiv_pos_as_xyz
  1  'x, y, z'
loop_
 _atom_site_type_symbol
 _atom_site_label
 _atom_site_symmetry_multiplicity
 _atom_site_fract_x
 _atom_site_fract_y
 _atom_site_fract_z
 _atom_site_occupancy
  Ho  Ho0  1  0.94641532  0.79343691  0.20656309  1
  Ho  Ho1  1  0.05358468  0.20656309  0.79343691  1
  Ho  Ho2  1  0.94641532  0.41312618  0.20656309  1
  Ho  Ho3  1  0.44641532  0.20656309  0.79343691  1
  Ho  Ho4  1  0.05358468  0.58687382  0.79343691  1
  Ho  Ho5  1  0.55358468  0.79343691  0.20656309  1
  Ho  Ho6  1  0.94641532  0.79343691  0.58687382  1
  Ho  Ho7  1  0.44641532  0.58687382  0.79343691  1
  Ho  Ho8  1  0.05358468  0.20656309  0.41312618  1
  Ho  Ho9  1  0.55358468  0.41312618  0.20656309  1
  Ho  Ho10  1  0.44641532  0.20656309  0.41312618  1
  Ho  Ho11  1  0.55358468  0.79343691  0.58687382  1
  Ho  Ho12  1  0.75000000  0.45813943  0.54186057  1
  Ho  Ho13  1  0.25000000  0.54186057  0.45813943  1
  Ho  Ho14  1  0.75000000  0.08372113  0.54186057  1
  Ho  Ho15  1  0.25000000  0.91627887  0.45813943  1
  Ho  Ho16  1  0.75000000  0.45813943  0.91627887  1
  Ho  Ho17  1  0.25000000  0.54186057  0.08372113  1
  Ho  Ho18  1  0.75000000  0.12586553  0.87413447  1
  Ho  Ho19  1  0.25000000  0.87413447  0.12586553  1
  Ho  Ho20  1  0.75000000  0.74826894  0.87413447  1
  Ho  Ho21  1  0.25000000  0.25173106  0.12586553  1
  Ho  Ho22  1  0.75000000  0.12586553  0.25173106  1
  Ho  Ho23  1  0.25000000  0.87413447  0.74826894  1
  Ho  Ho24  1  -0.00000000  0.00000000  0.00000000  1
  Ho  Ho25  1  0.50000000  0.00000000  0.00000000  1
  Mg  Mg0  1  0.25000000  0.66666700  0.33333300  1
  Mg  Mg1  1  0.75000000  0.33333300  0.66666700  1
  Mg  Mg2  1  -0.00000000  0.50000000  0.50000000  1
  Mg  Mg3  1  -0.00000000  0.00000000  0.50000000  1
  Mg  Mg4  1  0.50000000  0.50000000  0.50000000  1
  Mg  Mg5  1  -0.00000000  0.50000000  0.00000000  1
  Mg  Mg6  1  0.50000000  0.00000000  0.50000000  1
  Mg  Mg7  1  0.50000000  0.50000000  0.00000000  1
  Zn  Zn0  1  0.94613833  0.39607937  0.60392063  1
  Zn  Zn1  1  0.05386167  0.60392063  0.39607937  1
  Zn  Zn2  1  0.94613833  0.20784126  0.60392063  1
  Zn  Zn3  1  0.44613833  0.60392063  0.39607937  1
  Zn  Zn4  1  0.05386167  0.79215874  0.39607937  1
  Zn  Zn5  1  0.55386167  0.39607937  0.60392063  1
  Zn  Zn6  1  0.94613833  0.39607937  0.79215874  1
  Zn  Zn7  1  0.44613833  0.79215874  0.39607937  1
  Zn  Zn8  1  0.05386167  0.60392063  0.20784126  1
  Zn  Zn9  1  0.55386167  0.20784126  0.60392063  1
  Zn  Zn10  1  0.44613833  0.60392063  0.20784126  1
  Zn  Zn11  1  0.55386167  0.39607937  0.79215874  1
  Zn  Zn12  1  0.34285819  0.76724121  0.23275879  1
  Zn  Zn13  1  0.65714181  0.23275879  0.76724121  1
  Zn  Zn14  1  0.34285819  0.46551757  0.23275879  1
  Zn  Zn15  1  0.84285819  0.23275879  0.76724121  1
  Zn  Zn16  1  0.65714181  0.53448243  0.76724121  1
  Zn  Zn17  1  0.15714181  0.76724121  0.23275879  1
  Zn  Zn18  1  0.34285819  0.76724121  0.53448243  1
  Zn  Zn19  1  0.84285819  0.53448243  0.76724121  1
  Zn  Zn20  1  0.65714181  0.23275879  0.46551757  1
  Zn  Zn21  1  0.15714181  0.46551757  0.23275879  1
  Zn  Zn22  1  0.84285819  0.23275879  0.46551757  1
  Zn  Zn23  1  0.15714181  0.76724121  0.53448243  1
  Zn  Zn24  1  -0.00000000  0.79991598  0.79991598  1
  Zn  Zn25  1  -0.00000000  0.20008402  0.20008402  1
  Zn  Zn26  1  -0.00000000  0.00000000  0.20008402  1
  Zn  Zn27  1  0.50000000  0.20008402  0.20008402  1
  Zn  Zn28  1  -0.00000000  1.00000000  0.79991598  1
  Zn  Zn29  1  0.50000000  0.79991598  0.79991598  1
  Zn  Zn30  1  -0.00000000  0.20008402  0.00000000  1
  Zn  Zn31  1  0.50000000  1.00000000  0.79991598  1
  Zn  Zn32  1  -0.00000000  0.79991598  1.00000000  1
  Zn  Zn33  1  0.50000000  0.00000000  0.20008402  1
  Zn  Zn34  1  0.50000000  0.79991598  1.00000000  1
  Zn  Zn35  1  0.50000000  0.20008402  0.00000000  1
  Zn  Zn36  1  0.75000000  0.73097858  0.26902142  1
  Zn  Zn37  1  0.25000000  0.26902142  0.73097858  1
  Zn  Zn38  1  0.75000000  0.53804284  0.26902142  1
  Zn  Zn39  1  0.25000000  0.46195716  0.73097858  1
  Zn  Zn40  1  0.75000000  0.73097858  0.46195716  1
  Zn  Zn41  1  0.25000000  0.26902142  0.53804284  1
  Zn  Zn42  1  0.75000000  0.91705799  0.28129880  1
  Zn  Zn43  1  0.25000000  0.08294201  0.71870120  1
  Zn  Zn44  1  0.75000000  0.36424082  0.08294201  1
  Zn  Zn45  1  0.25000000  0.63575918  0.71870120  1
  Zn  Zn46  1  0.25000000  0.63575918  0.91705799  1
  Zn  Zn47  1  0.75000000  0.36424082  0.28129880  1
  Zn  Zn48  1  0.75000000  0.71870120  0.63575918  1
  Zn  Zn49  1  0.25000000  0.28129880  0.91705799  1
  Zn  Zn50  1  0.25000000  0.28129880  0.36424082  1
  Zn  Zn51  1  0.75000000  0.71870120  0.08294201  1
  Zn  Zn52  1  0.25000000  0.08294201  0.36424082  1
  Zn  Zn53  1  0.75000000  0.91705799  0.63575918  1
  Zn  Zn54  1  0.89688357  0.63917871  0.67486401  1
  Zn  Zn55  1  0.10311643  0.36082129  0.32513599  1
  Zn  Zn56  1  0.89688357  0.03568530  0.36082129  1
  Zn  Zn57  1  0.39688357  0.36082129  0.32513599  1
  Zn  Zn58  1  0.10311643  0.96431470  0.32513599  1
  Zn  Zn59  1  0.10311643  0.96431470  0.63917871  1
  Zn  Zn60  1  0.60311643  0.63917871  0.67486401  1
  Zn  Zn61  1  0.89688357  0.03568530  0.67486401  1
  Zn  Zn62  1  0.89688357  0.32513599  0.96431470  1
  Zn  Zn63  1  0.39688357  0.96431470  0.63917871  1
  Zn  Zn64  1  0.10311643  0.67486401  0.63917871  1
  Zn  Zn65  1  0.10311643  0.67486401  0.03568530  1
  Zn  Zn66  1  0.60311643  0.03568530  0.36082129  1
  Zn  Zn67  1  0.89688357  0.32513599  0.36082129  1
  Zn  Zn68  1  0.60311643  0.03568530  0.67486401  1
  Zn  Zn69  1  0.39688357  0.96431470  0.32513599  1
  Zn  Zn70  1  0.39688357  0.67486401  0.03568530  1
  Zn  Zn71  1  0.60311643  0.32513599  0.36082129  1
  Zn  Zn72  1  0.60311643  0.32513599  0.96431470  1
  Zn  Zn73  1  0.39688357  0.67486401  0.63917871  1
  Zn  Zn74  1  0.10311643  0.36082129  0.03568530  1
  Zn  Zn75  1  0.89688357  0.63917871  0.96431470  1
  Zn  Zn76  1  0.60311643  0.63917871  0.96431470  1
  Zn  Zn77  1  0.39688357  0.36082129  0.03568530  1
  Zn  Zn78  1  0.90196133  0.66666700  0.33333300  1
  Zn  Zn79  1  0.09803867  0.33333300  0.66666700  1
  Zn  Zn80  1  0.40196133  0.33333300  0.66666700  1
  Zn  Zn81  1  0.59803867  0.66666700  0.33333300  1
  Zn  Zn82  1  0.35222311  0.43594787  0.56405213  1
  Zn  Zn83  1  0.64777689  0.56405213  0.43594787  1
  Zn  Zn84  1  0.35222311  0.12810425  0.56405213  1
  Zn  Zn85  1  0.85222311  0.56405213  0.43594787  1
  Zn  Zn86  1  0.64777689  0.87189575  0.43594787  1
  Zn  Zn87  1  0.14777689  0.43594787  0.56405213  1
  Zn  Zn88  1  0.35222311  0.43594787  0.87189575  1
  Zn  Zn89  1  0.85222311  0.87189575  0.43594787  1
  Zn  Zn90  1  0.64777689  0.56405213  0.12810425  1
  Zn  Zn91  1  0.14777689  0.12810425  0.56405213  1
  Zn  Zn92  1  0.85222311  0.56405213  0.12810425  1
  Zn  Zn93  1  0.14777689  0.43594787  0.87189575  1
  Zn  Zn94  1  0.84304733  0.90479459  0.09520541  1
  Zn  Zn95  1  0.15695267  0.09520541  0.90479459  1
  Zn  Zn96  1  0.84304733  0.19041082  0.09520541  1
  Zn  Zn97  1  0.34304733  0.09520541  0.90479459  1
  Zn  Zn98  1  0.15695267  0.80958918  0.90479459  1
  Zn  Zn99  1  0.65695267  0.90479459  0.09520541  1
  Zn  Zn100  1  0.84304733  0.90479459  0.80958918  1
  Zn  Zn101  1  0.34304733  0.80958918  0.90479459  1
  Zn  Zn102  1  0.15695267  0.09520541  0.19041082  1
  Zn  Zn103  1  0.65695267  0.19041082  0.09520541  1
  Zn  Zn104  1  0.34304733  0.09520541  0.19041082  1
  Zn  Zn105  1  0.65695267  0.90479459  0.80958918  1
  Zn  Zn106  1  0.75000000  0.00000000  0.00000000  1
  Zn  Zn107  1  0.25000000  0.00000000  0.00000000  1
loop_
_geom_bond_atom_site_label_1
_geom_bond_atom_site_label_2
_geom_bond_distance
_geom_bond_site_symmetry_2
Ho0 Zn17 3.010696 1_655
Ho0 Zn58 3.087734 1_655
Ho0 Zn65 3.087734 1_655
Ho0 Zn32 3.109750 1_654
Ho0 Zn26 3.109750 1_665
Ho0 Zn4 3.118658 1_655
Ho0 Zn8 3.118658 1_655
Ho0 Zn94 3.126368 1_555
Ho0 Zn56 3.131936 1_565
Ho0 Zn75 3.131936 1_554
Ho0 Zn42 3.148091 1_555
Ho0 Zn51 3.148091 1_555
Ho0 Zn36 3.150536 1_555
Ho0 Zn89 3.187619 1_555
Ho0 Zn92 3.187619 1_555
Ho0 Zn78 3.218324 1_555
Ho1 Zn15 3.010696 1_455
Ho1 Zn62 3.087734 1_455
Ho1 Zn61 3.087734 1_455
Ho1 Zn30 3.109750 1_556
Ho1 Zn28 3.109750 1_545
Ho1 Zn6 3.118658 1_455
Ho1 Zn2 3.118658 1_455
Ho1 Zn95 3.126368 1_555
Ho1 Zn74 3.131936 1_556
Ho1 Zn59 3.131936 1_545
Ho1 Zn49 3.148091 1_555
Ho1 Zn43 3.148091 1_555
Ho1 Zn37 3.150536 1_555
Ho1 Zn93 3.187619 1_555
Ho1 Zn91 3.187619 1_555
Ho1 Zn79 3.218324 1_555
Ho2 Zn21 3.010696 1_655
Ho2 Zn55 3.087734 1_655
Ho2 Zn74 3.087734 1_655
Ho2 Zn25 3.109750 1_655
Ho2 Zn30 3.109750 1_655
Ho2 Zn8 3.118658 1_655
Ho2 Zn1 3.118658 1_655
Ho2 Zn96 3.126368 1_555
Ho2 Zn67 3.131936 1_555
Ho2 Zn62 3.131936 1_554
Ho2 Zn47 3.148091 1_555
Ho2 Zn44 3.148091 1_555
Ho2 Zn38 3.150536 1_555
Ho2 Zn85 3.187620 1_555
Ho2 Zn92 3.187620 1_555
Ho2 Zn78 3.218337 1_555
Ho3 Zn13 3.010696 1_555
Ho3 Zn72 3.087734 1_555
Ho3 Zn68 3.087734 1_555
Ho3 Zn35 3.109750 1_556
Ho3 Zn31 3.109750 1_545
Ho3 Zn11 3.118658 1_555
Ho3 Zn9 3.118658 1_555
Ho3 Zn97 3.126368 1_555
Ho3 Zn77 3.131936 1_556
Ho3 Zn63 3.131936 1_545
Ho3 Zn49 3.148091 1_555
Ho3 Zn43 3.148091 1_555
Ho3 Zn37 3.150536 1_555
Ho3 Zn88 3.187619 1_555
Ho3 Zn84 3.187619 1_555
Ho3 Zn80 3.218324 1_555
Ho4 Zn19 3.010696 1_455
Ho4 Zn54 3.087734 1_455
Ho4 Zn75 3.087734 1_455
Ho4 Zn24 3.109750 1_555
Ho4 Zn32 3.109750 1_555
Ho4 Zn6 3.118658 1_455
Ho4 Zn0 3.118658 1_455
Ho4 Zn98 3.126368 1_555
Ho4 Zn64 3.131936 1_555
Ho4 Zn65 3.131936 1_556
Ho4 Zn45 3.148091 1_555
Ho4 Zn46 3.148091 1_555
Ho4 Zn39 3.150536 1_555
Ho4 Zn87 3.187620 1_555
Ho4 Zn93 3.187620 1_555
Ho4 Zn79 3.218337 1_555
Ho5 Zn12 3.010696 1_555
Ho5 Zn69 3.087734 1_555
Ho5 Zn70 3.087734 1_555
Ho5 Zn33 3.109750 1_565
Ho5 Zn34 3.109750 1_554
Ho5 Zn7 3.118658 1_555
Ho5 Zn10 3.118658 1_555
Ho5 Zn99 3.126368 1_555
Ho5 Zn66 3.131936 1_565
Ho5 Zn76 3.131936 1_554
Ho5 Zn42 3.148091 1_555
Ho5 Zn51 3.148091 1_555
Ho5 Zn36 3.150536 1_555
Ho5 Zn86 3.187619 1_555
Ho5 Zn90 3.187619 1_555
Ho5 Zn81 3.218324 1_555
Ho6 Zn23 3.010696 1_655
Ho6 Zn64 3.087734 1_655
Ho6 Zn59 3.087734 1_655
Ho6 Zn24 3.109750 1_655
Ho6 Zn28 3.109750 1_655
Ho6 Zn4 3.118658 1_655
Ho6 Zn1 3.118658 1_655
Ho6 Zn100 3.126368 1_555
Ho6 Zn54 3.131936 1_555
Ho6 Zn61 3.131936 1_565
Ho6 Zn48 3.148091 1_555
Ho6 Zn53 3.148091 1_555
Ho6 Zn40 3.150536 1_555
Ho6 Zn85 3.187620 1_555
Ho6 Zn89 3.187620 1_555
Ho6 Zn78 3.218337 1_555
Ho7 Zn16 3.010696 1_555
Ho7 Zn60 3.087734 1_555
Ho7 Zn76 3.087734 1_555
Ho7 Zn29 3.109750 1_555
Ho7 Zn34 3.109750 1_555
Ho7 Zn11 3.118658 1_555
Ho7 Zn5 3.118658 1_555
Ho7 Zn101 3.126368 1_555
Ho7 Zn73 3.131936 1_555
Ho7 Zn70 3.131936 1_556
Ho7 Zn45 3.148091 1_555
Ho7 Zn46 3.148091 1_555
Ho7 Zn39 3.150536 1_555
Ho7 Zn82 3.187620 1_555
Ho7 Zn88 3.187620 1_555
Ho7 Zn80 3.218337 1_555
Ho8 Zn22 3.010696 1_455
Ho8 Zn67 3.087734 1_455
Ho8 Zn56 3.087734 1_455
Ho8 Zn25 3.109750 1_555
Ho8 Zn26 3.109750 1_555
Ho8 Zn2 3.118658 1_455
Ho8 Zn0 3.118658 1_455
Ho8 Zn102 3.126368 1_555
Ho8 Zn55 3.131936 1_555
Ho8 Zn58 3.131936 1_545
Ho8 Zn50 3.148091 1_555
Ho8 Zn52 3.148091 1_555
Ho8 Zn41 3.150536 1_555
Ho8 Zn87 3.187620 1_555
Ho8 Zn91 3.187620 1_555
Ho8 Zn79 3.218337 1_555
Ho9 Zn14 3.010696 1_555
Ho9 Zn57 3.087734 1_555
Ho9 Zn77 3.087734 1_555
Ho9 Zn27 3.109750 1_555
Ho9 Zn35 3.109750 1_555
Ho9 Zn10 3.118658 1_555
Ho9 Zn3 3.118658 1_555
Ho9 Zn103 3.126368 1_555
Ho9 Zn71 3.131936 1_555
Ho9 Zn72 3.131936 1_554
Ho9 Zn47 3.148091 1_555
Ho9 Zn44 3.148091 1_555
Ho9 Zn38 3.150536 1_555
Ho9 Zn83 3.187620 1_555
Ho9 Zn90 3.187620 1_555
Ho9 Zn81 3.218337 1_555
Ho10 Zn20 3.010696 1_555
Ho10 Zn71 3.087734 1_555
Ho10 Zn66 3.087734 1_555
Ho10 Zn27 3.109750 1_555
Ho10 Zn33 3.109750 1_555
Ho10 Zn9 3.118658 1_555
Ho10 Zn5 3.118658 1_555
Ho10 Zn104 3.126368 1_555
Ho10 Zn57 3.131936 1_555
Ho10 Zn69 3.131936 1_545
Ho10 Zn50 3.148091 1_555
Ho10 Zn52 3.148091 1_555
Ho10 Zn41 3.150536 1_555
Ho10 Zn82 3.187620 1_555
Ho10 Zn84 3.187620 1_555
Ho10 Zn80 3.218337 1_555
Ho11 Zn18 3.010696 1_555
Ho11 Zn73 3.087734 1_555
Ho11 Zn63 3.087734 1_555
Ho11 Zn29 3.109750 1_555
Ho11 Zn31 3.109750 1_555
Ho11 Zn7 3.118658 1_555
Ho11 Zn3 3.118658 1_555
Ho11 Zn105 3.126368 1_555
Ho11 Zn60 3.131936 1_555
Ho11 Zn68 3.131936 1_565
Ho11 Zn48 3.148091 1_555
Ho11 Zn53 3.148091 1_555
Ho11 Zn40 3.150536 1_555
Ho11 Zn83 3.187620 1_555
Ho11 Zn86 3.187620 1_555
Ho11 Zn81 3.218337 1_555
Ho12 Zn83 2.999036 1_555
Ho12 Zn85 2.999036 1_555
Ho12 Zn67 3.107307 1_555
Ho12 Zn54 3.107307 1_555
Ho12 Zn71 3.107307 1_555
Ho12 Zn60 3.107307 1_555
Ho12 Mg1 3.109121 1_555
Ho12 Zn16 3.135534 1_555
Ho12 Zn20 3.135534 1_555
Ho12 Zn19 3.135534 1_555
Ho12 Zn22 3.135534 1_555
Ho12 Zn5 3.142284 1_555
Ho12 Zn0 3.142284 1_555
Ho12 Zn48 3.287412 1_555
Ho12 Zn47 3.287412 1_555
Ho13 Zn82 2.999036 1_555
Ho13 Zn87 2.999036 1_555
Ho13 Zn64 3.107307 1_555
Ho13 Zn55 3.107307 1_555
Ho13 Zn57 3.107307 1_555
Ho13 Zn73 3.107307 1_555
Ho13 Mg0 3.109121 1_555
Ho13 Zn23 3.135534 1_555
Ho13 Zn18 3.135534 1_555
Ho13 Zn21 3.135534 1_555
Ho13 Zn14 3.135534 1_555
Ho13 Zn1 3.142284 1_555
Ho13 Zn3 3.142284 1_555
Ho13 Zn45 3.287412 1_555
Ho13 Zn50 3.287412 1_555
Ho14 Zn86 2.999036 1_545
Ho14 Zn89 2.999036 1_545
Ho14 Zn68 3.107307 1_555
Ho14 Zn61 3.107307 1_555
Ho14 Zn56 3.107307 1_555
Ho14 Zn66 3.107307 1_555
Ho14 Mg1 3.109109 1_555
Ho14 Zn13 3.135534 1_555
Ho14 Zn15 3.135534 1_555
Ho14 Zn20 3.135534 1_555
Ho14 Zn22 3.135534 1_555
Ho14 Zn2 3.142284 1_555
Ho14 Zn9 3.142284 1_555
Ho14 Zn53 3.287411 1_545
Ho14 Zn42 3.287412 1_545
Ho15 Zn84 2.999036 1_565
Ho15 Zn91 2.999036 1_565
Ho15 Zn58 3.107307 1_555
Ho15 Zn69 3.107307 1_555
Ho15 Zn59 3.107307 1_555
Ho15 Zn63 3.107307 1_555
Ho15 Mg0 3.109109 1_555
Ho15 Zn17 3.135534 1_555
Ho15 Zn12 3.135534 1_555
Ho15 Zn18 3.135534 1_555
Ho15 Zn23 3.135534 1_555
Ho15 Zn4 3.142284 1_555
Ho15 Zn7 3.142284 1_555
Ho15 Zn52 3.287411 1_565
Ho15 Zn43 3.287412 1_565
Ho16 Zn90 2.999036 1_556
Ho16 Zn92 2.999036 1_556
Ho16 Zn62 3.107307 1_555
Ho16 Zn72 3.107307 1_555
Ho16 Zn75 3.107307 1_555
Ho16 Zn76 3.107307 1_555
Ho16 Mg1 3.109109 1_555
Ho16 Zn13 3.135534 1_555
Ho16 Zn15 3.135534 1_555
Ho16 Zn16 3.135534 1_555
Ho16 Zn19 3.135534 1_555
Ho16 Zn11 3.142284 1_555
Ho16 Zn6 3.142284 1_555
Ho16 Zn44 3.287411 1_556
Ho16 Zn51 3.287412 1_556
Ho17 Zn93 2.999036 1_554
Ho17 Zn88 2.999036 1_554
Ho17 Zn70 3.107307 1_555
Ho17 Zn65 3.107307 1_555
Ho17 Zn74 3.107307 1_555
Ho17 Zn77 3.107307 1_555
Ho17 Mg0 3.109109 1_555
Ho17 Zn12 3.135534 1_555
Ho17 Zn17 3.135534 1_555
Ho17 Zn14 3.135534 1_555
Ho17 Zn21 3.135534 1_555
Ho17 Zn10 3.142284 1_555
Ho17 Zn8 3.142284 1_555
Ho17 Zn46 3.287411 1_554
Ho17 Zn49 3.287412 1_554
Ho18 Zn13 2.961134 1_555
Ho18 Zn15 2.961134 1_555
Ho18 Zn100 3.115147 1_545
Ho18 Zn96 3.115147 1_556
Ho18 Zn105 3.115147 1_545
Ho18 Zn103 3.115147 1_556
Ho18 Zn106 3.135505 1_556
Ho18 Zn61 3.221210 1_555
Ho18 Zn62 3.221210 1_555
Ho18 Zn68 3.221210 1_555
Ho18 Zn72 3.221210 1_555
Ho18 Zn44 3.236866 1_556
Ho18 Zn53 3.236866 1_545
Ho19 Zn12 2.961134 1_555
Ho19 Zn17 2.961134 1_555
Ho19 Zn102 3.115147 1_565
Ho19 Zn104 3.115147 1_565
Ho19 Zn101 3.115147 1_554
Ho19 Zn98 3.115147 1_554
Ho19 Zn107 3.135505 1_565
Ho19 Zn65 3.221210 1_555
Ho19 Zn58 3.221210 1_555
Ho19 Zn70 3.221210 1_555
Ho19 Zn69 3.221210 1_555
Ho19 Zn46 3.236866 1_554
Ho19 Zn52 3.236866 1_565
Ho20 Zn16 2.961134 1_555
Ho20 Zn19 2.961134 1_555
Ho20 Zn105 3.115147 1_555
Ho20 Zn100 3.115147 1_555
Ho20 Zn99 3.115147 1_556
Ho20 Zn94 3.115147 1_556
Ho20 Zn106 3.135505 1_566
Ho20 Zn75 3.221210 1_555
Ho20 Zn76 3.221210 1_555
Ho20 Zn60 3.221210 1_555
Ho20 Zn54 3.221210 1_555
Ho20 Zn51 3.236866 1_556
Ho20 Zn48 3.236866 1_555
Ho21 Zn21 2.961134 1_555
Ho21 Zn14 2.961134 1_555
Ho21 Zn102 3.115147 1_555
Ho21 Zn104 3.115147 1_555
Ho21 Zn97 3.115147 1_554
Ho21 Zn95 3.115147 1_554
Ho21 Zn107 3.135505 1_555
Ho21 Zn74 3.221210 1_555
Ho21 Zn77 3.221210 1_555
Ho21 Zn55 3.221210 1_555
Ho21 Zn57 3.221210 1_555
Ho21 Zn49 3.236866 1_554
Ho21 Zn50 3.236866 1_555
Ho22 Zn20 2.961134 1_555
Ho22 Zn22 2.961134 1_555
Ho22 Zn96 3.115147 1_555
Ho22 Zn103 3.115147 1_555
Ho22 Zn94 3.115147 1_545
Ho22 Zn99 3.115147 1_545
Ho22 Zn106 3.135505 1_555
Ho22 Zn56 3.221210 1_555
Ho22 Zn66 3.221210 1_555
Ho22 Zn67 3.221210 1_555
Ho22 Zn71 3.221210 1_555
Ho22 Zn42 3.236866 1_545
Ho22 Zn47 3.236866 1_555
Ho23 Zn23 2.961134 1_555
Ho23 Zn18 2.961134 1_555
Ho23 Zn101 3.115147 1_555
Ho23 Zn98 3.115147 1_555
Ho23 Zn95 3.115147 1_565
Ho23 Zn97 3.115147 1_565
Ho23 Zn107 3.135505 1_566
Ho23 Zn59 3.221210 1_555
Ho23 Zn63 3.221210 1_555
Ho23 Zn64 3.221210 1_555
Ho23 Zn73 3.221210 1_555
Ho23 Zn43 3.236866 1_565
Ho23 Zn45 3.236866 1_555
Ho24 Zn26 2.877746 1_555
Ho24 Zn30 2.877746 1_555
Ho24 Zn28 2.877746 1_544
Ho24 Zn32 2.877746 1_544
Ho24 Zn25 2.877746 1_555
Ho24 Zn24 2.877746 1_544
Ho24 Zn94 3.227572 1_445
Ho24 Zn95 3.227572 1_554
Ho24 Zn102 3.227572 1_555
Ho24 Zn98 3.227572 1_544
Ho24 Zn100 3.227572 1_444
Ho24 Zn96 3.227572 1_455
Ho24 Zn107 3.486892 1_555
Ho24 Zn106 3.486892 1_455
Ho25 Zn33 2.877746 1_555
Ho25 Zn35 2.877746 1_555
Ho25 Zn34 2.877746 1_544
Ho25 Zn31 2.877746 1_544
Ho25 Zn27 2.877746 1_555
Ho25 Zn29 2.877746 1_544
Ho25 Zn97 3.227572 1_554
Ho25 Zn99 3.227572 1_545
Ho25 Zn101 3.227572 1_544
Ho25 Zn104 3.227572 1_555
Ho25 Zn105 3.227572 1_544
Ho25 Zn103 3.227572 1_555
Ho25 Zn106 3.486892 1_555
Ho25 Zn107 3.486892 1_555
Mg0 Zn17 2.820413 1_555
Mg0 Zn12 2.820413 1_555
Mg0 Zn21 2.820424 1_555
Mg0 Zn14 2.820424 1_555
Mg0 Zn23 2.820424 1_555
Mg0 Zn18 2.820424 1_555
Mg0 Zn4 3.150725 1_555
Mg0 Zn10 3.150725 1_555
Mg0 Zn8 3.150725 1_555
Mg0 Zn7 3.150725 1_555
Mg0 Zn1 3.150731 1_555
Mg0 Zn3 3.150731 1_555
Mg1 Zn13 2.820413 1_555
Mg1 Zn15 2.820413 1_555
Mg1 Zn20 2.820424 1_555
Mg1 Zn16 2.820424 1_555
Mg1 Zn22 2.820424 1_555
Mg1 Zn19 2.820424 1_555
Mg1 Zn9 3.150725 1_555
Mg1 Zn11 3.150725 1_555
Mg1 Zn6 3.150725 1_555
Mg1 Zn2 3.150725 1_555
Mg1 Zn0 3.150731 1_555
Mg1 Zn5 3.150731 1_555
Mg2 Zn85 2.606589 1_455
Mg2 Zn87 2.606589 1_555
Mg2 Zn0 2.695620 1_455
Mg2 Zn1 2.695620 1_555
Mg2 Zn64 2.714107 1_555
Mg2 Zn67 2.714107 1_455
Mg2 Zn54 2.714107 1_455
Mg2 Zn55 2.714107 1_555
Mg3 Zn91 2.606589 1_555
Mg3 Zn89 2.606589 1_445
Mg3 Zn2 2.695620 1_455
Mg3 Zn4 2.695620 1_545
Mg3 Zn56 2.714107 1_455
Mg3 Zn59 2.714107 1_545
Mg3 Zn58 2.714107 1_545
Mg3 Zn61 2.714107 1_455
Mg4 Zn82 2.606589 1_555
Mg4 Zn83 2.606589 1_555
Mg4 Zn5 2.695620 1_555
Mg4 Zn3 2.695620 1_555
Mg4 Zn73 2.714107 1_555
Mg4 Zn71 2.714107 1_555
Mg4 Zn60 2.714107 1_555
Mg4 Zn57 2.714107 1_555
Mg5 Zn92 2.606589 1_455
Mg5 Zn93 2.606589 1_554
Mg5 Zn8 2.695620 1_555
Mg5 Zn6 2.695620 1_454
Mg5 Zn74 2.714107 1_555
Mg5 Zn75 2.714107 1_454
Mg5 Zn62 2.714107 1_454
Mg5 Zn65 2.714107 1_555
Mg6 Zn84 2.606589 1_555
Mg6 Zn86 2.606589 1_545
Mg6 Zn9 2.695620 1_555
Mg6 Zn7 2.695620 1_545
Mg6 Zn66 2.714107 1_555
Mg6 Zn63 2.714107 1_545
Mg6 Zn69 2.714107 1_545
Mg6 Zn68 2.714107 1_555
Mg7 Zn88 2.606589 1_554
Mg7 Zn90 2.606589 1_555
Mg7 Zn10 2.695620 1_555
Mg7 Zn11 2.695620 1_554
Mg7 Zn77 2.714107 1_555
Mg7 Zn76 2.714107 1_554
Mg7 Zn72 2.714107 1_554
Mg7 Zn70 2.714107 1_555
Zn0 Zn22 2.622863 1_555
Zn0 Zn19 2.622863 1_555
Zn0 Zn79 2.632859 1_655
Zn1 Zn21 2.622863 1_555
Zn1 Zn23 2.622863 1_555
Zn1 Zn78 2.632859 1_455
Zn2 Zn22 2.622863 1_555
Zn2 Zn79 2.632852 1_655
Zn3 Zn81 2.632859 1_555
Zn4 Zn78 2.632852 1_455
Zn5 Zn80 2.632859 1_555
Zn6 Zn79 2.632852 1_655
Zn7 Zn81 2.632852 1_555
Zn10 Zn12 2.622863 1_555
Zn10 Zn14 2.622863 1_555
Zn10 Zn81 2.632852 1_555
Zn11 Zn13 2.622863 1_555
Zn11 Zn16 2.622863 1_555
Zn11 Zn80 2.632852 1_555
Zn12 Zn69 2.569282 1_555
Zn12 Zn70 2.569282 1_555
Zn12 Zn17 2.590292 1_555
Zn12 Zn7 2.622863 1_555
Zn13 Zn72 2.569282 1_555
Zn13 Zn68 2.569282 1_555
Zn13 Zn15 2.590292 1_555
Zn13 Zn9 2.622863 1_555
Zn14 Zn57 2.569282 1_555
Zn14 Zn77 2.569282 1_555
Zn14 Zn21 2.590292 1_555
Zn14 Zn3 2.622863 1_555
Zn15 Zn62 2.569282 1_555
Zn15 Zn61 2.569282 1_555
Zn15 Zn6 2.622863 1_555
Zn15 Zn2 2.622863 1_555
Zn16 Zn60 2.569282 1_555
Zn16 Zn76 2.569282 1_555
Zn16 Zn19 2.590292 1_555
Zn16 Zn5 2.622863 1_555
Zn17 Zn58 2.569282 1_555
Zn17 Zn65 2.569282 1_555
Zn17 Zn4 2.622863 1_555
Zn17 Zn8 2.622863 1_555
Zn18 Zn73 2.569282 1_555
Zn18 Zn63 2.569282 1_555
Zn18 Zn23 2.590292 1_555
Zn18 Zn3 2.622863 1_555
Zn18 Zn7 2.622863 1_555
Zn19 Zn54 2.569282 1_555
Zn19 Zn75 2.569282 1_555
Zn19 Zn6 2.622863 1_555
Zn20 Zn71 2.569282 1_555
Zn20 Zn66 2.569282 1_555
Zn20 Zn22 2.590292 1_555
Zn20 Zn5 2.622863 1_555
Zn20 Zn9 2.622863 1_555
Zn21 Zn55 2.569282 1_555
Zn21 Zn74 2.569282 1_555
Zn21 Zn8 2.622863 1_555
Zn22 Zn67 2.569282 1_555
Zn22 Zn56 2.569282 1_555
Zn23 Zn64 2.569282 1_555
Zn23 Zn59 2.569282 1_555
Zn23 Zn4 2.622863 1_555
Zn24 Zn54 2.547536 1_455
Zn24 Zn64 2.547536 1_555
Zn24 Zn98 2.622416 1_555
Zn24 Zn28 2.877746 1_555
Zn24 Zn32 2.877746 1_555
Zn25 Zn55 2.547536 1_555
Zn25 Zn67 2.547536 1_455
Zn25 Zn96 2.622416 1_455
Zn25 Zn30 2.877746 1_555
Zn25 Zn26 2.877746 1_555
Zn26 Zn58 2.547536 1_545
Zn26 Zn56 2.547536 1_455
Zn26 Zn94 2.622416 1_445
Zn26 Zn32 2.877746 1_544
Zn27 Zn57 2.547536 1_555
Zn27 Zn71 2.547536 1_555
Zn27 Zn33 2.877746 1_555
Zn27 Zn35 2.877746 1_555
Zn28 Zn61 2.547536 1_465
Zn28 Zn59 2.547536 1_555
Zn28 Zn95 2.622416 1_565
Zn28 Zn30 2.877746 1_566
Zn29 Zn73 2.547536 1_555
Zn29 Zn60 2.547536 1_555
Zn29 Zn31 2.877746 1_555
Zn29 Zn34 2.877746 1_555
Zn30 Zn62 2.547536 1_454
Zn30 Zn74 2.547536 1_555
Zn30 Zn96 2.622416 1_455
Zn30 Zn95 2.622416 1_554
Zn31 Zn68 2.547536 1_565
Zn31 Zn63 2.547536 1_555
Zn31 Zn97 2.622416 1_565
Zn31 Zn35 2.877746 1_566
Zn32 Zn65 2.547536 1_556
Zn32 Zn75 2.547536 1_455
Zn32 Zn98 2.622416 1_555
Zn32 Zn94 2.622416 1_456
Zn33 Zn69 2.547536 1_545
Zn33 Zn66 2.547536 1_555
Zn33 Zn99 2.622416 1_545
Zn33 Zn34 2.877746 1_544
Zn34 Zn70 2.547536 1_556
Zn34 Zn76 2.547536 1_555
Zn34 Zn99 2.622416 1_556
Zn35 Zn72 2.547536 1_554
Zn35 Zn77 2.547536 1_555
Zn35 Zn97 2.622416 1_554
Zn36 Zn51 2.592545 1_555
Zn36 Zn42 2.592545 1_555
Zn36 Zn86 2.653056 1_555
Zn36 Zn90 2.653056 1_555
Zn36 Zn89 2.653056 1_555
Zn36 Zn92 2.653056 1_555
Zn36 Zn81 2.656872 1_555
Zn36 Zn78 2.656872 1_555
Zn36 Zn38 2.774934 1_555
Zn36 Zn40 2.774934 1_555
Zn37 Zn43 2.592545 1_555
Zn37 Zn49 2.592545 1_555
Zn37 Zn88 2.653056 1_555
Zn37 Zn93 2.653056 1_555
Zn37 Zn84 2.653056 1_555
Zn37 Zn91 2.653056 1_555
Zn37 Zn79 2.656872 1_555
Zn37 Zn80 2.656872 1_555
Zn37 Zn41 2.774934 1_555
Zn37 Zn39 2.774934 1_555
Zn38 Zn47 2.592545 1_555
Zn38 Zn44 2.592545 1_555
Zn38 Zn83 2.653056 1_555
Zn38 Zn85 2.653056 1_555
Zn38 Zn90 2.653056 1_555
Zn38 Zn92 2.653056 1_555
Zn38 Zn81 2.656880 1_555
Zn38 Zn78 2.656880 1_555
Zn38 Zn40 2.774935 1_555
Zn39 Zn45 2.592545 1_555
Zn39 Zn46 2.592545 1_555
Zn39 Zn82 2.653056 1_555
Zn39 Zn87 2.653056 1_555
Zn39 Zn93 2.653056 1_555
Zn39 Zn88 2.653056 1_555
Zn39 Zn80 2.656880 1_555
Zn39 Zn79 2.656880 1_555
Zn39 Zn41 2.774935 1_555
Zn40 Zn48 2.592545 1_555
Zn40 Zn53 2.592545 1_555
Zn40 Zn83 2.653056 1_555
Zn40 Zn85 2.653056 1_555
Zn40 Zn86 2.653056 1_555
Zn40 Zn89 2.653056 1_555
Zn40 Zn81 2.656880 1_555
Zn40 Zn78 2.656880 1_555
Zn41 Zn50 2.592545 1_555
Zn41 Zn52 2.592545 1_555
Zn41 Zn82 2.653056 1_555
Zn41 Zn87 2.653056 1_555
Zn41 Zn91 2.653056 1_555
Zn41 Zn84 2.653056 1_555
Zn41 Zn79 2.656880 1_555
Zn41 Zn80 2.656880 1_555
Zn42 Zn56 2.542599 1_565
Zn42 Zn66 2.542599 1_565
Zn42 Zn51 2.852904 1_555
Zn42 Zn94 2.899490 1_555
Zn42 Zn99 2.899490 1_555
Zn42 Zn86 2.974371 1_555
Zn42 Zn89 2.974371 1_555
Zn43 Zn59 2.542599 1_545
Zn43 Zn63 2.542599 1_545
Zn43 Zn49 2.852904 1_555
Zn43 Zn95 2.899490 1_555
Zn43 Zn97 2.899490 1_555
Zn43 Zn84 2.974371 1_555
Zn43 Zn91 2.974371 1_555
Zn44 Zn62 2.542599 1_554
Zn44 Zn72 2.542599 1_554
Zn44 Zn47 2.852904 1_555
Zn44 Zn96 2.899490 1_555
Zn44 Zn90 2.974371 1_555
Zn44 Zn92 2.974371 1_555
Zn45 Zn64 2.542599 1_555
Zn45 Zn73 2.542599 1_555
Zn45 Zn46 2.852904 1_555
Zn45 Zn98 2.899490 1_555
Zn45 Zn87 2.974371 1_555
Zn45 Zn82 2.974371 1_555
Zn46 Zn65 2.542599 1_556
Zn46 Zn70 2.542599 1_556
Zn46 Zn98 2.899490 1_555
Zn46 Zn93 2.974371 1_555
Zn46 Zn88 2.974371 1_555
Zn47 Zn67 2.542599 1_555
Zn47 Zn71 2.542599 1_555
Zn47 Zn96 2.899490 1_555
Zn47 Zn83 2.974371 1_555
Zn47 Zn85 2.974371 1_555
Zn48 Zn60 2.542599 1_555
Zn48 Zn54 2.542599 1_555
Zn48 Zn53 2.852904 1_555
Zn48 Zn83 2.974371 1_555
Zn48 Zn85 2.974371 1_555
Zn49 Zn74 2.542599 1_556
Zn49 Zn77 2.542599 1_556
Zn49 Zn95 2.899490 1_555
Zn49 Zn97 2.899490 1_555
Zn49 Zn88 2.974371 1_555
Zn49 Zn93 2.974371 1_555
Zn50 Zn55 2.542599 1_555
Zn50 Zn57 2.542599 1_555
Zn50 Zn52 2.852904 1_555
Zn50 Zn87 2.974371 1_555
Zn50 Zn82 2.974371 1_555
Zn51 Zn76 2.542599 1_554
Zn51 Zn75 2.542599 1_554
Zn51 Zn94 2.899490 1_555
Zn51 Zn99 2.899490 1_555
Zn51 Zn90 2.974371 1_555
Zn51 Zn92 2.974371 1_555
Zn52 Zn58 2.542599 1_545
Zn52 Zn69 2.542599 1_545
Zn52 Zn84 2.974371 1_555
Zn52 Zn91 2.974371 1_555
Zn53 Zn68 2.542599 1_565
Zn53 Zn61 2.542599 1_565
Zn53 Zn86 2.974371 1_555
Zn53 Zn89 2.974371 1_555
Zn78 Zn8 2.632852 1_655
Zn78 Zn89 2.648743 1_555
Zn78 Zn92 2.648743 1_555
Zn78 Zn85 2.648755 1_555
Zn79 Zn91 2.648743 1_555
Zn79 Zn93 2.648743 1_555
Zn79 Zn87 2.648755 1_555
Zn80 Zn9 2.632852 1_555
Zn80 Zn84 2.648743 1_555
Zn80 Zn88 2.648743 1_555
Zn80 Zn82 2.648755 1_555
Zn81 Zn86 2.648743 1_555
Zn81 Zn90 2.648743 1_555
Zn81 Zn83 2.648755 1_555
Zn94 Zn99 2.595568 1_555
Zn95 Zn97 2.595568 1_555
Zn100 Zn105 2.595568 1_555
Zn100 Zn28 2.622416 1_655
Zn100 Zn24 2.622416 1_655
Zn100 Zn106 2.703566 1_566
Zn100 Zn53 2.899490 1_555
Zn100 Zn48 2.899490 1_555
Zn101 Zn98 2.595568 1_555
Zn101 Zn34 2.622416 1_555
Zn101 Zn29 2.622416 1_555
Zn101 Zn107 2.703566 1_566
Zn101 Zn46 2.899490 1_555
Zn101 Zn45 2.899490 1_555
Zn102 Zn104 2.595568 1_555
Zn102 Zn26 2.622416 1_555
Zn102 Zn25 2.622416 1_555
Zn102 Zn107 2.703566 1_555
Zn102 Zn52 2.899490 1_555
Zn102 Zn50 2.899490 1_555
Zn103 Zn96 2.595568 1_555
Zn103 Zn35 2.622416 1_555
Zn103 Zn27 2.622416 1_555
Zn103 Zn106 2.703566 1_555
Zn103 Zn44 2.899490 1_555
Zn103 Zn47 2.899490 1_555
Zn104 Zn33 2.622416 1_555
Zn104 Zn27 2.622416 1_555
Zn104 Zn107 2.703566 1_555
Zn104 Zn52 2.899490 1_555
Zn104 Zn50 2.899490 1_555
Zn105 Zn31 2.622416 1_555
Zn105 Zn29 2.622416 1_555
Zn105 Zn106 2.703566 1_566
Zn105 Zn53 2.899490 1_555
Zn105 Zn48 2.899490 1_555
Zn106 Zn94 2.703566 1_545
Zn106 Zn99 2.703566 1_545
Zn106 Zn96 2.703566 1_555
Zn107 Zn97 2.703566 1_554
Zn107 Zn95 2.703566 1_554
Zn107 Zn98 2.703566 1_544
