# generated using pymatgen
data_U2PbS5
_symmetry_space_group_name_H-M   'P 1'
_cell_length_a   7.58261250
_cell_length_b   8.32006419
_cell_length_c   11.79754383
_cell_angle_alpha   89.70337174
_cell_angle_beta   90.00000000
_cell_angle_gamma   90.00000000
_symmetry_Int_Tables_number   1
_chemical_formula_structural   U2PbS5
_chemical_formula_sum   'U8 Pb4 S20'
_cell_volume   744.27137918
_cell_formula_units_Z   4
loop_
 _symmetry_equiv_pos_site_id
 _symmetry_equiv_pos_as_xyz
  1  'x, y, z'
loop_
 _atom_site_type_symbol
 _atom_site_label
 _atom_site_symmetry_multiplicity
 _atom_site_fract_x
 _atom_site_fract_y
 _atom_site_fract_z
 _atom_site_occupancy
  U  U0  1  0.01569081  0.49777149  0.32081906  1
  U  U1  1  0.51569081  0.50222851  0.17918094  1
  U  U2  1  0.98430919  0.50222851  0.67918094  1
  U  U3  1  0.48430919  0.49777149  0.82081906  1
  U  U4  1  0.07745217  0.74511148  0.00705042  1
  U  U5  1  0.57745217  0.25488852  0.49294958  1
  U  U6  1  0.92254783  0.25488852  0.99294958  1
  U  U7  1  0.42254783  0.74511148  0.50705042  1
  Pb  Pb0  1  -0.00539309  0.97579073  0.31870245  1
  Pb  Pb1  1  0.49460691  0.02420927  0.18129755  1
  Pb  Pb2  1  0.00539309  0.02420927  0.68129755  1
  Pb  Pb3  1  0.50539309  0.97579073  0.81870245  1
  S  S0  1  0.15785830  0.45429770  0.09970989  1
  S  S1  1  0.65785830  0.54570230  0.40029011  1
  S  S2  1  0.84214170  0.54570230  0.90029011  1
  S  S3  1  0.34214170  0.45429770  0.59970989  1
  S  S4  1  0.45577688  0.71378812  -0.00035389  1
  S  S5  1  0.95577688  0.28621188  0.50035389  1
  S  S6  1  0.54422312  0.28621188  0.00035389  1
  S  S7  1  0.04422312  0.71378812  0.49964611  1
  S  S8  1  0.34032761  0.27859375  0.31457063  1
  S  S9  1  0.84032761  0.72140625  0.18542937  1
  S  S10  1  0.65967239  0.72140625  0.68542937  1
  S  S11  1  0.15967239  0.27859375  0.81457063  1
  S  S12  1  0.65666310  0.96371559  0.41248691  1
  S  S13  1  0.15666310  0.03628441  0.08751309  1
  S  S14  1  0.34333690  0.03628441  0.58751309  1
  S  S15  1  0.84333690  0.96371559  0.91248691  1
  S  S16  1  0.30166130  0.72726746  0.28212272  1
  S  S17  1  0.80166130  0.27273254  0.21787728  1
  S  S18  1  0.69833870  0.27273254  0.71787728  1
  S  S19  1  0.19833870  0.72726746  0.78212272  1
loop_
_geom_bond_atom_site_label_1
_geom_bond_atom_site_label_2
_geom_bond_distance
_geom_bond_site_symmetry_2
Pb0 S12 2.792761 1_455
Pb0 S9 2.890440 1_455
Pb0 S13 3.031197 1_565
Pb0 S7 3.066290 1_555
Pb0 S17 3.103008 1_465
Pb0 S16 3.145130 1_555
Pb1 S13 2.792761 1_555
Pb1 S8 2.890440 1_555
Pb1 S12 3.031197 1_545
Pb1 S6 3.066290 1_555
Pb1 S16 3.103008 1_545
Pb1 S17 3.145130 1_555
Pb2 S14 2.792761 1_555
Pb2 S11 2.890440 1_555
Pb2 S15 3.031197 1_445
Pb2 S5 3.066290 1_455
Pb2 S19 3.103008 1_545
Pb2 S18 3.145130 1_455
Pb3 S15 2.792761 1_555
Pb3 S10 2.890440 1_555
Pb3 S14 3.031197 1_565
Pb3 S4 3.066290 1_556
Pb3 S18 3.103008 1_565
Pb3 S19 3.145130 1_555
S0 U4 2.719142 1_555
S0 U6 2.746674 1_454
S0 U0 2.847313 1_555
S0 U1 2.898957 1_555
S1 U5 2.719142 1_555
S1 U7 2.746674 1_555
S1 U1 2.847313 1_555
S1 U0 2.898957 1_655
S2 U6 2.719142 1_555
S2 U4 2.746674 1_656
S2 U2 2.847313 1_555
S2 U3 2.898957 1_555
S3 U7 2.719142 1_555
S3 U5 2.746674 1_555
S3 U3 2.847313 1_555
S3 U2 2.898957 1_455
S4 U1 2.784291 1_555
S4 U3 2.786965 1_554
S4 U4 2.881868 1_555
S5 U0 2.784291 1_655
S5 U2 2.786965 1_555
S5 U5 2.881868 1_555
S6 U3 2.784291 1_554
S6 U1 2.786965 1_555
S6 U6 2.881868 1_554
S7 U2 2.784291 1_455
S7 U0 2.786965 1_555
S7 U7 2.881868 1_555
S8 U5 2.774190 1_555
S8 U1 2.784000 1_555
S8 U0 3.064587 1_555
S9 U4 2.774190 1_655
S9 U0 2.784000 1_655
S9 U1 3.064587 1_555
S10 U7 2.774190 1_555
S10 U3 2.784000 1_555
S10 U2 3.064587 1_555
S11 U6 2.774190 1_455
S11 U2 2.784000 1_455
S11 U3 3.064587 1_555
S12 U5 2.674798 1_565
S12 U7 2.771819 1_555
S13 U4 2.674798 1_545
S13 U6 2.771819 1_454
S14 U7 2.674798 1_545
S14 U5 2.771819 1_555
S15 U6 2.674798 1_565
S15 U4 2.771819 1_656
S16 U1 2.763679 1_555
S16 U7 2.812100 1_555
S16 U0 2.923568 1_555
S17 U0 2.763679 1_655
S17 U6 2.812100 1_554
S17 U1 2.923568 1_555
S18 U3 2.763679 1_555
S18 U5 2.812100 1_555
S18 U2 2.923568 1_555
S19 U2 2.763679 1_455
S19 U4 2.812100 1_556
S19 U3 2.923568 1_555
