# generated using pymatgen
data_Ta5Ga2Sn
_symmetry_space_group_name_H-M   'P 1'
_cell_length_a   7.82252722
_cell_length_b   7.82252722
_cell_length_c   7.82252722
_cell_angle_alpha   96.68050557
_cell_angle_beta   96.68050557
_cell_angle_gamma   140.11511788
_symmetry_Int_Tables_number   1
_chemical_formula_structural   Ta5Ga2Sn
_chemical_formula_sum   'Ta10 Ga4 Sn2'
_cell_volume   288.54336185
_cell_formula_units_Z   2
loop_
 _symmetry_equiv_pos_site_id
 _symmetry_equiv_pos_as_xyz
  1  'x, y, z'
loop_
 _atom_site_type_symbol
 _atom_site_label
 _atom_site_symmetry_multiplicity
 _atom_site_fract_x
 _atom_site_fract_y
 _atom_site_fract_z
 _atom_site_occupancy
  Ta  Ta0  1  0.73472100  0.57686200  0.31158300  1
  Ta  Ta1  1  0.26527900  0.42313800  0.68841700  1
  Ta  Ta2  1  0.76527900  0.07686200  0.84214100  1
  Ta  Ta3  1  0.23472100  0.92313800  0.15785900  1
  Ta  Ta4  1  0.57686200  0.26527900  0.84214100  1
  Ta  Ta5  1  0.42313800  0.73472100  0.15785900  1
  Ta  Ta6  1  0.07686200  0.23472100  0.31158300  1
  Ta  Ta7  1  0.92313800  0.76527900  0.68841700  1
  Ta  Ta8  1  0.75000000  0.25000000  0.50000000  1
  Ta  Ta9  1  0.25000000  0.75000000  0.50000000  1
  Ga  Ga0  1  0.16646000  0.66646000  0.83292000  1
  Ga  Ga1  1  0.83354000  0.33354000  0.16708000  1
  Ga  Ga2  1  0.33354000  0.16646000  0.50000000  1
  Ga  Ga3  1  0.66646000  0.83354000  0.50000000  1
  Sn  Sn0  1  0.25000000  0.25000000  0.00000000  1
  Sn  Sn1  1  0.75000000  0.75000000  0.00000000  1
loop_
_geom_bond_atom_site_label_1
_geom_bond_atom_site_label_2
_geom_bond_distance
_geom_bond_site_symmetry_2
Ta0 Ta7 2.771032 1_555
Ta0 Ta3 3.110346 1_655
Ta0 Ta3 3.110346 1_545
Ta0 Ta8 3.166885 1_555
Ta0 Ta9 3.166885 1_655
Ta1 Ta6 2.771032 1_555
Ta1 Ta2 3.110346 1_455
Ta1 Ta2 3.110346 1_565
Ta1 Ta8 3.166885 1_455
Ta1 Ta9 3.166885 1_555
Ta2 Ta4 2.771032 1_555
Ta2 Ta9 3.166885 1_545
Ta2 Ta8 3.166885 1_555
Ta3 Ta5 2.771032 1_555
Ta3 Ta9 3.166885 1_555
Ta3 Ta8 3.166885 1_565
Ta4 Ta7 3.110346 1_555
Ta4 Ta7 3.110346 1_445
Ta4 Ta8 3.166885 1_555
Ta4 Ta9 3.166885 1_545
Ta5 Ta6 3.110346 1_555
Ta5 Ta6 3.110346 1_665
Ta5 Ta9 3.166885 1_555
Ta5 Ta8 3.166885 1_565
Ta6 Ta8 3.166885 1_455
Ta6 Ta9 3.166885 1_555
Ta7 Ta8 3.166885 1_555
Ta7 Ta9 3.166885 1_655
Ta8 Ta9 2.668076 1_545
Ta8 Ta9 2.668076 1_655
Ga0 Ta7 2.731109 1_455
Ga0 Ta1 2.731109 1_555
Ga0 Ta5 2.762065 1_556
Ga0 Ta3 2.762065 1_556
Ga0 Ta8 2.787994 1_455
Ga0 Ta9 2.787994 1_555
Ga0 Ta2 3.007138 1_565
Ga0 Ta2 3.007138 1_455
Ga0 Ta4 3.007138 1_455
Ga0 Ta4 3.007138 1_565
Ga1 Ta0 2.731109 1_555
Ga1 Ta6 2.731109 1_655
Ga1 Ta2 2.762065 1_554
Ga1 Ta4 2.762065 1_554
Ga1 Ta9 2.787994 1_655
Ga1 Ta8 2.787994 1_555
Ga1 Ta5 3.007138 1_655
Ga1 Ta3 3.007138 1_655
Ga1 Ta5 3.007138 1_545
Ga1 Ta3 3.007138 1_545
Ga2 Ta4 2.731109 1_555
Ga2 Ta3 2.731109 1_545
Ga2 Ta1 2.762065 1_555
Ga2 Ta6 2.762065 1_555
Ga2 Ta9 2.787994 1_545
Ga2 Ta8 2.787994 1_555
Ga2 Ta7 3.007138 1_555
Ga2 Ta0 3.007138 1_555
Ga2 Ta0 3.007138 1_445
Ga2 Ta7 3.007138 1_445
Ga3 Ta2 2.731109 1_565
Ga3 Ta5 2.731109 1_555
Ga3 Ta0 2.762065 1_555
Ga3 Ta7 2.762065 1_555
Ga3 Ta9 2.787994 1_555
Ga3 Ta8 2.787994 1_565
Ga3 Ta1 3.007138 1_665
Ga3 Ta6 3.007138 1_665
Ga3 Ta1 3.007138 1_555
Ga3 Ta6 3.007138 1_555
Sn0 Sn1 2.668076 1_555
Sn0 Sn1 2.668076 1_445
Sn0 Ta1 2.894268 1_554
Sn0 Ta6 2.894268 1_555
Sn0 Ta0 2.894268 1_555
Sn0 Ta3 2.894268 1_545
Sn0 Ta7 2.894268 1_444
Sn0 Ta4 2.894268 1_554
Sn0 Ta5 2.894268 1_555
Sn0 Ta2 2.894268 1_454
Sn1 Ta6 2.894268 1_665
Sn1 Ta3 2.894268 1_655
Sn1 Ta7 2.894268 1_554
Sn1 Ta1 2.894268 1_554
Sn1 Ta0 2.894268 1_555
Sn1 Ta4 2.894268 1_554
Sn1 Ta5 2.894268 1_555
Sn1 Ta2 2.894268 1_564
