# generated using pymatgen
data_Sr2YAlSn2O7
_symmetry_space_group_name_H-M   'P 1'
_cell_length_a   11.56159504
_cell_length_b   11.56159504
_cell_length_c   11.56159504
_cell_angle_alpha   150.47947684
_cell_angle_beta   145.05451106
_cell_angle_gamma   46.37965628
_symmetry_Int_Tables_number   1
_chemical_formula_structural   Sr2YAlSn2O7
_chemical_formula_sum   'Sr4 Y2 Al2 Sn4 O14'
_cell_volume   434.67917429
_cell_formula_units_Z   2
loop_
 _symmetry_equiv_pos_site_id
 _symmetry_equiv_pos_as_xyz
  1  'x, y, z'
loop_
 _atom_site_type_symbol
 _atom_site_label
 _atom_site_symmetry_multiplicity
 _atom_site_fract_x
 _atom_site_fract_y
 _atom_site_fract_z
 _atom_site_occupancy
  Sr  Sr0  1  0.76588500  0.83297600  0.92234200  1
  Sr  Sr1  1  0.23411500  0.15645700  0.06709100  1
  Sr  Sr2  1  0.58936600  0.65645700  0.92234200  1
  Sr  Sr3  1  0.41063400  0.33297600  0.06709100  1
  Y  Y0  1  0.50000000  0.44291200  0.94291200  1
  Y  Y1  1  0.00000000  0.94291200  0.94291200  1
  Al  Al0  1  0.14323300  0.76093500  0.40416900  1
  Al  Al1  1  0.85676700  0.26093500  0.61770200  1
  Sn  Sn0  1  0.92409100  0.39704600  0.47938800  1
  Sn  Sn1  1  0.07590900  0.55529700  0.47295500  1
  Sn  Sn2  1  0.58234200  0.05529700  0.47938800  1
  Sn  Sn3  1  0.41765800  0.89704600  0.47295500  1
  O  O0  1  0.93863100  0.56121900  0.99985000  1
  O  O1  1  0.06136900  0.06121900  0.62258800  1
  O  O2  1  0.70090600  0.75696000  0.60081200  1
  O  O3  1  0.29909400  0.89990700  0.05605400  1
  O  O4  1  0.34385300  0.39990700  0.60081200  1
  O  O5  1  0.65614700  0.25696000  0.05605400  1
  O  O6  1  0.03373800  0.06403100  0.25409300  1
  O  O7  1  0.96626200  0.22035500  0.03029300  1
  O  O8  1  0.69006200  0.72035500  0.25409300  1
  O  O9  1  0.30993800  0.56403100  0.03029300  1
  O  O10  1  0.36671300  0.78199500  0.51662500  1
  O  O11  1  0.63328700  0.14991200  0.41528200  1
  O  O12  1  0.23463000  0.64991200  0.51662500  1
  O  O13  1  0.76537000  0.28199500  0.41528200  1
loop_
_geom_bond_atom_site_label_1
_geom_bond_atom_site_label_2
_geom_bond_distance
_geom_bond_site_symmetry_2
Al0 O12 1.798714 1_555
Al0 O10 1.798730 1_555
Al0 O0 1.844499 1_454
Al0 O1 1.858097 1_565
Al1 O13 1.798724 1_555
Al1 O11 1.798724 1_555
Al1 O1 1.844494 1_655
Al1 O0 1.858099 1_555
O0 Sr0 2.823390 1_555
O0 Sr2 2.823390 1_555
O1 Sr3 2.823390 1_556
O1 Sr1 2.823390 1_556
O2 Sn3 2.108337 1_555
O2 Y1 2.293491 1_655
O2 Sr0 2.408845 1_555
O2 Sn0 2.627092 1_555
O2 Sr3 3.078062 1_555
O3 Sn2 2.108338 1_565
O3 Y1 2.293495 1_554
O3 Sr1 2.408834 1_565
O3 Sn1 2.627092 1_554
O3 Sr2 3.078059 1_554
O4 Sn1 2.108335 1_555
O4 Y0 2.293505 1_555
O4 Sr2 2.408828 1_555
O4 Sn2 2.627091 1_555
O4 Sr1 3.078048 1_555
O5 Sn0 2.108338 1_555
O5 Y0 2.293495 1_554
O5 Sr3 2.408834 1_555
O5 Sn3 2.627092 1_544
O5 Sr0 3.078059 1_544
O6 Sn0 2.107368 1_455
O6 Y1 2.177586 1_544
O6 Sr0 2.355303 1_444
O7 Sn1 2.107368 1_655
O7 Y1 2.177586 1_644
O7 Sr1 2.355303 1_655
O8 Sn2 2.107368 1_565
O8 Y0 2.177586 1_554
O8 Sr2 2.355303 1_554
O9 Sn3 2.107368 1_555
O9 Y0 2.177586 1_554
O9 Sr3 2.355303 1_555
O10 Sn3 2.260214 1_555
O10 Sr0 2.664769 1_555
O10 Sr3 2.820066 1_555
O10 Sr3 3.154250 1_566
O11 Sn2 2.260214 1_555
O11 Sr1 2.664769 1_555
O11 Sr2 2.820066 1_544
O11 Sr2 3.154250 1_555
O12 Sn1 2.260214 1_555
O12 Sr2 2.664769 1_555
O12 Sr1 2.820066 1_555
O12 Sr1 3.154250 1_566
O13 Sn0 2.260214 1_555
O13 Sr3 2.664769 1_555
O13 Sr0 2.820066 1_544
O13 Sr0 3.154250 1_555
