# generated using pymatgen
data_Sm2Ga2Fe15
_symmetry_space_group_name_H-M   'P 1'
_cell_length_a   6.45498080
_cell_length_b   6.45498080
_cell_length_c   6.50848818
_cell_angle_alpha   83.10989289
_cell_angle_beta   83.10989289
_cell_angle_gamma   82.55236821
_symmetry_Int_Tables_number   1
_chemical_formula_structural   Sm2Ga2Fe15
_chemical_formula_sum   'Sm2 Ga2 Fe15'
_cell_volume   265.45194561
_cell_formula_units_Z   1
loop_
 _symmetry_equiv_pos_site_id
 _symmetry_equiv_pos_as_xyz
  1  'x, y, z'
loop_
 _atom_site_type_symbol
 _atom_site_label
 _atom_site_symmetry_multiplicity
 _atom_site_fract_x
 _atom_site_fract_y
 _atom_site_fract_z
 _atom_site_occupancy
  Sm  Sm0  1  0.33791400  0.33791400  0.33363700  1
  Sm  Sm1  1  0.65673100  0.65673100  0.65776900  1
  Ga  Ga0  1  0.65588800  0.15279600  0.65582500  1
  Ga  Ga1  1  0.15279600  0.65588800  0.65582500  1
  Fe  Fe0  1  0.09584700  0.09584700  0.09728200  1
  Fe  Fe1  1  0.90440200  0.90440200  0.90841300  1
  Fe  Fe2  1  0.99894300  0.71153000  0.28857400  1
  Fe  Fe3  1  0.71015000  0.29097500  0.00125100  1
  Fe  Fe4  1  0.28862600  0.00333100  0.71203600  1
  Fe  Fe5  1  0.29097500  0.71015000  0.00125100  1
  Fe  Fe6  1  0.71153000  0.99894300  0.28857400  1
  Fe  Fe7  1  0.00333100  0.28862600  0.71203600  1
  Fe  Fe8  1  0.50073400  0.00047400  0.00230600  1
  Fe  Fe9  1  0.00393800  0.00393800  0.49665500  1
  Fe  Fe10  1  0.00047400  0.50073400  0.00230600  1
  Fe  Fe11  1  0.65765400  0.65765400  0.15445400  1
  Fe  Fe12  1  0.34365200  0.84645900  0.33746800  1
  Fe  Fe13  1  0.84645900  0.34365200  0.33746800  1
  Fe  Fe14  1  0.33995400  0.33995400  0.85686700  1
loop_
_geom_bond_atom_site_label_1
_geom_bond_atom_site_label_2
_geom_bond_distance
_geom_bond_site_symmetry_2
Ga0 Sm0 3.135852 1_555
Ga0 Sm1 3.199898 1_545
Ga0 Sm1 3.255145 1_555
Ga1 Sm0 3.135852 1_555
Ga1 Sm1 3.199898 1_455
Ga1 Sm1 3.255145 1_555
Fe0 Fe1 2.385409 1_444
Fe0 Fe9 2.609909 1_555
Fe0 Fe14 2.621951 1_554
Fe0 Fe8 2.622645 1_555
Fe0 Fe10 2.622645 1_555
Fe0 Fe12 2.631056 1_545
Fe0 Fe13 2.631056 1_455
Fe0 Fe3 2.747194 1_455
Fe0 Fe5 2.747194 1_545
Fe0 Fe6 2.751342 1_445
Fe0 Fe2 2.751342 1_445
Fe0 Fe7 2.758628 1_554
Fe0 Fe4 2.758628 1_554
Fe0 Sm0 3.005966 1_555
Fe1 Fe8 2.614863 1_566
Fe1 Fe10 2.614863 1_656
Fe1 Fe11 2.659286 1_556
Fe1 Ga1 2.679604 1_655
Fe1 Ga0 2.679604 1_565
Fe1 Fe9 2.699697 1_665
Fe1 Fe6 2.733252 1_556
Fe1 Fe2 2.733252 1_556
Fe1 Fe5 2.744599 1_656
Fe1 Fe3 2.744599 1_566
Fe1 Fe7 2.765276 1_665
Fe1 Fe4 2.765276 1_665
Fe1 Sm1 3.112396 1_555
Fe2 Fe6 2.447771 1_555
Fe2 Fe9 2.457097 1_665
Fe2 Fe5 2.490870 1_655
Fe2 Ga1 2.664521 1_655
Fe2 Sm0 3.050589 1_655
Fe2 Sm1 3.082808 1_555
Fe3 Fe8 2.448561 1_555
Fe3 Fe6 2.490870 1_545
Fe3 Fe7 2.503928 1_654
Fe3 Ga0 2.593010 1_554
Fe3 Sm0 3.044094 1_555
Fe3 Sm1 3.065648 1_554
Fe4 Fe7 2.429733 1_555
Fe4 Fe9 2.440683 1_555
Fe4 Fe8 2.459629 1_556
Fe4 Fe5 2.503928 1_546
Fe4 Ga1 2.591535 1_545
Fe4 Ga0 2.642896 1_555
Fe4 Sm1 3.063698 1_545
Fe4 Sm0 3.089498 1_555
Fe5 Fe8 2.451218 1_565
Fe5 Ga1 2.593010 1_554
Fe5 Sm0 3.044094 1_555
Fe5 Sm1 3.065648 1_554
Fe6 Fe8 2.433790 1_565
Fe6 Fe9 2.457097 1_665
Fe6 Ga0 2.664521 1_565
Fe6 Sm0 3.050589 1_565
Fe6 Sm1 3.082808 1_555
Fe7 Fe9 2.440683 1_555
Fe7 Ga0 2.591535 1_455
Fe7 Ga1 2.642896 1_555
Fe7 Sm1 3.063698 1_455
Fe7 Sm0 3.089498 1_555
Fe8 Ga0 2.497304 1_554
Fe8 Sm0 3.238686 1_555
Fe8 Sm1 3.322426 1_544
Fe9 Ga1 2.482886 1_545
Fe9 Ga0 2.482886 1_455
Fe9 Sm0 3.244683 1_555
Fe9 Sm1 3.364534 1_445
Fe10 Fe2 2.433790 1_455
Fe10 Fe14 2.433830 1_554
Fe10 Fe13 2.446483 1_455
Fe10 Fe5 2.448561 1_555
Fe10 Fe3 2.451218 1_455
Fe10 Fe11 2.457097 1_455
Fe10 Fe7 2.459629 1_554
Fe10 Ga1 2.497304 1_554
Fe10 Sm0 3.238686 1_555
Fe10 Sm1 3.322426 1_454
Fe11 Fe8 2.457097 1_565
Fe11 Fe12 2.478109 1_555
Fe11 Fe13 2.478109 1_555
Fe11 Fe6 2.543433 1_555
Fe11 Fe2 2.543433 1_555
Fe11 Fe5 2.643593 1_555
Fe11 Fe3 2.643593 1_555
Fe11 Sm0 3.135097 1_555
Fe11 Sm1 3.234110 1_554
Fe11 Sm1 3.274402 1_555
Fe12 Fe8 2.446483 1_565
Fe12 Fe9 2.458669 1_565
Fe12 Fe5 2.529099 1_555
Fe12 Ga1 2.548160 1_555
Fe12 Fe2 2.559231 1_455
Fe12 Fe6 2.656781 1_555
Fe12 Fe4 2.717728 1_565
Fe12 Sm1 3.112312 1_555
Fe12 Sm0 3.164881 1_565
Fe12 Sm0 3.290768 1_555
Fe13 Fe9 2.458669 1_655
Fe13 Fe3 2.529099 1_555
Fe13 Ga0 2.548160 1_555
Fe13 Fe6 2.559231 1_545
Fe13 Fe2 2.656781 1_555
Fe13 Fe7 2.717728 1_655
Fe13 Sm1 3.112312 1_555
Fe13 Sm0 3.164881 1_655
Fe13 Sm0 3.290768 1_555
Fe14 Fe8 2.433830 1_556
Fe14 Ga0 2.535922 1_555
Fe14 Ga1 2.535922 1_555
Fe14 Fe7 2.544170 1_555
Fe14 Fe4 2.544170 1_555
Fe14 Fe3 2.639110 1_556
Fe14 Fe5 2.639110 1_556
Fe14 Sm0 3.099954 1_556
Fe14 Sm1 3.139098 1_555
Fe14 Sm0 3.408652 1_555
