# generated using pymatgen
data_CsZrUTe5
_symmetry_space_group_name_H-M   'P 1'
_cell_length_a   6.41493400
_cell_length_b   8.59957800
_cell_length_c   10.47265000
_cell_angle_alpha   90.00000000
_cell_angle_beta   90.00000000
_cell_angle_gamma   90.00000000
_symmetry_Int_Tables_number   1
_chemical_formula_structural   CsZrUTe5
_chemical_formula_sum   'Cs2 Zr2 U2 Te10'
_cell_volume   577.73133304
_cell_formula_units_Z   2
loop_
 _symmetry_equiv_pos_site_id
 _symmetry_equiv_pos_as_xyz
  1  'x, y, z'
loop_
 _atom_site_type_symbol
 _atom_site_label
 _atom_site_symmetry_multiplicity
 _atom_site_fract_x
 _atom_site_fract_y
 _atom_site_fract_z
 _atom_site_occupancy
  Cs  Cs0  1  0.25000000  0.50000000  0.78616500  1
  Cs  Cs1  1  0.75000000  0.50000000  0.21383500  1
  Zr  Zr0  1  0.50000000  0.00000000  0.00000000  1
  Zr  Zr1  1  0.00000000  0.00000000  0.00000000  1
  U  U0  1  0.25000000  0.00000000  0.34035000  1
  U  U1  1  0.75000000  0.00000000  0.65965000  1
  Te  Te0  1  0.25000000  0.75504800  0.12225500  1
  Te  Te1  1  0.75000000  0.75504800  0.87774500  1
  Te  Te2  1  0.75000000  0.24495200  0.87774500  1
  Te  Te3  1  0.25000000  0.24495200  0.12225500  1
  Te  Te4  1  0.50000000  0.75865700  0.50000000  1
  Te  Te5  1  0.00000000  0.75865700  0.50000000  1
  Te  Te6  1  0.50000000  0.24134300  0.50000000  1
  Te  Te7  1  0.00000000  0.24134300  0.50000000  1
  Te  Te8  1  0.25000000  0.00000000  0.76620800  1
  Te  Te9  1  0.75000000  0.00000000  0.23379200  1
loop_
_geom_bond_atom_site_label_1
_geom_bond_atom_site_label_2
_geom_bond_distance
_geom_bond_site_symmetry_2
Cs0 Te1 4.002284 1_455
Cs0 Te1 4.002284 1_555
Cs0 Te2 4.002284 1_555
Cs0 Te2 4.002284 1_455
Cs0 Te5 4.062154 1_555
Cs0 Te4 4.062154 1_555
Cs0 Te7 4.062154 1_555
Cs0 Te6 4.062154 1_555
Cs0 Te0 4.147198 1_556
Cs0 Te3 4.147198 1_556
Cs0 Te8 4.304866 1_555
Cs0 Te8 4.304866 1_565
Cs1 Te0 4.002284 1_555
Cs1 Te0 4.002284 1_655
Cs1 Te3 4.002284 1_555
Cs1 Te3 4.002284 1_655
Cs1 Te5 4.062154 1_655
Cs1 Te4 4.062154 1_555
Cs1 Te7 4.062154 1_655
Cs1 Te6 4.062154 1_555
Cs1 Te1 4.147198 1_554
Cs1 Te2 4.147198 1_554
Cs1 Te9 4.304866 1_555
Cs1 Te9 4.304866 1_565
Te0 Zr1 2.940832 1_565
Te0 Zr0 2.940832 1_565
Te0 U0 3.107101 1_565
Te1 Zr0 2.940832 1_566
Te1 Zr1 2.940832 1_666
Te1 U1 3.107101 1_565
Te2 Zr0 2.940832 1_556
Te2 Zr1 2.940832 1_656
Te2 U1 3.107101 1_555
Te3 Zr0 2.940832 1_555
Te3 Zr1 2.940832 1_555
Te3 U0 3.107101 1_555
Te4 U0 3.110449 1_565
Te4 U1 3.110449 1_565
Te4 Te5 3.207467 1_555
Te4 Te5 3.207467 1_655
Te5 U0 3.110449 1_565
Te5 U1 3.110449 1_465
Te6 U0 3.110449 1_555
Te6 U1 3.110449 1_555
Te6 Te7 3.207467 1_555
Te6 Te7 3.207467 1_655
Te7 U0 3.110449 1_555
Te7 U1 3.110449 1_455
Te8 Zr0 2.926898 1_556
Te8 Zr1 2.926898 1_556
Te8 U1 3.396053 1_455
Te8 U1 3.396053 1_555
Te9 Zr1 2.926898 1_655
Te9 Zr0 2.926898 1_555
Te9 U0 3.396053 1_555
Te9 U0 3.396053 1_655
