# generated using pymatgen
data_Sm9Ga4
_symmetry_space_group_name_H-M   'P 1'
_cell_length_a   5.10023427
_cell_length_b   8.80359463
_cell_length_c   8.80239359
_cell_angle_alpha   85.16951366
_cell_angle_beta   73.15957378
_cell_angle_gamma   73.16194167
_symmetry_Int_Tables_number   1
_chemical_formula_structural   Sm9Ga4
_chemical_formula_sum   'Sm9 Ga4'
_cell_volume   362.06362713
_cell_formula_units_Z   1
loop_
 _symmetry_equiv_pos_site_id
 _symmetry_equiv_pos_as_xyz
  1  'x, y, z'
loop_
 _atom_site_type_symbol
 _atom_site_label
 _atom_site_symmetry_multiplicity
 _atom_site_fract_x
 _atom_site_fract_y
 _atom_site_fract_z
 _atom_site_occupancy
  Sm  Sm0  1  0.50000000  0.00000000  0.00000000  1
  Sm  Sm1  1  0.12683547  0.27996866  0.46635841  1
  Sm  Sm2  1  0.59329603  0.53358996  0.27981698  1
  Sm  Sm3  1  0.40670397  0.46641004  0.72018302  1
  Sm  Sm4  1  0.87316453  0.72003134  0.53364159  1
  Sm  Sm5  1  0.18426793  0.92858076  0.70288138  1
  Sm  Sm6  1  0.88717179  0.29718116  0.92847326  1
  Sm  Sm7  1  0.11282821  0.70281884  0.07152674  1
  Sm  Sm8  1  0.81573207  0.07141924  0.29711862  1
  Ga  Ga0  1  0.38670197  0.88226252  0.34433555  1
  Ga  Ga1  1  0.73080248  0.65595672  0.88243732  1
  Ga  Ga2  1  0.26919752  0.34404328  0.11756268  1
  Ga  Ga3  1  0.61329803  0.11773748  0.65566445  1
loop_
_geom_bond_atom_site_label_1
_geom_bond_atom_site_label_2
_geom_bond_distance
_geom_bond_site_symmetry_2
Sm0 Sm8 3.623833 1_455
Sm0 Sm5 3.623833 1_644
Sm0 Sm8 3.623840 1_555
Sm0 Sm5 3.623840 1_544
Sm0 Sm7 3.624327 1_545
Sm0 Sm6 3.624327 1_554
Sm0 Sm7 3.624335 1_645
Sm0 Sm6 3.624335 1_454
Sm1 Sm8 3.409636 1_455
Sm1 Sm8 3.409651 1_555
Sm1 Sm5 3.568431 1_545
Sm1 Sm2 3.679385 1_455
Sm1 Sm2 3.679388 1_555
Sm1 Sm3 3.680508 1_455
Sm1 Sm3 3.680518 1_555
Sm1 Sm4 3.751294 1_455
Sm1 Sm6 3.896020 1_455
Sm2 Sm7 3.407965 1_555
Sm2 Sm7 3.407976 1_655
Sm2 Sm6 3.568429 1_554
Sm2 Sm4 3.680508 1_455
Sm2 Sm4 3.680518 1_555
Sm2 Sm3 3.752802 1_555
Sm2 Sm8 3.897006 1_555
Sm3 Sm6 3.407965 1_555
Sm3 Sm6 3.407976 1_455
Sm3 Sm7 3.568429 1_556
Sm3 Sm4 3.679385 1_455
Sm3 Sm4 3.679388 1_555
Sm3 Sm5 3.897006 1_555
Sm4 Sm5 3.409636 1_655
Sm4 Sm5 3.409651 1_555
Sm4 Sm8 3.568431 1_565
Sm4 Sm7 3.896020 1_655
Sm5 Sm7 3.641572 1_556
Sm5 Sm6 3.641772 1_465
Sm6 Sm8 3.641572 1_556
Sm7 Sm8 3.641772 1_465
Ga0 Sm2 2.988000 1_555
Ga0 Sm8 3.033372 1_565
Ga0 Sm8 3.033372 1_465
Ga0 Sm5 3.045946 1_555
Ga0 Sm0 3.065643 1_565
Ga0 Sm4 3.303639 1_555
Ga0 Sm4 3.303639 1_455
Ga0 Sm1 3.505586 1_565
Ga0 Sm7 3.751545 1_555
Ga0 Sm7 3.751545 1_655
Ga1 Sm4 2.987590 1_555
Ga1 Sm7 3.032692 1_556
Ga1 Sm7 3.032704 1_656
Ga1 Sm6 3.047757 1_555
Ga1 Sm0 3.063789 1_566
Ga1 Sm3 3.305142 1_555
Ga1 Sm3 3.305151 1_655
Ga1 Sm2 3.502755 1_556
Ga1 Sm5 3.750505 1_655
Ga1 Sm5 3.750508 1_555
Ga2 Sm1 2.987590 1_555
Ga2 Sm6 3.032692 1_554
Ga2 Sm6 3.032704 1_454
Ga2 Sm7 3.047757 1_555
Ga2 Sm0 3.063789 1_555
Ga2 Sm2 3.305142 1_555
Ga2 Sm2 3.305151 1_455
Ga2 Sm3 3.502755 1_554
Ga2 Sm8 3.750505 1_455
Ga2 Sm8 3.750508 1_555
Ga3 Sm3 2.988000 1_555
Ga3 Sm5 3.033372 1_545
Ga3 Sm5 3.033372 1_645
Ga3 Sm8 3.045946 1_555
Ga3 Sm0 3.065643 1_556
Ga3 Sm1 3.303639 1_555
Ga3 Sm1 3.303639 1_655
Ga3 Sm4 3.505586 1_545
Ga3 Sm6 3.751545 1_555
Ga3 Sm6 3.751545 1_455
