# generated using pymatgen
data_Ce2TeSe
_symmetry_space_group_name_H-M   'P 1'
_cell_length_a   4.33850000
_cell_length_b   4.33850000
_cell_length_c   6.13361900
_cell_angle_alpha   90.00000000
_cell_angle_beta   90.00000000
_cell_angle_gamma   90.00000000
_symmetry_Int_Tables_number   1
_chemical_formula_structural   Ce2TeSe
_chemical_formula_sum   'Ce2 Te1 Se1'
_cell_volume   115.45054812
_cell_formula_units_Z   1
loop_
 _symmetry_equiv_pos_site_id
 _symmetry_equiv_pos_as_xyz
  1  'x, y, z'
loop_
 _atom_site_type_symbol
 _atom_site_label
 _atom_site_symmetry_multiplicity
 _atom_site_fract_x
 _atom_site_fract_y
 _atom_site_fract_z
 _atom_site_occupancy
  Ce  Ce0  1  0.00000000  0.00000000  0.00000000  1
  Ce  Ce1  1  0.50000000  0.50000000  0.50000000  1
  Te  Te0  1  0.50000000  0.50000000  0.00000000  1
  Se  Se0  1  0.00000000  0.00000000  0.50000000  1
loop_
_geom_bond_atom_site_label_1
_geom_bond_atom_site_label_2
_geom_bond_distance
_geom_bond_site_symmetry_2
Ce0 Se0 3.066810 1_554
Ce0 Se0 3.066810 1_555
Ce0 Te0 3.067783 1_455
Ce0 Te0 3.067783 1_545
Ce0 Te0 3.067783 1_555
Ce0 Te0 3.067783 1_445
Ce1 Te0 3.066810 1_555
Ce1 Te0 3.066810 1_556
Ce1 Se0 3.067783 1_565
Ce1 Se0 3.067783 1_555
Ce1 Se0 3.067783 1_655
Ce1 Se0 3.067783 1_665
