# generated using pymatgen
data_Li2VF6
_symmetry_space_group_name_H-M   'P 1'
_cell_length_a   8.53739400
_cell_length_b   8.58975545
_cell_length_c   10.23533822
_cell_angle_alpha   85.87784293
_cell_angle_beta   85.20575250
_cell_angle_gamma   61.40748297
_symmetry_Int_Tables_number   1
_chemical_formula_structural   Li2VF6
_chemical_formula_sum   'Li12 V6 F36'
_cell_volume   656.31848915
_cell_formula_units_Z   6
loop_
 _symmetry_equiv_pos_site_id
 _symmetry_equiv_pos_as_xyz
  1  'x, y, z'
loop_
 _atom_site_type_symbol
 _atom_site_label
 _atom_site_symmetry_multiplicity
 _atom_site_fract_x
 _atom_site_fract_y
 _atom_site_fract_z
 _atom_site_occupancy
  Li  Li0  1  0.12494500  0.54200100  0.54649600  1
  Li  Li1  1  0.52778900  0.11849100  0.04855000  1
  Li  Li2  1  0.32638400  0.63961900  0.03039500  1
  Li  Li3  1  0.37926600  0.66345400  0.47398100  1
  Li  Li4  1  0.28317900  0.00226800  0.22027700  1
  Li  Li5  1  0.69860600  0.00767000  0.77143400  1
  Li  Li6  1  0.80219300  0.19556300  0.25459500  1
  Li  Li7  1  0.67797200  0.37177800  0.96392800  1
  Li  Li8  1  0.86764300  0.45208700  0.45447200  1
  Li  Li9  1  0.64868800  0.94824100  0.43650400  1
  Li  Li10  1  0.00136400  0.28254600  0.72447300  1
  Li  Li11  1  0.95067000  0.64351200  0.93477200  1
  V  V0  1  0.00869500  0.99455300  0.50443300  1
  V  V1  1  0.33209000  0.33869700  0.29374400  1
  V  V2  1  0.99959600  0.00004000  0.00085400  1
  V  V3  1  0.33558600  0.33954200  0.79034200  1
  V  V4  1  0.66963100  0.66163100  0.20435600  1
  V  V5  1  0.65353700  0.67482800  0.70873700  1
  F  F0  1  0.06833000  0.07096900  0.33807600  1
  F  F1  1  0.06466700  0.07773800  0.84576000  1
  F  F2  1  0.10919200  0.41925100  0.39229100  1
  F  F3  1  0.11958300  0.41517800  0.88722000  1
  F  F4  1  0.27480000  0.22664500  0.16459600  1
  F  F5  1  0.22751800  0.27335200  0.66688800  1
  F  F6  1  0.09043200  0.76107500  0.44804400  1
  F  F7  1  0.41974700  0.11972900  0.38194300  1
  F  F8  1  0.25605900  0.54140700  0.19214900  1
  F  F9  1  0.08725700  0.76251800  0.94747600  1
  F  F10  1  0.43078700  0.11670100  0.88437700  1
  F  F11  1  0.25216500  0.55539300  0.69214200  1
  F  F12  1  0.39743500  0.43678700  0.42516500  1
  F  F13  1  0.22625900  0.91302800  0.07071600  1
  F  F14  1  0.56291100  0.24671300  0.19693400  1
  F  F15  1  0.42877300  0.41562100  0.92825200  1
  F  F16  1  0.23867000  0.91036700  0.55084900  1
  F  F17  1  0.55143000  0.24905900  0.69927900  1
  F  F18  1  0.44694300  0.75113900  0.30022000  1
  F  F19  1  0.78195200  0.07424400  0.42811900  1
  F  F20  1  0.57405800  0.57905600  0.07745700  1
  F  F21  1  0.45052600  0.73776200  0.80196400  1
  F  F22  1  0.76314000  0.08110100  0.93389600  1
  F  F23  1  0.59102600  0.58637000  0.56930800  1
  F  F24  1  0.75216200  0.43972800  0.29984600  1
  F  F25  1  0.57653100  0.88980800  0.12271900  1
  F  F26  1  0.89744200  0.23381700  0.06575500  1
  F  F27  1  0.75972100  0.44687700  0.80386800  1
  F  F28  1  0.60070200  0.88613800  0.61223800  1
  F  F29  1  0.93483500  0.22833000  0.56363700  1
  F  F30  1  0.75307600  0.73145300  0.34295400  1
  F  F31  1  0.75276500  0.76327500  0.82870800  1
  F  F32  1  0.87547000  0.59389900  0.10495300  1
  F  F33  1  0.88700900  0.57113900  0.61543000  1
  F  F34  1  0.91362500  0.94551700  0.15517400  1
  F  F35  1  0.91448000  0.94132800  0.65761000  1
loop_
_geom_bond_atom_site_label_1
_geom_bond_atom_site_label_2
_geom_bond_distance
_geom_bond_site_symmetry_2
F0 V0 1.898316 1_545
F0 Li4 1.965457 1_555
F0 Li6 2.214396 1_455
F1 V2 1.824602 1_456
F1 Li10 1.953530 1_555
F2 V1 1.906997 1_555
F2 Li8 1.996740 1_455
F2 Li0 2.007848 1_555
F3 V3 1.856405 1_555
F3 Li11 1.864406 1_455
F4 V1 1.911691 1_555
F4 Li4 1.939460 1_555
F4 Li1 2.179020 1_555
F5 V3 1.889813 1_555
F5 Li10 1.937011 1_555
F5 Li0 2.334053 1_555
F6 V0 1.897823 1_555
F6 Li0 1.972231 1_555
F6 Li3 2.225422 1_555
F7 V1 1.853175 1_555
F7 Li9 1.900111 1_545
F8 V1 1.818028 1_555
F8 Li2 1.982685 1_555
F9 Li11 1.899224 1_455
F9 V2 1.910926 1_466
F9 Li2 2.024976 1_556
F10 V3 1.904658 1_555
F10 Li1 1.938609 1_556
F10 Li5 2.259565 1_555
F11 V3 1.882288 1_555
F11 Li0 1.957061 1_555
F12 V1 1.889135 1_555
F12 Li3 1.975450 1_555
F12 Li0 2.331735 1_555
F13 V2 1.893330 1_465
F13 Li4 1.953639 1_565
F13 Li2 2.139020 1_555
F14 V1 1.945584 1_555
F14 Li6 2.004924 1_555
F14 Li1 2.059691 1_555
F15 V3 1.967347 1_555
F15 Li2 2.021340 1_556
F15 Li7 2.035844 1_555
F16 V0 1.830596 1_555
F16 Li3 2.050224 1_555
F17 V3 1.820635 1_555
F17 Li5 1.965904 1_555
F18 V4 1.888359 1_555
F18 Li3 2.028890 1_555
F18 Li4 2.080445 1_565
F19 Li9 1.903209 1_545
F19 V0 1.932238 1_645
F19 Li6 2.031073 1_555
F20 V4 1.928586 1_555
F20 Li7 1.980055 1_554
F20 Li2 2.013725 1_555
F21 V5 1.762839 1_555
F22 V2 1.961376 1_556
F22 Li5 2.025595 1_555
F22 Li1 2.135392 1_556
F22 Li7 2.278748 1_555
F23 V5 1.889476 1_555
F23 Li3 1.927447 1_555
F23 Li8 2.326529 1_555
F24 V4 1.909633 1_555
F24 Li8 1.968049 1_555
F24 Li6 2.011177 1_555
F25 V4 1.885723 1_555
F25 Li1 1.914180 1_565
F25 Li4 2.368029 1_565
F26 V2 1.911271 1_555
F26 Li7 2.006221 1_554
F26 Li6 2.099245 1_555
F27 Li7 1.917034 1_555
F27 V5 1.943784 1_555
F27 Li10 2.001563 1_655
F28 V5 1.872613 1_555
F28 Li9 1.906770 1_555
F28 Li5 2.398090 1_565
F29 V0 1.922581 1_645
F29 Li10 1.941439 1_655
F29 Li8 2.003684 1_555
F30 V4 1.892049 1_555
F30 Li9 1.924565 1_555
F30 Li8 2.358874 1_555
F31 Li11 1.890482 1_555
F31 V5 1.930479 1_555
F31 Li5 1.975800 1_565
F32 V4 1.808168 1_555
F32 Li11 1.896339 1_554
F33 V5 1.945051 1_555
F33 Li0 1.996505 1_655
F33 Li8 2.058348 1_555
F33 Li10 2.410781 1_655
F34 V2 1.811576 1_565
F34 Li6 2.179540 1_565
F35 V0 1.830900 1_655
F35 Li5 1.951914 1_565
