# generated using pymatgen
data_Pr6Mg23C
_symmetry_space_group_name_H-M   'P 1'
_cell_length_a   10.18576287
_cell_length_b   10.18576287
_cell_length_c   10.18576287
_cell_angle_alpha   60.00000000
_cell_angle_beta   60.00000000
_cell_angle_gamma   60.00000000
_symmetry_Int_Tables_number   1
_chemical_formula_structural   Pr6Mg23C
_chemical_formula_sum   'Pr6 Mg23 C1'
_cell_volume   747.24959232
_cell_formula_units_Z   1
loop_
 _symmetry_equiv_pos_site_id
 _symmetry_equiv_pos_as_xyz
  1  'x, y, z'
loop_
 _atom_site_type_symbol
 _atom_site_label
 _atom_site_symmetry_multiplicity
 _atom_site_fract_x
 _atom_site_fract_y
 _atom_site_fract_z
 _atom_site_occupancy
  Pr  Pr0  1  0.81480900  0.81480900  0.18519100  1
  Pr  Pr1  1  0.18519100  0.81480900  0.18519100  1
  Pr  Pr2  1  0.81480900  0.18519100  0.18519100  1
  Pr  Pr3  1  0.18519100  0.18519100  0.81480900  1
  Pr  Pr4  1  0.81480900  0.18519100  0.81480900  1
  Pr  Pr5  1  0.18519100  0.81480900  0.81480900  1
  Mg  Mg0  1  0.82898200  0.82898200  0.51305500  1
  Mg  Mg1  1  0.82898200  0.51305500  0.82898200  1
  Mg  Mg2  1  0.51305500  0.82898200  0.82898200  1
  Mg  Mg3  1  0.82898200  0.82898200  0.82898200  1
  Mg  Mg4  1  0.17101800  0.17101800  0.48694500  1
  Mg  Mg5  1  0.17101800  0.48694500  0.17101800  1
  Mg  Mg6  1  0.48694500  0.17101800  0.17101800  1
  Mg  Mg7  1  0.17101800  0.17101800  0.17101800  1
  Mg  Mg8  1  0.62087300  0.62087300  0.13738200  1
  Mg  Mg9  1  0.62087300  0.13738200  0.62087300  1
  Mg  Mg10  1  0.13738200  0.62087300  0.62087300  1
  Mg  Mg11  1  0.62087300  0.62087300  0.62087300  1
  Mg  Mg12  1  0.37912700  0.37912700  0.86261800  1
  Mg  Mg13  1  0.37912700  0.86261800  0.37912700  1
  Mg  Mg14  1  0.86261800  0.37912700  0.37912700  1
  Mg  Mg15  1  0.37912700  0.37912700  0.37912700  1
  Mg  Mg16  1  0.00000000  0.00000000  0.50000000  1
  Mg  Mg17  1  0.50000000  0.00000000  0.50000000  1
  Mg  Mg18  1  0.00000000  0.50000000  0.50000000  1
  Mg  Mg19  1  0.50000000  0.50000000  0.00000000  1
  Mg  Mg20  1  0.00000000  0.50000000  0.00000000  1
  Mg  Mg21  1  0.50000000  0.00000000  0.00000000  1
  Mg  Mg22  1  0.50000000  0.50000000  0.50000000  1
  C  C0  1  0.00000000  0.00000000  0.00000000  1
loop_
_geom_bond_atom_site_label_1
_geom_bond_atom_site_label_2
_geom_bond_distance
_geom_bond_site_symmetry_2
Mg0 Mg16 2.942374 1_665
Mg0 Mg18 2.942383 1_655
Mg0 Mg17 2.942383 1_565
Mg0 Mg11 3.167052 1_555
Mg0 Mg10 3.167052 1_655
Mg0 Mg9 3.167052 1_565
Mg0 Mg3 3.217958 1_555
Mg0 Mg1 3.217958 1_555
Mg0 Mg2 3.217958 1_555
Mg0 Pr2 3.489879 1_565
Mg0 Pr1 3.489879 1_655
Mg0 Pr0 3.489885 1_555
Mg1 Mg20 2.942374 1_656
Mg1 Mg19 2.942383 1_556
Mg1 Mg18 2.942383 1_655
Mg1 Mg11 3.167052 1_555
Mg1 Mg8 3.167052 1_556
Mg1 Mg10 3.167052 1_655
Mg1 Mg3 3.217958 1_555
Mg1 Mg2 3.217958 1_555
Mg1 Pr2 3.489879 1_556
Mg1 Pr3 3.489879 1_655
Mg1 Pr4 3.489885 1_555
Mg2 Mg21 2.942374 1_566
Mg2 Mg8 3.167052 1_556
Mg2 Mg9 3.167052 1_565
Mg2 Mg3 3.217958 1_555
Mg2 Pr1 3.489879 1_556
Mg2 Pr3 3.489879 1_565
Mg2 Pr5 3.489885 1_555
Mg3 Mg9 3.167052 1_565
Mg3 Mg8 3.167052 1_556
Mg3 Pr0 3.489874 1_556
Mg3 Pr4 3.489874 1_565
Mg3 Pr5 3.489874 1_655
Mg4 Mg5 3.217958 1_555
Mg4 Mg7 3.217958 1_555
Mg4 Mg6 3.217958 1_555
Mg4 Pr5 3.489879 1_545
Mg4 Pr4 3.489879 1_455
Mg4 Pr3 3.489885 1_555
Mg5 Mg7 3.217958 1_555
Mg5 Mg6 3.217958 1_555
Mg5 Pr0 3.489879 1_455
Mg5 Pr5 3.489879 1_554
Mg5 Pr1 3.489885 1_555
Mg6 Mg7 3.217958 1_555
Mg6 Pr0 3.489879 1_545
Mg6 Pr4 3.489879 1_554
Mg6 Pr2 3.489885 1_555
Mg7 Pr1 3.489874 1_545
Mg7 Pr2 3.489874 1_455
Mg7 Pr3 3.489874 1_554
Mg8 Pr0 3.723910 1_555
Mg8 Pr2 3.723919 1_555
Mg8 Pr1 3.723919 1_555
Mg9 Pr4 3.723910 1_555
Mg9 Pr2 3.723919 1_555
Mg9 Pr3 3.723919 1_555
Mg10 Mg22 3.015764 1_555
Mg10 Mg20 3.154557 1_556
Mg10 Mg16 3.154557 1_565
Mg10 Mg18 3.154566 1_555
Mg10 Mg3 3.167052 1_455
Mg10 Mg13 3.482299 1_555
Mg10 Mg12 3.482299 1_555
Mg10 Mg15 3.482313 1_555
Mg10 Pr5 3.723910 1_555
Mg10 Pr1 3.723919 1_555
Mg10 Pr3 3.723919 1_555
Mg11 Mg22 3.015772 1_555
Mg11 Mg19 3.154557 1_556
Mg11 Mg18 3.154557 1_655
Mg11 Mg17 3.154557 1_565
Mg11 Mg2 3.167052 1_555
Mg11 Mg14 3.482313 1_555
Mg11 Mg13 3.482313 1_555
Mg11 Mg12 3.482313 1_555
Mg11 Pr5 3.723916 1_555
Mg11 Pr4 3.723916 1_555
Mg11 Pr0 3.723916 1_555
Mg12 Mg22 3.015764 1_555
Mg12 Mg21 3.154557 1_556
Mg12 Mg20 3.154557 1_556
Mg12 Mg19 3.154566 1_556
Mg12 Mg5 3.167052 1_556
Mg12 Mg6 3.167052 1_556
Mg12 Mg7 3.167052 1_556
Mg12 Mg9 3.482299 1_555
Mg12 Pr3 3.723910 1_555
Mg12 Pr4 3.723919 1_555
Mg12 Pr5 3.723919 1_555
Mg13 Mg22 3.015764 1_555
Mg13 Mg16 3.154557 1_565
Mg13 Mg21 3.154557 1_565
Mg13 Mg17 3.154566 1_565
Mg13 Mg4 3.167052 1_565
Mg13 Mg6 3.167052 1_565
Mg13 Mg7 3.167052 1_565
Mg13 Mg8 3.482299 1_555
Mg13 Pr1 3.723910 1_555
Mg13 Pr0 3.723919 1_555
Mg13 Pr5 3.723919 1_555
Mg14 Mg22 3.015764 1_555
Mg14 Mg16 3.154557 1_655
Mg14 Mg20 3.154557 1_655
Mg14 Mg18 3.154566 1_655
Mg14 Mg5 3.167052 1_655
Mg14 Mg4 3.167052 1_655
Mg14 Mg7 3.167052 1_655
Mg14 Mg8 3.482299 1_555
Mg14 Mg9 3.482299 1_555
Mg14 Pr2 3.723910 1_555
Mg14 Pr0 3.723919 1_555
Mg14 Pr4 3.723919 1_555
Mg15 Mg22 3.015772 1_555
Mg15 Mg18 3.154557 1_555
Mg15 Mg19 3.154557 1_555
Mg15 Mg17 3.154557 1_555
Mg15 Mg6 3.167052 1_555
Mg15 Mg5 3.167052 1_555
Mg15 Mg4 3.167052 1_555
Mg15 Mg8 3.482313 1_555
Mg15 Mg9 3.482313 1_555
Mg15 Pr1 3.723916 1_555
Mg15 Pr3 3.723916 1_555
Mg15 Pr2 3.723916 1_555
Mg16 Mg4 2.942374 1_555
Mg16 Mg3 2.942380 1_445
Mg16 Mg7 2.942380 1_555
Mg16 Mg9 3.154557 1_455
Mg16 Pr1 3.720250 1_545
Mg16 Pr4 3.720250 1_455
Mg16 Pr2 3.720250 1_455
Mg16 Pr5 3.720250 1_545
Mg17 Mg2 2.942383 1_545
Mg17 Mg4 2.942383 1_555
Mg17 Mg6 2.942383 1_555
Mg17 Mg9 3.154566 1_555
Mg17 Pr0 3.720250 1_545
Mg17 Pr2 3.720250 1_555
Mg17 Pr3 3.720250 1_555
Mg17 Pr5 3.720250 1_545
Mg18 Mg4 2.942383 1_555
Mg18 Mg5 2.942383 1_555
Mg18 Pr0 3.720250 1_455
Mg18 Pr1 3.720250 1_555
Mg18 Pr3 3.720250 1_555
Mg18 Pr4 3.720250 1_455
Mg19 Mg2 2.942383 1_554
Mg19 Mg5 2.942383 1_555
Mg19 Mg6 2.942383 1_555
Mg19 Mg8 3.154566 1_555
Mg19 Pr1 3.720250 1_555
Mg19 Pr4 3.720250 1_554
Mg19 Pr2 3.720250 1_555
Mg19 Pr5 3.720250 1_554
Mg20 Mg5 2.942374 1_555
Mg20 Mg3 2.942380 1_454
Mg20 Mg7 2.942380 1_555
Mg20 Mg8 3.154557 1_455
Mg20 Pr3 3.720250 1_554
Mg20 Pr0 3.720250 1_455
Mg20 Pr2 3.720250 1_455
Mg20 Pr5 3.720250 1_554
Mg21 Mg6 2.942374 1_555
Mg21 Mg3 2.942380 1_544
Mg21 Mg7 2.942380 1_555
Mg21 Mg9 3.154557 1_554
Mg21 Mg8 3.154557 1_545
Mg21 Pr0 3.720250 1_545
Mg21 Pr3 3.720250 1_554
Mg21 Pr1 3.720250 1_545
Mg21 Pr4 3.720250 1_554
Mg22 Mg9 3.015764 1_555
Mg22 Mg8 3.015764 1_555
C0 Pr2 2.667647 1_455
C0 Pr0 2.667647 1_445
C0 Pr4 2.667647 1_454
C0 Pr3 2.667647 1_554
C0 Pr1 2.667647 1_545
C0 Pr5 2.667647 1_544
