# generated using pymatgen
data_BaDyMn4O12
_symmetry_space_group_name_H-M   'P 1'
_cell_length_a   5.39711662
_cell_length_b   5.39711662
_cell_length_c   7.59256956
_cell_angle_alpha   90.00000000
_cell_angle_beta   90.00000000
_cell_angle_gamma   90.00000000
_symmetry_Int_Tables_number   1
_chemical_formula_structural   BaDyMn4O12
_chemical_formula_sum   'Ba1 Dy1 Mn4 O12'
_cell_volume   221.16295505
_cell_formula_units_Z   1
loop_
 _symmetry_equiv_pos_site_id
 _symmetry_equiv_pos_as_xyz
  1  'x, y, z'
loop_
 _atom_site_type_symbol
 _atom_site_label
 _atom_site_symmetry_multiplicity
 _atom_site_fract_x
 _atom_site_fract_y
 _atom_site_fract_z
 _atom_site_occupancy
  Ba  Ba0  1  0.50000000  0.50000000  -0.00000000  1
  Dy  Dy0  1  0.00000000  0.00000000  0.50000000  1
  Mn  Mn0  1  -0.00000000  0.50000000  0.74968186  1
  Mn  Mn1  1  0.00000000  0.50000000  0.25031814  1
  Mn  Mn2  1  0.50000000  0.00000000  0.74968186  1
  Mn  Mn3  1  0.50000000  -0.00000000  0.25031814  1
  O  O0  1  0.23779854  0.23779854  0.72740541  1
  O  O1  1  0.23779854  0.23779854  0.27259459  1
  O  O2  1  0.76220146  0.76220146  0.72740541  1
  O  O3  1  0.76220146  0.76220146  0.27259459  1
  O  O4  1  0.76220146  0.23779854  0.72740541  1
  O  O5  1  0.76220146  0.23779854  0.27259459  1
  O  O6  1  0.23779854  0.76220146  0.72740541  1
  O  O7  1  0.23779854  0.76220146  0.27259459  1
  O  O8  1  -0.00000000  0.50000000  0.50000000  1
  O  O9  1  0.00000000  0.50000000  0.00000000  1
  O  O10  1  0.50000000  -0.00000000  0.50000000  1
  O  O11  1  0.50000000  0.00000000  0.00000000  1
loop_
_geom_bond_atom_site_label_1
_geom_bond_atom_site_label_2
_geom_bond_distance
_geom_bond_site_symmetry_2
Ba0 O9 2.698558 1_655
Ba0 O11 2.698558 1_555
Ba0 O11 2.698558 1_565
Ba0 O9 2.698558 1_555
Ba0 O6 2.879032 1_554
Ba0 O0 2.879032 1_554
Ba0 O2 2.879032 1_554
Ba0 O4 2.879032 1_554
Ba0 O5 2.879032 1_555
Ba0 O3 2.879032 1_555
Ba0 O1 2.879032 1_555
Ba0 O7 2.879032 1_555
Dy0 O7 2.505092 1_545
Dy0 O3 2.505092 1_445
Dy0 O1 2.505092 1_555
Dy0 O5 2.505092 1_455
Dy0 O4 2.505092 1_455
Dy0 O0 2.505092 1_555
Dy0 O6 2.505092 1_545
Dy0 O2 2.505092 1_445
Dy0 O8 2.698558 1_545
Dy0 O10 2.698558 1_455
Dy0 O10 2.698558 1_555
Dy0 O8 2.698558 1_555
Mn0 O8 1.895727 1_555
Mn0 O9 1.900558 1_556
Mn0 O6 1.917913 1_555
Mn0 O4 1.917913 1_455
Mn0 O0 1.917913 1_555
Mn0 O2 1.917913 1_455
Mn1 O8 1.895727 1_555
Mn1 O9 1.900558 1_555
Mn1 O3 1.917913 1_455
Mn1 O1 1.917913 1_555
Mn1 O5 1.917913 1_455
Mn1 O7 1.917913 1_555
Mn2 O10 1.895727 1_555
Mn2 O11 1.900558 1_556
Mn2 O2 1.917913 1_545
Mn2 O4 1.917913 1_555
Mn2 O0 1.917913 1_555
Mn2 O6 1.917913 1_545
Mn3 O10 1.895727 1_555
Mn3 O11 1.900558 1_555
Mn3 O7 1.917913 1_545
Mn3 O1 1.917913 1_555
Mn3 O3 1.917913 1_545
Mn3 O5 1.917913 1_555
