# generated using pymatgen
data_Ba2FeBrO3
_symmetry_space_group_name_H-M   'P 1'
_cell_length_a   4.13905500
_cell_length_b   4.13905500
_cell_length_c   15.97557800
_cell_angle_alpha   90.00000000
_cell_angle_beta   90.00000000
_cell_angle_gamma   90.00000000
_symmetry_Int_Tables_number   1
_chemical_formula_structural   Ba2FeBrO3
_chemical_formula_sum   'Ba4 Fe2 Br2 O6'
_cell_volume   273.69002845
_cell_formula_units_Z   2
loop_
 _symmetry_equiv_pos_site_id
 _symmetry_equiv_pos_as_xyz
  1  'x, y, z'
loop_
 _atom_site_type_symbol
 _atom_site_label
 _atom_site_symmetry_multiplicity
 _atom_site_fract_x
 _atom_site_fract_y
 _atom_site_fract_z
 _atom_site_occupancy
  Ba  Ba0  1  0.00000000  0.50000000  0.66684800  1
  Ba  Ba1  1  0.50000000  0.00000000  0.09395300  1
  Ba  Ba2  1  0.50000000  0.00000000  0.33315200  1
  Ba  Ba3  1  0.00000000  0.50000000  0.90604700  1
  Fe  Fe0  1  0.00000000  0.50000000  0.19859500  1
  Fe  Fe1  1  0.50000000  0.00000000  0.80140500  1
  Br  Br0  1  0.00000000  0.50000000  0.42141600  1
  Br  Br1  1  0.50000000  0.00000000  0.57858400  1
  O  O0  1  0.00000000  0.50000000  0.07878100  1
  O  O1  1  0.50000000  0.50000000  0.78013700  1
  O  O2  1  0.00000000  0.00000000  0.78013700  1
  O  O3  1  0.50000000  0.50000000  0.21986300  1
  O  O4  1  0.00000000  0.00000000  0.21986300  1
  O  O5  1  0.50000000  0.00000000  0.92121900  1
loop_
_geom_bond_atom_site_label_1
_geom_bond_atom_site_label_2
_geom_bond_distance
_geom_bond_site_symmetry_2
Ba0 O2 2.749278 1_555
Ba0 O2 2.749278 1_565
Ba0 O1 2.749278 1_455
Ba0 O1 2.749278 1_555
Ba0 Br1 3.248720 1_455
Ba0 Br1 3.248720 1_555
Ba0 Br1 3.248720 1_465
Ba0 Br1 3.248720 1_565
Ba1 O5 2.759525 1_554
Ba1 O3 2.886003 1_545
Ba1 O3 2.886003 1_555
Ba1 O4 2.886003 1_555
Ba1 O4 2.886003 1_655
Ba1 O0 2.936773 1_645
Ba1 O0 2.936773 1_555
Ba1 O0 2.936773 1_655
Ba1 O0 2.936773 1_545
Ba2 O3 2.749278 1_555
Ba2 O4 2.749278 1_555
Ba2 O3 2.749278 1_545
Ba2 O4 2.749278 1_655
Ba2 Br0 3.248720 1_545
Ba2 Br0 3.248720 1_555
Ba2 Br0 3.248720 1_655
Ba2 Br0 3.248720 1_645
Ba3 O0 2.759525 1_556
Ba3 O2 2.886003 1_555
Ba3 O1 2.886003 1_455
Ba3 O2 2.886003 1_565
Ba3 O1 2.886003 1_555
Ba3 O5 2.936773 1_555
Ba3 O5 2.936773 1_565
Ba3 O5 2.936773 1_455
Ba3 O5 2.936773 1_465
Fe0 O0 1.914098 1_555
Fe0 O4 2.097233 1_555
Fe0 O4 2.097233 1_565
Fe0 O3 2.097233 1_555
Fe0 O3 2.097233 1_455
Fe1 O5 1.914098 1_555
Fe1 O2 2.097233 1_655
Fe1 O1 2.097233 1_555
Fe1 O2 2.097233 1_555
Fe1 O1 2.097233 1_545
