# generated using pymatgen
data_Cs2Tm2Mg(WO4)4
_symmetry_space_group_name_H-M   'P 1'
_cell_length_a   7.49140501
_cell_length_b   8.03816124
_cell_length_c   7.54020275
_cell_angle_alpha   62.91635660
_cell_angle_beta   61.84601090
_cell_angle_gamma   86.93166107
_symmetry_Int_Tables_number   1
_chemical_formula_structural   Cs2Tm2Mg(WO4)4
_chemical_formula_sum   'Cs2 Tm2 Mg1 W4 O16'
_cell_volume   348.82319266
_cell_formula_units_Z   1
loop_
 _symmetry_equiv_pos_site_id
 _symmetry_equiv_pos_as_xyz
  1  'x, y, z'
loop_
 _atom_site_type_symbol
 _atom_site_label
 _atom_site_symmetry_multiplicity
 _atom_site_fract_x
 _atom_site_fract_y
 _atom_site_fract_z
 _atom_site_occupancy
  Cs  Cs0  1  0.76294977  0.13313978  0.80646583  1
  Cs  Cs1  1  0.22672313  0.85925350  0.21970088  1
  Tm  Tm0  1  0.24554883  0.79714456  0.74594773  1
  Tm  Tm1  1  0.75584943  0.20059991  0.26678894  1
  Mg  Mg0  1  0.99143340  0.48299151  0.37350271  1
  W  W0  1  0.29020768  0.32441284  0.69662950  1
  W  W1  1  0.68843307  0.68363244  0.30692121  1
  W  W2  1  0.70077664  0.68203418  0.80238969  1
  W  W3  1  0.32218643  0.30847081  0.18803122  1
  O  O0  1  0.37476976  0.26899844  0.92102613  1
  O  O1  1  0.62285461  0.73050822  0.06107631  1
  O  O2  1  0.78098435  0.60237916  0.55938752  1
  O  O3  1  0.22211450  0.39424836  0.44055534  1
  O  O4  1  0.64509853  0.91202964  0.62929790  1
  O  O5  1  0.36511522  0.07789256  0.37201334  1
  O  O6  1  0.02431985  0.31352209  0.90116950  1
  O  O7  1  0.98090967  0.67994911  0.10342393  1
  O  O8  1  0.37714943  0.61460493  0.56266809  1
  O  O9  1  0.61024179  0.38862388  0.44293934  1
  O  O10  1  0.37633343  0.59130679  0.95955641  1
  O  O11  1  0.64356948  0.40430146  0.03029945  1
  O  O12  1  0.26830432  0.07288601  0.75843981  1
  O  O13  1  0.73841540  0.93495896  0.23550072  1
  O  O14  1  0.97446721  0.75591362  0.70274916  1
  O  O15  1  0.01957609  0.26952724  0.29744833  1
loop_
_geom_bond_atom_site_label_1
_geom_bond_atom_site_label_2
_geom_bond_distance
_geom_bond_site_symmetry_2
Cs0 O13 2.795425 1_546
Cs0 O1 2.840079 1_546
Cs0 Mg0 2.894504 1_555
Cs0 O0 2.922975 1_555
Cs0 O6 3.002052 1_655
Cs0 O15 3.009952 1_655
Cs0 O4 3.027518 1_545
Cs0 O11 3.180539 1_556
Cs0 O3 3.223880 1_655
Cs0 O9 3.259054 1_555
Cs0 O2 3.336784 1_555
Cs0 O14 3.576618 1_545
Cs0 O12 3.656198 1_655
Cs1 O0 2.903357 1_564
Cs1 O14 2.906038 1_455
Cs1 O5 2.939228 1_565
Cs1 O12 2.956147 1_564
Cs1 O1 2.959200 1_555
Cs1 O7 3.032399 1_455
Cs1 O8 3.115580 1_555
Cs1 O2 3.134539 1_455
Mg0 O7 1.965239 1_555
Mg0 O15 2.015109 1_655
Mg0 O3 2.028554 1_655
Mg0 O2 2.085313 1_555
O0 W0 1.938449 1_555
O0 W3 2.031989 1_556
O1 W2 1.972416 1_554
O1 W1 2.005785 1_555
O2 W2 2.028890 1_555
O2 W1 2.143849 1_555
O3 W0 2.053140 1_555
O3 W3 2.110927 1_555
O4 W2 1.878639 1_555
O4 Tm1 2.415110 1_565
O4 Tm0 2.767210 1_555
O5 W3 1.865217 1_555
O5 Tm0 2.425699 1_545
O5 Tm1 2.752345 1_555
O6 W0 1.830448 1_555
O6 Tm1 2.270144 1_456
O7 W1 2.004446 1_555
O7 Tm0 2.219949 1_654
O8 W0 2.069276 1_555
O8 W1 2.094060 1_555
O8 Tm0 2.332495 1_555
O9 W1 2.094128 1_555
O9 W0 2.139885 1_555
O9 Tm1 2.349983 1_555
O10 W3 2.043030 1_556
O10 W2 2.128000 1_555
O10 Tm0 2.276118 1_555
O11 W2 2.008670 1_554
O11 W3 2.113430 1_555
O11 Tm1 2.275430 1_555
O12 W0 1.853964 1_555
O12 Tm0 2.279542 1_545
O13 W1 1.847018 1_555
O13 Tm1 2.269297 1_565
O14 W2 1.841565 1_555
O14 Tm0 2.265964 1_655
O15 W3 1.998413 1_555
O15 Tm1 2.220038 1_455
