# generated using pymatgen
data_Pr3(TaN3)2
_symmetry_space_group_name_H-M   'P 1'
_cell_length_a   10.37597128
_cell_length_b   10.37597128
_cell_length_c   10.37597128
_cell_angle_alpha   157.45787299
_cell_angle_beta   157.45787299
_cell_angle_gamma   32.09203069
_symmetry_Int_Tables_number   1
_chemical_formula_structural   Pr3(TaN3)2
_chemical_formula_sum   'Pr3 Ta2 N6'
_cell_volume   164.04499055
_cell_formula_units_Z   1
loop_
 _symmetry_equiv_pos_site_id
 _symmetry_equiv_pos_as_xyz
  1  'x, y, z'
loop_
 _atom_site_type_symbol
 _atom_site_label
 _atom_site_symmetry_multiplicity
 _atom_site_fract_x
 _atom_site_fract_y
 _atom_site_fract_z
 _atom_site_occupancy
  Pr  Pr0  1  0.17986760  0.17986760  0.00000000  1
  Pr  Pr1  1  0.82013240  0.82013240  -0.00000000  1
  Pr  Pr2  1  -0.00000000  -0.00000000  -0.00000000  1
  Ta  Ta0  1  0.39877977  0.39877977  0.00000000  1
  Ta  Ta1  1  0.60122023  0.60122023  -0.00000000  1
  N  N0  1  0.58581285  0.08581285  0.50000000  1
  N  N1  1  0.41418715  0.91418715  0.50000000  1
  N  N2  1  0.08581285  0.58581285  0.50000000  1
  N  N3  1  0.91418715  0.41418715  0.50000000  1
  N  N4  1  0.30133814  0.30133814  -0.00000000  1
  N  N5  1  0.69866186  0.69866186  -0.00000000  1
loop_
_geom_bond_atom_site_label_1
_geom_bond_atom_site_label_2
_geom_bond_distance
_geom_bond_site_symmetry_2
N0 Ta1 2.051139 1_545
N0 Ta1 2.051139 1_556
N0 Pr2 2.653612 1_656
N0 Pr2 2.653612 1_555
N0 Pr0 2.762479 1_656
N0 Pr0 2.762479 1_555
N1 Ta0 2.051139 1_566
N1 Ta0 2.051139 1_555
N1 Pr2 2.653612 1_666
N1 Pr2 2.653612 1_565
N1 Pr1 2.762479 1_556
N1 Pr1 2.762479 1_455
N2 Ta1 2.051139 1_556
N2 Ta1 2.051139 1_455
N2 Pr2 2.653612 1_555
N2 Pr2 2.653612 1_566
N2 Pr0 2.762479 1_566
N2 Pr0 2.762479 1_555
N3 Ta0 2.051139 1_656
N3 Ta0 2.051139 1_555
N3 Pr2 2.653612 1_666
N3 Pr2 2.653612 1_655
N3 Pr1 2.762479 1_545
N3 Pr1 2.762479 1_556
N4 Ta0 1.943322 1_555
N4 Pr0 2.422541 1_555
N4 Pr1 2.892404 1_556
N4 Pr1 2.892404 1_444
N4 Pr1 2.892404 1_545
N4 Pr1 2.892404 1_455
N5 Ta1 1.943322 1_555
N5 Pr1 2.422541 1_555
N5 Pr0 2.892404 1_554
N5 Pr0 2.892404 1_565
N5 Pr0 2.892404 1_655
N5 Pr0 2.892404 1_666
