# generated using pymatgen
data_Na3PH12CO11
_symmetry_space_group_name_H-M   'P 1'
_cell_length_a   12.28730500
_cell_length_b   9.31430600
_cell_length_c   12.12074445
_cell_angle_alpha   55.82386396
_cell_angle_beta   90.00000000
_cell_angle_gamma   90.00000000
_symmetry_Int_Tables_number   1
_chemical_formula_structural   Na3PH12CO11
_chemical_formula_sum   'Na12 P4 H48 C4 O44'
_cell_volume   1147.64384078
_cell_formula_units_Z   4
loop_
 _symmetry_equiv_pos_site_id
 _symmetry_equiv_pos_as_xyz
  1  'x, y, z'
loop_
 _atom_site_type_symbol
 _atom_site_label
 _atom_site_symmetry_multiplicity
 _atom_site_fract_x
 _atom_site_fract_y
 _atom_site_fract_z
 _atom_site_occupancy
  Na  Na0  1  0.93856500  0.65002300  0.24779300  1
  Na  Na1  1  0.56143500  0.65002300  0.74779300  1
  Na  Na2  1  0.06143500  0.34997700  0.75220700  1
  Na  Na3  1  0.43856500  0.34997700  0.25220700  1
  Na  Na4  1  0.84022900  0.00769100  0.27752600  1
  Na  Na5  1  0.65977100  0.00769100  0.77752600  1
  Na  Na6  1  0.15977100  0.99230900  0.72247400  1
  Na  Na7  1  0.34022900  0.99230900  0.22247400  1
  Na  Na8  1  0.74798100  0.34950800  0.28464800  1
  Na  Na9  1  0.75201900  0.34950800  0.78464800  1
  Na  Na10  1  0.25201900  0.65049200  0.71535200  1
  Na  Na11  1  0.24798100  0.65049200  0.21535200  1
  P  P0  1  0.59446200  0.86537400  0.28372300  1
  P  P1  1  0.90553800  0.86537400  0.78372300  1
  P  P2  1  0.40553800  0.13462600  0.71627700  1
  P  P3  1  0.09446200  0.13462600  0.21627700  1
  H  H0  1  0.75859100  0.59014300  0.40413900  1
  H  H1  1  0.74140900  0.59014300  0.90413900  1
  H  H2  1  0.24140900  0.40985700  0.59586100  1
  H  H3  1  0.25859100  0.40985700  0.09586100  1
  H  H4  1  0.81184900  0.40521800  0.49805600  1
  H  H5  1  0.68815100  0.40521800  0.99805600  1
  H  H6  1  0.18815100  0.59478200  0.50194400  1
  H  H7  1  0.31184900  0.59478200  0.00194400  1
  H  H8  1  0.87209500  0.59467800  0.03795700  1
  H  H9  1  0.62790500  0.59467800  0.53795700  1
  H  H10  1  0.12790500  0.40532200  0.96204300  1
  H  H11  1  0.37209500  0.40532200  0.46204300  1
  H  H12  1  0.92810500  0.40856300  0.12673400  1
  H  H13  1  0.57189500  0.40856300  0.62673400  1
  H  H14  1  0.07189500  0.59143700  0.87326600  1
  H  H15  1  0.42810500  0.59143700  0.37326600  1
  H  H16  1  0.59902300  0.66041300  0.17038100  1
  H  H17  1  0.90097700  0.66041300  0.67038100  1
  H  H18  1  0.40097700  0.33958700  0.82961900  1
  H  H19  1  0.09902300  0.33958700  0.32961900  1
  H  H20  1  0.58670400  0.47346500  0.29447800  1
  H  H21  1  0.91329600  0.47346500  0.79447800  1
  H  H22  1  0.41329600  0.52653500  0.70552200  1
  H  H23  1  0.08670400  0.52653500  0.20552200  1
  H  H24  1  0.55947000  0.21733700  0.51113400  1
  H  H25  1  0.94053000  0.21733700  0.01113400  1
  H  H26  1  0.44053000  0.78266300  0.48886600  1
  H  H27  1  0.05947000  0.78266300  0.98886600  1
  H  H28  1  0.61801100  0.09163700  0.48194100  1
  H  H29  1  0.88198900  0.09163700  0.98194100  1
  H  H30  1  0.38198900  0.90836300  0.51805900  1
  H  H31  1  0.11801100  0.90836300  0.01805900  1
  H  H32  1  0.88501700  0.03572700  0.50269700  1
  H  H33  1  0.61498300  0.03572700  0.00269700  1
  H  H34  1  0.11498300  0.96427300  0.49730300  1
  H  H35  1  0.38501700  0.96427300  0.99730300  1
  H  H36  1  0.95707900  0.15817500  0.37761400  1
  H  H37  1  0.54292100  0.15817500  0.87761400  1
  H  H38  1  0.04292100  0.84182500  0.62238600  1
  H  H39  1  0.45707900  0.84182500  0.12238600  1
  H  H40  1  0.74351400  0.86591800  0.10551000  1
  H  H41  1  0.75648600  0.86591800  0.60551000  1
  H  H42  1  0.25648600  0.13408200  0.89449000  1
  H  H43  1  0.24351400  0.13408200  0.39449000  1
  H  H44  1  0.81259200  0.84559500  0.00480000  1
  H  H45  1  0.68740800  0.84559500  0.50480000  1
  H  H46  1  0.18740800  0.15440500  0.99520000  1
  H  H47  1  0.31259200  0.15440500  0.49520000  1
  C  C0  1  0.58838000  0.10459900  0.21157100  1
  C  C1  1  0.91162000  0.10459900  0.71157100  1
  C  C2  1  0.41162000  0.89540100  0.78842900  1
  C  C3  1  0.08838000  0.89540100  0.28842900  1
  O  O0  1  0.69229200  0.78723300  0.38105100  1
  O  O1  1  0.80770800  0.78723300  0.88105100  1
  O  O2  1  0.30770800  0.21276700  0.61894900  1
  O  O3  1  0.19229200  0.21276700  0.11894900  1
  O  O4  1  0.61167500  0.85642900  0.16004200  1
  O  O5  1  0.88832500  0.85642900  0.66004200  1
  O  O6  1  0.38832500  0.14357100  0.83995800  1
  O  O7  1  0.11167500  0.14357100  0.33995800  1
  O  O8  1  0.48455000  0.78366400  0.35134700  1
  O  O9  1  0.01545000  0.78366400  0.85134700  1
  O  O10  1  0.51545000  0.21633600  0.64865300  1
  O  O11  1  0.98455000  0.21633600  0.14865300  1
  O  O12  1  0.49394600  0.17060800  0.18604300  1
  O  O13  1  0.00605400  0.17060800  0.68604300  1
  O  O14  1  0.50605400  0.82939200  0.81395700  1
  O  O15  1  0.99394600  0.82939200  0.31395700  1
  O  O16  1  0.67881600  0.18385900  0.18971600  1
  O  O17  1  0.82118400  0.18385900  0.68971600  1
  O  O18  1  0.32118400  0.81614100  0.81028400  1
  O  O19  1  0.17881600  0.81614100  0.31028400  1
  O  O20  1  0.79533700  0.49547000  0.40408100  1
  O  O21  1  0.70466300  0.49547000  0.90408100  1
  O  O22  1  0.20466300  0.50453000  0.59591900  1
  O  O23  1  0.29533700  0.50453000  0.09591900  1
  O  O24  1  0.89035900  0.50028900  0.13043300  1
  O  O25  1  0.60964100  0.50028900  0.63043300  1
  O  O26  1  0.10964100  0.49971100  0.86956700  1
  O  O27  1  0.39035900  0.49971100  0.36956700  1
  O  O28  1  0.59459800  0.53815200  0.19757900  1
  O  O29  1  0.90540200  0.53815200  0.69757900  1
  O  O30  1  0.40540200  0.46184800  0.80242100  1
  O  O31  1  0.09459800  0.46184800  0.30242100  1
  O  O32  1  0.58795100  0.21075900  0.43720300  1
  O  O33  1  0.91204900  0.21075900  0.93720300  1
  O  O34  1  0.41204900  0.78924100  0.56279700  1
  O  O35  1  0.08795100  0.78924100  0.06279700  1
  O  O36  1  0.88080700  0.13198300  0.40629300  1
  O  O37  1  0.61919300  0.13198300  0.90629300  1
  O  O38  1  0.11919300  0.86801700  0.59370700  1
  O  O39  1  0.38080700  0.86801700  0.09370700  1
  O  O40  1  0.81891700  0.87510300  0.07139900  1
  O  O41  1  0.68108300  0.87510300  0.57139900  1
  O  O42  1  0.18108300  0.12489700  0.92860100  1
  O  O43  1  0.31891700  0.12489700  0.42860100  1
loop_
_geom_bond_atom_site_label_1
_geom_bond_atom_site_label_2
_geom_bond_distance
_geom_bond_site_symmetry_2
Na0 O15 2.324369 1_555
Na0 O20 2.386269 1_555
Na0 O31 2.425359 1_655
Na0 O40 2.468178 1_555
Na0 O24 2.558964 1_555
Na0 O35 2.609970 1_655
Na1 O14 2.324369 1_555
Na1 O21 2.386269 1_555
Na1 O30 2.425359 1_555
Na1 O41 2.468178 1_555
Na1 O25 2.558964 1_555
Na1 O34 2.609970 1_555
Na2 O13 2.324369 1_555
Na2 O22 2.386269 1_555
Na2 O29 2.425359 1_455
Na2 O42 2.468178 1_555
Na2 O26 2.558964 1_555
Na2 O33 2.609970 1_455
Na3 O12 2.324369 1_555
Na3 O23 2.386269 1_555
Na3 O28 2.425359 1_555
Na3 O43 2.468178 1_555
Na3 O27 2.558964 1_555
Na3 O32 2.609970 1_555
Na4 O15 2.386750 1_545
Na4 O16 2.407656 1_555
Na4 O11 2.439442 1_555
Na4 O36 2.460646 1_555
Na4 O0 2.490071 1_545
Na5 O14 2.386750 1_545
Na5 O17 2.407656 1_555
Na5 O10 2.439442 1_555
Na5 O37 2.460646 1_555
Na5 O1 2.490071 1_545
Na6 O13 2.386750 1_565
Na6 O18 2.407656 1_555
Na6 O9 2.439442 1_555
Na6 O38 2.460646 1_555
Na6 O2 2.490071 1_565
Na7 O12 2.386750 1_565
Na7 O19 2.407656 1_555
Na7 O8 2.439442 1_555
Na7 O39 2.460646 1_555
Na7 O3 2.490071 1_565
Na8 O24 2.361687 1_555
Na8 O36 2.363570 1_555
Na8 O28 2.381127 1_555
Na8 O32 2.504201 1_555
Na8 O16 2.534037 1_555
Na8 O20 2.548256 1_555
Na9 O25 2.361687 1_555
Na9 O37 2.363570 1_555
Na9 O29 2.381127 1_555
Na9 O33 2.504201 1_555
Na9 O17 2.534037 1_555
Na9 O21 2.548256 1_555
Na10 O26 2.361687 1_555
Na10 O38 2.363570 1_555
Na10 O30 2.381127 1_555
Na10 O34 2.504201 1_555
Na10 O18 2.534037 1_555
Na10 O22 2.548256 1_555
Na11 O27 2.361687 1_555
Na11 O39 2.363570 1_555
Na11 O31 2.381127 1_555
Na11 O35 2.504201 1_555
Na11 O19 2.534037 1_555
Na11 O23 2.548256 1_555
H0 O20 0.991036 1_555
H1 O21 0.991036 1_555
H2 O22 0.991036 1_555
H3 O23 0.991036 1_555
H4 O20 0.984634 1_555
H5 O21 0.984634 1_555
H6 O22 0.984634 1_555
H7 O23 0.984634 1_555
H8 O24 0.986178 1_555
H9 O25 0.986178 1_555
H10 O26 0.986178 1_555
H11 O27 0.986178 1_555
H12 O24 0.995033 1_555
H13 O25 0.995033 1_555
H14 O26 0.995033 1_555
H15 O27 0.995033 1_555
H16 O28 0.993318 1_555
H17 O29 0.993318 1_555
H18 O30 0.993318 1_555
H19 O31 0.993318 1_555
H20 O28 0.978177 1_555
H20 Na8 2.329970 1_555
H20 Na3 2.358134 1_555
H21 O29 0.978177 1_555
H21 Na9 2.329970 1_555
H21 Na2 2.358134 1_655
H22 O30 0.978177 1_555
H22 Na10 2.329970 1_555
H22 Na1 2.358134 1_555
H23 O31 0.978177 1_555
H23 Na11 2.329970 1_555
H23 Na0 2.358134 1_455
H24 O32 0.995439 1_555
H25 O33 0.995439 1_554
H26 O34 0.995439 1_555
H27 O35 0.995439 1_556
H28 O32 0.992772 1_555
H29 O33 0.992772 1_555
H30 O34 0.992772 1_555
H31 O35 0.992772 1_555
H32 O36 0.997438 1_555
H33 O37 0.997438 1_554
H34 O38 0.997438 1_555
H35 O39 0.997438 1_556
H36 O36 0.981518 1_555
H37 O37 0.981518 1_555
H38 O38 0.981518 1_555
H39 O39 0.981518 1_555
H40 O40 0.998460 1_555
H41 O41 0.998460 1_555
H42 O42 0.998460 1_555
H43 O43 0.998460 1_555
H44 O40 0.991191 1_555
H45 O41 0.991191 1_555
H46 O42 0.991191 1_555
H47 O43 0.991191 1_555
C0 O12 1.267443 1_555
C0 O16 1.276823 1_555
C0 P0 1.883101 1_545
C1 O13 1.267443 1_655
C1 O17 1.276823 1_555
C1 P1 1.883101 1_545
C2 O14 1.267443 1_555
C2 O18 1.276823 1_555
C2 P2 1.883101 1_565
C3 O15 1.267443 1_455
C3 O19 1.276823 1_555
C3 P3 1.883101 1_565
O0 P0 1.549753 1_555
O1 P1 1.549753 1_555
O2 P2 1.549753 1_555
O3 P3 1.549753 1_555
O4 P0 1.561831 1_555
O5 P1 1.561831 1_555
O6 P2 1.561831 1_555
O7 P3 1.561831 1_555
O8 P0 1.540821 1_555
O9 P1 1.540821 1_455
O10 P2 1.540821 1_555
O11 P3 1.540821 1_655
