# generated using pymatgen
data_Te2MoW3(Se2S)2
_symmetry_space_group_name_H-M   'P 1'
_cell_length_a   3.33932004
_cell_length_b   3.33932004
_cell_length_c   38.74864800
_cell_angle_alpha   90.00000000
_cell_angle_beta   90.00000000
_cell_angle_gamma   120.00000083
_symmetry_Int_Tables_number   1
_chemical_formula_structural   Te2MoW3(Se2S)2
_chemical_formula_sum   'Te2 Mo1 W3 Se4 S2'
_cell_volume   374.19955789
_cell_formula_units_Z   1
loop_
 _symmetry_equiv_pos_site_id
 _symmetry_equiv_pos_as_xyz
  1  'x, y, z'
loop_
 _atom_site_type_symbol
 _atom_site_label
 _atom_site_symmetry_multiplicity
 _atom_site_fract_x
 _atom_site_fract_y
 _atom_site_fract_z
 _atom_site_occupancy
  Te  Te0  1  0.33333300  0.66666700  0.33081300  1
  Te  Te1  1  0.33333300  0.66666700  0.23283900  1
  Mo  Mo0  1  0.66666700  0.33333300  0.28179100  1
  W  W0  1  0.33333300  0.66666700  0.09391500  1
  W  W1  1  0.33333300  0.66666700  0.46966100  1
  W  W2  1  0.66666700  0.33333300  0.65753800  1
  Se  Se0  1  0.33333300  0.66666700  0.70082900  1
  Se  Se1  1  0.66666700  0.33333300  0.05062000  1
  Se  Se2  1  0.66666700  0.33333300  0.13720300  1
  Se  Se3  1  0.33333300  0.66666700  0.61420500  1
  S  S0  1  0.66666700  0.33333300  0.43034900  1
  S  S1  1  0.66666700  0.33333300  0.50898500  1
loop_
_geom_bond_atom_site_label_1
_geom_bond_atom_site_label_2
_geom_bond_distance
_geom_bond_site_symmetry_2
Mo0 Te1 2.704617 1_545
Mo0 Te1 2.704617 1_655
Mo0 Te1 2.704621 1_555
Mo0 Te0 2.706520 1_545
Mo0 Te0 2.706520 1_655
Mo0 Te0 2.706524 1_555
Se0 W2 2.555564 1_455
Se0 W2 2.555564 1_565
Se0 W2 2.555569 1_555
Se1 W0 2.555666 1_545
Se1 W0 2.555666 1_655
Se1 W0 2.555671 1_555
Se2 W0 2.555488 1_545
Se2 W0 2.555488 1_655
Se2 W0 2.555493 1_555
Se3 W2 2.556633 1_455
Se3 W2 2.556633 1_565
Se3 W2 2.556637 1_555
S0 W1 2.457115 1_545
S0 W1 2.457115 1_655
S0 W1 2.457120 1_555
S1 W1 2.457403 1_545
S1 W1 2.457403 1_655
S1 W1 2.457408 1_555
