# generated using pymatgen
data_Li5Mn(CoO4)2
_symmetry_space_group_name_H-M   'P 1'
_cell_length_a   5.76842928
_cell_length_b   5.76842928
_cell_length_c   5.04718602
_cell_angle_alpha   74.37757914
_cell_angle_beta   74.37757914
_cell_angle_gamma   60.19175190
_symmetry_Int_Tables_number   1
_chemical_formula_structural   Li5Mn(CoO4)2
_chemical_formula_sum   'Li5 Mn1 Co2 O8'
_cell_volume   138.48519030
_cell_formula_units_Z   1
loop_
 _symmetry_equiv_pos_site_id
 _symmetry_equiv_pos_as_xyz
  1  'x, y, z'
loop_
 _atom_site_type_symbol
 _atom_site_label
 _atom_site_symmetry_multiplicity
 _atom_site_fract_x
 _atom_site_fract_y
 _atom_site_fract_z
 _atom_site_occupancy
  Li  Li0  1  0.74989400  0.74989400  0.50187600  1
  Li  Li1  1  0.25517400  0.74482600  0.50000000  1
  Li  Li2  1  0.74482600  0.25517400  0.50000000  1
  Li  Li3  1  0.25010600  0.25010600  0.49812400  1
  Li  Li4  1  0.50000000  0.50000000  0.00000000  1
  Mn  Mn0  1  0.00000000  0.00000000  0.00000000  1
  Co  Co0  1  0.50000000  0.00000000  0.00000000  1
  Co  Co1  1  0.00000000  0.50000000  0.00000000  1
  O  O0  1  0.64072900  0.64072900  0.21999800  1
  O  O1  1  0.11168000  0.63850300  0.21787600  1
  O  O2  1  0.63850300  0.11168000  0.21787600  1
  O  O3  1  0.11492400  0.11492400  0.24547100  1
  O  O4  1  0.88507600  0.88507600  0.75452900  1
  O  O5  1  0.36149700  0.88832000  0.78212400  1
  O  O6  1  0.88832000  0.36149700  0.78212400  1
  O  O7  1  0.35927100  0.35927100  0.78000200  1
loop_
_geom_bond_atom_site_label_1
_geom_bond_atom_site_label_2
_geom_bond_distance
_geom_bond_site_symmetry_2
Li0 O0 2.043621 1_555
Li0 O1 2.091540 1_655
Li0 O2 2.091540 1_565
Li0 O4 2.125537 1_555
Li0 O5 2.186498 1_555
Li0 O6 2.186498 1_555
Li1 O3 2.056226 1_565
Li1 O4 2.056226 1_455
Li1 O5 2.167666 1_555
Li1 O1 2.167666 1_555
Li1 O7 2.177299 1_555
Li1 O0 2.177299 1_555
Li2 O4 2.056226 1_545
Li2 O3 2.056226 1_655
Li2 O2 2.167666 1_555
Li2 O6 2.167666 1_555
Li2 O7 2.177299 1_555
Li2 O0 2.177299 1_555
Li3 O7 2.043621 1_555
Li3 O5 2.091540 1_545
Li3 O6 2.091540 1_455
Li3 O3 2.125537 1_555
Li3 O2 2.186498 1_555
Li3 O1 2.186498 1_555
Li4 O0 2.043782 1_555
Li4 O7 2.043782 1_554
Li4 O1 2.057282 1_555
Li4 O2 2.057282 1_555
Li4 O6 2.057282 1_554
Li4 O5 2.057282 1_554
Mn0 O3 1.932764 1_555
Mn0 O4 1.932764 1_444
Mn0 O1 1.945136 1_545
Mn0 O2 1.945136 1_455
Mn0 O5 1.945136 1_544
Mn0 O6 1.945136 1_454
Co0 O5 1.905002 1_544
Co0 O2 1.905002 1_555
Co0 O7 1.939165 1_554
Co0 O0 1.939165 1_545
Co0 O4 2.098730 1_544
Co0 O3 2.098730 1_555
Co1 O6 1.905002 1_454
Co1 O1 1.905002 1_555
Co1 O0 1.939165 1_455
Co1 O7 1.939165 1_554
Co1 O4 2.098730 1_454
Co1 O3 2.098730 1_555
