# generated using pymatgen
data_Yb3AlC
_symmetry_space_group_name_H-M   'P 1'
_cell_length_a   5.03456300
_cell_length_b   5.03456300
_cell_length_c   5.03456300
_cell_angle_alpha   90.00000000
_cell_angle_beta   90.00000000
_cell_angle_gamma   90.00000000
_symmetry_Int_Tables_number   1
_chemical_formula_structural   Yb3AlC
_chemical_formula_sum   'Yb3 Al1 C1'
_cell_volume   127.61018530
_cell_formula_units_Z   1
loop_
 _symmetry_equiv_pos_site_id
 _symmetry_equiv_pos_as_xyz
  1  'x, y, z'
loop_
 _atom_site_type_symbol
 _atom_site_label
 _atom_site_symmetry_multiplicity
 _atom_site_fract_x
 _atom_site_fract_y
 _atom_site_fract_z
 _atom_site_occupancy
  Yb  Yb0  1  0.50000000  0.00000000  0.00000000  1
  Yb  Yb1  1  0.00000000  0.50000000  0.00000000  1
  Yb  Yb2  1  0.00000000  0.00000000  0.50000000  1
  Al  Al0  1  0.50000000  0.50000000  0.50000000  1
  C  C0  1  0.00000000  0.00000000  0.00000000  1
loop_
_geom_bond_atom_site_label_1
_geom_bond_atom_site_label_2
_geom_bond_distance
_geom_bond_site_symmetry_2
Al0 Yb0 3.559974 1_556
Al0 Yb2 3.559974 1_655
Al0 Yb2 3.559974 1_665
Al0 Yb0 3.559974 1_566
Al0 Yb1 3.559974 1_655
Al0 Yb1 3.559974 1_556
Al0 Yb1 3.559974 1_555
Al0 Yb1 3.559974 1_656
Al0 Yb0 3.559974 1_565
Al0 Yb2 3.559974 1_555
Al0 Yb0 3.559974 1_555
Al0 Yb2 3.559974 1_565
C0 Yb2 2.517282 1_554
C0 Yb1 2.517282 1_545
C0 Yb1 2.517282 1_555
C0 Yb2 2.517282 1_555
C0 Yb0 2.517282 1_455
C0 Yb0 2.517282 1_555
