# generated using pymatgen
data_UTcC2
_symmetry_space_group_name_H-M   'P 1'
_cell_length_a   3.19059234
_cell_length_b   5.62771003
_cell_length_c   10.95622168
_cell_angle_alpha   90.00000000
_cell_angle_beta   90.00000000
_cell_angle_gamma   90.00000000
_symmetry_Int_Tables_number   1
_chemical_formula_structural   UTcC2
_chemical_formula_sum   'U4 Tc4 C8'
_cell_volume   196.72694202
_cell_formula_units_Z   4
loop_
 _symmetry_equiv_pos_site_id
 _symmetry_equiv_pos_as_xyz
  1  'x, y, z'
loop_
 _atom_site_type_symbol
 _atom_site_label
 _atom_site_symmetry_multiplicity
 _atom_site_fract_x
 _atom_site_fract_y
 _atom_site_fract_z
 _atom_site_occupancy
  U  U0  1  0.25000000  0.08150265  0.85794406  1
  U  U1  1  0.25000000  0.58150209  0.64205464  1
  U  U2  1  0.75000000  0.91849791  0.14205464  1
  U  U3  1  0.75000000  0.41849735  0.35794406  1
  Tc  Tc0  1  0.25000000  0.42230773  0.10187799  1
  Tc  Tc1  1  0.25000000  0.92231157  0.39812123  1
  Tc  Tc2  1  0.75000000  0.57768843  0.89812123  1
  Tc  Tc3  1  0.75000000  0.07769227  0.60187799  1
  C  C0  1  0.25000000  0.16160346  0.24247865  1
  C  C1  1  0.25000000  0.66157345  0.25752559  1
  C  C2  1  0.75000000  0.83842655  0.75752559  1
  C  C3  1  0.75000000  0.33839654  0.74247865  1
  C  C4  1  0.25000000  0.74085382  0.99275567  1
  C  C5  1  0.25000000  0.24085420  0.50724117  1
  C  C6  1  0.75000000  0.25914580  0.00724117  1
  C  C7  1  0.75000000  0.75914618  0.49275567  1
loop_
_geom_bond_atom_site_label_1
_geom_bond_atom_site_label_2
_geom_bond_distance
_geom_bond_site_symmetry_2
C0 Tc0 2.127340 1_555
C0 Tc1 2.172878 1_545
C0 U2 2.372200 1_445
C0 U2 2.372200 1_545
C0 U3 2.497094 1_455
C0 U3 2.497094 1_555
C1 Tc1 2.127431 1_555
C1 Tc0 2.172830 1_555
C1 U3 2.372076 1_455
C1 U3 2.372076 1_555
C1 U2 2.497224 1_555
C1 U2 2.497224 1_455
C2 Tc2 2.127431 1_555
C2 Tc3 2.172830 1_565
C2 U0 2.372076 1_565
C2 U0 2.372076 1_665
C2 U1 2.497224 1_655
C2 U1 2.497224 1_555
C3 Tc3 2.127340 1_555
C3 Tc2 2.172878 1_555
C3 U1 2.372200 1_655
C3 U1 2.372200 1_555
C3 U0 2.497094 1_555
C3 U0 2.497094 1_655
C4 Tc2 2.112623 1_455
C4 Tc2 2.112623 1_555
C4 Tc0 2.154786 1_556
C4 U0 2.420077 1_565
C4 U2 2.494016 1_556
C4 U2 2.494016 1_456
C5 Tc3 2.112628 1_555
C5 Tc3 2.112628 1_455
C5 Tc1 2.154755 1_545
C5 U1 2.420085 1_555
C5 U3 2.494000 1_455
C5 U3 2.494000 1_555
C6 Tc0 2.112628 1_555
C6 Tc0 2.112628 1_655
C6 Tc2 2.154755 1_554
C6 U2 2.420085 1_545
C6 U0 2.494000 1_654
C6 U0 2.494000 1_554
C7 Tc1 2.112623 1_655
C7 Tc1 2.112623 1_555
C7 Tc3 2.154786 1_565
C7 U3 2.420077 1_555
C7 U1 2.494016 1_655
C7 U1 2.494016 1_555
