# generated using pymatgen
data_Ba2MnV2HO9
_symmetry_space_group_name_H-M   'P 1'
_cell_length_a   6.33034400
_cell_length_b   8.00093267
_cell_length_c   9.16364235
_cell_angle_alpha   111.92460299
_cell_angle_beta   90.00000000
_cell_angle_gamma   90.00000000
_symmetry_Int_Tables_number   1
_chemical_formula_structural   Ba2MnV2HO9
_chemical_formula_sum   'Ba4 Mn2 V4 H2 O18'
_cell_volume   430.55871162
_cell_formula_units_Z   2
loop_
 _symmetry_equiv_pos_site_id
 _symmetry_equiv_pos_as_xyz
  1  'x, y, z'
loop_
 _atom_site_type_symbol
 _atom_site_label
 _atom_site_symmetry_multiplicity
 _atom_site_fract_x
 _atom_site_fract_y
 _atom_site_fract_z
 _atom_site_occupancy
  Ba  Ba0  1  0.75000000  0.32348400  0.41112800  1
  Ba  Ba1  1  0.25000000  0.67651600  0.58887200  1
  Ba  Ba2  1  0.75000000  0.73055600  0.23939000  1
  Ba  Ba3  1  0.25000000  0.26944400  0.76061000  1
  Mn  Mn0  1  0.50000000  0.00000000  0.00000000  1
  Mn  Mn1  1  0.00000000  0.00000000  0.00000000  1
  V  V0  1  0.25000000  0.04708000  0.33103400  1
  V  V1  1  0.75000000  0.95292000  0.66896600  1
  V  V2  1  0.75000000  0.55253100  0.82542000  1
  V  V3  1  0.25000000  0.44746900  0.17458000  1
  H  H0  1  0.75000000  0.25634600  0.01340000  1
  H  H1  1  0.25000000  0.74365400  0.98660000  1
  O  O0  1  0.48768800  0.00304800  0.21445400  1
  O  O1  1  0.98768800  0.99695200  0.78554600  1
  O  O2  1  0.51231200  0.99695200  0.78554600  1
  O  O3  1  0.01231200  0.00304800  0.21445400  1
  O  O4  1  0.53052000  0.49475200  0.70294800  1
  O  O5  1  0.03052000  0.50524800  0.29705200  1
  O  O6  1  0.46948000  0.50524800  0.29705200  1
  O  O7  1  0.96948000  0.49475200  0.70294800  1
  O  O8  1  0.75000000  0.78756300  0.94806300  1
  O  O9  1  0.25000000  0.21243700  0.05193700  1
  O  O10  1  0.25000000  0.26750600  0.45373700  1
  O  O11  1  0.75000000  0.73249400  0.54626300  1
  O  O12  1  0.75000000  0.16317800  0.06309500  1
  O  O13  1  0.25000000  0.83682200  0.93690500  1
  O  O14  1  0.25000000  0.92398200  0.44668100  1
  O  O15  1  0.75000000  0.07601800  0.55331900  1
  O  O16  1  0.75000000  0.43354300  0.94854900  1
  O  O17  1  0.25000000  0.56645700  0.05145100  1
loop_
_geom_bond_atom_site_label_1
_geom_bond_atom_site_label_2
_geom_bond_distance
_geom_bond_site_symmetry_2
Ba0 O6 2.737953 1_555
Ba0 O5 2.737953 1_655
Ba0 O15 2.746740 1_555
Ba0 O4 2.867518 1_555
Ba0 O7 2.867518 1_555
Ba0 O12 2.960014 1_555
Ba0 O0 3.021246 1_555
Ba0 O3 3.021246 1_655
Ba0 O11 3.035828 1_555
Ba0 O10 3.240672 1_555
Ba0 O10 3.240672 1_655
Ba1 O7 2.737953 1_455
Ba1 O4 2.737953 1_555
Ba1 O14 2.746740 1_555
Ba1 O6 2.867518 1_555
Ba1 O5 2.867518 1_555
Ba1 O13 2.960014 1_555
Ba1 O2 3.021246 1_555
Ba1 O1 3.021246 1_455
Ba1 O10 3.035828 1_555
Ba1 O11 3.240672 1_555
Ba1 O11 3.240672 1_455
Ba2 O6 2.719113 1_555
Ba2 O5 2.719113 1_655
Ba2 O11 2.806322 1_555
Ba2 O0 2.816881 1_565
Ba2 O3 2.816881 1_665
Ba2 O16 2.832074 1_554
Ba2 O8 2.871269 1_554
Ba2 O15 3.158726 1_565
Ba3 O7 2.719113 1_455
Ba3 O4 2.719113 1_555
Ba3 O10 2.806322 1_555
Ba3 O2 2.816881 1_545
Ba3 O1 2.816881 1_445
Ba3 O17 2.832074 1_556
Ba3 O9 2.871269 1_556
Ba3 O14 3.158726 1_545
Mn0 O0 1.957757 1_555
Mn0 O2 1.957757 1_544
Mn0 O12 1.994917 1_555
Mn0 O13 1.994917 1_544
Mn0 O8 2.239633 1_544
Mn0 O9 2.239633 1_555
Mn1 O1 1.957757 1_444
Mn1 O3 1.957757 1_555
Mn1 O12 1.994917 1_455
Mn1 O13 1.994917 1_544
Mn1 O8 2.239633 1_444
Mn1 O9 2.239633 1_555
H0 O12 1.008238 1_555
H1 O13 1.008238 1_555
O0 V0 1.802299 1_555
O1 V1 1.802299 1_555
O2 V1 1.802299 1_555
O3 V0 1.802299 1_555
O4 V2 1.736718 1_555
O5 V3 1.736718 1_555
O6 V3 1.736718 1_555
O7 V2 1.736718 1_555
O8 V2 1.794721 1_555
O9 V3 1.794721 1_555
O10 V0 1.701105 1_555
O11 V1 1.701105 1_555
O14 V0 1.694854 1_565
O15 V1 1.694854 1_545
O16 V2 1.726724 1_555
O17 V3 1.726724 1_555
