# generated using pymatgen
data_LiMg6B
_symmetry_space_group_name_H-M   'P 1'
_cell_length_a   4.70365800
_cell_length_b   6.22107200
_cell_length_c   10.63270900
_cell_angle_alpha   90.00000000
_cell_angle_beta   90.00000000
_cell_angle_gamma   90.00000000
_symmetry_Int_Tables_number   1
_chemical_formula_structural   LiMg6B
_chemical_formula_sum   'Li2 Mg12 B2'
_cell_volume   311.13215192
_cell_formula_units_Z   2
loop_
 _symmetry_equiv_pos_site_id
 _symmetry_equiv_pos_as_xyz
  1  'x, y, z'
loop_
 _atom_site_type_symbol
 _atom_site_label
 _atom_site_symmetry_multiplicity
 _atom_site_fract_x
 _atom_site_fract_y
 _atom_site_fract_z
 _atom_site_occupancy
  Li  Li0  1  0.50000000  0.00000000  0.83285300  1
  Li  Li1  1  0.50000000  0.50000000  0.33285300  1
  Mg  Mg0  1  0.50000000  0.24802000  0.58460500  1
  Mg  Mg1  1  0.50000000  0.75198000  0.58460500  1
  Mg  Mg2  1  0.00000000  0.24041600  0.40995900  1
  Mg  Mg3  1  0.00000000  0.75958400  0.40995900  1
  Mg  Mg4  1  0.00000000  0.00000000  0.66934200  1
  Mg  Mg5  1  0.00000000  0.00000000  0.17497100  1
  Mg  Mg6  1  0.50000000  0.74802000  0.08460500  1
  Mg  Mg7  1  0.50000000  0.25198000  0.08460500  1
  Mg  Mg8  1  0.00000000  0.74041600  0.90995900  1
  Mg  Mg9  1  0.00000000  0.25958400  0.90995900  1
  Mg  Mg10  1  0.00000000  0.50000000  0.16934200  1
  Mg  Mg11  1  0.00000000  0.50000000  0.67497100  1
  B  B0  1  0.50000000  0.00000000  0.33371000  1
  B  B1  1  0.50000000  0.50000000  0.83371000  1
loop_
_geom_bond_atom_site_label_1
_geom_bond_atom_site_label_2
_geom_bond_distance
_geom_bond_site_symmetry_2
Li0 Mg4 2.924672 1_555
Li0 Mg4 2.924672 1_655
Li0 Mg8 2.968353 1_645
Li0 Mg8 2.968353 1_545
Li0 Mg9 2.968353 1_555
Li0 Mg9 2.968353 1_655
Li0 Mg1 3.057436 1_545
Li0 Mg0 3.057436 1_555
Li0 Mg7 3.102034 1_556
Li0 Mg6 3.102034 1_546
Li1 Mg10 2.924672 1_555
Li1 Mg10 2.924672 1_655
Li1 Mg3 2.968353 1_555
Li1 Mg3 2.968353 1_655
Li1 Mg2 2.968353 1_655
Li1 Mg2 2.968353 1_555
Li1 Mg7 3.057436 1_555
Li1 Mg6 3.057436 1_555
Li1 Mg0 3.102034 1_555
Li1 Mg1 3.102034 1_555
Mg0 Mg4 2.953569 1_555
Mg0 Mg4 2.953569 1_655
Mg0 Mg11 2.985235 1_655
Mg0 Mg11 2.985235 1_555
Mg0 Mg2 2.996938 1_655
Mg0 Mg2 2.996938 1_555
Mg0 Mg1 3.085901 1_545
Mg0 Mg1 3.135171 1_555
Mg1 Mg4 2.953569 1_665
Mg1 Mg4 2.953569 1_565
Mg1 Mg11 2.985235 1_555
Mg1 Mg11 2.985235 1_655
Mg1 Mg3 2.996938 1_555
Mg1 Mg3 2.996938 1_655
Mg2 Mg4 3.137389 1_555
Mg3 Mg4 3.137389 1_565
Mg4 Mg9 3.025448 1_555
Mg4 Mg8 3.025448 1_545
Mg5 Mg6 2.985235 1_545
Mg5 Mg7 2.985235 1_455
Mg5 Mg7 2.985235 1_555
Mg5 Mg6 2.985235 1_445
Mg6 Mg8 2.996938 1_554
Mg6 Mg8 2.996938 1_654
Mg6 Mg7 3.085901 1_555
Mg6 Mg7 3.135171 1_565
Mg7 Mg9 2.996938 1_654
Mg7 Mg9 2.996938 1_554
Mg10 Mg7 2.953569 1_455
Mg10 Mg7 2.953569 1_555
Mg10 Mg6 2.953569 1_455
Mg10 Mg6 2.953569 1_555
Mg10 Mg3 3.025448 1_555
Mg10 Mg2 3.025448 1_555
Mg10 Mg5 3.111112 1_555
Mg10 Mg5 3.111112 1_565
Mg10 Mg8 3.137389 1_554
Mg10 Mg9 3.137389 1_554
Mg11 Mg4 3.111112 1_555
Mg11 Mg4 3.111112 1_565
B0 Mg5 2.894798 1_555
B0 Mg5 2.894798 1_655
B0 Mg2 2.902644 1_655
B0 Mg2 2.902644 1_555
B0 Mg3 2.902644 1_545
B0 Mg3 2.902644 1_645
B0 Mg6 3.077780 1_545
B0 Mg7 3.077780 1_555
B0 Mg1 3.081766 1_545
B0 Mg0 3.081766 1_555
B1 Mg11 2.894798 1_555
B1 Mg11 2.894798 1_655
B1 Mg8 2.902644 1_555
B1 Mg8 2.902644 1_655
B1 Mg9 2.902644 1_555
B1 Mg9 2.902644 1_655
B1 Mg0 3.077780 1_555
B1 Mg1 3.077780 1_555
B1 Mg7 3.081766 1_556
B1 Mg6 3.081766 1_556
