# generated using pymatgen
data_Gd2Mo2C3
_symmetry_space_group_name_H-M   'P 1'
_cell_length_a   3.36199430
_cell_length_b   5.76694032
_cell_length_c   6.18445652
_cell_angle_alpha   112.54028850
_cell_angle_beta   105.77203602
_cell_angle_gamma   90.00000204
_symmetry_Int_Tables_number   1
_chemical_formula_structural   Gd2Mo2C3
_chemical_formula_sum   'Gd2 Mo2 C3'
_cell_volume   105.84282554
_cell_formula_units_Z   1
loop_
 _symmetry_equiv_pos_site_id
 _symmetry_equiv_pos_as_xyz
  1  'x, y, z'
loop_
 _atom_site_type_symbol
 _atom_site_label
 _atom_site_symmetry_multiplicity
 _atom_site_fract_x
 _atom_site_fract_y
 _atom_site_fract_z
 _atom_site_occupancy
  Gd  Gd0  1  0.39160636  0.18150146  0.78321072  1
  Gd  Gd1  1  0.60839364  0.81849854  0.21678928  1
  Mo  Mo0  1  0.15799664  0.32438355  0.31599427  1
  Mo  Mo1  1  0.84200336  0.67561645  0.68400573  1
  C  C0  1  0.00000000  -0.00000000  0.00000000  1
  C  C1  1  0.25029903  0.73047859  0.50059606  1
  C  C2  1  0.74970097  0.26952141  0.49940394  1
loop_
_geom_bond_atom_site_label_1
_geom_bond_atom_site_label_2
_geom_bond_distance
_geom_bond_site_symmetry_2
C0 Mo1 2.057589 1_444
C0 Mo0 2.057589 1_555
C0 Gd1 2.581079 1_545
C0 Gd0 2.581079 1_454
C0 Gd0 2.581085 1_554
C0 Gd1 2.581085 1_445
C1 Mo1 2.095838 1_555
C1 Mo1 2.095842 1_455
C1 Mo0 2.154504 1_555
C1 Gd0 2.471667 1_565
C1 Gd1 2.572847 1_555
C1 Gd1 2.572855 1_455
C2 Mo0 2.095838 1_555
C2 Mo0 2.095842 1_655
C2 Mo1 2.154504 1_555
C2 Gd1 2.471667 1_545
C2 Gd0 2.572847 1_555
C2 Gd0 2.572855 1_655
