# generated using pymatgen
data_YSiPt2
_symmetry_space_group_name_H-M   'P 1'
_cell_length_a   5.51541521
_cell_length_b   6.92913122
_cell_length_c   7.31309663
_cell_angle_alpha   90.00000000
_cell_angle_beta   89.99999481
_cell_angle_gamma   90.00000000
_symmetry_Int_Tables_number   1
_chemical_formula_structural   YSiPt2
_chemical_formula_sum   'Y4 Si4 Pt8'
_cell_volume   279.48487515
_cell_formula_units_Z   4
loop_
 _symmetry_equiv_pos_site_id
 _symmetry_equiv_pos_as_xyz
  1  'x, y, z'
loop_
 _atom_site_type_symbol
 _atom_site_label
 _atom_site_symmetry_multiplicity
 _atom_site_fract_x
 _atom_site_fract_y
 _atom_site_fract_z
 _atom_site_occupancy
  Y  Y0  1  0.36337905  0.75000084  0.02614312  1
  Y  Y1  1  0.13666895  0.75000049  0.52616465  1
  Y  Y2  1  0.63662095  0.25000084  0.97385688  1
  Y  Y3  1  0.86333105  0.25000049  0.47383535  1
  Si  Si0  1  0.63625441  0.75000106  0.37799935  1
  Si  Si1  1  0.86374995  0.74999945  0.87805204  1
  Si  Si2  1  0.36374559  0.25000106  0.62200065  1
  Si  Si3  1  0.13625005  0.24999945  0.12194796  1
  Pt  Pt0  1  0.90851112  0.55126924  0.18021120  1
  Pt  Pt1  1  0.59145621  0.94876109  0.68027583  1
  Pt  Pt2  1  0.09148888  0.05126924  0.81978880  1
  Pt  Pt3  1  0.40854379  0.44876109  0.31972417  1
  Pt  Pt4  1  0.09148562  0.44872730  0.81978595  1
  Pt  Pt5  1  0.40854868  0.05123852  0.31971910  1
  Pt  Pt6  1  0.90851438  0.94872730  0.18021405  1
  Pt  Pt7  1  0.59145132  0.55123852  0.68028090  1
loop_
_geom_bond_atom_site_label_1
_geom_bond_atom_site_label_2
_geom_bond_distance
_geom_bond_site_symmetry_2
Si0 Y1 2.960814 1_555
Si0 Y1 2.965070 1_655
Si0 Y0 2.980979 1_555
Si1 Y0 2.960840 1_656
Si1 Y0 2.964648 1_556
Si1 Y1 2.981297 1_655
Si2 Y3 2.960814 1_555
Si2 Y3 2.965070 1_455
Si2 Y2 2.980979 1_555
Si3 Y2 2.960840 1_454
Si3 Y2 2.964648 1_554
Si3 Y3 2.981297 1_455
Pt0 Si3 2.473274 1_655
Pt0 Si0 2.498653 1_555
Pt0 Si1 2.615342 1_554
Pt0 Y2 2.980585 1_554
Pt0 Y3 3.005126 1_555
Pt0 Y0 3.075666 1_655
Pt0 Y1 3.143344 1_655
Pt1 Si2 2.473036 1_565
Pt1 Si1 2.498839 1_555
Pt1 Si0 2.616195 1_555
Pt1 Y3 2.980721 1_565
Pt1 Y2 3.004754 1_565
Pt1 Y1 3.075509 1_555
Pt1 Y0 3.142747 1_556
Pt2 Si1 2.473274 1_445
Pt2 Si2 2.498653 1_555
Pt2 Si3 2.615342 1_556
Pt2 Y0 2.980585 1_546
Pt2 Y1 3.005126 1_545
Pt2 Y2 3.075666 1_455
Pt2 Y3 3.143344 1_455
Pt3 Si0 2.473036 1_555
Pt3 Si3 2.498839 1_555
Pt3 Si2 2.616195 1_555
Pt3 Y1 2.980721 1_555
Pt3 Y0 3.004754 1_555
Pt3 Y3 3.075509 1_555
Pt3 Y2 3.142747 1_554
Pt4 Si1 2.473283 1_455
Pt4 Si2 2.498630 1_555
Pt4 Si3 2.615352 1_556
Pt4 Y0 2.980629 1_556
Pt4 Y1 3.005134 1_555
Pt4 Y2 3.075643 1_455
Pt4 Y3 3.143307 1_455
Pt5 Si0 2.473014 1_545
Pt5 Si3 2.498831 1_555
Pt5 Si2 2.616238 1_555
Pt5 Y1 2.980746 1_545
Pt5 Y0 3.004720 1_545
Pt5 Y3 3.075505 1_555
Pt5 Y2 3.142713 1_554
Pt6 Si3 2.473283 1_665
Pt6 Si0 2.498630 1_555
Pt6 Si1 2.615352 1_554
Pt6 Y2 2.980629 1_564
Pt6 Y3 3.005134 1_565
Pt6 Y0 3.075643 1_655
Pt6 Y1 3.143307 1_655
Pt7 Si2 2.473014 1_555
Pt7 Si1 2.498831 1_555
Pt7 Si0 2.616238 1_555
Pt7 Y3 2.980746 1_555
Pt7 Y2 3.004720 1_555
Pt7 Y1 3.075505 1_555
Pt7 Y0 3.142713 1_556
