# generated using pymatgen
data_Ba2MgCu3F14
_symmetry_space_group_name_H-M   'P 1'
_cell_length_a   5.26447839
_cell_length_b   7.39419072
_cell_length_c   14.55035123
_cell_angle_alpha   91.42800861
_cell_angle_beta   90.23898034
_cell_angle_gamma   110.39005150
_symmetry_Int_Tables_number   1
_chemical_formula_structural   Ba2MgCu3F14
_chemical_formula_sum   'Ba4 Mg2 Cu6 F28'
_cell_volume   530.69136005
_cell_formula_units_Z   2
loop_
 _symmetry_equiv_pos_site_id
 _symmetry_equiv_pos_as_xyz
  1  'x, y, z'
loop_
 _atom_site_type_symbol
 _atom_site_label
 _atom_site_symmetry_multiplicity
 _atom_site_fract_x
 _atom_site_fract_y
 _atom_site_fract_z
 _atom_site_occupancy
  Ba  Ba0  1  0.11852500  0.37719000  0.62231200  1
  Ba  Ba1  1  0.25741800  0.37821500  0.12187200  1
  Ba  Ba2  1  0.87880100  0.62135000  0.37619800  1
  Ba  Ba3  1  0.74053700  0.62034800  0.87652900  1
  Mg  Mg0  1  0.42848000  0.00084900  0.74954600  1
  Mg  Mg1  1  0.56904400  0.99753200  0.24906500  1
  Cu  Cu0  1  0.09749500  0.23023900  0.87158600  1
  Cu  Cu1  1  0.90066300  0.76824300  0.12682100  1
  Cu  Cu2  1  0.13313400  0.23456800  0.37134400  1
  Cu  Cu3  1  0.86422100  0.76406400  0.62699000  1
  Cu  Cu4  1  0.49940000  0.99946700  0.99950500  1
  Cu  Cu5  1  0.49867800  0.99947600  0.49916700  1
  F  F0  1  0.88943000  0.98388900  0.33809000  1
  F  F1  1  0.86271100  0.26568500  0.45461000  1
  F  F2  1  0.13464300  0.73328900  0.54371200  1
  F  F3  1  0.66042200  0.50309600  0.59442400  1
  F  F4  1  0.60221600  0.10254800  0.61956300  1
  F  F5  1  0.50561800  0.89953600  0.87696800  1
  F  F6  1  0.40443300  0.25094200  0.95565400  1
  F  F7  1  0.90994100  0.01882300  0.16125400  1
  F  F8  1  0.36524100  0.31745500  0.77518800  1
  F  F9  1  0.33702500  0.49560000  0.40388300  1
  F  F10  1  0.80397200  0.22081500  0.78601100  1
  F  F11  1  0.16155400  0.49357900  0.90414200  1
  F  F12  1  0.41593800  0.22033400  0.28830400  1
  F  F13  1  0.19408500  0.77741900  0.21244900  1
  F  F14  1  0.49272100  0.09927700  0.12184200  1
  F  F15  1  0.63276500  0.68096900  0.22321400  1
  F  F16  1  0.12201300  0.83665300  0.01608600  1
  F  F17  1  0.10753600  0.01470900  0.66037900  1
  F  F18  1  0.87673000  0.16197900  0.98260400  1
  F  F19  1  0.70841800  0.84085500  0.51886500  1
  F  F20  1  0.59397500  0.74744000  0.04276200  1
  F  F21  1  0.58169800  0.77818200  0.71032800  1
  F  F22  1  0.95515700  0.32362800  0.27373600  1
  F  F23  1  0.28845100  0.15795500  0.47969700  1
  F  F24  1  0.39479300  0.89615900  0.37892500  1
  F  F25  1  0.08824300  0.97965600  0.83727700  1
  F  F26  1  0.04292000  0.67534600  0.72461000  1
  F  F27  1  0.83632800  0.50486800  0.09420100  1
loop_
_geom_bond_atom_site_label_1
_geom_bond_atom_site_label_2
_geom_bond_distance
_geom_bond_site_symmetry_2
Ba0 F8 2.693442 1_555
Ba0 F3 2.710661 1_555
Ba0 F17 2.731321 1_555
Ba0 F1 2.747044 1_455
Ba0 F4 2.768099 1_455
Ba0 F26 2.772573 1_555
Ba0 F2 2.871131 1_555
Ba0 F3 2.902189 1_455
Ba0 F10 2.930605 1_455
Ba0 F23 2.931291 1_555
Ba1 F22 2.684005 1_455
Ba1 F27 2.722387 1_455
Ba1 F7 2.726494 1_455
Ba1 F14 2.751141 1_555
Ba1 F6 2.782739 1_554
Ba1 F15 2.796270 1_555
Ba1 F18 2.872459 1_454
Ba1 F27 2.892677 1_555
Ba1 F20 2.953097 1_555
Ba1 F12 2.954069 1_555
Ba2 F15 2.692525 1_555
Ba2 F9 2.709610 1_555
Ba2 F0 2.732483 1_555
Ba2 F2 2.745043 1_655
Ba2 F24 2.767374 1_655
Ba2 F22 2.772815 1_555
Ba2 F1 2.867079 1_555
Ba2 F9 2.901656 1_655
Ba2 F13 2.932374 1_655
Ba2 F19 2.934304 1_555
Ba3 F26 2.684911 1_655
Ba3 F11 2.722441 1_655
Ba3 F25 2.725984 1_655
Ba3 F5 2.751287 1_555
Ba3 F20 2.781423 1_556
Ba3 F8 2.796705 1_555
Ba3 F16 2.877585 1_656
Ba3 F11 2.892877 1_555
Ba3 F21 2.951807 1_555
Ba3 F6 2.953493 1_555
Cu0 F25 1.890893 1_545
Cu0 F11 1.903884 1_555
Cu0 F8 1.948902 1_555
Cu0 F10 1.961536 1_455
Cu0 F18 1.965296 1_455
Cu0 F6 1.983064 1_555
Cu1 F7 1.891261 1_565
Cu1 F27 1.904077 1_555
Cu1 F15 1.949380 1_555
Cu1 F13 1.962079 1_655
Cu1 F16 1.963516 1_655
Cu1 F20 1.981786 1_555
Cu2 F9 1.899538 1_555
Cu2 F0 1.899707 1_445
Cu2 F1 1.943264 1_455
Cu2 F22 1.947834 1_455
Cu2 F12 1.950744 1_555
Cu2 F23 1.957447 1_555
Cu3 F3 1.899139 1_555
Cu3 F17 1.899287 1_665
Cu3 F2 1.942464 1_655
Cu3 F26 1.948906 1_655
Cu3 F21 1.952021 1_555
Cu3 F19 1.956679 1_555
Cu4 F14 1.915096 1_566
Cu4 F5 1.917725 1_555
Cu4 F18 1.950868 1_565
Cu4 F16 1.951028 1_556
Cu4 F6 2.195196 1_565
Cu4 F20 2.195264 1_556
Cu5 F24 1.891548 1_555
Cu5 F4 1.892826 1_565
Cu5 F19 1.895655 1_555
Cu5 F23 1.896292 1_565
Cu5 F2 2.326450 1_555
Cu5 F1 2.326589 1_565
F0 Mg1 2.154016 1_555
F4 Mg0 2.141282 1_555
F5 Mg0 2.106769 1_565
F7 Mg1 2.170319 1_545
F8 Mg0 2.496222 1_555
F10 Mg0 2.131290 1_555
F12 Mg1 2.138213 1_545
F13 Mg1 2.130408 1_555
F14 Mg1 2.104280 1_545
F15 Mg1 2.497467 1_555
F17 Mg0 2.158132 1_555
F21 Mg0 2.137624 1_565
F22 Mg1 2.571016 1_545
F24 Mg1 2.139982 1_555
F25 Mg0 2.166979 1_565
F26 Mg0 2.567218 1_565
