# generated using pymatgen
data_Ca4Cr5(TeO6)3
_symmetry_space_group_name_H-M   'P 1'
_cell_length_a   9.06030697
_cell_length_b   9.06030697
_cell_length_c   10.92120632
_cell_angle_alpha   82.20669098
_cell_angle_beta   82.20669098
_cell_angle_gamma   67.41321385
_symmetry_Int_Tables_number   1
_chemical_formula_structural   Ca4Cr5(TeO6)3
_chemical_formula_sum   'Ca8 Cr10 Te6 O36'
_cell_volume   816.67854795
_cell_formula_units_Z   2
loop_
 _symmetry_equiv_pos_site_id
 _symmetry_equiv_pos_as_xyz
  1  'x, y, z'
loop_
 _atom_site_type_symbol
 _atom_site_label
 _atom_site_symmetry_multiplicity
 _atom_site_fract_x
 _atom_site_fract_y
 _atom_site_fract_z
 _atom_site_occupancy
  Ca  Ca0  1  0.57569700  0.86204500  0.38818100  1
  Ca  Ca1  1  0.55255500  0.51889100  0.23949100  1
  Ca  Ca2  1  0.13795500  0.42430300  0.61181900  1
  Ca  Ca3  1  0.48110900  0.44744500  0.76050900  1
  Ca  Ca4  1  0.89101300  0.18031900  0.74414200  1
  Ca  Ca5  1  0.24967200  0.15997700  0.89536200  1
  Ca  Ca6  1  0.84002300  0.75032800  0.10463800  1
  Ca  Ca7  1  0.81968100  0.10898700  0.25585800  1
  Cr  Cr0  1  0.48071900  0.79233500  0.95471900  1
  Cr  Cr1  1  0.17385600  0.10877900  0.46562600  1
  Cr  Cr2  1  0.33616000  0.32979500  0.30796300  1
  Cr  Cr3  1  0.73660000  0.93461900  0.81124700  1
  Cr  Cr4  1  0.67020500  0.66384000  0.69203700  1
  Cr  Cr5  1  0.04906700  0.95093300  0.00000000  1
  Cr  Cr6  1  0.34355800  0.65644200  0.50000000  1
  Cr  Cr7  1  0.06538100  0.26340000  0.18875300  1
  Cr  Cr8  1  0.89122100  0.82614400  0.53437400  1
  Cr  Cr9  1  0.20766500  0.51928100  0.04528100  1
  Te  Te0  1  0.85595000  0.46700000  0.92057800  1
  Te  Te1  1  0.18795100  0.82363300  0.25963900  1
  Te  Te2  1  0.17636700  0.81204900  0.74036100  1
  Te  Te3  1  0.85795200  0.45979100  0.41991100  1
  Te  Te4  1  0.54020900  0.14204800  0.58008900  1
  Te  Te5  1  0.53300000  0.14405000  0.07942200  1
  O  O0  1  0.04608200  0.38365400  0.81687900  1
  O  O1  1  0.46980200  0.71344000  0.81105700  1
  O  O2  1  0.56343800  0.60828500  0.56538800  1
  O  O3  1  0.11067300  0.75096300  0.42732200  1
  O  O4  1  0.28656000  0.53019800  0.18894300  1
  O  O5  1  0.24903700  0.88932700  0.57267800  1
  O  O6  1  0.83450400  0.34965200  0.27646300  1
  O  O7  1  0.11594000  0.01971700  0.82419600  1
  O  O8  1  0.25202100  0.58803300  0.66035700  1
  O  O9  1  0.38592300  0.11997700  0.42765800  1
  O  O10  1  0.60674200  0.65333400  0.06193000  1
  O  O11  1  0.02405600  0.47352200  0.08641400  1
  O  O12  1  0.94973600  0.89052300  0.69337000  1
  O  O13  1  0.78996300  0.69104800  0.83906000  1
  O  O14  1  0.34666600  0.39325800  0.93807000  1
  O  O15  1  0.56025700  0.26514400  0.21066500  1
  O  O16  1  0.76485900  0.97397700  0.42368500  1
  O  O17  1  0.30895200  0.21003700  0.16094000  1
  O  O18  1  0.39171500  0.43656200  0.43461200  1
  O  O19  1  0.02602300  0.23514100  0.57631500  1
  O  O20  1  0.79949200  0.65118800  0.31402000  1
  O  O21  1  0.65124200  0.89999400  0.64563500  1
  O  O22  1  0.98028300  0.88406000  0.17580400  1
  O  O23  1  0.73485600  0.43974300  0.78933500  1
  O  O24  1  0.82140600  0.99457100  0.94750000  1
  O  O25  1  0.09690800  0.71837700  0.97262500  1
  O  O26  1  0.52647800  0.97594400  0.91358600  1
  O  O27  1  0.65034800  0.16549600  0.72353700  1
  O  O28  1  0.10947700  0.05026400  0.30663000  1
  O  O29  1  0.10000600  0.34875800  0.35436500  1
  O  O30  1  0.34881200  0.20050800  0.68598000  1
  O  O31  1  0.28162300  0.90309200  0.02737500  1
  O  O32  1  0.41196700  0.74797900  0.33964300  1
  O  O33  1  0.88002300  0.61407700  0.57234200  1
  O  O34  1  0.00542900  0.17859400  0.05250000  1
  O  O35  1  0.61634600  0.95391800  0.18312100  1
loop_
_geom_bond_atom_site_label_1
_geom_bond_atom_site_label_2
_geom_bond_distance
_geom_bond_site_symmetry_2
Ca0 O32 2.255921 1_555
Ca0 O35 2.313039 1_555
Ca0 O20 2.327169 1_555
Ca0 O9 2.364138 1_565
Ca0 O16 2.395448 1_555
Ca0 O2 2.824002 1_555
Ca1 O10 2.246284 1_555
Ca1 O32 2.309531 1_555
Ca1 O15 2.335934 1_555
Ca1 O6 2.478471 1_555
Ca1 O4 2.505824 1_555
Ca1 O18 2.604369 1_555
Ca2 O8 2.255921 1_555
Ca2 O0 2.313039 1_555
Ca2 O30 2.327169 1_555
Ca2 O33 2.364138 1_455
Ca2 O19 2.395448 1_555
Ca2 O18 2.824002 1_555
Ca3 O14 2.246284 1_555
Ca3 O8 2.309531 1_555
Ca3 O23 2.335934 1_555
Ca3 O27 2.478471 1_555
Ca3 O1 2.505824 1_555
Ca3 O2 2.604369 1_555
Ca4 O19 2.171226 1_655
Ca4 O7 2.212480 1_655
Ca4 O27 2.278041 1_555
Ca4 O23 2.311000 1_555
Ca4 O12 2.593502 1_545
Ca4 O24 2.753953 1_545
Ca4 O0 2.947341 1_655
Ca5 O0 2.308754 1_555
Ca5 O7 2.322316 1_555
Ca5 O30 2.374722 1_555
Ca5 O26 2.437770 1_545
Ca5 O31 2.503011 1_546
Ca5 O34 2.575349 1_556
Ca5 O14 2.694893 1_555
Ca6 O35 2.308754 1_555
Ca6 O22 2.322316 1_555
Ca6 O20 2.374722 1_555
Ca6 O11 2.437770 1_655
Ca6 O25 2.503011 1_654
Ca6 O24 2.575349 1_554
Ca6 O10 2.694893 1_555
Ca7 O16 2.171226 1_545
Ca7 O22 2.212480 1_545
Ca7 O6 2.278041 1_555
Ca7 O15 2.311000 1_555
Ca7 O28 2.593502 1_655
Ca7 O34 2.753953 1_655
Ca7 O35 2.947341 1_545
Cr0 O10 1.766010 1_556
Cr0 O31 1.824234 1_556
Cr0 O1 1.839276 1_555
Cr0 O26 1.848707 1_555
Cr1 O19 1.823288 1_555
Cr1 O9 1.948396 1_555
Cr1 O5 2.080718 1_545
Cr1 O28 2.097232 1_555
Cr1 O29 2.244579 1_555
Cr2 O18 2.006972 1_555
Cr2 O4 2.019878 1_555
Cr2 O15 2.065145 1_555
Cr2 O29 2.076416 1_555
Cr2 O9 2.086492 1_555
Cr2 O17 2.145125 1_555
Cr3 O24 1.987364 1_555
Cr3 O26 2.000647 1_555
Cr3 O13 2.057800 1_555
Cr3 O27 2.075535 1_565
Cr3 O12 2.102049 1_555
Cr3 O21 2.165052 1_555
Cr4 O2 2.006972 1_555
Cr4 O1 2.019878 1_555
Cr4 O23 2.065145 1_555
Cr4 O21 2.076416 1_555
Cr4 O33 2.086492 1_555
Cr4 O13 2.145125 1_555
Cr5 O22 2.022849 1_455
Cr5 O7 2.022849 1_564
Cr5 O25 2.037391 1_554
Cr5 O31 2.037391 1_555
Cr5 O24 2.091054 1_454
Cr5 O34 2.091054 1_565
Cr6 O32 1.961020 1_555
Cr6 O8 1.961020 1_555
Cr6 O18 2.074303 1_555
Cr6 O2 2.074303 1_555
Cr6 O5 2.167335 1_555
Cr6 O3 2.167335 1_555
Cr7 O34 1.987364 1_555
Cr7 O11 2.000647 1_555
Cr7 O17 2.057800 1_555
Cr7 O6 2.075535 1_455
Cr7 O28 2.102049 1_555
Cr7 O29 2.165052 1_555
Cr8 O16 1.823288 1_555
Cr8 O33 1.948396 1_555
Cr8 O3 2.080718 1_655
Cr8 O12 2.097232 1_555
Cr8 O21 2.244579 1_555
Cr9 O14 1.766010 1_554
Cr9 O25 1.824234 1_554
Cr9 O4 1.839276 1_555
Cr9 O11 1.848707 1_555
O0 Te0 1.877218 1_455
O1 Te2 2.647178 1_555
O3 Te1 1.989166 1_555
O4 Te1 2.647178 1_555
O5 Te2 1.989166 1_555
O6 Te3 2.042627 1_555
O7 Te2 2.053815 1_545
O8 Te2 2.145364 1_555
O9 Te4 2.387780 1_555
O10 Te0 2.676705 1_554
O11 Te0 2.539638 1_454
O12 Te2 2.012582 1_655
O13 Te0 1.998167 1_555
O14 Te5 2.676705 1_556
O15 Te5 2.012406 1_555
O16 Te4 2.600193 1_565
O17 Te5 1.998167 1_555
O19 Te3 2.600193 1_455
O20 Te3 1.881963 1_555
O21 Te4 2.099729 1_565
O22 Te1 2.053815 1_655
O23 Te0 2.012406 1_555
O24 Te5 2.743661 1_566
O25 Te2 2.657665 1_555
O26 Te5 2.539638 1_566
O27 Te4 2.042627 1_555
O28 Te1 2.012582 1_545
O29 Te3 2.099729 1_455
O30 Te4 1.881963 1_555
O31 Te1 2.657665 1_555
O32 Te1 2.145364 1_555
O33 Te3 2.387780 1_555
O34 Te0 2.743661 1_454
O35 Te5 1.877218 1_565
