# generated using pymatgen
data_MnCoPt2
_symmetry_space_group_name_H-M   'P 1'
_cell_length_a   5.52325600
_cell_length_b   5.52325600
_cell_length_c   14.69607000
_cell_angle_alpha   90.00000000
_cell_angle_beta   90.00000000
_cell_angle_gamma   90.00000000
_symmetry_Int_Tables_number   1
_chemical_formula_structural   MnCoPt2
_chemical_formula_sum   'Mn8 Co8 Pt16'
_cell_volume   448.32355559
_cell_formula_units_Z   8
loop_
 _symmetry_equiv_pos_site_id
 _symmetry_equiv_pos_as_xyz
  1  'x, y, z'
loop_
 _atom_site_type_symbol
 _atom_site_label
 _atom_site_symmetry_multiplicity
 _atom_site_fract_x
 _atom_site_fract_y
 _atom_site_fract_z
 _atom_site_occupancy
  Mn  Mn0_0  1  0.00000000  0.00000000  0.25000000  1
  Mn  Mn0_1  1  0.00000000  0.00000000  0.75000000  1
  Mn  Mn0_2  1  0.00000000  0.50000000  0.25000000  1
  Mn  Mn0_3  1  0.00000000  0.50000000  0.75000000  1
  Mn  Mn0_4  1  0.50000000  0.00000000  0.25000000  1
  Mn  Mn0_5  1  0.50000000  0.00000000  0.75000000  1
  Mn  Mn0_6  1  0.50000000  0.50000000  0.25000000  1
  Mn  Mn0_7  1  0.50000000  0.50000000  0.75000000  1
  Co  Co0_0  1  0.00000000  0.00000000  0.00000000  1
  Co  Co0_1  1  0.00000000  0.00000000  0.50000000  1
  Co  Co0_2  1  0.00000000  0.50000000  0.00000000  1
  Co  Co0_3  1  0.00000000  0.50000000  0.50000000  1
  Co  Co0_4  1  0.50000000  0.00000000  0.00000000  1
  Co  Co0_5  1  0.50000000  0.00000000  0.50000000  1
  Co  Co0_6  1  0.50000000  0.50000000  0.00000000  1
  Co  Co0_7  1  0.50000000  0.50000000  0.50000000  1
  Pt  Pt0_0  1  0.25000000  0.25000000  0.12083150  1
  Pt  Pt0_1  1  0.25000000  0.25000000  0.62083150  1
  Pt  Pt0_2  1  0.25000000  0.75000000  0.12083150  1
  Pt  Pt0_3  1  0.25000000  0.75000000  0.62083150  1
  Pt  Pt0_4  1  0.75000000  0.25000000  0.12083150  1
  Pt  Pt0_5  1  0.75000000  0.25000000  0.62083150  1
  Pt  Pt0_6  1  0.75000000  0.75000000  0.12083150  1
  Pt  Pt0_7  1  0.75000000  0.75000000  0.62083150  1
  Pt  Pt1_0  1  0.25000000  0.25000000  0.37916850  1
  Pt  Pt1_1  1  0.25000000  0.25000000  0.87916850  1
  Pt  Pt1_2  1  0.25000000  0.75000000  0.37916850  1
  Pt  Pt1_3  1  0.25000000  0.75000000  0.87916850  1
  Pt  Pt1_4  1  0.75000000  0.25000000  0.37916850  1
  Pt  Pt1_5  1  0.75000000  0.25000000  0.87916850  1
  Pt  Pt1_6  1  0.75000000  0.75000000  0.37916850  1
  Pt  Pt1_7  1  0.75000000  0.75000000  0.87916850  1
loop_
_geom_bond_atom_site_label_1
_geom_bond_atom_site_label_2
_geom_bond_distance
_geom_bond_site_symmetry_2
Mn0_0 Pt1_2 2.723366 1_545
Mn0_0 Pt1_4 2.723366 1_455
Mn0_0 Pt1_0 2.723366 1_555
Mn0_0 Pt1_6 2.723366 1_445
Mn0_0 Pt0_4 2.723366 1_455
Mn0_0 Pt0_2 2.723366 1_545
Mn0_0 Pt0_6 2.723366 1_445
Mn0_0 Pt0_0 2.723366 1_555
Mn0_0 Mn0_4 2.761628 1_455
Mn0_0 Mn0_4 2.761628 1_555
Mn0_0 Mn0_2 2.761628 1_555
Mn0_0 Mn0_2 2.761628 1_545
Mn0_1 Pt1_1 2.723366 1_555
Mn0_1 Pt1_5 2.723366 1_455
Mn0_1 Pt1_3 2.723366 1_545
Mn0_1 Pt1_7 2.723366 1_445
Mn0_1 Pt0_1 2.723366 1_555
Mn0_1 Pt0_5 2.723366 1_455
Mn0_1 Pt0_3 2.723366 1_545
Mn0_1 Pt0_7 2.723366 1_445
Mn0_1 Mn0_3 2.761628 1_545
Mn0_1 Mn0_5 2.761628 1_555
Mn0_1 Mn0_5 2.761628 1_455
Mn0_1 Mn0_3 2.761628 1_555
Mn0_2 Pt1_4 2.723366 1_455
Mn0_2 Pt1_0 2.723366 1_555
Mn0_2 Pt1_2 2.723366 1_555
Mn0_2 Pt1_6 2.723366 1_455
Mn0_2 Pt0_2 2.723366 1_555
Mn0_2 Pt0_0 2.723366 1_555
Mn0_2 Pt0_6 2.723366 1_455
Mn0_2 Pt0_4 2.723366 1_455
Mn0_2 Mn0_6 2.761628 1_555
Mn0_2 Mn0_6 2.761628 1_455
Mn0_3 Pt1_3 2.723366 1_555
Mn0_3 Pt1_7 2.723366 1_455
Mn0_3 Pt1_1 2.723366 1_555
Mn0_3 Pt1_5 2.723366 1_455
Mn0_3 Pt0_7 2.723366 1_455
Mn0_3 Pt0_1 2.723366 1_555
Mn0_3 Pt0_5 2.723366 1_455
Mn0_3 Pt0_3 2.723366 1_555
Mn0_3 Mn0_7 2.761628 1_455
Mn0_3 Mn0_7 2.761628 1_555
Mn0_4 Pt1_2 2.723366 1_545
Mn0_4 Pt1_6 2.723366 1_545
Mn0_4 Pt1_0 2.723366 1_555
Mn0_4 Pt1_4 2.723366 1_555
Mn0_4 Pt0_6 2.723366 1_545
Mn0_4 Pt0_2 2.723366 1_545
Mn0_4 Pt0_0 2.723366 1_555
Mn0_4 Pt0_4 2.723366 1_555
Mn0_4 Mn0_6 2.761628 1_555
Mn0_4 Mn0_6 2.761628 1_545
Mn0_5 Pt1_1 2.723366 1_555
Mn0_5 Pt1_7 2.723366 1_545
Mn0_5 Pt1_3 2.723366 1_545
Mn0_5 Pt1_5 2.723366 1_555
Mn0_5 Pt0_1 2.723366 1_555
Mn0_5 Pt0_3 2.723366 1_545
Mn0_5 Pt0_5 2.723366 1_555
Mn0_5 Pt0_7 2.723366 1_545
Mn0_5 Mn0_7 2.761628 1_555
Mn0_5 Mn0_7 2.761628 1_545
Mn0_6 Pt1_6 2.723366 1_555
Mn0_6 Pt1_0 2.723366 1_555
Mn0_6 Pt1_4 2.723366 1_555
Mn0_6 Pt1_2 2.723366 1_555
Mn0_6 Pt0_2 2.723366 1_555
Mn0_6 Pt0_6 2.723366 1_555
Mn0_6 Pt0_0 2.723366 1_555
Mn0_6 Pt0_4 2.723366 1_555
Mn0_7 Pt1_3 2.723366 1_555
Mn0_7 Pt1_7 2.723366 1_555
Mn0_7 Pt1_1 2.723366 1_555
Mn0_7 Pt1_5 2.723366 1_555
Mn0_7 Pt0_1 2.723366 1_555
Mn0_7 Pt0_7 2.723366 1_555
Mn0_7 Pt0_5 2.723366 1_555
Mn0_7 Pt0_3 2.723366 1_555
Co0_0 Pt0_4 2.639427 1_455
Co0_0 Pt0_2 2.639427 1_545
Co0_0 Pt0_6 2.639427 1_445
Co0_0 Pt0_0 2.639427 1_555
Co0_0 Pt1_1 2.639427 1_554
Co0_0 Pt1_3 2.639427 1_544
Co0_0 Pt1_5 2.639427 1_454
Co0_0 Pt1_7 2.639427 1_444
Co0_0 Co0_2 2.761628 1_555
Co0_0 Co0_2 2.761628 1_545
Co0_0 Co0_4 2.761628 1_455
Co0_0 Co0_4 2.761628 1_555
Co0_1 Pt0_3 2.639427 1_545
Co0_1 Pt0_7 2.639427 1_445
Co0_1 Pt0_1 2.639427 1_555
Co0_1 Pt0_5 2.639427 1_455
Co0_1 Pt1_0 2.639427 1_555
Co0_1 Pt1_4 2.639427 1_455
Co0_1 Pt1_6 2.639427 1_445
Co0_1 Pt1_2 2.639427 1_545
Co0_1 Co0_3 2.761628 1_545
Co0_1 Co0_3 2.761628 1_555
Co0_1 Co0_5 2.761628 1_455
Co0_1 Co0_5 2.761628 1_555
Co0_2 Pt0_2 2.639427 1_555
Co0_2 Pt0_6 2.639427 1_455
Co0_2 Pt0_4 2.639427 1_455
Co0_2 Pt0_0 2.639427 1_555
Co0_2 Pt1_7 2.639427 1_454
Co0_2 Pt1_1 2.639427 1_554
Co0_2 Pt1_5 2.639427 1_454
Co0_2 Pt1_3 2.639427 1_554
Co0_2 Co0_6 2.761628 1_455
Co0_2 Co0_6 2.761628 1_555
Co0_3 Pt0_3 2.639427 1_555
Co0_3 Pt0_7 2.639427 1_455
Co0_3 Pt0_1 2.639427 1_555
Co0_3 Pt0_5 2.639427 1_455
Co0_3 Pt1_0 2.639427 1_555
Co0_3 Pt1_4 2.639427 1_455
Co0_3 Pt1_2 2.639427 1_555
Co0_3 Pt1_6 2.639427 1_455
Co0_3 Co0_7 2.761628 1_455
Co0_3 Co0_7 2.761628 1_555
Co0_4 Pt0_4 2.639427 1_555
Co0_4 Pt0_6 2.639427 1_545
Co0_4 Pt0_2 2.639427 1_545
Co0_4 Pt0_0 2.639427 1_555
Co0_4 Pt1_1 2.639427 1_554
Co0_4 Pt1_5 2.639427 1_554
Co0_4 Pt1_3 2.639427 1_544
Co0_4 Pt1_7 2.639427 1_544
Co0_4 Co0_6 2.761628 1_555
Co0_4 Co0_6 2.761628 1_545
Co0_5 Pt0_3 2.639427 1_545
Co0_5 Pt0_5 2.639427 1_555
Co0_5 Pt0_7 2.639427 1_545
Co0_5 Pt0_1 2.639427 1_555
Co0_5 Pt1_0 2.639427 1_555
Co0_5 Pt1_6 2.639427 1_545
Co0_5 Pt1_4 2.639427 1_555
Co0_5 Pt1_2 2.639427 1_545
Co0_5 Co0_7 2.761628 1_555
Co0_5 Co0_7 2.761628 1_545
Co0_6 Pt0_4 2.639427 1_555
Co0_6 Pt0_2 2.639427 1_555
Co0_6 Pt0_6 2.639427 1_555
Co0_6 Pt0_0 2.639427 1_555
Co0_6 Pt1_1 2.639427 1_554
Co0_6 Pt1_5 2.639427 1_554
Co0_6 Pt1_3 2.639427 1_554
Co0_6 Pt1_7 2.639427 1_554
Co0_7 Pt0_5 2.639427 1_555
Co0_7 Pt0_3 2.639427 1_555
Co0_7 Pt0_7 2.639427 1_555
Co0_7 Pt0_1 2.639427 1_555
Co0_7 Pt1_0 2.639427 1_555
Co0_7 Pt1_6 2.639427 1_555
Co0_7 Pt1_4 2.639427 1_555
Co0_7 Pt1_2 2.639427 1_555
Pt0_0 Pt0_4 2.761628 1_455
Pt0_0 Pt0_2 2.761628 1_545
Pt0_0 Pt0_4 2.761628 1_555
Pt0_0 Pt0_2 2.761628 1_555
Pt0_1 Pt0_3 2.761628 1_555
Pt0_1 Pt0_5 2.761628 1_455
Pt0_1 Pt0_3 2.761628 1_545
Pt0_1 Pt0_5 2.761628 1_555
Pt0_2 Pt0_6 2.761628 1_455
Pt0_2 Pt0_6 2.761628 1_555
Pt0_3 Pt0_7 2.761628 1_455
Pt0_3 Pt0_7 2.761628 1_555
Pt0_4 Pt0_6 2.761628 1_555
Pt0_4 Pt0_6 2.761628 1_545
Pt0_5 Pt0_7 2.761628 1_545
Pt0_5 Pt0_7 2.761628 1_555
Pt1_0 Pt1_4 2.761628 1_555
Pt1_0 Pt1_2 2.761628 1_555
Pt1_0 Pt1_2 2.761628 1_545
Pt1_0 Pt1_4 2.761628 1_455
Pt1_1 Pt1_5 2.761628 1_455
Pt1_1 Pt1_3 2.761628 1_545
Pt1_1 Pt1_5 2.761628 1_555
Pt1_1 Pt1_3 2.761628 1_555
Pt1_2 Pt1_6 2.761628 1_455
Pt1_2 Pt1_6 2.761628 1_555
Pt1_3 Pt1_7 2.761628 1_555
Pt1_3 Pt1_7 2.761628 1_455
Pt1_4 Pt1_6 2.761628 1_555
Pt1_4 Pt1_6 2.761628 1_545
Pt1_5 Pt1_7 2.761628 1_555
Pt1_5 Pt1_7 2.761628 1_545
