# generated using pymatgen
data_Mn2O3
_symmetry_space_group_name_H-M   'P 1'
_cell_length_a   5.34093379
_cell_length_b   5.34093379
_cell_length_c   15.11435900
_cell_angle_alpha   90.00000000
_cell_angle_beta   90.00000000
_cell_angle_gamma   146.28867925
_symmetry_Int_Tables_number   1
_chemical_formula_structural   Mn2O3
_chemical_formula_sum   'Mn8 O12'
_cell_volume   239.28969098
_cell_formula_units_Z   4
loop_
 _symmetry_equiv_pos_site_id
 _symmetry_equiv_pos_as_xyz
  1  'x, y, z'
loop_
 _atom_site_type_symbol
 _atom_site_label
 _atom_site_symmetry_multiplicity
 _atom_site_fract_x
 _atom_site_fract_y
 _atom_site_fract_z
 _atom_site_occupancy
  Mn  Mn0  1  0.63691000  0.36309000  0.04731200  1
  Mn  Mn1  1  0.36309000  0.63691000  0.95268800  1
  Mn  Mn2  1  0.63691000  0.36309000  0.45268800  1
  Mn  Mn3  1  0.36309000  0.63691000  0.54731200  1
  Mn  Mn4  1  0.09194900  0.90805100  0.63948700  1
  Mn  Mn5  1  0.90805100  0.09194900  0.36051300  1
  Mn  Mn6  1  0.90805100  0.09194900  0.13948700  1
  Mn  Mn7  1  0.09194900  0.90805100  0.86051300  1
  O  O0  1  0.00000000  0.00000000  0.50000000  1
  O  O1  1  0.00000000  0.00000000  0.00000000  1
  O  O2  1  0.47450900  0.52549100  0.85056100  1
  O  O3  1  0.52549100  0.47450900  0.14943900  1
  O  O4  1  0.52549100  0.47450900  0.35056100  1
  O  O5  1  0.47450900  0.52549100  0.64943900  1
  O  O6  1  0.72071900  0.27928100  0.92471900  1
  O  O7  1  0.27928100  0.72071900  0.07528100  1
  O  O8  1  0.27928100  0.72071900  0.42471900  1
  O  O9  1  0.72071900  0.27928100  0.57528100  1
  O  O10  1  0.16742400  0.83257600  0.75000000  1
  O  O11  1  0.83257600  0.16742400  0.25000000  1
loop_
_geom_bond_atom_site_label_1
_geom_bond_atom_site_label_2
_geom_bond_distance
_geom_bond_site_symmetry_2
Mn0 O3 1.918344 1_555
Mn0 O6 2.041411 1_554
Mn0 O7 2.166890 1_545
Mn0 O7 2.166890 1_655
Mn0 O1 2.206506 1_555
Mn0 O1 2.206506 1_665
Mn1 O2 1.918344 1_555
Mn1 O7 2.041411 1_556
Mn1 O6 2.166890 1_455
Mn1 O6 2.166890 1_565
Mn1 O1 2.206506 1_556
Mn1 O1 2.206506 1_666
Mn2 O4 1.918344 1_555
Mn2 O9 2.041411 1_555
Mn2 O8 2.166890 1_545
Mn2 O8 2.166890 1_655
Mn2 O0 2.206506 1_665
Mn2 O0 2.206506 1_555
Mn3 O5 1.918344 1_555
Mn3 O8 2.041411 1_555
Mn3 O9 2.166890 1_455
Mn3 O9 2.166890 1_565
Mn3 O0 2.206506 1_555
Mn3 O0 2.206506 1_665
Mn4 O10 1.839931 1_555
Mn4 O5 1.965297 1_565
Mn4 O5 1.965297 1_455
Mn4 O9 2.252341 1_455
Mn4 O9 2.252341 1_565
Mn4 O0 2.308317 1_565
Mn5 O11 1.839931 1_555
Mn5 O4 1.965297 1_655
Mn5 O4 1.965297 1_545
Mn5 O8 2.252341 1_545
Mn5 O8 2.252341 1_655
Mn5 O0 2.308317 1_655
Mn6 O11 1.839931 1_555
Mn6 O3 1.965297 1_655
Mn6 O3 1.965297 1_545
Mn6 O7 2.252341 1_545
Mn6 O7 2.252341 1_655
Mn6 O1 2.308317 1_655
Mn7 O10 1.839931 1_555
Mn7 O2 1.965297 1_565
Mn7 O2 1.965297 1_455
Mn7 O6 2.252341 1_455
Mn7 O6 2.252341 1_565
Mn7 O1 2.308317 1_566
