# generated using pymatgen
data_H10IrC2(ClO)3
_symmetry_space_group_name_H-M   'P 1'
_cell_length_a   7.38763078
_cell_length_b   7.53908890
_cell_length_c   8.92358230
_cell_angle_alpha   73.08148978
_cell_angle_beta   74.58086437
_cell_angle_gamma   88.78038559
_symmetry_Int_Tables_number   1
_chemical_formula_structural   H10IrC2(ClO)3
_chemical_formula_sum   'H20 Ir2 C4 Cl6 O6'
_cell_volume   457.53401781
_cell_formula_units_Z   2
loop_
 _symmetry_equiv_pos_site_id
 _symmetry_equiv_pos_as_xyz
  1  'x, y, z'
loop_
 _atom_site_type_symbol
 _atom_site_label
 _atom_site_symmetry_multiplicity
 _atom_site_fract_x
 _atom_site_fract_y
 _atom_site_fract_z
 _atom_site_occupancy
  H  H0  1  0.00186700  0.37511100  0.25390500  1
  H  H1  1  0.99813300  0.62488900  0.74609500  1
  H  H2  1  0.66048000  0.25390500  0.29744100  1
  H  H3  1  0.33952000  0.74609500  0.70255900  1
  H  H4  1  0.74599200  0.38095900  0.46968800  1
  H  H5  1  0.25400800  0.61904100  0.53031200  1
  H  H6  1  0.81283800  0.17548700  0.49540200  1
  H  H7  1  0.18716200  0.82451300  0.50459800  1
  H  H8  1  0.07037600  0.66641000  0.27876100  1
  H  H9  1  0.92962400  0.33359000  0.72123900  1
  H  H10  1  0.17405800  0.73714500  0.06246100  1
  H  H11  1  0.82594200  0.26285500  0.93753900  1
  H  H12  1  0.92681000  0.67322200  0.14194400  1
  H  H13  1  0.07319000  0.32677800  0.85805600  1
  H  H14  1  0.54115300  0.94187200  0.32416800  1
  H  H15  1  0.45884700  0.05812800  0.67583200  1
  H  H16  1  0.61283800  0.01579000  0.10589300  1
  H  H17  1  0.38716200  0.98421000  0.89410700  1
  H  H18  1  0.78493300  0.00757800  0.21795400  1
  H  H19  1  0.21506700  0.99242200  0.78204600  1
  Ir  Ir0  1  0.35993100  0.34662400  0.18816900  1
  Ir  Ir1  1  0.64006900  0.65337600  0.81183100  1
  C  C0  1  0.06629300  0.64709200  0.16271000  1
  C  C1  1  0.93370700  0.35290800  0.83729000  1
  C  C2  1  0.63871100  0.03483100  0.21579800  1
  C  C3  1  0.36128900  0.96516900  0.78420200  1
  Cl  Cl0  1  0.18594500  0.06067500  0.26409900  1
  Cl  Cl1  1  0.81405500  0.93932500  0.73590100  1
  Cl  Cl2  1  0.28142200  0.35178000  0.45905600  1
  Cl  Cl3  1  0.71857800  0.64822000  0.54094400  1
  Cl  Cl4  1  0.54285800  0.63520400  0.09435700  1
  Cl  Cl5  1  0.45714200  0.36479600  0.90564300  1
  O  O0  1  0.10365300  0.45621200  0.16261800  1
  O  O1  1  0.89634700  0.54378800  0.83738200  1
  O  O2  1  0.61330200  0.22842500  0.20876300  1
  O  O3  1  0.38669800  0.77157500  0.79123700  1
  O  O4  1  0.79182600  0.28751600  0.41211800  1
  O  O5  1  0.20817400  0.71248400  0.58788200  1
loop_
_geom_bond_atom_site_label_1
_geom_bond_atom_site_label_2
_geom_bond_distance
_geom_bond_site_symmetry_2
H0 O0 1.003406 1_555
H1 O1 1.003406 1_555
H2 O2 1.011215 1_555
H2 O4 1.656012 1_555
H3 O3 1.011215 1_555
H3 O5 1.656012 1_555
H4 O4 0.991384 1_555
H5 O5 0.991384 1_555
H6 O4 0.990053 1_555
H7 O5 0.990053 1_555
Ir0 O2 2.085217 1_555
Ir0 O0 2.091038 1_555
Ir1 O3 2.085217 1_555
Ir1 O1 2.091038 1_555
C0 H10 1.088956 1_555
C0 H8 1.095057 1_555
C0 H12 1.098463 1_455
C0 O0 1.459704 1_555
C1 H11 1.088956 1_555
C1 H9 1.095057 1_555
C1 H13 1.098463 1_655
C1 O1 1.459704 1_555
C2 H16 1.096265 1_555
C2 H14 1.096452 1_545
C2 H18 1.099451 1_555
C2 O2 1.452810 1_555
C3 H17 1.096265 1_555
C3 H15 1.096452 1_565
C3 H19 1.099451 1_555
C3 O3 1.452810 1_555
Cl0 Ir0 2.358675 1_555
Cl1 Ir1 2.358675 1_555
Cl2 Ir0 2.342938 1_555
Cl3 Ir1 2.342938 1_555
Cl4 Ir0 2.392485 1_555
Cl4 Ir1 2.393963 1_554
Cl5 Ir1 2.392485 1_555
Cl5 Ir0 2.393963 1_556
