# generated using pymatgen
data_CsHfMg14O15
_symmetry_space_group_name_H-M   'P 1'
_cell_length_a   4.13727000
_cell_length_b   8.26774100
_cell_length_c   11.71992500
_cell_angle_alpha   90.00000000
_cell_angle_beta   90.00000000
_cell_angle_gamma   90.00000000
_symmetry_Int_Tables_number   1
_chemical_formula_structural   CsHfMg14O15
_chemical_formula_sum   'Cs1 Hf1 Mg14 O15'
_cell_volume   400.89031074
_cell_formula_units_Z   1
loop_
 _symmetry_equiv_pos_site_id
 _symmetry_equiv_pos_as_xyz
  1  'x, y, z'
loop_
 _atom_site_type_symbol
 _atom_site_label
 _atom_site_symmetry_multiplicity
 _atom_site_fract_x
 _atom_site_fract_y
 _atom_site_fract_z
 _atom_site_occupancy
  Cs  Cs0  1  0.00000000  0.00000000  0.92743800  1
  Hf  Hf0  1  0.00000000  0.50000000  0.99414100  1
  Mg  Mg0  1  0.00000000  0.00000000  0.46445800  1
  Mg  Mg1  1  0.00000000  0.50000000  0.45515600  1
  Mg  Mg2  1  0.50000000  0.76268100  0.09013100  1
  Mg  Mg3  1  0.50000000  0.23731900  0.09013100  1
  Mg  Mg4  1  0.50000000  0.74200800  0.48226300  1
  Mg  Mg5  1  0.50000000  0.25799200  0.48226300  1
  Mg  Mg6  1  0.50000000  0.00000000  0.65827300  1
  Mg  Mg7  1  0.50000000  0.50000000  0.75015700  1
  Mg  Mg8  1  0.50000000  0.00000000  0.26523300  1
  Mg  Mg9  1  0.50000000  0.50000000  0.28400100  1
  Mg  Mg10  1  0.00000000  0.74786900  0.66625500  1
  Mg  Mg11  1  0.00000000  0.25213100  0.66625500  1
  Mg  Mg12  1  0.00000000  0.75043900  0.26421300  1
  Mg  Mg13  1  0.00000000  0.24956100  0.26421300  1
  O  O0  1  0.00000000  0.50000000  0.81678700  1
  O  O1  1  0.00000000  0.00000000  0.29338900  1
  O  O2  1  0.00000000  0.50000000  0.28279400  1
  O  O3  1  0.50000000  0.73069200  0.67338200  1
  O  O4  1  0.50000000  0.26930800  0.67338200  1
  O  O5  1  0.50000000  0.74680900  0.26614200  1
  O  O6  1  0.50000000  0.25319100  0.26614200  1
  O  O7  1  0.50000000  0.00000000  0.08827000  1
  O  O8  1  0.50000000  0.50000000  0.02586000  1
  O  O9  1  0.50000000  0.00000000  0.48136700  1
  O  O10  1  0.50000000  0.50000000  0.45781800  1
  O  O11  1  0.00000000  0.71429800  0.07528800  1
  O  O12  1  0.00000000  0.28570200  0.07528800  1
  O  O13  1  0.00000000  0.74487100  0.48475700  1
  O  O14  1  0.00000000  0.25512900  0.48475700  1
loop_
_geom_bond_atom_site_label_1
_geom_bond_atom_site_label_2
_geom_bond_distance
_geom_bond_site_symmetry_2
Cs0 O7 2.798615 1_456
Cs0 O7 2.798615 1_556
Cs0 O12 2.929527 1_556
Cs0 O11 2.929527 1_546
Hf0 O12 2.010872 1_556
Hf0 O11 2.010872 1_556
Hf0 O0 2.078576 1_555
Hf0 O8 2.101772 1_556
Hf0 O8 2.101772 1_456
Mg0 O1 2.004916 1_555
Mg0 O9 2.078106 1_555
Mg0 O9 2.078106 1_455
Mg0 O14 2.122714 1_555
Mg0 O13 2.122714 1_545
Mg1 O2 2.020070 1_555
Mg1 O13 2.054039 1_555
Mg1 O14 2.054039 1_555
Mg1 O10 2.068870 1_455
Mg1 O10 2.068870 1_555
Mg2 O7 1.962213 1_565
Mg2 O5 2.067005 1_555
Mg2 O11 2.114126 1_555
Mg2 O11 2.114126 1_655
Mg2 O8 2.298697 1_555
Mg3 O7 1.962213 1_555
Mg3 O6 2.067005 1_555
Mg3 O12 2.114126 1_655
Mg3 O12 2.114126 1_555
Mg3 O8 2.298697 1_555
Mg4 O10 2.021266 1_555
Mg4 O13 2.068977 1_555
Mg4 O13 2.068977 1_655
Mg4 O9 2.133037 1_565
Mg4 O3 2.241853 1_555
Mg4 O5 2.533233 1_555
Mg5 O10 2.021266 1_555
Mg5 O14 2.068977 1_655
Mg5 O14 2.068977 1_555
Mg5 O9 2.133037 1_555
Mg5 O4 2.241853 1_555
Mg5 O6 2.533233 1_555
Mg6 O9 2.073325 1_555
Mg6 O3 2.233599 1_545
Mg6 O4 2.233599 1_555
Mg7 O4 2.108894 1_555
Mg7 O3 2.108894 1_555
Mg7 O0 2.211120 1_655
Mg7 O0 2.211120 1_555
Mg8 O7 2.073993 1_555
Mg8 O6 2.093345 1_555
Mg8 O5 2.093345 1_545
Mg8 O1 2.094789 1_655
Mg8 O1 2.094789 1_555
Mg8 O9 2.533074 1_555
Mg9 O10 2.037122 1_555
Mg9 O5 2.051259 1_555
Mg9 O6 2.051259 1_555
Mg9 O2 2.068683 1_655
Mg9 O2 2.068683 1_555
Mg10 O3 2.075186 1_455
Mg10 O3 2.075186 1_555
Mg10 O13 2.127287 1_555
Mg10 O0 2.704105 1_555
Mg11 O4 2.075186 1_555
Mg11 O4 2.075186 1_455
Mg11 O14 2.127287 1_555
Mg11 O0 2.704105 1_555
Mg12 O5 2.068976 1_555
Mg12 O5 2.068976 1_455
Mg12 O2 2.081985 1_555
Mg12 O1 2.091448 1_565
Mg12 O11 2.234258 1_555
Mg12 O13 2.585169 1_555
Mg13 O6 2.068976 1_455
Mg13 O6 2.068976 1_555
Mg13 O2 2.081985 1_555
Mg13 O1 2.091448 1_555
Mg13 O12 2.234258 1_555
Mg13 O14 2.585169 1_555
