# generated using pymatgen
data_Mg14SbC
_symmetry_space_group_name_H-M   'P 1'
_cell_length_a   6.45426608
_cell_length_b   6.45426608
_cell_length_c   9.35045200
_cell_angle_alpha   90.00000000
_cell_angle_beta   90.00000000
_cell_angle_gamma   111.98755247
_symmetry_Int_Tables_number   1
_chemical_formula_structural   Mg14SbC
_chemical_formula_sum   'Mg14 Sb1 C1'
_cell_volume   361.18549753
_cell_formula_units_Z   1
loop_
 _symmetry_equiv_pos_site_id
 _symmetry_equiv_pos_as_xyz
  1  'x, y, z'
loop_
 _atom_site_type_symbol
 _atom_site_label
 _atom_site_symmetry_multiplicity
 _atom_site_fract_x
 _atom_site_fract_y
 _atom_site_fract_z
 _atom_site_occupancy
  Mg  Mg0  1  0.84634300  0.15365700  0.00000000  1
  Mg  Mg1  1  0.34900000  0.65100000  0.00000000  1
  Mg  Mg2  1  0.36240700  0.10319200  0.50000000  1
  Mg  Mg3  1  0.36019000  0.18027100  0.00000000  1
  Mg  Mg4  1  0.89680800  0.63759300  0.50000000  1
  Mg  Mg5  1  0.81972900  0.63981000  0.00000000  1
  Mg  Mg6  1  0.12361700  0.31110000  0.28050000  1
  Mg  Mg7  1  0.12361700  0.31110000  0.71950000  1
  Mg  Mg8  1  0.68890000  0.87638300  0.28050000  1
  Mg  Mg9  1  0.68890000  0.87638300  0.71950000  1
  Mg  Mg10  1  0.66277000  0.33723000  0.27029900  1
  Mg  Mg11  1  0.66277000  0.33723000  0.72970100  1
  Mg  Mg12  1  0.16035600  0.83964400  0.23605000  1
  Mg  Mg13  1  0.16035600  0.83964400  0.76395000  1
  Sb  Sb0  1  0.36847900  0.63152100  0.50000000  1
  C  C0  1  0.72575700  0.27424300  0.50000000  1
loop_
_geom_bond_atom_site_label_1
_geom_bond_atom_site_label_2
_geom_bond_distance
_geom_bond_site_symmetry_2
Mg0 Mg7 3.122919 1_654
Mg0 Mg6 3.122919 1_655
Mg0 Mg9 3.122919 1_544
Mg0 Mg8 3.122919 1_545
Mg0 Mg10 3.201043 1_555
Mg0 Mg11 3.201043 1_554
Mg0 Mg3 3.206033 1_555
Mg0 Mg5 3.206033 1_555
Mg0 Mg5 3.256090 1_545
Mg0 Mg3 3.256090 1_655
Mg1 Mg13 2.991085 1_554
Mg1 Mg12 2.991085 1_555
Mg1 Mg5 3.065982 1_555
Mg1 Mg3 3.065982 1_555
Mg1 Mg9 3.379097 1_554
Mg1 Mg8 3.379097 1_555
Mg1 Mg7 3.379097 1_554
Mg1 Mg6 3.379097 1_555
Mg1 Mg3 3.389677 1_565
Mg1 Mg5 3.389677 1_455
Mg2 Sb0 3.059179 1_545
Mg2 Sb0 3.395497 1_555
Mg3 Mg7 3.299850 1_554
Mg3 Mg6 3.299850 1_555
Mg3 Mg5 3.317652 1_555
Mg4 Sb0 3.059179 1_655
Mg4 Sb0 3.395497 1_555
Mg5 Mg8 3.299850 1_555
Mg5 Mg9 3.299850 1_554
Mg6 Sb0 2.922272 1_555
Mg7 Sb0 2.922272 1_555
Mg8 Sb0 2.922272 1_555
Mg9 Sb0 2.922272 1_555
Mg10 Mg5 3.121954 1_555
Mg10 Mg3 3.121954 1_555
Mg11 Mg5 3.121954 1_556
Mg11 Mg3 3.121954 1_556
Mg12 Mg2 3.004047 1_565
Mg12 Mg4 3.004047 1_455
Mg12 Mg3 3.040597 1_565
Mg12 Mg5 3.040597 1_455
Mg12 Mg8 3.166785 1_455
Mg12 Mg6 3.166785 1_565
Mg12 Sb0 3.324341 1_555
Mg12 Mg6 3.355690 1_555
Mg12 Mg8 3.355690 1_555
Mg13 Mg2 3.004047 1_565
Mg13 Mg4 3.004047 1_455
Mg13 Mg3 3.040597 1_566
Mg13 Mg5 3.040597 1_456
Mg13 Mg9 3.166785 1_455
Mg13 Mg7 3.166785 1_565
Mg13 Sb0 3.324341 1_555
Mg13 Mg7 3.355690 1_555
Mg13 Mg9 3.355690 1_555
C0 Mg4 2.186292 1_555
C0 Mg2 2.186292 1_555
C0 Mg11 2.251084 1_555
C0 Mg10 2.251084 1_555
