# generated using pymatgen
data_CeMoBrO4
_symmetry_space_group_name_H-M   'P 1'
_cell_length_a   6.00445500
_cell_length_b   7.56261100
_cell_length_c   10.15187847
_cell_angle_alpha   89.77328556
_cell_angle_beta   90.00000000
_cell_angle_gamma   90.00000000
_symmetry_Int_Tables_number   1
_chemical_formula_structural   CeMoBrO4
_chemical_formula_sum   'Ce4 Mo4 Br4 O16'
_cell_volume   460.98666937
_cell_formula_units_Z   4
loop_
 _symmetry_equiv_pos_site_id
 _symmetry_equiv_pos_as_xyz
  1  'x, y, z'
loop_
 _atom_site_type_symbol
 _atom_site_label
 _atom_site_symmetry_multiplicity
 _atom_site_fract_x
 _atom_site_fract_y
 _atom_site_fract_z
 _atom_site_occupancy
  Ce  Ce0  1  0.20044100  0.62269900  0.77337300  1
  Ce  Ce1  1  0.29955900  0.12269900  0.77337300  1
  Ce  Ce2  1  0.79955900  0.37730100  0.22662700  1
  Ce  Ce3  1  0.70044100  0.87730100  0.22662700  1
  Mo  Mo0  1  0.74882800  0.37580100  0.64385500  1
  Mo  Mo1  1  0.75117200  0.87580100  0.64385500  1
  Mo  Mo2  1  0.25117200  0.62419900  0.35614500  1
  Mo  Mo3  1  0.24882800  0.12419900  0.35614500  1
  Br  Br0  1  0.24178100  0.37873900  0.01403300  1
  Br  Br1  1  0.25821900  0.87873900  0.01403300  1
  Br  Br2  1  0.75821900  0.62126100  0.98596700  1
  Br  Br3  1  0.74178100  0.12126100  0.98596700  1
  O  O0  1  0.73977500  0.37686300  0.47101700  1
  O  O1  1  0.76022500  0.87686300  0.47101700  1
  O  O2  1  0.85125100  0.62526600  0.67510600  1
  O  O3  1  0.64874900  0.12526600  0.67510600  1
  O  O4  1  0.03272600  0.33304800  0.73026900  1
  O  O5  1  0.46727400  0.83304800  0.73026900  1
  O  O6  1  0.03472800  0.91676600  0.73508300  1
  O  O7  1  0.46527200  0.41676600  0.73508300  1
  O  O8  1  0.26022500  0.62313700  0.52898300  1
  O  O9  1  0.23977500  0.12313700  0.52898300  1
  O  O10  1  0.14874900  0.37473400  0.32489400  1
  O  O11  1  0.35125100  0.87473400  0.32489400  1
  O  O12  1  0.96727400  0.66695200  0.26973100  1
  O  O13  1  0.53272600  0.16695200  0.26973100  1
  O  O14  1  0.96527200  0.08323400  0.26491700  1
  O  O15  1  0.53472800  0.58323400  0.26491700  1
loop_
_geom_bond_atom_site_label_1
_geom_bond_atom_site_label_2
_geom_bond_distance
_geom_bond_site_symmetry_2
Ce0 O7 2.260528 1_555
Ce0 O5 2.298604 1_555
Ce0 O2 2.321971 1_455
Ce0 O4 2.451848 1_555
Ce0 O6 2.465788 1_555
Ce0 O8 2.506841 1_555
Ce1 O6 2.260528 1_545
Ce1 O4 2.298604 1_555
Ce1 O3 2.321971 1_555
Ce1 O5 2.451848 1_545
Ce1 O7 2.465788 1_555
Ce1 O9 2.506841 1_555
Ce2 O15 2.260528 1_555
Ce2 O13 2.298604 1_555
Ce2 O10 2.321971 1_655
Ce2 O12 2.451848 1_555
Ce2 O14 2.465788 1_555
Ce2 O0 2.506841 1_555
Ce3 O14 2.260528 1_565
Ce3 O12 2.298604 1_555
Ce3 O11 2.321971 1_555
Ce3 O13 2.451848 1_565
Ce3 O15 2.465788 1_555
Ce3 O1 2.506841 1_555
Mo0 O0 1.755459 1_555
Mo0 O4 1.943638 1_655
Mo0 O7 1.963369 1_555
Mo0 O2 2.010694 1_555
Mo0 O3 2.011686 1_555
Mo1 O1 1.755459 1_555
Mo1 O5 1.943638 1_555
Mo1 O6 1.963369 1_655
Mo1 O3 2.010694 1_565
Mo1 O2 2.011686 1_555
Mo2 O8 1.755459 1_555
Mo2 O12 1.943638 1_455
Mo2 O15 1.963369 1_555
Mo2 O10 2.010694 1_555
Mo2 O11 2.011686 1_555
Mo3 O9 1.755459 1_555
Mo3 O13 1.943638 1_555
Mo3 O14 1.963369 1_455
Mo3 O11 2.010694 1_545
Mo3 O10 2.011686 1_555
Br0 Ce0 3.065756 1_554
Br0 Ce1 3.142636 1_554
Br0 Ce2 3.421770 1_455
Br1 Ce1 3.065756 1_564
Br1 Ce0 3.142636 1_554
Br1 Ce3 3.421770 1_555
Br2 Ce2 3.065756 1_556
Br2 Ce3 3.142636 1_556
Br2 Ce0 3.421770 1_655
Br3 Ce3 3.065756 1_546
Br3 Ce2 3.142636 1_556
Br3 Ce1 3.421770 1_555
