# generated using pymatgen
data_TlPt
_symmetry_space_group_name_H-M   'P 1'
_cell_length_a   6.75800028
_cell_length_b   6.75800028
_cell_length_c   3.85170800
_cell_angle_alpha   90.00000000
_cell_angle_beta   90.00000000
_cell_angle_gamma   120.00000272
_symmetry_Int_Tables_number   1
_chemical_formula_structural   TlPt
_chemical_formula_sum   'Tl3 Pt3'
_cell_volume   152.34225718
_cell_formula_units_Z   3
loop_
 _symmetry_equiv_pos_site_id
 _symmetry_equiv_pos_as_xyz
  1  'x, y, z'
loop_
 _atom_site_type_symbol
 _atom_site_label
 _atom_site_symmetry_multiplicity
 _atom_site_fract_x
 _atom_site_fract_y
 _atom_site_fract_z
 _atom_site_occupancy
  Tl  Tl0  1  0.50000000  0.00000000  0.00000000  1
  Tl  Tl1  1  0.50000000  0.50000000  0.00000000  1
  Tl  Tl2  1  0.00000000  0.50000000  0.00000000  1
  Pt  Pt0  1  0.00000000  0.00000000  0.00000000  1
  Pt  Pt1  1  0.33333300  0.66666700  0.50000000  1
  Pt  Pt2  1  0.66666700  0.33333300  0.50000000  1
loop_
_geom_bond_atom_site_label_1
_geom_bond_atom_site_label_2
_geom_bond_distance
_geom_bond_site_symmetry_2
Pt0 Tl1 3.379000 1_445
Pt0 Tl1 3.379000 1_555
Pt0 Tl2 3.379000 1_555
Pt0 Tl0 3.379000 1_555
Pt0 Tl0 3.379000 1_455
Pt0 Tl2 3.379000 1_545
Pt1 Tl0 2.741311 1_566
Pt1 Tl2 2.741311 1_556
Pt1 Tl2 2.741311 1_555
Pt1 Tl0 2.741311 1_565
Pt1 Tl1 2.741315 1_555
Pt1 Tl1 2.741315 1_556
Pt2 Tl0 2.741311 1_555
Pt2 Tl2 2.741311 1_656
Pt2 Tl0 2.741311 1_556
Pt2 Tl2 2.741311 1_655
Pt2 Tl1 2.741315 1_555
Pt2 Tl1 2.741315 1_556
