# generated using pymatgen
data_NdRe2
_symmetry_space_group_name_H-M   'P 1'
_cell_length_a   5.50780632
_cell_length_b   5.50780632
_cell_length_c   8.90484191
_cell_angle_alpha   90.00000000
_cell_angle_beta   90.00000000
_cell_angle_gamma   120.00001918
_symmetry_Int_Tables_number   1
_chemical_formula_structural   NdRe2
_chemical_formula_sum   'Nd4 Re8'
_cell_volume   233.94516881
_cell_formula_units_Z   4
loop_
 _symmetry_equiv_pos_site_id
 _symmetry_equiv_pos_as_xyz
  1  'x, y, z'
loop_
 _atom_site_type_symbol
 _atom_site_label
 _atom_site_symmetry_multiplicity
 _atom_site_fract_x
 _atom_site_fract_y
 _atom_site_fract_z
 _atom_site_occupancy
  Nd  Nd0  1  0.33333300  0.66666700  0.43752674  1
  Nd  Nd1  1  0.66666700  0.33333300  0.56247326  1
  Nd  Nd2  1  0.66666700  0.33333300  0.93752674  1
  Nd  Nd3  1  0.33333300  0.66666700  0.06247326  1
  Re  Re0  1  -0.00000000  0.00000000  0.50000000  1
  Re  Re1  1  -0.00000000  0.00000000  0.00000000  1
  Re  Re2  1  0.83010531  0.16989469  0.25000000  1
  Re  Re3  1  0.83010531  0.66021062  0.25000000  1
  Re  Re4  1  0.33978938  0.16989469  0.25000000  1
  Re  Re5  1  0.16989469  0.83010531  0.75000000  1
  Re  Re6  1  0.16989469  0.33978938  0.75000000  1
  Re  Re7  1  0.66021062  0.83010531  0.75000000  1
loop_
_geom_bond_atom_site_label_1
_geom_bond_atom_site_label_2
_geom_bond_distance
_geom_bond_site_symmetry_2
Nd0 Re5 3.189585 1_555
Nd0 Re7 3.189587 1_555
Nd0 Re6 3.189587 1_555
Nd0 Re4 3.220787 1_565
Nd0 Re3 3.220787 1_455
Nd0 Re2 3.220789 1_565
Nd0 Re2 3.220789 1_455
Nd0 Re3 3.220792 1_555
Nd0 Re4 3.220792 1_555
Nd0 Re0 3.228226 1_565
Nd0 Re0 3.228230 1_555
Nd0 Re0 3.228230 1_665
Nd1 Re2 3.189585 1_555
Nd1 Re4 3.189587 1_555
Nd1 Re3 3.189587 1_555
Nd1 Re7 3.220787 1_545
Nd1 Re6 3.220787 1_655
Nd1 Re5 3.220789 1_655
Nd1 Re5 3.220789 1_545
Nd1 Re6 3.220792 1_555
Nd1 Re7 3.220792 1_555
Nd1 Re0 3.228226 1_655
Nd1 Re0 3.228230 1_555
Nd1 Re0 3.228230 1_665
Nd2 Re2 3.189585 1_556
Nd2 Re3 3.189587 1_556
Nd2 Re4 3.189587 1_556
Nd2 Re7 3.220787 1_545
Nd2 Re6 3.220787 1_655
Nd2 Re5 3.220789 1_655
Nd2 Re5 3.220789 1_545
Nd2 Re6 3.220792 1_555
Nd2 Re7 3.220792 1_555
Nd2 Re1 3.228226 1_656
Nd2 Re1 3.228230 1_666
Nd2 Re1 3.228230 1_556
Nd3 Re5 3.189585 1_554
Nd3 Re7 3.189587 1_554
Nd3 Re6 3.189587 1_554
Nd3 Re4 3.220787 1_565
Nd3 Re3 3.220787 1_455
Nd3 Re2 3.220789 1_565
Nd3 Re2 3.220789 1_455
Nd3 Re3 3.220792 1_555
Nd3 Re4 3.220792 1_555
Nd3 Re1 3.228226 1_565
Nd3 Re1 3.228230 1_665
Nd3 Re1 3.228230 1_555
Re0 Re7 2.753703 1_445
Re0 Re6 2.753703 1_555
Re0 Re4 2.753703 1_555
Re0 Re3 2.753703 1_445
Re0 Re5 2.753703 1_545
Re0 Re2 2.753703 1_455
Re1 Re6 2.753703 1_554
Re1 Re4 2.753703 1_555
Re1 Re3 2.753703 1_445
Re1 Re7 2.753703 1_444
Re1 Re5 2.753703 1_544
Re1 Re2 2.753703 1_455
Re2 Re3 2.700565 1_555
Re2 Re4 2.700565 1_555
Re2 Re3 2.807241 1_545
Re2 Re4 2.807241 1_655
Re3 Re4 2.700564 1_555
Re3 Re4 2.807240 1_665
Re5 Re6 2.700565 1_555
Re5 Re7 2.700565 1_555
Re5 Re6 2.807241 1_565
Re5 Re7 2.807241 1_455
Re6 Re7 2.700564 1_555
Re6 Re7 2.807240 1_445
