# generated using pymatgen
data_Nd3AlCoS7
_symmetry_space_group_name_H-M   'P 1'
_cell_length_a   9.98141169
_cell_length_b   9.98141169
_cell_length_c   6.02208800
_cell_angle_alpha   90.00000000
_cell_angle_beta   90.00000000
_cell_angle_gamma   119.99999795
_symmetry_Int_Tables_number   1
_chemical_formula_structural   Nd3AlCoS7
_chemical_formula_sum   'Nd6 Al2 Co2 S14'
_cell_volume   519.59106670
_cell_formula_units_Z   2
loop_
 _symmetry_equiv_pos_site_id
 _symmetry_equiv_pos_as_xyz
  1  'x, y, z'
loop_
 _atom_site_type_symbol
 _atom_site_label
 _atom_site_symmetry_multiplicity
 _atom_site_fract_x
 _atom_site_fract_y
 _atom_site_fract_z
 _atom_site_occupancy
  Nd  Nd0  1  0.85837700  0.22972000  0.25912600  1
  Nd  Nd1  1  0.77028000  0.62865700  0.25912600  1
  Nd  Nd2  1  0.37134300  0.14162300  0.25912600  1
  Nd  Nd3  1  0.14162300  0.77028000  0.75912600  1
  Nd  Nd4  1  0.22972000  0.37134300  0.75912600  1
  Nd  Nd5  1  0.62865700  0.85837700  0.75912600  1
  Al  Al0  1  0.66666700  0.33333300  0.83523300  1
  Al  Al1  1  0.33333300  0.66666700  0.33523300  1
  Co  Co0  1  0.00000000  0.00000000  0.47229100  1
  Co  Co1  1  0.00000000  0.00000000  0.97229100  1
  S  S0  1  0.91552400  0.13487700  0.71243500  1
  S  S1  1  0.86512300  0.78064600  0.71243500  1
  S  S2  1  0.21935400  0.08447600  0.71243500  1
  S  S3  1  0.08447600  0.86512300  0.21243500  1
  S  S4  1  0.13487700  0.21935400  0.21243500  1
  S  S5  1  0.78064600  0.91552400  0.21243500  1
  S  S6  1  0.57945000  0.09658400  0.98250000  1
  S  S7  1  0.90341600  0.48286600  0.98250000  1
  S  S8  1  0.51713400  0.42055000  0.98250000  1
  S  S9  1  0.42055000  0.90341600  0.48250000  1
  S  S10  1  0.09658400  0.51713400  0.48250000  1
  S  S11  1  0.48286600  0.57945000  0.48250000  1
  S  S12  1  0.66666700  0.33333300  0.46642800  1
  S  S13  1  0.33333300  0.66666700  0.96642800  1
loop_
_geom_bond_atom_site_label_1
_geom_bond_atom_site_label_2
_geom_bond_distance
_geom_bond_site_symmetry_2
Nd0 S4 2.827039 1_655
Nd0 S5 2.843074 1_545
Nd0 S7 2.868063 1_554
Nd0 S12 2.875529 1_555
Nd0 S6 2.931288 1_554
Nd0 S10 2.978542 1_655
Nd0 S0 3.035408 1_555
Nd0 S0 3.549683 1_554
Nd1 S5 2.827049 1_555
Nd1 S3 2.843077 1_655
Nd1 S8 2.868063 1_554
Nd1 S12 2.875537 1_555
Nd1 S7 2.931288 1_554
Nd1 S11 2.978542 1_555
Nd1 S1 3.035405 1_555
Nd1 S1 3.549680 1_554
Nd2 S3 2.827045 1_545
Nd2 S4 2.843083 1_555
Nd2 S6 2.868063 1_554
Nd2 S12 2.875536 1_555
Nd2 S8 2.931288 1_554
Nd2 S9 2.978542 1_545
Nd2 S2 3.035404 1_555
Nd2 S2 3.549680 1_554
Nd3 S1 2.827039 1_455
Nd3 S2 2.843074 1_565
Nd3 S10 2.868063 1_555
Nd3 S13 2.875529 1_555
Nd3 S9 2.931288 1_555
Nd3 S7 2.978542 1_455
Nd3 S3 3.035408 1_556
Nd3 S3 3.549683 1_555
Nd4 S2 2.827049 1_555
Nd4 S0 2.843077 1_455
Nd4 S11 2.868063 1_555
Nd4 S13 2.875537 1_555
Nd4 S10 2.931288 1_555
Nd4 S8 2.978542 1_555
Nd4 S4 3.035405 1_556
Nd4 S4 3.549680 1_555
Nd5 S0 2.827045 1_565
Nd5 S1 2.843083 1_555
Nd5 S9 2.868063 1_555
Nd5 S13 2.875536 1_555
Nd5 S11 2.931288 1_555
Nd5 S6 2.978542 1_565
Nd5 S5 3.035404 1_556
Nd5 S5 3.549680 1_555
Al0 S12 2.220976 1_555
Al0 S6 2.251971 1_555
Al0 S7 2.251972 1_555
Al0 S8 2.251979 1_555
Al1 S13 2.220976 1_554
Al1 S9 2.251971 1_555
Al1 S10 2.251972 1_555
Al1 S11 2.251979 1_555
Co0 S0 2.397905 1_455
Co0 S1 2.397912 1_445
Co0 S2 2.397913 1_555
Co0 S3 2.471312 1_545
Co0 S4 2.471318 1_555
Co0 S5 2.471319 1_445
Co1 S3 2.397905 1_546
Co1 S4 2.397912 1_556
Co1 S5 2.397913 1_446
Co1 S0 2.471312 1_455
Co1 S1 2.471318 1_445
Co1 S2 2.471319 1_555
