# generated using pymatgen
data_Al9SiC7N
_symmetry_space_group_name_H-M   'P 1'
_cell_length_a   3.32460355
_cell_length_b   3.32460355
_cell_length_c   21.80525900
_cell_angle_alpha   90.00000000
_cell_angle_beta   90.00000000
_cell_angle_gamma   119.99999101
_symmetry_Int_Tables_number   1
_chemical_formula_structural   Al9SiC7N
_chemical_formula_sum   'Al9 Si1 C7 N1'
_cell_volume   208.72364420
_cell_formula_units_Z   1
loop_
 _symmetry_equiv_pos_site_id
 _symmetry_equiv_pos_as_xyz
  1  'x, y, z'
loop_
 _atom_site_type_symbol
 _atom_site_label
 _atom_site_symmetry_multiplicity
 _atom_site_fract_x
 _atom_site_fract_y
 _atom_site_fract_z
 _atom_site_occupancy
  Al  Al0  1  0.33333300  0.66666700  0.33937400  1
  Al  Al1  1  0.33333300  0.66666700  0.84556700  1
  Al  Al2  1  0.66666700  0.33333300  0.23477300  1
  Al  Al3  1  0.00000000  0.00000000  0.76012200  1
  Al  Al4  1  0.33333300  0.66666700  0.15004200  1
  Al  Al5  1  0.33333300  0.66666700  0.65527000  1
  Al  Al6  1  0.66666700  0.33333300  0.45442000  1
  Al  Al7  1  0.00000000  0.00000000  0.95253500  1
  Al  Al8  1  0.66666700  0.33333300  0.04529500  1
  Si  Si0  1  0.00000000  0.00000000  0.54575400  1
  C  C0  1  0.33333300  0.66666700  0.25085200  1
  C  C1  1  0.33333300  0.66666700  0.74713900  1
  C  C2  1  0.66666700  0.33333300  0.13410200  1
  C  C3  1  0.00000000  0.00000000  0.62522800  1
  C  C4  1  0.33333300  0.66666700  0.49977100  1
  C  C5  1  0.33333300  0.66666700  0.99925600  1
  C  C6  1  0.00000000  0.00000000  0.86380300  1
  N  N0  1  0.66666700  0.33333300  0.37069800  1
loop_
_geom_bond_atom_site_label_1
_geom_bond_atom_site_label_2
_geom_bond_distance
_geom_bond_site_symmetry_2
Al0 C0 1.930245 1_555
Al0 N0 2.037364 1_455
Al0 N0 2.037364 1_565
Al0 N0 2.037369 1_555
Al1 C6 1.960214 1_565
Al1 C6 1.960217 1_665
Al1 C6 1.960217 1_555
Al1 C1 2.146248 1_555
Al2 C0 1.951217 1_545
Al2 C0 1.951217 1_655
Al2 C0 1.951222 1_555
Al2 C2 2.195157 1_555
Al3 C1 1.940223 1_545
Al3 C1 1.940226 1_555
Al3 C1 1.940226 1_445
Al3 C6 2.260791 1_555
Al4 C2 1.950675 1_455
Al4 C2 1.950675 1_565
Al4 C2 1.950680 1_555
Al4 C0 2.198188 1_555
Al5 C1 2.003227 1_555
Al5 C3 2.028163 1_565
Al5 C3 2.028166 1_665
Al5 C3 2.028166 1_555
Al6 N0 1.825580 1_555
Al6 C4 2.159219 1_545
Al6 C4 2.159219 1_655
Al6 C4 2.159224 1_555
Al7 C6 1.934824 1_555
Al7 C5 2.173063 1_545
Al7 C5 2.173065 1_555
Al7 C5 2.173065 1_445
Al8 C2 1.936460 1_555
Al8 C5 2.166131 1_544
Al8 C5 2.166131 1_654
Al8 C5 2.166136 1_554
C3 Si0 1.732951 1_555
C4 Si0 2.165565 1_565
C4 Si0 2.165568 1_555
C4 Si0 2.165568 1_665
