# generated using pymatgen
data_CoPH14N4O7
_symmetry_space_group_name_H-M   'P 1'
_cell_length_a   7.55106300
_cell_length_b   7.35259400
_cell_length_c   11.92101269
_cell_angle_alpha   86.20769737
_cell_angle_beta   90.00000000
_cell_angle_gamma   90.00000000
_symmetry_Int_Tables_number   1
_chemical_formula_structural   CoPH14N4O7
_chemical_formula_sum   'Co2 P2 H28 N8 O14'
_cell_volume   660.40421974
_cell_formula_units_Z   2
loop_
 _symmetry_equiv_pos_site_id
 _symmetry_equiv_pos_as_xyz
  1  'x, y, z'
loop_
 _atom_site_type_symbol
 _atom_site_label
 _atom_site_symmetry_multiplicity
 _atom_site_fract_x
 _atom_site_fract_y
 _atom_site_fract_z
 _atom_site_occupancy
  Co  Co0  1  0.67388800  0.73836100  0.88682100  1
  Co  Co1  1  0.17388800  0.26163900  0.11317900  1
  P  P0  1  0.64397200  0.81163800  0.06843700  1
  P  P1  1  0.14397200  0.18836200  0.93156300  1
  H  H0  1  0.82618000  0.55015200  0.49987800  1
  H  H1  1  0.32618000  0.44984800  0.50012200  1
  H  H2  1  0.19007000  0.03576300  0.68535400  1
  H  H3  1  0.69007000  0.96423700  0.31464600  1
  H  H4  1  0.92524000  0.40044700  0.87691000  1
  H  H5  1  0.42524000  0.59955300  0.12309000  1
  H  H6  1  0.11160900  0.71081000  0.09631600  1
  H  H7  1  0.61160900  0.28919000  0.90368400  1
  H  H8  1  0.05229500  0.01935400  0.92311500  1
  H  H9  1  0.55229500  0.98064600  0.07688500  1
  H  H10  1  0.06259200  0.59075400  0.98965800  1
  H  H11  1  0.56259200  0.40924600  0.01034200  1
  H  H12  1  0.44778400  0.82539400  0.85274700  1
  H  H13  1  0.94778400  0.17460600  0.14725300  1
  H  H14  1  0.43149100  0.14335700  0.23643900  1
  H  H15  1  0.93149100  0.85664300  0.76356100  1
  H  H16  1  0.48304700  0.79653000  0.79441800  1
  H  H17  1  0.98304700  0.20347000  0.20558200  1
  H  H18  1  0.65674700  0.83953500  0.49635400  1
  H  H19  1  0.15674700  0.16046500  0.50364600  1
  H  H20  1  0.38464100  0.24900500  0.76725100  1
  H  H21  1  0.88464100  0.75099500  0.23274900  1
  H  H22  1  0.74152200  0.94829200  0.71459200  1
  H  H23  1  0.24152200  0.05170800  0.28540800  1
  H  H24  1  0.47811700  0.72782400  0.50930500  1
  H  H25  1  0.97811700  0.27217600  0.49069500  1
  H  H26  1  0.76018600  0.41739100  0.41523100  1
  H  H27  1  0.26018600  0.58260900  0.58476900  1
  N  N0  1  0.17292800  0.89614800  0.70563200  1
  N  N1  1  0.67292800  0.10385200  0.29436800  1
  N  N2  1  0.16686400  0.64409900  0.03199900  1
  N  N3  1  0.66686400  0.35590100  0.96800100  1
  N  N4  1  0.50186900  0.19457400  0.62605000  1
  N  N5  1  0.00186900  0.80542600  0.37395000  1
  N  N6  1  0.79783100  0.86865100  0.77873100  1
  N  N7  1  0.29783100  0.13134900  0.22126900  1
  O  O0  1  0.83145500  0.83407800  0.11277300  1
  O  O1  1  0.33145500  0.16592200  0.88722700  1
  O  O2  1  0.76782000  0.50384300  0.91693600  1
  O  O3  1  0.26782000  0.49615700  0.08306400  1
  O  O4  1  0.88179500  0.70058300  0.31486600  1
  O  O5  1  0.38179500  0.29941700  0.68513400  1
  O  O6  1  0.53660200  0.66964200  0.14811800  1
  O  O7  1  0.03660200  0.33035800  0.85188200  1
  O  O8  1  0.54530800  0.83162300  0.53690300  1
  O  O9  1  0.04530800  0.16837700  0.46309700  1
  O  O10  1  0.98208900  0.77815000  0.47320000  1
  O  O11  1  0.48208900  0.22185000  0.52680000  1
  O  O12  1  0.79085900  0.42308100  0.49438500  1
  O  O13  1  0.29085900  0.57691900  0.50561500  1
loop_
_geom_bond_atom_site_label_1
_geom_bond_atom_site_label_2
_geom_bond_distance
_geom_bond_site_symmetry_2
Co0 N6 1.814022 1_555
Co0 H16 1.846786 1_555
Co0 H12 1.858781 1_555
Co0 O2 1.877058 1_555
Co0 P0 2.276628 1_556
Co1 N7 1.814022 1_555
Co1 H17 1.846786 1_455
Co1 H13 1.858781 1_455
Co1 O3 1.877058 1_555
Co1 P1 2.276628 1_554
H0 O12 0.977975 1_555
H1 O13 0.977975 1_555
H2 N0 1.046964 1_545
H3 N1 1.046964 1_565
H4 O7 1.040213 1_655
H4 O2 1.505518 1_555
H5 O6 1.040213 1_555
H5 O3 1.505518 1_555
H6 N2 1.025810 1_555
H7 N3 1.025810 1_555
H8 P1 1.431814 1_555
H9 P0 1.431814 1_555
H10 N2 1.027006 1_556
H11 N3 1.027006 1_554
H12 H16 0.786740 1_555
H13 H17 0.786740 1_555
H14 N7 1.030168 1_555
H15 N6 1.030168 1_555
H18 O8 0.970268 1_555
H19 O9 0.970268 1_555
H20 O5 1.023784 1_555
H20 O1 1.569860 1_555
H21 O4 1.023784 1_555
H21 O0 1.569860 1_555
H22 N6 1.024241 1_555
H23 N7 1.024241 1_555
H24 O8 0.990622 1_555
H25 O9 0.990622 1_655
H26 O12 0.975187 1_555
H27 O13 0.975187 1_555
N2 O3 1.430852 1_555
N3 O2 1.430852 1_555
N4 O11 1.196248 1_555
N4 O5 1.408629 1_555
N5 O10 1.196248 1_455
N5 O4 1.408629 1_455
O0 P0 1.523908 1_555
O1 P1 1.523908 1_555
O6 P0 1.586956 1_555
O7 P1 1.586956 1_555
