# generated using pymatgen
data_Fe11MoC4
_symmetry_space_group_name_H-M   'P 1'
_cell_length_a   4.52682200
_cell_length_b   5.05055769
_cell_length_c   6.84420298
_cell_angle_alpha   89.60198068
_cell_angle_beta   89.96728444
_cell_angle_gamma   89.37895883
_symmetry_Int_Tables_number   1
_chemical_formula_structural   Fe11MoC4
_chemical_formula_sum   'Fe11 Mo1 C4'
_cell_volume   156.46585940
_cell_formula_units_Z   1
loop_
 _symmetry_equiv_pos_site_id
 _symmetry_equiv_pos_as_xyz
  1  'x, y, z'
loop_
 _atom_site_type_symbol
 _atom_site_label
 _atom_site_symmetry_multiplicity
 _atom_site_fract_x
 _atom_site_fract_y
 _atom_site_fract_z
 _atom_site_occupancy
  Fe  Fe0  1  0.83222300  0.03351100  0.25386300  1
  Fe  Fe1  1  0.33400400  0.46017600  0.75052900  1
  Fe  Fe2  1  0.66363600  0.54182100  0.25173500  1
  Fe  Fe3  1  0.16601900  0.96169000  0.75548900  1
  Fe  Fe4  1  0.33514500  0.17418300  0.08148600  1
  Fe  Fe5  1  0.16540600  0.67570900  0.43418700  1
  Fe  Fe6  1  0.66365000  0.81879900  0.56453500  1
  Fe  Fe7  1  0.67015200  0.82398400  0.92405100  1
  Fe  Fe8  1  0.17819700  0.68463200  0.07372100  1
  Fe  Fe9  1  0.83030700  0.32363800  0.56117100  1
  Fe  Fe10  1  0.32918700  0.17730700  0.43750200  1
  Mo  Mo0  1  0.83483800  0.31851100  0.93787700  1
  C  C0  1  0.43646900  0.87818100  0.26039500  1
  C  C1  1  0.94402400  0.63136100  0.72980000  1
  C  C2  1  0.06227800  0.37792500  0.25470600  1
  C  C3  1  0.55446600  0.11857300  0.72895200  1
loop_
_geom_bond_atom_site_label_1
_geom_bond_atom_site_label_2
_geom_bond_distance
_geom_bond_site_symmetry_2
Fe0 Mo0 2.589649 1_554
Fe1 Mo0 2.692884 1_555
Fe1 Mo0 2.698338 1_455
Fe2 Mo0 2.549476 1_554
Fe3 Mo0 2.650306 1_465
Fe4 Mo0 2.565841 1_454
Fe4 Mo0 2.576317 1_554
Fe7 Mo0 2.616611 1_565
Fe7 Mo0 2.652848 1_555
Fe8 Mo0 2.605267 1_454
Fe9 Mo0 2.578294 1_555
C0 Fe0 1.963882 1_565
C0 Fe4 1.976121 1_565
C0 Fe2 1.977474 1_555
C0 Fe5 1.993699 1_555
C0 Fe10 1.999104 1_565
C0 Fe8 1.999666 1_555
C1 Fe6 1.935762 1_555
C1 Fe1 1.962053 1_655
C1 Fe3 1.965909 1_655
C1 Fe9 2.013805 1_555
C1 Fe7 2.059361 1_555
C1 Mo0 2.180343 1_555
C1 Fe5 2.268088 1_655
C2 Fe2 1.977258 1_455
C2 Fe4 1.994465 1_555
C2 Fe10 2.002328 1_555
C2 Fe5 2.007587 1_555
C2 Fe0 2.037106 1_455
C2 Fe8 2.049263 1_555
C2 Mo0 2.422913 1_454
C3 Fe3 1.944407 1_545
C3 Fe6 1.951841 1_545
C3 Fe9 1.990075 1_555
C3 Fe1 1.990089 1_555
C3 Fe7 2.056025 1_545
C3 Mo0 2.173741 1_555
C3 Fe10 2.257106 1_555
