# generated using pymatgen
data_Ba2LiTmCu3O7
_symmetry_space_group_name_H-M   'P 1'
_cell_length_a   3.77034100
_cell_length_b   3.94526200
_cell_length_c   12.75988800
_cell_angle_alpha   90.00000000
_cell_angle_beta   90.00000000
_cell_angle_gamma   90.00000000
_symmetry_Int_Tables_number   1
_chemical_formula_structural   Ba2LiTmCu3O7
_chemical_formula_sum   'Ba2 Li1 Tm1 Cu3 O7'
_cell_volume   189.80311803
_cell_formula_units_Z   1
loop_
 _symmetry_equiv_pos_site_id
 _symmetry_equiv_pos_as_xyz
  1  'x, y, z'
loop_
 _atom_site_type_symbol
 _atom_site_label
 _atom_site_symmetry_multiplicity
 _atom_site_fract_x
 _atom_site_fract_y
 _atom_site_fract_z
 _atom_site_occupancy
  Ba  Ba0  1  0.50000000  0.48823500  0.21401800  1
  Ba  Ba1  1  0.50000000  0.48823500  0.78598200  1
  Li  Li0  1  0.50000000  0.63754800  0.00000000  1
  Tm  Tm0  1  0.50000000  0.49429200  0.50000000  1
  Cu  Cu0  1  0.00000000  0.99403400  0.61900900  1
  Cu  Cu1  1  0.00000000  0.99403400  0.38099100  1
  Cu  Cu2  1  0.00000000  0.05175300  0.00000000  1
  O  O0  1  0.50000000  0.99459200  0.39056500  1
  O  O1  1  0.00000000  0.03062400  0.84935300  1
  O  O2  1  0.50000000  0.99459200  0.60943500  1
  O  O3  1  0.00000000  0.49423700  0.38813500  1
  O  O4  1  0.00000000  0.49423700  0.61186500  1
  O  O5  1  0.00000000  0.03062400  0.15064700  1
  O  O6  1  0.00000000  0.54629600  0.00000000  1
loop_
_geom_bond_atom_site_label_1
_geom_bond_atom_site_label_2
_geom_bond_distance
_geom_bond_site_symmetry_2
Ba0 O5 2.732611 1_655
Ba0 O5 2.732611 1_555
Ba0 O3 2.913836 1_555
Ba0 O3 2.913836 1_655
Ba0 O5 2.964244 1_665
Ba0 O5 2.964244 1_565
Ba0 O0 2.977869 1_545
Ba0 O0 3.010913 1_555
Ba1 O1 2.732611 1_655
Ba1 O1 2.732611 1_555
Ba1 O4 2.913836 1_555
Ba1 O4 2.913836 1_655
Ba1 O1 2.964244 1_565
Ba1 O1 2.964244 1_665
Ba1 O2 2.977869 1_545
Ba1 O2 3.010913 1_555
Li0 O6 1.919239 1_655
Li0 O6 1.919239 1_555
Cu0 O2 1.889126 1_555
Cu0 O2 1.889126 1_455
Cu0 O4 1.973936 1_555
Cu0 O4 1.975536 1_565
Cu1 O0 1.889126 1_555
Cu1 O0 1.889126 1_455
Cu1 O3 1.973936 1_555
Cu1 O3 1.975536 1_565
Cu2 O5 1.924045 1_555
Cu2 O1 1.924045 1_554
Cu2 O6 1.951102 1_555
Cu2 O6 1.994160 1_545
O0 Tm0 2.415880 1_565
O0 Tm0 2.417812 1_555
O2 Tm0 2.415880 1_565
O2 Tm0 2.417812 1_555
O3 Tm0 2.364592 1_455
O3 Tm0 2.364592 1_555
O4 Tm0 2.364592 1_455
O4 Tm0 2.364592 1_555
