# generated using pymatgen
data_SmGdB12
_symmetry_space_group_name_H-M   'P 1'
_cell_length_a   5.80947075
_cell_length_b   5.80946974
_cell_length_c   4.10458766
_cell_angle_alpha   90.00000000
_cell_angle_beta   90.00000000
_cell_angle_gamma   90.00000000
_symmetry_Int_Tables_number   1
_chemical_formula_structural   SmGdB12
_chemical_formula_sum   'Sm1 Gd1 B12'
_cell_volume   138.52960583
_cell_formula_units_Z   1
loop_
 _symmetry_equiv_pos_site_id
 _symmetry_equiv_pos_as_xyz
  1  'x, y, z'
loop_
 _atom_site_type_symbol
 _atom_site_label
 _atom_site_symmetry_multiplicity
 _atom_site_fract_x
 _atom_site_fract_y
 _atom_site_fract_z
 _atom_site_occupancy
  Sm  Sm0  1  0.50000000  0.50000000  -0.00000000  1
  Gd  Gd0  1  -0.00000000  -0.00000000  -0.00000000  1
  B  B0  1  -0.00000000  0.50000000  0.19924666  1
  B  B1  1  0.50000000  -0.00000000  0.19924666  1
  B  B2  1  0.15022573  0.65063465  0.50000000  1
  B  B3  1  0.65063465  0.15022573  0.50000000  1
  B  B4  1  0.15022573  0.34936535  0.50000000  1
  B  B5  1  0.65063465  0.84977427  0.50000000  1
  B  B6  1  0.84977427  0.34936535  0.50000000  1
  B  B7  1  0.34936535  0.84977427  0.50000000  1
  B  B8  1  0.84977427  0.65063465  0.50000000  1
  B  B9  1  0.34936535  0.15022573  0.50000000  1
  B  B10  1  -0.00000000  0.50000000  0.80075334  1
  B  B11  1  0.50000000  -0.00000000  0.80075334  1
loop_
_geom_bond_atom_site_label_1
_geom_bond_atom_site_label_2
_geom_bond_distance
_geom_bond_site_symmetry_2
B0 B10 1.635651 1_554
B0 B4 1.746822 1_555
B0 B8 1.746822 1_455
B0 B2 1.746822 1_555
B0 B6 1.746822 1_455
B0 Gd0 3.017668 1_565
B0 Gd0 3.017668 1_555
B0 Sm0 3.017669 1_455
B0 Sm0 3.017669 1_555
B1 B11 1.635651 1_554
B1 B7 1.746822 1_545
B1 B9 1.746822 1_555
B1 B3 1.746822 1_555
B1 B5 1.746822 1_545
B1 Sm0 3.017668 1_555
B1 Sm0 3.017668 1_545
B1 Gd0 3.017669 1_655
B1 Gd0 3.017669 1_555
B2 B7 1.636098 1_555
B2 B8 1.745464 1_455
B2 B4 1.750215 1_555
B2 Gd0 3.015453 1_565
B2 Gd0 3.015453 1_566
B2 Sm0 3.017741 1_556
B2 Sm0 3.017741 1_555
B3 B6 1.636098 1_555
B3 B5 1.745464 1_545
B3 B9 1.750215 1_555
B3 Gd0 3.015453 1_656
B3 Gd0 3.015453 1_655
B3 Sm0 3.017741 1_556
B3 Sm0 3.017741 1_555
B4 B9 1.636098 1_555
B4 B6 1.745464 1_455
B4 Gd0 3.015453 1_556
B4 Gd0 3.015453 1_555
B4 Sm0 3.017741 1_556
B4 Sm0 3.017741 1_555
B5 B8 1.636098 1_555
B5 B7 1.750215 1_555
B5 Gd0 3.015453 1_665
B5 Gd0 3.015453 1_666
B5 Sm0 3.017741 1_556
B5 Sm0 3.017741 1_555
B6 B8 1.750215 1_555
B6 Gd0 3.015453 1_656
B6 Gd0 3.015453 1_655
B6 Sm0 3.017741 1_556
B6 Sm0 3.017741 1_555
B7 B9 1.745464 1_565
B7 Gd0 3.015453 1_565
B7 Gd0 3.015453 1_566
B7 Sm0 3.017741 1_556
B7 Sm0 3.017741 1_555
B8 Gd0 3.015453 1_665
B8 Gd0 3.015453 1_666
B8 Sm0 3.017741 1_556
B8 Sm0 3.017741 1_555
B9 Gd0 3.015453 1_556
B9 Gd0 3.015453 1_555
B9 Sm0 3.017741 1_556
B9 Sm0 3.017741 1_555
B10 B4 1.746822 1_555
B10 B8 1.746822 1_455
B10 B2 1.746822 1_555
B10 B6 1.746822 1_455
B10 Gd0 3.017668 1_556
B10 Gd0 3.017668 1_566
B10 Sm0 3.017669 1_456
B10 Sm0 3.017669 1_556
B11 B7 1.746822 1_545
B11 B3 1.746822 1_555
B11 B9 1.746822 1_555
B11 B5 1.746822 1_545
B11 Sm0 3.017668 1_546
B11 Sm0 3.017668 1_556
B11 Gd0 3.017669 1_556
B11 Gd0 3.017669 1_656
