# generated using pymatgen
data_SmUAl4
_symmetry_space_group_name_H-M   'P 1'
_cell_length_a   5.56389375
_cell_length_b   5.56389375
_cell_length_c   5.56389375
_cell_angle_alpha   60.00000000
_cell_angle_beta   60.00000000
_cell_angle_gamma   60.00000000
_symmetry_Int_Tables_number   1
_chemical_formula_structural   SmUAl4
_chemical_formula_sum   'Sm1 U1 Al4'
_cell_volume   121.79276381
_cell_formula_units_Z   1
loop_
 _symmetry_equiv_pos_site_id
 _symmetry_equiv_pos_as_xyz
  1  'x, y, z'
loop_
 _atom_site_type_symbol
 _atom_site_label
 _atom_site_symmetry_multiplicity
 _atom_site_fract_x
 _atom_site_fract_y
 _atom_site_fract_z
 _atom_site_occupancy
  Sm  Sm0  1  0.75000000  0.75000000  0.75000000  1
  U  U0  1  0.00000000  0.00000000  0.00000000  1
  Al  Al0  1  0.37440800  0.37440800  0.37440800  1
  Al  Al1  1  0.37440800  0.87677600  0.37440800  1
  Al  Al2  1  0.87677600  0.37440800  0.37440800  1
  Al  Al3  1  0.37440800  0.37440800  0.87677600  1
loop_
_geom_bond_atom_site_label_1
_geom_bond_atom_site_label_2
_geom_bond_distance
_geom_bond_site_symmetry_2
Sm0 U0 3.407175 1_566
Sm0 U0 3.407175 1_656
Sm0 U0 3.407175 1_665
Sm0 U0 3.407175 1_666
Al0 Al1 2.768772 1_545
Al0 Al2 2.768772 1_455
Al0 Al3 2.768772 1_554
Al0 Al2 2.795122 1_555
Al0 Al3 2.795122 1_555
Al0 Al1 2.795122 1_555
Al0 U0 3.260727 1_565
Al0 U0 3.260727 1_655
Al0 U0 3.260727 1_556
Al0 Sm0 3.263536 1_455
Al0 Sm0 3.263536 1_545
Al0 Sm0 3.263536 1_554
Al1 Al2 2.768772 1_465
Al1 Al3 2.768772 1_564
Al1 Al2 2.795122 1_555
Al1 Al3 2.795122 1_555
Al1 U0 3.260727 1_566
Al1 U0 3.260727 1_565
Al1 U0 3.260727 1_665
Al1 Sm0 3.263536 1_555
Al1 Sm0 3.263536 1_554
Al1 Sm0 3.263536 1_455
Al2 Al3 2.768772 1_654
Al2 Al3 2.795122 1_555
Al2 U0 3.260727 1_656
Al2 U0 3.260727 1_665
Al2 U0 3.260727 1_655
Al2 Sm0 3.263536 1_555
Al2 Sm0 3.263536 1_554
Al2 Sm0 3.263536 1_545
Al3 U0 3.260727 1_566
Al3 U0 3.260727 1_656
Al3 U0 3.260727 1_556
Al3 Sm0 3.263536 1_555
Al3 Sm0 3.263536 1_545
Al3 Sm0 3.263536 1_455
