# generated using pymatgen
data_ZrB12
_symmetry_space_group_name_H-M   'P 1'
_cell_length_a   5.22871027
_cell_length_b   5.22871019
_cell_length_c   5.22871080
_cell_angle_alpha   60.00000883
_cell_angle_beta   60.00000932
_cell_angle_gamma   59.99999469
_symmetry_Int_Tables_number   1
_chemical_formula_structural   ZrB12
_chemical_formula_sum   'Zr1 B12'
_cell_volume   101.08083368
_cell_formula_units_Z   1
loop_
 _symmetry_equiv_pos_site_id
 _symmetry_equiv_pos_as_xyz
  1  'x, y, z'
loop_
 _atom_site_type_symbol
 _atom_site_label
 _atom_site_symmetry_multiplicity
 _atom_site_fract_x
 _atom_site_fract_y
 _atom_site_fract_z
 _atom_site_occupancy
  Zr  Zr0  1  0.00000000  0.00000000  -0.00000000  1
  B  B0  1  0.16072418  0.50000000  0.50000000  1
  B  B1  1  0.83927582  0.50000000  0.50000000  1
  B  B2  1  0.50000000  0.50000000  0.83927582  1
  B  B3  1  0.83927582  0.16072418  0.50000000  1
  B  B4  1  0.50000000  0.83927582  0.16072418  1
  B  B5  1  0.50000000  0.16072418  0.83927582  1
  B  B6  1  0.50000000  0.83927582  0.50000000  1
  B  B7  1  0.83927582  0.50000000  0.16072418  1
  B  B8  1  0.16072418  0.83927582  0.50000000  1
  B  B9  1  0.50000000  0.16072418  0.50000000  1
  B  B10  1  0.16072418  0.50000000  0.83927582  1
  B  B11  1  0.50000000  0.50000000  0.16072418  1
loop_
_geom_bond_atom_site_label_1
_geom_bond_atom_site_label_2
_geom_bond_distance
_geom_bond_site_symmetry_2
B0 B1 1.680760 1_455
B0 B9 1.773975 1_555
B0 B8 1.773975 1_555
B0 B10 1.773975 1_555
B0 B11 1.773975 1_555
B0 Zr0 2.746105 1_565
B0 Zr0 2.746105 1_556
B1 B6 1.773975 1_555
B1 B3 1.773975 1_555
B1 B7 1.773975 1_555
B1 B2 1.773975 1_555
B1 Zr0 2.746105 1_656
B1 Zr0 2.746105 1_665
B2 B5 1.773975 1_555
B2 B6 1.773975 1_555
B2 Zr0 2.746105 1_566
B2 Zr0 2.746105 1_656
B3 B8 1.680760 1_645
B3 B9 1.773975 1_555
B3 B7 1.773975 1_555
B3 B5 1.773975 1_555
B3 Zr0 2.746105 1_655
B3 Zr0 2.746105 1_656
B4 B5 1.680761 1_564
B4 B7 1.773975 1_555
B4 B6 1.773975 1_555
B4 B8 1.773975 1_555
B4 Zr0 2.746105 1_565
B4 Zr0 2.746105 1_665
B5 B9 1.773975 1_555
B5 Zr0 2.746105 1_656
B5 Zr0 2.746105 1_556
B6 B9 1.680760 1_565
B6 B8 1.773975 1_555
B6 Zr0 2.746105 1_566
B6 Zr0 2.746105 1_665
B7 Zr0 2.746105 1_655
B7 Zr0 2.746105 1_665
B8 Zr0 2.746105 1_566
B8 Zr0 2.746105 1_565
B9 Zr0 2.746105 1_655
B9 Zr0 2.746105 1_556
B10 B7 1.680761 1_456
B10 B5 1.773975 1_555
B10 B2 1.773975 1_555
B10 B8 1.773975 1_555
B10 Zr0 2.746105 1_566
B10 Zr0 2.746105 1_556
B11 B2 1.680761 1_554
B11 B4 1.773975 1_555
B11 B7 1.773975 1_555
B11 B9 1.773975 1_555
B11 Zr0 2.746105 1_655
B11 Zr0 2.746105 1_565
