# generated using pymatgen
data_Pr4(FeB2)3
_symmetry_space_group_name_H-M   'P 1'
_cell_length_a   5.42283176
_cell_length_b   5.42283200
_cell_length_c   8.25028460
_cell_angle_alpha   70.81343791
_cell_angle_beta   70.81343608
_cell_angle_gamma   59.99999856
_symmetry_Int_Tables_number   1
_chemical_formula_structural   Pr4(FeB2)3
_chemical_formula_sum   'Pr4 Fe3 B6'
_cell_volume   194.39546747
_cell_formula_units_Z   1
loop_
 _symmetry_equiv_pos_site_id
 _symmetry_equiv_pos_as_xyz
  1  'x, y, z'
loop_
 _atom_site_type_symbol
 _atom_site_label
 _atom_site_symmetry_multiplicity
 _atom_site_fract_x
 _atom_site_fract_y
 _atom_site_fract_z
 _atom_site_occupancy
  Pr  Pr0  1  0.74294700  0.74294700  0.77115800  1
  Pr  Pr1  1  0.25705300  0.25705300  0.22884200  1
  Pr  Pr2  1  0.58933900  0.58933900  0.23198400  1
  Pr  Pr3  1  0.41066100  0.41066100  0.76801600  1
  Fe  Fe0  1  0.00000000  0.00000000  0.00000000  1
  Fe  Fe1  1  0.88282500  0.88282500  0.35152400  1
  Fe  Fe2  1  0.11717500  0.11717500  0.64847600  1
  B  B0  1  0.50000000  0.16657200  0.50000000  1
  B  B1  1  0.83342800  0.50000000  0.50000000  1
  B  B2  1  0.16657200  0.83342800  0.50000000  1
  B  B3  1  0.16657200  0.50000000  0.50000000  1
  B  B4  1  0.83342800  0.16657200  0.50000000  1
  B  B5  1  0.50000000  0.83342800  0.50000000  1
loop_
_geom_bond_atom_site_label_1
_geom_bond_atom_site_label_2
_geom_bond_distance
_geom_bond_site_symmetry_2
Pr0 Pr3 3.130965 1_655
Pr0 Pr3 3.130965 1_555
Pr0 Pr3 3.130965 1_565
Pr0 Pr2 3.517549 1_556
Pr1 Pr2 3.130965 1_455
Pr1 Pr2 3.130965 1_555
Pr1 Pr2 3.130965 1_545
Pr1 Pr3 3.517549 1_554
Fe0 Fe1 2.683232 1_445
Fe0 Fe2 2.683232 1_554
Fe0 Pr0 3.585193 1_544
Fe0 Pr1 3.585193 1_455
Fe0 Pr0 3.585193 1_454
Fe0 Pr1 3.585193 1_545
Fe0 Pr1 3.585197 1_555
Fe0 Pr0 3.585197 1_444
Fe0 Pr2 3.596938 1_445
Fe0 Pr3 3.596938 1_554
Fe0 Pr2 3.596942 1_545
Fe0 Pr3 3.596942 1_454
Fe0 Pr2 3.596942 1_455
Fe0 Pr3 3.596942 1_544
Fe1 Pr2 3.261123 1_555
Fe1 Pr2 3.261132 1_655
Fe1 Pr2 3.261132 1_565
Fe2 Pr3 3.261123 1_555
Fe2 Pr3 3.261132 1_455
Fe2 Pr3 3.261132 1_545
B0 B5 1.806584 1_545
B0 B4 1.808124 1_555
B0 B3 1.808124 1_555
B0 Fe2 2.133301 1_555
B0 Fe1 2.133303 1_545
B0 Pr3 2.730314 1_555
B0 Pr2 2.730318 1_555
B0 Pr1 2.747824 1_555
B0 Pr0 2.747826 1_545
B1 B3 1.806584 1_655
B1 B5 1.808124 1_555
B1 B4 1.808124 1_555
B1 Fe1 2.133301 1_555
B1 Fe2 2.133303 1_655
B1 Pr2 2.730314 1_555
B1 Pr3 2.730318 1_555
B1 Pr0 2.747824 1_555
B1 Pr1 2.747826 1_655
B2 B4 1.806584 1_465
B2 B5 1.808124 1_555
B2 B3 1.808124 1_555
B2 Fe1 2.133306 1_455
B2 Fe2 2.133306 1_565
B2 Pr2 2.730316 1_555
B2 Pr3 2.730316 1_555
B2 Pr0 2.747828 1_455
B2 Pr1 2.747828 1_565
B3 Fe2 2.133301 1_555
B3 Fe1 2.133303 1_455
B3 Pr3 2.730314 1_555
B3 Pr2 2.730318 1_555
B3 Pr1 2.747824 1_555
B3 Pr0 2.747826 1_455
B4 Fe2 2.133306 1_655
B4 Fe1 2.133306 1_545
B4 Pr3 2.730316 1_555
B4 Pr2 2.730316 1_555
B4 Pr1 2.747828 1_655
B4 Pr0 2.747828 1_545
B5 Fe1 2.133301 1_555
B5 Fe2 2.133303 1_565
B5 Pr2 2.730314 1_555
B5 Pr3 2.730318 1_555
B5 Pr0 2.747824 1_555
B5 Pr1 2.747826 1_565
