# generated using pymatgen
data_Gd3Sb4Au3
_symmetry_space_group_name_H-M   'P 1'
_cell_length_a   8.66466557
_cell_length_b   8.66466557
_cell_length_c   8.66466557
_cell_angle_alpha   109.47122063
_cell_angle_beta   109.47122063
_cell_angle_gamma   109.47122063
_symmetry_Int_Tables_number   1
_chemical_formula_structural   Gd3Sb4Au3
_chemical_formula_sum   'Gd6 Sb8 Au6'
_cell_volume   500.76448930
_cell_formula_units_Z   2
loop_
 _symmetry_equiv_pos_site_id
 _symmetry_equiv_pos_as_xyz
  1  'x, y, z'
loop_
 _atom_site_type_symbol
 _atom_site_label
 _atom_site_symmetry_multiplicity
 _atom_site_fract_x
 _atom_site_fract_y
 _atom_site_fract_z
 _atom_site_occupancy
  Gd  Gd0  1  0.87500000  0.25000000  0.12500000  1
  Gd  Gd1  1  0.62500000  0.75000000  0.37500000  1
  Gd  Gd2  1  0.25000000  0.12500000  0.87500000  1
  Gd  Gd3  1  0.75000000  0.37500000  0.62500000  1
  Gd  Gd4  1  0.12500000  0.87500000  0.25000000  1
  Gd  Gd5  1  0.37500000  0.62500000  0.75000000  1
  Sb  Sb0  1  0.67340100  0.50000000  0.00000000  1
  Sb  Sb1  1  0.50000000  0.00000000  0.67340100  1
  Sb  Sb2  1  0.00000000  0.67340100  0.50000000  1
  Sb  Sb3  1  0.82659900  0.82659900  0.82659900  1
  Sb  Sb4  1  0.50000000  0.00000000  0.17340100  1
  Sb  Sb5  1  0.17340100  0.50000000  0.00000000  1
  Sb  Sb6  1  0.00000000  0.17340100  0.50000000  1
  Sb  Sb7  1  0.32659900  0.32659900  0.32659900  1
  Au  Au0  1  0.37500000  0.25000000  0.62500000  1
  Au  Au1  1  0.12500000  0.75000000  0.87500000  1
  Au  Au2  1  0.25000000  0.62500000  0.37500000  1
  Au  Au3  1  0.75000000  0.87500000  0.12500000  1
  Au  Au4  1  0.62500000  0.37500000  0.25000000  1
  Au  Au5  1  0.87500000  0.12500000  0.75000000  1
loop_
_geom_bond_atom_site_label_1
_geom_bond_atom_site_label_2
_geom_bond_distance
_geom_bond_site_symmetry_2
Gd0 Sb7 3.426658 1_655
Gd0 Sb0 3.426658 1_555
Gd0 Sb1 3.426658 1_554
Gd0 Sb6 3.426658 1_655
Gd0 Sb5 3.499653 1_655
Gd0 Sb3 3.499653 1_544
Gd0 Sb4 3.499653 1_555
Gd0 Sb2 3.499653 1_655
Gd1 Sb5 3.426658 1_555
Gd1 Sb2 3.426658 1_655
Gd1 Sb3 3.426658 1_555
Gd1 Sb4 3.426658 1_565
Gd1 Sb6 3.499653 1_665
Gd1 Sb1 3.499653 1_565
Gd1 Sb0 3.499653 1_555
Gd1 Sb7 3.499653 1_555
Gd2 Sb7 3.426658 1_556
Gd2 Sb5 3.426658 1_556
Gd2 Sb2 3.426658 1_545
Gd2 Sb1 3.426658 1_555
Gd2 Sb6 3.499653 1_555
Gd2 Sb4 3.499653 1_556
Gd2 Sb3 3.499653 1_445
Gd2 Sb0 3.499653 1_556
Gd3 Sb6 3.426658 1_655
Gd3 Sb0 3.426658 1_556
Gd3 Sb3 3.426658 1_555
Gd3 Sb4 3.426658 1_555
Gd3 Sb5 3.499653 1_656
Gd3 Sb1 3.499653 1_555
Gd3 Sb2 3.499653 1_655
Gd3 Sb7 3.499653 1_555
Gd4 Sb7 3.426658 1_565
Gd4 Sb0 3.426658 1_455
Gd4 Sb2 3.426658 1_555
Gd4 Sb4 3.426658 1_565
Gd4 Sb6 3.499653 1_565
Gd4 Sb3 3.499653 1_454
Gd4 Sb5 3.499653 1_555
Gd4 Sb1 3.499653 1_565
Gd5 Sb1 3.426658 1_565
Gd5 Sb3 3.426658 1_555
Gd5 Sb5 3.426658 1_556
Gd5 Sb6 3.426658 1_555
Gd5 Sb4 3.499653 1_566
Gd5 Sb2 3.499653 1_555
Gd5 Sb0 3.499653 1_556
Gd5 Sb7 3.499653 1_555
Au0 Sb6 2.812140 1_555
Au0 Sb1 2.812140 1_555
Au0 Sb0 2.812140 1_556
Au0 Sb7 2.812140 1_555
Au0 Gd3 3.063422 1_555
Au0 Gd4 3.063422 1_545
Au0 Gd5 3.063422 1_555
Au0 Gd2 3.063422 1_555
Au1 Sb2 2.812140 1_555
Au1 Sb5 2.812140 1_556
Au1 Sb3 2.812140 1_455
Au1 Sb4 2.812140 1_566
Au1 Gd2 3.063422 1_565
Au1 Gd4 3.063422 1_556
Au1 Gd3 3.063422 1_455
Au1 Gd5 3.063422 1_555
Au2 Sb2 2.812140 1_555
Au2 Sb1 2.812140 1_565
Au2 Sb5 2.812140 1_555
Au2 Sb7 2.812140 1_555
Au2 Gd4 3.063422 1_555
Au2 Gd1 3.063422 1_555
Au2 Gd5 3.063422 1_555
Au2 Gd0 3.063422 1_455
Au3 Sb4 2.812140 1_565
Au3 Sb3 2.812140 1_554
Au3 Sb0 2.812140 1_555
Au3 Sb6 2.812140 1_665
Au3 Gd0 3.063422 1_565
Au3 Gd5 3.063422 1_554
Au3 Gd1 3.063422 1_555
Au3 Gd4 3.063422 1_655
Au4 Sb0 2.812140 1_555
Au4 Sb7 2.812140 1_555
Au4 Sb2 2.812140 1_655
Au4 Sb4 2.812140 1_555
Au4 Gd3 3.063422 1_555
Au4 Gd2 3.063422 1_554
Au4 Gd1 3.063422 1_555
Au4 Gd0 3.063422 1_555
Au5 Sb1 2.812140 1_555
Au5 Sb3 2.812140 1_545
Au5 Sb5 2.812140 1_656
Au5 Sb6 2.812140 1_655
Au5 Gd2 3.063422 1_655
Au5 Gd1 3.063422 1_545
Au5 Gd3 3.063422 1_555
Au5 Gd0 3.063422 1_556
