# generated using pymatgen
data_Rb2LiNb2(TeO6)2
_symmetry_space_group_name_H-M   'P 1'
_cell_length_a   7.49926830
_cell_length_b   7.59840396
_cell_length_c   7.51397065
_cell_angle_alpha   89.81658699
_cell_angle_beta   59.65918908
_cell_angle_gamma   120.17477439
_symmetry_Int_Tables_number   1
_chemical_formula_structural   Rb2LiNb2(TeO6)2
_chemical_formula_sum   'Rb2 Li1 Nb2 Te2 O12'
_cell_volume   299.88304961
_cell_formula_units_Z   1
loop_
 _symmetry_equiv_pos_site_id
 _symmetry_equiv_pos_as_xyz
  1  'x, y, z'
loop_
 _atom_site_type_symbol
 _atom_site_label
 _atom_site_symmetry_multiplicity
 _atom_site_fract_x
 _atom_site_fract_y
 _atom_site_fract_z
 _atom_site_occupancy
  Rb  Rb0  1  0.69074200  0.38339800  0.39086900  1
  Rb  Rb1  1  0.16521100  0.58088600  0.55563300  1
  Li  Li0  1  0.42733100  0.77551000  0.78963700  1
  Nb  Nb0  1  0.48680300  0.50421600  0.01373300  1
  Nb  Nb1  1  0.52535300  0.03333800  0.01409600  1
  Te  Te0  1  0.99611900  0.99532700  0.50860400  1
  Te  Te1  1  0.00990900  0.98915500  0.00424600  1
  O  O0  1  0.85688200  0.92067400  0.33462500  1
  O  O1  1  0.64636200  0.32358600  0.93741900  1
  O  O2  1  0.27034300  0.93124500  0.92731000  1
  O  O3  1  0.24505300  0.30197000  0.32726700  1
  O  O4  1  0.26419000  0.30923400  0.93052100  1
  O  O5  1  0.24610000  0.93703000  0.32507300  1
  O  O6  1  0.13744100  0.05843800  0.68016800  1
  O  O7  1  0.37040200  0.68367300  0.06979500  1
  O  O8  1  0.75443900  0.05995200  0.07718500  1
  O  O9  1  0.74347700  0.68676700  0.68583600  1
  O  O10  1  0.73924400  0.67723900  0.08197500  1
  O  O11  1  0.74603000  0.05371800  0.68860100  1
loop_
_geom_bond_atom_site_label_1
_geom_bond_atom_site_label_2
_geom_bond_distance
_geom_bond_site_symmetry_2
Li0 O11 1.958276 1_565
Li0 O7 1.970735 1_556
Li0 O2 2.008573 1_555
Li0 Rb1 3.119098 1_555
Nb0 O7 1.904621 1_555
Nb0 O4 1.986712 1_554
Nb0 O10 2.014519 1_555
Nb0 O3 2.014848 1_555
Nb0 O9 2.049944 1_554
Nb0 O1 2.146432 1_554
Nb1 O1 1.863077 1_554
Nb1 O8 1.921252 1_555
Nb1 O5 1.971264 1_545
Nb1 O11 2.096488 1_554
Nb1 O2 2.110935 1_544
Nb1 O7 2.232136 1_545
O0 Te0 1.977223 1_555
O0 Te1 2.064851 1_655
O1 Rb1 2.869056 1_655
O2 Te1 2.016722 1_556
O3 Te0 1.951330 1_445
O3 Rb1 2.838201 1_555
O4 Te1 2.029813 1_546
O5 Te0 1.959400 1_455
O5 Rb1 2.819650 1_555
O6 Te0 1.971888 1_445
O6 Te1 2.062612 1_546
O6 Rb0 2.931348 1_555
O7 Rb1 3.066414 1_555
O8 Te1 2.058479 1_645
O8 Rb0 3.450164 1_555
O9 Te0 1.955886 1_555
O9 Rb0 3.222438 1_555
O9 Rb1 3.323250 1_655
O10 Te1 2.008900 1_655
O10 Rb0 2.966818 1_555
O11 Te0 1.954791 1_545
O11 Rb1 3.326886 1_655
