# generated using pymatgen
data_ZnFeP2O7
_symmetry_space_group_name_H-M   'P 1'
_cell_length_a   7.12572928
_cell_length_b   7.44785561
_cell_length_c   9.77430507
_cell_angle_alpha   83.33365182
_cell_angle_beta   83.09303097
_cell_angle_gamma   85.86440568
_symmetry_Int_Tables_number   1
_chemical_formula_structural   ZnFeP2O7
_chemical_formula_sum   'Zn4 Fe4 P8 O28'
_cell_volume   510.59931101
_cell_formula_units_Z   4
loop_
 _symmetry_equiv_pos_site_id
 _symmetry_equiv_pos_as_xyz
  1  'x, y, z'
loop_
 _atom_site_type_symbol
 _atom_site_label
 _atom_site_symmetry_multiplicity
 _atom_site_fract_x
 _atom_site_fract_y
 _atom_site_fract_z
 _atom_site_occupancy
  Zn  Zn0  1  0.16325400  0.65850100  0.49101100  1
  Zn  Zn1  1  0.66299300  0.65872300  0.99102200  1
  Zn  Zn2  1  0.83688700  0.34128900  0.50901300  1
  Zn  Zn3  1  0.33669400  0.34156000  0.00898600  1
  Fe  Fe0  1  0.44988100  0.20213200  0.70720200  1
  Fe  Fe1  1  0.05014600  0.79777100  0.79288800  1
  Fe  Fe2  1  0.94975200  0.20227100  0.20721200  1
  Fe  Fe3  1  0.55026500  0.79778400  0.29282500  1
  P  P0  1  0.24742400  0.09274500  0.43687000  1
  P  P1  1  0.74725400  0.09289700  0.93695200  1
  P  P2  1  0.75280500  0.90705800  0.56310400  1
  P  P3  1  0.25260300  0.90730400  0.06312100  1
  P  P4  1  0.98803000  0.61474600  0.21026900  1
  P  P5  1  0.48803500  0.61463100  0.71029200  1
  P  P6  1  0.01193600  0.38530300  0.78968300  1
  P  P7  1  0.51194900  0.38531300  0.28970500  1
  O  O0  1  0.29176200  0.89840100  0.39796600  1
  O  O1  1  0.79156700  0.89849200  0.89811800  1
  O  O2  1  0.70838800  0.10147700  0.60188000  1
  O  O3  1  0.20817700  0.10165100  0.10197600  1
  O  O4  1  0.28057500  0.11406400  0.58410700  1
  O  O5  1  0.78019700  0.11434700  0.08420700  1
  O  O6  1  0.71995300  0.88560700  0.41582400  1
  O  O7  1  0.21957900  0.88593200  0.91586900  1
  O  O8  1  0.04958300  0.16766000  0.40103300  1
  O  O9  1  0.54943600  0.16781300  0.90107300  1
  O  O10  1  0.95063000  0.83216500  0.59898700  1
  O  O11  1  0.45042700  0.83239500  0.09903300  1
  O  O12  1  0.01327900  0.42439900  0.63138300  1
  O  O13  1  0.51317200  0.42467200  0.13142900  1
  O  O14  1  0.98683800  0.57537300  0.36853200  1
  O  O15  1  0.48669000  0.57557100  0.86859800  1
  O  O16  1  0.08201400  0.45628000  0.13402000  1
  O  O17  1  0.58215000  0.45609800  0.63422200  1
  O  O18  1  0.91785200  0.54383000  0.86576700  1
  O  O19  1  0.41797500  0.54377700  0.36596900  1
  O  O20  1  0.10440100  0.79256100  0.17042200  1
  O  O21  1  0.60459000  0.79231900  0.67037800  1
  O  O22  1  0.89538900  0.20760900  0.82958500  1
  O  O23  1  0.39553400  0.20751500  0.32949300  1
  O  O24  1  0.71174300  0.33008200  0.33082000  1
  O  O25  1  0.21172200  0.33005000  0.83084500  1
  O  O26  1  0.28825700  0.66990900  0.66913500  1
  O  O27  1  0.78820700  0.66992600  0.16917300  1
loop_
_geom_bond_atom_site_label_1
_geom_bond_atom_site_label_2
_geom_bond_distance
_geom_bond_site_symmetry_2
Fe0 O4 1.994941 1_555
Fe0 O9 2.084262 1_555
Fe0 O2 2.130453 1_555
Fe0 O17 2.181081 1_555
Fe0 O25 2.188387 1_555
Fe1 O7 1.995087 1_555
Fe1 O10 2.084410 1_455
Fe1 O1 2.130646 1_455
Fe1 O18 2.180830 1_455
Fe1 O26 2.188519 1_555
Fe2 O5 1.995084 1_555
Fe2 O8 2.084657 1_655
Fe2 O3 2.129553 1_655
Fe2 O16 2.181697 1_655
Fe2 O24 2.187135 1_555
Fe3 O6 1.995375 1_555
Fe3 O11 2.084414 1_555
Fe3 O0 2.129590 1_555
Fe3 O19 2.181692 1_555
Fe3 O27 2.187186 1_555
O0 P0 1.540276 1_565
O0 Zn0 2.125203 1_555
O1 P1 1.540464 1_565
O1 Zn1 2.124224 1_555
O2 P2 1.540456 1_545
O2 Zn2 2.124152 1_555
O3 P3 1.540207 1_545
O3 Zn3 2.125136 1_555
O4 P0 1.514056 1_555
O5 P1 1.514039 1_554
O6 P2 1.514101 1_555
O7 P3 1.514038 1_556
O8 P0 1.543172 1_555
O8 Zn2 2.175488 1_455
O9 P1 1.543145 1_555
O9 Zn3 2.175903 1_556
O10 P2 1.543156 1_555
O10 Zn0 2.175321 1_655
O11 P3 1.543266 1_555
O11 Zn1 2.175272 1_554
O12 P6 1.539860 1_555
O12 Zn2 2.009804 1_455
O12 Zn0 2.329215 1_555
O13 P7 1.539860 1_555
O13 Zn3 2.010755 1_555
O13 Zn1 2.328612 1_554
O14 P4 1.539765 1_555
O14 Zn0 2.010736 1_655
O14 Zn2 2.329520 1_555
O15 P5 1.539896 1_555
O15 Zn1 2.009853 1_555
O15 Zn3 2.328867 1_556
O16 P4 1.538528 1_455
O16 Zn3 2.236603 1_555
O17 P5 1.538313 1_555
O17 Zn2 2.237995 1_555
O18 P6 1.538278 1_655
O18 Zn1 2.239084 1_555
O19 P7 1.538570 1_555
O19 Zn0 2.236863 1_555
O20 P4 1.598171 1_455
O20 P3 1.612827 1_555
O21 P5 1.598155 1_555
O21 P2 1.612734 1_555
O22 P6 1.598151 1_655
O22 P1 1.612747 1_555
O23 P7 1.598188 1_555
O23 P0 1.612904 1_555
O24 P7 1.540236 1_555
O24 Zn2 2.062470 1_555
O25 P6 1.540367 1_555
O25 Zn3 2.061738 1_556
O26 P5 1.540329 1_555
O26 Zn0 2.061577 1_555
O27 P4 1.540302 1_555
O27 Zn1 2.062363 1_554
