# generated using pymatgen
data_Yb2VO5
_symmetry_space_group_name_H-M   'P 1'
_cell_length_a   8.34547428
_cell_length_b   8.34547428
_cell_length_c   10.32988400
_cell_angle_alpha   61.46377965
_cell_angle_beta   61.46377965
_cell_angle_gamma   49.81853661
_symmetry_Int_Tables_number   1
_chemical_formula_structural   Yb2VO5
_chemical_formula_sum   'Yb8 V4 O20'
_cell_volume   467.23481063
_cell_formula_units_Z   4
loop_
 _symmetry_equiv_pos_site_id
 _symmetry_equiv_pos_as_xyz
  1  'x, y, z'
loop_
 _atom_site_type_symbol
 _atom_site_label
 _atom_site_symmetry_multiplicity
 _atom_site_fract_x
 _atom_site_fract_y
 _atom_site_fract_z
 _atom_site_occupancy
  Yb  Yb0  1  0.76024500  0.52533000  0.16079300  1
  Yb  Yb1  1  0.47467000  0.23975500  0.33920700  1
  Yb  Yb2  1  0.23975500  0.47467000  0.83920700  1
  Yb  Yb3  1  0.52533000  0.76024500  0.66079300  1
  Yb  Yb4  1  0.79883800  0.28207100  0.54224200  1
  Yb  Yb5  1  0.71792900  0.20116200  0.95775800  1
  Yb  Yb6  1  0.20116200  0.71792900  0.45775800  1
  Yb  Yb7  1  0.28207100  0.79883800  0.04224200  1
  V  V0  1  0.90968900  0.72649200  0.30712900  1
  V  V1  1  0.27350800  0.09031100  0.19287100  1
  V  V2  1  0.09031100  0.27350800  0.69287100  1
  V  V3  1  0.72649200  0.90968900  0.80712900  1
  O  O0  1  0.84694300  0.55444300  0.32449800  1
  O  O1  1  0.44555700  0.15305700  0.17550200  1
  O  O2  1  0.15305700  0.44555700  0.67550200  1
  O  O3  1  0.55444300  0.84694300  0.82449800  1
  O  O4  1  0.87687000  0.72840900  0.94329900  1
  O  O5  1  0.27159100  0.12313000  0.55670100  1
  O  O6  1  0.12313000  0.27159100  0.05670100  1
  O  O7  1  0.72840900  0.87687000  0.44329900  1
  O  O8  1  0.41039500  0.82286600  0.18319000  1
  O  O9  1  0.17713400  0.58960500  0.31681000  1
  O  O10  1  0.58960500  0.17713400  0.81681000  1
  O  O11  1  0.82286600  0.41039500  0.68319000  1
  O  O12  1  0.09202300  0.08886200  0.36767900  1
  O  O13  1  0.91113800  0.90797700  0.13232100  1
  O  O14  1  0.90797700  0.91113800  0.63232100  1
  O  O15  1  0.08886200  0.09202300  0.86767900  1
  O  O16  1  0.55927100  0.41442900  0.41298900  1
  O  O17  1  0.58557100  0.44072900  0.08701100  1
  O  O18  1  0.44072900  0.58557100  0.58701100  1
  O  O19  1  0.41442900  0.55927100  0.91298900  1
loop_
_geom_bond_atom_site_label_1
_geom_bond_atom_site_label_2
_geom_bond_distance
_geom_bond_site_symmetry_2
O0 V0 1.732723 1_555
O0 Yb0 2.287049 1_555
O0 Yb4 2.411888 1_555
O1 V1 1.732723 1_555
O1 Yb1 2.287049 1_555
O1 Yb5 2.411888 1_554
O2 V2 1.732723 1_555
O2 Yb2 2.287049 1_555
O2 Yb6 2.411888 1_555
O3 V3 1.732723 1_555
O3 Yb3 2.287049 1_555
O3 Yb7 2.411888 1_556
O4 V3 1.745198 1_555
O4 Yb0 2.295349 1_556
O4 Yb2 2.366559 1_655
O5 V2 1.745198 1_555
O5 Yb1 2.295349 1_555
O5 Yb3 2.366559 1_545
O6 V1 1.745198 1_555
O6 Yb2 2.295349 1_554
O6 Yb0 2.366559 1_455
O7 V0 1.745198 1_555
O7 Yb3 2.295349 1_555
O7 Yb1 2.366559 1_565
O8 V1 1.763666 1_565
O8 Yb0 2.300414 1_555
O8 Yb7 2.313604 1_555
O8 Yb6 2.593972 1_555
O9 V0 1.763666 1_455
O9 Yb1 2.300414 1_555
O9 Yb6 2.313604 1_555
O9 Yb7 2.593972 1_555
O10 V3 1.763666 1_545
O10 Yb2 2.300414 1_555
O10 Yb5 2.313604 1_555
O10 Yb4 2.593972 1_555
O11 V2 1.763666 1_655
O11 Yb3 2.300414 1_555
O11 Yb4 2.313604 1_555
O11 Yb5 2.593972 1_555
O12 V1 1.715967 1_555
O12 Yb4 2.304282 1_455
O12 Yb6 2.386944 1_545
O13 V0 1.715967 1_555
O13 Yb5 2.304282 1_564
O13 Yb7 2.386944 1_655
O14 V3 1.715967 1_555
O14 Yb6 2.304282 1_655
O14 Yb4 2.386944 1_565
O15 V2 1.715967 1_555
O15 Yb7 2.304282 1_546
O15 Yb5 2.386944 1_455
O16 Yb4 2.300340 1_555
O16 Yb6 2.364628 1_555
O16 Yb0 2.445669 1_555
O16 Yb1 2.471462 1_555
O17 Yb5 2.300340 1_554
O17 Yb7 2.364628 1_555
O17 Yb1 2.445669 1_555
O17 Yb0 2.471462 1_555
O18 Yb6 2.300340 1_555
O18 Yb4 2.364628 1_555
O18 Yb2 2.445669 1_555
O18 Yb3 2.471462 1_555
O19 Yb7 2.300340 1_556
O19 Yb5 2.364628 1_555
O19 Yb3 2.445669 1_555
O19 Yb2 2.471462 1_555
