# generated using pymatgen
data_EuInO3
_symmetry_space_group_name_H-M   'P 1'
_cell_length_a   6.41993837
_cell_length_b   6.41993687
_cell_length_c   12.31365353
_cell_angle_alpha   90.00033456
_cell_angle_beta   89.99982850
_cell_angle_gamma   120.00015066
_symmetry_Int_Tables_number   1
_chemical_formula_structural   EuInO3
_chemical_formula_sum   'Eu6 In6 O18'
_cell_volume   439.51987488
_cell_formula_units_Z   6
loop_
 _symmetry_equiv_pos_site_id
 _symmetry_equiv_pos_as_xyz
  1  'x, y, z'
loop_
 _atom_site_type_symbol
 _atom_site_label
 _atom_site_symmetry_multiplicity
 _atom_site_fract_x
 _atom_site_fract_y
 _atom_site_fract_z
 _atom_site_occupancy
  Eu  Eu0  1  0.66666588  0.33333338  0.96630889  1
  Eu  Eu1  1  0.33333444  0.66666601  0.46632198  1
  Eu  Eu2  1  0.66666556  0.33333288  0.46632197  1
  Eu  Eu3  1  0.33333052  0.66666740  0.96631130  1
  Eu  Eu4  1  0.00000210  -0.00000142  0.99335807  1
  Eu  Eu5  1  -0.00000040  -0.00000128  0.49334168  1
  In  In0  1  0.66668110  0.66667566  0.72707994  1
  In  In1  1  -0.00000578  0.33331652  0.72708086  1
  In  In2  1  0.33333563  0.33332418  0.22707750  1
  In  In3  1  -0.00001010  0.66666555  0.22707652  1
  In  In4  1  0.33332145  0.00000403  0.72708155  1
  In  In5  1  0.66667600  0.00001163  0.22707654  1
  O  O0  1  0.68674078  0.68674169  0.89709380  1
  O  O1  1  0.00000135  0.31326016  0.89709435  1
  O  O2  1  0.31327180  0.31326728  0.39708819  1
  O  O3  1  -0.00000423  0.68672736  0.39708805  1
  O  O4  1  0.31325833  -0.00000127  0.89709426  1
  O  O5  1  0.68673241  0.00000309  0.39708847  1
  O  O6  1  0.64647514  0.64646884  0.55765709  1
  O  O7  1  -0.00000568  0.35352458  0.55765737  1
  O  O8  1  0.35354457  0.35355143  0.05764518  1
  O  O9  1  -0.00000067  0.64645748  0.05764301  1
  O  O10  1  0.35353183  0.00000574  0.55765799  1
  O  O11  1  0.64645785  -0.00000049  0.05764327  1
  O  O12  1  -0.00000011  -0.00000164  0.70249632  1
  O  O13  1  0.00000078  0.00000083  0.20251587  1
  O  O14  1  0.66666495  0.33333232  0.74596523  1
  O  O15  1  0.33333376  0.66666745  0.24596903  1
  O  O16  1  0.66666723  0.33333374  0.24596973  1
  O  O17  1  0.33333247  0.66666485  0.74596799  1
loop_
_geom_bond_atom_site_label_1
_geom_bond_atom_site_label_2
_geom_bond_distance
_geom_bond_site_symmetry_2
Eu0 O9 2.362948 1_656
Eu0 O11 2.362967 1_556
Eu0 O8 2.362975 1_556
Eu0 O4 2.366070 1_555
Eu0 O1 2.366080 1_655
Eu0 O0 2.366081 1_555
Eu0 O14 2.713235 1_555
Eu1 O6 2.363020 1_555
Eu1 O7 2.363025 1_555
Eu1 O10 2.363025 1_565
Eu1 O2 2.366131 1_555
Eu1 O5 2.366133 1_565
Eu1 O3 2.366151 1_555
Eu1 O15 2.713350 1_555
Eu2 O6 2.362963 1_555
Eu2 O10 2.362970 1_555
Eu2 O7 2.362983 1_655
Eu2 O2 2.366101 1_555
Eu2 O3 2.366105 1_655
Eu2 O5 2.366107 1_555
Eu2 O16 2.713341 1_555
Eu3 O9 2.362923 1_556
Eu3 O8 2.362927 1_556
Eu3 O11 2.362939 1_566
Eu3 O1 2.366063 1_555
Eu3 O4 2.366069 1_565
Eu3 O0 2.366099 1_555
Eu3 O17 2.713231 1_555
Eu4 O4 2.334422 1_555
Eu4 O0 2.334437 1_445
Eu4 O1 2.334462 1_555
Eu4 O9 2.403783 1_546
Eu4 O11 2.403809 1_456
Eu4 O8 2.403829 1_556
Eu4 O13 2.575497 1_556
Eu5 O3 2.334429 1_545
Eu5 O5 2.334435 1_455
Eu5 O2 2.334438 1_555
Eu5 O6 2.403824 1_445
Eu5 O7 2.403831 1_555
Eu5 O10 2.403842 1_555
Eu5 O12 2.575458 1_555
In0 O6 2.090243 1_555
In0 O0 2.097450 1_555
In0 O14 2.152591 1_555
In0 O17 2.152644 1_555
In0 O12 2.161200 1_665
In1 O7 2.090253 1_555
In1 O1 2.097445 1_555
In1 O14 2.152600 1_455
In1 O17 2.152638 1_555
In1 O12 2.161205 1_555
In2 O8 2.090365 1_555
In2 O2 2.097411 1_555
In2 O16 2.152546 1_555
In2 O15 2.152653 1_555
In2 O13 2.161213 1_555
In3 O9 2.090376 1_555
In3 O3 2.097419 1_555
In3 O16 2.152545 1_455
In3 O15 2.152649 1_555
In3 O13 2.161223 1_565
In4 O10 2.090253 1_555
In4 O4 2.097435 1_555
In4 O14 2.152586 1_555
In4 O17 2.152652 1_545
In4 O12 2.161195 1_555
In5 O11 2.090374 1_555
In5 O5 2.097426 1_555
In5 O16 2.152543 1_555
In5 O15 2.152646 1_545
In5 O13 2.161223 1_655
