# generated using pymatgen
data_Ni15O16
_symmetry_space_group_name_H-M   'P 1'
_cell_length_a   10.28016461
_cell_length_b   10.28016461
_cell_length_c   10.28016461
_cell_angle_alpha   33.62274207
_cell_angle_beta   33.62274207
_cell_angle_gamma   33.62274746
_symmetry_Int_Tables_number   1
_chemical_formula_structural   Ni15O16
_chemical_formula_sum   'Ni15 O16'
_cell_volume   296.73835620
_cell_formula_units_Z   1
loop_
 _symmetry_equiv_pos_site_id
 _symmetry_equiv_pos_as_xyz
  1  'x, y, z'
loop_
 _atom_site_type_symbol
 _atom_site_label
 _atom_site_symmetry_multiplicity
 _atom_site_fract_x
 _atom_site_fract_y
 _atom_site_fract_z
 _atom_site_occupancy
  Ni  Ni0  1  0.00000000  0.00000000  0.50000000  1
  Ni  Ni1  1  0.00000000  0.50000000  0.50000000  1
  Ni  Ni2  1  0.75555300  0.24613600  0.75555300  1
  Ni  Ni3  1  0.75024200  0.75024200  0.75024200  1
  Ni  Ni4  1  0.00000000  0.50000000  0.00000000  1
  Ni  Ni5  1  0.50000000  0.00000000  0.00000000  1
  Ni  Ni6  1  0.50000000  0.50000000  0.00000000  1
  Ni  Ni7  1  0.75555300  0.75555300  0.24613600  1
  Ni  Ni8  1  0.24975800  0.24975800  0.24975800  1
  Ni  Ni9  1  0.75386400  0.24444700  0.24444700  1
  Ni  Ni10  1  0.24444700  0.75386400  0.24444700  1
  Ni  Ni11  1  0.50000000  0.50000000  0.50000000  1
  Ni  Ni12  1  0.50000000  0.00000000  0.50000000  1
  Ni  Ni13  1  0.24613600  0.75555300  0.75555300  1
  Ni  Ni14  1  0.24444700  0.24444700  0.75386400  1
  O  O0  1  0.87320300  0.37574800  0.37574800  1
  O  O1  1  0.86755400  0.86755400  0.39652600  1
  O  O2  1  0.62497100  0.62497100  0.62497100  1
  O  O3  1  0.62425200  0.12679700  0.62425200  1
  O  O4  1  0.87501800  0.87501800  0.87501800  1
  O  O5  1  0.37574800  0.37574800  0.87320300  1
  O  O6  1  0.39652600  0.86755400  0.86755400  1
  O  O7  1  0.86755400  0.39652600  0.86755400  1
  O  O8  1  0.13244600  0.60347400  0.13244600  1
  O  O9  1  0.60347400  0.13244600  0.13244600  1
  O  O10  1  0.12498200  0.12498200  0.12498200  1
  O  O11  1  0.62425200  0.62425200  0.12679700  1
  O  O12  1  0.37574800  0.87320300  0.37574800  1
  O  O13  1  0.37502900  0.37502900  0.37502900  1
  O  O14  1  0.13244600  0.13244600  0.60347400  1
  O  O15  1  0.12679700  0.62425200  0.62425200  1
loop_
_geom_bond_atom_site_label_1
_geom_bond_atom_site_label_2
_geom_bond_distance
_geom_bond_site_symmetry_2
Ni0 O4 2.101216 1_445
Ni0 O10 2.101216 1_555
Ni0 O15 2.102822 1_545
Ni0 O12 2.102822 1_545
Ni0 O3 2.102822 1_455
Ni0 O0 2.102822 1_455
Ni1 O8 2.100677 1_555
Ni1 O7 2.100677 1_455
Ni1 O14 2.100678 1_555
Ni1 O1 2.100678 1_455
Ni1 O2 2.101401 1_455
Ni1 O13 2.101401 1_555
Ni2 O9 2.058057 1_556
Ni2 O14 2.058057 1_655
Ni2 O2 2.087795 1_555
Ni2 O4 2.116003 1_545
Ni2 O0 2.153636 1_555
Ni2 O5 2.153636 1_555
Ni3 O1 1.986665 1_555
Ni3 O6 1.986665 1_555
Ni3 O7 1.986665 1_555
Ni3 O11 2.105696 1_556
Ni3 O3 2.105696 1_565
Ni3 O15 2.105696 1_655
Ni4 O4 2.101216 1_454
Ni4 O10 2.101216 1_555
Ni4 O15 2.102822 1_554
Ni4 O0 2.102822 1_455
Ni4 O11 2.102822 1_455
Ni4 O5 2.102822 1_554
Ni5 O4 2.101216 1_544
Ni5 O10 2.101216 1_555
Ni5 O3 2.102822 1_554
Ni5 O12 2.102822 1_545
Ni5 O11 2.102822 1_545
Ni5 O5 2.102822 1_554
Ni6 O8 2.100678 1_555
Ni6 O6 2.100678 1_554
Ni6 O9 2.100678 1_555
Ni6 O7 2.100678 1_554
Ni6 O2 2.101400 1_554
Ni6 O13 2.101400 1_555
Ni7 O9 2.058057 1_565
Ni7 O8 2.058057 1_655
Ni7 O2 2.087795 1_555
Ni7 O4 2.116003 1_554
Ni7 O12 2.153636 1_555
Ni7 O0 2.153636 1_555
Ni8 O14 1.986665 1_555
Ni8 O8 1.986665 1_555
Ni8 O9 1.986665 1_555
Ni8 O5 2.105696 1_554
Ni8 O12 2.105696 1_545
Ni8 O0 2.105696 1_455
Ni9 O7 2.058057 1_554
Ni9 O1 2.058057 1_545
Ni9 O13 2.087795 1_555
Ni9 O10 2.116003 1_655
Ni9 O3 2.153636 1_555
Ni9 O11 2.153636 1_555
Ni10 O6 2.058057 1_554
Ni10 O1 2.058057 1_455
Ni10 O13 2.087795 1_555
Ni10 O10 2.116003 1_565
Ni10 O15 2.153636 1_555
Ni10 O11 2.153636 1_555
Ni11 O5 2.092095 1_555
Ni11 O11 2.092095 1_555
Ni11 O0 2.092095 1_555
Ni11 O12 2.092095 1_555
Ni11 O15 2.092095 1_555
Ni11 O3 2.092095 1_555
Ni12 O9 2.100677 1_555
Ni12 O6 2.100677 1_545
Ni12 O14 2.100678 1_555
Ni12 O1 2.100678 1_545
Ni12 O2 2.101401 1_545
Ni12 O13 2.101401 1_555
Ni13 O8 2.058057 1_556
Ni13 O14 2.058057 1_565
Ni13 O2 2.087795 1_555
Ni13 O4 2.116003 1_455
Ni13 O12 2.153636 1_555
Ni13 O5 2.153636 1_555
Ni14 O7 2.058057 1_455
Ni14 O6 2.058057 1_545
Ni14 O13 2.087795 1_555
Ni14 O10 2.116003 1_556
Ni14 O15 2.153636 1_555
Ni14 O3 2.153636 1_555
