# generated using pymatgen
data_Dy2SeOF2
_symmetry_space_group_name_H-M   'P 1'
_cell_length_a   13.43104237
_cell_length_b   13.43104237
_cell_length_c   3.74213900
_cell_angle_alpha   90.00000000
_cell_angle_beta   90.00000000
_cell_angle_gamma   120.00000183
_symmetry_Int_Tables_number   1
_chemical_formula_structural   Dy2SeOF2
_chemical_formula_sum   'Dy12 Se6 O6 F12'
_cell_volume   584.61503088
_cell_formula_units_Z   6
loop_
 _symmetry_equiv_pos_site_id
 _symmetry_equiv_pos_as_xyz
  1  'x, y, z'
loop_
 _atom_site_type_symbol
 _atom_site_label
 _atom_site_symmetry_multiplicity
 _atom_site_fract_x
 _atom_site_fract_y
 _atom_site_fract_z
 _atom_site_occupancy
  Dy  Dy0  1  0.39791400  0.88349600  0.75000000  1
  Dy  Dy1  1  0.48558200  0.60208600  0.75000000  1
  Dy  Dy2  1  0.11650400  0.51441800  0.75000000  1
  Dy  Dy3  1  0.60208600  0.11650400  0.25000000  1
  Dy  Dy4  1  0.51441800  0.39791400  0.25000000  1
  Dy  Dy5  1  0.88349600  0.48558200  0.25000000  1
  Dy  Dy6  1  0.05519300  0.76615900  0.75000000  1
  Dy  Dy7  1  0.71096500  0.94480700  0.75000000  1
  Dy  Dy8  1  0.23384100  0.28903500  0.75000000  1
  Dy  Dy9  1  0.94480700  0.23384100  0.25000000  1
  Dy  Dy10  1  0.28903500  0.05519300  0.25000000  1
  Dy  Dy11  1  0.76615900  0.71096500  0.25000000  1
  Se  Se0  1  0.71905200  0.51264900  0.75000000  1
  Se  Se1  1  0.79359700  0.28094800  0.75000000  1
  Se  Se2  1  0.48735100  0.20640300  0.75000000  1
  Se  Se3  1  0.28094800  0.48735100  0.25000000  1
  Se  Se4  1  0.20640300  0.71905200  0.25000000  1
  Se  Se5  1  0.51264900  0.79359700  0.25000000  1
  O  O0  1  0.98575200  0.57337100  0.75000000  1
  O  O1  1  0.58761900  0.01424800  0.75000000  1
  O  O2  1  0.42662900  0.41238100  0.75000000  1
  O  O3  1  0.01424800  0.42662900  0.25000000  1
  O  O4  1  0.41238100  0.98575200  0.25000000  1
  O  O5  1  0.57337100  0.58761900  0.25000000  1
  F  F0  1  0.89401100  0.79279500  0.75000000  1
  F  F1  1  0.89878400  0.10598900  0.75000000  1
  F  F2  1  0.20720500  0.10121600  0.75000000  1
  F  F3  1  0.10598900  0.20720500  0.25000000  1
  F  F4  1  0.10121600  0.89401100  0.25000000  1
  F  F5  1  0.79279500  0.89878400  0.25000000  1
  F  F6  1  0.24752200  0.93333200  0.75000000  1
  F  F7  1  0.68581000  0.75247800  0.75000000  1
  F  F8  1  0.06666800  0.31419000  0.75000000  1
  F  F9  1  0.75247800  0.06666800  0.25000000  1
  F  F10  1  0.31419000  0.24752200  0.25000000  1
  F  F11  1  0.93333200  0.68581000  0.25000000  1
loop_
_geom_bond_atom_site_label_1
_geom_bond_atom_site_label_2
_geom_bond_distance
_geom_bond_site_symmetry_2
Dy0 O1 2.258643 1_565
Dy0 O4 2.271131 1_556
Dy0 O4 2.271131 1_555
Dy0 F6 2.424901 1_555
Dy0 Se5 3.032193 1_555
Dy0 Se5 3.032193 1_556
Dy0 Se4 3.051908 1_555
Dy0 Se4 3.051908 1_556
Dy1 O2 2.258643 1_555
Dy1 O5 2.271131 1_556
Dy1 O5 2.271131 1_555
Dy1 F7 2.424901 1_555
Dy1 Se3 3.032193 1_556
Dy1 Se3 3.032193 1_555
Dy1 Se5 3.051908 1_555
Dy1 Se5 3.051908 1_556
Dy2 O0 2.258643 1_455
Dy2 O3 2.271131 1_555
Dy2 O3 2.271131 1_556
Dy2 F8 2.424901 1_555
Dy2 Se4 3.032193 1_556
Dy2 Se4 3.032193 1_555
Dy2 Se3 3.051908 1_556
Dy2 Se3 3.051908 1_555
Dy3 O4 2.258643 1_545
Dy3 O1 2.271131 1_554
Dy3 O1 2.271131 1_555
Dy3 F9 2.424901 1_555
Dy3 Se2 3.032193 1_555
Dy3 Se2 3.032193 1_554
Dy3 Se1 3.051908 1_555
Dy3 Se1 3.051908 1_554
Dy4 O5 2.258643 1_555
Dy4 O2 2.271131 1_554
Dy4 O2 2.271131 1_555
Dy4 F10 2.424901 1_555
Dy4 Se0 3.032193 1_554
Dy4 Se0 3.032193 1_555
Dy4 Se2 3.051908 1_555
Dy4 Se2 3.051908 1_554
Dy5 O3 2.258643 1_655
Dy5 O0 2.271131 1_555
Dy5 O0 2.271131 1_554
Dy5 F11 2.424901 1_555
Dy5 Se1 3.032193 1_555
Dy5 Se1 3.032193 1_554
Dy5 Se0 3.051908 1_554
Dy5 Se0 3.051908 1_555
Dy6 O0 2.271470 1_455
Dy6 F11 2.361792 1_455
Dy6 F11 2.361792 1_456
Dy6 F0 2.364106 1_455
Dy6 F4 2.402138 1_555
Dy6 F4 2.402138 1_556
Dy6 F6 2.431910 1_555
Dy6 Se4 3.051351 1_555
Dy6 Se4 3.051351 1_556
Dy7 O1 2.271457 1_565
Dy7 F9 2.361791 1_566
Dy7 F9 2.361791 1_565
Dy7 F1 2.364114 1_565
Dy7 F5 2.402145 1_556
Dy7 F5 2.402145 1_555
Dy7 F7 2.431916 1_555
Dy7 Se5 3.051343 1_556
Dy7 Se5 3.051343 1_555
Dy8 O2 2.271468 1_555
Dy8 F10 2.361799 1_555
Dy8 F10 2.361799 1_556
Dy8 F2 2.364119 1_555
Dy8 F3 2.402139 1_555
Dy8 F3 2.402139 1_556
Dy8 F8 2.431902 1_555
Dy8 Se3 3.051340 1_555
Dy8 Se3 3.051340 1_556
Dy9 O3 2.271470 1_655
Dy9 F8 2.361792 1_654
Dy9 F8 2.361792 1_655
Dy9 F3 2.364106 1_655
Dy9 F1 2.402138 1_554
Dy9 F1 2.402138 1_555
Dy9 F9 2.431910 1_555
Dy9 Se1 3.051351 1_555
Dy9 Se1 3.051351 1_554
Dy10 O4 2.271457 1_545
Dy10 F6 2.361791 1_545
Dy10 F6 2.361791 1_544
Dy10 F4 2.364114 1_545
Dy10 F2 2.402145 1_555
Dy10 F2 2.402145 1_554
Dy10 F10 2.431916 1_555
Dy10 Se2 3.051343 1_555
Dy10 Se2 3.051343 1_554
Dy11 O5 2.271468 1_555
Dy11 F7 2.361799 1_554
Dy11 F7 2.361799 1_555
Dy11 F5 2.364119 1_555
Dy11 F0 2.402139 1_554
Dy11 F0 2.402139 1_555
Dy11 F11 2.431902 1_555
Dy11 Se0 3.051340 1_554
Dy11 Se0 3.051340 1_555
