# generated using pymatgen
data_Zn2As(HO2)3
_symmetry_space_group_name_H-M   'P 1'
_cell_length_a   8.06627000
_cell_length_b   10.35651100
_cell_length_c   12.95574250
_cell_angle_alpha   75.57910168
_cell_angle_beta   90.00000000
_cell_angle_gamma   90.00000000
_symmetry_Int_Tables_number   1
_chemical_formula_structural   Zn2As(HO2)3
_chemical_formula_sum   'Zn16 As8 H24 O48'
_cell_volume   1048.20142392
_cell_formula_units_Z   8
loop_
 _symmetry_equiv_pos_site_id
 _symmetry_equiv_pos_as_xyz
  1  'x, y, z'
loop_
 _atom_site_type_symbol
 _atom_site_label
 _atom_site_symmetry_multiplicity
 _atom_site_fract_x
 _atom_site_fract_y
 _atom_site_fract_z
 _atom_site_occupancy
  Zn  Zn0  1  0.55186900  0.11025100  0.40361000  1
  Zn  Zn1  1  0.05186900  0.38974900  0.59639000  1
  Zn  Zn2  1  0.44813100  0.88974900  0.59639000  1
  Zn  Zn3  1  0.94813100  0.61025100  0.40361000  1
  Zn  Zn4  1  0.83282000  0.03750200  0.25186200  1
  Zn  Zn5  1  0.33282000  0.46249800  0.74813800  1
  Zn  Zn6  1  0.16718000  0.96249800  0.74813800  1
  Zn  Zn7  1  0.66718000  0.53750200  0.25186200  1
  Zn  Zn8  1  0.30523600  0.37382800  0.35919500  1
  Zn  Zn9  1  0.80523600  0.12617200  0.64080500  1
  Zn  Zn10  1  0.69476400  0.62617200  0.64080500  1
  Zn  Zn11  1  0.19476400  0.87382800  0.35919500  1
  Zn  Zn12  1  0.74089500  0.05962000  0.00995500  1
  Zn  Zn13  1  0.24089500  0.44038000  0.99004500  1
  Zn  Zn14  1  0.25910500  0.94038000  0.99004500  1
  Zn  Zn15  1  0.75910500  0.55962000  0.00995500  1
  As  As0  1  0.55398900  0.27877200  0.14906700  1
  As  As1  1  0.05398900  0.22122800  0.85093300  1
  As  As2  1  0.44601100  0.72122800  0.85093300  1
  As  As3  1  0.94601100  0.77877200  0.14906700  1
  As  As4  1  0.92194300  0.28536400  0.38543900  1
  As  As5  1  0.42194300  0.21463600  0.61456100  1
  As  As6  1  0.07805700  0.71463600  0.61456100  1
  As  As7  1  0.57805700  0.78536400  0.38543900  1
  H  H0  1  0.24105600  0.54367300  0.46853000  1
  H  H1  1  0.74105600  0.95632700  0.53147000  1
  H  H2  1  0.75894400  0.45632700  0.53147000  1
  H  H3  1  0.25894400  0.04367300  0.46853000  1
  H  H4  1  0.11413400  0.11398100  0.28923800  1
  H  H5  1  0.61413400  0.38601900  0.71076200  1
  H  H6  1  0.88586600  0.88601900  0.71076200  1
  H  H7  1  0.38586600  0.61398100  0.28923800  1
  H  H8  1  0.04626000  0.33621300  0.15591000  1
  H  H9  1  0.54626000  0.16378700  0.84409000  1
  H  H10  1  0.95374000  0.66378700  0.84409000  1
  H  H11  1  0.45374000  0.83621300  0.15591000  1
  H  H12  1  0.98205000  0.28758600  0.05277300  1
  H  H13  1  0.48205000  0.21241400  0.94722700  1
  H  H14  1  0.01795000  0.71241400  0.94722700  1
  H  H15  1  0.51795000  0.78758600  0.05277300  1
  H  H16  1  0.29305700  0.15208100  0.07339100  1
  H  H17  1  0.79305700  0.34791900  0.92660900  1
  H  H18  1  0.70694300  0.84791900  0.92660900  1
  H  H19  1  0.20694300  0.65208100  0.07339100  1
  H  H20  1  0.16703000  0.05100900  0.15380700  1
  H  H21  1  0.66703000  0.44899100  0.84619300  1
  H  H22  1  0.83297000  0.94899100  0.84619300  1
  H  H23  1  0.33297000  0.55100900  0.15380700  1
  O  O0  1  0.45088700  0.23713100  0.26879500  1
  O  O1  1  0.95088700  0.26286900  0.73120500  1
  O  O2  1  0.54911300  0.76286900  0.73120500  1
  O  O3  1  0.04911300  0.73713100  0.26879500  1
  O  O4  1  0.65928200  0.42665100  0.13920500  1
  O  O5  1  0.15928200  0.07334900  0.86079500  1
  O  O6  1  0.34071800  0.57334900  0.86079500  1
  O  O7  1  0.84071800  0.92665100  0.13920500  1
  O  O8  1  0.69078700  0.15636100  0.13285200  1
  O  O9  1  0.19078700  0.34363900  0.86714800  1
  O  O10  1  0.30921300  0.84363900  0.86714800  1
  O  O11  1  0.80921300  0.65636100  0.13285200  1
  O  O12  1  0.41048300  0.29300200  0.04728100  1
  O  O13  1  0.91048300  0.20699800  0.95271900  1
  O  O14  1  0.58951700  0.70699800  0.95271900  1
  O  O15  1  0.08951700  0.79300200  0.04728100  1
  O  O16  1  0.45306300  0.26110500  0.47741200  1
  O  O17  1  0.95306300  0.23889500  0.52258800  1
  O  O18  1  0.54693700  0.73889500  0.52258800  1
  O  O19  1  0.04693700  0.76110500  0.47741200  1
  O  O20  1  0.83975700  0.44355800  0.35458200  1
  O  O21  1  0.33975700  0.05644200  0.64541800  1
  O  O22  1  0.16024300  0.55644200  0.64541800  1
  O  O23  1  0.66024300  0.94355800  0.35458200  1
  O  O24  1  0.79102300  0.17779400  0.34545900  1
  O  O25  1  0.29102300  0.32220600  0.65454100  1
  O  O26  1  0.20897700  0.82220600  0.65454100  1
  O  O27  1  0.70897700  0.67779400  0.34545900  1
  O  O28  1  0.10611300  0.28145200  0.31744900  1
  O  O29  1  0.60611300  0.21854800  0.68255100  1
  O  O30  1  0.89388700  0.71854800  0.68255100  1
  O  O31  1  0.39388700  0.78145200  0.31744900  1
  O  O32  1  0.02913600  0.36324800  0.07824200  1
  O  O33  1  0.52913600  0.13675200  0.92175800  1
  O  O34  1  0.97086400  0.63675200  0.92175800  1
  O  O35  1  0.47086400  0.86324800  0.07824200  1
  O  O36  1  0.16228300  0.48578900  0.44392400  1
  O  O37  1  0.66228300  0.01421100  0.55607600  1
  O  O38  1  0.83771700  0.51421100  0.55607600  1
  O  O39  1  0.33771700  0.98578900  0.44392400  1
  O  O40  1  0.07968000  0.03258100  0.26778200  1
  O  O41  1  0.57968000  0.46741900  0.73221800  1
  O  O42  1  0.92032000  0.96741900  0.73221800  1
  O  O43  1  0.42032000  0.53258100  0.26778200  1
  O  O44  1  0.22699400  0.06848900  0.08311700  1
  O  O45  1  0.72699400  0.43151100  0.91688300  1
  O  O46  1  0.77300600  0.93151100  0.91688300  1
  O  O47  1  0.27300600  0.56848900  0.08311700  1
loop_
_geom_bond_atom_site_label_1
_geom_bond_atom_site_label_2
_geom_bond_distance
_geom_bond_site_symmetry_2
As0 O0 1.717714 1_555
As0 O4 1.727927 1_555
As0 O8 1.732507 1_555
As0 O12 1.733166 1_555
As1 O1 1.717714 1_455
As1 O5 1.727927 1_555
As1 O9 1.732507 1_555
As1 O13 1.733166 1_455
As2 O2 1.717714 1_555
As2 O6 1.727927 1_555
As2 O10 1.732507 1_555
As2 O14 1.733166 1_555
As3 O3 1.717714 1_655
As3 O7 1.727927 1_555
As3 O11 1.732507 1_555
As3 O15 1.733166 1_655
As4 O24 1.706467 1_555
As4 O20 1.719658 1_555
As4 O28 1.732696 1_655
As4 O17 1.739525 1_555
As5 O25 1.706467 1_555
As5 O21 1.719658 1_555
As5 O29 1.732696 1_555
As5 O16 1.739525 1_555
As6 O26 1.706467 1_555
As6 O22 1.719658 1_555
As6 O30 1.732696 1_455
As6 O19 1.739525 1_555
As7 O27 1.706467 1_555
As7 O23 1.719658 1_555
As7 O31 1.732696 1_555
As7 O18 1.739525 1_555
H0 O36 0.979757 1_555
H1 O37 0.979757 1_565
H2 O38 0.979757 1_555
H3 O39 0.979757 1_545
H4 O40 0.990916 1_555
H5 O41 0.990916 1_555
H6 O42 0.990916 1_555
H7 O43 0.990916 1_555
H8 O32 0.984721 1_555
H9 O33 0.984721 1_555
H10 O34 0.984721 1_555
H11 O35 0.984721 1_555
H12 O32 0.997968 1_655
H13 O33 0.997968 1_555
H14 O34 0.997968 1_455
H15 O35 0.997968 1_555
H16 O44 0.997487 1_555
H16 O12 1.701673 1_555
H17 O45 0.997487 1_555
H17 O13 1.701673 1_555
H18 O46 0.997487 1_555
H18 O14 1.701673 1_555
H19 O47 0.997487 1_555
H19 O15 1.701673 1_555
H20 O44 1.011390 1_555
H20 O40 1.604038 1_555
H21 O45 1.011390 1_555
H21 O41 1.604038 1_555
H22 O46 1.011390 1_555
H22 O42 1.604038 1_555
H23 O47 1.011390 1_555
H23 O43 1.604038 1_555
O0 Zn0 2.073093 1_555
O0 Zn8 2.362644 1_555
O1 Zn1 2.073093 1_655
O1 Zn9 2.362644 1_555
O2 Zn2 2.073093 1_555
O2 Zn10 2.362644 1_555
O3 Zn3 2.073093 1_455
O3 Zn11 2.362644 1_555
O4 Zn15 2.049440 1_555
O4 Zn7 2.070491 1_555
O5 Zn14 2.049440 1_545
O5 Zn6 2.070491 1_545
O6 Zn13 2.049440 1_555
O6 Zn5 2.070491 1_555
O7 Zn12 2.049440 1_565
O7 Zn4 2.070491 1_565
O8 Zn4 2.063936 1_555
O8 Zn12 2.120591 1_555
O9 Zn5 2.063936 1_555
O9 Zn13 2.120591 1_555
O10 Zn6 2.063936 1_555
O10 Zn14 2.120591 1_555
O11 Zn7 2.063936 1_555
O11 Zn15 2.120591 1_555
O12 Zn13 2.046229 1_554
O13 Zn12 2.046229 1_556
O14 Zn15 2.046229 1_556
O15 Zn14 2.046229 1_554
O16 Zn8 2.059101 1_555
O16 Zn0 2.175855 1_555
O17 Zn9 2.059101 1_555
O17 Zn1 2.175855 1_655
O18 Zn10 2.059101 1_555
O18 Zn2 2.175855 1_555
O19 Zn11 2.059101 1_555
O19 Zn3 2.175855 1_455
O20 Zn7 2.002637 1_555
O20 Zn3 2.166599 1_555
O21 Zn6 2.002637 1_545
O21 Zn2 2.166599 1_545
O22 Zn5 2.002637 1_555
O22 Zn1 2.166599 1_555
O23 Zn4 2.002637 1_565
O23 Zn0 2.166599 1_565
O24 Zn0 2.125034 1_555
O24 Zn4 2.138385 1_555
O25 Zn1 2.125034 1_555
O25 Zn5 2.138385 1_555
O26 Zn2 2.125034 1_555
O26 Zn6 2.138385 1_555
O27 Zn3 2.125034 1_555
O27 Zn7 2.138385 1_555
O28 Zn8 2.011298 1_555
O29 Zn9 2.011298 1_555
O30 Zn10 2.011298 1_555
O31 Zn11 2.011298 1_555
O32 Zn13 2.099228 1_554
O33 Zn12 2.099228 1_556
O34 Zn15 2.099228 1_556
O35 Zn14 2.099228 1_554
O36 Zn8 2.124411 1_555
O36 Zn3 2.140772 1_455
O36 Zn1 2.169280 1_555
O37 Zn9 2.124411 1_555
O37 Zn2 2.140772 1_545
O37 Zn0 2.169280 1_555
O38 Zn10 2.124411 1_555
O38 Zn1 2.140772 1_655
O38 Zn3 2.169280 1_555
O39 Zn11 2.124411 1_555
O39 Zn0 2.140772 1_565
O39 Zn2 2.169280 1_555
O40 Zn11 1.999413 1_545
O40 Zn4 2.001234 1_455
O41 Zn10 1.999413 1_555
O41 Zn5 2.001234 1_555
O42 Zn9 1.999413 1_565
O42 Zn6 2.001234 1_655
O43 Zn8 1.999413 1_555
O43 Zn7 2.001234 1_555
O44 Zn14 2.019464 1_544
O45 Zn15 2.019464 1_556
O46 Zn12 2.019464 1_566
O47 Zn13 2.019464 1_554
