# generated using pymatgen
data_HoRu2
_symmetry_space_group_name_H-M   'P 1'
_cell_length_a   5.26451663
_cell_length_b   5.26451663
_cell_length_c   8.90679200
_cell_angle_alpha   90.00000000
_cell_angle_beta   90.00000000
_cell_angle_gamma   119.95682279
_symmetry_Int_Tables_number   1
_chemical_formula_structural   HoRu2
_chemical_formula_sum   'Ho4 Ru8'
_cell_volume   213.87387342
_cell_formula_units_Z   4
loop_
 _symmetry_equiv_pos_site_id
 _symmetry_equiv_pos_as_xyz
  1  'x, y, z'
loop_
 _atom_site_type_symbol
 _atom_site_label
 _atom_site_symmetry_multiplicity
 _atom_site_fract_x
 _atom_site_fract_y
 _atom_site_fract_z
 _atom_site_occupancy
  Ho  Ho0  1  0.66671600  0.33328400  0.56650100  1
  Ho  Ho1  1  0.33328400  0.66671600  0.43349900  1
  Ho  Ho2  1  0.33328400  0.66671600  0.06650100  1
  Ho  Ho3  1  0.66671600  0.33328400  0.93349900  1
  Ru  Ru0  1  0.00000000  0.00000000  0.50000000  1
  Ru  Ru1  1  0.00000000  0.00000000  0.00000000  1
  Ru  Ru2  1  0.17136800  0.34252100  0.75000000  1
  Ru  Ru3  1  0.17120200  0.82879800  0.75000000  1
  Ru  Ru4  1  0.65747900  0.82863200  0.75000000  1
  Ru  Ru5  1  0.82863200  0.65747900  0.25000000  1
  Ru  Ru6  1  0.82879800  0.17120200  0.25000000  1
  Ru  Ru7  1  0.34252100  0.17136800  0.25000000  1
loop_
_geom_bond_atom_site_label_1
_geom_bond_atom_site_label_2
_geom_bond_distance
_geom_bond_site_symmetry_2
Ho0 Ru0 3.095554 1_655
Ho0 Ru0 3.098164 1_555
Ho0 Ru0 3.098164 1_665
Ho0 Ru2 3.098497 1_555
Ho0 Ru4 3.098497 1_555
Ho0 Ru4 3.098851 1_545
Ho0 Ru2 3.098851 1_655
Ho0 Ru3 3.100117 1_655
Ho0 Ru3 3.100117 1_545
Ho0 Ru6 3.182788 1_555
Ho0 Ru5 3.183301 1_555
Ho0 Ru7 3.183301 1_555
Ho0 Ho1 3.262385 1_555
Ho0 Ho1 3.262976 1_655
Ho0 Ho1 3.262976 1_545
Ho0 Ho3 3.268775 1_555
Ho1 Ru0 3.095554 1_565
Ho1 Ru0 3.098164 1_555
Ho1 Ru0 3.098164 1_665
Ho1 Ru7 3.098497 1_555
Ho1 Ru5 3.098497 1_555
Ho1 Ru5 3.098851 1_455
Ho1 Ru7 3.098851 1_565
Ho1 Ru6 3.100117 1_455
Ho1 Ru6 3.100117 1_565
Ho1 Ru3 3.182788 1_555
Ho1 Ru4 3.183301 1_555
Ho1 Ru2 3.183301 1_555
Ho1 Ho2 3.268775 1_555
Ho2 Ru1 3.095554 1_565
Ho2 Ru1 3.098164 1_555
Ho2 Ru1 3.098164 1_665
Ho2 Ru7 3.098497 1_555
Ho2 Ru5 3.098497 1_555
Ho2 Ru5 3.098851 1_455
Ho2 Ru7 3.098851 1_565
Ho2 Ru6 3.100117 1_455
Ho2 Ru6 3.100117 1_565
Ho2 Ru3 3.182788 1_554
Ho2 Ru4 3.183301 1_554
Ho2 Ru2 3.183301 1_554
Ho2 Ho3 3.262385 1_554
Ho2 Ho3 3.262976 1_564
Ho2 Ho3 3.262976 1_454
Ho3 Ru1 3.095554 1_656
Ho3 Ru1 3.098164 1_556
Ho3 Ru1 3.098164 1_666
Ho3 Ru2 3.098497 1_555
Ho3 Ru4 3.098497 1_555
Ho3 Ru4 3.098851 1_545
Ho3 Ru2 3.098851 1_655
Ho3 Ru3 3.100117 1_545
Ho3 Ru3 3.100117 1_655
Ho3 Ru6 3.182788 1_556
Ho3 Ru5 3.183301 1_556
Ho3 Ru7 3.183301 1_556
Ru0 Ru6 2.719214 1_455
Ru0 Ru3 2.719214 1_545
Ru0 Ru2 2.720106 1_555
Ru0 Ru7 2.720106 1_555
Ru0 Ru4 2.720106 1_445
Ru0 Ru5 2.720106 1_445
Ru1 Ru3 2.719214 1_544
Ru1 Ru6 2.719214 1_455
Ru1 Ru2 2.720106 1_554
Ru1 Ru7 2.720106 1_555
Ru1 Ru5 2.720106 1_445
Ru1 Ru4 2.720106 1_444
Ru2 Ru3 2.560450 1_555
Ru2 Ru4 2.560809 1_555
Ru2 Ru3 2.704067 1_545
Ru2 Ru4 2.707143 1_445
Ru3 Ru4 2.560450 1_555
Ru3 Ru4 2.704067 1_455
Ru5 Ru6 2.560450 1_555
Ru5 Ru7 2.560809 1_555
Ru5 Ru6 2.704067 1_565
Ru5 Ru7 2.707143 1_665
Ru6 Ru7 2.560450 1_555
Ru6 Ru7 2.704067 1_655
