# generated using pymatgen
data_Pb3BrO3
_symmetry_space_group_name_H-M   'P 1'
_cell_length_a   5.94449600
_cell_length_b   7.10592900
_cell_length_c   16.42855800
_cell_angle_alpha   90.00000000
_cell_angle_beta   90.00000000
_cell_angle_gamma   90.00000000
_symmetry_Int_Tables_number   1
_chemical_formula_structural   Pb3BrO3
_chemical_formula_sum   'Pb12 Br4 O12'
_cell_volume   693.96145411
_cell_formula_units_Z   4
loop_
 _symmetry_equiv_pos_site_id
 _symmetry_equiv_pos_as_xyz
  1  'x, y, z'
loop_
 _atom_site_type_symbol
 _atom_site_label
 _atom_site_symmetry_multiplicity
 _atom_site_fract_x
 _atom_site_fract_y
 _atom_site_fract_z
 _atom_site_occupancy
  Pb  Pb0  1  0.50000000  0.32480000  0.17913600  1
  Pb  Pb1  1  0.50000000  0.67520000  0.67913600  1
  Pb  Pb2  1  0.50000000  0.80814700  0.11040300  1
  Pb  Pb3  1  0.50000000  0.19185300  0.61040300  1
  Pb  Pb4  1  0.50000000  0.52325200  0.43467600  1
  Pb  Pb5  1  0.50000000  0.47674800  0.93467600  1
  Pb  Pb6  1  0.00000000  0.52484800  0.07927600  1
  Pb  Pb7  1  0.00000000  0.47515200  0.57927600  1
  Pb  Pb8  1  0.00000000  0.70900600  0.28147700  1
  Pb  Pb9  1  0.00000000  0.29099400  0.78147700  1
  Pb  Pb10  1  0.00000000  0.81160900  0.90812900  1
  Pb  Pb11  1  0.00000000  0.18839100  0.40812900  1
  Br  Br0  1  0.00000000  0.14189500  0.10606600  1
  Br  Br1  1  0.00000000  0.85810500  0.60606600  1
  Br  Br2  1  0.50000000  0.05805500  0.83071900  1
  Br  Br3  1  0.50000000  0.94194500  0.33071900  1
  O  O0  1  0.24068800  0.30998500  0.50833000  1
  O  O1  1  0.75931200  0.30998500  0.50833000  1
  O  O2  1  0.75931200  0.69001500  0.00833000  1
  O  O3  1  0.24068800  0.69001500  0.00833000  1
  O  O4  1  0.24343400  0.58580800  0.17585000  1
  O  O5  1  0.75656600  0.58580800  0.17585000  1
  O  O6  1  0.75656600  0.41419200  0.67585000  1
  O  O7  1  0.24343400  0.41419200  0.67585000  1
  O  O8  1  0.00000000  0.48250700  0.36912800  1
  O  O9  1  0.00000000  0.51749300  0.86912800  1
  O  O10  1  0.50000000  0.32930800  0.04796900  1
  O  O11  1  0.50000000  0.67069200  0.54796900  1
loop_
_geom_bond_atom_site_label_1
_geom_bond_atom_site_label_2
_geom_bond_distance
_geom_bond_site_symmetry_2
Br0 Pb6 2.756599 1_555
Br1 Pb7 2.756599 1_555
O0 Pb7 2.187024 1_555
O0 Pb11 2.345953 1_555
O0 Pb3 2.427519 1_555
O0 Pb4 2.477286 1_555
O1 Pb7 2.187024 1_655
O1 Pb11 2.345953 1_655
O1 Pb3 2.427519 1_555
O1 Pb4 2.477286 1_555
O2 Pb6 2.187024 1_655
O2 Pb10 2.345953 1_654
O2 Pb2 2.427519 1_555
O2 Pb5 2.477286 1_554
O3 Pb6 2.187024 1_555
O3 Pb10 2.345953 1_554
O3 Pb2 2.427519 1_555
O3 Pb5 2.477286 1_554
O4 Pb6 2.190646 1_555
O4 Pb0 2.401862 1_555
O4 Pb8 2.423165 1_555
O4 Pb2 2.445060 1_555
O5 Pb6 2.190646 1_655
O5 Pb0 2.401862 1_555
O5 Pb8 2.423165 1_655
O5 Pb2 2.445060 1_555
O6 Pb7 2.190646 1_655
O6 Pb1 2.401862 1_555
O6 Pb9 2.423165 1_655
O6 Pb3 2.445060 1_555
O7 Pb7 2.190646 1_555
O7 Pb1 2.401862 1_555
O7 Pb9 2.423165 1_555
O7 Pb3 2.445060 1_555
O8 Pb8 2.159626 1_555
O8 Pb11 2.185978 1_555
O9 Pb9 2.159626 1_555
O9 Pb10 2.185978 1_555
O10 Pb5 2.135858 1_554
O10 Pb0 2.155123 1_555
O11 Pb4 2.135858 1_555
O11 Pb1 2.155123 1_555
