# generated using pymatgen
data_TbFeGe2
_symmetry_space_group_name_H-M   'P 1'
_cell_length_a   8.42077373
_cell_length_b   8.42077373
_cell_length_c   4.30419400
_cell_angle_alpha   90.00000000
_cell_angle_beta   90.00000000
_cell_angle_gamma   151.31158575
_symmetry_Int_Tables_number   1
_chemical_formula_structural   TbFeGe2
_chemical_formula_sum   'Tb2 Fe2 Ge4'
_cell_volume   146.51388940
_cell_formula_units_Z   2
loop_
 _symmetry_equiv_pos_site_id
 _symmetry_equiv_pos_as_xyz
  1  'x, y, z'
loop_
 _atom_site_type_symbol
 _atom_site_label
 _atom_site_symmetry_multiplicity
 _atom_site_fract_x
 _atom_site_fract_y
 _atom_site_fract_z
 _atom_site_occupancy
  Tb  Tb0  1  0.89347600  0.10652400  0.25000000  1
  Tb  Tb1  1  0.10652400  0.89347600  0.75000000  1
  Fe  Fe0  1  0.68426600  0.31573400  0.25000000  1
  Fe  Fe1  1  0.31573400  0.68426600  0.75000000  1
  Ge  Ge0  1  0.54415600  0.45584400  0.25000000  1
  Ge  Ge1  1  0.45584400  0.54415600  0.75000000  1
  Ge  Ge2  1  0.25294900  0.74705100  0.25000000  1
  Ge  Ge3  1  0.74705100  0.25294900  0.75000000  1
loop_
_geom_bond_atom_site_label_1
_geom_bond_atom_site_label_2
_geom_bond_distance
_geom_bond_site_symmetry_2
Fe0 Ge0 2.286106 1_555
Fe0 Ge2 2.368164 1_655
Fe0 Ge2 2.368164 1_545
Fe0 Ge3 2.383481 1_555
Fe0 Ge3 2.383481 1_554
Fe0 Tb1 3.254668 1_655
Fe0 Tb1 3.254668 1_654
Fe0 Tb1 3.254668 1_544
Fe0 Tb1 3.254668 1_545
Fe1 Ge1 2.286106 1_555
Fe1 Ge3 2.368164 1_455
Fe1 Ge3 2.368164 1_565
Fe1 Ge2 2.383481 1_555
Fe1 Ge2 2.383481 1_556
Fe1 Tb0 3.254668 1_565
Fe1 Tb0 3.254668 1_566
Fe1 Tb0 3.254668 1_455
Fe1 Tb0 3.254668 1_456
Ge0 Ge1 2.589950 1_554
Ge0 Ge1 2.589950 1_555
Ge0 Tb1 3.165343 1_544
Ge0 Tb1 3.165343 1_545
Ge0 Tb1 3.165343 1_655
Ge0 Tb1 3.165343 1_654
Ge0 Tb0 3.224419 1_455
Ge0 Tb0 3.224419 1_565
Ge1 Tb0 3.165343 1_456
Ge1 Tb0 3.165343 1_455
Ge1 Tb0 3.165343 1_565
Ge1 Tb0 3.165343 1_566
Ge1 Tb1 3.224419 1_545
Ge1 Tb1 3.224419 1_655
Ge2 Tb0 3.099959 1_565
Ge2 Tb0 3.099959 1_455
Ge2 Tb1 3.215515 1_554
Ge2 Tb1 3.215515 1_555
Ge3 Tb1 3.099959 1_655
Ge3 Tb1 3.099959 1_545
Ge3 Tb0 3.215515 1_555
Ge3 Tb0 3.215515 1_556
