# generated using pymatgen
data_MnPt
_symmetry_space_group_name_H-M   'P 1'
_cell_length_a   3.45370537
_cell_length_b   4.17294322
_cell_length_c   4.17294322
_cell_angle_alpha   90.00000000
_cell_angle_beta   90.00000000
_cell_angle_gamma   90.00000000
_symmetry_Int_Tables_number   1
_chemical_formula_structural   MnPt
_chemical_formula_sum   'Mn2 Pt2'
_cell_volume   60.14094345
_cell_formula_units_Z   2
loop_
 _symmetry_equiv_pos_site_id
 _symmetry_equiv_pos_as_xyz
  1  'x, y, z'
loop_
 _atom_site_type_symbol
 _atom_site_label
 _atom_site_symmetry_multiplicity
 _atom_site_fract_x
 _atom_site_fract_y
 _atom_site_fract_z
 _atom_site_occupancy
  Mn  Mn0  1  -0.00000000  -0.00000000  -0.00000000  1
  Mn  Mn1  1  0.00000000  0.50000000  0.50000000  1
  Pt  Pt0  1  0.50000000  -0.00000000  0.50000000  1
  Pt  Pt1  1  0.50000000  0.50000000  -0.00000000  1
loop_
_geom_bond_atom_site_label_1
_geom_bond_atom_site_label_2
_geom_bond_distance
_geom_bond_site_symmetry_2
Mn0 Pt1 2.708391 1_455
Mn0 Pt0 2.708391 1_454
Mn0 Pt1 2.708391 1_555
Mn0 Pt1 2.708391 1_445
Mn0 Pt1 2.708391 1_545
Mn0 Pt0 2.708391 1_555
Mn0 Pt0 2.708391 1_455
Mn0 Pt0 2.708391 1_554
Mn0 Mn1 2.950716 1_544
Mn0 Mn1 2.950716 1_555
Mn0 Mn1 2.950716 1_545
Mn0 Mn1 2.950716 1_554
Mn1 Pt1 2.708391 1_455
Mn1 Pt1 2.708391 1_456
Mn1 Pt1 2.708391 1_555
Mn1 Pt1 2.708391 1_556
Mn1 Pt0 2.708391 1_465
Mn1 Pt0 2.708391 1_555
Mn1 Pt0 2.708391 1_455
Mn1 Pt0 2.708391 1_565
Pt0 Pt1 2.950716 1_555
Pt0 Pt1 2.950716 1_556
Pt0 Pt1 2.950716 1_546
Pt0 Pt1 2.950716 1_545
