# generated using pymatgen
data_WO2
_symmetry_space_group_name_H-M   'P 1'
_cell_length_a   6.73226106
_cell_length_b   6.73226106
_cell_length_c   6.73225997
_cell_angle_alpha   52.82496840
_cell_angle_beta   52.82496840
_cell_angle_gamma   52.82496942
_symmetry_Int_Tables_number   1
_chemical_formula_structural   WO2
_chemical_formula_sum   'W4 O8'
_cell_volume   179.45297084
_cell_formula_units_Z   4
loop_
 _symmetry_equiv_pos_site_id
 _symmetry_equiv_pos_as_xyz
  1  'x, y, z'
loop_
 _atom_site_type_symbol
 _atom_site_label
 _atom_site_symmetry_multiplicity
 _atom_site_fract_x
 _atom_site_fract_y
 _atom_site_fract_z
 _atom_site_occupancy
  W  W0  1  0.24990200  0.24990200  0.24990200  1
  W  W1  1  0.61317300  0.13594600  0.61317300  1
  W  W2  1  0.61317300  0.61317300  0.13594600  1
  W  W3  1  0.13594600  0.61317300  0.61317300  1
  O  O0  1  0.86145100  0.36489000  0.36489000  1
  O  O1  1  0.36489000  0.36489000  0.86145100  1
  O  O2  1  0.36489000  0.86145100  0.36489000  1
  O  O3  1  0.36572100  0.36572100  0.36572100  1
  O  O4  1  0.85110900  0.85110900  0.85110900  1
  O  O5  1  0.89540700  0.41148200  0.89540700  1
  O  O6  1  0.89540700  0.89540700  0.41148200  1
  O  O7  1  0.41148200  0.89540700  0.89540700  1
loop_
_geom_bond_atom_site_label_1
_geom_bond_atom_site_label_2
_geom_bond_distance
_geom_bond_site_symmetry_2
O0 W0 1.966890 1_655
O0 W2 2.141709 1_555
O0 W1 2.141709 1_555
O1 W0 1.966889 1_556
O1 W3 2.141709 1_555
O1 W1 2.141709 1_555
O2 W0 1.966890 1_565
O2 W2 2.141709 1_555
O2 W3 2.141709 1_555
O3 W0 2.007014 1_555
O3 W3 2.251378 1_555
O3 W1 2.251378 1_555
O3 W2 2.251379 1_555
O4 W1 2.117925 1_565
O4 W3 2.117925 1_655
O4 W2 2.117926 1_556
O5 W2 1.974150 1_556
O5 W3 1.974150 1_655
O6 W3 1.974150 1_655
O6 W1 1.974150 1_565
O7 W2 1.974150 1_556
O7 W1 1.974150 1_565
