# generated using pymatgen
data_Ce2Ga3Cu
_symmetry_space_group_name_H-M   'P 1'
_cell_length_a   4.35920767
_cell_length_b   4.35920767
_cell_length_c   7.95242686
_cell_angle_alpha   90.00000000
_cell_angle_beta   90.00000000
_cell_angle_gamma   119.99999796
_symmetry_Int_Tables_number   1
_chemical_formula_structural   Ce2Ga3Cu
_chemical_formula_sum   'Ce2 Ga3 Cu1'
_cell_volume   130.87160883
_cell_formula_units_Z   1
loop_
 _symmetry_equiv_pos_site_id
 _symmetry_equiv_pos_as_xyz
  1  'x, y, z'
loop_
 _atom_site_type_symbol
 _atom_site_label
 _atom_site_symmetry_multiplicity
 _atom_site_fract_x
 _atom_site_fract_y
 _atom_site_fract_z
 _atom_site_occupancy
  Ce  Ce0  1  0.00000000  -0.00000000  0.73392703  1
  Ce  Ce1  1  0.00000000  -0.00000000  0.26669581  1
  Ga  Ga0  1  0.33333300  0.66666700  0.48228702  1
  Ga  Ga1  1  0.33333300  0.66666700  0.03428519  1
  Ga  Ga2  1  0.66666700  0.33333300  0.96844349  1
  Cu  Cu0  1  0.66666700  0.33333300  0.51436046  1
loop_
_geom_bond_atom_site_label_1
_geom_bond_atom_site_label_2
_geom_bond_distance
_geom_bond_site_symmetry_2
Ce0 Cu0 3.063174 1_455
Ce0 Cu0 3.063178 1_445
Ce0 Cu0 3.063178 1_555
Ce0 Ga2 3.132467 1_455
Ce0 Ga2 3.132470 1_555
Ce0 Ga2 3.132470 1_445
Ce0 Ga0 3.215403 1_545
Ce0 Ga0 3.215406 1_445
Ce0 Ga0 3.215406 1_555
Ce0 Ga1 3.469800 1_546
Ce0 Ga1 3.469803 1_556
Ce0 Ga1 3.469803 1_446
Ce1 Ga0 3.045265 1_545
Ce1 Ga0 3.045268 1_555
Ce1 Ga0 3.045268 1_445
Ce1 Ga1 3.122526 1_545
Ce1 Ga1 3.122529 1_445
Ce1 Ga1 3.122529 1_555
Ce1 Cu0 3.195823 1_455
Ce1 Cu0 3.195826 1_445
Ce1 Cu0 3.195826 1_555
Ce1 Ga2 3.458294 1_454
Ce1 Ga2 3.458296 1_554
Ce1 Ga2 3.458296 1_444
Ga1 Ga2 2.570676 1_564
Ga1 Ga2 2.570676 1_454
Ga1 Ga2 2.570684 1_554
Cu0 Ga0 2.529679 1_545
Cu0 Ga0 2.529679 1_655
Cu0 Ga0 2.529686 1_555
