# generated using pymatgen
data_LaMn2CdO6
_symmetry_space_group_name_H-M   'P 1'
_cell_length_a   5.38690398
_cell_length_b   5.38971364
_cell_length_c   5.38807251
_cell_angle_alpha   60.22056756
_cell_angle_beta   60.23925788
_cell_angle_gamma   60.22850558
_symmetry_Int_Tables_number   1
_chemical_formula_structural   LaMn2CdO6
_chemical_formula_sum   'La1 Mn2 Cd1 O6'
_cell_volume   111.19197225
_cell_formula_units_Z   1
loop_
 _symmetry_equiv_pos_site_id
 _symmetry_equiv_pos_as_xyz
  1  'x, y, z'
loop_
 _atom_site_type_symbol
 _atom_site_label
 _atom_site_symmetry_multiplicity
 _atom_site_fract_x
 _atom_site_fract_y
 _atom_site_fract_z
 _atom_site_occupancy
  La  La0  1  0.74998661  0.74979480  0.74990584  1
  Mn  Mn0  1  0.00036115  0.00037853  0.00025618  1
  Mn  Mn1  1  0.49972118  0.49968762  0.49962417  1
  Cd  Cd0  1  0.24947572  0.24960143  0.24856308  1
  O  O0  1  0.82814463  0.25046101  0.67215792  1
  O  O1  1  0.25035274  0.67370422  0.82651056  1
  O  O2  1  0.67281319  0.82725947  0.24953936  1
  O  O3  1  0.74946114  0.30634243  0.19379463  1
  O  O4  1  0.30671192  0.19343394  0.75258470  1
  O  O5  1  0.19297271  0.74933655  0.30706256  1
loop_
_geom_bond_atom_site_label_1
_geom_bond_atom_site_label_2
_geom_bond_distance
_geom_bond_site_symmetry_2
La0 O5 2.394823 1_655
La0 O4 2.397790 1_565
La0 O3 2.398861 1_556
La0 O1 2.721721 1_555
La0 O0 2.723083 1_555
La0 O2 2.725322 1_556
La0 O2 2.727238 1_555
La0 O1 2.728084 1_655
La0 O0 2.732157 1_565
Mn0 O4 1.930442 1_554
Mn0 O5 1.930507 1_545
Mn0 O3 1.931090 1_455
Mn0 O1 1.954725 1_544
Mn0 O0 1.955010 1_454
Mn0 O2 1.955843 1_445
Mn1 O3 1.929721 1_555
Mn1 O5 1.929960 1_555
Mn1 O4 1.930284 1_555
Mn1 O2 1.956162 1_555
Mn1 O1 1.956312 1_555
Mn1 O0 1.957269 1_555
Cd0 O0 2.284285 1_455
Cd0 O2 2.286267 1_545
Cd0 O1 2.287558 1_554
Cd0 O4 2.687223 1_554
Cd0 O3 2.705020 1_455
Cd0 O5 2.708785 1_545
Cd0 O3 2.715540 1_555
Cd0 O5 2.716701 1_555
Cd0 O4 2.735635 1_555
