# generated using pymatgen
data_YbU2S3O2
_symmetry_space_group_name_H-M   'P 1'
_cell_length_a   10.71665371
_cell_length_b   10.71665371
_cell_length_c   10.71665371
_cell_angle_alpha   159.41738910
_cell_angle_beta   159.41738910
_cell_angle_gamma   29.26916115
_symmetry_Int_Tables_number   1
_chemical_formula_structural   YbU2S3O2
_chemical_formula_sum   'Yb1 U2 S3 O2'
_cell_volume   152.03174086
_cell_formula_units_Z   1
loop_
 _symmetry_equiv_pos_site_id
 _symmetry_equiv_pos_as_xyz
  1  'x, y, z'
loop_
 _atom_site_type_symbol
 _atom_site_label
 _atom_site_symmetry_multiplicity
 _atom_site_fract_x
 _atom_site_fract_y
 _atom_site_fract_z
 _atom_site_occupancy
  Yb  Yb0  1  0.00000000  0.00000000  0.00000000  1
  U  U0  1  0.31429534  0.31429534  0.00000000  1
  U  U1  1  0.68570466  0.68570466  0.00000000  1
  S  S0  1  0.12740437  0.12740437  0.00000000  1
  S  S1  1  0.87259563  0.87259563  0.00000000  1
  S  S2  1  0.50000000  0.50000000  0.00000000  1
  O  O0  1  0.75000000  0.25000000  0.50000000  1
  O  O1  1  0.25000000  0.75000000  0.50000000  1
loop_
_geom_bond_atom_site_label_1
_geom_bond_atom_site_label_2
_geom_bond_distance
_geom_bond_site_symmetry_2
S0 Yb0 2.642105 1_555
S0 U1 2.965272 1_444
S0 U1 2.965272 1_556
S0 U1 2.965272 1_455
S0 U1 2.965272 1_545
S1 Yb0 2.642105 1_665
S1 U0 2.965272 1_565
S1 U0 2.965272 1_655
S1 U0 2.965272 1_666
S1 U0 2.965272 1_554
S2 Yb0 2.707599 1_655
S2 Yb0 2.707599 1_565
S2 Yb0 2.707599 1_554
S2 Yb0 2.707599 1_666
O0 U0 2.333104 1_656
O0 U0 2.333104 1_555
O0 U1 2.333104 1_556
O0 U1 2.333104 1_545
O1 U0 2.333104 1_566
O1 U0 2.333104 1_555
O1 U1 2.333104 1_455
O1 U1 2.333104 1_556
