# generated using pymatgen
data_Nd2(Fe7B2)3
_symmetry_space_group_name_H-M   'P 1'
_cell_length_a   7.70211253
_cell_length_b   7.70211253
_cell_length_c   7.70211253
_cell_angle_alpha   60.00000000
_cell_angle_beta   60.00000000
_cell_angle_gamma   60.00000000
_symmetry_Int_Tables_number   1
_chemical_formula_structural   Nd2(Fe7B2)3
_chemical_formula_sum   'Nd2 Fe21 B6'
_cell_volume   323.08335255
_cell_formula_units_Z   1
loop_
 _symmetry_equiv_pos_site_id
 _symmetry_equiv_pos_as_xyz
  1  'x, y, z'
loop_
 _atom_site_type_symbol
 _atom_site_label
 _atom_site_symmetry_multiplicity
 _atom_site_fract_x
 _atom_site_fract_y
 _atom_site_fract_z
 _atom_site_occupancy
  Nd  Nd0  1  0.25000000  0.25000000  0.25000000  1
  Nd  Nd1  1  0.75000000  0.75000000  0.75000000  1
  Fe  Fe0  1  0.33766300  0.00000000  0.00000000  1
  Fe  Fe1  1  0.66233700  0.00000000  0.00000000  1
  Fe  Fe2  1  0.00000000  0.33766300  0.66233700  1
  Fe  Fe3  1  0.00000000  0.66233700  0.33766300  1
  Fe  Fe4  1  0.00000000  0.33766300  0.00000000  1
  Fe  Fe5  1  0.66233700  0.00000000  0.33766300  1
  Fe  Fe6  1  0.00000000  0.66233700  0.00000000  1
  Fe  Fe7  1  0.33766300  0.00000000  0.66233700  1
  Fe  Fe8  1  0.00000000  0.00000000  0.33766300  1
  Fe  Fe9  1  0.00000000  0.00000000  0.66233700  1
  Fe  Fe10  1  0.66233700  0.33766300  0.00000000  1
  Fe  Fe11  1  0.33766300  0.66233700  0.00000000  1
  Fe  Fe12  1  0.38904200  0.38904200  0.38904200  1
  Fe  Fe13  1  0.61095800  0.61095800  0.61095800  1
  Fe  Fe14  1  0.38904200  0.38904200  0.83287400  1
  Fe  Fe15  1  0.38904200  0.83287400  0.38904200  1
  Fe  Fe16  1  0.61095800  0.61095800  0.16712600  1
  Fe  Fe17  1  0.61095800  0.16712600  0.61095800  1
  Fe  Fe18  1  0.83287400  0.38904200  0.38904200  1
  Fe  Fe19  1  0.16712600  0.61095800  0.61095800  1
  Fe  Fe20  1  0.00000000  0.00000000  0.00000000  1
  B  B0  1  0.72831500  0.27168500  0.27168500  1
  B  B1  1  0.27168500  0.72831500  0.72831500  1
  B  B2  1  0.27168500  0.72831500  0.27168500  1
  B  B3  1  0.72831500  0.27168500  0.72831500  1
  B  B4  1  0.27168500  0.27168500  0.72831500  1
  B  B5  1  0.72831500  0.72831500  0.27168500  1
loop_
_geom_bond_atom_site_label_1
_geom_bond_atom_site_label_2
_geom_bond_distance
_geom_bond_site_symmetry_2
Fe0 Fe20 2.600718 1_555
Fe0 Nd0 2.996442 1_555
Fe0 Nd1 2.996442 1_544
Fe1 Fe20 2.600718 1_655
Fe1 Nd0 2.996442 1_555
Fe1 Nd1 2.996442 1_544
Fe2 Fe20 2.600718 1_556
Fe2 Nd0 2.996442 1_555
Fe2 Nd1 2.996442 1_455
Fe3 Nd0 2.996442 1_555
Fe3 Nd1 2.996442 1_455
Fe4 Nd0 2.996442 1_555
Fe4 Nd1 2.996442 1_454
Fe5 Nd0 2.996442 1_555
Fe5 Nd1 2.996442 1_545
Fe6 Nd0 2.996442 1_555
Fe6 Nd1 2.996442 1_454
Fe7 Nd0 2.996442 1_555
Fe7 Nd1 2.996442 1_545
Fe8 Nd0 2.996442 1_555
Fe8 Nd1 2.996442 1_445
Fe9 Nd0 2.996442 1_555
Fe9 Nd1 2.996442 1_445
Fe10 Fe20 2.600718 1_655
Fe10 Nd0 2.996442 1_555
Fe10 Nd1 2.996442 1_554
Fe11 Fe20 2.600718 1_565
Fe11 Nd0 2.996442 1_555
Fe11 Nd1 2.996442 1_554
Fe12 Nd0 2.623201 1_555
Fe13 Nd1 2.623201 1_555
Fe14 Nd0 2.623201 1_556
Fe15 Nd0 2.623201 1_565
Fe16 Nd1 2.623201 1_554
Fe17 Nd1 2.623201 1_545
Fe18 Nd0 2.623201 1_655
Fe19 Nd1 2.623201 1_455
Fe20 Fe8 2.600718 1_555
Fe20 Fe4 2.600718 1_555
Fe20 Fe7 2.600718 1_554
Fe20 Fe5 2.600718 1_455
Fe20 Fe6 2.600718 1_545
Fe20 Fe3 2.600718 1_545
Fe20 Fe9 2.600718 1_554
B0 Fe18 2.134361 1_555
B0 Fe17 2.134361 1_555
B0 Fe12 2.134361 1_555
B0 Fe16 2.134361 1_555
B0 Fe4 2.153368 1_655
B0 Fe8 2.153368 1_655
B0 Fe5 2.153368 1_555
B0 Fe10 2.153368 1_555
B1 Fe14 2.134361 1_555
B1 Fe15 2.134361 1_555
B1 Fe13 2.134361 1_555
B1 Fe19 2.134361 1_555
B1 Fe11 2.153368 1_556
B1 Fe7 2.153368 1_565
B1 Fe6 2.153368 1_556
B1 Fe9 2.153368 1_565
B2 Fe15 2.134361 1_555
B2 Fe19 2.134361 1_555
B2 Fe12 2.134361 1_555
B2 Fe16 2.134361 1_555
B2 Fe0 2.153368 1_565
B2 Fe8 2.153368 1_565
B2 Fe11 2.153368 1_555
B2 Fe3 2.153368 1_555
B3 Fe14 2.134361 1_555
B3 Fe18 2.134361 1_555
B3 Fe13 2.134361 1_555
B3 Fe17 2.134361 1_555
B3 Fe10 2.153368 1_556
B3 Fe2 2.153368 1_655
B3 Fe1 2.153368 1_556
B3 Fe9 2.153368 1_655
B4 Fe14 2.134361 1_555
B4 Fe17 2.134361 1_555
B4 Fe12 2.134361 1_555
B4 Fe19 2.134361 1_555
B4 Fe0 2.153368 1_556
B4 Fe4 2.153368 1_556
B4 Fe2 2.153368 1_555
B4 Fe7 2.153368 1_555
B5 Fe18 2.134361 1_555
B5 Fe15 2.134361 1_555
B5 Fe13 2.134361 1_555
B5 Fe16 2.134361 1_555
B5 Fe5 2.153368 1_565
B5 Fe3 2.153368 1_655
B5 Fe1 2.153368 1_565
B5 Fe6 2.153368 1_655
