# generated using pymatgen
data_LiTa2Te4Br10O
_symmetry_space_group_name_H-M   'P 1'
_cell_length_a   7.71333077
_cell_length_b   8.88174235
_cell_length_c   10.05218369
_cell_angle_alpha   86.16684975
_cell_angle_beta   93.29673081
_cell_angle_gamma   74.15661983
_symmetry_Int_Tables_number   1
_chemical_formula_structural   LiTa2Te4Br10O
_chemical_formula_sum   'Li1 Ta2 Te4 Br10 O1'
_cell_volume   658.94823274
_cell_formula_units_Z   1
loop_
 _symmetry_equiv_pos_site_id
 _symmetry_equiv_pos_as_xyz
  1  'x, y, z'
loop_
 _atom_site_type_symbol
 _atom_site_label
 _atom_site_symmetry_multiplicity
 _atom_site_fract_x
 _atom_site_fract_y
 _atom_site_fract_z
 _atom_site_occupancy
  Li  Li0  1  0.80209800  0.09834400  0.19490400  1
  Ta  Ta0  1  0.47865200  0.37239300  0.36627700  1
  Ta  Ta1  1  0.51801700  0.63721800  0.64193700  1
  Te  Te0  1  0.89848100  0.81761500  0.99946100  1
  Te  Te1  1  0.08144500  0.18814100  0.98796600  1
  Te  Te2  1  0.17586500  0.90234300  0.14255000  1
  Te  Te3  1  0.81024900  0.10337200  0.84562000  1
  Br  Br0  1  0.46417100  0.16765100  0.17245400  1
  Br  Br1  1  0.60926100  0.51975600  0.19328700  1
  Br  Br2  1  0.16319500  0.53517200  0.27983500  1
  Br  Br3  1  0.80493400  0.19219800  0.42602200  1
  Br  Br4  1  0.67693500  0.78166700  0.49190300  1
  Br  Br5  1  0.35310700  0.19986000  0.51360400  1
  Br  Br6  1  0.21019500  0.80732000  0.57011000  1
  Br  Br7  1  0.84005600  0.45633400  0.72675400  1
  Br  Br8  1  0.39697800  0.47411600  0.80651000  1
  Br  Br9  1  0.53818500  0.83228700  0.82625900  1
  O  O0  1  0.50317800  0.49992400  0.50204200  1
loop_
_geom_bond_atom_site_label_1
_geom_bond_atom_site_label_2
_geom_bond_distance
_geom_bond_site_symmetry_2
Li0 Te2 3.029145 1_645
Li0 Te0 3.231118 1_544
Li0 Te1 3.292106 1_654
Te0 Te3 2.776192 1_565
Te0 Te2 2.807628 1_656
Te1 Te3 2.765817 1_455
Te1 Te2 2.778755 1_546
Br0 Li0 2.502319 1_555
Br0 Ta0 2.770365 1_555
Br0 Te1 3.349482 1_554
Br1 Ta0 2.523686 1_555
Br2 Ta0 2.536512 1_555
Br3 Li0 2.521078 1_555
Br3 Ta0 2.598914 1_555
Br4 Ta1 2.497142 1_555
Br5 Ta0 2.480116 1_555
Br6 Ta1 2.477828 1_555
Br7 Ta1 2.621542 1_555
Br7 Te3 3.351504 1_555
Br8 Ta1 2.510502 1_555
Br9 Ta1 2.646160 1_555
Br9 Te0 3.160220 1_555
O0 Ta0 1.864210 1_555
O0 Ta1 1.940250 1_555
