# generated using pymatgen
data_K5Mn2B2P5O21
_symmetry_space_group_name_H-M   'P 1'
_cell_length_a   9.21146060
_cell_length_b   14.79020073
_cell_length_c   14.91788929
_cell_angle_alpha   103.69789593
_cell_angle_beta   90.00000000
_cell_angle_gamma   90.00000000
_symmetry_Int_Tables_number   1
_chemical_formula_structural   K5Mn2B2P5O21
_chemical_formula_sum   'K20 Mn8 B8 P20 O84'
_cell_volume   1974.59756495
_cell_formula_units_Z   4
loop_
 _symmetry_equiv_pos_site_id
 _symmetry_equiv_pos_as_xyz
  1  'x, y, z'
loop_
 _atom_site_type_symbol
 _atom_site_label
 _atom_site_symmetry_multiplicity
 _atom_site_fract_x
 _atom_site_fract_y
 _atom_site_fract_z
 _atom_site_occupancy
  K  K0  1  0.49883654  0.49996562  0.99968487  1
  K  K1  1  0.00116346  -0.00003438  0.49968487  1
  K  K2  1  0.35348300  0.35717140  0.53802296  1
  K  K3  1  0.14651700  0.85717140  0.03802296  1
  K  K4  1  0.64188890  0.64493762  0.46100908  1
  K  K5  1  0.85811110  0.14493762  0.96100908  1
  K  K6  1  0.02320739  0.68713955  0.76293159  1
  K  K7  1  0.47679261  0.18713955  0.26293159  1
  K  K8  1  0.97928898  0.31503813  0.24026603  1
  K  K9  1  0.52071102  0.81503813  0.74026603  1
  K  K10  1  0.33347739  0.14290181  0.62380194  1
  K  K11  1  0.16652261  0.64290181  0.12380194  1
  K  K12  1  0.66812322  0.85729761  0.37630142  1
  K  K13  1  0.83187678  0.35729761  0.87630142  1
  K  K14  1  0.59898534  0.54263053  0.69604729  1
  K  K15  1  0.90101466  0.04263053  0.19604729  1
  K  K16  1  0.39175496  0.45637420  0.30642955  1
  K  K17  1  0.10824504  0.95637420  0.80642955  1
  K  K18  1  0.98990201  0.51678414  0.50786385  1
  K  K19  1  0.51009799  0.01678414  0.00786385  1
  Mn  Mn0  1  0.70827860  0.29271437  0.62416466  1
  Mn  Mn1  1  0.79172140  0.79271437  0.12416466  1
  Mn  Mn2  1  0.29161262  0.70773728  0.37566638  1
  Mn  Mn3  1  0.20838738  0.20773728  0.87566638  1
  Mn  Mn4  1  0.17494759  0.50222360  0.86141141  1
  Mn  Mn5  1  0.32505241  0.00222360  0.36141141  1
  Mn  Mn6  1  0.82366306  0.49696681  0.13688411  1
  Mn  Mn7  1  0.67633694  0.99696681  0.63688411  1
  B  B0  1  0.02576168  0.23941182  0.56813292  1
  B  B1  1  0.47423832  0.73941182  0.06813292  1
  B  B2  1  0.97452640  0.76161815  0.43182593  1
  B  B3  1  0.52547360  0.26161815  0.93182593  1
  B  B4  1  0.85145518  0.21960369  0.42644584  1
  B  B5  1  0.64854482  0.71960369  0.92644584  1
  B  B6  1  0.14853862  0.78184159  0.57376025  1
  B  B7  1  0.35146138  0.28184159  0.07376025  1
  P  P0  1  0.63241679  0.10888785  0.46680347  1
  P  P1  1  0.86758321  0.60888785  0.96680347  1
  P  P2  1  0.36841046  0.89107910  0.53312946  1
  P  P3  1  0.13158954  0.39107910  0.03312946  1
  P  P4  1  0.99256095  0.41453255  0.69634400  1
  P  P5  1  0.50743905  0.91453255  0.19634400  1
  P  P6  1  0.00829108  0.58497066  0.30543714  1
  P  P7  1  0.49170892  0.08497066  0.80543714  1
  P  P8  1  0.92015592  0.15550321  0.70589067  1
  P  P9  1  0.57984408  0.65550321  0.20589067  1
  P  P10  1  0.08007058  0.84416045  0.29331131  1
  P  P11  1  0.41992942  0.34416045  0.79331131  1
  P  P12  1  0.67341889  0.37559528  0.44168464  1
  P  P13  1  0.82658111  0.87559528  0.94168464  1
  P  P14  1  0.32532107  0.62547245  0.55887036  1
  P  P15  1  0.17467893  0.12547245  0.05887036  1
  P  P16  1  0.35759144  0.70424866  0.89459400  1
  P  P17  1  0.14240856  0.20424866  0.39459400  1
  P  P18  1  0.64132488  0.29549919  0.10490602  1
  P  P19  1  0.85867512  0.79549919  0.60490602  1
  O  O0  1  0.26335712  0.62092336  0.84827294  1
  O  O1  1  0.23664288  0.12092336  0.34827294  1
  O  O2  1  0.73841008  0.37670622  0.15251900  1
  O  O3  1  0.76158992  0.87670622  0.65251900  1
  O  O4  1  0.03346419  0.17247931  0.63099807  1
  O  O5  1  0.46653581  0.67247931  0.13099807  1
  O  O6  1  0.96637455  0.82723471  0.36799499  1
  O  O7  1  0.53362545  0.32723471  0.86799499  1
  O  O8  1  0.06281322  0.33611050  0.61687048  1
  O  O9  1  0.43718678  0.83611050  0.11687048  1
  O  O10  1  0.93803509  0.66421965  0.38464914  1
  O  O11  1  0.56196491  0.16421965  0.88464914  1
  O  O12  1  0.80677345  0.30660622  0.40346606  1
  O  O13  1  0.69322655  0.80660622  0.90346606  1
  O  O14  1  0.19088463  0.69405871  0.59634522  1
  O  O15  1  0.30911537  0.19405871  0.09634522  1
  O  O16  1  0.71463588  0.47344755  0.43748706  1
  O  O17  1  0.78536412  0.97344755  0.93748706  1
  O  O18  1  0.28254321  0.52809132  0.56362679  1
  O  O19  1  0.21745679  0.02809132  0.06362679  1
  O  O20  1  0.73816915  0.14506201  0.39957307  1
  O  O21  1  0.76183085  0.64506201  0.89957307  1
  O  O22  1  0.26314133  0.85501378  0.60076526  1
  O  O23  1  0.23685867  0.35501378  0.10076526  1
  O  O24  1  0.35311776  0.70709146  0.00226044  1
  O  O25  1  0.14688224  0.20709146  0.50226044  1
  O  O26  1  0.64641002  0.29487394  0.99760458  1
  O  O27  1  0.85358998  0.79487394  0.49760458  1
  O  O28  1  0.65580128  0.37658296  0.54841244  1
  O  O29  1  0.84419872  0.87658296  0.04841244  1
  O  O30  1  0.34324049  0.62416993  0.45213264  1
  O  O31  1  0.15675951  0.12416993  0.95213264  1
  O  O32  1  0.53573435  0.33860758  0.38974711  1
  O  O33  1  0.96426565  0.83860758  0.88974711  1
  O  O34  1  0.46262729  0.66268531  0.61109458  1
  O  O35  1  0.03737271  0.16268531  0.11109458  1
  O  O36  1  0.82539509  0.39763706  0.69889822  1
  O  O37  1  0.67460491  0.89763706  0.19889822  1
  O  O38  1  0.17495770  0.60318907  0.30110962  1
  O  O39  1  0.32504230  0.10318907  0.80110962  1
  O  O40  1  0.20481877  0.46939752  0.99670756  1
  O  O41  1  0.29518123  0.96939752  0.49670756  1
  O  O42  1  0.79428874  0.53039843  0.00324700  1
  O  O43  1  0.70571126  0.03039843  0.50324700  1
  O  O44  1  0.00125143  0.57345732  0.90697262  1
  O  O45  1  0.49874857  0.07345732  0.40697262  1
  O  O46  1  -0.00230325  0.42624566  0.09297601  1
  O  O47  1  0.50230325  0.92624566  0.59297601  1
  O  O48  1  0.86548321  0.05242423  0.67197519  1
  O  O49  1  0.63451679  0.55242423  0.17197519  1
  O  O50  1  0.13478515  0.94706638  0.32710247  1
  O  O51  1  0.36521485  0.44706638  0.82710247  1
  O  O52  1  0.88587205  0.23314369  0.52442475  1
  O  O53  1  0.61412795  0.73314369  0.02442475  1
  O  O54  1  0.11450360  0.76863137  0.47565441  1
  O  O55  1  0.38549640  0.26863137  0.97565441  1
  O  O56  1  0.97828356  0.18088023  0.36632259  1
  O  O57  1  0.52171644  0.68088023  0.86632259  1
  O  O58  1  0.02206705  0.82112674  0.63371202  1
  O  O59  1  0.47793295  0.32112674  0.13371202  1
  O  O60  1  0.02720922  0.50965819  0.68299137  1
  O  O61  1  0.47279078  0.00965819  0.18299137  1
  O  O62  1  0.97739874  0.49091744  0.32279303  1
  O  O63  1  0.52260126  0.99091744  0.82279303  1
  O  O64  1  0.49964759  0.33535024  0.70216855  1
  O  O65  1  0.00035241  0.83535024  0.20216855  1
  O  O66  1  0.50025339  0.66425087  0.29692491  1
  O  O67  1  -0.00025339  0.16425087  0.79692491  1
  O  O68  1  0.30883509  0.79408304  0.87342050  1
  O  O69  1  0.19116491  0.29408304  0.37342050  1
  O  O70  1  0.68463172  0.20305563  0.12273160  1
  O  O71  1  0.81536828  0.70305563  0.62273160  1
  O  O72  1  0.58631614  0.19094814  0.54728182  1
  O  O73  1  0.91368386  0.69094814  0.04728182  1
  O  O74  1  0.41448347  0.80878660  0.45282489  1
  O  O75  1  0.08551653  0.30878660  0.95282489  1
  O  O76  1  0.79341913  0.22422661  0.71177625  1
  O  O77  1  0.70658087  0.72422661  0.21177625  1
  O  O78  1  0.20661193  0.77554379  0.28757072  1
  O  O79  1  0.29338807  0.27554379  0.78757072  1
  O  O80  1  0.05997993  0.40090329  0.78899039  1
  O  O81  1  0.44002007  0.90090329  0.28899039  1
  O  O82  1  0.93884737  0.59652658  0.21288249  1
  O  O83  1  0.56115263  0.09652658  0.71288249  1
loop_
_geom_bond_atom_site_label_1
_geom_bond_atom_site_label_2
_geom_bond_distance
_geom_bond_site_symmetry_2
K0 O40 2.744437 1_555
K0 O42 2.756974 1_556
K0 O51 2.793121 1_555
K0 O49 2.797417 1_556
K0 O5 2.840585 1_556
K0 O7 2.848115 1_555
K1 O41 2.744437 1_545
K1 O43 2.756974 1_455
K1 O50 2.793121 1_545
K1 O48 2.797417 1_455
K1 O4 2.840585 1_555
K1 O6 2.848115 1_445
K2 O18 2.550703 1_555
K2 O32 2.738413 1_555
K2 O28 2.800080 1_555
K2 O69 2.837374 1_555
K2 O25 2.876224 1_555
K2 O64 2.878780 1_555
K2 O8 2.970364 1_555
K2 O72 3.289967 1_555
K3 O19 2.550703 1_565
K3 O33 2.738413 1_454
K3 O29 2.800080 1_455
K3 O68 2.837374 1_554
K3 O24 2.876224 1_555
K3 O65 2.878780 1_555
K3 O9 2.970364 1_555
K3 O73 3.289967 1_455
K4 O16 2.565900 1_555
K4 O34 2.744114 1_555
K4 O30 2.767770 1_555
K4 O66 2.847205 1_555
K4 O71 2.851449 1_555
K4 O27 2.906057 1_555
K4 O10 2.995739 1_555
K4 O74 3.227324 1_555
K5 O17 2.565900 1_545
K5 O35 2.744114 1_656
K5 O31 2.767770 1_655
K5 O67 2.847205 1_655
K5 O70 2.851449 1_556
K5 O26 2.906057 1_555
K5 O11 2.995739 1_555
K5 O75 3.227324 1_655
K6 O60 2.613711 1_555
K6 O33 2.623976 1_455
K6 O0 2.839712 1_555
K6 O71 2.885867 1_455
K6 O14 2.948282 1_555
K6 O44 3.032548 1_555
K6 O58 3.074477 1_555
K6 O68 3.302466 1_555
K6 O21 3.307569 1_455
K7 O61 2.613711 1_555
K7 O32 2.623976 1_555
K7 O1 2.839712 1_555
K7 O70 2.885867 1_555
K7 O15 2.948282 1_555
K7 O45 3.032548 1_555
K7 O59 3.074477 1_555
K7 O69 3.302466 1_555
K7 O20 3.307569 1_555
K8 O62 2.601146 1_555
K8 O35 2.649626 1_655
K8 O2 2.834449 1_555
K8 O69 2.853494 1_655
K8 O12 2.934608 1_555
K8 O56 3.039847 1_555
K8 O46 3.045259 1_655
K8 O23 3.300349 1_655
K9 O63 2.601146 1_555
K9 O34 2.649626 1_555
K9 O3 2.834449 1_555
K9 O68 2.853494 1_555
K9 O13 2.934608 1_555
K9 O57 3.039847 1_555
K9 O47 3.045259 1_555
K9 O22 3.300349 1_555
K10 O83 2.658277 1_555
K10 O72 2.759805 1_555
K10 O79 2.771963 1_555
K10 O4 2.796053 1_555
K10 O25 2.821058 1_555
K10 O41 2.828445 1_545
K10 O39 2.843087 1_555
K10 O64 3.199285 1_555
K11 O82 2.658277 1_455
K11 O73 2.759805 1_455
K11 O78 2.771963 1_555
K11 O5 2.796053 1_555
K11 O24 2.821058 1_555
K11 O40 2.828445 1_554
K11 O38 2.843087 1_555
K11 O65 3.199285 1_555
K12 O81 2.631571 1_555
K12 O74 2.768503 1_555
K12 O6 2.781148 1_555
K12 O77 2.781231 1_555
K12 O27 2.799459 1_555
K12 O43 2.822160 1_565
K12 O37 2.848017 1_555
K12 O66 3.216245 1_555
K13 O80 2.631571 1_655
K13 O75 2.768503 1_655
K13 O7 2.781148 1_555
K13 O76 2.781231 1_555
K13 O26 2.799459 1_555
K13 O42 2.822160 1_556
K13 O36 2.848017 1_555
K13 O67 3.216245 1_655
K14 O34 2.720734 1_555
K14 O28 2.931579 1_555
K14 O57 2.946191 1_555
K14 O36 2.998898 1_555
K14 O64 3.221313 1_555
K15 O35 2.720734 1_655
K15 O29 2.931579 1_545
K15 O56 2.946191 1_555
K15 O37 2.998898 1_545
K15 O65 3.221313 1_645
K16 O32 2.713480 1_555
K16 O30 2.920347 1_555
K16 O38 2.964974 1_555
K16 O59 2.971414 1_555
K17 O33 2.713480 1_455
K17 O31 2.920347 1_565
K17 O39 2.964974 1_565
K17 O58 2.971414 1_555
K18 O60 2.661755 1_655
K18 O62 2.698476 1_555
K18 O16 2.761094 1_555
K18 O18 2.814361 1_655
K18 O10 3.203154 1_555
K18 O14 3.225708 1_655
K18 O71 3.297763 1_555
K19 O61 2.661755 1_555
K19 O63 2.698476 1_544
K19 O17 2.761094 1_544
K19 O19 2.814361 1_555
K19 O11 3.203154 1_554
K19 O15 3.225708 1_555
K19 O70 3.297763 1_555
Mn0 O28 1.926985 1_555
Mn0 O76 1.994077 1_555
Mn0 O36 1.998890 1_555
Mn0 O72 2.006357 1_555
Mn0 O52 2.246203 1_555
Mn0 O64 2.257767 1_555
Mn1 O29 1.926985 1_555
Mn1 O77 1.994077 1_555
Mn1 O37 1.998890 1_555
Mn1 O73 2.006357 1_555
Mn1 O53 2.246203 1_555
Mn1 O65 2.257767 1_655
Mn2 O30 1.929449 1_555
Mn2 O38 1.992041 1_555
Mn2 O78 1.992520 1_555
Mn2 O74 2.006198 1_555
Mn2 O54 2.249751 1_555
Mn2 O66 2.264801 1_555
Mn3 O31 1.929449 1_555
Mn3 O39 1.992041 1_555
Mn3 O79 1.992520 1_555
Mn3 O75 2.006198 1_555
Mn3 O55 2.249751 1_555
Mn3 O67 2.264801 1_555
Mn4 O80 1.941032 1_555
Mn4 O44 1.947511 1_555
Mn4 O51 1.949734 1_555
Mn4 O0 1.986631 1_555
Mn4 O40 2.202086 1_555
Mn5 O81 1.941032 1_545
Mn5 O45 1.947511 1_555
Mn5 O50 1.949734 1_545
Mn5 O1 1.986631 1_555
Mn5 O41 2.202086 1_545
Mn6 O46 1.941283 1_655
Mn6 O49 1.943993 1_555
Mn6 O82 1.946469 1_555
Mn6 O2 2.007805 1_555
Mn6 O42 2.181498 1_555
Mn7 O47 1.941283 1_555
Mn7 O48 1.943993 1_565
Mn7 O83 1.946469 1_565
Mn7 O3 2.007805 1_555
Mn7 O43 2.181498 1_565
B0 O52 1.437210 1_455
B0 O8 1.482593 1_555
B0 O25 1.488782 1_555
B0 O4 1.517963 1_555
B1 O53 1.437210 1_555
B1 O9 1.482593 1_555
B1 O24 1.488782 1_555
B1 O5 1.517963 1_555
B2 O54 1.438287 1_655
B2 O10 1.484354 1_555
B2 O27 1.489042 1_555
B2 O6 1.513892 1_555
B3 O55 1.438287 1_555
B3 O11 1.484354 1_555
B3 O26 1.489042 1_555
B3 O7 1.513892 1_555
B4 O52 1.462317 1_555
B4 O12 1.466851 1_555
B4 O56 1.501349 1_555
B4 O20 1.501939 1_555
B5 O53 1.462317 1_556
B5 O13 1.466851 1_555
B5 O57 1.501349 1_555
B5 O21 1.501939 1_555
B6 O54 1.463887 1_555
B6 O14 1.469180 1_555
B6 O22 1.497147 1_555
B6 O58 1.499519 1_555
B7 O55 1.463887 1_554
B7 O15 1.469180 1_555
B7 O23 1.497147 1_555
B7 O59 1.499519 1_555
O0 P16 1.531818 1_555
O1 P17 1.531818 1_555
O2 P18 1.530622 1_555
O3 P19 1.530622 1_555
O4 P8 1.591698 1_455
O5 P9 1.591698 1_555
O6 P10 1.591502 1_655
O7 P11 1.591502 1_555
O8 P4 1.586952 1_455
O9 P5 1.586952 1_555
O10 P6 1.591554 1_655
O11 P7 1.591554 1_555
O12 P12 1.612334 1_555
O13 P13 1.612334 1_555
O14 P14 1.614464 1_555
O15 P15 1.614464 1_555
O16 P12 1.511799 1_555
O17 P13 1.511799 1_555
O18 P14 1.511004 1_555
O19 P15 1.511004 1_555
O20 P0 1.579620 1_555
O21 P1 1.579620 1_555
O22 P2 1.580430 1_555
O23 P3 1.580430 1_555
O24 P16 1.597254 1_554
O25 P17 1.597254 1_555
O26 P18 1.599233 1_556
O27 P19 1.599233 1_555
O28 P12 1.597024 1_555
O29 P13 1.597024 1_554
O30 P14 1.596406 1_555
O31 P15 1.596406 1_556
O32 P12 1.519001 1_555
O33 P13 1.519001 1_555
O34 P14 1.518717 1_555
O35 P15 1.518717 1_555
O36 P4 1.561896 1_555
O37 P5 1.561896 1_555
O38 P6 1.562684 1_555
O39 P7 1.562684 1_555
O40 P3 1.545985 1_556
O41 P2 1.545985 1_555
O42 P1 1.548523 1_554
O43 P0 1.548523 1_555
O44 P1 1.538110 1_455
O45 P0 1.538110 1_555
O46 P3 1.539096 1_555
O47 P2 1.539096 1_555
O48 P8 1.571171 1_555
O49 P9 1.571171 1_555
O50 P10 1.568836 1_555
O51 P11 1.568836 1_555
O56 P17 1.585536 1_655
O57 P16 1.585536 1_555
O58 P19 1.586333 1_455
O59 P18 1.586333 1_555
O60 P4 1.501238 1_455
O61 P5 1.501238 1_545
O62 P6 1.501217 1_655
O63 P7 1.501217 1_565
O64 P11 1.523472 1_555
O65 P10 1.523472 1_555
O66 P9 1.521610 1_555
O67 P8 1.521610 1_455
O68 P16 1.505190 1_555
O69 P17 1.505190 1_555
O70 P18 1.507130 1_555
O71 P19 1.507130 1_555
O72 P0 1.550689 1_555
O73 P1 1.550689 1_554
O74 P2 1.551158 1_555
O75 P3 1.551158 1_556
O76 P8 1.536709 1_555
O77 P9 1.536709 1_555
O78 P10 1.534535 1_555
O79 P11 1.534535 1_555
O80 P4 1.571122 1_455
O81 P5 1.571122 1_555
O82 P6 1.567339 1_655
O83 P7 1.567339 1_555
