# generated using pymatgen
data_Tm4Fe34C3
_symmetry_space_group_name_H-M   'P 1'
_cell_length_a   6.45367602
_cell_length_b   6.41533598
_cell_length_c   12.84897529
_cell_angle_alpha   82.79750405
_cell_angle_beta   83.33878933
_cell_angle_gamma   83.64731326
_symmetry_Int_Tables_number   1
_chemical_formula_structural   Tm4Fe34C3
_chemical_formula_sum   'Tm4 Fe34 C3'
_cell_volume   521.72009022
_cell_formula_units_Z   1
loop_
 _symmetry_equiv_pos_site_id
 _symmetry_equiv_pos_as_xyz
  1  'x, y, z'
loop_
 _atom_site_type_symbol
 _atom_site_label
 _atom_site_symmetry_multiplicity
 _atom_site_fract_x
 _atom_site_fract_y
 _atom_site_fract_z
 _atom_site_occupancy
  Tm  Tm0  1  0.66356900  0.65505300  0.32794000  1
  Tm  Tm1  1  0.66123300  0.66079000  0.82661000  1
  Tm  Tm2  1  0.33643100  0.34494700  0.17206000  1
  Tm  Tm3  1  0.33876700  0.33921000  0.67339000  1
  Fe  Fe0  1  0.34196300  0.34542800  0.42627600  1
  Fe  Fe1  1  0.34391200  0.34291800  0.92391300  1
  Fe  Fe2  1  0.34257300  0.85056000  0.17226000  1
  Fe  Fe3  1  0.34428800  0.84893400  0.67313300  1
  Fe  Fe4  1  0.85227200  0.34484200  0.17276300  1
  Fe  Fe5  1  0.84807900  0.34485100  0.67300700  1
  Fe  Fe6  1  0.65803700  0.65457200  0.07372400  1
  Fe  Fe7  1  0.65608800  0.65708200  0.57608700  1
  Fe  Fe8  1  0.65742700  0.14944000  0.32774000  1
  Fe  Fe9  1  0.65571200  0.15106600  0.82686700  1
  Fe  Fe10  1  0.14772800  0.65515800  0.32723700  1
  Fe  Fe11  1  0.15192100  0.65514900  0.82699300  1
  Fe  Fe12  1  0.90169700  0.90376400  0.45252500  1
  Fe  Fe13  1  0.90531600  0.90425300  0.95040000  1
  Fe  Fe14  1  0.09830300  0.09623600  0.04747500  1
  Fe  Fe15  1  0.09468400  0.09574700  0.54960000  1
  Fe  Fe16  1  0.00000000  0.00000000  0.25000000  1
  Fe  Fe17  1  0.00000000  0.00000000  0.75000000  1
  Fe  Fe18  1  0.99879100  0.49995200  0.50046600  1
  Fe  Fe19  1  0.00120900  0.50004800  0.99953400  1
  Fe  Fe20  1  0.50058400  0.99747800  0.99892900  1
  Fe  Fe21  1  0.49941600  0.00252200  0.50107100  1
  Fe  Fe22  1  0.28438300  0.71566400  0.50022000  1
  Fe  Fe23  1  0.28420200  0.71582700  0.99989000  1
  Fe  Fe24  1  0.71588000  0.99932200  0.14185300  1
  Fe  Fe25  1  0.70748700  0.00016700  0.64739900  1
  Fe  Fe26  1  0.00134000  0.29184500  0.35436600  1
  Fe  Fe27  1  0.99923600  0.29296600  0.85298900  1
  Fe  Fe28  1  0.28412000  0.00067800  0.35814700  1
  Fe  Fe29  1  0.29251300  0.99983300  0.85260100  1
  Fe  Fe30  1  0.99866000  0.70815500  0.14563400  1
  Fe  Fe31  1  0.00076400  0.70703400  0.64701100  1
  Fe  Fe32  1  0.71561700  0.28433600  0.99978000  1
  Fe  Fe33  1  0.71579800  0.28417300  0.50011000  1
  C  C0  1  0.49897000  0.49910600  0.99948400  1
  C  C1  1  0.50103000  0.50089400  0.50051600  1
  C  C2  1  0.50000000  0.00000000  0.25000000  1
loop_
_geom_bond_atom_site_label_1
_geom_bond_atom_site_label_2
_geom_bond_distance
_geom_bond_site_symmetry_2
Fe0 Fe21 2.448934 1_555
Fe0 Fe18 2.461246 1_455
Fe0 Fe10 2.514716 1_555
Fe0 Fe26 2.553892 1_555
Fe0 Fe15 2.639312 1_555
Fe1 Fe20 2.461133 1_545
Fe1 Fe19 2.470934 1_555
Fe1 Fe11 2.506310 1_555
Fe1 Fe9 2.524586 1_555
Fe1 Fe29 2.555744 1_545
Fe1 Fe27 2.565639 1_455
Fe1 Fe14 2.622750 1_556
Fe2 Fe20 2.459225 1_554
Fe2 Fe30 2.565368 1_455
Fe3 Fe7 2.524586 1_555
Fe3 Fe31 2.559745 1_555
Fe3 Tm1 3.053234 1_555
Fe3 Tm3 3.141954 1_565
Fe3 Tm3 3.273769 1_555
Fe4 Fe8 2.501979 1_555
Fe4 Fe6 2.514716 1_555
Fe4 Tm0 3.051959 1_555
Fe4 Tm2 3.123645 1_655
Fe4 Tm2 3.330056 1_555
Fe5 Fe9 2.480115 1_555
Fe5 Fe7 2.506310 1_555
Fe5 Tm1 3.060645 1_555
Fe5 Tm3 3.163510 1_655
Fe5 Tm3 3.290562 1_555
Fe9 Tm3 3.053234 1_555
Fe9 Tm1 3.141954 1_545
Fe9 Tm1 3.273769 1_555
Fe10 Fe16 2.447496 1_565
Fe10 Fe18 2.455459 1_455
Fe10 Fe2 2.501979 1_555
Fe10 Fe28 2.565076 1_565
Fe10 Fe22 2.572066 1_555
Fe10 Fe26 2.579480 1_555
Fe10 Fe30 2.595265 1_455
Fe10 Fe12 2.673336 1_455
Fe10 Tm2 3.051959 1_555
Fe10 Tm0 3.123645 1_455
Fe10 Tm0 3.330056 1_555
Fe11 Fe19 2.451909 1_555
Fe11 Fe17 2.455727 1_565
Fe11 Fe3 2.480115 1_555
Fe11 Fe29 2.552825 1_555
Fe11 Fe23 2.558513 1_555
Fe11 Fe31 2.582436 1_555
Fe11 Fe27 2.591720 1_455
Fe11 Fe13 2.662365 1_455
Fe11 Tm3 3.060645 1_555
Fe11 Tm1 3.163510 1_455
Fe11 Tm1 3.290562 1_555
Fe12 Fe15 2.389354 1_665
Fe12 Fe18 2.610252 1_555
Fe12 Fe16 2.618418 1_665
Fe12 Fe7 2.622750 1_555
Fe12 Fe21 2.624899 1_565
Fe12 Fe8 2.634936 1_565
Fe12 Fe33 2.706481 1_565
Fe12 Fe28 2.721115 1_665
Fe12 Fe22 2.727176 1_655
Fe12 Fe26 2.753447 1_665
Fe12 Fe31 2.765431 1_655
Fe12 Fe25 2.777009 1_565
Fe12 Tm0 3.037094 1_555
Fe13 Fe14 2.389354 1_666
Fe13 Fe17 2.588901 1_665
Fe13 Fe19 2.613577 1_655
Fe13 Fe20 2.634207 1_555
Fe13 Fe6 2.639312 1_556
Fe13 Fe9 2.649522 1_565
Fe13 Fe23 2.712658 1_655
Fe13 Fe32 2.719208 1_565
Fe13 Fe24 2.726094 1_556
Fe13 Fe27 2.743806 1_565
Fe13 Fe29 2.759832 1_655
Fe13 Fe30 2.762236 1_556
Fe13 Tm1 3.033067 1_555
Fe14 Fe19 2.610252 1_554
Fe14 Fe16 2.618418 1_555
Fe14 Fe20 2.624899 1_544
Fe14 Fe2 2.634936 1_545
Fe14 Fe4 2.673336 1_455
Fe14 Fe23 2.706481 1_544
Fe14 Fe24 2.721115 1_445
Fe14 Fe32 2.727176 1_454
Fe14 Fe30 2.753447 1_445
Fe14 Fe27 2.765431 1_454
Fe14 Fe29 2.777009 1_544
Fe14 Tm2 3.037094 1_555
Fe15 Fe17 2.588901 1_555
Fe15 Fe18 2.613577 1_455
Fe15 Fe21 2.634207 1_555
Fe15 Fe3 2.649522 1_545
Fe15 Fe5 2.662365 1_455
Fe15 Fe33 2.712658 1_455
Fe15 Fe22 2.719208 1_545
Fe15 Fe28 2.726094 1_555
Fe15 Fe31 2.743806 1_545
Fe15 Fe25 2.759832 1_455
Fe15 Fe26 2.762236 1_555
Fe15 Tm3 3.033067 1_555
Fe16 Fe28 2.426417 1_555
Fe16 Fe24 2.426417 1_445
Fe16 Fe30 2.437137 1_445
Fe16 Fe26 2.437137 1_555
Fe16 Fe4 2.447496 1_455
Fe16 Fe8 2.462418 1_455
Fe16 Fe2 2.462418 1_545
Fe16 Tm2 3.258430 1_555
Fe16 Tm0 3.258430 1_445
Fe17 Fe29 2.424512 1_545
Fe17 Fe25 2.424512 1_455
Fe17 Fe31 2.429747 1_545
Fe17 Fe27 2.429747 1_455
Fe17 Fe5 2.455727 1_455
Fe17 Fe3 2.471036 1_545
Fe17 Fe9 2.471036 1_455
Fe17 Tm3 3.240508 1_555
Fe17 Tm1 3.240508 1_445
Fe18 Fe33 2.411397 1_555
Fe18 Fe22 2.423669 1_655
Fe18 Fe26 2.433750 1_655
Fe18 Fe31 2.438679 1_655
Fe18 Fe5 2.451909 1_555
Fe18 Fe7 2.470934 1_555
Fe18 Tm0 3.266145 1_555
Fe18 Tm3 3.296973 1_655
Fe19 Fe23 2.411397 1_555
Fe19 Fe32 2.423669 1_455
Fe19 Fe30 2.433750 1_456
Fe19 Fe27 2.438679 1_455
Fe19 Fe4 2.455459 1_456
Fe19 Fe6 2.461246 1_456
Fe19 Tm2 3.266145 1_556
Fe19 Tm1 3.296973 1_455
Fe20 Fe23 2.400808 1_555
Fe20 Fe32 2.426186 1_565
Fe20 Fe24 2.429862 1_556
Fe20 Fe29 2.431571 1_555
Fe20 Fe6 2.448934 1_556
Fe20 Fe9 2.453456 1_565
Fe20 Tm1 3.288431 1_555
Fe20 Tm2 3.348743 1_566
Fe21 Fe33 2.400808 1_555
Fe21 Fe22 2.426186 1_545
Fe21 Fe28 2.429862 1_555
Fe21 Fe25 2.431571 1_555
Fe21 Fe3 2.453456 1_545
Fe21 Fe8 2.459225 1_555
Fe21 Fe7 2.461133 1_545
Fe21 Tm3 3.288431 1_555
Fe21 Tm0 3.348743 1_545
Fe22 Fe31 2.471056 1_555
Fe22 Fe3 2.562298 1_555
Fe23 Fe29 2.457150 1_555
Fe23 Fe30 2.470128 1_456
Fe24 Fe30 2.462821 1_555
Fe24 Fe4 2.565076 1_565
Fe25 Fe33 2.457150 1_555
Fe25 Fe31 2.516216 1_645
Fe25 Fe5 2.552825 1_555
Fe25 Fe7 2.555744 1_545
Fe25 Fe9 2.583752 1_555
Fe25 Fe3 2.605348 1_545
Fe25 Tm1 2.976396 1_545
Fe25 Tm3 3.058980 1_555
Fe26 Fe28 2.462821 1_555
Fe26 Fe33 2.470128 1_455
Fe26 Fe8 2.565368 1_455
Fe26 Fe4 2.595265 1_455
Fe26 Tm2 3.011232 1_555
Fe26 Tm0 3.024197 1_455
Fe27 Fe32 2.471056 1_555
Fe27 Fe29 2.516216 1_645
Fe27 Fe9 2.559745 1_555
Fe27 Fe5 2.582436 1_555
Fe27 Tm3 3.002308 1_655
Fe27 Tm1 3.045217 1_555
Fe29 Fe3 2.583752 1_555
Fe29 Fe9 2.605348 1_565
Fe29 Tm3 2.976396 1_565
Fe29 Tm1 3.058980 1_555
Fe30 Fe6 2.553892 1_555
Fe30 Fe4 2.579480 1_555
Fe30 Tm0 3.011232 1_555
Fe30 Tm2 3.024197 1_655
Fe31 Fe7 2.565639 1_455
Fe31 Fe5 2.591720 1_455
Fe31 Tm1 3.002308 1_455
Fe31 Tm3 3.045217 1_555
Fe32 Fe9 2.562298 1_555
Fe32 Fe4 2.572066 1_556
Fe33 Fe5 2.558513 1_555
C0 Fe32 1.851187 1_555
C0 Fe23 1.851451 1_555
C0 Fe1 1.907758 1_555
C0 Fe6 1.910719 1_556
C0 Tm2 2.476985 1_556
C0 Tm1 2.495892 1_555
C1 Fe22 1.851187 1_555
C1 Fe33 1.851451 1_555
C1 Fe7 1.907758 1_555
C1 Fe0 1.910719 1_555
C1 Tm0 2.476985 1_555
C1 Tm3 2.495892 1_555
C2 Fe24 1.850146 1_545
C2 Fe28 1.850146 1_555
C2 Fe8 1.907936 1_555
C2 Fe2 1.907936 1_545
C2 Tm2 2.487364 1_555
C2 Tm0 2.487364 1_545
