# generated using pymatgen
data_KSrCeNbO6
_symmetry_space_group_name_H-M   'P 1'
_cell_length_a   8.46668509
_cell_length_b   8.49941673
_cell_length_c   8.48283068
_cell_angle_alpha   90.00000000
_cell_angle_beta   90.00000000
_cell_angle_gamma   90.00000000
_symmetry_Int_Tables_number   1
_chemical_formula_structural   KSrCeNbO6
_chemical_formula_sum   'K4 Sr4 Ce4 Nb4 O24'
_cell_volume   610.44048503
_cell_formula_units_Z   4
loop_
 _symmetry_equiv_pos_site_id
 _symmetry_equiv_pos_as_xyz
  1  'x, y, z'
loop_
 _atom_site_type_symbol
 _atom_site_label
 _atom_site_symmetry_multiplicity
 _atom_site_fract_x
 _atom_site_fract_y
 _atom_site_fract_z
 _atom_site_occupancy
  K  K0  1  0.50000000  0.00000000  0.50000000  1
  K  K1  1  0.50000000  0.50000000  0.00000000  1
  K  K2  1  0.00000000  0.50000000  -0.00000000  1
  K  K3  1  0.00000000  0.00000000  0.50000000  1
  Sr  Sr0  1  0.00000000  0.50000000  0.50000000  1
  Sr  Sr1  1  0.50000000  0.00000000  0.00000000  1
  Sr  Sr2  1  0.00000000  0.00000000  -0.00000000  1
  Sr  Sr3  1  0.50000000  0.50000000  0.50000000  1
  Ce  Ce0  1  0.75000000  0.75000000  0.75000000  1
  Ce  Ce1  1  0.25000000  0.25000000  0.75000000  1
  Ce  Ce2  1  0.25000000  0.75000000  0.25000000  1
  Ce  Ce3  1  0.75000000  0.25000000  0.25000000  1
  Nb  Nb0  1  0.25000000  0.25000000  0.25000000  1
  Nb  Nb1  1  0.75000000  0.75000000  0.25000000  1
  Nb  Nb2  1  0.75000000  0.25000000  0.75000000  1
  Nb  Nb3  1  0.25000000  0.75000000  0.75000000  1
  O  O0  1  0.01334692  0.23662382  0.26230103  1
  O  O1  1  0.98665308  0.76337618  0.26230103  1
  O  O2  1  0.98665308  0.23662382  0.73769897  1
  O  O3  1  0.01334692  0.76337618  0.73769897  1
  O  O4  1  0.26364068  0.01298274  0.22348719  1
  O  O5  1  0.26364068  0.98701726  0.77651281  1
  O  O6  1  0.73635932  0.98701726  0.22348719  1
  O  O7  1  0.73635932  0.01298274  0.77651281  1
  O  O8  1  0.23534824  0.25321624  0.01289714  1
  O  O9  1  0.76465176  0.25321624  0.98710286  1
  O  O10  1  0.23534824  0.74678376  0.98710286  1
  O  O11  1  0.76465176  0.74678376  0.01289714  1
  O  O12  1  0.48665308  0.26337618  0.23769897  1
  O  O13  1  0.51334692  0.73662382  0.23769897  1
  O  O14  1  0.51334692  0.26337618  0.76230103  1
  O  O15  1  0.48665308  0.73662382  0.76230103  1
  O  O16  1  0.23635932  0.48701726  0.27651281  1
  O  O17  1  0.23635932  0.51298274  0.72348719  1
  O  O18  1  0.76364068  0.51298274  0.27651281  1
  O  O19  1  0.76364068  0.48701726  0.72348719  1
  O  O20  1  0.26465176  0.24678376  0.48710286  1
  O  O21  1  0.73534824  0.24678376  0.51289714  1
  O  O22  1  0.26465176  0.75321624  0.51289714  1
  O  O23  1  0.73534824  0.75321624  0.48710286  1
loop_
_geom_bond_atom_site_label_1
_geom_bond_atom_site_label_2
_geom_bond_distance
_geom_bond_site_symmetry_2
K0 O20 2.895183 1_555
K0 O22 2.895183 1_545
K0 O21 2.895183 1_555
K0 O23 2.895183 1_545
K0 O4 3.085254 1_555
K0 O5 3.085254 1_545
K0 O6 3.085254 1_545
K0 O7 3.085254 1_555
K0 O13 3.158278 1_545
K0 O12 3.158278 1_555
K0 O15 3.158278 1_545
K0 O14 3.158278 1_555
K1 O15 2.850133 1_554
K1 O12 2.850133 1_555
K1 O14 2.850133 1_554
K1 O13 2.850133 1_555
K1 O9 3.071220 1_554
K1 O8 3.071220 1_555
K1 O10 3.071220 1_554
K1 O11 3.071220 1_555
K1 O19 3.239849 1_554
K1 O17 3.239849 1_554
K1 O18 3.239849 1_555
K1 O16 3.239849 1_555
K2 O8 2.895183 1_555
K2 O10 2.895183 1_554
K2 O11 2.895183 1_455
K2 O9 2.895183 1_454
K2 O16 3.085254 1_555
K2 O18 3.085254 1_455
K2 O19 3.085254 1_454
K2 O17 3.085254 1_554
K2 O1 3.158278 1_455
K2 O0 3.158278 1_555
K2 O2 3.158278 1_454
K2 O3 3.158278 1_554
K3 O3 2.850133 1_545
K3 O0 2.850133 1_555
K3 O2 2.850133 1_455
K3 O1 2.850133 1_445
K3 O23 3.071220 1_445
K3 O22 3.071220 1_545
K3 O21 3.071220 1_455
K3 O20 3.071220 1_555
K3 O7 3.239849 1_455
K3 O6 3.239849 1_445
K3 O5 3.239849 1_545
K3 O4 3.239849 1_555
Ce0 O11 2.233727 1_556
Ce0 O23 2.233727 1_555
Ce0 O15 2.235009 1_555
Ce0 O3 2.235009 1_655
Ce0 O19 2.249453 1_555
Ce0 O7 2.249453 1_565
Ce1 O8 2.233727 1_556
Ce1 O20 2.233727 1_555
Ce1 O2 2.235009 1_455
Ce1 O14 2.235009 1_555
Ce1 O5 2.249453 1_545
Ce1 O17 2.249453 1_555
Ce2 O22 2.233727 1_555
Ce2 O10 2.233727 1_554
Ce2 O1 2.235009 1_455
Ce2 O13 2.235009 1_555
Ce2 O16 2.249453 1_555
Ce2 O4 2.249453 1_565
Ce3 O21 2.233727 1_555
Ce3 O9 2.233727 1_554
Ce3 O12 2.235009 1_555
Ce3 O0 2.235009 1_655
Ce3 O6 2.249453 1_545
Ce3 O18 2.249453 1_555
Nb0 O0 2.009601 1_555
Nb0 O12 2.009601 1_555
Nb0 O8 2.015311 1_555
Nb0 O20 2.015311 1_555
Nb0 O4 2.030311 1_555
Nb0 O16 2.030311 1_555
Nb1 O13 2.009601 1_555
Nb1 O1 2.009601 1_555
Nb1 O11 2.015311 1_555
Nb1 O23 2.015311 1_555
Nb1 O6 2.030311 1_555
Nb1 O18 2.030311 1_555
Nb2 O14 2.009601 1_555
Nb2 O2 2.009601 1_555
Nb2 O9 2.015311 1_555
Nb2 O21 2.015311 1_555
Nb2 O7 2.030311 1_555
Nb2 O19 2.030311 1_555
Nb3 O15 2.009601 1_555
Nb3 O3 2.009601 1_555
Nb3 O10 2.015311 1_555
Nb3 O22 2.015311 1_555
Nb3 O5 2.030311 1_555
Nb3 O17 2.030311 1_555
O0 Sr2 3.001404 1_555
O0 Sr0 3.014889 1_555
O1 Sr2 3.001404 1_665
O1 Sr0 3.014889 1_655
O2 Sr2 3.001404 1_656
O2 Sr0 3.014889 1_655
O3 Sr2 3.001404 1_566
O3 Sr0 3.014889 1_555
O4 Sr1 2.758799 1_555
O4 Sr2 2.930665 1_555
O5 Sr1 2.758799 1_566
O5 Sr2 2.930665 1_566
O6 Sr1 2.758799 1_565
O6 Sr2 2.930665 1_665
O7 Sr1 2.758799 1_556
O7 Sr2 2.930665 1_656
O8 Sr2 2.935034 1_555
O8 Sr1 3.108815 1_555
O9 Sr2 2.935034 1_656
O9 Sr1 3.108815 1_556
O10 Sr2 2.935034 1_566
O10 Sr1 3.108815 1_566
O11 Sr2 2.935034 1_665
O11 Sr1 3.108815 1_565
O12 Sr3 3.001404 1_555
O12 Sr1 3.014889 1_555
O13 Sr3 3.001404 1_555
O13 Sr1 3.014889 1_565
O14 Sr3 3.001404 1_555
O14 Sr1 3.014889 1_556
O15 Sr3 3.001404 1_555
O15 Sr1 3.014889 1_566
O16 Sr0 2.758799 1_555
O16 Sr3 2.930665 1_555
O17 Sr0 2.758799 1_555
O17 Sr3 2.930665 1_555
O18 Sr0 2.758799 1_655
O18 Sr3 2.930665 1_555
O19 Sr0 2.758799 1_655
O19 Sr3 2.930665 1_555
O20 Sr3 2.935034 1_555
O20 Sr0 3.108815 1_555
O21 Sr3 2.935034 1_555
O21 Sr0 3.108815 1_655
O22 Sr3 2.935034 1_555
O22 Sr0 3.108815 1_555
O23 Sr3 2.935034 1_555
O23 Sr0 3.108815 1_655
