# generated using pymatgen
data_Na3CoO3
_symmetry_space_group_name_H-M   'P 1'
_cell_length_a   5.90283411
_cell_length_b   6.54174617
_cell_length_c   9.55776098
_cell_angle_alpha   86.57930344
_cell_angle_beta   90.00000000
_cell_angle_gamma   90.00000000
_symmetry_Int_Tables_number   1
_chemical_formula_structural   Na3CoO3
_chemical_formula_sum   'Na12 Co4 O12'
_cell_volume   368.41387470
_cell_formula_units_Z   4
loop_
 _symmetry_equiv_pos_site_id
 _symmetry_equiv_pos_as_xyz
  1  'x, y, z'
loop_
 _atom_site_type_symbol
 _atom_site_label
 _atom_site_symmetry_multiplicity
 _atom_site_fract_x
 _atom_site_fract_y
 _atom_site_fract_z
 _atom_site_occupancy
  Na  Na0  1  0.63811843  0.92368055  0.65240682  1
  Na  Na1  1  0.86188157  0.92368055  0.15240682  1
  Na  Na2  1  0.28235335  0.64467587  0.81226561  1
  Na  Na3  1  0.79886936  0.62959667  0.91681780  1
  Na  Na4  1  0.21764665  0.64467587  0.31226561  1
  Na  Na5  1  0.70113064  0.62959667  0.41681780  1
  Na  Na6  1  0.29886936  0.37040333  0.58318220  1
  Na  Na7  1  0.78235335  0.35532413  0.68773439  1
  Na  Na8  1  0.20113064  0.37040333  0.08318220  1
  Na  Na9  1  0.71764665  0.35532413  0.18773439  1
  Na  Na10  1  0.13811843  0.07631945  0.84759318  1
  Na  Na11  1  0.36188157  0.07631945  0.34759318  1
  Co  Co0  1  0.09937240  0.82429160  0.56742272  1
  Co  Co1  1  0.40062760  0.82429160  0.06742272  1
  Co  Co2  1  0.59937240  0.17570840  0.93257728  1
  Co  Co3  1  0.90062760  0.17570840  0.43257728  1
  O  O0  1  0.53290294  0.89576729  0.88456036  1
  O  O1  1  0.96709706  0.89576729  0.38456036  1
  O  O2  1  0.38021075  0.73956182  0.52939734  1
  O  O3  1  0.11978925  0.73956182  0.02939734  1
  O  O4  1  0.93355184  0.66296759  0.68454718  1
  O  O5  1  0.56644816  0.66296759  0.18454718  1
  O  O6  1  0.43355184  0.33703241  0.81545282  1
  O  O7  1  0.06644816  0.33703241  0.31545282  1
  O  O8  1  0.88021075  0.26043818  0.97060266  1
  O  O9  1  0.61978925  0.26043818  0.47060266  1
  O  O10  1  0.03290294  0.10423271  0.61543964  1
  O  O11  1  0.46709706  0.10423271  0.11543964  1
loop_
_geom_bond_atom_site_label_1
_geom_bond_atom_site_label_2
_geom_bond_distance
_geom_bond_site_symmetry_2
Na0 O0 2.300890 1_555
Na0 O2 2.306431 1_555
Na0 O4 2.445773 1_555
Na0 O10 2.626902 1_665
Na0 O9 2.725330 1_565
Na1 O1 2.300890 1_555
Na1 O3 2.306431 1_655
Na1 O5 2.445773 1_555
Na1 O11 2.626902 1_565
Na1 O8 2.725330 1_564
Na2 O6 2.200097 1_555
Na2 O0 2.344834 1_555
Na2 O4 2.392936 1_455
Na2 O3 2.401389 1_556
Na2 O2 2.797870 1_555
Na3 O3 2.314338 1_656
Na3 O0 2.351085 1_555
Na3 O4 2.355887 1_555
Na3 O8 2.485678 1_555
Na4 O7 2.200097 1_555
Na4 O1 2.344834 1_455
Na4 O5 2.392936 1_555
Na4 O2 2.401389 1_555
Na4 O3 2.797870 1_555
Na5 O2 2.314338 1_555
Na5 O1 2.351085 1_555
Na5 O5 2.355887 1_555
Na5 O9 2.485678 1_555
Na6 O9 2.314338 1_555
Na6 O10 2.351085 1_555
Na6 O6 2.355887 1_555
Na6 O2 2.485678 1_555
Na7 O4 2.200097 1_555
Na7 O10 2.344834 1_655
Na7 O6 2.392936 1_555
Na7 O9 2.401389 1_555
Na7 O8 2.797870 1_555
Na8 O8 2.314338 1_454
Na8 O11 2.351085 1_555
Na8 O7 2.355887 1_555
Na8 O3 2.485678 1_555
Na9 O5 2.200097 1_555
Na9 O11 2.344834 1_555
Na9 O7 2.392936 1_655
Na9 O8 2.401389 1_554
Na9 O9 2.797870 1_555
Na10 O10 2.300890 1_555
Na10 O8 2.306431 1_455
Na10 O6 2.445773 1_555
Na10 O0 2.626902 1_545
Na10 O3 2.725330 1_546
Na11 O11 2.300890 1_555
Na11 O9 2.306431 1_555
Na11 O7 2.445773 1_555
Na11 O1 2.626902 1_445
Na11 O2 2.725330 1_545
Co0 O4 1.784376 1_455
Co0 O2 1.792055 1_555
Co0 O1 1.945611 1_455
Co0 O10 1.954107 1_565
Co1 O5 1.784376 1_555
Co1 O3 1.792055 1_555
Co1 O0 1.945611 1_554
Co1 O11 1.954107 1_565
Co2 O6 1.784376 1_555
Co2 O8 1.792055 1_555
Co2 O11 1.945611 1_556
Co2 O0 1.954107 1_545
Co3 O7 1.784376 1_655
Co3 O9 1.792055 1_555
Co3 O10 1.945611 1_655
Co3 O1 1.954107 1_545
