# generated using pymatgen
data_Al2ZnS4
_symmetry_space_group_name_H-M   'P 1'
_cell_length_a   12.37908116
_cell_length_b   12.37908116
_cell_length_c   12.37908100
_cell_angle_alpha   17.16942328
_cell_angle_beta   17.16942328
_cell_angle_gamma   17.16942245
_symmetry_Int_Tables_number   1
_chemical_formula_structural   Al2ZnS4
_chemical_formula_sum   'Al2 Zn1 S4'
_cell_volume   144.23165800
_cell_formula_units_Z   1
loop_
 _symmetry_equiv_pos_site_id
 _symmetry_equiv_pos_as_xyz
  1  'x, y, z'
loop_
 _atom_site_type_symbol
 _atom_site_label
 _atom_site_symmetry_multiplicity
 _atom_site_fract_x
 _atom_site_fract_y
 _atom_site_fract_z
 _atom_site_occupancy
  Al  Al0  1  0.76289000  0.76289000  0.76289000  1
  Al  Al1  1  0.23711000  0.23711000  0.23711000  1
  Zn  Zn0  1  0.00000000  0.00000000  0.00000000  1
  S  S0  1  0.87808100  0.87808100  0.87808100  1
  S  S1  1  0.12191900  0.12191900  0.12191900  1
  S  S2  1  0.29776000  0.29776000  0.29776000  1
  S  S3  1  0.70224000  0.70224000  0.70224000  1
loop_
_geom_bond_atom_site_label_1
_geom_bond_atom_site_label_2
_geom_bond_distance
_geom_bond_site_symmetry_2
Al0 S3 2.218663 1_555
Al0 S1 2.331582 1_656
Al0 S1 2.331582 1_566
Al0 S1 2.331582 1_665
Al1 S2 2.218663 1_555
Al1 S0 2.331582 1_454
Al1 S0 2.331582 1_544
Al1 S0 2.331582 1_445
S2 Zn0 2.499229 1_556
S2 Zn0 2.499229 1_655
S2 Zn0 2.499229 1_565
S3 Zn0 2.499229 1_665
S3 Zn0 2.499229 1_566
S3 Zn0 2.499229 1_656
