# generated using pymatgen
data_Pr3(NiGe)4
_symmetry_space_group_name_H-M   'P 1'
_cell_length_a   4.15605969
_cell_length_b   4.17686514
_cell_length_c   12.26137559
_cell_angle_alpha   80.19321891
_cell_angle_beta   80.24254666
_cell_angle_gamma   90.00000000
_symmetry_Int_Tables_number   1
_chemical_formula_structural   Pr3(NiGe)4
_chemical_formula_sum   'Pr3 Ni4 Ge4'
_cell_volume   206.61329273
_cell_formula_units_Z   1
loop_
 _symmetry_equiv_pos_site_id
 _symmetry_equiv_pos_as_xyz
  1  'x, y, z'
loop_
 _atom_site_type_symbol
 _atom_site_label
 _atom_site_symmetry_multiplicity
 _atom_site_fract_x
 _atom_site_fract_y
 _atom_site_fract_z
 _atom_site_occupancy
  Pr  Pr0  1  0.34954873  0.84954873  0.30090255  1
  Pr  Pr1  1  0.65045127  0.15045127  0.69909745  1
  Pr  Pr2  1  -0.00000000  0.00000000  0.00000000  1
  Ni  Ni0  1  0.24854301  0.24854301  0.50291497  1
  Ni  Ni1  1  0.75145699  0.75145699  0.49708503  1
  Ni  Ni2  1  0.09911345  0.59911345  0.80177310  1
  Ni  Ni3  1  0.90088655  0.40088655  0.19822690  1
  Ge  Ge0  1  0.19931322  0.69931322  0.60137355  1
  Ge  Ge1  1  0.80068678  0.30068678  0.39862645  1
  Ge  Ge2  1  0.44624065  0.44624065  0.10751770  1
  Ge  Ge3  1  0.55375935  0.55375935  0.89248230  1
loop_
_geom_bond_atom_site_label_1
_geom_bond_atom_site_label_2
_geom_bond_distance
_geom_bond_site_symmetry_2
Ni0 Pr1 3.125765 1_555
Ni0 Pr1 3.125768 1_455
Ni0 Pr0 3.184747 1_555
Ni0 Pr0 3.184749 1_545
Ni1 Pr0 3.125765 1_555
Ni1 Pr0 3.125768 1_655
Ni1 Pr1 3.184747 1_555
Ni1 Pr1 3.184749 1_565
Ni2 Pr2 3.150871 1_566
Ni2 Pr2 3.150871 1_556
Ni2 Pr1 3.189545 1_565
Ni2 Pr1 3.189545 1_465
Ni2 Pr1 3.189545 1_555
Ni2 Pr1 3.189545 1_455
Ni3 Pr2 3.150871 1_665
Ni3 Pr2 3.150871 1_655
Ni3 Pr0 3.189545 1_545
Ni3 Pr0 3.189545 1_645
Ni3 Pr0 3.189545 1_555
Ni3 Pr0 3.189545 1_655
Ge0 Ni2 2.385189 1_555
Ge0 Ni0 2.394749 1_555
Ge0 Ni0 2.394753 1_565
Ge0 Ni1 2.420522 1_555
Ge0 Ni1 2.420525 1_455
Ge0 Pr1 3.167431 1_555
Ge0 Pr1 3.167431 1_565
Ge0 Pr1 3.167431 1_455
Ge0 Pr1 3.167431 1_465
Ge1 Ni3 2.385189 1_555
Ge1 Ni1 2.394749 1_555
Ge1 Ni1 2.394753 1_545
Ge1 Ni0 2.420522 1_555
Ge1 Ni0 2.420525 1_655
Ge1 Pr0 3.167431 1_545
Ge1 Pr0 3.167431 1_555
Ge1 Pr0 3.167431 1_645
Ge1 Pr0 3.167431 1_655
Ge2 Ni3 2.341754 1_455
Ge2 Ni3 2.341758 1_555
Ge2 Ge3 2.559387 1_554
Ge2 Pr0 3.107951 1_545
Ge2 Pr0 3.107954 1_555
Ge2 Pr2 3.212064 1_555
Ge2 Pr2 3.212067 1_655
Ge2 Pr2 3.212067 1_565
Ge2 Pr2 3.212070 1_665
Ge3 Ni2 2.341754 1_655
Ge3 Ni2 2.341758 1_555
Ge3 Pr1 3.107951 1_565
Ge3 Pr1 3.107954 1_555
Ge3 Pr2 3.212064 1_666
Ge3 Pr2 3.212067 1_566
Ge3 Pr2 3.212067 1_656
Ge3 Pr2 3.212070 1_556
