# generated using pymatgen
data_Cs2S
_symmetry_space_group_name_H-M   'P 1'
_cell_length_a   5.84705179
_cell_length_b   5.84731100
_cell_length_c   8.22349600
_cell_angle_alpha   89.99986174
_cell_angle_beta   89.99978497
_cell_angle_gamma   59.99860098
_symmetry_Int_Tables_number   1
_chemical_formula_structural   Cs2S
_chemical_formula_sum   'Cs4 S2'
_cell_volume   243.48607468
_cell_formula_units_Z   2
loop_
 _symmetry_equiv_pos_site_id
 _symmetry_equiv_pos_as_xyz
  1  'x, y, z'
loop_
 _atom_site_type_symbol
 _atom_site_label
 _atom_site_symmetry_multiplicity
 _atom_site_fract_x
 _atom_site_fract_y
 _atom_site_fract_z
 _atom_site_occupancy
  Cs  Cs0  1  0.00000200  0.99999800  0.50000000  1
  Cs  Cs1  1  0.00000000  0.00000100  0.00000100  1
  Cs  Cs2  1  0.66668200  0.66665900  0.74998900  1
  Cs  Cs3  1  0.33331800  0.33334200  0.25001200  1
  S  S0  1  0.33336100  0.33332000  0.74998700  1
  S  S1  1  0.66663800  0.66668000  0.25001100  1
loop_
_geom_bond_atom_site_label_1
_geom_bond_atom_site_label_2
_geom_bond_distance
_geom_bond_site_symmetry_2
Cs0 S1 3.952321 1_555
Cs0 S0 3.952334 1_465
Cs0 S0 3.952626 1_555
Cs0 S0 3.952643 1_565
Cs0 S1 3.952652 1_465
Cs0 S1 3.952656 1_455
Cs1 S1 3.952430 1_545
Cs1 S0 3.952451 1_454
Cs1 S1 3.952731 1_455
Cs1 S1 3.952738 1_445
Cs1 S0 3.952742 1_554
Cs1 S0 3.952756 1_544
Cs2 S0 3.375812 1_655
Cs2 S0 3.375862 1_555
Cs2 S0 3.375870 1_565
Cs2 S1 4.111567 1_555
Cs2 S1 4.111929 1_556
Cs3 S1 3.375817 1_455
Cs3 S1 3.375852 1_555
Cs3 S1 3.375875 1_545
Cs3 S0 4.111542 1_555
Cs3 S0 4.111954 1_554
