# generated using pymatgen
data_ErSnPd
_symmetry_space_group_name_H-M   'P 1'
_cell_length_a   7.07310999
_cell_length_b   4.55945885
_cell_length_c   7.82508401
_cell_angle_alpha   90.00000000
_cell_angle_beta   90.00000000
_cell_angle_gamma   90.00000000
_symmetry_Int_Tables_number   1
_chemical_formula_structural   ErSnPd
_chemical_formula_sum   'Er4 Sn4 Pd4'
_cell_volume   252.35546887
_cell_formula_units_Z   4
loop_
 _symmetry_equiv_pos_site_id
 _symmetry_equiv_pos_as_xyz
  1  'x, y, z'
loop_
 _atom_site_type_symbol
 _atom_site_label
 _atom_site_symmetry_multiplicity
 _atom_site_fract_x
 _atom_site_fract_y
 _atom_site_fract_z
 _atom_site_occupancy
  Er  Er0  1  0.50879913  0.25000000  0.79222330  1
  Er  Er1  1  0.00879308  0.25000000  0.70777677  1
  Er  Er2  1  0.49120692  0.75000000  0.20777677  1
  Er  Er3  1  0.99120087  0.75000000  0.29222330  1
  Sn  Sn0  1  0.69627274  0.25000000  0.41277144  1
  Sn  Sn1  1  0.19626916  0.25000000  0.08722806  1
  Sn  Sn2  1  0.30373084  0.75000000  0.58722806  1
  Sn  Sn3  1  0.80372726  0.75000000  0.91277144  1
  Pd  Pd0  1  0.79257888  0.25000000  0.08353661  1
  Pd  Pd1  1  0.29256782  0.25000000  0.41646382  1
  Pd  Pd2  1  0.20743218  0.75000000  0.91646382  1
  Pd  Pd3  1  0.70742112  0.75000000  0.58353661  1
loop_
_geom_bond_atom_site_label_1
_geom_bond_atom_site_label_2
_geom_bond_distance
_geom_bond_site_symmetry_2
Er0 Pd0 3.037306 1_556
Er0 Pd3 3.136479 1_555
Er0 Pd3 3.136479 1_545
Er0 Sn2 3.142321 1_555
Er0 Sn2 3.142321 1_545
Er0 Sn1 3.196162 1_556
Er0 Sn3 3.230886 1_545
Er0 Sn3 3.230886 1_555
Er0 Sn0 3.251882 1_555
Er0 Pd2 3.268952 1_545
Er0 Pd2 3.268952 1_555
Er0 Pd1 3.314333 1_555
Er1 Pd1 3.037280 1_555
Er1 Pd2 3.136535 1_545
Er1 Pd2 3.136535 1_555
Er1 Sn3 3.142311 1_445
Er1 Sn3 3.142311 1_455
Er1 Sn0 3.196118 1_455
Er1 Sn2 3.230931 1_545
Er1 Sn2 3.230931 1_555
Er1 Sn1 3.251885 1_556
Er1 Pd3 3.268975 1_445
Er1 Pd3 3.268975 1_455
Er1 Pd0 3.314280 1_456
Er2 Pd2 3.037280 1_554
Er2 Pd1 3.136535 1_565
Er2 Pd1 3.136535 1_555
Er2 Sn0 3.142311 1_565
Er2 Sn0 3.142311 1_555
Er2 Sn3 3.196118 1_554
Er2 Sn1 3.230931 1_555
Er2 Sn1 3.230931 1_565
Er2 Sn2 3.251885 1_555
Er2 Pd0 3.268975 1_565
Er2 Pd0 3.268975 1_555
Er2 Pd3 3.314280 1_555
Er3 Pd3 3.037306 1_555
Er3 Pd0 3.136479 1_555
Er3 Pd0 3.136479 1_565
Er3 Sn1 3.142321 1_665
Er3 Sn1 3.142321 1_655
Er3 Sn2 3.196162 1_655
Er3 Sn0 3.230886 1_565
Er3 Sn0 3.230886 1_555
Er3 Sn3 3.251882 1_554
Er3 Pd1 3.268952 1_655
Er3 Pd1 3.268952 1_665
Er3 Pd2 3.314333 1_654
Pd0 Sn3 2.643663 1_544
Pd0 Sn3 2.643663 1_554
Pd0 Sn0 2.664823 1_555
Pd0 Sn1 2.855492 1_655
Pd1 Sn2 2.643662 1_555
Pd1 Sn2 2.643662 1_545
Pd1 Sn1 2.664817 1_555
Pd1 Sn0 2.855595 1_555
Pd2 Sn1 2.643662 1_566
Pd2 Sn1 2.643662 1_556
Pd2 Sn2 2.664817 1_555
Pd2 Sn3 2.855595 1_455
Pd3 Sn0 2.643663 1_565
Pd3 Sn0 2.643663 1_555
Pd3 Sn3 2.664823 1_555
Pd3 Sn2 2.855492 1_555
