# generated using pymatgen
data_KAuF3
_symmetry_space_group_name_H-M   'P 1'
_cell_length_a   4.48440000
_cell_length_b   4.48440000
_cell_length_c   4.48440000
_cell_angle_alpha   90.00000000
_cell_angle_beta   90.00000000
_cell_angle_gamma   90.00000000
_symmetry_Int_Tables_number   1
_chemical_formula_structural   KAuF3
_chemical_formula_sum   'K1 Au1 F3'
_cell_volume   90.18058156
_cell_formula_units_Z   1
loop_
 _symmetry_equiv_pos_site_id
 _symmetry_equiv_pos_as_xyz
  1  'x, y, z'
loop_
 _atom_site_type_symbol
 _atom_site_label
 _atom_site_symmetry_multiplicity
 _atom_site_fract_x
 _atom_site_fract_y
 _atom_site_fract_z
 _atom_site_occupancy
  K  K0  1  0.50000000  0.50000000  0.50000000  1
  Au  Au0  1  0.00000000  0.00000000  0.00000000  1
  F  F0  1  0.50000000  0.00000000  0.00000000  1
  F  F1  1  0.00000000  0.00000000  0.50000000  1
  F  F2  1  0.00000000  0.50000000  0.00000000  1
loop_
_geom_bond_atom_site_label_1
_geom_bond_atom_site_label_2
_geom_bond_distance
_geom_bond_site_symmetry_2
Au0 F2 2.242200 1_555
Au0 F0 2.242200 1_555
Au0 F1 2.242200 1_554
Au0 F0 2.242200 1_455
Au0 F2 2.242200 1_545
Au0 F1 2.242200 1_555
F0 K0 3.170950 1_545
F0 K0 3.170950 1_544
F0 K0 3.170950 1_554
F0 K0 3.170950 1_555
F1 K0 3.170950 1_545
F1 K0 3.170950 1_455
F1 K0 3.170950 1_555
F1 K0 3.170950 1_445
F2 K0 3.170950 1_554
F2 K0 3.170950 1_455
F2 K0 3.170950 1_555
F2 K0 3.170950 1_454
