# generated using pymatgen
data_DyB4(IrRh)2
_symmetry_space_group_name_H-M   'P 1'
_cell_length_a   5.38017200
_cell_length_b   5.38017200
_cell_length_c   7.47309900
_cell_angle_alpha   90.00000000
_cell_angle_beta   90.00000000
_cell_angle_gamma   90.00000000
_symmetry_Int_Tables_number   1
_chemical_formula_structural   DyB4(IrRh)2
_chemical_formula_sum   'Dy2 B8 Ir4 Rh4'
_cell_volume   216.31819753
_cell_formula_units_Z   2
loop_
 _symmetry_equiv_pos_site_id
 _symmetry_equiv_pos_as_xyz
  1  'x, y, z'
loop_
 _atom_site_type_symbol
 _atom_site_label
 _atom_site_symmetry_multiplicity
 _atom_site_fract_x
 _atom_site_fract_y
 _atom_site_fract_z
 _atom_site_occupancy
  Dy  Dy0  1  0.50000000  0.00000000  0.24784300  1
  Dy  Dy1  1  0.00000000  0.50000000  0.74784300  1
  B  B0  1  0.32873900  0.50000000  0.40386500  1
  B  B1  1  0.67126100  0.50000000  0.40386500  1
  B  B2  1  0.50000000  0.32873900  0.90386500  1
  B  B3  1  0.50000000  0.67126100  0.90386500  1
  B  B4  1  0.17026100  0.00000000  0.59805400  1
  B  B5  1  0.82973900  0.00000000  0.59805400  1
  B  B6  1  0.00000000  0.17026100  0.09805400  1
  B  B7  1  0.00000000  0.82973900  0.09805400  1
  Ir  Ir0  1  0.75201400  0.50000000  0.10526200  1
  Ir  Ir1  1  0.24798600  0.50000000  0.10526200  1
  Ir  Ir2  1  0.50000000  0.75201400  0.60526200  1
  Ir  Ir3  1  0.50000000  0.24798600  0.60526200  1
  Rh  Rh0  1  0.74943600  0.00000000  0.89389600  1
  Rh  Rh1  1  0.25056400  0.00000000  0.89389600  1
  Rh  Rh2  1  0.00000000  0.74943600  0.39389600  1
  Rh  Rh3  1  0.00000000  0.25056400  0.39389600  1
loop_
_geom_bond_atom_site_label_1
_geom_bond_atom_site_label_2
_geom_bond_distance
_geom_bond_site_symmetry_2
Dy0 Rh0 2.966048 1_554
Dy0 Rh1 2.966048 1_554
Dy0 Ir2 2.985716 1_545
Dy0 Ir3 2.985716 1_555
Dy0 Ir1 3.195357 1_545
Dy0 Ir0 3.195357 1_555
Dy0 Ir1 3.195357 1_555
Dy0 Ir0 3.195357 1_545
Dy0 Rh2 3.200809 1_545
Dy0 Rh2 3.200809 1_645
Dy0 Rh3 3.200809 1_655
Dy0 Rh3 3.200809 1_555
Dy1 Rh3 2.966048 1_555
Dy1 Rh2 2.966048 1_555
Dy1 Ir0 2.985716 1_456
Dy1 Ir1 2.985716 1_556
Dy1 Ir2 3.195357 1_455
Dy1 Ir3 3.195357 1_555
Dy1 Ir2 3.195357 1_555
Dy1 Ir3 3.195357 1_455
Dy1 Rh1 3.200809 1_555
Dy1 Rh0 3.200809 1_465
Dy1 Rh0 3.200809 1_455
Dy1 Rh1 3.200809 1_565
B0 B1 1.842827 1_555
B0 Rh2 2.221427 1_555
B0 Rh3 2.221427 1_555
B0 Ir2 2.225447 1_555
B0 Ir3 2.225447 1_555
B0 Ir1 2.273391 1_555
B0 Dy0 3.073279 1_555
B0 Dy0 3.073279 1_565
B0 Dy1 3.120271 1_555
B1 Rh3 2.221427 1_655
B1 Rh2 2.221427 1_655
B1 Ir2 2.225447 1_555
B1 Ir3 2.225447 1_555
B1 Ir0 2.273391 1_555
B1 Dy0 3.073279 1_565
B1 Dy0 3.073279 1_555
B1 Dy1 3.120271 1_655
B2 B3 1.842827 1_555
B2 Rh1 2.221427 1_555
B2 Rh0 2.221427 1_555
B2 Ir1 2.225447 1_556
B2 Ir0 2.225447 1_556
B2 Ir3 2.273391 1_555
B2 Dy1 3.073279 1_555
B2 Dy1 3.073279 1_655
B2 Dy0 3.120271 1_556
B3 Rh0 2.221427 1_565
B3 Rh1 2.221427 1_565
B3 Ir1 2.225447 1_556
B3 Ir0 2.225447 1_556
B3 Ir2 2.273391 1_555
B3 Dy1 3.073279 1_555
B3 Dy1 3.073279 1_655
B3 Dy0 3.120271 1_566
B4 B5 1.832067 1_455
B4 Ir2 2.220422 1_545
B4 Ir3 2.220422 1_555
B4 Rh3 2.232525 1_555
B4 Rh2 2.232525 1_545
B4 Rh1 2.252676 1_555
B4 Dy1 3.054294 1_545
B4 Dy1 3.054294 1_555
B4 Dy0 3.161771 1_555
B5 Ir2 2.220422 1_545
B5 Ir3 2.220422 1_555
B5 Rh3 2.232525 1_655
B5 Rh2 2.232525 1_645
B5 Rh0 2.252676 1_555
B5 Dy1 3.054294 1_645
B5 Dy1 3.054294 1_655
B5 Dy0 3.161771 1_555
B6 B7 1.832067 1_545
B6 Ir1 2.220422 1_555
B6 Ir0 2.220422 1_455
B6 Rh1 2.232525 1_554
B6 Rh0 2.232525 1_454
B6 Rh3 2.252676 1_555
B6 Dy0 3.054294 1_555
B6 Dy0 3.054294 1_455
B6 Dy1 3.161771 1_554
B7 Ir1 2.220422 1_555
B7 Ir0 2.220422 1_455
B7 Rh0 2.232525 1_464
B7 Rh1 2.232525 1_564
B7 Rh2 2.252676 1_555
B7 Dy0 3.054294 1_465
B7 Dy0 3.054294 1_565
B7 Dy1 3.161771 1_554
