# generated using pymatgen
data_Li3Co5OF11
_symmetry_space_group_name_H-M   'P 1'
_cell_length_a   5.23416600
_cell_length_b   5.57849376
_cell_length_c   9.07155572
_cell_angle_alpha   105.96628145
_cell_angle_beta   89.96304519
_cell_angle_gamma   117.42631457
_symmetry_Int_Tables_number   1
_chemical_formula_structural   Li3Co5OF11
_chemical_formula_sum   'Li3 Co5 O1 F11'
_cell_volume   223.55773026
_cell_formula_units_Z   1
loop_
 _symmetry_equiv_pos_site_id
 _symmetry_equiv_pos_as_xyz
  1  'x, y, z'
loop_
 _atom_site_type_symbol
 _atom_site_label
 _atom_site_symmetry_multiplicity
 _atom_site_fract_x
 _atom_site_fract_y
 _atom_site_fract_z
 _atom_site_occupancy
  Li  Li0  1  0.79017900  0.63597000  0.94165400  1
  Li  Li1  1  0.27805400  0.13296500  0.42299600  1
  Li  Li2  1  0.21190700  0.35006800  0.07288100  1
  Co  Co0  1  0.47882500  0.12648700  0.82624300  1
  Co  Co1  1  0.96858400  0.63380400  0.33500000  1
  Co  Co2  1  0.02258300  0.39988300  0.66881500  1
  Co  Co3  1  0.51831300  0.86536800  0.17203800  1
  Co  Co4  1  0.74385400  0.86080500  0.57345800  1
  O  O0  1  0.97159400  0.71852700  0.52431500  1
  F  F0  1  0.02847300  0.98154300  0.77901700  1
  F  F1  1  0.51994500  0.47032500  0.27140800  1
  F  F2  1  0.57050000  0.11063100  0.62895000  1
  F  F3  1  0.92455600  0.37348800  0.87654500  1
  F  F4  1  0.46524300  0.21196600  0.02673300  1
  F  F5  1  0.52326700  0.77916900  0.96747700  1
  F  F6  1  0.04169700  0.28106200  0.47067100  1
  F  F7  1  0.06928300  0.63754900  0.13352100  1
  F  F8  1  0.44599700  0.88231500  0.37477300  1
  F  F9  1  0.46914700  0.51886600  0.72164900  1
  F  F10  1  0.95799900  0.02921100  0.21185500  1
loop_
_geom_bond_atom_site_label_1
_geom_bond_atom_site_label_2
_geom_bond_distance
_geom_bond_site_symmetry_2
Co0 F4 1.759048 1_556
Co0 F2 1.841791 1_555
Co0 F3 2.060076 1_555
Co0 F0 2.109198 1_545
Co1 O0 1.649139 1_555
Co1 F7 1.904850 1_655
Co1 F1 2.101968 1_555
Co1 F8 2.197966 1_655
Co2 F6 1.756610 1_555
Co2 F3 1.979353 1_455
Co2 F2 2.120475 1_455
Co2 F9 2.128590 1_555
Co3 F5 1.787733 1_554
Co3 F8 1.863060 1_555
Co3 F10 2.035672 1_565
Co3 F7 2.065494 1_555
Co4 O0 1.710513 1_555
Co4 F2 1.948682 1_565
Co4 F0 2.130380 1_655
Co4 F8 2.447142 1_555
Co4 F9 2.528799 1_555
Co4 F6 2.574854 1_665
F1 Li2 2.153069 1_555
F1 Li1 2.502452 1_555
F2 Li1 2.481263 1_555
F3 Li0 1.860113 1_555
F3 Li2 2.400818 1_656
F4 Li2 1.813830 1_555
F5 Li0 1.889317 1_555
F6 Li1 1.773235 1_555
F7 Li2 2.012162 1_555
F7 Li0 2.268630 1_454
F8 Li1 1.927294 1_565
F9 Li0 2.347188 1_555
F10 Li1 2.304576 1_655
F10 Li2 2.367966 1_655
