# generated using pymatgen
data_KYMg14
_symmetry_space_group_name_H-M   'P 1'
_cell_length_a   6.63737730
_cell_length_b   6.63760608
_cell_length_c   10.59552534
_cell_angle_alpha   90.00000000
_cell_angle_beta   90.00000000
_cell_angle_gamma   120.00114597
_symmetry_Int_Tables_number   1
_chemical_formula_structural   KYMg14
_chemical_formula_sum   'K1 Y1 Mg14'
_cell_volume   404.25564380
_cell_formula_units_Z   1
loop_
 _symmetry_equiv_pos_site_id
 _symmetry_equiv_pos_as_xyz
  1  'x, y, z'
loop_
 _atom_site_type_symbol
 _atom_site_label
 _atom_site_symmetry_multiplicity
 _atom_site_fract_x
 _atom_site_fract_y
 _atom_site_fract_z
 _atom_site_occupancy
  K  K0  1  0.16614306  0.83307103  0.12500000  1
  Y  Y0  1  0.17230928  0.33615414  0.12500000  1
  Mg  Mg0  1  0.16539963  0.33269932  0.62500000  1
  Mg  Mg1  1  0.16658462  0.83329181  0.62500000  1
  Mg  Mg2  1  0.66247748  0.32839190  0.12500000  1
  Mg  Mg3  1  0.66751830  0.33402780  0.62500000  1
  Mg  Mg4  1  0.66247748  0.83408458  0.12500000  1
  Mg  Mg5  1  0.66751830  0.83348950  0.62500000  1
  Mg  Mg6  1  0.33945504  0.17617330  0.38687558  1
  Mg  Mg7  1  0.33945504  0.17617330  0.86312442  1
  Mg  Mg8  1  0.33945504  0.66328274  0.38687558  1
  Mg  Mg9  1  0.33945504  0.66328274  0.86312442  1
  Mg  Mg10  1  0.83255460  0.16627780  0.37648391  1
  Mg  Mg11  1  0.83255460  0.16627780  0.87351609  1
  Mg  Mg12  1  0.82332126  0.66166113  0.38271465  1
  Mg  Mg13  1  0.82332126  0.66166113  0.86728535  1
loop_
_geom_bond_atom_site_label_1
_geom_bond_atom_site_label_2
_geom_bond_distance
_geom_bond_site_symmetry_2
K0 Mg2 3.291000 1_565
K0 Mg4 3.291000 1_555
K0 Y0 3.318992 1_565
K0 Y0 3.318992 1_555
K0 Mg2 3.346387 1_455
K0 Mg4 3.346387 1_455
K0 Mg12 3.367405 1_455
K0 Mg13 3.367405 1_454
K0 Mg8 3.404240 1_555
K0 Mg9 3.404240 1_554
K0 Mg6 3.404246 1_565
K0 Mg7 3.404246 1_564
Mg0 Mg7 3.159146 1_555
Mg0 Mg6 3.159146 1_555
Mg0 Mg9 3.159153 1_555
Mg0 Mg8 3.159153 1_555
Mg0 Mg10 3.254831 1_455
Mg0 Mg11 3.254831 1_455
Mg0 Mg5 3.309044 1_445
Mg0 Mg3 3.309044 1_455
Mg0 Mg1 3.318810 1_555
Mg0 Mg1 3.318810 1_545
Mg0 Mg5 3.328350 1_555
Mg0 Mg3 3.328351 1_555
Mg1 Mg8 3.201653 1_555
Mg1 Mg9 3.201653 1_555
Mg1 Mg7 3.201660 1_565
Mg1 Mg6 3.201660 1_565
Mg1 Mg12 3.237799 1_455
Mg1 Mg13 3.237799 1_455
Mg1 Mg3 3.313147 1_455
Mg1 Mg5 3.313148 1_455
Mg1 Mg3 3.324230 1_565
Mg1 Mg5 3.324230 1_555
Mg2 Y0 3.279497 1_555
Mg2 Mg4 3.281017 1_545
Mg2 Mg6 3.339215 1_555
Mg2 Mg7 3.339215 1_554
Mg2 Mg4 3.356589 1_555
Mg2 Y0 3.358480 1_655
Mg3 Mg7 3.150152 1_555
Mg3 Mg6 3.150152 1_555
Mg3 Mg5 3.315230 1_555
Mg3 Mg5 3.322376 1_545
Mg4 Y0 3.279497 1_555
Mg4 Mg8 3.339215 1_555
Mg4 Mg9 3.339215 1_554
Mg4 Y0 3.358480 1_665
Mg5 Mg8 3.150152 1_555
Mg5 Mg9 3.150152 1_555
Mg6 Mg8 3.233241 1_555
Mg6 Y0 3.351943 1_555
Mg6 Mg8 3.404366 1_545
Mg7 Mg9 3.233241 1_555
Mg7 Y0 3.351943 1_556
Mg7 Mg9 3.404366 1_545
Mg8 Y0 3.351949 1_555
Mg9 Y0 3.351949 1_556
Mg10 Mg3 3.254684 1_555
Mg10 Mg5 3.254690 1_545
Mg10 Mg2 3.278276 1_555
Mg10 Mg4 3.278283 1_545
Mg10 Y0 3.303644 1_655
Mg10 Mg8 3.308052 1_545
Mg10 Mg6 3.308052 1_555
Mg10 Mg12 3.319884 1_545
Mg10 Mg12 3.319884 1_555
Mg10 Mg8 3.333951 1_655
Mg10 Mg6 3.333951 1_655
Mg11 Mg3 3.254684 1_555
Mg11 Mg5 3.254690 1_545
Mg11 Mg2 3.278276 1_556
Mg11 Mg4 3.278283 1_546
Mg11 Y0 3.303644 1_656
Mg11 Mg9 3.308052 1_545
Mg11 Mg7 3.308052 1_555
Mg11 Mg13 3.319884 1_545
Mg11 Mg13 3.319884 1_555
Mg11 Mg9 3.333951 1_655
Mg11 Mg7 3.333951 1_655
Mg12 Mg5 3.184323 1_555
Mg12 Mg3 3.184330 1_555
Mg12 Mg6 3.217300 1_555
Mg12 Mg8 3.217300 1_555
Mg12 Mg4 3.335824 1_555
Mg12 Mg2 3.335831 1_555
Mg12 Mg6 3.420689 1_665
Mg12 Mg8 3.420689 1_655
Mg13 Mg5 3.184323 1_555
Mg13 Mg3 3.184330 1_555
Mg13 Mg7 3.217300 1_555
Mg13 Mg9 3.217300 1_555
Mg13 Mg4 3.335824 1_556
Mg13 Mg2 3.335831 1_556
Mg13 Mg7 3.420689 1_665
Mg13 Mg9 3.420689 1_655
