# generated using pymatgen
data_Nd3SOF5
_symmetry_space_group_name_H-M   'P 1'
_cell_length_a   3.84492700
_cell_length_b   9.73315100
_cell_length_c   9.77860444
_cell_angle_alpha   60.41328879
_cell_angle_beta   90.00000000
_cell_angle_gamma   90.00000000
_symmetry_Int_Tables_number   1
_chemical_formula_structural   Nd3SOF5
_chemical_formula_sum   'Nd6 S2 O2 F10'
_cell_volume   318.23115689
_cell_formula_units_Z   2
loop_
 _symmetry_equiv_pos_site_id
 _symmetry_equiv_pos_as_xyz
  1  'x, y, z'
loop_
 _atom_site_type_symbol
 _atom_site_label
 _atom_site_symmetry_multiplicity
 _atom_site_fract_x
 _atom_site_fract_y
 _atom_site_fract_z
 _atom_site_occupancy
  Nd  Nd0  1  0.00000000  0.41664300  0.86726500  1
  Nd  Nd1  1  0.00000000  0.86808100  0.72752200  1
  Nd  Nd2  1  0.00000000  0.70151600  0.41493300  1
  Nd  Nd3  1  0.50000000  0.59477400  0.10490300  1
  Nd  Nd4  1  0.50000000  0.12304000  0.28552800  1
  Nd  Nd5  1  0.50000000  0.29564000  0.59658300  1
  S  S0  1  0.00000000  0.32859600  0.33270800  1
  S  S1  1  0.50000000  0.67345100  0.66158500  1
  O  O0  1  0.00000000  0.43603500  0.61267000  1
  O  O1  1  0.00000000  0.61618200  0.94845700  1
  F  F0  1  0.00000000  0.15997800  0.12027000  1
  F  F1  1  0.00000000  0.11307200  0.72603400  1
  F  F2  1  0.00000000  0.72383100  0.16283100  1
  F  F3  1  0.50000000  0.85399400  0.88120200  1
  F  F4  1  0.50000000  0.87827000  0.28514000  1
  F  F5  1  0.50000000  0.27286900  0.85056300  1
  F  F6  1  0.00000000  0.95250600  0.43302400  1
  F  F7  1  0.50000000  0.56946600  0.37442800  1
  F  F8  1  0.50000000  0.37729700  0.04729000  1
  F  F9  1  0.50000000  0.04476000  0.56706500  1
loop_
_geom_bond_atom_site_label_1
_geom_bond_atom_site_label_2
_geom_bond_distance
_geom_bond_site_symmetry_2
Nd0 O0 2.402007 1_555
Nd0 O1 2.434115 1_555
Nd0 S1 3.004078 1_455
Nd0 S1 3.004078 1_555
Nd1 O1 2.334113 1_555
Nd1 S1 2.984351 1_555
Nd1 S1 2.984351 1_455
Nd2 O0 2.341341 1_555
Nd2 S1 2.989517 1_555
Nd2 S1 2.989517 1_455
Nd3 O1 2.401014 1_554
Nd3 O1 2.401014 1_654
Nd3 S0 3.109852 1_655
Nd3 S0 3.109852 1_555
Nd4 S0 2.970358 1_555
Nd4 S0 2.970358 1_655
Nd5 O0 2.408353 1_655
Nd5 O0 2.408353 1_555
Nd5 S0 3.104760 1_555
Nd5 S0 3.104760 1_655
F0 Nd4 2.421331 1_455
F0 Nd4 2.421331 1_555
F0 Nd0 2.501698 1_554
F1 Nd1 2.377384 1_545
F1 Nd5 2.496924 1_455
F1 Nd5 2.496924 1_555
F2 Nd2 2.365520 1_555
F2 Nd3 2.509430 1_555
F2 Nd3 2.509430 1_455
F3 Nd3 2.387628 1_556
F3 Nd1 2.401985 1_655
F3 Nd1 2.401985 1_555
F4 Nd4 2.384259 1_565
F4 Nd2 2.471893 1_555
F4 Nd2 2.471893 1_655
F5 Nd5 2.381951 1_555
F5 Nd0 2.430324 1_655
F5 Nd0 2.430324 1_555
F6 Nd4 2.483373 1_465
F6 Nd4 2.483373 1_565
F6 Nd2 2.534941 1_555
F6 Nd1 2.575190 1_555
F7 Nd2 2.450988 1_555
F7 Nd2 2.450988 1_655
F7 Nd5 2.470856 1_555
F7 Nd3 2.523067 1_555
F8 Nd4 2.420419 1_555
F8 Nd3 2.444494 1_555
F8 Nd0 2.505152 1_654
F8 Nd0 2.505152 1_554
F9 Nd4 2.467473 1_555
F9 Nd1 2.539788 1_645
F9 Nd1 2.539788 1_545
F9 Nd5 2.596530 1_555
