# generated using pymatgen
data_Er3Mn3Ga2Ge
_symmetry_space_group_name_H-M   'P 1'
_cell_length_a   6.99134356
_cell_length_b   6.99134356
_cell_length_c   4.11414400
_cell_angle_alpha   90.00000000
_cell_angle_beta   90.00000000
_cell_angle_gamma   119.99999582
_symmetry_Int_Tables_number   1
_chemical_formula_structural   Er3Mn3Ga2Ge
_chemical_formula_sum   'Er3 Mn3 Ga2 Ge1'
_cell_volume   174.15318707
_cell_formula_units_Z   1
loop_
 _symmetry_equiv_pos_site_id
 _symmetry_equiv_pos_as_xyz
  1  'x, y, z'
loop_
 _atom_site_type_symbol
 _atom_site_label
 _atom_site_symmetry_multiplicity
 _atom_site_fract_x
 _atom_site_fract_y
 _atom_site_fract_z
 _atom_site_occupancy
  Er  Er0  1  0.24669900  0.91129400  0.50000000  1
  Er  Er1  1  0.66459500  0.75330100  0.50000000  1
  Er  Er2  1  0.08870600  0.33540500  0.50000000  1
  Mn  Mn0  1  0.89815600  0.56064500  0.00000000  1
  Mn  Mn1  1  0.66248900  0.10184400  0.00000000  1
  Mn  Mn2  1  0.43935500  0.33751100  0.00000000  1
  Ga  Ga0  1  0.00000000  0.00000000  0.00000000  1
  Ga  Ga1  1  0.66666700  0.33333300  0.50000000  1
  Ge  Ge0  1  0.33333300  0.66666700  0.00000000  1
loop_
_geom_bond_atom_site_label_1
_geom_bond_atom_site_label_2
_geom_bond_distance
_geom_bond_site_symmetry_2
Er0 Ge0 2.925632 1_556
Er0 Ge0 2.925632 1_555
Er0 Ga0 2.942890 1_565
Er0 Ga0 2.942890 1_566
Er0 Ga1 2.943407 1_565
Er0 Mn0 3.194614 1_456
Er0 Mn0 3.194614 1_455
Er0 Mn1 3.253296 1_565
Er0 Mn1 3.253296 1_566
Er0 Mn2 3.303260 1_566
Er0 Mn2 3.303260 1_565
Er1 Ge0 2.925637 1_555
Er1 Ge0 2.925637 1_556
Er1 Ga0 2.942890 1_665
Er1 Ga0 2.942890 1_666
Er1 Ga1 2.943410 1_555
Er1 Mn1 3.194614 1_565
Er1 Mn1 3.194614 1_566
Er1 Mn2 3.253296 1_555
Er1 Mn2 3.253296 1_556
Er1 Mn0 3.303260 1_556
Er1 Mn0 3.303260 1_555
Er2 Ge0 2.925636 1_555
Er2 Ge0 2.925636 1_556
Er2 Ga0 2.942890 1_556
Er2 Ga0 2.942890 1_555
Er2 Ga1 2.943403 1_455
Er2 Mn2 3.194614 1_555
Er2 Mn2 3.194614 1_556
Er2 Mn0 3.253296 1_456
Er2 Mn0 3.253296 1_455
Er2 Mn1 3.303260 1_455
Er2 Mn1 3.303260 1_456
Mn0 Mn2 2.778239 1_555
Mn0 Mn1 2.778239 1_555
Mn1 Mn2 2.778239 1_555
Ga0 Mn1 2.784797 1_455
Ga0 Mn0 2.784797 1_445
Ga0 Mn2 2.784797 1_555
Ga1 Mn1 2.608525 1_555
Ga1 Mn1 2.608525 1_556
Ga1 Mn0 2.608528 1_556
Ga1 Mn0 2.608528 1_555
Ga1 Mn2 2.608530 1_555
Ga1 Mn2 2.608530 1_556
Ge0 Mn0 2.747886 1_455
Ge0 Mn1 2.747888 1_565
Ge0 Mn2 2.747893 1_555
