# generated using pymatgen
data_V(CrSi3)2
_symmetry_space_group_name_H-M   'P 1'
_cell_length_a   4.46833396
_cell_length_b   4.46833396
_cell_length_c   6.34426400
_cell_angle_alpha   90.00000000
_cell_angle_beta   90.00000000
_cell_angle_gamma   119.78468784
_symmetry_Int_Tables_number   1
_chemical_formula_structural   V(CrSi3)2
_chemical_formula_sum   'V1 Cr2 Si6'
_cell_volume   109.93634712
_cell_formula_units_Z   1
loop_
 _symmetry_equiv_pos_site_id
 _symmetry_equiv_pos_as_xyz
  1  'x, y, z'
loop_
 _atom_site_type_symbol
 _atom_site_label
 _atom_site_symmetry_multiplicity
 _atom_site_fract_x
 _atom_site_fract_y
 _atom_site_fract_z
 _atom_site_occupancy
  V  V0  1  0.50000000  0.50000000  0.00000000  1
  Cr  Cr0  1  0.50000000  0.00000000  0.66440700  1
  Cr  Cr1  1  0.00000000  0.50000000  0.33559300  1
  Si  Si0  1  0.16478700  0.83521300  0.00000000  1
  Si  Si1  1  0.16361900  0.32920500  0.66587000  1
  Si  Si2  1  0.67079500  0.83638100  0.33413000  1
  Si  Si3  1  0.83521300  0.16478700  0.00000000  1
  Si  Si4  1  0.83638100  0.67079500  0.66587000  1
  Si  Si5  1  0.32920500  0.16361900  0.33413000  1
loop_
_geom_bond_atom_site_label_1
_geom_bond_atom_site_label_2
_geom_bond_distance
_geom_bond_site_symmetry_2
Cr0 Si2 2.462075 1_545
Cr0 Si5 2.462075 1_555
Cr0 Si3 2.494599 1_556
Cr0 Si0 2.494599 1_546
Cr0 Si4 2.572880 1_545
Cr0 Si1 2.572880 1_555
Cr0 Si4 2.573571 1_445
Cr0 Si1 2.573571 1_655
Cr0 Si4 2.601438 1_555
Cr0 Si1 2.601438 1_545
Cr1 Si4 2.462075 1_455
Cr1 Si1 2.462075 1_555
Cr1 Si3 2.494599 1_455
Cr1 Si0 2.494599 1_555
Cr1 Si2 2.572880 1_455
Cr1 Si5 2.572880 1_555
Cr1 Si5 2.573571 1_565
Cr1 Si2 2.573571 1_445
Cr1 Si5 2.601438 1_455
Cr1 Si2 2.601438 1_555
Si0 Si5 2.472979 1_565
Si0 Si4 2.472979 1_454
Si0 Si3 2.547927 1_465
Si0 V0 2.578180 1_455
Si0 V0 2.578180 1_565
Si0 V0 2.591522 1_555
Si0 Si3 2.599998 1_455
Si0 Si3 2.599998 1_565
Si1 Si5 2.463391 1_555
Si1 Si3 2.472979 1_456
Si1 V0 2.489096 1_556
Si1 Si4 2.553353 1_445
Si1 Si4 2.585545 1_455
Si1 Si4 2.609220 1_555
Si2 Si4 2.463391 1_555
Si2 Si3 2.472979 1_565
Si2 V0 2.489096 1_555
Si2 Si5 2.553353 1_665
Si2 Si5 2.585545 1_565
Si2 Si5 2.609220 1_555
Si3 V0 2.578180 1_655
Si3 V0 2.578180 1_545
Si3 V0 2.591522 1_555
Si4 V0 2.489096 1_556
Si5 V0 2.489096 1_555
