# generated using pymatgen
data_NaEuHf4O12
_symmetry_space_group_name_H-M   'P 1'
_cell_length_a   5.68228660
_cell_length_b   5.68228660
_cell_length_c   8.13497958
_cell_angle_alpha   90.00000000
_cell_angle_beta   90.00000000
_cell_angle_gamma   90.40114709
_symmetry_Int_Tables_number   1
_chemical_formula_structural   NaEuHf4O12
_chemical_formula_sum   'Na1 Eu1 Hf4 O12'
_cell_volume   262.65888267
_cell_formula_units_Z   1
loop_
 _symmetry_equiv_pos_site_id
 _symmetry_equiv_pos_as_xyz
  1  'x, y, z'
loop_
 _atom_site_type_symbol
 _atom_site_label
 _atom_site_symmetry_multiplicity
 _atom_site_fract_x
 _atom_site_fract_y
 _atom_site_fract_z
 _atom_site_occupancy
  Na  Na0  1  0.01519928  0.98480072  0.50000000  1
  Eu  Eu0  1  0.48435340  0.51564660  0.00000000  1
  Hf  Hf0  1  0.50586544  0.01050813  0.26089761  1
  Hf  Hf1  1  0.50586544  0.01050813  0.73910239  1
  Hf  Hf2  1  0.98949187  0.49413456  0.73910239  1
  Hf  Hf3  1  0.98949187  0.49413456  0.26089761  1
  O  O0  1  0.29635280  0.30421304  0.21987697  1
  O  O1  1  0.69578696  0.70364720  0.21987697  1
  O  O2  1  0.69578696  0.70364720  0.78012303  1
  O  O3  1  0.29635280  0.30421304  0.78012303  1
  O  O4  1  0.23562908  0.76437092  0.18616961  1
  O  O5  1  0.80716338  0.19283662  0.29809689  1
  O  O6  1  0.80716338  0.19283662  0.70190311  1
  O  O7  1  0.23562908  0.76437092  0.81383039  1
  O  O8  1  0.54380214  0.07889277  0.00000000  1
  O  O9  1  0.42381664  0.97945775  0.50000000  1
  O  O10  1  0.92110723  0.45619786  0.00000000  1
  O  O11  1  0.02054225  0.57618336  0.50000000  1
loop_
_geom_bond_atom_site_label_1
_geom_bond_atom_site_label_2
_geom_bond_distance
_geom_bond_site_symmetry_2
Na0 O11 2.322292 1_555
Na0 O9 2.322292 1_555
Na0 O5 2.347789 1_465
Na0 O6 2.347789 1_465
Eu0 O3 2.401268 1_554
Eu0 O2 2.401268 1_554
Eu0 O0 2.401268 1_555
Eu0 O1 2.401268 1_555
Eu0 O8 2.506987 1_555
Eu0 O10 2.506987 1_555
Eu0 O7 2.513285 1_554
Eu0 O4 2.513285 1_555
Hf0 O9 2.007668 1_545
Hf0 O5 2.017741 1_555
Hf0 O0 2.083692 1_555
Hf0 O1 2.083925 1_545
Hf0 O4 2.157214 1_545
Hf0 O8 2.168147 1_555
Hf1 O9 2.007668 1_545
Hf1 O6 2.017741 1_555
Hf1 O3 2.083692 1_555
Hf1 O2 2.083925 1_545
Hf1 O7 2.157214 1_545
Hf1 O8 2.168147 1_556
Hf2 O11 2.007668 1_655
Hf2 O6 2.017741 1_555
Hf2 O2 2.083692 1_555
Hf2 O3 2.083925 1_655
Hf2 O7 2.157214 1_655
Hf2 O10 2.168147 1_556
Hf3 O11 2.007668 1_655
Hf3 O5 2.017741 1_555
Hf3 O1 2.083692 1_555
Hf3 O0 2.083925 1_655
Hf3 O4 2.157214 1_655
Hf3 O10 2.168147 1_555
