# generated using pymatgen
data_KLiDy2(MoO4)4
_symmetry_space_group_name_H-M   'P 1'
_cell_length_a   6.90765333
_cell_length_b   6.90765333
_cell_length_c   19.64213186
_cell_angle_alpha   88.78767850
_cell_angle_beta   88.78767850
_cell_angle_gamma   135.09856899
_symmetry_Int_Tables_number   1
_chemical_formula_structural   KLiDy2(MoO4)4
_chemical_formula_sum   'K2 Li2 Dy4 Mo8 O32'
_cell_volume   660.56982427
_cell_formula_units_Z   2
loop_
 _symmetry_equiv_pos_site_id
 _symmetry_equiv_pos_as_xyz
  1  'x, y, z'
loop_
 _atom_site_type_symbol
 _atom_site_label
 _atom_site_symmetry_multiplicity
 _atom_site_fract_x
 _atom_site_fract_y
 _atom_site_fract_z
 _atom_site_occupancy
  K  K0  1  0.53100000  0.46900000  0.25000000  1
  K  K1  1  0.46900000  0.53100000  0.75000000  1
  Li  Li0  1  0.81336400  0.18663600  0.25000000  1
  Li  Li1  1  0.18663600  0.81336400  0.75000000  1
  Dy  Dy0  1  0.64799400  0.35413300  0.03223900  1
  Dy  Dy1  1  0.35200600  0.64586700  0.96776100  1
  Dy  Dy2  1  0.64586700  0.35200600  0.46776100  1
  Dy  Dy3  1  0.35413300  0.64799400  0.53223900  1
  Mo  Mo0  1  0.91843700  0.04297800  0.09152700  1
  Mo  Mo1  1  0.08156300  0.95702200  0.90847300  1
  Mo  Mo2  1  0.95702200  0.08156300  0.40847300  1
  Mo  Mo3  1  0.04297800  0.91843700  0.59152700  1
  Mo  Mo4  1  0.23195800  0.74722300  0.14781600  1
  Mo  Mo5  1  0.76804200  0.25277700  0.85218400  1
  Mo  Mo6  1  0.25277700  0.76804200  0.35218400  1
  Mo  Mo7  1  0.74722300  0.23195800  0.64781600  1
  O  O0  1  0.66641400  0.00600300  0.04208800  1
  O  O1  1  0.33358600  0.99399700  0.95791200  1
  O  O2  1  0.99399700  0.33358600  0.45791200  1
  O  O3  1  0.00600300  0.66641400  0.54208800  1
  O  O4  1  0.48979100  0.76808100  0.17310700  1
  O  O5  1  0.51020900  0.23191900  0.82689300  1
  O  O6  1  0.23191900  0.51020900  0.32689300  1
  O  O7  1  0.76808100  0.48979100  0.67310700  1
  O  O8  1  0.72111900  0.76056600  0.46298300  1
  O  O9  1  0.27888100  0.23943400  0.53701700  1
  O  O10  1  0.23943400  0.27888100  0.03701700  1
  O  O11  1  0.76056600  0.72111900  0.96298300  1
  O  O12  1  0.43743800  0.91727900  0.43352800  1
  O  O13  1  0.56256200  0.08272100  0.56647200  1
  O  O14  1  0.08272100  0.56256200  0.06647200  1
  O  O15  1  0.91727900  0.43743800  0.93352800  1
  O  O16  1  0.80022400  0.98298200  0.32955100  1
  O  O17  1  0.19977600  0.01701800  0.67044900  1
  O  O18  1  0.01701800  0.19977600  0.17044900  1
  O  O19  1  0.98298200  0.80022400  0.82955100  1
  O  O20  1  0.72104100  0.81293000  0.60125000  1
  O  O21  1  0.27895900  0.18707000  0.39875000  1
  O  O22  1  0.18707000  0.27895900  0.89875000  1
  O  O23  1  0.81293000  0.72104100  0.10125000  1
  O  O24  1  0.39994400  0.09834100  0.13192400  1
  O  O25  1  0.60005600  0.90165900  0.86807600  1
  O  O26  1  0.90165900  0.60005600  0.36807600  1
  O  O27  1  0.09834100  0.39994400  0.63192400  1
  O  O28  1  0.43485100  0.02854000  0.28627000  1
  O  O29  1  0.56514900  0.97146000  0.71373000  1
  O  O30  1  0.97146000  0.56514900  0.21373000  1
  O  O31  1  0.02854000  0.43485100  0.78627000  1
loop_
_geom_bond_atom_site_label_1
_geom_bond_atom_site_label_2
_geom_bond_distance
_geom_bond_site_symmetry_2
K0 O30 2.689110 1_555
K0 O28 2.689110 1_555
K0 O6 2.711010 1_555
K0 O4 2.711010 1_555
K0 O16 3.083746 1_555
K0 O18 3.083746 1_555
K0 O24 3.132187 1_555
K0 O26 3.132187 1_555
K0 O23 3.178245 1_555
K0 O21 3.178245 1_555
K1 O31 2.689110 1_555
K1 O29 2.689110 1_555
K1 O7 2.711010 1_555
K1 O5 2.711010 1_555
K1 O19 3.083746 1_555
K1 O17 3.083746 1_555
K1 O27 3.132187 1_555
K1 O25 3.132187 1_555
K1 O22 3.178245 1_555
K1 O20 3.178245 1_555
Li0 O18 2.036886 1_655
Li0 O16 2.036886 1_545
Li0 O30 2.092773 1_555
Li0 O28 2.092773 1_555
Li1 O17 2.036886 1_565
Li1 O19 2.036886 1_455
Li1 O31 2.092773 1_555
Li1 O29 2.092773 1_555
Dy0 O24 2.305317 1_555
Dy0 O14 2.354621 1_655
Dy0 O1 2.381349 1_544
Dy0 O23 2.383087 1_555
Dy0 O15 2.415435 1_554
Dy0 O11 2.428628 1_554
Dy0 O10 2.480376 1_555
Dy0 O0 2.500262 1_555
Dy1 O25 2.305317 1_555
Dy1 O15 2.354621 1_455
Dy1 O0 2.381349 1_566
Dy1 O22 2.383087 1_555
Dy1 O14 2.415435 1_556
Dy1 O10 2.428628 1_556
Dy1 O11 2.480376 1_555
Dy1 O1 2.500262 1_555
Dy2 O26 2.305317 1_555
Dy2 O12 2.354621 1_545
Dy2 O3 2.381349 1_655
Dy2 O21 2.383087 1_555
Dy2 O13 2.415435 1_555
Dy2 O9 2.428628 1_555
Dy2 O8 2.480376 1_555
Dy2 O2 2.500262 1_555
Dy3 O27 2.305317 1_555
Dy3 O13 2.354621 1_565
Dy3 O2 2.381349 1_455
Dy3 O20 2.383087 1_555
Dy3 O12 2.415435 1_555
Dy3 O8 2.428628 1_555
Dy3 O9 2.480376 1_555
Dy3 O3 2.500262 1_555
Mo0 O18 1.763746 1_655
Mo0 O23 1.786946 1_545
Mo0 O10 1.850784 1_655
Mo0 O0 1.868440 1_555
Mo1 O19 1.763746 1_455
Mo1 O22 1.786946 1_565
Mo1 O11 1.850784 1_455
Mo1 O1 1.868440 1_555
Mo2 O16 1.763746 1_545
Mo2 O21 1.786946 1_655
Mo2 O8 1.850784 1_545
Mo2 O2 1.868440 1_555
Mo3 O17 1.763746 1_565
Mo3 O20 1.786946 1_455
Mo3 O9 1.850784 1_565
Mo3 O3 1.868440 1_555
Mo4 O4 1.765366 1_555
Mo4 O30 1.767040 1_455
Mo4 O24 1.814424 1_565
Mo4 O14 1.880365 1_555
Mo5 O5 1.765366 1_555
Mo5 O31 1.767040 1_655
Mo5 O25 1.814424 1_545
Mo5 O15 1.880365 1_555
Mo6 O6 1.765366 1_555
Mo6 O28 1.767040 1_565
Mo6 O26 1.814424 1_455
Mo6 O12 1.880365 1_555
Mo7 O7 1.765366 1_555
Mo7 O29 1.767040 1_545
Mo7 O27 1.814424 1_655
Mo7 O13 1.880365 1_555
