# generated using pymatgen
data_Sn(NF2)4
_symmetry_space_group_name_H-M   'P 1'
_cell_length_a   6.03414200
_cell_length_b   10.64541000
_cell_length_c   14.84385300
_cell_angle_alpha   90.00000000
_cell_angle_beta   90.00000000
_cell_angle_gamma   90.00000000
_symmetry_Int_Tables_number   1
_chemical_formula_structural   Sn(NF2)4
_chemical_formula_sum   'Sn4 N16 F32'
_cell_volume   953.50848831
_cell_formula_units_Z   4
loop_
 _symmetry_equiv_pos_site_id
 _symmetry_equiv_pos_as_xyz
  1  'x, y, z'
loop_
 _atom_site_type_symbol
 _atom_site_label
 _atom_site_symmetry_multiplicity
 _atom_site_fract_x
 _atom_site_fract_y
 _atom_site_fract_z
 _atom_site_occupancy
  Sn  Sn0  1  0.75000000  0.62597200  0.75000000  1
  Sn  Sn1  1  0.25000000  0.87402800  0.25000000  1
  Sn  Sn2  1  0.25000000  0.37402800  0.25000000  1
  Sn  Sn3  1  0.75000000  0.12597200  0.75000000  1
  N  N0  1  0.27789700  0.81508300  0.92898200  1
  N  N1  1  0.22210300  0.81508300  0.57101800  1
  N  N2  1  0.77789700  0.68491700  0.07101800  1
  N  N3  1  0.72210300  0.68491700  0.42898200  1
  N  N4  1  0.72210300  0.18491700  0.07101800  1
  N  N5  1  0.77789700  0.18491700  0.42898200  1
  N  N6  1  0.22210300  0.31508300  0.92898200  1
  N  N7  1  0.27789700  0.31508300  0.57101800  1
  N  N8  1  0.20745900  0.90873300  0.91154300  1
  N  N9  1  0.29254100  0.90873300  0.58845700  1
  N  N10  1  0.70745900  0.59126700  0.08845700  1
  N  N11  1  0.79254100  0.59126700  0.41154300  1
  N  N12  1  0.79254100  0.09126700  0.08845700  1
  N  N13  1  0.70745900  0.09126700  0.41154300  1
  N  N14  1  0.29254100  0.40873300  0.91154300  1
  N  N15  1  0.20745900  0.40873300  0.58845700  1
  F  F0  1  0.68012500  0.62377600  0.88224600  1
  F  F1  1  0.81987500  0.62377600  0.61775400  1
  F  F2  1  0.18012500  0.87622400  0.11775400  1
  F  F3  1  0.31987500  0.87622400  0.38224600  1
  F  F4  1  0.31987500  0.37622400  0.11775400  1
  F  F5  1  0.18012500  0.37622400  0.38224600  1
  F  F6  1  0.81987500  0.12377600  0.88224600  1
  F  F7  1  0.68012500  0.12377600  0.61775400  1
  F  F8  1  0.98835700  0.49696000  0.77188800  1
  F  F9  1  0.51164300  0.49696000  0.72811200  1
  F  F10  1  0.48835700  0.00304000  0.22811200  1
  F  F11  1  0.01164300  0.00304000  0.27188800  1
  F  F12  1  0.01164300  0.50304000  0.22811200  1
  F  F13  1  0.48835700  0.50304000  0.27188800  1
  F  F14  1  0.51164300  0.99696000  0.77188800  1
  F  F15  1  0.98835700  0.99696000  0.72811200  1
  F  F16  1  0.98423500  0.75540600  0.77331600  1
  F  F17  1  0.51576500  0.75540600  0.72668400  1
  F  F18  1  0.48423500  0.74459400  0.22668400  1
  F  F19  1  0.01576500  0.74459400  0.27331600  1
  F  F20  1  0.01576500  0.24459400  0.22668400  1
  F  F21  1  0.48423500  0.24459400  0.27331600  1
  F  F22  1  0.51576500  0.25540600  0.77331600  1
  F  F23  1  0.98423500  0.25540600  0.72668400  1
  F  F24  1  0.75383600  0.84907600  0.01445000  1
  F  F25  1  0.74616400  0.84907600  0.48555000  1
  F  F26  1  0.25383600  0.65092400  0.98555000  1
  F  F27  1  0.24616400  0.65092400  0.51445000  1
  F  F28  1  0.24616400  0.15092400  0.98555000  1
  F  F29  1  0.25383600  0.15092400  0.51445000  1
  F  F30  1  0.74616400  0.34907600  0.01445000  1
  F  F31  1  0.75383600  0.34907600  0.48555000  1
loop_
_geom_bond_atom_site_label_1
_geom_bond_atom_site_label_2
_geom_bond_distance
_geom_bond_site_symmetry_2
N0 N8 1.114252 1_555
N1 N9 1.114252 1_555
N10 N2 1.114252 1_555
N11 N3 1.114252 1_555
N12 N4 1.114252 1_555
N13 N5 1.114252 1_555
N14 N6 1.114252 1_555
N15 N7 1.114252 1_555
F0 Sn0 2.007947 1_555
F1 Sn0 2.007947 1_555
F2 Sn1 2.007947 1_555
F3 Sn1 2.007947 1_555
F4 Sn2 2.007947 1_555
F5 Sn2 2.007947 1_555
F6 Sn3 2.007947 1_555
F7 Sn3 2.007947 1_555
F8 Sn0 2.015043 1_555
F9 Sn0 2.015043 1_555
F10 Sn1 2.015043 1_545
F11 Sn1 2.015043 1_545
F12 Sn2 2.015043 1_555
F13 Sn2 2.015043 1_555
F14 Sn3 2.015043 1_565
F15 Sn3 2.015043 1_565
F16 Sn0 2.004009 1_555
F17 Sn0 2.004009 1_555
F18 Sn1 2.004009 1_555
F19 Sn1 2.004009 1_555
F20 Sn2 2.004009 1_555
F21 Sn2 2.004009 1_555
F22 Sn3 2.004009 1_555
F23 Sn3 2.004009 1_555
F24 N2 1.944235 1_555
F25 N3 1.944235 1_555
F26 N0 1.944235 1_555
F27 N1 1.944235 1_555
F28 N6 1.944235 1_555
F29 N7 1.944235 1_555
F30 N4 1.944235 1_555
F31 N5 1.944235 1_555
