# generated using pymatgen
data_Cs4BaV6O18
_symmetry_space_group_name_H-M   'P 1'
_cell_length_a   10.66849124
_cell_length_b   10.66849124
_cell_length_c   10.66849145
_cell_angle_alpha   83.63643318
_cell_angle_beta   83.63643318
_cell_angle_gamma   83.63643219
_symmetry_Int_Tables_number   1
_chemical_formula_structural   Cs4BaV6O18
_chemical_formula_sum   'Cs8 Ba2 V12 O36'
_cell_volume   1193.35064394
_cell_formula_units_Z   2
loop_
 _symmetry_equiv_pos_site_id
 _symmetry_equiv_pos_as_xyz
  1  'x, y, z'
loop_
 _atom_site_type_symbol
 _atom_site_label
 _atom_site_symmetry_multiplicity
 _atom_site_fract_x
 _atom_site_fract_y
 _atom_site_fract_z
 _atom_site_occupancy
  Cs  Cs0  1  0.49915500  0.49915500  0.49915500  1
  Cs  Cs1  1  0.99915500  0.99915500  0.99915500  1
  Cs  Cs2  1  0.90763900  0.08861400  0.48702000  1
  Cs  Cs3  1  0.48702000  0.90763900  0.08861400  1
  Cs  Cs4  1  0.08861400  0.48702000  0.90763900  1
  Cs  Cs5  1  0.98702000  0.58861400  0.40763900  1
  Cs  Cs6  1  0.40763900  0.98702000  0.58861400  1
  Cs  Cs7  1  0.58861400  0.40763900  0.98702000  1
  Ba  Ba0  1  0.26864400  0.26864400  0.26864400  1
  Ba  Ba1  1  0.76864400  0.76864400  0.76864400  1
  V  V0  1  0.80018800  0.66907100  0.10307000  1
  V  V1  1  0.10307000  0.80018800  0.66907100  1
  V  V2  1  0.66907100  0.10307000  0.80018800  1
  V  V3  1  0.60307000  0.16907100  0.30018800  1
  V  V4  1  0.30018800  0.60307000  0.16907100  1
  V  V5  1  0.16907100  0.30018800  0.60307000  1
  V  V6  1  0.69089900  0.83478000  0.37641100  1
  V  V7  1  0.37641100  0.69089900  0.83478000  1
  V  V8  1  0.83478000  0.37641100  0.69089900  1
  V  V9  1  0.87641100  0.33478000  0.19089900  1
  V  V10  1  0.19089900  0.87641100  0.33478000  1
  V  V11  1  0.33478000  0.19089900  0.87641100  1
  O  O0  1  0.00795200  0.35006000  0.66553000  1
  O  O1  1  0.66553000  0.00795200  0.35006000  1
  O  O2  1  0.35006000  0.66553000  0.00795200  1
  O  O3  1  0.16553000  0.85006000  0.50795200  1
  O  O4  1  0.50795200  0.16553000  0.85006000  1
  O  O5  1  0.85006000  0.50795200  0.16553000  1
  O  O6  1  0.17093100  0.17023900  0.52710700  1
  O  O7  1  0.52710700  0.17093100  0.17023900  1
  O  O8  1  0.17023900  0.52710700  0.17093100  1
  O  O9  1  0.02710700  0.67023900  0.67093100  1
  O  O10  1  0.67093100  0.02710700  0.67023900  1
  O  O11  1  0.67023900  0.67093100  0.02710700  1
  O  O12  1  0.77078000  0.77005400  0.23301100  1
  O  O13  1  0.23301100  0.77078000  0.77005400  1
  O  O14  1  0.77005400  0.23301100  0.77078000  1
  O  O15  1  0.73301100  0.27005400  0.27078000  1
  O  O16  1  0.27078000  0.73301100  0.27005400  1
  O  O17  1  0.27005400  0.27078000  0.73301100  1
  O  O18  1  0.91099500  0.72283200  0.99138000  1
  O  O19  1  0.99138000  0.91099500  0.72283200  1
  O  O20  1  0.72283200  0.99138000  0.91099500  1
  O  O21  1  0.49138000  0.22283200  0.41099500  1
  O  O22  1  0.41099500  0.49138000  0.22283200  1
  O  O23  1  0.22283200  0.41099500  0.49138000  1
  O  O24  1  0.00016500  0.29223600  0.27794000  1
  O  O25  1  0.27794000  0.00016500  0.29223600  1
  O  O26  1  0.29223600  0.27794000  0.00016500  1
  O  O27  1  0.77794000  0.79223600  0.50016500  1
  O  O28  1  0.50016500  0.77794000  0.79223600  1
  O  O29  1  0.79223600  0.50016500  0.77794000  1
  O  O30  1  0.54989800  0.77950000  0.41080000  1
  O  O31  1  0.41080000  0.54989800  0.77950000  1
  O  O32  1  0.77950000  0.41080000  0.54989800  1
  O  O33  1  0.91080000  0.27950000  0.04989800  1
  O  O34  1  0.04989800  0.91080000  0.27950000  1
  O  O35  1  0.27950000  0.04989800  0.91080000  1
loop_
_geom_bond_atom_site_label_1
_geom_bond_atom_site_label_2
_geom_bond_distance
_geom_bond_site_symmetry_2
Cs0 O32 3.122125 1_555
Cs0 O30 3.122125 1_555
Cs0 O31 3.122125 1_555
Cs0 O21 3.204374 1_555
Cs0 O23 3.204374 1_555
Cs0 O22 3.204374 1_555
Cs1 O33 3.122125 1_566
Cs1 O35 3.122125 1_665
Cs1 O34 3.122125 1_656
Cs1 O20 3.204374 1_555
Cs1 O18 3.204374 1_555
Cs1 O19 3.204374 1_555
Cs2 O24 3.095482 1_655
Cs2 O10 3.101182 1_555
Cs2 O6 3.118072 1_655
Cs2 O19 3.127958 1_545
Cs2 O34 3.217363 1_645
Cs2 O1 3.339932 1_555
Cs2 O15 3.420994 1_555
Cs2 O3 3.543257 1_645
Cs2 O27 3.572179 1_545
Cs2 O14 3.638634 1_555
Cs2 O32 3.660553 1_555
Cs3 O25 3.095482 1_565
Cs3 O11 3.101182 1_555
Cs3 O7 3.118072 1_565
Cs3 O20 3.127958 1_554
Cs3 O35 3.217363 1_564
Cs3 O2 3.339932 1_555
Cs3 O16 3.420994 1_555
Cs3 O4 3.543257 1_564
Cs3 O28 3.572179 1_554
Cs3 O12 3.638634 1_555
Cs3 O30 3.660553 1_555
Cs4 O26 3.095482 1_556
Cs4 O9 3.101182 1_555
Cs4 O8 3.118073 1_556
Cs4 O18 3.127958 1_455
Cs4 O33 3.217363 1_456
Cs4 O0 3.339932 1_555
Cs4 O17 3.420994 1_555
Cs4 O5 3.543257 1_456
Cs4 O29 3.572179 1_455
Cs4 O13 3.638634 1_555
Cs4 O31 3.660553 1_555
Cs5 O27 3.095482 1_555
Cs5 O8 3.101182 1_655
Cs5 O9 3.118073 1_655
Cs5 O23 3.127958 1_655
Cs5 O32 3.217363 1_555
Cs5 O5 3.339932 1_555
Cs5 O12 3.420994 1_555
Cs5 O0 3.543257 1_655
Cs5 O24 3.572179 1_655
Cs5 O16 3.638634 1_655
Cs5 O34 3.660553 1_655
Cs6 O28 3.095482 1_555
Cs6 O6 3.101182 1_565
Cs6 O10 3.118072 1_565
Cs6 O21 3.127958 1_565
Cs6 O30 3.217363 1_555
Cs6 O3 3.339932 1_555
Cs6 O13 3.420994 1_555
Cs6 O1 3.543257 1_565
Cs6 O25 3.572179 1_565
Cs6 O17 3.638634 1_565
Cs6 O35 3.660553 1_565
Cs7 O29 3.095482 1_555
Cs7 O7 3.101182 1_556
Cs7 O11 3.118072 1_556
Cs7 O22 3.127958 1_556
Cs7 O31 3.217363 1_555
Cs7 O4 3.339932 1_555
Cs7 O14 3.420994 1_555
Cs7 O2 3.543257 1_556
Cs7 O26 3.572179 1_556
Cs7 O15 3.638634 1_556
Cs7 O33 3.660553 1_556
Ba0 O24 2.839007 1_555
Ba0 O25 2.839007 1_555
Ba0 O26 2.839007 1_555
Ba0 O21 2.927424 1_555
Ba0 O22 2.927424 1_555
Ba0 O23 2.927424 1_555
Ba0 O8 2.959031 1_555
Ba0 O7 2.959031 1_555
Ba0 O6 2.959031 1_555
Ba1 O29 2.839007 1_555
Ba1 O28 2.839007 1_555
Ba1 O27 2.839007 1_555
Ba1 O20 2.927424 1_555
Ba1 O19 2.927424 1_555
Ba1 O18 2.927424 1_555
Ba1 O9 2.959031 1_655
Ba1 O10 2.959031 1_565
Ba1 O11 2.959031 1_556
O0 V5 1.817602 1_555
O0 V8 1.832041 1_455
O1 V3 1.817602 1_555
O1 V6 1.832041 1_545
O2 V4 1.817602 1_555
O2 V7 1.832041 1_554
O3 V1 1.817602 1_555
O3 V10 1.832041 1_555
O4 V2 1.817602 1_555
O4 V11 1.832041 1_555
O5 V0 1.817602 1_555
O5 V9 1.832041 1_555
O6 V5 1.678852 1_555
O7 V3 1.678852 1_555
O8 V4 1.678852 1_555
O9 V1 1.678852 1_555
O10 V2 1.678852 1_555
O11 V0 1.678852 1_555
O12 V0 1.827723 1_555
O12 V6 1.832563 1_555
O13 V1 1.827723 1_555
O13 V7 1.832563 1_555
O14 V2 1.827723 1_555
O14 V8 1.832563 1_555
O15 V3 1.827723 1_555
O15 V9 1.832563 1_555
O16 V4 1.827723 1_555
O16 V10 1.832563 1_555
O17 V5 1.827723 1_555
O17 V11 1.832563 1_555
O18 V0 1.683092 1_556
O19 V1 1.683092 1_655
O20 V2 1.683092 1_565
O21 V3 1.683092 1_555
O22 V4 1.683092 1_555
O23 V5 1.683092 1_555
O24 V9 1.690240 1_455
O25 V10 1.690240 1_545
O26 V11 1.690240 1_554
O27 V6 1.690240 1_555
O28 V7 1.690240 1_555
O29 V8 1.690240 1_555
O30 V6 1.664809 1_555
O31 V7 1.664809 1_555
O32 V8 1.664809 1_555
O33 V9 1.664809 1_555
O34 V10 1.664809 1_555
O35 V11 1.664809 1_555
