# generated using pymatgen
data_Ce2HfSe5
_symmetry_space_group_name_H-M   'P 1'
_cell_length_a   7.73397425
_cell_length_b   8.41844289
_cell_length_c   12.06847296
_cell_angle_alpha   90.00000000
_cell_angle_beta   90.00000000
_cell_angle_gamma   90.00000000
_symmetry_Int_Tables_number   1
_chemical_formula_structural   Ce2HfSe5
_chemical_formula_sum   'Ce8 Hf4 Se20'
_cell_volume   785.75438532
_cell_formula_units_Z   4
loop_
 _symmetry_equiv_pos_site_id
 _symmetry_equiv_pos_as_xyz
  1  'x, y, z'
loop_
 _atom_site_type_symbol
 _atom_site_label
 _atom_site_symmetry_multiplicity
 _atom_site_fract_x
 _atom_site_fract_y
 _atom_site_fract_z
 _atom_site_occupancy
  Ce  Ce0  1  0.54538358  0.50068576  0.67445021  1
  Ce  Ce1  1  0.04538358  0.49931424  0.82554979  1
  Ce  Ce2  1  0.95461642  -0.00068576  0.17445021  1
  Ce  Ce3  1  0.45461642  0.00068576  0.32554979  1
  Ce  Ce4  1  0.45461642  0.49931424  0.32554979  1
  Ce  Ce5  1  0.95461642  0.50068576  0.17445021  1
  Ce  Ce6  1  0.04538358  0.00068576  0.82554979  1
  Ce  Ce7  1  0.54538358  -0.00068576  0.67445021  1
  Hf  Hf0  1  0.07392535  0.25000000  0.50781216  1
  Hf  Hf1  1  0.57392535  0.75000000  0.99218784  1
  Hf  Hf2  1  0.42607465  0.25000000  0.00781216  1
  Hf  Hf3  1  0.92607465  0.75000000  0.49218784  1
  Se  Se0  1  0.33140066  0.25000000  0.79361094  1
  Se  Se1  1  0.83140066  0.75000000  0.70638906  1
  Se  Se2  1  0.16859934  0.25000000  0.29361094  1
  Se  Se3  1  0.66859934  0.75000000  0.20638906  1
  Se  Se4  1  0.05653861  0.25000000  0.00580278  1
  Se  Se5  1  0.55653861  0.75000000  0.49419722  1
  Se  Se6  1  0.44346139  0.25000000  0.50580278  1
  Se  Se7  1  0.94346139  0.75000000  0.99419722  1
  Se  Se8  1  0.85262421  0.25000000  0.68652904  1
  Se  Se9  1  0.35262421  0.75000000  0.81347096  1
  Se  Se10  1  0.64737579  0.25000000  0.18652904  1
  Se  Se11  1  0.14737579  0.75000000  0.31347096  1
  Se  Se12  1  0.67163485  0.46402206  0.92109471  1
  Se  Se13  1  0.17163485  0.53597794  0.57890529  1
  Se  Se14  1  0.82836515  0.03597794  0.42109471  1
  Se  Se15  1  0.32836515  0.96402206  0.07890529  1
  Se  Se16  1  0.32836515  0.53597794  0.07890529  1
  Se  Se17  1  0.82836515  0.46402206  0.42109471  1
  Se  Se18  1  0.17163485  0.96402206  0.57890529  1
  Se  Se19  1  0.67163485  0.03597794  0.92109471  1
loop_
_geom_bond_atom_site_label_1
_geom_bond_atom_site_label_2
_geom_bond_distance
_geom_bond_site_symmetry_2
Ce0 Se5 3.024043 1_555
Ce0 Se6 3.036049 1_555
Ce0 Se0 3.043130 1_555
Ce0 Se9 3.072865 1_555
Ce0 Se1 3.073573 1_555
Ce0 Se13 3.126215 1_555
Ce0 Se12 3.147849 1_555
Ce0 Se8 3.181392 1_555
Ce1 Se4 3.024043 1_556
Ce1 Se7 3.036049 1_455
Ce1 Se1 3.043130 1_455
Ce1 Se8 3.072865 1_455
Ce1 Se0 3.073573 1_555
Ce1 Se12 3.126215 1_455
Ce1 Se13 3.147849 1_555
Ce1 Se9 3.181392 1_555
Ce2 Se7 3.024043 1_544
Ce2 Se4 3.036049 1_655
Ce2 Se2 3.043130 1_655
Ce2 Se11 3.072865 1_645
Ce2 Se3 3.073573 1_545
Ce2 Se15 3.126215 1_645
Ce2 Se14 3.147849 1_555
Ce2 Se10 3.181392 1_555
Ce3 Se6 3.024043 1_555
Ce3 Se5 3.036049 1_545
Ce3 Se3 3.043130 1_545
Ce3 Se10 3.072865 1_555
Ce3 Se2 3.073573 1_555
Ce3 Se14 3.126215 1_555
Ce3 Se15 3.147849 1_545
Ce3 Se11 3.181392 1_545
Ce4 Se6 3.024043 1_555
Ce4 Se5 3.036049 1_555
Ce4 Se3 3.043130 1_555
Ce4 Se10 3.072865 1_555
Ce4 Se2 3.073573 1_555
Ce4 Se17 3.126215 1_555
Ce4 Se16 3.147849 1_555
Ce4 Se11 3.181392 1_555
Ce5 Se7 3.024043 1_554
Ce5 Se4 3.036049 1_655
Ce5 Se2 3.043130 1_655
Ce5 Se11 3.072865 1_655
Ce5 Se3 3.073573 1_555
Ce5 Se16 3.126215 1_655
Ce5 Se17 3.147849 1_555
Ce5 Se10 3.181392 1_555
Ce6 Se4 3.024043 1_556
Ce6 Se7 3.036049 1_445
Ce6 Se1 3.043130 1_445
Ce6 Se8 3.072865 1_455
Ce6 Se0 3.073573 1_555
Ce6 Se19 3.126215 1_455
Ce6 Se18 3.147849 1_545
Ce6 Se9 3.181392 1_545
Ce7 Se5 3.024043 1_545
Ce7 Se6 3.036049 1_555
Ce7 Se0 3.043130 1_555
Ce7 Se9 3.072865 1_545
Ce7 Se1 3.073573 1_545
Ce7 Se18 3.126215 1_545
Ce7 Se19 3.147849 1_555
Ce7 Se8 3.181392 1_555
Hf0 Se18 2.665183 1_545
Hf0 Se13 2.665183 1_555
Hf0 Se2 2.686777 1_555
Hf0 Se8 2.753419 1_455
Hf0 Se14 2.819272 1_455
Hf0 Se17 2.819272 1_455
Hf0 Se6 2.858085 1_555
Hf1 Se12 2.665183 1_555
Hf1 Se19 2.665183 1_565
Hf1 Se3 2.686777 1_556
Hf1 Se9 2.753419 1_555
Hf1 Se15 2.819272 1_556
Hf1 Se16 2.819272 1_556
Hf1 Se7 2.858085 1_555
Hf2 Se16 2.665183 1_555
Hf2 Se15 2.665183 1_545
Hf2 Se0 2.686777 1_554
Hf2 Se10 2.753419 1_555
Hf2 Se12 2.819272 1_554
Hf2 Se19 2.819272 1_554
Hf2 Se4 2.858085 1_555
Hf3 Se17 2.665183 1_555
Hf3 Se14 2.665183 1_565
Hf3 Se1 2.686777 1_555
Hf3 Se11 2.753419 1_655
Hf3 Se18 2.819272 1_655
Hf3 Se13 2.819272 1_655
Hf3 Se5 2.858085 1_555
