# generated using pymatgen
data_Mo6Pb(SeS)4
_symmetry_space_group_name_H-M   'P 1'
_cell_length_a   6.71133100
_cell_length_b   6.76860066
_cell_length_c   6.81658188
_cell_angle_alpha   88.28018285
_cell_angle_beta   88.67129713
_cell_angle_gamma   88.97472288
_symmetry_Int_Tables_number   1
_chemical_formula_structural   Mo6Pb(SeS)4
_chemical_formula_sum   'Mo6 Pb1 Se4 S4'
_cell_volume   309.38369053
_cell_formula_units_Z   1
loop_
 _symmetry_equiv_pos_site_id
 _symmetry_equiv_pos_as_xyz
  1  'x, y, z'
loop_
 _atom_site_type_symbol
 _atom_site_label
 _atom_site_symmetry_multiplicity
 _atom_site_fract_x
 _atom_site_fract_y
 _atom_site_fract_z
 _atom_site_occupancy
  Mo  Mo0  1  0.56618800  0.23894400  0.42666700  1
  Mo  Mo1  1  0.42303000  0.56175100  0.23793500  1
  Mo  Mo2  1  0.23181900  0.41763300  0.56439700  1
  Mo  Mo3  1  0.43691200  0.76117200  0.57557800  1
  Mo  Mo4  1  0.57902500  0.43342500  0.76538800  1
  Mo  Mo5  1  0.77053300  0.57574700  0.43679300  1
  Pb  Pb0  1  0.99939500  0.00704400  0.99160900  1
  Se  Se0  1  0.62608000  0.88205300  0.24566400  1
  Se  Se1  1  0.24495500  0.62030200  0.88086600  1
  Se  Se2  1  0.23797200  0.23924200  0.24819700  1
  Se  Se3  1  0.76272900  0.75543900  0.75368700  1
  S  S0  1  0.13067500  0.72936200  0.38195300  1
  S  S1  1  0.38342300  0.12767200  0.73465000  1
  S  S2  1  0.73550100  0.38447900  0.13251800  1
  S  S3  1  0.87176600  0.26573600  0.62410000  1
loop_
_geom_bond_atom_site_label_1
_geom_bond_atom_site_label_2
_geom_bond_distance
_geom_bond_site_symmetry_2
Mo0 S2 2.469372 1_555
Mo0 S3 2.491184 1_555
Mo0 S1 2.509573 1_555
Mo0 Se2 2.540898 1_555
Mo0 Se0 2.764130 1_545
Mo1 S0 2.449181 1_555
Mo1 S2 2.499142 1_555
Mo1 Se2 2.529121 1_555
Mo1 Se0 2.583786 1_555
Mo1 Se1 2.751315 1_554
Mo2 S1 2.465886 1_555
Mo2 Se2 2.501145 1_555
Mo2 S0 2.507946 1_555
Mo2 Se1 2.594998 1_555
Mo2 S3 2.660831 1_455
Mo3 S0 2.484184 1_555
Mo3 Se3 2.524737 1_555
Mo3 Se1 2.588437 1_555
Mo3 Se0 2.670778 1_555
Mo3 S1 2.751364 1_565
Mo4 S3 2.444150 1_555
Mo4 S1 2.487194 1_555
Mo4 Se3 2.521539 1_555
Mo4 Se1 2.668862 1_555
Mo4 S2 2.745019 1_556
Mo5 S2 2.495586 1_555
Mo5 Se3 2.509660 1_555
Mo5 S3 2.514603 1_555
Mo5 Se0 2.600042 1_555
Mo5 S0 2.662253 1_655
Pb0 Se3 2.904381 1_545
Pb0 Se2 2.911695 1_656
Pb0 Se0 3.127099 1_546
Pb0 S3 3.139743 1_555
Pb0 Se1 3.169348 1_645
Pb0 S1 3.187078 1_655
Pb0 S2 3.239185 1_556
