# generated using pymatgen
data_Mg30ZnSiO32
_symmetry_space_group_name_H-M   'P 1'
_cell_length_a   8.55402800
_cell_length_b   8.55402800
_cell_length_c   8.55631700
_cell_angle_alpha   90.00000000
_cell_angle_beta   90.00000000
_cell_angle_gamma   90.00000000
_symmetry_Int_Tables_number   1
_chemical_formula_structural   Mg30ZnSiO32
_chemical_formula_sum   'Mg30 Zn1 Si1 O32'
_cell_volume   626.07765116
_cell_formula_units_Z   1
loop_
 _symmetry_equiv_pos_site_id
 _symmetry_equiv_pos_as_xyz
  1  'x, y, z'
loop_
 _atom_site_type_symbol
 _atom_site_label
 _atom_site_symmetry_multiplicity
 _atom_site_fract_x
 _atom_site_fract_y
 _atom_site_fract_z
 _atom_site_occupancy
  Mg  Mg0  1  0.00000000  0.50000000  0.00000000  1
  Mg  Mg1  1  0.50000000  0.00000000  0.00000000  1
  Mg  Mg2  1  0.00000000  0.00000000  0.50000000  1
  Mg  Mg3  1  0.00000000  0.50000000  0.50000000  1
  Mg  Mg4  1  0.50000000  0.00000000  0.50000000  1
  Mg  Mg5  1  0.50000000  0.50000000  0.50000000  1
  Mg  Mg6  1  0.24854800  0.24854800  0.00000000  1
  Mg  Mg7  1  0.24854800  0.75145200  0.00000000  1
  Mg  Mg8  1  0.75145200  0.24854800  0.00000000  1
  Mg  Mg9  1  0.75145200  0.75145200  0.00000000  1
  Mg  Mg10  1  0.24995100  0.24995100  0.50000000  1
  Mg  Mg11  1  0.24995100  0.75004900  0.50000000  1
  Mg  Mg12  1  0.75004900  0.24995100  0.50000000  1
  Mg  Mg13  1  0.75004900  0.75004900  0.50000000  1
  Mg  Mg14  1  0.00000000  0.24988400  0.24995800  1
  Mg  Mg15  1  0.00000000  0.75011600  0.24995800  1
  Mg  Mg16  1  0.50000000  0.24863600  0.25125500  1
  Mg  Mg17  1  0.50000000  0.75136400  0.25125500  1
  Mg  Mg18  1  0.00000000  0.24988400  0.75004200  1
  Mg  Mg19  1  0.00000000  0.75011600  0.75004200  1
  Mg  Mg20  1  0.50000000  0.24863600  0.74874500  1
  Mg  Mg21  1  0.50000000  0.75136400  0.74874500  1
  Mg  Mg22  1  0.24988400  0.00000000  0.24995800  1
  Mg  Mg23  1  0.24863600  0.50000000  0.25125500  1
  Mg  Mg24  1  0.75011600  0.00000000  0.24995800  1
  Mg  Mg25  1  0.75136400  0.50000000  0.25125500  1
  Mg  Mg26  1  0.24988400  0.00000000  0.75004200  1
  Mg  Mg27  1  0.24863600  0.50000000  0.74874500  1
  Mg  Mg28  1  0.75011600  0.00000000  0.75004200  1
  Mg  Mg29  1  0.75136400  0.50000000  0.74874500  1
  Zn  Zn0  1  0.00000000  0.00000000  0.00000000  1
  Si  Si0  1  0.50000000  0.50000000  0.00000000  1
  O  O0  1  0.00000000  0.00000000  0.25394900  1
  O  O1  1  0.00000000  0.50000000  0.25138500  1
  O  O2  1  0.50000000  0.00000000  0.25138500  1
  O  O3  1  0.50000000  0.50000000  0.25976900  1
  O  O4  1  0.00000000  0.00000000  0.74605100  1
  O  O5  1  0.00000000  0.50000000  0.74861500  1
  O  O6  1  0.50000000  0.00000000  0.74861500  1
  O  O7  1  0.50000000  0.50000000  0.74023100  1
  O  O8  1  0.25030300  0.25030300  0.24930400  1
  O  O9  1  0.25030300  0.74969700  0.24930400  1
  O  O10  1  0.74969700  0.25030300  0.24930400  1
  O  O11  1  0.74969700  0.74969700  0.24930400  1
  O  O12  1  0.25030300  0.25030300  0.75069600  1
  O  O13  1  0.25030300  0.74969700  0.75069600  1
  O  O14  1  0.74969700  0.25030300  0.75069600  1
  O  O15  1  0.74969700  0.74969700  0.75069600  1
  O  O16  1  0.00000000  0.25228400  0.00000000  1
  O  O17  1  0.00000000  0.74771600  0.00000000  1
  O  O18  1  0.50000000  0.24052800  0.00000000  1
  O  O19  1  0.50000000  0.75947200  0.00000000  1
  O  O20  1  0.00000000  0.24998400  0.50000000  1
  O  O21  1  0.00000000  0.75001600  0.50000000  1
  O  O22  1  0.50000000  0.24887300  0.50000000  1
  O  O23  1  0.50000000  0.75112700  0.50000000  1
  O  O24  1  0.25228400  0.00000000  0.00000000  1
  O  O25  1  0.24052800  0.50000000  0.00000000  1
  O  O26  1  0.74771600  0.00000000  0.00000000  1
  O  O27  1  0.75947200  0.50000000  0.00000000  1
  O  O28  1  0.24998400  0.00000000  0.50000000  1
  O  O29  1  0.24887300  0.50000000  0.50000000  1
  O  O30  1  0.75001600  0.00000000  0.50000000  1
  O  O31  1  0.75112700  0.50000000  0.50000000  1
loop_
_geom_bond_atom_site_label_1
_geom_bond_atom_site_label_2
_geom_bond_distance
_geom_bond_site_symmetry_2
Mg0 O27 2.057483 1_455
Mg0 O25 2.057483 1_555
Mg0 O16 2.118970 1_555
Mg0 O17 2.118970 1_555
Mg0 O5 2.150930 1_554
Mg0 O1 2.150930 1_555
Mg1 O19 2.057483 1_545
Mg1 O18 2.057483 1_555
Mg1 O24 2.118970 1_555
Mg1 O26 2.118970 1_555
Mg1 O6 2.150930 1_554
Mg1 O2 2.150930 1_555
Mg2 O0 2.105290 1_555
Mg2 O4 2.105290 1_555
Mg2 O30 2.138370 1_455
Mg2 O21 2.138370 1_545
Mg2 O20 2.138370 1_555
Mg2 O28 2.138370 1_555
Mg3 O1 2.127229 1_555
Mg3 O5 2.127229 1_555
Mg3 O29 2.128867 1_555
Mg3 O31 2.128867 1_455
Mg3 O21 2.138644 1_555
Mg3 O20 2.138644 1_555
Mg4 O2 2.127229 1_555
Mg4 O6 2.127229 1_555
Mg4 O23 2.128867 1_545
Mg4 O22 2.128867 1_555
Mg4 O30 2.138644 1_555
Mg4 O28 2.138644 1_555
Mg5 O7 2.055493 1_555
Mg5 O3 2.055493 1_555
Mg5 O31 2.148147 1_555
Mg5 O22 2.148147 1_555
Mg5 O23 2.148147 1_555
Mg5 O29 2.148147 1_555
Mg6 O24 2.126327 1_555
Mg6 O16 2.126327 1_555
Mg6 O12 2.133230 1_554
Mg6 O8 2.133230 1_555
Mg6 O25 2.152021 1_555
Mg6 O18 2.152021 1_555
Mg7 O24 2.126327 1_565
Mg7 O17 2.126327 1_555
Mg7 O9 2.133230 1_555
Mg7 O13 2.133230 1_554
Mg7 O25 2.152021 1_555
Mg7 O19 2.152021 1_555
Mg8 O26 2.126327 1_555
Mg8 O16 2.126327 1_655
Mg8 O10 2.133230 1_555
Mg8 O14 2.133230 1_554
Mg8 O18 2.152021 1_555
Mg8 O27 2.152021 1_555
Mg9 O26 2.126327 1_565
Mg9 O17 2.126327 1_655
Mg9 O15 2.133230 1_554
Mg9 O11 2.133230 1_555
Mg9 O19 2.152021 1_555
Mg9 O27 2.152021 1_555
Mg10 O20 2.138088 1_555
Mg10 O28 2.138088 1_555
Mg10 O22 2.138946 1_555
Mg10 O29 2.138946 1_555
Mg10 O12 2.145039 1_555
Mg10 O8 2.145039 1_555
Mg11 O28 2.138088 1_565
Mg11 O21 2.138088 1_555
Mg11 O23 2.138946 1_555
Mg11 O29 2.138946 1_555
Mg11 O13 2.145039 1_555
Mg11 O9 2.145039 1_555
Mg12 O30 2.138088 1_555
Mg12 O20 2.138088 1_655
Mg12 O31 2.138946 1_555
Mg12 O22 2.138946 1_555
Mg12 O10 2.145039 1_555
Mg12 O14 2.145039 1_555
Mg13 O30 2.138088 1_565
Mg13 O21 2.138088 1_655
Mg13 O31 2.138946 1_555
Mg13 O23 2.138946 1_555
Mg13 O11 2.145039 1_555
Mg13 O15 2.145039 1_555
Mg14 O0 2.137787 1_555
Mg14 O16 2.138818 1_555
Mg14 O20 2.139439 1_555
Mg14 O1 2.139534 1_555
Mg14 O8 2.141109 1_555
Mg14 O10 2.141109 1_455
Mg15 O0 2.137787 1_565
Mg15 O17 2.138818 1_555
Mg15 O21 2.139439 1_555
Mg15 O1 2.139534 1_555
Mg15 O9 2.141109 1_555
Mg15 O11 2.141109 1_455
Mg16 O2 2.126840 1_555
Mg16 O22 2.128342 1_555
Mg16 O10 2.136028 1_555
Mg16 O8 2.136028 1_555
Mg16 O18 2.150936 1_555
Mg16 O3 2.151408 1_555
Mg17 O2 2.126840 1_565
Mg17 O23 2.128342 1_555
Mg17 O11 2.136028 1_555
Mg17 O9 2.136028 1_555
Mg17 O19 2.150936 1_555
Mg17 O3 2.151408 1_555
Mg18 O4 2.137787 1_555
Mg18 O16 2.138818 1_556
Mg18 O20 2.139439 1_555
Mg18 O5 2.139534 1_555
Mg18 O12 2.141109 1_555
Mg18 O14 2.141109 1_455
Mg19 O4 2.137787 1_565
Mg19 O17 2.138818 1_556
Mg19 O21 2.139439 1_555
Mg19 O5 2.139534 1_555
Mg19 O13 2.141109 1_555
Mg19 O15 2.141109 1_455
Mg20 O6 2.126840 1_555
Mg20 O22 2.128342 1_555
Mg20 O14 2.136028 1_555
Mg20 O12 2.136028 1_555
Mg20 O18 2.150936 1_556
Mg20 O7 2.151408 1_555
Mg21 O6 2.126840 1_565
Mg21 O23 2.128342 1_555
Mg21 O15 2.136028 1_555
Mg21 O13 2.136028 1_555
Mg21 O19 2.150936 1_556
Mg21 O7 2.151408 1_555
Mg22 O0 2.137787 1_555
Mg22 O24 2.138818 1_555
Mg22 O28 2.139439 1_555
Mg22 O2 2.139534 1_555
Mg22 O8 2.141109 1_555
Mg22 O9 2.141109 1_545
Mg23 O1 2.126840 1_555
Mg23 O29 2.128342 1_555
Mg23 O9 2.136028 1_555
Mg23 O8 2.136028 1_555
Mg23 O25 2.150936 1_555
Mg23 O3 2.151408 1_555
Mg24 O0 2.137787 1_655
Mg24 O26 2.138818 1_555
Mg24 O30 2.139439 1_555
Mg24 O2 2.139534 1_555
Mg24 O10 2.141109 1_555
Mg24 O11 2.141109 1_545
Mg25 O1 2.126840 1_655
Mg25 O31 2.128342 1_555
Mg25 O11 2.136028 1_555
Mg25 O10 2.136028 1_555
Mg25 O27 2.150936 1_555
Mg25 O3 2.151408 1_555
Mg26 O4 2.137787 1_555
Mg26 O24 2.138818 1_556
Mg26 O28 2.139439 1_555
Mg26 O6 2.139534 1_555
Mg26 O12 2.141109 1_555
Mg26 O13 2.141109 1_545
Mg27 O5 2.126840 1_555
Mg27 O29 2.128342 1_555
Mg27 O13 2.136028 1_555
Mg27 O12 2.136028 1_555
Mg27 O25 2.150936 1_556
Mg27 O7 2.151408 1_555
Mg28 O4 2.137787 1_655
Mg28 O26 2.138818 1_556
Mg28 O30 2.139439 1_555
Mg28 O6 2.139534 1_555
Mg28 O14 2.141109 1_555
Mg28 O15 2.141109 1_545
Mg29 O5 2.126840 1_655
Mg29 O31 2.128342 1_555
Mg29 O15 2.136028 1_555
Mg29 O14 2.136028 1_555
Mg29 O27 2.150936 1_556
Mg29 O7 2.151408 1_555
O0 Zn0 2.172868 1_555
O3 Si0 2.222666 1_555
O4 Zn0 2.172868 1_556
O7 Si0 2.222666 1_556
O16 Zn0 2.158044 1_555
O17 Zn0 2.158044 1_565
O18 Si0 2.219531 1_555
O19 Si0 2.219531 1_555
O24 Zn0 2.158044 1_555
O25 Si0 2.219531 1_555
O26 Zn0 2.158044 1_655
O27 Si0 2.219531 1_555
