# generated using pymatgen
data_Nb6SnSe8
_symmetry_space_group_name_H-M   'P 1'
_cell_length_a   10.11173218
_cell_length_b   10.11173218
_cell_length_c   3.49885100
_cell_angle_alpha   90.00000000
_cell_angle_beta   90.00000000
_cell_angle_gamma   120.00000120
_symmetry_Int_Tables_number   1
_chemical_formula_structural   Nb6SnSe8
_chemical_formula_sum   'Nb6 Sn1 Se8'
_cell_volume   309.81838923
_cell_formula_units_Z   1
loop_
 _symmetry_equiv_pos_site_id
 _symmetry_equiv_pos_as_xyz
  1  'x, y, z'
loop_
 _atom_site_type_symbol
 _atom_site_label
 _atom_site_symmetry_multiplicity
 _atom_site_fract_x
 _atom_site_fract_y
 _atom_site_fract_z
 _atom_site_occupancy
  Nb  Nb0  1  0.10639700  0.48740400  0.74939400  1
  Nb  Nb1  1  0.51259600  0.61899300  0.74939400  1
  Nb  Nb2  1  0.38100700  0.89360300  0.74939400  1
  Nb  Nb3  1  0.89360300  0.51259600  0.25060600  1
  Nb  Nb4  1  0.48740400  0.38100700  0.25060600  1
  Nb  Nb5  1  0.61899300  0.10639700  0.25060600  1
  Sn  Sn0  1  0.00000000  0.00000000  0.50000000  1
  Se  Se0  1  0.27753100  0.33645800  0.75111900  1
  Se  Se1  1  0.66354200  0.94107200  0.75111900  1
  Se  Se2  1  0.05892800  0.72246900  0.75111900  1
  Se  Se3  1  0.72246900  0.66354200  0.24888100  1
  Se  Se4  1  0.33645800  0.05892800  0.24888100  1
  Se  Se5  1  0.94107200  0.27753100  0.24888100  1
  Se  Se6  1  0.66666700  0.33333300  0.74956800  1
  Se  Se7  1  0.33333300  0.66666700  0.25043200  1
loop_
_geom_bond_atom_site_label_1
_geom_bond_atom_site_label_2
_geom_bond_distance
_geom_bond_site_symmetry_2
Nb0 Se5 2.608605 1_456
Nb0 Se5 2.611011 1_455
Nb0 Se2 2.649728 1_555
Nb0 Se7 2.727584 1_555
Nb0 Se7 2.732238 1_556
Nb0 Se0 2.822313 1_555
Nb1 Se3 2.608602 1_556
Nb1 Se3 2.611009 1_555
Nb1 Se0 2.649734 1_555
Nb1 Se7 2.727589 1_555
Nb1 Se7 2.732244 1_556
Nb1 Se1 2.822304 1_555
Nb2 Se4 2.608610 1_566
Nb2 Se4 2.611016 1_565
Nb2 Se1 2.649738 1_555
Nb2 Se7 2.727581 1_555
Nb2 Se7 2.732236 1_556
Nb2 Se2 2.822304 1_555
Nb3 Se2 2.608605 1_654
Nb3 Se2 2.611011 1_655
Nb3 Se5 2.649728 1_555
Nb3 Se6 2.727584 1_555
Nb3 Se6 2.732238 1_554
Nb3 Se3 2.822313 1_555
Nb4 Se0 2.608602 1_554
Nb4 Se0 2.611009 1_555
Nb4 Se3 2.649734 1_555
Nb4 Se6 2.727589 1_555
Nb4 Se6 2.732244 1_554
Nb4 Se4 2.822304 1_555
Nb5 Se1 2.608610 1_544
Nb5 Se1 2.611016 1_545
Nb5 Se4 2.649738 1_555
Nb5 Se6 2.727581 1_555
Nb5 Se6 2.732236 1_554
Nb5 Se5 2.822304 1_555
Se0 Sn0 3.267203 1_555
Se1 Sn0 3.267199 1_665
Se2 Sn0 3.267209 1_565
Se3 Sn0 3.267203 1_665
Se4 Sn0 3.267199 1_555
Se5 Sn0 3.267209 1_655
