# generated using pymatgen
data_PrAlPd
_symmetry_space_group_name_H-M   'P 1'
_cell_length_a   7.26892320
_cell_length_b   7.26892320
_cell_length_c   4.22646996
_cell_angle_alpha   90.00000000
_cell_angle_beta   90.00000000
_cell_angle_gamma   119.99999965
_symmetry_Int_Tables_number   1
_chemical_formula_structural   PrAlPd
_chemical_formula_sum   'Pr3 Al3 Pd3'
_cell_volume   193.39648686
_cell_formula_units_Z   3
loop_
 _symmetry_equiv_pos_site_id
 _symmetry_equiv_pos_as_xyz
  1  'x, y, z'
loop_
 _atom_site_type_symbol
 _atom_site_label
 _atom_site_symmetry_multiplicity
 _atom_site_fract_x
 _atom_site_fract_y
 _atom_site_fract_z
 _atom_site_occupancy
  Pr  Pr0  1  0.41936474  0.41936474  0.50000000  1
  Pr  Pr1  1  0.58063526  0.00000000  0.50000000  1
  Pr  Pr2  1  0.00000000  0.58063526  0.50000000  1
  Al  Al0  1  0.77432679  0.77432679  0.00000000  1
  Al  Al1  1  0.22567321  -0.00000000  -0.00000000  1
  Al  Al2  1  -0.00000000  0.22567321  -0.00000000  1
  Pd  Pd0  1  0.66666700  0.33333300  -0.00000000  1
  Pd  Pd1  1  0.33333300  0.66666700  -0.00000000  1
  Pd  Pd2  1  -0.00000000  -0.00000000  0.50000000  1
loop_
_geom_bond_atom_site_label_1
_geom_bond_atom_site_label_2
_geom_bond_distance
_geom_bond_site_symmetry_2
Al0 Pd2 2.675197 1_665
Al0 Pd2 2.675197 1_664
Al0 Al1 2.841258 1_665
Al0 Al2 2.841258 1_665
Al0 Pd1 2.894719 1_555
Al0 Pd0 2.894719 1_555
Al0 Pr0 3.335139 1_554
Al0 Pr0 3.335139 1_555
Al0 Pr1 3.383565 1_565
Al0 Pr2 3.383565 1_655
Al0 Pr1 3.383565 1_564
Al0 Pr2 3.383565 1_654
Al1 Pd2 2.675197 1_555
Al1 Pd2 2.675197 1_554
Al1 Al2 2.841258 1_555
Al1 Pd1 2.894712 1_545
Al1 Pd0 2.894717 1_555
Al1 Pr1 3.335139 1_555
Al1 Pr1 3.335139 1_554
Al1 Pr0 3.383565 1_554
Al1 Pr0 3.383565 1_555
Al1 Pr2 3.383565 1_545
Al1 Pr2 3.383565 1_544
Al2 Pd2 2.675197 1_555
Al2 Pd2 2.675197 1_554
Al2 Pd0 2.894712 1_455
Al2 Pd1 2.894717 1_555
Al2 Pr2 3.335139 1_554
Al2 Pr2 3.335139 1_555
Al2 Pr0 3.383565 1_554
Al2 Pr0 3.383565 1_555
Al2 Pr1 3.383565 1_454
Al2 Pr1 3.383565 1_455
Pd0 Pr1 3.035194 1_555
Pd0 Pr1 3.035194 1_554
Pd0 Pr2 3.035195 1_655
Pd0 Pr2 3.035195 1_654
Pd0 Pr0 3.035199 1_554
Pd0 Pr0 3.035199 1_555
Pd1 Pr2 3.035194 1_554
Pd1 Pr2 3.035194 1_555
Pd1 Pr1 3.035195 1_565
Pd1 Pr1 3.035195 1_564
Pd1 Pr0 3.035199 1_554
Pd1 Pr0 3.035199 1_555
Pd2 Pr1 3.048330 1_455
Pd2 Pr2 3.048330 1_545
Pd2 Pr0 3.048330 1_555
