# generated using pymatgen
data_Sm3(AgSn)4
_symmetry_space_group_name_H-M   'P 1'
_cell_length_a   8.84863484
_cell_length_b   8.84863484
_cell_length_c   8.84863484
_cell_angle_alpha   149.72973293
_cell_angle_beta   130.77212261
_cell_angle_gamma   58.88821361
_symmetry_Int_Tables_number   1
_chemical_formula_structural   Sm3(AgSn)4
_chemical_formula_sum   'Sm3 Ag4 Sn4'
_cell_volume   262.44789839
_cell_formula_units_Z   1
loop_
 _symmetry_equiv_pos_site_id
 _symmetry_equiv_pos_as_xyz
  1  'x, y, z'
loop_
 _atom_site_type_symbol
 _atom_site_label
 _atom_site_symmetry_multiplicity
 _atom_site_fract_x
 _atom_site_fract_y
 _atom_site_fract_z
 _atom_site_occupancy
  Sm  Sm0  1  0.37087682  0.87087682  0.50000000  1
  Sm  Sm1  1  0.62912318  0.12912318  0.50000000  1
  Sm  Sm2  1  -0.00000000  0.00000000  -0.00000000  1
  Ag  Ag0  1  0.63392340  0.32930439  0.30462001  1
  Ag  Ag1  1  0.36607660  0.67069561  0.69537999  1
  Ag  Ag2  1  0.02468437  0.32930439  0.69537999  1
  Ag  Ag3  1  0.97531563  0.67069561  0.30462001  1
  Sn  Sn0  1  0.21561248  0.21561248  0.00000000  1
  Sn  Sn1  1  0.78438752  0.78438752  -0.00000000  1
  Sn  Sn2  1  0.69477390  0.50000000  0.19477390  1
  Sn  Sn3  1  0.30522610  0.50000000  0.80522610  1
loop_
_geom_bond_atom_site_label_1
_geom_bond_atom_site_label_2
_geom_bond_distance
_geom_bond_site_symmetry_2
Sm0 Sn0 3.326169 1_555
Sm0 Sn0 3.326169 1_566
Sm0 Sn2 3.370287 1_555
Sm0 Sn2 3.370287 1_566
Sm0 Sn3 3.370287 1_554
Sm0 Sn3 3.370287 1_565
Sm1 Sn1 3.326169 1_545
Sm1 Sn1 3.326169 1_556
Sm1 Sn3 3.370287 1_544
Sm1 Sn3 3.370287 1_555
Sm1 Sn2 3.370287 1_545
Sm1 Sn2 3.370287 1_556
Sm2 Sn3 3.224799 1_544
Sm2 Sn3 3.224799 1_555
Sm2 Sn2 3.224799 1_444
Sm2 Sn2 3.224799 1_455
Sm2 Sn0 3.322893 1_555
Sm2 Sn1 3.322893 1_445
Ag0 Sn2 2.752449 1_555
Ag0 Sn1 2.809069 1_556
Ag0 Sn1 2.809073 1_545
Ag0 Sn0 2.848077 1_555
Ag0 Ag2 2.880275 1_655
Ag0 Sm0 3.284770 1_555
Ag0 Sm0 3.284773 1_544
Ag0 Sm1 3.404650 1_555
Ag1 Sn3 2.752449 1_555
Ag1 Sn0 2.809069 1_555
Ag1 Sn0 2.809073 1_566
Ag1 Sn1 2.848077 1_556
Ag1 Ag3 2.880275 1_455
Ag1 Sm1 3.284770 1_555
Ag1 Sm1 3.284773 1_566
Ag1 Sm0 3.404650 1_555
Ag2 Sn3 2.752443 1_555
Ag2 Sn1 2.809071 1_456
Ag2 Sn1 2.809071 1_445
Ag2 Sn0 2.848084 1_556
Ag2 Sm0 3.284773 1_556
Ag2 Sm0 3.284773 1_545
Ag2 Sm1 3.404656 1_455
Ag3 Sn2 2.752443 1_555
Ag3 Sn0 2.809071 1_655
Ag3 Sn0 2.809071 1_666
Ag3 Sn1 2.848084 1_555
Ag3 Sm1 3.284773 1_554
Ag3 Sm1 3.284773 1_565
Ag3 Sm0 3.404656 1_655
Sn2 Sn3 2.871336 1_554
