# generated using pymatgen
data_NdTiFe11N
_symmetry_space_group_name_H-M   'P 1'
_cell_length_a   4.90370300
_cell_length_b   6.53621946
_cell_length_c   6.53621946
_cell_angle_alpha   97.73237114
_cell_angle_beta   112.03158181
_cell_angle_gamma   67.96841819
_symmetry_Int_Tables_number   1
_chemical_formula_structural   NdTiFe11N
_chemical_formula_sum   'Nd1 Ti1 Fe11 N1'
_cell_volume   180.01320149
_cell_formula_units_Z   1
loop_
 _symmetry_equiv_pos_site_id
 _symmetry_equiv_pos_as_xyz
  1  'x, y, z'
loop_
 _atom_site_type_symbol
 _atom_site_label
 _atom_site_symmetry_multiplicity
 _atom_site_fract_x
 _atom_site_fract_y
 _atom_site_fract_z
 _atom_site_occupancy
  Nd  Nd0  1  0.00629300  0.99370700  0.00629300  1
  Ti  Ti0  1  0.63384500  0.36615500  0.63384500  1
  Fe  Fe0  1  0.72632600  0.77367400  0.22632600  1
  Fe  Fe1  1  0.27633400  0.22366600  0.77633400  1
  Fe  Fe2  1  0.49723400  0.77967600  0.77414400  1
  Fe  Fe3  1  0.49723400  0.22585600  0.22032400  1
  Fe  Fe4  1  0.49999400  0.99726800  0.49859200  1
  Fe  Fe5  1  0.00133000  0.99726800  0.49859200  1
  Fe  Fe6  1  0.49999400  0.50140800  0.00273200  1
  Fe  Fe7  1  0.00133000  0.50140800  0.00273200  1
  Fe  Fe8  1  0.35932300  0.64067700  0.35932300  1
  Fe  Fe9  1  0.99988100  0.36091000  0.36067300  1
  Fe  Fe10  1  0.99988100  0.63932700  0.63909000  1
  N  N0  1  0.50100000  0.99900000  0.00100000  1
loop_
_geom_bond_atom_site_label_1
_geom_bond_atom_site_label_2
_geom_bond_distance
_geom_bond_site_symmetry_2
Nd0 Ti0 3.179891 1_464
Fe0 N0 1.923791 1_555
Fe0 Fe6 2.469746 1_555
Fe0 Fe4 2.469746 1_555
Fe0 Fe7 2.469746 1_655
Fe0 Fe5 2.469746 1_655
Fe0 Fe9 2.624482 1_555
Fe0 Fe10 2.624482 1_555
Fe1 N0 1.918156 1_546
Fe1 Fe6 2.498305 1_556
Fe1 Fe4 2.498305 1_545
Fe1 Fe5 2.498305 1_545
Fe1 Fe7 2.498305 1_556
Fe1 Fe10 2.646518 1_455
Fe1 Fe9 2.646518 1_455
Fe1 Ti0 2.737071 1_555
Fe1 Ti0 2.737071 1_455
Fe2 N0 1.918690 1_556
Fe2 Fe4 2.447199 1_555
Fe2 Fe5 2.447199 1_555
Fe2 Fe6 2.497649 1_556
Fe2 Fe7 2.497649 1_656
Fe2 Ti0 2.651542 1_555
Fe3 N0 1.918690 1_545
Fe3 Fe6 2.447199 1_555
Fe3 Fe7 2.447199 1_555
Fe3 Fe4 2.497649 1_545
Fe3 Fe5 2.497649 1_645
Fe3 Ti0 2.651542 1_555
Fe3 Fe9 2.722913 1_555
Fe3 Fe9 2.722918 1_455
Fe4 Fe5 2.445300 1_555
Fe4 Fe5 2.458403 1_655
Fe4 Fe8 2.626992 1_555
Fe4 Fe9 2.649753 1_465
Fe4 Ti0 2.684079 1_565
Fe4 Nd0 3.223877 1_555
Fe4 Nd0 3.312549 1_656
Fe5 Fe8 2.626993 1_555
Fe5 Fe9 2.649751 1_465
Fe5 Ti0 2.684079 1_465
Fe5 Nd0 3.223876 1_555
Fe5 Nd0 3.312549 1_556
Fe6 Fe7 2.445300 1_555
Fe6 Fe7 2.458403 1_655
Fe6 Fe8 2.626992 1_555
Fe6 Fe9 2.629166 1_555
Fe6 Ti0 2.684079 1_554
Fe6 Nd0 3.223877 1_555
Fe6 Nd0 3.312549 1_645
Fe7 Fe8 2.626993 1_555
Fe7 Fe9 2.629168 1_455
Fe7 Ti0 2.684079 1_454
Fe7 Nd0 3.223876 1_555
Fe7 Nd0 3.312549 1_545
Fe8 Ti0 2.343817 1_555
Fe8 Fe9 2.980731 1_555
Fe8 Fe9 2.980734 1_455
Fe9 Ti0 2.958510 1_555
Fe9 Ti0 2.958514 1_655
Fe9 Nd0 3.103041 1_645
Fe10 Fe9 2.394194 1_555
Fe10 Fe4 2.629166 1_555
Fe10 Fe5 2.629168 1_655
Fe10 Fe7 2.649751 1_656
Fe10 Fe6 2.649753 1_656
Fe10 Fe2 2.722913 1_555
Fe10 Fe2 2.722918 1_655
Fe10 Ti0 2.958510 1_555
Fe10 Ti0 2.958514 1_655
Fe10 Fe8 2.980731 1_555
Fe10 Fe8 2.980734 1_655
Fe10 Nd0 3.103041 1_656
N0 Nd0 2.452268 1_555
N0 Nd0 2.452268 1_655
