# generated using pymatgen
data_KCr20O40
_symmetry_space_group_name_H-M   'P 1'
_cell_length_a   9.95335700
_cell_length_b   9.95335700
_cell_length_c   10.27674444
_cell_angle_alpha   61.03559922
_cell_angle_beta   61.03559922
_cell_angle_gamma   90.00000000
_symmetry_Int_Tables_number   1
_chemical_formula_structural   KCr20O40
_chemical_formula_sum   'K1 Cr20 O40'
_cell_volume   741.87512083
_cell_formula_units_Z   1
loop_
 _symmetry_equiv_pos_site_id
 _symmetry_equiv_pos_as_xyz
  1  'x, y, z'
loop_
 _atom_site_type_symbol
 _atom_site_label
 _atom_site_symmetry_multiplicity
 _atom_site_fract_x
 _atom_site_fract_y
 _atom_site_fract_z
 _atom_site_occupancy
  K  K0  1  0.90000000  0.90000000  0.20000000  1
  Cr  Cr0  1  0.36483100  0.85305600  0.59987000  1
  Cr  Cr1  1  0.76470100  0.25292700  0.80013000  1
  Cr  Cr2  1  0.16456500  0.65263300  0.99993900  1
  Cr  Cr3  1  0.56261300  0.05481300  0.20000000  1
  Cr  Cr4  1  0.96450400  0.45257100  0.40006100  1
  Cr  Cr5  1  0.23738700  0.74518700  0.20000000  1
  Cr  Cr6  1  0.63543500  0.14736700  0.40006100  1
  Cr  Cr7  1  0.03529900  0.54707300  0.59987000  1
  Cr  Cr8  1  0.43516900  0.94694400  0.80013000  1
  Cr  Cr9  1  0.83549600  0.34742900  0.99993900  1
  Cr  Cr10  1  0.45257100  0.63543500  0.40006100  1
  Cr  Cr11  1  0.85305600  0.03529900  0.59987000  1
  Cr  Cr12  1  0.25292700  0.43516900  0.80013000  1
  Cr  Cr13  1  0.65263300  0.83549600  0.99993900  1
  Cr  Cr14  1  0.05481300  0.23738700  0.20000000  1
  Cr  Cr15  1  0.14736700  0.96450400  0.40006100  1
  Cr  Cr16  1  0.54707300  0.36483100  0.59987000  1
  Cr  Cr17  1  0.94694400  0.76470100  0.80013000  1
  Cr  Cr18  1  0.34742900  0.16456500  0.99993900  1
  Cr  Cr19  1  0.74518700  0.56261300  0.20000000  1
  O  O0  1  0.36200500  0.66237200  0.60027100  1
  O  O1  1  0.76227600  0.06264200  0.79972900  1
  O  O2  1  0.16218400  0.46289300  0.99981100  1
  O  O3  1  0.56315700  0.86310900  0.20000000  1
  O  O4  1  0.96199500  0.26270400  0.40018900  1
  O  O5  1  0.23684300  0.93689100  0.20000000  1
  O  O6  1  0.63781600  0.33710700  0.40018900  1
  O  O7  1  0.03772400  0.73735800  0.60027100  1
  O  O8  1  0.43799500  0.13762800  0.79972900  1
  O  O9  1  0.83800500  0.53729600  0.99981100  1
  O  O10  1  0.26270400  0.63781600  0.40018900  1
  O  O11  1  0.66237200  0.03772400  0.60027100  1
  O  O12  1  0.06264200  0.43799500  0.79972900  1
  O  O13  1  0.46289300  0.83800500  0.99981100  1
  O  O14  1  0.86310900  0.23684300  0.20000000  1
  O  O15  1  0.33710700  0.96199500  0.40018900  1
  O  O16  1  0.73735800  0.36200500  0.60027100  1
  O  O17  1  0.13762800  0.76227600  0.79972900  1
  O  O18  1  0.53729600  0.16218400  0.99981100  1
  O  O19  1  0.93689100  0.56315700  0.20000000  1
  O  O20  1  0.00623700  0.64362800  0.39841200  1
  O  O21  1  0.40778100  0.04066200  0.59919900  1
  O  O22  1  0.80698000  0.43986200  0.80080100  1
  O  O23  1  0.20464900  0.84204000  0.00158800  1
  O  O24  1  0.60734500  0.24089700  0.20000000  1
  O  O25  1  0.59535100  0.95796000  0.39841200  1
  O  O26  1  0.99302000  0.36013800  0.59919900  1
  O  O27  1  0.39221900  0.75933800  0.80080100  1
  O  O28  1  0.79376300  0.15637200  0.00158800  1
  O  O29  1  0.19265500  0.55910300  0.20000000  1
  O  O30  1  0.24089700  0.19265500  0.20000000  1
  O  O31  1  0.64362800  0.59535100  0.39841200  1
  O  O32  1  0.04066200  0.99302000  0.59919900  1
  O  O33  1  0.43986200  0.39221900  0.80080100  1
  O  O34  1  0.84204000  0.79376300  0.00158800  1
  O  O35  1  0.36013800  0.40778100  0.59919900  1
  O  O36  1  0.75933800  0.80698000  0.80080100  1
  O  O37  1  0.15637200  0.20464900  0.00158800  1
  O  O38  1  0.55910300  0.60734500  0.20000000  1
  O  O39  1  0.95796000  0.00623700  0.39841200  1
loop_
_geom_bond_atom_site_label_1
_geom_bond_atom_site_label_2
_geom_bond_distance
_geom_bond_site_symmetry_2
K0 O37 2.972561 1_665
K0 O31 2.972561 1_555
K0 O25 2.972561 1_555
K0 O23 2.972561 1_655
K0 O28 2.972561 1_565
K0 O20 2.972561 1_655
K0 O34 2.972562 1_555
K0 O39 2.972562 1_565
Cr0 O0 1.896133 1_555
Cr0 O21 1.911627 1_565
Cr0 O17 1.962902 1_555
Cr0 O15 1.963734 1_555
Cr0 O27 1.971789 1_555
Cr0 O25 1.986584 1_555
Cr1 O1 1.896153 1_555
Cr1 O22 1.911627 1_555
Cr1 O16 1.962895 1_555
Cr1 O18 1.963733 1_555
Cr1 O26 1.971788 1_555
Cr1 O28 1.986584 1_556
Cr2 O2 1.889344 1_555
Cr2 O23 1.936767 1_556
Cr2 O27 1.963194 1_555
Cr2 O17 1.963605 1_555
Cr2 O19 1.967130 1_456
Cr2 O29 1.968460 1_556
Cr3 O24 1.904923 1_555
Cr3 O3 1.908106 1_545
Cr3 O15 1.952108 1_545
Cr3 O18 1.952108 1_554
Cr3 O28 1.983144 1_555
Cr3 O25 1.983144 1_545
Cr4 O4 1.889334 1_555
Cr4 O20 1.936777 1_655
Cr4 O26 1.963194 1_555
Cr4 O16 1.963599 1_555
Cr4 O19 1.967130 1_555
Cr4 O29 1.968461 1_655
Cr5 O29 1.904923 1_555
Cr5 O5 1.908106 1_555
Cr5 O13 1.952108 1_554
Cr5 O10 1.952108 1_555
Cr5 O20 1.983144 1_555
Cr5 O23 1.983144 1_555
Cr6 O6 1.889344 1_555
Cr6 O25 1.936767 1_545
Cr6 O21 1.963194 1_555
Cr6 O11 1.963605 1_555
Cr6 O14 1.967130 1_555
Cr6 O24 1.968460 1_555
Cr7 O7 1.896153 1_555
Cr7 O26 1.911627 1_455
Cr7 O12 1.962895 1_555
Cr7 O10 1.963733 1_555
Cr7 O22 1.971788 1_455
Cr7 O20 1.986584 1_555
Cr8 O8 1.896133 1_565
Cr8 O27 1.911627 1_555
Cr8 O11 1.962902 1_565
Cr8 O13 1.963734 1_555
Cr8 O21 1.971789 1_565
Cr8 O23 1.986584 1_556
Cr9 O9 1.889334 1_555
Cr9 O28 1.936777 1_556
Cr9 O22 1.963194 1_555
Cr9 O12 1.963599 1_655
Cr9 O14 1.967130 1_556
Cr9 O24 1.968461 1_556
Cr10 O10 1.889334 1_555
Cr10 O31 1.936777 1_555
Cr10 O35 1.963194 1_555
Cr10 O0 1.963605 1_555
Cr10 O3 1.967130 1_555
Cr10 O38 1.968461 1_555
Cr11 O11 1.896133 1_555
Cr11 O32 1.911627 1_645
Cr11 O1 1.962895 1_555
Cr11 O4 1.963733 1_555
Cr11 O36 1.971789 1_545
Cr11 O39 1.986584 1_555
Cr12 O12 1.896153 1_555
Cr12 O33 1.911627 1_555
Cr12 O0 1.962901 1_555
Cr12 O2 1.963733 1_555
Cr12 O35 1.971789 1_555
Cr12 O37 1.986583 1_556
Cr13 O13 1.889344 1_555
Cr13 O34 1.936767 1_556
Cr13 O36 1.963194 1_555
Cr13 O1 1.963598 1_565
Cr13 O3 1.967130 1_556
Cr13 O38 1.968460 1_556
Cr14 O30 1.904923 1_555
Cr14 O14 1.908106 1_455
Cr14 O2 1.952108 1_554
Cr14 O4 1.952108 1_455
Cr14 O39 1.983144 1_455
Cr14 O37 1.983144 1_555
Cr15 O15 1.889344 1_555
Cr15 O39 1.936767 1_465
Cr15 O32 1.963194 1_555
Cr15 O7 1.963598 1_555
Cr15 O5 1.967130 1_555
Cr15 O30 1.968460 1_565
Cr16 O16 1.896153 1_555
Cr16 O35 1.911627 1_555
Cr16 O8 1.962901 1_555
Cr16 O6 1.963733 1_555
Cr16 O33 1.971789 1_555
Cr16 O31 1.986583 1_555
Cr17 O17 1.896133 1_655
Cr17 O36 1.911627 1_555
Cr17 O7 1.962895 1_655
Cr17 O9 1.963733 1_555
Cr17 O32 1.971789 1_655
Cr17 O34 1.986584 1_556
Cr18 O18 1.889334 1_555
Cr18 O37 1.936777 1_556
Cr18 O33 1.963194 1_555
Cr18 O8 1.963605 1_555
Cr18 O5 1.967130 1_546
Cr18 O30 1.968461 1_556
Cr19 O38 1.904923 1_555
Cr19 O19 1.908106 1_555
Cr19 O6 1.952108 1_555
Cr19 O9 1.952108 1_554
Cr19 O34 1.983144 1_555
Cr19 O31 1.983144 1_555
