# generated using pymatgen
data_Nd2Sb3Pd
_symmetry_space_group_name_H-M   'P 1'
_cell_length_a   9.61338103
_cell_length_b   9.61338103
_cell_length_c   15.99887809
_cell_angle_alpha   90.00000000
_cell_angle_beta   90.00000000
_cell_angle_gamma   90.00000000
_symmetry_Int_Tables_number   1
_chemical_formula_structural   Nd2Sb3Pd
_chemical_formula_sum   'Nd2 Sb3 Pd1'
_cell_volume   1478.56983358
_cell_formula_units_Z   1
loop_
 _symmetry_equiv_pos_site_id
 _symmetry_equiv_pos_as_xyz
  1  'x, y, z'
loop_
 _atom_site_type_symbol
 _atom_site_label
 _atom_site_symmetry_multiplicity
 _atom_site_fract_x
 _atom_site_fract_y
 _atom_site_fract_z
 _atom_site_occupancy
  Nd  Nd0  1  0.50000000  0.50000000  0.15860843  1
  Nd  Nd1  1  0.50000000  0.50000000  0.84139157  1
  Sb  Sb0  1  0.50000000  0.50000000  0.66604812  1
  Sb  Sb1  1  0.50000000  0.50000000  0.33395188  1
  Sb  Sb2  1  0.50000000  0.50000000  0.50000000  1
  Pd  Pd0  1  0.50000000  0.50000000  -0.00000000  1
loop_
_geom_bond_atom_site_label_1
_geom_bond_atom_site_label_2
_geom_bond_distance
_geom_bond_site_symmetry_2
Nd0 Pd0 2.537557 1_555
Nd0 Sb1 2.805298 1_555
Nd1 Pd0 2.537557 1_556
Nd1 Sb0 2.805298 1_555
Sb0 Sb2 2.656584 1_555
Sb1 Sb2 2.656584 1_555
