# generated using pymatgen
data_Cs2S5O12
_symmetry_space_group_name_H-M   'P 1'
_cell_length_a   11.56444200
_cell_length_b   11.56444200
_cell_length_c   11.56444200
_cell_angle_alpha   90.00000000
_cell_angle_beta   90.00000000
_cell_angle_gamma   90.00000000
_symmetry_Int_Tables_number   1
_chemical_formula_structural   Cs2S5O12
_chemical_formula_sum   'Cs8 S20 O48'
_cell_volume   1546.58590172
_cell_formula_units_Z   4
loop_
 _symmetry_equiv_pos_site_id
 _symmetry_equiv_pos_as_xyz
  1  'x, y, z'
loop_
 _atom_site_type_symbol
 _atom_site_label
 _atom_site_symmetry_multiplicity
 _atom_site_fract_x
 _atom_site_fract_y
 _atom_site_fract_z
 _atom_site_occupancy
  Cs  Cs0  1  0.05826000  0.05826000  0.05826000  1
  Cs  Cs1  1  0.44174000  0.94174000  0.55826000  1
  Cs  Cs2  1  0.94174000  0.55826000  0.44174000  1
  Cs  Cs3  1  0.55826000  0.44174000  0.94174000  1
  Cs  Cs4  1  0.81251700  0.81251700  0.81251700  1
  Cs  Cs5  1  0.68748300  0.18748300  0.31251700  1
  Cs  Cs6  1  0.18748300  0.31251700  0.68748300  1
  Cs  Cs7  1  0.31251700  0.68748300  0.18748300  1
  S  S0  1  0.32270100  0.32270100  0.32270100  1
  S  S1  1  0.17729900  0.67729900  0.82270100  1
  S  S2  1  0.67729900  0.82270100  0.17729900  1
  S  S3  1  0.82270100  0.17729900  0.67729900  1
  S  S4  1  0.53861900  0.53861900  0.53861900  1
  S  S5  1  0.96138100  0.46138100  0.03861900  1
  S  S6  1  0.46138100  0.03861900  0.96138100  1
  S  S7  1  0.03861900  0.96138100  0.46138100  1
  S  S8  1  0.01677300  0.21664000  0.38394200  1
  S  S9  1  0.48322700  0.78336000  0.88394200  1
  S  S10  1  0.98322700  0.71664000  0.11605800  1
  S  S11  1  0.38394200  0.01677300  0.21664000  1
  S  S12  1  0.51677300  0.28336000  0.61605800  1
  S  S13  1  0.88394200  0.48322700  0.78336000  1
  S  S14  1  0.11605800  0.98322700  0.71664000  1
  S  S15  1  0.61605800  0.51677300  0.28336000  1
  S  S16  1  0.21664000  0.38394200  0.01677300  1
  S  S17  1  0.71664000  0.11605800  0.98322700  1
  S  S18  1  0.28336000  0.61605800  0.51677300  1
  S  S19  1  0.78336000  0.88394200  0.48322700  1
  O  O0  1  0.01163200  0.07466000  0.35928300  1
  O  O1  1  0.48836800  0.92534000  0.85928300  1
  O  O2  1  0.98836800  0.57466000  0.14071700  1
  O  O3  1  0.35928300  0.01163200  0.07466000  1
  O  O4  1  0.51163200  0.42534000  0.64071700  1
  O  O5  1  0.85928300  0.48836800  0.92534000  1
  O  O6  1  0.14071700  0.98836800  0.57466000  1
  O  O7  1  0.64071700  0.51163200  0.42534000  1
  O  O8  1  0.07466000  0.35928300  0.01163200  1
  O  O9  1  0.57466000  0.14071700  0.98836800  1
  O  O10  1  0.42534000  0.64071700  0.51163200  1
  O  O11  1  0.92534000  0.85928300  0.48836800  1
  O  O12  1  0.02252000  0.75926600  0.22796500  1
  O  O13  1  0.47748000  0.24073400  0.72796500  1
  O  O14  1  0.97748000  0.25926600  0.27203500  1
  O  O15  1  0.22796500  0.02252000  0.75926600  1
  O  O16  1  0.52252000  0.74073400  0.77203500  1
  O  O17  1  0.72796500  0.47748000  0.24073400  1
  O  O18  1  0.27203500  0.97748000  0.25926600  1
  O  O19  1  0.77203500  0.52252000  0.74073400  1
  O  O20  1  0.75926600  0.22796500  0.02252000  1
  O  O21  1  0.25926600  0.27203500  0.97748000  1
  O  O22  1  0.74073400  0.77203500  0.52252000  1
  O  O23  1  0.24073400  0.72796500  0.47748000  1
  O  O24  1  0.13785300  0.23970600  0.41403100  1
  O  O25  1  0.36214700  0.76029400  0.91403100  1
  O  O26  1  0.86214700  0.73970600  0.08596900  1
  O  O27  1  0.41403100  0.13785300  0.23970600  1
  O  O28  1  0.63785300  0.26029400  0.58596900  1
  O  O29  1  0.91403100  0.36214700  0.76029400  1
  O  O30  1  0.08596900  0.86214700  0.73970600  1
  O  O31  1  0.58596900  0.63785300  0.26029400  1
  O  O32  1  0.23970600  0.41403100  0.13785300  1
  O  O33  1  0.73970600  0.08596900  0.86214700  1
  O  O34  1  0.26029400  0.58596900  0.63785300  1
  O  O35  1  0.76029400  0.91403100  0.36214700  1
  O  O36  1  0.25662900  0.51984100  0.43904400  1
  O  O37  1  0.24337100  0.48015900  0.93904400  1
  O  O38  1  0.74337100  0.01984100  0.06095600  1
  O  O39  1  0.43904400  0.25662900  0.51984100  1
  O  O40  1  0.75662900  0.98015900  0.56095600  1
  O  O41  1  0.93904400  0.24337100  0.48015900  1
  O  O42  1  0.06095600  0.74337100  0.01984100  1
  O  O43  1  0.56095600  0.75662900  0.98015900  1
  O  O44  1  0.51984100  0.43904400  0.25662900  1
  O  O45  1  0.01984100  0.06095600  0.74337100  1
  O  O46  1  0.98015900  0.56095600  0.75662900  1
  O  O47  1  0.48015900  0.93904400  0.24337100  1
loop_
_geom_bond_atom_site_label_1
_geom_bond_atom_site_label_2
_geom_bond_distance
_geom_bond_site_symmetry_2
Cs0 O21 3.519631 1_554
Cs0 O18 3.519631 1_545
Cs0 O14 3.519631 1_455
Cs0 O0 3.527780 1_555
Cs0 O8 3.527780 1_555
Cs0 O3 3.527780 1_555
Cs0 O45 3.668652 1_554
Cs0 O42 3.668652 1_545
Cs0 O38 3.668652 1_455
Cs1 O16 3.519631 1_555
Cs1 O23 3.519631 1_555
Cs1 O15 3.519631 1_565
Cs1 O1 3.527780 1_555
Cs1 O10 3.527780 1_555
Cs1 O6 3.527780 1_555
Cs1 O47 3.668652 1_555
Cs1 O40 3.668652 1_555
Cs1 O39 3.668652 1_565
Cs2 O22 3.519631 1_555
Cs2 O17 3.519631 1_555
Cs2 O12 3.519631 1_655
Cs2 O7 3.527780 1_555
Cs2 O11 3.527780 1_555
Cs2 O2 3.527780 1_555
Cs2 O41 3.668652 1_555
Cs2 O46 3.668652 1_555
Cs2 O36 3.668652 1_655
Cs3 O19 3.519631 1_555
Cs3 O13 3.519631 1_555
Cs3 O20 3.519631 1_556
Cs3 O4 3.527780 1_555
Cs3 O5 3.527780 1_555
Cs3 O9 3.527780 1_555
Cs3 O44 3.668652 1_556
Cs3 O43 3.668652 1_555
Cs3 O37 3.668652 1_555
Cs4 O33 3.322450 1_565
Cs4 O30 3.322450 1_655
Cs4 O26 3.322450 1_556
Cs4 O22 3.486441 1_555
Cs4 O19 3.486441 1_555
Cs4 O16 3.486441 1_555
Cs4 O46 3.555201 1_555
Cs4 O43 3.555201 1_555
Cs4 O40 3.555201 1_555
Cs5 O27 3.322450 1_555
Cs5 O28 3.322450 1_555
Cs5 O35 3.322450 1_545
Cs5 O20 3.486441 1_555
Cs5 O17 3.486441 1_555
Cs5 O14 3.486441 1_555
Cs5 O44 3.555201 1_555
Cs5 O38 3.555201 1_555
Cs5 O41 3.555201 1_555
Cs6 O24 3.322450 1_555
Cs6 O34 3.322450 1_555
Cs6 O29 3.322450 1_455
Cs6 O13 3.486441 1_555
Cs6 O15 3.486441 1_555
Cs6 O21 3.486441 1_555
Cs6 O39 3.555201 1_555
Cs6 O45 3.555201 1_555
Cs6 O37 3.555201 1_555
Cs7 O31 3.322450 1_555
Cs7 O32 3.322450 1_555
Cs7 O25 3.322450 1_554
Cs7 O23 3.486441 1_555
Cs7 O12 3.486441 1_555
Cs7 O18 3.486441 1_555
Cs7 O36 3.555201 1_555
Cs7 O42 3.555201 1_555
Cs7 O47 3.555201 1_555
O0 S8 1.667560 1_555
O0 S7 1.790974 1_545
O1 S9 1.667560 1_555
O1 S6 1.790974 1_565
O2 S10 1.667560 1_555
O2 S5 1.790974 1_555
O3 S11 1.667560 1_555
O3 S6 1.790974 1_554
O4 S12 1.667560 1_555
O4 S4 1.790974 1_555
O5 S13 1.667560 1_555
O5 S5 1.790974 1_556
O6 S14 1.667560 1_555
O6 S7 1.790974 1_555
O7 S15 1.667560 1_555
O7 S4 1.790974 1_555
O8 S16 1.667560 1_555
O8 S5 1.790974 1_455
O9 S17 1.667560 1_555
O9 S6 1.790974 1_555
O10 S18 1.667560 1_555
O10 S4 1.790974 1_555
O11 S19 1.667560 1_555
O11 S7 1.790974 1_655
O12 S10 1.457491 1_455
O13 S12 1.457491 1_555
O14 S8 1.457491 1_655
O15 S14 1.457491 1_545
O16 S9 1.457491 1_555
O17 S15 1.457491 1_555
O18 S11 1.457491 1_565
O19 S13 1.457491 1_555
O20 S17 1.457491 1_554
O21 S16 1.457491 1_556
O22 S19 1.457491 1_555
O23 S18 1.457491 1_555
O24 S8 1.467261 1_555
O25 S9 1.467261 1_555
O26 S10 1.467261 1_555
O27 S11 1.467261 1_555
O28 S12 1.467261 1_555
O29 S13 1.467261 1_555
O30 S14 1.467261 1_555
O31 S15 1.467261 1_555
O32 S16 1.467261 1_555
O33 S17 1.467261 1_555
O34 S18 1.467261 1_555
O35 S19 1.467261 1_555
O36 S18 1.463441 1_555
O37 S16 1.463441 1_556
O38 S17 1.463441 1_554
O39 S12 1.463441 1_555
O40 S19 1.463441 1_555
O41 S8 1.463441 1_655
O42 S10 1.463441 1_455
O43 S9 1.463441 1_555
O44 S15 1.463441 1_555
O45 S14 1.463441 1_545
O46 S13 1.463441 1_555
O47 S11 1.463441 1_565
