# generated using pymatgen
data_Li9Mn2Co5O16
_symmetry_space_group_name_H-M   'P 1'
_cell_length_a   5.07076000
_cell_length_b   5.13531152
_cell_length_c   11.69635909
_cell_angle_alpha   90.52599027
_cell_angle_beta   91.08265493
_cell_angle_gamma   109.09846687
_symmetry_Int_Tables_number   1
_chemical_formula_structural   Li9Mn2Co5O16
_chemical_formula_sum   'Li9 Mn2 Co5 O16'
_cell_volume   287.71860051
_cell_formula_units_Z   1
loop_
 _symmetry_equiv_pos_site_id
 _symmetry_equiv_pos_as_xyz
  1  'x, y, z'
loop_
 _atom_site_type_symbol
 _atom_site_label
 _atom_site_symmetry_multiplicity
 _atom_site_fract_x
 _atom_site_fract_y
 _atom_site_fract_z
 _atom_site_occupancy
  Li  Li0  1  0.00455900  0.50409800  0.12390600  1
  Li  Li1  1  0.50332000  0.49582300  0.24690400  1
  Li  Li2  1  0.00427600  0.50314100  0.37090500  1
  Li  Li3  1  0.49974200  0.49950700  0.49456100  1
  Li  Li4  1  0.00554300  0.50161700  0.62401400  1
  Li  Li5  1  0.50115800  0.49881700  0.75238700  1
  Li  Li6  1  0.98919600  0.49378100  0.87949500  1
  Li  Li7  1  0.49715300  0.50252200  0.00814800  1
  Li  Li8  1  0.50192300  0.00285400  0.12526500  1
  Mn  Mn0  1  0.99436400  0.99013800  0.00221200  1
  Mn  Mn1  1  0.50264300  0.00421700  0.62545000  1
  Co  Co0  1  0.99766700  0.01485100  0.24505700  1
  Co  Co1  1  0.49309300  0.99741500  0.36536800  1
  Co  Co2  1  0.00027800  0.00154600  0.49385800  1
  Co  Co3  1  0.99369600  0.99772600  0.75191500  1
  Co  Co4  1  0.49670800  0.99585600  0.88466800  1
  O  O0  1  0.23323900  0.76813600  0.99365800  1
  O  O1  1  0.77613800  0.76731100  0.11862300  1
  O  O2  1  0.25434400  0.77307900  0.25740500  1
  O  O3  1  0.76786600  0.76944700  0.38037200  1
  O  O4  1  0.26786500  0.77572000  0.50691700  1
  O  O5  1  0.75348400  0.78281300  0.63162700  1
  O  O6  1  0.26370800  0.78495000  0.74537100  1
  O  O7  1  0.74989200  0.75905000  0.88002700  1
  O  O8  1  0.76174100  0.23492800  0.25536400  1
  O  O9  1  0.25252300  0.24092800  0.37637900  1
  O  O10  1  0.73666800  0.22436100  0.50759300  1
  O  O11  1  0.25787800  0.22630700  0.62277600  1
  O  O12  1  0.74456800  0.22522600  0.74682200  1
  O  O13  1  0.21965900  0.21312000  0.87463400  1
  O  O14  1  0.75002700  0.21946900  0.99196500  1
  O  O15  1  0.22508000  0.23124500  0.11634900  1
loop_
_geom_bond_atom_site_label_1
_geom_bond_atom_site_label_2
_geom_bond_distance
_geom_bond_site_symmetry_2
Li0 O1 2.048361 1_455
Li0 O15 2.061137 1_555
Li0 O0 2.140039 1_554
Li0 O2 2.165913 1_555
Li0 O8 2.188079 1_455
Li0 O14 2.198326 1_454
Li1 O9 2.154972 1_555
Li1 O8 2.160628 1_555
Li1 O15 2.189633 1_555
Li1 O2 2.194336 1_555
Li1 O3 2.204096 1_555
Li1 O1 2.227892 1_555
Li2 O8 2.007600 1_455
Li2 O2 2.058884 1_555
Li2 O3 2.096331 1_455
Li2 O9 2.123583 1_555
Li2 O4 2.220609 1_555
Li2 O10 2.302104 1_455
Li3 O9 2.014205 1_555
Li3 O3 2.103146 1_555
Li3 O4 2.123530 1_555
Li3 O10 2.137968 1_555
Li3 O11 2.168772 1_555
Li3 O5 2.235301 1_555
Li4 O10 2.089076 1_455
Li4 O6 2.119195 1_555
Li4 O4 2.122624 1_555
Li4 O12 2.170069 1_455
Li4 O11 2.195531 1_555
Li4 O5 2.221819 1_455
Li5 O7 2.096366 1_555
Li5 O11 2.130506 1_555
Li5 O12 2.153547 1_555
Li5 O5 2.155013 1_555
Li5 O6 2.184442 1_555
Li5 O13 2.231522 1_555
Li6 O0 2.015308 1_655
Li6 O14 2.040111 1_555
Li6 O7 2.100009 1_555
Li6 O13 2.132932 1_655
Li6 O12 2.148772 1_555
Li6 O6 2.323353 1_655
Li7 O1 2.039559 1_555
Li7 O15 2.070350 1_555
Li7 O7 2.151171 1_554
Li7 O0 2.206881 1_554
Li7 O14 2.239794 1_554
Li7 O13 2.265663 1_554
Li8 O8 2.082080 1_555
Li8 O15 2.105060 1_555
Li8 O14 2.107416 1_554
Li8 O0 2.119115 1_544
Li8 O2 2.120039 1_545
Li8 O1 2.122625 1_545
Mn0 O1 1.909121 1_555
Mn0 O15 1.909619 1_665
Mn0 O0 1.919128 1_654
Mn0 O14 1.971846 1_564
Mn0 O7 1.981578 1_554
Mn0 O13 2.020578 1_664
Mn1 O4 1.926113 1_545
Mn1 O11 1.941043 1_555
Mn1 O10 1.949118 1_555
Mn1 O12 1.949825 1_555
Mn1 O5 1.964741 1_545
Mn1 O6 1.975775 1_545
Co0 O8 1.900184 1_555
Co0 O1 2.008223 1_545
Co0 O15 2.022048 1_655
Co0 O9 2.070663 1_655
Co0 O2 2.076065 1_645
Co0 O3 2.143894 1_545
Co1 O2 1.841271 1_555
Co1 O8 2.001654 1_565
Co1 O9 2.017347 1_565
Co1 O3 2.098697 1_555
Co1 O10 2.143790 1_565
Co1 O4 2.143994 1_555
Co2 O3 1.887874 1_445
Co2 O9 2.025782 1_555
Co2 O10 2.031612 1_455
Co2 O11 2.054055 1_555
Co2 O4 2.057771 1_545
Co2 O5 2.148016 1_445
Co3 O13 1.917282 1_665
Co3 O5 1.925666 1_555
Co3 O12 1.982043 1_565
Co3 O6 2.013907 1_655
Co3 O7 2.094788 1_555
Co3 O11 2.129300 1_665
Co4 O14 1.868421 1_565
Co4 O0 1.961336 1_555
Co4 O7 2.037912 1_555
Co4 O13 2.062539 1_565
Co4 O6 2.069045 1_555
Co4 O12 2.170079 1_565
