# generated using pymatgen
data_Mn3Sb(PO4)4
_symmetry_space_group_name_H-M   'P 1'
_cell_length_a   7.95773806
_cell_length_b   11.09472357
_cell_length_c   7.95749741
_cell_angle_alpha   74.41825845
_cell_angle_beta   78.65072107
_cell_angle_gamma   105.55992636
_symmetry_Int_Tables_number   1
_chemical_formula_structural   Mn3Sb(PO4)4
_chemical_formula_sum   'Mn6 Sb2 P8 O32'
_cell_volume   623.97577200
_cell_formula_units_Z   2
loop_
 _symmetry_equiv_pos_site_id
 _symmetry_equiv_pos_as_xyz
  1  'x, y, z'
loop_
 _atom_site_type_symbol
 _atom_site_label
 _atom_site_symmetry_multiplicity
 _atom_site_fract_x
 _atom_site_fract_y
 _atom_site_fract_z
 _atom_site_occupancy
  Mn  Mn0  1  0.32617500  0.78960200  0.92386100  1
  Mn  Mn1  1  0.77398400  0.70938500  0.98021800  1
  Mn  Mn2  1  0.27007800  0.70930600  0.47607000  1
  Mn  Mn3  1  0.70696000  0.21892700  0.04516800  1
  Mn  Mn4  1  0.20456400  0.21870200  0.54322400  1
  Mn  Mn5  1  0.80702100  0.78371500  0.44306100  1
  Sb  Sb0  1  0.74756800  0.28416900  0.50243500  1
  Sb  Sb1  1  0.23994700  0.28741800  0.01023500  1
  P  P0  1  0.48475000  0.60596100  0.76521100  1
  P  P1  1  0.97959700  0.60281700  0.27025100  1
  P  P2  1  0.38083100  0.10061000  0.86917000  1
  P  P3  1  0.85551200  0.08589600  0.39448500  1
  P  P4  1  0.11369700  0.89066900  0.63641500  1
  P  P5  1  0.61367000  0.89079200  0.13618700  1
  P  P6  1  0.02463800  0.41295000  0.70644600  1
  P  P7  1  0.54350800  0.41299200  0.22547500  1
  O  O0  1  0.44617000  0.45593700  0.80375000  1
  O  O1  1  0.93810200  0.44690400  0.31195300  1
  O  O2  1  0.67485500  0.38443500  0.09005500  1
  O  O3  1  0.15997200  0.38428900  0.57515500  1
  O  O4  1  0.95330700  0.86692800  0.80219300  1
  O  O5  1  0.44766700  0.86689200  0.29646300  1
  O  O6  1  0.75374000  0.93768200  0.49624000  1
  O  O7  1  0.29545100  0.94952500  0.95456000  1
  O  O8  1  0.71048000  0.03911800  0.03951300  1
  O  O9  1  0.21063600  0.03901800  0.53954100  1
  O  O10  1  0.54793600  0.13206300  0.70214200  1
  O  O11  1  0.01434600  0.11059800  0.23585900  1
  O  O12  1  0.83676900  0.62117200  0.41328900  1
  O  O13  1  0.33994800  0.62379000  0.91011300  1
  O  O14  1  0.07352200  0.56356100  0.66685000  1
  O  O15  1  0.58280900  0.56358900  0.17662000  1
  O  O16  1  0.48183800  0.67466400  0.56790700  1
  O  O17  1  0.97833400  0.66570300  0.07178400  1
  O  O18  1  0.68205300  0.67467000  0.76782200  1
  O  O19  1  0.17816600  0.66576800  0.27093800  1
  O  O20  1  0.24195400  0.16817700  0.81298800  1
  O  O21  1  0.72121400  0.16635300  0.33755100  1
  O  O22  1  0.43699800  0.16815000  0.00810000  1
  O  O23  1  0.91239200  0.16619800  0.52895900  1
  O  O24  1  0.04870300  0.82247500  0.50033400  1
  O  O25  1  0.55305500  0.82002100  0.99976200  1
  O  O26  1  0.25011300  0.81991000  0.69722500  1
  O  O27  1  0.74966800  0.82257200  0.20132500  1
  O  O28  1  0.81721200  0.35050800  0.69697200  1
  O  O29  1  0.33958200  0.33735500  0.25283000  1
  O  O30  1  0.99730700  0.33742600  0.91042400  1
  O  O31  1  0.55319400  0.35063500  0.43287300  1
loop_
_geom_bond_atom_site_label_1
_geom_bond_atom_site_label_2
_geom_bond_distance
_geom_bond_site_symmetry_2
Mn0 O13 1.902583 1_555
Mn0 O7 1.926053 1_555
Mn0 O26 1.986183 1_555
Mn0 O25 1.987496 1_555
Mn0 O19 2.591482 1_556
Mn0 O17 2.596947 1_456
Mn1 O4 1.906386 1_555
Mn1 O15 1.938907 1_556
Mn1 O17 2.027225 1_556
Mn1 O18 2.055551 1_555
Mn1 O25 2.403016 1_555
Mn1 O27 2.427649 1_556
Mn2 O5 1.906225 1_555
Mn2 O14 1.937956 1_555
Mn2 O19 2.033905 1_555
Mn2 O16 2.050050 1_555
Mn2 O26 2.404748 1_555
Mn2 O24 2.429027 1_555
Mn3 O8 2.015011 1_555
Mn3 O2 2.032944 1_555
Mn3 O22 2.169999 1_555
Mn3 O30 2.203302 1_554
Mn3 O21 2.275220 1_555
Mn3 O28 2.600219 1_554
Mn4 O9 2.014925 1_555
Mn4 O3 2.032390 1_555
Mn4 O20 2.169160 1_555
Mn4 O29 2.203855 1_555
Mn4 O23 2.273930 1_455
Mn4 O31 2.604315 1_555
Mn5 O12 1.949561 1_555
Mn5 O6 1.995787 1_555
Mn5 O24 2.024365 1_655
Mn5 O27 2.024853 1_555
Mn5 O18 2.407187 1_555
Mn5 O16 2.410368 1_555
O0 P0 1.540566 1_555
O0 Sb1 2.128571 1_556
O1 P1 1.597953 1_555
O1 Sb0 2.003211 1_555
O2 P7 1.507279 1_555
O3 P6 1.507251 1_555
O4 P4 1.552079 1_655
O5 P5 1.552191 1_555
O6 P3 1.525675 1_565
O7 P2 1.525952 1_565
O8 P5 1.516542 1_545
O9 P4 1.517055 1_545
O10 P2 1.569363 1_555
O10 Sb0 2.006093 1_555
O11 P3 1.505454 1_455
O11 Sb1 2.290140 1_555
O12 P1 1.538957 1_555
O13 P0 1.555101 1_555
O14 P6 1.537198 1_555
O15 P7 1.537359 1_555
O16 P0 1.558031 1_555
O17 P1 1.548913 1_555
O18 P0 1.557543 1_555
O19 P1 1.548580 1_455
O20 P2 1.562706 1_555
O20 Sb1 2.308912 1_556
O21 P3 1.621517 1_555
O21 Sb0 2.087270 1_555
O22 P2 1.563117 1_554
O22 Sb1 2.307581 1_555
O23 P3 1.621774 1_555
O23 Sb0 2.087959 1_555
O24 P4 1.569447 1_555
O25 P5 1.577514 1_556
O26 P4 1.577587 1_555
O27 P5 1.569156 1_555
O28 P6 1.635171 1_655
O28 Sb0 1.994035 1_555
O29 P7 1.554761 1_555
O29 Sb1 2.367183 1_555
O30 P6 1.554561 1_655
O30 Sb1 2.368224 1_656
O31 P7 1.635107 1_555
O31 Sb0 1.993075 1_555
