# generated using pymatgen
data_YNiP
_symmetry_space_group_name_H-M   'P 1'
_cell_length_a   3.87082743
_cell_length_b   3.87082743
_cell_length_c   15.56362152
_cell_angle_alpha   90.00000000
_cell_angle_beta   90.00000000
_cell_angle_gamma   120.00771899
_symmetry_Int_Tables_number   1
_chemical_formula_structural   YNiP
_chemical_formula_sum   'Y4 Ni4 P4'
_cell_volume   201.93664042
_cell_formula_units_Z   4
loop_
 _symmetry_equiv_pos_site_id
 _symmetry_equiv_pos_as_xyz
  1  'x, y, z'
loop_
 _atom_site_type_symbol
 _atom_site_label
 _atom_site_symmetry_multiplicity
 _atom_site_fract_x
 _atom_site_fract_y
 _atom_site_fract_z
 _atom_site_occupancy
  Y  Y0  1  -0.00000000  -0.00000000  0.50000000  1
  Y  Y1  1  -0.00000000  -0.00000000  -0.00000000  1
  Y  Y2  1  0.99968974  0.00031026  0.75000000  1
  Y  Y3  1  0.00031026  0.99968974  0.25000000  1
  Ni  Ni0  1  0.66639705  0.33360295  0.62828211  1
  Ni  Ni1  1  0.33360295  0.66639705  0.37171789  1
  Ni  Ni2  1  0.33360295  0.66639705  0.12828211  1
  Ni  Ni3  1  0.66639705  0.33360295  0.87171789  1
  P  P0  1  0.66692691  0.33307309  0.12303410  1
  P  P1  1  0.33307309  0.66692691  0.87696590  1
  P  P2  1  0.33307309  0.66692691  0.62303410  1
  P  P3  1  0.66692691  0.33307309  0.37696590  1
loop_
_geom_bond_atom_site_label_1
_geom_bond_atom_site_label_2
_geom_bond_distance
_geom_bond_site_symmetry_2
Ni0 P2 2.236173 1_545
Ni0 P2 2.236173 1_655
Ni0 P2 2.236339 1_555
Ni0 Y2 2.929547 1_555
Ni0 Y2 2.929660 1_455
Ni0 Y2 2.929660 1_565
Ni0 Y0 2.995959 1_555
Ni0 Y0 2.995959 1_665
Ni0 Y0 2.998175 1_655
Ni1 P3 2.236173 1_565
Ni1 P3 2.236173 1_455
Ni1 P3 2.236339 1_555
Ni1 Y3 2.929547 1_555
Ni1 Y3 2.929660 1_545
Ni1 Y3 2.929660 1_655
Ni1 Y0 2.995959 1_555
Ni1 Y0 2.995959 1_665
Ni1 Y0 2.998175 1_565
Ni2 P0 2.236173 1_455
Ni2 P0 2.236173 1_565
Ni2 P0 2.236339 1_555
Ni2 Y3 2.929547 1_555
Ni2 Y3 2.929660 1_655
Ni2 Y3 2.929660 1_545
Ni2 Y1 2.995959 1_665
Ni2 Y1 2.995959 1_555
Ni2 Y1 2.998175 1_565
Ni3 P1 2.236173 1_655
Ni3 P1 2.236173 1_545
Ni3 P1 2.236339 1_555
Ni3 Y2 2.929547 1_555
Ni3 Y2 2.929660 1_455
Ni3 Y2 2.929660 1_565
Ni3 Y1 2.995959 1_556
Ni3 Y1 2.995959 1_666
Ni3 Y1 2.998175 1_656
P0 Y1 2.941717 1_655
P0 Y1 2.943507 1_665
P0 Y1 2.943507 1_555
P0 Y3 2.982898 1_655
P0 Y3 2.982898 1_545
P0 Y3 2.983470 1_645
P1 Y1 2.941717 1_566
P1 Y1 2.943507 1_666
P1 Y1 2.943507 1_556
P1 Y2 2.982898 1_565
P1 Y2 2.982898 1_455
P1 Y2 2.983470 1_465
P2 Y0 2.941717 1_565
P2 Y0 2.943507 1_665
P2 Y0 2.943507 1_555
P2 Y2 2.982898 1_565
P2 Y2 2.982898 1_455
P2 Y2 2.983470 1_465
P3 Y0 2.941717 1_655
P3 Y0 2.943507 1_555
P3 Y0 2.943507 1_665
P3 Y3 2.982898 1_655
P3 Y3 2.982898 1_545
P3 Y3 2.983470 1_645
