# generated using pymatgen
data_PrAl3Ag
_symmetry_space_group_name_H-M   'P 1'
_cell_length_a   4.30529805
_cell_length_b   4.30529805
_cell_length_c   6.32560899
_cell_angle_alpha   70.13945489
_cell_angle_beta   70.13946475
_cell_angle_gamma   90.03529006
_symmetry_Int_Tables_number   1
_chemical_formula_structural   PrAl3Ag
_chemical_formula_sum   'Pr1 Al3 Ag1'
_cell_volume   102.82013018
_cell_formula_units_Z   1
loop_
 _symmetry_equiv_pos_site_id
 _symmetry_equiv_pos_as_xyz
  1  'x, y, z'
loop_
 _atom_site_type_symbol
 _atom_site_label
 _atom_site_symmetry_multiplicity
 _atom_site_fract_x
 _atom_site_fract_y
 _atom_site_fract_z
 _atom_site_occupancy
  Pr  Pr0  1  0.98747539  0.98747539  0.02475736  1
  Al  Al0  1  0.74876186  0.24870085  0.50260943  1
  Al  Al1  1  0.24870085  0.74876186  0.50260943  1
  Al  Al2  1  0.39393305  0.39393305  0.21196769  1
  Ag  Ag0  1  0.62112786  0.62112786  0.75805811  1
loop_
_geom_bond_atom_site_label_1
_geom_bond_atom_site_label_2
_geom_bond_distance
_geom_bond_site_symmetry_2
Al0 Al2 2.689442 1_555
Al0 Al2 2.689486 1_655
Al0 Pr0 3.414427 1_545
Al0 Pr0 3.414998 1_555
Al0 Pr0 3.607515 1_546
Al0 Pr0 3.610047 1_446
Al1 Al2 2.689442 1_555
Al1 Al2 2.689486 1_565
Al1 Pr0 3.414426 1_455
Al1 Pr0 3.414998 1_555
Al1 Pr0 3.607516 1_456
Al1 Pr0 3.610046 1_446
Al2 Pr0 3.215454 1_445
Al2 Pr0 3.215889 1_555
Al2 Pr0 3.217446 1_455
Al2 Pr0 3.217447 1_545
Ag0 Al2 2.517917 1_556
Ag0 Al0 2.577126 1_565
Ag0 Al1 2.577126 1_655
Ag0 Al1 2.577227 1_555
Ag0 Al0 2.577227 1_555
Ag0 Pr0 3.381460 1_556
Ag0 Pr0 3.385589 1_546
Ag0 Pr0 3.385590 1_456
Ag0 Pr0 3.386344 1_446
