# generated using pymatgen
data_EuEr
_symmetry_space_group_name_H-M   'P 1'
_cell_length_a   7.32019899
_cell_length_b   7.32019899
_cell_length_c   12.10805000
_cell_angle_alpha   90.00000000
_cell_angle_beta   90.00000000
_cell_angle_gamma   119.99999091
_symmetry_Int_Tables_number   1
_chemical_formula_structural   EuEr
_chemical_formula_sum   'Eu8 Er8'
_cell_volume   561.88915724
_cell_formula_units_Z   8
loop_
 _symmetry_equiv_pos_site_id
 _symmetry_equiv_pos_as_xyz
  1  'x, y, z'
loop_
 _atom_site_type_symbol
 _atom_site_label
 _atom_site_symmetry_multiplicity
 _atom_site_fract_x
 _atom_site_fract_y
 _atom_site_fract_z
 _atom_site_occupancy
  Eu  Eu0_0  1  0.00000000  0.00000000  0.00000000  1
  Eu  Eu0_1  1  0.00000000  0.00000000  0.50000000  1
  Eu  Eu0_2  1  0.00000000  0.50000000  0.00000000  1
  Eu  Eu0_3  1  0.00000000  0.50000000  0.50000000  1
  Eu  Eu0_4  1  0.50000000  0.00000000  0.00000000  1
  Eu  Eu0_5  1  0.50000000  0.00000000  0.50000000  1
  Eu  Eu0_6  1  0.50000000  0.50000000  0.00000000  1
  Eu  Eu0_7  1  0.50000000  0.50000000  0.50000000  1
  Er  Er0_0  1  0.16666650  0.33333350  0.25000000  1
  Er  Er0_1  1  0.16666650  0.33333350  0.75000000  1
  Er  Er0_2  1  0.16666650  0.83333350  0.25000000  1
  Er  Er0_3  1  0.16666650  0.83333350  0.75000000  1
  Er  Er0_4  1  0.66666650  0.33333350  0.25000000  1
  Er  Er0_5  1  0.66666650  0.33333350  0.75000000  1
  Er  Er0_6  1  0.66666650  0.83333350  0.25000000  1
  Er  Er0_7  1  0.66666650  0.83333350  0.75000000  1
loop_
_geom_bond_atom_site_label_1
_geom_bond_atom_site_label_2
_geom_bond_distance
_geom_bond_site_symmetry_2
Eu0_0 Eu0_4 3.660099 1_455
Eu0_0 Eu0_4 3.660099 1_555
Eu0_0 Eu0_2 3.660099 1_555
Eu0_0 Eu0_2 3.660099 1_545
Eu0_0 Eu0_6 3.660100 1_555
Eu0_0 Eu0_6 3.660100 1_445
Eu0_1 Eu0_5 3.660099 1_555
Eu0_1 Eu0_3 3.660099 1_545
Eu0_1 Eu0_3 3.660099 1_555
Eu0_1 Eu0_5 3.660099 1_455
Eu0_1 Eu0_7 3.660100 1_445
Eu0_1 Eu0_7 3.660100 1_555
Eu0_2 Eu0_6 3.660099 1_455
Eu0_2 Eu0_6 3.660099 1_555
Eu0_2 Eu0_4 3.660100 1_565
Eu0_2 Eu0_4 3.660100 1_455
Eu0_3 Eu0_7 3.660099 1_455
Eu0_3 Eu0_7 3.660099 1_555
Eu0_3 Eu0_5 3.660100 1_565
Eu0_3 Eu0_5 3.660100 1_455
Eu0_4 Eu0_6 3.660099 1_545
Eu0_4 Eu0_6 3.660099 1_555
Eu0_5 Eu0_7 3.660099 1_545
Eu0_5 Eu0_7 3.660099 1_555
Er0_0 Er0_2 3.660099 1_545
Er0_0 Er0_4 3.660099 1_555
Er0_0 Er0_2 3.660099 1_555
Er0_0 Er0_4 3.660099 1_455
Er0_0 Er0_6 3.660100 1_445
Er0_0 Er0_6 3.660100 1_555
Er0_0 Eu0_2 3.691644 1_555
Er0_0 Eu0_3 3.691644 1_555
Er0_0 Eu0_1 3.691646 1_555
Er0_0 Eu0_0 3.691646 1_555
Er0_0 Eu0_6 3.691646 1_555
Er0_0 Eu0_7 3.691646 1_555
Er0_1 Er0_3 3.660099 1_545
Er0_1 Er0_3 3.660099 1_555
Er0_1 Er0_5 3.660099 1_455
Er0_1 Er0_5 3.660099 1_555
Er0_1 Er0_7 3.660100 1_445
Er0_1 Er0_7 3.660100 1_555
Er0_1 Eu0_2 3.691644 1_556
Er0_1 Eu0_3 3.691644 1_555
Er0_1 Eu0_6 3.691646 1_556
Er0_1 Eu0_0 3.691646 1_556
Er0_1 Eu0_7 3.691646 1_555
Er0_1 Eu0_1 3.691646 1_555
Er0_2 Er0_6 3.660099 1_455
Er0_2 Er0_6 3.660099 1_555
Er0_2 Er0_4 3.660100 1_565
Er0_2 Er0_4 3.660100 1_455
Er0_2 Eu0_0 3.691644 1_565
Er0_2 Eu0_1 3.691644 1_565
Er0_2 Eu0_3 3.691646 1_555
Er0_2 Eu0_4 3.691646 1_565
Er0_2 Eu0_2 3.691646 1_555
Er0_2 Eu0_5 3.691646 1_565
Er0_3 Er0_7 3.660099 1_555
Er0_3 Er0_7 3.660099 1_455
Er0_3 Er0_5 3.660100 1_565
Er0_3 Er0_5 3.660100 1_455
Er0_3 Eu0_0 3.691644 1_566
Er0_3 Eu0_1 3.691644 1_565
Er0_3 Eu0_2 3.691646 1_556
Er0_3 Eu0_4 3.691646 1_566
Er0_3 Eu0_3 3.691646 1_555
Er0_3 Eu0_5 3.691646 1_565
Er0_4 Er0_6 3.660099 1_545
Er0_4 Er0_6 3.660099 1_555
Er0_4 Eu0_7 3.691644 1_555
Er0_4 Eu0_6 3.691644 1_555
Er0_4 Eu0_5 3.691646 1_555
Er0_4 Eu0_4 3.691646 1_555
Er0_4 Eu0_3 3.691646 1_655
Er0_4 Eu0_2 3.691646 1_655
Er0_5 Er0_7 3.660099 1_545
Er0_5 Er0_7 3.660099 1_555
Er0_5 Eu0_6 3.691644 1_556
Er0_5 Eu0_7 3.691644 1_555
Er0_5 Eu0_4 3.691646 1_556
Er0_5 Eu0_2 3.691646 1_656
Er0_5 Eu0_5 3.691646 1_555
Er0_5 Eu0_3 3.691646 1_655
Er0_6 Eu0_5 3.691644 1_565
Er0_6 Eu0_4 3.691644 1_565
Er0_6 Eu0_1 3.691646 1_665
Er0_6 Eu0_6 3.691646 1_555
Er0_6 Eu0_0 3.691646 1_665
Er0_6 Eu0_7 3.691646 1_555
Er0_7 Eu0_4 3.691644 1_566
Er0_7 Eu0_5 3.691644 1_565
Er0_7 Eu0_6 3.691646 1_556
Er0_7 Eu0_0 3.691646 1_666
Er0_7 Eu0_7 3.691646 1_555
Er0_7 Eu0_1 3.691646 1_665
