# generated using pymatgen
data_Fe4Se3Br
_symmetry_space_group_name_H-M   'P 1'
_cell_length_a   6.68907257
_cell_length_b   6.68907257
_cell_length_c   6.68907257
_cell_angle_alpha   133.77987449
_cell_angle_beta   133.77987449
_cell_angle_gamma   67.43202658
_symmetry_Int_Tables_number   1
_chemical_formula_structural   Fe4Se3Br
_chemical_formula_sum   'Fe4 Se3 Br1'
_cell_volume   153.40957544
_cell_formula_units_Z   1
loop_
 _symmetry_equiv_pos_site_id
 _symmetry_equiv_pos_as_xyz
  1  'x, y, z'
loop_
 _atom_site_type_symbol
 _atom_site_label
 _atom_site_symmetry_multiplicity
 _atom_site_fract_x
 _atom_site_fract_y
 _atom_site_fract_z
 _atom_site_occupancy
  Fe  Fe0  1  0.24869100  0.24869100  0.49671700  1
  Fe  Fe1  1  0.75197500  0.75197500  0.50328300  1
  Fe  Fe2  1  0.24869100  0.75197500  0.00000000  1
  Fe  Fe3  1  0.75197500  0.24869100  0.00000000  1
  Se  Se0  1  0.87577200  0.87577200  0.00000000  1
  Se  Se1  1  0.62354900  0.12354900  0.50000000  1
  Se  Se2  1  0.12354900  0.62354900  0.50000000  1
  Br  Br0  1  0.37579700  0.37579700  0.00000000  1
loop_
_geom_bond_atom_site_label_1
_geom_bond_atom_site_label_2
_geom_bond_distance
_geom_bond_site_symmetry_2
Fe0 Se0 2.307090 1_445
Fe0 Se2 2.307961 1_555
Fe0 Se1 2.307961 1_555
Fe1 Se0 2.307096 1_556
Fe1 Se1 2.307955 1_565
Fe1 Se2 2.307955 1_655
Fe2 Se0 2.307090 1_455
Fe2 Se2 2.307958 1_554
Fe2 Se1 2.307958 1_565
Fe3 Se0 2.307090 1_545
Fe3 Se2 2.307958 1_655
Fe3 Se1 2.307958 1_554
Br0 Fe0 2.326459 1_554
Br0 Fe3 2.326465 1_555
Br0 Fe2 2.326465 1_555
Br0 Fe1 2.326465 1_555
