# generated using pymatgen
data_Yb2CuSb3
_symmetry_space_group_name_H-M   'P 1'
_cell_length_a   11.98491994
_cell_length_b   11.98491994
_cell_length_c   39.85546286
_cell_angle_alpha   90.00000000
_cell_angle_beta   90.00000000
_cell_angle_gamma   90.00000000
_symmetry_Int_Tables_number   1
_chemical_formula_structural   Yb2CuSb3
_chemical_formula_sum   'Yb2 Cu1 Sb3'
_cell_volume   5724.77116753
_cell_formula_units_Z   1
loop_
 _symmetry_equiv_pos_site_id
 _symmetry_equiv_pos_as_xyz
  1  'x, y, z'
loop_
 _atom_site_type_symbol
 _atom_site_label
 _atom_site_symmetry_multiplicity
 _atom_site_fract_x
 _atom_site_fract_y
 _atom_site_fract_z
 _atom_site_occupancy
  Yb  Yb0  1  0.50000000  0.50000000  0.24339739  1
  Yb  Yb1  1  0.50000000  0.50000000  0.75660261  1
  Cu  Cu0  1  0.50000000  0.50000000  0.50000000  1
  Sb  Sb0  1  0.50000000  0.50000000  0.69217277  1
  Sb  Sb1  1  0.50000000  0.50000000  0.30782723  1
  Sb  Sb2  1  0.50000000  0.50000000  0.00000000  1
loop_
_geom_bond_atom_site_label_1
_geom_bond_atom_site_label_2
_geom_bond_distance
_geom_bond_site_symmetry_2
Sb0 Yb1 2.567881 1_555
Sb1 Yb0 2.567881 1_555
