# generated using pymatgen
data_MgZr3U7O20
_symmetry_space_group_name_H-M   'P 1'
_cell_length_a   3.75823089
_cell_length_b   6.52061807
_cell_length_c   16.57329733
_cell_angle_alpha   92.70187769
_cell_angle_beta   96.51361353
_cell_angle_gamma   89.99280235
_symmetry_Int_Tables_number   1
_chemical_formula_structural   MgZr3U7O20
_chemical_formula_sum   'Mg1 Zr3 U7 O20'
_cell_volume   403.06917109
_cell_formula_units_Z   1
loop_
 _symmetry_equiv_pos_site_id
 _symmetry_equiv_pos_as_xyz
  1  'x, y, z'
loop_
 _atom_site_type_symbol
 _atom_site_label
 _atom_site_symmetry_multiplicity
 _atom_site_fract_x
 _atom_site_fract_y
 _atom_site_fract_z
 _atom_site_occupancy
  Mg  Mg0  1  0.65646336  0.55061189  0.31118810  1
  Zr  Zr0  1  0.40244717  0.80236360  0.80425055  1
  Zr  Zr1  1  0.21953498  0.41777053  0.43744236  1
  Zr  Zr2  1  0.49434409  0.49549084  0.98713431  1
  U  U0  1  0.90174315  0.30367491  0.80271650  1
  U  U1  1  0.80744708  0.61810198  0.61443541  1
  U  U2  1  0.70731208  0.94036368  0.41418743  1
  U  U3  1  0.30708510  0.10808343  0.61434519  1
  U  U4  1  0.08671339  0.68403581  0.17228070  1
  U  U5  1  0.58991127  0.18307824  0.17890011  1
  U  U6  1  0.99461004  0.99485611  0.98857571  1
  O  O0  1  0.92465817  0.97022657  0.84848134  1
  O  O1  1  0.47015025  0.81281497  0.93950058  1
  O  O2  1  0.77938573  0.94334241  0.55823745  1
  O  O3  1  0.33206088  0.78543800  0.66355546  1
  O  O4  1  0.42620040  0.48285773  0.85151740  1
  O  O5  1  0.97274657  0.33012584  0.94475620  1
  O  O6  1  0.87938956  0.63915030  0.75792080  1
  O  O7  1  0.17729290  0.65823668  0.35332219  1
  O  O8  1  0.83090641  0.28714108  0.66136723  1
  O  O9  1  0.62339327  0.82851186  0.24571615  1
  O  O10  1  0.28229452  0.43836548  0.56382599  1
  O  O11  1  0.73346046  0.58956118  0.46580060  1
  O  O12  1  0.37920795  0.12101875  0.75767401  1
  O  O13  1  0.68154419  0.27646434  0.36295165  1
  O  O14  1  0.56280576  0.51121964  0.12474818  1
  O  O15  1  0.11386521  0.36866063  0.22758941  1
  O  O16  1  0.22951604  0.09455077  0.45865027  1
  O  O17  1  0.01671149  0.66198645  0.03259184  1
  O  O18  1  0.06766366  0.00911785  0.13404464  1
  O  O19  1  0.51867188  0.16933147  0.03648325  1
loop_
_geom_bond_atom_site_label_1
_geom_bond_atom_site_label_2
_geom_bond_distance
_geom_bond_site_symmetry_2
Mg0 O13 2.016585 1_555
Mg0 O7 2.110820 1_655
Mg0 O7 2.112322 1_555
Mg0 O9 2.152025 1_555
Mg0 O11 2.546520 1_555
Mg0 O15 2.582085 1_655
Mg0 O15 2.586552 1_555
O0 Zr0 2.276461 1_655
O0 Zr0 2.277212 1_555
O0 U6 2.304810 1_555
O0 U0 2.334705 1_565
O1 Zr0 2.224879 1_555
O1 Zr2 2.247342 1_555
O1 U6 2.345504 1_555
O1 U6 2.345808 1_455
O2 U3 2.332324 1_665
O2 U3 2.334338 1_565
O2 U1 2.353751 1_555
O2 U2 2.371131 1_555
O3 U3 2.290087 1_565
O3 U1 2.300224 1_555
O3 U1 2.300702 1_455
O3 Zr0 2.314122 1_555
O4 Zr2 2.230722 1_555
O4 Zr0 2.258327 1_555
O4 U0 2.334882 1_555
O4 U0 2.335388 1_455
O5 Zr2 2.259027 1_555
O5 Zr2 2.261738 1_655
O5 U6 2.334435 1_545
O5 U0 2.337049 1_555
O6 Zr0 2.273213 1_655
O6 Zr0 2.273731 1_555
O6 U0 2.341439 1_555
O6 U1 2.360151 1_555
O7 Zr1 2.140854 1_555
O7 U2 2.782037 1_555
O7 U2 2.783901 1_455
O8 U3 2.324494 1_655
O8 U0 2.324884 1_555
O8 U1 2.326517 1_555
O8 U3 2.326544 1_555
O9 U4 2.402572 1_555
O9 U4 2.402718 1_655
O9 U5 2.607120 1_565
O9 U2 2.834722 1_555
O10 Zr1 2.079036 1_555
O10 U3 2.345236 1_555
O10 U1 2.346208 1_555
O10 U1 2.346964 1_455
O11 Zr1 2.225119 1_555
O11 Zr1 2.226536 1_655
O11 U1 2.445716 1_555
O11 U2 2.477728 1_555
O12 Zr0 2.248721 1_545
O12 U0 2.327086 1_455
O12 U0 2.327343 1_555
O12 U3 2.357603 1_555
O13 U2 2.385415 1_545
O13 Zr1 2.401390 1_555
O13 Zr1 2.405841 1_655
O14 Zr2 2.263449 1_554
O14 U4 2.308133 1_555
O14 U4 2.309155 1_655
O14 U5 2.356764 1_555
O15 U4 2.288241 1_555
O15 U5 2.353948 1_455
O15 U5 2.356122 1_555
O16 Zr1 2.152609 1_555
O16 U2 2.237861 1_445
O16 U2 2.237893 1_545
O16 U3 2.561054 1_555
O17 Zr2 2.277753 1_454
O17 Zr2 2.279839 1_554
O17 U4 2.297834 1_555
O17 U6 2.320707 1_454
O18 U4 2.239707 1_545
O18 U5 2.298188 1_555
O18 U5 2.299131 1_455
O18 U6 2.392730 1_444
O19 Zr2 2.312437 1_554
O19 U6 2.315314 1_544
O19 U6 2.316131 1_444
O19 U5 2.342541 1_555
