# generated using pymatgen
data_VPbSeO5F
_symmetry_space_group_name_H-M   'P 1'
_cell_length_a   8.30227000
_cell_length_b   13.23116300
_cell_length_c   10.01049500
_cell_angle_alpha   90.00000000
_cell_angle_beta   90.00000000
_cell_angle_gamma   90.00000000
_symmetry_Int_Tables_number   1
_chemical_formula_structural   VPbSeO5F
_chemical_formula_sum   'V8 Pb8 Se8 O40 F8'
_cell_volume   1099.63973838
_cell_formula_units_Z   8
loop_
 _symmetry_equiv_pos_site_id
 _symmetry_equiv_pos_as_xyz
  1  'x, y, z'
loop_
 _atom_site_type_symbol
 _atom_site_label
 _atom_site_symmetry_multiplicity
 _atom_site_fract_x
 _atom_site_fract_y
 _atom_site_fract_z
 _atom_site_occupancy
  V  V0  1  0.41851100  0.09608200  0.04967900  1
  V  V1  1  0.08148900  0.90391800  0.54967900  1
  V  V2  1  0.91851100  0.40391800  0.95032100  1
  V  V3  1  0.58148900  0.59608200  0.45032100  1
  V  V4  1  0.58148900  0.90391800  0.95032100  1
  V  V5  1  0.91851100  0.09608200  0.45032100  1
  V  V6  1  0.08148900  0.59608200  0.04967900  1
  V  V7  1  0.41851100  0.40391800  0.54967900  1
  Pb  Pb0  1  0.35521700  0.82866400  0.26340400  1
  Pb  Pb1  1  0.14478300  0.17133600  0.76340400  1
  Pb  Pb2  1  0.85521700  0.67133600  0.73659600  1
  Pb  Pb3  1  0.64478300  0.32866400  0.23659600  1
  Pb  Pb4  1  0.64478300  0.17133600  0.73659600  1
  Pb  Pb5  1  0.85521700  0.82866400  0.23659600  1
  Pb  Pb6  1  0.14478300  0.32866400  0.26340400  1
  Pb  Pb7  1  0.35521700  0.67133600  0.76340400  1
  Se  Se0  1  0.82507100  0.08902700  0.04958400  1
  Se  Se1  1  0.67492900  0.91097300  0.54958400  1
  Se  Se2  1  0.32507100  0.41097300  0.95041600  1
  Se  Se3  1  0.17492900  0.58902700  0.45041600  1
  Se  Se4  1  0.17492900  0.91097300  0.95041600  1
  Se  Se5  1  0.32507100  0.08902700  0.45041600  1
  Se  Se6  1  0.67492900  0.58902700  0.04958400  1
  Se  Se7  1  0.82507100  0.41097300  0.54958400  1
  O  O0  1  0.86474600  0.10870700  0.88525200  1
  O  O1  1  0.63525400  0.89129300  0.38525200  1
  O  O2  1  0.36474600  0.39129300  0.11474800  1
  O  O3  1  0.13525400  0.60870700  0.61474800  1
  O  O4  1  0.13525400  0.89129300  0.11474800  1
  O  O5  1  0.36474600  0.10870700  0.61474800  1
  O  O6  1  0.63525400  0.60870700  0.88525200  1
  O  O7  1  0.86474600  0.39129300  0.38525200  1
  O  O8  1  0.77052800  0.95926400  0.05326400  1
  O  O9  1  0.72947200  0.04073600  0.55326400  1
  O  O10  1  0.27052800  0.54073600  0.94673600  1
  O  O11  1  0.22947200  0.45926400  0.44673600  1
  O  O12  1  0.22947200  0.04073600  0.94673600  1
  O  O13  1  0.27052800  0.95926400  0.44673600  1
  O  O14  1  0.72947200  0.45926400  0.05326400  1
  O  O15  1  0.77052800  0.54073600  0.55326400  1
  O  O16  1  0.63812600  0.15145600  0.06741300  1
  O  O17  1  0.86187400  0.84854400  0.56741300  1
  O  O18  1  0.13812600  0.34854400  0.93258700  1
  O  O19  1  0.36187400  0.65145600  0.43258700  1
  O  O20  1  0.36187400  0.84854400  0.93258700  1
  O  O21  1  0.13812600  0.15145600  0.43258700  1
  O  O22  1  0.86187400  0.65145600  0.06741300  1
  O  O23  1  0.63812600  0.34854400  0.56741300  1
  O  O24  1  0.45520000  0.98220000  0.12614200  1
  O  O25  1  0.04480000  0.01780000  0.62614200  1
  O  O26  1  0.95520000  0.51780000  0.87385800  1
  O  O27  1  0.54480000  0.48220000  0.37385800  1
  O  O28  1  0.54480000  0.01780000  0.87385800  1
  O  O29  1  0.95520000  0.98220000  0.37385800  1
  O  O30  1  0.04480000  0.48220000  0.12614200  1
  O  O31  1  0.45520000  0.51780000  0.62614200  1
  O  O32  1  0.32419800  0.16672000  0.16146200  1
  O  O33  1  0.17580200  0.83328000  0.66146200  1
  O  O34  1  0.82419800  0.33328000  0.83853800  1
  O  O35  1  0.67580200  0.66672000  0.33853800  1
  O  O36  1  0.67580200  0.83328000  0.83853800  1
  O  O37  1  0.82419800  0.16672000  0.33853800  1
  O  O38  1  0.17580200  0.66672000  0.16146200  1
  O  O39  1  0.32419800  0.33328000  0.66146200  1
  F  F0  1  0.40257800  0.19941200  0.89917000  1
  F  F1  1  0.09742200  0.80058800  0.39917000  1
  F  F2  1  0.90257800  0.30058800  0.10083000  1
  F  F3  1  0.59742200  0.69941200  0.60083000  1
  F  F4  1  0.59742200  0.80058800  0.10083000  1
  F  F5  1  0.90257800  0.19941200  0.60083000  1
  F  F6  1  0.09742200  0.69941200  0.89917000  1
  F  F7  1  0.40257800  0.30058800  0.39917000  1
loop_
_geom_bond_atom_site_label_1
_geom_bond_atom_site_label_2
_geom_bond_distance
_geom_bond_site_symmetry_2
O0 Se0 1.697785 1_556
O0 Pb4 2.497228 1_555
O0 Pb1 2.753151 1_655
O1 Se1 1.697785 1_555
O1 Pb5 2.497228 1_555
O1 Pb0 2.753151 1_555
O2 Se2 1.697785 1_554
O2 Pb6 2.497228 1_555
O2 Pb3 2.753151 1_555
O3 Se3 1.697785 1_555
O3 Pb7 2.497228 1_555
O3 Pb2 2.753151 1_455
O4 Se4 1.697785 1_554
O4 Pb0 2.497228 1_555
O4 Pb5 2.753151 1_455
O5 Se5 1.697785 1_555
O5 Pb1 2.497228 1_555
O5 Pb4 2.753151 1_555
O6 Se6 1.697785 1_556
O6 Pb2 2.497228 1_555
O6 Pb7 2.753151 1_555
O7 Se7 1.697785 1_555
O7 Pb3 2.497228 1_555
O7 Pb6 2.753151 1_655
O8 Se0 1.776010 1_565
O8 V4 2.015288 1_554
O8 Pb5 2.616951 1_555
O9 Se1 1.776010 1_545
O9 V5 2.015288 1_555
O9 Pb4 2.616951 1_555
O10 Se2 1.776010 1_555
O10 V6 2.015288 1_556
O10 Pb7 2.616951 1_555
O11 Se3 1.776010 1_555
O11 V7 2.015288 1_555
O11 Pb6 2.616951 1_555
O12 Se4 1.776010 1_545
O12 V0 2.015288 1_556
O12 Pb1 2.616951 1_555
O13 Se5 1.776010 1_565
O13 V1 2.015288 1_555
O13 Pb0 2.616951 1_555
O14 Se6 1.776010 1_555
O14 V2 2.015288 1_554
O14 Pb3 2.616951 1_555
O15 Se7 1.776010 1_555
O15 V3 2.015288 1_555
O15 Pb2 2.616951 1_555
O16 Se0 1.767218 1_555
O16 V0 1.973004 1_555
O16 Pb3 2.892892 1_555
O17 Se1 1.767218 1_555
O17 V1 1.973004 1_655
O17 Pb2 2.892892 1_555
O18 Se2 1.767218 1_555
O18 V2 1.973004 1_455
O18 Pb1 2.892892 1_555
O19 Se3 1.767218 1_555
O19 V3 1.973004 1_555
O19 Pb0 2.892892 1_555
O20 Se4 1.767218 1_555
O20 V4 1.973004 1_555
O20 Pb7 2.892892 1_555
O21 Se5 1.767218 1_555
O21 V5 1.973004 1_455
O21 Pb6 2.892892 1_555
O22 Se6 1.767218 1_555
O22 V6 1.973004 1_655
O22 Pb5 2.892892 1_555
O23 Se7 1.767218 1_555
O23 V7 1.973004 1_555
O23 Pb4 2.892892 1_555
O24 V0 1.717291 1_565
O24 V4 2.295630 1_554
O24 Pb0 2.589192 1_555
O25 V1 1.717291 1_545
O25 V5 2.295630 1_455
O25 Pb1 2.589192 1_555
O26 V2 1.717291 1_555
O26 V6 2.295630 1_656
O26 Pb2 2.589192 1_555
O27 V3 1.717291 1_555
O27 V7 2.295630 1_555
O27 Pb3 2.589192 1_555
O28 V4 1.717291 1_545
O28 V0 2.295630 1_556
O28 Pb4 2.589192 1_555
O29 V5 1.717291 1_565
O29 V1 2.295630 1_655
O29 Pb5 2.589192 1_555
O30 V6 1.717291 1_555
O30 V2 2.295630 1_454
O30 Pb6 2.589192 1_555
O31 V7 1.717291 1_555
O31 V3 2.295630 1_555
O31 Pb7 2.589192 1_555
O32 V0 1.654931 1_555
O32 Pb6 2.802028 1_555
O33 V1 1.654931 1_555
O33 Pb7 2.802028 1_555
O34 V2 1.654931 1_555
O34 Pb4 2.802028 1_555
O35 V3 1.654931 1_555
O35 Pb5 2.802028 1_555
O36 V4 1.654931 1_555
O36 Pb2 2.802028 1_555
O37 V5 1.654931 1_555
O37 Pb3 2.802028 1_555
O38 V6 1.654931 1_555
O38 Pb0 2.802028 1_555
O39 V7 1.654931 1_555
O39 Pb1 2.802028 1_555
F0 V0 2.038804 1_556
F0 Pb1 2.562406 1_555
F0 Pb4 2.613446 1_555
F1 V1 2.038804 1_555
F1 Pb0 2.562406 1_555
F1 Pb5 2.613446 1_455
F2 V2 2.038804 1_554
F2 Pb3 2.562406 1_555
F2 Pb6 2.613446 1_655
F3 V3 2.038804 1_555
F3 Pb2 2.562406 1_555
F3 Pb7 2.613446 1_555
F4 V4 2.038804 1_554
F4 Pb5 2.562406 1_555
F4 Pb0 2.613446 1_555
F5 V5 2.038804 1_555
F5 Pb4 2.562406 1_555
F5 Pb1 2.613446 1_655
F6 V6 2.038804 1_556
F6 Pb7 2.562406 1_555
F6 Pb2 2.613446 1_455
F7 V7 2.038804 1_555
F7 Pb6 2.562406 1_555
F7 Pb3 2.613446 1_555
