# generated using pymatgen
data_NdGe2Pd
_symmetry_space_group_name_H-M   'P 1'
_cell_length_a   8.91349750
_cell_length_b   8.91349750
_cell_length_c   4.38966748
_cell_angle_alpha   90.00000000
_cell_angle_beta   90.00000000
_cell_angle_gamma   152.03305334
_symmetry_Int_Tables_number   1
_chemical_formula_structural   NdGe2Pd
_chemical_formula_sum   'Nd2 Ge4 Pd2'
_cell_volume   163.55569946
_cell_formula_units_Z   2
loop_
 _symmetry_equiv_pos_site_id
 _symmetry_equiv_pos_as_xyz
  1  'x, y, z'
loop_
 _atom_site_type_symbol
 _atom_site_label
 _atom_site_symmetry_multiplicity
 _atom_site_fract_x
 _atom_site_fract_y
 _atom_site_fract_z
 _atom_site_occupancy
  Nd  Nd0  1  0.89294298  0.10705702  0.25000000  1
  Nd  Nd1  1  0.10705702  0.89294298  0.75000000  1
  Ge  Ge0  1  0.53562783  0.46437217  0.25000000  1
  Ge  Ge1  1  0.46437217  0.53562783  0.75000000  1
  Ge  Ge2  1  0.25168570  0.74831430  0.25000000  1
  Ge  Ge3  1  0.74831430  0.25168570  0.75000000  1
  Pd  Pd0  1  0.67661205  0.32338795  0.25000000  1
  Pd  Pd1  1  0.32338795  0.67661205  0.75000000  1
loop_
_geom_bond_atom_site_label_1
_geom_bond_atom_site_label_2
_geom_bond_distance
_geom_bond_site_symmetry_2
Nd0 Pd1 3.302150 1_544
Nd0 Pd1 3.302150 1_545
Nd0 Pd1 3.302150 1_654
Nd0 Pd1 3.302150 1_655
Nd1 Pd0 3.302150 1_455
Nd1 Pd0 3.302150 1_456
Nd1 Pd0 3.302150 1_565
Nd1 Pd0 3.302150 1_566
Ge0 Pd0 2.438844 1_555
Ge0 Ge1 2.517275 1_554
Ge0 Ge1 2.517275 1_555
Ge0 Nd0 3.275897 1_455
Ge0 Nd0 3.275897 1_565
Ge0 Nd1 3.314100 1_544
Ge0 Nd1 3.314100 1_545
Ge0 Nd1 3.314100 1_654
Ge0 Nd1 3.314100 1_655
Ge1 Pd1 2.438844 1_555
Ge1 Nd1 3.275897 1_545
Ge1 Nd1 3.275897 1_655
Ge1 Nd0 3.314100 1_456
Ge1 Nd0 3.314100 1_455
Ge1 Nd0 3.314100 1_565
Ge1 Nd0 3.314100 1_566
Ge2 Pd0 2.515102 1_565
Ge2 Pd0 2.515102 1_455
Ge2 Pd1 2.521067 1_554
Ge2 Pd1 2.521067 1_555
Ge2 Nd0 3.257330 1_565
Ge2 Nd0 3.257330 1_455
Ge2 Nd1 3.328174 1_554
Ge2 Nd1 3.328174 1_555
Ge3 Pd1 2.515102 1_655
Ge3 Pd1 2.515102 1_545
Ge3 Pd0 2.521067 1_555
Ge3 Pd0 2.521067 1_556
Ge3 Nd1 3.257330 1_655
Ge3 Nd1 3.257330 1_545
Ge3 Nd0 3.328174 1_555
Ge3 Nd0 3.328174 1_556
