# generated using pymatgen
data_Sr3CaNi2(WO6)2
_symmetry_space_group_name_H-M   'P 1'
_cell_length_a   5.62333229
_cell_length_b   5.65114032
_cell_length_c   7.95770034
_cell_angle_alpha   90.09616770
_cell_angle_beta   90.03984793
_cell_angle_gamma   90.10293692
_symmetry_Int_Tables_number   1
_chemical_formula_structural   Sr3CaNi2(WO6)2
_chemical_formula_sum   'Sr3 Ca1 Ni2 W2 O12'
_cell_volume   252.88088400
_cell_formula_units_Z   1
loop_
 _symmetry_equiv_pos_site_id
 _symmetry_equiv_pos_as_xyz
  1  'x, y, z'
loop_
 _atom_site_type_symbol
 _atom_site_label
 _atom_site_symmetry_multiplicity
 _atom_site_fract_x
 _atom_site_fract_y
 _atom_site_fract_z
 _atom_site_occupancy
  Sr  Sr0  1  0.49375400  0.97134300  0.74912800  1
  Sr  Sr1  1  0.00421100  0.47585100  0.75003000  1
  Sr  Sr2  1  0.50412700  0.02544000  0.25081000  1
  Ca  Ca0  1  0.99387100  0.53861600  0.24842800  1
  Ni  Ni0  1  0.99996400  0.00134500  0.00126000  1
  Ni  Ni1  1  0.49974500  0.49897900  0.49796800  1
  W  W0  1  0.49862700  0.49953000  0.00299300  1
  W  W1  1  0.00146500  0.99989300  0.49746400  1
  O  O0  1  0.05874300  0.96991500  0.25756600  1
  O  O1  1  0.55874800  0.50212100  0.76085400  1
  O  O2  1  0.93976300  0.01760900  0.73928200  1
  O  O3  1  0.42118700  0.49492400  0.24191700  1
  O  O4  1  0.21016800  0.72802900  0.53311400  1
  O  O5  1  0.71201700  0.76989200  0.03275900  1
  O  O6  1  0.80016900  0.27744600  0.45667600  1
  O  O7  1  0.29309900  0.22526700  0.97063700  1
  O  O8  1  0.27553600  0.20762700  0.52615700  1
  O  O9  1  0.77549400  0.29607200  0.04333700  1
  O  O10  1  0.72908300  0.78766300  0.47151400  1
  O  O11  1  0.23022800  0.71243600  0.96810800  1
loop_
_geom_bond_atom_site_label_1
_geom_bond_atom_site_label_2
_geom_bond_distance
_geom_bond_site_symmetry_2
Ca0 O3 2.416616 1_655
Ca0 O9 2.456407 1_555
Ca0 O0 2.464776 1_655
Ca0 O6 2.473044 1_555
Ca0 O5 2.678975 1_555
Ca0 O10 2.711495 1_555
Ca0 O11 2.777453 1_654
Ca0 O4 2.782222 1_655
Ni0 O0 2.073954 1_645
Ni0 O7 2.090924 1_654
Ni0 O5 2.095127 1_545
Ni0 O11 2.102013 1_644
Ni0 O2 2.113995 1_554
Ni0 O9 2.117958 1_555
Ni1 O8 2.084462 1_555
Ni1 O3 2.084694 1_555
Ni1 O10 2.088759 1_555
Ni1 O4 2.100551 1_555
Ni1 O1 2.117928 1_555
Ni1 O6 2.129852 1_555
O0 W1 1.943407 1_555
O0 Sr2 2.524183 1_565
O1 W0 1.956610 1_556
O1 Sr1 2.511177 1_655
O1 Sr0 2.679131 1_555
O1 Sr0 3.022311 1_545
O1 Sr1 3.122733 1_555
O2 W1 1.958011 1_645
O2 Sr0 2.522466 1_545
O2 Sr1 2.615430 1_655
O2 Sr1 3.084894 1_645
O2 Sr0 3.127634 1_645
O3 W0 1.951019 1_555
O3 Sr2 2.695665 1_555
O3 Sr2 3.033955 1_565
O4 W1 1.955929 1_555
O4 Sr1 2.521299 1_555
O4 Sr0 2.714579 1_555
O5 W0 1.955034 1_555
O5 Sr2 2.542345 1_565
O5 Sr0 2.811852 1_554
O5 Sr1 3.244265 1_654
O6 W1 1.963266 1_645
O6 Sr2 2.731869 1_555
O6 Sr1 2.829494 1_655
O7 W0 1.948347 1_556
O7 Sr0 2.537616 1_545
O7 Sr2 2.768361 1_556
O7 Sr1 2.781879 1_555
O8 W1 1.948753 1_545
O8 Sr0 2.539260 1_545
O8 Sr2 2.741261 1_555
O8 Sr1 2.793259 1_555
O9 W0 1.963670 1_555
O9 Sr2 2.719754 1_555
O9 Sr1 2.853345 1_654
O10 W1 1.954298 1_655
O10 Sr2 2.549766 1_565
O10 Sr0 2.776759 1_555
O10 Sr1 3.229386 1_655
O11 W0 1.951846 1_556
O11 Sr1 2.529330 1_555
O11 Sr0 2.716186 1_555
