# generated using pymatgen
data_BaBi12Mo5O34
_symmetry_space_group_name_H-M   'P 1'
_cell_length_a   5.92318000
_cell_length_b   11.98213600
_cell_length_c   25.48834807
_cell_angle_alpha   77.35916418
_cell_angle_beta   90.00000000
_cell_angle_gamma   90.00000000
_symmetry_Int_Tables_number   1
_chemical_formula_structural   BaBi12Mo5O34
_chemical_formula_sum   'Ba2 Bi24 Mo10 O68'
_cell_volume   1765.12041468
_cell_formula_units_Z   2
loop_
 _symmetry_equiv_pos_site_id
 _symmetry_equiv_pos_as_xyz
  1  'x, y, z'
loop_
 _atom_site_type_symbol
 _atom_site_label
 _atom_site_symmetry_multiplicity
 _atom_site_fract_x
 _atom_site_fract_y
 _atom_site_fract_z
 _atom_site_occupancy
  Ba  Ba0  1  0.00000000  0.00000000  0.50000000  1
  Ba  Ba1  1  0.00000000  0.00000000  0.00000000  1
  Bi  Bi0  1  0.98515500  0.76556400  0.84122100  1
  Bi  Bi1  1  0.01484500  0.23443600  0.15877900  1
  Bi  Bi2  1  0.98515500  0.23443600  0.65877900  1
  Bi  Bi3  1  0.01484500  0.76556400  0.34122100  1
  Bi  Bi4  1  0.47456500  0.74218900  0.60203200  1
  Bi  Bi5  1  0.52543500  0.25781100  0.39796800  1
  Bi  Bi6  1  0.47456500  0.25781100  0.89796800  1
  Bi  Bi7  1  0.52543500  0.74218900  0.10203200  1
  Bi  Bi8  1  0.98513100  0.85903100  0.67862800  1
  Bi  Bi9  1  0.01486900  0.14096900  0.32137200  1
  Bi  Bi10  1  0.98513100  0.14096900  0.82137200  1
  Bi  Bi11  1  0.01486900  0.85903100  0.17862800  1
  Bi  Bi12  1  0.91903400  0.53992200  0.17459200  1
  Bi  Bi13  1  0.08096600  0.46007800  0.82540800  1
  Bi  Bi14  1  0.91903400  0.46007800  0.32540800  1
  Bi  Bi15  1  0.08096600  0.53992200  0.67459200  1
  Bi  Bi16  1  0.58161200  0.65589300  0.75510000  1
  Bi  Bi17  1  0.41838800  0.34410700  0.24490000  1
  Bi  Bi18  1  0.58161200  0.34410700  0.74490000  1
  Bi  Bi19  1  0.41838800  0.65589300  0.25510000  1
  Bi  Bi20  1  0.48183400  0.58100900  0.90745900  1
  Bi  Bi21  1  0.51816600  0.41899100  0.09254100  1
  Bi  Bi22  1  0.48183400  0.41899100  0.59254100  1
  Bi  Bi23  1  0.51816600  0.58100900  0.40745900  1
  Mo  Mo0  1  0.48444200  0.00000000  0.75000000  1
  Mo  Mo1  1  0.51555800  0.00000000  0.25000000  1
  Mo  Mo2  1  0.49911600  0.92350300  0.92075600  1
  Mo  Mo3  1  0.50088400  0.07649700  0.07924400  1
  Mo  Mo4  1  0.49911600  0.07649700  0.57924400  1
  Mo  Mo5  1  0.50088400  0.92350300  0.42075600  1
  Mo  Mo6  1  0.97536900  0.65951900  0.51326200  1
  Mo  Mo7  1  0.02463100  0.34048100  0.48673800  1
  Mo  Mo8  1  0.97536900  0.34048100  0.98673800  1
  Mo  Mo9  1  0.02463100  0.65951900  0.01326200  1
  O  O0  1  0.77246300  0.50000000  0.75000000  1
  O  O1  1  0.22753700  0.50000000  0.25000000  1
  O  O2  1  0.72743800  0.97630700  0.10288800  1
  O  O3  1  0.27256200  0.02369300  0.89711200  1
  O  O4  1  0.72743800  0.02369300  0.39711200  1
  O  O5  1  0.27256200  0.97630700  0.60288800  1
  O  O6  1  0.42292800  0.56156400  0.63323400  1
  O  O7  1  0.57707200  0.43843600  0.36676600  1
  O  O8  1  0.42292800  0.43843600  0.86676600  1
  O  O9  1  0.57707200  0.56156400  0.13323400  1
  O  O10  1  0.23265300  0.63501200  0.84184900  1
  O  O11  1  0.76734700  0.36498800  0.15815100  1
  O  O12  1  0.23265300  0.36498800  0.65815100  1
  O  O13  1  0.76734700  0.63501200  0.34184900  1
  O  O14  1  0.66419500  0.99580600  0.80699100  1
  O  O15  1  0.33580500  0.00419400  0.19300900  1
  O  O16  1  0.66419500  0.00419400  0.69300900  1
  O  O17  1  0.33580500  0.99580600  0.30699100  1
  O  O18  1  0.77746000  0.72630800  0.16739000  1
  O  O19  1  0.22254000  0.27369200  0.83261000  1
  O  O20  1  0.77746000  0.27369200  0.33261000  1
  O  O21  1  0.22254000  0.72630800  0.66739000  1
  O  O22  1  0.81500700  0.55077200  0.03062100  1
  O  O23  1  0.18499300  0.44922800  0.96937900  1
  O  O24  1  0.81500700  0.44922800  0.46937900  1
  O  O25  1  0.18499300  0.55077200  0.53062100  1
  O  O26  1  0.72271300  0.73650000  0.66567000  1
  O  O27  1  0.27728700  0.26350000  0.33433000  1
  O  O28  1  0.72271300  0.26350000  0.83433000  1
  O  O29  1  0.27728700  0.73650000  0.16567000  1
  O  O30  1  0.89580500  0.75807600  0.75805200  1
  O  O31  1  0.10419500  0.24192400  0.24194800  1
  O  O32  1  0.89580500  0.24192400  0.74194800  1
  O  O33  1  0.10419500  0.75807600  0.25805200  1
  O  O34  1  0.95504000  0.29250300  0.05888300  1
  O  O35  1  0.04496000  0.70749700  0.94111700  1
  O  O36  1  0.95504000  0.70749700  0.44111700  1
  O  O37  1  0.04496000  0.29250300  0.55888300  1
  O  O38  1  0.70941800  0.61123200  0.54526800  1
  O  O39  1  0.29058200  0.38876800  0.45473200  1
  O  O40  1  0.70941800  0.38876800  0.95473200  1
  O  O41  1  0.29058200  0.61123200  0.04526800  1
  O  O42  1  0.44049800  0.87489900  0.99071800  1
  O  O43  1  0.55950200  0.12510100  0.00928200  1
  O  O44  1  0.44049800  0.12510100  0.50928200  1
  O  O45  1  0.55950200  0.87489900  0.49071800  1
  O  O46  1  0.51517700  0.79999100  0.89095500  1
  O  O47  1  0.48482300  0.20000900  0.10904500  1
  O  O48  1  0.51517700  0.20000900  0.60904500  1
  O  O49  1  0.48482300  0.79999100  0.39095500  1
  O  O50  1  0.74347900  0.62575000  0.84571800  1
  O  O51  1  0.25652100  0.37425000  0.15428200  1
  O  O52  1  0.74347900  0.37425000  0.65428200  1
  O  O53  1  0.25652100  0.62575000  0.34571800  1
  O  O54  1  0.30558600  0.87491900  0.75927200  1
  O  O55  1  0.69441400  0.12508100  0.24072800  1
  O  O56  1  0.30558600  0.12508100  0.74072800  1
  O  O57  1  0.69441400  0.87491900  0.25927200  1
  O  O58  1  0.93068600  0.77548500  0.04268600  1
  O  O59  1  0.06931400  0.22451500  0.95731400  1
  O  O60  1  0.93068600  0.22451500  0.45731400  1
  O  O61  1  0.06931400  0.77548500  0.54268600  1
  O  O62  1  0.76113600  0.99816200  0.58575100  1
  O  O63  1  0.23886400  0.00183800  0.41424900  1
  O  O64  1  0.76113600  0.00183800  0.91424900  1
  O  O65  1  0.23886400  0.99816200  0.08575100  1
  O  O66  1  0.26321300  0.50000000  0.75000000  1
  O  O67  1  0.73678700  0.50000000  0.25000000  1
loop_
_geom_bond_atom_site_label_1
_geom_bond_atom_site_label_2
_geom_bond_distance
_geom_bond_site_symmetry_2
Ba0 O62 2.599663 1_445
Ba0 O63 2.599663 1_555
Ba0 O60 2.703381 1_455
Ba0 O61 2.703381 1_545
Ba0 O4 3.039467 1_455
Ba0 O5 3.039467 1_545
Ba0 O45 3.043974 1_445
Ba0 O44 3.043974 1_555
Ba1 O65 2.599663 1_545
Ba1 O64 2.599663 1_454
Ba1 O59 2.703381 1_554
Ba1 O58 2.703381 1_445
Ba1 O3 3.039467 1_554
Ba1 O2 3.039467 1_445
Ba1 O42 3.043974 1_544
Ba1 O43 3.043974 1_455
Bi0 O10 2.141352 1_655
Bi0 O50 2.187416 1_555
Bi0 O30 2.205699 1_555
Bi0 O35 2.513416 1_655
Bi1 O11 2.141352 1_455
Bi1 O51 2.187416 1_555
Bi1 O31 2.205699 1_555
Bi1 O34 2.513416 1_455
Bi2 O12 2.141352 1_655
Bi2 O52 2.187416 1_555
Bi2 O32 2.205699 1_555
Bi2 O37 2.513416 1_655
Bi3 O13 2.141352 1_455
Bi3 O53 2.187416 1_555
Bi3 O33 2.205699 1_555
Bi3 O36 2.513416 1_455
Bi4 O6 2.157955 1_555
Bi4 O26 2.178902 1_555
Bi4 O21 2.213821 1_555
Bi4 O61 2.818668 1_555
Bi5 O7 2.157955 1_555
Bi5 O27 2.178902 1_555
Bi5 O20 2.213821 1_555
Bi5 O60 2.818668 1_555
Bi6 O8 2.157955 1_555
Bi6 O28 2.178902 1_555
Bi6 O19 2.213821 1_555
Bi6 O59 2.818668 1_555
Bi7 O9 2.157955 1_555
Bi7 O29 2.178902 1_555
Bi7 O18 2.213821 1_555
Bi7 O58 2.818668 1_555
Bi8 O30 2.183932 1_555
Bi8 O21 2.188135 1_655
Bi8 O26 2.211985 1_555
Bi8 O16 2.655643 1_565
Bi8 O5 2.722615 1_655
Bi9 O31 2.183932 1_555
Bi9 O20 2.188135 1_455
Bi9 O27 2.211985 1_555
Bi9 O17 2.655643 1_545
Bi9 O4 2.722615 1_455
Bi10 O32 2.183932 1_555
Bi10 O19 2.188135 1_655
Bi10 O28 2.211985 1_555
Bi10 O14 2.655643 1_545
Bi10 O3 2.722615 1_655
Bi11 O33 2.183932 1_555
Bi11 O18 2.188135 1_455
Bi11 O29 2.211985 1_555
Bi11 O15 2.655643 1_565
Bi11 O2 2.722615 1_455
Bi12 O67 2.164689 1_555
Bi12 O9 2.271891 1_555
Bi12 O18 2.354804 1_555
Bi12 O11 2.400179 1_555
Bi12 O1 2.619102 1_655
Bi13 O66 2.164689 1_555
Bi13 O8 2.271891 1_555
Bi13 O19 2.354804 1_555
Bi13 O10 2.400179 1_555
Bi13 O0 2.619102 1_455
Bi14 O67 2.164689 1_555
Bi14 O7 2.271891 1_555
Bi14 O20 2.354804 1_555
Bi14 O13 2.400179 1_555
Bi14 O1 2.619102 1_655
Bi15 O66 2.164689 1_555
Bi15 O6 2.271891 1_555
Bi15 O21 2.354804 1_555
Bi15 O12 2.400179 1_555
Bi15 O0 2.619102 1_455
Bi16 O0 2.211390 1_555
Bi16 O30 2.237960 1_555
Bi16 O26 2.421477 1_555
Bi16 O50 2.453425 1_555
Bi16 O66 2.677515 1_555
Bi17 O1 2.211390 1_555
Bi17 O31 2.237960 1_555
Bi17 O27 2.421477 1_555
Bi17 O51 2.453425 1_555
Bi17 O67 2.677515 1_555
Bi18 O0 2.211390 1_555
Bi18 O32 2.237960 1_555
Bi18 O28 2.421477 1_555
Bi18 O52 2.453425 1_555
Bi18 O66 2.677515 1_555
Bi19 O1 2.211390 1_555
Bi19 O33 2.237960 1_555
Bi19 O29 2.421477 1_555
Bi19 O53 2.453425 1_555
Bi19 O67 2.677515 1_555
Bi20 O50 2.190068 1_555
Bi20 O8 2.211654 1_555
Bi20 O10 2.218121 1_555
Bi20 O46 2.572465 1_555
Bi20 O23 2.642883 1_555
Bi20 O40 2.712956 1_555
Bi21 O51 2.190068 1_555
Bi21 O9 2.211654 1_555
Bi21 O11 2.218121 1_555
Bi21 O47 2.572465 1_555
Bi21 O22 2.642883 1_555
Bi21 O41 2.712956 1_555
Bi22 O52 2.190068 1_555
Bi22 O6 2.211654 1_555
Bi22 O12 2.218121 1_555
Bi22 O48 2.572465 1_555
Bi22 O25 2.642883 1_555
Bi22 O38 2.712956 1_555
Bi23 O53 2.190068 1_555
Bi23 O7 2.211654 1_555
Bi23 O13 2.218121 1_555
Bi23 O49 2.572465 1_555
Bi23 O24 2.642883 1_555
Bi23 O39 2.712956 1_555
Mo0 O14 1.792832 1_545
Mo0 O16 1.792832 1_555
Mo0 O54 1.808138 1_545
Mo0 O56 1.808138 1_555
Mo1 O15 1.792832 1_555
Mo1 O17 1.792832 1_545
Mo1 O57 1.808138 1_545
Mo1 O55 1.808138 1_555
Mo2 O42 1.784669 1_555
Mo2 O64 1.802515 1_565
Mo2 O46 1.807825 1_555
Mo2 O3 1.813412 1_565
Mo3 O43 1.784669 1_555
Mo3 O65 1.802515 1_545
Mo3 O47 1.807825 1_555
Mo3 O2 1.813412 1_545
Mo4 O44 1.784669 1_555
Mo4 O62 1.802515 1_545
Mo4 O48 1.807825 1_555
Mo4 O5 1.813412 1_545
Mo5 O45 1.784669 1_555
Mo5 O63 1.802515 1_565
Mo5 O49 1.807825 1_555
Mo5 O4 1.813412 1_565
Mo6 O25 1.784088 1_655
Mo6 O61 1.805260 1_655
Mo6 O36 1.806572 1_555
Mo6 O38 1.809742 1_555
Mo7 O24 1.784088 1_455
Mo7 O60 1.805260 1_455
Mo7 O37 1.806572 1_555
Mo7 O39 1.809742 1_555
Mo8 O23 1.784088 1_655
Mo8 O59 1.805260 1_655
Mo8 O34 1.806572 1_556
Mo8 O40 1.809742 1_555
Mo9 O22 1.784088 1_455
Mo9 O58 1.805260 1_455
Mo9 O35 1.806572 1_554
Mo9 O41 1.809742 1_555
