# generated using pymatgen
data_Al(CoO2)3
_symmetry_space_group_name_H-M   'P 1'
_cell_length_a   5.83266276
_cell_length_b   5.83266276
_cell_length_c   14.06719445
_cell_angle_alpha   89.10006794
_cell_angle_beta   89.10006794
_cell_angle_gamma   59.99304961
_symmetry_Int_Tables_number   1
_chemical_formula_structural   Al(CoO2)3
_chemical_formula_sum   'Al4 Co12 O24'
_cell_volume   414.35254086
_cell_formula_units_Z   4
loop_
 _symmetry_equiv_pos_site_id
 _symmetry_equiv_pos_as_xyz
  1  'x, y, z'
loop_
 _atom_site_type_symbol
 _atom_site_label
 _atom_site_symmetry_multiplicity
 _atom_site_fract_x
 _atom_site_fract_y
 _atom_site_fract_z
 _atom_site_occupancy
  Al  Al0  1  0.66668300  0.66668300  0.16665500  1
  Al  Al1  1  0.33331700  0.33331700  0.83334500  1
  Al  Al2  1  0.83471900  0.83471900  0.33481000  1
  Al  Al3  1  0.16528100  0.16528100  0.66519000  1
  Co  Co0  1  0.17236800  0.66474500  0.16421100  1
  Co  Co1  1  0.50000000  0.00000000  0.50000000  1
  Co  Co2  1  0.82763300  0.33525500  0.83578900  1
  Co  Co3  1  0.16334600  0.16334600  0.04648200  1
  Co  Co4  1  0.49007600  0.49007600  0.38277000  1
  Co  Co5  1  0.83006600  0.83006600  0.70600500  1
  Co  Co6  1  0.66474500  0.17236700  0.16421100  1
  Co  Co7  1  0.00000000  0.50000000  0.50000000  1
  Co  Co8  1  0.33525500  0.82763300  0.83578900  1
  Co  Co9  1  0.16993400  0.16993400  0.29399500  1
  Co  Co10  1  0.50992400  0.50992400  0.61723000  1
  Co  Co11  1  0.83665400  0.83665400  0.95351800  1
  O  O0  1  0.97006900  0.53933300  0.24981300  1
  O  O1  1  0.34286200  0.86403400  0.58676000  1
  O  O2  1  0.65247500  0.17048800  0.90169400  1
  O  O3  1  0.53933300  0.97006900  0.24981300  1
  O  O4  1  0.86403400  0.34286200  0.58676000  1
  O  O5  1  0.17048800  0.65247500  0.90169400  1
  O  O6  1  0.98340600  0.98340600  0.25325500  1
  O  O7  1  0.31889200  0.31889200  0.57804300  1
  O  O8  1  0.66747900  0.66747900  0.90090900  1
  O  O9  1  0.82627300  0.82627300  0.08872800  1
  O  O10  1  0.18514100  0.18514100  0.43193800  1
  O  O11  1  0.49184100  0.49184100  0.75527200  1
  O  O12  1  0.50815900  0.50815900  0.24472800  1
  O  O13  1  0.81485900  0.81485900  0.56806200  1
  O  O14  1  0.17372700  0.17372700  0.91127200  1
  O  O15  1  0.33252100  0.33252100  0.09909100  1
  O  O16  1  0.68110800  0.68110800  0.42195700  1
  O  O17  1  0.01659400  0.01659400  0.74674500  1
  O  O18  1  0.34752500  0.82951200  0.09830600  1
  O  O19  1  0.65713800  0.13596600  0.41324000  1
  O  O20  1  0.02993100  0.46066700  0.75018700  1
  O  O21  1  0.82951200  0.34752500  0.09830600  1
  O  O22  1  0.13596600  0.65713800  0.41324000  1
  O  O23  1  0.46066700  0.02993100  0.75018700  1
loop_
_geom_bond_atom_site_label_1
_geom_bond_atom_site_label_2
_geom_bond_distance
_geom_bond_site_symmetry_2
Al0 O21 1.884402 1_555
Al0 O18 1.884402 1_555
Al0 O12 1.925442 1_555
Al0 O9 1.933164 1_555
Al0 O0 1.942812 1_555
Al0 O3 1.942812 1_555
Al1 O5 1.884402 1_555
Al1 O2 1.884402 1_555
Al1 O11 1.925442 1_555
Al1 O14 1.933164 1_555
Al1 O23 1.942812 1_555
Al1 O20 1.942812 1_555
Al2 O6 1.873541 1_555
Al2 O19 1.892634 1_565
Al2 O22 1.892634 1_655
Al2 O0 1.922456 1_555
Al2 O3 1.922456 1_555
Al2 O16 1.960170 1_555
Al3 O17 1.873541 1_555
Al3 O1 1.892634 1_545
Al3 O4 1.892634 1_455
Al3 O23 1.922456 1_555
Al3 O20 1.922456 1_555
Al3 O7 1.960170 1_555
Co0 O15 1.919642 1_555
Co0 O18 1.936778 1_555
Co0 O0 2.041660 1_455
Co0 O12 2.049637 1_555
Co0 O6 2.054051 1_455
Co0 O9 2.055174 1_455
Co1 O13 1.869389 1_545
Co1 O10 1.869389 1_555
Co1 O19 1.902619 1_555
Co1 O1 1.902619 1_545
Co1 O7 1.960409 1_555
Co1 O16 1.960409 1_545
Co2 O8 1.919641 1_555
Co2 O2 1.936782 1_555
Co2 O20 2.041655 1_655
Co2 O11 2.049641 1_555
Co2 O17 2.054050 1_655
Co2 O14 2.055170 1_655
Co3 O18 1.834311 1_545
Co3 O21 1.834311 1_455
Co3 O15 1.874765 1_555
Co3 O14 1.903015 1_554
Co4 O22 1.836145 1_555
Co4 O19 1.836145 1_555
Co4 O12 1.947137 1_555
Co4 O16 2.016735 1_555
Co5 O13 1.949319 1_555
Co5 O23 1.963653 1_565
Co5 O20 1.963653 1_655
Co5 O17 1.979596 1_665
Co6 O15 1.919641 1_555
Co6 O21 1.936782 1_555
Co6 O3 2.041655 1_545
Co6 O12 2.049641 1_555
Co6 O6 2.054050 1_545
Co6 O9 2.055170 1_545
Co7 O13 1.869389 1_455
Co7 O10 1.869389 1_555
Co7 O22 1.902619 1_555
Co7 O4 1.902619 1_455
Co7 O7 1.960409 1_555
Co7 O16 1.960409 1_455
Co8 O8 1.919641 1_555
Co8 O5 1.936782 1_555
Co8 O23 2.041655 1_565
Co8 O11 2.049641 1_555
Co8 O17 2.054050 1_565
Co8 O14 2.055170 1_565
Co9 O10 1.949319 1_555
Co9 O0 1.963653 1_455
Co9 O3 1.963653 1_545
Co9 O6 1.979596 1_445
Co10 O4 1.836145 1_555
Co10 O1 1.836145 1_555
Co10 O11 1.947137 1_555
Co10 O7 2.016735 1_555
Co11 O2 1.834311 1_565
Co11 O5 1.834311 1_655
Co11 O8 1.874765 1_555
Co11 O9 1.903015 1_556
