# generated using pymatgen
data_Pr3ZrSb5
_symmetry_space_group_name_H-M   'P 1'
_cell_length_a   9.66390178
_cell_length_b   9.66389599
_cell_length_c   6.28223742
_cell_angle_alpha   90.00002670
_cell_angle_beta   90.00000221
_cell_angle_gamma   119.99983484
_symmetry_Int_Tables_number   1
_chemical_formula_structural   Pr3ZrSb5
_chemical_formula_sum   'Pr6 Zr2 Sb10'
_cell_volume   508.10147335
_cell_formula_units_Z   2
loop_
 _symmetry_equiv_pos_site_id
 _symmetry_equiv_pos_as_xyz
  1  'x, y, z'
loop_
 _atom_site_type_symbol
 _atom_site_label
 _atom_site_symmetry_multiplicity
 _atom_site_fract_x
 _atom_site_fract_y
 _atom_site_fract_z
 _atom_site_occupancy
  Pr  Pr0  1  0.61927814  -0.00000044  0.75000021  1
  Pr  Pr1  1  0.38072173  -0.00000156  0.24999969  1
  Pr  Pr2  1  0.00000204  0.61927902  0.75000030  1
  Pr  Pr3  1  0.00000004  0.38072114  0.24999969  1
  Pr  Pr4  1  0.38072117  0.38072212  0.75000022  1
  Pr  Pr5  1  0.61927753  0.61927960  0.24999979  1
  Zr  Zr0  1  -0.00000066  0.00000012  0.50000014  1
  Zr  Zr1  1  -0.00000035  0.00000017  0.00000021  1
  Sb  Sb0  1  0.26122069  -0.00000096  0.75000027  1
  Sb  Sb1  1  0.73877947  0.00000092  0.24999966  1
  Sb  Sb2  1  -0.00000074  0.26122057  0.75000037  1
  Sb  Sb3  1  0.00000150  0.73878036  0.24999970  1
  Sb  Sb4  1  0.73877969  0.73878084  0.75000020  1
  Sb  Sb5  1  0.26121993  0.26122057  0.24999968  1
  Sb  Sb6  1  0.33333241  0.66666762  0.50000003  1
  Sb  Sb7  1  0.66666749  0.33333122  0.50000006  1
  Sb  Sb8  1  0.66666754  0.33333120  -0.00000016  1
  Sb  Sb9  1  0.33333237  0.66666748  -0.00000007  1
loop_
_geom_bond_atom_site_label_1
_geom_bond_atom_site_label_2
_geom_bond_distance
_geom_bond_site_symmetry_2
Pr0 Sb4 3.259066 1_545
Pr0 Sb2 3.259087 1_655
Pr0 Sb1 3.346680 1_556
Pr0 Sb1 3.346686 1_555
Pr0 Sb8 3.402617 1_556
Pr0 Sb7 3.402621 1_555
Pr0 Sb6 3.402638 1_545
Pr0 Sb9 3.402639 1_546
Pr0 Sb0 3.460230 1_555
Pr1 Sb3 3.259075 1_545
Pr1 Sb5 3.259099 1_555
Pr1 Sb0 3.346682 1_554
Pr1 Sb0 3.346689 1_555
Pr1 Sb9 3.402612 1_545
Pr1 Sb6 3.402614 1_545
Pr1 Sb7 3.402643 1_555
Pr1 Sb8 3.402643 1_555
Pr1 Sb1 3.460223 1_555
Pr2 Sb0 3.259073 1_565
Pr2 Sb4 3.259102 1_455
Pr2 Sb3 3.346682 1_556
Pr2 Sb3 3.346690 1_555
Pr2 Sb9 3.402612 1_556
Pr2 Sb6 3.402614 1_555
Pr2 Sb8 3.402658 1_456
Pr2 Sb7 3.402659 1_455
Pr2 Sb2 3.460226 1_555
Pr3 Sb5 3.259070 1_555
Pr3 Sb1 3.259078 1_455
Pr3 Sb2 3.346677 1_554
Pr3 Sb2 3.346686 1_555
Pr3 Sb8 3.402626 1_455
Pr3 Sb7 3.402628 1_455
Pr3 Sb9 3.402643 1_555
Pr3 Sb6 3.402644 1_555
Pr3 Sb3 3.460240 1_555
Pr4 Sb2 3.259088 1_555
Pr4 Sb0 3.259099 1_555
Pr4 Sb5 3.346684 1_556
Pr4 Sb5 3.346689 1_555
Pr4 Sb9 3.402639 1_556
Pr4 Sb6 3.402643 1_555
Pr4 Sb8 3.402661 1_556
Pr4 Sb7 3.402662 1_555
Pr4 Sb4 3.460251 1_555
Pr5 Sb1 3.259080 1_565
Pr5 Sb3 3.259109 1_655
Pr5 Sb4 3.346686 1_554
Pr5 Sb4 3.346689 1_555
Pr5 Sb9 3.402635 1_555
Pr5 Sb6 3.402637 1_555
Pr5 Sb8 3.402672 1_555
Pr5 Sb7 3.402674 1_555
Pr5 Sb5 3.460248 1_555
Sb0 Zr1 2.973105 1_556
Sb0 Zr0 2.973108 1_555
Sb1 Zr1 2.973095 1_655
Sb1 Zr0 2.973095 1_655
Sb2 Zr0 2.973095 1_555
Sb2 Zr1 2.973095 1_556
Sb3 Zr1 2.973095 1_565
Sb3 Zr0 2.973098 1_565
Sb4 Zr1 2.973093 1_666
Sb4 Zr0 2.973093 1_665
Sb5 Zr1 2.973097 1_555
Sb5 Zr0 2.973103 1_555
Sb6 Sb9 3.141118 1_556
Sb6 Sb9 3.141119 1_555
Sb7 Sb8 3.141117 1_556
Sb7 Sb8 3.141120 1_555
