# generated using pymatgen
data_CaSnAs2O7
_symmetry_space_group_name_H-M   'P 1'
_cell_length_a   9.47260900
_cell_length_b   7.91123300
_cell_length_c   9.97287974
_cell_angle_alpha   64.04908553
_cell_angle_beta   90.00000000
_cell_angle_gamma   90.00000000
_symmetry_Int_Tables_number   1
_chemical_formula_structural   CaSnAs2O7
_chemical_formula_sum   'Ca4 Sn4 As8 O28'
_cell_volume   672.01013828
_cell_formula_units_Z   4
loop_
 _symmetry_equiv_pos_site_id
 _symmetry_equiv_pos_as_xyz
  1  'x, y, z'
loop_
 _atom_site_type_symbol
 _atom_site_label
 _atom_site_symmetry_multiplicity
 _atom_site_fract_x
 _atom_site_fract_y
 _atom_site_fract_z
 _atom_site_occupancy
  Ca  Ca0  1  0.05350300  0.73630300  0.92278800  1
  Ca  Ca1  1  0.55350300  0.26369700  0.57721200  1
  Ca  Ca2  1  0.94649700  0.26369700  0.07721200  1
  Ca  Ca3  1  0.44649700  0.73630300  0.42278800  1
  Sn  Sn0  1  0.95240500  0.23920300  0.64412700  1
  Sn  Sn1  1  0.45240500  0.76079700  0.85587300  1
  Sn  Sn2  1  0.04759500  0.76079700  0.35587300  1
  Sn  Sn3  1  0.54759500  0.23920300  0.14412700  1
  As  As0  1  0.75611600  0.58469900  0.72504700  1
  As  As1  1  0.25611600  0.41530100  0.77495300  1
  As  As2  1  0.24388400  0.41530100  0.27495300  1
  As  As3  1  0.74388400  0.58469900  0.22504700  1
  As  As4  1  0.72422300  0.99639800  0.94067500  1
  As  As5  1  0.22422300  0.00360200  0.55932500  1
  As  As6  1  0.27577700  0.00360200  0.05932500  1
  As  As7  1  0.77577700  0.99639800  0.44067500  1
  O  O0  1  0.74090800  0.12526100  0.03845400  1
  O  O1  1  0.24090800  0.87473900  0.46154600  1
  O  O2  1  0.25909200  0.87473900  0.96154600  1
  O  O3  1  0.75909200  0.12526100  0.53845400  1
  O  O4  1  0.58738100  0.66865800  0.70561800  1
  O  O5  1  0.08738100  0.33134200  0.79438200  1
  O  O6  1  0.41261900  0.33134200  0.29438200  1
  O  O7  1  0.91261900  0.66865800  0.20561800  1
  O  O8  1  0.85932400  0.56420400  0.87202600  1
  O  O9  1  0.35932400  0.43579600  0.62797400  1
  O  O10  1  0.14067600  0.43579600  0.12797400  1
  O  O11  1  0.64067600  0.56420400  0.37202600  1
  O  O12  1  0.83793900  0.76450200  0.56171600  1
  O  O13  1  0.33793900  0.23549800  0.93828400  1
  O  O14  1  0.16206100  0.23549800  0.43828400  1
  O  O15  1  0.66206100  0.76450200  0.06171600  1
  O  O16  1  0.91287400  0.04469000  0.31969200  1
  O  O17  1  0.41287400  0.95531000  0.18030800  1
  O  O18  1  0.08712600  0.95531000  0.68030800  1
  O  O19  1  0.58712600  0.04469000  0.81969200  1
  O  O20  1  0.74362200  0.38649300  0.19621800  1
  O  O21  1  0.24362200  0.61350700  0.30378200  1
  O  O22  1  0.25637800  0.61350700  0.80378200  1
  O  O23  1  0.75637800  0.38649300  0.69621800  1
  O  O24  1  0.61458900  0.99011100  0.36238700  1
  O  O25  1  0.11458900  0.00988900  0.13761300  1
  O  O26  1  0.38541100  0.00988900  0.63761300  1
  O  O27  1  0.88541100  0.99011100  0.86238700  1
loop_
_geom_bond_atom_site_label_1
_geom_bond_atom_site_label_2
_geom_bond_distance
_geom_bond_site_symmetry_2
Ca0 O18 2.298747 1_555
Ca0 O2 2.347760 1_555
Ca0 O27 2.423097 1_455
Ca0 O8 2.469124 1_455
Ca0 O10 2.502685 1_556
Ca0 O22 2.656040 1_555
Ca0 O7 2.949956 1_456
Ca1 O19 2.298747 1_555
Ca1 O3 2.347760 1_555
Ca1 O26 2.423097 1_555
Ca1 O9 2.469124 1_555
Ca1 O11 2.502685 1_555
Ca1 O23 2.656040 1_555
Ca1 O6 2.949956 1_555
Ca2 O16 2.298747 1_555
Ca2 O0 2.347760 1_555
Ca2 O25 2.423097 1_655
Ca2 O10 2.469124 1_655
Ca2 O8 2.502685 1_554
Ca2 O20 2.656040 1_555
Ca2 O5 2.949956 1_654
Ca3 O17 2.298747 1_555
Ca3 O1 2.347760 1_555
Ca3 O24 2.423097 1_555
Ca3 O11 2.469124 1_555
Ca3 O9 2.502685 1_555
Ca3 O21 2.656040 1_555
Ca3 O4 2.949956 1_555
As0 O4 1.709049 1_555
As0 O8 1.709580 1_555
As0 O23 1.713484 1_555
As0 O12 1.802647 1_555
As1 O5 1.709049 1_555
As1 O9 1.709580 1_555
As1 O22 1.713484 1_555
As1 O13 1.802647 1_555
As2 O6 1.709049 1_555
As2 O10 1.709580 1_555
As2 O21 1.713484 1_555
As2 O14 1.802647 1_555
As3 O7 1.709049 1_555
As3 O11 1.709580 1_555
As3 O20 1.713484 1_555
As3 O15 1.802647 1_555
As4 O19 1.698476 1_565
As4 O0 1.698599 1_566
As4 O27 1.725508 1_555
As4 O15 1.797604 1_556
As5 O18 1.698476 1_545
As5 O1 1.698599 1_545
As5 O26 1.725508 1_555
As5 O14 1.797604 1_555
As6 O17 1.698476 1_545
As6 O2 1.698599 1_544
As6 O25 1.725508 1_555
As6 O13 1.797604 1_554
As7 O16 1.698476 1_565
As7 O3 1.698599 1_565
As7 O24 1.725508 1_555
As7 O12 1.797604 1_555
O0 Sn3 2.471402 1_555
O1 Sn2 2.471402 1_555
O2 Sn1 2.471402 1_555
O3 Sn0 2.471402 1_555
O4 Sn1 2.316786 1_555
O5 Sn0 2.316786 1_455
O6 Sn3 2.316786 1_555
O7 Sn2 2.316786 1_655
O16 Sn2 2.468558 1_645
O17 Sn3 2.468558 1_565
O18 Sn0 2.468558 1_465
O19 Sn1 2.468558 1_545
O20 Sn3 2.367594 1_555
O21 Sn2 2.367594 1_555
O22 Sn1 2.367594 1_555
O23 Sn0 2.367594 1_555
O24 Sn3 2.295630 1_565
O25 Sn2 2.295630 1_545
O26 Sn1 2.295630 1_545
O27 Sn0 2.295630 1_565
