# generated using pymatgen
data_Li9Mn2Co5O16
_symmetry_space_group_name_H-M   'P 1'
_cell_length_a   5.86935300
_cell_length_b   5.92503226
_cell_length_c   9.75328191
_cell_angle_alpha   99.63708787
_cell_angle_beta   90.20846930
_cell_angle_gamma   119.45717260
_symmetry_Int_Tables_number   1
_chemical_formula_structural   Li9Mn2Co5O16
_chemical_formula_sum   'Li9 Mn2 Co5 O16'
_cell_volume   289.70163064
_cell_formula_units_Z   1
loop_
 _symmetry_equiv_pos_site_id
 _symmetry_equiv_pos_as_xyz
  1  'x, y, z'
loop_
 _atom_site_type_symbol
 _atom_site_label
 _atom_site_symmetry_multiplicity
 _atom_site_fract_x
 _atom_site_fract_y
 _atom_site_fract_z
 _atom_site_occupancy
  Li  Li0  1  0.86901400  0.25417500  0.73303000  1
  Li  Li1  1  0.50000000  0.00000000  0.50000000  1
  Li  Li2  1  0.13098600  0.74582500  0.26697000  1
  Li  Li3  1  0.75074300  0.50013200  0.99991100  1
  Li  Li4  1  0.37403500  0.25406400  0.74247800  1
  Li  Li5  1  0.00000000  0.00000000  0.50000000  1
  Li  Li6  1  0.62596500  0.74593600  0.25752200  1
  Li  Li7  1  0.24925700  0.49986800  0.00008900  1
  Li  Li8  1  0.00000000  0.50000000  0.50000000  1
  Mn  Mn0  1  0.74989100  0.00004400  0.99932700  1
  Mn  Mn1  1  0.25010900  0.99995600  0.00067300  1
  Co  Co0  1  0.87699800  0.74663300  0.73839900  1
  Co  Co1  1  0.12300200  0.25336700  0.26160100  1
  Co  Co2  1  0.36158400  0.73368500  0.73808800  1
  Co  Co3  1  0.50000000  0.50000000  0.50000000  1
  Co  Co4  1  0.63841600  0.26631500  0.26191200  1
  O  O0  1  0.05095000  0.10557000  0.88894200  1
  O  O1  1  0.67941600  0.86889300  0.62695700  1
  O  O2  1  0.31847600  0.60176300  0.37324500  1
  O  O3  1  0.92431400  0.34627500  0.12272700  1
  O  O4  1  0.55046900  0.10314500  0.88814400  1
  O  O5  1  0.18418200  0.88092800  0.63948200  1
  O  O6  1  0.80035400  0.60399700  0.36898900  1
  O  O7  1  0.41945100  0.34111800  0.12201600  1
  O  O8  1  0.68152400  0.39823700  0.62675500  1
  O  O9  1  0.32058400  0.13110700  0.37304300  1
  O  O10  1  0.94905000  0.89443000  0.11105800  1
  O  O11  1  0.58054900  0.65888200  0.87798400  1
  O  O12  1  0.19964600  0.39600300  0.63101100  1
  O  O13  1  0.81581800  0.11907200  0.36051800  1
  O  O14  1  0.44953100  0.89685500  0.11185600  1
  O  O15  1  0.07568600  0.65372500  0.87727300  1
loop_
_geom_bond_atom_site_label_1
_geom_bond_atom_site_label_2
_geom_bond_distance
_geom_bond_site_symmetry_2
Li0 O12 2.037702 1_655
Li0 O1 2.054807 1_545
Li0 O8 2.055660 1_555
Li0 O15 2.258994 1_655
Li0 O4 2.326685 1_555
Li0 O0 2.364144 1_655
Li1 O1 2.088721 1_545
Li1 O9 2.088721 1_555
Li1 O8 2.184543 1_555
Li1 O2 2.184543 1_545
Li1 O5 2.199525 1_545
Li1 O13 2.199525 1_555
Li2 O6 2.037702 1_455
Li2 O9 2.054807 1_565
Li2 O2 2.055660 1_555
Li2 O3 2.258994 1_455
Li2 O14 2.326685 1_555
Li2 O10 2.364144 1_455
Li3 O10 2.110987 1_556
Li3 O4 2.124967 1_555
Li3 O15 2.137824 1_655
Li3 O3 2.138666 1_556
Li3 O11 2.141669 1_555
Li3 O7 2.162776 1_556
Li4 O5 1.990947 1_545
Li4 O12 2.020277 1_555
Li4 O8 2.020423 1_555
Li4 O11 2.244215 1_555
Li4 O0 2.282593 1_555
Li4 O4 2.283816 1_555
Li5 O13 2.139588 1_455
Li5 O5 2.139588 1_545
Li5 O1 2.139762 1_445
Li5 O9 2.139762 1_555
Li5 O12 2.189116 1_555
Li5 O6 2.189116 1_445
Li6 O13 1.990947 1_565
Li6 O6 2.020277 1_555
Li6 O2 2.020423 1_555
Li6 O7 2.244215 1_555
Li6 O10 2.282593 1_555
Li6 O14 2.283816 1_555
Li7 O0 2.110987 1_554
Li7 O14 2.124967 1_555
Li7 O3 2.137824 1_455
Li7 O15 2.138666 1_554
Li7 O7 2.141669 1_555
Li7 O11 2.162776 1_554
Li8 O6 2.085283 1_455
Li8 O12 2.085283 1_555
Li8 O8 2.131641 1_455
Li8 O2 2.131641 1_555
Li8 O13 2.162163 1_455
Li8 O5 2.162163 1_555
Mn0 O11 1.920674 1_545
Mn0 O3 1.950321 1_556
Mn0 O0 1.955755 1_655
Mn0 O4 1.958295 1_555
Mn0 O14 1.965934 1_546
Mn0 O10 1.970793 1_546
Mn1 O7 1.920674 1_565
Mn1 O15 1.950321 1_554
Mn1 O10 1.955755 1_455
Mn1 O14 1.958295 1_555
Mn1 O4 1.965934 1_564
Mn1 O0 1.970793 1_564
Co0 O8 1.916279 1_555
Co0 O5 1.916580 1_655
Co0 O1 2.032658 1_555
Co0 O15 2.089769 1_655
Co0 O11 2.125018 1_555
Co0 O0 2.128184 1_665
Co1 O2 1.916279 1_555
Co1 O13 1.916580 1_455
Co1 O9 2.032658 1_555
Co1 O3 2.089769 1_455
Co1 O7 2.125018 1_555
Co1 O10 2.128184 1_445
Co2 O12 1.849314 1_555
Co2 O5 1.984262 1_555
Co2 O1 2.032770 1_555
Co2 O15 2.081607 1_555
Co2 O11 2.111821 1_555
Co2 O4 2.166009 1_565
Co3 O8 1.974559 1_555
Co3 O2 1.974559 1_555
Co3 O1 2.059136 1_555
Co3 O9 2.059136 1_555
Co3 O6 2.081298 1_555
Co3 O12 2.081298 1_555
Co4 O6 1.849314 1_555
Co4 O13 1.984262 1_555
Co4 O9 2.032770 1_555
Co4 O3 2.081607 1_555
Co4 O7 2.111821 1_555
Co4 O14 2.166009 1_545
