# generated using pymatgen
data_Y4Si2S3O7
_symmetry_space_group_name_H-M   'P 1'
_cell_length_a   10.78870448
_cell_length_b   10.78870448
_cell_length_c   10.78870448
_cell_angle_alpha   113.90067638
_cell_angle_beta   113.90067638
_cell_angle_gamma   100.93499934
_symmetry_Int_Tables_number   1
_chemical_formula_structural   Y4Si2S3O7
_chemical_formula_sum   'Y16 Si8 S12 O28'
_cell_volume   950.93933765
_cell_formula_units_Z   4
loop_
 _symmetry_equiv_pos_site_id
 _symmetry_equiv_pos_as_xyz
  1  'x, y, z'
loop_
 _atom_site_type_symbol
 _atom_site_label
 _atom_site_symmetry_multiplicity
 _atom_site_fract_x
 _atom_site_fract_y
 _atom_site_fract_z
 _atom_site_occupancy
  Y  Y0  1  0.03344100  0.79832200  0.76488100  1
  Y  Y1  1  0.54832200  0.28344100  0.26488100  1
  Y  Y2  1  0.01856000  0.28344100  0.73511900  1
  Y  Y3  1  0.03344100  0.26856000  0.23511900  1
  Y  Y4  1  0.71655900  0.45167800  0.73511900  1
  Y  Y5  1  0.20167800  0.96655900  0.23511900  1
  Y  Y6  1  0.73144000  0.96655900  0.76488100  1
  Y  Y7  1  0.71655900  0.98144000  0.26488100  1
  Y  Y8  1  0.67208300  0.67208300  0.34416600  1
  Y  Y9  1  0.32791700  0.67208300  0.00000000  1
  Y  Y10  1  0.42208300  0.92208300  0.84416600  1
  Y  Y11  1  0.07791700  0.92208300  0.50000000  1
  Y  Y12  1  0.67208300  0.32791700  0.00000000  1
  Y  Y13  1  0.32791700  0.32791700  0.65583400  1
  Y  Y14  1  0.42208300  0.57791700  0.50000000  1
  Y  Y15  1  0.07791700  0.57791700  0.15583400  1
  Si  Si0  1  0.27941400  0.15465200  0.87523800  1
  Si  Si1  1  0.90465200  0.52941400  0.37523800  1
  Si  Si2  1  0.15417700  0.52941400  0.62476200  1
  Si  Si3  1  0.27941400  0.40417700  0.12476200  1
  Si  Si4  1  0.47058600  0.09534800  0.62476200  1
  Si  Si5  1  0.84534800  0.72058600  0.12476200  1
  Si  Si6  1  0.59582300  0.72058600  0.87523800  1
  Si  Si7  1  0.47058600  0.84582300  0.37523800  1
  S  S0  1  0.72898800  0.12500000  0.10398800  1
  S  S1  1  0.02101200  0.12500000  0.39601200  1
  S  S2  1  0.87500000  0.97898800  0.60398800  1
  S  S3  1  0.37500000  0.97898800  0.10398800  1
  S  S4  1  0.72898800  0.62500000  0.60398800  1
  S  S5  1  0.02101200  0.62500000  0.89601200  1
  S  S6  1  0.87500000  0.27101200  0.89601200  1
  S  S7  1  0.37500000  0.27101200  0.39601200  1
  S  S8  1  0.00000000  0.00000000  0.00000000  1
  S  S9  1  0.75000000  0.25000000  0.50000000  1
  S  S10  1  0.25000000  0.75000000  0.50000000  1
  S  S11  1  0.50000000  0.50000000  0.00000000  1
  O  O0  1  0.45676300  0.19262800  0.98206900  1
  O  O1  1  0.21055900  0.19262800  0.73586500  1
  O  O2  1  0.94262800  0.70676300  0.48206900  1
  O  O3  1  0.22469400  0.70676300  0.76413500  1
  O  O4  1  0.45676300  0.47469400  0.26413500  1
  O  O5  1  0.21055900  0.47469400  0.01793100  1
  O  O6  1  0.94262800  0.46055900  0.23586500  1
  O  O7  1  0.22469400  0.46055900  0.51793100  1
  O  O8  1  0.29323700  0.05737200  0.51793100  1
  O  O9  1  0.53944100  0.05737200  0.76413500  1
  O  O10  1  0.80737200  0.54323700  0.01793100  1
  O  O11  1  0.52530600  0.54323700  0.73586500  1
  O  O12  1  0.29323700  0.77530600  0.23586500  1
  O  O13  1  0.53944100  0.77530600  0.48206900  1
  O  O14  1  0.80737200  0.78944100  0.26413500  1
  O  O15  1  0.52530600  0.78944100  0.98206900  1
  O  O16  1  0.20129700  0.96944400  0.76814800  1
  O  O17  1  0.71944400  0.45129700  0.26814800  1
  O  O18  1  0.18314900  0.45129700  0.73185200  1
  O  O19  1  0.20129700  0.43314900  0.23185200  1
  O  O20  1  0.54870300  0.28055600  0.73185200  1
  O  O21  1  0.03055600  0.79870300  0.23185200  1
  O  O22  1  0.56685100  0.79870300  0.76814800  1
  O  O23  1  0.54870300  0.81685100  0.26814800  1
  O  O24  1  0.22622500  0.22622500  0.00000000  1
  O  O25  1  0.97622500  0.47622500  0.50000000  1
  O  O26  1  0.52377500  0.02377500  0.50000000  1
  O  O27  1  0.77377500  0.77377500  0.00000000  1
loop_
_geom_bond_atom_site_label_1
_geom_bond_atom_site_label_2
_geom_bond_distance
_geom_bond_site_symmetry_2
S0 Y7 2.778174 1_545
S0 Y3 2.778174 1_655
S0 Y10 2.893125 1_544
S0 Y12 2.893125 1_555
S0 Y6 3.366834 1_544
S0 Y1 3.366834 1_555
S1 Y3 2.778174 1_555
S1 Y7 2.778174 1_445
S1 Y11 2.893125 1_545
S1 Y13 2.893125 1_555
S1 Y2 3.366834 1_555
S1 Y5 3.366834 1_545
S2 Y2 2.778174 1_665
S2 Y6 2.778174 1_555
S2 Y8 2.893125 1_555
S2 Y11 2.893125 1_655
S2 Y7 3.366834 1_555
S2 Y0 3.366834 1_655
S3 Y5 2.778174 1_555
S3 Y1 2.778174 1_565
S3 Y10 2.893125 1_554
S3 Y9 2.893125 1_555
S3 Y7 3.366834 1_555
S3 Y0 3.366834 1_554
S4 Y4 2.778174 1_555
S4 Y0 2.778174 1_655
S4 Y8 2.893125 1_555
S4 Y14 2.893125 1_555
S4 Y6 3.366834 1_555
S4 Y1 3.366834 1_555
S5 Y0 2.778174 1_555
S5 Y4 2.778174 1_455
S5 Y15 2.893125 1_556
S5 Y9 2.893125 1_556
S5 Y5 3.366834 1_556
S5 Y2 3.366834 1_555
S6 Y2 2.778174 1_655
S6 Y6 2.778174 1_545
S6 Y12 2.893125 1_556
S6 Y15 2.893125 1_656
S6 Y3 3.366834 1_656
S6 Y4 3.366834 1_555
S7 Y1 2.778174 1_555
S7 Y5 2.778174 1_545
S7 Y13 2.893125 1_555
S7 Y14 2.893125 1_555
S7 Y4 3.366834 1_555
S7 Y3 3.366834 1_555
S8 Y0 2.804644 1_544
S8 Y6 2.804644 1_444
S8 Y3 2.804644 1_555
S8 Y5 2.804644 1_545
S9 Y2 2.804644 1_655
S9 Y4 2.804644 1_555
S9 Y7 2.804644 1_545
S9 Y1 2.804644 1_555
S10 Y10 2.863783 1_555
S10 Y15 2.863783 1_555
S10 Y14 2.863783 1_555
S10 Y11 2.863783 1_555
S11 Y13 2.863783 1_554
S11 Y9 2.863783 1_555
S11 Y12 2.863783 1_555
S11 Y8 2.863783 1_555
O0 Si0 1.640194 1_555
O0 Y12 2.384312 1_556
O0 Y1 2.452267 1_556
O0 Y10 2.547323 1_545
O1 Si0 1.640194 1_555
O1 Y13 2.384312 1_555
O1 Y2 2.452267 1_555
O1 Y11 2.547323 1_545
O2 Si1 1.640194 1_555
O2 Y11 2.384312 1_655
O2 Y0 2.452267 1_655
O2 Y8 2.547323 1_555
O3 Si2 1.640195 1_555
O3 Y10 2.384312 1_555
O3 Y0 2.452267 1_555
O3 Y9 2.547323 1_556
O4 Si3 1.640195 1_555
O4 Y8 2.384312 1_555
O4 Y1 2.452267 1_555
O4 Y14 2.547323 1_555
O5 Si3 1.640185 1_555
O5 Y9 2.384312 1_555
O5 Y2 2.452267 1_554
O5 Y15 2.547323 1_555
O6 Si1 1.640194 1_555
O6 Y15 2.384312 1_655
O6 Y3 2.452267 1_655
O6 Y12 2.547323 1_555
O7 Si2 1.640185 1_555
O7 Y14 2.384312 1_555
O7 Y3 2.452267 1_555
O7 Y13 2.547323 1_555
O8 Si4 1.640194 1_555
O8 Y11 2.384312 1_545
O8 Y5 2.452267 1_545
O8 Y13 2.547323 1_555
O9 Si4 1.640194 1_555
O9 Y10 2.384312 1_545
O9 Y6 2.452267 1_545
O9 Y12 2.547323 1_556
O10 Si5 1.640194 1_555
O10 Y12 2.384312 1_555
O10 Y4 2.452267 1_554
O10 Y15 2.547323 1_655
O11 Si6 1.640195 1_555
O11 Y13 2.384312 1_555
O11 Y4 2.452267 1_555
O11 Y14 2.547323 1_555
O12 Si7 1.640195 1_555
O12 Y15 2.384312 1_555
O12 Y5 2.452267 1_555
O12 Y9 2.547323 1_555
O13 Si7 1.640185 1_555
O13 Y14 2.384312 1_555
O13 Y6 2.452267 1_555
O13 Y8 2.547323 1_555
O14 Si5 1.640194 1_555
O14 Y8 2.384312 1_555
O14 Y7 2.452267 1_555
O14 Y11 2.547323 1_655
O15 Si6 1.640185 1_555
O15 Y9 2.384312 1_556
O15 Y7 2.452267 1_556
O15 Y10 2.547323 1_555
O16 Si0 1.655052 1_565
O16 Y0 2.305709 1_555
O16 Y10 2.413702 1_555
O16 Y11 2.413711 1_555
O17 Si1 1.655052 1_555
O17 Y1 2.305709 1_555
O17 Y8 2.413702 1_555
O17 Y12 2.413711 1_555
O18 Si2 1.655043 1_555
O18 Y2 2.305716 1_555
O18 Y13 2.413707 1_555
O18 Y9 2.413707 1_556
O19 Si3 1.655043 1_555
O19 Y3 2.305716 1_555
O19 Y15 2.413707 1_555
O19 Y14 2.413707 1_555
O20 Si4 1.655052 1_555
O20 Y4 2.305709 1_555
O20 Y13 2.413702 1_555
O20 Y12 2.413711 1_556
O21 Si5 1.655052 1_455
O21 Y5 2.305709 1_555
O21 Y15 2.413702 1_555
O21 Y11 2.413711 1_555
O22 Si6 1.655043 1_555
O22 Y6 2.305716 1_555
O22 Y10 2.413707 1_555
O22 Y14 2.413707 1_555
O23 Si7 1.655043 1_555
O23 Y7 2.305716 1_555
O23 Y8 2.413707 1_555
O23 Y9 2.413707 1_555
O24 Si0 1.639851 1_554
O24 Si3 1.639859 1_555
O25 Si1 1.639851 1_555
O25 Si2 1.639859 1_655
O26 Si4 1.639851 1_555
O26 Si7 1.639859 1_545
O27 Si5 1.639851 1_555
O27 Si6 1.639859 1_554
