# generated using pymatgen
data_Sr2Mg
_symmetry_space_group_name_H-M   'P 1'
_cell_length_a   7.84217365
_cell_length_b   7.84217365
_cell_length_c   7.84217365
_cell_angle_alpha   148.65900092
_cell_angle_beta   148.65900092
_cell_angle_gamma   44.91348228
_symmetry_Int_Tables_number   1
_chemical_formula_structural   Sr2Mg
_chemical_formula_sum   'Sr2 Mg1'
_cell_volume   130.07228957
_cell_formula_units_Z   1
loop_
 _symmetry_equiv_pos_site_id
 _symmetry_equiv_pos_as_xyz
  1  'x, y, z'
loop_
 _atom_site_type_symbol
 _atom_site_label
 _atom_site_symmetry_multiplicity
 _atom_site_fract_x
 _atom_site_fract_y
 _atom_site_fract_z
 _atom_site_occupancy
  Sr  Sr0  1  0.35803386  0.35803386  -0.00000000  1
  Sr  Sr1  1  0.64196614  0.64196614  0.00000000  1
  Mg  Mg0  1  0.00000000  0.00000000  -0.00000000  1
loop_
_geom_bond_atom_site_label_1
_geom_bond_atom_site_label_2
_geom_bond_distance
_geom_bond_site_symmetry_2
Mg0 Sr1 3.634300 1_556
Mg0 Sr1 3.634300 1_455
Mg0 Sr1 3.634300 1_444
Mg0 Sr1 3.634300 1_545
Mg0 Sr0 3.634300 1_455
Mg0 Sr0 3.634300 1_556
Mg0 Sr0 3.634300 1_444
Mg0 Sr0 3.634300 1_545
