# generated using pymatgen
data_Ba2As6O11
_symmetry_space_group_name_H-M   'P 1'
_cell_length_a   5.28603661
_cell_length_b   7.11697136
_cell_length_c   9.08056850
_cell_angle_alpha   71.25429925
_cell_angle_beta   86.63646603
_cell_angle_gamma   82.83669974
_symmetry_Int_Tables_number   1
_chemical_formula_structural   Ba2As6O11
_chemical_formula_sum   'Ba2 As6 O11'
_cell_volume   320.90705602
_cell_formula_units_Z   1
loop_
 _symmetry_equiv_pos_site_id
 _symmetry_equiv_pos_as_xyz
  1  'x, y, z'
loop_
 _atom_site_type_symbol
 _atom_site_label
 _atom_site_symmetry_multiplicity
 _atom_site_fract_x
 _atom_site_fract_y
 _atom_site_fract_z
 _atom_site_occupancy
  Ba  Ba0  1  0.22084525  0.31838283  0.43099838  1
  Ba  Ba1  1  0.75273074  0.70457218  0.56491546  1
  As  As0  1  0.73208871  0.13243085  0.17972641  1
  As  As1  1  0.25317466  0.88163312  0.83369098  1
  As  As2  1  0.78898038  0.60151116  0.10673630  1
  As  As3  1  0.24537455  0.40214025  0.91293428  1
  As  As4  1  0.25621766  0.87007606  0.26951309  1
  As  As5  1  0.72271492  0.14101844  0.74776047  1
  O  O0  1  0.98643682  0.03737008  0.31903668  1
  O  O1  1  0.99145837  0.96795810  0.70019881  1
  O  O2  1  -0.00001978  0.40348614  0.80025997  1
  O  O3  1  0.10089576  0.46952680  0.07997597  1
  O  O4  1  0.65380692  0.36662722  0.21642657  1
  O  O5  1  0.34930633  0.64893304  0.80134844  1
  O  O6  1  0.27613228  0.69015114  0.44617947  1
  O  O7  1  0.71323167  0.32173259  0.57161971  1
  O  O8  1  0.48814712  0.02529742  0.31634352  1
  O  O9  1  0.47728769  0.00512186  0.69015624  1
  O  O10  1  0.86438994  0.66433173  0.26328223  1
loop_
_geom_bond_atom_site_label_1
_geom_bond_atom_site_label_2
_geom_bond_distance
_geom_bond_site_symmetry_2
Ba0 O6 2.745363 1_555
Ba0 O8 2.814158 1_555
Ba0 O4 2.897402 1_555
Ba0 O7 2.903888 1_455
Ba0 O9 2.931643 1_555
Ba0 O0 2.939653 1_455
Ba0 O10 2.949812 1_455
Ba0 O7 2.971625 1_555
Ba0 O3 3.095555 1_555
Ba0 O1 3.186473 1_445
Ba1 O7 2.739496 1_555
Ba1 O2 2.748247 1_655
Ba1 O6 2.823886 1_555
Ba1 O10 2.864410 1_555
Ba1 O5 2.905295 1_555
Ba1 O6 2.911707 1_655
Ba1 O8 2.919569 1_565
Ba1 O9 2.929358 1_565
Ba1 O1 2.977789 1_555
Ba1 O0 3.021289 1_565
As0 O4 1.797007 1_555
As0 O8 1.797958 1_555
As0 O0 1.813363 1_555
As1 O5 1.781132 1_555
As1 O9 1.793562 1_565
As1 O1 1.807456 1_455
As2 O10 1.702632 1_555
As2 O3 1.836670 1_655
As2 O4 1.855077 1_555
As3 O2 1.695845 1_555
As3 O3 1.831486 1_556
As3 O5 1.856065 1_555
As4 O6 1.700067 1_555
As4 O0 1.870545 1_465
As4 O8 1.898721 1_565
As5 O7 1.698844 1_555
As5 O1 1.885507 1_545
As5 O9 1.899958 1_555
