# generated using pymatgen
data_LaHg3
_symmetry_space_group_name_H-M   'P 1'
_cell_length_a   4.04041386
_cell_length_b   4.04041386
_cell_length_c   8.54834100
_cell_angle_alpha   90.00000000
_cell_angle_beta   90.00000000
_cell_angle_gamma   119.99999765
_symmetry_Int_Tables_number   1
_chemical_formula_structural   LaHg3
_chemical_formula_sum   'La1 Hg3'
_cell_volume   120.85487787
_cell_formula_units_Z   1
loop_
 _symmetry_equiv_pos_site_id
 _symmetry_equiv_pos_as_xyz
  1  'x, y, z'
loop_
 _atom_site_type_symbol
 _atom_site_label
 _atom_site_symmetry_multiplicity
 _atom_site_fract_x
 _atom_site_fract_y
 _atom_site_fract_z
 _atom_site_occupancy
  La  La0  1  0.00000000  0.00000000  0.50000000  1
  Hg  Hg0  1  0.00000000  0.00000000  0.00000000  1
  Hg  Hg1  1  0.33333300  0.66666700  0.76673500  1
  Hg  Hg2  1  0.33333300  0.66666700  0.23326500  1
loop_
_geom_bond_atom_site_label_1
_geom_bond_atom_site_label_2
_geom_bond_distance
_geom_bond_site_symmetry_2
Hg0 Hg1 3.068841 1_544
Hg0 Hg2 3.068841 1_545
Hg0 Hg1 3.068844 1_444
Hg0 Hg1 3.068844 1_554
Hg0 Hg2 3.068844 1_445
Hg0 Hg2 3.068844 1_555
Hg1 La0 3.262006 1_565
Hg1 La0 3.262009 1_555
Hg1 La0 3.262009 1_665
Hg2 La0 3.262006 1_565
Hg2 La0 3.262009 1_665
Hg2 La0 3.262009 1_555
