# generated using pymatgen
data_Dy2HfS5
_symmetry_space_group_name_H-M   'P 1'
_cell_length_a   7.23724585
_cell_length_b   7.71780990
_cell_length_c   11.50131603
_cell_angle_alpha   90.00000000
_cell_angle_beta   90.00000000
_cell_angle_gamma   90.00000000
_symmetry_Int_Tables_number   1
_chemical_formula_structural   Dy2HfS5
_chemical_formula_sum   'Dy8 Hf4 S20'
_cell_volume   642.41391596
_cell_formula_units_Z   4
loop_
 _symmetry_equiv_pos_site_id
 _symmetry_equiv_pos_as_xyz
  1  'x, y, z'
loop_
 _atom_site_type_symbol
 _atom_site_label
 _atom_site_symmetry_multiplicity
 _atom_site_fract_x
 _atom_site_fract_y
 _atom_site_fract_z
 _atom_site_occupancy
  Dy  Dy0  1  0.52287393  0.00253953  0.32138051  1
  Dy  Dy1  1  0.97712607  0.49746047  0.82138051  1
  Dy  Dy2  1  0.47712607  0.50253953  0.67861949  1
  Dy  Dy3  1  0.02287393  0.99746047  0.17861949  1
  Dy  Dy4  1  0.47712607  0.99746047  0.67861949  1
  Dy  Dy5  1  0.02287393  0.50253953  0.17861949  1
  Dy  Dy6  1  0.52287393  0.49746047  0.32138051  1
  Dy  Dy7  1  0.97712607  0.00253953  0.82138051  1
  Hf  Hf0  1  0.07514696  0.75000000  0.49443937  1
  Hf  Hf1  1  0.42485304  0.75000000  0.99443937  1
  Hf  Hf2  1  0.92485304  0.25000000  0.50556063  1
  Hf  Hf3  1  0.57514696  0.25000000  0.00556063  1
  S  S0  1  0.83902728  0.53582070  0.59292324  1
  S  S1  1  0.66097272  0.96417930  0.09292324  1
  S  S2  1  0.16097272  0.03582070  0.40707676  1
  S  S3  1  0.33902728  0.46417930  0.90707676  1
  S  S4  1  0.16097272  0.46417930  0.40707676  1
  S  S5  1  0.33902728  0.03582070  0.90707676  1
  S  S6  1  0.83902728  0.96417930  0.59292324  1
  S  S7  1  0.66097272  0.53582070  0.09292324  1
  S  S8  1  0.83374229  0.75000000  0.31870390  1
  S  S9  1  0.66625771  0.75000000  0.81870390  1
  S  S10  1  0.16625771  0.25000000  0.68129610  1
  S  S11  1  0.33374229  0.25000000  0.18129610  1
  S  S12  1  0.44700007  0.75000000  0.49662715  1
  S  S13  1  0.05299993  0.75000000  0.99662715  1
  S  S14  1  0.55299993  0.25000000  0.50337285  1
  S  S15  1  0.94700007  0.25000000  0.00337285  1
  S  S16  1  0.18836041  0.75000000  0.70716441  1
  S  S17  1  0.31163959  0.75000000  0.20716441  1
  S  S18  1  0.81163959  0.25000000  0.29283559  1
  S  S19  1  0.68836041  0.25000000  0.79283559  1
loop_
_geom_bond_atom_site_label_1
_geom_bond_atom_site_label_2
_geom_bond_distance
_geom_bond_site_symmetry_2
Dy0 S17 2.803843 1_545
Dy0 S2 2.810243 1_555
Dy0 S1 2.826770 1_545
Dy0 S14 2.841893 1_555
Dy0 S11 2.849026 1_555
Dy0 S18 2.850065 1_555
Dy0 S12 2.857069 1_545
Dy0 S8 2.976826 1_545
Dy1 S16 2.803843 1_655
Dy1 S3 2.810243 1_655
Dy1 S0 2.826770 1_555
Dy1 S15 2.841893 1_556
Dy1 S10 2.849026 1_655
Dy1 S19 2.850065 1_555
Dy1 S13 2.857069 1_655
Dy1 S9 2.976826 1_555
Dy2 S19 2.803843 1_555
Dy2 S0 2.810243 1_555
Dy2 S3 2.826770 1_555
Dy2 S12 2.841893 1_555
Dy2 S9 2.849026 1_555
Dy2 S16 2.850065 1_555
Dy2 S14 2.857069 1_555
Dy2 S10 2.976826 1_555
Dy3 S18 2.803843 1_465
Dy3 S1 2.810243 1_455
Dy3 S2 2.826770 1_565
Dy3 S13 2.841893 1_554
Dy3 S8 2.849026 1_455
Dy3 S17 2.850065 1_555
Dy3 S15 2.857069 1_465
Dy3 S11 2.976826 1_565
Dy4 S19 2.803843 1_565
Dy4 S6 2.810243 1_555
Dy4 S5 2.826770 1_565
Dy4 S12 2.841893 1_555
Dy4 S9 2.849026 1_555
Dy4 S16 2.850065 1_555
Dy4 S14 2.857069 1_565
Dy4 S10 2.976826 1_565
Dy5 S18 2.803843 1_455
Dy5 S7 2.810243 1_455
Dy5 S4 2.826770 1_555
Dy5 S13 2.841893 1_554
Dy5 S8 2.849026 1_455
Dy5 S17 2.850065 1_555
Dy5 S15 2.857069 1_455
Dy5 S11 2.976826 1_555
Dy6 S17 2.803843 1_555
Dy6 S4 2.810243 1_555
Dy6 S7 2.826770 1_555
Dy6 S14 2.841893 1_555
Dy6 S11 2.849026 1_555
Dy6 S18 2.850065 1_555
Dy6 S12 2.857069 1_555
Dy6 S8 2.976826 1_555
Dy7 S16 2.803843 1_645
Dy7 S5 2.810243 1_655
Dy7 S6 2.826770 1_545
Dy7 S15 2.841893 1_556
Dy7 S10 2.849026 1_655
Dy7 S19 2.850065 1_555
Dy7 S13 2.857069 1_645
Dy7 S9 2.976826 1_545
Hf0 S2 2.502289 1_565
Hf0 S4 2.502289 1_555
Hf0 S16 2.580170 1_555
Hf0 S6 2.633549 1_455
Hf0 S0 2.633549 1_455
Hf0 S8 2.671625 1_455
Hf0 S12 2.691310 1_555
Hf1 S5 2.502289 1_565
Hf1 S3 2.502289 1_555
Hf1 S17 2.580170 1_556
Hf1 S1 2.633549 1_556
Hf1 S7 2.633549 1_556
Hf1 S9 2.671625 1_555
Hf1 S13 2.691310 1_555
Hf2 S0 2.502289 1_555
Hf2 S6 2.502289 1_545
Hf2 S18 2.580170 1_555
Hf2 S4 2.633549 1_655
Hf2 S2 2.633549 1_655
Hf2 S10 2.671625 1_655
Hf2 S14 2.691310 1_555
Hf3 S7 2.502289 1_555
Hf3 S1 2.502289 1_545
Hf3 S19 2.580170 1_554
Hf3 S3 2.633549 1_554
Hf3 S5 2.633549 1_554
Hf3 S11 2.671625 1_555
Hf3 S15 2.691310 1_555
