# generated using pymatgen
data_Ba3Sr5Co3(CuO4)5
_symmetry_space_group_name_H-M   'P 1'
_cell_length_a   11.21936155
_cell_length_b   11.17134173
_cell_length_c   18.06903403
_cell_angle_alpha   107.89238790
_cell_angle_beta   107.86115618
_cell_angle_gamma   90.52075299
_symmetry_Int_Tables_number   1
_chemical_formula_structural   Ba3Sr5Co3(CuO4)5
_chemical_formula_sum   'Ba12 Sr20 Co12 Cu20 O80'
_cell_volume   2037.89504199
_cell_formula_units_Z   4
loop_
 _symmetry_equiv_pos_site_id
 _symmetry_equiv_pos_as_xyz
  1  'x, y, z'
loop_
 _atom_site_type_symbol
 _atom_site_label
 _atom_site_symmetry_multiplicity
 _atom_site_fract_x
 _atom_site_fract_y
 _atom_site_fract_z
 _atom_site_occupancy
  Ba  Ba0  1  0.31053259  0.05583153  0.11879682  1
  Ba  Ba1  1  0.30656541  0.55453848  0.11898135  1
  Ba  Ba2  1  0.80666453  0.05963907  0.12088663  1
  Ba  Ba3  1  0.80721119  0.55494009  0.11820086  1
  Ba  Ba4  1  0.18541097  0.94757034  0.38334803  1
  Ba  Ba5  1  0.18427975  0.94127782  0.87547053  1
  Ba  Ba6  1  0.68255330  0.43729076  0.87331849  1
  Ba  Ba7  1  0.05863554  0.31547723  0.11822770  1
  Ba  Ba8  1  0.05986380  0.81010680  0.11733795  1
  Ba  Ba9  1  0.55727443  0.31066178  0.11884986  1
  Ba  Ba10  1  0.55571695  0.81240562  0.11971271  1
  Ba  Ba11  1  0.92986560  0.68784984  0.87273868  1
  Sr  Sr0  1  0.30031630  0.05893285  0.61052526  1
  Sr  Sr1  1  0.30821119  0.55444383  0.61084226  1
  Sr  Sr2  1  0.80818723  0.05474284  0.60975148  1
  Sr  Sr3  1  0.79646658  0.55612229  0.61145935  1
  Sr  Sr4  1  0.19256719  0.44679383  0.39316248  1
  Sr  Sr5  1  0.18967474  0.43451844  0.88234168  1
  Sr  Sr6  1  0.69437156  0.44432675  0.39311592  1
  Sr  Sr7  1  0.70124268  0.94718696  0.39126756  1
  Sr  Sr8  1  0.69262349  0.94060479  0.88384522  1
  Sr  Sr9  1  0.05376776  0.30487066  0.60880160  1
  Sr  Sr10  1  0.05104869  0.80431188  0.60949450  1
  Sr  Sr11  1  0.56001238  0.30479054  0.61065877  1
  Sr  Sr12  1  0.55274809  0.79929453  0.60929525  1
  Sr  Sr13  1  0.44560337  0.19349894  0.39053897  1
  Sr  Sr14  1  0.43559876  0.19040675  0.88318668  1
  Sr  Sr15  1  0.44033661  0.69425504  0.39191328  1
  Sr  Sr16  1  0.44393011  0.69437716  0.88363807  1
  Sr  Sr17  1  0.94930915  0.19609865  0.39312547  1
  Sr  Sr18  1  0.94567981  0.19176480  0.88480383  1
  Sr  Sr19  1  0.94526362  0.69896941  0.39415497  1
  Co  Co0  1  0.99231920  0.00171986  0.99423048  1
  Co  Co1  1  0.99435905  0.48627007  0.98274925  1
  Co  Co2  1  0.48778367  0.99403423  0.98301511  1
  Co  Co3  1  0.50105505  0.00032103  0.50208257  1
  Co  Co4  1  0.48716861  0.49199740  0.98491542  1
  Co  Co5  1  0.49683270  0.49575526  0.49755198  1
  Co  Co6  1  0.23937636  0.73823099  0.98192696  1
  Co  Co7  1  0.24994135  0.75325972  0.50339524  1
  Co  Co8  1  0.73836885  0.23985378  0.98313407  1
  Co  Co9  1  0.75279006  0.24982038  0.50079529  1
  Co  Co10  1  0.74320587  0.74792132  0.99427469  1
  Co  Co11  1  0.74867344  0.74966249  0.49752137  1
  Cu  Cu0  1  0.00239425  0.00401399  0.50499721  1
  Cu  Cu1  1  0.00143765  0.50185802  0.50335121  1
  Cu  Cu2  1  0.24464321  0.24456663  0.98984992  1
  Cu  Cu3  1  0.25369498  0.25362019  0.50380498  1
  Cu  Cu4  1  0.12114383  0.11209261  0.25200825  1
  Cu  Cu5  1  0.11224066  0.10067841  0.74392045  1
  Cu  Cu6  1  0.12258610  0.60722376  0.26072143  1
  Cu  Cu7  1  0.11782719  0.59183805  0.74312187  1
  Cu  Cu8  1  0.62633201  0.11294099  0.26016506  1
  Cu  Cu9  1  0.61209624  0.09227148  0.74474391  1
  Cu  Cu10  1  0.62240156  0.60956311  0.26118872  1
  Cu  Cu11  1  0.60995373  0.60503844  0.74617866  1
  Cu  Cu12  1  0.37233614  0.39873992  0.26009606  1
  Cu  Cu13  1  0.36135163  0.39826900  0.74785450  1
  Cu  Cu14  1  0.37710139  0.89894074  0.26031754  1
  Cu  Cu15  1  0.36657210  0.89893919  0.74464228  1
  Cu  Cu16  1  0.87211942  0.40389897  0.26279251  1
  Cu  Cu17  1  0.86725261  0.39084310  0.74283380  1
  Cu  Cu18  1  0.86863580  0.89552319  0.25305002  1
  Cu  Cu19  1  0.85726210  0.90327729  0.74698091  1
  O  O0  1  0.12473588  0.13061248  0.50023845  1
  O  O1  1  0.11051910  0.11525380  0.99436511  1
  O  O2  1  0.12812729  0.63351640  0.49849730  1
  O  O3  1  0.10683749  0.61108084  0.98948273  1
  O  O4  1  0.63027748  0.12718711  0.49578645  1
  O  O5  1  0.61196978  0.10825094  0.98952465  1
  O  O6  1  0.61295625  0.61706898  0.49638796  1
  O  O7  1  0.60645725  0.61308034  0.99256706  1
  O  O8  1  0.12289987  0.36760497  0.99441241  1
  O  O9  1  0.13016627  0.37775965  0.50601446  1
  O  O10  1  0.13316876  0.86038023  0.99594780  1
  O  O11  1  0.12572934  0.88035026  0.51009610  1
  O  O12  1  0.62816204  0.35821438  0.99488705  1
  O  O13  1  0.62525505  0.37848854  0.50786054  1
  O  O14  1  0.63149060  0.86270330  0.99684417  1
  O  O15  1  0.62501048  0.87487911  0.50616353  1
  O  O16  1  0.38423063  0.12014696  0.49992370  1
  O  O17  1  0.36834557  0.12240589  0.99029560  1
  O  O18  1  0.37228230  0.61685351  0.49514883  1
  O  O19  1  0.35723324  0.62635802  0.99038406  1
  O  O20  1  0.87379051  0.12134917  0.49434695  1
  O  O21  1  0.86058381  0.13314834  0.99447767  1
  O  O22  1  0.86330788  0.62863800  0.49981837  1
  O  O23  1  0.85556288  0.63223378  0.99192288  1
  O  O24  1  0.37928946  0.38160128  0.99740648  1
  O  O25  1  0.38501155  0.38105440  0.50599971  1
  O  O26  1  0.38380200  0.87806671  0.99402947  1
  O  O27  1  0.37360434  0.87208398  0.50797806  1
  O  O28  1  0.87752343  0.38361475  0.99397380  1
  O  O29  1  0.87000054  0.37562478  0.50834306  1
  O  O30  1  0.87856405  0.88560464  0.99810821  1
  O  O31  1  0.87495671  0.87911730  0.50702988  1
  O  O32  1  0.06738847  0.08358137  0.13871457  1
  O  O33  1  0.06607322  0.08929397  0.63493141  1
  O  O34  1  0.07569427  0.58838905  0.15065008  1
  O  O35  1  0.08005356  0.58663048  0.63406038  1
  O  O36  1  0.57598424  0.08809326  0.14954625  1
  O  O37  1  0.57926528  0.08441048  0.63610761  1
  O  O38  1  0.57664808  0.58694795  0.15051703  1
  O  O39  1  0.56837466  0.58867198  0.63698851  1
  O  O40  1  0.44378807  0.40847409  0.36865577  1
  O  O41  1  0.42725867  0.41064000  0.86033446  1
  O  O42  1  0.44213723  0.91275252  0.37029488  1
  O  O43  1  0.43797748  0.91217718  0.85628186  1
  O  O44  1  0.94086514  0.41692408  0.37306632  1
  O  O45  1  0.93675746  0.40770871  0.85502863  1
  O  O46  1  0.92769025  0.90388657  0.36142362  1
  O  O47  1  0.92373079  0.92872017  0.86121147  1
  O  O48  1  0.32473719  0.31288239  0.14939306  1
  O  O49  1  0.32806511  0.30706007  0.63829589  1
  O  O50  1  0.32803987  0.80845785  0.15002354  1
  O  O51  1  0.32998577  0.79715861  0.63652076  1
  O  O52  1  0.82703050  0.31449039  0.15240087  1
  O  O53  1  0.82146652  0.29215165  0.63411308  1
  O  O54  1  0.82073196  0.80950824  0.14019947  1
  O  O55  1  0.82288192  0.80130887  0.63902731  1
  O  O56  1  0.18969091  0.20581713  0.36185419  1
  O  O57  1  0.18294291  0.19137488  0.85531773  1
  O  O58  1  0.19174612  0.69989206  0.37089813  1
  O  O59  1  0.18819150  0.68573777  0.85602104  1
  O  O60  1  0.69424839  0.20907353  0.36974638  1
  O  O61  1  0.68861042  0.18473281  0.85796017  1
  O  O62  1  0.69152236  0.70701142  0.37163550  1
  O  O63  1  0.67432784  0.69834791  0.85868352  1
  O  O64  1  0.48020267  0.03997623  0.26376174  1
  O  O65  1  0.45152722  0.05540624  0.74625593  1
  O  O66  1  0.47256477  0.54282662  0.26425431  1
  O  O67  1  0.45457900  0.54514746  0.74938823  1
  O  O68  1  0.98189170  0.03539552  0.26382339  1
  O  O69  1  0.95542110  0.04806636  0.74805507  1
  O  O70  1  0.97114113  0.54623772  0.26437248  1
  O  O71  1  0.95856257  0.53018761  0.73509290  1
  O  O72  1  0.22398073  0.46948700  0.26404598  1
  O  O73  1  0.20091747  0.43877894  0.74575251  1
  O  O74  1  0.23360176  0.98513090  0.25209448  1
  O  O75  1  0.20844380  0.95911684  0.73566078  1
  O  O76  1  0.72201645  0.47034482  0.26484050  1
  O  O77  1  0.71660597  0.46990141  0.73841118  1
  O  O78  1  0.72647122  0.97563930  0.26111033  1
  O  O79  1  0.69552426  0.94083288  0.74491026  1
loop_
_geom_bond_atom_site_label_1
_geom_bond_atom_site_label_2
_geom_bond_distance
_geom_bond_site_symmetry_2
Ba0 O48 2.745776 1_555
Ba0 O64 2.783651 1_555
Ba0 O10 2.808536 1_544
Ba0 O26 2.849106 1_544
Ba0 O36 2.854936 1_555
Ba0 O32 2.866398 1_555
Ba0 O17 2.888110 1_554
Ba0 O1 2.894937 1_554
Ba0 O50 2.982255 1_545
Ba0 O74 3.098658 1_545
Ba1 O50 2.710370 1_555
Ba1 O66 2.755469 1_555
Ba1 O24 2.782833 1_554
Ba1 O8 2.803894 1_554
Ba1 O34 2.823786 1_555
Ba1 O19 2.883336 1_554
Ba1 O38 2.903747 1_555
Ba1 O48 2.912783 1_555
Ba1 O3 2.934791 1_554
Ba2 O52 2.719238 1_555
Ba2 O36 2.793447 1_555
Ba2 O30 2.797911 1_544
Ba2 O14 2.813478 1_544
Ba2 O68 2.816663 1_555
Ba2 O32 2.843705 1_655
Ba2 O21 2.872015 1_554
Ba2 O5 2.886757 1_554
Ba2 O54 2.920305 1_545
Ba3 O54 2.743933 1_555
Ba3 O70 2.747570 1_555
Ba3 O28 2.792453 1_554
Ba3 O38 2.824054 1_555
Ba3 O12 2.827558 1_554
Ba3 O23 2.864873 1_554
Ba3 O34 2.884153 1_655
Ba3 O7 2.905903 1_554
Ba3 O52 2.931421 1_555
Ba4 O58 2.709669 1_555
Ba4 O0 2.712778 1_565
Ba4 O74 2.736223 1_555
Ba4 O16 2.770162 1_565
Ba4 O46 2.812214 1_455
Ba4 O11 2.871523 1_555
Ba4 O27 2.919415 1_555
Ba4 O42 2.980569 1_555
Ba4 O68 3.026272 1_465
Ba4 O56 3.028785 1_565
Ba5 O75 2.687660 1_555
Ba5 O17 2.716579 1_565
Ba5 O1 2.762545 1_565
Ba5 O59 2.769507 1_555
Ba5 O10 2.801726 1_555
Ba5 O26 2.848760 1_555
Ba5 O47 2.852973 1_455
Ba5 O57 2.925981 1_565
Ba5 O43 2.980002 1_555
Ba6 O77 2.708360 1_555
Ba6 O61 2.752443 1_555
Ba6 O23 2.758046 1_555
Ba6 O7 2.790529 1_555
Ba6 O28 2.792698 1_555
Ba6 O41 2.806589 1_555
Ba6 O12 2.825375 1_555
Ba6 O45 2.980029 1_555
Ba6 O63 3.007888 1_555
Ba7 O32 2.725693 1_555
Ba7 O72 2.738946 1_555
Ba7 O8 2.765232 1_554
Ba7 O28 2.833498 1_454
Ba7 O1 2.845655 1_554
Ba7 O52 2.849787 1_455
Ba7 O21 2.856115 1_454
Ba7 O48 2.865557 1_555
Ba7 O34 2.915148 1_555
Ba8 O34 2.717961 1_555
Ba8 O74 2.765006 1_555
Ba8 O10 2.767298 1_554
Ba8 O30 2.819511 1_454
Ba8 O54 2.837231 1_455
Ba8 O3 2.858371 1_554
Ba8 O23 2.881267 1_454
Ba8 O50 2.884349 1_555
Ba8 O32 2.956356 1_565
Ba9 O36 2.705420 1_555
Ba9 O76 2.759484 1_555
Ba9 O12 2.783531 1_554
Ba9 O24 2.800031 1_554
Ba9 O48 2.826241 1_555
Ba9 O17 2.865045 1_554
Ba9 O52 2.895725 1_555
Ba9 O5 2.933976 1_554
Ba9 O38 2.954215 1_555
Ba10 O38 2.738724 1_555
Ba10 O78 2.755774 1_555
Ba10 O50 2.774491 1_555
Ba10 O26 2.788895 1_554
Ba10 O14 2.807662 1_554
Ba10 O7 2.870952 1_554
Ba10 O54 2.883147 1_555
Ba10 O19 2.911847 1_554
Ba10 O36 2.952866 1_565
Ba11 O71 2.683552 1_555
Ba11 O47 2.761833 1_555
Ba11 O23 2.762734 1_555
Ba11 O3 2.775048 1_655
Ba11 O63 2.806341 1_555
Ba11 O10 2.835901 1_655
Ba11 O30 2.844515 1_555
Ba11 O59 3.004259 1_655
Ba11 O45 3.050687 1_555
Ba11 O77 3.200707 1_555
Co0 O1 1.825602 1_655
Co0 O30 1.843092 1_545
Co0 O21 2.092758 1_555
Co0 O47 2.164203 1_545
Co0 O10 2.244238 1_645
Co0 O32 2.351925 1_656
Co1 O3 1.822351 1_655
Co1 O28 1.831176 1_555
Co1 O8 1.975227 1_655
Co1 O45 2.084243 1_555
Co1 O23 2.269287 1_555
Co1 O34 2.737580 1_656
Co2 O26 1.830932 1_555
Co2 O5 1.832508 1_565
Co2 O17 1.974006 1_565
Co2 O43 2.076390 1_555
Co2 O14 2.198997 1_555
Co2 O36 2.710995 1_566
Co3 O16 1.882539 1_555
Co3 O15 1.984766 1_545
Co3 O27 2.063556 1_545
Co3 O4 2.070357 1_555
Co3 O42 2.157707 1_545
Co3 O37 2.191053 1_555
Co4 O24 1.829833 1_555
Co4 O7 1.838107 1_555
Co4 O41 2.036839 1_555
Co4 O19 2.103542 1_555
Co4 O12 2.191340 1_555
Co4 O38 2.697085 1_556
Co5 O25 1.856757 1_555
Co5 O6 1.880614 1_555
Co5 O18 1.953953 1_555
Co5 O13 1.961234 1_555
Co5 O40 2.114969 1_555
Co5 O39 2.281861 1_555
Co6 O10 1.829868 1_555
Co6 O19 1.832250 1_555
Co6 O59 2.054752 1_555
Co6 O3 2.110155 1_555
Co6 O26 2.154168 1_555
Co6 O50 2.738375 1_556
Co7 O2 1.866786 1_555
Co7 O27 1.876794 1_555
Co7 O11 2.001579 1_555
Co7 O18 2.062098 1_555
Co7 O58 2.161122 1_555
Co7 O51 2.185223 1_555
Co8 O12 1.827702 1_555
Co8 O21 1.830447 1_555
Co8 O61 2.042025 1_555
Co8 O5 2.086309 1_555
Co8 O28 2.151417 1_555
Co9 O29 1.860557 1_555
Co9 O4 1.894094 1_555
Co9 O20 1.986452 1_555
Co9 O13 2.041189 1_555
Co9 O60 2.150325 1_555
Co9 O53 2.185190 1_555
Co10 O14 1.801567 1_555
Co10 O23 1.813791 1_555
Co10 O30 2.122349 1_555
Co10 O7 2.127044 1_555
Co10 O63 2.214385 1_555
Co10 O54 2.376931 1_556
Co11 O22 1.875394 1_555
Co11 O31 1.946561 1_555
Co11 O15 1.984949 1_555
Co11 O62 2.060571 1_555
Co11 O6 2.105764 1_555
Co11 O55 2.311414 1_555
Cu0 O20 1.963690 1_455
Cu0 O11 1.966340 1_545
Cu0 O0 2.000855 1_555
Cu0 O31 2.004940 1_445
Cu0 O33 2.124729 1_555
Cu0 O46 2.355810 1_445
Cu1 O9 2.011191 1_555
Cu1 O29 2.072027 1_455
Cu1 O2 2.075811 1_555
Cu1 O22 2.108651 1_455
Cu1 O44 2.130356 1_455
Cu1 O35 2.141373 1_555
Cu2 O8 1.948144 1_555
Cu2 O17 1.955238 1_555
Cu2 O24 2.085000 1_555
Cu2 O1 2.113319 1_555
Cu2 O57 2.194112 1_555
Cu2 O48 2.597502 1_556
Cu3 O0 1.959098 1_555
Cu3 O9 1.969882 1_555
Cu3 O25 2.022415 1_555
Cu3 O16 2.100358 1_555
Cu3 O49 2.194033 1_555
Cu3 O56 2.324044 1_555
Cu4 O56 1.843708 1_555
Cu4 O32 1.869319 1_555
Cu4 O68 1.874355 1_455
Cu4 O74 1.906896 1_545
Cu5 O33 1.838994 1_555
Cu5 O57 1.860149 1_555
Cu5 O69 1.880262 1_455
Cu5 O75 1.916504 1_545
Cu6 O34 1.837309 1_555
Cu6 O58 1.846208 1_555
Cu6 O70 1.852254 1_455
Cu6 O72 1.926658 1_555
Cu7 O71 1.856185 1_455
Cu7 O35 1.866334 1_555
Cu7 O59 1.888724 1_555
Cu7 O73 1.961301 1_555
Cu8 O36 1.831633 1_555
Cu8 O60 1.845937 1_555
Cu8 O64 1.852064 1_555
Cu8 O78 1.910725 1_545
Cu9 O65 1.854538 1_555
Cu9 O37 1.856484 1_555
Cu9 O61 1.896580 1_555
Cu9 O79 1.941236 1_545
Cu10 O38 1.839504 1_555
Cu10 O66 1.855967 1_555
Cu10 O62 1.862673 1_555
Cu10 O76 1.929159 1_555
Cu11 O39 1.831895 1_555
Cu11 O63 1.877320 1_555
Cu11 O67 1.885319 1_555
Cu11 O77 1.932930 1_555
Cu12 O48 1.833811 1_555
Cu12 O40 1.845254 1_555
Cu12 O72 1.860714 1_555
Cu12 O66 1.924072 1_555
Cu13 O49 1.843022 1_555
Cu13 O73 1.851908 1_555
Cu13 O41 1.897423 1_555
Cu13 O67 1.926184 1_555
Cu14 O50 1.837274 1_555
Cu14 O42 1.850735 1_555
Cu14 O74 1.873643 1_555
Cu14 O64 1.920088 1_565
Cu15 O51 1.847359 1_555
Cu15 O75 1.880906 1_555
Cu15 O43 1.885754 1_555
Cu15 O65 1.971294 1_565
Cu16 O52 1.838449 1_555
Cu16 O76 1.852698 1_555
Cu16 O44 1.861011 1_555
Cu16 O70 1.919389 1_555
Cu17 O53 1.838052 1_555
Cu17 O45 1.883146 1_555
Cu17 O77 1.905438 1_555
Cu17 O71 1.919620 1_555
Cu18 O46 1.836537 1_555
Cu18 O78 1.858657 1_555
Cu18 O54 1.866684 1_555
Cu18 O68 1.928559 1_565
Cu19 O55 1.848362 1_555
Cu19 O79 1.857959 1_555
Cu19 O47 1.894366 1_555
Cu19 O69 1.940279 1_565
O0 Sr17 2.591194 1_455
O0 Sr9 2.628958 1_555
O0 Sr0 2.663462 1_555
O1 Sr18 2.625356 1_455
O2 Sr19 2.607676 1_455
O2 Sr4 2.632182 1_555
O2 Sr10 2.674578 1_555
O2 Sr1 2.757093 1_555
O3 Sr5 2.700517 1_555
O4 Sr7 2.619550 1_545
O4 Sr13 2.633383 1_555
O4 Sr11 2.714394 1_555
O4 Sr2 2.722427 1_555
O5 Sr8 2.620285 1_545
O5 Sr14 2.689622 1_555
O6 Sr15 2.616440 1_555
O6 Sr6 2.627800 1_555
O6 Sr12 2.661004 1_555
O6 Sr3 2.700938 1_555
O7 Sr16 2.636413 1_555
O8 Sr18 2.618668 1_455
O8 Sr5 2.659183 1_555
O9 Sr9 2.596200 1_555
O9 Sr1 2.604603 1_555
O9 Sr4 2.659910 1_555
O9 Sr17 2.690557 1_455
O11 Sr10 2.548909 1_555
O11 Sr0 2.575622 1_565
O11 Sr19 2.703547 1_455
O12 Sr14 2.679936 1_555
O13 Sr11 2.535063 1_555
O13 Sr3 2.564032 1_555
O13 Sr6 2.711793 1_555
O13 Sr13 2.727377 1_555
O14 Sr16 2.659407 1_555
O14 Sr8 2.708629 1_555
O15 Sr12 2.593076 1_555
O15 Sr2 2.649279 1_565
O15 Sr15 2.714187 1_555
O15 Sr7 2.793046 1_555
O16 Sr13 2.621414 1_555
O16 Sr11 2.667799 1_555
O16 Sr0 2.707405 1_555
O17 Sr14 2.584716 1_555
O18 Sr4 2.563295 1_555
O18 Sr15 2.581278 1_555
O18 Sr1 2.679761 1_555
O18 Sr12 2.699572 1_555
O19 Sr5 2.653831 1_555
O19 Sr16 2.698471 1_555
O20 Sr7 2.548569 1_545
O20 Sr17 2.576142 1_555
O20 Sr9 2.704692 1_655
O20 Sr2 2.707134 1_555
O21 Sr8 2.673434 1_545
O21 Sr18 2.685890 1_555
O22 Sr6 2.607159 1_555
O22 Sr19 2.663353 1_555
O22 Sr10 2.681407 1_655
O22 Sr3 2.684951 1_555
O24 Sr5 2.694942 1_555
O24 Sr14 2.708564 1_555
O25 Sr1 2.619171 1_555
O25 Sr11 2.626743 1_555
O25 Sr13 2.722978 1_555
O25 Sr4 2.757995 1_555
O26 Sr16 2.642010 1_555
O27 Sr12 2.596083 1_555
O27 Sr0 2.656257 1_565
O27 Sr15 2.708403 1_555
O28 Sr18 2.725172 1_555
O29 Sr9 2.604995 1_655
O29 Sr3 2.623492 1_555
O29 Sr6 2.701735 1_555
O29 Sr17 2.784124 1_555
O30 Sr8 2.674482 1_555
O31 Sr2 2.549031 1_565
O31 Sr10 2.601206 1_655
O31 Sr7 2.693612 1_555
O31 Sr19 2.706601 1_555
O33 Sr9 2.589695 1_555
O33 Sr2 2.791335 1_455
O33 Sr0 2.802041 1_555
O33 Sr10 3.069004 1_545
O35 Sr10 2.608752 1_555
O35 Sr1 2.727743 1_555
O35 Sr9 3.036564 1_555
O35 Sr3 3.082799 1_455
O37 Sr11 2.638868 1_555
O37 Sr2 2.757152 1_555
O37 Sr0 3.017418 1_555
O37 Sr12 3.068296 1_545
O39 Sr12 2.548446 1_555
O39 Sr3 2.744392 1_555
O39 Sr1 2.812829 1_555
O39 Sr11 3.054938 1_555
O40 Sr13 2.550234 1_555
O40 Sr6 2.714443 1_555
O40 Sr4 2.999092 1_555
O40 Sr15 3.091660 1_555
O41 Sr14 2.614776 1_555
O41 Sr5 2.816439 1_555
O41 Sr16 3.062718 1_555
O42 Sr15 2.588601 1_555
O42 Sr7 2.820737 1_555
O42 Sr13 3.042352 1_565
O43 Sr16 2.624989 1_555
O43 Sr8 2.743108 1_555
O43 Sr14 2.996488 1_565
O44 Sr17 2.599734 1_555
O44 Sr4 2.738105 1_655
O44 Sr6 2.904267 1_555
O44 Sr19 3.053397 1_555
O45 Sr18 2.624484 1_555
O45 Sr5 2.723924 1_655
O46 Sr19 2.529363 1_555
O46 Sr7 2.771619 1_555
O46 Sr17 3.129642 1_565
O47 Sr8 2.744315 1_555
O47 Sr18 2.833767 1_565
O49 Sr0 2.658203 1_555
O49 Sr11 2.795097 1_555
O49 Sr1 2.952797 1_555
O49 Sr9 2.956320 1_555
O51 Sr1 2.602367 1_555
O51 Sr12 2.692424 1_555
O51 Sr10 3.021533 1_555
O51 Sr0 3.106314 1_565
O53 Sr2 2.546610 1_555
O53 Sr9 2.790413 1_655
O53 Sr11 2.843553 1_555
O53 Sr3 3.102995 1_555
O55 Sr3 2.625785 1_555
O55 Sr10 2.772416 1_655
O55 Sr12 2.909811 1_555
O55 Sr2 3.032809 1_565
O56 Sr4 2.572852 1_555
O56 Sr13 2.769362 1_555
O56 Sr17 2.927737 1_455
O57 Sr5 2.603991 1_555
O57 Sr14 2.723445 1_555
O57 Sr18 2.870292 1_455
O58 Sr15 2.700937 1_555
O58 Sr19 2.922157 1_455
O58 Sr4 2.975485 1_555
O59 Sr16 2.752792 1_555
O59 Sr5 2.986434 1_555
O60 Sr6 2.530388 1_555
O60 Sr17 2.773436 1_555
O60 Sr13 2.937305 1_555
O60 Sr7 3.066132 1_545
O61 Sr18 2.770219 1_555
O61 Sr8 2.903742 1_545
O61 Sr14 3.008127 1_555
O62 Sr7 2.592833 1_555
O62 Sr19 2.755818 1_555
O62 Sr15 2.958830 1_555
O62 Sr6 3.075248 1_555
O63 Sr8 2.598017 1_555
O63 Sr16 2.759031 1_555
O64 Sr13 2.546195 1_555
O64 Sr7 3.246829 1_545
O65 Sr0 2.530380 1_555
O65 Sr14 2.532077 1_555
O66 Sr15 2.537370 1_555
O67 Sr16 2.524748 1_555
O67 Sr1 2.572066 1_555
O68 Sr17 2.602645 1_555
O69 Sr18 2.534940 1_555
O69 Sr2 2.561998 1_555
O70 Sr19 2.542203 1_555
O71 Sr3 2.509366 1_555
O72 Sr4 2.549040 1_555
O72 Sr15 3.227910 1_555
O73 Sr9 2.502267 1_555
O73 Sr5 2.524362 1_555
O74 Sr13 3.163079 1_565
O75 Sr10 2.521639 1_555
O75 Sr0 3.221227 1_565
O76 Sr6 2.531054 1_555
O77 Sr11 2.579628 1_555
O77 Sr3 3.097617 1_555
O78 Sr7 2.564803 1_555
O78 Sr17 3.259763 1_565
O79 Sr12 2.497206 1_555
O79 Sr8 2.521373 1_555
