# generated using pymatgen
data_HfMg6AlO8
_symmetry_space_group_name_H-M   'P 1'
_cell_length_a   4.17945000
_cell_length_b   4.17945000
_cell_length_c   10.34872600
_cell_angle_alpha   90.00000000
_cell_angle_beta   90.00000000
_cell_angle_gamma   90.00000000
_symmetry_Int_Tables_number   1
_chemical_formula_structural   HfMg6AlO8
_chemical_formula_sum   'Hf1 Mg6 Al1 O8'
_cell_volume   180.76949985
_cell_formula_units_Z   1
loop_
 _symmetry_equiv_pos_site_id
 _symmetry_equiv_pos_as_xyz
  1  'x, y, z'
loop_
 _atom_site_type_symbol
 _atom_site_label
 _atom_site_symmetry_multiplicity
 _atom_site_fract_x
 _atom_site_fract_y
 _atom_site_fract_z
 _atom_site_occupancy
  Hf  Hf0  1  0.00000000  0.00000000  0.50000000  1
  Mg  Mg0  1  0.50000000  0.50000000  0.00000000  1
  Mg  Mg1  1  0.50000000  0.50000000  0.50000000  1
  Mg  Mg2  1  0.00000000  0.50000000  0.22154500  1
  Mg  Mg3  1  0.00000000  0.50000000  0.77845500  1
  Mg  Mg4  1  0.50000000  0.00000000  0.22154500  1
  Mg  Mg5  1  0.50000000  0.00000000  0.77845500  1
  Al  Al0  1  0.00000000  0.00000000  0.00000000  1
  O  O0  1  0.00000000  0.00000000  0.17686800  1
  O  O1  1  0.00000000  0.00000000  0.82313300  1
  O  O2  1  0.50000000  0.50000000  0.22047800  1
  O  O3  1  0.50000000  0.50000000  0.77952200  1
  O  O4  1  0.00000000  0.50000000  0.00000000  1
  O  O5  1  0.00000000  0.50000000  0.50000000  1
  O  O6  1  0.50000000  0.00000000  0.00000000  1
  O  O7  1  0.50000000  0.00000000  0.50000000  1
loop_
_geom_bond_atom_site_label_1
_geom_bond_atom_site_label_2
_geom_bond_distance
_geom_bond_site_symmetry_2
Hf0 O7 2.089725 1_555
Hf0 O5 2.089725 1_545
Hf0 O7 2.089725 1_455
Hf0 O5 2.089725 1_555
Mg0 O6 2.089725 1_555
Mg0 O6 2.089725 1_565
Mg0 O4 2.089725 1_555
Mg0 O4 2.089725 1_655
Mg0 O3 2.281666 1_554
Mg0 O2 2.281666 1_555
Mg1 O7 2.089725 1_565
Mg1 O7 2.089725 1_555
Mg1 O5 2.089725 1_655
Mg1 O5 2.089725 1_555
Mg2 O2 2.089754 1_455
Mg2 O2 2.089754 1_555
Mg2 O0 2.140261 1_555
Mg2 O0 2.140261 1_565
Mg2 O4 2.292709 1_555
Mg3 O3 2.089754 1_455
Mg3 O3 2.089754 1_555
Mg3 O1 2.140263 1_555
Mg3 O1 2.140263 1_565
Mg3 O4 2.292709 1_556
Mg4 O2 2.089754 1_555
Mg4 O2 2.089754 1_545
Mg4 O0 2.140261 1_555
Mg4 O0 2.140261 1_655
Mg4 O6 2.292709 1_555
Mg5 O3 2.089754 1_545
Mg5 O3 2.089754 1_555
Mg5 O1 2.140263 1_555
Mg5 O1 2.140263 1_655
Mg5 O6 2.292709 1_556
Al0 O1 1.830348 1_554
Al0 O0 1.830358 1_555
Al0 O6 2.089725 1_455
Al0 O4 2.089725 1_545
Al0 O6 2.089725 1_555
Al0 O4 2.089725 1_555
