# generated using pymatgen
data_ThIn
_symmetry_space_group_name_H-M   'P 1'
_cell_length_a   6.97221383
_cell_length_b   9.89378590
_cell_length_c   9.32762064
_cell_angle_alpha   90.00000000
_cell_angle_beta   90.00000000
_cell_angle_gamma   45.27144692
_symmetry_Int_Tables_number   1
_chemical_formula_structural   ThIn
_chemical_formula_sum   'Th8 In8'
_cell_volume   457.12702555
_cell_formula_units_Z   8
loop_
 _symmetry_equiv_pos_site_id
 _symmetry_equiv_pos_as_xyz
  1  'x, y, z'
loop_
 _atom_site_type_symbol
 _atom_site_label
 _atom_site_symmetry_multiplicity
 _atom_site_fract_x
 _atom_site_fract_y
 _atom_site_fract_z
 _atom_site_occupancy
  Th  Th0_0  1  0.49999950  0.25000050  0.25000050  1
  Th  Th0_1  1  0.49999950  0.25000050  0.75000050  1
  Th  Th0_2  1  0.49999950  0.75000050  0.25000050  1
  Th  Th0_3  1  0.49999950  0.75000050  0.75000050  1
  Th  Th0_4  1  0.99999950  0.25000050  0.25000050  1
  Th  Th0_5  1  0.99999950  0.25000050  0.75000050  1
  Th  Th0_6  1  0.99999950  0.75000050  0.25000050  1
  Th  Th0_7  1  0.99999950  0.75000050  0.75000050  1
  In  In0_0  1  0.00000000  0.00000000  0.00000000  1
  In  In0_1  1  0.00000000  0.00000000  0.50000000  1
  In  In0_2  1  0.00000000  0.50000000  0.00000000  1
  In  In0_3  1  0.00000000  0.50000000  0.50000000  1
  In  In0_4  1  0.50000000  0.00000000  0.00000000  1
  In  In0_5  1  0.50000000  0.00000000  0.50000000  1
  In  In0_6  1  0.50000000  0.50000000  0.00000000  1
  In  In0_7  1  0.50000000  0.50000000  0.50000000  1
loop_
_geom_bond_atom_site_label_1
_geom_bond_atom_site_label_2
_geom_bond_distance
_geom_bond_site_symmetry_2
Th0_0 Th0_4 3.486107 1_455
Th0_0 Th0_4 3.486107 1_555
Th0_0 Th0_6 3.514518 1_455
Th0_0 Th0_6 3.514518 1_545
Th0_1 Th0_5 3.486107 1_455
Th0_1 Th0_5 3.486107 1_555
Th0_1 Th0_7 3.514518 1_455
Th0_1 Th0_7 3.514518 1_545
Th0_2 Th0_6 3.486107 1_455
Th0_2 Th0_6 3.486107 1_555
Th0_2 Th0_4 3.514518 1_555
Th0_2 Th0_4 3.514518 1_465
Th0_3 Th0_7 3.486107 1_455
Th0_3 Th0_7 3.486107 1_555
Th0_3 Th0_5 3.514518 1_465
Th0_3 Th0_5 3.514518 1_555
In0_0 Th0_7 3.399365 1_444
In0_0 Th0_5 3.399369 1_454
In0_0 Th0_6 3.399372 1_445
In0_0 Th0_4 3.399375 1_455
In0_0 Th0_3 3.401793 1_544
In0_0 Th0_1 3.401797 1_454
In0_0 Th0_2 3.401800 1_545
In0_0 Th0_0 3.401803 1_455
In0_0 In0_4 3.486107 1_455
In0_0 In0_4 3.486107 1_555
In0_0 In0_6 3.514518 1_545
In0_0 In0_6 3.514518 1_455
In0_1 Th0_6 3.399365 1_445
In0_1 Th0_4 3.399369 1_455
In0_1 Th0_7 3.399372 1_445
In0_1 Th0_5 3.399375 1_455
In0_1 Th0_2 3.401793 1_545
In0_1 Th0_0 3.401797 1_455
In0_1 Th0_3 3.401800 1_545
In0_1 Th0_1 3.401803 1_455
In0_1 In0_5 3.486107 1_555
In0_1 In0_5 3.486107 1_455
In0_1 In0_7 3.514518 1_455
In0_1 In0_7 3.514518 1_545
In0_2 Th0_5 3.399365 1_454
In0_2 Th0_7 3.399369 1_454
In0_2 Th0_4 3.399372 1_455
In0_2 Th0_6 3.399375 1_455
In0_2 Th0_1 3.401793 1_554
In0_2 Th0_3 3.401797 1_454
In0_2 Th0_0 3.401800 1_555
In0_2 Th0_2 3.401803 1_455
In0_2 In0_6 3.486107 1_455
In0_2 In0_6 3.486107 1_555
In0_2 In0_4 3.514518 1_555
In0_2 In0_4 3.514518 1_465
In0_3 Th0_4 3.399365 1_455
In0_3 Th0_6 3.399369 1_455
In0_3 Th0_5 3.399372 1_455
In0_3 Th0_7 3.399375 1_455
In0_3 Th0_0 3.401793 1_555
In0_3 Th0_2 3.401797 1_455
In0_3 Th0_1 3.401800 1_555
In0_3 Th0_3 3.401803 1_455
In0_3 In0_7 3.486107 1_455
In0_3 In0_7 3.486107 1_555
In0_3 In0_5 3.514518 1_555
In0_3 In0_5 3.514518 1_465
In0_4 Th0_3 3.399365 1_544
In0_4 Th0_1 3.399369 1_554
In0_4 Th0_2 3.399372 1_545
In0_4 Th0_0 3.399375 1_555
In0_4 Th0_7 3.401793 1_544
In0_4 Th0_5 3.401797 1_454
In0_4 Th0_6 3.401800 1_545
In0_4 Th0_4 3.401803 1_455
In0_5 Th0_2 3.399365 1_545
In0_5 Th0_0 3.399369 1_555
In0_5 Th0_3 3.399372 1_545
In0_5 Th0_1 3.399375 1_555
In0_5 Th0_6 3.401793 1_545
In0_5 Th0_4 3.401797 1_455
In0_5 Th0_7 3.401800 1_545
In0_5 Th0_5 3.401803 1_455
In0_6 Th0_1 3.399365 1_554
In0_6 Th0_3 3.399369 1_554
In0_6 Th0_0 3.399372 1_555
In0_6 Th0_2 3.399375 1_555
In0_6 Th0_5 3.401793 1_554
In0_6 Th0_7 3.401797 1_454
In0_6 Th0_4 3.401800 1_555
In0_6 Th0_6 3.401803 1_455
In0_7 Th0_0 3.399365 1_555
In0_7 Th0_2 3.399369 1_555
In0_7 Th0_1 3.399372 1_555
In0_7 Th0_3 3.399375 1_555
In0_7 Th0_4 3.401793 1_555
In0_7 Th0_6 3.401797 1_455
In0_7 Th0_5 3.401800 1_555
In0_7 Th0_7 3.401803 1_455
