# generated using pymatgen
data_KSnAsO5
_symmetry_space_group_name_H-M   'P 1'
_cell_length_a   6.82048200
_cell_length_b   11.14481200
_cell_length_c   13.70401600
_cell_angle_alpha   90.00000000
_cell_angle_beta   90.00000000
_cell_angle_gamma   90.00000000
_symmetry_Int_Tables_number   1
_chemical_formula_structural   KSnAsO5
_chemical_formula_sum   'K8 Sn8 As8 O40'
_cell_volume   1041.68322623
_cell_formula_units_Z   8
loop_
 _symmetry_equiv_pos_site_id
 _symmetry_equiv_pos_as_xyz
  1  'x, y, z'
loop_
 _atom_site_type_symbol
 _atom_site_label
 _atom_site_symmetry_multiplicity
 _atom_site_fract_x
 _atom_site_fract_y
 _atom_site_fract_z
 _atom_site_occupancy
  K  K0  1  0.22468300  0.29830500  0.62998200  1
  K  K1  1  0.68947900  0.56144100  0.11211400  1
  K  K2  1  0.81052100  0.56144100  0.61211400  1
  K  K3  1  0.31052100  0.06144100  0.88788600  1
  K  K4  1  0.72468300  0.79830500  0.87001800  1
  K  K5  1  0.27531700  0.29830500  0.12998200  1
  K  K6  1  0.77531700  0.79830500  0.37001800  1
  K  K7  1  0.18947900  0.06144100  0.38788600  1
  Sn  Sn0  1  0.74607800  0.25039900  0.74982300  1
  Sn  Sn1  1  0.25392200  0.75039900  0.25017700  1
  Sn  Sn2  1  0.75392200  0.25039900  0.24982300  1
  Sn  Sn3  1  0.50023200  0.99896300  0.62598700  1
  Sn  Sn4  1  0.49976800  0.49896300  0.37401300  1
  Sn  Sn5  1  0.99976800  0.99896300  0.12598700  1
  Sn  Sn6  1  0.00023200  0.49896300  0.87401300  1
  Sn  Sn7  1  0.24607800  0.75039900  0.75017700  1
  As  As0  1  0.33392500  0.74774300  0.50227600  1
  As  As1  1  0.83392500  0.24774300  0.99772400  1
  As  As2  1  0.16607500  0.74774300  0.00227600  1
  As  As3  1  0.49771200  0.50154000  0.82281500  1
  As  As4  1  0.50228800  0.00154000  0.17718500  1
  As  As5  1  0.00228800  0.50154000  0.32281500  1
  As  As6  1  0.66607500  0.24774300  0.49772400  1
  As  As7  1  0.99771200  0.00154000  0.67718500  1
  O  O0  1  0.47013000  0.88632000  0.25921600  1
  O  O1  1  0.52987000  0.38632000  0.74078400  1
  O  O2  1  0.02987000  0.88632000  0.75921600  1
  O  O3  1  0.97013000  0.38632000  0.24078400  1
  O  O4  1  0.97669000  0.12462200  0.75302000  1
  O  O5  1  0.02331000  0.62462200  0.24698000  1
  O  O6  1  0.52331000  0.12462200  0.25302000  1
  O  O7  1  0.47669000  0.62462200  0.74698000  1
  O  O8  1  0.04470800  0.87747800  0.23279400  1
  O  O9  1  0.95529200  0.37747800  0.76720600  1
  O  O10  1  0.45529200  0.87747800  0.73279400  1
  O  O11  1  0.54470800  0.37747800  0.26720600  1
  O  O12  1  0.52520700  0.13481300  0.72329200  1
  O  O13  1  0.47479300  0.63481300  0.27670800  1
  O  O14  1  0.97479300  0.13481300  0.22329200  1
  O  O15  1  0.82086300  0.22570100  0.40035900  1
  O  O16  1  0.02520700  0.63481300  0.77670800  1
  O  O17  1  0.30325800  0.47350200  0.89856300  1
  O  O18  1  0.80325800  0.97350200  0.60143700  1
  O  O19  1  0.19674200  0.47350200  0.39856300  1
  O  O20  1  0.19204500  0.02847700  0.59992700  1
  O  O21  1  0.80795500  0.52847700  0.40007300  1
  O  O22  1  0.30795500  0.02847700  0.09992700  1
  O  O23  1  0.69204500  0.52847700  0.90007300  1
  O  O24  1  0.50514300  0.12918400  0.51010700  1
  O  O25  1  0.49485700  0.62918400  0.48989300  1
  O  O26  1  0.99485700  0.12918400  0.01010700  1
  O  O27  1  0.00514300  0.62918400  0.98989300  1
  O  O28  1  0.01680800  0.87278100  0.01093200  1
  O  O29  1  0.98319200  0.37278100  0.98906800  1
  O  O30  1  0.48319200  0.87278100  0.51093200  1
  O  O31  1  0.51680800  0.37278100  0.48906800  1
  O  O32  1  0.81716900  0.27083100  0.59662900  1
  O  O33  1  0.18283100  0.77083100  0.40337100  1
  O  O34  1  0.68283100  0.27083100  0.09662900  1
  O  O35  1  0.31716900  0.77083100  0.90337100  1
  O  O36  1  0.32086300  0.72570100  0.09964100  1
  O  O37  1  0.67913700  0.22570100  0.90035900  1
  O  O38  1  0.17913700  0.72570100  0.59964100  1
  O  O39  1  0.69674200  0.97350200  0.10143700  1
loop_
_geom_bond_atom_site_label_1
_geom_bond_atom_site_label_2
_geom_bond_distance
_geom_bond_site_symmetry_2
K0 O1 2.756911 1_555
K0 O9 2.773244 1_455
K0 O32 2.833366 1_455
K0 O31 2.896174 1_555
K0 O12 3.025967 1_555
K0 O20 3.043409 1_555
K0 O4 3.074202 1_455
K0 O24 3.148067 1_555
K1 O13 2.810774 1_555
K1 O27 2.830314 1_654
K1 O23 2.928997 1_554
K1 O5 3.015941 1_655
K1 O11 3.113789 1_555
K1 O36 3.114704 1_555
K1 O34 3.246055 1_555
K1 O3 3.253056 1_555
K1 O29 3.358164 1_554
K2 O16 2.810774 1_655
K2 O25 2.830314 1_555
K2 O21 2.928997 1_555
K2 O7 3.015941 1_555
K2 O9 3.113789 1_555
K2 O38 3.114704 1_655
K2 O32 3.246055 1_555
K2 O1 3.253056 1_555
K2 O31 3.358164 1_555
K3 O12 2.810774 1_555
K3 O26 2.830314 1_456
K3 O22 2.928997 1_556
K3 O4 3.015941 1_455
K3 O10 3.113789 1_545
K3 O37 3.114704 1_555
K3 O35 3.246055 1_545
K3 O2 3.253056 1_545
K3 O28 3.358164 1_546
K4 O2 2.756911 1_655
K4 O10 2.773244 1_555
K4 O35 2.833366 1_555
K4 O28 2.896174 1_656
K4 O16 3.025967 1_655
K4 O23 3.043409 1_555
K4 O7 3.074202 1_555
K4 O27 3.148067 1_655
K5 O3 2.756911 1_455
K5 O11 2.773244 1_555
K5 O34 2.833366 1_555
K5 O29 2.896174 1_454
K5 O14 3.025967 1_455
K5 O22 3.043409 1_555
K5 O6 3.074202 1_555
K5 O26 3.148067 1_455
K6 O0 2.756911 1_555
K6 O8 2.773244 1_655
K6 O33 2.833366 1_655
K6 O30 2.896174 1_555
K6 O13 3.025967 1_555
K6 O21 3.043409 1_555
K6 O5 3.074202 1_655
K6 O25 3.148067 1_555
K7 O14 2.810774 1_455
K7 O24 2.830314 1_555
K7 O20 2.928997 1_555
K7 O6 3.015941 1_555
K7 O8 3.113789 1_545
K7 O15 3.114704 1_455
K7 O33 3.246055 1_545
K7 O0 3.253056 1_545
K7 O30 3.358164 1_545
As0 O38 1.719082 1_555
As0 O33 1.722007 1_555
As0 O25 1.726116 1_555
As0 O30 1.729872 1_555
As1 O37 1.719082 1_555
As1 O34 1.722007 1_556
As1 O26 1.726116 1_556
As1 O29 1.729872 1_555
As2 O36 1.719082 1_555
As2 O35 1.722007 1_554
As2 O27 1.726116 1_554
As2 O28 1.729872 1_555
As3 O17 1.712947 1_555
As3 O1 1.720685 1_555
As3 O23 1.722750 1_555
As3 O7 1.726910 1_555
As4 O39 1.712947 1_545
As4 O0 1.720685 1_545
As4 O22 1.722750 1_555
As4 O6 1.726910 1_555
As5 O19 1.712947 1_555
As5 O3 1.720685 1_455
As5 O21 1.722750 1_455
As5 O5 1.726910 1_555
As6 O15 1.719082 1_555
As6 O32 1.722007 1_555
As6 O24 1.726116 1_555
As6 O31 1.729872 1_555
As7 O18 1.712947 1_545
As7 O2 1.720685 1_645
As7 O20 1.722750 1_655
As7 O4 1.726910 1_555
O0 Sn1 2.117682 1_555
O1 Sn0 2.117682 1_555
O2 Sn7 2.117682 1_555
O3 Sn2 2.117682 1_555
O4 Sn0 2.107325 1_555
O5 Sn1 2.107325 1_555
O6 Sn2 2.107325 1_555
O7 Sn7 2.107325 1_555
O8 Sn5 2.017286 1_455
O8 Sn1 2.024532 1_555
O9 Sn6 2.017286 1_655
O9 Sn0 2.024532 1_555
O10 Sn3 2.017286 1_555
O10 Sn7 2.024532 1_555
O11 Sn4 2.017286 1_555
O11 Sn2 2.024532 1_555
O12 Sn0 2.015190 1_555
O12 Sn3 2.024703 1_545
O13 Sn1 2.015190 1_555
O13 Sn4 2.024703 1_555
O14 Sn2 2.015190 1_555
O14 Sn5 2.024703 1_545
O15 Sn2 2.130722 1_555
O16 Sn7 2.015190 1_555
O16 Sn6 2.024703 1_555
O17 Sn6 2.113126 1_555
O18 Sn3 2.113126 1_555
O19 Sn4 2.113126 1_555
O20 Sn3 2.157329 1_545
O21 Sn4 2.157329 1_555
O22 Sn5 2.157329 1_445
O23 Sn6 2.157329 1_655
O24 Sn3 2.151551 1_545
O25 Sn4 2.151551 1_555
O26 Sn5 2.151551 1_545
O27 Sn6 2.151551 1_555
O28 Sn5 2.115927 1_455
O29 Sn6 2.115927 1_655
O30 Sn3 2.115927 1_555
O31 Sn4 2.115927 1_555
O32 Sn0 2.166639 1_555
O33 Sn1 2.166639 1_555
O34 Sn2 2.166639 1_555
O35 Sn7 2.166639 1_555
O36 Sn1 2.130722 1_555
O37 Sn0 2.130722 1_555
O38 Sn7 2.130722 1_555
O39 Sn5 2.113126 1_555
