# generated using pymatgen
data_Pr(Cu2P)2
_symmetry_space_group_name_H-M   'P 1'
_cell_length_a   3.87743137
_cell_length_b   11.00844829
_cell_length_c   14.60556607
_cell_angle_alpha   90.00000000
_cell_angle_beta   90.00000000
_cell_angle_gamma   90.00000000
_symmetry_Int_Tables_number   1
_chemical_formula_structural   Pr(Cu2P)2
_chemical_formula_sum   'Pr6 Cu24 P12'
_cell_volume   623.43132486
_cell_formula_units_Z   6
loop_
 _symmetry_equiv_pos_site_id
 _symmetry_equiv_pos_as_xyz
  1  'x, y, z'
loop_
 _atom_site_type_symbol
 _atom_site_label
 _atom_site_symmetry_multiplicity
 _atom_site_fract_x
 _atom_site_fract_y
 _atom_site_fract_z
 _atom_site_occupancy
  Pr  Pr0  1  0.00000000  0.12204861  0.72621478  1
  Pr  Pr1  1  0.00000000  0.87795139  0.27378522  1
  Pr  Pr2  1  0.50000000  0.37795139  0.22621478  1
  Pr  Pr3  1  0.50000000  0.62204861  0.77378522  1
  Pr  Pr4  1  -0.00000000  -0.00000000  0.00000000  1
  Pr  Pr5  1  0.50000000  0.50000000  0.50000000  1
  Cu  Cu0  1  0.00000000  0.07013728  0.43820179  1
  Cu  Cu1  1  0.00000000  0.92986272  0.56179821  1
  Cu  Cu2  1  0.50000000  0.42986272  0.93820179  1
  Cu  Cu3  1  0.50000000  0.57013728  0.06179821  1
  Cu  Cu4  1  0.00000000  0.39997151  0.05277344  1
  Cu  Cu5  1  -0.00000000  0.60002849  0.94722656  1
  Cu  Cu6  1  0.50000000  0.10002849  0.55277344  1
  Cu  Cu7  1  0.50000000  0.89997151  0.44722656  1
  Cu  Cu8  1  -0.00000000  0.57540846  0.33117074  1
  Cu  Cu9  1  0.00000000  0.42459154  0.66882926  1
  Cu  Cu10  1  0.50000000  0.92459154  0.83117074  1
  Cu  Cu11  1  0.50000000  0.07540846  0.16882926  1
  Cu  Cu12  1  -0.00000000  0.26339118  0.53712996  1
  Cu  Cu13  1  0.00000000  0.73660882  0.46287004  1
  Cu  Cu14  1  0.50000000  0.23660882  0.03712996  1
  Cu  Cu15  1  0.50000000  0.76339118  0.96287004  1
  Cu  Cu16  1  0.00000000  0.74223344  0.08845076  1
  Cu  Cu17  1  0.00000000  0.25776656  0.91154924  1
  Cu  Cu18  1  0.50000000  0.75776656  0.58845076  1
  Cu  Cu19  1  0.50000000  0.24223344  0.41154924  1
  Cu  Cu20  1  -0.00000000  0.17068704  0.28665206  1
  Cu  Cu21  1  -0.00000000  0.82931296  0.71334794  1
  Cu  Cu22  1  0.50000000  0.32931296  0.78665206  1
  Cu  Cu23  1  0.50000000  0.67068704  0.21334794  1
  P  P0  1  -0.00000000  0.36439216  0.38611619  1
  P  P1  1  -0.00000000  0.63560784  0.61388381  1
  P  P2  1  0.50000000  0.13560784  0.88611619  1
  P  P3  1  0.50000000  0.86439216  0.11388381  1
  P  P4  1  0.00000000  0.55995437  0.16303596  1
  P  P5  1  -0.00000000  0.44004563  0.83696404  1
  P  P6  1  0.50000000  0.94004563  0.66303596  1
  P  P7  1  0.50000000  0.05995437  0.33696404  1
  P  P8  1  -0.00000000  0.20587624  0.13019787  1
  P  P9  1  -0.00000000  0.79412376  0.86980213  1
  P  P10  1  0.50000000  0.29412376  0.63019787  1
  P  P11  1  0.50000000  0.70587624  0.36980213  1
loop_
_geom_bond_atom_site_label_1
_geom_bond_atom_site_label_2
_geom_bond_distance
_geom_bond_site_symmetry_2
Cu0 Cu1 2.375563 1_545
Cu0 P7 2.440808 1_455
Cu0 P7 2.440808 1_555
Cu0 Cu20 2.474807 1_555
Cu0 Cu12 2.571708 1_555
Cu0 Cu6 2.582075 1_455
Cu0 Cu6 2.582075 1_555
Cu0 Cu7 2.699092 1_445
Cu0 Cu7 2.699092 1_545
Cu0 Cu19 2.738490 1_555
Cu0 Cu19 2.738490 1_455
Cu0 Pr1 3.200431 1_545
Cu1 P6 2.440808 1_555
Cu1 P6 2.440808 1_455
Cu1 Cu21 2.474807 1_555
Cu1 Cu13 2.571708 1_555
Cu1 Cu7 2.582075 1_555
Cu1 Cu7 2.582075 1_455
Cu1 Cu6 2.699092 1_565
Cu1 Cu6 2.699092 1_465
Cu1 Cu18 2.738490 1_555
Cu1 Cu18 2.738490 1_455
Cu1 Pr0 3.200431 1_565
Cu2 Cu3 2.375563 1_556
Cu2 P5 2.440808 1_555
Cu2 P5 2.440808 1_655
Cu2 Cu22 2.474807 1_555
Cu2 Cu4 2.582075 1_556
Cu2 Cu4 2.582075 1_656
Cu2 Cu5 2.699092 1_655
Cu2 Cu5 2.699092 1_555
Cu2 Pr3 3.200431 1_555
Cu3 P4 2.440808 1_655
Cu3 P4 2.440808 1_555
Cu3 Cu5 2.582075 1_654
Cu3 Cu5 2.582075 1_554
Cu3 Cu4 2.699092 1_655
Cu3 Cu4 2.699092 1_555
Cu3 Pr2 3.200431 1_555
Cu4 P4 2.386469 1_555
Cu4 P8 2.417479 1_555
Cu4 Pr2 3.199145 1_455
Cu4 Pr2 3.199145 1_555
Cu5 P5 2.386469 1_555
Cu5 P9 2.417479 1_555
Cu5 Pr3 3.199145 1_455
Cu5 Pr3 3.199145 1_555
Cu6 P6 2.386469 1_545
Cu6 P10 2.417479 1_555
Cu6 Pr0 3.199145 1_655
Cu6 Pr0 3.199145 1_555
Cu7 P7 2.386469 1_565
Cu7 P11 2.417479 1_555
Cu7 Pr1 3.199145 1_555
Cu7 Pr1 3.199145 1_655
Cu8 P0 2.457677 1_555
Cu8 P4 2.461590 1_555
Cu8 P11 2.477859 1_555
Cu8 P11 2.477859 1_455
Cu8 Pr5 3.244709 1_555
Cu8 Pr5 3.244709 1_455
Cu8 Pr2 3.291425 1_455
Cu8 Pr2 3.291425 1_555
Cu8 Pr1 3.434372 1_555
Cu9 P1 2.457677 1_555
Cu9 P5 2.461590 1_555
Cu9 P10 2.477859 1_455
Cu9 P10 2.477859 1_555
Cu9 Pr5 3.244709 1_555
Cu9 Pr5 3.244709 1_455
Cu9 Pr3 3.291425 1_455
Cu9 Pr3 3.291425 1_555
Cu9 Pr0 3.434372 1_555
Cu10 P2 2.457677 1_565
Cu10 P6 2.461590 1_555
Cu10 P9 2.477859 1_655
Cu10 P9 2.477859 1_555
Cu10 Pr4 3.244709 1_566
Cu10 Pr4 3.244709 1_666
Cu10 Pr0 3.291425 1_565
Cu10 Pr0 3.291425 1_665
Cu10 Pr3 3.434372 1_555
Cu11 P3 2.457677 1_545
Cu11 P7 2.461590 1_555
Cu11 P8 2.477859 1_555
Cu11 P8 2.477859 1_655
Cu11 Pr4 3.244709 1_555
Cu11 Pr4 3.244709 1_655
Cu11 Pr1 3.291425 1_645
Cu11 Pr1 3.291425 1_545
Cu11 Pr2 3.434372 1_555
Cu12 P10 2.391819 1_455
Cu12 P10 2.391819 1_555
Cu12 P0 2.470040 1_555
Cu12 Pr0 3.169851 1_555
Cu12 Pr5 3.291983 1_555
Cu12 Pr5 3.291983 1_455
Cu13 P11 2.391819 1_455
Cu13 P11 2.391819 1_555
Cu13 P1 2.470040 1_555
Cu13 Pr1 3.169851 1_555
Cu13 Pr5 3.291983 1_555
Cu13 Pr5 3.291983 1_455
Cu14 P8 2.391819 1_555
Cu14 P8 2.391819 1_655
Cu14 P2 2.470040 1_554
Cu14 Cu2 2.571708 1_554
Cu14 Pr2 3.169851 1_555
Cu14 Pr4 3.291983 1_555
Cu14 Pr4 3.291983 1_655
Cu15 P9 2.391819 1_555
Cu15 P9 2.391819 1_655
Cu15 P3 2.470040 1_556
Cu15 Cu3 2.571708 1_556
Cu15 Pr3 3.169851 1_555
Cu15 Pr4 3.291983 1_566
Cu15 Pr4 3.291983 1_666
Cu16 P4 2.283240 1_555
Cu16 P3 2.388521 1_455
Cu16 P3 2.388521 1_555
Cu16 Cu3 2.738490 1_455
Cu16 Cu3 2.738490 1_555
Cu16 Pr1 3.091853 1_555
Cu16 Pr4 3.117846 1_565
Cu17 P5 2.283240 1_555
Cu17 P2 2.388521 1_555
Cu17 P2 2.388521 1_455
Cu17 Cu2 2.738490 1_455
Cu17 Cu2 2.738490 1_555
Cu17 Pr0 3.091853 1_555
Cu17 Pr4 3.117846 1_556
Cu18 P6 2.283240 1_555
Cu18 P1 2.388521 1_555
Cu18 P1 2.388521 1_655
Cu18 Pr3 3.091853 1_555
Cu18 Pr5 3.117846 1_555
Cu19 P7 2.283240 1_555
Cu19 P0 2.388521 1_655
Cu19 P0 2.388521 1_555
Cu19 Pr2 3.091853 1_555
Cu19 Pr5 3.117846 1_555
Cu20 P8 2.317704 1_555
Cu20 P7 2.405109 1_455
Cu20 P7 2.405109 1_555
Cu20 P0 2.580218 1_555
Cu20 Pr2 3.121503 1_455
Cu20 Pr2 3.121503 1_555
Cu20 Pr1 3.228040 1_545
Cu21 P9 2.317704 1_555
Cu21 P6 2.405109 1_455
Cu21 P6 2.405109 1_555
Cu21 P1 2.580218 1_555
Cu21 Pr3 3.121503 1_555
Cu21 Pr3 3.121503 1_455
Cu21 Pr0 3.228040 1_565
Cu22 P10 2.317704 1_555
Cu22 P5 2.405109 1_655
Cu22 P5 2.405109 1_555
Cu22 P2 2.580218 1_555
Cu22 Pr0 3.121503 1_555
Cu22 Pr0 3.121503 1_655
Cu22 Pr3 3.228040 1_555
Cu23 P11 2.317704 1_555
Cu23 P4 2.405109 1_655
Cu23 P4 2.405109 1_555
Cu23 Cu3 2.474807 1_555
Cu23 P3 2.580218 1_555
Cu23 Pr1 3.121503 1_555
Cu23 Pr1 3.121503 1_655
Cu23 Pr2 3.228040 1_555
P0 Pr5 2.958692 1_455
P0 Pr5 2.958692 1_555
P0 Pr2 3.038952 1_455
P0 Pr2 3.038952 1_555
P1 Pr5 2.958692 1_455
P1 Pr5 2.958692 1_555
P1 Pr3 3.038952 1_555
P1 Pr3 3.038952 1_455
P2 Pr4 2.958692 1_656
P2 Pr4 2.958692 1_556
P2 Pr0 3.038952 1_555
P2 Pr0 3.038952 1_655
P3 Pr4 2.958692 1_565
P3 Pr4 2.958692 1_665
P3 Pr1 3.038952 1_655
P3 Pr1 3.038952 1_555
P4 Pr2 2.936733 1_455
P4 Pr2 2.936733 1_555
P5 Pr3 2.936733 1_455
P5 Pr3 2.936733 1_555
P6 Pr0 2.936733 1_665
P6 Pr0 2.936733 1_565
P7 Pr1 2.936733 1_545
P7 Pr1 2.936733 1_645
P8 Pr4 2.958480 1_555
P8 Pr2 3.051818 1_555
P8 Pr2 3.051818 1_455
P9 Pr4 2.958480 1_566
P9 Pr3 3.051818 1_455
P9 Pr3 3.051818 1_555
P10 Pr5 2.958480 1_555
P10 Pr0 3.051818 1_555
P10 Pr0 3.051818 1_655
P11 Pr5 2.958480 1_555
P11 Pr1 3.051818 1_655
P11 Pr1 3.051818 1_555
