# generated using pymatgen
data_K18Na46Tl31
_symmetry_space_group_name_H-M   'P 1'
_cell_length_a   11.39128397
_cell_length_b   11.39128397
_cell_length_c   30.46779735
_cell_angle_alpha   90.00000000
_cell_angle_beta   90.00000000
_cell_angle_gamma   119.99955148
_symmetry_Int_Tables_number   1
_chemical_formula_structural   K18Na46Tl31
_chemical_formula_sum   'K18 Na46 Tl31'
_cell_volume   3423.88374317
_cell_formula_units_Z   1
loop_
 _symmetry_equiv_pos_site_id
 _symmetry_equiv_pos_as_xyz
  1  'x, y, z'
loop_
 _atom_site_type_symbol
 _atom_site_label
 _atom_site_symmetry_multiplicity
 _atom_site_fract_x
 _atom_site_fract_y
 _atom_site_fract_z
 _atom_site_occupancy
  K  K0  1  0.86816389  0.73633004  0.43994637  1
  K  K1  1  0.86817211  0.13182789  0.43994320  1
  K  K2  1  0.26366996  0.13183611  0.43994637  1
  K  K3  1  0.13230855  0.26461133  0.56038289  1
  K  K4  1  0.13229888  0.86770112  0.56038129  1
  K  K5  1  0.73538867  0.86769145  0.56038289  1
  K  K6  1  0.13230855  0.26461133  0.93961711  1
  K  K7  1  0.13229888  0.86770112  0.93961871  1
  K  K8  1  0.73538867  0.86769145  0.93961711  1
  K  K9  1  0.86816389  0.73633004  0.06005363  1
  K  K10  1  0.86817211  0.13182789  0.06005680  1
  K  K11  1  0.26366996  0.13183611  0.06005363  1
  K  K12  1  0.54173665  0.08346653  0.75000000  1
  K  K13  1  0.54172752  0.45827248  0.75000000  1
  K  K14  1  0.91653347  0.45826335  0.75000000  1
  K  K15  1  0.45804192  0.91609407  0.25000000  1
  K  K16  1  0.45805218  0.54194782  0.25000000  1
  K  K17  1  0.08390593  0.54195808  0.25000000  1
  Na  Na0  1  0.83274886  0.66549503  0.84633586  1
  Na  Na1  1  0.83275001  0.16724999  0.84633362  1
  Na  Na2  1  0.33450497  0.16725114  0.84633586  1
  Na  Na3  1  0.16695369  0.33391041  0.15381696  1
  Na  Na4  1  0.16695034  0.83304966  0.15381896  1
  Na  Na5  1  0.66608959  0.83304631  0.15381696  1
  Na  Na6  1  0.16695369  0.33391041  0.34618304  1
  Na  Na7  1  0.16695034  0.83304966  0.34618104  1
  Na  Na8  1  0.66608959  0.83304631  0.34618304  1
  Na  Na9  1  0.83274886  0.66549503  0.65366414  1
  Na  Na10  1  0.83275001  0.16724999  0.65366638  1
  Na  Na11  1  0.33450497  0.16725114  0.65366414  1
  Na  Na12  1  0.66668614  0.33331386  0.46108640  1
  Na  Na13  1  0.33330879  0.66669121  0.53903046  1
  Na  Na14  1  0.33330879  0.66669121  0.96096954  1
  Na  Na15  1  0.66668614  0.33331386  0.03891360  1
  Na  Na16  1  0.82204176  0.64408284  0.19086183  1
  Na  Na17  1  0.82204940  0.17795060  0.19086191  1
  Na  Na18  1  0.35591716  0.17795824  0.19086183  1
  Na  Na19  1  0.17869322  0.35738973  0.81001311  1
  Na  Na20  1  0.17869033  0.82130967  0.81001202  1
  Na  Na21  1  0.64261027  0.82130678  0.81001311  1
  Na  Na22  1  0.17869322  0.35738973  0.68998689  1
  Na  Na23  1  0.17869033  0.82130967  0.68998798  1
  Na  Na24  1  0.64261027  0.82130678  0.68998689  1
  Na  Na25  1  0.82204176  0.64408284  0.30913817  1
  Na  Na26  1  0.82204940  0.17795060  0.30913809  1
  Na  Na27  1  0.35591716  0.17795824  0.30913817  1
  Na  Na28  1  0.49998728  -0.00001968  0.50010349  1
  Na  Na29  1  0.49998962  0.50001038  0.50010561  1
  Na  Na30  1  0.00001968  0.50001272  0.50010349  1
  Na  Na31  1  0.49998728  -0.00001968  0.99989651  1
  Na  Na32  1  0.49998962  0.50001038  0.99989439  1
  Na  Na33  1  0.00001968  0.50001272  0.99989651  1
  Na  Na34  1  0.49577895  0.99156435  0.61650436  1
  Na  Na35  1  0.49579373  0.50420627  0.61650397  1
  Na  Na36  1  0.00843565  0.50422105  0.61650436  1
  Na  Na37  1  0.50368914  0.00737381  0.38361370  1
  Na  Na38  1  0.50368714  0.49631286  0.38361548  1
  Na  Na39  1  0.99262619  0.49631086  0.38361370  1
  Na  Na40  1  0.50368914  0.00737381  0.11638630  1
  Na  Na41  1  0.50368714  0.49631286  0.11638452  1
  Na  Na42  1  0.99262619  0.49631086  0.11638630  1
  Na  Na43  1  0.49577895  0.99156435  0.88349564  1
  Na  Na44  1  0.49579373  0.50420627  0.88349603  1
  Na  Na45  1  0.00843565  0.50422105  0.88349564  1
  Tl  Tl0  1  0.66668055  0.33331945  0.64324263  1
  Tl  Tl1  1  0.33332347  0.66667653  0.35554292  1
  Tl  Tl2  1  0.33332347  0.66667653  0.14445708  1
  Tl  Tl3  1  0.66668055  0.33331945  0.85675737  1
  Tl  Tl4  1  0.90166898  0.80333915  0.75000000  1
  Tl  Tl5  1  0.90167117  0.09832883  0.75000000  1
  Tl  Tl6  1  0.19666085  0.09833102  0.75000000  1
  Tl  Tl7  1  0.09770599  0.19541326  0.25000000  1
  Tl  Tl8  1  0.09770578  0.90229422  0.25000000  1
  Tl  Tl9  1  0.80458674  0.90229401  0.25000000  1
  Tl  Tl10  1  0.23465722  0.46931079  0.05516804  1
  Tl  Tl11  1  0.23465064  0.76534936  0.05516721  1
  Tl  Tl12  1  0.53068921  0.76534278  0.05516804  1
  Tl  Tl13  1  0.76561924  0.53124309  0.94580296  1
  Tl  Tl14  1  0.76562553  0.23437447  0.94580400  1
  Tl  Tl15  1  0.46875691  0.23438076  0.94580296  1
  Tl  Tl16  1  0.76561924  0.53124309  0.55419704  1
  Tl  Tl17  1  0.76562553  0.23437447  0.55419600  1
  Tl  Tl18  1  0.46875691  0.23438076  0.55419704  1
  Tl  Tl19  1  0.23465722  0.46931079  0.44483196  1
  Tl  Tl20  1  0.23465064  0.76534936  0.44483279  1
  Tl  Tl21  1  0.53068921  0.76534278  0.44483196  1
  Tl  Tl22  1  0.00000019  0.99999981  0.83869891  1
  Tl  Tl23  1  0.99999967  0.00000033  0.16097814  1
  Tl  Tl24  1  0.99999967  0.00000033  0.33902186  1
  Tl  Tl25  1  0.00000019  0.99999981  0.66130109  1
  Tl  Tl26  1  0.66667996  0.33332004  0.35229118  1
  Tl  Tl27  1  0.33332280  0.66667720  0.64773696  1
  Tl  Tl28  1  0.33332280  0.66667720  0.85226304  1
  Tl  Tl29  1  0.66667996  0.33332004  0.14770882  1
  Tl  Tl30  1  0.66668407  0.33331593  0.25000000  1
loop_
_geom_bond_atom_site_label_1
_geom_bond_atom_site_label_2
_geom_bond_distance
_geom_bond_site_symmetry_2
K0 Tl20 4.022437 1_655
K0 Tl21 4.022472 1_555
K0 Tl16 4.026233 1_555
K0 Tl24 4.027570 1_565
K0 Na12 4.027663 1_555
K0 Na38 4.038243 1_555
K0 Na39 4.038281 1_555
K0 Na25 4.088017 1_555
K0 Na30 4.111606 1_655
K0 Na29 4.111673 1_555
K0 Na8 4.148441 1_555
K0 Na7 4.148456 1_655
K0 K4 4.500483 1_655
K0 K5 4.500522 1_555
K0 K1 4.505182 1_565
K0 K2 4.505353 1_665
K1 Tl19 4.022531 1_655
K1 Tl21 4.022531 1_545
K1 Tl17 4.026313 1_555
K1 Na12 4.027221 1_555
K1 Tl24 4.027388 1_555
K1 Na39 4.038286 1_555
K1 Na37 4.038286 1_555
K1 Na26 4.087919 1_555
K1 Na28 4.111791 1_555
K1 Na30 4.111791 1_655
K1 Na6 4.148350 1_655
K1 Na8 4.148350 1_545
K1 K3 4.500610 1_655
K1 K5 4.500610 1_545
K1 K2 4.505182 1_655
K2 Tl20 4.022437 1_545
K2 Tl19 4.022472 1_555
K2 Tl18 4.026233 1_555
K2 Tl24 4.027570 1_455
K2 Na12 4.027663 1_555
K2 Na38 4.038243 1_555
K2 Na37 4.038281 1_555
K2 Na27 4.088017 1_555
K2 Na28 4.111606 1_555
K2 Na29 4.111673 1_555
K2 Na6 4.148441 1_555
K2 Na7 4.148456 1_545
K2 K4 4.500483 1_545
K2 K3 4.500522 1_555
K3 Na13 4.019588 1_555
K3 Tl18 4.020268 1_555
K3 Tl17 4.020290 1_455
K3 Na36 4.026941 1_555
K3 Na35 4.026954 1_555
K3 Tl25 4.033426 1_545
K3 Na22 4.053436 1_555
K3 Tl19 4.058629 1_555
K3 Na29 4.107877 1_555
K3 Na30 4.107957 1_555
K3 Na11 4.143297 1_555
K3 Na10 4.143368 1_455
K3 K4 4.521262 1_545
K3 K5 4.521458 1_445
K4 Na13 4.018969 1_555
K4 Tl16 4.020347 1_455
K4 Tl18 4.020347 1_565
K4 Na36 4.026971 1_555
K4 Na34 4.026971 1_555
K4 Tl25 4.033362 1_555
K4 Na23 4.053525 1_555
K4 Tl20 4.058578 1_555
K4 Na30 4.107950 1_555
K4 Na28 4.107950 1_565
K4 Na9 4.143322 1_455
K4 Na11 4.143322 1_565
K4 K5 4.521262 1_455
K5 Na13 4.019588 1_555
K5 Tl16 4.020268 1_555
K5 Tl17 4.020290 1_565
K5 Na34 4.026941 1_555
K5 Na35 4.026954 1_555
K5 Tl25 4.033426 1_655
K5 Na24 4.053436 1_555
K5 Tl21 4.058629 1_555
K5 Na29 4.107877 1_555
K5 Na28 4.107957 1_565
K5 Na9 4.143297 1_555
K5 Na10 4.143368 1_565
K6 Na14 4.019588 1_555
K6 Tl15 4.020268 1_555
K6 Tl14 4.020290 1_455
K6 Na45 4.026941 1_555
K6 Na44 4.026954 1_555
K6 Tl22 4.033426 1_545
K6 Na19 4.053436 1_555
K6 Tl10 4.058629 1_556
K6 Na32 4.107877 1_555
K6 Na33 4.107957 1_555
K6 Na2 4.143297 1_555
K6 Na1 4.143368 1_455
K6 K7 4.521262 1_545
K6 K8 4.521458 1_445
K7 Na14 4.018969 1_555
K7 Tl13 4.020347 1_455
K7 Tl15 4.020347 1_565
K7 Na45 4.026971 1_555
K7 Na43 4.026971 1_555
K7 Tl22 4.033362 1_555
K7 Na20 4.053525 1_555
K7 Tl11 4.058578 1_556
K7 Na31 4.107950 1_565
K7 Na33 4.107950 1_555
K7 Na0 4.143322 1_455
K7 Na2 4.143322 1_565
K7 K9 4.500483 1_456
K7 K8 4.521262 1_455
K8 Na14 4.019588 1_555
K8 Tl13 4.020268 1_555
K8 Tl14 4.020290 1_565
K8 Na43 4.026941 1_555
K8 Na44 4.026954 1_555
K8 Tl22 4.033426 1_655
K8 Na21 4.053436 1_555
K8 Tl12 4.058629 1_556
K8 Na32 4.107877 1_555
K8 Na31 4.107957 1_565
K8 Na0 4.143297 1_555
K8 Na1 4.143368 1_565
K8 K9 4.500522 1_556
K9 Tl11 4.022437 1_655
K9 Tl12 4.022472 1_555
K9 Tl13 4.026233 1_554
K9 Tl23 4.027570 1_565
K9 Na15 4.027663 1_555
K9 Na41 4.038243 1_555
K9 Na42 4.038281 1_555
K9 Na16 4.088017 1_555
K9 Na33 4.111606 1_654
K9 Na32 4.111673 1_554
K9 Na5 4.148441 1_555
K9 Na4 4.148456 1_655
K10 Tl10 4.022531 1_655
K10 Tl12 4.022531 1_545
K10 Tl14 4.026313 1_554
K10 Na15 4.027221 1_555
K10 Tl23 4.027388 1_555
K10 Na42 4.038286 1_555
K10 Na40 4.038286 1_555
K10 Na17 4.087919 1_555
K10 Na33 4.111791 1_654
K10 Na31 4.111791 1_554
K10 Na3 4.148350 1_655
K10 Na5 4.148350 1_545
K10 K6 4.500610 1_654
K10 K8 4.500610 1_544
K10 K9 4.505182 1_545
K10 K11 4.505182 1_655
K11 Tl11 4.022437 1_545
K11 Tl10 4.022472 1_555
K11 Tl15 4.026233 1_554
K11 Tl23 4.027570 1_455
K11 Na15 4.027663 1_555
K11 Na41 4.038243 1_555
K11 Na40 4.038281 1_555
K11 Na18 4.088017 1_555
K11 Na31 4.111606 1_554
K11 Na32 4.111673 1_554
K11 Na3 4.148441 1_555
K11 Na4 4.148456 1_545
K11 K7 4.500483 1_544
K11 K6 4.500522 1_554
K11 K9 4.505353 1_445
K12 Tl5 4.018143 1_555
K12 Tl6 4.018195 1_555
K12 Tl3 4.081087 1_555
K12 Tl0 4.081087 1_555
K12 Na21 4.124727 1_545
K12 Na24 4.124727 1_545
K12 Na23 4.124826 1_545
K12 Na20 4.124826 1_545
K12 Na1 4.165460 1_555
K12 Na10 4.165460 1_555
K12 Na11 4.165519 1_555
K12 Na2 4.165519 1_555
K12 Na43 4.167140 1_545
K12 Na34 4.167140 1_545
K12 K14 4.269446 1_555
K12 K13 4.269573 1_555
K13 Tl6 4.018181 1_555
K13 Tl4 4.018181 1_555
K13 Tl0 4.081394 1_555
K13 Tl3 4.081394 1_555
K13 Na19 4.124727 1_555
K13 Na22 4.124727 1_555
K13 Na21 4.124727 1_555
K13 Na24 4.124727 1_555
K13 Na11 4.165548 1_555
K13 Na9 4.165548 1_555
K13 Na0 4.165548 1_555
K13 Na2 4.165548 1_555
K13 Na44 4.167076 1_555
K13 Na35 4.167076 1_555
K13 K14 4.269573 1_555
K14 Tl5 4.018143 1_555
K14 Tl4 4.018195 1_555
K14 Tl3 4.081087 1_555
K14 Tl0 4.081087 1_555
K14 Na22 4.124727 1_655
K14 Na19 4.124727 1_655
K14 Na23 4.124826 1_655
K14 Na20 4.124826 1_655
K14 Na1 4.165460 1_555
K14 Na10 4.165460 1_555
K14 Na9 4.165519 1_555
K14 Na0 4.165519 1_555
K14 Na45 4.167140 1_655
K14 Na36 4.167140 1_655
K15 Tl8 4.028394 1_555
K15 Tl9 4.028491 1_555
K15 Tl1 4.049047 1_555
K15 Tl2 4.049047 1_555
K15 Tl30 4.115971 1_565
K15 Na18 4.119236 1_565
K15 Na27 4.119236 1_565
K15 Na17 4.119378 1_565
K15 Na26 4.119378 1_565
K15 Na7 4.164224 1_555
K15 Na4 4.164224 1_555
K15 Na5 4.164282 1_555
K15 Na8 4.164282 1_555
K15 Na37 4.169321 1_565
K15 Na40 4.169321 1_565
K15 K17 4.261918 1_555
K15 K16 4.262065 1_555
K16 Tl9 4.028472 1_555
K16 Tl7 4.028472 1_555
K16 Tl2 4.049276 1_555
K16 Tl1 4.049276 1_555
K16 Tl30 4.116357 1_555
K16 Na18 4.119230 1_555
K16 Na27 4.119230 1_555
K16 Na25 4.119230 1_555
K16 Na16 4.119230 1_555
K16 Na3 4.164296 1_555
K16 Na6 4.164296 1_555
K16 Na8 4.164296 1_555
K16 Na5 4.164296 1_555
K16 Na41 4.169351 1_555
K16 Na38 4.169351 1_555
K16 K17 4.262065 1_555
K17 Tl8 4.028394 1_555
K17 Tl7 4.028491 1_555
K17 Tl1 4.049047 1_555
K17 Tl2 4.049047 1_555
K17 Tl30 4.115971 1_455
K17 Na25 4.119236 1_455
K17 Na16 4.119236 1_455
K17 Na17 4.119378 1_455
K17 Na26 4.119378 1_455
K17 Na7 4.164224 1_555
K17 Na4 4.164224 1_555
K17 Na6 4.164282 1_555
K17 Na3 4.164282 1_555
K17 Na42 4.169321 1_455
K17 Na39 4.169321 1_455
Na0 Tl4 3.234852 1_555
Na0 Tl3 3.292321 1_555
Na0 Tl13 3.307307 1_555
Na0 Tl22 3.308145 1_655
Na0 Na44 3.512600 1_555
Na0 Na45 3.512633 1_655
Na0 Na20 3.593053 1_655
Na0 Na21 3.593110 1_555
Na1 Tl5 3.234779 1_555
Na1 Tl3 3.291945 1_555
Na1 Tl14 3.307384 1_555
Na1 Tl22 3.308074 1_645
Na1 Na43 3.512771 1_545
Na1 Na45 3.512771 1_655
Na1 Na19 3.593048 1_655
Na1 Na21 3.593048 1_545
Na2 Tl6 3.234852 1_555
Na2 Tl3 3.292321 1_555
Na2 Tl15 3.307307 1_555
Na2 Tl22 3.308145 1_545
Na2 Na44 3.512600 1_555
Na2 Na43 3.512633 1_545
Na2 Na20 3.593053 1_545
Na3 Tl7 3.233345 1_555
Na3 Tl10 3.289065 1_555
Na3 Tl2 3.295163 1_555
Na3 Tl23 3.301303 1_455
Na3 Na42 3.512828 1_455
Na3 Na41 3.512917 1_555
Na4 Tl8 3.233252 1_555
Na4 Tl11 3.289141 1_555
Na4 Tl2 3.294951 1_555
Na4 Tl23 3.301191 1_465
Na4 Na40 3.512968 1_565
Na4 Na42 3.512968 1_455
Na5 Tl9 3.233345 1_555
Na5 Tl12 3.289065 1_555
Na5 Tl2 3.295163 1_555
Na5 Tl23 3.301303 1_565
Na6 Tl7 3.233345 1_555
Na6 Tl19 3.289065 1_555
Na6 Tl1 3.295163 1_555
Na6 Tl24 3.301303 1_455
Na7 Tl8 3.233252 1_555
Na7 Tl20 3.289141 1_555
Na7 Tl1 3.294951 1_555
Na7 Tl24 3.301191 1_465
Na8 Tl9 3.233345 1_555
Na8 Tl21 3.289065 1_555
Na8 Tl1 3.295163 1_555
Na8 Tl24 3.301303 1_565
Na9 Tl4 3.234852 1_555
Na9 Tl0 3.292321 1_555
Na9 Tl16 3.307307 1_555
Na9 Tl25 3.308145 1_655
Na10 Tl5 3.234779 1_555
Na10 Tl0 3.291945 1_555
Na10 Tl17 3.307384 1_555
Na10 Tl25 3.308074 1_645
Na10 Na34 3.512771 1_545
Na10 Na36 3.512771 1_655
Na10 Na22 3.593048 1_655
Na10 Na24 3.593048 1_545
Na11 Tl6 3.234852 1_555
Na11 Tl0 3.292321 1_555
Na11 Tl18 3.307307 1_555
Na11 Tl25 3.308145 1_545
Na11 Na35 3.512600 1_555
Na11 Na34 3.512633 1_545
Na11 Na23 3.593053 1_545
Na11 Na22 3.593110 1_555
Na12 Tl26 3.314751 1_555
Na12 Tl17 3.443599 1_555
Na12 Tl18 3.443914 1_555
Na12 Tl16 3.443914 1_555
Na12 Na28 3.496673 1_555
Na12 Na30 3.496673 1_655
Na12 Na29 3.497226 1_555
Na12 Na39 3.988831 1_555
Na12 Na37 3.988831 1_555
Na12 Na38 3.989242 1_555
Na13 Tl27 3.312048 1_555
Na13 Tl20 3.467842 1_555
Na13 Tl19 3.468225 1_555
Na13 Tl21 3.468225 1_555
Na13 Na30 3.495328 1_555
Na13 Na28 3.495328 1_565
Na13 Na29 3.495958 1_555
Na13 Na36 3.980373 1_555
Na13 Na34 3.980373 1_555
Na13 Na35 3.981117 1_555
Na14 Tl28 3.312048 1_555
Na14 Tl11 3.467842 1_556
Na14 Tl10 3.468225 1_556
Na14 Tl12 3.468225 1_556
Na14 Na33 3.495328 1_555
Na14 Na31 3.495328 1_565
Na14 Na32 3.495958 1_555
Na14 Na45 3.980373 1_555
Na14 Na43 3.980373 1_555
Na14 Na44 3.981117 1_555
Na15 Tl29 3.314751 1_555
Na15 Tl14 3.443599 1_554
Na15 Tl15 3.443914 1_554
Na15 Tl13 3.443914 1_554
Na15 Na31 3.496673 1_554
Na15 Na33 3.496673 1_654
Na15 Na32 3.497226 1_554
Na15 Na40 3.988831 1_555
Na15 Na42 3.988831 1_555
Na15 Na41 3.989242 1_555
Na16 Tl29 3.335769 1_555
Na16 Tl9 3.538710 1_555
Na16 Tl8 3.538718 1_655
Na16 Tl30 3.556049 1_555
Na16 Na4 3.589814 1_655
Na16 Na5 3.589872 1_555
Na16 Na25 3.603620 1_555
Na16 Tl23 3.627322 1_565
Na16 Na42 3.876756 1_555
Na16 Na41 3.876791 1_555
Na17 Tl29 3.335534 1_555
Na17 Tl9 3.538584 1_545
Na17 Tl7 3.538584 1_655
Na17 Tl30 3.555722 1_555
Na17 Na5 3.589779 1_545
Na17 Na3 3.589779 1_655
Na17 Na26 3.603615 1_555
Na17 Tl23 3.627137 1_555
Na17 Na40 3.876803 1_555
Na17 Na42 3.876803 1_555
Na18 Tl29 3.335769 1_555
Na18 Tl7 3.538710 1_555
Na18 Tl8 3.538718 1_545
Na18 Tl30 3.556049 1_555
Na18 Na4 3.589814 1_545
Na18 Na3 3.589872 1_555
Na18 Na27 3.603620 1_555
Na18 Tl23 3.627322 1_455
Na18 Na40 3.876756 1_555
Na18 Na41 3.876791 1_555
Na19 Tl28 3.311606 1_555
Na19 Tl6 3.563375 1_555
Na19 Tl5 3.563380 1_455
Na19 Na2 3.593110 1_555
Na19 Tl22 3.632431 1_545
Na19 Na22 3.656935 1_555
Na19 Na45 3.849076 1_555
Na19 Na44 3.849201 1_555
Na20 Tl28 3.311395 1_555
Na20 Tl4 3.563299 1_455
Na20 Tl6 3.563299 1_565
Na20 Tl22 3.632323 1_555
Na20 Na23 3.656868 1_555
Na20 Na45 3.849110 1_555
Na20 Na43 3.849110 1_555
Na21 Tl28 3.311606 1_555
Na21 Tl4 3.563375 1_555
Na21 Tl5 3.563380 1_565
Na21 Tl22 3.632431 1_655
Na21 Na24 3.656935 1_555
Na21 Na43 3.849076 1_555
Na21 Na44 3.849201 1_555
Na22 Tl27 3.311606 1_555
Na22 Tl6 3.563375 1_555
Na22 Tl5 3.563380 1_455
Na22 Tl25 3.632431 1_545
Na22 Na36 3.849076 1_555
Na22 Na35 3.849201 1_555
Na23 Tl27 3.311395 1_555
Na23 Tl4 3.563299 1_455
Na23 Tl6 3.563299 1_565
Na23 Na9 3.593053 1_455
Na23 Tl25 3.632323 1_555
Na23 Na36 3.849110 1_555
Na23 Na34 3.849110 1_555
Na24 Tl27 3.311606 1_555
Na24 Tl4 3.563375 1_555
Na24 Tl5 3.563380 1_565
Na24 Na9 3.593110 1_555
Na24 Tl25 3.632431 1_655
Na24 Na34 3.849076 1_555
Na24 Na35 3.849201 1_555
Na25 Tl26 3.335769 1_555
Na25 Tl9 3.538710 1_555
Na25 Tl8 3.538718 1_655
Na25 Tl30 3.556049 1_555
Na25 Na7 3.589814 1_655
Na25 Na8 3.589872 1_555
Na25 Tl24 3.627322 1_565
Na25 Na39 3.876756 1_555
Na25 Na38 3.876791 1_555
Na26 Tl26 3.335534 1_555
Na26 Tl9 3.538584 1_545
Na26 Tl7 3.538584 1_655
Na26 Tl30 3.555722 1_555
Na26 Na8 3.589779 1_545
Na26 Na6 3.589779 1_655
Na26 Tl24 3.627137 1_555
Na26 Na37 3.876803 1_555
Na26 Na39 3.876803 1_555
Na27 Tl26 3.335769 1_555
Na27 Tl7 3.538710 1_555
Na27 Tl8 3.538718 1_545
Na27 Tl30 3.556049 1_555
Na27 Na7 3.589814 1_545
Na27 Na6 3.589872 1_555
Na27 Tl24 3.627322 1_455
Na27 Na37 3.876756 1_555
Na27 Na38 3.876791 1_555
Na28 Tl18 3.304887 1_555
Na28 Tl17 3.304908 1_555
Na28 Tl20 3.322150 1_545
Na28 Tl21 3.322187 1_545
Na28 Na34 3.547450 1_545
Na28 Na37 3.549937 1_555
Na29 Tl16 3.304838 1_555
Na29 Tl18 3.304838 1_555
Na29 Tl21 3.322164 1_555
Na29 Tl19 3.322164 1_555
Na29 Na35 3.547368 1_555
Na29 Na38 3.549947 1_555
Na30 Tl16 3.304887 1_455
Na30 Tl17 3.304908 1_455
Na30 Tl20 3.322150 1_555
Na30 Tl19 3.322187 1_555
Na30 Na36 3.547450 1_555
Na30 Na39 3.549937 1_455
Na31 Tl15 3.304887 1_555
Na31 Tl14 3.304908 1_555
Na31 Tl11 3.322150 1_546
Na31 Tl12 3.322187 1_546
Na31 Na43 3.547450 1_545
Na31 Na40 3.549937 1_556
Na32 Tl13 3.304838 1_555
Na32 Tl15 3.304838 1_555
Na32 Tl12 3.322164 1_556
Na32 Tl10 3.322164 1_556
Na32 Na44 3.547368 1_555
Na32 Na41 3.549947 1_556
Na33 Tl13 3.304887 1_455
Na33 Tl14 3.304908 1_455
Na33 Tl11 3.322150 1_556
Na33 Tl10 3.322187 1_556
Na33 Na45 3.547450 1_555
Na33 Na42 3.549937 1_456
Na34 Tl27 3.343353 1_555
Na34 Tl0 3.468505 1_565
Na34 Tl18 3.492944 1_565
Na34 Tl17 3.492999 1_565
Na35 Tl27 3.343853 1_555
Na35 Tl0 3.468663 1_555
Na35 Tl18 3.492758 1_555
Na35 Tl16 3.492758 1_555
Na35 Na9 3.512600 1_555
Na36 Tl27 3.343353 1_555
Na36 Tl0 3.468505 1_455
Na36 Tl16 3.492944 1_455
Na36 Tl17 3.492999 1_455
Na36 Na9 3.512633 1_455
Na37 Tl26 3.354149 1_555
Na37 Tl21 3.467386 1_545
Na37 Tl20 3.467432 1_545
Na37 Tl1 3.468150 1_545
Na37 Na8 3.512828 1_545
Na37 Na7 3.512968 1_545
Na38 Tl26 3.354516 1_555
Na38 Tl21 3.467341 1_555
Na38 Tl19 3.467341 1_555
Na38 Tl1 3.468429 1_555
Na38 Na6 3.512917 1_555
Na38 Na8 3.512917 1_555
Na39 Tl26 3.354149 1_555
Na39 Tl19 3.467386 1_655
Na39 Tl20 3.467432 1_655
Na39 Tl1 3.468150 1_655
Na39 Na6 3.512828 1_655
Na39 Na7 3.512968 1_655
Na40 Tl29 3.354149 1_555
Na40 Tl12 3.467386 1_545
Na40 Tl11 3.467432 1_545
Na40 Tl2 3.468150 1_545
Na40 Na5 3.512828 1_545
Na41 Tl29 3.354516 1_555
Na41 Tl12 3.467341 1_555
Na41 Tl10 3.467341 1_555
Na41 Tl2 3.468429 1_555
Na41 Na5 3.512917 1_555
Na42 Tl29 3.354149 1_555
Na42 Tl10 3.467386 1_655
Na42 Tl11 3.467432 1_655
Na42 Tl2 3.468150 1_655
Na43 Tl28 3.343353 1_555
Na43 Tl3 3.468505 1_565
Na43 Tl15 3.492944 1_565
Na43 Tl14 3.492999 1_565
Na44 Tl28 3.343853 1_555
Na44 Tl3 3.468663 1_555
Na44 Tl15 3.492758 1_555
Na44 Tl13 3.492758 1_555
Na45 Tl28 3.343353 1_555
Na45 Tl3 3.468505 1_455
Na45 Tl13 3.492944 1_455
Na45 Tl14 3.492999 1_455
Tl0 Tl17 3.342422 1_555
Tl0 Tl18 3.342598 1_555
Tl0 Tl16 3.342598 1_555
Tl1 Tl20 3.345312 1_555
Tl1 Tl19 3.345415 1_555
Tl1 Tl21 3.345415 1_555
Tl4 Tl5 3.360299 1_565
Tl4 Tl6 3.360359 1_665
Tl5 Tl6 3.360299 1_655
Tl7 Tl8 3.339001 1_545
Tl7 Tl9 3.339027 1_445
Tl8 Tl9 3.339001 1_455
Tl10 Tl2 3.345415 1_555
Tl10 Tl12 3.372207 1_555
Tl10 Tl11 3.372297 1_555
Tl11 Tl2 3.345312 1_555
Tl11 Tl12 3.372297 1_555
Tl12 Tl2 3.345415 1_555
Tl13 Tl3 3.342598 1_555
Tl13 Tl15 3.381666 1_555
Tl13 Tl14 3.381751 1_555
Tl14 Tl3 3.342422 1_555
Tl14 Tl15 3.381751 1_555
Tl15 Tl3 3.342598 1_555
Tl16 Tl18 3.381666 1_555
Tl16 Tl17 3.381751 1_555
Tl17 Tl18 3.381751 1_555
Tl19 Tl21 3.372207 1_555
Tl19 Tl20 3.372297 1_555
Tl20 Tl21 3.372297 1_555
Tl22 Tl5 3.326726 1_465
Tl22 Tl6 3.326749 1_565
Tl22 Tl4 3.326749 1_455
Tl23 Tl8 3.327589 1_645
Tl23 Tl7 3.327601 1_655
Tl23 Tl9 3.327601 1_545
Tl24 Tl8 3.327589 1_645
Tl24 Tl7 3.327601 1_655
Tl24 Tl9 3.327601 1_545
Tl25 Tl5 3.326726 1_465
Tl25 Tl6 3.326749 1_565
Tl25 Tl4 3.326749 1_455
Tl26 Tl30 3.116587 1_555
Tl29 Tl30 3.116587 1_555
