# generated using pymatgen
data_Er2Ti12(CuO4)9
_symmetry_space_group_name_H-M   'P 1'
_cell_length_a   6.45079114
_cell_length_b   10.50974365
_cell_length_c   10.50974365
_cell_angle_alpha   120.00000000
_cell_angle_beta   90.00000000
_cell_angle_gamma   90.00000000
_symmetry_Int_Tables_number   1
_chemical_formula_structural   Er2Ti12(CuO4)9
_chemical_formula_sum   'Er2 Ti12 Cu9 O36'
_cell_volume   617.06065800
_cell_formula_units_Z   1
loop_
 _symmetry_equiv_pos_site_id
 _symmetry_equiv_pos_as_xyz
  1  'x, y, z'
loop_
 _atom_site_type_symbol
 _atom_site_label
 _atom_site_symmetry_multiplicity
 _atom_site_fract_x
 _atom_site_fract_y
 _atom_site_fract_z
 _atom_site_occupancy
  Er  Er0  1  0.00468300  0.00000000  0.00000000  1
  Er  Er1  1  0.66198400  0.66666700  0.33333300  1
  Ti  Ti0  1  0.17046900  0.65286400  0.82507800  1
  Ti  Ti1  1  0.83333300  0.33333300  0.16666700  1
  Ti  Ti2  1  0.49619800  0.01380300  0.50825500  1
  Ti  Ti3  1  0.17393000  0.66666700  0.33333300  1
  Ti  Ti4  1  0.83333300  0.33333300  0.66666700  1
  Ti  Ti5  1  0.49273700  0.00000000  0.00000000  1
  Ti  Ti6  1  0.83333300  0.83333300  0.66666700  1
  Ti  Ti7  1  0.49619800  0.49445200  0.98619700  1
  Ti  Ti8  1  0.17046900  0.17221500  0.34713600  1
  Ti  Ti9  1  0.49619800  0.49174500  0.50554800  1
  Ti  Ti10  1  0.17046900  0.17492200  0.82778500  1
  Ti  Ti11  1  0.83333300  0.83333300  0.16666700  1
  Cu  Cu0  1  0.33333300  0.33333300  0.16666700  1
  Cu  Cu1  1  0.99468400  0.99629900  0.49834200  1
  Cu  Cu2  1  0.67198300  0.67036800  0.83499100  1
  Cu  Cu3  1  0.99468400  0.50165800  0.49795700  1
  Cu  Cu4  1  0.67198300  0.16500900  0.83537600  1
  Cu  Cu5  1  0.33333300  0.83333300  0.16666700  1
  Cu  Cu6  1  0.33333300  0.83333300  0.66666700  1
  Cu  Cu7  1  0.99468400  0.50204300  0.00370100  1
  Cu  Cu8  1  0.67198300  0.16462400  0.32963200  1
  O  O0  1  0.24429900  0.06345200  0.62219400  1
  O  O1  1  0.92028900  0.74520600  0.95965300  1
  O  O2  1  0.58379100  0.41021700  0.29217200  1
  O  O3  1  0.35160200  0.52632600  0.17667100  1
  O  O4  1  0.00292400  0.18487700  0.50165200  1
  O  O5  1  0.68776000  0.86074900  0.84348500  1
  O  O6  1  0.97890600  0.80591700  0.48984900  1
  O  O7  1  0.66374300  0.48179000  0.83168100  1
  O  O8  1  0.31506500  0.14034100  0.15666200  1
  O  O9  1  0.08287600  0.25645000  0.04116100  1
  O  O10  1  0.74637700  0.92146000  0.37368100  1
  O  O11  1  0.42236800  0.60321500  0.71113900  1
  O  O12  1  0.42236800  0.28886100  0.89207500  1
  O  O13  1  0.08287600  0.95883900  0.21528900  1
  O  O14  1  0.74637700  0.62631900  0.54778000  1
  O  O15  1  0.66374300  0.16831900  0.65010900  1
  O  O16  1  0.31506500  0.84333800  0.98367800  1
  O  O17  1  0.97890600  0.51015100  0.31606900  1
  O  O18  1  0.68776000  0.15651500  0.01726500  1
  O  O19  1  0.35160200  0.82332900  0.34965500  1
  O  O20  1  0.00292400  0.49834800  0.68322400  1
  O  O21  1  0.92028900  0.04034700  0.78555400  1
  O  O22  1  0.58379100  0.70782800  0.11804400  1
  O  O23  1  0.24429900  0.37780600  0.44125800  1
  O  O24  1  0.00292400  0.31677600  0.81512300  1
  O  O25  1  0.68776000  0.98273500  0.13925100  1
  O  O26  1  0.35160200  0.65034500  0.47367400  1
  O  O27  1  0.58379100  0.88195600  0.58978300  1
  O  O28  1  0.24429900  0.55874200  0.93654800  1
  O  O29  1  0.92028900  0.21444600  0.25479400  1
  O  O30  1  0.74637700  0.45222000  0.07854000  1
  O  O31  1  0.42236800  0.10792500  0.39678500  1
  O  O32  1  0.08287600  0.78471100  0.74355000  1
  O  O33  1  0.31506500  0.01632200  0.85965900  1
  O  O34  1  0.97890600  0.68393100  0.19408300  1
  O  O35  1  0.66374300  0.34989100  0.51821000  1
loop_
_geom_bond_atom_site_label_1
_geom_bond_atom_site_label_2
_geom_bond_distance
_geom_bond_site_symmetry_2
Er0 O16 2.542975 1_544
Er0 O8 2.542977 1_555
Er0 O33 2.542981 1_554
Er0 O21 2.551737 1_454
Er0 O29 2.551743 1_455
Er0 O1 2.551747 1_444
Er0 O32 2.557315 1_544
Er0 O9 2.557315 1_555
Er0 O13 2.557315 1_545
Er0 O18 2.572905 1_455
Er0 O5 2.572908 1_444
Er0 O25 2.572912 1_445
Er1 O19 2.542975 1_555
Er1 O3 2.542977 1_555
Er1 O26 2.542981 1_555
Er1 O10 2.551731 1_555
Er1 O30 2.551739 1_555
Er1 O14 2.551752 1_555
Er1 O27 2.557315 1_555
Er1 O2 2.557315 1_555
Er1 O22 2.557315 1_555
Er1 O34 2.572896 1_555
Er1 O6 2.572904 1_555
Er1 O17 2.572909 1_555
Cu0 O8 1.981326 1_555
Cu0 O3 1.981342 1_555
Cu0 O9 1.984252 1_555
Cu0 O2 1.984253 1_555
Cu1 O6 1.960407 1_555
Cu1 O4 1.965463 1_665
Cu1 O0 1.966350 1_665
Cu1 O10 1.967321 1_555
Cu2 O5 1.960391 1_555
Cu2 O7 1.965463 1_555
Cu2 O11 1.966350 1_555
Cu2 O1 1.967320 1_555
Cu3 O17 1.960396 1_555
Cu3 O20 1.965452 1_655
Cu3 O23 1.966350 1_655
Cu3 O14 1.967320 1_555
Cu4 O18 1.960412 1_556
Cu4 O15 1.965452 1_555
Cu4 O12 1.966350 1_555
Cu4 O21 1.967321 1_555
Cu5 O19 1.981332 1_555
Cu5 O16 1.981347 1_554
Cu5 O22 1.984252 1_555
Cu5 O13 1.984253 1_555
Cu6 O33 1.981336 1_565
Cu6 O26 1.981337 1_555
Cu6 O32 1.984247 1_555
Cu6 O27 1.984263 1_555
Cu7 O34 1.960402 1_555
Cu7 O24 1.965458 1_654
Cu7 O28 1.966350 1_654
Cu7 O30 1.967325 1_555
Cu8 O25 1.960401 1_545
Cu8 O35 1.965458 1_555
Cu8 O31 1.966350 1_555
Cu8 O29 1.967310 1_555
O0 Ti2 1.929203 1_555
O0 Ti10 1.933037 1_555
O1 Ti11 1.972539 1_556
O1 Ti0 2.043077 1_655
O2 Ti1 1.979445 1_555
O2 Ti9 2.039826 1_555
O3 Ti3 1.942033 1_555
O3 Ti7 2.078221 1_554
O4 Ti8 1.899173 1_555
O4 Ti4 1.983173 1_455
O5 Ti6 1.970466 1_555
O5 Ti5 2.005733 1_566
O6 Ti6 1.970466 1_555
O6 Ti3 2.005738 1_655
O7 Ti7 1.899173 1_555
O7 Ti4 1.983168 1_555
O8 Ti5 1.942033 1_555
O8 Ti8 2.078221 1_555
O9 Ti1 1.979454 1_455
O9 Ti10 2.039826 1_554
O10 Ti11 1.972539 1_555
O10 Ti2 2.043068 1_565
O11 Ti0 1.929203 1_555
O11 Ti9 1.933037 1_555
O12 Ti10 1.929203 1_555
O12 Ti7 1.933037 1_555
O13 Ti11 1.979455 1_455
O13 Ti8 2.039825 1_565
O14 Ti6 1.972539 1_555
O14 Ti9 2.043067 1_555
O15 Ti2 1.899173 1_555
O15 Ti4 1.983164 1_555
O16 Ti5 1.942030 1_566
O16 Ti0 2.078221 1_555
O17 Ti1 1.970466 1_555
O17 Ti3 2.005745 1_655
O18 Ti1 1.970466 1_555
O18 Ti5 2.005729 1_555
O19 Ti3 1.942030 1_555
O19 Ti2 2.078221 1_565
O20 Ti0 1.899173 1_555
O20 Ti4 1.983180 1_455
O21 Ti6 1.972539 1_545
O21 Ti10 2.043080 1_655
O22 Ti11 1.979443 1_555
O22 Ti7 2.039825 1_554
O23 Ti9 1.929203 1_555
O23 Ti8 1.933037 1_555
O24 Ti10 1.899173 1_555
O24 Ti4 1.983163 1_455
O25 Ti11 1.970466 1_555
O25 Ti5 2.005737 1_565
O26 Ti3 1.942038 1_555
O26 Ti9 2.078221 1_555
O27 Ti6 1.979455 1_555
O27 Ti2 2.039817 1_565
O28 Ti7 1.929203 1_555
O28 Ti0 1.933046 1_555
O29 Ti1 1.972539 1_555
O29 Ti8 2.043067 1_655
O30 Ti1 1.972539 1_555
O30 Ti7 2.043073 1_554
O31 Ti8 1.929203 1_555
O31 Ti2 1.933046 1_555
O32 Ti6 1.979449 1_455
O32 Ti0 2.039817 1_555
O33 Ti5 1.942038 1_556
O33 Ti10 2.078221 1_555
O34 Ti11 1.970466 1_555
O34 Ti3 2.005728 1_655
O35 Ti9 1.899173 1_555
O35 Ti4 1.983173 1_555
