# generated using pymatgen
data_RhN3Cl6O
_symmetry_space_group_name_H-M   'P 1'
_cell_length_a   8.25544200
_cell_length_b   13.90115300
_cell_length_c   14.84866300
_cell_angle_alpha   90.00000000
_cell_angle_beta   90.00000000
_cell_angle_gamma   90.00000000
_symmetry_Int_Tables_number   1
_chemical_formula_structural   RhN3Cl6O
_chemical_formula_sum   'Rh4 N12 Cl24 O4'
_cell_volume   1704.03497618
_cell_formula_units_Z   4
loop_
 _symmetry_equiv_pos_site_id
 _symmetry_equiv_pos_as_xyz
  1  'x, y, z'
loop_
 _atom_site_type_symbol
 _atom_site_label
 _atom_site_symmetry_multiplicity
 _atom_site_fract_x
 _atom_site_fract_y
 _atom_site_fract_z
 _atom_site_occupancy
  Rh  Rh0  1  0.25000000  0.34751600  0.50823400  1
  Rh  Rh1  1  0.25000000  0.84751600  0.99176600  1
  Rh  Rh2  1  0.75000000  0.65248400  0.49176600  1
  Rh  Rh3  1  0.75000000  0.15248400  0.00823400  1
  N  N0  1  0.25000000  0.39707600  0.00226300  1
  N  N1  1  0.25000000  0.89707600  0.49773700  1
  N  N2  1  0.75000000  0.60292400  0.99773700  1
  N  N3  1  0.75000000  0.10292400  0.50226300  1
  N  N4  1  0.25000000  0.18264100  0.20920600  1
  N  N5  1  0.25000000  0.68264100  0.29079400  1
  N  N6  1  0.75000000  0.81735900  0.79079400  1
  N  N7  1  0.75000000  0.31735900  0.70920600  1
  N  N8  1  0.25000000  0.56815800  0.75261700  1
  N  N9  1  0.25000000  0.06815800  0.74738300  1
  N  N10  1  0.75000000  0.43184200  0.24738300  1
  N  N11  1  0.75000000  0.93184200  0.25261700  1
  Cl  Cl0  1  0.25000000  0.36255900  0.89912400  1
  Cl  Cl1  1  0.25000000  0.86255900  0.60087600  1
  Cl  Cl2  1  0.75000000  0.63744100  0.10087600  1
  Cl  Cl3  1  0.75000000  0.13744100  0.39912400  1
  Cl  Cl4  1  0.25000000  0.10714100  0.29066200  1
  Cl  Cl5  1  0.25000000  0.60714100  0.20933800  1
  Cl  Cl6  1  0.75000000  0.89285900  0.70933800  1
  Cl  Cl7  1  0.75000000  0.39285900  0.79066200  1
  Cl  Cl8  1  0.47234300  0.37452100  0.58469300  1
  Cl  Cl9  1  0.02765700  0.87452100  0.91530700  1
  Cl  Cl10  1  0.97234300  0.62547900  0.41530700  1
  Cl  Cl11  1  0.52765700  0.12547900  0.08469300  1
  Cl  Cl12  1  0.52765700  0.62547900  0.41530700  1
  Cl  Cl13  1  0.97234300  0.12547900  0.08469300  1
  Cl  Cl14  1  0.02765700  0.37452100  0.58469300  1
  Cl  Cl15  1  0.47234300  0.87452100  0.91530700  1
  Cl  Cl16  1  0.42044400  0.12863500  0.71578000  1
  Cl  Cl17  1  0.07955600  0.62863500  0.78422000  1
  Cl  Cl18  1  0.92044400  0.87136500  0.28422000  1
  Cl  Cl19  1  0.57955600  0.37136500  0.21578000  1
  Cl  Cl20  1  0.57955600  0.87136500  0.28422000  1
  Cl  Cl21  1  0.92044400  0.37136500  0.21578000  1
  Cl  Cl22  1  0.07955600  0.12863500  0.71578000  1
  Cl  Cl23  1  0.42044400  0.62863500  0.78422000  1
  O  O0  1  0.25000000  0.30661900  0.40094500  1
  O  O1  1  0.25000000  0.80661900  0.09905500  1
  O  O2  1  0.75000000  0.69338100  0.59905500  1
  O  O3  1  0.75000000  0.19338100  0.90094500  1
loop_
_geom_bond_atom_site_label_1
_geom_bond_atom_site_label_2
_geom_bond_distance
_geom_bond_site_symmetry_2
Cl0 N0 1.604884 1_556
Cl1 N1 1.604884 1_555
Cl2 N2 1.604884 1_554
Cl3 N3 1.604884 1_555
Cl4 N4 1.601390 1_555
Cl5 N5 1.601390 1_555
Cl6 N6 1.601390 1_555
Cl7 N7 1.601390 1_555
Cl8 Rh0 2.190678 1_555
Cl9 Rh1 2.190678 1_555
Cl10 Rh2 2.190678 1_555
Cl11 Rh3 2.190678 1_555
Cl12 Rh2 2.190678 1_555
Cl13 Rh3 2.190678 1_555
Cl14 Rh0 2.190678 1_555
Cl15 Rh1 2.190678 1_555
Cl16 N9 1.704960 1_555
Cl17 N8 1.704960 1_555
Cl18 N11 1.704960 1_555
Cl19 N10 1.704960 1_555
Cl20 N11 1.704960 1_555
Cl21 N10 1.704960 1_555
Cl22 N9 1.704960 1_555
Cl23 N8 1.704960 1_555
O0 Rh0 1.691500 1_555
O1 Rh1 1.691500 1_554
O2 Rh2 1.691500 1_555
O3 Rh3 1.691500 1_556
