# generated using pymatgen
data_Mo3W(SeS)4
_symmetry_space_group_name_H-M   'P 1'
_cell_length_a   3.25674037
_cell_length_b   3.25674037
_cell_length_c   36.86892000
_cell_angle_alpha   90.00000000
_cell_angle_beta   90.00000000
_cell_angle_gamma   120.00000750
_symmetry_Int_Tables_number   1
_chemical_formula_structural   Mo3W(SeS)4
_chemical_formula_sum   'Mo3 W1 Se4 S4'
_cell_volume   338.65484243
_cell_formula_units_Z   1
loop_
 _symmetry_equiv_pos_site_id
 _symmetry_equiv_pos_as_xyz
  1  'x, y, z'
loop_
 _atom_site_type_symbol
 _atom_site_label
 _atom_site_symmetry_multiplicity
 _atom_site_fract_x
 _atom_site_fract_y
 _atom_site_fract_z
 _atom_site_occupancy
  Mo  Mo0  1  0.33333300  0.66666700  0.09389800  1
  Mo  Mo1  1  0.33333300  0.66666700  0.46962600  1
  Mo  Mo2  1  0.66666700  0.33333300  0.28180400  1
  W  W0  1  0.66666700  0.33333300  0.65754300  1
  Se  Se0  1  0.33333300  0.66666700  0.70387200  1
  Se  Se1  1  0.66666700  0.33333300  0.04788600  1
  Se  Se2  1  0.66666700  0.33333300  0.13996000  1
  Se  Se3  1  0.33333300  0.66666700  0.61121900  1
  S  S0  1  0.33333300  0.66666700  0.32366000  1
  S  S1  1  0.66666700  0.33333300  0.42781900  1
  S  S2  1  0.66666700  0.33333300  0.51150800  1
  S  S3  1  0.33333300  0.66666700  0.23995300  1
loop_
_geom_bond_atom_site_label_1
_geom_bond_atom_site_label_2
_geom_bond_distance
_geom_bond_site_symmetry_2
Mo0 Se1 2.532442 1_455
Mo0 Se1 2.532442 1_565
Mo0 Se1 2.532446 1_555
Mo0 Se2 2.533677 1_455
Mo0 Se2 2.533677 1_565
Mo0 Se2 2.533681 1_555
Mo1 S1 2.431315 1_455
Mo1 S1 2.431315 1_565
Mo1 S1 2.431320 1_555
Mo1 S2 2.433069 1_455
Mo1 S2 2.433069 1_565
Mo1 S2 2.433074 1_555
Mo2 S3 2.432344 1_545
Mo2 S3 2.432344 1_655
Mo2 S3 2.432349 1_555
Mo2 S0 2.432461 1_545
Mo2 S0 2.432461 1_655
Mo2 S0 2.432466 1_555
Se0 W0 2.540286 1_455
Se0 W0 2.540286 1_565
Se0 W0 2.540290 1_555
Se3 W0 2.540162 1_455
Se3 W0 2.540162 1_565
Se3 W0 2.540166 1_555
