# generated using pymatgen
data_BaMgSi
_symmetry_space_group_name_H-M   'P 1'
_cell_length_a   4.78976200
_cell_length_b   8.18241600
_cell_length_c   8.68870000
_cell_angle_alpha   90.00000000
_cell_angle_beta   90.00000000
_cell_angle_gamma   90.00000000
_symmetry_Int_Tables_number   1
_chemical_formula_structural   BaMgSi
_chemical_formula_sum   'Ba4 Mg4 Si4'
_cell_volume   340.52601183
_cell_formula_units_Z   4
loop_
 _symmetry_equiv_pos_site_id
 _symmetry_equiv_pos_as_xyz
  1  'x, y, z'
loop_
 _atom_site_type_symbol
 _atom_site_label
 _atom_site_symmetry_multiplicity
 _atom_site_fract_x
 _atom_site_fract_y
 _atom_site_fract_z
 _atom_site_occupancy
  Ba  Ba0  1  0.25000000  0.51462300  0.31854200  1
  Ba  Ba1  1  0.25000000  0.01462300  0.18145800  1
  Ba  Ba2  1  0.75000000  0.48537700  0.68145800  1
  Ba  Ba3  1  0.75000000  0.98537700  0.81854200  1
  Mg  Mg0  1  0.25000000  0.63947700  0.93680800  1
  Mg  Mg1  1  0.25000000  0.13947700  0.56319200  1
  Mg  Mg2  1  0.75000000  0.36052300  0.06319200  1
  Mg  Mg3  1  0.75000000  0.86052300  0.43680800  1
  Si  Si0  1  0.25000000  0.29571100  0.89292400  1
  Si  Si1  1  0.25000000  0.79571100  0.60707600  1
  Si  Si2  1  0.75000000  0.70428900  0.10707600  1
  Si  Si3  1  0.75000000  0.20428900  0.39292400  1
loop_
_geom_bond_atom_site_label_1
_geom_bond_atom_site_label_2
_geom_bond_distance
_geom_bond_site_symmetry_2
Ba0 Si2 3.394089 1_455
Ba0 Si2 3.394089 1_555
Ba0 Si1 3.402187 1_555
Ba0 Mg0 3.470542 1_554
Ba0 Mg2 3.499686 1_455
Ba0 Mg2 3.499686 1_555
Ba0 Si3 3.549801 1_455
Ba0 Si3 3.549801 1_555
Ba0 Mg1 3.733766 1_555
Ba0 Mg3 3.847331 1_555
Ba0 Mg3 3.847331 1_455
Ba1 Si3 3.394089 1_455
Ba1 Si3 3.394089 1_555
Ba1 Si0 3.402187 1_554
Ba1 Mg1 3.470542 1_555
Ba1 Mg3 3.499686 1_545
Ba1 Mg3 3.499686 1_445
Ba1 Si2 3.549801 1_445
Ba1 Si2 3.549801 1_545
Ba1 Mg0 3.733766 1_544
Ba1 Mg2 3.847331 1_455
Ba1 Mg2 3.847331 1_555
Ba2 Si0 3.394089 1_655
Ba2 Si0 3.394089 1_555
Ba2 Si3 3.402187 1_555
Ba2 Mg2 3.470542 1_556
Ba2 Mg0 3.499686 1_555
Ba2 Mg0 3.499686 1_655
Ba2 Si1 3.549801 1_655
Ba2 Si1 3.549801 1_555
Ba2 Mg3 3.733766 1_555
Ba2 Mg1 3.847331 1_655
Ba2 Mg1 3.847331 1_555
Ba3 Si1 3.394089 1_555
Ba3 Si1 3.394089 1_655
Ba3 Si2 3.402187 1_556
Ba3 Mg3 3.470542 1_555
Ba3 Mg1 3.499686 1_665
Ba3 Mg1 3.499686 1_565
Ba3 Si0 3.549801 1_565
Ba3 Si0 3.549801 1_665
Ba3 Mg2 3.733766 1_566
Ba3 Mg0 3.847331 1_555
Ba3 Mg0 3.847331 1_655
Mg0 Si0 2.838562 1_555
Mg0 Si2 2.864496 1_556
Mg0 Si2 2.864496 1_456
Mg0 Si1 3.137217 1_555
Mg1 Si1 2.838562 1_545
Mg1 Si3 2.864496 1_455
Mg1 Si3 2.864496 1_555
Mg1 Si0 3.137217 1_555
Mg2 Si2 2.838562 1_555
Mg2 Si0 2.864496 1_654
Mg2 Si0 2.864496 1_554
Mg2 Si3 3.137217 1_555
Mg3 Si3 2.838562 1_565
Mg3 Si1 2.864496 1_555
Mg3 Si1 2.864496 1_655
Mg3 Si2 3.137217 1_555
