# generated using pymatgen
data_Sr7HfN6
_symmetry_space_group_name_H-M   'P 1'
_cell_length_a   12.26885400
_cell_length_b   6.80008200
_cell_length_c   13.90383600
_cell_angle_alpha   90.00000000
_cell_angle_beta   90.00000000
_cell_angle_gamma   90.00000000
_symmetry_Int_Tables_number   1
_chemical_formula_structural   Sr7HfN6
_chemical_formula_sum   'Sr28 Hf4 N24'
_cell_volume   1159.98609858
_cell_formula_units_Z   4
loop_
 _symmetry_equiv_pos_site_id
 _symmetry_equiv_pos_as_xyz
  1  'x, y, z'
loop_
 _atom_site_type_symbol
 _atom_site_label
 _atom_site_symmetry_multiplicity
 _atom_site_fract_x
 _atom_site_fract_y
 _atom_site_fract_z
 _atom_site_occupancy
  Sr  Sr0  1  0.04027900  0.72646800  0.99174200  1
  Sr  Sr1  1  0.45972100  0.77353200  0.49174200  1
  Sr  Sr2  1  0.54027900  0.77353200  0.00825800  1
  Sr  Sr3  1  0.95972100  0.72646800  0.50825800  1
  Sr  Sr4  1  0.95972100  0.27353200  0.00825800  1
  Sr  Sr5  1  0.54027900  0.22646800  0.50825800  1
  Sr  Sr6  1  0.45972100  0.22646800  0.99174200  1
  Sr  Sr7  1  0.04027900  0.27353200  0.49174200  1
  Sr  Sr8  1  0.22837400  0.84868000  0.62951600  1
  Sr  Sr9  1  0.27162600  0.65132000  0.12951600  1
  Sr  Sr10  1  0.72837400  0.65132000  0.37048400  1
  Sr  Sr11  1  0.77162600  0.84868000  0.87048400  1
  Sr  Sr12  1  0.77162600  0.15132000  0.37048400  1
  Sr  Sr13  1  0.72837400  0.34868000  0.87048400  1
  Sr  Sr14  1  0.27162600  0.34868000  0.62951600  1
  Sr  Sr15  1  0.22837400  0.15132000  0.12951600  1
  Sr  Sr16  1  0.27991100  0.61578900  0.88174800  1
  Sr  Sr17  1  0.22008900  0.88421100  0.38174800  1
  Sr  Sr18  1  0.77991100  0.88421100  0.11825200  1
  Sr  Sr19  1  0.72008900  0.61578900  0.61825200  1
  Sr  Sr20  1  0.72008900  0.38421100  0.11825200  1
  Sr  Sr21  1  0.77991100  0.11578900  0.61825200  1
  Sr  Sr22  1  0.22008900  0.11578900  0.88174800  1
  Sr  Sr23  1  0.27991100  0.38421100  0.38174800  1
  Sr  Sr24  1  0.00000000  0.47504700  0.75000000  1
  Sr  Sr25  1  0.50000000  0.02495300  0.25000000  1
  Sr  Sr26  1  0.00000000  0.52495300  0.25000000  1
  Sr  Sr27  1  0.50000000  0.97504700  0.75000000  1
  Hf  Hf0  1  0.00000000  0.97460100  0.75000000  1
  Hf  Hf1  1  0.50000000  0.52539900  0.25000000  1
  Hf  Hf2  1  0.00000000  0.02539900  0.25000000  1
  Hf  Hf3  1  0.50000000  0.47460100  0.75000000  1
  N  N0  1  0.11616000  0.78866000  0.81210700  1
  N  N1  1  0.38384000  0.71134000  0.31210700  1
  N  N2  1  0.61616000  0.71134000  0.18789300  1
  N  N3  1  0.88384000  0.78866000  0.68789300  1
  N  N4  1  0.88384000  0.21134000  0.18789300  1
  N  N5  1  0.61616000  0.28866000  0.68789300  1
  N  N6  1  0.38384000  0.28866000  0.81210700  1
  N  N7  1  0.11616000  0.21134000  0.31210700  1
  N  N8  1  0.15972800  0.60070200  0.50334400  1
  N  N9  1  0.34027200  0.89929800  0.00334400  1
  N  N10  1  0.65972800  0.89929800  0.49665600  1
  N  N11  1  0.84027200  0.60070200  0.99665600  1
  N  N12  1  0.84027200  0.39929800  0.49665600  1
  N  N13  1  0.65972800  0.10070200  0.99665600  1
  N  N14  1  0.34027200  0.10070200  0.50334400  1
  N  N15  1  0.15972800  0.39929800  0.00334400  1
  N  N16  1  0.41243800  0.66003500  0.66100000  1
  N  N17  1  0.08756200  0.83996500  0.16100000  1
  N  N18  1  0.91243800  0.83996500  0.33900000  1
  N  N19  1  0.58756200  0.66003500  0.83900000  1
  N  N20  1  0.58756200  0.33996500  0.33900000  1
  N  N21  1  0.91243800  0.16003500  0.83900000  1
  N  N22  1  0.08756200  0.16003500  0.66100000  1
  N  N23  1  0.41243800  0.33996500  0.16100000  1
loop_
_geom_bond_atom_site_label_1
_geom_bond_atom_site_label_2
_geom_bond_distance
_geom_bond_site_symmetry_2
Hf0 N22 2.067701 1_565
Hf0 N21 2.067701 1_465
Hf0 N0 2.091763 1_555
Hf0 N3 2.091763 1_455
Hf1 N23 2.067701 1_555
Hf1 N20 2.067701 1_555
Hf1 N1 2.091763 1_555
Hf1 N2 2.091763 1_555
Hf2 N17 2.067701 1_545
Hf2 N18 2.067701 1_445
Hf2 N7 2.091763 1_555
Hf2 N4 2.091763 1_455
Hf3 N16 2.067701 1_555
Hf3 N19 2.067701 1_555
Hf3 N6 2.091763 1_555
Hf3 N5 2.091763 1_555
N0 Sr16 2.521047 1_555
N0 Sr0 2.698823 1_555
N0 Sr24 2.706416 1_555
N0 Sr22 2.740772 1_565
N0 Sr8 2.916686 1_555
N1 Sr17 2.521047 1_555
N1 Sr1 2.698823 1_555
N1 Sr25 2.706416 1_565
N1 Sr23 2.740772 1_555
N1 Sr9 2.916686 1_555
N2 Sr18 2.521047 1_555
N2 Sr2 2.698823 1_555
N2 Sr25 2.706416 1_565
N2 Sr20 2.740772 1_555
N2 Sr10 2.916686 1_555
N3 Sr19 2.521047 1_555
N3 Sr3 2.698823 1_555
N3 Sr24 2.706416 1_655
N3 Sr21 2.740772 1_565
N3 Sr11 2.916686 1_555
N4 Sr20 2.521047 1_555
N4 Sr4 2.698823 1_555
N4 Sr26 2.706416 1_655
N4 Sr18 2.740772 1_545
N4 Sr12 2.916686 1_555
N5 Sr21 2.521047 1_555
N5 Sr5 2.698823 1_555
N5 Sr27 2.706416 1_545
N5 Sr19 2.740772 1_555
N5 Sr13 2.916686 1_555
N6 Sr22 2.521047 1_555
N6 Sr6 2.698823 1_555
N6 Sr27 2.706416 1_545
N6 Sr16 2.740772 1_555
N6 Sr14 2.916686 1_555
N7 Sr23 2.521047 1_555
N7 Sr7 2.698823 1_555
N7 Sr26 2.706416 1_555
N7 Sr17 2.740772 1_545
N7 Sr15 2.916686 1_555
N8 Sr8 2.574937 1_555
N8 Sr3 2.599515 1_455
N8 Sr7 2.668966 1_555
N8 Sr17 2.668983 1_555
N8 Sr23 2.683229 1_555
N8 Sr14 2.810558 1_555
N9 Sr9 2.574937 1_555
N9 Sr2 2.599515 1_555
N9 Sr6 2.668966 1_564
N9 Sr16 2.668983 1_554
N9 Sr22 2.683229 1_564
N9 Sr15 2.810558 1_565
N10 Sr10 2.574937 1_555
N10 Sr1 2.599515 1_555
N10 Sr5 2.668966 1_565
N10 Sr19 2.668983 1_555
N10 Sr21 2.683229 1_565
N10 Sr12 2.810558 1_565
N11 Sr11 2.574937 1_555
N11 Sr0 2.599515 1_655
N11 Sr4 2.668966 1_556
N11 Sr18 2.668983 1_556
N11 Sr20 2.683229 1_556
N11 Sr13 2.810558 1_555
N12 Sr12 2.574937 1_555
N12 Sr7 2.599515 1_655
N12 Sr3 2.668966 1_555
N12 Sr21 2.668983 1_555
N12 Sr19 2.683229 1_555
N12 Sr10 2.810558 1_555
N13 Sr13 2.574937 1_555
N13 Sr6 2.599515 1_555
N13 Sr2 2.668966 1_546
N13 Sr20 2.668983 1_556
N13 Sr18 2.683229 1_546
N13 Sr11 2.810558 1_545
N14 Sr14 2.574937 1_555
N14 Sr5 2.599515 1_555
N14 Sr1 2.668966 1_545
N14 Sr23 2.668983 1_555
N14 Sr17 2.683229 1_545
N14 Sr8 2.810558 1_545
N15 Sr15 2.574937 1_555
N15 Sr4 2.599515 1_455
N15 Sr0 2.668966 1_554
N15 Sr22 2.668983 1_554
N15 Sr16 2.683229 1_554
N15 Sr9 2.810558 1_555
N16 Sr1 2.543692 1_555
N16 Sr8 2.633803 1_555
N16 Sr27 2.697031 1_555
N16 Sr14 2.767478 1_555
N17 Sr0 2.543692 1_554
N17 Sr9 2.633803 1_555
N17 Sr26 2.697031 1_555
N17 Sr15 2.767478 1_565
N18 Sr3 2.543692 1_555
N18 Sr10 2.633803 1_555
N18 Sr26 2.697031 1_655
N18 Sr12 2.767478 1_565
N19 Sr2 2.543692 1_556
N19 Sr11 2.633803 1_555
N19 Sr27 2.697031 1_555
N19 Sr13 2.767478 1_555
N20 Sr5 2.543692 1_555
N20 Sr12 2.633803 1_555
N20 Sr25 2.697031 1_555
N20 Sr10 2.767478 1_555
N21 Sr4 2.543692 1_556
N21 Sr13 2.633803 1_555
N21 Sr24 2.697031 1_655
N21 Sr11 2.767478 1_545
N22 Sr7 2.543692 1_555
N22 Sr14 2.633803 1_555
N22 Sr24 2.697031 1_555
N22 Sr8 2.767478 1_545
N23 Sr6 2.543692 1_554
N23 Sr15 2.633803 1_555
N23 Sr25 2.697031 1_555
N23 Sr9 2.767478 1_555
