# generated using pymatgen
data_YB3H18C2S
_symmetry_space_group_name_H-M   'P 1'
_cell_length_a   5.52763400
_cell_length_b   22.54731600
_cell_length_c   8.27757552
_cell_angle_alpha   90.00000000
_cell_angle_beta   100.71660081
_cell_angle_gamma   90.00000000
_symmetry_Int_Tables_number   1
_chemical_formula_structural   YB3H18C2S
_chemical_formula_sum   'Y4 B12 H72 C8 S4'
_cell_volume   1013.66838901
_cell_formula_units_Z   4
loop_
 _symmetry_equiv_pos_site_id
 _symmetry_equiv_pos_as_xyz
  1  'x, y, z'
loop_
 _atom_site_type_symbol
 _atom_site_label
 _atom_site_symmetry_multiplicity
 _atom_site_fract_x
 _atom_site_fract_y
 _atom_site_fract_z
 _atom_site_occupancy
  Y  Y0  1  0.67645000  0.66629800  0.11810900  1
  Y  Y1  1  0.32355000  0.16629800  0.38189100  1
  Y  Y2  1  0.32355000  0.33370200  0.88189100  1
  Y  Y3  1  0.67645000  0.83370200  0.61810900  1
  B  B0  1  0.16335700  0.83306900  0.56814700  1
  B  B1  1  0.83664300  0.33306900  0.93185300  1
  B  B2  1  0.83664300  0.16693100  0.43185300  1
  B  B3  1  0.16335700  0.66693100  0.06814700  1
  B  B4  1  0.80433200  0.91837600  0.80621400  1
  B  B5  1  0.19566800  0.41837600  0.69378600  1
  B  B6  1  0.19566800  0.08162400  0.19378600  1
  B  B7  1  0.80433200  0.58162400  0.30621400  1
  B  B8  1  0.32022300  0.24495400  0.12277400  1
  B  B9  1  0.67977700  0.74495400  0.37722600  1
  B  B10  1  0.67977700  0.75504600  0.87722600  1
  B  B11  1  0.32022300  0.25504600  0.62277400  1
  H  H0  1  0.27278800  0.80409400  0.47790100  1
  H  H1  1  0.72721200  0.30409400  0.02209900  1
  H  H2  1  0.72721200  0.19590600  0.52209900  1
  H  H3  1  0.27278800  0.69590600  0.97790100  1
  H  H4  1  0.29754800  0.86748300  0.65914400  1
  H  H5  1  0.70245200  0.36748300  0.84085600  1
  H  H6  1  0.70245200  0.13251700  0.34085600  1
  H  H7  1  0.29754800  0.63251700  0.15914400  1
  H  H8  1  0.07708800  0.79734900  0.65431000  1
  H  H9  1  0.92291200  0.29734900  0.84569000  1
  H  H10  1  0.92291200  0.20265100  0.34569000  1
  H  H11  1  0.07708800  0.70265100  0.15431000  1
  H  H12  1  0.00293100  0.86302000  0.48119300  1
  H  H13  1  0.99706900  0.36302000  0.01880700  1
  H  H14  1  0.99706900  0.13698000  0.51880700  1
  H  H15  1  0.00293100  0.63698000  0.98119300  1
  H  H16  1  0.88960700  0.96171000  0.88071400  1
  H  H17  1  0.11039300  0.46171000  0.61928600  1
  H  H18  1  0.11039300  0.03829000  0.11928600  1
  H  H19  1  0.88960700  0.53829000  0.38071400  1
  H  H20  1  0.96316700  0.87958900  0.80574900  1
  H  H21  1  0.03683300  0.37958900  0.69425100  1
  H  H22  1  0.03683300  0.12041100  0.19425100  1
  H  H23  1  0.96316700  0.62041100  0.30574900  1
  H  H24  1  0.72419000  0.93121200  0.65956300  1
  H  H25  1  0.27581000  0.43121200  0.84043700  1
  H  H26  1  0.27581000  0.06878800  0.34043700  1
  H  H27  1  0.72419000  0.56878800  0.15956300  1
  H  H28  1  0.63178600  0.89499100  0.85801800  1
  H  H29  1  0.36821400  0.39499100  0.64198200  1
  H  H30  1  0.36821400  0.10500900  0.14198200  1
  H  H31  1  0.63178600  0.60500900  0.35801800  1
  H  H32  1  0.13577300  0.23365400  0.18033000  1
  H  H33  1  0.86422700  0.73365400  0.31967000  1
  H  H34  1  0.86422700  0.76634600  0.81967000  1
  H  H35  1  0.13577300  0.26634600  0.68033000  1
  H  H36  1  0.36969100  0.29754200  0.15090600  1
  H  H37  1  0.63030900  0.79754200  0.34909400  1
  H  H38  1  0.63030900  0.70245800  0.84909400  1
  H  H39  1  0.36969100  0.20245800  0.65090600  1
  H  H40  1  0.27393400  0.23329800  0.97518600  1
  H  H41  1  0.72606600  0.73329800  0.52481400  1
  H  H42  1  0.72606600  0.76670200  0.02481400  1
  H  H43  1  0.27393400  0.26670200  0.47518600  1
  H  H44  1  0.50190300  0.21577600  0.18531800  1
  H  H45  1  0.49809700  0.71577600  0.31468200  1
  H  H46  1  0.49809700  0.78422400  0.81468200  1
  H  H47  1  0.50190300  0.28422400  0.68531800  1
  H  H48  1  0.82221000  0.98627700  0.41922200  1
  H  H49  1  0.17779000  0.48627700  0.08077800  1
  H  H50  1  0.17779000  0.01372300  0.58077800  1
  H  H51  1  0.82221000  0.51372300  0.91922200  1
  H  H52  1  0.86432000  0.93692500  0.25669900  1
  H  H53  1  0.13568000  0.43692500  0.24330100  1
  H  H54  1  0.13568000  0.06307500  0.74330100  1
  H  H55  1  0.86432000  0.56307500  0.75669900  1
  H  H56  1  0.65353300  0.99831700  0.21610600  1
  H  H57  1  0.34646700  0.49831700  0.28389400  1
  H  H58  1  0.34646700  0.00168300  0.78389400  1
  H  H59  1  0.65353300  0.50168300  0.71610600  1
  H  H60  1  0.21712400  0.85638100  0.18130600  1
  H  H61  1  0.78287600  0.35638100  0.31869400  1
  H  H62  1  0.78287600  0.14361900  0.81869400  1
  H  H63  1  0.21712400  0.64361900  0.68130600  1
  H  H64  1  0.28557500  0.92170700  0.07526900  1
  H  H65  1  0.71442500  0.42170700  0.42473100  1
  H  H66  1  0.71442500  0.07829300  0.92473100  1
  H  H67  1  0.28557500  0.57829300  0.57526900  1
  H  H68  1  0.50697300  0.86231800  0.11523700  1
  H  H69  1  0.49302700  0.36231800  0.38476300  1
  H  H70  1  0.49302700  0.13768200  0.88476300  1
  H  H71  1  0.50697300  0.63768200  0.61523700  1
  C  C0  1  0.73139800  0.96444600  0.30593900  1
  C  C1  1  0.26860200  0.46444600  0.19406100  1
  C  C2  1  0.26860200  0.03555400  0.69406100  1
  C  C3  1  0.73139800  0.53555400  0.80593900  1
  C  C4  1  0.36348300  0.88693300  0.16233200  1
  C  C5  1  0.63651700  0.38693300  0.33766800  1
  C  C6  1  0.63651700  0.11306700  0.83766800  1
  C  C7  1  0.36348300  0.61306700  0.66233200  1
  S  S0  1  0.48476500  0.92041100  0.35876500  1
  S  S1  1  0.51523500  0.42041100  0.14123500  1
  S  S2  1  0.51523500  0.07958900  0.64123500  1
  S  S3  1  0.48476500  0.57958900  0.85876500  1
loop_
_geom_bond_atom_site_label_1
_geom_bond_atom_site_label_2
_geom_bond_distance
_geom_bond_site_symmetry_2
B0 H8 1.229318 1_555
B0 H4 1.229580 1_555
B0 H0 1.232394 1_555
B0 H12 1.234145 1_555
B1 H9 1.229318 1_555
B1 H5 1.229580 1_555
B1 H1 1.232394 1_556
B1 H13 1.234145 1_556
B2 H10 1.229318 1_555
B2 H6 1.229580 1_555
B2 H2 1.232394 1_555
B2 H14 1.234145 1_555
B3 H11 1.229318 1_555
B3 H7 1.229580 1_555
B3 H3 1.232394 1_554
B3 H15 1.234145 1_554
B4 H16 1.203758 1_555
B4 H28 1.234372 1_555
B4 H20 1.239737 1_555
B4 H24 1.246436 1_555
B5 H17 1.203758 1_555
B5 H29 1.234372 1_555
B5 H21 1.239737 1_555
B5 H25 1.246436 1_555
B6 H18 1.203758 1_555
B6 H30 1.234372 1_555
B6 H22 1.239737 1_555
B6 H26 1.246436 1_555
B7 H19 1.203758 1_555
B7 H31 1.234372 1_555
B7 H23 1.239737 1_555
B7 H27 1.246436 1_555
B8 H40 1.229132 1_554
B8 H36 1.229326 1_555
B8 H32 1.229664 1_555
B8 H44 1.231268 1_555
B9 H41 1.229132 1_555
B9 H37 1.229326 1_555
B9 H33 1.229664 1_555
B9 H45 1.231268 1_555
B10 H42 1.229132 1_556
B10 H38 1.229326 1_555
B10 H34 1.229664 1_555
B10 H46 1.231268 1_555
B11 H43 1.229132 1_555
B11 H39 1.229326 1_555
B11 H35 1.229664 1_555
B11 H47 1.231268 1_555
H0 Y3 2.410024 1_555
H1 Y2 2.410024 1_554
H2 Y1 2.410024 1_555
H3 Y0 2.410024 1_556
H4 Y3 2.312302 1_555
H5 Y2 2.312302 1_555
H6 Y1 2.312302 1_555
H7 Y0 2.312302 1_555
H8 Y3 2.327919 1_455
H9 Y2 2.327919 1_655
H10 Y1 2.327919 1_655
H11 Y0 2.327919 1_455
H12 Y3 2.395599 1_455
H13 Y2 2.395599 1_654
H14 Y1 2.395599 1_655
H15 Y0 2.395599 1_456
H20 Y3 2.253712 1_555
H21 Y2 2.253712 1_555
H22 Y1 2.253712 1_555
H23 Y0 2.253712 1_555
H24 Y3 2.233271 1_555
H25 Y2 2.233271 1_555
H26 Y1 2.233271 1_555
H27 Y0 2.233271 1_555
H28 Y3 2.469130 1_555
H29 Y2 2.469130 1_555
H30 Y1 2.469130 1_555
H31 Y0 2.469130 1_555
H32 Y1 2.350199 1_555
H33 Y0 2.350199 1_555
H34 Y3 2.350199 1_555
H35 Y2 2.350199 1_555
H36 Y2 2.340334 1_554
H37 Y3 2.340334 1_555
H38 Y0 2.340334 1_556
H39 Y1 2.340334 1_555
H40 Y2 2.423910 1_555
H41 Y3 2.423910 1_555
H42 Y0 2.423910 1_555
H43 Y1 2.423910 1_555
H44 Y1 2.336813 1_555
H45 Y0 2.336813 1_555
H46 Y3 2.336813 1_555
H47 Y2 2.336813 1_555
C0 H48 1.094765 1_555
C0 H56 1.096541 1_555
C0 H52 1.096541 1_555
C0 S0 1.804794 1_555
C1 H49 1.094765 1_555
C1 H57 1.096541 1_555
C1 H53 1.096541 1_555
C1 S1 1.804794 1_555
C2 H50 1.094765 1_555
C2 H58 1.096541 1_555
C2 H54 1.096541 1_555
C2 S2 1.804794 1_555
C3 H51 1.094765 1_555
C3 H59 1.096541 1_555
C3 H55 1.096541 1_555
C3 S3 1.804794 1_555
C4 H60 1.095888 1_555
C4 H68 1.097311 1_555
C4 H64 1.097339 1_555
C4 S0 1.804900 1_555
C5 H61 1.095888 1_555
C5 H69 1.097311 1_555
C5 H65 1.097339 1_555
C5 S1 1.804900 1_555
C6 H62 1.095888 1_555
C6 H70 1.097311 1_555
C6 H66 1.097339 1_555
C6 S2 1.804900 1_555
C7 H63 1.095888 1_555
C7 H71 1.097311 1_555
C7 H67 1.097339 1_555
C7 S3 1.804900 1_555
S0 Y3 2.950843 1_555
S1 Y2 2.950843 1_554
S2 Y1 2.950843 1_555
S3 Y0 2.950843 1_556
