# generated using pymatgen
data_Mg2Fe7O12
_symmetry_space_group_name_H-M   'P 1'
_cell_length_a   6.04159775
_cell_length_b   6.04159775
_cell_length_c   13.50776526
_cell_angle_alpha   77.16152753
_cell_angle_beta   77.16152753
_cell_angle_gamma   89.77493708
_symmetry_Int_Tables_number   1
_chemical_formula_structural   Mg2Fe7O12
_chemical_formula_sum   'Mg4 Fe14 O24'
_cell_volume   468.16595430
_cell_formula_units_Z   2
loop_
 _symmetry_equiv_pos_site_id
 _symmetry_equiv_pos_as_xyz
  1  'x, y, z'
loop_
 _atom_site_type_symbol
 _atom_site_label
 _atom_site_symmetry_multiplicity
 _atom_site_fract_x
 _atom_site_fract_y
 _atom_site_fract_z
 _atom_site_occupancy
  Mg  Mg0  1  0.16684200  0.66625100  0.66624800  1
  Mg  Mg1  1  0.83315800  0.33374900  0.33375200  1
  Mg  Mg2  1  0.66625100  0.16684200  0.16624800  1
  Mg  Mg3  1  0.33374900  0.83315800  0.83375200  1
  Fe  Fe0  1  0.62843400  0.37156600  0.75000000  1
  Fe  Fe1  1  0.29865000  0.03778000  0.41526400  1
  Fe  Fe2  1  0.96222000  0.70135000  0.08473600  1
  Fe  Fe3  1  0.37156600  0.62843400  0.25000000  1
  Fe  Fe4  1  0.03778000  0.29865000  0.91526400  1
  Fe  Fe5  1  0.70135000  0.96222000  0.58473600  1
  Fe  Fe6  1  0.50000000  0.00000000  0.00000000  1
  Fe  Fe7  1  0.16792100  0.16493500  0.66683100  1
  Fe  Fe8  1  0.83207900  0.83506500  0.33316900  1
  Fe  Fe9  1  0.50000000  0.50000000  0.00000000  1
  Fe  Fe10  1  0.00000000  0.50000000  0.50000000  1
  Fe  Fe11  1  0.50000000  0.50000000  0.50000000  1
  Fe  Fe12  1  0.16493500  0.16792100  0.16683100  1
  Fe  Fe13  1  0.83506500  0.83207900  0.83316900  1
  O  O0  1  0.25420300  0.25480600  0.50527200  1
  O  O1  1  0.91884600  0.92609300  0.17180700  1
  O  O2  1  0.58471500  0.59270800  0.83904600  1
  O  O3  1  0.25940000  0.73784800  0.50301900  1
  O  O4  1  0.91949800  0.39824600  0.17069000  1
  O  O5  1  0.58753300  0.06664800  0.83372700  1
  O  O6  1  0.40729200  0.41528500  0.66095400  1
  O  O7  1  0.07390700  0.08115400  0.32819300  1
  O  O8  1  0.74519400  0.74579700  0.99472800  1
  O  O9  1  0.93335200  0.41246700  0.66627300  1
  O  O10  1  0.60175400  0.08050200  0.32931000  1
  O  O11  1  0.26215200  0.74060000  0.99698100  1
  O  O12  1  0.74579700  0.74519400  0.49472800  1
  O  O13  1  0.41528500  0.40729200  0.16095400  1
  O  O14  1  0.08115400  0.07390700  0.82819300  1
  O  O15  1  0.74060000  0.26215200  0.49698100  1
  O  O16  1  0.41246700  0.93335200  0.16627300  1
  O  O17  1  0.08050200  0.60175400  0.82931000  1
  O  O18  1  0.59270800  0.58471500  0.33904600  1
  O  O19  1  0.25480600  0.25420300  0.00527200  1
  O  O20  1  0.92609300  0.91884600  0.67180700  1
  O  O21  1  0.06664800  0.58753300  0.33372700  1
  O  O22  1  0.73784800  0.25940000  0.00301900  1
  O  O23  1  0.39824600  0.91949800  0.67069000  1
loop_
_geom_bond_atom_site_label_1
_geom_bond_atom_site_label_2
_geom_bond_distance
_geom_bond_site_symmetry_2
Mg0 O9 2.087434 1_455
Mg0 O17 2.094033 1_555
Mg0 O3 2.095552 1_555
Mg0 O23 2.096181 1_555
Mg0 O6 2.097413 1_555
Mg0 O20 2.105967 1_455
Mg1 O21 2.087434 1_655
Mg1 O4 2.094033 1_555
Mg1 O15 2.095552 1_555
Mg1 O10 2.096181 1_555
Mg1 O18 2.097413 1_555
Mg1 O7 2.105967 1_655
Mg2 O16 2.087434 1_545
Mg2 O10 2.094033 1_555
Mg2 O22 2.095552 1_555
Mg2 O4 2.096181 1_555
Mg2 O13 2.097413 1_555
Mg2 O1 2.105967 1_545
Mg3 O5 2.087434 1_565
Mg3 O23 2.094033 1_555
Mg3 O11 2.095552 1_555
Mg3 O17 2.096181 1_555
Mg3 O2 2.097413 1_555
Mg3 O14 2.105967 1_565
Fe0 O5 1.920232 1_555
Fe0 O9 1.920232 1_555
Fe0 O2 1.967680 1_555
Fe0 O6 1.967680 1_555
Fe1 O3 1.915416 1_545
Fe1 O10 1.921906 1_555
Fe1 O0 1.957062 1_555
Fe1 O7 1.966097 1_555
Fe2 O11 1.915416 1_654
Fe2 O4 1.921906 1_555
Fe2 O8 1.957062 1_554
Fe2 O1 1.966097 1_555
Fe3 O21 1.920232 1_555
Fe3 O16 1.920232 1_555
Fe3 O18 1.967680 1_555
Fe3 O13 1.967680 1_555
Fe4 O22 1.915416 1_456
Fe4 O17 1.921906 1_555
Fe4 O19 1.957062 1_556
Fe4 O14 1.966097 1_555
Fe5 O15 1.915416 1_565
Fe5 O23 1.921906 1_555
Fe5 O12 1.957062 1_555
Fe5 O20 1.966097 1_555
Fe6 O8 2.131201 1_544
Fe6 O19 2.131201 1_555
Fe6 O5 2.134979 1_554
Fe6 O16 2.134979 1_545
Fe6 O11 2.143549 1_544
Fe6 O22 2.143549 1_555
Fe7 O23 2.029665 1_545
Fe7 O9 2.056212 1_455
Fe7 O20 2.068482 1_445
Fe7 O14 2.071197 1_555
Fe7 O6 2.073222 1_555
Fe7 O0 2.073420 1_555
Fe8 O10 2.029665 1_565
Fe8 O21 2.056212 1_655
Fe8 O7 2.068482 1_665
Fe8 O1 2.071197 1_555
Fe8 O18 2.073222 1_555
Fe8 O12 2.073420 1_555
Fe9 O22 2.040305 1_555
Fe9 O11 2.040305 1_554
Fe9 O13 2.066174 1_555
Fe9 O2 2.066174 1_554
Fe9 O8 2.080423 1_554
Fe9 O19 2.080423 1_555
Fe10 O0 2.131201 1_555
Fe10 O12 2.131201 1_455
Fe10 O9 2.134979 1_455
Fe10 O21 2.134979 1_555
Fe10 O3 2.143549 1_555
Fe10 O15 2.143549 1_455
Fe11 O3 2.040305 1_555
Fe11 O15 2.040305 1_555
Fe11 O6 2.066174 1_555
Fe11 O18 2.066174 1_555
Fe11 O12 2.080423 1_555
Fe11 O0 2.080423 1_555
Fe12 O4 2.029665 1_455
Fe12 O16 2.056212 1_545
Fe12 O1 2.068482 1_445
Fe12 O7 2.071197 1_555
Fe12 O13 2.073222 1_555
Fe12 O19 2.073420 1_555
Fe13 O17 2.029665 1_655
Fe13 O5 2.056212 1_565
Fe13 O14 2.068482 1_665
Fe13 O20 2.071197 1_555
Fe13 O2 2.073222 1_555
Fe13 O8 2.073420 1_555
