# generated using pymatgen
data_Lu8In3Co
_symmetry_space_group_name_H-M   'P 1'
_cell_length_a   10.15019772
_cell_length_b   10.15019772
_cell_length_c   6.84951600
_cell_angle_alpha   90.00000000
_cell_angle_beta   90.00000000
_cell_angle_gamma   119.99999819
_symmetry_Int_Tables_number   1
_chemical_formula_structural   Lu8In3Co
_chemical_formula_sum   'Lu16 In6 Co2'
_cell_volume   611.13833766
_cell_formula_units_Z   2
loop_
 _symmetry_equiv_pos_site_id
 _symmetry_equiv_pos_as_xyz
  1  'x, y, z'
loop_
 _atom_site_type_symbol
 _atom_site_label
 _atom_site_symmetry_multiplicity
 _atom_site_fract_x
 _atom_site_fract_y
 _atom_site_fract_z
 _atom_site_occupancy
  Lu  Lu0  1  0.53339600  0.06679200  0.52305700  1
  Lu  Lu1  1  0.93320800  0.46660400  0.52305700  1
  Lu  Lu2  1  0.53339600  0.46660400  0.52305700  1
  Lu  Lu3  1  0.46660400  0.93320800  0.02305700  1
  Lu  Lu4  1  0.06679200  0.53339600  0.02305700  1
  Lu  Lu5  1  0.46660400  0.53339600  0.02305700  1
  Lu  Lu6  1  0.17887500  0.35775000  0.73098800  1
  Lu  Lu7  1  0.64225000  0.82112500  0.73098800  1
  Lu  Lu8  1  0.17887500  0.82112500  0.73098800  1
  Lu  Lu9  1  0.82112500  0.64225000  0.23098800  1
  Lu  Lu10  1  0.35775000  0.17887500  0.23098800  1
  Lu  Lu11  1  0.82112500  0.17887500  0.23098800  1
  Lu  Lu12  1  0.66666700  0.33333300  0.90907800  1
  Lu  Lu13  1  0.33333300  0.66666700  0.40907800  1
  Lu  Lu14  1  0.00000000  0.00000000  0.50491000  1
  Lu  Lu15  1  0.00000000  0.00000000  0.00491000  1
  In  In0  1  0.83648500  0.67297000  0.76907200  1
  In  In1  1  0.32703000  0.16351500  0.76907200  1
  In  In2  1  0.83648500  0.16351500  0.76907200  1
  In  In3  1  0.16351500  0.32703000  0.26907200  1
  In  In4  1  0.67297000  0.83648500  0.26907200  1
  In  In5  1  0.16351500  0.83648500  0.26907200  1
  Co  Co0  1  0.66666700  0.33333300  0.29450100  1
  Co  Co1  1  0.33333300  0.66666700  0.79450100  1
loop_
_geom_bond_atom_site_label_1
_geom_bond_atom_site_label_2
_geom_bond_distance
_geom_bond_site_symmetry_2
Lu0 Lu10 3.240865 1_555
Lu0 Lu11 3.240865 1_555
Lu0 Lu7 3.496027 1_545
Lu0 Lu8 3.496027 1_545
Lu0 Lu12 3.532790 1_555
Lu0 Lu13 3.602833 1_545
Lu0 Lu3 3.620473 1_546
Lu0 Lu3 3.620473 1_545
Lu1 Lu9 3.240865 1_555
Lu1 Lu11 3.240865 1_555
Lu1 Lu6 3.496027 1_655
Lu1 Lu8 3.496027 1_655
Lu1 Lu12 3.532790 1_555
Lu1 Lu13 3.602833 1_655
Lu1 Lu4 3.620473 1_656
Lu1 Lu4 3.620473 1_655
Lu2 Lu9 3.240865 1_555
Lu2 Lu7 3.496027 1_555
Lu2 Lu6 3.496027 1_555
Lu2 Lu5 3.620473 1_556
Lu2 Lu5 3.620473 1_555
Lu3 Lu7 3.240865 1_554
Lu3 Lu8 3.240865 1_554
Lu4 Lu6 3.240865 1_554
Lu4 Lu8 3.240865 1_554
Lu4 Lu9 3.496027 1_455
Lu5 Lu6 3.240865 1_554
Lu5 Lu7 3.240865 1_554
Lu5 Lu9 3.496027 1_555
Lu10 Lu2 3.240865 1_555
Lu10 Lu3 3.496027 1_545
Lu10 Lu5 3.496027 1_555
Lu10 Lu12 3.497935 1_554
Lu10 Lu15 3.505327 1_555
Lu10 Lu14 3.661918 1_555
Lu11 Lu4 3.496027 1_655
Lu11 Lu3 3.496027 1_545
Lu11 Lu12 3.497928 1_554
Lu11 Lu15 3.505327 1_655
Lu11 Lu14 3.661918 1_655
Lu12 Lu9 3.497935 1_556
Lu12 Lu2 3.532796 1_555
Lu12 Lu4 3.602833 1_656
Lu12 Lu3 3.602833 1_546
Lu12 Lu5 3.602841 1_556
Lu13 Lu8 3.497928 1_555
Lu13 Lu6 3.497935 1_555
Lu13 Lu7 3.497935 1_555
Lu13 Lu3 3.532790 1_555
Lu13 Lu4 3.532790 1_555
Lu13 Lu5 3.532796 1_555
Lu13 Lu2 3.602841 1_555
Lu14 Lu15 3.424758 1_556
Lu14 Lu15 3.424758 1_555
Lu14 Lu8 3.505327 1_545
Lu14 Lu7 3.505327 1_445
Lu14 Lu6 3.505327 1_555
Lu14 Lu9 3.661918 1_445
Lu15 Lu9 3.505327 1_445
Lu15 Lu8 3.661918 1_544
Lu15 Lu7 3.661918 1_444
Lu15 Lu6 3.661918 1_554
In0 Lu7 3.030042 1_555
In0 Lu8 3.030042 1_655
In0 Lu12 3.135756 1_555
In0 Lu9 3.175404 1_556
In0 Lu1 3.201153 1_555
In0 Lu2 3.201153 1_555
In0 Lu15 3.297476 1_666
In0 Lu14 3.396729 1_665
In0 Lu9 3.695494 1_555
In0 Lu4 3.716174 1_656
In0 Lu5 3.716174 1_556
In1 Lu6 3.030042 1_555
In1 Lu8 3.030042 1_545
In1 Lu12 3.135756 1_555
In1 Lu10 3.175404 1_556
In1 Lu0 3.201153 1_555
In1 Lu2 3.201153 1_555
In1 Lu15 3.297476 1_556
In1 Lu14 3.396729 1_555
In1 Lu10 3.695494 1_555
In1 Lu3 3.716174 1_546
In1 Lu5 3.716174 1_556
In2 Lu7 3.030042 1_545
In2 Lu6 3.030042 1_655
In2 Lu12 3.135748 1_555
In2 Lu11 3.175404 1_556
In2 Lu0 3.201153 1_555
In2 Lu1 3.201153 1_555
In2 Lu15 3.297476 1_656
In2 Lu14 3.396729 1_655
In2 Lu11 3.695494 1_555
In2 Lu4 3.716174 1_656
In2 Lu3 3.716174 1_546
In3 Lu10 3.030042 1_555
In3 Lu11 3.030042 1_455
In3 Lu13 3.135756 1_555
In3 Lu6 3.175404 1_555
In3 Lu4 3.201153 1_555
In3 Lu5 3.201153 1_555
In3 Lu14 3.297476 1_555
In3 Lu15 3.396729 1_555
In3 Lu6 3.695494 1_554
In3 Lu1 3.716174 1_455
In3 Lu2 3.716174 1_555
In4 Lu9 3.030042 1_555
In4 Lu11 3.030042 1_565
In4 Lu13 3.135756 1_555
In4 Lu7 3.175404 1_555
In4 Lu3 3.201153 1_555
In4 Lu5 3.201153 1_555
In4 Lu14 3.297476 1_665
In4 Lu15 3.396729 1_665
In4 Lu7 3.695494 1_554
In4 Lu0 3.716174 1_565
In4 Lu2 3.716174 1_555
In5 Lu9 3.030042 1_455
In5 Lu10 3.030042 1_565
In5 Lu13 3.135748 1_555
In5 Lu8 3.175404 1_555
In5 Lu4 3.201153 1_555
In5 Lu3 3.201153 1_555
In5 Lu14 3.297476 1_565
In5 Lu15 3.396729 1_565
In5 Lu8 3.695494 1_554
In5 Lu0 3.716174 1_565
In5 Lu1 3.716174 1_455
Co0 Lu12 2.639961 1_554
Co0 Lu11 2.750100 1_555
Co0 Lu10 2.750109 1_555
Co0 Lu9 2.750109 1_555
Co0 Lu1 2.817863 1_555
Co0 Lu0 2.817863 1_555
Co0 Lu2 2.817871 1_555
Co1 Lu13 2.639961 1_555
Co1 Lu8 2.750100 1_555
Co1 Lu6 2.750109 1_555
Co1 Lu7 2.750109 1_555
Co1 Lu3 2.817863 1_556
Co1 Lu4 2.817863 1_556
Co1 Lu5 2.817871 1_556
