# generated using pymatgen
data_Nd3(SnPd)5
_symmetry_space_group_name_H-M   'P 1'
_cell_length_a   9.07750826
_cell_length_b   9.07750826
_cell_length_c   14.33899665
_cell_angle_alpha   81.06578709
_cell_angle_beta   81.06578709
_cell_angle_gamma   29.19135742
_symmetry_Int_Tables_number   1
_chemical_formula_structural   Nd3(SnPd)5
_chemical_formula_sum   'Nd6 Sn10 Pd10'
_cell_volume   568.80597172
_cell_formula_units_Z   2
loop_
 _symmetry_equiv_pos_site_id
 _symmetry_equiv_pos_as_xyz
  1  'x, y, z'
loop_
 _atom_site_type_symbol
 _atom_site_label
 _atom_site_symmetry_multiplicity
 _atom_site_fract_x
 _atom_site_fract_y
 _atom_site_fract_z
 _atom_site_occupancy
  Nd  Nd0  1  0.36190864  0.36190864  0.37282348  1
  Nd  Nd1  1  0.63809136  0.63809136  0.62717652  1
  Nd  Nd2  1  0.39822693  0.39822693  0.71454074  1
  Nd  Nd3  1  0.60177307  0.60177307  0.28545926  1
  Nd  Nd4  1  0.63572801  0.63572801  0.91402241  1
  Nd  Nd5  1  0.36427199  0.36427199  0.08597759  1
  Sn  Sn0  1  0.03143882  0.03143882  0.77945359  1
  Sn  Sn1  1  0.96856118  0.96856118  0.22054641  1
  Sn  Sn2  1  0.14958481  0.14958481  0.44754535  1
  Sn  Sn3  1  0.85041519  0.85041519  0.55245465  1
  Sn  Sn4  1  0.20260617  0.20260617  0.76039617  1
  Sn  Sn5  1  0.79739383  0.79739383  0.23960383  1
  Sn  Sn6  1  0.84720057  0.84720057  0.90479355  1
  Sn  Sn7  1  0.15279943  0.15279943  0.09520645  1
  Sn  Sn8  1  0.50000000  0.50000000  0.50000000  1
  Sn  Sn9  1  -0.00000000  -0.00000000  0.00000000  1
  Pd  Pd0  1  0.46519811  0.46519811  0.88637282  1
  Pd  Pd1  1  0.53480189  0.53480189  0.11362718  1
  Pd  Pd2  1  0.21645112  0.21645112  0.25954857  1
  Pd  Pd3  1  0.78354888  0.78354888  0.74045143  1
  Pd  Pd4  1  0.26048582  0.26048582  0.56735107  1
  Pd  Pd5  1  0.73951418  0.73951418  0.43264893  1
  Pd  Pd6  1  0.26341669  0.26341669  0.92846500  1
  Pd  Pd7  1  0.73658331  0.73658331  0.07153500  1
  Pd  Pd8  1  0.00886351  0.00886351  0.59676598  1
  Pd  Pd9  1  0.99113649  0.99113649  0.40323402  1
loop_
_geom_bond_atom_site_label_1
_geom_bond_atom_site_label_2
_geom_bond_distance
_geom_bond_site_symmetry_2
Nd0 Pd4 3.059460 1_555
Nd0 Pd5 3.162363 1_455
Nd0 Pd5 3.162363 1_545
Nd0 Pd2 3.240576 1_555
Nd0 Sn8 3.260620 1_555
Nd0 Sn5 3.295655 1_545
Nd0 Sn5 3.295655 1_455
Nd0 Pd9 3.300812 1_455
Nd0 Pd9 3.300812 1_545
Nd0 Sn3 3.426497 1_455
Nd0 Sn3 3.426497 1_545
Nd0 Sn1 3.492598 1_455
Nd0 Sn1 3.492598 1_545
Nd1 Pd5 3.059460 1_555
Nd1 Pd4 3.162363 1_565
Nd1 Pd4 3.162363 1_655
Nd1 Pd3 3.240576 1_555
Nd1 Sn8 3.260620 1_555
Nd1 Sn4 3.295655 1_565
Nd1 Sn4 3.295655 1_655
Nd1 Pd8 3.300812 1_655
Nd1 Pd8 3.300812 1_565
Nd1 Sn2 3.426497 1_655
Nd1 Sn2 3.426497 1_565
Nd1 Sn0 3.492598 1_655
Nd1 Sn0 3.492598 1_565
Nd2 Pd0 2.895813 1_555
Nd2 Pd3 3.031472 1_545
Nd2 Pd3 3.031472 1_455
Nd2 Pd8 3.287755 1_565
Nd2 Pd8 3.287755 1_655
Nd2 Sn8 3.300805 1_555
Nd2 Sn4 3.393995 1_555
Nd2 Pd4 3.456889 1_555
Nd2 Sn3 3.459272 1_545
Nd2 Sn3 3.459272 1_455
Nd2 Sn0 3.503676 1_565
Nd2 Sn0 3.503676 1_655
Nd2 Pd6 3.561915 1_555
Nd2 Sn6 3.562803 1_455
Nd2 Sn6 3.562803 1_545
Nd3 Pd1 2.895813 1_555
Nd3 Pd2 3.031472 1_655
Nd3 Pd2 3.031472 1_565
Nd3 Pd9 3.287755 1_545
Nd3 Pd9 3.287755 1_455
Nd3 Sn8 3.300805 1_555
Nd3 Sn5 3.393995 1_555
Nd3 Pd5 3.456889 1_555
Nd3 Sn2 3.459272 1_655
Nd3 Sn2 3.459272 1_565
Nd3 Sn1 3.503676 1_455
Nd3 Sn1 3.503676 1_545
Nd3 Pd7 3.561915 1_555
Nd3 Sn7 3.562803 1_565
Nd3 Sn7 3.562803 1_655
Nd4 Pd0 3.084609 1_555
Nd4 Pd7 3.086326 1_556
Nd4 Pd1 3.115620 1_556
Nd4 Pd6 3.233790 1_565
Nd4 Pd6 3.233790 1_655
Nd4 Sn4 3.261141 1_565
Nd4 Sn4 3.261141 1_655
Nd4 Pd3 3.296142 1_555
Nd4 Sn9 3.390484 1_566
Nd4 Sn9 3.390484 1_656
Nd4 Sn0 3.667138 1_565
Nd4 Sn0 3.667138 1_655
Nd5 Pd1 3.084609 1_555
Nd5 Pd6 3.086326 1_554
Nd5 Pd0 3.115620 1_554
Nd5 Pd7 3.233790 1_455
Nd5 Pd7 3.233790 1_545
Nd5 Sn5 3.261141 1_545
Nd5 Sn5 3.261141 1_455
Nd5 Pd2 3.296142 1_555
Nd5 Sn9 3.390484 1_565
Nd5 Sn9 3.390484 1_655
Nd5 Sn1 3.667138 1_545
Nd5 Sn1 3.667138 1_455
Sn0 Sn4 2.975656 1_555
Sn0 Sn9 3.121749 1_556
Sn0 Sn6 3.440998 1_445
Sn1 Sn5 2.975656 1_555
Sn1 Sn9 3.121749 1_665
Sn1 Sn7 3.440998 1_665
Sn6 Sn9 3.201056 1_666
Sn7 Sn9 3.201056 1_555
Pd0 Sn0 2.892203 1_655
Pd0 Sn0 2.892203 1_565
Pd0 Sn9 2.929312 1_656
Pd0 Sn9 2.929312 1_566
Pd0 Sn6 3.069929 1_545
Pd0 Sn6 3.069929 1_455
Pd1 Sn1 2.892203 1_545
Pd1 Sn1 2.892203 1_455
Pd1 Sn9 2.929312 1_655
Pd1 Sn9 2.929312 1_565
Pd1 Sn7 3.069929 1_565
Pd1 Sn7 3.069929 1_655
Pd2 Sn5 2.684447 1_455
Pd2 Sn5 2.684447 1_545
Pd2 Sn2 2.762319 1_555
Pd2 Sn7 2.765776 1_555
Pd3 Sn4 2.684447 1_565
Pd3 Sn4 2.684447 1_655
Pd3 Sn3 2.762319 1_555
Pd3 Sn6 2.765776 1_555
Pd4 Sn3 2.768808 1_455
Pd4 Sn3 2.768808 1_545
Pd4 Sn4 2.791569 1_555
Pd4 Sn2 2.796760 1_555
Pd4 Pd5 3.054094 1_455
Pd4 Pd5 3.054094 1_545
Pd5 Sn2 2.768808 1_655
Pd5 Sn2 2.768808 1_565
Pd5 Sn5 2.791569 1_555
Pd5 Sn3 2.796760 1_555
Pd6 Sn6 2.711883 1_455
Pd6 Sn6 2.711883 1_545
Pd6 Sn4 2.788484 1_555
Pd6 Sn7 2.828790 1_556
Pd6 Pd7 3.058278 1_546
Pd6 Pd7 3.058278 1_456
Pd7 Sn7 2.711883 1_655
Pd7 Sn7 2.711883 1_565
Pd7 Sn5 2.788484 1_555
Pd7 Sn6 2.828790 1_554
Pd8 Sn8 2.692858 1_455
Pd8 Sn8 2.692858 1_545
Pd8 Sn0 2.711617 1_555
Pd8 Pd9 2.841712 1_445
Pd8 Sn3 2.953124 1_445
Pd8 Sn2 2.998806 1_555
Pd9 Sn8 2.692858 1_655
Pd9 Sn8 2.692858 1_565
Pd9 Sn1 2.711617 1_555
Pd9 Sn2 2.953124 1_665
Pd9 Sn3 2.998806 1_555
