# generated using pymatgen
data_Ba4SrHf5O15
_symmetry_space_group_name_H-M   'P 1'
_cell_length_a   12.58678889
_cell_length_b   12.58678889
_cell_length_c   12.58678938
_cell_angle_alpha   27.27458697
_cell_angle_beta   27.27458697
_cell_angle_gamma   27.27458265
_symmetry_Int_Tables_number   1
_chemical_formula_structural   Ba4SrHf5O15
_chemical_formula_sum   'Ba4 Sr1 Hf5 O15'
_cell_volume   369.49393146
_cell_formula_units_Z   1
loop_
 _symmetry_equiv_pos_site_id
 _symmetry_equiv_pos_as_xyz
  1  'x, y, z'
loop_
 _atom_site_type_symbol
 _atom_site_label
 _atom_site_symmetry_multiplicity
 _atom_site_fract_x
 _atom_site_fract_y
 _atom_site_fract_z
 _atom_site_occupancy
  Ba  Ba0  1  0.89984100  0.89984100  0.89984100  1
  Ba  Ba1  1  0.30002800  0.30002800  0.30002800  1
  Ba  Ba2  1  0.69997200  0.69997200  0.69997200  1
  Ba  Ba3  1  0.10015900  0.10015900  0.10015900  1
  Sr  Sr0  1  0.50000000  0.50000000  0.50000000  1
  Hf  Hf0  1  0.80023800  0.80023800  0.80023800  1
  Hf  Hf1  1  0.00000000  0.00000000  0.00000000  1
  Hf  Hf2  1  0.40030100  0.40030100  0.40030100  1
  Hf  Hf3  1  0.19976200  0.19976200  0.19976200  1
  Hf  Hf4  1  0.59969900  0.59969900  0.59969900  1
  O  O0  1  0.00000000  0.00000000  0.50000000  1
  O  O1  1  0.20013900  0.20013900  0.69984200  1
  O  O2  1  0.59962100  0.59962100  0.10227600  1
  O  O3  1  0.40037900  0.40037900  0.89772400  1
  O  O4  1  0.79986100  0.79986100  0.30015800  1
  O  O5  1  0.10227600  0.59962100  0.59962100  1
  O  O6  1  0.30015800  0.79986100  0.79986100  1
  O  O7  1  0.69984200  0.20013900  0.20013900  1
  O  O8  1  0.50000000  0.00000000  0.00000000  1
  O  O9  1  0.89772400  0.40037900  0.40037900  1
  O  O10  1  0.59962100  0.10227600  0.59962100  1
  O  O11  1  0.79986100  0.30015800  0.79986100  1
  O  O12  1  0.20013900  0.69984200  0.20013900  1
  O  O13  1  0.00000000  0.50000000  0.00000000  1
  O  O14  1  0.40037900  0.89772400  0.40037900  1
loop_
_geom_bond_atom_site_label_1
_geom_bond_atom_site_label_2
_geom_bond_distance
_geom_bond_site_symmetry_2
Ba0 O13 2.962275 1_656
Ba0 O8 2.962275 1_566
Ba0 O0 2.962276 1_665
Ba0 O3 2.967687 1_565
Ba0 O3 2.967687 1_655
Ba0 O14 2.967687 1_655
Ba0 O9 2.967687 1_565
Ba0 O9 2.967687 1_556
Ba0 O14 2.967687 1_556
Ba0 O6 2.971108 1_655
Ba0 O11 2.971108 1_565
Ba0 O4 2.971108 1_556
Ba1 O7 2.966758 1_555
Ba1 O12 2.966758 1_555
Ba1 O1 2.966759 1_555
Ba1 O4 2.967647 1_545
Ba1 O4 2.967647 1_455
Ba1 O11 2.967648 1_455
Ba1 O6 2.967648 1_545
Ba1 O11 2.967648 1_554
Ba1 O6 2.967648 1_554
Ba1 O9 2.988086 1_455
Ba1 O14 2.988086 1_545
Ba1 O3 2.988087 1_554
Ba2 O11 2.966758 1_555
Ba2 O6 2.966758 1_555
Ba2 O4 2.966759 1_555
Ba2 O1 2.967647 1_565
Ba2 O1 2.967647 1_655
Ba2 O7 2.967648 1_565
Ba2 O12 2.967648 1_655
Ba2 O12 2.967648 1_556
Ba2 O7 2.967648 1_556
Ba2 O10 2.988086 1_565
Ba2 O5 2.988086 1_655
Ba2 O2 2.988087 1_556
Ba3 O13 2.962275 1_555
Ba3 O8 2.962275 1_555
Ba3 O0 2.962276 1_555
Ba3 O2 2.967687 1_545
Ba3 O2 2.967687 1_455
Ba3 O10 2.967687 1_455
Ba3 O5 2.967687 1_545
Ba3 O10 2.967687 1_554
Ba3 O5 2.967687 1_554
Ba3 O12 2.971108 1_545
Ba3 O7 2.971108 1_455
Ba3 O1 2.971108 1_554
Hf0 O13 2.093231 1_656
Hf0 O8 2.093231 1_566
Hf0 O0 2.093231 1_665
Hf0 O10 2.100061 1_565
Hf0 O5 2.100061 1_655
Hf0 O2 2.100061 1_556
Hf1 O6 2.099881 1_544
Hf1 O11 2.099881 1_454
Hf1 O12 2.099881 1_545
Hf1 O7 2.099881 1_455
Hf1 O4 2.099881 1_445
Hf1 O1 2.099881 1_554
Hf2 O10 2.095112 1_555
Hf2 O5 2.095112 1_555
Hf2 O2 2.095112 1_555
Hf2 O7 2.102870 1_555
Hf2 O12 2.102870 1_555
Hf2 O1 2.102870 1_555
Hf3 O13 2.093231 1_555
Hf3 O8 2.093231 1_555
Hf3 O0 2.093231 1_555
Hf3 O14 2.100061 1_545
Hf3 O9 2.100061 1_455
Hf3 O3 2.100061 1_554
Hf4 O9 2.095112 1_555
Hf4 O14 2.095112 1_555
Hf4 O3 2.095112 1_555
Hf4 O11 2.102870 1_555
Hf4 O6 2.102870 1_555
Hf4 O4 2.102870 1_555
O0 Sr0 2.967646 1_545
O0 Sr0 2.967646 1_455
O2 Sr0 2.946728 1_555
O3 Sr0 2.946728 1_555
O5 Sr0 2.946728 1_555
O8 Sr0 2.967647 1_545
O8 Sr0 2.967647 1_554
O9 Sr0 2.946728 1_555
O10 Sr0 2.946728 1_555
O13 Sr0 2.967647 1_455
O13 Sr0 2.967647 1_554
O14 Sr0 2.946728 1_555
