# generated using pymatgen
data_Sr6Mg(Te4O11)2
_symmetry_space_group_name_H-M   'P 1'
_cell_length_a   7.64324299
_cell_length_b   10.02337120
_cell_length_c   9.47394098
_cell_angle_alpha   99.27843863
_cell_angle_beta   109.07161678
_cell_angle_gamma   97.48277824
_symmetry_Int_Tables_number   1
_chemical_formula_structural   Sr6Mg(Te4O11)2
_chemical_formula_sum   'Sr6 Mg1 Te8 O22'
_cell_volume   663.85025855
_cell_formula_units_Z   1
loop_
 _symmetry_equiv_pos_site_id
 _symmetry_equiv_pos_as_xyz
  1  'x, y, z'
loop_
 _atom_site_type_symbol
 _atom_site_label
 _atom_site_symmetry_multiplicity
 _atom_site_fract_x
 _atom_site_fract_y
 _atom_site_fract_z
 _atom_site_occupancy
  Sr  Sr0  1  0.28900687  0.99806429  0.12096363  1
  Sr  Sr1  1  0.72608873  0.97044850  0.90820464  1
  Sr  Sr2  1  0.84000242  0.06045146  0.34591064  1
  Sr  Sr3  1  0.16314477  0.92670797  0.67742270  1
  Sr  Sr4  1  0.31392796  0.53215806  0.61257085  1
  Sr  Sr5  1  0.69810649  0.46138433  0.36858340  1
  Mg  Mg0  1  0.19106237  0.23032401  0.89018579  1
  Te  Te0  1  0.05112133  0.29265434  0.19074469  1
  Te  Te1  1  0.95572567  0.68257362  0.80905011  1
  Te  Te2  1  0.88857542  0.29455206  0.67134695  1
  Te  Te3  1  0.01573737  0.73492033  0.24120471  1
  Te  Te4  1  0.50430539  0.69619429  0.04312232  1
  Te  Te5  1  0.56390448  0.30468121  0.94737756  1
  Te  Te6  1  0.53827730  0.81856308  0.47739581  1
  Te  Te7  1  0.42013537  0.18157777  0.50971429  1
  O  O0  1  0.98317397  0.58919399  0.62838014  1
  O  O1  1  0.02363933  0.40431766  0.37085991  1
  O  O2  1  0.50063409  0.62686681  0.45121125  1
  O  O3  1  0.49102642  0.36901750  0.51671058  1
  O  O4  1  0.79486873  0.19349870  0.13249140  1
  O  O5  1  0.20957215  0.78645620  0.89259758  1
  O  O6  1  0.66701654  0.19344034  0.70141059  1
  O  O7  1  0.31490212  0.82855033  0.30790189  1
  O  O8  1  0.44235155  0.86011444  0.63527942  1
  O  O9  1  0.54057508  0.11685933  0.37448157  1
  O  O10  1  0.01276164  0.13547109  0.65438670  1
  O  O11  1  0.99330946  0.85948527  0.40290512  1
  O  O12  1  0.45624580  0.34601876  0.10002918  1
  O  O13  1  0.56291280  0.68134064  0.86575499  1
  O  O14  1  0.58935871  0.89024911  0.11758710  1
  O  O15  1  0.41699608  0.11737250  0.88868070  1
  O  O16  1  0.97435266  0.84427836  0.09350061  1
  O  O17  1  0.05625994  0.13899825  0.00120755  1
  O  O18  1  0.15966019  0.16178275  0.31323302  1
  O  O19  1  0.85844814  0.83094497  0.73040008  1
  O  O20  1  0.72985348  0.63843442  0.17675246  1
  O  O21  1  0.35462616  0.35919625  0.80266307  1
loop_
_geom_bond_atom_site_label_1
_geom_bond_atom_site_label_2
_geom_bond_distance
_geom_bond_site_symmetry_2
Mg0 O17 1.943929 1_556
Mg0 O21 2.126318 1_555
Mg0 O10 2.177102 1_555
Mg0 O15 2.187269 1_555
Mg0 O12 2.327315 1_556
O0 Te1 1.902377 1_555
O0 Sr5 2.682939 1_555
O0 Sr4 2.708592 1_655
O1 Te0 1.971860 1_555
O1 Sr4 2.607999 1_555
O1 Sr5 2.618782 1_455
O2 Te6 1.868670 1_555
O2 Sr5 2.578295 1_555
O2 Sr4 2.610619 1_555
O3 Te7 1.870566 1_555
O3 Sr4 2.496387 1_555
O3 Sr5 2.611612 1_555
O4 Te0 1.933447 1_655
O4 Sr2 2.553255 1_555
O4 Te5 2.559958 1_554
O4 Sr1 2.687354 1_544
O5 Te1 1.918225 1_455
O5 Te4 2.602773 1_556
O5 Sr3 2.615186 1_555
O5 Sr0 2.621954 1_556
O6 Te2 1.984247 1_555
O6 Te7 2.122616 1_555
O6 Sr1 3.183519 1_545
O7 Te6 1.951458 1_555
O7 Te3 2.194120 1_555
O7 Sr0 2.625182 1_555
O8 Te6 1.882473 1_555
O8 Sr3 2.449691 1_555
O8 Sr1 2.720415 1_555
O9 Te7 1.888896 1_555
O9 Sr2 2.514580 1_555
O9 Sr0 2.519356 1_545
O10 Te2 1.969909 1_455
O10 Sr3 2.521340 1_545
O10 Sr2 2.713084 1_455
O11 Te3 1.883004 1_655
O11 Sr3 2.429792 1_655
O11 Sr2 2.504847 1_565
O12 Te5 1.900939 1_554
O12 Sr5 2.578501 1_555
O13 Te4 1.864152 1_556
O13 Sr4 2.594275 1_555
O13 Sr1 2.910286 1_555
O14 Te4 1.905812 1_555
O14 Sr2 2.551523 1_565
O14 Sr0 2.668696 1_555
O14 Sr1 2.706192 1_554
O15 Te5 1.949647 1_555
O15 Sr3 2.585677 1_545
O15 Sr1 2.914221 1_545
O15 Sr0 3.029957 1_546
O16 Te3 1.885573 1_655
O16 Sr0 2.593048 1_655
O16 Sr1 2.728694 1_554
O17 Te0 2.183588 1_555
O17 Sr0 2.509935 1_545
O17 Sr1 2.637321 1_444
O18 Te0 1.975043 1_555
O18 Te7 2.196396 1_555
O18 Sr2 2.654458 1_455
O18 Sr0 2.761129 1_545
O19 Te1 1.898163 1_555
O19 Sr1 2.557108 1_555
O19 Sr3 2.633225 1_655
O20 Te4 1.994966 1_555
O20 Te3 2.114232 1_655
O20 Sr5 2.779784 1_555
O21 Te5 1.942410 1_555
O21 Sr4 2.669611 1_555
