# generated using pymatgen
data_Ca3Zr2AlFeSiO12
_symmetry_space_group_name_H-M   'P 1'
_cell_length_a   10.98632841
_cell_length_b   10.98632841
_cell_length_c   10.98632841
_cell_angle_alpha   109.13181106
_cell_angle_beta   109.13181106
_cell_angle_gamma   110.15219343
_symmetry_Int_Tables_number   1
_chemical_formula_structural   Ca3Zr2AlFeSiO12
_chemical_formula_sum   'Ca12 Zr8 Al4 Fe4 Si4 O48'
_cell_volume   1020.68037409
_cell_formula_units_Z   4
loop_
 _symmetry_equiv_pos_site_id
 _symmetry_equiv_pos_as_xyz
  1  'x, y, z'
loop_
 _atom_site_type_symbol
 _atom_site_label
 _atom_site_symmetry_multiplicity
 _atom_site_fract_x
 _atom_site_fract_y
 _atom_site_fract_z
 _atom_site_occupancy
  Ca  Ca0  1  0.49985600  0.37500000  0.62485600  1
  Ca  Ca1  1  0.75014400  0.87500000  0.37514400  1
  Ca  Ca2  1  0.62500000  0.75100800  0.62600800  1
  Ca  Ca3  1  0.12500000  0.99899200  0.37399200  1
  Ca  Ca4  1  0.49892900  0.99892900  0.50000000  1
  Ca  Ca5  1  0.75107100  0.75107100  0.00000000  1
  Ca  Ca6  1  0.24899200  0.87500000  0.87399200  1
  Ca  Ca7  1  0.00100800  0.37500000  0.12600800  1
  Ca  Ca8  1  0.12500000  0.50014400  0.87514400  1
  Ca  Ca9  1  0.62500000  0.24985600  0.12485600  1
  Ca  Ca10  1  0.24892900  0.24892900  0.00000000  1
  Ca  Ca11  1  0.00107100  0.50107100  0.50000000  1
  Zr  Zr0  1  0.87700100  0.62729000  0.75173300  1
  Zr  Zr1  1  0.37444300  0.12271000  0.74971100  1
  Zr  Zr2  1  0.37299900  0.62473200  0.25028900  1
  Zr  Zr3  1  0.87555700  0.12526800  0.24826700  1
  Zr  Zr4  1  0.37526800  0.62555700  0.74826700  1
  Zr  Zr5  1  0.87473200  0.12299900  0.75028900  1
  Zr  Zr6  1  0.37271000  0.12444300  0.24971100  1
  Zr  Zr7  1  0.87729000  0.62700100  0.25173300  1
  Al  Al0  1  0.99954500  0.87500000  0.62454500  1
  Al  Al1  1  0.25045500  0.37500000  0.37545500  1
  Al  Al2  1  0.12500000  0.74954500  0.12454500  1
  Al  Al3  1  0.62500000  0.00045500  0.87545500  1
  Fe  Fe0  1  0.75079100  0.37500000  0.87579100  1
  Fe  Fe1  1  0.49920900  0.87500000  0.12420900  1
  Fe  Fe2  1  0.62500000  0.50079100  0.37579100  1
  Fe  Fe3  1  0.12500000  0.24920900  0.62420900  1
  Si  Si0  1  0.50000000  0.50000000  0.00000000  1
  Si  Si1  1  0.75000000  0.25000000  0.50000000  1
  Si  Si2  1  0.25000000  0.75000000  0.50000000  1
  Si  Si3  1  0.00000000  0.00000000  0.00000000  1
  O  O0  1  0.74915300  0.53129700  0.83677600  1
  O  O1  1  0.55547900  0.21870300  0.71785600  1
  O  O2  1  0.50084700  0.83762400  0.28214400  1
  O  O3  1  0.69452100  0.91237600  0.16322400  1
  O  O4  1  0.58130500  0.65388600  0.37740300  1
  O  O5  1  0.66869500  0.54609800  0.57258100  1
  O  O6  1  0.27648300  0.20390200  0.62259700  1
  O  O7  1  0.97351700  0.09611400  0.42741900  1
  O  O8  1  0.28490200  0.92224500  0.54484400  1
  O  O9  1  0.37740100  0.74005800  0.45515600  1
  O  O10  1  0.87259900  0.82775500  0.86265700  1
  O  O11  1  0.96509800  0.00994200  0.13734300  1
  O  O12  1  0.99661700  0.72750500  0.66343700  1
  O  O13  1  0.18593200  0.02249500  0.76911300  1
  O  O14  1  0.25338300  0.41682000  0.23088700  1
  O  O15  1  0.06406800  0.33318000  0.33656300  1
  O  O16  1  0.17097900  0.60886200  0.12876200  1
  O  O17  1  0.07902100  0.70778300  0.93788400  1
  O  O18  1  0.48010100  0.04221700  0.87123800  1
  O  O19  1  0.76989900  0.14113800  0.06211600  1
  O  O20  1  0.46342000  0.32606700  0.95187900  1
  O  O21  1  0.37418800  0.51154200  0.04812100  1
  O  O22  1  0.87581200  0.42393300  0.63735400  1
  O  O23  1  0.78658000  0.23845800  0.36264600  1
  O  O24  1  0.16237600  0.44452100  0.66322400  1
  O  O25  1  0.08762400  0.25084700  0.78214400  1
  O  O26  1  0.46870300  0.30547900  0.21785600  1
  O  O27  1  0.78129700  0.49915300  0.33677600  1
  O  O28  1  0.45390200  0.02648300  0.12259700  1
  O  O29  1  0.34611400  0.72351700  0.92741900  1
  O  O30  1  0.90388600  0.33130500  0.87740300  1
  O  O31  1  0.79609800  0.41869500  0.07258100  1
  O  O32  1  0.99005800  0.12740100  0.95515600  1
  O  O33  1  0.17224500  0.03490200  0.04484400  1
  O  O34  1  0.25994200  0.71509800  0.63734300  1
  O  O35  1  0.07775500  0.62259900  0.36265700  1
  O  O36  1  0.58318000  0.81406800  0.83656300  1
  O  O37  1  0.66682000  0.00338300  0.73088700  1
  O  O38  1  0.27249500  0.93593200  0.26911300  1
  O  O39  1  0.97750500  0.74661700  0.16343700  1
  O  O40  1  0.29221700  0.23010100  0.37123800  1
  O  O41  1  0.39113800  0.51989900  0.56211600  1
  O  O42  1  0.85886200  0.92097900  0.62876200  1
  O  O43  1  0.95778300  0.82902100  0.43788400  1
  O  O44  1  0.76154200  0.12418800  0.54812100  1
  O  O45  1  0.57606700  0.21342000  0.45187900  1
  O  O46  1  0.48845800  0.53658000  0.86264600  1
  O  O47  1  0.67393300  0.62581200  0.13735400  1
loop_
_geom_bond_atom_site_label_1
_geom_bond_atom_site_label_2
_geom_bond_distance
_geom_bond_site_symmetry_2
Ca0 O0 2.414469 1_555
Ca0 O1 2.414469 1_555
Ca0 O41 2.434258 1_555
Ca0 O40 2.434265 1_555
Ca0 O6 2.511456 1_555
Ca0 O5 2.511456 1_555
Ca0 O46 2.705461 1_555
Ca0 O45 2.705463 1_555
Ca1 O3 2.414463 1_555
Ca1 O2 2.414473 1_555
Ca1 O42 2.434264 1_555
Ca1 O43 2.434265 1_555
Ca1 O4 2.511456 1_555
Ca1 O7 2.511456 1_565
Ca1 O44 2.705457 1_565
Ca1 O47 2.705457 1_555
Ca2 O5 2.388743 1_555
Ca2 O4 2.388743 1_555
Ca2 O37 2.430550 1_565
Ca2 O36 2.430550 1_555
Ca2 O42 2.587540 1_555
Ca2 O41 2.587542 1_555
Ca2 O9 2.686429 1_555
Ca2 O10 2.686429 1_555
Ca3 O7 2.388743 1_465
Ca3 O6 2.388743 1_565
Ca3 O38 2.430544 1_555
Ca3 O39 2.430550 1_455
Ca3 O40 2.587548 1_565
Ca3 O43 2.587548 1_455
Ca3 O11 2.686429 1_465
Ca3 O8 2.686429 1_555
Ca4 O8 2.479496 1_555
Ca4 O9 2.479496 1_555
Ca4 O2 2.479522 1_555
Ca4 O1 2.479527 1_565
Ca4 O45 2.506972 1_565
Ca4 O44 2.506982 1_565
Ca4 O37 2.574591 1_565
Ca4 O38 2.574593 1_555
Ca5 O10 2.479496 1_554
Ca5 O11 2.479496 1_565
Ca5 O3 2.479521 1_555
Ca5 O0 2.479527 1_554
Ca5 O46 2.506978 1_554
Ca5 O47 2.506982 1_555
Ca5 O39 2.574599 1_555
Ca5 O36 2.574599 1_554
Ca6 O28 2.388743 1_566
Ca6 O29 2.388743 1_555
Ca6 O13 2.430544 1_565
Ca6 O12 2.430550 1_455
Ca6 O17 2.587548 1_555
Ca6 O18 2.587548 1_565
Ca6 O33 2.686429 1_566
Ca6 O34 2.686429 1_555
Ca7 O30 2.388743 1_454
Ca7 O31 2.388743 1_455
Ca7 O14 2.430550 1_555
Ca7 O15 2.430550 1_555
Ca7 O16 2.587540 1_555
Ca7 O19 2.587542 1_455
Ca7 O32 2.686429 1_454
Ca7 O35 2.686429 1_555
Ca8 O24 2.414463 1_555
Ca8 O25 2.414473 1_555
Ca8 O16 2.434264 1_556
Ca8 O17 2.434265 1_555
Ca8 O30 2.511456 1_455
Ca8 O29 2.511456 1_555
Ca8 O21 2.705457 1_556
Ca8 O22 2.705457 1_455
Ca9 O27 2.414469 1_555
Ca9 O26 2.414469 1_555
Ca9 O19 2.434258 1_555
Ca9 O18 2.434265 1_554
Ca9 O28 2.511456 1_555
Ca9 O31 2.511456 1_555
Ca9 O23 2.705461 1_555
Ca9 O20 2.705463 1_554
Ca10 O32 2.479496 1_454
Ca10 O33 2.479496 1_555
Ca10 O25 2.479522 1_554
Ca10 O26 2.479527 1_555
Ca10 O20 2.506972 1_554
Ca10 O21 2.506982 1_555
Ca10 O14 2.574591 1_555
Ca10 O13 2.574593 1_554
Ca11 O35 2.479496 1_555
Ca11 O34 2.479496 1_555
Ca11 O24 2.479521 1_555
Ca11 O27 2.479527 1_455
Ca11 O23 2.506978 1_455
Ca11 O22 2.506982 1_455
Ca11 O15 2.574599 1_555
Ca11 O12 2.574599 1_455
Al0 O43 1.793230 1_555
Al0 O42 1.793240 1_555
Al0 O12 1.798980 1_555
Al0 O13 1.798982 1_665
Al1 O40 1.793230 1_555
Al1 O41 1.793232 1_555
Al1 O15 1.798980 1_555
Al1 O14 1.798990 1_555
Al2 O17 1.793230 1_554
Al2 O16 1.793240 1_555
Al2 O39 1.798980 1_455
Al2 O38 1.798982 1_555
Al3 O18 1.793230 1_555
Al3 O19 1.793232 1_556
Al3 O36 1.798980 1_545
Al3 O37 1.798990 1_555
Fe0 O31 1.897921 1_556
Fe0 O30 1.897921 1_555
Fe0 O0 1.905589 1_555
Fe0 O1 1.905589 1_555
Fe1 O29 1.897921 1_554
Fe1 O28 1.897921 1_565
Fe1 O2 1.905583 1_555
Fe1 O3 1.905591 1_555
Fe2 O4 1.897921 1_555
Fe2 O5 1.897921 1_555
Fe2 O26 1.905589 1_555
Fe2 O27 1.905589 1_555
Fe3 O6 1.897921 1_555
Fe3 O7 1.897921 1_455
Fe3 O25 1.905583 1_555
Fe3 O24 1.905591 1_555
O0 Zr0 2.107939 1_555
O1 Zr1 2.107939 1_555
O2 Zr2 2.107948 1_555
O3 Zr3 2.107946 1_565
O4 Zr2 2.096904 1_555
O5 Zr0 2.096904 1_555
O6 Zr1 2.096904 1_555
O7 Zr3 2.096904 1_555
O8 Si2 1.654026 1_555
O8 Zr1 2.165790 1_565
O9 Si2 1.654026 1_555
O9 Zr2 2.165790 1_555
O10 Si3 1.654026 1_666
O10 Zr0 2.165790 1_555
O11 Si3 1.654026 1_655
O11 Zr3 2.165790 1_555
O12 Zr0 2.102115 1_555
O13 Zr1 2.102122 1_555
O14 Zr2 2.102110 1_555
O15 Zr3 2.102115 1_455
O16 Zr2 2.092218 1_555
O17 Zr0 2.092223 1_455
O18 Zr1 2.092223 1_555
O19 Zr3 2.092230 1_555
O20 Si0 1.661893 1_556
O20 Zr1 2.167844 1_555
O21 Si0 1.661895 1_555
O21 Zr2 2.167841 1_555
O22 Si1 1.661895 1_555
O22 Zr0 2.167841 1_555
O23 Si1 1.661902 1_555
O23 Zr3 2.167832 1_555
O24 Zr4 2.107946 1_555
O25 Zr5 2.107948 1_455
O26 Zr6 2.107939 1_555
O27 Zr7 2.107939 1_555
O28 Zr6 2.096904 1_555
O29 Zr4 2.096904 1_555
O30 Zr5 2.096904 1_555
O31 Zr7 2.096904 1_555
O32 Si3 1.654026 1_656
O32 Zr5 2.165790 1_555
O33 Si3 1.654026 1_555
O33 Zr6 2.165790 1_555
O34 Si2 1.654026 1_555
O34 Zr4 2.165790 1_555
O35 Si2 1.654026 1_555
O35 Zr7 2.165790 1_455
O36 Zr4 2.102115 1_555
O37 Zr5 2.102110 1_555
O38 Zr6 2.102122 1_565
O39 Zr7 2.102115 1_555
O40 Zr6 2.092223 1_555
O41 Zr4 2.092230 1_555
O42 Zr5 2.092218 1_565
O43 Zr7 2.092223 1_555
O44 Si1 1.661895 1_555
O44 Zr5 2.167841 1_555
O45 Si1 1.661893 1_555
O45 Zr6 2.167844 1_555
O46 Si0 1.661902 1_556
O46 Zr4 2.167832 1_555
O47 Si0 1.661895 1_555
O47 Zr7 2.167841 1_555
