# generated using pymatgen
data_Cs3Eu(Si2O5)3
_symmetry_space_group_name_H-M   'P 1'
_cell_length_a   7.30992712
_cell_length_b   8.69480112
_cell_length_c   28.94476737
_cell_angle_alpha   90.00000000
_cell_angle_beta   90.00000000
_cell_angle_gamma   105.02866872
_symmetry_Int_Tables_number   1
_chemical_formula_structural   Cs3Eu(Si2O5)3
_chemical_formula_sum   'Cs12 Eu4 Si24 O60'
_cell_volume   1776.75790631
_cell_formula_units_Z   4
loop_
 _symmetry_equiv_pos_site_id
 _symmetry_equiv_pos_as_xyz
  1  'x, y, z'
loop_
 _atom_site_type_symbol
 _atom_site_label
 _atom_site_symmetry_multiplicity
 _atom_site_fract_x
 _atom_site_fract_y
 _atom_site_fract_z
 _atom_site_occupancy
  Cs  Cs0  1  0.00296442  0.45985314  0.86320510  1
  Cs  Cs1  1  0.50296442  0.95985314  0.63679490  1
  Cs  Cs2  1  0.99703558  0.54014686  0.13679490  1
  Cs  Cs3  1  0.49703558  0.04014686  0.36320510  1
  Cs  Cs4  1  0.21508964  0.18554030  0.74419794  1
  Cs  Cs5  1  0.71508964  0.68554030  0.75580206  1
  Cs  Cs6  1  0.78491036  0.81445970  0.25580206  1
  Cs  Cs7  1  0.28491036  0.31445970  0.24419794  1
  Cs  Cs8  1  0.20454784  0.28150651  0.99887149  1
  Cs  Cs9  1  0.70454784  0.78150651  0.50112851  1
  Cs  Cs10  1  0.79545216  0.71849349  0.00112851  1
  Cs  Cs11  1  0.29545216  0.21849349  0.49887149  1
  Eu  Eu0  1  0.99223524  0.96060118  0.87626622  1
  Eu  Eu1  1  0.49223524  0.46060118  0.62373378  1
  Eu  Eu2  1  0.00776476  0.03939882  0.12373378  1
  Eu  Eu3  1  0.50776476  0.53939882  0.37626622  1
  Si  Si0  1  0.83280367  0.31290570  0.54885487  1
  Si  Si1  1  0.33280367  0.81290570  0.95114513  1
  Si  Si2  1  0.16719633  0.68709430  0.45114513  1
  Si  Si3  1  0.66719633  0.18709430  0.04885487  1
  Si  Si4  1  0.81025895  0.31377808  0.70195290  1
  Si  Si5  1  0.31025895  0.81377808  0.79804710  1
  Si  Si6  1  0.18974105  0.68622192  0.29804710  1
  Si  Si7  1  0.68974105  0.18622192  0.20195290  1
  Si  Si8  1  0.67107163  0.14001838  0.94280517  1
  Si  Si9  1  0.17107163  0.64001838  0.55719483  1
  Si  Si10  1  0.32892837  0.85998162  0.05719483  1
  Si  Si11  1  0.82892837  0.35998162  0.44280517  1
  Si  Si12  1  0.02097631  0.15673327  0.62188233  1
  Si  Si13  1  0.52097631  0.65673327  0.87811767  1
  Si  Si14  1  0.97902369  0.84326673  0.37811767  1
  Si  Si15  1  0.47902369  0.34326673  0.12188233  1
  Si  Si16  1  0.66123093  0.10858093  0.79175113  1
  Si  Si17  1  0.16123093  0.60858093  0.70824887  1
  Si  Si18  1  0.33876907  0.89141907  0.20824887  1
  Si  Si19  1  0.83876907  0.39141907  0.29175113  1
  Si  Si20  1  0.46746102  0.28085443  0.86331255  1
  Si  Si21  1  0.96746102  0.78085443  0.63668745  1
  Si  Si22  1  0.53253898  0.71914557  0.13668745  1
  Si  Si23  1  0.03253898  0.21914557  0.36331255  1
  O  O0  1  0.63236669  0.32773148  0.56739713  1
  O  O1  1  0.13236669  0.82773148  0.93260287  1
  O  O2  1  0.36763331  0.67226852  0.43260287  1
  O  O3  1  0.86763331  0.17226852  0.06739713  1
  O  O4  1  0.50412470  0.97396266  0.94311971  1
  O  O5  1  0.00412470  0.47396266  0.55688029  1
  O  O6  1  0.49587530  0.02603734  0.05688029  1
  O  O7  1  0.99587530  0.52603734  0.44311971  1
  O  O8  1  0.76486399  0.17667955  0.74266306  1
  O  O9  1  0.26486399  0.67667955  0.75733694  1
  O  O10  1  0.23513601  0.82332045  0.25733694  1
  O  O11  1  0.73513601  0.32332045  0.24266306  1
  O  O12  1  0.57859720  0.25221918  0.81489750  1
  O  O13  1  0.07859720  0.75221918  0.68510250  1
  O  O14  1  0.42140280  0.74778082  0.18510250  1
  O  O15  1  0.92140280  0.24778082  0.31489750  1
  O  O16  1  0.46829494  0.46972088  0.86143101  1
  O  O17  1  0.96829494  0.96972088  0.63856899  1
  O  O18  1  0.53170506  0.53027912  0.13856899  1
  O  O19  1  0.03170506  0.03027912  0.36143101  1
  O  O20  1  0.81083848  0.05223995  0.82267431  1
  O  O21  1  0.31083848  0.55223995  0.67732569  1
  O  O22  1  0.18916152  0.94776005  0.17732569  1
  O  O23  1  0.68916152  0.44776005  0.32267431  1
  O  O24  1  0.47242359  0.96586244  0.77557035  1
  O  O25  1  0.97242359  0.46586244  0.72442965  1
  O  O26  1  0.52757641  0.03413756  0.22442965  1
  O  O27  1  0.02757641  0.53413756  0.27557035  1
  O  O28  1  0.90302400  0.16296821  0.57296764  1
  O  O29  1  0.40302400  0.66296821  0.92703236  1
  O  O30  1  0.09697600  0.83703179  0.42703236  1
  O  O31  1  0.59697600  0.33703179  0.07296764  1
  O  O32  1  0.91814843  0.24129160  0.66131932  1
  O  O33  1  0.41814843  0.74129160  0.83868068  1
  O  O34  1  0.08185157  0.75870840  0.33868068  1
  O  O35  1  0.58185157  0.25870840  0.16131932  1
  O  O36  1  0.60745768  0.26305351  0.90640944  1
  O  O37  1  0.10745768  0.76305351  0.59359056  1
  O  O38  1  0.39254232  0.73694649  0.09359056  1
  O  O39  1  0.89254232  0.23694649  0.40640944  1
  O  O40  1  0.25353438  0.17680315  0.86611051  1
  O  O41  1  0.75353438  0.67680315  0.63388949  1
  O  O42  1  0.74646562  0.82319685  0.13388949  1
  O  O43  1  0.24646562  0.32319685  0.36611051  1
  O  O44  1  0.24436721  0.22779752  0.61763468  1
  O  O45  1  0.74436721  0.72779752  0.88236532  1
  O  O46  1  0.75563279  0.77220248  0.38236532  1
  O  O47  1  0.25563279  0.27220248  0.11763468  1
  O  O48  1  0.87572426  0.11412036  0.93140013  1
  O  O49  1  0.37572426  0.61412036  0.56859987  1
  O  O50  1  0.12427574  0.88587964  0.06859987  1
  O  O51  1  0.62427574  0.38587964  0.43140013  1
  O  O52  1  0.67156454  0.23177320  0.99313222  1
  O  O53  1  0.17156454  0.73177320  0.50686778  1
  O  O54  1  0.32843546  0.76822680  0.00686778  1
  O  O55  1  0.82843546  0.26822680  0.49313222  1
  O  O56  1  0.61789924  0.35258128  0.68637256  1
  O  O57  1  0.11789924  0.85258128  0.81362744  1
  O  O58  1  0.38210076  0.64741872  0.31362744  1
  O  O59  1  0.88210076  0.14741872  0.18637256  1
loop_
_geom_bond_atom_site_label_1
_geom_bond_atom_site_label_2
_geom_bond_distance
_geom_bond_site_symmetry_2
Cs0 O36 3.206999 1_455
Cs0 O16 3.380690 1_555
Cs0 O45 3.404764 1_455
Cs0 O40 3.428791 1_555
Cs0 O33 3.442591 1_555
Cs0 O12 3.454414 1_455
Cs0 O48 3.513949 1_455
Cs0 O29 3.522186 1_555
Cs0 O57 3.596866 1_555
Cs0 O20 3.650771 1_455
Cs0 O1 3.686701 1_555
Cs1 O37 3.206999 1_555
Cs1 O17 3.380690 1_555
Cs1 O44 3.404764 1_565
Cs1 O41 3.428791 1_555
Cs1 O32 3.442591 1_565
Cs1 O13 3.454414 1_555
Cs1 O49 3.513949 1_555
Cs1 O28 3.522186 1_565
Cs1 O56 3.596866 1_565
Cs1 O21 3.650771 1_555
Cs1 O0 3.686701 1_565
Cs2 O38 3.206999 1_655
Cs2 O18 3.380690 1_555
Cs2 O47 3.404764 1_655
Cs2 O42 3.428791 1_555
Cs2 O35 3.442591 1_555
Cs2 O14 3.454414 1_655
Cs2 O50 3.513949 1_655
Cs2 O31 3.522186 1_555
Cs2 O59 3.596866 1_555
Cs2 O22 3.650771 1_655
Cs2 O3 3.686701 1_555
Cs3 O39 3.206999 1_555
Cs3 O19 3.380690 1_555
Cs3 O46 3.404764 1_545
Cs3 O43 3.428791 1_555
Cs3 O34 3.442591 1_545
Cs3 O15 3.454414 1_555
Cs3 O51 3.513949 1_555
Cs3 O30 3.522186 1_545
Cs3 O58 3.596866 1_545
Cs3 O23 3.650771 1_555
Cs3 O2 3.686701 1_545
Cs4 O24 3.142411 1_545
Cs4 O8 3.272287 1_455
Cs4 O12 3.284152 1_555
Cs4 O32 3.353651 1_455
Cs4 O56 3.370924 1_555
Cs4 O25 3.414217 1_455
Cs4 O57 3.443511 1_545
Cs4 O40 3.542282 1_555
Cs4 O21 3.639353 1_555
Cs4 O20 3.668658 1_455
Cs4 O44 3.682405 1_555
Cs4 O17 3.790510 1_445
Cs5 O25 3.142411 1_555
Cs5 O9 3.272287 1_555
Cs5 O13 3.284152 1_655
Cs5 O33 3.353651 1_555
Cs5 O57 3.370924 1_655
Cs5 O24 3.414217 1_555
Cs5 O56 3.443511 1_555
Cs5 O41 3.542282 1_555
Cs5 O20 3.639353 1_565
Cs5 O21 3.668658 1_555
Cs5 O45 3.682405 1_555
Cs5 O16 3.790510 1_555
Cs6 O26 3.142411 1_565
Cs6 O10 3.272287 1_655
Cs6 O14 3.284152 1_555
Cs6 O34 3.353651 1_655
Cs6 O58 3.370924 1_555
Cs6 O27 3.414217 1_655
Cs6 O59 3.443511 1_565
Cs6 O42 3.542282 1_555
Cs6 O23 3.639353 1_555
Cs6 O22 3.668658 1_655
Cs6 O46 3.682405 1_555
Cs6 O19 3.790510 1_665
Cs7 O27 3.142411 1_555
Cs7 O11 3.272287 1_555
Cs7 O15 3.284152 1_455
Cs7 O35 3.353651 1_555
Cs7 O59 3.370924 1_455
Cs7 O26 3.414217 1_555
Cs7 O58 3.443511 1_555
Cs7 O43 3.542282 1_555
Cs7 O22 3.639353 1_545
Cs7 O23 3.668658 1_555
Cs7 O47 3.682405 1_555
Cs7 O18 3.790510 1_555
Cs8 O3 3.112652 1_456
Cs8 O48 3.145724 1_455
Cs8 O47 3.461007 1_556
Cs8 O31 3.513341 1_556
Cs8 O52 3.554517 1_555
Cs9 O2 3.112652 1_555
Cs9 O49 3.145724 1_555
Cs9 O46 3.461007 1_555
Cs9 O30 3.513341 1_655
Cs9 O53 3.554517 1_655
Cs10 O1 3.112652 1_654
Cs10 O50 3.145724 1_655
Cs10 O45 3.461007 1_554
Cs10 O29 3.513341 1_554
Cs10 O54 3.554517 1_555
Cs11 O0 3.112652 1_555
Cs11 O51 3.145724 1_555
Cs11 O44 3.461007 1_555
Cs11 O28 3.513341 1_455
Cs11 O55 3.554517 1_455
Eu0 O20 2.312420 1_565
Eu0 O40 2.325180 1_665
Eu0 O57 2.336786 1_655
Eu0 O45 2.347213 1_555
Eu0 O48 2.375581 1_565
Eu0 O1 2.378382 1_655
Eu1 O21 2.312420 1_555
Eu1 O41 2.325180 1_555
Eu1 O56 2.336786 1_555
Eu1 O44 2.347213 1_555
Eu1 O49 2.375581 1_555
Eu1 O0 2.378382 1_555
Eu2 O22 2.312420 1_545
Eu2 O42 2.325180 1_445
Eu2 O59 2.336786 1_455
Eu2 O47 2.347213 1_555
Eu2 O50 2.375581 1_545
Eu2 O3 2.378382 1_455
Eu3 O23 2.312420 1_555
Eu3 O43 2.325180 1_555
Eu3 O58 2.336786 1_555
Eu3 O46 2.347213 1_555
Eu3 O51 2.375581 1_555
Eu3 O2 2.378382 1_555
O0 Si0 1.596674 1_555
O1 Si1 1.596674 1_555
O2 Si2 1.596674 1_555
O3 Si3 1.596674 1_555
O4 Si8 1.631020 1_565
O4 Si1 1.635187 1_555
O5 Si9 1.631020 1_555
O5 Si0 1.635187 1_455
O6 Si10 1.631020 1_545
O6 Si3 1.635187 1_555
O7 Si11 1.631020 1_555
O7 Si2 1.635187 1_655
O8 Si16 1.646403 1_555
O8 Si4 1.647557 1_555
O9 Si17 1.646403 1_555
O9 Si5 1.647557 1_555
O10 Si18 1.646403 1_555
O10 Si6 1.647557 1_555
O11 Si19 1.646403 1_555
O11 Si7 1.647557 1_555
O12 Si16 1.662747 1_555
O12 Si20 1.670537 1_555
O13 Si17 1.662747 1_555
O13 Si21 1.670537 1_455
O14 Si18 1.662747 1_555
O14 Si22 1.670537 1_555
O15 Si19 1.662747 1_555
O15 Si23 1.670537 1_655
O16 Si20 1.641490 1_555
O16 Si13 1.643421 1_555
O17 Si21 1.641490 1_555
O17 Si12 1.643421 1_665
O18 Si22 1.641490 1_555
O18 Si15 1.643421 1_555
O19 Si23 1.641490 1_555
O19 Si14 1.643421 1_445
O20 Si16 1.585861 1_555
O21 Si17 1.585861 1_555
O22 Si18 1.585861 1_555
O23 Si19 1.585861 1_555
O24 Si5 1.662567 1_555
O24 Si16 1.666095 1_565
O25 Si4 1.662567 1_555
O25 Si17 1.666095 1_655
O26 Si7 1.662567 1_555
O26 Si18 1.666095 1_545
O27 Si6 1.662567 1_555
O27 Si19 1.666095 1_455
O28 Si12 1.665883 1_655
O28 Si0 1.672488 1_555
O29 Si13 1.665883 1_555
O29 Si1 1.672488 1_555
O30 Si14 1.665883 1_455
O30 Si2 1.672488 1_555
O31 Si15 1.665883 1_555
O31 Si3 1.672488 1_555
O32 Si4 1.631034 1_555
O32 Si12 1.641693 1_655
O33 Si5 1.631034 1_555
O33 Si13 1.641693 1_555
O34 Si6 1.631034 1_555
O34 Si14 1.641693 1_455
O35 Si7 1.631034 1_555
O35 Si15 1.641693 1_555
O36 Si20 1.646042 1_555
O36 Si8 1.651790 1_555
O37 Si21 1.646042 1_455
O37 Si9 1.651790 1_555
O38 Si22 1.646042 1_555
O38 Si10 1.651790 1_555
O39 Si23 1.646042 1_655
O39 Si11 1.651790 1_555
O40 Si20 1.592727 1_555
O41 Si21 1.592727 1_555
O42 Si22 1.592727 1_555
O43 Si23 1.592727 1_555
O44 Si12 1.593809 1_555
O45 Si13 1.593809 1_555
O46 Si14 1.593809 1_555
O47 Si15 1.593809 1_555
O48 Si8 1.603866 1_555
O49 Si9 1.603866 1_555
O50 Si10 1.603866 1_555
O51 Si11 1.603866 1_555
O52 Si3 1.657371 1_556
O52 Si8 1.660416 1_555
O53 Si2 1.657371 1_555
O53 Si9 1.660416 1_555
O54 Si1 1.657371 1_554
O54 Si10 1.660416 1_555
O55 Si0 1.657371 1_555
O55 Si11 1.660416 1_555
O56 Si4 1.593879 1_555
O57 Si5 1.593879 1_555
O58 Si6 1.593879 1_555
O59 Si7 1.593879 1_555
