# generated using pymatgen
data_Hf4CuSi3
_symmetry_space_group_name_H-M   'P 1'
_cell_length_a   3.72560700
_cell_length_b   3.73053000
_cell_length_c   9.94181900
_cell_angle_alpha   90.00000000
_cell_angle_beta   90.00000000
_cell_angle_gamma   90.00000000
_symmetry_Int_Tables_number   1
_chemical_formula_structural   Hf4CuSi3
_chemical_formula_sum   'Hf4 Cu1 Si3'
_cell_volume   138.17625885
_cell_formula_units_Z   1
loop_
 _symmetry_equiv_pos_site_id
 _symmetry_equiv_pos_as_xyz
  1  'x, y, z'
loop_
 _atom_site_type_symbol
 _atom_site_label
 _atom_site_symmetry_multiplicity
 _atom_site_fract_x
 _atom_site_fract_y
 _atom_site_fract_z
 _atom_site_occupancy
  Hf  Hf0  1  0.50000000  0.50000000  0.35445100  1
  Hf  Hf1  1  0.00000000  0.50000000  0.85171200  1
  Hf  Hf2  1  0.00000000  0.00000000  0.14744300  1
  Hf  Hf3  1  0.50000000  0.00000000  0.64675000  1
  Cu  Cu0  1  0.50000000  0.50000000  0.07382900  1
  Si  Si0  1  0.00000000  0.50000000  0.58037500  1
  Si  Si1  1  0.00000000  0.00000000  0.41968300  1
  Si  Si2  1  0.50000000  0.00000000  0.92575700  1
loop_
_geom_bond_atom_site_label_1
_geom_bond_atom_site_label_2
_geom_bond_distance
_geom_bond_site_symmetry_2
Hf0 Si1 2.714744 1_555
Hf0 Si1 2.714744 1_655
Hf0 Si1 2.714744 1_665
Hf0 Si1 2.714744 1_565
Hf0 Si0 2.918044 1_555
Hf0 Si0 2.918044 1_655
Hf1 Si0 2.697583 1_555
Hf1 Si2 2.736998 1_455
Hf1 Si2 2.736998 1_565
Hf1 Si2 2.736998 1_465
Hf1 Si2 2.736998 1_555
Hf2 Si1 2.706561 1_555
Hf2 Si2 2.885738 1_554
Hf2 Si2 2.885738 1_454
Hf3 Si0 2.717481 1_645
Hf3 Si0 2.717481 1_545
Hf3 Si0 2.717481 1_555
Hf3 Si0 2.717481 1_655
Hf3 Si2 2.773837 1_555
Hf3 Si1 2.926800 1_555
Hf3 Si1 2.926800 1_655
Cu0 Si2 2.376196 1_564
Cu0 Si2 2.376196 1_554
Cu0 Hf2 2.735848 1_665
Cu0 Hf2 2.735848 1_565
Cu0 Hf2 2.735848 1_555
Cu0 Hf2 2.735848 1_655
Cu0 Hf0 2.789893 1_555
Cu0 Hf1 2.889012 1_554
Cu0 Hf1 2.889012 1_654
Si0 Si1 2.455900 1_565
Si0 Si1 2.455900 1_555
