# generated using pymatgen
data_NaMg14SiO16
_symmetry_space_group_name_H-M   'P 1'
_cell_length_a   8.58096029
_cell_length_b   8.50013123
_cell_length_c   4.30526000
_cell_angle_alpha   90.00000000
_cell_angle_beta   90.00000000
_cell_angle_gamma   90.00000000
_symmetry_Int_Tables_number   1
_chemical_formula_structural   NaMg14SiO16
_chemical_formula_sum   'Na1 Mg14 Si1 O16'
_cell_volume   314.02260140
_cell_formula_units_Z   1
loop_
 _symmetry_equiv_pos_site_id
 _symmetry_equiv_pos_as_xyz
  1  'x, y, z'
loop_
 _atom_site_type_symbol
 _atom_site_label
 _atom_site_symmetry_multiplicity
 _atom_site_fract_x
 _atom_site_fract_y
 _atom_site_fract_z
 _atom_site_occupancy
  Na  Na0  1  -0.00000000  0.50000000  0.00000000  1
  Mg  Mg0  1  0.50000000  0.00000000  0.00000000  1
  Mg  Mg1  1  0.50000000  0.50000000  0.00000000  1
  Mg  Mg2  1  -0.00000000  0.25621906  0.50000000  1
  Mg  Mg3  1  -0.00000000  0.74378094  0.50000000  1
  Mg  Mg4  1  0.50000000  0.25225899  0.50000000  1
  Mg  Mg5  1  0.50000000  0.74774101  0.50000000  1
  Mg  Mg6  1  0.25118648  -0.00000000  0.50000000  1
  Mg  Mg7  1  0.24762632  0.50000000  0.50000000  1
  Mg  Mg8  1  0.74881352  -0.00000000  0.50000000  1
  Mg  Mg9  1  0.75237368  0.50000000  0.50000000  1
  Mg  Mg10  1  0.25195115  0.25457815  -0.00000000  1
  Mg  Mg11  1  0.25195115  0.74542185  0.00000000  1
  Mg  Mg12  1  0.74804885  0.25457815  0.00000000  1
  Mg  Mg13  1  0.74804885  0.74542185  0.00000000  1
  Si  Si0  1  -0.00000000  0.00000000  0.00000000  1
  O  O0  1  0.24231411  0.00000000  0.00000000  1
  O  O1  1  0.26320315  0.50000000  0.00000000  1
  O  O2  1  0.75768589  0.00000000  0.00000000  1
  O  O3  1  0.73679685  0.50000000  0.00000000  1
  O  O4  1  0.24864504  0.24848129  0.50000000  1
  O  O5  1  0.24864504  0.75151871  0.50000000  1
  O  O6  1  0.75135496  0.24848129  0.50000000  1
  O  O7  1  0.75135496  0.75151871  0.50000000  1
  O  O8  1  -0.00000000  0.00000000  0.50000000  1
  O  O9  1  -0.00000000  0.50000000  0.50000000  1
  O  O10  1  0.50000000  0.00000000  0.50000000  1
  O  O11  1  0.50000000  0.50000000  0.50000000  1
  O  O12  1  -0.00000000  0.22077929  -0.00000000  1
  O  O13  1  -0.00000000  0.77922071  0.00000000  1
  O  O14  1  0.50000000  0.24487324  0.00000000  1
  O  O15  1  0.50000000  0.75512676  -0.00000000  1
loop_
_geom_bond_atom_site_label_1
_geom_bond_atom_site_label_2
_geom_bond_distance
_geom_bond_site_symmetry_2
Na0 O9 2.152630 1_554
Na0 O9 2.152630 1_555
Na0 O3 2.258536 1_455
Na0 O1 2.258536 1_555
Na0 O12 2.373413 1_555
Na0 O13 2.373413 1_555
Mg0 O14 2.081455 1_555
Mg0 O15 2.081455 1_545
Mg0 O10 2.152630 1_555
Mg0 O10 2.152630 1_554
Mg0 O0 2.211192 1_555
Mg0 O2 2.211192 1_555
Mg1 O1 2.031944 1_555
Mg1 O3 2.031944 1_555
Mg1 O11 2.152630 1_554
Mg1 O11 2.152630 1_555
Mg1 O14 2.168611 1_555
Mg1 O15 2.168611 1_555
Mg2 O9 2.072170 1_555
Mg2 O6 2.134627 1_455
Mg2 O4 2.134627 1_555
Mg2 O12 2.173606 1_556
Mg2 O12 2.173606 1_555
Mg2 O8 2.177896 1_555
Mg3 O9 2.072170 1_555
Mg3 O7 2.134627 1_455
Mg3 O5 2.134627 1_555
Mg3 O13 2.173606 1_555
Mg3 O13 2.173606 1_556
Mg3 O8 2.177896 1_565
Mg4 O11 2.105831 1_555
Mg4 O10 2.144235 1_555
Mg4 O14 2.153545 1_555
Mg4 O14 2.153545 1_556
Mg4 O4 2.157106 1_555
Mg4 O6 2.157106 1_555
Mg5 O11 2.105831 1_555
Mg5 O10 2.144235 1_565
Mg5 O15 2.153545 1_556
Mg5 O15 2.153545 1_555
Mg5 O5 2.157106 1_555
Mg5 O7 2.157106 1_555
Mg6 O5 2.112236 1_545
Mg6 O4 2.112236 1_555
Mg6 O10 2.135059 1_555
Mg6 O0 2.153976 1_555
Mg6 O0 2.153976 1_556
Mg6 O8 2.155421 1_555
Mg7 O9 2.124872 1_555
Mg7 O4 2.137960 1_555
Mg7 O5 2.137960 1_555
Mg7 O1 2.156776 1_555
Mg7 O1 2.156776 1_556
Mg7 O11 2.165609 1_555
Mg8 O7 2.112236 1_545
Mg8 O6 2.112236 1_555
Mg8 O10 2.135059 1_555
Mg8 O2 2.153976 1_555
Mg8 O2 2.153976 1_556
Mg8 O8 2.155421 1_655
Mg9 O9 2.124872 1_655
Mg9 O6 2.137960 1_555
Mg9 O7 2.137960 1_555
Mg9 O3 2.156776 1_556
Mg9 O3 2.156776 1_555
Mg9 O11 2.165609 1_555
Mg10 O1 2.088351 1_555
Mg10 O14 2.130095 1_555
Mg10 O4 2.153441 1_554
Mg10 O4 2.153441 1_555
Mg10 O0 2.165527 1_555
Mg10 O12 2.180988 1_555
Mg11 O1 2.088351 1_555
Mg11 O15 2.130095 1_555
Mg11 O5 2.153441 1_555
Mg11 O5 2.153441 1_554
Mg11 O0 2.165527 1_565
Mg11 O13 2.180988 1_555
Mg12 O3 2.088351 1_555
Mg12 O14 2.130095 1_555
Mg12 O6 2.153441 1_555
Mg12 O6 2.153441 1_554
Mg12 O2 2.165527 1_555
Mg12 O12 2.180988 1_655
Mg13 O3 2.088351 1_555
Mg13 O15 2.130095 1_555
Mg13 O7 2.153441 1_555
Mg13 O7 2.153441 1_554
Mg13 O2 2.165527 1_565
Mg13 O13 2.180988 1_655
O0 Si0 2.079288 1_555
O2 Si0 2.079288 1_655
O8 Si0 2.152630 1_555
O8 Si0 2.152630 1_556
O12 Si0 1.876653 1_555
O13 Si0 1.876653 1_565
