# generated using pymatgen
data_FeH12C8S2(NO)2
_symmetry_space_group_name_H-M   'P 1'
_cell_length_a   5.83249636
_cell_length_b   8.14432379
_cell_length_c   8.24098585
_cell_angle_alpha   107.99417492
_cell_angle_beta   99.19670151
_cell_angle_gamma   96.05504261
_symmetry_Int_Tables_number   1
_chemical_formula_structural   FeH12C8S2(NO)2
_chemical_formula_sum   'Fe1 H12 C8 S2 N2 O2'
_cell_volume   362.49419028
_cell_formula_units_Z   1
loop_
 _symmetry_equiv_pos_site_id
 _symmetry_equiv_pos_as_xyz
  1  'x, y, z'
loop_
 _atom_site_type_symbol
 _atom_site_label
 _atom_site_symmetry_multiplicity
 _atom_site_fract_x
 _atom_site_fract_y
 _atom_site_fract_z
 _atom_site_occupancy
  Fe  Fe0  1  0.50000000  0.50000000  0.50000000  1
  H  H0  1  0.09083000  0.72177600  0.38551500  1
  H  H1  1  0.90917000  0.27822400  0.61448500  1
  H  H2  1  0.12718700  0.92803100  0.34957800  1
  H  H3  1  0.87281300  0.07196900  0.65042200  1
  H  H4  1  0.04575000  0.73352600  0.16979300  1
  H  H5  1  0.95425000  0.26647400  0.83020700  1
  H  H6  1  0.69408300  0.86384300  0.18379400  1
  H  H7  1  0.30591700  0.13615700  0.81620600  1
  H  H8  1  0.40741400  0.82143200  0.04921300  1
  H  H9  1  0.59258600  0.17856800  0.95078700  1
  H  H10  1  0.48993800  0.01447400  0.23147600  1
  H  H11  1  0.51006200  0.98552600  0.76852400  1
  C  C0  1  0.15354800  0.79064000  0.30254000  1
  C  C1  1  0.84645200  0.20936000  0.69746000  1
  C  C2  1  0.40672500  0.78261600  0.29307400  1
  C  C3  1  0.59327500  0.21738400  0.70692600  1
  C  C4  1  0.50928000  0.87583800  0.18384000  1
  C  C5  1  0.49072000  0.12416200  0.81616000  1
  C  C6  1  0.91694400  0.35152800  0.30850100  1
  C  C7  1  0.08305600  0.64847200  0.69149900  1
  S  S0  1  0.15793800  0.30227400  0.24222400  1
  S  S1  1  0.84206200  0.69772600  0.75777600  1
  N  N0  1  0.73964900  0.38468700  0.35429600  1
  N  N1  1  0.26035100  0.61531300  0.64570400  1
  O  O0  1  0.52995600  0.70289500  0.36979800  1
  O  O1  1  0.47004400  0.29710500  0.63020200  1
loop_
_geom_bond_atom_site_label_1
_geom_bond_atom_site_label_2
_geom_bond_distance
_geom_bond_site_symmetry_2
Fe0 N0 2.096232 1_555
Fe0 N1 2.096232 1_555
Fe0 O0 2.237608 1_555
Fe0 O1 2.237608 1_555
Fe0 S1 2.634428 1_555
Fe0 S0 2.634428 1_555
C0 H0 1.090670 1_555
C0 H4 1.101127 1_555
C0 H2 1.101510 1_555
C0 C2 1.498297 1_555
C1 H1 1.090670 1_555
C1 H5 1.101127 1_555
C1 H3 1.101510 1_555
C1 C3 1.498297 1_555
C2 O0 1.242881 1_555
C2 C4 1.497713 1_555
C3 O1 1.242881 1_555
C3 C5 1.497713 1_555
C4 H6 1.092545 1_555
C4 H10 1.099485 1_565
C4 H8 1.100118 1_555
C5 H7 1.092545 1_555
C5 H11 1.099485 1_545
C5 H9 1.100118 1_555
C6 N0 1.185476 1_555
C6 S0 1.632153 1_655
C7 N1 1.185476 1_555
C7 S1 1.632153 1_455
