# generated using pymatgen
data_La5B4Rh15
_symmetry_space_group_name_H-M   'P 1'
_cell_length_a   4.28986500
_cell_length_b   4.28986500
_cell_length_c   21.13354800
_cell_angle_alpha   90.00000000
_cell_angle_beta   90.00000000
_cell_angle_gamma   90.00000000
_symmetry_Int_Tables_number   1
_chemical_formula_structural   La5B4Rh15
_chemical_formula_sum   'La5 B4 Rh15'
_cell_volume   388.91945214
_cell_formula_units_Z   1
loop_
 _symmetry_equiv_pos_site_id
 _symmetry_equiv_pos_as_xyz
  1  'x, y, z'
loop_
 _atom_site_type_symbol
 _atom_site_label
 _atom_site_symmetry_multiplicity
 _atom_site_fract_x
 _atom_site_fract_y
 _atom_site_fract_z
 _atom_site_occupancy
  La  La0  1  0.00000000  0.00000000  0.90430500  1
  La  La1  1  0.00000000  0.00000000  0.09569500  1
  La  La2  1  0.00000000  0.00000000  0.29964400  1
  La  La3  1  0.00000000  0.00000000  0.50000000  1
  La  La4  1  0.00000000  0.00000000  0.70035600  1
  B  B0  1  0.50000000  0.50000000  0.19450900  1
  B  B1  1  0.50000000  0.50000000  0.39910400  1
  B  B2  1  0.50000000  0.50000000  0.60089600  1
  B  B3  1  0.50000000  0.50000000  0.80549100  1
  Rh  Rh0  1  0.50000000  0.50000000  0.90462400  1
  Rh  Rh1  1  0.50000000  0.50000000  0.09537600  1
  Rh  Rh2  1  0.50000000  0.50000000  0.29779400  1
  Rh  Rh3  1  0.50000000  0.50000000  0.50000000  1
  Rh  Rh4  1  0.50000000  0.50000000  0.70220600  1
  Rh  Rh5  1  0.50000000  0.00000000  0.00000000  1
  Rh  Rh6  1  0.50000000  0.00000000  0.19832300  1
  Rh  Rh7  1  0.50000000  0.00000000  0.39964600  1
  Rh  Rh8  1  0.50000000  0.00000000  0.60035400  1
  Rh  Rh9  1  0.50000000  0.00000000  0.80167700  1
  Rh  Rh10  1  0.00000000  0.50000000  0.00000000  1
  Rh  Rh11  1  0.00000000  0.50000000  0.19832300  1
  Rh  Rh12  1  0.00000000  0.50000000  0.39964600  1
  Rh  Rh13  1  0.00000000  0.50000000  0.60035400  1
  Rh  Rh14  1  0.00000000  0.50000000  0.80167700  1
loop_
_geom_bond_atom_site_label_1
_geom_bond_atom_site_label_2
_geom_bond_distance
_geom_bond_site_symmetry_2
La0 Rh5 2.948005 1_556
La0 Rh10 2.948005 1_546
La0 Rh10 2.948005 1_556
La0 Rh5 2.948005 1_456
La0 Rh0 3.033400 1_445
La0 Rh0 3.033400 1_555
La0 Rh0 3.033400 1_545
La0 Rh0 3.033400 1_455
La0 Rh9 3.050383 1_555
La0 Rh14 3.050383 1_555
La0 Rh9 3.050383 1_455
La0 Rh14 3.050383 1_545
La1 Rh5 2.948005 1_555
La1 Rh10 2.948005 1_555
La1 Rh5 2.948005 1_455
La1 Rh10 2.948005 1_545
La1 Rh1 3.033400 1_455
La1 Rh1 3.033400 1_555
La1 Rh1 3.033400 1_445
La1 Rh1 3.033400 1_545
La1 Rh11 3.050383 1_555
La1 Rh6 3.050383 1_555
La1 Rh6 3.050383 1_455
La1 Rh11 3.050383 1_545
La2 Rh12 3.011176 1_555
La2 Rh7 3.011176 1_455
La2 Rh12 3.011176 1_545
La2 Rh7 3.011176 1_555
La2 Rh6 3.030806 1_455
La2 Rh11 3.030806 1_545
La2 Rh6 3.030806 1_555
La2 Rh11 3.030806 1_555
La2 Rh2 3.033645 1_455
La2 Rh2 3.033645 1_555
La2 Rh2 3.033645 1_445
La2 Rh2 3.033645 1_545
La3 Rh12 3.016402 1_545
La3 Rh7 3.016402 1_555
La3 Rh12 3.016402 1_555
La3 Rh7 3.016402 1_455
La3 Rh13 3.016402 1_545
La3 Rh13 3.016402 1_555
La3 Rh8 3.016402 1_455
La3 Rh8 3.016402 1_555
La3 Rh3 3.033393 1_555
La3 Rh3 3.033393 1_545
La3 Rh3 3.033393 1_445
La3 Rh3 3.033393 1_455
La4 Rh8 3.011176 1_555
La4 Rh8 3.011176 1_455
La4 Rh13 3.011176 1_545
La4 Rh13 3.011176 1_555
La4 Rh14 3.030806 1_555
La4 Rh14 3.030806 1_545
La4 Rh9 3.030806 1_455
La4 Rh9 3.030806 1_555
La4 Rh4 3.033645 1_555
La4 Rh4 3.033645 1_455
La4 Rh4 3.033645 1_445
La4 Rh4 3.033645 1_545
B0 Rh1 2.095032 1_555
B0 Rh11 2.146446 1_655
B0 Rh6 2.146446 1_555
B0 Rh11 2.146446 1_555
B0 Rh6 2.146446 1_565
B0 Rh2 2.182779 1_555
B1 Rh3 2.132290 1_555
B1 Rh2 2.141040 1_555
B1 Rh7 2.144963 1_565
B1 Rh7 2.144963 1_555
B1 Rh12 2.144963 1_655
B1 Rh12 2.144963 1_555
B2 Rh3 2.132290 1_555
B2 Rh4 2.141040 1_555
B2 Rh8 2.144963 1_555
B2 Rh13 2.144963 1_555
B2 Rh13 2.144963 1_655
B2 Rh8 2.144963 1_565
B3 Rh0 2.095032 1_555
B3 Rh14 2.146446 1_655
B3 Rh9 2.146446 1_565
B3 Rh9 2.146446 1_555
B3 Rh14 2.146446 1_555
B3 Rh4 2.182779 1_555
