# generated using pymatgen
data_K2UF6
_symmetry_space_group_name_H-M   'P 1'
_cell_length_a   7.12893232
_cell_length_b   7.12893232
_cell_length_c   7.12893232
_cell_angle_alpha   146.39996020
_cell_angle_beta   129.51436178
_cell_angle_gamma   62.01810908
_symmetry_Int_Tables_number   1
_chemical_formula_structural   K2UF6
_chemical_formula_sum   'K2 U1 F6'
_cell_volume   153.10082733
_cell_formula_units_Z   1
loop_
 _symmetry_equiv_pos_site_id
 _symmetry_equiv_pos_as_xyz
  1  'x, y, z'
loop_
 _atom_site_type_symbol
 _atom_site_label
 _atom_site_symmetry_multiplicity
 _atom_site_fract_x
 _atom_site_fract_y
 _atom_site_fract_z
 _atom_site_occupancy
  K  K0  1  0.66721584  0.66721584  0.00000000  1
  K  K1  1  0.33278416  0.33278416  0.00000000  1
  U  U0  1  0.00000000  -0.00000000  0.00000000  1
  F  F0  1  0.63225691  0.85891434  0.77334357  1
  F  F1  1  0.20262222  0.50000000  0.70262222  1
  F  F2  1  0.91442923  0.14108566  0.77334357  1
  F  F3  1  0.08557077  0.85891434  0.22665643  1
  F  F4  1  0.79737778  0.50000000  0.29737778  1
  F  F5  1  0.36774309  0.14108566  0.22665643  1
loop_
_geom_bond_atom_site_label_1
_geom_bond_atom_site_label_2
_geom_bond_distance
_geom_bond_site_symmetry_2
F0 U0 2.207223 1_666
F0 K1 2.666436 1_566
F0 K1 2.666439 1_555
F0 K0 2.717910 1_556
F1 U0 2.400724 1_555
F1 U0 2.400724 1_566
F1 K0 2.728549 1_556
F1 K1 2.728549 1_556
F2 U0 2.207217 1_656
F2 K0 2.666440 1_545
F2 K0 2.666440 1_556
F2 K1 2.717914 1_656
F3 U0 2.207217 1_565
F3 K1 2.666440 1_566
F3 K1 2.666440 1_555
F3 K0 2.717914 1_455
F4 U0 2.400724 1_655
F4 U0 2.400724 1_666
F4 K0 2.728549 1_555
F4 K1 2.728549 1_555
F5 U0 2.207223 1_555
F5 K0 2.666436 1_545
F5 K0 2.666439 1_556
F5 K1 2.717910 1_555
