# generated using pymatgen
data_Nd7Co3
_symmetry_space_group_name_H-M   'P 1'
_cell_length_a   9.72989475
_cell_length_b   9.72992800
_cell_length_c   6.42067912
_cell_angle_alpha   90.00613813
_cell_angle_beta   89.99355257
_cell_angle_gamma   120.00571830
_symmetry_Int_Tables_number   1
_chemical_formula_structural   Nd7Co3
_chemical_formula_sum   'Nd14 Co6'
_cell_volume   526.38600732
_cell_formula_units_Z   2
loop_
 _symmetry_equiv_pos_site_id
 _symmetry_equiv_pos_as_xyz
  1  'x, y, z'
loop_
 _atom_site_type_symbol
 _atom_site_label
 _atom_site_symmetry_multiplicity
 _atom_site_fract_x
 _atom_site_fract_y
 _atom_site_fract_z
 _atom_site_occupancy
  Nd  Nd0  1  0.33326625  0.66667438  0.00719334  1
  Nd  Nd1  1  0.66671271  0.33325127  0.50716000  1
  Nd  Nd2  1  0.53806889  0.46192478  0.05950969  1
  Nd  Nd3  1  0.46196897  0.53803675  0.55953677  1
  Nd  Nd4  1  0.53810070  0.07629383  0.05933628  1
  Nd  Nd5  1  0.92372731  0.46190718  0.05918325  1
  Nd  Nd6  1  0.07632351  0.53814625  0.55929276  1
  Nd  Nd7  1  0.46186936  0.92369011  0.55914151  1
  Nd  Nd8  1  0.12531476  0.87471979  0.25738178  1
  Nd  Nd9  1  0.87471411  0.12533295  0.75730988  1
  Nd  Nd10  1  0.12530958  0.25062549  0.25717373  1
  Nd  Nd11  1  0.74935254  0.87469236  0.25720262  1
  Nd  Nd12  1  0.25061792  0.12531580  0.75719825  1
  Nd  Nd13  1  0.87468748  0.74935062  0.75723384  1
  Co  Co0  1  0.81369598  0.18625015  0.29069463  1
  Co  Co1  1  0.18624273  0.81370031  0.79057336  1
  Co  Co2  1  0.81358236  0.62732043  0.29120034  1
  Co  Co3  1  0.37273370  0.18642698  0.29121243  1
  Co  Co4  1  0.62730799  0.81359229  0.79123734  1
  Co  Co5  1  0.18640315  0.37274129  0.79123320  1
loop_
_geom_bond_atom_site_label_1
_geom_bond_atom_site_label_2
_geom_bond_distance
_geom_bond_site_symmetry_2
Co0 Nd4 2.770013 1_555
Co0 Nd5 2.770930 1_555
Co0 Nd11 2.780198 1_545
Co0 Nd10 2.780632 1_655
Co0 Nd1 2.840383 1_555
Co0 Nd9 3.167408 1_555
Co0 Nd7 3.531093 1_545
Co0 Nd6 3.532156 1_655
Co0 Nd9 3.575385 1_554
Co1 Nd6 2.769287 1_555
Co1 Nd7 2.770269 1_555
Co1 Nd13 2.780109 1_455
Co1 Nd12 2.780630 1_565
Co1 Nd0 2.841654 1_556
Co1 Nd8 3.168368 1_556
Co1 Nd5 3.531401 1_456
Co1 Nd4 3.532456 1_566
Co1 Nd8 3.574476 1_555
Co2 Nd2 2.770313 1_555
Co2 Nd5 2.771715 1_555
Co2 Nd11 2.781373 1_555
Co2 Nd8 2.781893 1_655
Co2 Nd1 2.839461 1_555
Co2 Nd13 3.163926 1_555
Co2 Nd3 3.529002 1_555
Co2 Nd6 3.531437 1_655
Co2 Nd13 3.579350 1_554
Co3 Nd2 2.770187 1_555
Co3 Nd4 2.770800 1_555
Co3 Nd10 2.781684 1_555
Co3 Nd8 2.781805 1_545
Co3 Nd1 2.838764 1_555
Co3 Nd12 3.163861 1_555
Co3 Nd3 3.529068 1_555
Co3 Nd7 3.530664 1_545
Co3 Nd12 3.579859 1_554
Co4 Nd3 2.770450 1_555
Co4 Nd7 2.772182 1_555
Co4 Nd13 2.781464 1_555
Co4 Nd9 2.782036 1_565
Co4 Nd0 2.839086 1_556
Co4 Nd11 3.163673 1_556
Co4 Nd2 3.529634 1_556
Co4 Nd4 3.530965 1_566
Co4 Nd11 3.579679 1_555
Co5 Nd3 2.770444 1_555
Co5 Nd6 2.771273 1_555
Co5 Nd9 2.781709 1_455
Co5 Nd12 2.781753 1_555
Co5 Nd0 2.838319 1_556
Co5 Nd10 3.163710 1_556
Co5 Nd2 3.529763 1_556
Co5 Nd5 3.530033 1_456
Co5 Nd10 3.580014 1_555
