# generated using pymatgen
data_CaEuV2O6
_symmetry_space_group_name_H-M   'P 1'
_cell_length_a   7.75050337
_cell_length_b   7.75050337
_cell_length_c   7.75050337
_cell_angle_alpha   90.00000000
_cell_angle_beta   90.00000000
_cell_angle_gamma   90.00000000
_symmetry_Int_Tables_number   1
_chemical_formula_structural   CaEuV2O6
_chemical_formula_sum   'Ca4 Eu4 V8 O24'
_cell_volume   465.57508187
_cell_formula_units_Z   4
loop_
 _symmetry_equiv_pos_site_id
 _symmetry_equiv_pos_as_xyz
  1  'x, y, z'
loop_
 _atom_site_type_symbol
 _atom_site_label
 _atom_site_symmetry_multiplicity
 _atom_site_fract_x
 _atom_site_fract_y
 _atom_site_fract_z
 _atom_site_occupancy
  Ca  Ca0  1  0.50000000  -0.00000000  0.50000000  1
  Ca  Ca1  1  0.50000000  0.50000000  0.00000000  1
  Ca  Ca2  1  0.50000000  0.50000000  0.50000000  1
  Ca  Ca3  1  0.00000000  0.50000000  0.50000000  1
  Eu  Eu0  1  0.50000000  -0.00000000  0.00000000  1
  Eu  Eu1  1  0.00000000  -0.00000000  0.00000000  1
  Eu  Eu2  1  0.00000000  -0.00000000  0.50000000  1
  Eu  Eu3  1  0.00000000  0.50000000  0.00000000  1
  V  V0  1  0.25137197  0.74862803  0.74862803  1
  V  V1  1  0.25137197  0.74862803  0.25137197  1
  V  V2  1  0.25137197  0.25137197  0.74862803  1
  V  V3  1  0.25137197  0.25137197  0.25137197  1
  V  V4  1  0.74862803  0.74862803  0.74862803  1
  V  V5  1  0.74862803  0.74862803  0.25137197  1
  V  V6  1  0.74862803  0.25137197  0.74862803  1
  V  V7  1  0.74862803  0.25137197  0.25137197  1
  O  O0  1  0.24866231  0.75133769  0.00000000  1
  O  O1  1  0.25010059  0.74989941  0.50000000  1
  O  O2  1  0.24866231  0.24866231  0.00000000  1
  O  O3  1  0.25010059  0.25010059  0.50000000  1
  O  O4  1  0.75133769  0.75133769  0.00000000  1
  O  O5  1  0.74989941  0.74989941  0.50000000  1
  O  O6  1  0.75133769  0.24866231  0.00000000  1
  O  O7  1  0.74989941  0.25010059  0.50000000  1
  O  O8  1  0.50000000  0.74989941  0.74989941  1
  O  O9  1  0.50000000  0.74989941  0.25010059  1
  O  O10  1  0.50000000  0.25010059  0.74989941  1
  O  O11  1  0.50000000  0.25010059  0.25010059  1
  O  O12  1  0.00000000  0.75133769  0.75133769  1
  O  O13  1  0.00000000  0.75133769  0.24866231  1
  O  O14  1  0.00000000  0.24866231  0.75133769  1
  O  O15  1  0.00000000  0.24866231  0.24866231  1
  O  O16  1  0.24866231  -0.00000000  0.75133769  1
  O  O17  1  0.24866231  -0.00000000  0.24866231  1
  O  O18  1  0.25010059  0.50000000  0.74989941  1
  O  O19  1  0.25010059  0.50000000  0.25010059  1
  O  O20  1  0.75133769  -0.00000000  0.75133769  1
  O  O21  1  0.75133769  -0.00000000  0.24866231  1
  O  O22  1  0.74989941  0.50000000  0.74989941  1
  O  O23  1  0.74989941  0.50000000  0.25010059  1
loop_
_geom_bond_atom_site_label_1
_geom_bond_atom_site_label_2
_geom_bond_distance
_geom_bond_site_symmetry_2
Ca0 O9 2.740217 1_545
Ca0 O1 2.740217 1_545
Ca0 O7 2.740217 1_555
Ca0 O5 2.740217 1_545
Ca0 O10 2.740217 1_555
Ca0 O8 2.740217 1_545
Ca0 O3 2.740217 1_555
Ca0 O11 2.740217 1_555
Ca0 O20 2.754879 1_555
Ca0 O17 2.754879 1_555
Ca0 O21 2.754879 1_555
Ca0 O16 2.754879 1_555
Ca1 O18 2.740217 1_554
Ca1 O10 2.740217 1_554
Ca1 O22 2.740217 1_554
Ca1 O19 2.740217 1_555
Ca1 O9 2.740217 1_555
Ca1 O8 2.740217 1_554
Ca1 O11 2.740217 1_555
Ca1 O23 2.740217 1_555
Ca1 O4 2.754879 1_555
Ca1 O2 2.754879 1_555
Ca1 O6 2.754879 1_555
Ca1 O0 2.754879 1_555
Ca2 O19 2.739114 1_555
Ca2 O3 2.739114 1_555
Ca2 O11 2.739114 1_555
Ca2 O10 2.739114 1_555
Ca2 O23 2.739114 1_555
Ca2 O1 2.739114 1_555
Ca2 O18 2.739114 1_555
Ca2 O7 2.739114 1_555
Ca2 O9 2.739114 1_555
Ca2 O5 2.739114 1_555
Ca2 O22 2.739114 1_555
Ca2 O8 2.739114 1_555
Ca3 O7 2.740217 1_455
Ca3 O23 2.740217 1_455
Ca3 O22 2.740217 1_455
Ca3 O19 2.740217 1_555
Ca3 O3 2.740217 1_555
Ca3 O1 2.740217 1_555
Ca3 O5 2.740217 1_455
Ca3 O18 2.740217 1_555
Ca3 O12 2.754879 1_555
Ca3 O14 2.754879 1_555
Ca3 O15 2.754879 1_555
Ca3 O13 2.754879 1_555
Eu0 O17 2.740256 1_555
Eu0 O20 2.740256 1_554
Eu0 O21 2.740256 1_555
Eu0 O6 2.740256 1_555
Eu0 O4 2.740256 1_545
Eu0 O2 2.740256 1_555
Eu0 O16 2.740256 1_554
Eu0 O0 2.740256 1_545
Eu0 O8 2.741319 1_544
Eu0 O9 2.741319 1_545
Eu0 O10 2.741319 1_554
Eu0 O11 2.741319 1_555
Eu1 O17 2.725555 1_555
Eu1 O15 2.725555 1_555
Eu1 O2 2.725555 1_555
Eu1 O20 2.725555 1_454
Eu1 O14 2.725555 1_554
Eu1 O21 2.725555 1_455
Eu1 O0 2.725555 1_545
Eu1 O6 2.725555 1_455
Eu1 O4 2.725555 1_445
Eu1 O13 2.725555 1_545
Eu1 O16 2.725555 1_554
Eu1 O12 2.725555 1_544
Eu2 O12 2.740256 1_545
Eu2 O17 2.740256 1_555
Eu2 O14 2.740256 1_555
Eu2 O15 2.740256 1_555
Eu2 O16 2.740256 1_555
Eu2 O20 2.740256 1_455
Eu2 O13 2.740256 1_545
Eu2 O21 2.740256 1_455
Eu2 O5 2.741319 1_445
Eu2 O1 2.741319 1_545
Eu2 O7 2.741319 1_455
Eu2 O3 2.741319 1_555
Eu3 O15 2.740256 1_555
Eu3 O12 2.740256 1_554
Eu3 O2 2.740256 1_555
Eu3 O4 2.740256 1_455
Eu3 O13 2.740256 1_555
Eu3 O0 2.740256 1_555
Eu3 O14 2.740256 1_554
Eu3 O6 2.740256 1_455
Eu3 O22 2.741319 1_454
Eu3 O23 2.741319 1_455
Eu3 O18 2.741319 1_554
Eu3 O19 2.741319 1_555
O0 V1 1.948486 1_555
O0 V0 1.948486 1_554
O1 V0 1.927043 1_555
O1 V1 1.927043 1_555
O2 V2 1.948486 1_554
O2 V3 1.948486 1_555
O3 V2 1.927043 1_555
O3 V3 1.927043 1_555
O4 V4 1.948486 1_554
O4 V5 1.948486 1_555
O5 V4 1.927043 1_555
O5 V5 1.927043 1_555
O6 V6 1.948486 1_554
O6 V7 1.948486 1_555
O7 V7 1.927043 1_555
O7 V6 1.927043 1_555
O8 V4 1.927043 1_555
O8 V0 1.927043 1_555
O9 V5 1.927043 1_555
O9 V1 1.927043 1_555
O10 V2 1.927043 1_555
O10 V6 1.927043 1_555
O11 V7 1.927043 1_555
O11 V3 1.927043 1_555
O12 V4 1.948486 1_455
O12 V0 1.948486 1_555
O13 V1 1.948486 1_555
O13 V5 1.948486 1_455
O14 V6 1.948486 1_455
O14 V2 1.948486 1_555
O15 V3 1.948486 1_555
O15 V7 1.948486 1_455
O16 V0 1.948486 1_545
O16 V2 1.948486 1_555
O17 V3 1.948486 1_555
O17 V1 1.948486 1_545
O18 V2 1.927043 1_555
O18 V0 1.927043 1_555
O19 V1 1.927043 1_555
O19 V3 1.927043 1_555
O20 V6 1.948486 1_555
O20 V4 1.948486 1_545
O21 V5 1.948486 1_545
O21 V7 1.948486 1_555
O22 V4 1.927043 1_555
O22 V6 1.927043 1_555
O23 V5 1.927043 1_555
O23 V7 1.927043 1_555
