# generated using pymatgen
data_LaGa3Co10
_symmetry_space_group_name_H-M   'P 1'
_cell_length_a   8.14038140
_cell_length_b   8.10459569
_cell_length_c   8.00218785
_cell_angle_alpha   60.71197020
_cell_angle_beta   60.26600164
_cell_angle_gamma   59.02202815
_symmetry_Int_Tables_number   1
_chemical_formula_structural   LaGa3Co10
_chemical_formula_sum   'La2 Ga6 Co20'
_cell_volume   373.13699145
_cell_formula_units_Z   2
loop_
 _symmetry_equiv_pos_site_id
 _symmetry_equiv_pos_as_xyz
  1  'x, y, z'
loop_
 _atom_site_type_symbol
 _atom_site_label
 _atom_site_symmetry_multiplicity
 _atom_site_fract_x
 _atom_site_fract_y
 _atom_site_fract_z
 _atom_site_occupancy
  La  La0  1  0.75174200  0.75174200  0.74825800  1
  La  La1  1  0.25174200  0.25174200  0.24825800  1
  Ga  Ga0  1  0.55183400  0.19715900  0.44816600  1
  Ga  Ga1  1  0.19715900  0.55183400  0.80284100  1
  Ga  Ga2  1  0.94387900  0.29798000  0.70202000  1
  Ga  Ga3  1  0.29798000  0.94387900  0.05612100  1
  Ga  Ga4  1  0.44617500  0.80134600  0.55382500  1
  Ga  Ga5  1  0.80134600  0.44617500  0.19865400  1
  Co  Co0  1  0.05968300  0.93468800  0.70224400  1
  Co  Co1  1  0.93468800  0.05968300  0.30338500  1
  Co  Co2  1  0.56295800  0.43562700  0.80089300  1
  Co  Co3  1  0.43562700  0.56295800  0.20052200  1
  Co  Co4  1  0.79947800  0.19910700  0.56437300  1
  Co  Co5  1  0.19910700  0.79947800  0.43704200  1
  Co  Co6  1  0.69661500  0.29775600  0.06531200  1
  Co  Co7  1  0.29775600  0.69661500  0.94031700  1
  Co  Co8  1  0.99775800  0.99775800  0.00224200  1
  Co  Co9  1  0.49888500  0.49888500  0.50111500  1
  Co  Co10  1  0.44790000  0.20331400  0.79668600  1
  Co  Co11  1  0.20331400  0.44790000  0.55210000  1
  Co  Co12  1  0.93602500  0.71531800  0.06397500  1
  Co  Co13  1  0.71531800  0.93602500  0.28468200  1
  Co  Co14  1  0.56084800  0.79895700  0.20104300  1
  Co  Co15  1  0.79895700  0.56084800  0.43915200  1
  Co  Co16  1  0.06113400  0.28947000  0.93886600  1
  Co  Co17  1  0.28947000  0.06113400  0.71053000  1
  Co  Co18  1  0.05705000  0.70557200  0.29442800  1
  Co  Co19  1  0.70557200  0.05705000  0.94295000  1
loop_
_geom_bond_atom_site_label_1
_geom_bond_atom_site_label_2
_geom_bond_distance
_geom_bond_site_symmetry_2
Ga0 La0 3.285404 1_545
Ga0 La1 3.285404 1_555
Ga1 La0 3.285404 1_455
Ga1 La1 3.285404 1_556
Ga2 La0 3.308135 1_555
Ga2 La1 3.308135 1_655
Ga3 La0 3.308135 1_554
Ga3 La1 3.308135 1_565
Ga4 La0 3.311696 1_555
Ga4 La1 3.311696 1_565
Ga5 La0 3.311696 1_554
Ga5 La1 3.311696 1_655
Co0 Co5 2.366110 1_555
Co0 Co4 2.372422 1_465
Co0 Co8 2.452226 1_456
Co0 Ga1 2.530501 1_555
Co0 Co19 2.534062 1_465
Co0 Co12 2.543603 1_456
Co0 Ga4 2.554629 1_555
Co0 Ga2 2.587865 1_465
Co0 Co17 2.591603 1_565
Co0 Co7 2.706427 1_555
Co0 La0 3.315749 1_455
Co0 La1 3.407800 1_565
Co1 Co4 2.366110 1_555
Co1 Co5 2.372422 1_645
Co1 Co8 2.452226 1_545
Co1 Ga0 2.530501 1_555
Co1 Co18 2.534062 1_645
Co1 Co13 2.543603 1_545
Co1 Ga5 2.554629 1_555
Co1 Ga3 2.587865 1_645
Co1 Co16 2.591603 1_654
Co1 Co6 2.706427 1_555
Co1 La0 3.315749 1_545
Co1 La1 3.407800 1_655
Co2 Co7 2.366110 1_555
Co2 Co6 2.372422 1_556
Co2 Co9 2.460097 1_555
Co2 Ga2 2.520852 1_555
Co2 Ga4 2.613078 1_555
Co2 Ga1 2.614490 1_555
Co2 Co4 2.664473 1_555
Co2 La1 3.335458 1_556
Co2 La0 3.384966 1_555
Co3 Co6 2.366110 1_555
Co3 Co7 2.372422 1_554
Co3 Co9 2.460097 1_555
Co3 Ga3 2.520852 1_555
Co3 Ga5 2.613078 1_555
Co3 Ga0 2.614490 1_555
Co3 Co5 2.664473 1_555
Co3 La1 3.335458 1_555
Co3 La0 3.384966 1_554
Co4 Co9 2.460097 1_555
Co4 Ga2 2.520852 1_555
Co4 Ga5 2.613078 1_555
Co4 Ga0 2.614490 1_555
Co4 La0 3.335458 1_545
Co4 La1 3.384966 1_655
Co5 Co9 2.460097 1_555
Co5 Ga3 2.520852 1_555
Co5 Ga4 2.613078 1_555
Co5 Ga1 2.614490 1_555
Co5 La0 3.335458 1_455
Co5 La1 3.384966 1_565
Co6 Co8 2.452226 1_545
Co6 Ga0 2.530501 1_555
Co6 Ga5 2.554629 1_555
Co6 Ga2 2.587865 1_554
Co6 La1 3.315749 1_555
Co6 La0 3.407800 1_554
Co7 Co8 2.452226 1_456
Co7 Ga1 2.530501 1_555
Co7 Ga4 2.554629 1_555
Co7 Ga3 2.587865 1_556
Co7 La1 3.315749 1_556
Co7 La0 3.407800 1_555
Co8 Ga3 2.472197 1_655
Co8 Ga2 2.472197 1_564
Co9 Ga0 2.468338 1_555
Co9 Ga1 2.468338 1_555
Co9 Ga5 2.473935 1_555
Co9 Ga4 2.473935 1_555
Co10 Co19 2.386004 1_555
Co10 Co9 2.451754 1_555
Co10 Ga3 2.465324 1_546
Co10 Ga0 2.499693 1_555
Co10 Ga1 2.499693 1_555
Co10 Co2 2.516339 1_555
Co10 Co4 2.516339 1_555
Co10 Co16 2.579831 1_555
Co10 Co17 2.579831 1_555
Co10 Co11 2.780467 1_555
Co10 La0 3.283363 1_545
Co10 La1 3.283363 1_556
Co11 Co18 2.386004 1_555
Co11 Co9 2.451754 1_555
Co11 Ga2 2.465324 1_455
Co11 Ga1 2.499693 1_555
Co11 Ga0 2.499693 1_555
Co11 Co5 2.516339 1_555
Co11 Co3 2.516339 1_555
Co11 Co17 2.579831 1_555
Co11 Co16 2.579831 1_555
Co11 La0 3.283363 1_455
Co11 La1 3.283363 1_555
Co12 Co8 2.359644 1_555
Co12 Co18 2.440740 1_655
Co12 Co19 2.440740 1_564
Co12 Ga1 2.458489 1_654
Co12 Ga5 2.472081 1_555
Co12 Co13 2.486334 1_555
Co12 Co14 2.502681 1_555
Co12 Co15 2.502681 1_555
Co12 Co7 2.543603 1_654
Co12 La0 3.360695 1_554
Co12 La1 3.360695 1_655
Co13 Co8 2.359644 1_555
Co13 Co19 2.440740 1_564
Co13 Co18 2.440740 1_655
Co13 Ga0 2.458489 1_565
Co13 Ga4 2.472081 1_555
Co13 Co14 2.502681 1_555
Co13 Co15 2.502681 1_555
Co13 Co6 2.543603 1_565
Co13 La0 3.360695 1_555
Co13 La1 3.360695 1_565
Co14 Ga3 2.417645 1_555
Co14 Co19 2.434186 1_564
Co14 Ga4 2.502418 1_555
Co14 Ga5 2.502418 1_555
Co14 Co9 2.506501 1_555
Co14 Co5 2.591615 1_555
Co14 Co3 2.591615 1_555
Co14 Co15 2.706836 1_555
Co14 La0 3.293727 1_554
Co14 La1 3.293727 1_565
Co15 Ga2 2.417645 1_555
Co15 Co18 2.434186 1_655
Co15 Ga5 2.502418 1_555
Co15 Ga4 2.502418 1_555
Co15 Co9 2.506501 1_555
Co15 Co4 2.591615 1_555
Co15 Co2 2.591615 1_555
Co15 La0 3.293727 1_555
Co15 La1 3.293727 1_655
Co16 Ga5 2.421648 1_456
Co16 Ga1 2.428159 1_555
Co16 Co8 2.436347 1_446
Co16 Ga2 2.471186 1_455
Co16 Ga3 2.471186 1_546
Co16 Co17 2.572277 1_555
Co16 Co6 2.591603 1_456
Co16 La0 3.348461 1_455
Co16 La1 3.348461 1_556
Co17 Ga4 2.421648 1_545
Co17 Ga0 2.428159 1_555
Co17 Co8 2.436347 1_446
Co17 Ga2 2.471186 1_455
Co17 Ga3 2.471186 1_546
Co17 Co7 2.591603 1_545
Co17 La1 3.348461 1_555
Co17 La0 3.348461 1_545
Co18 Co8 2.415181 1_455
Co18 Co5 2.506739 1_555
Co18 Co3 2.506739 1_555
Co18 Co7 2.534062 1_554
Co18 Ga3 2.792706 1_555
Co18 La1 3.305258 1_555
Co18 La0 3.305258 1_455
Co19 Co8 2.415181 1_546
Co19 Co4 2.506739 1_555
Co19 Co2 2.506739 1_555
Co19 Co6 2.534062 1_556
Co19 Ga2 2.792706 1_555
Co19 La0 3.305258 1_545
Co19 La1 3.305258 1_556
