# generated using pymatgen
data_MgPd2Au
_symmetry_space_group_name_H-M   'P 1'
_cell_length_a   10.76006135
_cell_length_b   10.76006135
_cell_length_c   10.76006135
_cell_angle_alpha   123.81815354
_cell_angle_beta   118.71438499
_cell_angle_gamma   87.87942428
_symmetry_Int_Tables_number   1
_chemical_formula_structural   MgPd2Au
_chemical_formula_sum   'Mg1 Pd2 Au1'
_cell_volume   861.15920590
_cell_formula_units_Z   1
loop_
 _symmetry_equiv_pos_site_id
 _symmetry_equiv_pos_as_xyz
  1  'x, y, z'
loop_
 _atom_site_type_symbol
 _atom_site_label
 _atom_site_symmetry_multiplicity
 _atom_site_fract_x
 _atom_site_fract_y
 _atom_site_fract_z
 _atom_site_occupancy
  Mg  Mg0  1  0.00000000  0.00000000  0.00000000  1
  Pd  Pd0  1  0.00000000  0.24565000  0.24565000  1
  Pd  Pd1  1  0.00000000  0.75435000  0.75435000  1
  Au  Au0  1  0.00000000  0.50000000  0.50000000  1
loop_
_geom_bond_atom_site_label_1
_geom_bond_atom_site_label_2
_geom_bond_distance
_geom_bond_site_symmetry_2
Mg0 Pd1 2.489227 1_544
Mg0 Pd0 2.489227 1_555
Au0 Pd0 2.577386 1_555
Au0 Pd1 2.577386 1_555
