# generated using pymatgen
data_Mg5Si6
_symmetry_space_group_name_H-M   'P 1'
_cell_length_a   4.32446000
_cell_length_b   6.99980414
_cell_length_c   13.95147285
_cell_angle_alpha   88.86885090
_cell_angle_beta   81.32319117
_cell_angle_gamma   87.41750205
_symmetry_Int_Tables_number   1
_chemical_formula_structural   Mg5Si6
_chemical_formula_sum   'Mg10 Si12'
_cell_volume   417.02306235
_cell_formula_units_Z   2
loop_
 _symmetry_equiv_pos_site_id
 _symmetry_equiv_pos_as_xyz
  1  'x, y, z'
loop_
 _atom_site_type_symbol
 _atom_site_label
 _atom_site_symmetry_multiplicity
 _atom_site_fract_x
 _atom_site_fract_y
 _atom_site_fract_z
 _atom_site_occupancy
  Mg  Mg0  1  0.37132900  0.80845200  0.76017300  1
  Mg  Mg1  1  0.62867100  0.19154800  0.23982700  1
  Mg  Mg2  1  0.21820200  0.00317400  0.09598600  1
  Mg  Mg3  1  0.03831100  0.36191700  0.39763700  1
  Mg  Mg4  1  0.96168900  0.63808300  0.60236300  1
  Mg  Mg5  1  0.78179800  0.99682600  0.90401400  1
  Mg  Mg6  1  0.14756100  0.50958100  0.16528900  1
  Mg  Mg7  1  0.11008600  0.87560900  0.35123200  1
  Mg  Mg8  1  0.88991400  0.12439100  0.64876800  1
  Mg  Mg9  1  0.85243900  0.49041900  0.83471100  1
  Si  Si0  1  0.30806500  0.17918900  0.80699900  1
  Si  Si1  1  0.44863900  0.43402800  0.69769600  1
  Si  Si2  1  0.55136100  0.56597200  0.30230400  1
  Si  Si3  1  0.69193500  0.82081100  0.19300100  1
  Si  Si4  1  0.25834000  0.69168700  0.95152900  1
  Si  Si5  1  0.43388400  0.89917400  0.56716700  1
  Si  Si6  1  0.41736200  0.35697600  0.53725400  1
  Si  Si7  1  0.74166000  0.30831300  0.04847100  1
  Si  Si8  1  0.28173600  0.33396700  0.96060900  1
  Si  Si9  1  0.58263800  0.64302400  0.46274600  1
  Si  Si10  1  0.56611600  0.10082600  0.43283300  1
  Si  Si11  1  0.71826400  0.66603300  0.03939100  1
loop_
_geom_bond_atom_site_label_1
_geom_bond_atom_site_label_2
_geom_bond_distance
_geom_bond_site_symmetry_2
Mg0 Si0 2.680511 1_565
Mg0 Si5 2.730452 1_555
Mg0 Si4 2.755054 1_555
Mg0 Si1 2.768382 1_555
Mg1 Si3 2.680511 1_545
Mg1 Si10 2.730452 1_555
Mg1 Si7 2.755054 1_555
Mg1 Si2 2.768382 1_555
Mg2 Si3 2.811578 1_445
Mg2 Si3 2.862011 1_545
Mg2 Si8 2.955043 1_554
Mg2 Si4 2.979878 1_544
Mg2 Si7 3.034474 1_455
Mg2 Si11 3.157145 1_545
Mg2 Si7 3.170620 1_555
Mg3 Si6 2.727254 1_555
Mg3 Si10 2.783746 1_455
Mg3 Si9 2.785867 1_455
Mg3 Si2 2.837579 1_555
Mg3 Si10 2.952572 1_555
Mg3 Si2 2.956779 1_455
Mg3 Si6 3.071413 1_455
Mg4 Si9 2.727254 1_555
Mg4 Si5 2.783746 1_655
Mg4 Si6 2.785867 1_655
Mg4 Si1 2.837579 1_555
Mg4 Si5 2.952572 1_555
Mg4 Si1 2.956779 1_655
Mg4 Si9 3.071413 1_655
Mg5 Si0 2.811578 1_665
Mg5 Si0 2.862011 1_565
Mg5 Si11 2.955043 1_556
Mg5 Si7 2.979878 1_566
Mg5 Si4 3.034474 1_655
Mg5 Si8 3.157145 1_565
Mg5 Si4 3.170620 1_555
Mg6 Si2 2.821028 1_555
Mg6 Si3 2.862581 1_455
Mg6 Si11 2.907867 1_455
Mg6 Si7 2.983079 1_455
Mg6 Si2 2.984672 1_455
Mg6 Si11 3.038929 1_555
Mg6 Si8 3.094597 1_554
Mg6 Si7 3.121330 1_555
Mg6 Si4 3.197212 1_554
Mg7 Si2 2.845658 1_555
Mg7 Si10 2.871178 1_465
Mg7 Si10 2.949388 1_565
Mg7 Si9 3.072065 1_455
Mg7 Si3 3.096880 1_455
Mg7 Si3 3.101954 1_555
Mg7 Si9 3.131530 1_555
Mg8 Si1 2.845658 1_555
Mg8 Si5 2.871178 1_645
Mg8 Si5 2.949388 1_545
Mg8 Si6 3.072065 1_655
Mg8 Si0 3.096880 1_655
Mg8 Si0 3.101954 1_555
Mg8 Si6 3.131530 1_555
Mg9 Si1 2.821028 1_555
Mg9 Si0 2.862581 1_655
Mg9 Si8 2.907867 1_655
Mg9 Si4 2.983079 1_655
Mg9 Si1 2.984672 1_655
Mg9 Si8 3.038929 1_555
Mg9 Si11 3.094597 1_556
Mg9 Si4 3.121330 1_555
Mg9 Si7 3.197212 1_556
Si0 Si1 2.363817 1_555
Si0 Si8 2.405515 1_555
Si1 Si6 2.337782 1_555
Si2 Si9 2.337782 1_555
Si2 Si3 2.363817 1_555
Si4 Si8 2.502931 1_555
Si5 Si9 2.338255 1_555
Si6 Si9 2.328763 1_555
Si7 Si8 2.480903 1_654
Si7 Si8 2.487044 1_554
Si10 Si6 2.338255 1_555
Si10 Si5 2.340255 1_545
Si11 Si3 2.405515 1_555
Si11 Si4 2.480903 1_654
Si11 Si4 2.487044 1_554
Si11 Si7 2.502931 1_555
