# generated using pymatgen
data_Zr(US2)3
_symmetry_space_group_name_H-M   'P 1'
_cell_length_a   3.69927300
_cell_length_b   10.50610000
_cell_length_c   10.39104600
_cell_angle_alpha   90.00000000
_cell_angle_beta   90.00000000
_cell_angle_gamma   90.00000000
_symmetry_Int_Tables_number   1
_chemical_formula_structural   Zr(US2)3
_chemical_formula_sum   'Zr2 U6 S12'
_cell_volume   403.84729688
_cell_formula_units_Z   2
loop_
 _symmetry_equiv_pos_site_id
 _symmetry_equiv_pos_as_xyz
  1  'x, y, z'
loop_
 _atom_site_type_symbol
 _atom_site_label
 _atom_site_symmetry_multiplicity
 _atom_site_fract_x
 _atom_site_fract_y
 _atom_site_fract_z
 _atom_site_occupancy
  Zr  Zr0  1  0.75000000  0.47281800  0.69257700  1
  Zr  Zr1  1  0.75000000  0.02718200  0.19257700  1
  U  U0  1  0.25000000  0.50789400  0.31104000  1
  U  U1  1  0.25000000  0.99210600  0.81104100  1
  U  U2  1  0.25000000  0.17887900  0.48525900  1
  U  U3  1  0.25000000  0.32112100  0.98525900  1
  U  U4  1  0.75000000  0.81427400  0.51155000  1
  U  U5  1  0.75000000  0.68572600  0.01155000  1
  S  S0  1  0.25000000  0.29387900  0.72420000  1
  S  S1  1  0.25000000  0.20612100  0.22420000  1
  S  S2  1  0.75000000  0.69661900  0.27762300  1
  S  S3  1  0.75000000  0.80338100  0.77762300  1
  S  S4  1  0.25000000  0.62246800  0.55857800  1
  S  S5  1  0.25000000  0.87753200  0.05857800  1
  S  S6  1  0.75000000  0.37088800  0.45180000  1
  S  S7  1  0.75000000  0.12911200  0.95180000  1
  S  S8  1  0.75000000  0.05365200  0.62363900  1
  S  S9  1  0.75000000  0.44634800  0.12363900  1
  S  S10  1  0.25000000  0.94644900  0.36373200  1
  S  S11  1  0.25000000  0.55355100  0.86373200  1
loop_
_geom_bond_atom_site_label_1
_geom_bond_atom_site_label_2
_geom_bond_distance
_geom_bond_site_symmetry_2
S0 Zr0 2.657696 1_455
S0 Zr0 2.657696 1_555
S0 U3 2.727733 1_555
S0 U2 2.761210 1_555
S0 U1 3.296372 1_545
S1 Zr1 2.657696 1_555
S1 Zr1 2.657696 1_455
S1 U2 2.727733 1_555
S1 U3 2.761210 1_554
S1 U0 3.296369 1_555
S2 U4 2.726987 1_555
S2 U0 2.733694 1_555
S2 U0 2.733694 1_655
S2 U5 2.767144 1_555
S3 U5 2.726987 1_556
S3 U1 2.733695 1_555
S3 U1 2.733695 1_655
S3 U4 2.767144 1_555
S4 U4 2.778617 1_455
S4 U4 2.778617 1_555
S4 Zr0 2.798542 1_555
S4 Zr0 2.798542 1_455
S4 U0 2.839905 1_555
S5 U5 2.778617 1_455
S5 U5 2.778617 1_555
S5 Zr1 2.798542 1_565
S5 Zr1 2.798542 1_465
S5 U1 2.839895 1_554
S6 Zr0 2.721475 1_555
S6 U2 2.758875 1_555
S6 U2 2.758875 1_655
S6 U0 2.762671 1_655
S6 U0 2.762671 1_555
S7 Zr1 2.721475 1_556
S7 U3 2.758875 1_555
S7 U3 2.758875 1_655
S7 U1 2.762665 1_645
S7 U1 2.762665 1_545
S8 U2 2.686946 1_655
S8 U2 2.686946 1_555
S8 U1 2.762471 1_545
S8 U1 2.762471 1_645
S8 U4 2.771542 1_545
S9 U3 2.686946 1_654
S9 U3 2.686946 1_554
S9 U0 2.762464 1_555
S9 U0 2.762464 1_655
S9 U5 2.771542 1_555
S10 Zr1 2.702512 1_465
S10 Zr1 2.702512 1_565
S10 U2 2.749124 1_565
S10 U4 2.776460 1_555
S10 U4 2.776460 1_455
S11 Zr0 2.702512 1_555
S11 Zr0 2.702512 1_455
S11 U3 2.749124 1_555
S11 U5 2.776460 1_556
S11 U5 2.776460 1_456
