# generated using pymatgen
data_YGaIr
_symmetry_space_group_name_H-M   'P 1'
_cell_length_a   4.31124174
_cell_length_b   6.83240243
_cell_length_c   7.72520084
_cell_angle_alpha   90.00000000
_cell_angle_beta   90.00000000
_cell_angle_gamma   90.00000000
_symmetry_Int_Tables_number   1
_chemical_formula_structural   YGaIr
_chemical_formula_sum   'Y4 Ga4 Ir4'
_cell_volume   227.55458620
_cell_formula_units_Z   4
loop_
 _symmetry_equiv_pos_site_id
 _symmetry_equiv_pos_as_xyz
  1  'x, y, z'
loop_
 _atom_site_type_symbol
 _atom_site_label
 _atom_site_symmetry_multiplicity
 _atom_site_fract_x
 _atom_site_fract_y
 _atom_site_fract_z
 _atom_site_occupancy
  Y  Y0  1  0.25000000  0.97854318  0.31113529  1
  Y  Y1  1  0.25000000  0.47854318  0.18886471  1
  Y  Y2  1  0.75000000  0.02145682  0.68886471  1
  Y  Y3  1  0.75000000  0.52145682  0.81113529  1
  Ga  Ga0  1  0.25000000  0.34313321  0.56922453  1
  Ga  Ga1  1  0.25000000  0.84313321  0.93077547  1
  Ga  Ga2  1  0.75000000  0.65686679  0.43077547  1
  Ga  Ga3  1  0.75000000  0.15686679  0.06922453  1
  Ir  Ir0  1  0.25000000  0.22803713  0.89040573  1
  Ir  Ir1  1  0.25000000  0.72803713  0.60959427  1
  Ir  Ir2  1  0.75000000  0.77196287  0.10959427  1
  Ir  Ir3  1  0.75000000  0.27196287  0.39040573  1
loop_
_geom_bond_atom_site_label_1
_geom_bond_atom_site_label_2
_geom_bond_distance
_geom_bond_site_symmetry_2
Ga0 Ir0 2.602825 1_555
Ga0 Ir3 2.606041 1_555
Ga0 Ir3 2.606041 1_455
Ga0 Ir1 2.648246 1_555
Ga0 Y1 3.080566 1_555
Ga0 Y3 3.102192 1_455
Ga0 Y3 3.102192 1_555
Ga0 Y0 3.190676 1_545
Ga0 Y2 3.214242 1_455
Ga0 Y2 3.214242 1_555
Ga1 Ir1 2.602825 1_555
Ga1 Ir2 2.606041 1_556
Ga1 Ir2 2.606041 1_456
Ga1 Ir0 2.648246 1_565
Ga1 Y0 3.080566 1_556
Ga1 Y2 3.102192 1_465
Ga1 Y2 3.102192 1_565
Ga1 Y1 3.190676 1_556
Ga1 Y3 3.214242 1_455
Ga1 Y3 3.214242 1_555
Ga2 Ir2 2.602825 1_555
Ga2 Ir1 2.606041 1_555
Ga2 Ir1 2.606041 1_655
Ga2 Ir3 2.648246 1_555
Ga2 Y3 3.080566 1_555
Ga2 Y1 3.102192 1_555
Ga2 Y1 3.102192 1_655
Ga2 Y2 3.190676 1_565
Ga2 Y0 3.214242 1_555
Ga2 Y0 3.214242 1_655
Ga3 Ir3 2.602825 1_555
Ga3 Ir0 2.606041 1_554
Ga3 Ir0 2.606041 1_654
Ga3 Ir2 2.648246 1_545
Ga3 Y2 3.080566 1_554
Ga3 Y0 3.102192 1_645
Ga3 Y0 3.102192 1_545
Ga3 Y3 3.190676 1_554
Ga3 Y1 3.214242 1_555
Ga3 Y1 3.214242 1_655
Ir0 Y1 2.871494 1_556
Ir0 Y3 3.006789 1_555
Ir0 Y3 3.006789 1_455
Ir0 Y2 3.010472 1_455
Ir0 Y2 3.010472 1_555
Ir1 Y0 2.871494 1_555
Ir1 Y2 3.006789 1_465
Ir1 Y2 3.006789 1_565
Ir1 Y3 3.010472 1_455
Ir1 Y3 3.010472 1_555
Ir2 Y3 2.871494 1_554
Ir2 Y1 3.006789 1_555
Ir2 Y1 3.006789 1_655
Ir2 Y0 3.010472 1_655
Ir2 Y0 3.010472 1_555
Ir3 Y2 2.871494 1_555
Ir3 Y0 3.006789 1_545
Ir3 Y0 3.006789 1_645
Ir3 Y1 3.010472 1_555
Ir3 Y1 3.010472 1_655
