# generated using pymatgen
data_Sr2YAlFe2O7
_symmetry_space_group_name_H-M   'P 1'
_cell_length_a   11.77388344
_cell_length_b   11.77388344
_cell_length_c   11.77388368
_cell_angle_alpha   152.48682894
_cell_angle_beta   151.18048336
_cell_angle_gamma   40.26642366
_symmetry_Int_Tables_number   1
_chemical_formula_structural   Sr2YAlFe2O7
_chemical_formula_sum   'Sr4 Y2 Al2 Fe4 O14'
_cell_volume   362.73513779
_cell_formula_units_Z   2
loop_
 _symmetry_equiv_pos_site_id
 _symmetry_equiv_pos_as_xyz
  1  'x, y, z'
loop_
 _atom_site_type_symbol
 _atom_site_label
 _atom_site_symmetry_multiplicity
 _atom_site_fract_x
 _atom_site_fract_y
 _atom_site_fract_z
 _atom_site_occupancy
  Sr  Sr0  1  0.81507400  0.83432100  0.96072300  1
  Sr  Sr1  1  0.18492600  0.14564900  0.01924600  1
  Sr  Sr2  1  0.62640300  0.64564900  0.96072300  1
  Sr  Sr3  1  0.37359700  0.33432100  0.01924600  1
  Y  Y0  1  0.50000000  0.49689300  0.99689300  1
  Y  Y1  1  0.00000000  0.99689300  0.99689300  1
  Al  Al0  1  0.17115500  0.75304300  0.42419800  1
  Al  Al1  1  0.82884500  0.25304300  0.58188800  1
  Fe  Fe0  1  0.92454900  0.40556600  0.49449700  1
  Fe  Fe1  1  0.07545100  0.56994800  0.48101700  1
  Fe  Fe2  1  0.58893100  0.06994800  0.49449700  1
  Fe  Fe3  1  0.41106900  0.90556600  0.48101700  1
  O  O0  1  0.92062300  0.56251800  0.98314100  1
  O  O1  1  0.07937700  0.06251800  0.64189500  1
  O  O2  1  0.73680200  0.69834100  0.56421400  1
  O  O3  1  0.26319800  0.82741300  0.96154000  1
  O  O4  1  0.36587300  0.32741300  0.56421400  1
  O  O5  1  0.63412700  0.19834100  0.96154000  1
  O  O6  1  0.12633900  0.12275500  0.39184500  1
  O  O7  1  0.87366100  0.26550600  0.99641600  1
  O  O8  1  0.76909000  0.76550600  0.39184500  1
  O  O9  1  0.23091000  0.62275500  0.99641600  1
  O  O10  1  0.38223900  0.76807800  0.51221100  1
  O  O11  1  0.61776100  0.12997100  0.38583800  1
  O  O12  1  0.24413300  0.62997100  0.51221100  1
  O  O13  1  0.75586700  0.26807800  0.38583800  1
loop_
_geom_bond_atom_site_label_1
_geom_bond_atom_site_label_2
_geom_bond_distance
_geom_bond_site_symmetry_2
Al0 O10 1.764930 1_555
Al0 O12 1.764942 1_555
Al0 O1 1.814474 1_565
Al0 O0 1.814814 1_454
Al1 O11 1.764931 1_555
Al1 O13 1.764942 1_555
Al1 O0 1.814474 1_555
Al1 O1 1.814814 1_655
Fe0 O2 1.993608 1_555
Fe0 O6 2.003232 1_655
Fe0 O9 2.095722 1_655
Fe0 O13 2.232055 1_555
Fe0 O5 2.235450 1_554
Fe1 O3 1.993613 1_555
Fe1 O7 2.003233 1_454
Fe1 O8 2.095722 1_455
Fe1 O12 2.232055 1_555
Fe1 O4 2.235449 1_555
Fe2 O4 1.993610 1_555
Fe2 O8 2.003232 1_545
Fe2 O7 2.095722 1_555
Fe2 O11 2.232065 1_555
Fe2 O3 2.235452 1_544
Fe3 O5 1.993610 1_565
Fe3 O9 2.003233 1_554
Fe3 O6 2.095722 1_565
Fe3 O10 2.232065 1_555
Fe3 O2 2.235455 1_555
O0 Sr2 2.590261 1_555
O0 Sr0 2.590273 1_555
O1 Sr1 2.590261 1_556
O1 Sr3 2.590270 1_556
O2 Y1 2.260130 1_655
O2 Sr0 2.581065 1_555
O2 Y0 2.715190 1_554
O2 Sr3 2.989355 1_555
O3 Y1 2.260127 1_555
O3 Sr1 2.581071 1_566
O3 Y0 2.715192 1_555
O3 Sr2 2.989365 1_555
O4 Y0 2.260137 1_555
O4 Sr2 2.581065 1_555
O4 Y1 2.715195 1_544
O4 Sr1 2.989355 1_555
O5 Y0 2.260137 1_555
O5 Sr3 2.581058 1_556
O5 Y1 2.715195 1_645
O5 Sr0 2.989344 1_545
O6 Y1 2.247745 1_544
O6 Sr0 2.559020 1_444
O6 Y0 2.915854 1_555
O7 Y1 2.247745 1_645
O7 Sr1 2.559027 1_656
O7 Y0 2.915853 1_555
O8 Y0 2.247745 1_554
O8 Sr2 2.559027 1_554
O8 Y1 2.915854 1_655
O9 Y0 2.247745 1_555
O9 Sr3 2.559016 1_556
O9 Y1 2.915853 1_555
O10 Sr0 2.463489 1_555
O10 Sr3 2.638019 1_555
O11 Sr1 2.463489 1_555
O11 Sr2 2.638014 1_544
O12 Sr2 2.463484 1_555
O12 Sr1 2.638014 1_555
O13 Sr3 2.463489 1_555
O13 Sr0 2.638014 1_544
