# generated using pymatgen
data_Sr4GeP4
_symmetry_space_group_name_H-M   'P 1'
_cell_length_a   12.53924478
_cell_length_b   12.53924478
_cell_length_c   12.53924478
_cell_angle_alpha   90.00000000
_cell_angle_beta   90.00000000
_cell_angle_gamma   90.00000000
_symmetry_Int_Tables_number   1
_chemical_formula_structural   Sr4GeP4
_chemical_formula_sum   'Sr32 Ge8 P32'
_cell_volume   1971.57880680
_cell_formula_units_Z   8
loop_
 _symmetry_equiv_pos_site_id
 _symmetry_equiv_pos_as_xyz
  1  'x, y, z'
loop_
 _atom_site_type_symbol
 _atom_site_label
 _atom_site_symmetry_multiplicity
 _atom_site_fract_x
 _atom_site_fract_y
 _atom_site_fract_z
 _atom_site_occupancy
  Sr  Sr0  1  0.90394911  0.86745432  0.64467386  1
  Sr  Sr1  1  0.90394911  0.13254568  0.35532614  1
  Sr  Sr2  1  0.86745432  0.64467386  0.90394911  1
  Sr  Sr3  1  0.13254568  0.64467386  0.09605089  1
  Sr  Sr4  1  0.64467386  0.90394911  0.86745432  1
  Sr  Sr5  1  0.35532614  0.09605089  0.86745432  1
  Sr  Sr6  1  0.59605089  0.85532614  0.36745432  1
  Sr  Sr7  1  0.59605089  0.14467386  0.63254568  1
  Sr  Sr8  1  0.40394911  0.85532614  0.63254568  1
  Sr  Sr9  1  0.14467386  0.63254568  0.59605089  1
  Sr  Sr10  1  0.63254568  0.40394911  0.85532614  1
  Sr  Sr11  1  0.63254568  0.59605089  0.14467386  1
  Sr  Sr12  1  0.85532614  0.36745432  0.59605089  1
  Sr  Sr13  1  0.36745432  0.59605089  0.85532614  1
  Sr  Sr14  1  0.85532614  0.63254568  0.40394911  1
  Sr  Sr15  1  0.14467386  0.36745432  0.40394911  1
  Sr  Sr16  1  0.36745432  0.40394911  0.14467386  1
  Sr  Sr17  1  0.35532614  0.90394911  0.13254568  1
  Sr  Sr18  1  0.64467386  0.09605089  0.13254568  1
  Sr  Sr19  1  0.86745432  0.35532614  0.09605089  1
  Sr  Sr20  1  0.13254568  0.35532614  0.90394911  1
  Sr  Sr21  1  0.09605089  0.13254568  0.64467386  1
  Sr  Sr22  1  0.09605089  0.86745432  0.35532614  1
  Sr  Sr23  1  0.40394911  0.14467386  0.36745432  1
  Sr  Sr24  1  0.14498551  0.14498551  0.14498551  1
  Sr  Sr25  1  0.35501449  0.64498551  0.35501449  1
  Sr  Sr26  1  0.64498551  0.35501449  0.35501449  1
  Sr  Sr27  1  0.35501449  0.35501449  0.64498551  1
  Sr  Sr28  1  0.14498551  0.85501449  0.85501449  1
  Sr  Sr29  1  0.85501449  0.85501449  0.14498551  1
  Sr  Sr30  1  0.85501449  0.14498551  0.85501449  1
  Sr  Sr31  1  0.64498551  0.64498551  0.64498551  1
  Ge  Ge0  1  0.75000000  0.00000000  0.50000000  1
  Ge  Ge1  1  0.50000000  0.75000000  -0.00000000  1
  Ge  Ge2  1  0.50000000  0.25000000  -0.00000000  1
  Ge  Ge3  1  -0.00000000  0.50000000  0.25000000  1
  Ge  Ge4  1  -0.00000000  0.50000000  0.75000000  1
  Ge  Ge5  1  0.25000000  0.00000000  0.50000000  1
  Ge  Ge6  1  0.50000000  0.50000000  0.50000000  1
  Ge  Ge7  1  -0.00000000  0.00000000  -0.00000000  1
  P  P0  1  0.64795090  0.89361434  0.61707049  1
  P  P1  1  0.64795090  0.10638566  0.38292951  1
  P  P2  1  0.89361434  0.61707049  0.64795090  1
  P  P3  1  0.10638566  0.61707049  0.35204910  1
  P  P4  1  0.61707049  0.64795090  0.89361434  1
  P  P5  1  0.38292951  0.35204910  0.89361434  1
  P  P6  1  0.85204910  0.88292951  0.39361434  1
  P  P7  1  0.85204910  0.11707049  0.60638566  1
  P  P8  1  0.14795090  0.88292951  0.60638566  1
  P  P9  1  0.11707049  0.60638566  0.85204910  1
  P  P10  1  0.60638566  0.14795090  0.88292951  1
  P  P11  1  0.60638566  0.85204910  0.11707049  1
  P  P12  1  0.88292951  0.39361434  0.85204910  1
  P  P13  1  0.39361434  0.85204910  0.88292951  1
  P  P14  1  0.88292951  0.60638566  0.14795090  1
  P  P15  1  0.11707049  0.39361434  0.14795090  1
  P  P16  1  0.39361434  0.14795090  0.11707049  1
  P  P17  1  0.38292951  0.64795090  0.10638566  1
  P  P18  1  0.61707049  0.35204910  0.10638566  1
  P  P19  1  0.89361434  0.38292951  0.35204910  1
  P  P20  1  0.10638566  0.38292951  0.64795090  1
  P  P21  1  0.35204910  0.10638566  0.61707049  1
  P  P22  1  0.35204910  0.89361434  0.38292951  1
  P  P23  1  0.14795090  0.11707049  0.39361434  1
  P  P24  1  0.89184206  0.89184206  0.89184206  1
  P  P25  1  0.60815794  0.39184206  0.60815794  1
  P  P26  1  0.39184206  0.60815794  0.60815794  1
  P  P27  1  0.60815794  0.60815794  0.39184206  1
  P  P28  1  0.89184206  0.10815794  0.10815794  1
  P  P29  1  0.10815794  0.10815794  0.89184206  1
  P  P30  1  0.10815794  0.89184206  0.10815794  1
  P  P31  1  0.39184206  0.39184206  0.39184206  1
loop_
_geom_bond_atom_site_label_1
_geom_bond_atom_site_label_2
_geom_bond_distance
_geom_bond_site_symmetry_2
Ge0 P6 2.360492 1_545
Ge0 P1 2.360492 1_555
Ge0 P7 2.360492 1_555
Ge0 P0 2.360492 1_545
Ge0 Sr1 3.127259 1_555
Ge0 Sr7 3.127259 1_555
Ge0 Sr6 3.127259 1_545
Ge0 Sr0 3.127259 1_545
Ge1 P11 2.360492 1_555
Ge1 P13 2.360492 1_554
Ge1 P17 2.360492 1_555
Ge1 P4 2.360492 1_554
Ge1 Sr17 3.127259 1_555
Ge1 Sr11 3.127259 1_555
Ge1 Sr4 3.127259 1_554
Ge1 Sr13 3.127259 1_554
Ge2 P16 2.360492 1_555
Ge2 P18 2.360492 1_555
Ge2 P5 2.360492 1_554
Ge2 P10 2.360492 1_554
Ge2 Sr5 3.127259 1_554
Ge2 Sr16 3.127259 1_555
Ge2 Sr18 3.127259 1_555
Ge2 Sr10 3.127259 1_554
Ge3 P15 2.360492 1_555
Ge3 P3 2.360492 1_555
Ge3 P19 2.360492 1_455
Ge3 P14 2.360492 1_455
Ge3 Sr19 3.127259 1_455
Ge3 Sr15 3.127259 1_555
Ge3 Sr3 3.127259 1_555
Ge3 Sr14 3.127259 1_455
Ge4 P9 2.360492 1_555
Ge4 P20 2.360492 1_555
Ge4 P12 2.360492 1_455
Ge4 P2 2.360492 1_455
Ge4 Sr9 3.127259 1_555
Ge4 Sr20 3.127259 1_555
Ge4 Sr2 3.127259 1_455
Ge4 Sr12 3.127259 1_455
Ge5 P23 2.360492 1_555
Ge5 P21 2.360492 1_555
Ge5 P8 2.360492 1_545
Ge5 P22 2.360492 1_545
Ge5 Sr23 3.127259 1_555
Ge5 Sr22 3.127259 1_545
Ge5 Sr21 3.127259 1_555
Ge5 Sr8 3.127259 1_545
Ge6 P31 2.349040 1_555
Ge6 P27 2.349040 1_555
Ge6 P26 2.349040 1_555
Ge6 P25 2.349040 1_555
Ge6 Sr27 3.148884 1_555
Ge6 Sr25 3.148884 1_555
Ge6 Sr26 3.148884 1_555
Ge6 Sr31 3.148884 1_555
Ge7 P24 2.349040 1_444
Ge7 P29 2.349040 1_554
Ge7 P30 2.349040 1_545
Ge7 P28 2.349040 1_455
Ge7 Sr24 3.148884 1_555
Ge7 Sr28 3.148884 1_544
Ge7 Sr30 3.148884 1_454
Ge7 Sr29 3.148884 1_445
P0 Sr8 3.103111 1_555
P0 Sr31 3.137427 1_555
P0 Sr4 3.142566 1_555
P0 Sr7 3.220511 1_565
P0 Sr6 3.232787 1_555
P0 Sr0 3.245252 1_555
P1 Sr23 3.103111 1_555
P1 Sr26 3.137427 1_555
P1 Sr18 3.142566 1_555
P1 Sr6 3.220511 1_545
P1 Sr7 3.232787 1_555
P1 Sr1 3.245252 1_555
P2 Sr14 3.103111 1_555
P2 Sr31 3.137427 1_555
P2 Sr0 3.142566 1_555
P2 Sr9 3.220511 1_655
P2 Sr12 3.232787 1_555
P2 Sr2 3.245252 1_555
P3 Sr9 3.103111 1_555
P3 Sr25 3.137427 1_555
P3 Sr22 3.142566 1_555
P3 Sr14 3.220511 1_455
P3 Sr15 3.232787 1_555
P3 Sr3 3.245252 1_555
P4 Sr10 3.103111 1_555
P4 Sr31 3.137427 1_555
P4 Sr2 3.142566 1_555
P4 Sr11 3.220511 1_556
P4 Sr13 3.232787 1_555
P4 Sr4 3.245252 1_555
P5 Sr13 3.103111 1_555
P5 Sr27 3.137427 1_555
P5 Sr20 3.142566 1_555
P5 Sr16 3.220511 1_556
P5 Sr10 3.232787 1_555
P5 Sr5 3.245252 1_555
P6 Sr22 3.103111 1_655
P6 Sr29 3.137427 1_555
P6 Sr14 3.142566 1_555
P6 Sr0 3.220511 1_555
P6 Sr1 3.232787 1_565
P6 Sr6 3.245252 1_555
P7 Sr21 3.103111 1_655
P7 Sr30 3.137427 1_555
P7 Sr12 3.142566 1_555
P7 Sr1 3.220511 1_555
P7 Sr0 3.232787 1_545
P7 Sr7 3.245252 1_555
P8 Sr0 3.103111 1_455
P8 Sr28 3.137427 1_555
P8 Sr9 3.142566 1_555
P8 Sr22 3.220511 1_555
P8 Sr21 3.232787 1_565
P8 Sr8 3.245252 1_555
P9 Sr3 3.103111 1_556
P9 Sr28 3.137427 1_555
P9 Sr13 3.142566 1_555
P9 Sr20 3.220511 1_555
P9 Sr2 3.232787 1_455
P9 Sr9 3.245252 1_555
P10 Sr4 3.103111 1_545
P10 Sr30 3.137427 1_555
P10 Sr7 3.142566 1_555
P10 Sr5 3.220511 1_555
P10 Sr18 3.232787 1_556
P10 Sr10 3.245252 1_555
P11 Sr18 3.103111 1_565
P11 Sr29 3.137427 1_555
P11 Sr6 3.142566 1_555
P11 Sr17 3.220511 1_555
P11 Sr4 3.232787 1_554
P11 Sr11 3.245252 1_555
P12 Sr19 3.103111 1_556
P12 Sr30 3.137427 1_555
P12 Sr10 3.142566 1_555
P12 Sr2 3.220511 1_555
P12 Sr20 3.232787 1_655
P12 Sr12 3.245252 1_555
P13 Sr5 3.103111 1_565
P13 Sr28 3.137427 1_555
P13 Sr8 3.142566 1_555
P13 Sr4 3.220511 1_555
P13 Sr17 3.232787 1_556
P13 Sr13 3.245252 1_555
P14 Sr2 3.103111 1_554
P14 Sr29 3.137427 1_555
P14 Sr11 3.142566 1_555
P14 Sr19 3.220511 1_555
P14 Sr3 3.232787 1_655
P14 Sr14 3.245252 1_555
P15 Sr20 3.103111 1_554
P15 Sr24 3.137427 1_555
P15 Sr16 3.142566 1_555
P15 Sr3 3.220511 1_555
P15 Sr19 3.232787 1_455
P15 Sr15 3.245252 1_555
P16 Sr17 3.103111 1_545
P16 Sr24 3.137427 1_555
P16 Sr23 3.142566 1_555
P16 Sr18 3.220511 1_555
P16 Sr5 3.232787 1_554
P16 Sr16 3.245252 1_555
P17 Sr16 3.103111 1_555
P17 Sr25 3.137427 1_555
P17 Sr3 3.142566 1_555
P17 Sr13 3.220511 1_554
P17 Sr11 3.232787 1_555
P17 Sr17 3.245252 1_555
P18 Sr11 3.103111 1_555
P18 Sr26 3.137427 1_555
P18 Sr19 3.142566 1_555
P18 Sr10 3.220511 1_554
P18 Sr16 3.232787 1_555
P18 Sr18 3.245252 1_555
P19 Sr12 3.103111 1_555
P19 Sr26 3.137427 1_555
P19 Sr1 3.142566 1_555
P19 Sr15 3.220511 1_655
P19 Sr14 3.232787 1_555
P19 Sr19 3.245252 1_555
P20 Sr15 3.103111 1_555
P20 Sr27 3.137427 1_555
P20 Sr21 3.142566 1_555
P20 Sr12 3.220511 1_455
P20 Sr9 3.232787 1_555
P20 Sr20 3.245252 1_555
P21 Sr7 3.103111 1_555
P21 Sr27 3.137427 1_555
P21 Sr5 3.142566 1_555
P21 Sr8 3.220511 1_545
P21 Sr23 3.232787 1_555
P21 Sr21 3.245252 1_555
P22 Sr6 3.103111 1_555
P22 Sr25 3.137427 1_555
P22 Sr17 3.142566 1_555
P22 Sr23 3.220511 1_565
P22 Sr8 3.232787 1_555
P22 Sr22 3.245252 1_555
P23 Sr1 3.103111 1_455
P23 Sr24 3.137427 1_555
P23 Sr15 3.142566 1_555
P23 Sr21 3.220511 1_555
P23 Sr22 3.232787 1_545
P23 Sr23 3.245252 1_555
P24 Sr2 3.118051 1_555
P24 Sr0 3.118051 1_555
P24 Sr4 3.118051 1_555
P24 Sr30 3.240713 1_565
P24 Sr28 3.240713 1_655
P24 Sr29 3.240713 1_556
P25 Sr12 3.118051 1_555
P25 Sr10 3.118051 1_555
P25 Sr7 3.118051 1_555
P25 Sr27 3.240713 1_555
P25 Sr26 3.240713 1_555
P25 Sr31 3.240713 1_555
P26 Sr8 3.118051 1_555
P26 Sr13 3.118051 1_555
P26 Sr9 3.118051 1_555
P26 Sr27 3.240713 1_555
P26 Sr25 3.240713 1_555
P26 Sr31 3.240713 1_555
P27 Sr14 3.118051 1_555
P27 Sr6 3.118051 1_555
P27 Sr11 3.118051 1_555
P27 Sr25 3.240713 1_555
P27 Sr26 3.240713 1_555
P27 Sr31 3.240713 1_555
P28 Sr18 3.118051 1_555
P28 Sr19 3.118051 1_555
P28 Sr1 3.118051 1_555
P28 Sr24 3.240713 1_655
P28 Sr30 3.240713 1_554
P28 Sr29 3.240713 1_545
P29 Sr21 3.118051 1_555
P29 Sr20 3.118051 1_555
P29 Sr5 3.118051 1_555
P29 Sr24 3.240713 1_556
P29 Sr30 3.240713 1_455
P29 Sr28 3.240713 1_545
P30 Sr3 3.118051 1_555
P30 Sr22 3.118051 1_555
P30 Sr17 3.118051 1_555
P30 Sr24 3.240713 1_565
P30 Sr28 3.240713 1_554
P30 Sr29 3.240713 1_455
P31 Sr15 3.118051 1_555
P31 Sr16 3.118051 1_555
P31 Sr23 3.118051 1_555
P31 Sr27 3.240713 1_555
P31 Sr26 3.240713 1_555
P31 Sr25 3.240713 1_555
