# generated using pymatgen
data_CaV2O5
_symmetry_space_group_name_H-M   'P 1'
_cell_length_a   3.81784000
_cell_length_b   5.89916050
_cell_length_c   11.32365800
_cell_angle_alpha   90.00000000
_cell_angle_beta   90.00000000
_cell_angle_gamma   108.88027153
_symmetry_Int_Tables_number   1
_chemical_formula_structural   CaV2O5
_chemical_formula_sum   'Ca2 V4 O10'
_cell_volume   241.31047347
_cell_formula_units_Z   2
loop_
 _symmetry_equiv_pos_site_id
 _symmetry_equiv_pos_as_xyz
  1  'x, y, z'
loop_
 _atom_site_type_symbol
 _atom_site_label
 _atom_site_symmetry_multiplicity
 _atom_site_fract_x
 _atom_site_fract_y
 _atom_site_fract_z
 _atom_site_occupancy
  Ca  Ca0  1  0.89660600  0.79321100  0.75000000  1
  Ca  Ca1  1  0.10339500  0.20679000  0.25000000  1
  V  V0  1  0.20249200  0.40498600  0.59610500  1
  V  V1  1  0.79750900  0.59501500  0.40389400  1
  V  V2  1  0.79750900  0.59501500  0.09610600  1
  V  V3  1  0.20249200  0.40498600  0.90389500  1
  O  O0  1  0.71162700  0.42325400  0.25000000  1
  O  O1  1  0.28837400  0.57674700  0.75000000  1
  O  O2  1  0.24072000  0.48143800  0.07516700  1
  O  O3  1  0.75928200  0.51856300  0.92483300  1
  O  O4  1  0.75928200  0.51856300  0.57516700  1
  O  O5  1  0.24072000  0.48143800  0.42483200  1
  O  O6  1  0.05557100  0.11114100  0.61964300  1
  O  O7  1  0.94442900  0.88885800  0.38035700  1
  O  O8  1  0.05557100  0.11114100  0.88035700  1
  O  O9  1  0.94442900  0.88885800  0.11964400  1
loop_
_geom_bond_atom_site_label_1
_geom_bond_atom_site_label_2
_geom_bond_distance
_geom_bond_site_symmetry_2
Ca0 O1 2.259169 1_655
Ca0 O1 2.259170 1_555
Ca0 O6 2.308283 1_665
Ca0 O8 2.308283 1_665
Ca0 O3 2.503909 1_555
Ca0 O4 2.503909 1_555
Ca1 O0 2.259169 1_455
Ca1 O0 2.259170 1_555
Ca1 O9 2.308284 1_445
Ca1 O7 2.308291 1_445
Ca1 O5 2.503900 1_555
Ca1 O2 2.503909 1_555
O0 V1 1.988961 1_555
O0 V2 1.988961 1_555
O1 V3 1.988971 1_555
O1 V0 1.988971 1_555
O2 V3 1.985819 1_554
O2 V2 2.025362 1_455
O2 V2 2.025366 1_555
O3 V2 1.985830 1_556
O3 V3 2.025357 1_655
O3 V3 2.025368 1_555
O4 V1 1.985830 1_555
O4 V0 2.025357 1_655
O4 V0 2.025368 1_555
O5 V0 1.985830 1_555
O5 V1 2.025361 1_455
O5 V1 2.025365 1_555
O6 V0 1.661690 1_555
O7 V1 1.661677 1_555
O8 V3 1.661690 1_555
O9 V2 1.661679 1_555
