# generated using pymatgen
data_Pr2FeSi3
_symmetry_space_group_name_H-M   'P 1'
_cell_length_a   4.05919526
_cell_length_b   4.05919526
_cell_length_c   8.70354400
_cell_angle_alpha   90.00000000
_cell_angle_beta   90.00000000
_cell_angle_gamma   119.99998793
_symmetry_Int_Tables_number   1
_chemical_formula_structural   Pr2FeSi3
_chemical_formula_sum   'Pr2 Fe1 Si3'
_cell_volume   124.19573989
_cell_formula_units_Z   1
loop_
 _symmetry_equiv_pos_site_id
 _symmetry_equiv_pos_as_xyz
  1  'x, y, z'
loop_
 _atom_site_type_symbol
 _atom_site_label
 _atom_site_symmetry_multiplicity
 _atom_site_fract_x
 _atom_site_fract_y
 _atom_site_fract_z
 _atom_site_occupancy
  Pr  Pr0  1  0.00000000  0.00000000  0.24327100  1
  Pr  Pr1  1  0.00000000  0.00000000  0.75672900  1
  Fe  Fe0  1  0.33333300  0.66666700  0.00000000  1
  Si  Si0  1  0.33333300  0.66666700  0.50000000  1
  Si  Si1  1  0.66666700  0.33333300  0.00000000  1
  Si  Si2  1  0.66666700  0.33333300  0.50000000  1
loop_
_geom_bond_atom_site_label_1
_geom_bond_atom_site_label_2
_geom_bond_distance
_geom_bond_site_symmetry_2
Pr0 Si1 3.158384 1_455
Pr0 Si1 3.158387 1_555
Pr0 Si1 3.158387 1_445
Pr0 Si0 3.238074 1_545
Pr0 Si2 3.238074 1_455
Pr0 Si0 3.238076 1_555
Pr0 Si2 3.238076 1_445
Pr0 Si2 3.238076 1_555
Pr0 Si0 3.238076 1_445
Pr1 Si1 3.158384 1_456
Pr1 Si1 3.158387 1_556
Pr1 Si1 3.158387 1_446
Pr1 Si0 3.238074 1_545
Pr1 Si2 3.238074 1_455
Pr1 Si0 3.238076 1_555
Pr1 Si2 3.238076 1_445
Pr1 Si2 3.238076 1_555
Pr1 Si0 3.238076 1_445
Fe0 Si1 2.343575 1_455
Fe0 Si1 2.343575 1_565
Fe0 Si1 2.343582 1_555
Fe0 Pr1 3.158384 1_564
Fe0 Pr0 3.158384 1_565
Fe0 Pr0 3.158387 1_555
Fe0 Pr0 3.158387 1_665
Fe0 Pr1 3.158387 1_554
Fe0 Pr1 3.158387 1_664
Si0 Si2 2.343575 1_455
Si0 Si2 2.343575 1_565
Si0 Si2 2.343582 1_555
