# generated using pymatgen
data_Li3Ho3(TeO6)2
_symmetry_space_group_name_H-M   'P 1'
_cell_length_a   10.72041589
_cell_length_b   10.72041589
_cell_length_c   10.72041589
_cell_angle_alpha   109.47122063
_cell_angle_beta   109.47122063
_cell_angle_gamma   109.47122063
_symmetry_Int_Tables_number   1
_chemical_formula_structural   Li3Ho3(TeO6)2
_chemical_formula_sum   'Li12 Ho12 Te8 O48'
_cell_volume   948.44687655
_cell_formula_units_Z   4
loop_
 _symmetry_equiv_pos_site_id
 _symmetry_equiv_pos_as_xyz
  1  'x, y, z'
loop_
 _atom_site_type_symbol
 _atom_site_label
 _atom_site_symmetry_multiplicity
 _atom_site_fract_x
 _atom_site_fract_y
 _atom_site_fract_z
 _atom_site_occupancy
  Li  Li0  1  0.25000000  0.62500000  0.37500000  1
  Li  Li1  1  0.75000000  0.37500000  0.62500000  1
  Li  Li2  1  0.75000000  0.87500000  0.12500000  1
  Li  Li3  1  0.37500000  0.25000000  0.62500000  1
  Li  Li4  1  0.62500000  0.75000000  0.37500000  1
  Li  Li5  1  0.25000000  0.12500000  0.87500000  1
  Li  Li6  1  0.12500000  0.75000000  0.87500000  1
  Li  Li7  1  0.87500000  0.25000000  0.12500000  1
  Li  Li8  1  0.62500000  0.37500000  0.25000000  1
  Li  Li9  1  0.37500000  0.62500000  0.75000000  1
  Li  Li10  1  0.87500000  0.12500000  0.75000000  1
  Li  Li11  1  0.12500000  0.87500000  0.25000000  1
  Ho  Ho0  1  0.25000000  0.37500000  0.12500000  1
  Ho  Ho1  1  0.75000000  0.62500000  0.87500000  1
  Ho  Ho2  1  0.75000000  0.12500000  0.37500000  1
  Ho  Ho3  1  0.12500000  0.25000000  0.37500000  1
  Ho  Ho4  1  0.37500000  0.75000000  0.12500000  1
  Ho  Ho5  1  0.25000000  0.87500000  0.62500000  1
  Ho  Ho6  1  0.87500000  0.75000000  0.62500000  1
  Ho  Ho7  1  0.62500000  0.25000000  0.87500000  1
  Ho  Ho8  1  0.37500000  0.12500000  0.25000000  1
  Ho  Ho9  1  0.62500000  0.87500000  0.75000000  1
  Ho  Ho10  1  0.12500000  0.37500000  0.75000000  1
  Ho  Ho11  1  0.87500000  0.62500000  0.25000000  1
  Te  Te0  1  0.00000000  0.00000000  0.00000000  1
  Te  Te1  1  0.50000000  0.00000000  0.50000000  1
  Te  Te2  1  0.00000000  0.50000000  0.50000000  1
  Te  Te3  1  0.50000000  0.00000000  0.00000000  1
  Te  Te4  1  0.50000000  0.50000000  0.00000000  1
  Te  Te5  1  0.50000000  0.50000000  0.50000000  1
  Te  Te6  1  0.00000000  0.00000000  0.50000000  1
  Te  Te7  1  0.00000000  0.50000000  0.00000000  1
  O  O0  1  0.47240600  0.37931300  0.30021100  1
  O  O1  1  0.52759400  0.62068700  0.69978900  1
  O  O2  1  0.57910200  0.17219400  0.19978900  1
  O  O3  1  0.92089800  0.12068700  0.59309200  1
  O  O4  1  0.30021100  0.47240600  0.37931300  1
  O  O5  1  0.32780600  0.92089800  0.30021100  1
  O  O6  1  0.42089800  0.82780600  0.80021100  1
  O  O7  1  0.07910200  0.87931300  0.40690800  1
  O  O8  1  0.69978900  0.52759400  0.62068700  1
  O  O9  1  0.67219400  0.07910200  0.69978900  1
  O  O10  1  0.02759400  0.32780600  0.90690800  1
  O  O11  1  0.19978900  0.57910200  0.17219400  1
  O  O12  1  0.12068700  0.02759400  0.19978900  1
  O  O13  1  0.97240600  0.67219400  0.09309200  1
  O  O14  1  0.80021100  0.42089800  0.82780600  1
  O  O15  1  0.87931300  0.97240600  0.80021100  1
  O  O16  1  0.59309200  0.92089800  0.12068700  1
  O  O17  1  0.17219400  0.47240600  0.59309200  1
  O  O18  1  0.40690800  0.07910200  0.87931300  1
  O  O19  1  0.82780600  0.52759400  0.40690800  1
  O  O20  1  0.90690800  0.02759400  0.32780600  1
  O  O21  1  0.37931300  0.57910200  0.90690800  1
  O  O22  1  0.09309200  0.97240600  0.67219400  1
  O  O23  1  0.62068700  0.42089800  0.09309200  1
  O  O24  1  0.37931300  0.30021100  0.47240600  1
  O  O25  1  0.57910200  0.90690800  0.37931300  1
  O  O26  1  0.62068700  0.69978900  0.52759400  1
  O  O27  1  0.42089800  0.09309200  0.62068700  1
  O  O28  1  0.12068700  0.59309200  0.92089800  1
  O  O29  1  0.02759400  0.19978900  0.12068700  1
  O  O30  1  0.87931300  0.40690800  0.07910200  1
  O  O31  1  0.97240600  0.80021100  0.87931300  1
  O  O32  1  0.32780600  0.90690800  0.02759400  1
  O  O33  1  0.92089800  0.30021100  0.32780600  1
  O  O34  1  0.67219400  0.09309200  0.97240600  1
  O  O35  1  0.07910200  0.69978900  0.67219400  1
  O  O36  1  0.17219400  0.19978900  0.57910200  1
  O  O37  1  0.47240600  0.59309200  0.17219400  1
  O  O38  1  0.82780600  0.80021100  0.42089800  1
  O  O39  1  0.52759400  0.40690800  0.82780600  1
  O  O40  1  0.30021100  0.32780600  0.92089800  1
  O  O41  1  0.69978900  0.67219400  0.07910200  1
  O  O42  1  0.19978900  0.12068700  0.02759400  1
  O  O43  1  0.80021100  0.87931300  0.97240600  1
  O  O44  1  0.90690800  0.37931300  0.57910200  1
  O  O45  1  0.09309200  0.62068700  0.42089800  1
  O  O46  1  0.59309200  0.17219400  0.47240600  1
  O  O47  1  0.40690800  0.82780600  0.52759400  1
loop_
_geom_bond_atom_site_label_1
_geom_bond_atom_site_label_2
_geom_bond_distance
_geom_bond_site_symmetry_2
Li0 O4 1.894422 1_555
Li0 O47 1.894430 1_555
Li0 O11 1.894432 1_555
Li0 O45 1.894432 1_555
Li1 O8 1.894422 1_555
Li1 O46 1.894430 1_555
Li1 O44 1.894432 1_555
Li1 O14 1.894432 1_555
Li2 O43 1.894422 1_554
Li2 O20 1.894430 1_565
Li2 O41 1.894432 1_555
Li2 O16 1.894432 1_555
Li3 O24 1.894422 1_555
Li3 O39 1.894430 1_555
Li3 O36 1.894432 1_555
Li3 O27 1.894432 1_555
Li4 O26 1.894422 1_555
Li4 O37 1.894430 1_555
Li4 O25 1.894432 1_555
Li4 O38 1.894432 1_555
Li5 O42 1.894422 1_556
Li5 O22 1.894430 1_545
Li5 O40 1.894432 1_555
Li5 O18 1.894432 1_555
Li6 O31 1.894422 1_455
Li6 O32 1.894430 1_556
Li6 O35 1.894432 1_555
Li6 O28 1.894432 1_555
Li7 O29 1.894422 1_655
Li7 O34 1.894430 1_554
Li7 O33 1.894432 1_555
Li7 O30 1.894432 1_555
Li8 O0 1.894422 1_555
Li8 O19 1.894430 1_555
Li8 O23 1.894432 1_555
Li8 O2 1.894432 1_555
Li9 O1 1.894422 1_555
Li9 O17 1.894430 1_555
Li9 O21 1.894432 1_555
Li9 O6 1.894432 1_555
Li10 O15 1.894422 1_545
Li10 O10 1.894430 1_655
Li10 O9 1.894432 1_555
Li10 O3 1.894432 1_555
Li11 O12 1.894422 1_565
Li11 O13 1.894430 1_455
Li11 O5 1.894432 1_555
Li11 O7 1.894432 1_555
Ho0 O42 2.358402 1_555
Ho0 O4 2.358402 1_555
Ho0 O40 2.358402 1_554
Ho0 O11 2.358402 1_555
Ho0 O10 2.469420 1_554
Ho0 O37 2.469420 1_555
Ho0 O29 2.469421 1_555
Ho0 O0 2.469421 1_555
Ho1 O8 2.358402 1_555
Ho1 O43 2.358402 1_555
Ho1 O41 2.358402 1_556
Ho1 O14 2.358402 1_555
Ho1 O13 2.469420 1_556
Ho1 O39 2.469420 1_555
Ho1 O31 2.469421 1_555
Ho1 O1 2.469421 1_555
Ho2 O44 2.358402 1_555
Ho2 O16 2.358402 1_545
Ho2 O46 2.358409 1_555
Ho2 O20 2.358409 1_555
Ho2 O3 2.469414 1_555
Ho2 O33 2.469414 1_555
Ho2 O25 2.469414 1_545
Ho2 O2 2.469414 1_555
Ho3 O29 2.358402 1_555
Ho3 O24 2.358402 1_555
Ho3 O36 2.358402 1_555
Ho3 O33 2.358402 1_455
Ho3 O20 2.469420 1_455
Ho3 O17 2.469420 1_555
Ho3 O4 2.469421 1_555
Ho3 O12 2.469421 1_555
Ho4 O28 2.358402 1_554
Ho4 O25 2.358402 1_555
Ho4 O37 2.358409 1_555
Ho4 O32 2.358409 1_555
Ho4 O21 2.469414 1_554
Ho4 O16 2.469414 1_555
Ho4 O11 2.469414 1_555
Ho4 O5 2.469414 1_555
Ho5 O18 2.358402 1_565
Ho5 O45 2.358402 1_555
Ho5 O22 2.358409 1_555
Ho5 O47 2.358409 1_555
Ho5 O6 2.469414 1_555
Ho5 O35 2.469414 1_555
Ho5 O7 2.469414 1_555
Ho5 O27 2.469414 1_565
Ho6 O31 2.358402 1_555
Ho6 O26 2.358402 1_555
Ho6 O38 2.358402 1_555
Ho6 O35 2.358402 1_655
Ho6 O22 2.469420 1_655
Ho6 O19 2.469420 1_555
Ho6 O8 2.469421 1_555
Ho6 O15 2.469421 1_555
Ho7 O27 2.358402 1_555
Ho7 O30 2.358402 1_556
Ho7 O39 2.358409 1_555
Ho7 O34 2.358409 1_555
Ho7 O9 2.469414 1_555
Ho7 O14 2.469414 1_555
Ho7 O23 2.469414 1_556
Ho7 O18 2.469414 1_555
Ho8 O12 2.358402 1_555
Ho8 O0 2.358402 1_555
Ho8 O5 2.358402 1_545
Ho8 O2 2.358402 1_555
Ho8 O46 2.469420 1_555
Ho8 O32 2.469420 1_545
Ho8 O24 2.469421 1_555
Ho8 O42 2.469421 1_555
Ho9 O15 2.358402 1_555
Ho9 O1 2.358402 1_555
Ho9 O6 2.358402 1_555
Ho9 O9 2.358402 1_565
Ho9 O34 2.469420 1_565
Ho9 O47 2.469420 1_555
Ho9 O43 2.469421 1_555
Ho9 O26 2.469421 1_555
Ho10 O3 2.358402 1_455
Ho10 O21 2.358402 1_555
Ho10 O17 2.358409 1_555
Ho10 O10 2.358409 1_555
Ho10 O28 2.469414 1_555
Ho10 O44 2.469414 1_455
Ho10 O36 2.469414 1_555
Ho10 O40 2.469414 1_555
Ho11 O23 2.358402 1_555
Ho11 O7 2.358402 1_655
Ho11 O13 2.358409 1_555
Ho11 O19 2.358409 1_555
Ho11 O38 2.469414 1_555
Ho11 O41 2.469414 1_555
Ho11 O45 2.469414 1_655
Ho11 O30 2.469414 1_555
O0 Te5 1.955479 1_555
O1 Te5 1.955479 1_555
O2 Te3 1.955475 1_555
O3 Te6 1.955475 1_655
O4 Te5 1.955479 1_555
O5 Te1 1.955475 1_565
O6 Te3 1.955475 1_566
O7 Te6 1.955475 1_565
O8 Te5 1.955479 1_555
O9 Te1 1.955475 1_555
O10 Te7 1.955468 1_556
O11 Te7 1.955475 1_555
O12 Te0 1.955479 1_555
O13 Te7 1.955468 1_655
O14 Te7 1.955475 1_656
O15 Te0 1.955479 1_666
O16 Te3 1.955475 1_565
O17 Te2 1.955468 1_555
O18 Te3 1.955475 1_556
O19 Te2 1.955468 1_655
O20 Te6 1.955468 1_655
O21 Te4 1.955475 1_556
O22 Te6 1.955468 1_565
O23 Te4 1.955475 1_555
O24 Te5 1.955479 1_555
O25 Te1 1.955475 1_565
O26 Te5 1.955479 1_555
O27 Te1 1.955475 1_555
O28 Te7 1.955475 1_556
O29 Te0 1.955479 1_555
O30 Te7 1.955475 1_655
O31 Te0 1.955479 1_666
O32 Te3 1.955468 1_565
O33 Te2 1.955475 1_655
O34 Te3 1.955468 1_556
O35 Te2 1.955475 1_555
O36 Te6 1.955475 1_555
O37 Te4 1.955468 1_555
O38 Te6 1.955475 1_665
O39 Te4 1.955468 1_556
O40 Te4 1.955475 1_556
O41 Te4 1.955475 1_555
O42 Te0 1.955479 1_555
O43 Te0 1.955479 1_666
O44 Te2 1.955475 1_655
O45 Te2 1.955475 1_555
O46 Te1 1.955468 1_555
O47 Te1 1.955468 1_565
