# generated using pymatgen
data_K2Pt(NO2)4
_symmetry_space_group_name_H-M   'P 1'
_cell_length_a   13.69265900
_cell_length_b   7.96940400
_cell_length_c   9.89017112
_cell_angle_alpha   84.78161597
_cell_angle_beta   90.00000000
_cell_angle_gamma   90.00000000
_symmetry_Int_Tables_number   1
_chemical_formula_structural   K2Pt(NO2)4
_chemical_formula_sum   'K8 Pt4 N16 O32'
_cell_volume   1074.76537491
_cell_formula_units_Z   4
loop_
 _symmetry_equiv_pos_site_id
 _symmetry_equiv_pos_as_xyz
  1  'x, y, z'
loop_
 _atom_site_type_symbol
 _atom_site_label
 _atom_site_symmetry_multiplicity
 _atom_site_fract_x
 _atom_site_fract_y
 _atom_site_fract_z
 _atom_site_occupancy
  K  K0  1  0.16520500  0.58747300  0.75506200  1
  K  K1  1  0.14389000  0.49839800  0.26805400  1
  K  K2  1  0.35611000  0.99839800  0.26805400  1
  K  K3  1  0.66520500  0.91252700  0.24493800  1
  K  K4  1  0.64389000  0.00160200  0.73194600  1
  K  K5  1  0.33479500  0.08747300  0.75506200  1
  K  K6  1  0.85611000  0.50160200  0.73194600  1
  K  K7  1  0.83479500  0.41252700  0.24493800  1
  Pt  Pt0  1  0.50000000  0.50000000  0.50000000  1
  Pt  Pt1  1  0.00000000  0.00000000  0.00000000  1
  Pt  Pt2  1  0.50000000  0.50000000  0.00000000  1
  Pt  Pt3  1  0.00000000  0.00000000  0.50000000  1
  N  N0  1  0.51991800  0.73848200  0.05634700  1
  N  N1  1  0.14449100  0.99713100  0.05816400  1
  N  N2  1  0.64289500  0.50307000  0.43925500  1
  N  N3  1  0.51708300  0.73533900  0.56646500  1
  N  N4  1  0.14289500  0.99693000  0.56074500  1
  N  N5  1  0.35710500  0.49693000  0.56074500  1
  N  N6  1  0.01991800  0.76151800  0.94365300  1
  N  N7  1  0.48008200  0.26151800  0.94365300  1
  N  N8  1  0.64449100  0.50286900  0.94183600  1
  N  N9  1  0.85550900  0.00286900  0.94183600  1
  N  N10  1  0.98008200  0.23848200  0.05634700  1
  N  N11  1  0.35550900  0.49713100  0.05816400  1
  N  N12  1  0.48291700  0.26466100  0.43353500  1
  N  N13  1  0.85710500  0.00307000  0.43925500  1
  N  N14  1  0.01708300  0.76466100  0.43353500  1
  N  N15  1  0.98291700  0.23533900  0.56646500  1
  O  O0  1  0.28953100  0.47743800  0.97329200  1
  O  O1  1  0.57426400  0.83892000  0.50366700  1
  O  O2  1  0.16481000  0.92946100  0.67632200  1
  O  O3  1  0.79179000  0.93655400  0.51466600  1
  O  O4  1  0.92382100  0.33844100  0.98880600  1
  O  O5  1  0.83434000  0.99071800  0.82015000  1
  O  O6  1  0.02559800  0.27529700  0.67071800  1
  O  O7  1  0.07617900  0.66155900  0.01119400  1
  O  O8  1  0.33434000  0.50928200  0.17985000  1
  O  O9  1  0.47440200  0.77529700  0.67071800  1
  O  O10  1  0.92573600  0.33892000  0.50366700  1
  O  O11  1  0.51825700  0.21711100  0.83732900  1
  O  O12  1  0.42382100  0.16155900  0.01119400  1
  O  O13  1  0.78953100  0.02256200  0.02670800  1
  O  O14  1  0.07426400  0.66108000  0.49633300  1
  O  O15  1  0.71046900  0.52256200  0.02670800  1
  O  O16  1  0.98174300  0.71711100  0.83732900  1
  O  O17  1  0.83519000  0.07053900  0.32367800  1
  O  O18  1  0.66481000  0.57053900  0.32367800  1
  O  O19  1  0.97440200  0.72470300  0.32928200  1
  O  O20  1  0.16566000  0.00928200  0.17985000  1
  O  O21  1  0.42573600  0.16108000  0.49633300  1
  O  O22  1  0.57617900  0.83844100  0.98880600  1
  O  O23  1  0.48174300  0.78288900  0.16267100  1
  O  O24  1  0.20821000  0.06344600  0.48533400  1
  O  O25  1  0.33519000  0.42946100  0.67632200  1
  O  O26  1  0.29179000  0.56344600  0.48533400  1
  O  O27  1  0.01825700  0.28288900  0.16267100  1
  O  O28  1  0.21046900  0.97743800  0.97329200  1
  O  O29  1  0.52559700  0.22470300  0.32928200  1
  O  O30  1  0.66566000  0.49071800  0.82015000  1
  O  O31  1  0.70821000  0.43655400  0.51466600  1
loop_
_geom_bond_atom_site_label_1
_geom_bond_atom_site_label_2
_geom_bond_distance
_geom_bond_site_symmetry_2
K0 O2 2.765579 1_555
K0 O25 2.790708 1_555
K0 O0 2.825084 1_555
K0 O14 2.858230 1_555
K0 O16 2.862314 1_455
K0 O7 2.919534 1_556
K0 O26 3.201601 1_555
K0 O6 3.304084 1_555
K1 O27 2.705717 1_555
K1 O8 2.748674 1_555
K1 O14 2.866968 1_555
K1 O7 2.898804 1_555
K1 O26 3.031585 1_555
K1 O19 3.033788 1_455
K2 O23 2.705717 1_555
K2 O20 2.748674 1_565
K2 O21 2.866968 1_565
K2 O12 2.898804 1_565
K2 O24 3.031585 1_565
K2 O29 3.033778 1_565
K3 O18 2.765579 1_555
K3 O17 2.790708 1_565
K3 O13 2.825084 1_565
K3 O1 2.858230 1_555
K3 O23 2.862314 1_555
K3 O22 2.919534 1_554
K3 O3 3.201601 1_555
K3 O29 3.304092 1_565
K4 O11 2.705717 1_555
K4 O5 2.748674 1_545
K4 O1 2.866968 1_545
K4 O22 2.898804 1_545
K4 O3 3.031585 1_545
K4 O9 3.033788 1_545
K5 O25 2.765579 1_555
K5 O2 2.790708 1_545
K5 O28 2.825084 1_545
K5 O21 2.858230 1_555
K5 O11 2.862314 1_555
K5 O12 2.919534 1_556
K5 O24 3.201601 1_555
K5 O9 3.304084 1_545
K6 O16 2.705717 1_555
K6 O30 2.748674 1_555
K6 O10 2.866968 1_555
K6 O4 2.898804 1_555
K6 O31 3.031585 1_555
K6 O6 3.033788 1_655
K7 O17 2.765579 1_555
K7 O18 2.790708 1_555
K7 O15 2.825084 1_555
K7 O10 2.858230 1_555
K7 O27 2.862314 1_655
K7 O4 2.919534 1_554
K7 O31 3.201601 1_555
K7 O19 3.304084 1_555
N0 O23 1.253776 1_555
N0 O22 1.255973 1_554
N0 Pt2 2.046884 1_555
N1 O20 1.250199 1_565
N1 O28 1.252734 1_554
N1 Pt1 2.059945 1_565
N2 O31 1.251070 1_555
N2 O18 1.254581 1_555
N2 Pt0 2.046263 1_555
N3 O9 1.251319 1_555
N3 O1 1.259732 1_555
N3 Pt0 2.056364 1_555
N4 O24 1.251070 1_565
N4 O2 1.254581 1_555
N4 Pt3 2.046263 1_565
N5 O26 1.251070 1_555
N5 O25 1.254581 1_555
N5 Pt0 2.046263 1_555
N6 O16 1.253776 1_455
N6 O7 1.255973 1_556
N6 Pt1 2.046884 1_566
N7 O11 1.253776 1_555
N7 O12 1.255973 1_556
N7 Pt2 2.046884 1_556
N8 O30 1.250199 1_555
N8 O15 1.252734 1_556
N8 Pt2 2.059945 1_556
N9 O5 1.250199 1_545
N9 O13 1.252734 1_556
N9 Pt1 2.059945 1_656
N10 O27 1.253776 1_655
N10 O4 1.255973 1_554
N10 Pt1 2.046884 1_655
N11 O8 1.250199 1_555
N11 O0 1.252734 1_554
N11 Pt2 2.059945 1_555
N12 O29 1.251313 1_555
N12 O21 1.259732 1_555
N12 Pt0 2.056364 1_555
N13 O3 1.251070 1_545
N13 O17 1.254581 1_555
N13 Pt3 2.046263 1_655
N14 O19 1.251319 1_455
N14 O14 1.259732 1_555
N14 Pt3 2.056364 1_565
N15 O6 1.251319 1_655
N15 O10 1.259732 1_555
N15 Pt3 2.056364 1_655
