# generated using pymatgen
data_Hf5As3
_symmetry_space_group_name_H-M   'P 1'
_cell_length_a   3.61957200
_cell_length_b   12.40546300
_cell_length_c   27.68553700
_cell_angle_alpha   90.00000000
_cell_angle_beta   90.00000000
_cell_angle_gamma   90.00000000
_symmetry_Int_Tables_number   1
_chemical_formula_structural   Hf5As3
_chemical_formula_sum   'Hf40 As24'
_cell_volume   1243.14889828
_cell_formula_units_Z   8
loop_
 _symmetry_equiv_pos_site_id
 _symmetry_equiv_pos_as_xyz
  1  'x, y, z'
loop_
 _atom_site_type_symbol
 _atom_site_label
 _atom_site_symmetry_multiplicity
 _atom_site_fract_x
 _atom_site_fract_y
 _atom_site_fract_z
 _atom_site_occupancy
  Hf  Hf0  1  0.25000000  0.88012000  0.72688400  1
  Hf  Hf1  1  0.25000000  0.61988000  0.22688400  1
  Hf  Hf2  1  0.75000000  0.11988000  0.27311600  1
  Hf  Hf3  1  0.75000000  0.38012000  0.77311600  1
  Hf  Hf4  1  0.25000000  0.53942000  0.82345200  1
  Hf  Hf5  1  0.25000000  0.96058000  0.32345200  1
  Hf  Hf6  1  0.75000000  0.46058000  0.17654800  1
  Hf  Hf7  1  0.75000000  0.03942000  0.67654800  1
  Hf  Hf8  1  0.25000000  0.92659900  0.60136600  1
  Hf  Hf9  1  0.25000000  0.57340100  0.10136600  1
  Hf  Hf10  1  0.75000000  0.07340100  0.39863400  1
  Hf  Hf11  1  0.75000000  0.42659900  0.89863400  1
  Hf  Hf12  1  0.25000000  0.20879400  0.62376100  1
  Hf  Hf13  1  0.25000000  0.29120600  0.12376100  1
  Hf  Hf14  1  0.75000000  0.79120600  0.37623900  1
  Hf  Hf15  1  0.75000000  0.70879400  0.87623900  1
  Hf  Hf16  1  0.25000000  0.65098300  0.63769300  1
  Hf  Hf17  1  0.25000000  0.84901700  0.13769300  1
  Hf  Hf18  1  0.75000000  0.34901700  0.36230700  1
  Hf  Hf19  1  0.75000000  0.15098300  0.86230700  1
  Hf  Hf20  1  0.25000000  0.15957900  0.76129500  1
  Hf  Hf21  1  0.25000000  0.34042100  0.26129500  1
  Hf  Hf22  1  0.75000000  0.84042100  0.23870500  1
  Hf  Hf23  1  0.75000000  0.65957900  0.73870500  1
  Hf  Hf24  1  0.25000000  0.94302200  0.84921200  1
  Hf  Hf25  1  0.25000000  0.55697800  0.34921200  1
  Hf  Hf26  1  0.75000000  0.05697800  0.15078800  1
  Hf  Hf27  1  0.75000000  0.44302200  0.65078800  1
  Hf  Hf28  1  0.25000000  0.80328300  0.95539100  1
  Hf  Hf29  1  0.25000000  0.69671700  0.45539100  1
  Hf  Hf30  1  0.75000000  0.19671700  0.04460900  1
  Hf  Hf31  1  0.75000000  0.30328300  0.54460900  1
  Hf  Hf32  1  0.25000000  0.08387800  0.96790400  1
  Hf  Hf33  1  0.25000000  0.41612200  0.46790400  1
  Hf  Hf34  1  0.75000000  0.91612200  0.03209600  1
  Hf  Hf35  1  0.75000000  0.58387800  0.53209600  1
  Hf  Hf36  1  0.25000000  0.38882700  0.99867100  1
  Hf  Hf37  1  0.25000000  0.11117300  0.49867100  1
  Hf  Hf38  1  0.75000000  0.61117300  0.00132900  1
  Hf  Hf39  1  0.75000000  0.88882700  0.50132900  1
  As  As0  1  0.25000000  0.75021100  0.54884000  1
  As  As1  1  0.25000000  0.74978900  0.04884000  1
  As  As2  1  0.75000000  0.24978900  0.45116000  1
  As  As3  1  0.75000000  0.25021100  0.95116000  1
  As  As4  1  0.25000000  0.44983300  0.57667400  1
  As  As5  1  0.25000000  0.05016700  0.07667400  1
  As  As6  1  0.75000000  0.55016700  0.42332600  1
  As  As7  1  0.75000000  0.94983300  0.92332600  1
  As  As8  1  0.25000000  0.50233400  0.72051400  1
  As  As9  1  0.25000000  0.99766600  0.22051400  1
  As  As10  1  0.75000000  0.49766600  0.27948600  1
  As  As11  1  0.75000000  0.00233400  0.77948600  1
  As  As12  1  0.25000000  0.75078200  0.80260300  1
  As  As13  1  0.25000000  0.74921800  0.30260300  1
  As  As14  1  0.75000000  0.24921800  0.19739700  1
  As  As15  1  0.75000000  0.25078200  0.69739700  1
  As  As16  1  0.25000000  0.31141700  0.83958400  1
  As  As17  1  0.25000000  0.18858300  0.33958400  1
  As  As18  1  0.75000000  0.68858300  0.16041600  1
  As  As19  1  0.75000000  0.81141700  0.66041600  1
  As  As20  1  0.25000000  0.57968400  0.92743600  1
  As  As21  1  0.25000000  0.92031600  0.42743600  1
  As  As22  1  0.75000000  0.42031600  0.07256400  1
  As  As23  1  0.75000000  0.07968400  0.57256400  1
loop_
_geom_bond_atom_site_label_1
_geom_bond_atom_site_label_2
_geom_bond_distance
_geom_bond_site_symmetry_2
As0 Hf8 2.627325 1_555
As0 Hf29 2.670940 1_555
As0 Hf16 2.750746 1_555
As0 Hf35 2.783522 1_455
As0 Hf35 2.783522 1_555
As0 Hf39 2.821795 1_555
As0 Hf39 2.821795 1_455
As1 Hf9 2.627325 1_555
As1 Hf28 2.670940 1_554
As1 Hf17 2.750746 1_555
As1 Hf34 2.783522 1_455
As1 Hf34 2.783522 1_555
As1 Hf38 2.821795 1_455
As1 Hf38 2.821795 1_555
As2 Hf10 2.627325 1_555
As2 Hf31 2.670940 1_555
As2 Hf18 2.750746 1_555
As2 Hf33 2.783522 1_655
As2 Hf33 2.783522 1_555
As2 Hf37 2.821795 1_555
As2 Hf37 2.821795 1_655
As3 Hf11 2.627325 1_555
As3 Hf30 2.670940 1_556
As3 Hf19 2.750746 1_555
As3 Hf32 2.783522 1_555
As3 Hf32 2.783522 1_655
As3 Hf36 2.821795 1_555
As3 Hf36 2.821795 1_655
As4 Hf31 2.714517 1_455
As4 Hf31 2.714517 1_555
As4 Hf27 2.737280 1_455
As4 Hf27 2.737280 1_555
As4 Hf35 2.750217 1_555
As4 Hf35 2.750217 1_455
As4 Hf16 3.013420 1_555
As4 Hf33 3.040256 1_555
As4 Hf12 3.262016 1_555
As5 Hf30 2.714517 1_555
As5 Hf30 2.714517 1_455
As5 Hf26 2.737280 1_555
As5 Hf26 2.737280 1_455
As5 Hf34 2.750217 1_445
As5 Hf34 2.750217 1_545
As5 Hf17 3.013420 1_545
As5 Hf32 3.040256 1_554
As5 Hf13 3.262016 1_555
As6 Hf29 2.714517 1_555
As6 Hf29 2.714517 1_655
As6 Hf25 2.737280 1_655
As6 Hf25 2.737280 1_555
As6 Hf33 2.750217 1_655
As6 Hf33 2.750217 1_555
As6 Hf18 3.013420 1_555
As6 Hf35 3.040256 1_555
As6 Hf14 3.262016 1_555
As7 Hf28 2.714517 1_655
As7 Hf28 2.714517 1_555
As7 Hf24 2.737280 1_655
As7 Hf24 2.737280 1_555
As7 Hf32 2.750217 1_565
As7 Hf32 2.750217 1_665
As7 Hf19 3.013420 1_565
As7 Hf34 3.040256 1_556
As7 Hf15 3.262016 1_555
As8 Hf23 2.708170 1_555
As8 Hf23 2.708170 1_455
As8 Hf27 2.746483 1_555
As8 Hf27 2.746483 1_455
As8 Hf3 2.773950 1_455
As8 Hf3 2.773950 1_555
As8 Hf4 2.886790 1_555
As8 Hf16 2.942473 1_555
As9 Hf22 2.708170 1_455
As9 Hf22 2.708170 1_555
As9 Hf26 2.746483 1_565
As9 Hf26 2.746483 1_465
As9 Hf2 2.773950 1_465
As9 Hf2 2.773950 1_565
As9 Hf5 2.886790 1_555
As9 Hf17 2.942473 1_555
As10 Hf21 2.708170 1_555
As10 Hf21 2.708170 1_655
As10 Hf25 2.746483 1_655
As10 Hf25 2.746483 1_555
As10 Hf1 2.773950 1_655
As10 Hf1 2.773950 1_555
As10 Hf6 2.886790 1_555
As10 Hf18 2.942473 1_555
As11 Hf20 2.708170 1_655
As11 Hf20 2.708170 1_555
As11 Hf24 2.746483 1_645
As11 Hf24 2.746483 1_545
As11 Hf0 2.773950 1_645
As11 Hf0 2.773950 1_545
As11 Hf7 2.886790 1_555
As11 Hf19 2.942473 1_555
As12 Hf0 2.639882 1_555
As12 Hf4 2.684826 1_555
As12 Hf24 2.711552 1_555
As12 Hf23 2.772177 1_555
As12 Hf23 2.772177 1_455
As12 Hf15 2.775382 1_555
As12 Hf15 2.775382 1_455
As13 Hf1 2.639882 1_555
As13 Hf5 2.684826 1_555
As13 Hf25 2.711552 1_555
As13 Hf22 2.772177 1_455
As13 Hf22 2.772177 1_555
As13 Hf14 2.775382 1_455
As13 Hf14 2.775382 1_555
As14 Hf2 2.639882 1_555
As14 Hf6 2.684826 1_555
As14 Hf26 2.711552 1_555
As14 Hf21 2.772177 1_555
As14 Hf21 2.772177 1_655
As14 Hf13 2.775382 1_555
As14 Hf13 2.775382 1_655
As15 Hf3 2.639882 1_555
As15 Hf7 2.684826 1_555
As15 Hf27 2.711552 1_555
As15 Hf20 2.772177 1_555
As15 Hf20 2.772177 1_655
As15 Hf12 2.775382 1_555
As15 Hf12 2.775382 1_655
As16 Hf3 2.718101 1_555
As16 Hf3 2.718101 1_455
As16 Hf19 2.762647 1_555
As16 Hf19 2.762647 1_455
As16 Hf11 2.826608 1_455
As16 Hf11 2.826608 1_555
As16 Hf4 2.863527 1_555
As16 Hf20 2.871579 1_555
As17 Hf2 2.718101 1_555
As17 Hf2 2.718101 1_455
As17 Hf18 2.762647 1_555
As17 Hf18 2.762647 1_455
As17 Hf10 2.826608 1_455
As17 Hf10 2.826608 1_555
As17 Hf5 2.863527 1_545
As17 Hf21 2.871579 1_555
As18 Hf1 2.718101 1_655
As18 Hf1 2.718101 1_555
As18 Hf17 2.762647 1_655
As18 Hf17 2.762647 1_555
As18 Hf9 2.826608 1_555
As18 Hf9 2.826608 1_655
As18 Hf6 2.863527 1_555
As18 Hf22 2.871579 1_555
As19 Hf0 2.718101 1_555
As19 Hf0 2.718101 1_655
As19 Hf16 2.762647 1_555
As19 Hf16 2.762647 1_655
As19 Hf8 2.826608 1_555
As19 Hf8 2.826608 1_655
As19 Hf7 2.863527 1_565
As19 Hf23 2.871579 1_555
As20 Hf11 2.741845 1_555
As20 Hf11 2.741845 1_455
As20 Hf38 2.759182 1_556
As20 Hf38 2.759182 1_456
As20 Hf15 2.801739 1_555
As20 Hf15 2.801739 1_455
As20 Hf28 2.879798 1_555
As20 Hf4 2.921864 1_555
As20 Hf36 3.081453 1_555
As21 Hf10 2.741845 1_565
As21 Hf10 2.741845 1_465
As21 Hf39 2.759182 1_555
As21 Hf39 2.759182 1_455
As21 Hf14 2.801739 1_455
As21 Hf14 2.801739 1_555
As21 Hf29 2.879798 1_555
As21 Hf5 2.921864 1_555
As21 Hf37 3.081453 1_565
As22 Hf9 2.741845 1_655
As22 Hf9 2.741845 1_555
As22 Hf36 2.759182 1_654
As22 Hf36 2.759182 1_554
As22 Hf13 2.801739 1_555
As22 Hf13 2.801739 1_655
As22 Hf30 2.879798 1_555
As22 Hf6 2.921864 1_555
As22 Hf38 3.081453 1_555
As23 Hf8 2.741845 1_645
As23 Hf8 2.741845 1_545
As23 Hf37 2.759182 1_555
As23 Hf37 2.759182 1_655
As23 Hf12 2.801739 1_555
As23 Hf12 2.801739 1_655
As23 Hf31 2.879798 1_555
As23 Hf7 2.921864 1_555
As23 Hf39 3.081453 1_545
