# generated using pymatgen
data_Pr2Os3
_symmetry_space_group_name_H-M   'P 1'
_cell_length_a   7.35828019
_cell_length_b   7.35828019
_cell_length_c   18.64144828
_cell_angle_alpha   82.36179182
_cell_angle_beta   82.36179182
_cell_angle_gamma   76.09141793
_symmetry_Int_Tables_number   1
_chemical_formula_structural   Pr2Os3
_chemical_formula_sum   'Pr16 Os24'
_cell_volume   965.67943945
_cell_formula_units_Z   8
loop_
 _symmetry_equiv_pos_site_id
 _symmetry_equiv_pos_as_xyz
  1  'x, y, z'
loop_
 _atom_site_type_symbol
 _atom_site_label
 _atom_site_symmetry_multiplicity
 _atom_site_fract_x
 _atom_site_fract_y
 _atom_site_fract_z
 _atom_site_occupancy
  Pr  Pr0_0  1  0.30948000  0.30948000  0.40395050  1
  Pr  Pr0_1  1  0.30948000  0.30948000  0.90395050  1
  Pr  Pr0_2  1  0.30948000  0.80948000  0.40395050  1
  Pr  Pr0_3  1  0.30948000  0.80948000  0.90395050  1
  Pr  Pr0_4  1  0.80948000  0.30948000  0.40395050  1
  Pr  Pr0_5  1  0.80948000  0.30948000  0.90395050  1
  Pr  Pr0_6  1  0.80948000  0.80948000  0.40395050  1
  Pr  Pr0_7  1  0.80948000  0.80948000  0.90395050  1
  Pr  Pr1_0  1  0.19052000  0.19052000  0.09604950  1
  Pr  Pr1_1  1  0.19052000  0.19052000  0.59604950  1
  Pr  Pr1_2  1  0.19052000  0.69052000  0.09604950  1
  Pr  Pr1_3  1  0.19052000  0.69052000  0.59604950  1
  Pr  Pr1_4  1  0.69052000  0.19052000  0.09604950  1
  Pr  Pr1_5  1  0.69052000  0.19052000  0.59604950  1
  Pr  Pr1_6  1  0.69052000  0.69052000  0.09604950  1
  Pr  Pr1_7  1  0.69052000  0.69052000  0.59604950  1
  Os  Os0_0  1  0.00000000  0.00000000  0.00000000  1
  Os  Os0_1  1  0.00000000  0.00000000  0.50000000  1
  Os  Os0_2  1  0.00000000  0.50000000  0.00000000  1
  Os  Os0_3  1  0.00000000  0.50000000  0.50000000  1
  Os  Os0_4  1  0.50000000  0.00000000  0.00000000  1
  Os  Os0_5  1  0.50000000  0.00000000  0.50000000  1
  Os  Os0_6  1  0.50000000  0.50000000  0.00000000  1
  Os  Os0_7  1  0.50000000  0.50000000  0.50000000  1
  Os  Os1_0  1  0.34978300  0.34978300  0.23161600  1
  Os  Os1_1  1  0.34978300  0.34978300  0.73161600  1
  Os  Os1_2  1  0.34978300  0.84978300  0.23161600  1
  Os  Os1_3  1  0.34978300  0.84978300  0.73161600  1
  Os  Os1_4  1  0.84978300  0.34978300  0.23161600  1
  Os  Os1_5  1  0.84978300  0.34978300  0.73161600  1
  Os  Os1_6  1  0.84978300  0.84978300  0.23161600  1
  Os  Os1_7  1  0.84978300  0.84978300  0.73161600  1
  Os  Os2_0  1  0.15021700  0.15021700  0.26838400  1
  Os  Os2_1  1  0.15021700  0.15021700  0.76838400  1
  Os  Os2_2  1  0.15021700  0.65021700  0.26838400  1
  Os  Os2_3  1  0.15021700  0.65021700  0.76838400  1
  Os  Os2_4  1  0.65021700  0.15021700  0.26838400  1
  Os  Os2_5  1  0.65021700  0.15021700  0.76838400  1
  Os  Os2_6  1  0.65021700  0.65021700  0.26838400  1
  Os  Os2_7  1  0.65021700  0.65021700  0.76838400  1
loop_
_geom_bond_atom_site_label_1
_geom_bond_atom_site_label_2
_geom_bond_distance
_geom_bond_site_symmetry_2
Pr0_0 Pr1_1 3.613560 1_555
Pr0_0 Pr0_4 3.679140 1_555
Pr0_0 Pr0_2 3.679140 1_545
Pr0_0 Pr0_2 3.679140 1_555
Pr0_0 Pr0_4 3.679140 1_455
Pr0_1 Pr1_0 3.613560 1_556
Pr0_1 Pr0_3 3.679140 1_545
Pr0_1 Pr0_5 3.679140 1_555
Pr0_1 Pr0_3 3.679140 1_555
Pr0_1 Pr0_5 3.679140 1_455
Pr0_2 Pr1_3 3.613560 1_555
Pr0_2 Pr0_6 3.679140 1_555
Pr0_2 Pr0_6 3.679140 1_455
Pr0_3 Pr1_2 3.613560 1_556
Pr0_3 Pr0_7 3.679140 1_555
Pr0_3 Pr0_7 3.679140 1_455
Pr0_4 Pr1_5 3.613560 1_555
Pr0_4 Pr0_6 3.679140 1_545
Pr0_4 Pr0_6 3.679140 1_555
Pr0_5 Pr1_4 3.613560 1_556
Pr0_5 Pr0_7 3.679140 1_545
Pr0_5 Pr0_7 3.679140 1_555
Pr0_6 Pr1_7 3.613560 1_555
Pr0_7 Pr1_6 3.613560 1_556
Pr1_0 Pr1_2 3.679140 1_545
Pr1_0 Pr1_4 3.679140 1_455
Pr1_0 Pr1_4 3.679140 1_555
Pr1_0 Pr1_2 3.679140 1_555
Pr1_1 Pr1_3 3.679140 1_545
Pr1_1 Pr1_5 3.679140 1_555
Pr1_1 Pr1_3 3.679140 1_555
Pr1_1 Pr1_5 3.679140 1_455
Pr1_2 Pr1_6 3.679140 1_555
Pr1_2 Pr1_6 3.679140 1_455
Pr1_3 Pr1_7 3.679140 1_455
Pr1_3 Pr1_7 3.679140 1_555
Pr1_4 Pr1_6 3.679140 1_545
Pr1_4 Pr1_6 3.679140 1_555
Pr1_5 Pr1_7 3.679140 1_555
Pr1_5 Pr1_7 3.679140 1_545
Os0_0 Pr1_2 2.899247 1_545
Os0_0 Pr0_3 2.899247 1_544
Os0_0 Pr1_4 2.899247 1_455
Os0_0 Pr0_5 2.899247 1_454
Os0_0 Pr0_7 3.068535 1_444
Os0_0 Pr1_0 3.068535 1_555
Os0_0 Pr1_6 3.728644 1_445
Os0_0 Pr0_1 3.728644 1_554
Os0_1 Pr1_5 2.899247 1_455
Os0_1 Pr0_2 2.899247 1_545
Os0_1 Pr1_3 2.899247 1_545
Os0_1 Pr0_4 2.899247 1_455
Os0_1 Pr1_1 3.068535 1_555
Os0_1 Pr0_6 3.068535 1_445
Os0_1 Pr1_7 3.728644 1_445
Os0_1 Pr0_0 3.728644 1_555
Os0_2 Pr0_1 2.899247 1_554
Os0_2 Pr1_0 2.899247 1_555
Os0_2 Pr1_6 2.899247 1_455
Os0_2 Pr0_7 2.899247 1_454
Os0_2 Pr0_5 3.068535 1_454
Os0_2 Pr1_2 3.068535 1_555
Os0_2 Pr1_4 3.728644 1_455
Os0_2 Pr0_3 3.728644 1_554
Os0_3 Pr0_0 2.899247 1_555
Os0_3 Pr1_1 2.899247 1_555
Os0_3 Pr0_6 2.899247 1_455
Os0_3 Pr1_7 2.899247 1_455
Os0_3 Pr1_3 3.068535 1_555
Os0_3 Pr0_4 3.068535 1_455
Os0_3 Pr1_5 3.728644 1_455
Os0_3 Pr0_2 3.728644 1_555
Os0_4 Pr1_0 2.899247 1_555
Os0_4 Pr0_7 2.899247 1_544
Os0_4 Pr0_1 2.899247 1_554
Os0_4 Pr1_6 2.899247 1_545
Os0_4 Pr0_3 3.068535 1_544
Os0_4 Pr1_4 3.068535 1_555
Os0_4 Pr1_2 3.728644 1_545
Os0_4 Pr0_5 3.728644 1_554
Os0_5 Pr0_0 2.899247 1_555
Os0_5 Pr1_1 2.899247 1_555
Os0_5 Pr0_6 2.899247 1_545
Os0_5 Pr1_7 2.899247 1_545
Os0_5 Pr1_5 3.068535 1_555
Os0_5 Pr0_2 3.068535 1_545
Os0_5 Pr0_4 3.728644 1_555
Os0_5 Pr1_3 3.728644 1_545
Os0_6 Pr0_5 2.899247 1_554
Os0_6 Pr1_2 2.899247 1_555
Os0_6 Pr0_3 2.899247 1_554
Os0_6 Pr1_4 2.899247 1_555
Os0_6 Pr0_1 3.068535 1_554
Os0_6 Pr1_6 3.068535 1_555
Os0_6 Pr1_0 3.728644 1_555
Os0_6 Pr0_7 3.728644 1_554
Os0_7 Pr0_2 2.899247 1_555
Os0_7 Pr0_4 2.899247 1_555
Os0_7 Pr1_5 2.899247 1_555
Os0_7 Pr1_3 2.899247 1_555
Os0_7 Pr0_0 3.068535 1_555
Os0_7 Pr1_7 3.068535 1_555
Os0_7 Pr1_1 3.728644 1_555
Os0_7 Pr0_6 3.728644 1_555
Os1_0 Os2_0 2.298717 1_555
Os1_0 Os2_4 2.467357 1_555
Os1_0 Os2_2 2.467357 1_555
Os1_0 Pr0_0 3.167367 1_555
Os1_0 Pr1_0 3.371653 1_555
Os1_0 Pr1_2 3.425855 1_555
Os1_0 Pr1_4 3.425855 1_555
Os1_1 Os2_1 2.298717 1_555
Os1_1 Os2_3 2.467357 1_555
Os1_1 Os2_5 2.467357 1_555
Os1_1 Pr0_1 3.167367 1_555
Os1_1 Pr1_1 3.371653 1_555
Os1_1 Pr1_3 3.425855 1_555
Os1_1 Pr1_5 3.425855 1_555
Os1_2 Os2_2 2.298717 1_555
Os1_2 Os2_6 2.467357 1_555
Os1_2 Os2_0 2.467357 1_565
Os1_2 Pr0_2 3.167367 1_555
Os1_2 Pr1_2 3.371653 1_555
Os1_2 Pr1_6 3.425855 1_555
Os1_2 Pr1_0 3.425855 1_565
Os1_3 Os2_3 2.298717 1_555
Os1_3 Os2_1 2.467357 1_565
Os1_3 Os2_7 2.467357 1_555
Os1_3 Pr0_3 3.167367 1_555
Os1_3 Pr1_3 3.371653 1_555
Os1_3 Pr1_1 3.425855 1_565
Os1_3 Pr1_7 3.425855 1_555
Os1_4 Os2_4 2.298717 1_555
Os1_4 Os2_6 2.467357 1_555
Os1_4 Os2_0 2.467357 1_655
Os1_4 Pr0_4 3.167367 1_555
Os1_4 Pr1_4 3.371653 1_555
Os1_4 Pr1_6 3.425855 1_555
Os1_4 Pr1_0 3.425855 1_655
Os1_5 Os2_5 2.298717 1_555
Os1_5 Os2_7 2.467357 1_555
Os1_5 Os2_1 2.467357 1_655
Os1_5 Pr0_5 3.167367 1_555
Os1_5 Pr1_5 3.371653 1_555
Os1_5 Pr1_7 3.425855 1_555
Os1_5 Pr1_1 3.425855 1_655
Os1_6 Os2_6 2.298717 1_555
Os1_6 Os2_4 2.467357 1_565
Os1_6 Os2_2 2.467357 1_655
Os1_6 Pr0_6 3.167367 1_555
Os1_6 Pr1_6 3.371653 1_555
Os1_6 Pr1_4 3.425855 1_565
Os1_6 Pr1_2 3.425855 1_655
Os1_7 Os2_7 2.298717 1_555
Os1_7 Os2_5 2.467357 1_565
Os1_7 Os2_3 2.467357 1_655
Os1_7 Pr0_7 3.167367 1_555
Os1_7 Pr1_7 3.371653 1_555
Os1_7 Pr1_5 3.425855 1_565
Os1_7 Pr1_3 3.425855 1_655
Os2_0 Pr1_0 3.167367 1_555
Os2_0 Pr0_0 3.371653 1_555
Os2_0 Pr0_4 3.425855 1_455
Os2_0 Pr0_2 3.425855 1_545
Os2_1 Pr1_1 3.167367 1_555
Os2_1 Pr0_1 3.371653 1_555
Os2_1 Pr0_3 3.425855 1_545
Os2_1 Pr0_5 3.425855 1_455
Os2_2 Pr1_2 3.167367 1_555
Os2_2 Pr0_2 3.371653 1_555
Os2_2 Pr0_6 3.425855 1_455
Os2_2 Pr0_0 3.425855 1_555
Os2_3 Pr1_3 3.167367 1_555
Os2_3 Pr0_3 3.371653 1_555
Os2_3 Pr0_1 3.425855 1_555
Os2_3 Pr0_7 3.425855 1_455
Os2_4 Pr1_4 3.167367 1_555
Os2_4 Pr0_4 3.371653 1_555
Os2_4 Pr0_0 3.425855 1_555
Os2_4 Pr0_6 3.425855 1_545
Os2_5 Pr1_5 3.167367 1_555
Os2_5 Pr0_5 3.371653 1_555
Os2_5 Pr0_1 3.425855 1_555
Os2_5 Pr0_7 3.425855 1_545
Os2_6 Pr1_6 3.167367 1_555
Os2_6 Pr0_6 3.371653 1_555
Os2_6 Pr0_2 3.425855 1_555
Os2_6 Pr0_4 3.425855 1_555
Os2_7 Pr1_7 3.167367 1_555
Os2_7 Pr0_7 3.371653 1_555
Os2_7 Pr0_3 3.425855 1_555
Os2_7 Pr0_5 3.425855 1_555
