# generated using pymatgen
data_Ba(ReN2)2
_symmetry_space_group_name_H-M   'P 1'
_cell_length_a   11.11165900
_cell_length_b   11.11165900
_cell_length_c   11.11165900
_cell_angle_alpha   90.00000000
_cell_angle_beta   90.00000000
_cell_angle_gamma   90.00000000
_symmetry_Int_Tables_number   1
_chemical_formula_structural   Ba(ReN2)2
_chemical_formula_sum   'Ba12 Re24 N48'
_cell_volume   1371.94504430
_cell_formula_units_Z   12
loop_
 _symmetry_equiv_pos_site_id
 _symmetry_equiv_pos_as_xyz
  1  'x, y, z'
loop_
 _atom_site_type_symbol
 _atom_site_label
 _atom_site_symmetry_multiplicity
 _atom_site_fract_x
 _atom_site_fract_y
 _atom_site_fract_z
 _atom_site_occupancy
  Ba  Ba0  1  0.50000000  0.50000000  0.00000000  1
  Ba  Ba1  1  0.50000000  0.00000000  0.50000000  1
  Ba  Ba2  1  0.00000000  0.50000000  0.50000000  1
  Ba  Ba3  1  0.00000000  0.00000000  0.00000000  1
  Ba  Ba4  1  0.14620700  0.85379300  0.35379300  1
  Ba  Ba5  1  0.85379300  0.35379300  0.14620700  1
  Ba  Ba6  1  0.35379300  0.14620700  0.85379300  1
  Ba  Ba7  1  0.64620700  0.64620700  0.64620700  1
  Ba  Ba8  1  0.85379300  0.14620700  0.64620700  1
  Ba  Ba9  1  0.14620700  0.64620700  0.85379300  1
  Ba  Ba10  1  0.64620700  0.85379300  0.14620700  1
  Ba  Ba11  1  0.35379300  0.35379300  0.35379300  1
  Re  Re0  1  0.41258900  0.67396200  0.34497600  1
  Re  Re1  1  0.58741100  0.17396200  0.15502400  1
  Re  Re2  1  0.08741100  0.32603800  0.84497600  1
  Re  Re3  1  0.91258900  0.82603800  0.65502400  1
  Re  Re4  1  0.34497600  0.41258900  0.67396200  1
  Re  Re5  1  0.15502400  0.58741100  0.17396200  1
  Re  Re6  1  0.84497600  0.08741100  0.32603800  1
  Re  Re7  1  0.65502400  0.91258900  0.82603800  1
  Re  Re8  1  0.67396200  0.34497600  0.41258900  1
  Re  Re9  1  0.17396200  0.15502400  0.58741100  1
  Re  Re10  1  0.32603800  0.84497600  0.08741100  1
  Re  Re11  1  0.82603800  0.65502400  0.91258900  1
  Re  Re12  1  0.58741100  0.32603800  0.65502400  1
  Re  Re13  1  0.41258900  0.82603800  0.84497600  1
  Re  Re14  1  0.91258900  0.67396200  0.15502400  1
  Re  Re15  1  0.08741100  0.17396200  0.34497600  1
  Re  Re16  1  0.65502400  0.58741100  0.32603800  1
  Re  Re17  1  0.84497600  0.41258900  0.82603800  1
  Re  Re18  1  0.15502400  0.91258900  0.67396200  1
  Re  Re19  1  0.34497600  0.08741100  0.17396200  1
  Re  Re20  1  0.32603800  0.65502400  0.58741100  1
  Re  Re21  1  0.82603800  0.84497600  0.41258900  1
  Re  Re22  1  0.67396200  0.15502400  0.91258900  1
  Re  Re23  1  0.17396200  0.34497600  0.08741100  1
  N  N0  1  0.39521800  0.80568700  0.25077200  1
  N  N1  1  0.60478200  0.30568700  0.24922800  1
  N  N2  1  0.10478200  0.19431300  0.75077200  1
  N  N3  1  0.89521800  0.69431300  0.74922800  1
  N  N4  1  0.25077200  0.39521800  0.80568700  1
  N  N5  1  0.24922800  0.60478200  0.30568700  1
  N  N6  1  0.75077200  0.10478200  0.19431300  1
  N  N7  1  0.74922800  0.89521800  0.69431300  1
  N  N8  1  0.80568700  0.25077200  0.39521800  1
  N  N9  1  0.30568700  0.24922800  0.60478200  1
  N  N10  1  0.19431300  0.75077200  0.10478200  1
  N  N11  1  0.69431300  0.74922800  0.89521800  1
  N  N12  1  0.60478200  0.19431300  0.74922800  1
  N  N13  1  0.39521800  0.69431300  0.75077200  1
  N  N14  1  0.89521800  0.80568700  0.24922800  1
  N  N15  1  0.10478200  0.30568700  0.25077200  1
  N  N16  1  0.74922800  0.60478200  0.19431300  1
  N  N17  1  0.75077200  0.39521800  0.69431300  1
  N  N18  1  0.24922800  0.89521800  0.80568700  1
  N  N19  1  0.25077200  0.10478200  0.30568700  1
  N  N20  1  0.19431300  0.74922800  0.60478200  1
  N  N21  1  0.69431300  0.75077200  0.39521800  1
  N  N22  1  0.80568700  0.24922800  0.89521800  1
  N  N23  1  0.30568700  0.25077200  0.10478200  1
  N  N24  1  0.45993100  0.72757500  0.50700800  1
  N  N25  1  0.54006900  0.22757500  0.99299200  1
  N  N26  1  0.04006900  0.27242500  0.00700800  1
  N  N27  1  0.95993100  0.77242500  0.49299200  1
  N  N28  1  0.50700800  0.45993100  0.72757500  1
  N  N29  1  0.99299200  0.54006900  0.22757500  1
  N  N30  1  0.00700800  0.04006900  0.27242500  1
  N  N31  1  0.49299200  0.95993100  0.77242500  1
  N  N32  1  0.72757500  0.50700800  0.45993100  1
  N  N33  1  0.22757500  0.99299200  0.54006900  1
  N  N34  1  0.27242500  0.00700800  0.04006900  1
  N  N35  1  0.77242500  0.49299200  0.95993100  1
  N  N36  1  0.54006900  0.27242500  0.49299200  1
  N  N37  1  0.45993100  0.77242500  0.00700800  1
  N  N38  1  0.95993100  0.72757500  0.99299200  1
  N  N39  1  0.04006900  0.22757500  0.50700800  1
  N  N40  1  0.49299200  0.54006900  0.27242500  1
  N  N41  1  0.00700800  0.45993100  0.77242500  1
  N  N42  1  0.99299200  0.95993100  0.72757500  1
  N  N43  1  0.50700800  0.04006900  0.22757500  1
  N  N44  1  0.27242500  0.49299200  0.54006900  1
  N  N45  1  0.77242500  0.00700800  0.45993100  1
  N  N46  1  0.72757500  0.99299200  0.95993100  1
  N  N47  1  0.22757500  0.50700800  0.04006900  1
loop_
_geom_bond_atom_site_label_1
_geom_bond_atom_site_label_2
_geom_bond_distance
_geom_bond_site_symmetry_2
Ba0 N40 3.060652 1_555
Ba0 N37 3.060652 1_555
Ba0 N28 3.060652 1_554
Ba0 N25 3.060652 1_554
Ba0 N47 3.060652 1_555
Ba0 N35 3.060652 1_554
Ba1 N36 3.060652 1_555
Ba1 N45 3.060652 1_555
Ba1 N33 3.060652 1_545
Ba1 N24 3.060652 1_545
Ba1 N31 3.060652 1_545
Ba1 N43 3.060652 1_555
Ba2 N44 3.060652 1_555
Ba2 N32 3.060652 1_455
Ba2 N41 3.060652 1_555
Ba2 N27 3.060652 1_455
Ba2 N29 3.060652 1_455
Ba2 N39 3.060652 1_555
Ba3 N34 3.060652 1_555
Ba3 N26 3.060652 1_555
Ba3 N30 3.060652 1_555
Ba3 N42 3.060652 1_444
Ba3 N46 3.060652 1_444
Ba3 N38 3.060652 1_444
Ba4 N30 2.737527 1_565
Ba4 N33 2.737527 1_555
Ba4 N27 2.737527 1_455
Ba4 N5 3.041714 1_555
Ba4 N10 3.041714 1_555
Ba4 N0 3.041714 1_555
Ba4 N19 3.068176 1_565
Ba4 N20 3.068176 1_555
Ba4 N14 3.068176 1_455
Ba5 N26 2.737527 1_655
Ba5 N29 2.737527 1_555
Ba5 N35 2.737527 1_554
Ba5 N1 3.041714 1_555
Ba5 N6 3.041714 1_555
Ba5 N8 3.041714 1_555
Ba5 N15 3.068176 1_655
Ba5 N16 3.068176 1_555
Ba5 N22 3.068176 1_554
Ba6 N34 2.737527 1_556
Ba6 N25 2.737527 1_555
Ba6 N31 2.737527 1_545
Ba6 N9 3.041714 1_555
Ba6 N4 3.041714 1_555
Ba6 N2 3.041714 1_555
Ba6 N23 3.068176 1_556
Ba6 N18 3.068176 1_545
Ba6 N12 3.068176 1_555
Ba7 N28 2.737527 1_555
Ba7 N32 2.737527 1_555
Ba7 N24 2.737527 1_555
Ba7 N7 3.041714 1_555
Ba7 N11 3.041714 1_555
Ba7 N3 3.041714 1_555
Ba7 N13 3.068176 1_555
Ba7 N17 3.068176 1_555
Ba7 N21 3.068176 1_555
Ba8 N39 2.737527 1_655
Ba8 N45 2.737527 1_555
Ba8 N42 2.737527 1_545
Ba8 N22 3.041714 1_555
Ba8 N12 3.041714 1_555
Ba8 N17 3.041714 1_555
Ba8 N2 3.068176 1_655
Ba8 N8 3.068176 1_555
Ba8 N7 3.068176 1_545
Ba9 N47 2.737527 1_556
Ba9 N41 2.737527 1_555
Ba9 N38 2.737527 1_455
Ba9 N18 3.041714 1_555
Ba9 N20 3.041714 1_555
Ba9 N13 3.041714 1_555
Ba9 N10 3.068176 1_556
Ba9 N4 3.068176 1_555
Ba9 N3 3.068176 1_455
Ba10 N43 2.737527 1_565
Ba10 N46 2.737527 1_554
Ba10 N37 2.737527 1_555
Ba10 N14 3.041714 1_555
Ba10 N16 3.041714 1_555
Ba10 N21 3.041714 1_555
Ba10 N6 3.068176 1_565
Ba10 N0 3.068176 1_555
Ba10 N11 3.068176 1_554
Ba11 N40 2.737527 1_555
Ba11 N44 2.737527 1_555
Ba11 N36 2.737527 1_555
Ba11 N15 3.041714 1_555
Ba11 N19 3.041714 1_555
Ba11 N23 3.041714 1_555
Ba11 N9 3.068176 1_555
Ba11 N1 3.068176 1_555
Ba11 N5 3.068176 1_555
N0 Re0 1.809789 1_555
N0 Re10 2.019032 1_555
N1 Re1 1.809789 1_555
N1 Re8 2.019032 1_555
N2 Re2 1.809789 1_555
N2 Re9 2.019032 1_555
N3 Re3 1.809789 1_555
N3 Re11 2.019032 1_555
N4 Re4 1.809789 1_555
N4 Re2 2.019032 1_555
N5 Re5 1.809789 1_555
N5 Re0 2.019032 1_555
N6 Re6 1.809789 1_555
N6 Re1 2.019032 1_555
N7 Re7 1.809789 1_555
N7 Re3 2.019032 1_555
N8 Re8 1.809789 1_555
N8 Re6 2.019032 1_555
N9 Re9 1.809789 1_555
N9 Re4 2.019032 1_555
N10 Re10 1.809789 1_555
N10 Re5 2.019032 1_555
N11 Re11 1.809789 1_555
N11 Re7 2.019032 1_555
N12 Re12 1.809789 1_555
N12 Re22 2.019032 1_555
N13 Re13 1.809789 1_555
N13 Re20 2.019032 1_555
N14 Re14 1.809789 1_555
N14 Re21 2.019032 1_555
N15 Re15 1.809789 1_555
N15 Re23 2.019032 1_555
N16 Re16 1.809789 1_555
N16 Re14 2.019032 1_555
N17 Re17 1.809789 1_555
N17 Re12 2.019032 1_555
N18 Re18 1.809789 1_555
N18 Re13 2.019032 1_555
N19 Re19 1.809789 1_555
N19 Re15 2.019032 1_555
N20 Re20 1.809789 1_555
N20 Re18 2.019032 1_555
N21 Re21 1.809789 1_555
N21 Re16 2.019032 1_555
N22 Re22 1.809789 1_555
N22 Re17 2.019032 1_555
N23 Re23 1.809789 1_555
N23 Re19 2.019032 1_555
N24 Re20 1.913518 1_555
N24 Re0 1.968050 1_555
N25 Re22 1.913518 1_555
N25 Re1 1.968050 1_556
N26 Re23 1.913518 1_555
N26 Re2 1.968050 1_554
N27 Re21 1.913518 1_555
N27 Re3 1.968050 1_555
N28 Re12 1.913518 1_555
N28 Re4 1.968050 1_555
N29 Re14 1.913518 1_555
N29 Re5 1.968050 1_655
N30 Re15 1.913518 1_555
N30 Re6 1.968050 1_455
N31 Re13 1.913518 1_555
N31 Re7 1.968050 1_555
N32 Re16 1.913518 1_555
N32 Re8 1.968050 1_555
N33 Re18 1.913518 1_555
N33 Re9 1.968050 1_565
N34 Re19 1.913518 1_555
N34 Re10 1.968050 1_545
N35 Re17 1.913518 1_555
N35 Re11 1.968050 1_555
N36 Re8 1.913518 1_555
N36 Re12 1.968050 1_555
N37 Re10 1.913518 1_555
N37 Re13 1.968050 1_554
N38 Re11 1.913518 1_555
N38 Re14 1.968050 1_556
N39 Re9 1.913518 1_555
N39 Re15 1.968050 1_555
N40 Re0 1.913518 1_555
N40 Re16 1.968050 1_555
N41 Re2 1.913518 1_555
N41 Re17 1.968050 1_455
N42 Re3 1.913518 1_555
N42 Re18 1.968050 1_655
N43 Re1 1.913518 1_555
N43 Re19 1.968050 1_555
N44 Re4 1.913518 1_555
N44 Re20 1.968050 1_555
N45 Re6 1.913518 1_555
N45 Re21 1.968050 1_545
N46 Re7 1.913518 1_555
N46 Re22 1.968050 1_565
N47 Re5 1.913518 1_555
N47 Re23 1.968050 1_555
