# generated using pymatgen
data_K
_symmetry_space_group_name_H-M   'P 1'
_cell_length_a   10.91170825
_cell_length_b   10.91170825
_cell_length_c   10.91170825
_cell_angle_alpha   96.88490907
_cell_angle_beta   96.88490907
_cell_angle_gamma   139.48617953
_symmetry_Int_Tables_number   1
_chemical_formula_structural   K
_chemical_formula_sum   K8
_cell_volume   791.80341224
_cell_formula_units_Z   8
loop_
 _symmetry_equiv_pos_site_id
 _symmetry_equiv_pos_as_xyz
  1  'x, y, z'
loop_
 _atom_site_type_symbol
 _atom_site_label
 _atom_site_symmetry_multiplicity
 _atom_site_fract_x
 _atom_site_fract_y
 _atom_site_fract_z
 _atom_site_occupancy
  K  K0  1  0.58277600  0.29864100  0.88141600  1
  K  K1  1  0.41722400  0.70135900  0.11858400  1
  K  K2  1  0.91722400  0.79864100  0.71586500  1
  K  K3  1  0.08277600  0.20135900  0.28413500  1
  K  K4  1  0.29864100  0.41722400  0.71586500  1
  K  K5  1  0.70135900  0.58277600  0.28413500  1
  K  K6  1  0.79864100  0.08277600  0.88141600  1
  K  K7  1  0.20135900  0.91722400  0.11858400  1
loop_
_geom_bond_atom_site_label_1
_geom_bond_atom_site_label_2
_geom_bond_distance
_geom_bond_site_symmetry_2
K0 K6 4.419540 1_555
K0 K4 4.457294 1_555
K0 K5 4.457308 1_556
K0 K2 4.474050 1_555
K0 K2 4.474057 1_445
K0 K7 4.490810 1_656
K0 K7 4.490823 1_546
K1 K7 4.419540 1_555
K1 K5 4.457294 1_555
K1 K4 4.457308 1_554
K1 K3 4.474050 1_555
K1 K3 4.474057 1_665
K1 K6 4.490810 1_454
K1 K6 4.490823 1_564
K2 K5 4.419540 1_555
K2 K6 4.457294 1_565
K2 K7 4.457308 1_656
K2 K4 4.490806 1_555
K2 K4 4.490806 1_665
K3 K4 4.419540 1_555
K3 K7 4.457294 1_545
K3 K6 4.457308 1_454
K3 K5 4.490806 1_445
K3 K5 4.490806 1_555
K4 K6 4.474050 1_455
K4 K6 4.474057 1_565
K5 K7 4.474050 1_655
K5 K7 4.474057 1_545
