# generated using pymatgen
data_La3Te4Br
_symmetry_space_group_name_H-M   'P 1'
_cell_length_a   4.42102349
_cell_length_b   14.41453543
_cell_length_c   16.51288302
_cell_angle_alpha   90.00000000
_cell_angle_beta   90.00000000
_cell_angle_gamma   90.00000000
_symmetry_Int_Tables_number   1
_chemical_formula_structural   La3Te4Br
_chemical_formula_sum   'La12 Te16 Br4'
_cell_volume   1052.31649181
_cell_formula_units_Z   4
loop_
 _symmetry_equiv_pos_site_id
 _symmetry_equiv_pos_as_xyz
  1  'x, y, z'
loop_
 _atom_site_type_symbol
 _atom_site_label
 _atom_site_symmetry_multiplicity
 _atom_site_fract_x
 _atom_site_fract_y
 _atom_site_fract_z
 _atom_site_occupancy
  La  La0  1  0.25000000  0.91028165  0.62572303  1
  La  La1  1  0.25000000  0.58971835  0.12572303  1
  La  La2  1  0.75000000  0.08971835  0.37427697  1
  La  La3  1  0.75000000  0.41028165  0.87427697  1
  La  La4  1  0.75000000  0.25035375  0.61932356  1
  La  La5  1  0.75000000  0.24964625  0.11932356  1
  La  La6  1  0.25000000  0.74964625  0.38067644  1
  La  La7  1  0.25000000  0.75035375  0.88067644  1
  La  La8  1  0.75000000  0.57448960  0.63221273  1
  La  La9  1  0.75000000  0.92551040  0.13221273  1
  La  La10  1  0.25000000  0.42551040  0.36778727  1
  La  La11  1  0.25000000  0.07448960  0.86778727  1
  Te  Te0  1  0.25000000  0.41915684  0.57241499  1
  Te  Te1  1  0.25000000  0.08084316  0.07241499  1
  Te  Te2  1  0.75000000  0.58084316  0.42758501  1
  Te  Te3  1  0.75000000  0.91915684  0.92758501  1
  Te  Te4  1  0.75000000  0.04825188  0.71699734  1
  Te  Te5  1  0.75000000  0.45174812  0.21699734  1
  Te  Te6  1  0.25000000  0.95174812  0.28300266  1
  Te  Te7  1  0.25000000  0.54825188  0.78300266  1
  Te  Te8  1  0.75000000  0.77690263  0.73246073  1
  Te  Te9  1  0.75000000  0.72309737  0.23246073  1
  Te  Te10  1  0.25000000  0.22309737  0.26753927  1
  Te  Te11  1  0.25000000  0.27690263  0.76753927  1
  Te  Te12  1  0.25000000  0.11315837  0.52378654  1
  Te  Te13  1  0.25000000  0.38684163  0.02378654  1
  Te  Te14  1  0.75000000  0.88684163  0.47621346  1
  Te  Te15  1  0.75000000  0.61315837  0.97621346  1
  Br  Br0  1  0.25000000  0.70284015  0.56801022  1
  Br  Br1  1  0.25000000  0.79715985  0.06801022  1
  Br  Br2  1  0.75000000  0.29715985  0.43198978  1
  Br  Br3  1  0.75000000  0.20284015  0.93198978  1
loop_
_geom_bond_atom_site_label_1
_geom_bond_atom_site_label_2
_geom_bond_distance
_geom_bond_site_symmetry_2
La0 Te14 3.331016 1_455
La0 Te14 3.331016 1_555
La0 Te4 3.333655 1_465
La0 Te4 3.333655 1_565
La0 Te12 3.374217 1_565
La0 Te8 3.418964 1_555
La0 Te8 3.418964 1_455
La1 Te15 3.331016 1_554
La1 Te15 3.331016 1_454
La1 Te5 3.333655 1_555
La1 Te5 3.333655 1_455
La1 Te13 3.374217 1_555
La1 Te9 3.418964 1_455
La1 Te9 3.418964 1_555
La2 Te12 3.331016 1_555
La2 Te12 3.331016 1_655
La2 Te6 3.333655 1_645
La2 Te6 3.333655 1_545
La2 Te14 3.374217 1_545
La2 Te10 3.418964 1_555
La2 Te10 3.418964 1_655
La3 Te13 3.331016 1_556
La3 Te13 3.331016 1_656
La3 Te7 3.333655 1_655
La3 Te7 3.333655 1_555
La3 Te15 3.374217 1_555
La3 Te11 3.418964 1_555
La3 Te11 3.418964 1_655
La4 Te11 3.320078 1_555
La4 Te11 3.320078 1_655
La4 Te4 3.329884 1_555
La4 Te12 3.359478 1_555
La4 Te12 3.359478 1_655
La4 Te0 3.377412 1_555
La4 Te0 3.377412 1_655
La5 Te10 3.320078 1_655
La5 Te10 3.320078 1_555
La5 Te5 3.329884 1_555
La5 Te13 3.359478 1_555
La5 Te13 3.359478 1_655
La5 Te1 3.377412 1_655
La5 Te1 3.377412 1_555
La6 Te9 3.320078 1_555
La6 Te9 3.320078 1_455
La6 Te6 3.329884 1_555
La6 Te14 3.359478 1_455
La6 Te14 3.359478 1_555
La6 Te2 3.377412 1_455
La6 Te2 3.377412 1_555
La7 Te8 3.320078 1_555
La7 Te8 3.320078 1_455
La7 Te7 3.329884 1_555
La7 Te15 3.359478 1_555
La7 Te15 3.359478 1_455
La7 Te3 3.377412 1_555
La7 Te3 3.377412 1_455
La8 Te0 3.297685 1_655
La8 Te0 3.297685 1_555
La8 Te7 3.351027 1_555
La8 Te7 3.351027 1_655
La8 Te8 3.354580 1_555
La8 Te2 3.380235 1_555
La9 Te1 3.297685 1_565
La9 Te1 3.297685 1_665
La9 Te6 3.351027 1_555
La9 Te6 3.351027 1_655
La9 Te9 3.354580 1_555
La9 Te3 3.380235 1_554
La10 Te2 3.297685 1_455
La10 Te2 3.297685 1_555
La10 Te5 3.351027 1_555
La10 Te5 3.351027 1_455
La10 Te10 3.354580 1_555
La10 Te0 3.380235 1_555
La11 Te3 3.297685 1_445
La11 Te3 3.297685 1_545
La11 Te4 3.351027 1_455
La11 Te4 3.351027 1_555
La11 Te11 3.354580 1_555
La11 Te1 3.380235 1_556
Br0 La8 3.071358 1_455
Br0 La8 3.071358 1_555
Br0 La0 3.138368 1_555
Br0 La6 3.166142 1_555
Br1 La9 3.071358 1_555
Br1 La9 3.071358 1_455
Br1 La1 3.138368 1_555
Br1 La7 3.166142 1_554
Br2 La10 3.071358 1_555
Br2 La10 3.071358 1_655
Br2 La2 3.138368 1_555
Br2 La4 3.166142 1_555
Br3 La11 3.071358 1_655
Br3 La11 3.071358 1_555
Br3 La3 3.138368 1_555
Br3 La5 3.166142 1_556
