# generated using pymatgen
data_Tm2Ge6Pt
_symmetry_space_group_name_H-M   'P 1'
_cell_length_a   4.05953000
_cell_length_b   4.07533500
_cell_length_c   11.14728757
_cell_angle_alpha   90.00000000
_cell_angle_beta   100.49128702
_cell_angle_gamma   90.00000000
_symmetry_Int_Tables_number   1
_chemical_formula_structural   Tm2Ge6Pt
_chemical_formula_sum   'Tm2 Ge6 Pt1'
_cell_volume   181.33708587
_cell_formula_units_Z   1
loop_
 _symmetry_equiv_pos_site_id
 _symmetry_equiv_pos_as_xyz
  1  'x, y, z'
loop_
 _atom_site_type_symbol
 _atom_site_label
 _atom_site_symmetry_multiplicity
 _atom_site_fract_x
 _atom_site_fract_y
 _atom_site_fract_z
 _atom_site_occupancy
  Tm  Tm0  1  0.77810100  0.50000000  0.55620200  1
  Tm  Tm1  1  0.11690000  0.50000000  0.23380000  1
  Ge  Ge0  1  0.49293400  0.50000000  0.98586700  1
  Ge  Ge1  1  0.37870000  0.50000000  0.75740000  1
  Ge  Ge2  1  0.99214900  0.00000000  0.98429700  1
  Ge  Ge3  1  0.87743400  0.00000000  0.75486900  1
  Ge  Ge4  1  0.67014600  0.00000000  0.34029300  1
  Ge  Ge5  1  0.24078600  0.00000000  0.48157300  1
  Pt  Pt0  1  0.55984900  0.00000000  0.11969900  1
loop_
_geom_bond_atom_site_label_1
_geom_bond_atom_site_label_2
_geom_bond_distance
_geom_bond_site_symmetry_2
Ge0 Ge1 2.504212 1_555
Ge0 Pt0 2.510768 1_556
Ge0 Pt0 2.510768 1_566
Ge0 Ge2 2.876166 1_565
Ge0 Ge2 2.876166 1_555
Ge0 Ge2 2.876166 1_465
Ge0 Ge2 2.876166 1_455
Ge0 Tm1 3.391926 1_656
Ge0 Tm1 3.391929 1_556
Ge1 Ge3 2.876247 1_555
Ge1 Ge3 2.876247 1_565
Ge1 Ge3 2.876250 1_465
Ge1 Ge3 2.876250 1_455
Ge1 Tm0 2.997228 1_555
Ge1 Tm0 2.997228 1_455
Ge2 Pt0 2.514474 1_656
Ge2 Pt0 2.514480 1_556
Ge2 Ge3 2.514745 1_555
Ge2 Tm1 3.410446 1_646
Ge2 Tm1 3.410446 1_656
Ge3 Tm0 2.982269 1_545
Ge3 Tm0 2.982269 1_555
Ge4 Pt0 2.417916 1_555
Ge4 Ge5 2.553035 1_655
Ge4 Ge5 2.553035 1_555
Ge4 Tm1 3.103954 1_545
Ge4 Tm1 3.103954 1_555
Ge4 Tm1 3.103956 1_655
Ge4 Tm1 3.103956 1_645
Ge4 Tm0 3.122934 1_545
Ge4 Tm0 3.122934 1_555
Ge5 Tm0 2.990177 1_455
Ge5 Tm0 2.990177 1_445
Ge5 Tm0 2.990179 1_555
Ge5 Tm0 2.990179 1_545
Ge5 Tm1 3.395259 1_555
Ge5 Tm1 3.395259 1_545
Pt0 Tm1 3.136265 1_555
Pt0 Tm1 3.136265 1_545
Pt0 Tm1 3.136268 1_655
Pt0 Tm1 3.136268 1_645
