# generated using pymatgen
data_MgCrPO5
_symmetry_space_group_name_H-M   'P 1'
_cell_length_a   5.29882582
_cell_length_b   5.29882582
_cell_length_c   7.05492501
_cell_angle_alpha   74.82413248
_cell_angle_beta   74.82413248
_cell_angle_gamma   101.49573652
_symmetry_Int_Tables_number   1
_chemical_formula_structural   MgCrPO5
_chemical_formula_sum   'Mg2 Cr2 P2 O10'
_cell_volume   176.71869420
_cell_formula_units_Z   2
loop_
 _symmetry_equiv_pos_site_id
 _symmetry_equiv_pos_as_xyz
  1  'x, y, z'
loop_
 _atom_site_type_symbol
 _atom_site_label
 _atom_site_symmetry_multiplicity
 _atom_site_fract_x
 _atom_site_fract_y
 _atom_site_fract_z
 _atom_site_occupancy
  Mg  Mg0  1  0.83053900  0.16946100  0.75000000  1
  Mg  Mg1  1  0.16946100  0.83053900  0.25000000  1
  Cr  Cr0  1  0.50000000  0.50000000  0.50000000  1
  Cr  Cr1  1  0.50000000  0.50000000  0.00000000  1
  P  P0  1  0.16998800  0.83001200  0.75000000  1
  P  P1  1  0.83001200  0.16998800  0.25000000  1
  O  O0  1  0.37761800  0.82463200  0.86693000  1
  O  O1  1  0.17536800  0.62238200  0.63307000  1
  O  O2  1  0.62238200  0.17536800  0.13307000  1
  O  O3  1  0.82463200  0.37761800  0.36693000  1
  O  O4  1  0.78625300  0.87598700  0.39891900  1
  O  O5  1  0.12401300  0.21374700  0.10108100  1
  O  O6  1  0.21374700  0.12401300  0.60108100  1
  O  O7  1  0.87598700  0.78625300  0.89891900  1
  O  O8  1  0.40722900  0.59277100  0.25000000  1
  O  O9  1  0.59277100  0.40722900  0.75000000  1
loop_
_geom_bond_atom_site_label_1
_geom_bond_atom_site_label_2
_geom_bond_distance
_geom_bond_site_symmetry_2
Mg0 O9 1.951242 1_555
Mg0 O7 2.120228 1_545
Mg0 O6 2.120228 1_655
Mg0 O0 2.491040 1_545
Mg0 O1 2.491040 1_655
Mg0 O2 2.649265 1_556
Mg0 O3 2.649265 1_555
Mg1 O8 1.951242 1_555
Mg1 O5 2.120228 1_565
Mg1 O4 2.120228 1_455
Mg1 O2 2.491040 1_565
Mg1 O3 2.491040 1_455
Mg1 O0 2.649265 1_554
Mg1 O1 2.649265 1_555
Cr0 O8 1.921032 1_555
Cr0 O9 1.921032 1_555
Cr0 O3 2.044191 1_555
Cr0 O1 2.044191 1_555
Cr0 O6 2.064892 1_555
Cr0 O4 2.064892 1_555
Cr1 O9 1.921032 1_554
Cr1 O8 1.921032 1_555
Cr1 O0 2.044191 1_554
Cr1 O2 2.044191 1_555
Cr1 O7 2.064892 1_554
Cr1 O5 2.064892 1_555
O0 P0 1.538546 1_555
O1 P0 1.538546 1_555
O2 P1 1.538546 1_555
O3 P1 1.538546 1_555
O4 P1 1.567173 1_565
O5 P1 1.567173 1_455
O6 P0 1.567173 1_545
O7 P0 1.567173 1_655
