# generated using pymatgen
data_Ba(BrF4)2
_symmetry_space_group_name_H-M   'P 1'
_cell_length_a   7.91190647
_cell_length_b   7.91187587
_cell_length_c   7.91201808
_cell_angle_alpha   104.66637406
_cell_angle_beta   104.67047504
_cell_angle_gamma   119.57400311
_symmetry_Int_Tables_number   1
_chemical_formula_structural   Ba(BrF4)2
_chemical_formula_sum   'Ba2 Br4 F16'
_cell_volume   372.23926529
_cell_formula_units_Z   2
loop_
 _symmetry_equiv_pos_site_id
 _symmetry_equiv_pos_as_xyz
  1  'x, y, z'
loop_
 _atom_site_type_symbol
 _atom_site_label
 _atom_site_symmetry_multiplicity
 _atom_site_fract_x
 _atom_site_fract_y
 _atom_site_fract_z
 _atom_site_occupancy
  Ba  Ba0  1  0.00003875  0.00003719  -0.00000812  1
  Ba  Ba1  1  0.24999453  0.75000146  0.50001842  1
  Br  Br0  1  0.14209707  0.52343049  0.93374583  1
  Br  Br1  1  0.58971232  0.20836239  0.06626183  1
  Br  Br2  1  0.79163323  0.85788376  0.38132803  1
  Br  Br3  1  0.47653708  0.41029944  0.61864707  1
  F  F0  1  0.07880619  0.55271575  0.70188706  1
  F  F1  1  0.85084307  0.37694327  0.29814548  1
  F  F2  1  0.62307695  0.92116123  0.47386784  1
  F  F3  1  0.44729614  0.14920165  0.52611291  1
  F  F4  1  0.71088499  0.90857121  0.16264738  1
  F  F5  1  0.74591068  0.54822592  0.83733702  1
  F  F6  1  0.45180626  0.28917253  0.19776449  1
  F  F7  1  0.09138117  0.25404528  0.80223752  1
  F  F8  1  0.19871217  0.47829033  0.16610043  1
  F  F9  1  0.31222404  0.03265555  0.83392666  1
  F  F10  1  0.96737556  0.80129870  0.27962260  1
  F  F11  1  0.52165235  0.68772374  0.72035970  1
  F  F12  1  0.70989047  0.11536305  0.91282586  1
  F  F13  1  0.20256487  0.79708046  0.08718091  1
  F  F14  1  0.20294849  0.29009810  0.40549746  1
  F  F15  1  0.88461360  0.79743850  0.59449463  1
loop_
_geom_bond_atom_site_label_1
_geom_bond_atom_site_label_2
_geom_bond_distance
_geom_bond_site_symmetry_2
Ba0 F7 2.782188 1_554
Ba0 F6 2.782230 1_555
Ba0 F5 2.782510 1_444
Ba0 F4 2.782517 1_445
Ba0 F12 2.856994 1_454
Ba0 F13 2.857064 1_545
Ba0 F15 2.857168 1_444
Ba0 F14 2.857182 1_555
Ba0 F9 3.013319 1_554
Ba0 F8 3.013329 1_555
Ba0 F10 3.014005 1_445
Ba0 F11 3.014092 1_444
Ba1 F1 2.663291 1_455
Ba1 F0 2.663310 1_555
Ba1 F3 2.663617 1_565
Ba1 F2 2.663691 1_555
Ba1 F11 2.735706 1_555
Ba1 F10 2.735798 1_455
Ba1 F9 2.735995 1_565
Ba1 F8 2.736064 1_555
Br0 F0 1.879944 1_555
Br0 F7 1.899375 1_555
Br0 F13 1.934592 1_556
Br0 F8 1.944522 1_556
Br1 F1 1.879980 1_555
Br1 F6 1.899627 1_555
Br1 F12 1.934480 1_554
Br1 F9 1.944437 1_554
Br2 F2 1.879687 1_555
Br2 F4 1.899201 1_555
Br2 F15 1.934346 1_555
Br2 F10 1.944252 1_555
Br3 F3 1.879775 1_555
Br3 F5 1.899269 1_555
Br3 F14 1.934126 1_555
Br3 F11 1.944092 1_555
