# generated using pymatgen
data_NdBS3
_symmetry_space_group_name_H-M   'P 1'
_cell_length_a   6.01172313
_cell_length_b   7.59857487
_cell_length_c   8.92959887
_cell_angle_alpha   90.00000000
_cell_angle_beta   90.00000000
_cell_angle_gamma   90.00000000
_symmetry_Int_Tables_number   1
_chemical_formula_structural   NdBS3
_chemical_formula_sum   'Nd4 B4 S12'
_cell_volume   407.90879390
_cell_formula_units_Z   4
loop_
 _symmetry_equiv_pos_site_id
 _symmetry_equiv_pos_as_xyz
  1  'x, y, z'
loop_
 _atom_site_type_symbol
 _atom_site_label
 _atom_site_symmetry_multiplicity
 _atom_site_fract_x
 _atom_site_fract_y
 _atom_site_fract_z
 _atom_site_occupancy
  Nd  Nd0  1  0.92932926  0.38520787  0.25724358  1
  Nd  Nd1  1  0.07067074  0.61479213  0.75724358  1
  Nd  Nd2  1  0.42932926  0.11479213  0.75724358  1
  Nd  Nd3  1  0.57067074  0.88520787  0.25724358  1
  B  B0  1  0.09756048  0.85422525  0.42841142  1
  B  B1  1  0.90243952  0.14577475  0.92841142  1
  B  B2  1  0.59756048  0.64577475  0.92841142  1
  B  B3  1  0.40243952  0.35422525  0.42841142  1
  S  S0  1  0.59991004  0.50007640  0.76939398  1
  S  S1  1  0.40008996  0.49992360  0.26939398  1
  S  S2  1  0.09991004  -0.00007640  0.26939398  1
  S  S3  1  0.90008996  0.00007640  0.76939398  1
  S  S4  1  0.83560050  0.67309388  0.05224882  1
  S  S5  1  0.16439950  0.32690612  0.55224882  1
  S  S6  1  0.33560050  0.82690612  0.55224882  1
  S  S7  1  0.66439950  0.17309388  0.05224882  1
  S  S8  1  0.36624969  0.79622469  0.95878220  1
  S  S9  1  0.63375031  0.20377531  0.45878220  1
  S  S10  1  0.86624969  0.70377531  0.45878220  1
  S  S11  1  0.13375031  0.29622469  0.95878220  1
loop_
_geom_bond_atom_site_label_1
_geom_bond_atom_site_label_2
_geom_bond_distance
_geom_bond_site_symmetry_2
Nd0 S9 2.880434 1_555
Nd0 S4 2.907502 1_555
Nd0 S7 2.912942 1_555
Nd0 S1 2.963269 1_655
Nd0 S11 3.011710 1_654
Nd0 S5 3.022044 1_655
Nd0 S10 3.040093 1_555
Nd0 S2 3.103917 1_655
Nd0 S1 3.300670 1_555
Nd1 S8 2.880434 1_555
Nd1 S5 2.907502 1_555
Nd1 S6 2.912942 1_555
Nd1 S0 2.963269 1_455
Nd1 S10 3.011710 1_455
Nd1 S4 3.022044 1_456
Nd1 S11 3.040093 1_555
Nd1 S3 3.103917 1_465
Nd1 S0 3.300670 1_555
Nd2 S11 2.880434 1_555
Nd2 S6 2.907502 1_545
Nd2 S5 2.912942 1_555
Nd2 S3 2.963269 1_555
Nd2 S9 3.011710 1_555
Nd2 S7 3.022044 1_556
Nd2 S8 3.040093 1_545
Nd2 S0 3.103917 1_555
Nd2 S3 3.300670 1_455
Nd3 S10 2.880434 1_555
Nd3 S7 2.907502 1_565
Nd3 S4 2.912942 1_555
Nd3 S2 2.963269 1_565
Nd3 S8 3.011710 1_554
Nd3 S6 3.022044 1_555
Nd3 S9 3.040093 1_565
Nd3 S1 3.103917 1_555
Nd3 S2 3.300670 1_665
B0 S2 1.800600 1_565
B0 S6 1.820378 1_555
B0 S10 1.820486 1_455
B1 S3 1.800600 1_555
B1 S7 1.820378 1_556
B1 S11 1.820486 1_655
B2 S0 1.800600 1_555
B2 S4 1.820378 1_556
B2 S8 1.820486 1_555
B3 S1 1.800600 1_555
B3 S5 1.820378 1_555
B3 S9 1.820486 1_555
