# generated using pymatgen
data_MgTi
_symmetry_space_group_name_H-M   'P 1'
_cell_length_a   4.82511600
_cell_length_b   5.17403500
_cell_length_c   12.54653800
_cell_angle_alpha   90.00000000
_cell_angle_beta   90.00000000
_cell_angle_gamma   90.00000000
_symmetry_Int_Tables_number   1
_chemical_formula_structural   MgTi
_chemical_formula_sum   'Mg8 Ti8'
_cell_volume   313.22832431
_cell_formula_units_Z   8
loop_
 _symmetry_equiv_pos_site_id
 _symmetry_equiv_pos_as_xyz
  1  'x, y, z'
loop_
 _atom_site_type_symbol
 _atom_site_label
 _atom_site_symmetry_multiplicity
 _atom_site_fract_x
 _atom_site_fract_y
 _atom_site_fract_z
 _atom_site_occupancy
  Mg  Mg0  1  0.00000000  0.67629800  0.00000000  1
  Mg  Mg1  1  0.00000000  0.16680800  0.36886400  1
  Mg  Mg2  1  0.00000000  0.68421900  0.50000000  1
  Mg  Mg3  1  0.00000000  0.16680800  0.63113600  1
  Mg  Mg4  1  0.50000000  0.31578100  0.00000000  1
  Mg  Mg5  1  0.50000000  0.83319200  0.13113600  1
  Mg  Mg6  1  0.50000000  0.32370200  0.50000000  1
  Mg  Mg7  1  0.50000000  0.83319200  0.86886400  1
  Ti  Ti0  1  0.00000000  0.18362100  0.13979300  1
  Ti  Ti1  1  0.00000000  0.65686600  0.24758000  1
  Ti  Ti2  1  0.00000000  0.65686600  0.75242000  1
  Ti  Ti3  1  0.00000000  0.18362100  0.86020700  1
  Ti  Ti4  1  0.50000000  0.34313400  0.25242000  1
  Ti  Ti5  1  0.50000000  0.81637900  0.36020700  1
  Ti  Ti6  1  0.50000000  0.81637900  0.63979300  1
  Ti  Ti7  1  0.50000000  0.34313400  0.74758000  1
loop_
_geom_bond_atom_site_label_1
_geom_bond_atom_site_label_2
_geom_bond_distance
_geom_bond_site_symmetry_2
Mg0 Mg5 3.030913 1_455
Mg0 Mg7 3.030913 1_554
Mg0 Mg5 3.030913 1_555
Mg0 Mg7 3.030913 1_454
Mg0 Mg4 3.049571 1_555
Mg0 Mg4 3.049571 1_455
Mg0 Ti0 3.094234 1_555
Mg0 Ti3 3.094234 1_554
Mg0 Ti2 3.107899 1_554
Mg0 Ti1 3.107899 1_555
Mg0 Ti0 3.156955 1_565
Mg0 Ti3 3.156955 1_564
Mg1 Ti0 2.875364 1_555
Mg1 Ti1 2.957145 1_555
Mg1 Ti4 2.964319 1_455
Mg1 Ti4 2.964319 1_555
Mg1 Mg2 2.990266 1_545
Mg1 Ti5 3.019881 1_445
Mg1 Ti5 3.019881 1_545
Mg1 Mg6 3.030913 1_555
Mg1 Mg6 3.030913 1_455
Mg1 Ti1 3.045819 1_545
Mg1 Mg2 3.142276 1_555
Mg1 Mg3 3.290606 1_555
Mg2 Mg3 2.990266 1_565
Mg2 Mg6 3.049571 1_555
Mg2 Mg6 3.049571 1_455
Mg2 Ti6 3.060106 1_555
Mg2 Ti6 3.060106 1_455
Mg2 Ti5 3.060106 1_555
Mg2 Ti5 3.060106 1_455
Mg2 Mg3 3.142276 1_555
Mg2 Ti1 3.170158 1_555
Mg2 Ti2 3.170158 1_555
Mg3 Ti3 2.875364 1_555
Mg3 Ti2 2.957145 1_555
Mg3 Ti7 2.964319 1_455
Mg3 Ti7 2.964319 1_555
Mg3 Ti6 3.019881 1_445
Mg3 Ti6 3.019881 1_545
Mg3 Mg6 3.030913 1_455
Mg3 Mg6 3.030913 1_555
Mg3 Ti2 3.045819 1_545
Mg4 Mg5 2.990266 1_545
Mg4 Mg7 2.990266 1_544
Mg4 Ti0 3.060106 1_555
Mg4 Ti0 3.060106 1_655
Mg4 Ti3 3.060106 1_554
Mg4 Ti3 3.060106 1_654
Mg4 Mg5 3.142276 1_555
Mg4 Mg7 3.142276 1_554
Mg4 Ti7 3.170158 1_554
Mg4 Ti4 3.170158 1_555
Mg5 Ti5 2.875364 1_555
Mg5 Ti4 2.957145 1_555
Mg5 Ti1 2.964319 1_655
Mg5 Ti1 2.964319 1_555
Mg5 Ti0 3.019881 1_565
Mg5 Ti0 3.019881 1_665
Mg5 Ti4 3.045819 1_565
Mg5 Mg7 3.290606 1_554
Mg6 Ti6 3.094234 1_555
Mg6 Ti5 3.094234 1_555
Mg6 Ti4 3.107899 1_555
Mg6 Ti7 3.107899 1_555
Mg6 Ti6 3.156955 1_545
Mg6 Ti5 3.156955 1_545
Mg7 Ti6 2.875364 1_555
Mg7 Ti7 2.957145 1_555
Mg7 Ti2 2.964319 1_555
Mg7 Ti2 2.964319 1_655
Mg7 Ti3 3.019881 1_665
Mg7 Ti3 3.019881 1_565
Mg7 Ti7 3.045819 1_565
Ti0 Ti1 2.797219 1_555
Ti0 Ti4 2.915200 1_555
Ti0 Ti4 2.915200 1_455
Ti0 Ti1 3.042521 1_545
Ti0 Ti3 3.507836 1_554
Ti1 Ti4 2.908453 1_455
Ti1 Ti4 2.908453 1_555
Ti1 Ti5 2.915200 1_555
Ti1 Ti5 2.915200 1_455
Ti2 Ti3 2.797219 1_555
Ti2 Ti7 2.908453 1_555
Ti2 Ti7 2.908453 1_455
Ti2 Ti6 2.915200 1_555
Ti2 Ti6 2.915200 1_455
Ti2 Ti3 3.042521 1_565
Ti3 Ti7 2.915200 1_555
Ti3 Ti7 2.915200 1_455
Ti4 Ti5 2.797219 1_555
Ti4 Ti5 3.042521 1_545
Ti5 Ti6 3.507836 1_555
Ti6 Ti7 2.797219 1_555
Ti6 Ti7 3.042521 1_565
