# generated using pymatgen
data_Ga40GeMo8
_symmetry_space_group_name_H-M   'P 1'
_cell_length_a   9.61823301
_cell_length_b   9.61823301
_cell_length_c   9.61823232
_cell_angle_alpha   94.00349159
_cell_angle_beta   94.00349159
_cell_angle_gamma   94.00348838
_symmetry_Int_Tables_number   1
_chemical_formula_structural   Ga40GeMo8
_chemical_formula_sum   'Ga40 Ge1 Mo8'
_cell_volume   882.95168864
_cell_formula_units_Z   1
loop_
 _symmetry_equiv_pos_site_id
 _symmetry_equiv_pos_as_xyz
  1  'x, y, z'
loop_
 _atom_site_type_symbol
 _atom_site_label
 _atom_site_symmetry_multiplicity
 _atom_site_fract_x
 _atom_site_fract_y
 _atom_site_fract_z
 _atom_site_occupancy
  Ga  Ga0  1  0.50000000  0.50000000  0.50000000  1
  Ga  Ga1  1  0.50000000  0.00000000  0.50000000  1
  Ga  Ga2  1  0.00000000  0.50000000  0.50000000  1
  Ga  Ga3  1  0.50000000  0.50000000  0.00000000  1
  Ga  Ga4  1  0.36577600  0.73350000  0.38984200  1
  Ga  Ga5  1  0.73350000  0.38984200  0.36577600  1
  Ga  Ga6  1  0.38984200  0.36577600  0.73350000  1
  Ga  Ga7  1  0.63422400  0.26650000  0.61015800  1
  Ga  Ga8  1  0.26650000  0.61015800  0.63422400  1
  Ga  Ga9  1  0.61015800  0.63422400  0.26650000  1
  Ga  Ga10  1  0.22156600  0.32627600  0.46853900  1
  Ga  Ga11  1  0.32627600  0.46853900  0.22156600  1
  Ga  Ga12  1  0.46853900  0.22156600  0.32627600  1
  Ga  Ga13  1  0.77843400  0.67372400  0.53146100  1
  Ga  Ga14  1  0.67372400  0.53146100  0.77843400  1
  Ga  Ga15  1  0.53146100  0.77843400  0.67372400  1
  Ga  Ga16  1  0.92522100  0.22209700  0.55099300  1
  Ga  Ga17  1  0.22209700  0.55099300  0.92522100  1
  Ga  Ga18  1  0.55099300  0.92522100  0.22209700  1
  Ga  Ga19  1  0.07477900  0.77790300  0.44900700  1
  Ga  Ga20  1  0.77790300  0.44900700  0.07477900  1
  Ga  Ga21  1  0.44900700  0.07477900  0.77790300  1
  Ga  Ga22  1  0.21494100  0.03369300  0.40137000  1
  Ga  Ga23  1  0.03369300  0.40137000  0.21494100  1
  Ga  Ga24  1  0.40137000  0.21494100  0.03369300  1
  Ga  Ga25  1  0.78505900  0.96630700  0.59863000  1
  Ga  Ga26  1  0.96630700  0.59863000  0.78505900  1
  Ga  Ga27  1  0.59863000  0.78505900  0.96630700  1
  Ga  Ga28  1  0.25565500  0.95065700  0.12586800  1
  Ga  Ga29  1  0.95065700  0.12586800  0.25565500  1
  Ga  Ga30  1  0.12586800  0.25565500  0.95065700  1
  Ga  Ga31  1  0.74434500  0.04934300  0.87413200  1
  Ga  Ga32  1  0.04934300  0.87413200  0.74434500  1
  Ga  Ga33  1  0.87413200  0.74434500  0.04934300  1
  Ga  Ga34  1  0.82507000  0.87516100  0.31703600  1
  Ga  Ga35  1  0.87516100  0.31703600  0.82507000  1
  Ga  Ga36  1  0.31703600  0.82507000  0.87516100  1
  Ga  Ga37  1  0.17493000  0.12483900  0.68296400  1
  Ga  Ga38  1  0.12483900  0.68296400  0.17493000  1
  Ga  Ga39  1  0.68296400  0.17493000  0.12483900  1
  Ge  Ge0  1  0.00000000  0.00000000  0.00000000  1
  Mo  Mo0  1  0.21272100  0.21272100  0.21272100  1
  Mo  Mo1  1  0.78727900  0.78727900  0.78727900  1
  Mo  Mo2  1  0.38711500  0.71297800  0.11081900  1
  Mo  Mo3  1  0.71297800  0.11081900  0.38711500  1
  Mo  Mo4  1  0.11081900  0.38711500  0.71297800  1
  Mo  Mo5  1  0.61288500  0.28702200  0.88918100  1
  Mo  Mo6  1  0.28702200  0.88918100  0.61288500  1
  Mo  Mo7  1  0.88918100  0.61288500  0.28702200  1
loop_
_geom_bond_atom_site_label_1
_geom_bond_atom_site_label_2
_geom_bond_distance
_geom_bond_site_symmetry_2
Ga0 Ga9 2.894696 1_555
Ga0 Ga6 2.894696 1_555
Ga0 Ga8 2.894697 1_555
Ga0 Ga5 2.894697 1_555
Ga0 Ga7 2.894697 1_555
Ga0 Ga4 2.894697 1_555
Ga0 Ga14 3.040864 1_555
Ga0 Ga11 3.040864 1_555
Ga0 Ga15 3.040864 1_555
Ga0 Ga12 3.040864 1_555
Ga0 Ga13 3.040864 1_555
Ga0 Ga10 3.040864 1_555
Ga1 Mo6 2.584277 1_545
Ga1 Mo3 2.584277 1_555
Ga2 Mo7 2.584277 1_455
Ga2 Mo4 2.584277 1_555
Ga3 Mo5 2.584277 1_554
Ga3 Mo2 2.584277 1_555
Ga4 Mo2 2.700366 1_555
Ga4 Mo6 2.711985 1_555
Ga5 Mo3 2.700366 1_555
Ga5 Mo7 2.711985 1_555
Ga6 Mo4 2.700366 1_555
Ga6 Mo5 2.711985 1_555
Ga7 Mo5 2.700366 1_555
Ga7 Mo3 2.711985 1_555
Ga8 Mo6 2.700366 1_555
Ga8 Mo4 2.711985 1_555
Ga9 Mo7 2.700366 1_555
Ga9 Mo2 2.711985 1_555
Ga10 Mo0 2.614732 1_555
Ga10 Mo4 2.692435 1_555
Ga10 Ga37 2.962130 1_555
Ga11 Mo0 2.614733 1_555
Ga11 Mo2 2.692435 1_555
Ga11 Ga38 2.962130 1_555
Ga12 Mo0 2.614732 1_555
Ga12 Mo3 2.692435 1_555
Ga12 Ga39 2.962130 1_555
Ga13 Mo1 2.614732 1_555
Ga13 Mo7 2.692435 1_555
Ga13 Ga34 2.962130 1_555
Ga14 Mo1 2.614733 1_555
Ga14 Mo5 2.692435 1_555
Ga14 Ga35 2.962130 1_555
Ga15 Mo1 2.614732 1_555
Ga15 Mo6 2.692435 1_555
Ga15 Ga36 2.962130 1_555
Ga16 Mo3 2.609093 1_555
Ga16 Mo4 2.646494 1_655
Ga16 Ga35 2.813784 1_555
Ga16 Ga37 2.882453 1_655
Ga16 Ga29 2.957569 1_555
Ga17 Mo4 2.609093 1_555
Ga17 Mo2 2.646494 1_556
Ga17 Ga36 2.813785 1_555
Ga17 Ga38 2.882453 1_556
Ga17 Ga30 2.957569 1_555
Ga18 Mo2 2.609093 1_555
Ga18 Mo3 2.646494 1_565
Ga18 Ga34 2.813784 1_555
Ga18 Ga39 2.882453 1_565
Ga18 Ga28 2.957569 1_555
Ga19 Mo6 2.609093 1_555
Ga19 Mo7 2.646494 1_455
Ga19 Ga38 2.813784 1_555
Ga19 Ga34 2.882453 1_455
Ga19 Ga32 2.957569 1_555
Ga20 Mo7 2.609093 1_555
Ga20 Mo5 2.646494 1_554
Ga20 Ga39 2.813785 1_555
Ga20 Ga35 2.882453 1_554
Ga20 Ga33 2.957569 1_555
Ga21 Mo5 2.609093 1_555
Ga21 Mo6 2.646494 1_545
Ga21 Ga37 2.813784 1_555
Ga21 Ga36 2.882453 1_545
Ga21 Ga31 2.957569 1_555
Ga22 Mo0 2.587239 1_555
Ga22 Mo6 2.623711 1_545
Ga22 Ga28 2.775954 1_545
Ga22 Ga37 2.848398 1_555
Ga22 Ga29 3.033555 1_455
Ga23 Mo0 2.587239 1_555
Ga23 Mo7 2.623711 1_455
Ga23 Ga29 2.775955 1_455
Ga23 Ga38 2.848398 1_555
Ga23 Ga30 3.033555 1_554
Ga24 Mo0 2.587239 1_555
Ga24 Mo5 2.623711 1_554
Ga24 Ga30 2.775955 1_554
Ga24 Ga39 2.848398 1_555
Ga24 Ga28 3.033555 1_545
Ga25 Mo1 2.587239 1_555
Ga25 Mo3 2.623711 1_565
Ga25 Ga31 2.775954 1_565
Ga25 Ga34 2.848398 1_555
Ga25 Ga32 3.033555 1_655
Ga26 Mo1 2.587239 1_555
Ga26 Mo4 2.623711 1_655
Ga26 Ga32 2.775955 1_655
Ga26 Ga35 2.848398 1_555
Ga26 Ga33 3.033555 1_556
Ga27 Mo1 2.587239 1_555
Ga27 Mo2 2.623711 1_556
Ga27 Ga33 2.775955 1_556
Ga27 Ga36 2.848398 1_555
Ga27 Ga31 3.033555 1_565
Ga28 Mo0 2.668568 1_565
Ga28 Mo2 2.688623 1_555
Ga28 Ga36 2.741153 1_554
Ga28 Ge0 2.750417 1_565
Ga28 Ga38 2.869713 1_555
Ga29 Mo0 2.668568 1_655
Ga29 Mo3 2.688623 1_555
Ga29 Ga34 2.741153 1_545
Ga29 Ge0 2.750417 1_655
Ga29 Ga39 2.869713 1_555
Ga30 Mo0 2.668568 1_556
Ga30 Mo4 2.688622 1_555
Ga30 Ga35 2.741153 1_455
Ga30 Ge0 2.750418 1_556
Ga30 Ga37 2.869713 1_555
Ga31 Mo1 2.668568 1_545
Ga31 Mo5 2.688623 1_555
Ga31 Ga39 2.741153 1_556
Ga31 Ge0 2.750417 1_656
Ga31 Ga35 2.869713 1_555
Ga32 Mo1 2.668568 1_455
Ga32 Mo6 2.688623 1_555
Ga32 Ga37 2.741153 1_565
Ga32 Ge0 2.750417 1_566
Ga32 Ga36 2.869713 1_555
Ga33 Mo1 2.668568 1_554
Ga33 Mo7 2.688622 1_555
Ga33 Ga38 2.741153 1_655
Ga33 Ge0 2.750418 1_665
Ga33 Ga34 2.869713 1_555
Ga34 Mo7 2.639625 1_555
Ga34 Mo3 2.642647 1_565
Ga34 Ga9 2.985445 1_555
Ga35 Mo5 2.639625 1_555
Ga35 Mo4 2.642647 1_655
Ga35 Ga7 2.985445 1_555
Ga36 Mo6 2.639625 1_555
Ga36 Mo2 2.642647 1_556
Ga36 Ga8 2.985445 1_555
Ga37 Mo4 2.639625 1_555
Ga37 Mo6 2.642647 1_545
Ga37 Ga6 2.985445 1_555
Ga38 Mo2 2.639625 1_555
Ga38 Mo7 2.642647 1_455
Ga38 Ga4 2.985445 1_555
Ga39 Mo3 2.639625 1_555
Ga39 Mo5 2.642647 1_554
Ga39 Ga5 2.985445 1_555
