# generated using pymatgen
data_PNO4
_symmetry_space_group_name_H-M   'P 1'
_cell_length_a   7.20071000
_cell_length_b   8.24246900
_cell_length_c   8.53490000
_cell_angle_alpha   90.00000000
_cell_angle_beta   90.00000000
_cell_angle_gamma   90.00000000
_symmetry_Int_Tables_number   1
_chemical_formula_structural   PNO4
_chemical_formula_sum   'P4 N4 O16'
_cell_volume   506.56021795
_cell_formula_units_Z   4
loop_
 _symmetry_equiv_pos_site_id
 _symmetry_equiv_pos_as_xyz
  1  'x, y, z'
loop_
 _atom_site_type_symbol
 _atom_site_label
 _atom_site_symmetry_multiplicity
 _atom_site_fract_x
 _atom_site_fract_y
 _atom_site_fract_z
 _atom_site_occupancy
  P  P0  1  0.51173000  0.50548600  0.05706600  1
  P  P1  1  0.48827000  0.00548600  0.44293400  1
  P  P2  1  0.98827000  0.49451400  0.55706600  1
  P  P3  1  0.01173000  0.99451400  0.94293400  1
  N  N0  1  0.63080800  0.01785600  0.86129100  1
  N  N1  1  0.36919200  0.51785600  0.63870900  1
  N  N2  1  0.86919200  0.98214400  0.36129100  1
  N  N3  1  0.13080800  0.48214400  0.13870900  1
  O  O0  1  0.67700100  0.43580400  0.98016100  1
  O  O1  1  0.32299900  0.93580400  0.51983900  1
  O  O2  1  0.82299900  0.56419600  0.48016100  1
  O  O3  1  0.17700100  0.06419600  0.01983900  1
  O  O4  1  0.33093100  0.40795200  0.02460300  1
  O  O5  1  0.66906900  0.90795200  0.47539700  1
  O  O6  1  0.16906900  0.59204800  0.52460300  1
  O  O7  1  0.83093100  0.09204800  0.97539700  1
  O  O8  1  0.49736100  0.65299300  0.15415500  1
  O  O9  1  0.50263900  0.15299300  0.34584500  1
  O  O10  1  0.00263900  0.34700700  0.65415500  1
  O  O11  1  0.99736100  0.84700700  0.84584500  1
  O  O12  1  0.44197400  0.62673000  0.69075600  1
  O  O13  1  0.55802600  0.12673000  0.80924400  1
  O  O14  1  0.05802600  0.37327000  0.19075600  1
  O  O15  1  0.94197400  0.87327000  0.30924400  1
loop_
_geom_bond_atom_site_label_1
_geom_bond_atom_site_label_2
_geom_bond_distance
_geom_bond_site_symmetry_2
N0 O13 1.130177 1_555
N0 O7 1.843630 1_555
N1 O12 1.130177 1_555
N1 O6 1.843630 1_555
N2 O15 1.130177 1_555
N2 O5 1.843630 1_555
N3 O14 1.130177 1_555
N3 O4 1.843630 1_555
O0 P0 1.475457 1_556
O1 P1 1.475457 1_565
O2 P2 1.475457 1_555
O3 P3 1.475457 1_544
O4 P0 1.554976 1_555
O5 P1 1.554976 1_565
O6 P2 1.554976 1_455
O7 P3 1.554976 1_645
O8 P0 1.474985 1_555
O9 P1 1.474985 1_555
O10 P2 1.474985 1_455
O11 P3 1.474985 1_655
