# generated using pymatgen
data_Li2V3CrO8
_symmetry_space_group_name_H-M   'P 1'
_cell_length_a   5.93632454
_cell_length_b   10.41121655
_cell_length_c   5.93622490
_cell_angle_alpha   71.61579871
_cell_angle_beta   119.11168938
_cell_angle_gamma   91.29615052
_symmetry_Int_Tables_number   1
_chemical_formula_structural   Li2V3CrO8
_chemical_formula_sum   'Li4 V6 Cr2 O16'
_cell_volume   300.36742297
_cell_formula_units_Z   2
loop_
 _symmetry_equiv_pos_site_id
 _symmetry_equiv_pos_as_xyz
  1  'x, y, z'
loop_
 _atom_site_type_symbol
 _atom_site_label
 _atom_site_symmetry_multiplicity
 _atom_site_fract_x
 _atom_site_fract_y
 _atom_site_fract_z
 _atom_site_occupancy
  Li  Li0  1  0.93652100  0.18698300  0.87655000  1
  Li  Li1  1  0.43633200  0.68678300  0.87694700  1
  Li  Li2  1  0.56367600  0.31320700  0.12309200  1
  Li  Li3  1  0.06347700  0.81301000  0.12345100  1
  V  V0  1  0.49998900  0.00002000  0.99994600  1
  V  V1  1  0.50009900  0.99998200  0.49996600  1
  V  V2  1  0.00002100  0.00001700  0.49999500  1
  V  V3  1  0.99998700  0.50002800  0.99997100  1
  V  V4  1  0.99995200  0.50003900  0.49996000  1
  V  V5  1  0.50003700  0.50001600  0.50003800  1
  Cr  Cr0  1  0.74924500  0.75061100  0.50010600  1
  Cr  Cr1  1  0.25075700  0.24937000  0.49988500  1
  O  O0  1  0.86320900  0.39347500  0.74331700  1
  O  O1  1  0.36331100  0.89370600  0.74295500  1
  O  O2  1  0.63668400  0.10630600  0.25702300  1
  O  O3  1  0.13679100  0.60652200  0.25671400  1
  O  O4  1  0.09092800  0.61750100  0.74588800  1
  O  O5  1  0.59252900  0.11711700  0.74688600  1
  O  O6  1  0.64283300  0.61273200  0.74446400  1
  O  O7  1  0.14355400  0.11295700  0.74349300  1
  O  O8  1  0.63657000  0.61749500  0.29154800  1
  O  O9  1  0.13596500  0.11712800  0.29033600  1
  O  O10  1  0.86402900  0.88283600  0.70969000  1
  O  O11  1  0.36339500  0.38250700  0.70846400  1
  O  O12  1  0.85643300  0.88702100  0.25651500  1
  O  O13  1  0.35716700  0.38727100  0.25556000  1
  O  O14  1  0.40745700  0.88284400  0.25314700  1
  O  O15  1  0.90905100  0.38251500  0.25409400  1
loop_
_geom_bond_atom_site_label_1
_geom_bond_atom_site_label_2
_geom_bond_distance
_geom_bond_site_symmetry_2
Li0 O9 2.011617 1_656
Li0 O5 2.011984 1_555
Li0 O0 2.017822 1_555
Li0 O7 2.024777 1_655
Li1 O8 2.015675 1_556
Li1 O4 2.016109 1_555
Li1 O6 2.019625 1_555
Li1 O1 2.021770 1_555
Li2 O11 2.015806 1_554
Li2 O15 2.016090 1_555
Li2 O13 2.019662 1_555
Li2 O2 2.021567 1_555
Li3 O10 2.011499 1_454
Li3 O14 2.011773 1_555
Li3 O3 2.017775 1_555
Li3 O12 2.024783 1_455
Cr0 O12 2.017873 1_555
Cr0 O6 2.025077 1_555
Cr0 O14 2.029839 1_555
Cr0 O10 2.029848 1_555
Cr0 O8 2.033583 1_555
Cr0 O4 2.033629 1_655
Cr1 O7 2.018011 1_555
Cr1 O13 2.025052 1_555
Cr1 O9 2.029864 1_555
Cr1 O5 2.029880 1_555
Cr1 O11 2.033852 1_555
Cr1 O15 2.033895 1_455
O0 V5 2.008024 1_555
O0 V3 2.008185 1_555
O0 V4 2.016457 1_555
O1 V2 2.007661 1_565
O1 V0 2.007699 1_565
O1 V1 2.014097 1_555
O2 V2 2.007789 1_655
O2 V0 2.007850 1_554
O2 V1 2.013161 1_545
O3 V3 2.008097 1_454
O3 V5 2.008226 1_555
O3 V4 2.016126 1_455
O4 V3 1.913387 1_455
O4 V4 2.060962 1_455
O5 V0 1.913687 1_555
O5 V1 2.061910 1_545
O6 V5 2.008295 1_555
O6 V3 2.008339 1_555
O7 V2 2.006571 1_555
O7 V0 2.006581 1_555
O8 V5 1.913379 1_555
O8 V4 2.060959 1_555
O9 V2 1.913755 1_555
O9 V1 2.062328 1_545
O10 V2 1.914409 1_665
O10 V1 2.061346 1_555
O11 V5 1.913733 1_555
O11 V4 2.061523 1_455
O12 V0 2.006900 1_564
O12 V2 2.006984 1_665
O13 V3 2.008680 1_454
O13 V5 2.008779 1_555
O14 V0 1.914577 1_564
O14 V1 2.061358 1_555
O15 V3 1.913700 1_554
O15 V4 2.061245 1_555
