# generated using pymatgen
data_Na7Al4P9O32
_symmetry_space_group_name_H-M   'P 1'
_cell_length_a   14.00054295
_cell_length_b   14.00054295
_cell_length_c   6.15352769
_cell_angle_alpha   90.00000000
_cell_angle_beta   90.00000000
_cell_angle_gamma   90.00000000
_symmetry_Int_Tables_number   1
_chemical_formula_structural   Na7Al4P9O32
_chemical_formula_sum   'Na14 Al8 P18 O64'
_cell_volume   1206.18497867
_cell_formula_units_Z   2
loop_
 _symmetry_equiv_pos_site_id
 _symmetry_equiv_pos_as_xyz
  1  'x, y, z'
loop_
 _atom_site_type_symbol
 _atom_site_label
 _atom_site_symmetry_multiplicity
 _atom_site_fract_x
 _atom_site_fract_y
 _atom_site_fract_z
 _atom_site_occupancy
  Na  Na0  1  0.92481175  0.25749650  0.59122495  1
  Na  Na1  1  0.57518825  0.75749650  0.90877505  1
  Na  Na2  1  0.07518825  0.74250350  0.59122495  1
  Na  Na3  1  0.42481175  0.24250350  0.90877505  1
  Na  Na4  1  0.74250350  0.92481175  0.40877505  1
  Na  Na5  1  0.24250350  0.57518825  0.09122495  1
  Na  Na6  1  0.25749650  0.07518825  0.40877505  1
  Na  Na7  1  0.75749650  0.42481175  0.09122495  1
  Na  Na8  1  0.00000000  0.50000000  0.81473619  1
  Na  Na9  1  0.50000000  -0.00000000  0.68526381  1
  Na  Na10  1  0.50000000  -0.00000000  0.18526381  1
  Na  Na11  1  0.00000000  0.50000000  0.31473619  1
  Na  Na12  1  0.00000000  -0.00000000  0.50000000  1
  Na  Na13  1  0.50000000  0.50000000  0.00000000  1
  Al  Al0  1  0.82082916  0.12181308  0.13870874  1
  Al  Al1  1  0.67917084  0.62181308  0.36129126  1
  Al  Al2  1  0.17917084  0.87818692  0.13870874  1
  Al  Al3  1  0.32082916  0.37818692  0.36129126  1
  Al  Al4  1  0.87818692  0.82082916  0.86129126  1
  Al  Al5  1  0.37818692  0.67917084  0.63870874  1
  Al  Al6  1  0.12181308  0.17917084  0.86129126  1
  Al  Al7  1  0.62181308  0.32082916  0.63870874  1
  P  P0  1  0.12722821  0.24221162  0.34935044  1
  P  P1  1  0.37277179  0.74221162  0.15064956  1
  P  P2  1  0.87277179  0.75778838  0.34935044  1
  P  P3  1  0.62722821  0.25778838  0.15064956  1
  P  P4  1  0.75778838  0.12722821  0.65064956  1
  P  P5  1  0.25778838  0.37277179  0.84935044  1
  P  P6  1  0.24221162  0.87277179  0.65064956  1
  P  P7  1  0.74221162  0.62722821  0.84935044  1
  P  P8  1  0.96087758  0.30074741  0.10076976  1
  P  P9  1  0.53912242  0.80074741  0.39923024  1
  P  P10  1  0.03912242  0.69925259  0.10076976  1
  P  P11  1  0.46087758  0.19925259  0.39923024  1
  P  P12  1  0.69925259  0.96087758  0.89923024  1
  P  P13  1  0.19925259  0.53912242  0.60076976  1
  P  P14  1  0.30074741  0.03912242  0.89923024  1
  P  P15  1  0.80074741  0.46087758  0.60076976  1
  P  P16  1  0.00000000  -0.00000000  0.00000000  1
  P  P17  1  0.50000000  0.50000000  0.50000000  1
  O  O0  1  0.92513393  0.40021258  0.05995440  1
  O  O1  1  0.57486607  0.90021258  0.44004560  1
  O  O2  1  0.07486607  0.59978742  0.05995440  1
  O  O3  1  0.42513393  0.09978742  0.44004560  1
  O  O4  1  0.59978742  0.92513393  0.94004560  1
  O  O5  1  0.09978742  0.57486607  0.55995440  1
  O  O6  1  0.40021258  0.07486607  0.94004560  1
  O  O7  1  0.90021258  0.42513393  0.55995440  1
  O  O8  1  0.04262581  0.31540338  0.28550376  1
  O  O9  1  0.45737419  0.81540338  0.21449624  1
  O  O10  1  0.95737419  0.68459662  0.28550376  1
  O  O11  1  0.54262581  0.18459662  0.21449624  1
  O  O12  1  0.68459662  0.04262581  0.71449624  1
  O  O13  1  0.18459662  0.45737419  0.78550376  1
  O  O14  1  0.31540338  0.95737419  0.71449624  1
  O  O15  1  0.81540338  0.54262581  0.78550376  1
  O  O16  1  0.88775021  0.23609364  0.20787233  1
  O  O17  1  0.61224979  0.73609364  0.29212767  1
  O  O18  1  0.11224979  0.76390636  0.20787233  1
  O  O19  1  0.38775021  0.26390636  0.29212767  1
  O  O20  1  0.76390636  0.88775021  0.79212767  1
  O  O21  1  0.26390636  0.61224979  0.70787233  1
  O  O22  1  0.23609364  0.11224979  0.79212767  1
  O  O23  1  0.73609364  0.38775021  0.70787233  1
  O  O24  1  0.01007627  0.25632621  0.90669323  1
  O  O25  1  0.48992373  0.75632621  0.59330677  1
  O  O26  1  0.98992373  0.74367379  0.90669323  1
  O  O27  1  0.51007627  0.24367379  0.59330677  1
  O  O28  1  0.74367379  0.01007627  0.09330677  1
  O  O29  1  0.24367379  0.48992373  0.40669323  1
  O  O30  1  0.25632621  0.98992373  0.09330677  1
  O  O31  1  0.75632621  0.51007627  0.40669323  1
  O  O32  1  0.21206747  0.30432656  0.38034852  1
  O  O33  1  0.28793253  0.80432656  0.11965148  1
  O  O34  1  0.78793253  0.69567344  0.38034852  1
  O  O35  1  0.71206747  0.19567344  0.11965148  1
  O  O36  1  0.69567344  0.21206747  0.61965148  1
  O  O37  1  0.19567344  0.28793253  0.88034852  1
  O  O38  1  0.30432656  0.78793253  0.61965148  1
  O  O39  1  0.80432656  0.71206747  0.88034852  1
  O  O40  1  0.09467249  0.19346468  0.55688175  1
  O  O41  1  0.40532751  0.69346468  0.94311825  1
  O  O42  1  0.90532751  0.80653532  0.55688175  1
  O  O43  1  0.59467249  0.30653532  0.94311825  1
  O  O44  1  0.80653532  0.09467249  0.44311825  1
  O  O45  1  0.30653532  0.40532751  0.05688175  1
  O  O46  1  0.19346468  0.90532751  0.44311825  1
  O  O47  1  0.69346468  0.59467249  0.05688175  1
  O  O48  1  0.13677219  0.16809032  0.17114260  1
  O  O49  1  0.36322781  0.66809032  0.32885740  1
  O  O50  1  0.86322781  0.83190968  0.17114260  1
  O  O51  1  0.63677219  0.33190968  0.32885740  1
  O  O52  1  0.83190968  0.13677219  0.82885740  1
  O  O53  1  0.33190968  0.36322781  0.67114260  1
  O  O54  1  0.16809032  0.86322781  0.82885740  1
  O  O55  1  0.66809032  0.63677219  0.67114260  1
  O  O56  1  0.93198030  0.05279182  0.15327654  1
  O  O57  1  0.56801970  0.55279182  0.34672346  1
  O  O58  1  0.06801970  0.94720818  0.15327654  1
  O  O59  1  0.43198030  0.44720818  0.34672346  1
  O  O60  1  0.94720818  0.93198030  0.84672346  1
  O  O61  1  0.44720818  0.56801970  0.65327654  1
  O  O62  1  0.05279182  0.06801970  0.84672346  1
  O  O63  1  0.55279182  0.43198030  0.65327654  1
loop_
_geom_bond_atom_site_label_1
_geom_bond_atom_site_label_2
_geom_bond_distance
_geom_bond_site_symmetry_2
Na0 O24 2.278976 1_655
Na0 O7 2.379941 1_555
Na0 O16 2.433880 1_555
Na0 O40 2.550275 1_655
Na0 O52 2.585889 1_555
Na0 O8 2.630048 1_655
Na1 O25 2.278976 1_555
Na1 O4 2.379941 1_555
Na1 O17 2.433880 1_556
Na1 O41 2.550275 1_555
Na1 O55 2.585889 1_555
Na1 O9 2.630048 1_556
Na2 O26 2.278976 1_455
Na2 O5 2.379941 1_555
Na2 O18 2.433880 1_555
Na2 O42 2.550275 1_455
Na2 O54 2.585889 1_555
Na2 O10 2.630048 1_455
Na3 O27 2.278976 1_555
Na3 O6 2.379941 1_555
Na3 O19 2.433880 1_556
Na3 O43 2.550275 1_555
Na3 O53 2.585889 1_555
Na3 O11 2.630048 1_556
Na4 O28 2.278976 1_565
Na4 O1 2.379941 1_555
Na4 O20 2.433880 1_555
Na4 O44 2.550275 1_565
Na4 O50 2.585889 1_555
Na4 O12 2.630048 1_565
Na5 O29 2.278976 1_555
Na5 O2 2.379941 1_555
Na5 O21 2.433880 1_554
Na5 O45 2.550275 1_555
Na5 O49 2.585889 1_555
Na5 O13 2.630048 1_554
Na6 O30 2.278976 1_545
Na6 O3 2.379941 1_555
Na6 O22 2.433880 1_555
Na6 O46 2.550275 1_545
Na6 O48 2.585889 1_555
Na6 O14 2.630048 1_545
Na7 O31 2.278976 1_555
Na7 O0 2.379941 1_555
Na7 O23 2.433880 1_554
Na7 O47 2.550275 1_555
Na7 O51 2.585889 1_555
Na7 O15 2.630048 1_554
Na8 O2 2.308123 1_556
Na8 O0 2.308123 1_456
Na8 O7 2.347019 1_455
Na8 O5 2.347019 1_555
Na8 O13 2.658553 1_555
Na8 O15 2.658553 1_455
Na9 O1 2.308123 1_545
Na9 O3 2.308123 1_555
Na9 O4 2.347019 1_545
Na9 O6 2.347019 1_555
Na9 O14 2.658553 1_545
Na9 O12 2.658553 1_555
Na10 O4 2.308123 1_544
Na10 O6 2.308123 1_554
Na10 O1 2.347019 1_545
Na10 O3 2.347019 1_555
Na10 O11 2.658553 1_555
Na10 O9 2.658553 1_545
Na11 O7 2.308123 1_455
Na11 O5 2.308123 1_555
Na11 O2 2.347019 1_555
Na11 O0 2.347019 1_455
Na11 O8 2.658553 1_555
Na11 O10 2.658553 1_455
Na12 O62 2.450576 1_555
Na12 O56 2.450576 1_455
Na12 O60 2.450576 1_445
Na12 O58 2.450576 1_545
Na13 O59 2.450576 1_555
Na13 O63 2.450576 1_554
Na13 O61 2.450576 1_554
Na13 O57 2.450576 1_555
Al0 O56 1.833991 1_555
Al0 O35 1.844388 1_555
Al0 O16 1.902352 1_555
Al0 O28 1.921509 1_555
Al0 O44 1.921792 1_555
Al0 O52 1.924410 1_554
Al1 O57 1.833991 1_555
Al1 O34 1.844388 1_555
Al1 O17 1.902352 1_555
Al1 O31 1.921509 1_555
Al1 O47 1.921792 1_555
Al1 O55 1.924410 1_555
Al2 O58 1.833991 1_555
Al2 O33 1.844388 1_555
Al2 O18 1.902352 1_555
Al2 O30 1.921509 1_555
Al2 O46 1.921792 1_555
Al2 O54 1.924410 1_554
Al3 O59 1.833991 1_555
Al3 O32 1.844388 1_555
Al3 O19 1.902352 1_555
Al3 O29 1.921509 1_555
Al3 O45 1.921792 1_555
Al3 O53 1.924410 1_555
Al4 O60 1.833991 1_555
Al4 O39 1.844388 1_555
Al4 O20 1.902352 1_555
Al4 O26 1.921509 1_555
Al4 O42 1.921792 1_555
Al4 O50 1.924410 1_556
Al5 O61 1.833991 1_555
Al5 O38 1.844388 1_555
Al5 O21 1.902352 1_555
Al5 O25 1.921509 1_555
Al5 O41 1.921792 1_555
Al5 O49 1.924410 1_555
Al6 O62 1.833991 1_555
Al6 O37 1.844388 1_555
Al6 O22 1.902352 1_555
Al6 O24 1.921509 1_555
Al6 O40 1.921792 1_555
Al6 O48 1.924410 1_556
Al7 O63 1.833991 1_555
Al7 O36 1.844388 1_555
Al7 O23 1.902352 1_555
Al7 O27 1.921509 1_555
Al7 O43 1.921792 1_555
Al7 O51 1.924410 1_555
O0 P8 1.500917 1_555
O1 P9 1.500917 1_555
O2 P10 1.500917 1_555
O3 P11 1.500917 1_555
O4 P12 1.500917 1_555
O5 P13 1.500917 1_555
O6 P14 1.500917 1_555
O7 P15 1.500917 1_555
O8 P0 1.614747 1_555
O8 P8 1.626120 1_455
O9 P1 1.614747 1_555
O9 P9 1.626120 1_555
O10 P2 1.614747 1_555
O10 P10 1.626120 1_655
O11 P3 1.614747 1_555
O11 P11 1.626120 1_555
O12 P4 1.614747 1_555
O12 P12 1.626120 1_545
O13 P5 1.614747 1_555
O13 P13 1.626120 1_555
O14 P6 1.614747 1_555
O14 P14 1.626120 1_565
O15 P7 1.614747 1_555
O15 P15 1.626120 1_555
O16 P8 1.517213 1_555
O17 P9 1.517213 1_555
O18 P10 1.517213 1_555
O19 P11 1.517213 1_555
O20 P12 1.517213 1_555
O21 P13 1.517213 1_555
O22 P14 1.517213 1_555
O23 P15 1.517213 1_555
O24 P8 1.512444 1_456
O25 P9 1.512444 1_555
O26 P10 1.512444 1_656
O27 P11 1.512444 1_555
O28 P12 1.512444 1_544
O29 P13 1.512444 1_555
O30 P14 1.512444 1_564
O31 P15 1.512444 1_555
O32 P0 1.484426 1_555
O33 P1 1.484426 1_555
O34 P2 1.484426 1_555
O35 P3 1.484426 1_555
O36 P4 1.484426 1_555
O37 P5 1.484426 1_555
O38 P6 1.484426 1_555
O39 P7 1.484426 1_555
O40 P0 1.518022 1_555
O41 P1 1.518022 1_556
O42 P2 1.518022 1_555
O43 P3 1.518022 1_556
O44 P4 1.518022 1_555
O45 P5 1.518022 1_554
O46 P6 1.518022 1_555
O47 P7 1.518022 1_554
O48 P0 1.515685 1_555
O49 P1 1.515685 1_555
O50 P2 1.515685 1_555
O51 P3 1.515685 1_555
O52 P4 1.515685 1_555
O53 P5 1.515685 1_555
O54 P6 1.515685 1_555
O55 P7 1.515685 1_555
O56 P16 1.530621 1_655
O57 P17 1.530621 1_555
O58 P16 1.530621 1_565
O59 P17 1.530621 1_555
O60 P16 1.530621 1_666
O61 P17 1.530621 1_555
O62 P16 1.530621 1_556
O63 P17 1.530621 1_555
