# generated using pymatgen
data_LiCr3P3O13
_symmetry_space_group_name_H-M   'P 1'
_cell_length_a   6.31354500
_cell_length_b   7.42164969
_cell_length_c   10.51839040
_cell_angle_alpha   100.12817520
_cell_angle_beta   90.00000000
_cell_angle_gamma   90.00000000
_symmetry_Int_Tables_number   1
_chemical_formula_structural   LiCr3P3O13
_chemical_formula_sum   'Li2 Cr6 P6 O26'
_cell_volume   485.17905559
_cell_formula_units_Z   2
loop_
 _symmetry_equiv_pos_site_id
 _symmetry_equiv_pos_as_xyz
  1  'x, y, z'
loop_
 _atom_site_type_symbol
 _atom_site_label
 _atom_site_symmetry_multiplicity
 _atom_site_fract_x
 _atom_site_fract_y
 _atom_site_fract_z
 _atom_site_occupancy
  Li  Li0  1  0.75000000  0.61548300  0.13866700  1
  Li  Li1  1  0.25000000  0.38451700  0.86133300  1
  Cr  Cr0  1  0.25000000  0.36400100  0.19790800  1
  Cr  Cr1  1  0.75000000  0.63599900  0.80209200  1
  Cr  Cr2  1  0.25000000  0.76941600  0.44864100  1
  Cr  Cr3  1  0.50000000  0.00000000  0.00000000  1
  Cr  Cr4  1  0.75000000  0.23058400  0.55135900  1
  Cr  Cr5  1  0.00000000  0.00000000  0.00000000  1
  P  P0  1  0.25000000  0.21257600  0.47795500  1
  P  P1  1  0.75000000  0.78742400  0.52204500  1
  P  P2  1  0.25000000  0.73224800  0.77029500  1
  P  P3  1  0.75000000  0.26775200  0.22970500  1
  P  P4  1  0.75000000  0.30443500  0.87764400  1
  P  P5  1  0.25000000  0.69556500  0.12235700  1
  O  O0  1  0.75000000  0.35193200  0.73812400  1
  O  O1  1  0.55480300  0.73842300  0.43508900  1
  O  O2  1  0.25000000  0.79173800  0.63910600  1
  O  O3  1  0.54480000  0.20252900  0.90029600  1
  O  O4  1  0.75000000  0.66550000  0.62689800  1
  O  O5  1  0.75000000  0.86706100  0.90736400  1
  O  O6  1  0.25000000  0.33450000  0.37310200  1
  O  O7  1  0.04480000  0.79747100  0.09970400  1
  O  O8  1  0.25000000  0.01053600  0.40902600  1
  O  O9  1  0.75000000  0.98946400  0.59097400  1
  O  O10  1  0.06012200  0.61506900  0.79773500  1
  O  O11  1  0.25000000  0.13293900  0.09263600  1
  O  O12  1  0.56012200  0.38493100  0.20226500  1
  O  O13  1  0.75000000  0.50402700  0.95486700  1
  O  O14  1  0.75000000  0.20826200  0.36089400  1
  O  O15  1  0.45520000  0.79747100  0.09970400  1
  O  O16  1  0.94519700  0.73842300  0.43508900  1
  O  O17  1  0.44519700  0.26157700  0.56491100  1
  O  O18  1  0.43987800  0.61506900  0.79773500  1
  O  O19  1  0.25000000  0.64806800  0.26187600  1
  O  O20  1  0.75000000  0.08793600  0.12047100  1
  O  O21  1  0.25000000  0.91206400  0.87952900  1
  O  O22  1  0.93987800  0.38493100  0.20226500  1
  O  O23  1  0.95520000  0.20252900  0.90029600  1
  O  O24  1  0.05480300  0.26157700  0.56491100  1
  O  O25  1  0.25000000  0.49597300  0.04513300  1
loop_
_geom_bond_atom_site_label_1
_geom_bond_atom_site_label_2
_geom_bond_distance
_geom_bond_site_symmetry_2
Li0 O13 1.964529 1_554
Li0 O12 2.283631 1_555
Li0 O22 2.283631 1_555
Li0 O7 2.377201 1_655
Li0 O15 2.377201 1_555
Li1 O25 1.964529 1_556
Li1 O10 2.283631 1_555
Li1 O18 2.283631 1_555
Li1 O3 2.377201 1_555
Li1 O23 2.377201 1_455
Cr0 O11 1.870565 1_555
Cr0 O6 1.893567 1_555
Cr0 O12 1.964019 1_555
Cr0 O22 1.964019 1_455
Cr0 O25 2.023648 1_555
Cr0 O19 2.097265 1_555
Cr1 O5 1.870565 1_555
Cr1 O4 1.893567 1_555
Cr1 O10 1.964019 1_655
Cr1 O18 1.964019 1_555
Cr1 O13 2.023648 1_555
Cr1 O0 2.097265 1_555
Cr2 O8 1.907411 1_565
Cr2 O16 1.940351 1_455
Cr2 O1 1.940351 1_555
Cr2 O2 1.980977 1_555
Cr2 O19 2.011960 1_555
Cr3 O15 1.998383 1_545
Cr3 O3 1.998383 1_554
Cr3 O11 2.018922 1_555
Cr3 O5 2.018922 1_544
Cr3 O20 2.057200 1_555
Cr3 O21 2.057200 1_544
Cr4 O9 1.907411 1_545
Cr4 O24 1.940351 1_655
Cr4 O17 1.940351 1_555
Cr4 O14 1.980977 1_555
Cr4 O0 2.011960 1_555
Cr5 O7 1.998383 1_545
Cr5 O23 1.998383 1_454
Cr5 O11 2.018922 1_555
Cr5 O5 2.018922 1_444
Cr5 O20 2.057200 1_455
Cr5 O21 2.057200 1_544
O0 P4 1.568385 1_555
O1 P1 1.539677 1_555
O2 P2 1.520961 1_555
O3 P4 1.539667 1_555
O4 P1 1.544716 1_555
O6 P0 1.544716 1_555
O7 P5 1.539669 1_555
O8 P0 1.546517 1_555
O9 P1 1.546517 1_555
O10 P2 1.537863 1_555
O12 P3 1.537863 1_555
O13 P4 1.559120 1_555
O14 P3 1.520961 1_555
O15 P5 1.539669 1_555
O16 P1 1.539677 1_555
O17 P0 1.539677 1_555
O18 P2 1.537863 1_555
O19 P5 1.568375 1_555
O20 P3 1.600569 1_555
O21 P2 1.600569 1_555
O22 P3 1.537863 1_555
O23 P4 1.539667 1_555
O24 P0 1.539677 1_555
O25 P5 1.559124 1_555
