# generated using pymatgen
data_OsXe2O3F14
_symmetry_space_group_name_H-M   'P 1'
_cell_length_a   8.43495600
_cell_length_b   10.01945700
_cell_length_c   15.86634900
_cell_angle_alpha   90.00000000
_cell_angle_beta   90.00000000
_cell_angle_gamma   90.00000000
_symmetry_Int_Tables_number   1
_chemical_formula_structural   OsXe2O3F14
_chemical_formula_sum   'Os4 Xe8 O12 F56'
_cell_volume   1340.92352532
_cell_formula_units_Z   4
loop_
 _symmetry_equiv_pos_site_id
 _symmetry_equiv_pos_as_xyz
  1  'x, y, z'
loop_
 _atom_site_type_symbol
 _atom_site_label
 _atom_site_symmetry_multiplicity
 _atom_site_fract_x
 _atom_site_fract_y
 _atom_site_fract_z
 _atom_site_occupancy
  Os  Os0  1  0.59803000  0.69959900  0.25000000  1
  Os  Os1  1  0.90197000  0.19959900  0.25000000  1
  Os  Os2  1  0.40197000  0.30040100  0.75000000  1
  Os  Os3  1  0.09803000  0.80040100  0.75000000  1
  Xe  Xe0  1  0.98703300  0.74356100  0.38818800  1
  Xe  Xe1  1  0.51296700  0.24356100  0.11181200  1
  Xe  Xe2  1  0.01296700  0.25643900  0.88818800  1
  Xe  Xe3  1  0.48703300  0.75643900  0.61181200  1
  Xe  Xe4  1  0.01296700  0.25643900  0.61181200  1
  Xe  Xe5  1  0.48703300  0.75643900  0.88818800  1
  Xe  Xe6  1  0.98703300  0.74356100  0.11181200  1
  Xe  Xe7  1  0.51296700  0.24356100  0.38818800  1
  O  O0  1  0.46430100  0.82866000  0.25000000  1
  O  O1  1  0.03569900  0.32866000  0.25000000  1
  O  O2  1  0.53569900  0.17134000  0.75000000  1
  O  O3  1  0.96430100  0.67134000  0.75000000  1
  O  O4  1  0.53908000  0.60466200  0.33413400  1
  O  O5  1  0.96092000  0.10466200  0.16586600  1
  O  O6  1  0.46092000  0.39533800  0.83413400  1
  O  O7  1  0.03908000  0.89533800  0.66586600  1
  O  O8  1  0.46092000  0.39533800  0.66586600  1
  O  O9  1  0.03908000  0.89533800  0.83413400  1
  O  O10  1  0.53908000  0.60466200  0.16586600  1
  O  O11  1  0.96092000  0.10466200  0.33413400  1
  F  F0  1  0.83019600  0.60650800  0.42721400  1
  F  F1  1  0.66980400  0.10650800  0.07278600  1
  F  F2  1  0.16980400  0.39349200  0.92721400  1
  F  F3  1  0.33019600  0.89349200  0.57278600  1
  F  F4  1  0.16980400  0.39349200  0.57278600  1
  F  F5  1  0.33019600  0.89349200  0.92721400  1
  F  F6  1  0.83019600  0.60650800  0.07278600  1
  F  F7  1  0.66980400  0.10650800  0.42721400  1
  F  F8  1  0.81294700  0.61597300  0.25000000  1
  F  F9  1  0.68705300  0.11597300  0.25000000  1
  F  F10  1  0.18705300  0.38402700  0.75000000  1
  F  F11  1  0.31294700  0.88402700  0.75000000  1
  F  F12  1  0.08537000  0.68141100  0.49435800  1
  F  F13  1  0.41463000  0.18141100  0.00564200  1
  F  F14  1  0.91463000  0.31858900  0.99435800  1
  F  F15  1  0.58537000  0.81858900  0.50564200  1
  F  F16  1  0.91463000  0.31858900  0.50564200  1
  F  F17  1  0.58537000  0.81858900  0.99435800  1
  F  F18  1  0.08537000  0.68141100  0.00564200  1
  F  F19  1  0.41463000  0.18141100  0.49435800  1
  F  F20  1  0.11875400  0.59492100  0.34217800  1
  F  F21  1  0.38124600  0.09492100  0.15782200  1
  F  F22  1  0.88124600  0.40507900  0.84217800  1
  F  F23  1  0.61875400  0.90507900  0.65782200  1
  F  F24  1  0.88124600  0.40507900  0.65782200  1
  F  F25  1  0.61875400  0.90507900  0.84217800  1
  F  F26  1  0.11875400  0.59492100  0.15782200  1
  F  F27  1  0.38124600  0.09492100  0.34217800  1
  F  F28  1  0.02507500  0.82191200  0.25000000  1
  F  F29  1  0.47492500  0.32191200  0.25000000  1
  F  F30  1  0.97492500  0.17808800  0.75000000  1
  F  F31  1  0.52507500  0.67808800  0.75000000  1
  F  F32  1  0.90071300  0.88123900  0.46681000  1
  F  F33  1  0.59928700  0.38123900  0.03319000  1
  F  F34  1  0.09928700  0.11876100  0.96681000  1
  F  F35  1  0.40071300  0.61876100  0.53319000  1
  F  F36  1  0.09928700  0.11876100  0.53319000  1
  F  F37  1  0.40071300  0.61876100  0.96681000  1
  F  F38  1  0.90071300  0.88123900  0.03319000  1
  F  F39  1  0.59928700  0.38123900  0.46681000  1
  F  F40  1  0.18229000  0.85652200  0.38907400  1
  F  F41  1  0.31771000  0.35652200  0.11092600  1
  F  F42  1  0.81771000  0.14347800  0.88907400  1
  F  F43  1  0.68229000  0.64347800  0.61092600  1
  F  F44  1  0.81771000  0.14347800  0.61092600  1
  F  F45  1  0.68229000  0.64347800  0.88907400  1
  F  F46  1  0.18229000  0.85652200  0.11092600  1
  F  F47  1  0.31771000  0.35652200  0.38907400  1
  F  F48  1  0.73179200  0.81735000  0.33209500  1
  F  F49  1  0.76820800  0.31735000  0.16790500  1
  F  F50  1  0.26820800  0.18265000  0.83209500  1
  F  F51  1  0.23179200  0.68265000  0.66790500  1
  F  F52  1  0.26820800  0.18265000  0.66790500  1
  F  F53  1  0.23179200  0.68265000  0.83209500  1
  F  F54  1  0.73179200  0.81735000  0.16790500  1
  F  F55  1  0.76820800  0.31735000  0.33209500  1
loop_
_geom_bond_atom_site_label_1
_geom_bond_atom_site_label_2
_geom_bond_distance
_geom_bond_site_symmetry_2
O0 Os0 1.715967 1_555
O1 Os1 1.715967 1_455
O2 Os2 1.715967 1_555
O3 Os3 1.715967 1_655
O4 Os0 1.712898 1_555
O5 Os1 1.712898 1_555
O6 Os2 1.712898 1_555
O7 Os3 1.712898 1_555
O8 Os2 1.712898 1_555
O9 Os3 1.712898 1_555
O10 Os0 1.712898 1_555
O11 Os1 1.712898 1_555
F0 Xe0 2.004789 1_555
F1 Xe1 2.004789 1_555
F2 Xe2 2.004789 1_555
F3 Xe3 2.004789 1_555
F4 Xe4 2.004789 1_555
F5 Xe5 2.004789 1_555
F6 Xe6 2.004789 1_555
F7 Xe7 2.004789 1_555
F8 Os0 1.997087 1_555
F9 Os1 1.997087 1_555
F10 Os2 1.997087 1_555
F11 Os3 1.997087 1_555
F12 Xe0 1.978238 1_455
F13 Xe1 1.978238 1_555
F14 Xe2 1.978238 1_655
F15 Xe3 1.978238 1_555
F16 Xe4 1.978238 1_655
F17 Xe5 1.978238 1_555
F18 Xe6 1.978238 1_455
F19 Xe7 1.978238 1_555
F20 Xe0 1.996337 1_455
F21 Xe1 1.996337 1_555
F22 Xe2 1.996337 1_655
F23 Xe3 1.996337 1_555
F24 Xe4 1.996337 1_655
F25 Xe5 1.996337 1_555
F26 Xe6 1.996337 1_455
F27 Xe7 1.996337 1_555
F28 Xe0 2.350845 1_455
F28 Xe6 2.350845 1_455
F29 Xe7 2.350845 1_555
F29 Xe1 2.350845 1_555
F30 Xe4 2.350845 1_655
F30 Xe2 2.350845 1_655
F31 Xe3 2.350845 1_555
F31 Xe5 2.350845 1_555
F32 Xe0 1.997288 1_555
F33 Xe1 1.997288 1_555
F34 Xe2 1.997288 1_555
F35 Xe3 1.997288 1_555
F36 Xe4 1.997288 1_555
F37 Xe5 1.997288 1_555
F38 Xe6 1.997288 1_555
F39 Xe7 1.997288 1_555
F40 Xe0 1.998435 1_455
F41 Xe1 1.998435 1_555
F42 Xe2 1.998435 1_655
F43 Xe3 1.998435 1_555
F44 Xe4 1.998435 1_655
F45 Xe5 1.998435 1_555
F46 Xe6 1.998435 1_455
F47 Xe7 1.998435 1_555
F48 Os0 2.088437 1_555
F48 Xe0 2.444149 1_555
F49 Os1 2.088437 1_555
F49 Xe1 2.444149 1_555
F50 Os2 2.088437 1_555
F50 Xe2 2.444149 1_555
F51 Os3 2.088437 1_555
F51 Xe3 2.444149 1_555
F52 Os2 2.088437 1_555
F52 Xe4 2.444149 1_555
F53 Os3 2.088437 1_555
F53 Xe5 2.444149 1_555
F54 Os0 2.088437 1_555
F54 Xe6 2.444149 1_555
F55 Os1 2.088437 1_555
F55 Xe7 2.444149 1_555
