# generated using pymatgen
data_Tb3Pt4
_symmetry_space_group_name_H-M   'P 1'
_cell_length_a   5.70925118
_cell_length_b   7.87201073
_cell_length_c   7.87576732
_cell_angle_alpha   114.41555508
_cell_angle_beta   104.00085380
_cell_angle_gamma   104.00629363
_symmetry_Int_Tables_number   1
_chemical_formula_structural   Tb3Pt4
_chemical_formula_sum   'Tb6 Pt8'
_cell_volume   288.34863530
_cell_formula_units_Z   2
loop_
 _symmetry_equiv_pos_site_id
 _symmetry_equiv_pos_as_xyz
  1  'x, y, z'
loop_
 _atom_site_type_symbol
 _atom_site_label
 _atom_site_symmetry_multiplicity
 _atom_site_fract_x
 _atom_site_fract_y
 _atom_site_fract_z
 _atom_site_occupancy
  Tb  Tb0  1  0.40535983  0.12442216  0.37644790  1
  Tb  Tb1  1  0.02864797  0.62343871  0.74814137  1
  Tb  Tb2  1  0.28041826  0.25185697  0.87542893  1
  Tb  Tb3  1  0.59464017  0.87557684  0.62355210  1
  Tb  Tb4  1  0.97135203  0.37656129  0.25185763  1
  Tb  Tb5  1  0.71958274  0.74814403  0.12457207  1
  Pt  Pt0  1  0.00000100  -0.00000000  0.00000000  1
  Pt  Pt1  1  0.49999900  -0.00000000  0.00000000  1
  Pt  Pt2  1  0.22588716  0.67164246  0.16531281  1
  Pt  Pt3  1  0.06018101  0.83453349  0.50647738  1
  Pt  Pt4  1  0.55389874  0.49344728  0.32832833  1
  Pt  Pt5  1  0.77411284  0.32835754  0.83468719  1
  Pt  Pt6  1  0.93981899  0.16546651  0.49352262  1
  Pt  Pt7  1  0.44610226  0.50655272  0.67167167  1
loop_
_geom_bond_atom_site_label_1
_geom_bond_atom_site_label_2
_geom_bond_distance
_geom_bond_site_symmetry_2
Pt0 Tb1 2.877341 1_544
Pt0 Tb4 2.877345 1_455
Pt0 Tb0 2.878795 1_555
Pt0 Tb3 2.878798 1_444
Pt0 Tb2 2.878898 1_554
Pt0 Tb5 2.878901 1_445
Pt1 Tb1 2.942490 1_544
Pt1 Tb4 2.942495 1_555
Pt1 Tb0 2.944835 1_555
Pt1 Tb3 2.944841 1_544
Pt1 Tb2 2.946351 1_554
Pt1 Tb5 2.946356 1_545
Pt2 Tb4 2.850680 1_455
Pt2 Tb5 2.861121 1_555
Pt2 Pt5 2.880072 1_454
Pt2 Pt4 2.952985 1_555
Pt2 Pt3 2.954280 1_555
Pt2 Tb0 3.004507 1_565
Pt2 Tb1 3.029705 1_554
Pt2 Tb5 3.061846 1_455
Pt2 Tb3 3.151522 1_555
Pt2 Tb2 3.291542 1_554
Pt3 Tb5 2.851213 1_455
Pt3 Tb3 2.860156 1_555
Pt3 Pt6 2.884712 1_465
Pt3 Pt4 2.949468 1_455
Pt3 Tb1 3.008648 1_555
Pt3 Tb2 3.026187 1_565
Pt3 Tb3 3.061729 1_455
Pt3 Tb4 3.149910 1_455
Pt3 Tb0 3.297215 1_565
Pt4 Tb3 2.850709 1_555
Pt4 Tb4 2.861407 1_555
Pt4 Pt7 2.882167 1_555
Pt4 Tb2 3.006243 1_554
Pt4 Tb0 3.028994 1_555
Pt4 Tb4 3.059788 1_455
Pt4 Tb5 3.156934 1_555
Pt4 Tb1 3.293892 1_655
Pt5 Tb1 2.850685 1_655
Pt5 Tb2 2.861119 1_555
Pt5 Pt7 2.952981 1_555
Pt5 Pt6 2.954280 1_555
Pt5 Tb3 3.004514 1_545
Pt5 Tb4 3.029698 1_556
Pt5 Tb2 3.061847 1_655
Pt5 Tb0 3.151521 1_555
Pt5 Tb5 3.291547 1_556
Pt6 Tb2 2.851219 1_655
Pt6 Tb0 2.860154 1_555
Pt6 Pt7 2.949472 1_655
Pt6 Tb4 3.008655 1_555
Pt6 Tb5 3.026179 1_545
Pt6 Tb0 3.061730 1_655
Pt6 Tb1 3.149909 1_655
Pt6 Tb3 3.297220 1_545
Pt7 Tb0 2.850713 1_555
Pt7 Tb1 2.861410 1_555
Pt7 Tb5 3.006250 1_556
Pt7 Tb3 3.028986 1_555
Pt7 Tb1 3.059784 1_655
Pt7 Tb2 3.156935 1_555
Pt7 Tb4 3.293900 1_455
