# generated using pymatgen
data_Cd3Ga2(GeO4)3
_symmetry_space_group_name_H-M   'P 1'
_cell_length_a   10.75390158
_cell_length_b   10.75390158
_cell_length_c   10.75390158
_cell_angle_alpha   109.47122063
_cell_angle_beta   109.47122063
_cell_angle_gamma   109.47122063
_symmetry_Int_Tables_number   1
_chemical_formula_structural   Cd3Ga2(GeO4)3
_chemical_formula_sum   'Cd12 Ga8 Ge12 O48'
_cell_volume   957.36221157
_cell_formula_units_Z   4
loop_
 _symmetry_equiv_pos_site_id
 _symmetry_equiv_pos_as_xyz
  1  'x, y, z'
loop_
 _atom_site_type_symbol
 _atom_site_label
 _atom_site_symmetry_multiplicity
 _atom_site_fract_x
 _atom_site_fract_y
 _atom_site_fract_z
 _atom_site_occupancy
  Cd  Cd0  1  0.87500000  0.62500000  0.75000000  1
  Cd  Cd1  1  0.12500000  0.37500000  0.25000000  1
  Cd  Cd2  1  0.62500000  0.87500000  0.25000000  1
  Cd  Cd3  1  0.62500000  0.75000000  0.87500000  1
  Cd  Cd4  1  0.87500000  0.25000000  0.62500000  1
  Cd  Cd5  1  0.37500000  0.12500000  0.75000000  1
  Cd  Cd6  1  0.37500000  0.25000000  0.12500000  1
  Cd  Cd7  1  0.12500000  0.75000000  0.37500000  1
  Cd  Cd8  1  0.75000000  0.87500000  0.62500000  1
  Cd  Cd9  1  0.25000000  0.12500000  0.37500000  1
  Cd  Cd10  1  0.25000000  0.62500000  0.87500000  1
  Cd  Cd11  1  0.75000000  0.37500000  0.12500000  1
  Ga  Ga0  1  -0.00000000  -0.00000000  0.00000000  1
  Ga  Ga1  1  0.50000000  -0.00000000  0.50000000  1
  Ga  Ga2  1  0.50000000  0.50000000  0.00000000  1
  Ga  Ga3  1  0.00000000  -0.00000000  0.50000000  1
  Ga  Ga4  1  -0.00000000  0.50000000  0.50000000  1
  Ga  Ga5  1  0.50000000  0.50000000  0.50000000  1
  Ga  Ga6  1  0.50000000  -0.00000000  0.00000000  1
  Ga  Ga7  1  0.00000000  0.50000000  0.00000000  1
  Ge  Ge0  1  0.62500000  0.37500000  0.75000000  1
  Ge  Ge1  1  0.37500000  0.62500000  0.25000000  1
  Ge  Ge2  1  0.87500000  0.12500000  0.25000000  1
  Ge  Ge3  1  0.37500000  0.75000000  0.62500000  1
  Ge  Ge4  1  0.62500000  0.25000000  0.37500000  1
  Ge  Ge5  1  0.12500000  0.87500000  0.75000000  1
  Ge  Ge6  1  0.12500000  0.25000000  0.87500000  1
  Ge  Ge7  1  0.87500000  0.75000000  0.12500000  1
  Ge  Ge8  1  0.75000000  0.62500000  0.37500000  1
  Ge  Ge9  1  0.25000000  0.37500000  0.62500000  1
  Ge  Ge10  1  0.25000000  0.87500000  0.12500000  1
  Ge  Ge11  1  0.75000000  0.12500000  0.87500000  1
  O  O0  1  0.69942005  0.61895649  0.51618234  1
  O  O1  1  0.30057995  0.38104351  0.48381766  1
  O  O2  1  0.80057995  0.81676229  0.41953644  1
  O  O3  1  0.39722585  0.88104351  0.08046356  1
  O  O4  1  0.61895649  0.51618234  0.69942005  1
  O  O5  1  0.69942005  0.08046356  0.68323771  1
  O  O6  1  0.19942005  0.18323771  0.58046356  1
  O  O7  1  0.60277415  0.11895649  0.91953644  1
  O  O8  1  0.38104351  0.48381766  0.30057995  1
  O  O9  1  0.30057995  0.91953644  0.31676229  1
  O  O10  1  0.10277415  0.68323771  0.98381766  1
  O  O11  1  0.81676229  0.41953644  0.80057995  1
  O  O12  1  0.80057995  0.98381766  0.88104351  1
  O  O13  1  0.89722585  0.31676229  0.01618234  1
  O  O14  1  0.18323771  0.58046356  0.19942005  1
  O  O15  1  0.19942005  0.01618234  0.11895649  1
  O  O16  1  0.88104351  0.08046356  0.39722585  1
  O  O17  1  0.39722585  0.51618234  0.81676229  1
  O  O18  1  0.11895649  0.91953644  0.60277415  1
  O  O19  1  0.60277415  0.48381766  0.18323771  1
  O  O20  1  0.68323771  0.98381766  0.10277415  1
  O  O21  1  0.10277415  0.41953644  0.61895649  1
  O  O22  1  0.31676229  0.01618234  0.89722585  1
  O  O23  1  0.89722585  0.58046356  0.38104351  1
  O  O24  1  0.51618234  0.69942005  0.61895649  1
  O  O25  1  0.61895649  0.10277415  0.41953644  1
  O  O26  1  0.48381766  0.30057995  0.38104351  1
  O  O27  1  0.38104351  0.89722585  0.58046356  1
  O  O28  1  0.08046356  0.39722585  0.88104351  1
  O  O29  1  0.88104351  0.80057995  0.98381766  1
  O  O30  1  0.91953644  0.60277415  0.11895649  1
  O  O31  1  0.11895649  0.19942005  0.01618234  1
  O  O32  1  0.98381766  0.10277415  0.68323771  1
  O  O33  1  0.68323771  0.69942005  0.08046356  1
  O  O34  1  0.01618234  0.89722585  0.31676229  1
  O  O35  1  0.31676229  0.30057995  0.91953644  1
  O  O36  1  0.41953644  0.80057995  0.81676229  1
  O  O37  1  0.81676229  0.39722585  0.51618234  1
  O  O38  1  0.58046356  0.19942005  0.18323771  1
  O  O39  1  0.18323771  0.60277415  0.48381766  1
  O  O40  1  0.08046356  0.68323771  0.69942005  1
  O  O41  1  0.91953644  0.31676229  0.30057995  1
  O  O42  1  0.98381766  0.88104351  0.80057995  1
  O  O43  1  0.01618234  0.11895649  0.19942005  1
  O  O44  1  0.41953644  0.61895649  0.10277415  1
  O  O45  1  0.58046356  0.38104351  0.89722585  1
  O  O46  1  0.51618234  0.81676229  0.39722585  1
  O  O47  1  0.48381766  0.18323771  0.60277415  1
loop_
_geom_bond_atom_site_label_1
_geom_bond_atom_site_label_2
_geom_bond_distance
_geom_bond_site_symmetry_2
Cd0 O4 2.382422 1_555
Cd0 O42 2.382422 1_555
Cd0 O11 2.382422 1_555
Cd0 O40 2.382422 1_655
Cd0 O10 2.556557 1_655
Cd0 O29 2.556557 1_555
Cd0 O37 2.556557 1_555
Cd0 O0 2.556557 1_555
Cd1 O8 2.382422 1_555
Cd1 O41 2.382422 1_455
Cd1 O14 2.382422 1_555
Cd1 O43 2.382422 1_555
Cd1 O1 2.556557 1_555
Cd1 O39 2.556557 1_555
Cd1 O31 2.556557 1_555
Cd1 O13 2.556557 1_455
Cd2 O20 2.382422 1_555
Cd2 O46 2.382422 1_555
Cd2 O44 2.382422 1_555
Cd2 O16 2.382422 1_565
Cd2 O25 2.556557 1_565
Cd2 O33 2.556557 1_555
Cd2 O3 2.556557 1_555
Cd2 O2 2.556557 1_555
Cd3 O29 2.382422 1_555
Cd3 O36 2.382422 1_555
Cd3 O24 2.382422 1_555
Cd3 O33 2.382422 1_556
Cd3 O20 2.556557 1_556
Cd3 O17 2.556557 1_555
Cd3 O4 2.556557 1_555
Cd3 O12 2.556557 1_555
Cd4 O37 2.382422 1_555
Cd4 O25 2.382422 1_555
Cd4 O32 2.382422 1_555
Cd4 O28 2.382422 1_655
Cd4 O21 2.556557 1_655
Cd4 O11 2.556557 1_555
Cd4 O16 2.556557 1_555
Cd4 O5 2.556557 1_555
Cd5 O47 2.382422 1_555
Cd5 O22 2.382422 1_555
Cd5 O45 2.382422 1_555
Cd5 O18 2.382422 1_545
Cd5 O7 2.556557 1_555
Cd5 O6 2.556557 1_555
Cd5 O27 2.556557 1_545
Cd5 O35 2.556557 1_555
Cd6 O35 2.382422 1_554
Cd6 O38 2.382422 1_555
Cd6 O26 2.382422 1_555
Cd6 O31 2.382422 1_555
Cd6 O19 2.556557 1_555
Cd6 O8 2.556557 1_555
Cd6 O22 2.556557 1_554
Cd6 O15 2.556557 1_555
Cd7 O39 2.382422 1_555
Cd7 O27 2.382422 1_555
Cd7 O34 2.382422 1_555
Cd7 O30 2.382422 1_455
Cd7 O23 2.556557 1_455
Cd7 O14 2.556557 1_555
Cd7 O9 2.556557 1_555
Cd7 O18 2.556557 1_555
Cd8 O0 2.382422 1_555
Cd8 O2 2.382422 1_555
Cd8 O12 2.382422 1_555
Cd8 O5 2.382422 1_565
Cd8 O32 2.556557 1_565
Cd8 O42 2.556557 1_555
Cd8 O46 2.556557 1_555
Cd8 O24 2.556557 1_555
Cd9 O6 2.382422 1_555
Cd9 O1 2.382422 1_555
Cd9 O9 2.382422 1_545
Cd9 O15 2.382422 1_555
Cd9 O47 2.556557 1_555
Cd9 O43 2.556557 1_555
Cd9 O34 2.556557 1_545
Cd9 O26 2.556557 1_555
Cd10 O10 2.382422 1_555
Cd10 O17 2.382422 1_555
Cd10 O21 2.382422 1_555
Cd10 O3 2.382422 1_556
Cd10 O44 2.556557 1_556
Cd10 O36 2.556557 1_555
Cd10 O40 2.556557 1_555
Cd10 O28 2.556557 1_555
Cd11 O19 2.382422 1_555
Cd11 O7 2.382422 1_554
Cd11 O23 2.382422 1_555
Cd11 O13 2.382422 1_555
Cd11 O45 2.556557 1_554
Cd11 O30 2.556557 1_555
Cd11 O38 2.556557 1_555
Cd11 O41 2.556557 1_555
Ga0 O12 2.009895 1_444
Ga0 O29 2.009895 1_444
Ga0 O42 2.009895 1_444
Ga0 O43 2.009895 1_555
Ga0 O31 2.009895 1_555
Ga0 O15 2.009895 1_555
Ga1 O46 2.009895 1_545
Ga1 O5 2.009895 1_555
Ga1 O47 2.009895 1_555
Ga1 O25 2.009895 1_555
Ga1 O27 2.009895 1_545
Ga1 O9 2.009895 1_545
Ga2 O33 2.009895 1_555
Ga2 O44 2.009895 1_555
Ga2 O17 2.009895 1_554
Ga2 O45 2.009895 1_554
Ga2 O35 2.009895 1_554
Ga2 O19 2.009895 1_555
Ga3 O6 2.009895 1_555
Ga3 O2 2.009895 1_445
Ga3 O18 2.009895 1_545
Ga3 O16 2.009895 1_455
Ga3 O32 2.009895 1_455
Ga3 O34 2.009895 1_545
Ga4 O21 2.009895 1_555
Ga4 O39 2.009895 1_555
Ga4 O37 2.009895 1_455
Ga4 O40 2.009895 1_555
Ga4 O41 2.009895 1_455
Ga4 O23 2.009895 1_455
Ga5 O0 2.009895 1_555
Ga5 O24 2.009895 1_555
Ga5 O4 2.009895 1_555
Ga5 O8 2.009895 1_555
Ga5 O26 2.009895 1_555
Ga5 O1 2.009895 1_555
Ga6 O36 2.009895 1_544
Ga6 O3 2.009895 1_545
Ga6 O20 2.009895 1_545
Ga6 O7 2.009895 1_554
Ga6 O22 2.009895 1_554
Ga6 O38 2.009895 1_555
Ga7 O11 2.009895 1_454
Ga7 O10 2.009895 1_554
Ga7 O30 2.009895 1_455
Ga7 O14 2.009895 1_555
Ga7 O28 2.009895 1_554
Ga7 O13 2.009895 1_455
Ge0 O11 1.788287 1_555
Ge0 O4 1.788287 1_555
Ge0 O45 1.788287 1_555
Ge0 O47 1.788287 1_555
Ge1 O14 1.788287 1_555
Ge1 O46 1.788287 1_555
Ge1 O8 1.788287 1_555
Ge1 O44 1.788287 1_555
Ge2 O16 1.788287 1_555
Ge2 O20 1.788287 1_545
Ge2 O41 1.788287 1_555
Ge2 O43 1.788287 1_655
Ge3 O36 1.788287 1_555
Ge3 O27 1.788287 1_555
Ge3 O24 1.788287 1_555
Ge3 O39 1.788287 1_555
Ge4 O26 1.788287 1_555
Ge4 O37 1.788287 1_555
Ge4 O38 1.788287 1_555
Ge4 O25 1.788287 1_555
Ge5 O40 1.788287 1_555
Ge5 O18 1.788287 1_555
Ge5 O22 1.788287 1_565
Ge5 O42 1.788287 1_455
Ge6 O28 1.788287 1_555
Ge6 O32 1.788287 1_455
Ge6 O35 1.788287 1_555
Ge6 O31 1.788287 1_556
Ge7 O33 1.788287 1_555
Ge7 O29 1.788287 1_554
Ge7 O30 1.788287 1_555
Ge7 O34 1.788287 1_655
Ge8 O19 1.788287 1_555
Ge8 O23 1.788287 1_555
Ge8 O0 1.788287 1_555
Ge8 O2 1.788287 1_555
Ge9 O21 1.788287 1_555
Ge9 O17 1.788287 1_555
Ge9 O6 1.788287 1_555
Ge9 O1 1.788287 1_555
Ge10 O3 1.788287 1_555
Ge10 O9 1.788287 1_555
Ge10 O10 1.788287 1_554
Ge10 O15 1.788287 1_565
Ge11 O12 1.788287 1_545
Ge11 O5 1.788287 1_555
Ge11 O7 1.788287 1_555
Ge11 O13 1.788287 1_556
