# generated using pymatgen
data_UOs2
_symmetry_space_group_name_H-M   'P 1'
_cell_length_a   5.38358300
_cell_length_b   5.38358219
_cell_length_c   8.53166300
_cell_angle_alpha   90.00000000
_cell_angle_beta   90.00000000
_cell_angle_gamma   119.99999880
_symmetry_Int_Tables_number   1
_chemical_formula_structural   UOs2
_chemical_formula_sum   'U4 Os8'
_cell_volume   214.14458183
_cell_formula_units_Z   4
loop_
 _symmetry_equiv_pos_site_id
 _symmetry_equiv_pos_as_xyz
  1  'x, y, z'
loop_
 _atom_site_type_symbol
 _atom_site_label
 _atom_site_symmetry_multiplicity
 _atom_site_fract_x
 _atom_site_fract_y
 _atom_site_fract_z
 _atom_site_occupancy
  U  U0  1  0.33333300  0.66666700  0.42421900  1
  U  U1  1  0.66666700  0.33333300  0.57578100  1
  U  U2  1  0.66666700  0.33333300  0.92421900  1
  U  U3  1  0.33333300  0.66666700  0.07578100  1
  Os  Os0  1  0.00000000  0.00000000  0.50000000  1
  Os  Os1  1  0.00000000  0.00000000  0.00000000  1
  Os  Os2  1  0.82967500  0.17032500  0.25000000  1
  Os  Os3  1  0.82967500  0.65935100  0.25000000  1
  Os  Os4  1  0.34064900  0.17032500  0.25000000  1
  Os  Os5  1  0.17032500  0.82967500  0.75000000  1
  Os  Os6  1  0.17032500  0.34064900  0.75000000  1
  Os  Os7  1  0.65935100  0.82967500  0.75000000  1
loop_
_geom_bond_atom_site_label_1
_geom_bond_atom_site_label_2
_geom_bond_distance
_geom_bond_site_symmetry_2
U0 U3 2.972756 1_555
U0 U1 3.366454 1_565
U0 U1 3.366454 1_455
U0 U1 3.366463 1_555
U1 U2 2.972756 1_555
U2 U3 3.366454 1_546
U2 U3 3.366454 1_656
U2 U3 3.366463 1_556
Os0 Os3 2.659277 1_445
Os0 Os6 2.659277 1_555
Os0 Os7 2.659277 1_445
Os0 Os4 2.659277 1_555
Os0 Os2 2.659280 1_455
Os0 Os5 2.659280 1_545
Os0 U0 3.174741 1_545
Os0 U1 3.174741 1_455
Os0 U1 3.174745 1_445
Os0 U0 3.174745 1_555
Os0 U1 3.174746 1_555
Os0 U0 3.174746 1_445
Os1 Os6 2.659277 1_554
Os1 Os3 2.659277 1_445
Os1 Os4 2.659277 1_555
Os1 Os7 2.659277 1_444
Os1 Os2 2.659280 1_455
Os1 Os5 2.659280 1_544
Os1 U3 3.174741 1_545
Os1 U2 3.174741 1_454
Os1 U3 3.174745 1_555
Os1 U2 3.174745 1_444
Os1 U2 3.174746 1_554
Os1 U3 3.174746 1_445
Os2 Os3 2.632712 1_555
Os2 Os4 2.632712 1_555
Os2 Os3 2.750871 1_545
Os2 Os4 2.750871 1_655
Os2 U0 3.075097 1_545
Os2 U3 3.075097 1_545
Os2 U3 3.075097 1_655
Os2 U0 3.075097 1_655
Os2 U2 3.167923 1_554
Os2 U1 3.167923 1_555
Os3 Os4 2.632712 1_555
Os3 Os4 2.750871 1_665
Os3 U0 3.075097 1_555
Os3 U3 3.075097 1_555
Os3 U0 3.075097 1_655
Os3 U3 3.075097 1_655
Os3 U1 3.167927 1_555
Os3 U2 3.167927 1_554
Os4 U0 3.075097 1_545
Os4 U3 3.075097 1_545
Os4 U0 3.075097 1_555
Os4 U3 3.075097 1_555
Os4 U2 3.167927 1_554
Os4 U1 3.167927 1_555
Os5 Os6 2.632712 1_555
Os5 Os7 2.632712 1_555
Os5 Os6 2.750871 1_565
Os5 Os7 2.750871 1_455
Os5 U1 3.075097 1_565
Os5 U2 3.075097 1_565
Os5 U2 3.075097 1_455
Os5 U1 3.075097 1_455
Os5 U0 3.167923 1_555
Os5 U3 3.167923 1_556
Os6 Os7 2.632712 1_555
Os6 Os7 2.750871 1_445
Os6 U2 3.075097 1_555
Os6 U1 3.075097 1_555
Os6 U1 3.075097 1_455
Os6 U2 3.075097 1_455
Os6 U0 3.167927 1_555
Os6 U3 3.167927 1_556
Os7 U2 3.075097 1_565
Os7 U1 3.075097 1_565
Os7 U1 3.075097 1_555
Os7 U2 3.075097 1_555
Os7 U0 3.167927 1_555
Os7 U3 3.167927 1_556
