# generated using pymatgen
data_Li9Mn2Co5O16
_symmetry_space_group_name_H-M   'P 1'
_cell_length_a   2.88914400
_cell_length_b   5.88519400
_cell_length_c   17.02370377
_cell_angle_alpha   89.69463676
_cell_angle_beta   90.00000000
_cell_angle_gamma   90.00000000
_symmetry_Int_Tables_number   1
_chemical_formula_structural   Li9Mn2Co5O16
_chemical_formula_sum   'Li9 Mn2 Co5 O16'
_cell_volume   289.45286832
_cell_formula_units_Z   1
loop_
 _symmetry_equiv_pos_site_id
 _symmetry_equiv_pos_as_xyz
  1  'x, y, z'
loop_
 _atom_site_type_symbol
 _atom_site_label
 _atom_site_symmetry_multiplicity
 _atom_site_fract_x
 _atom_site_fract_y
 _atom_site_fract_z
 _atom_site_occupancy
  Li  Li0  1  0.50000000  0.74440200  0.87743100  1
  Li  Li1  1  0.50000000  0.25311700  0.62170100  1
  Li  Li2  1  0.50000000  0.74581200  0.36367600  1
  Li  Li3  1  0.00000000  0.00592900  0.75131400  1
  Li  Li4  1  0.00000000  0.49850600  0.49179900  1
  Li  Li5  1  0.00000000  0.00017000  0.25376600  1
  Li  Li6  1  0.50000000  0.25468200  0.13463200  1
  Li  Li7  1  0.00000000  0.50047800  0.00595700  1
  Li  Li8  1  0.00000000  0.49976700  0.25024500  1
  Mn  Mn0  1  0.00000000  0.99566400  0.00221600  1
  Mn  Mn1  1  0.50000000  0.75013400  0.62351700  1
  Co  Co0  1  0.00000000  0.49532900  0.75147000  1
  Co  Co1  1  0.00000000  0.01234200  0.49405000  1
  Co  Co2  1  0.50000000  0.26175800  0.35949200  1
  Co  Co3  1  0.50000000  0.73763000  0.13940900  1
  Co  Co4  1  0.50000000  0.25479000  0.87648900  1
  O  O0  1  0.50000000  0.77530400  0.99760800  1
  O  O1  1  0.50000000  0.26505200  0.75053000  1
  O  O2  1  0.50000000  0.76735400  0.51029300  1
  O  O3  1  0.00000000  0.01888600  0.88377200  1
  O  O4  1  0.00000000  0.52821500  0.62301700  1
  O  O5  1  0.00000000  0.01642000  0.37850400  1
  O  O6  1  0.50000000  0.24702900  0.25491800  1
  O  O7  1  0.00000000  0.51965900  0.12297800  1
  O  O8  1  0.50000000  0.73067600  0.74102900  1
  O  O9  1  0.50000000  0.22822800  0.50236000  1
  O  O10  1  0.50000000  0.75532500  0.24352000  1
  O  O11  1  0.00000000  0.97270100  0.62609700  1
  O  O12  1  0.00000000  0.48343100  0.37529900  1
  O  O13  1  0.00000000  0.97632300  0.11457600  1
  O  O14  1  0.50000000  0.22008700  0.00302500  1
  O  O15  1  0.00000000  0.48479800  0.87530900  1
loop_
_geom_bond_atom_site_label_1
_geom_bond_atom_site_label_2
_geom_bond_distance
_geom_bond_site_symmetry_2
Li0 O0 2.054890 1_555
Li0 O15 2.103073 1_555
Li0 O15 2.103073 1_655
Li0 O3 2.170205 1_565
Li0 O3 2.170205 1_665
Li0 O8 2.323902 1_555
Li1 O9 2.037678 1_555
Li1 O4 2.169989 1_555
Li1 O4 2.169989 1_655
Li1 O11 2.194213 1_545
Li1 O11 2.194213 1_645
Li1 O1 2.194645 1_555
Li2 O10 2.045968 1_555
Li2 O12 2.122998 1_655
Li2 O12 2.122998 1_555
Li2 O5 2.165896 1_565
Li2 O5 2.165896 1_665
Li2 O2 2.499857 1_555
Li3 O1 2.100557 1_455
Li3 O1 2.100557 1_555
Li3 O11 2.141646 1_545
Li3 O8 2.178210 1_545
Li3 O8 2.178210 1_445
Li3 O3 2.256621 1_555
Li4 O12 1.985717 1_555
Li4 O9 2.155503 1_455
Li4 O9 2.155503 1_555
Li4 O2 2.166714 1_555
Li4 O2 2.166714 1_455
Li4 O4 2.241577 1_555
Li5 O10 2.048477 1_445
Li5 O10 2.048477 1_545
Li5 O6 2.048937 1_555
Li5 O6 2.048937 1_455
Li5 O5 2.126164 1_555
Li5 O13 2.374428 1_545
Li6 O6 2.047968 1_555
Li6 O7 2.134176 1_655
Li6 O7 2.134176 1_555
Li6 O13 2.212015 1_545
Li6 O13 2.212015 1_645
Li6 O14 2.250751 1_555
Li7 O7 1.995927 1_555
Li7 O0 2.172679 1_554
Li7 O0 2.172679 1_454
Li7 O14 2.193894 1_455
Li7 O14 2.193894 1_555
Li7 O15 2.226518 1_554
Li8 O6 2.074669 1_455
Li8 O6 2.074669 1_555
Li8 O10 2.088085 1_455
Li8 O10 2.088085 1_555
Li8 O12 2.130540 1_555
Li8 O7 2.169093 1_555
Mn0 O13 1.915561 1_555
Mn0 O0 1.943161 1_554
Mn0 O0 1.943161 1_454
Mn0 O14 1.957451 1_565
Mn0 O14 1.957451 1_465
Mn0 O3 2.020255 1_564
Mn1 O2 1.929615 1_555
Mn1 O4 1.947488 1_555
Mn1 O4 1.947488 1_655
Mn1 O11 1.950651 1_555
Mn1 O11 1.950651 1_655
Mn1 O8 2.003155 1_555
Co0 O1 1.980886 1_555
Co0 O1 1.980886 1_455
Co0 O8 2.008521 1_555
Co0 O8 2.008521 1_455
Co0 O15 2.108779 1_555
Co0 O4 2.194266 1_555
Co1 O9 1.929499 1_455
Co1 O9 1.929499 1_555
Co1 O5 1.967039 1_555
Co1 O2 2.058590 1_445
Co1 O2 2.058590 1_545
Co1 O11 2.258765 1_545
Co2 O6 1.782807 1_555
Co2 O12 1.965933 1_655
Co2 O12 1.965933 1_555
Co2 O5 2.066711 1_555
Co2 O5 2.066711 1_655
Co2 O9 2.439086 1_555
Co3 O10 1.775966 1_555
Co3 O7 1.953058 1_655
Co3 O7 1.953058 1_555
Co3 O13 2.057307 1_655
Co3 O13 2.057307 1_555
Co3 O0 2.422962 1_554
Co4 O15 1.979709 1_655
Co4 O15 1.979709 1_555
Co4 O3 2.006942 1_555
Co4 O3 2.006942 1_655
Co4 O1 2.144817 1_555
Co4 O14 2.162688 1_556
