# generated using pymatgen
data_NbSi4O13
_symmetry_space_group_name_H-M   'P 1'
_cell_length_a   9.10252800
_cell_length_b   7.59831400
_cell_length_c   9.99946876
_cell_angle_alpha   72.01927684
_cell_angle_beta   90.00000000
_cell_angle_gamma   90.00000000
_symmetry_Int_Tables_number   1
_chemical_formula_structural   NbSi4O13
_chemical_formula_sum   'Nb2 Si8 O26'
_cell_volume   657.82437616
_cell_formula_units_Z   2
loop_
 _symmetry_equiv_pos_site_id
 _symmetry_equiv_pos_as_xyz
  1  'x, y, z'
loop_
 _atom_site_type_symbol
 _atom_site_label
 _atom_site_symmetry_multiplicity
 _atom_site_fract_x
 _atom_site_fract_y
 _atom_site_fract_z
 _atom_site_occupancy
  Nb  Nb0  1  0.75000000  0.08519300  0.10253300  1
  Nb  Nb1  1  0.25000000  0.91480700  0.89746700  1
  Si  Si0  1  0.75000000  0.41242700  0.58409000  1
  Si  Si1  1  0.25000000  0.58757300  0.41591000  1
  Si  Si2  1  0.75000000  0.43951400  0.25846000  1
  Si  Si3  1  0.25000000  0.56048600  0.74154000  1
  Si  Si4  1  0.99731300  0.26812300  0.81054200  1
  Si  Si5  1  0.49731300  0.73187700  0.18945800  1
  Si  Si6  1  0.00268700  0.73187700  0.18945800  1
  Si  Si7  1  0.50268700  0.26812300  0.81054200  1
  O  O0  1  0.39998000  0.77580000  0.04525300  1
  O  O1  1  0.89998000  0.22420000  0.95474700  1
  O  O2  1  0.60002000  0.22420000  0.95474700  1
  O  O3  1  0.10002000  0.77580000  0.04525300  1
  O  O4  1  0.75000000  0.25058600  0.21377000  1
  O  O5  1  0.25000000  0.74941400  0.78623000  1
  O  O6  1  0.75000000  0.99420700  0.92491600  1
  O  O7  1  0.25000000  0.00579300  0.07508400  1
  O  O8  1  0.09807200  0.08922000  0.81224700  1
  O  O9  1  0.59807200  0.91078000  0.18775300  1
  O  O10  1  0.90192800  0.91078000  0.18775300  1
  O  O11  1  0.40192800  0.08922000  0.81224700  1
  O  O12  1  0.75000000  0.64060200  0.54453300  1
  O  O13  1  0.25000000  0.35939800  0.45546700  1
  O  O14  1  0.75000000  0.38217900  0.42984400  1
  O  O15  1  0.25000000  0.61782100  0.57015600  1
  O  O16  1  0.60498200  0.31759900  0.67075100  1
  O  O17  1  0.10498200  0.68240100  0.32924900  1
  O  O18  1  0.39501800  0.68240100  0.32924900  1
  O  O19  1  0.89501800  0.31759900  0.67075100  1
  O  O20  1  0.39753100  0.44417800  0.80488900  1
  O  O21  1  0.89753100  0.55582200  0.19511100  1
  O  O22  1  0.60246900  0.55582200  0.19511100  1
  O  O23  1  0.10246900  0.44417800  0.80488900  1
  O  O24  1  0.50000000  0.00000000  0.50000000  1
  O  O25  1  0.00000000  0.00000000  0.50000000  1
loop_
_geom_bond_atom_site_label_1
_geom_bond_atom_site_label_2
_geom_bond_distance
_geom_bond_site_symmetry_2
Nb0 O4 1.918222 1_555
Nb0 O10 1.922941 1_545
Nb0 O9 1.922941 1_545
Nb0 O2 2.049276 1_554
Nb0 O1 2.049276 1_554
Nb0 O6 2.095347 1_544
Nb1 O5 1.918222 1_555
Nb1 O11 1.922941 1_565
Nb1 O8 1.922941 1_565
Nb1 O3 2.049276 1_556
Nb1 O0 2.049276 1_556
Nb1 O7 2.095347 1_566
O0 Si5 1.636614 1_555
O1 Si4 1.636614 1_555
O2 Si7 1.636614 1_555
O3 Si6 1.636614 1_555
O4 Si2 1.629883 1_555
O5 Si3 1.629883 1_555
O8 Si4 1.635552 1_455
O9 Si5 1.635552 1_555
O10 Si6 1.635552 1_655
O11 Si7 1.635552 1_555
O12 Si0 1.654973 1_555
O13 Si1 1.654973 1_555
O14 Si0 1.628071 1_555
O14 Si2 1.632723 1_555
O15 Si1 1.628071 1_555
O15 Si3 1.632723 1_555
O16 Si0 1.620829 1_555
O16 Si7 1.624150 1_555
O17 Si1 1.620829 1_555
O17 Si6 1.624150 1_555
O18 Si1 1.620829 1_555
O18 Si5 1.624150 1_555
O19 Si0 1.620829 1_555
O19 Si4 1.624150 1_555
O20 Si3 1.624820 1_555
O20 Si7 1.631628 1_555
O21 Si2 1.624820 1_555
O21 Si6 1.631628 1_655
O22 Si2 1.624820 1_555
O22 Si5 1.631628 1_555
O23 Si3 1.624820 1_555
O23 Si4 1.631628 1_455
