# generated using pymatgen
data_Al2Si2O11
_symmetry_space_group_name_H-M   'P 1'
_cell_length_a   5.34020995
_cell_length_b   5.34020995
_cell_length_c   10.17058500
_cell_angle_alpha   84.96635388
_cell_angle_beta   84.96635388
_cell_angle_gamma   119.77838631
_symmetry_Int_Tables_number   1
_chemical_formula_structural   Al2Si2O11
_chemical_formula_sum   'Al2 Si2 O11'
_cell_volume   247.86362791
_cell_formula_units_Z   1
loop_
 _symmetry_equiv_pos_site_id
 _symmetry_equiv_pos_as_xyz
  1  'x, y, z'
loop_
 _atom_site_type_symbol
 _atom_site_label
 _atom_site_symmetry_multiplicity
 _atom_site_fract_x
 _atom_site_fract_y
 _atom_site_fract_z
 _atom_site_occupancy
  Al  Al0  1  0.41318900  0.07909400  0.99506500  1
  Al  Al1  1  0.07909400  0.41318900  0.99506500  1
  Si  Si0  1  0.19048800  0.85479000  0.44033000  1
  Si  Si1  1  0.85479000  0.19048800  0.44033000  1
  O  O0  1  0.77701400  0.16751900  0.90692700  1
  O  O1  1  0.16751900  0.77701400  0.90692700  1
  O  O2  1  0.10843500  0.10843500  0.08366400  1
  O  O3  1  0.16049300  0.79947500  0.60623900  1
  O  O4  1  0.79947500  0.16049300  0.60623900  1
  O  O5  1  0.31990300  0.71521700  0.08573400  1
  O  O6  1  0.71521700  0.31990300  0.08573400  1
  O  O7  1  0.38883200  0.38883200  0.90813500  1
  O  O8  1  0.03866700  0.03866700  0.38855200  1
  O  O9  1  0.53937000  0.03251300  0.38502900  1
  O  O10  1  0.03251300  0.53937000  0.38502900  1
loop_
_geom_bond_atom_site_label_1
_geom_bond_atom_site_label_2
_geom_bond_distance
_geom_bond_site_symmetry_2
Al0 O1 1.866815 1_545
Al0 O2 1.872393 1_556
Al0 O0 1.873553 1_555
Al0 O7 1.873979 1_555
Al0 O6 1.874672 1_556
Al0 O5 1.875605 1_546
Al1 O0 1.866815 1_455
Al1 O2 1.872393 1_556
Al1 O1 1.873553 1_555
Al1 O7 1.873979 1_555
Al1 O5 1.874672 1_556
Al1 O6 1.875605 1_456
O3 Si0 1.666826 1_555
O4 Si1 1.666826 1_555
O8 Si1 1.635180 1_455
O8 Si0 1.635180 1_545
O9 Si0 1.629207 1_545
O9 Si1 1.644175 1_555
O10 Si1 1.629207 1_455
O10 Si0 1.644175 1_555
