# generated using pymatgen
data_CsLiMg14O15
_symmetry_space_group_name_H-M   'P 1'
_cell_length_a   10.69812493
_cell_length_b   8.23513889
_cell_length_c   4.18019652
_cell_angle_alpha   90.00000000
_cell_angle_beta   90.00000000
_cell_angle_gamma   90.00000000
_symmetry_Int_Tables_number   1
_chemical_formula_structural   CsLiMg14O15
_chemical_formula_sum   'Cs1 Li1 Mg14 O15'
_cell_volume   368.27759020
_cell_formula_units_Z   1
loop_
 _symmetry_equiv_pos_site_id
 _symmetry_equiv_pos_as_xyz
  1  'x, y, z'
loop_
 _atom_site_type_symbol
 _atom_site_label
 _atom_site_symmetry_multiplicity
 _atom_site_fract_x
 _atom_site_fract_y
 _atom_site_fract_z
 _atom_site_occupancy
  Cs  Cs0  1  0.56360609  0.50000000  0.00000000  1
  Li  Li0  1  0.99299079  -0.00000000  0.00000000  1
  Mg  Mg0  1  0.01973685  0.50000000  0.00000000  1
  Mg  Mg1  1  0.52139823  -0.00000000  0.00000000  1
  Mg  Mg2  1  0.00927296  0.24008459  0.50000000  1
  Mg  Mg3  1  0.00927296  0.75991541  0.50000000  1
  Mg  Mg4  1  0.42350962  0.23831086  0.50000000  1
  Mg  Mg5  1  0.42350962  0.76168914  0.50000000  1
  Mg  Mg6  1  0.19471524  -0.00000000  0.50000000  1
  Mg  Mg7  1  0.22739241  0.50000000  0.50000000  1
  Mg  Mg8  1  0.73543907  -0.00000000  0.50000000  1
  Mg  Mg9  1  0.82772585  0.50000000  0.50000000  1
  Mg  Mg10  1  0.23057389  0.26781414  -0.00000000  1
  Mg  Mg11  1  0.23057389  0.73218586  0.00000000  1
  Mg  Mg12  1  0.82038627  0.24090532  0.00000000  1
  Mg  Mg13  1  0.82038627  0.75909468  0.00000000  1
  O  O0  1  0.20760515  0.50000000  0.00000000  1
  O  O1  1  0.74874171  -0.00000000  0.00000000  1
  O  O2  1  0.82722785  0.50000000  0.00000000  1
  O  O3  1  0.22635843  0.23008468  0.50000000  1
  O  O4  1  0.22635843  0.76991532  0.50000000  1
  O  O5  1  0.80542833  0.25015915  0.50000000  1
  O  O6  1  0.80542833  0.74984085  0.50000000  1
  O  O7  1  0.01707337  -0.00000000  0.50000000  1
  O  O8  1  0.02165116  0.50000000  0.50000000  1
  O  O9  1  0.53698538  -0.00000000  0.50000000  1
  O  O10  1  0.41345623  0.50000000  0.50000000  1
  O  O11  1  0.02073494  0.24113062  0.00000000  1
  O  O12  1  0.02073494  0.75886938  0.00000000  1
  O  O13  1  0.41086286  0.19692481  -0.00000000  1
  O  O14  1  0.41086286  0.80307519  0.00000000  1
loop_
_geom_bond_atom_site_label_1
_geom_bond_atom_site_label_2
_geom_bond_distance
_geom_bond_site_symmetry_2
Cs0 O10 2.636054 1_554
Cs0 O10 2.636054 1_555
Cs0 O2 2.820259 1_555
Cs0 O13 2.983206 1_555
Cs0 O14 2.983206 1_555
Li0 O12 2.007804 1_645
Li0 O11 2.007804 1_655
Li0 O7 2.105917 1_655
Li0 O7 2.105917 1_654
Li0 O1 2.613007 1_555
Mg0 O0 2.009839 1_555
Mg0 O2 2.059485 1_455
Mg0 O8 2.090199 1_555
Mg0 O8 2.090199 1_554
Mg0 O11 2.131852 1_555
Mg0 O12 2.131852 1_555
Mg1 O14 2.007057 1_545
Mg1 O13 2.007057 1_555
Mg1 O9 2.096740 1_555
Mg1 O9 2.096740 1_554
Mg1 O1 2.432149 1_555
Mg2 O7 1.978890 1_555
Mg2 O11 2.093710 1_556
Mg2 O11 2.093710 1_555
Mg2 O8 2.144532 1_555
Mg2 O5 2.182333 1_455
Mg2 O3 2.323867 1_555
Mg3 O7 1.978890 1_565
Mg3 O12 2.093710 1_556
Mg3 O12 2.093710 1_555
Mg3 O8 2.144532 1_555
Mg3 O6 2.182333 1_455
Mg3 O4 2.323867 1_555
Mg4 O3 2.110236 1_555
Mg4 O13 2.122021 1_555
Mg4 O13 2.122021 1_556
Mg4 O10 2.157729 1_555
Mg4 O9 2.307648 1_555
Mg5 O4 2.110236 1_555
Mg5 O14 2.122021 1_555
Mg5 O14 2.122021 1_556
Mg5 O10 2.157729 1_555
Mg5 O9 2.307648 1_565
Mg6 O7 1.900435 1_555
Mg6 O3 1.924782 1_555
Mg6 O4 1.924782 1_545
Mg7 O10 1.990534 1_555
Mg7 O0 2.100791 1_555
Mg7 O0 2.100791 1_556
Mg7 O8 2.201046 1_555
Mg7 O4 2.222818 1_555
Mg7 O3 2.222818 1_555
Mg8 O1 2.094938 1_556
Mg8 O1 2.094938 1_555
Mg8 O9 2.123082 1_555
Mg8 O5 2.191946 1_555
Mg8 O6 2.191946 1_545
Mg9 O5 2.071256 1_555
Mg9 O6 2.071256 1_555
Mg9 O8 2.074637 1_655
Mg9 O2 2.090105 1_555
Mg9 O2 2.090105 1_556
Mg10 O0 1.927807 1_555
Mg10 O13 2.015166 1_555
Mg10 O3 2.113548 1_554
Mg10 O3 2.113548 1_555
Mg10 O11 2.255613 1_555
Mg11 O0 1.927807 1_555
Mg11 O14 2.015166 1_555
Mg11 O4 2.113548 1_555
Mg11 O4 2.113548 1_554
Mg11 O12 2.255613 1_555
Mg12 O5 2.097600 1_555
Mg12 O5 2.097600 1_554
Mg12 O1 2.126800 1_555
Mg12 O2 2.134936 1_555
Mg12 O11 2.143356 1_655
Mg13 O6 2.097600 1_555
Mg13 O6 2.097600 1_554
Mg13 O1 2.126800 1_565
Mg13 O2 2.134936 1_555
Mg13 O12 2.143356 1_655
