# generated using pymatgen
data_Y4Fe34C3
_symmetry_space_group_name_H-M   'P 1'
_cell_length_a   6.47820357
_cell_length_b   6.44616987
_cell_length_c   12.91371728
_cell_angle_alpha   83.26842341
_cell_angle_beta   83.67295996
_cell_angle_gamma   83.77522116
_symmetry_Int_Tables_number   1
_chemical_formula_structural   Y4Fe34C3
_chemical_formula_sum   'Y4 Fe34 C3'
_cell_volume   529.79416602
_cell_formula_units_Z   1
loop_
 _symmetry_equiv_pos_site_id
 _symmetry_equiv_pos_as_xyz
  1  'x, y, z'
loop_
 _atom_site_type_symbol
 _atom_site_label
 _atom_site_symmetry_multiplicity
 _atom_site_fract_x
 _atom_site_fract_y
 _atom_site_fract_z
 _atom_site_occupancy
  Y  Y0  1  0.66318600  0.65296500  0.32702300  1
  Y  Y1  1  0.66058800  0.66025200  0.82524100  1
  Y  Y2  1  0.33681400  0.34703500  0.17297700  1
  Y  Y3  1  0.33941200  0.33974800  0.67475900  1
  Fe  Fe0  1  0.28487900  0.71534400  0.99963300  1
  Fe  Fe1  1  0.28522800  0.71604400  0.49981200  1
  Fe  Fe2  1  0.71456000  0.00101300  0.14216700  1
  Fe  Fe3  1  0.71318800  0.00117600  0.64402500  1
  Fe  Fe4  1  0.00124000  0.28613400  0.35706100  1
  Fe  Fe5  1  0.99831200  0.28793300  0.85604900  1
  Fe  Fe6  1  0.28544000  0.99898700  0.35783300  1
  Fe  Fe7  1  0.28681200  0.99882400  0.85597500  1
  Fe  Fe8  1  0.99876000  0.71386600  0.14293900  1
  Fe  Fe9  1  0.00168800  0.71206700  0.64395100  1
  Fe  Fe10  1  0.71477200  0.28395600  0.00018800  1
  Fe  Fe11  1  0.71512100  0.28465600  0.50036700  1
  Fe  Fe12  1  0.90286800  0.90374500  0.45193900  1
  Fe  Fe13  1  0.90407400  0.90417900  0.95101000  1
  Fe  Fe14  1  0.09713200  0.09625500  0.04806100  1
  Fe  Fe15  1  0.09592600  0.09582100  0.54899000  1
  Fe  Fe16  1  0.00000000  0.00000000  0.25000000  1
  Fe  Fe17  1  0.00000000  0.00000000  0.75000000  1
  Fe  Fe18  1  0.99919800  0.49995200  0.50041800  1
  Fe  Fe19  1  0.00080200  0.50004800  0.99958200  1
  Fe  Fe20  1  0.50047500  0.99813500  0.99904400  1
  Fe  Fe21  1  0.49952500  0.00186500  0.50095600  1
  Fe  Fe22  1  0.85429800  0.34500600  0.17264600  1
  Fe  Fe23  1  0.85136000  0.34439400  0.67293600  1
  Fe  Fe24  1  0.34105600  0.34400600  0.42716200  1
  Fe  Fe25  1  0.34266800  0.34208200  0.92506900  1
  Fe  Fe26  1  0.34160800  0.85258900  0.17143000  1
  Fe  Fe27  1  0.34400300  0.85205600  0.67287700  1
  Fe  Fe28  1  0.14570200  0.65499400  0.32735400  1
  Fe  Fe29  1  0.14864000  0.65560600  0.82706400  1
  Fe  Fe30  1  0.65894400  0.65599400  0.07283800  1
  Fe  Fe31  1  0.65733200  0.65791800  0.57493100  1
  Fe  Fe32  1  0.65839200  0.14741100  0.32857000  1
  Fe  Fe33  1  0.65599700  0.14794400  0.82712300  1
  C  C0  1  0.49921900  0.49949500  0.99946300  1
  C  C1  1  0.50078100  0.50050500  0.50053700  1
  C  C2  1  0.50000000  0.00000000  0.25000000  1
loop_
_geom_bond_atom_site_label_1
_geom_bond_atom_site_label_2
_geom_bond_distance
_geom_bond_site_symmetry_2
Fe0 Fe20 2.412535 1_555
Fe0 Fe19 2.422224 1_555
Fe0 Fe7 2.446653 1_555
Fe0 Fe8 2.470652 1_456
Fe0 Fe29 2.569412 1_555
Fe0 Fe14 2.728404 1_566
Fe0 Fe13 2.733636 1_455
Fe1 Fe21 2.426456 1_565
Fe1 Fe18 2.434720 1_455
Fe1 Fe9 2.466729 1_555
Fe1 Fe27 2.574458 1_555
Fe1 Fe28 2.580313 1_555
Fe1 Fe15 2.728043 1_565
Fe1 Fe12 2.737509 1_455
Fe2 Fe20 2.432779 1_544
Fe2 Fe8 2.465087 1_545
Fe2 Fe22 2.570968 1_555
Fe3 Fe9 2.492164 1_645
Fe3 Fe31 2.555531 1_545
Fe3 Fe33 2.622678 1_555
Fe3 Y1 3.033671 1_545
Fe3 Y3 3.103093 1_555
Fe4 Fe6 2.465087 1_545
Fe4 Y2 3.059152 1_555
Fe4 Y0 3.063865 1_455
Fe5 Fe7 2.492164 1_645
Fe5 Y3 3.051525 1_655
Fe5 Y1 3.087781 1_555
Fe7 Y3 3.033671 1_565
Fe7 Y1 3.103093 1_555
Fe8 Y0 3.059152 1_555
Fe8 Y2 3.063865 1_655
Fe9 Y1 3.051525 1_455
Fe9 Y3 3.087781 1_555
Fe10 Fe20 2.426456 1_544
Fe10 Fe19 2.434720 1_654
Fe10 Fe5 2.466729 1_554
Fe10 Fe33 2.574458 1_554
Fe10 Fe22 2.580313 1_555
Fe10 Fe13 2.728043 1_544
Fe10 Fe14 2.737509 1_655
Fe11 Fe21 2.412535 1_555
Fe11 Fe18 2.422224 1_555
Fe11 Fe3 2.446653 1_555
Fe11 Fe4 2.470652 1_655
Fe11 Fe23 2.569412 1_555
Fe11 Fe12 2.728404 1_545
Fe11 Fe15 2.733636 1_655
Fe12 Fe15 2.390190 1_665
Fe12 Fe18 2.628380 1_555
Fe12 Fe16 2.631564 1_665
Fe12 Fe32 2.635070 1_565
Fe12 Fe31 2.638861 1_555
Fe12 Fe21 2.645580 1_565
Fe12 Fe28 2.671005 1_655
Fe12 Fe4 2.728330 1_665
Fe12 Fe6 2.736305 1_655
Fe12 Fe9 2.746806 1_655
Fe12 Fe3 2.753821 1_565
Fe12 Y0 3.055180 1_555
Fe13 Fe14 2.390190 1_666
Fe13 Fe17 2.618706 1_665
Fe13 Fe19 2.631003 1_655
Fe13 Fe30 2.639431 1_556
Fe13 Fe20 2.641006 1_555
Fe13 Fe33 2.653504 1_565
Fe13 Fe29 2.670467 1_655
Fe13 Fe5 2.728963 1_565
Fe13 Fe8 2.735577 1_556
Fe13 Fe7 2.740055 1_655
Fe13 Fe2 2.741844 1_566
Fe13 Y1 3.049512 1_555
Fe14 Fe19 2.628380 1_554
Fe14 Fe16 2.631564 1_555
Fe14 Fe26 2.635070 1_545
Fe14 Fe25 2.638861 1_554
Fe14 Fe20 2.645580 1_544
Fe14 Fe22 2.671005 1_455
Fe14 Fe8 2.728330 1_445
Fe14 Fe2 2.736305 1_455
Fe14 Fe5 2.746806 1_454
Fe14 Fe7 2.753821 1_544
Fe14 Y2 3.055180 1_555
Fe15 Fe17 2.618706 1_555
Fe15 Fe18 2.631003 1_455
Fe15 Fe24 2.639431 1_555
Fe15 Fe21 2.641006 1_555
Fe15 Fe27 2.653504 1_545
Fe15 Fe23 2.670467 1_455
Fe15 Fe9 2.728963 1_545
Fe15 Fe4 2.735577 1_555
Fe15 Fe3 2.740055 1_455
Fe15 Fe6 2.741844 1_545
Fe15 Y3 3.049512 1_555
Fe16 Fe8 2.432505 1_445
Fe16 Fe4 2.432505 1_555
Fe16 Fe2 2.433366 1_455
Fe16 Fe6 2.433366 1_545
Fe16 Fe22 2.463043 1_455
Fe16 Fe28 2.463043 1_545
Fe16 Fe32 2.470815 1_455
Fe16 Fe26 2.470815 1_545
Fe16 Y0 3.288335 1_445
Fe16 Y2 3.288335 1_555
Fe17 Fe3 2.424903 1_455
Fe17 Fe7 2.424903 1_545
Fe17 Fe5 2.430801 1_455
Fe17 Fe9 2.430801 1_545
Fe17 Fe29 2.464911 1_545
Fe17 Fe23 2.464911 1_455
Fe17 Fe27 2.477963 1_545
Fe17 Fe33 2.477963 1_455
Fe17 Y3 3.263383 1_555
Fe17 Y1 3.263383 1_445
Fe18 Fe9 2.431256 1_655
Fe18 Fe4 2.432273 1_655
Fe18 Fe24 2.467474 1_655
Fe18 Fe23 2.469883 1_555
Fe18 Fe28 2.471627 1_655
Fe18 Fe31 2.477609 1_555
Fe18 Y0 3.288762 1_555
Fe18 Y3 3.323816 1_655
Fe19 Fe5 2.431256 1_455
Fe19 Fe8 2.432273 1_456
Fe19 Fe30 2.467474 1_456
Fe19 Fe29 2.469883 1_555
Fe19 Fe22 2.471627 1_456
Fe19 Fe25 2.477609 1_555
Fe19 Y2 3.288762 1_556
Fe19 Y1 3.323816 1_455
Fe20 Fe7 2.426878 1_555
Fe20 Fe30 2.461330 1_556
Fe20 Fe33 2.468199 1_565
Fe20 Fe25 2.469936 1_565
Fe20 Fe26 2.471829 1_556
Fe20 Y1 3.316672 1_555
Fe20 Y2 3.371909 1_566
Fe21 Fe3 2.426878 1_555
Fe21 Fe6 2.432779 1_545
Fe21 Fe24 2.461330 1_555
Fe21 Fe27 2.468199 1_545
Fe21 Fe31 2.469936 1_545
Fe21 Fe32 2.471829 1_555
Fe21 Y3 3.316672 1_555
Fe21 Y0 3.371909 1_545
Fe22 Fe32 2.544312 1_555
Fe22 Fe30 2.546604 1_555
Fe22 Fe8 2.620343 1_555
Fe22 Fe4 2.632693 1_655
Fe22 Y0 3.049396 1_555
Fe22 Y2 3.127758 1_655
Fe22 Y2 3.350507 1_555
Fe23 Fe33 2.524083 1_555
Fe23 Fe31 2.542899 1_555
Fe23 Fe3 2.555830 1_555
Fe23 Fe5 2.617186 1_555
Fe23 Fe9 2.630210 1_655
Fe23 Y1 3.065736 1_555
Fe23 Y3 3.161251 1_655
Fe23 Y3 3.317350 1_555
Fe24 Fe28 2.546604 1_555
Fe24 Fe4 2.549769 1_555
Fe25 Fe29 2.542899 1_555
Fe25 Fe7 2.555531 1_545
Fe25 Fe33 2.557427 1_555
Fe25 Fe5 2.563749 1_455
Fe26 Fe28 2.544312 1_555
Fe26 Fe8 2.560466 1_455
Fe27 Fe29 2.524083 1_555
Fe27 Fe31 2.557427 1_555
Fe27 Fe9 2.562635 1_555
Fe27 Fe7 2.622678 1_555
Fe27 Fe3 2.645946 1_565
Fe27 Y1 3.061940 1_555
Fe27 Y3 3.143579 1_565
Fe27 Y3 3.303000 1_555
Fe28 Fe6 2.570968 1_555
Fe28 Fe4 2.620343 1_555
Fe28 Fe8 2.632693 1_455
Fe28 Y2 3.049396 1_555
Fe28 Y0 3.127758 1_455
Fe28 Y0 3.350507 1_555
Fe29 Fe7 2.555830 1_555
Fe29 Fe9 2.617186 1_555
Fe29 Fe5 2.630210 1_455
Fe29 Y3 3.065736 1_555
Fe29 Y1 3.161251 1_455
Fe29 Y1 3.317350 1_555
Fe30 Fe8 2.549769 1_555
Fe31 Fe9 2.563749 1_655
Fe32 Fe4 2.560466 1_655
Fe33 Fe5 2.562635 1_555
Fe33 Fe7 2.645946 1_545
Fe33 Y3 3.061940 1_555
Fe33 Y1 3.143579 1_545
Fe33 Y1 3.303000 1_555
C0 Fe0 1.856100 1_555
C0 Fe10 1.859983 1_556
C0 Fe25 1.909863 1_555
C0 Fe30 1.911227 1_556
C0 Y2 2.506376 1_556
C0 Y1 2.529520 1_555
C1 Fe11 1.856100 1_555
C1 Fe1 1.859983 1_555
C1 Fe31 1.909863 1_555
C1 Fe24 1.911227 1_555
C1 Y0 2.506376 1_555
C1 Y3 2.529520 1_555
C2 Fe2 1.855907 1_555
C2 Fe6 1.855907 1_545
C2 Fe32 1.911083 1_555
C2 Fe26 1.911083 1_545
C2 Y2 2.511683 1_555
C2 Y0 2.511683 1_545
