# generated using pymatgen
data_Mg6CdBi
_symmetry_space_group_name_H-M   'P 1'
_cell_length_a   5.41801500
_cell_length_b   6.28029600
_cell_length_c   11.19587200
_cell_angle_alpha   90.00000000
_cell_angle_beta   90.00000000
_cell_angle_gamma   90.00000000
_symmetry_Int_Tables_number   1
_chemical_formula_structural   Mg6CdBi
_chemical_formula_sum   'Mg12 Cd2 Bi2'
_cell_volume   380.95900247
_cell_formula_units_Z   2
loop_
 _symmetry_equiv_pos_site_id
 _symmetry_equiv_pos_as_xyz
  1  'x, y, z'
loop_
 _atom_site_type_symbol
 _atom_site_label
 _atom_site_symmetry_multiplicity
 _atom_site_fract_x
 _atom_site_fract_y
 _atom_site_fract_z
 _atom_site_occupancy
  Mg  Mg0  1  0.00000000  0.24743300  0.08377500  1
  Mg  Mg1  1  0.00000000  0.75256700  0.08377500  1
  Mg  Mg2  1  0.00000000  0.00000000  0.33184800  1
  Mg  Mg3  1  0.50000000  0.74892900  0.41277100  1
  Mg  Mg4  1  0.50000000  0.25107100  0.41277100  1
  Mg  Mg5  1  0.50000000  0.00000000  0.16765800  1
  Mg  Mg6  1  0.00000000  0.74743300  0.58377500  1
  Mg  Mg7  1  0.00000000  0.25256700  0.58377500  1
  Mg  Mg8  1  0.00000000  0.50000000  0.83184800  1
  Mg  Mg9  1  0.50000000  0.24892900  0.91277100  1
  Mg  Mg10  1  0.50000000  0.75107100  0.91277100  1
  Mg  Mg11  1  0.50000000  0.50000000  0.66765800  1
  Cd  Cd0  1  0.00000000  0.50000000  0.34817100  1
  Cd  Cd1  1  0.00000000  0.00000000  0.84817100  1
  Bi  Bi0  1  0.50000000  0.50000000  0.15923100  1
  Bi  Bi1  1  0.50000000  0.00000000  0.65923100  1
loop_
_geom_bond_atom_site_label_1
_geom_bond_atom_site_label_2
_geom_bond_distance
_geom_bond_site_symmetry_2
Mg0 Mg1 3.107905 1_545
Mg0 Mg1 3.172391 1_555
Mg0 Mg2 3.182559 1_555
Mg0 Mg8 3.235966 1_554
Mg0 Mg5 3.261208 1_455
Mg0 Mg5 3.261208 1_555
Mg0 Mg9 3.317268 1_554
Mg0 Mg9 3.317268 1_454
Mg1 Mg2 3.182559 1_565
Mg1 Mg8 3.235966 1_554
Mg1 Mg5 3.261208 1_565
Mg1 Mg5 3.261208 1_465
Mg1 Mg10 3.317268 1_554
Mg1 Mg10 3.317268 1_454
Mg2 Mg6 3.235966 1_545
Mg2 Mg7 3.235966 1_555
Mg2 Mg4 3.262800 1_555
Mg2 Mg3 3.262800 1_545
Mg2 Mg4 3.262800 1_455
Mg2 Mg3 3.262800 1_445
Mg2 Mg5 3.273818 1_455
Mg2 Mg5 3.273818 1_555
Mg3 Mg4 3.126696 1_555
Mg3 Mg4 3.153600 1_565
Mg3 Mg5 3.165000 1_565
Mg3 Mg6 3.317268 1_555
Mg3 Mg6 3.317268 1_655
Mg4 Mg5 3.165000 1_555
Mg4 Mg7 3.317268 1_555
Mg4 Mg7 3.317268 1_655
Mg5 Mg9 3.253853 1_554
Mg6 Mg7 3.107905 1_555
Mg6 Mg7 3.172391 1_565
Mg6 Mg8 3.182559 1_555
Mg7 Mg8 3.182559 1_555
Mg8 Mg9 3.262800 1_455
Mg8 Mg9 3.262800 1_555
Mg10 Mg9 3.126696 1_565
Mg10 Mg9 3.153600 1_555
Mg10 Mg11 3.165000 1_555
Mg10 Mg5 3.253853 1_566
Mg10 Mg8 3.262800 1_555
Mg10 Mg8 3.262800 1_655
Mg11 Mg9 3.165000 1_555
Mg11 Mg3 3.253853 1_555
Mg11 Mg4 3.253853 1_555
Mg11 Mg6 3.261208 1_655
Mg11 Mg7 3.261208 1_655
Mg11 Mg7 3.261208 1_555
Mg11 Mg6 3.261208 1_555
Mg11 Mg8 3.273818 1_555
Mg11 Mg8 3.273818 1_655
Cd0 Mg6 3.061489 1_555
Cd0 Mg7 3.061489 1_555
Cd0 Mg2 3.145461 1_555
Cd0 Mg2 3.145461 1_565
Cd0 Mg4 3.210276 1_455
Cd0 Mg3 3.210276 1_555
Cd0 Mg4 3.210276 1_555
Cd0 Mg3 3.210276 1_455
Cd0 Mg1 3.358343 1_555
Cd0 Mg0 3.358343 1_555
Cd1 Mg1 3.061489 1_546
Cd1 Mg0 3.061489 1_556
Cd1 Mg8 3.145461 1_555
Cd1 Mg8 3.145461 1_545
Cd1 Mg9 3.210276 1_455
Cd1 Mg9 3.210276 1_555
Cd1 Mg10 3.210276 1_445
Cd1 Mg10 3.210276 1_545
Cd1 Mg6 3.358343 1_545
Cd1 Mg7 3.358343 1_555
Bi0 Mg5 3.141565 1_565
Bi0 Mg5 3.141565 1_555
Bi0 Mg10 3.178085 1_554
Bi0 Mg9 3.178085 1_554
Bi0 Mg3 3.240635 1_555
Bi0 Mg4 3.240635 1_555
Bi0 Mg0 3.250910 1_555
Bi0 Mg0 3.250910 1_655
Bi0 Mg1 3.250910 1_655
Bi0 Mg1 3.250910 1_555
Bi0 Cd0 3.437065 1_655
Bi0 Cd0 3.437065 1_555
Bi1 Mg11 3.141565 1_555
Bi1 Mg11 3.141565 1_545
Bi1 Mg4 3.178085 1_555
Bi1 Mg3 3.178085 1_545
Bi1 Mg9 3.240635 1_555
Bi1 Mg10 3.240635 1_545
Bi1 Mg6 3.250910 1_545
Bi1 Mg7 3.250910 1_555
Bi1 Mg7 3.250910 1_655
Bi1 Mg6 3.250910 1_645
Bi1 Cd1 3.437065 1_555
Bi1 Cd1 3.437065 1_655
