# generated using pymatgen
data_NaLaMg14O16
_symmetry_space_group_name_H-M   'P 1'
_cell_length_a   8.70375084
_cell_length_b   8.83209706
_cell_length_c   4.40016688
_cell_angle_alpha   90.00000000
_cell_angle_beta   90.00000000
_cell_angle_gamma   90.00000000
_symmetry_Int_Tables_number   1
_chemical_formula_structural   NaLaMg14O16
_chemical_formula_sum   'Na1 La1 Mg14 O16'
_cell_volume   338.25126616
_cell_formula_units_Z   1
loop_
 _symmetry_equiv_pos_site_id
 _symmetry_equiv_pos_as_xyz
  1  'x, y, z'
loop_
 _atom_site_type_symbol
 _atom_site_label
 _atom_site_symmetry_multiplicity
 _atom_site_fract_x
 _atom_site_fract_y
 _atom_site_fract_z
 _atom_site_occupancy
  Na  Na0  1  0.00000000  0.50000000  -0.00000000  1
  La  La0  1  0.00000000  0.00000000  -0.00000000  1
  Mg  Mg0  1  0.50000000  0.00000000  -0.00000000  1
  Mg  Mg1  1  0.50000000  0.50000000  -0.00000000  1
  Mg  Mg2  1  0.00000000  0.27267378  0.50000000  1
  Mg  Mg3  1  0.00000000  0.72732622  0.50000000  1
  Mg  Mg4  1  0.50000000  0.25449185  0.50000000  1
  Mg  Mg5  1  0.50000000  0.74550815  0.50000000  1
  Mg  Mg6  1  0.26673576  0.00000000  0.50000000  1
  Mg  Mg7  1  0.24913140  0.50000000  0.50000000  1
  Mg  Mg8  1  0.73326424  0.00000000  0.50000000  1
  Mg  Mg9  1  0.75086860  0.50000000  0.50000000  1
  Mg  Mg10  1  0.25680569  0.26328304  0.00000000  1
  Mg  Mg11  1  0.25680569  0.73671696  0.00000000  1
  Mg  Mg12  1  0.74319431  0.26328304  -0.00000000  1
  Mg  Mg13  1  0.74319431  0.73671696  -0.00000000  1
  O  O0  1  0.27102173  0.00000000  -0.00000000  1
  O  O1  1  0.26765008  0.50000000  -0.00000000  1
  O  O2  1  0.72897827  0.00000000  0.00000000  1
  O  O3  1  0.73234992  0.50000000  0.00000000  1
  O  O4  1  0.24955951  0.24846891  0.50000000  1
  O  O5  1  0.24955951  0.75153109  0.50000000  1
  O  O6  1  0.75044049  0.24846891  0.50000000  1
  O  O7  1  0.75044049  0.75153109  0.50000000  1
  O  O8  1  0.00000000  0.00000000  0.50000000  1
  O  O9  1  0.00000000  0.50000000  0.50000000  1
  O  O10  1  0.50000000  0.00000000  0.50000000  1
  O  O11  1  0.50000000  0.50000000  0.50000000  1
  O  O12  1  0.00000000  0.25836205  -0.00000000  1
  O  O13  1  0.00000000  0.74163795  -0.00000000  1
  O  O14  1  0.50000000  0.25031505  -0.00000000  1
  O  O15  1  0.50000000  0.74968495  -0.00000000  1
loop_
_geom_bond_atom_site_label_1
_geom_bond_atom_site_label_2
_geom_bond_distance
_geom_bond_site_symmetry_2
Na0 O12 2.134170 1_555
Na0 O13 2.134170 1_555
Na0 O9 2.200083 1_554
Na0 O9 2.200083 1_555
Na0 O3 2.329560 1_455
Na0 O1 2.329560 1_555
La0 O8 2.200083 1_555
La0 O8 2.200083 1_554
La0 O13 2.281879 1_545
La0 O12 2.281879 1_555
La0 O2 2.358906 1_455
La0 O0 2.358906 1_555
Mg0 O0 1.992970 1_555
Mg0 O2 1.992970 1_555
Mg0 O10 2.200083 1_554
Mg0 O10 2.200083 1_555
Mg0 O15 2.210807 1_545
Mg0 O14 2.210807 1_555
Mg1 O1 2.022316 1_555
Mg1 O3 2.022316 1_555
Mg1 O11 2.200083 1_554
Mg1 O11 2.200083 1_555
Mg1 O15 2.205242 1_555
Mg1 O14 2.205242 1_555
Mg2 O9 2.007767 1_555
Mg2 O6 2.182599 1_455
Mg2 O4 2.182599 1_555
Mg2 O12 2.203712 1_556
Mg2 O12 2.203712 1_555
Mg2 O8 2.408281 1_555
Mg3 O9 2.007767 1_555
Mg3 O7 2.182599 1_455
Mg3 O5 2.182599 1_555
Mg3 O13 2.203712 1_555
Mg3 O13 2.203712 1_556
Mg3 O8 2.408281 1_565
Mg4 O11 2.168352 1_555
Mg4 O6 2.180421 1_555
Mg4 O4 2.180421 1_555
Mg4 O14 2.200393 1_556
Mg4 O14 2.200393 1_555
Mg4 O10 2.247697 1_555
Mg5 O11 2.168352 1_555
Mg5 O7 2.180421 1_555
Mg5 O5 2.180421 1_555
Mg5 O15 2.200393 1_556
Mg5 O15 2.200393 1_555
Mg5 O10 2.247697 1_565
Mg6 O10 2.030274 1_555
Mg6 O4 2.199588 1_555
Mg6 O5 2.199588 1_545
Mg6 O0 2.200400 1_555
Mg6 O0 2.200400 1_556
Mg6 O8 2.321602 1_555
Mg7 O9 2.168378 1_555
Mg7 O11 2.183498 1_555
Mg7 O1 2.205980 1_555
Mg7 O1 2.205980 1_556
Mg7 O5 2.221550 1_555
Mg7 O4 2.221550 1_555
Mg8 O10 2.030274 1_555
Mg8 O6 2.199588 1_555
Mg8 O7 2.199588 1_545
Mg8 O2 2.200400 1_556
Mg8 O2 2.200400 1_555
Mg8 O8 2.321602 1_655
Mg9 O9 2.168378 1_655
Mg9 O11 2.183498 1_555
Mg9 O3 2.205980 1_556
Mg9 O3 2.205980 1_555
Mg9 O7 2.221550 1_555
Mg9 O6 2.221550 1_555
Mg10 O1 2.092837 1_555
Mg10 O14 2.119799 1_555
Mg10 O4 2.204873 1_554
Mg10 O4 2.204873 1_555
Mg10 O12 2.235595 1_555
Mg10 O0 2.328631 1_555
Mg11 O1 2.092837 1_555
Mg11 O15 2.119799 1_555
Mg11 O5 2.204873 1_554
Mg11 O5 2.204873 1_555
Mg11 O13 2.235595 1_555
Mg11 O0 2.328631 1_565
Mg12 O3 2.092837 1_555
Mg12 O14 2.119799 1_555
Mg12 O6 2.204873 1_554
Mg12 O6 2.204873 1_555
Mg12 O12 2.235595 1_655
Mg12 O2 2.328631 1_555
Mg13 O3 2.092837 1_555
Mg13 O15 2.119799 1_555
Mg13 O7 2.204873 1_554
Mg13 O7 2.204873 1_555
Mg13 O13 2.235595 1_655
Mg13 O2 2.328631 1_565
