# generated using pymatgen
data_Zn2IN
_symmetry_space_group_name_H-M   'P 1'
_cell_length_a   6.26470171
_cell_length_b   6.38215515
_cell_length_c   7.94968406
_cell_angle_alpha   90.00000000
_cell_angle_beta   90.00000000
_cell_angle_gamma   90.00000000
_symmetry_Int_Tables_number   1
_chemical_formula_structural   Zn2IN
_chemical_formula_sum   'Zn8 I4 N4'
_cell_volume   317.84663933
_cell_formula_units_Z   4
loop_
 _symmetry_equiv_pos_site_id
 _symmetry_equiv_pos_as_xyz
  1  'x, y, z'
loop_
 _atom_site_type_symbol
 _atom_site_label
 _atom_site_symmetry_multiplicity
 _atom_site_fract_x
 _atom_site_fract_y
 _atom_site_fract_z
 _atom_site_occupancy
  Zn  Zn0  1  0.25000000  0.65191516  0.69738724  1
  Zn  Zn1  1  0.25000000  0.15191516  0.80261276  1
  Zn  Zn2  1  0.75000000  0.34808484  0.30261276  1
  Zn  Zn3  1  0.75000000  0.84808484  0.19738724  1
  Zn  Zn4  1  0.00000000  -0.00000000  0.50000000  1
  Zn  Zn5  1  0.50000000  0.50000000  0.00000000  1
  Zn  Zn6  1  0.50000000  -0.00000000  0.50000000  1
  Zn  Zn7  1  -0.00000000  0.50000000  0.00000000  1
  I  I0  1  0.25000000  0.41687686  0.38134545  1
  I  I1  1  0.25000000  0.91687686  0.11865455  1
  I  I2  1  0.75000000  0.58312314  0.61865455  1
  I  I3  1  0.75000000  0.08312314  0.88134545  1
  N  N0  1  0.25000000  0.44140267  0.87327837  1
  N  N1  1  0.25000000  0.94140267  0.62672163  1
  N  N2  1  0.75000000  0.55859733  0.12672163  1
  N  N3  1  0.75000000  0.05859733  0.37327837  1
loop_
_geom_bond_atom_site_label_1
_geom_bond_atom_site_label_2
_geom_bond_distance
_geom_bond_site_symmetry_2
I0 Zn0 2.926170 1_555
I0 Zn2 3.224303 1_555
I0 Zn2 3.224303 1_455
I0 Zn4 3.228204 1_555
I0 Zn6 3.228204 1_555
I1 Zn1 2.926170 1_564
I1 Zn3 3.224303 1_455
I1 Zn3 3.224303 1_555
I1 Zn5 3.228204 1_555
I1 Zn7 3.228204 1_555
I2 Zn2 2.926170 1_555
I2 Zn0 3.224303 1_655
I2 Zn0 3.224303 1_555
I2 Zn6 3.228204 1_565
I2 Zn4 3.228204 1_665
I3 Zn3 2.926170 1_546
I3 Zn1 3.224303 1_555
I3 Zn1 3.224303 1_655
I3 Zn5 3.228204 1_556
I3 Zn7 3.228204 1_656
N0 Zn7 1.899372 1_556
N0 Zn5 1.899372 1_556
N0 Zn1 1.931073 1_555
N0 Zn0 1.939134 1_555
N1 Zn4 1.899372 1_565
N1 Zn6 1.899372 1_565
N1 Zn0 1.931073 1_555
N1 Zn1 1.939134 1_565
N2 Zn5 1.899372 1_555
N2 Zn7 1.899372 1_655
N2 Zn3 1.931073 1_555
N2 Zn2 1.939134 1_555
N3 Zn4 1.899372 1_655
N3 Zn6 1.899372 1_555
N3 Zn2 1.931073 1_555
N3 Zn3 1.939134 1_545
