# generated using pymatgen
data_Sr2VMoO6
_symmetry_space_group_name_H-M   'P 1'
_cell_length_a   5.64080377
_cell_length_b   5.64067225
_cell_length_c   8.04125126
_cell_angle_alpha   90.01976968
_cell_angle_beta   90.01995163
_cell_angle_gamma   90.23713383
_symmetry_Int_Tables_number   1
_chemical_formula_structural   Sr2VMoO6
_chemical_formula_sum   'Sr4 V2 Mo2 O12'
_cell_volume   255.85370945
_cell_formula_units_Z   2
loop_
 _symmetry_equiv_pos_site_id
 _symmetry_equiv_pos_as_xyz
  1  'x, y, z'
loop_
 _atom_site_type_symbol
 _atom_site_label
 _atom_site_symmetry_multiplicity
 _atom_site_fract_x
 _atom_site_fract_y
 _atom_site_fract_z
 _atom_site_occupancy
  Sr  Sr0  1  0.49990400  0.99986200  0.25011500  1
  Sr  Sr1  1  0.50009600  0.00013800  0.74988500  1
  Sr  Sr2  1  0.99989500  0.49988100  0.25010800  1
  Sr  Sr3  1  0.00010600  0.50012000  0.74989200  1
  V  V0  1  0.99999900  0.99999800  0.50000200  1
  V  V1  1  0.00000000  0.00000000  0.00000100  1
  Mo  Mo0  1  0.50000000  0.50000000  0.99999900  1
  Mo  Mo1  1  0.50000000  0.50000100  0.50000000  1
  O  O0  1  0.99992600  0.99998500  0.24999900  1
  O  O1  1  0.00007300  0.00001600  0.75000100  1
  O  O2  1  0.49986800  0.49985100  0.24999700  1
  O  O3  1  0.50013200  0.50014800  0.75000200  1
  O  O4  1  0.23713800  0.23712200  0.00032300  1
  O  O5  1  0.23721100  0.23725000  0.50010200  1
  O  O6  1  0.76286200  0.76287800  0.99967600  1
  O  O7  1  0.76278900  0.76275000  0.49989700  1
  O  O8  1  0.24984800  0.75015800  0.99999300  1
  O  O9  1  0.24989000  0.75006900  0.49999600  1
  O  O10  1  0.75015200  0.24984200  0.00000700  1
  O  O11  1  0.75011000  0.24993000  0.50000500  1
loop_
_geom_bond_atom_site_label_1
_geom_bond_atom_site_label_2
_geom_bond_distance
_geom_bond_site_symmetry_2
Mo0 O8 1.999664 1_555
Mo0 O10 1.999664 1_556
Mo0 O3 2.010290 1_555
Mo0 O2 2.010298 1_556
Mo0 O6 2.092628 1_555
Mo0 O4 2.092628 1_556
Mo1 O9 1.999136 1_555
Mo1 O11 1.999148 1_555
Mo1 O3 2.010329 1_555
Mo1 O2 2.010337 1_555
Mo1 O7 2.091821 1_555
Mo1 O5 2.091829 1_555
O0 V1 2.010297 1_665
O0 V0 2.010337 1_555
O0 Sr2 2.819750 1_565
O0 Sr0 2.820281 1_655
O0 Sr0 2.820524 1_555
O0 Sr2 2.820922 1_555
O1 V0 2.010305 1_445
O1 V1 2.010313 1_556
O1 Sr3 2.819750 1_545
O1 Sr1 2.820275 1_455
O1 Sr1 2.820529 1_555
O1 Sr3 2.820922 1_555
O2 Sr2 2.820251 1_455
O2 Sr0 2.820275 1_545
O2 Sr0 2.820397 1_555
O2 Sr2 2.820553 1_555
O3 Sr3 2.820256 1_655
O3 Sr1 2.820281 1_565
O3 Sr1 2.820392 1_555
O3 Sr3 2.820548 1_555
O4 V1 1.887717 1_555
O4 Sr2 2.835184 1_455
O4 Sr0 2.835287 1_545
O4 Sr1 2.838878 1_554
O4 Sr3 2.839074 1_554
O5 V0 1.888529 1_445
O5 Sr3 2.835171 1_555
O5 Sr1 2.835192 1_555
O5 Sr2 2.836255 1_455
O5 Sr0 2.836601 1_545
O6 V1 1.887717 1_666
O6 Sr3 2.835178 1_655
O6 Sr1 2.835281 1_565
O6 Sr0 2.838883 1_556
O6 Sr2 2.839080 1_556
O7 V0 1.888505 1_555
O7 Sr2 2.835165 1_555
O7 Sr0 2.835186 1_555
O7 Sr3 2.836261 1_655
O7 Sr1 2.836607 1_565
O8 V1 1.997186 1_566
O8 Sr3 2.828072 1_555
O8 Sr0 2.828136 1_556
O8 Sr1 2.830756 1_565
O8 Sr2 2.830801 1_456
O9 V0 1.997705 1_455
O9 Sr2 2.827983 1_455
O9 Sr3 2.828157 1_555
O9 Sr1 2.828246 1_565
O9 Sr0 2.828279 1_555
O10 V1 1.997186 1_655
O10 Sr2 2.828077 1_555
O10 Sr1 2.828136 1_554
O10 Sr0 2.830756 1_545
O10 Sr3 2.830807 1_654
O11 V0 1.997709 1_545
O11 Sr3 2.827986 1_655
O11 Sr2 2.828171 1_555
O11 Sr0 2.828249 1_545
O11 Sr1 2.828270 1_555
