# generated using pymatgen
data_Er
_symmetry_space_group_name_H-M   'P 1'
_cell_length_a   6.85177965
_cell_length_b   6.85178196
_cell_length_c   6.85177904
_cell_angle_alpha   109.47122457
_cell_angle_beta   109.47123137
_cell_angle_gamma   109.47122051
_symmetry_Int_Tables_number   1
_chemical_formula_structural   Er
_chemical_formula_sum   Er8
_cell_volume   247.62147273
_cell_formula_units_Z   8
loop_
 _symmetry_equiv_pos_site_id
 _symmetry_equiv_pos_as_xyz
  1  'x, y, z'
loop_
 _atom_site_type_symbol
 _atom_site_label
 _atom_site_symmetry_multiplicity
 _atom_site_fract_x
 _atom_site_fract_y
 _atom_site_fract_z
 _atom_site_occupancy
  Er  Er0_0  1  0.00000000  0.00000000  0.00000000  1
  Er  Er0_1  1  0.00000000  0.00000000  0.50000000  1
  Er  Er0_2  1  0.00000000  0.50000000  0.00000000  1
  Er  Er0_3  1  0.00000000  0.50000000  0.50000000  1
  Er  Er0_4  1  0.50000000  0.00000000  0.00000000  1
  Er  Er0_5  1  0.50000000  0.00000000  0.50000000  1
  Er  Er0_6  1  0.50000000  0.50000000  0.00000000  1
  Er  Er0_7  1  0.50000000  0.50000000  0.50000000  1
loop_
_geom_bond_atom_site_label_1
_geom_bond_atom_site_label_2
_geom_bond_distance
_geom_bond_site_symmetry_2
Er0_0 Er0_7 3.425889 1_444
Er0_0 Er0_7 3.425889 1_555
Er0_0 Er0_1 3.425890 1_554
Er0_0 Er0_1 3.425890 1_555
Er0_0 Er0_4 3.425890 1_555
Er0_0 Er0_4 3.425890 1_455
Er0_0 Er0_2 3.425891 1_545
Er0_0 Er0_2 3.425891 1_555
Er0_1 Er0_6 3.425889 1_556
Er0_1 Er0_6 3.425889 1_445
Er0_1 Er0_5 3.425890 1_555
Er0_1 Er0_5 3.425890 1_455
Er0_1 Er0_3 3.425891 1_555
Er0_1 Er0_3 3.425891 1_545
Er0_2 Er0_5 3.425889 1_565
Er0_2 Er0_5 3.425889 1_454
Er0_2 Er0_3 3.425890 1_555
Er0_2 Er0_3 3.425890 1_554
Er0_2 Er0_6 3.425890 1_555
Er0_2 Er0_6 3.425890 1_455
Er0_3 Er0_4 3.425889 1_566
Er0_3 Er0_4 3.425889 1_455
Er0_3 Er0_7 3.425890 1_555
Er0_3 Er0_7 3.425890 1_455
Er0_4 Er0_5 3.425890 1_555
Er0_4 Er0_5 3.425890 1_554
Er0_4 Er0_6 3.425891 1_555
Er0_4 Er0_6 3.425891 1_545
Er0_5 Er0_7 3.425891 1_555
Er0_5 Er0_7 3.425891 1_545
Er0_6 Er0_7 3.425890 1_554
Er0_6 Er0_7 3.425890 1_555
