# generated using pymatgen
data_Be13Mo
_symmetry_space_group_name_H-M   'P 1'
_cell_length_a   9.71233084
_cell_length_b   9.71233084
_cell_length_c   9.71233084
_cell_angle_alpha   60.00000000
_cell_angle_beta   60.00000000
_cell_angle_gamma   60.00000000
_symmetry_Int_Tables_number   1
_chemical_formula_structural   Be13Mo
_chemical_formula_sum   'Be52 Mo4'
_cell_volume   647.82157226
_cell_formula_units_Z   4
loop_
 _symmetry_equiv_pos_site_id
 _symmetry_equiv_pos_as_xyz
  1  'x, y, z'
loop_
 _atom_site_type_symbol
 _atom_site_label
 _atom_site_symmetry_multiplicity
 _atom_site_fract_x
 _atom_site_fract_y
 _atom_site_fract_z
 _atom_site_occupancy
  Be  Be0  1  0.96986900  0.32245700  0.73780500  1
  Be  Be1  1  0.32245700  0.96986900  0.96986900  1
  Be  Be2  1  0.73780500  0.96986900  0.96986900  1
  Be  Be3  1  0.73780500  0.96986900  0.32245700  1
  Be  Be4  1  0.28013100  0.92754300  0.28013100  1
  Be  Be5  1  0.28013100  0.92754300  0.51219500  1
  Be  Be6  1  0.96986900  0.73780500  0.32245700  1
  Be  Be7  1  0.96986900  0.32245700  0.96986900  1
  Be  Be8  1  0.92754300  0.28013100  0.51219500  1
  Be  Be9  1  0.92754300  0.28013100  0.28013100  1
  Be  Be10  1  0.96986900  0.73780500  0.96986900  1
  Be  Be11  1  0.51219500  0.28013100  0.92754300  1
  Be  Be12  1  0.51219500  0.28013100  0.28013100  1
  Be  Be13  1  0.32245700  0.96986900  0.73780500  1
  Be  Be14  1  0.28013100  0.51219500  0.28013100  1
  Be  Be15  1  0.28013100  0.51219500  0.92754300  1
  Be  Be16  1  0.32245700  0.73780500  0.96986900  1
  Be  Be17  1  0.96986900  0.96986900  0.73780500  1
  Be  Be18  1  0.73780500  0.32245700  0.96986900  1
  Be  Be19  1  0.96986900  0.96986900  0.32245700  1
  Be  Be20  1  0.28013100  0.28013100  0.92754300  1
  Be  Be21  1  0.51219500  0.92754300  0.28013100  1
  Be  Be22  1  0.28013100  0.28013100  0.51219500  1
  Be  Be23  1  0.92754300  0.51219500  0.28013100  1
  Be  Be24  1  0.50000000  0.50000000  0.50000000  1
  Be  Be25  1  0.75000000  0.75000000  0.75000000  1
  Be  Be26  1  0.00000000  0.00000000  0.00000000  1
  Be  Be27  1  0.25000000  0.25000000  0.25000000  1
  Be  Be28  1  0.72483200  0.50924800  0.50924800  1
  Be  Be29  1  0.50924800  0.72483200  0.25667200  1
  Be  Be30  1  0.50924800  0.25667200  0.72483200  1
  Be  Be31  1  0.50924800  0.72483200  0.50924800  1
  Be  Be32  1  0.52516800  0.74075200  0.99332800  1
  Be  Be33  1  0.52516800  0.74075200  0.74075200  1
  Be  Be34  1  0.25667200  0.50924800  0.50924800  1
  Be  Be35  1  0.25667200  0.50924800  0.72483200  1
  Be  Be36  1  0.74075200  0.52516800  0.74075200  1
  Be  Be37  1  0.74075200  0.52516800  0.99332800  1
  Be  Be38  1  0.72483200  0.50924800  0.25667200  1
  Be  Be39  1  0.74075200  0.99332800  0.74075200  1
  Be  Be40  1  0.74075200  0.99332800  0.52516800  1
  Be  Be41  1  0.50924800  0.25667200  0.50924800  1
  Be  Be42  1  0.99332800  0.74075200  0.52516800  1
  Be  Be43  1  0.99332800  0.74075200  0.74075200  1
  Be  Be44  1  0.50924800  0.50924800  0.72483200  1
  Be  Be45  1  0.25667200  0.72483200  0.50924800  1
  Be  Be46  1  0.50924800  0.50924800  0.25667200  1
  Be  Be47  1  0.72483200  0.25667200  0.50924800  1
  Be  Be48  1  0.99332800  0.52516800  0.74075200  1
  Be  Be49  1  0.74075200  0.74075200  0.52516800  1
  Be  Be50  1  0.52516800  0.99332800  0.74075200  1
  Be  Be51  1  0.74075200  0.74075200  0.99332800  1
  Mo  Mo0  1  0.12500000  0.12500000  0.12500000  1
  Mo  Mo1  1  0.12500000  0.12500000  0.62500000  1
  Mo  Mo2  1  0.12500000  0.62500000  0.12500000  1
  Mo  Mo3  1  0.62500000  0.12500000  0.12500000  1
loop_
_geom_bond_atom_site_label_1
_geom_bond_atom_site_label_2
_geom_bond_distance
_geom_bond_site_symmetry_2
Be0 Be36 2.107211 1_555
Be0 Be48 2.107211 1_555
Be0 Mo1 2.170065 1_655
Be0 Be7 2.253882 1_555
Be0 Be18 2.253882 1_555
Be1 Be50 2.107211 1_555
Be1 Be32 2.107211 1_555
Be1 Mo0 2.170065 1_566
Be1 Be13 2.253882 1_555
Be1 Be16 2.253882 1_555
Be2 Be51 2.107211 1_555
Be2 Be39 2.107211 1_555
Be2 Mo3 2.170065 1_566
Be3 Be49 2.107211 1_555
Be3 Be40 2.107211 1_555
Be3 Mo3 2.170065 1_565
Be3 Be6 2.253882 1_555
Be4 Be45 2.107211 1_555
Be4 Mo0 2.170065 1_565
Be4 Be5 2.253882 1_555
Be5 Mo1 2.170065 1_565
Be6 Mo2 2.170065 1_655
Be7 Mo0 2.170065 1_656
Be8 Mo1 2.170065 1_655
Be8 Be9 2.253882 1_555
Be9 Mo0 2.170065 1_655
Be10 Be51 2.107211 1_555
Be10 Be43 2.107211 1_555
Be10 Mo2 2.170065 1_656
Be10 Be17 2.253882 1_555
Be10 Be2 2.253882 1_555
Be11 Be44 2.107211 1_555
Be11 Be30 2.107211 1_555
Be11 Mo3 2.170065 1_556
Be11 Be20 2.253882 1_555
Be11 Be15 2.253882 1_555
Be12 Be46 2.107211 1_555
Be12 Be41 2.107211 1_555
Be12 Mo3 2.170065 1_555
Be12 Be22 2.253882 1_555
Be12 Be14 2.253882 1_555
Be13 Be33 2.107211 1_555
Be13 Be50 2.107211 1_555
Be13 Mo1 2.170065 1_565
Be13 Be16 2.253882 1_555
Be14 Be46 2.107211 1_555
Be14 Be34 2.107211 1_555
Be14 Mo2 2.170065 1_555
Be14 Be22 2.253882 1_555
Be15 Be44 2.107211 1_555
Be15 Be35 2.107211 1_555
Be15 Mo2 2.170065 1_556
Be15 Be20 2.253882 1_555
Be16 Be33 2.107211 1_555
Be16 Be32 2.107211 1_555
Be16 Mo2 2.170065 1_556
Be17 Be43 2.107211 1_555
Be17 Be39 2.107211 1_555
Be17 Mo1 2.170065 1_665
Be17 Be2 2.253882 1_555
Be18 Be36 2.107211 1_555
Be18 Be37 2.107211 1_555
Be18 Mo3 2.170065 1_556
Be18 Be7 2.253882 1_555
Be19 Be40 2.107211 1_555
Be19 Be42 2.107211 1_555
Be19 Mo0 2.170065 1_665
Be19 Be3 2.253882 1_555
Be19 Be6 2.253882 1_555
Be20 Be35 2.107211 1_555
Be20 Be30 2.107211 1_555
Be20 Mo0 2.170065 1_556
Be21 Be31 2.107211 1_555
Be21 Be29 2.107211 1_555
Be21 Mo3 2.170065 1_565
Be21 Be4 2.253882 1_555
Be21 Be5 2.253882 1_555
Be22 Be41 2.107211 1_555
Be22 Be34 2.107211 1_555
Be22 Mo1 2.170065 1_555
Be23 Be28 2.107211 1_555
Be23 Be38 2.107211 1_555
Be23 Mo2 2.170065 1_655
Be23 Be8 2.253882 1_555
Be23 Be9 2.253882 1_555
Be24 Be28 2.277008 1_555
Be24 Be31 2.277008 1_555
Be24 Be44 2.277008 1_555
Be24 Be30 2.277008 1_555
Be24 Be38 2.277008 1_555
Be24 Be35 2.277008 1_555
Be24 Be45 2.277008 1_555
Be24 Be29 2.277008 1_555
Be24 Be47 2.277008 1_555
Be24 Be46 2.277008 1_555
Be24 Be41 2.277008 1_555
Be24 Be34 2.277008 1_555
Be25 Be39 2.277008 1_555
Be25 Be43 2.277008 1_555
Be25 Be51 2.277008 1_555
Be25 Be37 2.277008 1_555
Be25 Be50 2.277008 1_555
Be25 Be40 2.277008 1_555
Be25 Be32 2.277008 1_555
Be25 Be48 2.277008 1_555
Be25 Be42 2.277008 1_555
Be25 Be36 2.277008 1_555
Be25 Be33 2.277008 1_555
Be25 Be49 2.277008 1_555
Be26 Mo3 2.973782 1_455
Be26 Mo0 2.973782 1_555
Be26 Mo1 2.973782 1_554
Be26 Mo2 2.973782 1_545
Be27 Mo2 2.973782 1_555
Be27 Mo1 2.973782 1_555
Be27 Mo0 2.973782 1_555
Be27 Mo3 2.973782 1_555
Be28 Be44 2.093823 1_555
Be28 Be31 2.093823 1_555
Be28 Be8 2.107211 1_555
Be28 Be49 2.412992 1_555
Be28 Be36 2.412992 1_555
Be28 Be38 2.453102 1_555
Be28 Be47 2.453102 1_555
Be29 Be38 2.093823 1_555
Be29 Be46 2.093823 1_555
Be29 Be4 2.107211 1_555
Be29 Be32 2.412992 1_554
Be29 Be51 2.412992 1_554
Be29 Be31 2.453102 1_555
Be29 Be45 2.453102 1_555
Be30 Be41 2.093823 1_555
Be30 Be47 2.093823 1_555
Be30 Be50 2.412992 1_545
Be30 Be39 2.412992 1_545
Be30 Be44 2.453102 1_555
Be30 Be35 2.453102 1_555
Be31 Be44 2.093823 1_555
Be31 Be5 2.107211 1_555
Be31 Be33 2.412992 1_555
Be31 Be49 2.412992 1_555
Be31 Be45 2.453102 1_555
Be32 Be51 2.093823 1_555
Be32 Be37 2.093823 1_555
Be32 Be46 2.412992 1_556
Be32 Be33 2.453102 1_555
Be32 Be50 2.453102 1_555
Be33 Be49 2.093823 1_555
Be33 Be36 2.093823 1_555
Be33 Be44 2.412992 1_555
Be33 Be50 2.453102 1_555
Be34 Be35 2.093823 1_555
Be34 Be45 2.093823 1_555
Be34 Be48 2.412992 1_455
Be34 Be42 2.412992 1_455
Be34 Be41 2.453102 1_555
Be34 Be46 2.453102 1_555
Be35 Be45 2.093823 1_555
Be35 Be48 2.412992 1_455
Be35 Be43 2.412992 1_455
Be35 Be44 2.453102 1_555
Be36 Be49 2.093823 1_555
Be36 Be44 2.412992 1_555
Be36 Be37 2.453102 1_555
Be36 Be48 2.453102 1_555
Be37 Be51 2.093823 1_555
Be37 Be7 2.107211 1_555
Be37 Be38 2.412992 1_556
Be37 Be46 2.412992 1_556
Be37 Be48 2.453102 1_555
Be38 Be46 2.093823 1_555
Be38 Be9 2.107211 1_555
Be38 Be51 2.412992 1_554
Be38 Be47 2.453102 1_555
Be39 Be40 2.093823 1_555
Be39 Be50 2.093823 1_555
Be39 Be47 2.412992 1_565
Be39 Be43 2.453102 1_555
Be39 Be51 2.453102 1_555
Be40 Be50 2.093823 1_555
Be40 Be47 2.412992 1_565
Be40 Be41 2.412992 1_565
Be40 Be49 2.453102 1_555
Be40 Be42 2.453102 1_555
Be41 Be47 2.093823 1_555
Be41 Be50 2.412992 1_545
Be41 Be46 2.453102 1_555
Be42 Be48 2.093823 1_555
Be42 Be43 2.093823 1_555
Be42 Be6 2.107211 1_555
Be42 Be45 2.412992 1_655
Be42 Be49 2.453102 1_555
Be43 Be48 2.093823 1_555
Be43 Be45 2.412992 1_655
Be43 Be51 2.453102 1_555
Be45 Be5 2.107211 1_555
Be47 Be9 2.107211 1_555
Be47 Be8 2.107211 1_555
Be48 Be7 2.107211 1_555
Be49 Be6 2.107211 1_555
