# generated using pymatgen
data_Ti5ZnO7
_symmetry_space_group_name_H-M   'P 1'
_cell_length_a   5.14114734
_cell_length_b   5.14114734
_cell_length_c   17.88586700
_cell_angle_alpha   90.00000000
_cell_angle_beta   90.00000000
_cell_angle_gamma   146.41252718
_symmetry_Int_Tables_number   1
_chemical_formula_structural   Ti5ZnO7
_chemical_formula_sum   'Ti10 Zn2 O14'
_cell_volume   261.52888865
_cell_formula_units_Z   2
loop_
 _symmetry_equiv_pos_site_id
 _symmetry_equiv_pos_as_xyz
  1  'x, y, z'
loop_
 _atom_site_type_symbol
 _atom_site_label
 _atom_site_symmetry_multiplicity
 _atom_site_fract_x
 _atom_site_fract_y
 _atom_site_fract_z
 _atom_site_occupancy
  Ti  Ti0  1  0.70883200  0.29116800  0.57089900  1
  Ti  Ti1  1  0.53778100  0.46221900  0.14922500  1
  Ti  Ti2  1  0.00000000  0.00000000  0.50000000  1
  Ti  Ti3  1  0.00000000  0.00000000  0.00000000  1
  Ti  Ti4  1  0.46221900  0.53778100  0.85077500  1
  Ti  Ti5  1  0.29116800  0.70883200  0.42910100  1
  Ti  Ti6  1  0.29116800  0.70883200  0.07089900  1
  Ti  Ti7  1  0.70883200  0.29116800  0.92910100  1
  Ti  Ti8  1  0.46221900  0.53778100  0.64922500  1
  Ti  Ti9  1  0.53778100  0.46221900  0.35077500  1
  Zn  Zn0  1  0.20956100  0.79043900  0.75000000  1
  Zn  Zn1  1  0.79043900  0.20956100  0.25000000  1
  O  O0  1  0.35718200  0.64281800  0.95585300  1
  O  O1  1  0.64281800  0.35718200  0.04414700  1
  O  O2  1  0.64281800  0.35718200  0.45585300  1
  O  O3  1  0.35718200  0.64281800  0.54414700  1
  O  O4  1  0.81801200  0.18198800  0.82743200  1
  O  O5  1  0.18198800  0.81801200  0.17256800  1
  O  O6  1  0.18198800  0.81801200  0.32743200  1
  O  O7  1  0.81801200  0.18198800  0.67256800  1
  O  O8  1  0.08991700  0.91008300  0.88584500  1
  O  O9  1  0.91008300  0.08991700  0.11415500  1
  O  O10  1  0.91008300  0.08991700  0.38584500  1
  O  O11  1  0.08991700  0.91008300  0.61415500  1
  O  O12  1  0.55471000  0.44529000  0.75000000  1
  O  O13  1  0.44529000  0.55471000  0.25000000  1
loop_
_geom_bond_atom_site_label_1
_geom_bond_atom_site_label_2
_geom_bond_distance
_geom_bond_site_symmetry_2
O0 Ti7 2.137277 1_565
O0 Ti7 2.137277 1_455
O0 Ti4 2.145054 1_555
O0 Ti6 2.157868 1_556
O0 Ti3 2.192352 1_666
O0 Ti3 2.192352 1_556
O1 Ti6 2.137277 1_655
O1 Ti6 2.137277 1_545
O1 Ti1 2.145054 1_555
O1 Ti7 2.157868 1_554
O1 Ti3 2.192352 1_665
O1 Ti3 2.192352 1_555
O2 Ti5 2.137277 1_655
O2 Ti5 2.137277 1_545
O2 Ti9 2.145054 1_555
O2 Ti0 2.157868 1_555
O2 Ti2 2.192352 1_665
O2 Ti2 2.192352 1_555
O3 Ti0 2.137277 1_565
O3 Ti0 2.137277 1_455
O3 Ti8 2.145054 1_555
O3 Ti5 2.157868 1_555
O3 Ti2 2.192352 1_555
O3 Ti2 2.192352 1_665
O4 Ti4 2.096633 1_545
O4 Ti4 2.096633 1_655
O4 Ti7 2.112295 1_555
O4 Zn0 2.294388 1_545
O4 Zn0 2.294388 1_655
O5 Ti1 2.096633 1_455
O5 Ti1 2.096633 1_565
O5 Ti6 2.112295 1_555
O5 Zn1 2.294388 1_455
O5 Zn1 2.294388 1_565
O6 Ti9 2.096633 1_455
O6 Ti9 2.096633 1_565
O6 Ti5 2.112295 1_555
O6 Zn1 2.294388 1_455
O6 Zn1 2.294388 1_565
O7 Ti8 2.096633 1_545
O7 Ti8 2.096633 1_655
O7 Ti0 2.112295 1_555
O7 Zn0 2.294388 1_545
O7 Zn0 2.294388 1_655
O8 Ti7 2.043347 1_565
O8 Ti7 2.043347 1_455
O8 Ti4 2.044514 1_565
O8 Ti4 2.044514 1_455
O8 Ti3 2.225361 1_566
O9 Ti6 2.043347 1_545
O9 Ti6 2.043347 1_655
O9 Ti1 2.044514 1_655
O9 Ti1 2.044514 1_545
O9 Ti3 2.225361 1_655
O10 Ti5 2.043347 1_655
O10 Ti5 2.043347 1_545
O10 Ti9 2.044514 1_655
O10 Ti9 2.044514 1_545
O10 Ti2 2.225361 1_655
O11 Ti0 2.043347 1_565
O11 Ti0 2.043347 1_455
O11 Ti8 2.044514 1_565
O11 Ti8 2.044514 1_455
O11 Ti2 2.225361 1_565
O12 Ti4 2.019346 1_555
O12 Ti8 2.019346 1_555
O12 Zn0 2.128381 1_655
O12 Zn0 2.128381 1_545
O13 Ti9 2.019346 1_555
O13 Ti1 2.019346 1_555
O13 Zn1 2.128381 1_565
O13 Zn1 2.128381 1_455
