# generated using pymatgen
data_KH2(IO3)3
_symmetry_space_group_name_H-M   'P 1'
_cell_length_a   8.32209700
_cell_length_b   8.33164637
_cell_length_c   8.33326364
_cell_angle_alpha   113.37103355
_cell_angle_beta   85.94849940
_cell_angle_gamma   119.64380228
_symmetry_Int_Tables_number   1
_chemical_formula_structural   KH2(IO3)3
_chemical_formula_sum   'K2 H4 I6 O18'
_cell_volume   455.23252923
_cell_formula_units_Z   2
loop_
 _symmetry_equiv_pos_site_id
 _symmetry_equiv_pos_as_xyz
  1  'x, y, z'
loop_
 _atom_site_type_symbol
 _atom_site_label
 _atom_site_symmetry_multiplicity
 _atom_site_fract_x
 _atom_site_fract_y
 _atom_site_fract_z
 _atom_site_occupancy
  K  K0  1  0.27682400  0.51621100  0.72150800  1
  K  K1  1  0.72325200  0.48496000  0.27981700  1
  H  H0  1  0.63795000  0.27345600  0.52832900  1
  H  H1  1  0.36176300  0.72730700  0.47430700  1
  H  H2  1  0.96876600  0.49040800  0.98145200  1
  H  H3  1  0.02219300  0.98712500  0.48191600  1
  I  I0  1  0.69819800  0.91180500  0.19861600  1
  I  I1  1  0.30659900  0.08839700  0.80413800  1
  I  I2  1  0.18416800  0.43743500  0.18382000  1
  I  I3  1  0.80969600  0.57512300  0.81232700  1
  I  I4  1  0.76306900  0.97940800  0.72797800  1
  I  I5  1  0.24146000  0.02124600  0.25964300  1
  O  O0  1  0.87755800  0.04810400  0.54862800  1
  O  O1  1  0.12046200  0.94117800  0.44418000  1
  O  O2  1  0.93737000  0.27937900  0.18646600  1
  O  O3  1  0.05859000  0.72198500  0.81468000  1
  O  O4  1  0.52497100  0.90847600  0.65714400  1
  O  O5  1  0.47127900  0.08506100  0.34355900  1
  O  O6  1  0.88330500  0.84299600  0.13026800  1
  O  O7  1  0.12195100  0.15476000  0.86643600  1
  O  O8  1  0.73679900  0.72466000  0.64335700  1
  O  O9  1  0.26387100  0.27035100  0.35868800  1
  O  O10  1  0.53664600  0.68134000  0.22970800  1
  O  O11  1  0.47005900  0.31971400  0.77378600  1
  O  O12  1  0.22478800  0.62273800  0.42771600  1
  O  O13  1  0.77412500  0.38026400  0.57502700  1
  O  O14  1  0.15936300  0.58452700  0.07948500  1
  O  O15  1  0.83061700  0.41716200  0.91992800  1
  O  O16  1  0.59538200  0.84173500  0.97852700  1
  O  O17  1  0.40493000  0.15569100  0.02656500  1
loop_
_geom_bond_atom_site_label_1
_geom_bond_atom_site_label_2
_geom_bond_distance
_geom_bond_site_symmetry_2
K0 O16 2.837690 1_555
K0 O9 2.874555 1_555
K0 O3 2.943698 1_555
K0 O11 2.953852 1_555
K0 O14 2.994953 1_556
K1 O17 2.829359 1_555
K1 O8 2.864326 1_555
K1 O10 2.900041 1_555
K1 O2 2.912102 1_555
H0 O13 1.008759 1_555
H1 O12 1.010424 1_555
H1 O4 1.698355 1_555
H2 O15 1.047895 1_555
H2 O14 1.497560 1_656
H3 O1 1.045027 1_555
H3 O0 1.517329 1_465
I0 O16 1.820677 1_554
I0 O10 1.831242 1_555
I0 O6 1.875292 1_555
I1 O17 1.831831 1_556
I1 O11 1.836701 1_555
I1 O7 1.853796 1_555
I2 O2 1.814984 1_455
I2 O14 1.849710 1_555
I2 O12 1.928738 1_555
I2 O10 2.554543 1_555
I3 O3 1.807630 1_655
I3 O13 1.921994 1_555
I3 O15 1.936839 1_555
I3 O8 2.482564 1_555
I3 O11 2.501343 1_555
I3 O6 2.561573 1_556
I4 O4 1.831410 1_555
I4 O0 1.845840 1_565
I4 O8 1.850750 1_555
I5 O9 1.817504 1_555
I5 O5 1.821468 1_555
I5 O1 1.937622 1_545
I5 O17 2.592930 1_555
