# generated using pymatgen
data_Na3TaS4
_symmetry_space_group_name_H-M   'P 1'
_cell_length_a   8.02850381
_cell_length_b   14.31702455
_cell_length_c   14.91322586
_cell_angle_alpha   85.67166699
_cell_angle_beta   74.38488202
_cell_angle_gamma   73.71692860
_symmetry_Int_Tables_number   1
_chemical_formula_structural   Na3TaS4
_chemical_formula_sum   'Na24 Ta8 S32'
_cell_volume   1584.70055129
_cell_formula_units_Z   8
loop_
 _symmetry_equiv_pos_site_id
 _symmetry_equiv_pos_as_xyz
  1  'x, y, z'
loop_
 _atom_site_type_symbol
 _atom_site_label
 _atom_site_symmetry_multiplicity
 _atom_site_fract_x
 _atom_site_fract_y
 _atom_site_fract_z
 _atom_site_occupancy
  Na  Na0  1  0.16910977  0.50000000  0.50000000  1
  Na  Na1  1  0.41910977  0.00000000  -0.00000000  1
  Na  Na2  1  0.68455679  0.50000000  0.50000000  1
  Na  Na3  1  0.93455679  0.00000000  -0.00000000  1
  Na  Na4  1  0.94522483  0.50366304  0.00704236  1
  Na  Na5  1  0.45593023  0.49633696  0.99295764  1
  Na  Na6  1  0.19888788  0.99633696  0.50704236  1
  Na  Na7  1  0.70226719  0.00366304  0.49295764  1
  Na  Na8  1  0.26134533  0.74086972  0.55546411  1
  Na  Na9  1  0.55767915  0.25913028  0.44453589  1
  Na  Na10  1  0.75221504  0.75913028  0.05546411  1
  Na  Na11  1  0.56680944  0.24086972  0.94453589  1
  Na  Na12  1  0.11689733  0.69064275  0.22071985  1
  Na  Na13  1  0.02825993  0.30935725  0.77928015  1
  Na  Na14  1  0.55754008  0.80935725  0.72071985  1
  Na  Na15  1  0.08761718  0.19064275  0.27928015  1
  Na  Na16  1  0.06329549  0.45036487  0.25385861  1
  Na  Na17  1  0.76751897  0.54963513  0.74614139  1
  Na  Na18  1  0.26366036  0.04963513  0.75385861  1
  Na  Na19  1  0.06715410  0.95036487  0.24614139  1
  Na  Na20  1  0.62123722  0.27636227  0.18615715  1
  Na  Na21  1  0.08375664  0.72363773  0.81384285  1
  Na  Na22  1  0.64759949  0.22363773  0.68615715  1
  Na  Na23  1  0.55739438  0.77636227  0.31384285  1
  Ta  Ta0  1  0.35868154  0.75442577  0.98727788  1
  Ta  Ta1  1  0.10038519  0.24557423  0.01272212  1
  Ta  Ta2  1  0.86310731  0.74557423  0.48727788  1
  Ta  Ta3  1  0.09595943  0.25442577  0.51272212  1
  Ta  Ta4  1  0.58940521  0.52011104  0.26973055  1
  Ta  Ta5  1  0.37924680  0.47988896  0.73026945  1
  Ta  Ta6  1  0.85951625  0.97988896  0.76973055  1
  Ta  Ta7  1  0.60913576  0.02011104  0.23026945  1
  S  S0  1  0.15036404  0.66846702  0.00369984  1
  S  S1  1  0.82253090  0.33153298  0.99630016  1
  S  S2  1  0.56883106  0.83153298  0.50369984  1
  S  S3  1  0.90406388  0.16846702  0.49630016  1
  S  S4  1  0.35878128  0.80928475  0.12772084  1
  S  S5  1  0.29578687  0.19071525  0.87227916  1
  S  S6  1  0.91806603  0.69071525  0.62772084  1
  S  S7  1  0.23650212  0.30928475  0.37227916  1
  S  S8  1  0.63809971  0.65395411  0.92489284  1
  S  S9  1  0.21694666  0.34604589  0.07510716  1
  S  S10  1  0.04205382  0.84604589  0.42489284  1
  S  S11  1  0.31299255  0.15395411  0.57510716  1
  S  S12  1  0.29273353  0.88630695  0.89408796  1
  S  S13  1  0.07312844  0.11369305  0.10591204  1
  S  S14  1  0.92904048  0.61369305  0.39408796  1
  S  S15  1  0.93682149  0.38630695  0.60591204  1
  S  S16  1  0.39921749  0.49916852  0.18853955  1
  S  S17  1  0.08692557  0.50083148  0.81146045  1
  S  S18  1  0.64838602  0.00083148  0.68853955  1
  S  S19  1  0.33775704  0.99916852  0.31146045  1
  S  S20  1  0.78826984  0.59983224  0.18234403  1
  S  S21  1  0.57044610  0.40016776  0.81765597  1
  S  S22  1  0.13810208  0.90016776  0.68234403  1
  S  S23  1  0.72061387  0.09983224  0.31765597  1
  S  S24  1  0.75231723  0.37243072  0.31205152  1
  S  S25  1  0.43679947  0.62756928  0.68794848  1
  S  S26  1  0.87474795  0.12756928  0.81205152  1
  S  S27  1  0.81436875  0.87243072  0.18794848  1
  S  S28  1  0.42510912  0.60860737  0.40041682  1
  S  S29  1  0.43413331  0.39139263  0.59958318  1
  S  S30  1  0.78371649  0.89139263  0.90041682  1
  S  S31  1  0.57552594  0.10860737  0.09958318  1
loop_
_geom_bond_atom_site_label_1
_geom_bond_atom_site_label_2
_geom_bond_distance
_geom_bond_site_symmetry_2
Na0 S14 2.889762 1_455
Na0 S15 2.889762 1_455
Na0 S29 2.940736 1_555
Na0 S28 2.940736 1_555
Na0 S6 3.282988 1_455
Na0 S7 3.282988 1_555
Na1 S13 2.889762 1_555
Na1 S12 2.889762 1_544
Na1 S30 2.940736 1_544
Na1 S31 2.940736 1_555
Na1 S5 3.282988 1_554
Na1 S4 3.282988 1_545
Na2 S28 2.909068 1_555
Na2 S29 2.909068 1_555
Na2 S15 2.954932 1_555
Na2 S14 2.954932 1_555
Na2 S25 3.298901 1_555
Na2 S24 3.298901 1_555
Na3 S31 2.909068 1_555
Na3 S30 2.909068 1_544
Na3 S12 2.954932 1_644
Na3 S13 2.954932 1_655
Na3 S27 3.298901 1_545
Na3 S26 3.298901 1_554
Na4 S17 2.830013 1_654
Na4 S20 2.848712 1_555
Na4 S1 2.928316 1_554
Na4 S9 2.994573 1_655
Na4 S0 3.224812 1_655
Na4 S8 3.234795 1_554
Na5 S16 2.830013 1_556
Na5 S21 2.848712 1_555
Na5 S0 2.928316 1_556
Na5 S8 2.994573 1_555
Na5 S1 3.224812 1_555
Na5 S9 3.234795 1_556
Na6 S19 2.830013 1_555
Na6 S22 2.848712 1_555
Na6 S3 2.928316 1_465
Na6 S11 2.994573 1_565
Na6 S2 3.224812 1_555
Na6 S10 3.234795 1_555
Na7 S18 2.830013 1_555
Na7 S23 2.848712 1_555
Na7 S2 2.928316 1_545
Na7 S10 2.994573 1_645
Na7 S3 3.224812 1_555
Na7 S11 3.234795 1_555
Na8 S22 2.852878 1_555
Na8 S25 2.872698 1_555
Na8 S28 2.879071 1_555
Na8 S6 2.943907 1_455
Na8 S2 2.999127 1_555
Na8 S10 3.012510 1_555
Na9 S23 2.852878 1_555
Na9 S24 2.872698 1_555
Na9 S29 2.879071 1_555
Na9 S7 2.943907 1_555
Na9 S3 2.999127 1_555
Na9 S11 3.012510 1_555
Na10 S20 2.852878 1_555
Na10 S27 2.872698 1_555
Na10 S30 2.879071 1_554
Na10 S4 2.943907 1_555
Na10 S0 2.999127 1_655
Na10 S8 3.012510 1_554
Na11 S21 2.852878 1_555
Na11 S26 2.872698 1_555
Na11 S31 2.879071 1_556
Na11 S5 2.943907 1_555
Na11 S1 2.999127 1_555
Na11 S9 3.012510 1_556
Na12 S14 2.928424 1_455
Na12 S4 2.936702 1_555
Na12 S16 3.001902 1_555
Na12 S27 3.132762 1_455
Na12 S0 3.207310 1_555
Na13 S15 2.928424 1_455
Na13 S5 2.936702 1_555
Na13 S17 3.001902 1_555
Na13 S26 3.132762 1_455
Na13 S1 3.207310 1_455
Na14 S12 2.928424 1_555
Na14 S6 2.936702 1_555
Na14 S18 3.001902 1_565
Na14 S25 3.132762 1_555
Na14 S2 3.207310 1_555
Na15 S13 2.928424 1_555
Na15 S7 2.936702 1_555
Na15 S19 3.001902 1_545
Na15 S24 3.132762 1_455
Na15 S3 3.207310 1_455
Na16 S16 2.872338 1_555
Na16 S7 2.888076 1_555
Na16 S24 2.912239 1_455
Na16 S9 2.942134 1_555
Na16 S20 2.977552 1_455
Na16 S14 3.019017 1_455
Na17 S17 2.872338 1_655
Na17 S6 2.888076 1_555
Na17 S25 2.912239 1_555
Na17 S8 2.942134 1_555
Na17 S21 2.977552 1_555
Na17 S15 3.019017 1_555
Na18 S18 2.872338 1_555
Na18 S5 2.888076 1_555
Na18 S26 2.912239 1_455
Na18 S11 2.942134 1_555
Na18 S22 2.977552 1_545
Na18 S12 3.019017 1_545
Na19 S19 2.872338 1_555
Na19 S4 2.888076 1_555
Na19 S27 2.912239 1_455
Na19 S10 2.942134 1_555
Na19 S23 2.977552 1_465
Na19 S13 3.019017 1_565
Na20 S31 2.964362 1_555
Na20 S24 2.964690 1_555
Na20 S1 3.027749 1_554
Na20 S23 3.135833 1_555
Na20 S16 3.185691 1_555
Na21 S30 2.964362 1_455
Na21 S25 2.964690 1_555
Na21 S0 3.027749 1_556
Na21 S22 3.135833 1_555
Na21 S17 3.185691 1_555
Na22 S29 2.964362 1_555
Na22 S26 2.964690 1_555
Na22 S3 3.027749 1_555
Na22 S21 3.135833 1_555
Na22 S18 3.185691 1_555
Na23 S28 2.964362 1_555
Na23 S27 2.964690 1_555
Na23 S2 3.027749 1_555
Na23 S20 3.135833 1_555
Na23 S19 3.185691 1_555
S0 Ta0 2.293453 1_554
S1 Ta1 2.293453 1_656
S2 Ta2 2.293453 1_555
S3 Ta3 2.293453 1_655
S4 Ta0 2.291985 1_554
S5 Ta1 2.291985 1_556
S6 Ta2 2.291985 1_555
S7 Ta3 2.291985 1_555
S8 Ta0 2.288243 1_555
S9 Ta1 2.288243 1_555
S10 Ta2 2.288243 1_455
S11 Ta3 2.288242 1_555
S12 Ta0 2.283924 1_555
S13 Ta1 2.283924 1_555
S14 Ta2 2.283924 1_555
S15 Ta3 2.283924 1_655
S16 Ta4 2.279106 1_555
S17 Ta5 2.279106 1_555
S18 Ta6 2.279106 1_545
S19 Ta7 2.279106 1_565
S20 Ta4 2.286352 1_555
S21 Ta5 2.286352 1_555
S22 Ta6 2.286352 1_455
S23 Ta7 2.286352 1_555
S24 Ta4 2.296020 1_555
S25 Ta5 2.296020 1_555
S26 Ta6 2.296020 1_545
S27 Ta7 2.296020 1_565
S28 Ta4 2.279299 1_555
S29 Ta5 2.279299 1_555
S30 Ta6 2.279299 1_555
S31 Ta7 2.279299 1_555
