# generated using pymatgen
data_SrMg15
_symmetry_space_group_name_H-M   'P 1'
_cell_length_a   6.60946647
_cell_length_b   6.60946647
_cell_length_c   10.42288200
_cell_angle_alpha   90.00000000
_cell_angle_beta   90.00000000
_cell_angle_gamma   120.00000467
_symmetry_Int_Tables_number   1
_chemical_formula_structural   SrMg15
_chemical_formula_sum   'Sr1 Mg15'
_cell_volume   394.32221012
_cell_formula_units_Z   1
loop_
 _symmetry_equiv_pos_site_id
 _symmetry_equiv_pos_as_xyz
  1  'x, y, z'
loop_
 _atom_site_type_symbol
 _atom_site_label
 _atom_site_symmetry_multiplicity
 _atom_site_fract_x
 _atom_site_fract_y
 _atom_site_fract_z
 _atom_site_occupancy
  Sr  Sr0  1  0.00000000  0.00000000  0.50000000  1
  Mg  Mg0  1  0.00000000  0.00000000  0.00000000  1
  Mg  Mg1  1  0.00947100  0.50473600  0.50000000  1
  Mg  Mg2  1  0.99835800  0.49917900  0.00000000  1
  Mg  Mg3  1  0.49526400  0.50473600  0.50000000  1
  Mg  Mg4  1  0.50082100  0.49917900  0.00000000  1
  Mg  Mg5  1  0.49526400  0.99052900  0.50000000  1
  Mg  Mg6  1  0.50082100  0.00164200  0.00000000  1
  Mg  Mg7  1  0.17033100  0.34066200  0.24043200  1
  Mg  Mg8  1  0.17033100  0.34066200  0.75956800  1
  Mg  Mg9  1  0.17033100  0.82966900  0.24043200  1
  Mg  Mg10  1  0.17033100  0.82966900  0.75956800  1
  Mg  Mg11  1  0.65933800  0.82966900  0.24043200  1
  Mg  Mg12  1  0.65933800  0.82966900  0.75956800  1
  Mg  Mg13  1  0.66666700  0.33333300  0.25361800  1
  Mg  Mg14  1  0.66666700  0.33333300  0.74638200  1
loop_
_geom_bond_atom_site_label_1
_geom_bond_atom_site_label_2
_geom_bond_distance
_geom_bond_site_symmetry_2
Mg0 Mg7 3.175258 1_555
Mg0 Mg11 3.175258 1_445
Mg0 Mg8 3.175258 1_554
Mg0 Mg12 3.175258 1_444
Mg0 Mg9 3.175258 1_545
Mg0 Mg10 3.175258 1_544
Mg0 Mg4 3.304746 1_555
Mg0 Mg4 3.304746 1_445
Mg0 Mg2 3.304747 1_445
Mg0 Mg6 3.304747 1_555
Mg0 Mg2 3.304747 1_455
Mg0 Mg6 3.304747 1_455
Mg1 Mg5 3.210832 1_555
Mg1 Mg3 3.210833 1_555
Mg1 Mg13 3.231857 1_455
Mg1 Mg14 3.231857 1_455
Mg1 Mg10 3.283109 1_555
Mg1 Mg9 3.283109 1_555
Mg1 Mg8 3.283112 1_555
Mg1 Mg7 3.283112 1_555
Mg1 Sr0 3.305175 1_565
Mg1 Sr0 3.305181 1_555
Mg1 Mg5 3.398634 1_445
Mg1 Mg3 3.398634 1_455
Mg2 Mg9 3.140154 1_655
Mg2 Mg7 3.140154 1_655
Mg2 Mg8 3.140154 1_654
Mg2 Mg6 3.288454 1_555
Mg2 Mg4 3.288454 1_555
Mg2 Mg6 3.321012 1_665
Mg2 Mg4 3.321012 1_655
Mg3 Mg5 3.210833 1_555
Mg3 Mg8 3.283109 1_555
Mg3 Mg7 3.283109 1_555
Mg3 Sr0 3.305178 1_555
Mg3 Sr0 3.305178 1_665
Mg3 Mg5 3.398634 1_545
Mg4 Mg7 3.140154 1_555
Mg4 Mg8 3.140154 1_554
Mg4 Mg6 3.288454 1_555
Mg4 Mg6 3.321012 1_565
Mg5 Mg9 3.283109 1_555
Mg5 Sr0 3.305175 1_565
Mg5 Sr0 3.305181 1_665
Mg6 Mg9 3.140154 1_545
Mg7 Mg9 3.232075 1_555
Mg7 Sr0 3.334921 1_555
Mg7 Mg9 3.377391 1_545
Mg8 Sr0 3.334921 1_555
Mg9 Sr0 3.334921 1_565
Mg10 Mg2 3.140154 1_456
Mg10 Mg6 3.140154 1_566
Mg10 Mg8 3.232075 1_555
Mg10 Mg12 3.232075 1_555
Mg10 Mg5 3.283109 1_555
Mg10 Mg14 3.307856 1_455
Mg10 Mg14 3.307856 1_565
Mg10 Sr0 3.334921 1_565
Mg10 Mg12 3.377391 1_455
Mg10 Mg8 3.377391 1_565
Mg11 Mg4 3.140154 1_555
Mg11 Mg6 3.140154 1_565
Mg11 Mg7 3.232075 1_555
Mg11 Mg9 3.232075 1_555
Mg11 Mg3 3.283109 1_555
Mg11 Mg5 3.283112 1_555
Mg11 Mg13 3.307853 1_565
Mg11 Mg13 3.307859 1_555
Mg11 Sr0 3.334921 1_665
Mg11 Mg7 3.377391 1_665
Mg11 Mg9 3.377391 1_655
Mg12 Mg4 3.140154 1_556
Mg12 Mg6 3.140154 1_566
Mg12 Mg8 3.232075 1_555
Mg12 Mg3 3.283109 1_555
Mg12 Mg5 3.283112 1_555
Mg12 Mg14 3.307853 1_565
Mg12 Mg14 3.307859 1_555
Mg12 Sr0 3.334921 1_665
Mg12 Mg8 3.377391 1_665
Mg13 Mg5 3.231857 1_545
Mg13 Mg3 3.231864 1_555
Mg13 Mg2 3.254591 1_555
Mg13 Mg6 3.254591 1_555
Mg13 Mg4 3.254594 1_555
Mg13 Mg7 3.307853 1_655
Mg13 Mg9 3.307856 1_655
Mg13 Mg9 3.307856 1_545
Mg13 Mg7 3.307859 1_555
Mg14 Mg5 3.231857 1_545
Mg14 Mg3 3.231864 1_555
Mg14 Mg2 3.254591 1_556
Mg14 Mg6 3.254591 1_556
Mg14 Mg4 3.254594 1_556
Mg14 Mg8 3.307853 1_655
Mg14 Mg8 3.307859 1_555
