# generated using pymatgen
data_Mg6SnW
_symmetry_space_group_name_H-M   'P 1'
_cell_length_a   5.10513300
_cell_length_b   5.94581400
_cell_length_c   10.81123800
_cell_angle_alpha   90.00000000
_cell_angle_beta   90.00000000
_cell_angle_gamma   90.00000000
_symmetry_Int_Tables_number   1
_chemical_formula_structural   Mg6SnW
_chemical_formula_sum   'Mg12 Sn2 W2'
_cell_volume   328.16616982
_cell_formula_units_Z   2
loop_
 _symmetry_equiv_pos_site_id
 _symmetry_equiv_pos_as_xyz
  1  'x, y, z'
loop_
 _atom_site_type_symbol
 _atom_site_label
 _atom_site_symmetry_multiplicity
 _atom_site_fract_x
 _atom_site_fract_y
 _atom_site_fract_z
 _atom_site_occupancy
  Mg  Mg0  1  0.50000000  0.75139100  0.91768900  1
  Mg  Mg1  1  0.50000000  0.24860900  0.91768900  1
  Mg  Mg2  1  0.00000000  0.23579700  0.58484000  1
  Mg  Mg3  1  0.00000000  0.76420300  0.58484000  1
  Mg  Mg4  1  0.00000000  0.50000000  0.83492800  1
  Mg  Mg5  1  0.00000000  0.00000000  0.82366500  1
  Mg  Mg6  1  0.50000000  0.25139100  0.41768900  1
  Mg  Mg7  1  0.50000000  0.74860900  0.41768900  1
  Mg  Mg8  1  0.00000000  0.73579700  0.08484000  1
  Mg  Mg9  1  0.00000000  0.26420300  0.08484000  1
  Mg  Mg10  1  0.00000000  0.00000000  0.33492800  1
  Mg  Mg11  1  0.00000000  0.50000000  0.32366500  1
  Sn  Sn0  1  0.50000000  0.50000000  0.66816100  1
  Sn  Sn1  1  0.50000000  0.00000000  0.16816100  1
  W  W0  1  0.50000000  0.00000000  0.66818300  1
  W  W1  1  0.50000000  0.50000000  0.16818300  1
loop_
_geom_bond_atom_site_label_1
_geom_bond_atom_site_label_2
_geom_bond_distance
_geom_bond_site_symmetry_2
Mg0 Mg1 2.956366 1_565
Mg0 Mg1 2.989448 1_555
Mg0 W0 3.075933 1_565
Mg0 Sn0 3.084124 1_555
Mg0 Sn1 3.085095 1_566
Mg0 Mg4 3.090368 1_555
Mg0 Mg4 3.090368 1_655
Mg0 W1 3.093263 1_556
Mg0 Mg5 3.119924 1_565
Mg0 Mg5 3.119924 1_665
Mg0 Mg8 3.128871 1_656
Mg0 Mg8 3.128871 1_556
Mg1 W0 3.075933 1_555
Mg1 Sn0 3.084124 1_555
Mg1 Sn1 3.085095 1_556
Mg1 Mg4 3.090368 1_555
Mg1 Mg4 3.090368 1_655
Mg1 W1 3.093263 1_556
Mg1 Mg5 3.119924 1_655
Mg1 Mg5 3.119924 1_555
Mg1 Mg9 3.128871 1_656
Mg1 Mg9 3.128871 1_556
Mg2 Mg3 2.804010 1_545
Mg2 Mg5 2.938079 1_555
Mg2 W0 3.048457 1_455
Mg2 W0 3.048457 1_555
Mg2 Mg4 3.126988 1_555
Mg2 Mg6 3.128871 1_455
Mg2 Mg6 3.128871 1_555
Mg2 Sn0 3.129660 1_455
Mg2 Sn0 3.129660 1_555
Mg2 Mg3 3.141804 1_555
Mg3 Mg5 2.938079 1_565
Mg3 W0 3.048457 1_465
Mg3 W0 3.048457 1_565
Mg3 Mg4 3.126988 1_555
Mg3 Mg7 3.128871 1_455
Mg3 Mg7 3.128871 1_555
Mg3 Sn0 3.129660 1_455
Mg3 Sn0 3.129660 1_555
Mg4 Mg5 2.975400 1_565
Mg4 Mg5 2.975400 1_555
Mg4 Mg9 3.043954 1_556
Mg4 Mg8 3.043954 1_556
Mg4 Sn0 3.125100 1_455
Mg4 Sn0 3.125100 1_555
Mg5 W0 3.056337 1_455
Mg5 W0 3.056337 1_555
Mg5 Mg9 3.231190 1_556
Mg5 Mg8 3.231190 1_546
Mg6 Mg7 2.956366 1_555
Mg6 Mg7 2.989448 1_545
Mg6 W1 3.075933 1_555
Mg6 Sn1 3.084124 1_555
Mg6 Sn0 3.085095 1_555
Mg6 W0 3.093263 1_555
Mg7 W1 3.075933 1_555
Mg7 Sn1 3.084124 1_565
Mg7 Sn0 3.085095 1_555
Mg7 W0 3.093263 1_565
Mg8 Mg9 2.804010 1_555
Mg8 W1 3.048457 1_555
Mg8 W1 3.048457 1_455
Mg8 Sn1 3.129660 1_565
Mg8 Sn1 3.129660 1_465
Mg8 Mg9 3.141804 1_565
Mg9 W1 3.048457 1_555
Mg9 W1 3.048457 1_455
Mg9 Sn1 3.129660 1_555
Mg9 Sn1 3.129660 1_455
Mg10 Mg11 2.975400 1_545
Mg10 Mg11 2.975400 1_555
Mg10 Mg2 3.043954 1_555
Mg10 Mg3 3.043954 1_545
Mg10 Mg6 3.090368 1_455
Mg10 Mg6 3.090368 1_555
Mg10 Mg7 3.090368 1_545
Mg10 Mg7 3.090368 1_445
Mg10 Sn1 3.125100 1_555
Mg10 Sn1 3.125100 1_455
Mg10 Mg8 3.126988 1_545
Mg10 Mg9 3.126988 1_555
Mg11 Mg9 2.938079 1_555
Mg11 Mg8 2.938079 1_555
Mg11 W1 3.056337 1_555
Mg11 W1 3.056337 1_455
Mg11 Mg7 3.119924 1_555
Mg11 Mg7 3.119924 1_455
Mg11 Mg6 3.119924 1_555
Mg11 Mg6 3.119924 1_455
Mg11 Mg2 3.231190 1_555
Mg11 Mg3 3.231190 1_555
Sn0 W0 2.972907 1_555
Sn0 W0 2.972907 1_565
Sn1 W1 2.972907 1_545
Sn1 W1 2.972907 1_555
