# generated using pymatgen
data_Tl5In3Se8
_symmetry_space_group_name_H-M   'P 1'
_cell_length_a   7.01101900
_cell_length_b   8.28662600
_cell_length_c   8.28662600
_cell_angle_alpha   90.00000000
_cell_angle_beta   90.00000000
_cell_angle_gamma   90.00000000
_symmetry_Int_Tables_number   1
_chemical_formula_structural   Tl5In3Se8
_chemical_formula_sum   'Tl5 In3 Se8'
_cell_volume   481.43384782
_cell_formula_units_Z   1
loop_
 _symmetry_equiv_pos_site_id
 _symmetry_equiv_pos_as_xyz
  1  'x, y, z'
loop_
 _atom_site_type_symbol
 _atom_site_label
 _atom_site_symmetry_multiplicity
 _atom_site_fract_x
 _atom_site_fract_y
 _atom_site_fract_z
 _atom_site_occupancy
  Tl  Tl0  1  0.25000000  0.00000000  0.00000000  1
  Tl  Tl1  1  0.75000000  0.50000000  0.50000000  1
  Tl  Tl2  1  0.25000000  0.50000000  0.50000000  1
  Tl  Tl3  1  0.75000000  0.00000000  0.00000000  1
  Tl  Tl4  1  0.75000000  0.00000000  0.50000000  1
  In  In0  1  0.25000000  0.50000000  0.00000000  1
  In  In1  1  0.75000000  0.50000000  0.00000000  1
  In  In2  1  0.25000000  0.00000000  0.50000000  1
  Se  Se0  1  0.50024400  0.32964200  0.82964200  1
  Se  Se1  1  0.00841100  0.82624800  0.32624800  1
  Se  Se2  1  0.00841100  0.17375200  0.67375200  1
  Se  Se3  1  0.50024400  0.67035800  0.17035800  1
  Se  Se4  1  0.49158900  0.17375200  0.32624800  1
  Se  Se5  1  0.99975600  0.67035800  0.82964200  1
  Se  Se6  1  0.99975600  0.32964200  0.17035800  1
  Se  Se7  1  0.49158900  0.82624800  0.67375200  1
loop_
_geom_bond_atom_site_label_1
_geom_bond_atom_site_label_2
_geom_bond_distance
_geom_bond_site_symmetry_2
In0 Se5 2.657800 1_454
In0 Se0 2.657800 1_554
In0 Se3 2.657800 1_555
In0 Se6 2.657800 1_455
In1 Se6 2.655543 1_555
In1 Se5 2.655543 1_554
In1 Se0 2.655543 1_554
In1 Se3 2.655543 1_555
In2 Se2 2.648596 1_555
In2 Se4 2.648596 1_555
In2 Se1 2.648596 1_545
In2 Se7 2.648596 1_545
Se1 Tl4 2.725527 1_465
Se2 Tl4 2.725527 1_455
Se4 Tl4 2.725527 1_555
Se7 Tl4 2.725527 1_565
