# generated using pymatgen
data_BaWO4
_symmetry_space_group_name_H-M   'P 1'
_cell_length_a   7.62845057
_cell_length_b   7.62845057
_cell_length_c   7.62845057
_cell_angle_alpha   135.82672054
_cell_angle_beta   135.82672054
_cell_angle_gamma   64.24834200
_symmetry_Int_Tables_number   1
_chemical_formula_structural   BaWO4
_chemical_formula_sum   'Ba2 W2 O8'
_cell_volume   212.61533252
_cell_formula_units_Z   2
loop_
 _symmetry_equiv_pos_site_id
 _symmetry_equiv_pos_as_xyz
  1  'x, y, z'
loop_
 _atom_site_type_symbol
 _atom_site_label
 _atom_site_symmetry_multiplicity
 _atom_site_fract_x
 _atom_site_fract_y
 _atom_site_fract_z
 _atom_site_occupancy
  Ba  Ba0  1  0.25000000  0.75000000  0.50000000  1
  Ba  Ba1  1  0.50000000  0.50000000  0.00000000  1
  W  W0  1  0.75507800  0.25507800  0.50000000  1
  W  W1  1  0.00507800  0.00507800  0.00000000  1
  O  O0  1  0.15541700  0.04924600  0.35887400  1
  O  O1  1  0.69037200  0.79654300  0.64112600  1
  O  O2  1  0.05962800  0.45345700  0.85887400  1
  O  O3  1  0.54654300  0.40541700  0.60617100  1
  O  O4  1  0.20345700  0.84458300  0.89382900  1
  O  O5  1  0.95075400  0.30962800  0.10617100  1
  O  O6  1  0.79924600  0.94037200  0.39382900  1
  O  O7  1  0.59458300  0.20075400  0.14112600  1
loop_
_geom_bond_atom_site_label_1
_geom_bond_atom_site_label_2
_geom_bond_distance
_geom_bond_site_symmetry_2
Ba0 O4 2.805452 1_555
Ba0 O1 2.805452 1_555
Ba0 O0 2.805452 1_565
Ba0 O5 2.805452 1_455
Ba0 O7 2.818113 1_566
Ba0 O6 2.818113 1_455
Ba0 O2 2.818113 1_554
Ba0 O3 2.818113 1_555
Ba1 O3 2.805452 1_554
Ba1 O2 2.805452 1_554
Ba1 O6 2.805452 1_555
Ba1 O7 2.805452 1_555
Ba1 O4 2.818113 1_554
Ba1 O1 2.818113 1_555
Ba1 O5 2.818113 1_555
Ba1 O0 2.818113 1_554
O0 W1 1.852661 1_555
O1 W1 1.852661 1_666
O2 W0 1.780696 1_455
O3 W0 1.852661 1_555
O4 W1 1.780696 1_566
O5 W1 1.780696 1_655
O6 W0 1.852661 1_565
O7 W0 1.780696 1_555
