# generated using pymatgen
data_ZnCr2O4
_symmetry_space_group_name_H-M   'P 1'
_cell_length_a   5.90018585
_cell_length_b   5.90018535
_cell_length_c   5.90019009
_cell_angle_alpha   60.00018106
_cell_angle_beta   60.00015119
_cell_angle_gamma   60.00016557
_symmetry_Int_Tables_number   1
_chemical_formula_structural   ZnCr2O4
_chemical_formula_sum   'Zn2 Cr4 O8'
_cell_volume   145.23924624
_cell_formula_units_Z   2
loop_
 _symmetry_equiv_pos_site_id
 _symmetry_equiv_pos_as_xyz
  1  'x, y, z'
loop_
 _atom_site_type_symbol
 _atom_site_label
 _atom_site_symmetry_multiplicity
 _atom_site_fract_x
 _atom_site_fract_y
 _atom_site_fract_z
 _atom_site_occupancy
  Zn  Zn0  1  0.87499997  0.87499933  0.87499831  1
  Zn  Zn1  1  0.12500003  0.12500067  0.12500169  1
  Cr  Cr0  1  0.50000000  0.00000000  0.50000000  1
  Cr  Cr1  1  0.00000000  0.50000000  0.50000000  1
  Cr  Cr2  1  0.50000000  0.50000000  -0.00000000  1
  Cr  Cr3  1  0.50000000  0.50000000  0.50000000  1
  O  O0  1  0.73842478  0.73842270  0.73842109  1
  O  O1  1  0.26157606  0.26157940  0.71526742  1
  O  O2  1  0.26157542  0.71526726  0.26157926  1
  O  O3  1  0.71526741  0.26157720  0.26157802  1
  O  O4  1  0.73842458  0.28473274  0.73842074  1
  O  O5  1  0.28473259  0.73842280  0.73842198  1
  O  O6  1  0.26157522  0.26157730  0.26157891  1
  O  O7  1  0.73842394  0.73842060  0.28473258  1
loop_
_geom_bond_atom_site_label_1
_geom_bond_atom_site_label_2
_geom_bond_distance
_geom_bond_site_symmetry_2
Cr0 O5 1.994113 1_545
Cr0 O3 1.994113 1_555
Cr0 O6 1.994120 1_555
Cr0 O0 1.994120 1_545
Cr0 O1 1.994123 1_555
Cr0 O7 1.994123 1_545
Cr1 O2 1.994104 1_555
Cr1 O4 1.994104 1_455
Cr1 O1 1.994109 1_555
Cr1 O7 1.994109 1_455
Cr1 O6 1.994109 1_555
Cr1 O0 1.994109 1_455
Cr2 O5 1.994118 1_554
Cr2 O3 1.994118 1_555
Cr2 O2 1.994122 1_555
Cr2 O4 1.994122 1_554
Cr2 O0 1.994125 1_554
Cr2 O6 1.994125 1_555
Cr3 O1 1.994112 1_555
Cr3 O7 1.994112 1_555
Cr3 O3 1.994113 1_555
Cr3 O5 1.994113 1_555
Cr3 O4 1.994117 1_555
Cr3 O2 1.994117 1_555
O0 Zn0 1.973860 1_555
O1 Zn1 1.973893 1_556
O2 Zn1 1.973887 1_565
O3 Zn1 1.973883 1_655
O4 Zn0 1.973887 1_545
O5 Zn0 1.973883 1_455
O6 Zn1 1.973860 1_555
O7 Zn0 1.973893 1_554
