# generated using pymatgen
data_Nd19Ti20O60
_symmetry_space_group_name_H-M   'P 1'
_cell_length_a   9.57851500
_cell_length_b   11.14444708
_cell_length_c   12.56776890
_cell_angle_alpha   75.89041323
_cell_angle_beta   75.64731749
_cell_angle_gamma   73.09704047
_symmetry_Int_Tables_number   1
_chemical_formula_structural   Nd19Ti20O60
_chemical_formula_sum   'Nd19 Ti20 O60'
_cell_volume   1222.03174639
_cell_formula_units_Z   1
loop_
 _symmetry_equiv_pos_site_id
 _symmetry_equiv_pos_as_xyz
  1  'x, y, z'
loop_
 _atom_site_type_symbol
 _atom_site_label
 _atom_site_symmetry_multiplicity
 _atom_site_fract_x
 _atom_site_fract_y
 _atom_site_fract_z
 _atom_site_occupancy
  Nd  Nd0  1  0.55555200  0.69321200  0.12641100  1
  Nd  Nd1  1  0.86450300  0.38364300  0.03092700  1
  Nd  Nd2  1  0.95316100  0.28976500  0.32811600  1
  Nd  Nd3  1  0.53942900  0.21031300  0.17656700  1
  Nd  Nd4  1  0.26282400  0.98575300  0.23199200  1
  Nd  Nd5  1  0.35908000  0.89759400  0.52502000  1
  Nd  Nd6  1  0.84406000  0.90596400  0.07231500  1
  Nd  Nd7  1  0.92632800  0.82355400  0.37146800  1
  Nd  Nd8  1  0.66456600  0.58747600  0.43026300  1
  Nd  Nd9  1  0.75549800  0.49412300  0.72420600  1
  Nd  Nd10  1  0.24699300  0.50227900  0.27660200  1
  Nd  Nd11  1  0.34345100  0.40656200  0.56913200  1
  Nd  Nd12  1  0.06384400  0.18540700  0.62938300  1
  Nd  Nd13  1  0.15780700  0.09376300  0.92490500  1
  Nd  Nd14  1  0.73122800  0.01874800  0.76101200  1
  Nd  Nd15  1  0.46492000  0.78645700  0.82867200  1
  Nd  Nd16  1  0.04448000  0.70620900  0.67301200  1
  Nd  Nd17  1  0.13592000  0.61435900  0.96956800  1
  Nd  Nd18  1  0.44523100  0.30493400  0.87242400  1
  Ti  Ti0  1  0.20005200  0.79873200  0.10066500  1
  Ti  Ti1  1  0.59788100  0.39663600  0.30367200  1
  Ti  Ti2  1  0.90155700  0.59844900  0.20038200  1
  Ti  Ti3  1  0.20098100  0.29970300  0.10005500  1
  Ti  Ti4  1  0.90077900  0.09836700  0.20264400  1
  Ti  Ti5  1  0.30391700  0.20132500  0.40079500  1
  Ti  Ti6  1  0.99384800  0.00388700  0.49890200  1
  Ti  Ti7  1  0.60086900  0.89967000  0.30221200  1
  Ti  Ti8  1  0.29754200  0.70060500  0.40123100  1
  Ti  Ti9  1  0.40040500  0.59913800  0.69892700  1
  Ti  Ti10  1  0.69645500  0.80659200  0.59754800  1
  Ti  Ti11  1  0.69967100  0.29601900  0.59548900  1
  Ti  Ti12  1  0.99964000  0.50133700  0.49973600  1
  Ti  Ti13  1  0.79981400  0.19922500  0.89958100  1
  Ti  Ti14  1  0.10099700  0.39960500  0.79895200  1
  Ti  Ti15  1  0.40512200  0.10025500  0.69351900  1
  Ti  Ti16  1  0.09855500  0.90065900  0.79870400  1
  Ti  Ti17  1  0.50073200  0.99966300  0.99989200  1
  Ti  Ti18  1  0.50022400  0.49917900  0.00006000  1
  Ti  Ti19  1  0.79997000  0.70077000  0.89878700  1
  O  O0  1  0.36708600  0.67719900  0.01423700  1
  O  O1  1  0.85055200  0.69503000  0.04844100  1
  O  O2  1  0.08902500  0.66055800  0.15783500  1
  O  O3  1  0.76428700  0.27692300  0.21466700  1
  O  O4  1  0.01317000  0.44204600  0.13079100  1
  O  O5  1  0.90454200  0.13969000  0.03285500  1
  O  O6  1  0.32173400  0.42819700  0.02424800  1
  O  O7  1  0.07913900  0.17246300  0.17177200  1
  O  O8  1  0.49780200  0.46265400  0.16584100  1
  O  O9  1  0.24481700  0.29380200  0.24992900  1
  O  O10  1  0.38846800  0.15747300  0.06867400  1
  O  O11  1  0.31144200  0.93818100  0.04297700  1
  O  O12  1  0.47062800  0.27946000  0.35480500  1
  O  O13  1  0.41478600  0.04406100  0.33106100  1
  O  O14  1  0.16705200  0.87759200  0.41590300  1
  O  O15  1  0.30301800  0.74006400  0.23332500  1
  O  O16  1  0.55122000  0.90498200  0.15081700  1
  O  O17  1  0.72681000  0.02290500  0.22387100  1
  O  O18  1  0.47495200  0.77252000  0.37307500  1
  O  O19  1  0.64717100  0.88143900  0.44984900  1
  O  O20  1  0.91298900  0.05830600  0.36159000  1
  O  O21  1  0.78718600  0.75616700  0.26710000  1
  O  O22  1  0.03490700  0.92130100  0.18443800  1
  O  O23  1  0.71019800  0.54002300  0.24131800  1
  O  O24  1  0.88599000  0.86393500  0.56098100  1
  O  O25  1  0.56607400  0.47627000  0.61380400  1
  O  O26  1  0.81378900  0.64190800  0.53317200  1
  O  O27  1  0.70455100  0.35385300  0.43183300  1
  O  O28  1  0.95170900  0.50455500  0.35030700  1
  O  O29  1  0.11818300  0.63213000  0.42422400  1
  O  O30  1  0.87817200  0.37286500  0.57599900  1
  O  O31  1  0.04867100  0.49483800  0.64939100  1
  O  O32  1  0.29755600  0.65989500  0.56621400  1
  O  O33  1  0.18393000  0.35952600  0.46939400  1
  O  O34  1  0.43117700  0.52507300  0.38654800  1
  O  O35  1  0.11408500  0.13830200  0.44103300  1
  O  O36  1  0.28681200  0.46316300  0.75696300  1
  O  O37  1  0.21569100  0.24263100  0.73183500  1
  O  O38  1  0.96836800  0.07806000  0.81561800  1
  O  O39  1  0.10533900  0.93843700  0.63220000  1
  O  O40  1  0.33622100  0.10757400  0.55516200  1
  O  O41  1  0.52494600  0.22525600  0.63428300  1
  O  O42  1  0.27800700  0.97109900  0.77672800  1
  O  O43  1  0.69730200  0.26127500  0.76599800  1
  O  O44  1  0.44654900  0.09440400  0.84975800  1
  O  O45  1  0.84786900  0.12639700  0.59001500  1
  O  O46  1  0.57855500  0.94731000  0.67958200  1
  O  O47  1  0.51249400  0.73553200  0.64201800  1
  O  O48  1  0.68797100  0.06176100  0.95470700  1
  O  O49  1  0.61270300  0.84057900  0.93373400  1
  O  O50  1  0.50352700  0.53883700  0.83295200  1
  O  O51  1  0.75208700  0.70337300  0.74996700  1
  O  O52  1  0.91959600  0.83032200  0.82308000  1
  O  O53  1  0.68023000  0.57030200  0.97569900  1
  O  O54  1  0.09633300  0.85849200  0.96661000  1
  O  O55  1  0.98777900  0.55810700  0.86791200  1
  O  O56  1  0.23358100  0.72163900  0.78594000  1
  O  O57  1  0.91183300  0.33892900  0.84201300  1
  O  O58  1  0.15266300  0.30536600  0.94939800  1
  O  O59  1  0.63356900  0.32025600  0.98710300  1
loop_
_geom_bond_atom_site_label_1
_geom_bond_atom_site_label_2
_geom_bond_distance
_geom_bond_site_symmetry_2
Nd0 O23 2.362673 1_555
Nd0 O15 2.434213 1_555
Nd0 O16 2.440363 1_555
Nd0 O53 2.466246 1_554
Nd0 O49 2.605242 1_554
Nd0 O0 2.617229 1_555
Nd0 O8 2.687635 1_555
Nd0 O1 2.756057 1_555
Nd1 O53 2.385961 1_554
Nd1 O4 2.418664 1_655
Nd1 O3 2.427811 1_555
Nd1 O57 2.450025 1_554
Nd1 O5 2.627792 1_555
Nd1 O58 2.657590 1_654
Nd1 O59 2.719869 1_554
Nd1 O55 2.750544 1_554
Nd2 O35 2.375434 1_655
Nd2 O27 2.409532 1_555
Nd2 O28 2.472256 1_555
Nd2 O7 2.487047 1_655
Nd2 O3 2.618252 1_555
Nd2 O20 2.635643 1_555
Nd2 O4 2.677527 1_655
Nd2 O9 2.731763 1_655
Nd3 O17 2.383431 1_555
Nd3 O12 2.420825 1_555
Nd3 O10 2.476458 1_555
Nd3 O59 2.477842 1_554
Nd3 O13 2.647878 1_555
Nd3 O3 2.652084 1_555
Nd3 O8 2.697297 1_555
Nd3 O9 2.698272 1_555
Nd4 O7 2.400319 1_565
Nd4 O14 2.422866 1_555
Nd4 O13 2.436006 1_565
Nd4 O11 2.462302 1_555
Nd4 O15 2.648275 1_555
Nd4 O16 2.662052 1_555
Nd4 O22 2.721593 1_555
Nd4 O10 2.742833 1_565
Nd5 O40 2.400145 1_565
Nd5 O47 2.411754 1_555
Nd5 O39 2.441574 1_555
Nd5 O18 2.483691 1_555
Nd5 O13 2.610137 1_565
Nd5 O14 2.636572 1_555
Nd5 O19 2.653531 1_555
Nd5 O32 2.778581 1_555
Nd6 O48 2.401981 1_564
Nd6 O1 2.422708 1_555
Nd6 O17 2.426172 1_565
Nd6 O54 2.427240 1_654
Nd6 O22 2.633020 1_655
Nd6 O21 2.636593 1_555
Nd6 O5 2.733408 1_565
Nd6 O16 2.735313 1_555
Nd7 O21 2.447398 1_555
Nd7 O24 2.447406 1_555
Nd7 O22 2.447815 1_655
Nd7 O29 2.449995 1_655
Nd7 O20 2.555637 1_565
Nd7 O19 2.556795 1_555
Nd7 O26 2.750831 1_555
Nd7 O14 2.756989 1_655
Nd8 O18 2.411328 1_555
Nd8 O26 2.426296 1_555
Nd8 O25 2.440085 1_555
Nd8 O23 2.464304 1_555
Nd8 O27 2.514885 1_555
Nd8 O28 2.651977 1_555
Nd8 O21 2.707229 1_555
Nd8 O34 2.735377 1_555
Nd9 O57 2.402178 1_555
Nd9 O51 2.421270 1_555
Nd9 O30 2.427965 1_555
Nd9 O50 2.436910 1_555
Nd9 O26 2.594366 1_555
Nd9 O25 2.617145 1_555
Nd9 O43 2.711440 1_555
Nd9 O31 2.733171 1_655
Nd10 O2 2.431643 1_555
Nd10 O9 2.433549 1_555
Nd10 O8 2.434949 1_555
Nd10 O29 2.488847 1_555
Nd10 O33 2.592379 1_555
Nd10 O34 2.593567 1_555
Nd10 O28 2.743949 1_455
Nd10 O15 2.754220 1_555
Nd10 O12 2.912301 1_555
Nd11 O41 2.373137 1_555
Nd11 O33 2.432360 1_555
Nd11 O34 2.434695 1_555
Nd11 O36 2.481288 1_555
Nd11 O25 2.689854 1_555
Nd11 O37 2.693429 1_555
Nd11 O32 2.720509 1_555
Nd11 O31 2.722911 1_555
Nd12 O30 2.392725 1_455
Nd12 O38 2.440400 1_455
Nd12 O35 2.450450 1_555
Nd12 O37 2.459325 1_555
Nd12 O40 2.510216 1_555
Nd12 O45 2.532603 1_455
Nd12 O39 2.656682 1_545
Nd12 O33 2.716684 1_555
Nd13 O11 2.391306 1_546
Nd13 O42 2.434191 1_545
Nd13 O58 2.436620 1_555
Nd13 O5 2.443850 1_456
Nd13 O38 2.597526 1_455
Nd13 O37 2.617778 1_555
Nd13 O44 2.693402 1_555
Nd13 O54 2.751522 1_545
Nd14 O46 2.374018 1_545
Nd14 O45 2.374436 1_555
Nd14 O52 2.443248 1_545
Nd14 O48 2.506136 1_555
Nd14 O43 2.641316 1_555
Nd14 O44 2.646520 1_555
Nd14 O49 2.816226 1_545
Nd14 O38 2.816819 1_555
Nd14 O41 2.977602 1_555
Nd14 O24 3.205295 1_545
Nd15 O42 2.376553 1_555
Nd15 O49 2.433605 1_555
Nd15 O0 2.448500 1_556
Nd15 O47 2.449770 1_555
Nd15 O46 2.528819 1_555
Nd15 O51 2.649216 1_555
Nd15 O50 2.664403 1_555
Nd15 O56 2.725857 1_555
Nd16 O24 2.382880 1_455
Nd16 O31 2.432838 1_555
Nd16 O32 2.437472 1_555
Nd16 O52 2.468273 1_455
Nd16 O56 2.626651 1_555
Nd16 O55 2.628614 1_455
Nd16 O39 2.717126 1_555
Nd16 O51 2.733844 1_455
Nd17 O6 2.389210 1_556
Nd17 O55 2.417697 1_455
Nd17 O56 2.421817 1_555
Nd17 O2 2.449041 1_556
Nd17 O54 2.627790 1_555
Nd17 O1 2.631448 1_456
Nd17 O4 2.722204 1_556
Nd17 O0 2.723615 1_556
Nd18 O36 2.409529 1_555
Nd18 O43 2.426614 1_555
Nd18 O44 2.427550 1_555
Nd18 O6 2.478131 1_556
Nd18 O59 2.636087 1_555
Nd18 O10 2.637819 1_556
Nd18 O50 2.726076 1_555
Nd18 O58 2.727545 1_555
O0 Ti0 2.041977 1_555
O0 Ti18 2.045118 1_555
O1 Ti19 2.037500 1_554
O1 Ti2 2.048966 1_555
O2 Ti0 2.013069 1_555
O2 Ti2 2.013878 1_455
O3 Ti1 2.044221 1_555
O3 Ti4 2.056128 1_555
O4 Ti2 2.035216 1_455
O4 Ti3 2.048579 1_555
O5 Ti13 2.038662 1_554
O5 Ti4 2.063778 1_555
O6 Ti3 2.011900 1_555
O6 Ti18 2.013128 1_555
O7 Ti3 2.000723 1_555
O7 Ti4 2.021545 1_455
O8 Ti18 2.018719 1_555
O8 Ti1 2.062187 1_555
O9 Ti3 2.011010 1_555
O9 Ti5 2.053720 1_555
O10 Ti17 2.043835 1_544
O10 Ti3 2.047300 1_555
O11 Ti17 2.026043 1_554
O11 Ti0 2.027449 1_555
O12 Ti1 1.931850 1_555
O12 Ti5 1.935931 1_555
O13 Ti5 2.042712 1_555
O13 Ti7 2.047927 1_545
O14 Ti8 2.028833 1_555
O14 Ti6 2.078819 1_465
O15 Ti0 2.022044 1_555
O15 Ti8 2.038430 1_555
O16 Ti17 2.031575 1_554
O16 Ti7 2.056026 1_555
O17 Ti7 2.006512 1_545
O17 Ti4 2.010054 1_555
O18 Ti8 2.002703 1_555
O18 Ti7 2.025281 1_555
O19 Ti10 1.953159 1_555
O19 Ti7 1.962783 1_555
O20 Ti6 1.955752 1_555
O20 Ti4 1.963170 1_555
O21 Ti2 2.033736 1_555
O21 Ti7 2.057006 1_555
O22 Ti0 2.023751 1_555
O22 Ti4 2.048664 1_465
O23 Ti2 2.027674 1_555
O23 Ti1 2.072725 1_555
O24 Ti10 2.008313 1_555
O24 Ti6 2.013148 1_565
O25 Ti9 2.036322 1_555
O25 Ti11 2.076147 1_555
O26 Ti12 2.031795 1_555
O26 Ti10 2.088006 1_555
O27 Ti11 1.992865 1_555
O27 Ti1 2.005949 1_555
O28 Ti2 2.017715 1_555
O28 Ti12 2.030753 1_555
O29 Ti8 2.006507 1_555
O29 Ti12 2.017006 1_455
O30 Ti12 2.017174 1_555
O30 Ti11 2.063570 1_555
O31 Ti14 2.023809 1_555
O31 Ti12 2.028563 1_455
O32 Ti8 2.011606 1_555
O32 Ti9 2.021634 1_555
O33 Ti12 2.024093 1_455
O33 Ti5 2.060122 1_555
O34 Ti8 2.025358 1_555
O34 Ti1 2.063154 1_555
O35 Ti6 2.038642 1_455
O35 Ti5 2.041782 1_555
O36 Ti14 2.008281 1_555
O36 Ti9 2.009635 1_555
O37 Ti14 2.030082 1_555
O37 Ti15 2.075327 1_555
O38 Ti13 2.031208 1_555
O38 Ti16 2.036843 1_645
O39 Ti16 2.019737 1_555
O39 Ti6 2.077792 1_465
O40 Ti15 1.983499 1_555
O40 Ti5 2.018046 1_555
O41 Ti15 1.952602 1_555
O41 Ti11 1.958586 1_555
O42 Ti16 2.022540 1_555
O42 Ti15 2.074087 1_565
O43 Ti13 2.029104 1_555
O43 Ti11 2.078219 1_555
O44 Ti17 2.034671 1_545
O44 Ti15 2.079943 1_555
O45 Ti6 1.997181 1_555
O45 Ti11 2.011904 1_555
O46 Ti10 1.994692 1_555
O46 Ti15 2.012559 1_565
O47 Ti9 2.003250 1_555
O47 Ti10 2.037600 1_555
O48 Ti17 2.010759 1_545
O48 Ti13 2.010836 1_555
O49 Ti17 2.038548 1_555
O49 Ti19 2.038609 1_555
O50 Ti18 2.032168 1_556
O50 Ti9 2.037508 1_555
O51 Ti19 2.024958 1_555
O51 Ti10 2.086114 1_555
O52 Ti16 2.012602 1_655
O52 Ti19 2.013576 1_555
O53 Ti19 2.024537 1_555
O53 Ti18 2.027190 1_556
O54 Ti0 2.041326 1_556
O54 Ti16 2.043114 1_555
O55 Ti19 2.050865 1_555
O55 Ti14 2.052780 1_655
O56 Ti9 2.050860 1_555
O56 Ti16 2.057068 1_555
O57 Ti14 2.020159 1_655
O57 Ti13 2.033739 1_555
O58 Ti14 2.028899 1_555
O58 Ti3 2.040205 1_556
O59 Ti13 2.042279 1_555
O59 Ti18 2.051368 1_556
