# generated using pymatgen
data_TbCo5P3
_symmetry_space_group_name_H-M   'P 1'
_cell_length_a   3.65381200
_cell_length_b   10.27621400
_cell_length_c   11.73057600
_cell_angle_alpha   90.00000000
_cell_angle_beta   90.00000000
_cell_angle_gamma   90.00000000
_symmetry_Int_Tables_number   1
_chemical_formula_structural   TbCo5P3
_chemical_formula_sum   'Tb4 Co20 P12'
_cell_volume   440.45209002
_cell_formula_units_Z   4
loop_
 _symmetry_equiv_pos_site_id
 _symmetry_equiv_pos_as_xyz
  1  'x, y, z'
loop_
 _atom_site_type_symbol
 _atom_site_label
 _atom_site_symmetry_multiplicity
 _atom_site_fract_x
 _atom_site_fract_y
 _atom_site_fract_z
 _atom_site_occupancy
  Tb  Tb0  1  0.25000000  0.58317500  0.70320900  1
  Tb  Tb1  1  0.25000000  0.91682500  0.20320900  1
  Tb  Tb2  1  0.75000000  0.41682500  0.29679100  1
  Tb  Tb3  1  0.75000000  0.08317500  0.79679100  1
  Co  Co0  1  0.25000000  0.71526200  0.98947000  1
  Co  Co1  1  0.25000000  0.78473800  0.48947000  1
  Co  Co2  1  0.75000000  0.28473800  0.01053000  1
  Co  Co3  1  0.75000000  0.21526200  0.51053000  1
  Co  Co4  1  0.25000000  0.40628500  0.48801600  1
  Co  Co5  1  0.25000000  0.09371500  0.98801600  1
  Co  Co6  1  0.75000000  0.59371500  0.51198400  1
  Co  Co7  1  0.75000000  0.90628500  0.01198400  1
  Co  Co8  1  0.25000000  0.22067100  0.17593600  1
  Co  Co9  1  0.25000000  0.27932900  0.67593600  1
  Co  Co10  1  0.75000000  0.77932900  0.82406400  1
  Co  Co11  1  0.75000000  0.72067100  0.32406400  1
  Co  Co12  1  0.25000000  0.88240000  0.69765200  1
  Co  Co13  1  0.25000000  0.61760000  0.19765200  1
  Co  Co14  1  0.75000000  0.11760000  0.30234800  1
  Co  Co15  1  0.75000000  0.38240000  0.80234800  1
  Co  Co16  1  0.25000000  0.46702600  0.93236700  1
  Co  Co17  1  0.25000000  0.03297400  0.43236700  1
  Co  Co18  1  0.75000000  0.53297400  0.06763300  1
  Co  Co19  1  0.75000000  0.96702600  0.56763300  1
  P  P0  1  0.25000000  0.41860400  0.11185400  1
  P  P1  1  0.25000000  0.08139600  0.61185400  1
  P  P2  1  0.75000000  0.58139600  0.88814600  1
  P  P3  1  0.75000000  0.91860400  0.38814600  1
  P  P4  1  0.25000000  0.27124900  0.86967300  1
  P  P5  1  0.25000000  0.22875100  0.36967300  1
  P  P6  1  0.75000000  0.72875100  0.13032700  1
  P  P7  1  0.75000000  0.77124900  0.63032700  1
  P  P8  1  0.25000000  0.60212700  0.39144800  1
  P  P9  1  0.25000000  0.89787300  0.89144800  1
  P  P10  1  0.75000000  0.39787300  0.60855200  1
  P  P11  1  0.75000000  0.10212700  0.10855200  1
loop_
_geom_bond_atom_site_label_1
_geom_bond_atom_site_label_2
_geom_bond_distance
_geom_bond_site_symmetry_2
Co0 P9 2.200819 1_555
Co0 P6 2.467186 1_456
Co0 P6 2.467186 1_556
Co0 P2 2.577344 1_555
Co0 P2 2.577344 1_455
Co0 Tb1 3.252194 1_556
Co1 P8 2.200819 1_555
Co1 P7 2.467186 1_555
Co1 P7 2.467186 1_455
Co1 P3 2.577344 1_455
Co1 P3 2.577344 1_555
Co1 Tb0 3.252194 1_555
Co2 P11 2.200819 1_555
Co2 P4 2.467186 1_554
Co2 P4 2.467186 1_654
Co2 P0 2.577344 1_555
Co2 P0 2.577344 1_655
Co2 Tb3 3.252194 1_554
Co3 P10 2.200819 1_555
Co3 P5 2.467186 1_555
Co3 P5 2.467186 1_655
Co3 P1 2.577344 1_655
Co3 P1 2.577344 1_555
Co3 Tb2 3.252194 1_555
Co4 P5 2.292496 1_555
Co4 P8 2.309425 1_555
Co4 P10 2.311781 1_555
Co4 P10 2.311781 1_455
Co4 Tb2 2.895025 1_455
Co4 Tb2 2.895025 1_555
Co4 Tb0 3.110712 1_555
Co5 P4 2.292496 1_555
Co5 P9 2.309425 1_545
Co5 P11 2.311781 1_456
Co5 P11 2.311781 1_556
Co5 Tb3 2.895025 1_455
Co5 Tb3 2.895025 1_555
Co5 Tb1 3.110712 1_546
Co6 P7 2.292496 1_555
Co6 P10 2.309425 1_555
Co6 P8 2.311781 1_655
Co6 P8 2.311781 1_555
Co6 Tb0 2.895025 1_555
Co6 Tb0 2.895025 1_655
Co6 Tb2 3.110712 1_555
Co7 P6 2.292496 1_555
Co7 P11 2.309425 1_565
Co7 P9 2.311781 1_654
Co7 P9 2.311781 1_554
Co7 Tb1 2.895025 1_555
Co7 Tb1 2.895025 1_655
Co7 Tb3 3.110712 1_564
Co8 P0 2.168466 1_555
Co8 P5 2.274163 1_555
Co8 P11 2.333747 1_455
Co8 P11 2.333747 1_555
Co8 Tb2 3.067668 1_455
Co8 Tb2 3.067668 1_555
Co8 Tb1 3.138734 1_545
Co9 P1 2.168466 1_555
Co9 P4 2.274163 1_555
Co9 P10 2.333747 1_455
Co9 P10 2.333747 1_555
Co9 Tb3 3.067668 1_555
Co9 Tb3 3.067668 1_455
Co9 Tb0 3.138734 1_555
Co10 P2 2.168466 1_555
Co10 P7 2.274163 1_555
Co10 P9 2.333747 1_555
Co10 P9 2.333747 1_655
Co10 Tb0 3.067668 1_655
Co10 Tb0 3.067668 1_555
Co10 Tb3 3.138734 1_565
Co11 P3 2.168466 1_555
Co11 P6 2.274163 1_555
Co11 P8 2.333747 1_655
Co11 P8 2.333747 1_555
Co11 Tb1 3.067668 1_555
Co11 Tb1 3.067668 1_655
Co11 Tb2 3.138734 1_555
Co12 P9 2.278893 1_555
Co12 P1 2.279184 1_565
Co12 P7 2.294767 1_455
Co12 P7 2.294767 1_555
Co12 Tb3 2.991133 1_565
Co12 Tb3 2.991133 1_465
Co12 Tb0 3.075591 1_555
Co13 P8 2.278893 1_555
Co13 P0 2.279184 1_555
Co13 P6 2.294767 1_555
Co13 P6 2.294767 1_455
Co13 Tb2 2.991133 1_455
Co13 Tb2 2.991133 1_555
Co13 Tb1 3.075591 1_555
Co14 P11 2.278893 1_555
Co14 P3 2.279184 1_545
Co14 P5 2.294767 1_655
Co14 P5 2.294767 1_555
Co14 Tb1 2.991133 1_545
Co14 Tb1 2.991133 1_645
Co14 Tb2 3.075591 1_555
Co15 P10 2.278893 1_555
Co15 P2 2.279184 1_555
Co15 P4 2.294767 1_555
Co15 P4 2.294767 1_655
Co15 Tb0 2.991133 1_655
Co15 Tb0 2.991133 1_555
Co15 Tb3 3.075591 1_555
Co16 P4 2.142053 1_555
Co16 P0 2.163486 1_556
Co16 P2 2.233379 1_555
Co16 P2 2.233379 1_455
Co16 Tb0 2.941223 1_555
Co17 P5 2.142053 1_555
Co17 P1 2.163486 1_555
Co17 P3 2.233379 1_445
Co17 P3 2.233379 1_545
Co17 Tb1 2.941223 1_545
Co18 P6 2.142053 1_555
Co18 P2 2.163486 1_554
Co18 P0 2.233379 1_655
Co18 P0 2.233379 1_555
Co18 Tb2 2.941223 1_555
Co19 P7 2.142053 1_555
Co19 P3 2.163486 1_555
Co19 P1 2.233379 1_565
Co19 P1 2.233379 1_665
Co19 Tb3 2.941223 1_565
P0 Tb2 2.836246 1_555
P0 Tb2 2.836246 1_455
P1 Tb3 2.836246 1_455
P1 Tb3 2.836246 1_555
P2 Tb0 2.836246 1_555
P2 Tb0 2.836246 1_655
P3 Tb1 2.836246 1_555
P3 Tb1 2.836246 1_655
P4 Tb3 2.793529 1_455
P4 Tb3 2.793529 1_555
P5 Tb2 2.793529 1_555
P5 Tb2 2.793529 1_455
P6 Tb1 2.793529 1_555
P6 Tb1 2.793529 1_655
P7 Tb0 2.793529 1_555
P7 Tb0 2.793529 1_655
P8 Tb2 2.862957 1_455
P8 Tb2 2.862957 1_555
P9 Tb3 2.862957 1_565
P9 Tb3 2.862957 1_465
P10 Tb0 2.862957 1_555
P10 Tb0 2.862957 1_655
P11 Tb1 2.862957 1_645
P11 Tb1 2.862957 1_545
