# generated using pymatgen
data_KAg2
_symmetry_space_group_name_H-M   'P 1'
_cell_length_a   5.83730147
_cell_length_b   5.83730211
_cell_length_c   9.79218007
_cell_angle_alpha   90.00000000
_cell_angle_beta   90.00000000
_cell_angle_gamma   120.00001243
_symmetry_Int_Tables_number   1
_chemical_formula_structural   KAg2
_chemical_formula_sum   'K4 Ag8'
_cell_volume   288.95769390
_cell_formula_units_Z   4
loop_
 _symmetry_equiv_pos_site_id
 _symmetry_equiv_pos_as_xyz
  1  'x, y, z'
loop_
 _atom_site_type_symbol
 _atom_site_label
 _atom_site_symmetry_multiplicity
 _atom_site_fract_x
 _atom_site_fract_y
 _atom_site_fract_z
 _atom_site_occupancy
  K  K0  1  0.33333300  0.66666700  0.06177482  1
  K  K1  1  0.66666700  0.33333300  0.56177482  1
  K  K2  1  0.66666700  0.33333300  0.93822518  1
  K  K3  1  0.33333300  0.66666700  0.43822518  1
  Ag  Ag0  1  -0.00000000  -0.00000000  -0.00000000  1
  Ag  Ag1  1  -0.00000000  -0.00000000  0.50000000  1
  Ag  Ag2  1  0.83430841  0.66861682  0.25000000  1
  Ag  Ag3  1  0.16569159  0.83430841  0.75000000  1
  Ag  Ag4  1  0.66861682  0.83430841  0.75000000  1
  Ag  Ag5  1  0.33138318  0.16569159  0.25000000  1
  Ag  Ag6  1  0.83430841  0.16569159  0.25000000  1
  Ag  Ag7  1  0.16569159  0.33138318  0.75000000  1
loop_
_geom_bond_atom_site_label_1
_geom_bond_atom_site_label_2
_geom_bond_distance
_geom_bond_site_symmetry_2
K0 K2 3.580736 1_454
K0 K2 3.580736 1_564
K0 K2 3.580746 1_554
K0 K3 3.686270 1_555
K1 K3 3.580736 1_655
K1 K3 3.580736 1_545
K1 K3 3.580746 1_555
K1 K2 3.686270 1_555
Ag0 Ag5 2.966362 1_555
Ag0 Ag4 2.966362 1_444
Ag0 Ag2 2.966362 1_445
Ag0 Ag7 2.966362 1_554
Ag0 Ag3 2.966362 1_544
Ag0 Ag6 2.966362 1_455
Ag0 K2 3.424022 1_454
Ag0 K0 3.424022 1_545
Ag0 K0 3.424026 1_445
Ag0 K2 3.424026 1_554
Ag0 K2 3.424026 1_444
Ag0 K0 3.424026 1_555
Ag1 Ag5 2.966362 1_555
Ag1 Ag4 2.966362 1_445
Ag1 Ag7 2.966362 1_555
Ag1 Ag2 2.966362 1_445
Ag1 Ag3 2.966362 1_545
Ag1 Ag6 2.966362 1_455
Ag1 K1 3.424022 1_455
Ag1 K3 3.424022 1_545
Ag1 K1 3.424026 1_555
Ag1 K3 3.424026 1_445
Ag1 K3 3.424026 1_555
Ag1 K1 3.424026 1_445
Ag2 Ag5 2.901575 1_665
Ag2 Ag6 2.901576 1_565
Ag2 Ag5 2.935726 1_555
Ag2 Ag6 2.935727 1_555
Ag2 K3 3.451920 1_655
Ag2 K0 3.451920 1_655
Ag2 K0 3.451924 1_555
Ag2 K3 3.451924 1_555
Ag2 K2 3.491901 1_554
Ag2 K1 3.491901 1_555
Ag3 Ag4 2.901575 1_455
Ag3 Ag7 2.901576 1_565
Ag3 Ag4 2.935726 1_555
Ag3 Ag7 2.935727 1_555
Ag3 K1 3.451922 1_565
Ag3 K2 3.451922 1_565
Ag3 K2 3.451922 1_455
Ag3 K1 3.451922 1_455
Ag3 K0 3.491898 1_556
Ag3 K3 3.491898 1_555
Ag4 Ag7 2.901575 1_665
Ag4 Ag7 2.935726 1_555
Ag4 K1 3.451920 1_565
Ag4 K2 3.451920 1_565
Ag4 K2 3.451925 1_555
Ag4 K1 3.451925 1_555
Ag4 K0 3.491901 1_556
Ag4 K3 3.491901 1_555
Ag5 Ag6 2.901575 1_455
Ag5 Ag6 2.935726 1_555
Ag5 K3 3.451920 1_545
Ag5 K0 3.451920 1_545
Ag5 K3 3.451925 1_555
Ag5 K0 3.451925 1_555
Ag5 K1 3.491901 1_555
Ag5 K2 3.491901 1_554
Ag6 K0 3.451922 1_545
Ag6 K3 3.451922 1_545
Ag6 K3 3.451922 1_655
Ag6 K0 3.451922 1_655
Ag6 K2 3.491898 1_554
Ag6 K1 3.491898 1_555
Ag7 K2 3.451920 1_455
Ag7 K1 3.451920 1_455
Ag7 K1 3.451924 1_555
Ag7 K2 3.451924 1_555
Ag7 K0 3.491901 1_556
Ag7 K3 3.491901 1_555
