# generated using pymatgen
data_MgAgF5
_symmetry_space_group_name_H-M   'P 1'
_cell_length_a   9.98512200
_cell_length_b   5.22641400
_cell_length_c   8.06095339
_cell_angle_alpha   69.30453035
_cell_angle_beta   90.00000000
_cell_angle_gamma   90.00000000
_symmetry_Int_Tables_number   1
_chemical_formula_structural   MgAgF5
_chemical_formula_sum   'Mg4 Ag4 F20'
_cell_volume   393.52685621
_cell_formula_units_Z   4
loop_
 _symmetry_equiv_pos_site_id
 _symmetry_equiv_pos_as_xyz
  1  'x, y, z'
loop_
 _atom_site_type_symbol
 _atom_site_label
 _atom_site_symmetry_multiplicity
 _atom_site_fract_x
 _atom_site_fract_y
 _atom_site_fract_z
 _atom_site_occupancy
  Mg  Mg0  1  0.00761600  0.52648500  0.75926500  1
  Mg  Mg1  1  0.50761600  0.47351500  0.74073500  1
  Mg  Mg2  1  0.99238400  0.47351500  0.24073500  1
  Mg  Mg3  1  0.49238400  0.52648500  0.25926500  1
  Ag  Ag0  1  0.75302300  0.11400000  0.60872800  1
  Ag  Ag1  1  0.25302300  0.88600000  0.89127200  1
  Ag  Ag2  1  0.24697700  0.88600000  0.39127200  1
  Ag  Ag3  1  0.74697700  0.11400000  0.10872800  1
  F  F0  1  0.88816000  0.42973700  0.58925100  1
  F  F1  1  0.38816000  0.57026300  0.91074900  1
  F  F2  1  0.11184000  0.57026300  0.41074900  1
  F  F3  1  0.61184000  0.42973700  0.08925100  1
  F  F4  1  0.59814200  0.36880700  0.49504300  1
  F  F5  1  0.09814200  0.63119300  0.00495700  1
  F  F6  1  0.40185800  0.63119300  0.50495700  1
  F  F7  1  0.90185800  0.36880700  0.99504300  1
  F  F8  1  0.40575600  0.13434000  0.77555600  1
  F  F9  1  0.90575600  0.86566000  0.72444400  1
  F  F10  1  0.59424400  0.86566000  0.22444400  1
  F  F11  1  0.09424400  0.13434000  0.27555600  1
  F  F12  1  0.12986700  0.21538000  0.84970700  1
  F  F13  1  0.62986700  0.78462000  0.65029300  1
  F  F14  1  0.87013300  0.78462000  0.15029300  1
  F  F15  1  0.37013300  0.21538000  0.34970700  1
  F  F16  1  0.66014900  0.19859100  0.83881300  1
  F  F17  1  0.16014900  0.80140900  0.66118700  1
  F  F18  1  0.33985100  0.80140900  0.16118700  1
  F  F19  1  0.83985100  0.19859100  0.33881300  1
loop_
_geom_bond_atom_site_label_1
_geom_bond_atom_site_label_2
_geom_bond_distance
_geom_bond_site_symmetry_2
Ag0 F9 2.006187 1_545
Ag0 F4 2.035288 1_555
Ag0 F13 2.044578 1_545
Ag0 F0 2.094127 1_555
Ag0 F19 2.236341 1_555
Ag0 F16 2.252764 1_555
Ag1 F8 2.006187 1_565
Ag1 F5 2.035288 1_556
Ag1 F12 2.044578 1_565
Ag1 F1 2.094127 1_555
Ag1 F18 2.236341 1_556
Ag1 F17 2.252764 1_555
Ag2 F11 2.006187 1_565
Ag2 F6 2.035288 1_555
Ag2 F15 2.044578 1_565
Ag2 F2 2.094127 1_555
Ag2 F17 2.236341 1_555
Ag2 F18 2.252764 1_555
Ag3 F10 2.006187 1_545
Ag3 F7 2.035288 1_554
Ag3 F14 2.044578 1_545
Ag3 F3 2.094127 1_555
Ag3 F16 2.236341 1_554
Ag3 F19 2.252764 1_555
F0 Mg0 2.011568 1_655
F1 Mg1 2.011568 1_555
F2 Mg2 2.011568 1_455
F3 Mg3 2.011568 1_555
F4 Mg3 2.073524 1_555
F4 Mg1 2.409361 1_555
F5 Mg2 2.073524 1_455
F5 Mg0 2.409361 1_554
F6 Mg1 2.073524 1_555
F6 Mg3 2.409361 1_555
F7 Mg0 2.073524 1_655
F7 Mg2 2.409361 1_556
F8 Mg1 1.975834 1_555
F9 Mg0 1.975834 1_655
F10 Mg3 1.975834 1_555
F11 Mg2 1.975834 1_455
F12 Mg0 1.956402 1_555
F13 Mg1 1.956402 1_555
F14 Mg2 1.956402 1_555
F15 Mg3 1.956402 1_555
F16 Mg1 2.050959 1_555
F17 Mg0 2.050959 1_555
F18 Mg3 2.050959 1_555
F19 Mg2 2.050959 1_555
