# generated using pymatgen
data_Yb2TiCuO6
_symmetry_space_group_name_H-M   'P 1'
_cell_length_a   3.51935422
_cell_length_b   3.51935422
_cell_length_c   11.25763373
_cell_angle_alpha   90.00000000
_cell_angle_beta   90.00000000
_cell_angle_gamma   119.99998970
_symmetry_Int_Tables_number   1
_chemical_formula_structural   Yb2TiCuO6
_chemical_formula_sum   'Yb2 Ti1 Cu1 O6'
_cell_volume   120.75461879
_cell_formula_units_Z   1
loop_
 _symmetry_equiv_pos_site_id
 _symmetry_equiv_pos_as_xyz
  1  'x, y, z'
loop_
 _atom_site_type_symbol
 _atom_site_label
 _atom_site_symmetry_multiplicity
 _atom_site_fract_x
 _atom_site_fract_y
 _atom_site_fract_z
 _atom_site_occupancy
  Yb  Yb0  1  0.66666700  0.33333300  0.72583221  1
  Yb  Yb1  1  0.66666700  0.33333300  0.27416779  1
  Ti  Ti0  1  0.00000000  0.00000000  0.00000000  1
  Cu  Cu0  1  0.33333300  0.66666700  0.50000000  1
  O  O0  1  0.00000000  0.00000000  0.83424997  1
  O  O1  1  0.33333300  0.66666700  0.33094543  1
  O  O2  1  0.66666700  0.33333300  0.00000000  1
  O  O3  1  0.66666700  0.33333300  0.50000000  1
  O  O4  1  0.33333300  0.66666700  0.66905457  1
  O  O5  1  0.00000000  0.00000000  0.16575003  1
loop_
_geom_bond_atom_site_label_1
_geom_bond_atom_site_label_2
_geom_bond_distance
_geom_bond_site_symmetry_2
Cu0 O1 1.903154 1_555
Cu0 O4 1.903154 1_555
Cu0 O3 2.031898 1_565
Cu0 O3 2.031898 1_455
Cu0 O3 2.031904 1_555
O0 Ti0 1.865953 1_556
O0 Yb0 2.370295 1_455
O0 Yb0 2.370298 1_555
O0 Yb0 2.370298 1_445
O1 Yb1 2.130062 1_565
O1 Yb1 2.130062 1_455
O1 Yb1 2.130068 1_555
O2 Ti0 2.031898 1_655
O2 Ti0 2.031901 1_555
O2 Ti0 2.031901 1_665
O3 Yb0 2.542336 1_555
O3 Yb1 2.542336 1_555
O4 Yb0 2.130062 1_565
O4 Yb0 2.130062 1_455
O4 Yb0 2.130068 1_555
O5 Ti0 1.865953 1_555
O5 Yb1 2.370295 1_455
O5 Yb1 2.370298 1_555
O5 Yb1 2.370298 1_445
