# generated using pymatgen
data_Sr2MgReO6
_symmetry_space_group_name_H-M   'P 1'
_cell_length_a   5.65162841
_cell_length_b   5.65162841
_cell_length_c   5.65162841
_cell_angle_alpha   120.36240494
_cell_angle_beta   120.36240494
_cell_angle_gamma   89.37343406
_symmetry_Int_Tables_number   1
_chemical_formula_structural   Sr2MgReO6
_chemical_formula_sum   'Sr2 Mg1 Re1 O6'
_cell_volume   126.93814786
_cell_formula_units_Z   1
loop_
 _symmetry_equiv_pos_site_id
 _symmetry_equiv_pos_as_xyz
  1  'x, y, z'
loop_
 _atom_site_type_symbol
 _atom_site_label
 _atom_site_symmetry_multiplicity
 _atom_site_fract_x
 _atom_site_fract_y
 _atom_site_fract_z
 _atom_site_occupancy
  Sr  Sr0  1  0.25000000  0.75000000  0.50000000  1
  Sr  Sr1  1  0.75000000  0.25000000  0.50000000  1
  Mg  Mg0  1  0.50000000  0.50000000  0.00000000  1
  Re  Re0  1  0.00000000  0.00000000  0.00000000  1
  O  O0  1  0.24244400  0.24244400  0.00000000  1
  O  O1  1  0.75755600  0.75755600  0.00000000  1
  O  O2  1  0.72615600  0.79095600  0.51711300  1
  O  O3  1  0.27384400  0.20904400  0.48288700  1
  O  O4  1  0.79095600  0.27384400  0.06480000  1
  O  O5  1  0.20904400  0.72615600  0.93520000  1
loop_
_geom_bond_atom_site_label_1
_geom_bond_atom_site_label_2
_geom_bond_distance
_geom_bond_site_symmetry_2
Mg0 O0 2.069769 1_555
Mg0 O1 2.069769 1_555
Mg0 O4 2.071280 1_555
Mg0 O5 2.071280 1_554
Mg0 O3 2.071284 1_554
Mg0 O2 2.071284 1_555
O0 Re0 1.948327 1_555
O0 Sr0 2.810977 1_555
O0 Sr1 2.810977 1_555
O0 Sr0 2.810977 1_544
O0 Sr1 2.810977 1_454
O1 Re0 1.948327 1_665
O1 Sr0 2.810977 1_554
O1 Sr1 2.810977 1_554
O1 Sr0 2.810977 1_655
O1 Sr1 2.810977 1_565
O2 Re0 1.936386 1_666
O2 Sr0 2.651904 1_555
O2 Sr1 2.651910 1_565
O2 Sr1 3.013259 1_555
O2 Sr0 3.013265 1_655
O3 Re0 1.936386 1_555
O3 Sr1 2.651904 1_555
O3 Sr0 2.651910 1_545
O3 Sr0 3.013259 1_555
O3 Sr1 3.013265 1_455
O4 Re0 1.936390 1_655
O4 Sr1 2.651907 1_555
O4 Sr0 2.651907 1_655
O4 Sr1 3.013262 1_554
O4 Sr0 3.013262 1_544
O5 Re0 1.936390 1_566
O5 Sr1 2.651907 1_455
O5 Sr0 2.651907 1_555
O5 Sr0 3.013262 1_556
O5 Sr1 3.013262 1_566
