# generated using pymatgen
data_Pr12Si5Se28
_symmetry_space_group_name_H-M   'P 1'
_cell_length_a   10.69153396
_cell_length_b   10.69153396
_cell_length_c   24.41277600
_cell_angle_alpha   90.00000000
_cell_angle_beta   90.00000000
_cell_angle_gamma   119.99999974
_symmetry_Int_Tables_number   1
_chemical_formula_structural   Pr12Si5Se28
_chemical_formula_sum   'Pr24 Si10 Se56'
_cell_volume   2416.72835953
_cell_formula_units_Z   2
loop_
 _symmetry_equiv_pos_site_id
 _symmetry_equiv_pos_as_xyz
  1  'x, y, z'
loop_
 _atom_site_type_symbol
 _atom_site_label
 _atom_site_symmetry_multiplicity
 _atom_site_fract_x
 _atom_site_fract_y
 _atom_site_fract_z
 _atom_site_occupancy
  Pr  Pr0  1  0.12997300  0.77990000  0.19422500  1
  Pr  Pr1  1  0.12534700  0.76241600  0.67957000  1
  Pr  Pr2  1  0.12455700  0.77335300  0.43515700  1
  Pr  Pr3  1  0.12986500  0.77094900  0.93499200  1
  Pr  Pr4  1  0.22010000  0.35007300  0.19422500  1
  Pr  Pr5  1  0.22664700  0.35120400  0.43515700  1
  Pr  Pr6  1  0.23758400  0.36293000  0.67957000  1
  Pr  Pr7  1  0.22905100  0.35891600  0.93499200  1
  Pr  Pr8  1  0.64992700  0.87002700  0.19422500  1
  Pr  Pr9  1  0.63707000  0.87465300  0.67957000  1
  Pr  Pr10  1  0.64879600  0.87544300  0.43515700  1
  Pr  Pr11  1  0.64108400  0.87013500  0.93499200  1
  Pr  Pr12  1  0.36767600  0.13573500  0.06737000  1
  Pr  Pr13  1  0.35240000  0.12805800  0.31333200  1
  Pr  Pr14  1  0.34430800  0.11935700  0.55267900  1
  Pr  Pr15  1  0.36053700  0.13045500  0.81143600  1
  Pr  Pr16  1  0.76805900  0.63232400  0.06737000  1
  Pr  Pr17  1  0.77565800  0.64760000  0.31333200  1
  Pr  Pr18  1  0.77504900  0.65569200  0.55267900  1
  Pr  Pr19  1  0.76991700  0.63946300  0.81143600  1
  Pr  Pr20  1  0.86426500  0.23194100  0.06737000  1
  Pr  Pr21  1  0.87194200  0.22434200  0.31333200  1
  Pr  Pr22  1  0.88064300  0.22495100  0.55267900  1
  Pr  Pr23  1  0.86954500  0.23008300  0.81143600  1
  Si  Si0  1  0.00000000  0.00000000  0.74213500  1
  Si  Si1  1  0.33333300  0.66666700  0.08302400  1
  Si  Si2  1  0.33333300  0.66666700  0.33349000  1
  Si  Si3  1  0.33333300  0.66666700  0.58015100  1
  Si  Si4  1  0.33333300  0.66666700  0.82953800  1
  Si  Si5  1  0.00000000  0.00000000  0.99496100  1
  Si  Si6  1  0.66666700  0.33333300  0.45698700  1
  Si  Si7  1  0.66666700  0.33333300  0.21131500  1
  Si  Si8  1  0.66666700  0.33333300  0.70578900  1
  Si  Si9  1  0.66666700  0.33333300  0.95961000  1
  Se  Se0  1  0.09319400  0.83645700  0.30722200  1
  Se  Se1  1  0.08528600  0.85873100  0.04632000  1
  Se  Se2  1  0.08546200  0.85144100  0.80069000  1
  Se  Se3  1  0.08869600  0.82923700  0.55906800  1
  Se  Se4  1  0.10682200  0.52528400  0.11887900  1
  Se  Se5  1  0.10712300  0.52197500  0.37048100  1
  Se  Se6  1  0.10604800  0.51564500  0.61840100  1
  Se  Se7  1  0.10734700  0.52086500  0.86734500  1
  Se  Se8  1  0.41846200  0.89317800  0.11887900  1
  Se  Se9  1  0.40959700  0.89395200  0.61840100  1
  Se  Se10  1  0.41485200  0.89287700  0.37048100  1
  Se  Se11  1  0.41351800  0.89265300  0.86734500  1
  Se  Se12  1  0.33333300  0.66666700  0.24009100  1
  Se  Se13  1  0.33333300  0.66666700  0.48871900  1
  Se  Se14  1  0.33333300  0.66666700  0.73769700  1
  Se  Se15  1  0.33333300  0.66666700  0.98912100  1
  Se  Se16  1  0.14126900  0.22655500  0.04632000  1
  Se  Se17  1  0.16354300  0.25673700  0.30722200  1
  Se  Se18  1  0.17076300  0.25946000  0.55906800  1
  Se  Se19  1  0.14855900  0.23402100  0.80069000  1
  Se  Se20  1  0.47471600  0.58153800  0.11887900  1
  Se  Se21  1  0.48435500  0.59040300  0.61840100  1
  Se  Se22  1  0.47802500  0.58514800  0.37048100  1
  Se  Se23  1  0.47913500  0.58648200  0.86734500  1
  Se  Se24  1  0.25867300  0.09604300  0.17861500  1
  Se  Se25  1  0.25703900  0.09075500  0.43254000  1
  Se  Se26  1  0.23028100  0.07889500  0.69115000  1
  Se  Se27  1  0.24292700  0.08687700  0.93348300  1
  Se  Se28  1  0.77344500  0.91471400  0.04632000  1
  Se  Se29  1  0.74326300  0.90680600  0.30722200  1
  Se  Se30  1  0.74054000  0.91130400  0.55906800  1
  Se  Se31  1  0.76597900  0.91453800  0.80069000  1
  Se  Se32  1  0.52257300  0.41665200  0.24618900  1
  Se  Se33  1  0.52130500  0.41411900  0.49472800  1
  Se  Se34  1  0.52167600  0.41458900  0.74450500  1
  Se  Se35  1  0.52086400  0.41543600  0.99483900  1
  Se  Se36  1  0.83737000  0.74132700  0.17861500  1
  Se  Se37  1  0.83371600  0.74296100  0.43254000  1
  Se  Se38  1  0.84861400  0.76971900  0.69115000  1
  Se  Se39  1  0.84395000  0.75707300  0.93348300  1
  Se  Se40  1  0.66666700  0.33333300  0.11700300  1
  Se  Se41  1  0.66666700  0.33333300  0.36473400  1
  Se  Se42  1  0.66666700  0.33333300  0.61461800  1
  Se  Se43  1  0.66666700  0.33333300  0.86636400  1
  Se  Se44  1  0.58334800  0.10592200  0.24618900  1
  Se  Se45  1  0.58588100  0.10718600  0.49472800  1
  Se  Se46  1  0.58541100  0.10708700  0.74450500  1
  Se  Se47  1  0.58456400  0.10542700  0.99483900  1
  Se  Se48  1  0.89407800  0.47742700  0.24618900  1
  Se  Se49  1  0.89281400  0.47869500  0.49472800  1
  Se  Se50  1  0.89291300  0.47832400  0.74450500  1
  Se  Se51  1  0.89457300  0.47913600  0.99483900  1
  Se  Se52  1  0.90395700  0.16263000  0.17861500  1
  Se  Se53  1  0.92110500  0.15138600  0.69115000  1
  Se  Se54  1  0.91312300  0.15605000  0.93348300  1
  Se  Se55  1  0.90924500  0.16628400  0.43254000  1
loop_
_geom_bond_atom_site_label_1
_geom_bond_atom_site_label_2
_geom_bond_distance
_geom_bond_site_symmetry_2
Pr0 Se0 2.892706 1_555
Pr0 Se36 2.968480 1_455
Pr0 Se24 2.968570 1_565
Pr0 Se12 3.174725 1_555
Pr0 Se4 3.190836 1_555
Pr0 Se48 3.205020 1_455
Pr0 Se8 3.260080 1_555
Pr0 Se1 3.791961 1_555
Pr1 Se6 2.947727 1_555
Pr1 Se26 2.998586 1_565
Pr1 Se38 3.011800 1_455
Pr1 Se9 3.028156 1_555
Pr1 Se3 3.098066 1_555
Pr1 Se2 3.199498 1_555
Pr1 Se14 3.206687 1_555
Pr1 Se50 3.219651 1_455
Pr2 Se25 2.952900 1_565
Pr2 Se37 2.961162 1_455
Pr2 Se5 3.041390 1_555
Pr2 Se10 3.129337 1_555
Pr2 Se3 3.143846 1_555
Pr2 Se49 3.220716 1_455
Pr2 Se13 3.246436 1_555
Pr2 Se0 3.247852 1_555
Pr3 Se27 2.964582 1_565
Pr3 Se39 2.985685 1_455
Pr3 Se1 2.990299 1_556
Pr3 Se7 3.048055 1_555
Pr3 Se11 3.109898 1_555
Pr3 Se15 3.185434 1_555
Pr3 Se51 3.216890 1_455
Pr3 Se2 3.481997 1_555
Pr4 Se17 2.892706 1_555
Pr4 Se24 2.968480 1_555
Pr4 Se52 2.968570 1_455
Pr4 Se12 3.174734 1_555
Pr4 Se20 3.190836 1_555
Pr4 Se32 3.205017 1_555
Pr4 Se4 3.260080 1_555
Pr4 Se16 3.791961 1_555
Pr5 Se55 2.952900 1_455
Pr5 Se25 2.961162 1_555
Pr5 Se22 3.041390 1_555
Pr5 Se5 3.129337 1_555
Pr5 Se18 3.143844 1_555
Pr5 Se33 3.220716 1_555
Pr5 Se13 3.246446 1_555
Pr5 Se17 3.247852 1_555
Pr6 Se21 2.947731 1_555
Pr6 Se53 2.998584 1_455
Pr6 Se26 3.011789 1_555
Pr6 Se6 3.028165 1_555
Pr6 Se18 3.098061 1_555
Pr6 Se19 3.199495 1_555
Pr6 Se14 3.206705 1_555
Pr6 Se34 3.219648 1_555
Pr7 Se54 2.964582 1_455
Pr7 Se27 2.985685 1_555
Pr7 Se16 2.990299 1_556
Pr7 Se23 3.048055 1_555
Pr7 Se7 3.109898 1_555
Pr7 Se15 3.185444 1_555
Pr7 Se35 3.216893 1_555
Pr7 Se19 3.481997 1_555
Pr8 Se29 2.892706 1_555
Pr8 Se52 2.968480 1_565
Pr8 Se36 2.968570 1_555
Pr8 Se12 3.174732 1_555
Pr8 Se8 3.190836 1_555
Pr8 Se44 3.205026 1_565
Pr8 Se20 3.260080 1_555
Pr8 Se28 3.791961 1_555
Pr9 Se9 2.947736 1_555
Pr9 Se38 2.998576 1_555
Pr9 Se53 3.011794 1_565
Pr9 Se21 3.028157 1_555
Pr9 Se30 3.098060 1_555
Pr9 Se31 3.199494 1_555
Pr9 Se14 3.206701 1_555
Pr9 Se46 3.219657 1_565
Pr10 Se37 2.952900 1_555
Pr10 Se55 2.961162 1_565
Pr10 Se10 3.041390 1_555
Pr10 Se22 3.129337 1_555
Pr10 Se30 3.143843 1_555
Pr10 Se45 3.220716 1_565
Pr10 Se13 3.246444 1_555
Pr10 Se29 3.247852 1_555
Pr11 Se39 2.964582 1_555
Pr11 Se54 2.985685 1_565
Pr11 Se28 2.990299 1_556
Pr11 Se11 3.048055 1_555
Pr11 Se23 3.109898 1_555
Pr11 Se15 3.185442 1_555
Pr11 Se47 3.216884 1_565
Pr11 Se31 3.481997 1_555
Pr12 Se24 2.901598 1_555
Pr12 Se1 3.034634 1_545
Pr12 Se47 3.060859 1_554
Pr12 Se40 3.065403 1_555
Pr12 Se16 3.068693 1_555
Pr12 Se35 3.140489 1_554
Pr12 Se8 3.163768 1_545
Pr12 Se27 3.469655 1_554
Pr13 Se17 2.961416 1_555
Pr13 Se0 2.963480 1_545
Pr13 Se25 3.043219 1_555
Pr13 Se44 3.069867 1_555
Pr13 Se32 3.147004 1_555
Pr13 Se41 3.210419 1_555
Pr13 Se10 3.223922 1_545
Pr13 Se24 3.405091 1_555
Pr14 Se18 2.913786 1_555
Pr14 Se3 2.938943 1_545
Pr14 Se45 3.004215 1_555
Pr14 Se25 3.046442 1_555
Pr14 Se33 3.090393 1_555
Pr14 Se9 3.248308 1_545
Pr14 Se42 3.393217 1_555
Pr14 Se26 3.545918 1_555
Pr15 Se2 2.973849 1_545
Pr15 Se19 2.990122 1_555
Pr15 Se46 3.018836 1_555
Pr15 Se34 3.103666 1_555
Pr15 Se11 3.176180 1_545
Pr15 Se27 3.176446 1_555
Pr15 Se26 3.177852 1_555
Pr15 Se43 3.180592 1_555
Pr16 Se36 2.901598 1_555
Pr16 Se28 3.034634 1_555
Pr16 Se35 3.060854 1_554
Pr16 Se40 3.065405 1_555
Pr16 Se1 3.068693 1_655
Pr16 Se51 3.140496 1_554
Pr16 Se20 3.163768 1_555
Pr16 Se39 3.469655 1_554
Pr17 Se0 2.961416 1_655
Pr17 Se29 2.963480 1_555
Pr17 Se37 3.043219 1_555
Pr17 Se32 3.069872 1_555
Pr17 Se48 3.146996 1_555
Pr17 Se41 3.210421 1_555
Pr17 Se22 3.223922 1_555
Pr17 Se36 3.405091 1_555
Pr18 Se3 2.913777 1_655
Pr18 Se30 2.938949 1_555
Pr18 Se33 3.004215 1_555
Pr18 Se37 3.046442 1_555
Pr18 Se49 3.090393 1_555
Pr18 Se21 3.248308 1_555
Pr18 Se42 3.393219 1_555
Pr18 Se38 3.545918 1_555
Pr19 Se31 2.973844 1_555
Pr19 Se2 2.990130 1_655
Pr19 Se34 3.018830 1_555
Pr19 Se50 3.103673 1_555
Pr19 Se23 3.176171 1_555
Pr19 Se39 3.176447 1_555
Pr19 Se38 3.177852 1_555
Pr19 Se43 3.180596 1_555
Pr20 Se52 2.901598 1_555
Pr20 Se16 3.034634 1_655
Pr20 Se51 3.060851 1_554
Pr20 Se40 3.065396 1_555
Pr20 Se28 3.068693 1_545
Pr20 Se47 3.140488 1_554
Pr20 Se4 3.163768 1_655
Pr20 Se54 3.469655 1_554
Pr21 Se29 2.961416 1_545
Pr21 Se17 2.963480 1_655
Pr21 Se55 3.043219 1_555
Pr21 Se48 3.069876 1_555
Pr21 Se44 3.147004 1_555
Pr21 Se41 3.210412 1_555
Pr21 Se5 3.223922 1_655
Pr21 Se52 3.405091 1_555
Pr22 Se30 2.913776 1_545
Pr22 Se18 2.938938 1_655
Pr22 Se49 3.004215 1_555
Pr22 Se55 3.046442 1_555
Pr22 Se45 3.090393 1_555
Pr22 Se6 3.248308 1_655
Pr22 Se42 3.393210 1_555
Pr22 Se53 3.545918 1_555
Pr23 Se19 2.973854 1_655
Pr23 Se31 2.990132 1_545
Pr23 Se50 3.018827 1_555
Pr23 Se46 3.103665 1_555
Pr23 Se7 3.176174 1_655
Pr23 Se54 3.176450 1_555
Pr23 Se53 3.177856 1_555
Pr23 Se43 3.180577 1_555
Se1 Si5 2.462109 1_564
Se2 Si0 2.617705 1_565
Se4 Si1 2.292439 1_555
Se5 Si2 2.305760 1_555
Se6 Si3 2.336759 1_555
Se7 Si4 2.313702 1_555
Se8 Si1 2.292438 1_555
Se9 Si3 2.336757 1_555
Se10 Si2 2.305758 1_555
Se11 Si4 2.313700 1_555
Se12 Si2 2.280129 1_555
Se13 Si3 2.232109 1_555
Se14 Si4 2.242094 1_555
Se15 Si1 2.292433 1_556
Se16 Si5 2.462109 1_554
Se19 Si0 2.617705 1_555
Se20 Si1 2.292447 1_555
Se21 Si3 2.336767 1_555
Se22 Si2 2.305767 1_555
Se23 Si4 2.313709 1_555
Se26 Si0 2.499141 1_555
Se27 Si5 2.729215 1_555
Se28 Si5 2.462109 1_664
Se31 Si0 2.617705 1_665
Se32 Si7 2.294372 1_555
Se33 Si6 2.313579 1_555
Se34 Si8 2.323323 1_555
Se35 Si9 2.304045 1_555
Se38 Si0 2.499141 1_665
Se39 Si5 2.729215 1_665
Se40 Si7 2.302418 1_555
Se41 Si6 2.252152 1_555
Se42 Si8 2.225737 1_555
Se43 Si9 2.276394 1_555
Se44 Si7 2.294353 1_555
Se45 Si6 2.313569 1_555
Se46 Si8 2.323314 1_555
Se47 Si9 2.304045 1_555
Se48 Si7 2.294356 1_555
Se49 Si6 2.313571 1_555
Se50 Si8 2.323315 1_555
Se51 Si9 2.304045 1_555
Se53 Si0 2.499141 1_655
Se54 Si5 2.729215 1_655
