# generated using pymatgen
data_KBaAsSe3
_symmetry_space_group_name_H-M   'P 1'
_cell_length_a   9.24268500
_cell_length_b   9.46659800
_cell_length_c   9.55754468
_cell_angle_alpha   71.76003678
_cell_angle_beta   90.00000000
_cell_angle_gamma   90.00000000
_symmetry_Int_Tables_number   1
_chemical_formula_structural   KBaAsSe3
_chemical_formula_sum   'K4 Ba4 As4 Se12'
_cell_volume   794.23595132
_cell_formula_units_Z   4
loop_
 _symmetry_equiv_pos_site_id
 _symmetry_equiv_pos_as_xyz
  1  'x, y, z'
loop_
 _atom_site_type_symbol
 _atom_site_label
 _atom_site_symmetry_multiplicity
 _atom_site_fract_x
 _atom_site_fract_y
 _atom_site_fract_z
 _atom_site_occupancy
  K  K0  1  0.58023400  0.22396300  0.40833400  1
  K  K1  1  0.08023400  0.27603700  0.59166600  1
  K  K2  1  0.41976600  0.77603700  0.59166600  1
  K  K3  1  0.91976600  0.72396300  0.40833400  1
  Ba  Ba0  1  0.21483800  0.46485800  0.08315200  1
  Ba  Ba1  1  0.71483800  0.03514200  0.91684800  1
  Ba  Ba2  1  0.78516200  0.53514200  0.91684800  1
  Ba  Ba3  1  0.28516200  0.96485800  0.08315200  1
  As  As0  1  0.95700100  0.14105800  0.24447700  1
  As  As1  1  0.45700100  0.35894200  0.75552300  1
  As  As2  1  0.04299900  0.85894200  0.75552300  1
  As  As3  1  0.54299900  0.64105800  0.24447700  1
  Se  Se0  1  0.69360200  0.40519100  0.64472900  1
  Se  Se1  1  0.19360200  0.09480900  0.35527100  1
  Se  Se2  1  0.30639800  0.59480900  0.35527100  1
  Se  Se3  1  0.80639800  0.90519100  0.64472900  1
  Se  Se4  1  0.51102800  0.27734800  0.02270200  1
  Se  Se5  1  0.01102800  0.22265200  0.97729800  1
  Se  Se6  1  0.48897200  0.72265200  0.97729800  1
  Se  Se7  1  0.98897200  0.77734800  0.02270200  1
  Se  Se8  1  0.89454100  0.37897600  0.27084400  1
  Se  Se9  1  0.39454100  0.12102400  0.72915600  1
  Se  Se10  1  0.10545900  0.62102400  0.72915600  1
  Se  Se11  1  0.60545900  0.87897600  0.27084400  1
loop_
_geom_bond_atom_site_label_1
_geom_bond_atom_site_label_2
_geom_bond_distance
_geom_bond_site_symmetry_2
K0 Se8 3.333513 1_555
K0 Se9 3.380360 1_555
K0 Se0 3.401826 1_555
K0 Se4 3.617028 1_555
K0 Se3 3.783211 1_545
K0 Se1 3.861381 1_555
K0 Se11 3.890169 1_545
K1 Se9 3.333513 1_555
K1 Se8 3.380360 1_455
K1 Se1 3.401826 1_555
K1 Se5 3.617028 1_555
K1 Se2 3.783211 1_555
K1 Se0 3.861381 1_455
K1 Se10 3.890169 1_555
K2 Se10 3.333513 1_555
K2 Se11 3.380360 1_555
K2 Se2 3.401826 1_555
K2 Se6 3.617028 1_555
K2 Se1 3.783211 1_565
K2 Se3 3.861381 1_555
K2 Se9 3.890169 1_565
K3 Se11 3.333513 1_555
K3 Se10 3.380360 1_655
K3 Se3 3.401826 1_555
K3 Se7 3.617028 1_555
K3 Se0 3.783211 1_555
K3 Se2 3.861381 1_655
K3 Se8 3.890169 1_555
Ba0 Se2 3.316096 1_555
Ba0 Se5 3.358783 1_554
Ba0 Se10 3.394618 1_554
Ba0 Se4 3.408975 1_555
Ba0 Se8 3.424907 1_455
Ba0 Se6 3.442889 1_554
Ba0 Se7 3.517535 1_455
Ba0 Se1 3.656643 1_555
Ba1 Se3 3.316096 1_545
Ba1 Se4 3.358783 1_556
Ba1 Se11 3.394618 1_546
Ba1 Se5 3.408975 1_655
Ba1 Se9 3.424907 1_555
Ba1 Se7 3.442889 1_546
Ba1 Se6 3.517535 1_545
Ba1 Se0 3.656643 1_555
Ba2 Se0 3.316096 1_555
Ba2 Se7 3.358783 1_556
Ba2 Se8 3.394618 1_556
Ba2 Se6 3.408975 1_555
Ba2 Se10 3.424907 1_655
Ba2 Se4 3.442889 1_556
Ba2 Se5 3.517535 1_655
Ba2 Se3 3.656643 1_555
Ba3 Se1 3.316096 1_565
Ba3 Se6 3.358783 1_554
Ba3 Se9 3.394618 1_564
Ba3 Se7 3.408975 1_455
Ba3 Se11 3.424907 1_555
Ba3 Se5 3.442889 1_564
Ba3 Se4 3.517535 1_565
Ba3 Se2 3.656643 1_555
As0 Se1 2.409355 1_655
As0 Se8 2.413467 1_555
As0 Se5 2.476288 1_654
As0 K3 3.780284 1_545
As1 Se0 2.409355 1_555
As1 Se9 2.413467 1_555
As1 Se4 2.476288 1_556
As1 K2 3.780284 1_555
As2 Se3 2.409355 1_455
As2 Se10 2.413467 1_555
As2 Se7 2.476288 1_456
As2 K1 3.780284 1_565
As3 Se2 2.409355 1_555
As3 Se11 2.413467 1_555
As3 Se6 2.476288 1_554
As3 K0 3.780284 1_555
