# generated using pymatgen
data_LaYMg14
_symmetry_space_group_name_H-M   'P 1'
_cell_length_a   6.64600805
_cell_length_b   6.55919412
_cell_length_c   10.54092324
_cell_angle_alpha   90.00000000
_cell_angle_beta   90.00000000
_cell_angle_gamma   119.56883208
_symmetry_Int_Tables_number   1
_chemical_formula_structural   LaYMg14
_chemical_formula_sum   'La1 Y1 Mg14'
_cell_volume   399.66045170
_cell_formula_units_Z   1
loop_
 _symmetry_equiv_pos_site_id
 _symmetry_equiv_pos_as_xyz
  1  'x, y, z'
loop_
 _atom_site_type_symbol
 _atom_site_label
 _atom_site_symmetry_multiplicity
 _atom_site_fract_x
 _atom_site_fract_y
 _atom_site_fract_z
 _atom_site_occupancy
  La  La0  1  0.16979850  0.83489875  0.12500000  1
  Y  Y0  1  0.17345526  0.33672713  0.12500000  1
  Mg  Mg0  1  0.16552029  0.33275965  0.62500000  1
  Mg  Mg1  1  0.16557241  0.83278570  0.62500000  1
  Mg  Mg2  1  0.66446942  0.33375075  0.12500000  1
  Mg  Mg3  1  0.66674975  0.33335341  0.62500000  1
  Mg  Mg4  1  0.66446942  0.83071767  0.12500000  1
  Mg  Mg5  1  0.66674975  0.83339534  0.62500000  1
  Mg  Mg6  1  0.33740714  0.17156706  0.38560366  1
  Mg  Mg7  1  0.33740714  0.17156706  0.86439634  1
  Mg  Mg8  1  0.33740714  0.66584108  0.38560366  1
  Mg  Mg9  1  0.33740714  0.66584108  0.86439634  1
  Mg  Mg10  1  0.82998693  0.16499397  0.37648090  1
  Mg  Mg11  1  0.82998693  0.16499397  0.87351910  1
  Mg  Mg12  1  0.82680637  0.66340369  0.38039685  1
  Mg  Mg13  1  0.82680637  0.66340369  0.86960315  1
loop_
_geom_bond_atom_site_label_1
_geom_bond_atom_site_label_2
_geom_bond_distance
_geom_bond_site_symmetry_2
La0 Y0 3.279665 1_565
La0 Y0 3.279665 1_555
La0 Mg2 3.301206 1_565
La0 Mg4 3.301206 1_555
La0 Mg12 3.343412 1_455
La0 Mg13 3.343412 1_454
La0 Mg2 3.344973 1_455
La0 Mg4 3.344973 1_455
La0 Mg8 3.351949 1_555
La0 Mg9 3.351949 1_554
La0 Mg6 3.351955 1_565
La0 Mg7 3.351955 1_564
Mg0 Mg6 3.159547 1_555
Mg0 Mg7 3.159547 1_555
Mg0 Mg9 3.159553 1_555
Mg0 Mg8 3.159553 1_555
Mg0 Mg10 3.259480 1_455
Mg0 Mg11 3.259480 1_455
Mg0 Mg1 3.279597 1_555
Mg0 Mg1 3.279597 1_545
Mg0 Mg5 3.316756 1_445
Mg0 Mg3 3.316757 1_455
Mg0 Mg5 3.329255 1_555
Mg0 Mg3 3.329255 1_555
Mg1 Mg8 3.178885 1_555
Mg1 Mg9 3.178885 1_555
Mg1 Mg6 3.178892 1_565
Mg1 Mg7 3.178892 1_565
Mg1 Mg12 3.237667 1_455
Mg1 Mg13 3.237667 1_455
Mg1 Mg3 3.317154 1_455
Mg1 Mg5 3.317154 1_455
Mg1 Mg3 3.328857 1_565
Mg1 Mg5 3.328857 1_555
Mg2 Mg4 3.259702 1_555
Mg2 Y0 3.272962 1_555
Mg2 Mg4 3.299492 1_545
Mg2 Mg6 3.334720 1_555
Mg2 Mg7 3.334720 1_554
Mg2 Y0 3.373133 1_655
Mg3 Mg6 3.161086 1_555
Mg3 Mg7 3.161086 1_555
Mg3 Mg5 3.279322 1_545
Mg3 Mg5 3.279872 1_555
Mg4 Y0 3.272962 1_555
Mg4 Mg9 3.334720 1_554
Mg4 Mg8 3.334720 1_555
Mg4 Y0 3.373133 1_665
Mg5 Mg9 3.161086 1_555
Mg5 Mg8 3.161086 1_555
Mg6 Mg8 3.242039 1_555
Mg6 Mg8 3.317155 1_545
Mg6 Y0 3.327443 1_555
Mg7 Mg9 3.242039 1_555
Mg7 Mg9 3.317155 1_545
Mg7 Y0 3.327443 1_556
Mg8 Y0 3.327449 1_555
Mg9 Y0 3.327449 1_556
Mg10 Mg3 3.231290 1_555
Mg10 Mg5 3.231296 1_545
Mg10 Mg2 3.265578 1_555
Mg10 Mg4 3.265585 1_545
Mg10 Mg12 3.279908 1_545
Mg10 Mg12 3.279908 1_555
Mg10 Mg8 3.296581 1_545
Mg10 Mg6 3.296581 1_555
Mg10 Y0 3.311915 1_655
Mg10 Mg8 3.352632 1_655
Mg10 Mg6 3.352632 1_655
Mg11 Mg3 3.231290 1_555
Mg11 Mg5 3.231296 1_545
Mg11 Mg2 3.265578 1_556
Mg11 Mg4 3.265585 1_546
Mg11 Mg13 3.279908 1_545
Mg11 Mg13 3.279908 1_555
Mg11 Mg9 3.296581 1_545
Mg11 Mg7 3.296581 1_555
Mg11 Y0 3.311915 1_656
Mg11 Mg9 3.352632 1_655
Mg11 Mg7 3.352632 1_655
Mg12 Mg5 3.192682 1_555
Mg12 Mg3 3.192688 1_555
Mg12 Mg6 3.260932 1_555
Mg12 Mg8 3.260932 1_555
Mg12 Mg4 3.283970 1_555
Mg12 Mg2 3.283976 1_555
Mg12 Mg6 3.386041 1_665
Mg12 Mg8 3.386041 1_655
Mg13 Mg5 3.192682 1_555
Mg13 Mg3 3.192688 1_555
Mg13 Mg7 3.260932 1_555
Mg13 Mg9 3.260932 1_555
Mg13 Mg4 3.283970 1_556
Mg13 Mg2 3.283976 1_556
Mg13 Mg7 3.386041 1_665
Mg13 Mg9 3.386041 1_655
