# generated using pymatgen
data_KSmEuSbO6
_symmetry_space_group_name_H-M   'P 1'
_cell_length_a   8.43760171
_cell_length_b   8.39037251
_cell_length_c   8.50170225
_cell_angle_alpha   90.00000000
_cell_angle_beta   90.00000000
_cell_angle_gamma   90.00000000
_symmetry_Int_Tables_number   1
_chemical_formula_structural   KSmEuSbO6
_chemical_formula_sum   'K4 Sm4 Eu4 Sb4 O24'
_cell_volume   601.87479237
_cell_formula_units_Z   4
loop_
 _symmetry_equiv_pos_site_id
 _symmetry_equiv_pos_as_xyz
  1  'x, y, z'
loop_
 _atom_site_type_symbol
 _atom_site_label
 _atom_site_symmetry_multiplicity
 _atom_site_fract_x
 _atom_site_fract_y
 _atom_site_fract_z
 _atom_site_occupancy
  K  K0  1  0.00000000  0.50000000  0.50000000  1
  K  K1  1  0.50000000  0.50000000  0.00000000  1
  K  K2  1  0.50000000  -0.00000000  0.00000000  1
  K  K3  1  0.00000000  -0.00000000  0.50000000  1
  Sm  Sm0  1  0.25000000  0.25000000  0.25000000  1
  Sm  Sm1  1  0.75000000  0.75000000  0.25000000  1
  Sm  Sm2  1  0.75000000  0.25000000  0.75000000  1
  Sm  Sm3  1  0.25000000  0.75000000  0.75000000  1
  Eu  Eu0  1  0.50000000  -0.00000000  0.50000000  1
  Eu  Eu1  1  0.00000000  0.50000000  0.00000000  1
  Eu  Eu2  1  0.00000000  -0.00000000  0.00000000  1
  Eu  Eu3  1  0.50000000  0.50000000  0.50000000  1
  Sb  Sb0  1  0.75000000  0.75000000  0.75000000  1
  Sb  Sb1  1  0.25000000  0.25000000  0.75000000  1
  Sb  Sb2  1  0.25000000  0.75000000  0.25000000  1
  Sb  Sb3  1  0.75000000  0.25000000  0.25000000  1
  O  O0  1  0.98281563  0.21207168  0.26888832  1
  O  O1  1  0.01718437  0.78792832  0.26888832  1
  O  O2  1  0.01718437  0.21207168  0.73111168  1
  O  O3  1  0.98281563  0.78792832  0.73111168  1
  O  O4  1  0.27618861  0.98289837  0.21310497  1
  O  O5  1  0.27618861  0.01710163  0.78689503  1
  O  O6  1  0.72381139  0.01710163  0.21310497  1
  O  O7  1  0.72381139  0.98289837  0.78689503  1
  O  O8  1  0.19478902  0.28407065  0.98351912  1
  O  O9  1  0.80521098  0.28407065  0.01648088  1
  O  O10  1  0.19478902  0.71592935  0.01648088  1
  O  O11  1  0.80521098  0.71592935  0.98351912  1
  O  O12  1  0.51718437  0.28792832  0.23111168  1
  O  O13  1  0.48281563  0.71207168  0.23111168  1
  O  O14  1  0.48281563  0.28792832  0.76888832  1
  O  O15  1  0.51718437  0.71207168  0.76888832  1
  O  O16  1  0.22381139  0.51710163  0.28689503  1
  O  O17  1  0.22381139  0.48289837  0.71310497  1
  O  O18  1  0.77618861  0.48289837  0.28689503  1
  O  O19  1  0.77618861  0.51710163  0.71310497  1
  O  O20  1  0.30521098  0.21592935  0.51648088  1
  O  O21  1  0.69478902  0.21592935  0.48351912  1
  O  O22  1  0.30521098  0.78407065  0.48351912  1
  O  O23  1  0.69478902  0.78407065  0.51648088  1
loop_
_geom_bond_atom_site_label_1
_geom_bond_atom_site_label_2
_geom_bond_distance
_geom_bond_site_symmetry_2
K0 O17 2.620919 1_555
K0 O18 2.620919 1_455
K0 O19 2.620919 1_455
K0 O16 2.620919 1_555
K0 O0 3.117346 1_455
K0 O1 3.117346 1_555
K0 O3 3.117346 1_455
K0 O2 3.117346 1_555
K1 O15 2.654761 1_554
K1 O12 2.654761 1_555
K1 O13 2.654761 1_555
K1 O14 2.654761 1_554
K1 O9 3.151808 1_555
K1 O10 3.151808 1_555
K1 O11 3.151808 1_554
K1 O8 3.151808 1_554
K2 O5 2.620919 1_554
K2 O4 2.620919 1_545
K2 O7 2.620919 1_544
K2 O6 2.620919 1_555
K2 O13 3.117346 1_545
K2 O12 3.117346 1_555
K2 O14 3.117346 1_554
K2 O15 3.117346 1_544
K3 O1 2.654761 1_545
K3 O3 2.654761 1_445
K3 O0 2.654761 1_455
K3 O2 2.654761 1_555
K3 O20 3.151808 1_555
K3 O22 3.151808 1_545
K3 O21 3.151808 1_455
K3 O23 3.151808 1_445
Eu0 O20 2.450154 1_555
Eu0 O21 2.450154 1_555
Eu0 O23 2.450154 1_545
Eu0 O22 2.450154 1_545
Eu1 O11 2.450154 1_454
Eu1 O9 2.450154 1_455
Eu1 O10 2.450154 1_555
Eu1 O8 2.450154 1_554
Eu2 O9 2.898581 1_455
Eu2 O11 2.898581 1_444
Eu2 O8 2.898581 1_554
Eu2 O10 2.898581 1_545
Eu2 O3 2.900514 1_444
Eu2 O2 2.900514 1_554
Eu2 O1 2.900514 1_545
Eu2 O0 2.900514 1_455
Eu2 O7 2.955278 1_444
Eu2 O5 2.955278 1_554
Eu2 O6 2.955278 1_455
Eu2 O4 2.955278 1_545
Eu3 O21 2.898581 1_555
Eu3 O22 2.898581 1_555
Eu3 O20 2.898581 1_555
Eu3 O23 2.898581 1_555
Eu3 O12 2.900514 1_555
Eu3 O13 2.900514 1_555
Eu3 O14 2.900514 1_555
Eu3 O15 2.900514 1_555
Eu3 O19 2.955278 1_555
Eu3 O17 2.955278 1_555
Eu3 O18 2.955278 1_555
Eu3 O16 2.955278 1_555
O0 Sb3 1.996484 1_555
O0 Sm0 2.282402 1_655
O1 Sb2 1.996484 1_555
O1 Sm1 2.282402 1_455
O2 Sb1 1.996484 1_555
O2 Sm2 2.282402 1_455
O3 Sb0 1.996484 1_555
O3 Sm3 2.282402 1_655
O4 Sb2 1.991416 1_555
O4 Sm0 2.273690 1_565
O5 Sb1 1.991416 1_555
O5 Sm3 2.273690 1_545
O6 Sb3 1.991416 1_555
O6 Sm1 2.273690 1_545
O7 Sb0 1.991416 1_555
O7 Sm2 2.273690 1_565
O8 Sb1 2.059172 1_555
O8 Sm0 2.330539 1_556
O9 Sb3 2.059172 1_555
O9 Sm2 2.330539 1_554
O10 Sb2 2.059172 1_555
O10 Sm3 2.330539 1_554
O11 Sb0 2.059172 1_555
O11 Sm1 2.330539 1_556
O12 Sb3 1.996484 1_555
O12 Sm0 2.282402 1_555
O13 Sb2 1.996484 1_555
O13 Sm1 2.282402 1_555
O14 Sb1 1.996484 1_555
O14 Sm2 2.282402 1_555
O15 Sb0 1.996484 1_555
O15 Sm3 2.282402 1_555
O16 Sb2 1.991416 1_555
O16 Sm0 2.273690 1_555
O17 Sb1 1.991416 1_555
O17 Sm3 2.273690 1_555
O18 Sb3 1.991416 1_555
O18 Sm1 2.273690 1_555
O19 Sb0 1.991416 1_555
O19 Sm2 2.273690 1_555
O20 Sb1 2.059172 1_555
O20 Sm0 2.330539 1_555
O21 Sb3 2.059172 1_555
O21 Sm2 2.330539 1_555
O22 Sb2 2.059172 1_555
O22 Sm3 2.330539 1_555
O23 Sb0 2.059172 1_555
O23 Sm1 2.330539 1_555
