# generated using pymatgen
data_CoO
_symmetry_space_group_name_H-M   'P 1'
_cell_length_a   10.26261537
_cell_length_b   10.21236637
_cell_length_c   10.03293133
_cell_angle_alpha   86.16193491
_cell_angle_beta   90.09382928
_cell_angle_gamma   95.93021240
_symmetry_Int_Tables_number   1
_chemical_formula_structural   CoO
_chemical_formula_sum   'Co40 O40'
_cell_volume   1043.51966144
_cell_formula_units_Z   40
loop_
 _symmetry_equiv_pos_site_id
 _symmetry_equiv_pos_as_xyz
  1  'x, y, z'
loop_
 _atom_site_type_symbol
 _atom_site_label
 _atom_site_symmetry_multiplicity
 _atom_site_fract_x
 _atom_site_fract_y
 _atom_site_fract_z
 _atom_site_occupancy
  Co  Co0  1  0.26818488  0.82104037  0.15262752  1
  Co  Co1  1  0.22585168  0.35985782  0.53348610  1
  Co  Co2  1  0.35353495  0.10888424  0.05515065  1
  Co  Co3  1  0.52200333  0.52016423  0.53295112  1
  Co  Co4  1  0.89675392  0.94214818  0.65732542  1
  Co  Co5  1  0.63829952  0.03875710  0.67653136  1
  Co  Co6  1  0.33840923  0.00696372  0.56122421  1
  Co  Co7  1  0.63071836  0.57009164  0.98146433  1
  Co  Co8  1  0.01237817  0.39689919  0.73305291  1
  Co  Co9  1  0.17061954  0.56180908  0.02451738  1
  Co  Co10  1  0.02870344  0.02103530  0.15791459  1
  Co  Co11  1  0.73428855  0.27198357  0.56040498  1
  Co  Co12  1  0.02007555  0.14964786  0.45869790  1
  Co  Co13  1  0.87174046  0.37761489  0.05082303  1
  Co  Co14  1  0.81031324  0.54369278  0.63835562  1
  Co  Co15  1  0.34810903  0.74957752  0.55133835  1
  Co  Co16  1  0.56972764  0.26201284  0.88696149  1
  Co  Co17  1  0.51334716  0.95205762  0.37393802  1
  Co  Co18  1  0.77643073  0.86090151  0.96695470  1
  Co  Co19  1  0.24068819  0.86746615  0.82204972  1
  Co  Co20  1  0.33958614  0.55439296  0.77850365  1
  Co  Co21  1  0.07702225  0.67599325  0.56841009  1
  Co  Co22  1  0.59605320  0.72967837  0.26701430  1
  Co  Co23  1  0.52199742  0.92499822  0.02597113  1
  Co  Co24  1  0.98464638  0.68297717  0.22552947  1
  Co  Co25  1  0.17509395  0.28509104  0.93939285  1
  Co  Co26  1  0.89512677  0.11463278  0.87238259  1
  Co  Co27  1  0.28365268  0.60316282  0.34601533  1
  Co  Co28  1  0.70385884  0.46484970  0.27866267  1
  Co  Co29  1  0.11469932  0.06636151  0.70772998  1
  Co  Co30  1  0.37219767  0.23300673  0.70953826  1
  Co  Co31  1  0.79290110  0.75747912  0.47756854  1
  Co  Co32  1  0.18817362  0.90566456  0.38599198  1
  Co  Co33  1  0.59799176  0.24212131  0.15800821  1
  Co  Co34  1  0.48683035  0.25399367  0.39373300  1
  Co  Co35  1  0.77306543  0.04590735  0.36612735  1
  Co  Co36  1  0.99361417  0.44641540  0.39120211  1
  Co  Co37  1  0.23910463  0.26933201  0.23693662  1
  Co  Co38  1  0.96708102  0.71154192  0.86672580  1
  Co  Co39  1  0.56633850  0.75025798  0.71105837  1
  O  O0  1  0.94077975  0.67447215  0.41705393  1
  O  O1  1  0.76659650  0.97521174  0.80054975  1
  O  O2  1  0.04438057  0.88124222  0.77414494  1
  O  O3  1  0.12127167  0.30881616  0.36932274  1
  O  O4  1  0.65556693  0.84665949  0.10634425  1
  O  O5  1  0.54762782  0.11113970  0.02403695  1
  O  O6  1  0.17464896  0.15609731  0.09335312  1
  O  O7  1  0.60967434  0.57637339  0.17527131  1
  O  O8  1  0.87986192  0.44426874  0.22980341  1
  O  O9  1  0.59766765  0.21740438  0.70299761  1
  O  O10  1  0.60824082  0.12986650  0.32976778  1
  O  O11  1  0.35131830  0.95337075  0.28204614  1
  O  O12  1  0.09532053  0.85239798  0.22665938  1
  O  O13  1  0.67896076  0.86568007  0.38221380  1
  O  O14  1  0.12960937  0.00457579  0.52241288  1
  O  O15  1  0.88623761  0.39962919  0.56462642  1
  O  O16  1  0.94015211  0.09293236  0.29627820  1
  O  O17  1  0.66708593  0.64199352  0.60549757  1
  O  O18  1  0.41756278  0.27978007  0.20732367  1
  O  O19  1  0.95692278  0.29068388  0.91274162  1
  O  O20  1  0.38283796  0.42373173  0.64819447  1
  O  O21  1  0.35542954  0.20166359  0.52546568  1
  O  O22  1  0.33832029  0.90653731  0.98601009  1
  O  O23  1  0.50208581  0.90784738  0.60364698  1
  O  O24  1  0.10305134  0.25071517  0.66682845  1
  O  O25  1  0.01927045  0.64918642  0.04301704  1
  O  O26  1  0.91394084  0.98515633  0.01171172  1
  O  O27  1  0.62432737  0.39307632  0.44433327  1
  O  O28  1  0.97146172  0.58614437  0.72708055  1
  O  O29  1  0.24351986  0.71884362  0.70105113  1
  O  O30  1  0.44983510  0.66826201  0.41786513  1
  O  O31  1  0.36719018  0.26055561  0.89176992  1
  O  O32  1  0.18312708  0.46720915  0.87501450  1
  O  O33  1  0.27358551  0.62978248  0.16325290  1
  O  O34  1  0.81762391  0.09570334  0.55513178  1
  O  O35  1  0.77451678  0.69943663  0.90078325  1
  O  O36  1  0.68037099  0.37554306  0.00687458  1
  O  O37  1  0.30184929  0.05209651  0.74791593  1
  O  O38  1  0.15809746  0.53637162  0.48065827  1
  O  O39  1  0.49773261  0.63474246  0.85438319  1
loop_
_geom_bond_atom_site_label_1
_geom_bond_atom_site_label_2
_geom_bond_distance
_geom_bond_site_symmetry_2
Co0 O22 1.937410 1_554
Co0 O33 1.955475 1_555
Co0 O12 1.988720 1_555
Co0 O11 2.057474 1_555
Co1 O3 2.032213 1_555
Co1 O24 2.033709 1_555
Co1 O38 2.035620 1_555
Co1 O20 2.054961 1_555
Co1 O21 2.201477 1_555
Co2 O6 1.989882 1_555
Co2 O5 2.014258 1_555
Co2 O31 2.172956 1_554
Co2 O22 2.213736 1_544
Co2 O18 2.434147 1_555
Co2 O11 2.685814 1_545
Co3 O20 1.977069 1_555
Co3 O27 2.004209 1_555
Co3 O17 2.007367 1_555
Co3 O30 2.040606 1_555
Co4 O1 2.031637 1_555
Co4 O2 2.036468 1_655
Co4 O34 2.053051 1_565
Co5 O1 1.940626 1_545
Co5 O9 1.948148 1_555
Co5 O23 2.004375 1_545
Co5 O34 2.213576 1_555
Co6 O21 1.986375 1_555
Co6 O37 2.003797 1_555
Co6 O23 2.078125 1_545
Co6 O14 2.175245 1_555
Co7 O7 1.962801 1_556
Co7 O39 1.997989 1_555
Co7 O35 2.008946 1_555
Co7 O36 2.100713 1_556
Co8 O24 1.989459 1_555
Co8 O28 2.016711 1_455
Co8 O19 2.089163 1_455
Co8 O15 2.127449 1_455
Co8 O32 2.341704 1_555
Co9 O32 1.849300 1_554
Co9 O33 1.873206 1_555
Co9 O25 1.884876 1_555
Co10 O16 1.889579 1_455
Co10 O26 1.910533 1_445
Co10 O12 1.997938 1_545
Co10 O6 2.005513 1_555
Co11 O15 1.928709 1_555
Co11 O9 2.015326 1_555
Co11 O27 2.061600 1_555
Co11 O34 2.075122 1_555
Co12 O16 1.920278 1_455
Co12 O3 1.995976 1_555
Co12 O14 2.020436 1_555
Co12 O34 2.292392 1_455
Co12 O24 2.500389 1_555
Co13 O19 1.949502 1_554
Co13 O8 1.961184 1_555
Co13 O36 2.010423 1_555
Co14 O17 1.880437 1_555
Co14 O28 1.901083 1_555
Co14 O15 1.924393 1_555
Co15 O29 1.838299 1_555
Co15 O30 1.976194 1_555
Co15 O23 2.228903 1_555
Co16 O9 1.958989 1_555
Co16 O5 1.990457 1_556
Co16 O36 1.997800 1_556
Co16 O31 2.077695 1_555
Co17 O11 1.900824 1_555
Co17 O10 1.992579 1_565
Co17 O13 1.993314 1_555
Co17 O23 2.319358 1_555
Co18 O35 1.816579 1_555
Co18 O4 1.859201 1_556
Co18 O26 1.872843 1_556
Co18 O1 1.980698 1_555
Co19 O22 1.966985 1_555
Co19 O29 2.008519 1_555
Co19 O37 2.017814 1_565
Co19 O2 2.087072 1_555
Co20 O39 1.921301 1_555
Co20 O32 1.975546 1_555
Co20 O20 2.011126 1_555
Co20 O29 2.135703 1_555
Co21 O38 1.978918 1_555
Co21 O28 2.038252 1_455
Co21 O0 2.062260 1_455
Co21 O29 2.190464 1_555
Co22 O7 1.885858 1_555
Co22 O13 1.989052 1_555
Co22 O4 1.998348 1_555
Co22 O30 2.149795 1_555
Co23 O4 1.818219 1_555
Co23 O5 1.890744 1_565
Co23 O22 1.919310 1_554
Co24 O25 1.926256 1_655
Co24 O0 1.968498 1_555
Co24 O12 1.969834 1_655
Co24 O8 2.558412 1_555
Co25 O32 1.921126 1_555
Co25 O6 1.961572 1_556
Co25 O31 2.073334 1_555
Co25 O19 2.260604 1_455
Co26 O26 1.882590 1_546
Co26 O19 1.913010 1_555
Co26 O1 2.008171 1_545
Co27 O33 1.839911 1_555
Co27 O38 1.910791 1_555
Co27 O30 1.922521 1_555
Co28 O7 1.836702 1_555
Co28 O8 1.908444 1_555
Co28 O27 1.919360 1_555
Co29 O24 1.915754 1_555
Co29 O37 1.979920 1_555
Co29 O14 2.014047 1_555
Co29 O2 2.022332 1_545
Co30 O31 1.869945 1_555
Co30 O21 1.899844 1_555
Co30 O37 1.926883 1_555
Co30 O20 1.995055 1_555
Co30 O9 2.337084 1_555
Co31 O13 1.904042 1_555
Co31 O0 1.930838 1_555
Co31 O17 2.047831 1_555
Co32 O14 1.888952 1_565
Co32 O12 1.940028 1_555
Co32 O11 1.974173 1_555
Co33 O5 1.989633 1_555
Co33 O18 1.999257 1_555
Co33 O10 2.013633 1_555
Co33 O36 2.088080 1_555
Co34 O21 1.900857 1_555
Co34 O27 1.986541 1_555
Co34 O10 2.002281 1_555
Co34 O18 2.010184 1_555
Co35 O16 1.857636 1_555
Co35 O13 1.984893 1_545
Co35 O10 1.996328 1_555
Co35 O34 2.035131 1_555
Co36 O8 1.994669 1_555
Co36 O3 2.040054 1_655
Co36 O15 2.063067 1_555
Co36 O38 2.069756 1_655
Co36 O0 2.475436 1_555
Co37 O18 1.846893 1_555
Co37 O3 1.888604 1_555
Co37 O6 1.977843 1_555
Co38 O25 1.933218 1_656
Co38 O28 1.963979 1_555
Co38 O35 1.995878 1_555
Co38 O2 1.999589 1_655
Co39 O39 1.886724 1_555
Co39 O17 1.951837 1_555
Co39 O23 2.042292 1_555
