# generated using pymatgen
data_Ca8Mn6Cr2O23
_symmetry_space_group_name_H-M   'P 1'
_cell_length_a   7.66272700
_cell_length_b   7.59059700
_cell_length_c   7.64348700
_cell_angle_alpha   90.00000000
_cell_angle_beta   90.00000000
_cell_angle_gamma   90.00000000
_symmetry_Int_Tables_number   1
_chemical_formula_structural   Ca8Mn6Cr2O23
_chemical_formula_sum   'Ca8 Mn6 Cr2 O23'
_cell_volume   444.58091871
_cell_formula_units_Z   1
loop_
 _symmetry_equiv_pos_site_id
 _symmetry_equiv_pos_as_xyz
  1  'x, y, z'
loop_
 _atom_site_type_symbol
 _atom_site_label
 _atom_site_symmetry_multiplicity
 _atom_site_fract_x
 _atom_site_fract_y
 _atom_site_fract_z
 _atom_site_occupancy
  Ca  Ca0  1  0.25481000  0.26017100  0.25151500  1
  Ca  Ca1  1  0.26152600  0.26305100  0.74104900  1
  Ca  Ca2  1  0.25481000  0.73982900  0.25151500  1
  Ca  Ca3  1  0.26152600  0.73694900  0.74104900  1
  Ca  Ca4  1  0.74519000  0.26017100  0.25151500  1
  Ca  Ca5  1  0.73847400  0.26305100  0.74104900  1
  Ca  Ca6  1  0.74519000  0.73982900  0.25151500  1
  Ca  Ca7  1  0.73847400  0.73694900  0.74104900  1
  Mn  Mn0  1  0.00000000  0.00000000  0.50422600  1
  Mn  Mn1  1  0.00000000  0.50000000  0.00267400  1
  Mn  Mn2  1  0.00000000  0.50000000  0.49608200  1
  Mn  Mn3  1  0.50000000  0.00000000  0.49565800  1
  Mn  Mn4  1  0.50000000  0.50000000  0.99873900  1
  Mn  Mn5  1  0.50000000  0.50000000  0.49736200  1
  Cr  Cr0  1  0.00000000  0.00000000  0.99293300  1
  Cr  Cr1  1  0.50000000  0.00000000  0.00486200  1
  O  O0  1  0.00000000  0.00000000  0.75935800  1
  O  O1  1  0.00000000  0.50000000  0.25082100  1
  O  O2  1  0.00000000  0.50000000  0.75068400  1
  O  O3  1  0.50000000  0.00000000  0.24781100  1
  O  O4  1  0.50000000  0.00000000  0.75019000  1
  O  O5  1  0.50000000  0.50000000  0.24848400  1
  O  O6  1  0.50000000  0.50000000  0.74930600  1
  O  O7  1  0.24124800  0.00000000  0.03098400  1
  O  O8  1  0.24767200  0.00000000  0.47408100  1
  O  O9  1  0.24910700  0.50000000  0.99395100  1
  O  O10  1  0.24929200  0.50000000  0.50617700  1
  O  O11  1  0.75875200  0.00000000  0.03098400  1
  O  O12  1  0.75232800  0.00000000  0.47408100  1
  O  O13  1  0.75089300  0.50000000  0.99395100  1
  O  O14  1  0.75070800  0.50000000  0.50617700  1
  O  O15  1  0.00000000  0.23943800  0.03824900  1
  O  O16  1  0.00000000  0.24722100  0.47247200  1
  O  O17  1  0.00000000  0.76056200  0.03824900  1
  O  O18  1  0.00000000  0.75277900  0.47247200  1
  O  O19  1  0.50000000  0.24806800  0.99398100  1
  O  O20  1  0.50000000  0.24903500  0.50538400  1
  O  O21  1  0.50000000  0.75193200  0.99398100  1
  O  O22  1  0.50000000  0.75096500  0.50538400  1
loop_
_geom_bond_atom_site_label_1
_geom_bond_atom_site_label_2
_geom_bond_distance
_geom_bond_site_symmetry_2
Ca0 O15 2.548409 1_555
Ca0 O16 2.583485 1_555
Ca0 O7 2.598496 1_555
Ca0 O8 2.607116 1_555
Ca0 O5 2.616207 1_555
Ca0 O10 2.665463 1_555
Ca0 O1 2.669543 1_555
Ca0 O9 2.681727 1_554
Ca0 O20 2.702304 1_555
Ca0 O19 2.722728 1_554
Ca0 O3 2.725954 1_555
Ca1 O10 2.542948 1_555
Ca1 O6 2.564788 1_555
Ca1 O20 2.568123 1_555
Ca1 O9 2.642093 1_555
Ca1 O19 2.662661 1_555
Ca1 O2 2.693762 1_555
Ca1 O4 2.707582 1_555
Ca1 O0 2.832398 1_555
Ca1 O8 2.856930 1_555
Ca1 O16 2.871362 1_555
Ca1 O7 2.987001 1_556
Ca1 O15 3.034554 1_556
Ca2 O17 2.548409 1_555
Ca2 O18 2.583485 1_555
Ca2 O7 2.598496 1_565
Ca2 O8 2.607116 1_565
Ca2 O5 2.616207 1_555
Ca2 O10 2.665463 1_555
Ca2 O1 2.669543 1_555
Ca2 O9 2.681727 1_554
Ca2 O22 2.702304 1_555
Ca2 O21 2.722728 1_554
Ca2 O3 2.725954 1_565
Ca3 O10 2.542948 1_555
Ca3 O6 2.564788 1_555
Ca3 O22 2.568123 1_555
Ca3 O9 2.642093 1_555
Ca3 O21 2.662661 1_555
Ca3 O2 2.693762 1_555
Ca3 O4 2.707582 1_565
Ca3 O0 2.832398 1_565
Ca3 O8 2.856930 1_565
Ca3 O18 2.871362 1_555
Ca3 O7 2.987001 1_566
Ca3 O17 3.034554 1_556
Ca4 O15 2.548409 1_655
Ca4 O16 2.583485 1_655
Ca4 O11 2.598496 1_555
Ca4 O12 2.607116 1_555
Ca4 O5 2.616207 1_555
Ca4 O14 2.665463 1_555
Ca4 O1 2.669543 1_655
Ca4 O13 2.681727 1_554
Ca4 O20 2.702304 1_555
Ca4 O19 2.722728 1_554
Ca4 O3 2.725954 1_555
Ca5 O14 2.542948 1_555
Ca5 O6 2.564788 1_555
Ca5 O20 2.568123 1_555
Ca5 O13 2.642093 1_555
Ca5 O19 2.662661 1_555
Ca5 O2 2.693762 1_655
Ca5 O4 2.707582 1_555
Ca5 O0 2.832398 1_655
Ca5 O12 2.856930 1_555
Ca5 O16 2.871362 1_655
Ca5 O11 2.987001 1_556
Ca5 O15 3.034554 1_656
Ca6 O17 2.548409 1_655
Ca6 O18 2.583485 1_655
Ca6 O11 2.598496 1_565
Ca6 O12 2.607116 1_565
Ca6 O5 2.616207 1_555
Ca6 O14 2.665463 1_555
Ca6 O1 2.669543 1_655
Ca6 O13 2.681727 1_554
Ca6 O22 2.702304 1_555
Ca6 O21 2.722728 1_554
Ca6 O3 2.725954 1_565
Ca7 O14 2.542948 1_555
Ca7 O6 2.564788 1_555
Ca7 O22 2.568123 1_555
Ca7 O13 2.642093 1_555
Ca7 O21 2.662661 1_555
Ca7 O2 2.693762 1_655
Ca7 O4 2.707582 1_565
Ca7 O0 2.832398 1_665
Ca7 O12 2.856930 1_565
Ca7 O18 2.871362 1_655
Ca7 O11 2.987001 1_566
Ca7 O17 3.034554 1_656
Mn0 O16 1.892186 1_555
Mn0 O18 1.892186 1_545
Mn0 O8 1.911779 1_555
Mn0 O12 1.911779 1_455
Mn0 O0 1.950098 1_555
Mn1 O1 1.896708 1_555
Mn1 O9 1.910003 1_554
Mn1 O13 1.910003 1_454
Mn1 O2 1.926082 1_554
Mn1 O17 1.996426 1_555
Mn1 O15 1.996426 1_555
Mn2 O1 1.874649 1_555
Mn2 O10 1.911814 1_555
Mn2 O14 1.911814 1_455
Mn2 O18 1.927211 1_555
Mn2 O16 1.927211 1_555
Mn2 O2 1.946047 1_555
Mn3 O20 1.891786 1_555
Mn3 O22 1.891786 1_545
Mn3 O3 1.894415 1_555
Mn3 O12 1.940542 1_555
Mn3 O8 1.940542 1_555
Mn3 O4 1.945512 1_555
Mn4 O6 1.906538 1_555
Mn4 O5 1.908923 1_556
Mn4 O21 1.912660 1_555
Mn4 O19 1.912660 1_555
Mn4 O13 1.922873 1_555
Mn4 O9 1.922873 1_555
Mn5 O5 1.902296 1_555
Mn5 O22 1.905961 1_555
Mn5 O20 1.905961 1_555
Mn5 O14 1.922288 1_555
Mn5 O10 1.922288 1_555
Mn5 O6 1.925731 1_555
Cr0 O0 1.785327 1_555
Cr0 O15 1.850189 1_556
Cr0 O17 1.850189 1_546
Cr0 O7 1.871357 1_556
Cr0 O11 1.871357 1_456
Cr1 O3 1.856978 1_555
Cr1 O19 1.884820 1_554
Cr1 O21 1.884820 1_544
Cr1 O4 1.946582 1_554
Cr1 O7 1.992774 1_555
Cr1 O11 1.992774 1_555
