# generated using pymatgen
data_Zr(SiO)2
_symmetry_space_group_name_H-M   'P 1'
_cell_length_a   10.07828951
_cell_length_b   10.07828951
_cell_length_c   10.07828951
_cell_angle_alpha   131.49722535
_cell_angle_beta   131.49722535
_cell_angle_gamma   71.02427338
_symmetry_Int_Tables_number   1
_chemical_formula_structural   Zr(SiO)2
_chemical_formula_sum   'Zr4 Si8 O8'
_cell_volume   562.31134151
_cell_formula_units_Z   4
loop_
 _symmetry_equiv_pos_site_id
 _symmetry_equiv_pos_as_xyz
  1  'x, y, z'
loop_
 _atom_site_type_symbol
 _atom_site_label
 _atom_site_symmetry_multiplicity
 _atom_site_fract_x
 _atom_site_fract_y
 _atom_site_fract_z
 _atom_site_occupancy
  Zr  Zr0  1  0.87500000  0.12500000  0.25000000  1
  Zr  Zr1  1  0.87500000  0.62500000  0.75000000  1
  Zr  Zr2  1  0.37500000  0.12500000  0.25000000  1
  Zr  Zr3  1  0.87500000  0.12500000  0.75000000  1
  Si  Si0  1  0.65555500  0.36579300  0.71023800  1
  Si  Si1  1  0.65555500  0.94531700  0.28976200  1
  Si  Si2  1  0.69531700  0.90555500  0.78976200  1
  Si  Si3  1  0.09444500  0.30468300  0.21023800  1
  Si  Si4  1  0.09444500  0.88420700  0.78976200  1
  Si  Si5  1  0.11579300  0.90555500  0.21023800  1
  Si  Si6  1  0.05468300  0.34444500  0.71023800  1
  Si  Si7  1  0.63420700  0.34444500  0.28976200  1
  O  O0  1  0.74995300  0.52111100  0.77115800  1
  O  O1  1  0.74995300  0.97879500  0.22884200  1
  O  O2  1  0.72879500  0.99995300  0.72884200  1
  O  O3  1  0.00004700  0.27120500  0.27115800  1
  O  O4  1  0.00004700  0.72888900  0.72884200  1
  O  O5  1  0.27111100  0.99995300  0.27115800  1
  O  O6  1  0.02120500  0.25004700  0.77115800  1
  O  O7  1  0.47888900  0.25004700  0.22884200  1
loop_
_geom_bond_atom_site_label_1
_geom_bond_atom_site_label_2
_geom_bond_distance
_geom_bond_site_symmetry_2
O0 Si0 1.628870 1_555
O0 Zr1 2.059148 1_555
O1 Si1 1.628870 1_555
O1 Zr0 2.059148 1_565
O2 Si2 1.628870 1_555
O2 Zr3 2.059148 1_565
O3 Si3 1.628870 1_555
O3 Zr0 2.059148 1_455
O4 Si4 1.628870 1_555
O4 Zr1 2.059148 1_455
O5 Si5 1.628870 1_555
O5 Zr2 2.059148 1_565
O6 Si6 1.628870 1_555
O6 Zr3 2.059148 1_455
O7 Si7 1.628870 1_555
O7 Zr2 2.059148 1_555
