# generated using pymatgen
data_Hf2ZnRh
_symmetry_space_group_name_H-M   'P 1'
_cell_length_a   10.96323135
_cell_length_b   10.96323135
_cell_length_c   10.96323135
_cell_angle_alpha   124.86049306
_cell_angle_beta   118.44656838
_cell_angle_gamma   87.25337873
_symmetry_Int_Tables_number   1
_chemical_formula_structural   Hf2ZnRh
_chemical_formula_sum   'Hf2 Zn1 Rh1'
_cell_volume   903.55482224
_cell_formula_units_Z   1
loop_
 _symmetry_equiv_pos_site_id
 _symmetry_equiv_pos_as_xyz
  1  'x, y, z'
loop_
 _atom_site_type_symbol
 _atom_site_label
 _atom_site_symmetry_multiplicity
 _atom_site_fract_x
 _atom_site_fract_y
 _atom_site_fract_z
 _atom_site_occupancy
  Hf  Hf0  1  0.00000000  0.27714900  0.27714900  1
  Hf  Hf1  1  0.00000000  0.72285100  0.72285100  1
  Zn  Zn0  1  0.00000000  0.00000000  0.00000000  1
  Rh  Rh0  1  0.00000000  0.50000000  0.50000000  1
loop_
_geom_bond_atom_site_label_1
_geom_bond_atom_site_label_2
_geom_bond_distance
_geom_bond_site_symmetry_2
Hf0 Rh0 2.261533 1_555
Hf0 Zn0 2.812559 1_555
Hf1 Rh0 2.261533 1_555
Hf1 Zn0 2.812559 1_566
