# generated using pymatgen
data_Nd5Te7MoCl3O23
_symmetry_space_group_name_H-M   'P 1'
_cell_length_a   10.02058963
_cell_length_b   10.02058963
_cell_length_c   18.49143495
_cell_angle_alpha   87.28986932
_cell_angle_beta   87.28986932
_cell_angle_gamma   134.61889162
_symmetry_Int_Tables_number   1
_chemical_formula_structural   Nd5Te7MoCl3O23
_chemical_formula_sum   'Nd10 Te14 Mo2 Cl6 O46'
_cell_volume   1311.66997595
_cell_formula_units_Z   2
loop_
 _symmetry_equiv_pos_site_id
 _symmetry_equiv_pos_as_xyz
  1  'x, y, z'
loop_
 _atom_site_type_symbol
 _atom_site_label
 _atom_site_symmetry_multiplicity
 _atom_site_fract_x
 _atom_site_fract_y
 _atom_site_fract_z
 _atom_site_occupancy
  Nd  Nd0  1  0.74235400  0.52100700  0.86267600  1
  Nd  Nd1  1  0.52093900  0.74221200  0.86298700  1
  Nd  Nd2  1  0.25778800  0.47906100  0.13701300  1
  Nd  Nd3  1  0.47899300  0.25764600  0.13732400  1
  Nd  Nd4  1  0.24047100  0.75952900  0.50000000  1
  Nd  Nd5  1  0.75717600  0.24282400  0.50000000  1
  Nd  Nd6  1  0.17986600  0.69851500  0.73818400  1
  Nd  Nd7  1  0.69846100  0.18184400  0.73825400  1
  Nd  Nd8  1  0.81815600  0.30153900  0.26174600  1
  Nd  Nd9  1  0.30148500  0.82013400  0.26181600  1
  Te  Te0  1  0.29884500  0.95869800  0.89002300  1
  Te  Te1  1  0.95874100  0.29866000  0.89000900  1
  Te  Te2  1  0.70134000  0.04125900  0.10999100  1
  Te  Te3  1  0.04130200  0.70115500  0.10997700  1
  Te  Te4  1  0.84929100  0.63700700  0.64144900  1
  Te  Te5  1  0.63460200  0.84741100  0.64256900  1
  Te  Te6  1  0.15258900  0.36539800  0.35743100  1
  Te  Te7  1  0.36299300  0.15070900  0.35855100  1
  Te  Te8  1  0.40457100  0.16165600  0.61460300  1
  Te  Te9  1  0.16282500  0.40616600  0.61519300  1
  Te  Te10  1  0.59383400  0.83717500  0.38480700  1
  Te  Te11  1  0.83834400  0.59542900  0.38539700  1
  Te  Te12  1  0.99640700  0.99637800  0.76237900  1
  Te  Te13  1  0.00362200  0.00359300  0.23762100  1
  Mo  Mo0  1  0.26497600  0.26494800  0.97658300  1
  Mo  Mo1  1  0.73505200  0.73502400  0.02341700  1
  Cl  Cl0  1  0.43721300  0.43799100  0.71422600  1
  Cl  Cl1  1  0.56200900  0.56278700  0.28577400  1
  Cl  Cl2  1  0.69668000  0.30332000  0.00000000  1
  Cl  Cl3  1  0.30333000  0.69667000  0.00000000  1
  Cl  Cl4  1  0.49956000  0.50044000  0.50000000  1
  Cl  Cl5  1  0.03022100  0.96977900  0.50000000  1
  O  O0  1  0.48496100  0.48497000  0.92244900  1
  O  O1  1  0.51503000  0.51503900  0.07755100  1
  O  O2  1  0.42865500  0.06599400  0.53456600  1
  O  O3  1  0.06566900  0.42550700  0.53429900  1
  O  O4  1  0.57449300  0.93433100  0.46570100  1
  O  O5  1  0.93400600  0.57134500  0.46543400  1
  O  O6  1  0.40286300  0.02558100  0.69131900  1
  O  O7  1  0.02564200  0.40285700  0.69156800  1
  O  O8  1  0.59714300  0.97435800  0.30843200  1
  O  O9  1  0.97441900  0.59713700  0.30868100  1
  O  O10  1  0.47894100  0.20468100  0.84031400  1
  O  O11  1  0.20472100  0.47895300  0.84036700  1
  O  O12  1  0.52104700  0.79527900  0.15963300  1
  O  O13  1  0.79531900  0.52105900  0.15968600  1
  O  O14  1  0.03817800  0.89090100  0.69178700  1
  O  O15  1  0.89056100  0.03736900  0.69135300  1
  O  O16  1  0.96263100  0.10943900  0.30864700  1
  O  O17  1  0.10909900  0.96182200  0.30821300  1
  O  O18  1  0.41327300  0.89454900  0.83681200  1
  O  O19  1  0.89438700  0.41304200  0.83687500  1
  O  O20  1  0.58695800  0.10561300  0.16312500  1
  O  O21  1  0.10545100  0.58672700  0.16318800  1
  O  O22  1  0.09601900  0.81690100  0.83001500  1
  O  O23  1  0.81676200  0.09600100  0.82990000  1
  O  O24  1  0.90399900  0.18323800  0.17010000  1
  O  O25  1  0.18309900  0.90398100  0.16998500  1
  O  O26  1  0.07526000  0.70387700  0.61368800  1
  O  O27  1  0.70553100  0.07461700  0.61281200  1
  O  O28  1  0.92538300  0.29446900  0.38718800  1
  O  O29  1  0.29612300  0.92474000  0.38631200  1
  O  O30  1  0.14594300  0.30669900  0.03036700  1
  O  O31  1  0.30669200  0.14594200  0.03037200  1
  O  O32  1  0.85405800  0.69330800  0.96962800  1
  O  O33  1  0.69330100  0.85405700  0.96963300  1
  O  O34  1  0.68310200  0.35511500  0.60910900  1
  O  O35  1  0.35565000  0.68347200  0.60931300  1
  O  O36  1  0.31652800  0.64435000  0.39068700  1
  O  O37  1  0.64488500  0.31689800  0.39089100  1
  O  O38  1  0.11323300  0.11321900  0.91267200  1
  O  O39  1  0.88678100  0.88676700  0.08732800  1
  O  O40  1  0.82425300  0.51742100  0.73346800  1
  O  O41  1  0.51676100  0.82348300  0.73373700  1
  O  O42  1  0.17651700  0.48323900  0.26626300  1
  O  O43  1  0.48257900  0.17574700  0.26653200  1
  O  O44  1  0.76482700  0.76496800  0.81092100  1
  O  O45  1  0.23503200  0.23517300  0.18907900  1
loop_
_geom_bond_atom_site_label_1
_geom_bond_atom_site_label_2
_geom_bond_distance
_geom_bond_site_symmetry_2
Nd0 O10 2.378949 1_555
Nd0 O44 2.434721 1_555
Nd0 O32 2.441839 1_555
Nd0 O19 2.452431 1_555
Nd0 O40 2.499479 1_555
Nd0 O0 2.527600 1_555
Nd0 O22 2.565672 1_655
Nd1 O11 2.379446 1_555
Nd1 O44 2.434228 1_555
Nd1 O33 2.437205 1_555
Nd1 O18 2.453879 1_555
Nd1 O41 2.500091 1_555
Nd1 O0 2.524397 1_555
Nd1 O23 2.567164 1_565
Nd2 O12 2.379446 1_555
Nd2 O45 2.434228 1_555
Nd2 O30 2.437205 1_555
Nd2 O21 2.453879 1_555
Nd2 O42 2.500091 1_555
Nd2 O1 2.524397 1_555
Nd2 O24 2.567164 1_455
Nd3 O13 2.378949 1_555
Nd3 O45 2.434721 1_555
Nd3 O31 2.441839 1_555
Nd3 O20 2.452431 1_555
Nd3 O43 2.499479 1_555
Nd3 O1 2.527600 1_555
Nd3 O25 2.565672 1_545
Nd4 O2 2.357938 1_565
Nd4 O5 2.357938 1_455
Nd4 O26 2.394635 1_555
Nd4 O29 2.394635 1_555
Nd4 O4 2.476228 1_555
Nd4 O3 2.476228 1_555
Nd4 O36 2.703596 1_555
Nd4 O35 2.703596 1_555
Nd5 O3 2.378045 1_655
Nd5 O4 2.378045 1_545
Nd5 O27 2.408425 1_555
Nd5 O28 2.408425 1_555
Nd5 O2 2.425905 1_555
Nd5 O5 2.425905 1_555
Nd5 O34 2.670968 1_555
Nd5 O37 2.670968 1_555
Nd6 O6 2.397068 1_565
Nd6 O7 2.417517 1_555
Nd6 O22 2.540173 1_555
Nd6 O26 2.587850 1_555
Nd6 O18 2.635012 1_555
Nd6 O40 2.638031 1_455
Nd6 O41 2.645162 1_555
Nd6 O19 2.685872 1_455
Nd6 O35 2.968875 1_555
Nd6 O11 2.982289 1_555
Nd7 O7 2.398022 1_655
Nd7 O6 2.415580 1_555
Nd7 O23 2.549846 1_555
Nd7 O27 2.620528 1_555
Nd7 O19 2.626035 1_555
Nd7 O40 2.628922 1_555
Nd7 O41 2.659931 1_545
Nd7 O18 2.688896 1_545
Nd7 O34 2.959611 1_555
Nd7 O10 2.967861 1_555
Nd8 O8 2.398022 1_545
Nd8 O9 2.415580 1_555
Nd8 O24 2.549846 1_555
Nd8 O28 2.620528 1_555
Nd8 O20 2.626035 1_555
Nd8 O43 2.628922 1_555
Nd8 O42 2.659931 1_655
Nd8 O21 2.688896 1_655
Nd8 O37 2.959611 1_555
Nd8 O13 2.967861 1_555
Nd9 O9 2.397068 1_455
Nd9 O8 2.417517 1_555
Nd9 O25 2.540173 1_555
Nd9 O29 2.587850 1_555
Nd9 O21 2.635012 1_555
Nd9 O43 2.638031 1_565
Nd9 O42 2.645162 1_555
Nd9 O20 2.685872 1_565
Nd9 O36 2.968875 1_555
Nd9 O12 2.982289 1_555
Mo0 O38 1.764257 1_555
Mo0 O31 1.792636 1_556
Mo0 O30 1.793058 1_556
Mo0 O0 1.864808 1_555
Mo1 O39 1.764257 1_555
Mo1 O32 1.792636 1_554
Mo1 O33 1.793058 1_554
Mo1 O1 1.864808 1_555
Cl2 Nd0 3.062631 1_554
Cl2 Nd3 3.062631 1_555
Cl3 Nd1 3.058171 1_554
Cl3 Nd2 3.058171 1_555
O2 Te8 1.895495 1_555
O3 Te9 1.896918 1_555
O4 Te10 1.896918 1_555
O5 Te11 1.895495 1_555
O6 Te8 1.911533 1_555
O7 Te9 1.906113 1_555
O8 Te10 1.906113 1_555
O9 Te11 1.911533 1_555
O10 Te0 1.886115 1_545
O11 Te1 1.885658 1_455
O12 Te2 1.885658 1_565
O13 Te3 1.886115 1_655
O14 Te12 1.922638 1_455
O14 Te4 2.132515 1_455
O15 Te12 1.926485 1_545
O15 Te5 2.130340 1_545
O16 Te13 1.926485 1_655
O16 Te6 2.130340 1_655
O17 Te13 1.922638 1_565
O17 Te7 2.132515 1_565
O18 Te0 1.919550 1_555
O19 Te1 1.920066 1_555
O20 Te2 1.920066 1_555
O21 Te3 1.919550 1_555
O22 Te0 1.920046 1_555
O23 Te1 1.920384 1_555
O24 Te2 1.920384 1_555
O25 Te3 1.920046 1_555
O26 Te4 1.888353 1_455
O27 Te5 1.887545 1_545
O28 Te6 1.887545 1_655
O29 Te7 1.888353 1_565
O34 Te8 1.977913 1_555
O34 Te4 2.180766 1_555
O35 Te9 1.968732 1_555
O35 Te5 2.167430 1_555
O36 Te10 1.968732 1_555
O36 Te6 2.167430 1_555
O37 Te11 1.977913 1_555
O37 Te7 2.180766 1_555
O40 Te4 1.933571 1_555
O41 Te5 1.915637 1_555
O42 Te6 1.915637 1_555
O43 Te7 1.933571 1_555
O44 Te12 1.901276 1_555
O45 Te13 1.901276 1_555
