# generated using pymatgen
data_NaV3(SO7)2
_symmetry_space_group_name_H-M   'P 1'
_cell_length_a   7.17039171
_cell_length_b   7.17039171
_cell_length_c   7.17039187
_cell_angle_alpha   58.97683947
_cell_angle_beta   58.97683947
_cell_angle_gamma   58.97683227
_symmetry_Int_Tables_number   1
_chemical_formula_structural   NaV3(SO7)2
_chemical_formula_sum   'Na1 V3 S2 O14'
_cell_volume   254.59869674
_cell_formula_units_Z   1
loop_
 _symmetry_equiv_pos_site_id
 _symmetry_equiv_pos_as_xyz
  1  'x, y, z'
loop_
 _atom_site_type_symbol
 _atom_site_label
 _atom_site_symmetry_multiplicity
 _atom_site_fract_x
 _atom_site_fract_y
 _atom_site_fract_z
 _atom_site_occupancy
  Na  Na0  1  0.00000000  0.00000000  0.00000000  1
  V  V0  1  0.50000000  0.95836100  0.04163900  1
  V  V1  1  0.04163900  0.50000000  0.95836100  1
  V  V2  1  0.95836100  0.04163900  0.50000000  1
  S  S0  1  0.69557300  0.69557300  0.69557300  1
  S  S1  1  0.30442700  0.30442700  0.30442700  1
  O  O0  1  0.61501100  0.61501100  0.61501100  1
  O  O1  1  0.38498900  0.38498900  0.38498900  1
  O  O2  1  0.49510400  0.84022500  0.84527400  1
  O  O3  1  0.84527400  0.49510400  0.84022500  1
  O  O4  1  0.84022500  0.84527400  0.49510400  1
  O  O5  1  0.50489600  0.15472600  0.15977500  1
  O  O6  1  0.15977500  0.50489600  0.15472600  1
  O  O7  1  0.15472600  0.15977500  0.50489600  1
  O  O8  1  0.73320200  0.73084900  0.10528100  1
  O  O9  1  0.10528100  0.73320200  0.73084900  1
  O  O10  1  0.73084900  0.10528100  0.73320200  1
  O  O11  1  0.26915100  0.26679800  0.89471900  1
  O  O12  1  0.89471900  0.26915100  0.26679800  1
  O  O13  1  0.26679800  0.89471900  0.26915100  1
loop_
_geom_bond_atom_site_label_1
_geom_bond_atom_site_label_2
_geom_bond_distance
_geom_bond_site_symmetry_2
Na0 O6 2.864357 1_545
Na0 O2 2.864357 1_544
Na0 O3 2.864357 1_454
Na0 O5 2.864357 1_455
Na0 O7 2.864357 1_554
Na0 O4 2.864357 1_445
Na0 O12 2.961333 1_455
Na0 O10 2.961333 1_454
Na0 O13 2.961333 1_545
Na0 O9 2.961333 1_544
Na0 O11 2.961333 1_554
Na0 O8 2.961333 1_445
O0 S0 1.425818 1_555
O1 S1 1.425818 1_555
O2 S0 1.521390 1_555
O2 V0 2.003069 1_556
O3 S0 1.521390 1_555
O3 V1 2.003069 1_655
O4 S0 1.521390 1_555
O4 V2 2.003070 1_565
O5 S1 1.521390 1_555
O5 V0 2.003069 1_545
O6 S1 1.521390 1_555
O6 V1 2.003069 1_554
O7 S1 1.521390 1_555
O7 V2 2.003070 1_455
O8 V0 1.695001 1_555
O8 V1 2.088874 1_654
O9 V1 1.695001 1_555
O9 V2 2.088874 1_465
O10 V2 1.695001 1_555
O10 V0 2.088874 1_546
O11 V1 1.695001 1_555
O11 V0 2.088874 1_546
O12 V2 1.695001 1_555
O12 V1 2.088874 1_654
O13 V0 1.695001 1_555
O13 V2 2.088874 1_465
