# generated using pymatgen
data_FePO5
_symmetry_space_group_name_H-M   'P 1'
_cell_length_a   8.52057140
_cell_length_b   8.52057140
_cell_length_c   9.18113128
_cell_angle_alpha   76.21920003
_cell_angle_beta   76.21920003
_cell_angle_gamma   77.29516632
_symmetry_Int_Tables_number   1
_chemical_formula_structural   FePO5
_chemical_formula_sum   'Fe6 P6 O30'
_cell_volume   619.24890116
_cell_formula_units_Z   6
loop_
 _symmetry_equiv_pos_site_id
 _symmetry_equiv_pos_as_xyz
  1  'x, y, z'
loop_
 _atom_site_type_symbol
 _atom_site_label
 _atom_site_symmetry_multiplicity
 _atom_site_fract_x
 _atom_site_fract_y
 _atom_site_fract_z
 _atom_site_occupancy
  Fe  Fe0  1  0.77636400  0.22363600  0.25000000  1
  Fe  Fe1  1  0.22363600  0.77636400  0.75000000  1
  Fe  Fe2  1  0.39674200  0.24783600  0.06911300  1
  Fe  Fe3  1  0.60325800  0.75216400  0.93088700  1
  Fe  Fe4  1  0.75216400  0.60325800  0.43088700  1
  Fe  Fe5  1  0.24783600  0.39674200  0.56911300  1
  P  P0  1  0.65952600  0.92105800  0.17550600  1
  P  P1  1  0.34047400  0.07894200  0.82449400  1
  P  P2  1  0.07894200  0.34047400  0.32449400  1
  P  P3  1  0.92105800  0.65952600  0.67550600  1
  P  P4  1  0.51281400  0.48718600  0.25000000  1
  P  P5  1  0.48718600  0.51281400  0.75000000  1
  O  O0  1  0.79197700  0.02015100  0.18436900  1
  O  O1  1  0.20802300  0.97984900  0.81563100  1
  O  O2  1  0.97984900  0.20802300  0.31563100  1
  O  O3  1  0.02015100  0.79197700  0.68436900  1
  O  O4  1  0.13947900  0.86052100  0.25000000  1
  O  O5  1  0.86052100  0.13947900  0.75000000  1
  O  O6  1  0.73269500  0.83414200  0.03976500  1
  O  O7  1  0.26730500  0.16585800  0.96023500  1
  O  O8  1  0.16585800  0.26730500  0.46023500  1
  O  O9  1  0.83414200  0.73269500  0.53976500  1
  O  O10  1  0.63126800  0.79587800  0.32719700  1
  O  O11  1  0.36873200  0.20412200  0.67280300  1
  O  O12  1  0.20412200  0.36873200  0.17280300  1
  O  O13  1  0.79587800  0.63126800  0.82719700  1
  O  O14  1  0.48921500  0.62970000  0.11532300  1
  O  O15  1  0.51078500  0.37030000  0.88467700  1
  O  O16  1  0.37030000  0.51078500  0.38467700  1
  O  O17  1  0.62970000  0.48921500  0.61532300  1
  O  O18  1  0.70292700  0.11634500  0.44245300  1
  O  O19  1  0.29707300  0.88365500  0.55754700  1
  O  O20  1  0.88365500  0.29707300  0.05754700  1
  O  O21  1  0.11634500  0.70292700  0.94245300  1
  O  O22  1  0.49491800  0.03255800  0.15586900  1
  O  O23  1  0.50508200  0.96744200  0.84413100  1
  O  O24  1  0.96744200  0.50508200  0.34413100  1
  O  O25  1  0.03255800  0.49491800  0.65586900  1
  O  O26  1  0.53686800  0.31776200  0.19953600  1
  O  O27  1  0.46313200  0.68223800  0.80046400  1
  O  O28  1  0.68223800  0.46313200  0.30046400  1
  O  O29  1  0.31776200  0.53686800  0.69953600  1
loop_
_geom_bond_atom_site_label_1
_geom_bond_atom_site_label_2
_geom_bond_distance
_geom_bond_site_symmetry_2
Fe0 O20 1.817868 1_555
Fe0 O18 1.817868 1_555
Fe0 O2 1.935190 1_555
Fe0 O0 1.935190 1_555
Fe0 O28 2.139073 1_555
Fe0 O26 2.139073 1_555
Fe1 O19 1.817868 1_555
Fe1 O21 1.817868 1_555
Fe1 O1 1.935190 1_555
Fe1 O3 1.935190 1_555
Fe1 O27 2.139073 1_555
Fe1 O29 2.139073 1_555
Fe2 O12 1.907939 1_555
Fe2 O22 1.909260 1_555
Fe2 O15 1.928911 1_554
Fe2 O7 1.974896 1_554
Fe2 O26 2.132667 1_555
Fe3 O13 1.907939 1_555
Fe3 O23 1.909260 1_555
Fe3 O14 1.928911 1_556
Fe3 O6 1.974896 1_556
Fe3 O27 2.132667 1_555
Fe4 O10 1.907939 1_555
Fe4 O24 1.909260 1_555
Fe4 O17 1.928911 1_555
Fe4 O9 1.974896 1_555
Fe4 O28 2.132667 1_555
Fe5 O11 1.907939 1_555
Fe5 O25 1.909260 1_555
Fe5 O16 1.928911 1_555
Fe5 O8 1.974896 1_555
Fe5 O29 2.132667 1_555
O0 P0 1.577583 1_545
O1 P1 1.577583 1_565
O2 P2 1.577583 1_655
O3 P3 1.577583 1_455
O6 P0 1.535169 1_555
O7 P1 1.535169 1_555
O8 P2 1.535169 1_555
O9 P3 1.535169 1_555
O10 P0 1.542961 1_555
O11 P1 1.542961 1_555
O12 P2 1.542961 1_555
O13 P3 1.542961 1_555
O14 P4 1.529571 1_555
O15 P5 1.529571 1_555
O16 P4 1.529571 1_555
O17 P5 1.529571 1_555
O22 P0 1.534604 1_545
O23 P1 1.534604 1_565
O24 P2 1.534604 1_655
O25 P3 1.534604 1_455
O26 P4 1.576034 1_555
O27 P5 1.576034 1_555
O28 P4 1.576034 1_555
O29 P5 1.576034 1_555
