# generated using pymatgen
data_Ga2AsP
_symmetry_space_group_name_H-M   'P 1'
_cell_length_a   6.80662642
_cell_length_b   6.80662642
_cell_length_c   6.80662610
_cell_angle_alpha   33.56092459
_cell_angle_beta   33.56092459
_cell_angle_gamma   33.56092772
_symmetry_Int_Tables_number   1
_chemical_formula_structural   Ga2AsP
_chemical_formula_sum   'Ga2 As1 P1'
_cell_volume   85.84481216
_cell_formula_units_Z   1
loop_
 _symmetry_equiv_pos_site_id
 _symmetry_equiv_pos_as_xyz
  1  'x, y, z'
loop_
 _atom_site_type_symbol
 _atom_site_label
 _atom_site_symmetry_multiplicity
 _atom_site_fract_x
 _atom_site_fract_y
 _atom_site_fract_z
 _atom_site_occupancy
  Ga  Ga0  1  0.99755570  0.99755570  0.99755570  1
  Ga  Ga1  1  0.50249104  0.50249104  0.50249104  1
  As  As0  1  0.12493347  0.12493347  0.12493347  1
  P  P0  1  0.62501978  0.62501978  0.62501978  1
loop_
_geom_bond_atom_site_label_1
_geom_bond_atom_site_label_2
_geom_bond_distance
_geom_bond_site_symmetry_2
Ga0 P0 2.391333 1_556
Ga0 P0 2.391334 1_655
Ga0 P0 2.391334 1_565
Ga1 P0 2.358898 1_555
As0 Ga1 2.423582 1_554
As0 Ga1 2.423582 1_455
As0 Ga1 2.423582 1_545
As0 Ga0 2.452251 1_444
