# generated using pymatgen
data_LiTiMnF6
_symmetry_space_group_name_H-M   'P 1'
_cell_length_a   8.91916211
_cell_length_b   8.91916211
_cell_length_c   4.71960800
_cell_angle_alpha   90.00000000
_cell_angle_beta   90.00000000
_cell_angle_gamma   120.00000082
_symmetry_Int_Tables_number   1
_chemical_formula_structural   LiTiMnF6
_chemical_formula_sum   'Li3 Ti3 Mn3 F18'
_cell_volume   325.15068387
_cell_formula_units_Z   3
loop_
 _symmetry_equiv_pos_site_id
 _symmetry_equiv_pos_as_xyz
  1  'x, y, z'
loop_
 _atom_site_type_symbol
 _atom_site_label
 _atom_site_symmetry_multiplicity
 _atom_site_fract_x
 _atom_site_fract_y
 _atom_site_fract_z
 _atom_site_occupancy
  Li  Li0  1  0.00000000  0.00000000  0.00000000  1
  Li  Li1  1  0.33333300  0.66666700  0.49335000  1
  Li  Li2  1  0.66666700  0.33333300  0.50665000  1
  Ti  Ti0  1  0.31445100  0.00000000  0.50000000  1
  Ti  Ti1  1  0.68554900  0.68554900  0.50000000  1
  Ti  Ti2  1  0.00000000  0.31445100  0.50000000  1
  Mn  Mn0  1  0.64767900  0.00000000  0.00000000  1
  Mn  Mn1  1  0.35232100  0.35232100  0.00000000  1
  Mn  Mn2  1  0.00000000  0.64767900  0.00000000  1
  F  F0  1  0.21937300  0.10804800  0.24383400  1
  F  F1  1  0.78020100  0.22019900  0.73081200  1
  F  F2  1  0.77980100  0.56000200  0.73081200  1
  F  F3  1  0.43999800  0.21979900  0.73081200  1
  F  F4  1  0.56000200  0.77980100  0.26918800  1
  F  F5  1  0.21979900  0.43999800  0.26918800  1
  F  F6  1  0.88867600  0.78062700  0.24383400  1
  F  F7  1  0.11132400  0.89195200  0.75616600  1
  F  F8  1  0.89195200  0.11132400  0.24383400  1
  F  F9  1  0.10804800  0.21937300  0.75616600  1
  F  F10  1  0.46531900  0.57207600  0.72385100  1
  F  F11  1  0.78062700  0.88867600  0.75616600  1
  F  F12  1  0.57207600  0.46531900  0.27614900  1
  F  F13  1  0.42792400  0.89324300  0.72385100  1
  F  F14  1  0.10675700  0.53468100  0.72385100  1
  F  F15  1  0.89324300  0.42792400  0.27614900  1
  F  F16  1  0.53468100  0.10675700  0.27614900  1
  F  F17  1  0.22019900  0.78020100  0.26918800  1
loop_
_geom_bond_atom_site_label_1
_geom_bond_atom_site_label_2
_geom_bond_distance
_geom_bond_site_symmetry_2
F0 Ti0 1.981606 1_555
F0 Li0 2.048374 1_555
F0 Mn1 2.212177 1_555
F1 Ti2 2.022026 1_655
F1 Li2 2.045653 1_555
F1 Mn0 2.132373 1_556
F2 Ti1 2.022026 1_555
F2 Li2 2.045659 1_555
F2 Mn2 2.132373 1_656
F3 Ti0 2.022026 1_555
F3 Li2 2.045659 1_555
F3 Mn1 2.132373 1_556
F4 Ti1 2.022026 1_555
F4 Li1 2.045659 1_555
F4 Mn0 2.132373 1_565
F5 Ti2 2.022026 1_555
F5 Li1 2.045659 1_555
F5 Mn1 2.132373 1_555
F6 Ti1 1.981613 1_555
F6 Li0 2.048374 1_665
F6 Mn2 2.212170 1_655
F7 Ti0 1.981612 1_565
F7 Li0 2.048368 1_566
F7 Mn2 2.212177 1_556
F8 Ti2 1.981612 1_655
F8 Li0 2.048368 1_655
F8 Mn0 2.212177 1_555
F9 Ti2 1.981606 1_555
F9 Li0 2.048374 1_556
F9 Mn1 2.212177 1_556
F10 Ti1 2.002704 1_555
F10 Li1 2.067423 1_555
F10 Mn1 2.140256 1_556
F11 Ti1 1.981613 1_555
F11 Li0 2.048374 1_666
F11 Mn0 2.212170 1_566
F12 Ti1 2.002704 1_555
F12 Li2 2.067423 1_555
F12 Mn1 2.140256 1_555
F13 Ti0 2.002704 1_565
F13 Li1 2.067416 1_555
F13 Mn0 2.140256 1_566
F14 Ti2 2.002704 1_555
F14 Li1 2.067417 1_555
F14 Mn2 2.140256 1_556
F15 Ti2 2.002704 1_655
F15 Li2 2.067416 1_555
F15 Mn2 2.140256 1_655
F16 Ti0 2.002704 1_555
F16 Li2 2.067417 1_555
F16 Mn0 2.140256 1_555
F17 Ti0 2.022026 1_565
F17 Li1 2.045653 1_555
F17 Mn2 2.132373 1_555
