# generated using pymatgen
data_Yb2Fe14B
_symmetry_space_group_name_H-M   'P 1'
_cell_length_a   8.69343000
_cell_length_b   8.69343000
_cell_length_c   11.94350800
_cell_angle_alpha   90.00000000
_cell_angle_beta   90.00000000
_cell_angle_gamma   90.00000000
_symmetry_Int_Tables_number   1
_chemical_formula_structural   Yb2Fe14B
_chemical_formula_sum   'Yb8 Fe56 B4'
_cell_volume   902.63927811
_cell_formula_units_Z   4
loop_
 _symmetry_equiv_pos_site_id
 _symmetry_equiv_pos_as_xyz
  1  'x, y, z'
loop_
 _atom_site_type_symbol
 _atom_site_label
 _atom_site_symmetry_multiplicity
 _atom_site_fract_x
 _atom_site_fract_y
 _atom_site_fract_z
 _atom_site_occupancy
  Yb  Yb0  1  0.23004800  0.76995200  0.50000000  1
  Yb  Yb1  1  0.76995200  0.23004800  0.50000000  1
  Yb  Yb2  1  0.26995200  0.26995200  0.00000000  1
  Yb  Yb3  1  0.73004800  0.73004800  0.00000000  1
  Yb  Yb4  1  0.64213200  0.64213200  0.50000000  1
  Yb  Yb5  1  0.35786800  0.35786800  0.50000000  1
  Yb  Yb6  1  0.85786800  0.14213200  0.00000000  1
  Yb  Yb7  1  0.14213200  0.85786800  0.00000000  1
  Fe  Fe0  1  0.00000000  0.50000000  0.50000000  1
  Fe  Fe1  1  0.50000000  0.00000000  0.00000000  1
  Fe  Fe2  1  0.50000000  0.00000000  0.50000000  1
  Fe  Fe3  1  0.00000000  0.50000000  0.00000000  1
  Fe  Fe4  1  0.50000000  0.50000000  0.11385100  1
  Fe  Fe5  1  0.00000000  0.00000000  0.61385100  1
  Fe  Fe6  1  0.50000000  0.50000000  0.88614900  1
  Fe  Fe7  1  0.00000000  0.00000000  0.38614900  1
  Fe  Fe8  1  0.18242200  0.81757800  0.25397500  1
  Fe  Fe9  1  0.81757800  0.18242200  0.25397500  1
  Fe  Fe10  1  0.31757800  0.31757800  0.75397500  1
  Fe  Fe11  1  0.68242200  0.68242200  0.75397500  1
  Fe  Fe12  1  0.81757800  0.18242200  0.74602500  1
  Fe  Fe13  1  0.18242200  0.81757800  0.74602500  1
  Fe  Fe14  1  0.68242200  0.68242200  0.24602500  1
  Fe  Fe15  1  0.31757800  0.31757800  0.24602500  1
  Fe  Fe16  1  0.40317100  0.59682900  0.29456300  1
  Fe  Fe17  1  0.59682900  0.40317100  0.29456300  1
  Fe  Fe18  1  0.09682900  0.09682900  0.79456300  1
  Fe  Fe19  1  0.90317100  0.90317100  0.79456300  1
  Fe  Fe20  1  0.59682900  0.40317100  0.70543700  1
  Fe  Fe21  1  0.40317100  0.59682900  0.70543700  1
  Fe  Fe22  1  0.90317100  0.90317100  0.20543700  1
  Fe  Fe23  1  0.09682900  0.09682900  0.20543700  1
  Fe  Fe24  1  0.14210700  0.53827800  0.32498700  1
  Fe  Fe25  1  0.85789300  0.46172200  0.32498700  1
  Fe  Fe26  1  0.35789300  0.03827800  0.82498700  1
  Fe  Fe27  1  0.64210700  0.96172200  0.82498700  1
  Fe  Fe28  1  0.85789300  0.46172200  0.67501300  1
  Fe  Fe29  1  0.14210700  0.53827800  0.67501300  1
  Fe  Fe30  1  0.64210700  0.96172200  0.17501300  1
  Fe  Fe31  1  0.35789300  0.03827800  0.17501300  1
  Fe  Fe32  1  0.53827800  0.14210700  0.32498700  1
  Fe  Fe33  1  0.46172200  0.85789300  0.32498700  1
  Fe  Fe34  1  0.03827800  0.35789300  0.82498700  1
  Fe  Fe35  1  0.96172200  0.64210700  0.82498700  1
  Fe  Fe36  1  0.46172200  0.85789300  0.67501300  1
  Fe  Fe37  1  0.53827800  0.14210700  0.67501300  1
  Fe  Fe38  1  0.96172200  0.64210700  0.17501300  1
  Fe  Fe39  1  0.03827800  0.35789300  0.17501300  1
  Fe  Fe40  1  0.93289500  0.72324200  0.37510200  1
  Fe  Fe41  1  0.06710500  0.27675800  0.37510200  1
  Fe  Fe42  1  0.56710500  0.22324200  0.87510200  1
  Fe  Fe43  1  0.43289500  0.77675800  0.87510200  1
  Fe  Fe44  1  0.06710500  0.27675800  0.62489800  1
  Fe  Fe45  1  0.93289500  0.72324200  0.62489800  1
  Fe  Fe46  1  0.43289500  0.77675800  0.12489800  1
  Fe  Fe47  1  0.56710500  0.22324200  0.12489800  1
  Fe  Fe48  1  0.72324200  0.93289500  0.37510200  1
  Fe  Fe49  1  0.27675800  0.06710500  0.37510200  1
  Fe  Fe50  1  0.22324200  0.56710500  0.87510200  1
  Fe  Fe51  1  0.77675800  0.43289500  0.87510200  1
  Fe  Fe52  1  0.27675800  0.06710500  0.62489800  1
  Fe  Fe53  1  0.72324200  0.93289500  0.62489800  1
  Fe  Fe54  1  0.77675800  0.43289500  0.12489800  1
  Fe  Fe55  1  0.22324200  0.56710500  0.12489800  1
  B  B0  1  0.87523400  0.87523400  0.50000000  1
  B  B1  1  0.12476600  0.12476600  0.50000000  1
  B  B2  1  0.62476600  0.37523400  0.00000000  1
  B  B3  1  0.37523400  0.62476600  0.00000000  1
loop_
_geom_bond_atom_site_label_1
_geom_bond_atom_site_label_2
_geom_bond_distance
_geom_bond_site_symmetry_2
Fe0 Fe25 2.450748 1_455
Fe0 Fe24 2.450748 1_555
Fe0 Fe29 2.450748 1_555
Fe0 Fe28 2.450748 1_455
Fe0 Fe41 2.516350 1_555
Fe0 Fe44 2.516350 1_555
Fe0 Fe45 2.516350 1_455
Fe0 Fe40 2.516350 1_455
Fe0 Yb0 3.083364 1_555
Fe0 Yb1 3.083364 1_455
Fe0 Yb4 3.347490 1_455
Fe0 Yb5 3.347490 1_555
Fe1 Fe27 2.450748 1_544
Fe1 Fe26 2.450748 1_554
Fe1 Fe31 2.450748 1_555
Fe1 Fe30 2.450748 1_545
Fe1 Fe47 2.516350 1_555
Fe1 Fe42 2.516350 1_554
Fe1 Fe43 2.516350 1_544
Fe1 Fe46 2.516350 1_545
Fe1 Yb2 3.083364 1_555
Fe1 Yb3 3.083364 1_545
Fe1 Yb7 3.347490 1_545
Fe1 Yb6 3.347490 1_555
Fe2 Fe36 2.450748 1_545
Fe2 Fe33 2.450748 1_545
Fe2 Fe32 2.450748 1_555
Fe2 Fe37 2.450748 1_555
Fe2 Fe53 2.516350 1_545
Fe2 Fe52 2.516350 1_555
Fe2 Fe49 2.516350 1_555
Fe2 Fe48 2.516350 1_545
Fe2 Yb1 3.083364 1_555
Fe2 Yb0 3.083364 1_545
Fe2 Yb4 3.347490 1_545
Fe2 Yb5 3.347490 1_555
Fe3 Fe35 2.450748 1_454
Fe3 Fe39 2.450748 1_555
Fe3 Fe34 2.450748 1_554
Fe3 Fe38 2.450748 1_455
Fe3 Fe50 2.516350 1_554
Fe3 Fe55 2.516350 1_555
Fe3 Fe51 2.516350 1_454
Fe3 Fe54 2.516350 1_455
Fe3 Yb2 3.083364 1_555
Fe3 Yb3 3.083364 1_455
Fe3 Yb6 3.347490 1_455
Fe3 Yb7 3.347490 1_555
Fe4 Yb2 3.138192 1_555
Fe4 Yb3 3.138192 1_555
Fe5 Yb1 3.138192 1_455
Fe5 Yb0 3.138192 1_545
Fe6 Yb2 3.138192 1_556
Fe6 Yb3 3.138192 1_556
Fe7 Fe9 2.742632 1_455
Fe7 Fe8 2.742632 1_545
Fe7 Yb0 3.138192 1_545
Fe7 Yb1 3.138192 1_455
Fe8 Yb0 2.996173 1_555
Fe8 Yb7 3.073530 1_555
Fe9 Yb1 2.996173 1_555
Fe9 Yb6 3.073530 1_555
Fe10 Fe34 2.595710 1_555
Fe10 Fe26 2.595710 1_555
Fe10 Fe21 2.604463 1_555
Fe10 Fe20 2.604463 1_555
Fe10 Fe29 2.626322 1_555
Fe10 Fe37 2.626322 1_555
Fe10 Fe52 2.691456 1_555
Fe10 Fe44 2.691456 1_555
Fe10 Fe42 2.733328 1_555
Fe10 Fe50 2.733328 1_555
Fe10 Fe6 2.742632 1_555
Fe10 Fe18 2.756923 1_555
Fe10 Yb2 2.996173 1_556
Fe10 Yb5 3.073530 1_555
Fe11 Fe27 2.595710 1_555
Fe11 Fe35 2.595710 1_555
Fe11 Fe21 2.604463 1_555
Fe11 Fe20 2.604463 1_555
Fe11 Fe28 2.626322 1_555
Fe11 Fe36 2.626322 1_555
Fe11 Fe53 2.691456 1_555
Fe11 Fe45 2.691456 1_555
Fe11 Fe51 2.733328 1_555
Fe11 Fe43 2.733328 1_555
Fe11 Fe6 2.742632 1_555
Fe11 Fe19 2.756923 1_555
Fe11 Yb3 2.996173 1_556
Fe11 Yb4 3.073530 1_555
Fe12 Fe37 2.595710 1_555
Fe12 Fe28 2.595710 1_555
Fe12 Fe19 2.604463 1_545
Fe12 Fe18 2.604463 1_655
Fe12 Fe34 2.626322 1_655
Fe12 Fe27 2.626322 1_545
Fe12 Fe51 2.691456 1_555
Fe12 Fe42 2.691456 1_555
Fe12 Fe44 2.733328 1_655
Fe12 Fe53 2.733328 1_545
Fe12 Fe5 2.742632 1_655
Fe12 Fe20 2.756923 1_555
Fe12 Yb1 2.996173 1_555
Fe12 Yb6 3.073530 1_556
Fe13 Fe29 2.595710 1_555
Fe13 Fe36 2.595710 1_555
Fe13 Fe19 2.604463 1_455
Fe13 Fe18 2.604463 1_565
Fe13 Fe26 2.626322 1_565
Fe13 Fe35 2.626322 1_455
Fe13 Fe43 2.691456 1_555
Fe13 Fe50 2.691456 1_555
Fe13 Fe45 2.733328 1_455
Fe13 Fe52 2.733328 1_565
Fe13 Fe5 2.742632 1_565
Fe13 Fe21 2.756923 1_555
Fe13 Yb0 2.996173 1_555
Fe13 Yb7 3.073530 1_556
Fe14 Fe38 2.595710 1_555
Fe14 Fe30 2.595710 1_555
Fe14 Fe17 2.604463 1_555
Fe14 Fe16 2.604463 1_555
Fe14 Fe33 2.626322 1_555
Fe14 Fe25 2.626322 1_555
Fe14 Fe40 2.691456 1_555
Fe14 Fe48 2.691456 1_555
Fe14 Fe54 2.733328 1_555
Fe14 Fe46 2.733328 1_555
Fe14 Fe4 2.742632 1_555
Fe14 Fe22 2.756923 1_555
Fe14 Yb3 2.996173 1_555
Fe14 Yb4 3.073530 1_555
Fe15 Fe31 2.595710 1_555
Fe15 Fe39 2.595710 1_555
Fe15 Fe17 2.604463 1_555
Fe15 Fe16 2.604463 1_555
Fe15 Fe32 2.626322 1_555
Fe15 Fe24 2.626322 1_555
Fe15 Fe41 2.691456 1_555
Fe15 Fe49 2.691456 1_555
Fe15 Fe55 2.733328 1_555
Fe15 Fe47 2.733328 1_555
Fe15 Fe4 2.742632 1_555
Fe15 Fe23 2.756923 1_555
Fe15 Yb2 2.996173 1_555
Fe15 Yb5 3.073530 1_555
Fe16 Fe24 2.354134 1_555
Fe16 Fe33 2.354134 1_555
Fe16 Fe17 2.380902 1_555
Fe16 Fe4 2.464870 1_555
Fe16 Fe46 2.572892 1_555
Fe16 Fe55 2.572892 1_555
Fe16 Fe8 2.756923 1_555
Fe16 Yb5 3.238982 1_555
Fe16 Yb4 3.238982 1_555
Fe16 Yb0 3.248167 1_555
Fe17 Fe25 2.354134 1_555
Fe17 Fe32 2.354134 1_555
Fe17 Fe4 2.464870 1_555
Fe17 Fe54 2.572892 1_555
Fe17 Fe47 2.572892 1_555
Fe17 Fe9 2.756923 1_555
Fe17 Yb4 3.238982 1_555
Fe17 Yb5 3.238982 1_555
Fe17 Yb1 3.248167 1_555
Fe18 Fe26 2.354134 1_555
Fe18 Fe34 2.354134 1_555
Fe18 Fe19 2.380902 1_445
Fe18 Fe5 2.464870 1_555
Fe18 Fe52 2.572892 1_555
Fe18 Fe44 2.572892 1_555
Fe18 Yb6 3.238982 1_456
Fe18 Yb7 3.238982 1_546
Fe18 Yb2 3.248167 1_556
Fe19 Fe27 2.354134 1_555
Fe19 Fe35 2.354134 1_555
Fe19 Fe5 2.464870 1_665
Fe19 Fe53 2.572892 1_555
Fe19 Fe45 2.572892 1_555
Fe19 Yb6 3.238982 1_566
Fe19 Yb7 3.238982 1_656
Fe19 Yb3 3.248167 1_556
Fe20 Fe37 2.354134 1_555
Fe20 Fe28 2.354134 1_555
Fe20 Fe21 2.380902 1_555
Fe20 Fe6 2.464870 1_555
Fe20 Fe51 2.572892 1_555
Fe20 Fe42 2.572892 1_555
Fe20 Yb5 3.238982 1_555
Fe20 Yb4 3.238982 1_555
Fe20 Yb1 3.248167 1_555
Fe21 Fe36 2.354134 1_555
Fe21 Fe29 2.354134 1_555
Fe21 Fe6 2.464870 1_555
Fe21 Fe43 2.572892 1_555
Fe21 Fe50 2.572892 1_555
Fe21 Yb5 3.238982 1_555
Fe21 Yb4 3.238982 1_555
Fe21 Yb0 3.248167 1_555
Fe22 Fe30 2.354134 1_555
Fe22 Fe38 2.354134 1_555
Fe22 Fe23 2.380902 1_665
Fe22 Fe7 2.464870 1_665
Fe22 Fe40 2.572892 1_555
Fe22 Fe48 2.572892 1_555
Fe22 Fe8 2.604463 1_655
Fe22 Fe9 2.604463 1_565
Fe22 Yb7 3.238982 1_655
Fe22 Yb6 3.238982 1_565
Fe22 Yb3 3.248167 1_555
Fe23 Fe39 2.354134 1_555
Fe23 Fe31 2.354134 1_555
Fe23 Fe7 2.464870 1_555
Fe23 Fe49 2.572892 1_555
Fe23 Fe41 2.572892 1_555
Fe23 Fe8 2.604463 1_545
Fe23 Fe9 2.604463 1_455
Fe23 Yb7 3.238982 1_545
Fe23 Yb6 3.238982 1_455
Fe23 Yb2 3.248167 1_555
Fe24 Fe41 2.439718 1_555
Fe24 Fe40 2.500351 1_455
Fe24 Fe55 2.504253 1_555
Fe24 Fe38 2.546043 1_455
Fe24 Fe39 2.546043 1_555
Fe24 Fe25 2.558859 1_455
Fe24 Fe8 2.595710 1_555
Fe24 Yb0 3.001677 1_555
Fe24 Yb5 3.216723 1_555
Fe25 Fe40 2.439718 1_555
Fe25 Fe41 2.500351 1_655
Fe25 Fe54 2.504253 1_555
Fe25 Fe38 2.546043 1_555
Fe25 Fe39 2.546043 1_655
Fe25 Fe9 2.595710 1_555
Fe25 Yb1 3.001677 1_555
Fe25 Yb4 3.216723 1_555
Fe26 Fe43 2.439718 1_545
Fe26 Fe42 2.500351 1_555
Fe26 Fe52 2.504253 1_555
Fe26 Fe36 2.546043 1_545
Fe26 Fe37 2.546043 1_555
Fe26 Fe27 2.558859 1_545
Fe26 Yb2 3.001677 1_556
Fe26 Yb7 3.216723 1_546
Fe27 Fe42 2.439718 1_565
Fe27 Fe43 2.500351 1_555
Fe27 Fe53 2.504253 1_555
Fe27 Fe36 2.546043 1_555
Fe27 Fe37 2.546043 1_565
Fe27 Yb3 3.001677 1_556
Fe27 Yb6 3.216723 1_566
Fe28 Fe45 2.439718 1_555
Fe28 Fe44 2.500351 1_655
Fe28 Fe51 2.504253 1_555
Fe28 Fe35 2.546043 1_555
Fe28 Fe34 2.546043 1_655
Fe28 Fe29 2.558859 1_655
Fe28 Yb1 3.001677 1_555
Fe28 Yb4 3.216723 1_555
Fe29 Fe44 2.439718 1_555
Fe29 Fe45 2.500351 1_455
Fe29 Fe50 2.504253 1_555
Fe29 Fe34 2.546043 1_555
Fe29 Fe35 2.546043 1_455
Fe29 Yb0 3.001677 1_555
Fe29 Yb5 3.216723 1_555
Fe30 Fe47 2.439718 1_565
Fe30 Fe46 2.500351 1_555
Fe30 Fe48 2.504253 1_555
Fe30 Fe33 2.546043 1_555
Fe30 Fe32 2.546043 1_565
Fe30 Fe31 2.558859 1_565
Fe30 Fe9 2.626322 1_565
Fe30 Yb3 3.001677 1_555
Fe30 Yb6 3.216723 1_565
Fe31 Fe46 2.439718 1_545
Fe31 Fe47 2.500351 1_555
Fe31 Fe49 2.504253 1_555
Fe31 Fe33 2.546043 1_545
Fe31 Fe32 2.546043 1_555
Fe31 Fe8 2.626322 1_545
Fe31 Yb2 3.001677 1_555
Fe31 Yb7 3.216723 1_545
Fe32 Fe49 2.439718 1_555
Fe32 Fe48 2.500351 1_545
Fe32 Fe47 2.504253 1_555
Fe32 Fe33 2.558859 1_545
Fe32 Fe9 2.595710 1_555
Fe32 Yb1 3.001677 1_555
Fe32 Yb5 3.216723 1_555
Fe33 Fe48 2.439718 1_555
Fe33 Fe49 2.500351 1_565
Fe33 Fe46 2.504253 1_555
Fe33 Fe8 2.595710 1_555
Fe33 Yb0 3.001677 1_555
Fe33 Yb4 3.216723 1_555
Fe34 Fe51 2.439718 1_455
Fe34 Fe50 2.500351 1_555
Fe34 Fe44 2.504253 1_555
Fe34 Fe35 2.558859 1_455
Fe34 Yb2 3.001677 1_556
Fe34 Yb6 3.216723 1_456
Fe35 Fe50 2.439718 1_655
Fe35 Fe51 2.500351 1_555
Fe35 Fe45 2.504253 1_555
Fe35 Yb3 3.001677 1_556
Fe35 Yb7 3.216723 1_656
Fe36 Fe53 2.439718 1_555
Fe36 Fe52 2.500351 1_565
Fe36 Fe43 2.504253 1_555
Fe36 Fe37 2.558859 1_565
Fe36 Yb0 3.001677 1_555
Fe36 Yb4 3.216723 1_555
Fe37 Fe52 2.439718 1_555
Fe37 Fe53 2.500351 1_545
Fe37 Fe42 2.504253 1_555
Fe37 Yb1 3.001677 1_555
Fe37 Yb5 3.216723 1_555
Fe38 Fe55 2.439718 1_655
Fe38 Fe54 2.500351 1_555
Fe38 Fe40 2.504253 1_555
Fe38 Fe39 2.558859 1_655
Fe38 Fe8 2.626322 1_655
Fe38 Yb3 3.001677 1_555
Fe38 Yb7 3.216723 1_655
Fe39 Fe54 2.439718 1_455
Fe39 Fe55 2.500351 1_555
Fe39 Fe41 2.504253 1_555
Fe39 Fe9 2.626322 1_455
Fe39 Yb2 3.001677 1_555
Fe39 Yb6 3.216723 1_455
Fe40 Fe8 2.733328 1_655
Fe40 Yb0 3.010557 1_655
Fe40 Yb4 3.018582 1_555
Fe41 Fe9 2.733328 1_455
Fe41 Yb1 3.010557 1_455
Fe41 Yb5 3.018582 1_555
Fe42 Yb2 3.010557 1_556
Fe42 Yb6 3.018582 1_556
Fe43 Yb3 3.010557 1_556
Fe43 Yb7 3.018582 1_556
Fe44 Yb1 3.010557 1_455
Fe44 Yb5 3.018582 1_555
Fe45 Yb0 3.010557 1_655
Fe45 Yb4 3.018582 1_555
Fe46 Fe8 2.691456 1_555
Fe46 Yb3 3.010557 1_555
Fe46 Yb7 3.018582 1_555
Fe47 Fe9 2.691456 1_555
Fe47 Yb2 3.010557 1_555
Fe47 Yb6 3.018582 1_555
Fe48 Fe9 2.733328 1_565
Fe48 Yb1 3.010557 1_565
Fe48 Yb4 3.018582 1_555
Fe49 Fe8 2.733328 1_545
Fe49 Yb0 3.010557 1_545
Fe49 Yb5 3.018582 1_555
Fe50 Yb2 3.010557 1_556
Fe50 Yb7 3.018582 1_556
Fe51 Yb3 3.010557 1_556
Fe51 Yb6 3.018582 1_556
Fe52 Yb0 3.010557 1_545
Fe52 Yb5 3.018582 1_555
Fe53 Yb1 3.010557 1_565
Fe53 Yb4 3.018582 1_555
Fe54 Fe9 2.691456 1_555
Fe54 Yb3 3.010557 1_555
Fe54 Yb6 3.018582 1_555
Fe55 Fe8 2.691456 1_555
Fe55 Yb2 3.010557 1_555
Fe55 Yb7 3.018582 1_555
B0 Fe7 2.049856 1_665
B0 Fe5 2.049856 1_665
B0 Fe45 2.054853 1_555
B0 Fe53 2.054853 1_555
B0 Fe40 2.054853 1_555
B0 Fe48 2.054853 1_555
B0 Yb4 2.865841 1_555
B1 Fe7 2.049856 1_555
B1 Fe5 2.049856 1_555
B1 Fe52 2.054853 1_555
B1 Fe44 2.054853 1_555
B1 Fe49 2.054853 1_555
B1 Fe41 2.054853 1_555
B1 Yb5 2.865841 1_555
B2 Fe4 2.049856 1_555
B2 Fe6 2.049856 1_554
B2 Fe51 2.054853 1_554
B2 Fe54 2.054853 1_555
B2 Fe42 2.054853 1_554
B2 Fe47 2.054853 1_555
B2 Yb6 2.865841 1_555
B3 Fe4 2.049856 1_555
B3 Fe6 2.049856 1_554
B3 Fe43 2.054853 1_554
B3 Fe46 2.054853 1_555
B3 Fe50 2.054853 1_554
B3 Fe55 2.054853 1_555
B3 Yb7 2.865841 1_555
