# generated using pymatgen
data_NaMg14Fe
_symmetry_space_group_name_H-M   'P 1'
_cell_length_a   6.39914807
_cell_length_b   6.39914758
_cell_length_c   9.98590036
_cell_angle_alpha   90.00000000
_cell_angle_beta   90.00000000
_cell_angle_gamma   120.00000247
_symmetry_Int_Tables_number   1
_chemical_formula_structural   NaMg14Fe
_chemical_formula_sum   'Na1 Mg14 Fe1'
_cell_volume   354.12952337
_cell_formula_units_Z   1
loop_
 _symmetry_equiv_pos_site_id
 _symmetry_equiv_pos_as_xyz
  1  'x, y, z'
loop_
 _atom_site_type_symbol
 _atom_site_label
 _atom_site_symmetry_multiplicity
 _atom_site_fract_x
 _atom_site_fract_y
 _atom_site_fract_z
 _atom_site_occupancy
  Na  Na0  1  0.16666700  0.33333300  0.62500000  1
  Mg  Mg0  1  0.15964597  0.82982249  0.12500000  1
  Mg  Mg1  1  0.17410939  0.83705419  0.62500000  1
  Mg  Mg2  1  0.67017751  0.34035403  0.12500000  1
  Mg  Mg3  1  0.66294581  0.32589061  0.62500000  1
  Mg  Mg4  1  0.67017751  0.82982249  0.12500000  1
  Mg  Mg5  1  0.66294581  0.83705419  0.62500000  1
  Mg  Mg6  1  0.32657417  0.17342583  0.35558182  1
  Mg  Mg7  1  0.32657417  0.17342583  0.89441818  1
  Mg  Mg8  1  0.32657417  0.65314935  0.35558182  1
  Mg  Mg9  1  0.32657417  0.65314935  0.89441818  1
  Mg  Mg10  1  0.84685065  0.17342583  0.35558182  1
  Mg  Mg11  1  0.84685065  0.17342583  0.89441818  1
  Mg  Mg12  1  0.83333300  0.66666700  0.38037508  1
  Mg  Mg13  1  0.83333300  0.66666700  0.86962492  1
  Fe  Fe0  1  0.16666700  0.33333300  0.12500000  1
loop_
_geom_bond_atom_site_label_1
_geom_bond_atom_site_label_2
_geom_bond_distance
_geom_bond_site_symmetry_2
Mg0 Mg9 2.988090 1_554
Mg0 Mg8 2.988090 1_555
Mg0 Mg7 2.988097 1_564
Mg0 Mg6 2.988097 1_565
Mg0 Mg12 3.126254 1_455
Mg0 Mg13 3.126254 1_454
Mg0 Mg2 3.132181 1_455
Mg0 Mg4 3.132181 1_455
Mg0 Mg2 3.266967 1_565
Mg0 Mg4 3.266967 1_555
Mg1 Mg12 3.087684 1_455
Mg1 Mg13 3.087684 1_455
Mg1 Mg3 3.128136 1_565
Mg1 Mg5 3.128137 1_555
Mg1 Na0 3.199840 1_555
Mg1 Na0 3.199840 1_565
Mg1 Mg3 3.271011 1_455
Mg1 Mg5 3.271011 1_455
Mg1 Mg8 3.274623 1_555
Mg1 Mg9 3.274623 1_555
Mg1 Mg6 3.274629 1_565
Mg1 Mg7 3.274629 1_565
Mg2 Mg7 2.988097 1_554
Mg2 Mg6 2.988097 1_555
Mg2 Mg4 3.132181 1_555
Mg2 Mg4 3.266967 1_545
Mg3 Mg5 3.128136 1_545
Mg3 Na0 3.199840 1_655
Mg3 Na0 3.199840 1_555
Mg3 Mg5 3.271011 1_555
Mg3 Mg6 3.274629 1_555
Mg3 Mg7 3.274629 1_555
Mg4 Mg9 2.988097 1_554
Mg4 Mg8 2.988097 1_555
Mg5 Na0 3.199840 1_555
Mg5 Na0 3.199840 1_665
Mg5 Mg8 3.274629 1_555
Mg5 Mg9 3.274629 1_555
Mg6 Mg8 3.069822 1_555
Mg6 Na0 3.221708 1_555
Mg6 Mg8 3.329326 1_545
Mg7 Mg9 3.069822 1_555
Mg7 Na0 3.221708 1_555
Mg7 Mg9 3.329326 1_545
Mg8 Na0 3.221714 1_555
Mg9 Na0 3.221714 1_555
Mg10 Mg2 2.988090 1_555
Mg10 Mg4 2.988097 1_545
Mg10 Mg8 3.069822 1_655
Mg10 Mg6 3.069822 1_655
Mg10 Mg12 3.210013 1_555
Mg10 Mg12 3.210013 1_545
Mg10 Na0 3.221714 1_655
Mg10 Mg3 3.274623 1_555
Mg10 Mg5 3.274629 1_545
Mg10 Mg8 3.329326 1_545
Mg10 Mg6 3.329326 1_555
Mg11 Mg2 2.988090 1_556
Mg11 Mg4 2.988097 1_546
Mg11 Mg9 3.069822 1_655
Mg11 Mg7 3.069822 1_655
Mg11 Mg13 3.210013 1_555
Mg11 Mg13 3.210013 1_545
Mg11 Na0 3.221714 1_655
Mg11 Mg3 3.274623 1_555
Mg11 Mg5 3.274629 1_545
Mg11 Mg9 3.329326 1_545
Mg11 Mg7 3.329326 1_555
Mg12 Mg5 3.087677 1_555
Mg12 Mg3 3.087684 1_555
Mg12 Mg4 3.126248 1_555
Mg12 Mg2 3.126254 1_555
Mg12 Mg6 3.210013 1_665
Mg12 Mg6 3.210013 1_555
Mg12 Mg8 3.210013 1_655
Mg12 Mg8 3.210013 1_555
Mg13 Mg5 3.087677 1_555
Mg13 Mg3 3.087684 1_555
Mg13 Mg4 3.126248 1_556
Mg13 Mg2 3.126254 1_556
Mg13 Mg7 3.210013 1_665
Mg13 Mg7 3.210013 1_555
Mg13 Mg9 3.210013 1_655
Mg13 Mg9 3.210013 1_555
Fe0 Mg7 2.905694 1_554
Fe0 Mg6 2.905694 1_555
Fe0 Mg9 2.905701 1_554
Fe0 Mg8 2.905701 1_555
Fe0 Mg11 2.905701 1_454
Fe0 Mg10 2.905701 1_455
Fe0 Mg0 3.199810 1_545
Fe0 Mg4 3.199810 1_445
Fe0 Mg4 3.199810 1_555
Fe0 Mg0 3.199810 1_555
Fe0 Mg2 3.199811 1_555
Fe0 Mg2 3.199811 1_455
