# generated using pymatgen
data_Ba(TmS2)2
_symmetry_space_group_name_H-M   'P 1'
_cell_length_a   3.99069779
_cell_length_b   12.22417586
_cell_length_c   14.37434215
_cell_angle_alpha   90.00000000
_cell_angle_beta   90.00000000
_cell_angle_gamma   90.00000000
_symmetry_Int_Tables_number   1
_chemical_formula_structural   Ba(TmS2)2
_chemical_formula_sum   'Ba4 Tm8 S16'
_cell_volume   701.22341220
_cell_formula_units_Z   4
loop_
 _symmetry_equiv_pos_site_id
 _symmetry_equiv_pos_as_xyz
  1  'x, y, z'
loop_
 _atom_site_type_symbol
 _atom_site_label
 _atom_site_symmetry_multiplicity
 _atom_site_fract_x
 _atom_site_fract_y
 _atom_site_fract_z
 _atom_site_occupancy
  Ba  Ba0  1  0.25000000  0.75789431  0.33783776  1
  Ba  Ba1  1  0.25000000  0.25789431  0.16216224  1
  Ba  Ba2  1  0.75000000  0.24210569  0.66216224  1
  Ba  Ba3  1  0.75000000  0.74210569  0.83783776  1
  Tm  Tm0  1  0.25000000  0.43432326  0.39131917  1
  Tm  Tm1  1  0.25000000  0.93432326  0.10868083  1
  Tm  Tm2  1  0.75000000  0.56567674  0.60868083  1
  Tm  Tm3  1  0.75000000  0.06567674  0.89131917  1
  Tm  Tm4  1  0.25000000  0.42148262  0.89869881  1
  Tm  Tm5  1  0.25000000  0.92148262  0.60130119  1
  Tm  Tm6  1  0.75000000  0.57851738  0.10130119  1
  Tm  Tm7  1  0.75000000  0.07851738  0.39869881  1
  S  S0  1  0.25000000  0.20703737  0.84133014  1
  S  S1  1  0.25000000  0.70703737  0.65866986  1
  S  S2  1  0.75000000  0.79296263  0.15866986  1
  S  S3  1  0.75000000  0.29296263  0.34133014  1
  S  S4  1  0.25000000  0.12162436  0.52260249  1
  S  S5  1  0.25000000  0.62162436  0.97739751  1
  S  S6  1  0.75000000  0.87837564  0.47739751  1
  S  S7  1  0.75000000  0.37837564  0.02260249  1
  S  S8  1  0.25000000  0.02287821  0.28314242  1
  S  S9  1  0.25000000  0.52287821  0.21685758  1
  S  S10  1  0.75000000  0.97712179  0.71685758  1
  S  S11  1  0.75000000  0.47712179  0.78314242  1
  S  S12  1  0.25000000  0.41957155  0.57594013  1
  S  S13  1  0.25000000  0.91957155  0.92405987  1
  S  S14  1  0.75000000  0.58042845  0.42405987  1
  S  S15  1  0.75000000  0.08042845  0.07594013  1
loop_
_geom_bond_atom_site_label_1
_geom_bond_atom_site_label_2
_geom_bond_distance
_geom_bond_site_symmetry_2
Ba0 S6 3.189807 1_455
Ba0 S6 3.189807 1_555
Ba0 S14 3.197449 1_555
Ba0 S14 3.197449 1_455
Ba0 S2 3.286027 1_455
Ba0 S2 3.286027 1_555
Ba0 S8 3.333257 1_565
Ba0 S9 3.358212 1_555
Ba1 S7 3.189807 1_455
Ba1 S7 3.189807 1_555
Ba1 S15 3.197449 1_455
Ba1 S15 3.197449 1_555
Ba1 S3 3.286027 1_455
Ba1 S3 3.286027 1_555
Ba1 S9 3.333257 1_555
Ba1 S8 3.358212 1_555
Ba2 S4 3.189807 1_555
Ba2 S4 3.189807 1_655
Ba2 S12 3.197449 1_655
Ba2 S12 3.197449 1_555
Ba2 S0 3.286027 1_655
Ba2 S0 3.286027 1_555
Ba2 S10 3.333257 1_545
Ba2 S11 3.358212 1_555
Ba3 S5 3.189807 1_555
Ba3 S5 3.189807 1_655
Ba3 S13 3.197449 1_655
Ba3 S13 3.197449 1_555
Ba3 S1 3.286027 1_555
Ba3 S1 3.286027 1_655
Ba3 S11 3.333257 1_555
Ba3 S10 3.358212 1_555
S0 Tm3 2.735651 1_455
S0 Tm3 2.735651 1_555
S0 Tm4 2.748063 1_555
S1 Tm2 2.735651 1_555
S1 Tm2 2.735651 1_455
S1 Tm5 2.748063 1_555
S2 Tm1 2.735651 1_555
S2 Tm1 2.735651 1_655
S2 Tm6 2.748063 1_555
S3 Tm0 2.735651 1_655
S3 Tm0 2.735651 1_555
S3 Tm7 2.748063 1_555
S4 Tm5 2.695441 1_545
S4 Tm7 2.726018 1_455
S4 Tm7 2.726018 1_555
S5 Tm4 2.695441 1_555
S5 Tm6 2.726018 1_456
S5 Tm6 2.726018 1_556
S6 Tm7 2.695441 1_565
S6 Tm5 2.726018 1_555
S6 Tm5 2.726018 1_655
S7 Tm6 2.695441 1_555
S7 Tm4 2.726018 1_654
S7 Tm4 2.726018 1_554
S8 Tm7 2.683857 1_555
S8 Tm7 2.683857 1_455
S8 Tm1 2.731436 1_545
S9 Tm6 2.683857 1_455
S9 Tm6 2.683857 1_555
S9 Tm0 2.731436 1_555
S10 Tm5 2.683857 1_555
S10 Tm5 2.683857 1_655
S10 Tm3 2.731436 1_565
S11 Tm4 2.683857 1_655
S11 Tm4 2.683857 1_555
S11 Tm2 2.731436 1_555
S12 Tm0 2.659924 1_555
S12 Tm2 2.718963 1_455
S12 Tm2 2.718963 1_555
S13 Tm1 2.659924 1_556
S13 Tm3 2.718963 1_465
S13 Tm3 2.718963 1_565
S14 Tm2 2.659924 1_555
S14 Tm0 2.718963 1_655
S14 Tm0 2.718963 1_555
S15 Tm3 2.659924 1_554
S15 Tm1 2.718963 1_645
S15 Tm1 2.718963 1_545
