# generated using pymatgen
data_Y2Cr2Fe15
_symmetry_space_group_name_H-M   'P 1'
_cell_length_a   8.38586241
_cell_length_b   8.38586241
_cell_length_c   8.29838000
_cell_angle_alpha   90.00000000
_cell_angle_beta   90.00000000
_cell_angle_gamma   120.00000325
_symmetry_Int_Tables_number   1
_chemical_formula_structural   Y2Cr2Fe15
_chemical_formula_sum   'Y4 Cr4 Fe30'
_cell_volume   505.38157069
_cell_formula_units_Z   2
loop_
 _symmetry_equiv_pos_site_id
 _symmetry_equiv_pos_as_xyz
  1  'x, y, z'
loop_
 _atom_site_type_symbol
 _atom_site_label
 _atom_site_symmetry_multiplicity
 _atom_site_fract_x
 _atom_site_fract_y
 _atom_site_fract_z
 _atom_site_occupancy
  Y  Y0  1  0.33333300  0.66666700  0.25000000  1
  Y  Y1  1  0.66666700  0.33333300  0.75000000  1
  Y  Y2  1  0.00000000  0.00000000  0.25000000  1
  Y  Y3  1  0.00000000  0.00000000  0.75000000  1
  Cr  Cr0  1  0.33333300  0.66666700  0.61876600  1
  Cr  Cr1  1  0.66666700  0.33333300  0.38123400  1
  Cr  Cr2  1  0.66666700  0.33333300  0.11876600  1
  Cr  Cr3  1  0.33333300  0.66666700  0.88123400  1
  Fe  Fe0  1  0.16652000  0.33304000  0.01212300  1
  Fe  Fe1  1  0.83348000  0.66696000  0.98787700  1
  Fe  Fe2  1  0.66696000  0.83348000  0.01212300  1
  Fe  Fe3  1  0.83348000  0.66696000  0.51212300  1
  Fe  Fe4  1  0.33304000  0.16652000  0.98787700  1
  Fe  Fe5  1  0.16652000  0.33304000  0.48787700  1
  Fe  Fe6  1  0.16652000  0.83348000  0.01212300  1
  Fe  Fe7  1  0.33304000  0.16652000  0.51212300  1
  Fe  Fe8  1  0.83348000  0.16652000  0.98787700  1
  Fe  Fe9  1  0.66696000  0.83348000  0.48787700  1
  Fe  Fe10  1  0.83348000  0.16652000  0.51212300  1
  Fe  Fe11  1  0.16652000  0.83348000  0.48787700  1
  Fe  Fe12  1  0.96026600  0.33000800  0.25000000  1
  Fe  Fe13  1  0.03973400  0.66999200  0.75000000  1
  Fe  Fe14  1  0.66999200  0.63025700  0.25000000  1
  Fe  Fe15  1  0.33000800  0.96026600  0.75000000  1
  Fe  Fe16  1  0.33000800  0.36974300  0.75000000  1
  Fe  Fe17  1  0.66999200  0.03973400  0.25000000  1
  Fe  Fe18  1  0.36974300  0.03973400  0.25000000  1
  Fe  Fe19  1  0.63025700  0.66999200  0.75000000  1
  Fe  Fe20  1  0.63025700  0.96026600  0.75000000  1
  Fe  Fe21  1  0.36974300  0.33000800  0.25000000  1
  Fe  Fe22  1  0.03973400  0.36974300  0.75000000  1
  Fe  Fe23  1  0.96026600  0.63025700  0.25000000  1
  Fe  Fe24  1  0.50000000  0.00000000  0.00000000  1
  Fe  Fe25  1  0.00000000  0.50000000  0.00000000  1
  Fe  Fe26  1  0.50000000  0.00000000  0.50000000  1
  Fe  Fe27  1  0.50000000  0.50000000  0.00000000  1
  Fe  Fe28  1  0.00000000  0.50000000  0.50000000  1
  Fe  Fe29  1  0.50000000  0.50000000  0.50000000  1
loop_
_geom_bond_atom_site_label_1
_geom_bond_atom_site_label_2
_geom_bond_distance
_geom_bond_site_symmetry_2
Cr0 Cr3 2.178059 1_555
Cr0 Fe28 2.613724 1_555
Cr0 Fe26 2.613724 1_565
Cr0 Fe29 2.613730 1_555
Cr0 Fe11 2.655236 1_555
Cr0 Fe9 2.655242 1_555
Cr0 Fe5 2.655242 1_555
Cr0 Fe20 2.705042 1_555
Cr0 Fe22 2.705042 1_555
Cr0 Fe19 2.705043 1_555
Cr0 Fe16 2.705043 1_555
Cr0 Fe15 2.705043 1_555
Cr0 Fe13 2.705043 1_555
Cr0 Y0 3.060160 1_555
Cr1 Cr2 2.178059 1_555
Cr1 Fe28 2.613724 1_655
Cr1 Fe26 2.613724 1_555
Cr1 Fe29 2.613730 1_555
Cr1 Fe10 2.655236 1_555
Cr1 Fe3 2.655242 1_555
Cr1 Fe7 2.655242 1_555
Cr1 Fe18 2.705042 1_555
Cr1 Fe23 2.705042 1_555
Cr1 Fe14 2.705043 1_555
Cr1 Fe21 2.705043 1_555
Cr1 Fe12 2.705043 1_555
Cr1 Fe17 2.705043 1_555
Cr1 Y1 3.060160 1_555
Cr2 Fe25 2.613724 1_655
Cr2 Fe24 2.613724 1_555
Cr2 Fe27 2.613730 1_555
Cr2 Fe8 2.655236 1_554
Cr2 Fe1 2.655242 1_554
Cr2 Fe4 2.655242 1_554
Cr2 Fe18 2.705042 1_555
Cr2 Fe23 2.705042 1_555
Cr2 Fe14 2.705043 1_555
Cr2 Fe21 2.705043 1_555
Cr2 Fe12 2.705043 1_555
Cr2 Fe17 2.705043 1_555
Cr2 Y1 3.060160 1_554
Cr3 Fe24 2.613724 1_566
Cr3 Fe25 2.613724 1_556
Cr3 Fe27 2.613730 1_556
Cr3 Fe6 2.655236 1_556
Cr3 Fe2 2.655242 1_556
Cr3 Fe0 2.655242 1_556
Cr3 Fe20 2.705042 1_555
Cr3 Fe22 2.705042 1_555
Cr3 Fe19 2.705043 1_555
Cr3 Fe16 2.705043 1_555
Cr3 Fe15 2.705043 1_555
Cr3 Fe13 2.705043 1_555
Cr3 Y0 3.060160 1_556
Fe0 Fe27 2.423944 1_555
Fe0 Fe25 2.423944 1_555
Fe0 Fe8 2.427014 1_454
Fe0 Fe4 2.427014 1_554
Fe0 Fe16 2.506760 1_554
Fe0 Fe22 2.506764 1_554
Fe0 Fe12 2.616276 1_455
Fe0 Fe21 2.616281 1_555
Fe0 Y2 3.121949 1_555
Fe0 Y0 3.125253 1_555
Fe0 Y3 3.252905 1_554
Fe1 Fe27 2.423944 1_556
Fe1 Fe25 2.423944 1_656
Fe1 Fe6 2.427014 1_656
Fe1 Fe2 2.427014 1_556
Fe1 Fe14 2.506760 1_556
Fe1 Fe23 2.506764 1_556
Fe1 Fe13 2.616276 1_655
Fe1 Fe19 2.616281 1_555
Fe1 Y3 3.121949 1_665
Fe1 Y1 3.125253 1_555
Fe1 Y2 3.252905 1_666
Fe2 Fe27 2.423944 1_555
Fe2 Fe24 2.423944 1_565
Fe2 Fe8 2.427014 1_564
Fe2 Fe20 2.506764 1_554
Fe2 Y2 3.121949 1_665
Fe2 Y0 3.125253 1_555
Fe2 Y3 3.252905 1_664
Fe3 Fe9 2.427014 1_555
Fe3 Y3 3.121949 1_665
Fe3 Y1 3.125253 1_555
Fe3 Y2 3.252905 1_665
Fe4 Fe6 2.427014 1_546
Fe4 Y3 3.121949 1_555
Fe4 Y1 3.125253 1_555
Fe4 Y2 3.252905 1_556
Fe5 Fe7 2.427014 1_555
Fe5 Y2 3.121949 1_555
Fe5 Y0 3.125253 1_555
Fe5 Y3 3.252905 1_555
Fe6 Y2 3.121949 1_565
Fe6 Y0 3.125247 1_555
Fe6 Y3 3.252905 1_564
Fe7 Y3 3.121949 1_555
Fe7 Y1 3.125253 1_555
Fe7 Y2 3.252905 1_555
Fe8 Y3 3.121949 1_655
Fe8 Y1 3.125247 1_555
Fe8 Y2 3.252905 1_656
Fe9 Y2 3.121949 1_665
Fe9 Y0 3.125253 1_555
Fe9 Y3 3.252905 1_665
Fe10 Fe28 2.423944 1_655
Fe10 Fe26 2.423944 1_555
Fe10 Fe5 2.427014 1_655
Fe10 Fe9 2.427014 1_545
Fe10 Fe12 2.506762 1_555
Fe10 Fe17 2.506762 1_555
Fe10 Fe22 2.616278 1_655
Fe10 Fe20 2.616278 1_545
Fe10 Y3 3.121949 1_655
Fe10 Y1 3.125247 1_555
Fe10 Y2 3.252905 1_655
Fe11 Fe26 2.423944 1_565
Fe11 Fe28 2.423944 1_555
Fe11 Fe3 2.427014 1_455
Fe11 Fe7 2.427014 1_565
Fe11 Fe15 2.506762 1_555
Fe11 Fe13 2.506762 1_555
Fe11 Fe18 2.616278 1_565
Fe11 Fe23 2.616278 1_455
Fe11 Y2 3.121949 1_565
Fe11 Y0 3.125247 1_555
Fe11 Y3 3.252905 1_565
Fe12 Fe17 2.434198 1_555
Fe12 Fe28 2.443790 1_655
Fe12 Fe25 2.443790 1_655
Fe12 Fe8 2.506762 1_554
Fe12 Fe23 2.517847 1_555
Fe12 Fe5 2.616276 1_655
Fe12 Y2 2.948160 1_655
Fe12 Y0 2.987556 1_655
Fe13 Fe15 2.434198 1_555
Fe13 Fe28 2.443790 1_555
Fe13 Fe25 2.443790 1_556
Fe13 Fe6 2.506762 1_556
Fe13 Fe22 2.517847 1_555
Fe13 Fe3 2.616276 1_455
Fe13 Y3 2.948160 1_565
Fe13 Y1 2.987556 1_455
Fe14 Fe23 2.434198 1_555
Fe14 Fe29 2.443789 1_555
Fe14 Fe27 2.443789 1_555
Fe14 Fe3 2.506760 1_555
Fe14 Fe21 2.517847 1_555
Fe14 Fe9 2.616281 1_555
Fe14 Fe2 2.616281 1_555
Fe14 Y2 2.948164 1_665
Fe14 Y0 2.987565 1_555
Fe15 Fe26 2.443790 1_565
Fe15 Fe24 2.443790 1_566
Fe15 Fe6 2.506762 1_556
Fe15 Fe20 2.517847 1_555
Fe15 Fe7 2.616276 1_565
Fe15 Fe4 2.616276 1_565
Fe15 Y3 2.948160 1_565
Fe15 Y1 2.987556 1_565
Fe16 Fe22 2.434198 1_555
Fe16 Fe29 2.443789 1_555
Fe16 Fe27 2.443789 1_556
Fe16 Fe5 2.506760 1_555
Fe16 Fe19 2.517847 1_555
Fe16 Fe7 2.616281 1_555
Fe16 Fe4 2.616281 1_555
Fe16 Y3 2.948164 1_555
Fe16 Y1 2.987565 1_555
Fe17 Fe26 2.443790 1_555
Fe17 Fe24 2.443790 1_555
Fe17 Fe8 2.506762 1_554
Fe17 Fe18 2.517847 1_555
Fe17 Fe2 2.616276 1_545
Fe17 Fe9 2.616276 1_545
Fe17 Y2 2.948160 1_655
Fe17 Y0 2.987556 1_545
Fe18 Fe21 2.434198 1_555
Fe18 Fe24 2.443786 1_555
Fe18 Fe26 2.443786 1_555
Fe18 Fe7 2.506764 1_555
Fe18 Fe4 2.506764 1_554
Fe18 Fe6 2.616278 1_545
Fe18 Y2 2.948168 1_555
Fe18 Y0 2.987549 1_545
Fe19 Fe20 2.434198 1_555
Fe19 Fe27 2.443789 1_556
Fe19 Fe29 2.443789 1_555
Fe19 Fe9 2.506760 1_555
Fe19 Fe2 2.506760 1_556
Fe19 Fe3 2.616281 1_555
Fe19 Y3 2.948164 1_665
Fe19 Y1 2.987565 1_555
Fe20 Fe26 2.443786 1_565
Fe20 Fe24 2.443786 1_566
Fe20 Fe9 2.506764 1_555
Fe20 Fe8 2.616278 1_565
Fe20 Y3 2.948168 1_665
Fe20 Y1 2.987549 1_565
Fe21 Fe29 2.443789 1_555
Fe21 Fe27 2.443789 1_555
Fe21 Fe4 2.506760 1_554
Fe21 Fe7 2.506760 1_555
Fe21 Fe5 2.616281 1_555
Fe21 Y2 2.948164 1_555
Fe21 Y0 2.987565 1_555
Fe22 Fe28 2.443786 1_555
Fe22 Fe25 2.443786 1_556
Fe22 Fe5 2.506764 1_555
Fe22 Fe8 2.616278 1_455
Fe22 Y3 2.948168 1_555
Fe22 Y1 2.987549 1_455
Fe23 Fe25 2.443786 1_655
Fe23 Fe28 2.443786 1_655
Fe23 Fe3 2.506764 1_555
Fe23 Fe6 2.616278 1_655
Fe23 Y2 2.948168 1_665
Fe23 Y0 2.987549 1_655
Fe24 Fe6 2.423944 1_545
Fe24 Fe8 2.423944 1_554
Fe24 Fe4 2.423944 1_554
Fe24 Y1 3.188127 1_554
Fe24 Y0 3.188127 1_545
Fe25 Fe6 2.423944 1_555
Fe25 Fe8 2.423944 1_454
Fe25 Y0 3.188127 1_555
Fe25 Y1 3.188127 1_454
Fe26 Fe7 2.423944 1_555
Fe26 Fe9 2.423944 1_545
Fe26 Y1 3.188127 1_555
Fe26 Y0 3.188127 1_545
Fe27 Fe4 2.423944 1_554
Fe27 Y0 3.188133 1_555
Fe27 Y1 3.188133 1_554
Fe28 Fe5 2.423944 1_555
Fe28 Fe3 2.423944 1_455
Fe28 Y0 3.188127 1_555
Fe28 Y1 3.188127 1_455
Fe29 Fe9 2.423944 1_555
Fe29 Fe3 2.423944 1_555
Fe29 Fe7 2.423944 1_555
Fe29 Fe5 2.423944 1_555
Fe29 Y1 3.188133 1_555
Fe29 Y0 3.188133 1_555
