# generated using pymatgen
data_CeCdAu
_symmetry_space_group_name_H-M   'P 1'
_cell_length_a   7.88838834
_cell_length_b   7.89099145
_cell_length_c   4.10776911
_cell_angle_alpha   90.00000000
_cell_angle_beta   90.00000000
_cell_angle_gamma   119.95485687
_symmetry_Int_Tables_number   1
_chemical_formula_structural   CeCdAu
_chemical_formula_sum   'Ce3 Cd3 Au3'
_cell_volume   221.54088634
_cell_formula_units_Z   3
loop_
 _symmetry_equiv_pos_site_id
 _symmetry_equiv_pos_as_xyz
  1  'x, y, z'
loop_
 _atom_site_type_symbol
 _atom_site_label
 _atom_site_symmetry_multiplicity
 _atom_site_fract_x
 _atom_site_fract_y
 _atom_site_fract_z
 _atom_site_occupancy
  Ce  Ce0  1  0.59181966  0.59210359  0.00000000  1
  Ce  Ce1  1  0.40791897  0.99968075  0.00000000  1
  Ce  Ce2  1  -0.00015001  0.40795002  0.00000000  1
  Cd  Cd0  1  0.00020380  0.74771799  0.50000000  1
  Cd  Cd1  1  0.25233601  0.25234377  0.50000000  1
  Cd  Cd2  1  0.74798328  0.00031354  0.50000000  1
  Au  Au0  1  0.99991703  0.00019041  -0.00000000  1
  Au  Au1  1  0.33325720  0.66603157  0.50000000  1
  Au  Au2  1  0.66671206  0.33366936  0.50000000  1
loop_
_geom_bond_atom_site_label_1
_geom_bond_atom_site_label_2
_geom_bond_distance
_geom_bond_site_symmetry_2
Cd0 Ce2 3.376286 1_555
Cd0 Ce2 3.376286 1_556
Cd0 Ce1 3.482772 1_555
Cd0 Ce1 3.482772 1_556
Cd0 Ce0 3.486242 1_455
Cd0 Ce0 3.486242 1_456
Cd1 Ce0 3.377577 1_556
Cd1 Ce0 3.377577 1_555
Cd1 Ce2 3.483576 1_556
Cd1 Ce2 3.483576 1_555
Cd1 Ce1 3.484737 1_545
Cd1 Ce1 3.484737 1_546
Cd2 Ce1 3.376568 1_545
Cd2 Ce1 3.376568 1_546
Cd2 Ce2 3.482898 1_655
Cd2 Ce2 3.482898 1_656
Cd2 Ce0 3.485583 1_546
Cd2 Ce0 3.485583 1_545
Au0 Cd2 2.858310 1_555
Au0 Cd2 2.858310 1_554
Au0 Cd1 2.861080 1_654
Au0 Cd1 2.861080 1_655
Au0 Cd0 2.862174 1_644
Au0 Cd0 2.862174 1_645
Au0 Ce2 3.217892 1_655
Au0 Ce1 3.220488 1_645
Au0 Ce0 3.221917 1_545
Au1 Cd1 2.997145 1_555
Au1 Cd0 3.001523 1_555
Au1 Cd2 3.007163 1_565
Au1 Ce0 3.147558 1_556
Au1 Ce0 3.147558 1_555
Au1 Ce2 3.151851 1_556
Au1 Ce2 3.151851 1_555
Au1 Ce1 3.154134 1_555
Au1 Ce1 3.154134 1_556
Au2 Cd1 3.000298 1_555
Au2 Cd0 3.002020 1_655
Au2 Cd2 3.002448 1_555
Au2 Ce0 3.151087 1_556
Au2 Ce0 3.151087 1_555
Au2 Ce2 3.151148 1_656
Au2 Ce2 3.151148 1_655
Au2 Ce1 3.155779 1_546
Au2 Ce1 3.155779 1_545
