# generated using pymatgen
data_CrIr3
_symmetry_space_group_name_H-M   'P 1'
_cell_length_a   3.81417244
_cell_length_b   3.81411990
_cell_length_c   3.81411990
_cell_angle_alpha   90.00000000
_cell_angle_beta   90.00000000
_cell_angle_gamma   90.00000000
_symmetry_Int_Tables_number   1
_chemical_formula_structural   CrIr3
_chemical_formula_sum   'Cr1 Ir3'
_cell_volume   55.48671405
_cell_formula_units_Z   1
loop_
 _symmetry_equiv_pos_site_id
 _symmetry_equiv_pos_as_xyz
  1  'x, y, z'
loop_
 _atom_site_type_symbol
 _atom_site_label
 _atom_site_symmetry_multiplicity
 _atom_site_fract_x
 _atom_site_fract_y
 _atom_site_fract_z
 _atom_site_occupancy
  Cr  Cr0  1  0.00000000  0.00000000  0.00000000  1
  Ir  Ir0  1  0.00000000  0.50000000  0.50000000  1
  Ir  Ir1  1  0.50000000  0.50000000  -0.00000000  1
  Ir  Ir2  1  0.50000000  -0.00000000  0.50000000  1
loop_
_geom_bond_atom_site_label_1
_geom_bond_atom_site_label_2
_geom_bond_distance
_geom_bond_site_symmetry_2
Cr0 Ir0 2.696990 1_554
Cr0 Ir0 2.696990 1_544
Cr0 Ir0 2.696990 1_545
Cr0 Ir0 2.696990 1_555
Cr0 Ir1 2.697009 1_555
Cr0 Ir2 2.697009 1_555
Cr0 Ir1 2.697009 1_455
Cr0 Ir2 2.697009 1_455
Cr0 Ir2 2.697009 1_454
Cr0 Ir1 2.697009 1_545
Cr0 Ir2 2.697009 1_554
Cr0 Ir1 2.697009 1_445
Ir0 Ir2 2.697009 1_565
Ir0 Ir1 2.697009 1_555
Ir0 Ir2 2.697009 1_465
Ir0 Ir2 2.697009 1_555
Ir0 Ir1 2.697009 1_456
Ir0 Ir1 2.697009 1_455
Ir0 Ir1 2.697009 1_556
Ir0 Ir2 2.697009 1_455
Ir1 Ir2 2.696990 1_555
Ir1 Ir2 2.696990 1_564
Ir1 Ir2 2.696990 1_554
Ir1 Ir2 2.696990 1_565
