# generated using pymatgen
data_Ge19(SbBr)4
_symmetry_space_group_name_H-M   'P 1'
_cell_length_a   10.98573612
_cell_length_b   10.98573612
_cell_length_c   10.98573612
_cell_angle_alpha   90.00000000
_cell_angle_beta   90.00000000
_cell_angle_gamma   90.00000000
_symmetry_Int_Tables_number   1
_chemical_formula_structural   Ge19(SbBr)4
_chemical_formula_sum   'Ge38 Sb8 Br8'
_cell_volume   1325.82892278
_cell_formula_units_Z   2
loop_
 _symmetry_equiv_pos_site_id
 _symmetry_equiv_pos_as_xyz
  1  'x, y, z'
loop_
 _atom_site_type_symbol
 _atom_site_label
 _atom_site_symmetry_multiplicity
 _atom_site_fract_x
 _atom_site_fract_y
 _atom_site_fract_z
 _atom_site_occupancy
  Ge  Ge0  1  0.32317456  0.32317456  0.32317456  1
  Ge  Ge1  1  0.67682544  0.67682544  0.32317456  1
  Ge  Ge2  1  0.67682544  0.32317456  0.67682544  1
  Ge  Ge3  1  0.82317456  0.82317456  0.82317456  1
  Ge  Ge4  1  0.32317456  0.67682544  0.67682544  1
  Ge  Ge5  1  0.17682544  0.17682544  0.82317456  1
  Ge  Ge6  1  0.82317456  0.17682544  0.17682544  1
  Ge  Ge7  1  0.17682544  0.82317456  0.17682544  1
  Ge  Ge8  1  0.99060188  0.11448129  0.31530665  1
  Ge  Ge9  1  0.00939812  0.88551871  0.31530665  1
  Ge  Ge10  1  0.00939812  0.11448129  0.68469335  1
  Ge  Ge11  1  0.31530665  0.99060188  0.11448129  1
  Ge  Ge12  1  0.61448129  0.49060188  0.81530665  1
  Ge  Ge13  1  0.99060188  0.88551871  0.68469335  1
  Ge  Ge14  1  0.31530665  0.00939812  0.88551871  1
  Ge  Ge15  1  0.38551871  0.50939812  0.81530665  1
  Ge  Ge16  1  0.68469335  0.00939812  0.11448129  1
  Ge  Ge17  1  0.61448129  0.50939812  0.18469335  1
  Ge  Ge18  1  0.68469335  0.99060188  0.88551871  1
  Ge  Ge19  1  0.38551871  0.49060188  0.18469335  1
  Ge  Ge20  1  0.11448129  0.31530665  0.99060188  1
  Ge  Ge21  1  0.49060188  0.81530665  0.61448129  1
  Ge  Ge22  1  0.11448129  0.68469335  0.00939812  1
  Ge  Ge23  1  0.50939812  0.18469335  0.61448129  1
  Ge  Ge24  1  0.88551871  0.68469335  0.99060188  1
  Ge  Ge25  1  0.49060188  0.18469335  0.38551871  1
  Ge  Ge26  1  0.88551871  0.31530665  0.00939812  1
  Ge  Ge27  1  0.50939812  0.81530665  0.38551871  1
  Ge  Ge28  1  0.81530665  0.61448129  0.49060188  1
  Ge  Ge29  1  0.81530665  0.38551871  0.50939812  1
  Ge  Ge30  1  0.18469335  0.38551871  0.49060188  1
  Ge  Ge31  1  0.18469335  0.61448129  0.50939812  1
  Ge  Ge32  1  0.25000000  0.50000000  -0.00000000  1
  Ge  Ge33  1  0.75000000  0.50000000  -0.00000000  1
  Ge  Ge34  1  -0.00000000  0.25000000  0.50000000  1
  Ge  Ge35  1  -0.00000000  0.75000000  0.50000000  1
  Ge  Ge36  1  0.50000000  -0.00000000  0.25000000  1
  Ge  Ge37  1  0.50000000  -0.00000000  0.75000000  1
  Sb  Sb0  1  0.18424369  0.18424369  0.18424369  1
  Sb  Sb1  1  0.81575631  0.81575631  0.18424369  1
  Sb  Sb2  1  0.81575631  0.18424369  0.81575631  1
  Sb  Sb3  1  0.68424369  0.68424369  0.68424369  1
  Sb  Sb4  1  0.18424369  0.81575631  0.81575631  1
  Sb  Sb5  1  0.31575631  0.31575631  0.68424369  1
  Sb  Sb6  1  0.68424369  0.31575631  0.31575631  1
  Sb  Sb7  1  0.31575631  0.68424369  0.31575631  1
  Br  Br0  1  0.25000000  -0.00000000  0.50000000  1
  Br  Br1  1  0.75000000  -0.00000000  0.50000000  1
  Br  Br2  1  0.50000000  0.25000000  -0.00000000  1
  Br  Br3  1  0.50000000  0.75000000  -0.00000000  1
  Br  Br4  1  -0.00000000  0.50000000  0.25000000  1
  Br  Br5  1  -0.00000000  0.50000000  0.75000000  1
  Br  Br6  1  -0.00000000  -0.00000000  -0.00000000  1
  Br  Br7  1  0.50000000  0.50000000  0.50000000  1
loop_
_geom_bond_atom_site_label_1
_geom_bond_atom_site_label_2
_geom_bond_distance
_geom_bond_site_symmetry_2
Ge0 Ge30 2.483256 1_555
Ge0 Ge25 2.483256 1_555
Ge0 Ge19 2.483256 1_555
Ge0 Sb0 2.643556 1_555
Ge1 Ge27 2.483256 1_555
Ge1 Ge17 2.483256 1_555
Ge1 Ge28 2.483256 1_555
Ge1 Sb1 2.643556 1_555
Ge2 Ge29 2.483256 1_555
Ge2 Ge23 2.483256 1_555
Ge2 Sb2 2.643556 1_555
Ge3 Sb3 2.643556 1_555
Ge4 Sb4 2.643556 1_555
Ge5 Sb5 2.643556 1_555
Ge6 Ge8 2.483256 1_555
Ge6 Sb6 2.643556 1_555
Ge7 Ge9 2.483256 1_555
Ge7 Sb7 2.643556 1_555
Ge8 Ge9 2.523784 1_645
Ge8 Sb0 2.680642 1_655
Ge9 Sb1 2.680642 1_455
Ge10 Ge5 2.483256 1_555
Ge10 Ge34 2.518713 1_555
Ge10 Ge13 2.523784 1_445
Ge10 Sb2 2.680642 1_455
Ge11 Ge7 2.483256 1_555
Ge11 Ge36 2.518713 1_565
Ge11 Ge14 2.523784 1_564
Ge11 Sb0 2.680642 1_565
Ge12 Ge2 2.483256 1_555
Ge12 Ge33 2.518713 1_556
Ge12 Ge15 2.523784 1_555
Ge12 Sb3 2.680642 1_555
Ge13 Ge3 2.483256 1_555
Ge13 Ge35 2.518713 1_655
Ge13 Sb4 2.680642 1_655
Ge14 Ge5 2.483256 1_555
Ge14 Ge37 2.518713 1_555
Ge14 Sb4 2.680642 1_545
Ge15 Ge4 2.483256 1_555
Ge15 Ge32 2.518713 1_556
Ge15 Sb5 2.680642 1_555
Ge16 Ge6 2.483256 1_555
Ge16 Ge36 2.518713 1_555
Ge16 Ge18 2.523784 1_544
Ge16 Sb1 2.680642 1_545
Ge17 Ge33 2.518713 1_555
Ge17 Ge19 2.523784 1_555
Ge17 Sb6 2.680642 1_555
Ge18 Ge3 2.483256 1_555
Ge18 Ge37 2.518713 1_565
Ge18 Sb2 2.680642 1_565
Ge19 Ge32 2.518713 1_555
Ge19 Sb7 2.680642 1_555
Ge20 Ge5 2.483256 1_555
Ge20 Ge32 2.518713 1_556
Ge20 Ge26 2.523784 1_456
Ge20 Sb0 2.680642 1_556
Ge21 Ge4 2.483256 1_555
Ge21 Ge37 2.518713 1_565
Ge21 Ge27 2.523784 1_555
Ge21 Sb3 2.680642 1_555
Ge22 Ge7 2.483256 1_555
Ge22 Ge32 2.518713 1_555
Ge22 Ge24 2.523784 1_454
Ge22 Sb4 2.680642 1_554
Ge23 Ge37 2.518713 1_555
Ge23 Ge25 2.523784 1_555
Ge23 Sb5 2.680642 1_555
Ge24 Ge3 2.483256 1_555
Ge24 Ge33 2.518713 1_556
Ge24 Sb1 2.680642 1_556
Ge25 Ge36 2.518713 1_555
Ge25 Sb6 2.680642 1_555
Ge26 Ge6 2.483256 1_555
Ge26 Ge33 2.518713 1_555
Ge26 Sb2 2.680642 1_554
Ge27 Ge36 2.518713 1_565
Ge27 Sb7 2.680642 1_555
Ge28 Ge35 2.518713 1_655
Ge28 Ge29 2.523784 1_555
Ge28 Sb3 2.680642 1_555
Ge29 Ge34 2.518713 1_655
Ge29 Sb6 2.680642 1_555
Ge30 Ge34 2.518713 1_555
Ge30 Ge31 2.523784 1_555
Ge30 Sb5 2.680642 1_555
Ge31 Ge4 2.483256 1_555
Ge31 Ge35 2.518713 1_555
Ge31 Sb7 2.680642 1_555
Ge34 Ge8 2.518713 1_455
Ge35 Ge9 2.518713 1_555
