# generated using pymatgen
data_AlIn2N3
_symmetry_space_group_name_H-M   'P 1'
_cell_length_a   5.93982897
_cell_length_b   5.92574594
_cell_length_c   5.50003800
_cell_angle_alpha   90.00000000
_cell_angle_beta   90.00000000
_cell_angle_gamma   119.92159429
_symmetry_Int_Tables_number   1
_chemical_formula_structural   AlIn2N3
_chemical_formula_sum   'Al2 In4 N6'
_cell_volume   167.78605752
_cell_formula_units_Z   2
loop_
 _symmetry_equiv_pos_site_id
 _symmetry_equiv_pos_as_xyz
  1  'x, y, z'
loop_
 _atom_site_type_symbol
 _atom_site_label
 _atom_site_symmetry_multiplicity
 _atom_site_fract_x
 _atom_site_fract_y
 _atom_site_fract_z
 _atom_site_occupancy
  Al  Al0  1  0.00000000  0.65875700  0.48921800  1
  Al  Al1  1  0.00000000  0.34124300  0.98921800  1
  In  In0  1  0.32370800  0.33541300  0.48712100  1
  In  In1  1  0.67629200  0.01170400  0.48712100  1
  In  In2  1  0.67629200  0.66458700  0.98712100  1
  In  In3  1  0.32370800  0.98829600  0.98712100  1
  N  N0  1  0.30181400  0.33295900  0.88563700  1
  N  N1  1  0.69818600  0.03114500  0.88563700  1
  N  N2  1  0.69818600  0.66704100  0.38563700  1
  N  N3  1  0.30181400  0.96885500  0.38563700  1
  N  N4  1  0.00000000  0.63135700  0.83726600  1
  N  N5  1  0.00000000  0.36864300  0.33726600  1
loop_
_geom_bond_atom_site_label_1
_geom_bond_atom_site_label_2
_geom_bond_distance
_geom_bond_site_symmetry_2
Al0 N2 1.904893 1_455
Al0 N3 1.904894 1_555
Al0 N5 1.911521 1_555
Al0 N4 1.921151 1_555
Al1 N0 1.904893 1_555
Al1 N1 1.904894 1_455
Al1 N4 1.911521 1_555
Al1 N5 1.921151 1_556
In0 N2 2.181796 1_555
In0 N3 2.182842 1_545
In0 N5 2.189260 1_555
In0 N0 2.195326 1_555
In1 N3 2.181798 1_545
In1 N2 2.182836 1_545
In1 N5 2.189263 1_655
In1 N1 2.195326 1_555
In2 N0 2.181796 1_555
In2 N1 2.182842 1_565
In2 N4 2.189260 1_655
In2 N2 2.195326 1_556
In3 N1 2.181798 1_565
In3 N0 2.182836 1_565
In3 N4 2.189263 1_555
In3 N3 2.195326 1_556
