# generated using pymatgen
data_SmGe2Ir
_symmetry_space_group_name_H-M   'P 1'
_cell_length_a   9.47416901
_cell_length_b   9.47416901
_cell_length_c   9.47416901
_cell_angle_alpha   153.58780364
_cell_angle_beta   123.92192502
_cell_angle_gamma   63.01997919
_symmetry_Int_Tables_number   1
_chemical_formula_structural   SmGe2Ir
_chemical_formula_sum   'Sm4 Ge8 Ir4'
_cell_volume   311.43526564
_cell_formula_units_Z   4
loop_
 _symmetry_equiv_pos_site_id
 _symmetry_equiv_pos_as_xyz
  1  'x, y, z'
loop_
 _atom_site_type_symbol
 _atom_site_label
 _atom_site_symmetry_multiplicity
 _atom_site_fract_x
 _atom_site_fract_y
 _atom_site_fract_z
 _atom_site_occupancy
  Sm  Sm0  1  0.26055905  0.00000000  0.26055905  1
  Sm  Sm1  1  0.73944095  -0.00000000  0.73944095  1
  Sm  Sm2  1  0.29372965  0.79372965  0.50000000  1
  Sm  Sm3  1  0.70627035  0.20627035  0.50000000  1
  Ge  Ge0  1  0.92212492  0.42212492  0.50000000  1
  Ge  Ge1  1  0.07787508  0.57787508  0.50000000  1
  Ge  Ge2  1  0.42291882  0.42291882  -0.00000000  1
  Ge  Ge3  1  0.57708118  0.57708118  0.00000000  1
  Ge  Ge4  1  0.04535072  0.19981447  0.84553625  1
  Ge  Ge5  1  0.95464928  0.80018553  0.15446375  1
  Ge  Ge6  1  0.35427723  0.19981447  0.15446375  1
  Ge  Ge7  1  0.64572277  0.80018553  0.84553625  1
  Ir  Ir0  1  0.10144999  0.35395670  0.74749229  1
  Ir  Ir1  1  0.89855001  0.64604230  0.25250771  1
  Ir  Ir2  1  0.60646542  0.35395670  0.25250771  1
  Ir  Ir3  1  0.39353458  0.64604330  0.74749229  1
loop_
_geom_bond_atom_site_label_1
_geom_bond_atom_site_label_2
_geom_bond_distance
_geom_bond_site_symmetry_2
Ge0 Ir2 2.464182 1_555
Ge0 Ir0 2.464190 1_655
Ge0 Sm0 3.413731 1_655
Ge0 Sm0 3.413731 1_666
Ge0 Sm1 3.413731 1_554
Ge0 Sm1 3.413731 1_565
Ge0 Sm3 3.486998 1_555
Ge1 Ir3 2.464182 1_555
Ge1 Ir1 2.464182 1_455
Ge1 Sm0 3.413731 1_566
Ge1 Sm1 3.413731 1_465
Ge1 Sm1 3.413731 1_454
Ge1 Sm0 3.413731 1_555
Ge1 Sm2 3.486998 1_555
Ge2 Ge3 2.490399 1_555
Ge2 Ir0 2.509891 1_554
Ge2 Ir2 2.509899 1_555
Ge2 Sm2 3.006684 1_544
Ge2 Sm2 3.006684 1_555
Ge2 Sm0 3.283860 1_565
Ge2 Sm1 3.283860 1_554
Ge2 Sm1 3.283860 1_565
Ge2 Sm0 3.283860 1_554
Ge3 Ir1 2.509892 1_555
Ge3 Ir3 2.509899 1_554
Ge3 Sm3 3.006684 1_554
Ge3 Sm3 3.006684 1_565
Ge3 Sm0 3.283860 1_565
Ge3 Sm1 3.283860 1_565
Ge3 Sm1 3.283860 1_554
Ge3 Sm0 3.283860 1_554
Ge4 Ir1 2.475048 1_456
Ge4 Ir1 2.475048 1_445
Ge4 Ir0 2.638774 1_555
Ge4 Ge6 2.751645 1_556
Ge4 Sm2 2.979817 1_545
Ge4 Sm2 2.979817 1_556
Ge4 Sm3 3.079493 1_455
Ge4 Sm1 3.363367 1_455
Ge5 Ir0 2.475045 1_665
Ge5 Ir0 2.475049 1_654
Ge5 Ir1 2.638783 1_555
Ge5 Ge7 2.751645 1_554
Ge5 Sm3 2.979817 1_565
Ge5 Sm3 2.979817 1_554
Ge5 Sm2 3.079493 1_655
Ge5 Sm0 3.363367 1_665
Ge6 Ir3 2.475043 1_544
Ge6 Ir3 2.475043 1_555
Ge6 Ir2 2.638786 1_555
Ge6 Sm2 2.979818 1_555
Ge6 Sm2 2.979821 1_544
Ge6 Sm3 3.079498 1_555
Ge6 Sm0 3.363361 1_555
Ge7 Ir2 2.475043 1_566
Ge7 Ir2 2.475043 1_555
Ge7 Ir3 2.638786 1_555
Ge7 Sm3 2.979818 1_555
Ge7 Sm3 2.979821 1_566
Ge7 Sm2 3.079498 1_555
Ge7 Sm1 3.363361 1_565
Ir0 Sm0 3.203781 1_555
Ir0 Sm0 3.203783 1_566
Ir0 Sm3 3.248318 1_455
Ir0 Sm2 3.269524 1_545
Ir0 Sm2 3.269527 1_556
Ir1 Sm1 3.203776 1_554
Ir1 Sm1 3.203776 1_565
Ir1 Sm2 3.248321 1_655
Ir1 Sm3 3.269531 1_554
Ir1 Sm3 3.269531 1_565
Ir2 Sm1 3.203781 1_554
Ir2 Sm1 3.203784 1_565
Ir2 Sm3 3.248312 1_555
Ir2 Sm2 3.269530 1_544
Ir2 Sm2 3.269533 1_555
Ir3 Sm0 3.203781 1_566
Ir3 Sm0 3.203784 1_555
Ir3 Sm2 3.248312 1_555
Ir3 Sm3 3.269530 1_566
Ir3 Sm3 3.269533 1_555
