# generated using pymatgen
data_HfGaRh
_symmetry_space_group_name_H-M   'P 1'
_cell_length_a   14.53099034
_cell_length_b   14.53099034
_cell_length_c   6.47932334
_cell_angle_alpha   90.00000000
_cell_angle_beta   90.00000000
_cell_angle_gamma   119.99999245
_symmetry_Int_Tables_number   1
_chemical_formula_structural   HfGaRh
_chemical_formula_sum   'Hf24 Ga24 Rh24'
_cell_volume   1184.81555222
_cell_formula_units_Z   24
loop_
 _symmetry_equiv_pos_site_id
 _symmetry_equiv_pos_as_xyz
  1  'x, y, z'
loop_
 _atom_site_type_symbol
 _atom_site_label
 _atom_site_symmetry_multiplicity
 _atom_site_fract_x
 _atom_site_fract_y
 _atom_site_fract_z
 _atom_site_occupancy
  Hf  Hf0_0  1  0.19517005  0.00000000  0.25000000  1
  Hf  Hf0_1  1  0.19517005  0.00000000  0.75000000  1
  Hf  Hf0_2  1  0.19517005  0.50000000  0.25000000  1
  Hf  Hf0_3  1  0.19517005  0.50000000  0.75000000  1
  Hf  Hf0_4  1  0.69517005  1.00000000  0.25000000  1
  Hf  Hf0_5  1  0.69517005  1.00000000  0.75000000  1
  Hf  Hf0_6  1  0.69517005  0.50000000  0.25000000  1
  Hf  Hf0_7  1  0.69517005  0.50000000  0.75000000  1
  Hf  Hf1_0  1  0.00000000  0.19517005  0.25000000  1
  Hf  Hf1_1  1  0.00000000  0.19517005  0.75000000  1
  Hf  Hf1_2  1  1.00000000  0.69517005  0.25000000  1
  Hf  Hf1_3  1  1.00000000  0.69517005  0.75000000  1
  Hf  Hf1_4  1  0.50000000  0.19517005  0.25000000  1
  Hf  Hf1_5  1  0.50000000  0.19517005  0.75000000  1
  Hf  Hf1_6  1  0.50000000  0.69517005  0.25000000  1
  Hf  Hf1_7  1  0.50000000  0.69517005  0.75000000  1
  Hf  Hf2_0  1  0.30482995  0.30482995  0.25000000  1
  Hf  Hf2_1  1  0.30482995  0.30482995  0.75000000  1
  Hf  Hf2_2  1  0.30482995  0.80482995  0.25000000  1
  Hf  Hf2_3  1  0.30482995  0.80482995  0.75000000  1
  Hf  Hf2_4  1  0.80482995  0.30482995  0.25000000  1
  Hf  Hf2_5  1  0.80482995  0.30482995  0.75000000  1
  Hf  Hf2_6  1  0.80482995  0.80482995  0.25000000  1
  Hf  Hf2_7  1  0.80482995  0.80482995  0.75000000  1
  Ga  Ga0_0  1  0.36227103  0.00000000  0.00000000  1
  Ga  Ga0_1  1  0.36227103  0.00000000  0.50000000  1
  Ga  Ga0_2  1  0.36227103  0.50000000  0.00000000  1
  Ga  Ga0_3  1  0.36227103  0.50000000  0.50000000  1
  Ga  Ga0_4  1  0.86227103  1.00000000  0.00000000  1
  Ga  Ga0_5  1  0.86227103  1.00000000  0.50000000  1
  Ga  Ga0_6  1  0.86227102  0.50000000  0.00000000  1
  Ga  Ga0_7  1  0.86227102  0.50000000  0.50000000  1
  Ga  Ga1_0  1  0.00000000  0.36227103  0.00000000  1
  Ga  Ga1_1  1  0.00000000  0.36227103  0.50000000  1
  Ga  Ga1_2  1  1.00000000  0.86227103  0.00000000  1
  Ga  Ga1_3  1  1.00000000  0.86227103  0.50000000  1
  Ga  Ga1_4  1  0.50000000  0.36227103  0.00000000  1
  Ga  Ga1_5  1  0.50000000  0.36227103  0.50000000  1
  Ga  Ga1_6  1  0.50000000  0.86227102  0.00000000  1
  Ga  Ga1_7  1  0.50000000  0.86227102  0.50000000  1
  Ga  Ga2_0  1  0.13772897  0.13772897  0.00000000  1
  Ga  Ga2_1  1  0.13772897  0.13772897  0.50000000  1
  Ga  Ga2_2  1  0.13772897  0.63772897  0.00000000  1
  Ga  Ga2_3  1  0.13772897  0.63772897  0.50000000  1
  Ga  Ga2_4  1  0.63772897  0.13772897  0.00000000  1
  Ga  Ga2_5  1  0.63772897  0.13772897  0.50000000  1
  Ga  Ga2_6  1  0.63772898  0.63772898  0.00000000  1
  Ga  Ga2_7  1  0.63772898  0.63772898  0.50000000  1
  Rh  Rh0_0  1  0.16666650  0.33333350  0.00000000  1
  Rh  Rh0_1  1  0.16666650  0.33333350  0.50000000  1
  Rh  Rh0_2  1  0.16666650  0.83333350  0.00000000  1
  Rh  Rh0_3  1  0.16666650  0.83333350  0.50000000  1
  Rh  Rh0_4  1  0.66666650  0.33333350  0.00000000  1
  Rh  Rh0_5  1  0.66666650  0.33333350  0.50000000  1
  Rh  Rh0_6  1  0.66666650  0.83333350  0.00000000  1
  Rh  Rh0_7  1  0.66666650  0.83333350  0.50000000  1
  Rh  Rh1_0  1  0.33333350  0.16666650  0.00000000  1
  Rh  Rh1_1  1  0.33333350  0.16666650  0.50000000  1
  Rh  Rh1_2  1  0.33333350  0.66666650  0.00000000  1
  Rh  Rh1_3  1  0.33333350  0.66666650  0.50000000  1
  Rh  Rh1_4  1  0.83333350  0.16666650  0.00000000  1
  Rh  Rh1_5  1  0.83333350  0.16666650  0.50000000  1
  Rh  Rh1_6  1  0.83333350  0.66666650  0.00000000  1
  Rh  Rh1_7  1  0.83333350  0.66666650  0.50000000  1
  Rh  Rh2_0  1  0.00000000  0.00000000  0.25000000  1
  Rh  Rh2_1  1  0.00000000  0.00000000  0.75000000  1
  Rh  Rh2_2  1  0.00000000  0.50000000  0.25000000  1
  Rh  Rh2_3  1  0.00000000  0.50000000  0.75000000  1
  Rh  Rh2_4  1  0.50000000  0.00000000  0.25000000  1
  Rh  Rh2_5  1  0.50000000  0.00000000  0.75000000  1
  Rh  Rh2_6  1  0.50000000  0.50000000  0.25000000  1
  Rh  Rh2_7  1  0.50000000  0.50000000  0.75000000  1
loop_
_geom_bond_atom_site_label_1
_geom_bond_atom_site_label_2
_geom_bond_distance
_geom_bond_site_symmetry_2
Hf0_0 Rh0_3 2.767232 1_545
Hf0_0 Rh0_2 2.767232 1_545
Hf0_0 Rh1_0 2.767234 1_555
Hf0_0 Rh1_1 2.767234 1_555
Hf0_0 Rh2_0 2.836014 1_555
Hf0_0 Hf0_1 3.239662 1_554
Hf0_0 Hf0_1 3.239662 1_555
Hf0_1 Rh0_2 2.767232 1_546
Hf0_1 Rh0_3 2.767232 1_545
Hf0_1 Rh1_0 2.767234 1_556
Hf0_1 Rh1_1 2.767234 1_555
Hf0_1 Rh2_1 2.836014 1_555
Hf0_2 Rh0_1 2.767232 1_555
Hf0_2 Rh0_0 2.767232 1_555
Hf0_2 Rh1_2 2.767234 1_555
Hf0_2 Rh1_3 2.767234 1_555
Hf0_2 Rh2_2 2.836014 1_555
Hf0_2 Hf0_3 3.239662 1_554
Hf0_2 Hf0_3 3.239662 1_555
Hf0_3 Rh0_1 2.767232 1_555
Hf0_3 Rh0_0 2.767232 1_556
Hf0_3 Rh1_2 2.767234 1_556
Hf0_3 Rh1_3 2.767234 1_555
Hf0_3 Rh2_3 2.836014 1_555
Hf0_4 Rh0_7 2.767232 1_555
Hf0_4 Rh0_6 2.767232 1_555
Hf0_4 Rh1_5 2.767234 1_565
Hf0_4 Rh1_4 2.767234 1_565
Hf0_4 Rh2_4 2.836014 1_565
Hf0_4 Hf0_5 3.239662 1_554
Hf0_4 Hf0_5 3.239662 1_555
Hf0_5 Rh0_7 2.767232 1_555
Hf0_5 Rh0_6 2.767232 1_556
Hf0_5 Rh1_5 2.767234 1_565
Hf0_5 Rh1_4 2.767234 1_566
Hf0_5 Rh2_5 2.836014 1_565
Hf0_6 Rh0_4 2.767232 1_555
Hf0_6 Rh0_5 2.767232 1_555
Hf0_6 Rh1_7 2.767234 1_555
Hf0_6 Rh1_6 2.767234 1_555
Hf0_6 Rh2_6 2.836014 1_555
Hf0_6 Hf0_7 3.239662 1_555
Hf0_6 Hf0_7 3.239662 1_554
Hf0_7 Rh0_4 2.767232 1_556
Hf0_7 Rh0_5 2.767232 1_555
Hf0_7 Rh1_6 2.767234 1_556
Hf0_7 Rh1_7 2.767234 1_555
Hf0_7 Rh2_7 2.836014 1_555
Hf1_0 Rh1_4 2.767232 1_455
Hf1_0 Rh1_5 2.767232 1_455
Hf1_0 Rh0_1 2.767234 1_555
Hf1_0 Rh0_0 2.767234 1_555
Hf1_0 Rh2_0 2.836014 1_555
Hf1_0 Hf1_1 3.239662 1_554
Hf1_0 Hf1_1 3.239662 1_555
Hf1_1 Rh1_4 2.767232 1_456
Hf1_1 Rh1_5 2.767232 1_455
Hf1_1 Rh0_1 2.767234 1_555
Hf1_1 Rh0_0 2.767234 1_556
Hf1_1 Rh2_1 2.836014 1_555
Hf1_2 Rh1_6 2.767232 1_555
Hf1_2 Rh1_7 2.767232 1_555
Hf1_2 Rh0_3 2.767234 1_655
Hf1_2 Rh0_2 2.767234 1_655
Hf1_2 Rh2_2 2.836014 1_655
Hf1_2 Hf1_3 3.239662 1_554
Hf1_2 Hf1_3 3.239662 1_555
Hf1_3 Rh1_6 2.767232 1_556
Hf1_3 Rh1_7 2.767232 1_555
Hf1_3 Rh0_3 2.767234 1_655
Hf1_3 Rh0_2 2.767234 1_656
Hf1_3 Rh2_3 2.836014 1_655
Hf1_4 Rh1_0 2.767232 1_555
Hf1_4 Rh1_1 2.767232 1_555
Hf1_4 Rh0_4 2.767234 1_555
Hf1_4 Rh0_5 2.767234 1_555
Hf1_4 Rh2_4 2.836014 1_555
Hf1_4 Hf1_5 3.239662 1_555
Hf1_4 Hf1_5 3.239662 1_554
Hf1_5 Rh1_0 2.767232 1_556
Hf1_5 Rh1_1 2.767232 1_555
Hf1_5 Rh0_4 2.767234 1_556
Hf1_5 Rh0_5 2.767234 1_555
Hf1_5 Rh2_5 2.836014 1_555
Hf1_6 Rh1_2 2.767232 1_555
Hf1_6 Rh1_3 2.767232 1_555
Hf1_6 Rh0_6 2.767234 1_555
Hf1_6 Rh0_7 2.767234 1_555
Hf1_6 Rh2_6 2.836014 1_555
Hf1_6 Hf1_7 3.239662 1_554
Hf1_6 Hf1_7 3.239662 1_555
Hf1_7 Rh1_2 2.767232 1_556
Hf1_7 Rh1_3 2.767232 1_555
Hf1_7 Rh0_6 2.767234 1_556
Hf1_7 Rh0_7 2.767234 1_555
Hf1_7 Rh2_7 2.836014 1_555
Hf2_0 Rh0_1 2.767238 1_555
Hf2_0 Rh1_0 2.767238 1_555
Hf2_0 Rh1_1 2.767238 1_555
Hf2_0 Rh0_0 2.767238 1_555
Hf2_0 Rh2_6 2.836014 1_555
Hf2_0 Hf2_1 3.239662 1_555
Hf2_0 Hf2_1 3.239662 1_554
Hf2_1 Rh1_0 2.767238 1_556
Hf2_1 Rh0_1 2.767238 1_555
Hf2_1 Rh1_1 2.767238 1_555
Hf2_1 Rh0_0 2.767238 1_556
Hf2_1 Rh2_7 2.836014 1_555
Hf2_2 Rh0_2 2.767238 1_555
Hf2_2 Rh0_3 2.767238 1_555
Hf2_2 Rh1_2 2.767238 1_555
Hf2_2 Rh1_3 2.767238 1_555
Hf2_2 Rh2_4 2.836014 1_565
Hf2_2 Hf2_3 3.239662 1_555
Hf2_2 Hf2_3 3.239662 1_554
Hf2_3 Rh0_2 2.767238 1_556
Hf2_3 Rh0_3 2.767238 1_555
Hf2_3 Rh1_2 2.767238 1_556
Hf2_3 Rh1_3 2.767238 1_555
Hf2_3 Rh2_5 2.836014 1_565
Hf2_4 Rh1_4 2.767238 1_555
Hf2_4 Rh1_5 2.767238 1_555
Hf2_4 Rh0_4 2.767238 1_555
Hf2_4 Rh0_5 2.767238 1_555
Hf2_4 Rh2_2 2.836014 1_655
Hf2_4 Hf2_5 3.239662 1_554
Hf2_4 Hf2_5 3.239662 1_555
Hf2_5 Rh1_4 2.767238 1_556
Hf2_5 Rh1_5 2.767238 1_555
Hf2_5 Rh0_4 2.767238 1_556
Hf2_5 Rh0_5 2.767238 1_555
Hf2_5 Rh2_3 2.836014 1_655
Hf2_6 Rh0_7 2.767238 1_555
Hf2_6 Rh1_6 2.767238 1_555
Hf2_6 Rh1_7 2.767238 1_555
Hf2_6 Rh0_6 2.767238 1_555
Hf2_6 Rh2_0 2.836014 1_665
Hf2_6 Hf2_7 3.239662 1_554
Hf2_6 Hf2_7 3.239662 1_555
Hf2_7 Rh0_7 2.767238 1_555
Hf2_7 Rh1_6 2.767238 1_556
Hf2_7 Rh1_7 2.767238 1_555
Hf2_7 Rh0_6 2.767238 1_556
Hf2_7 Rh2_1 2.836014 1_665
Ga0_0 Rh2_4 2.574725 1_555
Ga0_0 Rh2_5 2.574725 1_554
Ga0_0 Rh1_0 2.657146 1_555
Ga0_0 Rh0_2 2.657151 1_545
Ga0_0 Hf0_0 2.918857 1_555
Ga0_0 Hf0_1 2.918857 1_554
Ga0_0 Hf2_3 2.999393 1_544
Ga0_0 Hf2_2 2.999393 1_545
Ga0_0 Hf1_4 2.999393 1_555
Ga0_0 Hf1_5 2.999393 1_554
Ga0_1 Rh2_4 2.574725 1_555
Ga0_1 Rh2_5 2.574725 1_555
Ga0_1 Rh1_1 2.657146 1_555
Ga0_1 Rh0_3 2.657151 1_545
Ga0_1 Hf0_1 2.918857 1_555
Ga0_1 Hf0_0 2.918857 1_555
Ga0_1 Hf2_2 2.999393 1_545
Ga0_1 Hf2_3 2.999393 1_545
Ga0_1 Hf1_4 2.999393 1_555
Ga0_1 Hf1_5 2.999393 1_555
Ga0_2 Rh2_6 2.574725 1_555
Ga0_2 Rh2_7 2.574725 1_554
Ga0_2 Rh1_2 2.657146 1_555
Ga0_2 Rh0_0 2.657151 1_555
Ga0_2 Hf0_3 2.918857 1_554
Ga0_2 Hf0_2 2.918857 1_555
Ga0_2 Hf2_0 2.999393 1_555
Ga0_2 Hf2_1 2.999393 1_554
Ga0_2 Hf1_6 2.999393 1_555
Ga0_2 Hf1_7 2.999393 1_554
Ga0_3 Rh2_6 2.574725 1_555
Ga0_3 Rh2_7 2.574725 1_555
Ga0_3 Rh1_3 2.657146 1_555
Ga0_3 Rh0_1 2.657151 1_555
Ga0_3 Hf0_3 2.918857 1_555
Ga0_3 Hf0_2 2.918857 1_555
Ga0_3 Hf2_0 2.999393 1_555
Ga0_3 Hf2_1 2.999393 1_555
Ga0_3 Hf1_6 2.999393 1_555
Ga0_3 Hf1_7 2.999393 1_555
Ga0_4 Rh2_0 2.574725 1_665
Ga0_4 Rh2_1 2.574725 1_664
Ga0_4 Rh1_4 2.657146 1_565
Ga0_4 Rh0_6 2.657151 1_555
Ga0_4 Hf0_5 2.918857 1_554
Ga0_4 Hf0_4 2.918857 1_555
Ga0_4 Hf2_7 2.999393 1_554
Ga0_4 Hf2_6 2.999393 1_555
Ga0_4 Hf1_0 2.999393 1_665
Ga0_4 Hf1_1 2.999393 1_664
Ga0_5 Rh2_0 2.574725 1_665
Ga0_5 Rh2_1 2.574725 1_665
Ga0_5 Rh1_5 2.657146 1_565
Ga0_5 Rh0_7 2.657151 1_555
Ga0_5 Hf0_5 2.918857 1_555
Ga0_5 Hf0_4 2.918857 1_555
Ga0_5 Hf2_7 2.999393 1_555
Ga0_5 Hf2_6 2.999393 1_555
Ga0_5 Hf1_0 2.999393 1_665
Ga0_5 Hf1_1 2.999393 1_665
Ga0_6 Rh2_2 2.574725 1_655
Ga0_6 Rh2_3 2.574725 1_654
Ga0_6 Rh1_6 2.657146 1_555
Ga0_6 Rh0_4 2.657151 1_555
Ga0_6 Hf0_7 2.918857 1_554
Ga0_6 Hf0_6 2.918857 1_555
Ga0_6 Hf2_4 2.999393 1_555
Ga0_6 Hf2_5 2.999393 1_554
Ga0_6 Hf1_2 2.999393 1_555
Ga0_6 Hf1_3 2.999393 1_554
Ga0_7 Rh2_2 2.574725 1_655
Ga0_7 Rh2_3 2.574725 1_655
Ga0_7 Rh1_7 2.657146 1_555
Ga0_7 Rh0_5 2.657151 1_555
Ga0_7 Hf0_7 2.918857 1_555
Ga0_7 Hf0_6 2.918857 1_555
Ga0_7 Hf2_4 2.999393 1_555
Ga0_7 Hf2_5 2.999393 1_555
Ga0_7 Hf1_2 2.999393 1_555
Ga0_7 Hf1_3 2.999393 1_555
Ga1_0 Rh2_2 2.574725 1_555
Ga1_0 Rh2_3 2.574725 1_554
Ga1_0 Rh0_0 2.657146 1_555
Ga1_0 Rh1_4 2.657151 1_455
Ga1_0 Hf1_1 2.918857 1_554
Ga1_0 Hf1_0 2.918857 1_555
Ga1_0 Hf2_4 2.999393 1_455
Ga1_0 Hf2_5 2.999393 1_454
Ga1_0 Hf0_3 2.999393 1_554
Ga1_0 Hf0_2 2.999393 1_555
Ga1_1 Rh2_3 2.574725 1_555
Ga1_1 Rh2_2 2.574725 1_555
Ga1_1 Rh0_1 2.657146 1_555
Ga1_1 Rh1_5 2.657151 1_455
Ga1_1 Hf1_1 2.918857 1_555
Ga1_1 Hf1_0 2.918857 1_555
Ga1_1 Hf2_4 2.999393 1_455
Ga1_1 Hf2_5 2.999393 1_455
Ga1_1 Hf0_3 2.999393 1_555
Ga1_1 Hf0_2 2.999393 1_555
Ga1_2 Rh2_1 2.574725 1_664
Ga1_2 Rh2_0 2.574725 1_665
Ga1_2 Rh0_2 2.657146 1_655
Ga1_2 Rh1_6 2.657151 1_555
Ga1_2 Hf1_3 2.918857 1_554
Ga1_2 Hf1_2 2.918857 1_555
Ga1_2 Hf2_6 2.999393 1_555
Ga1_2 Hf2_7 2.999393 1_554
Ga1_2 Hf0_0 2.999393 1_665
Ga1_2 Hf0_1 2.999393 1_664
Ga1_3 Rh2_1 2.574725 1_665
Ga1_3 Rh2_0 2.574725 1_665
Ga1_3 Rh0_3 2.657146 1_655
Ga1_3 Rh1_7 2.657151 1_555
Ga1_3 Hf1_3 2.918857 1_555
Ga1_3 Hf1_2 2.918857 1_555
Ga1_3 Hf2_6 2.999393 1_555
Ga1_3 Hf2_7 2.999393 1_555
Ga1_3 Hf0_0 2.999393 1_665
Ga1_3 Hf0_1 2.999393 1_665
Ga1_4 Rh2_6 2.574725 1_555
Ga1_4 Rh2_7 2.574725 1_554
Ga1_4 Rh0_4 2.657146 1_555
Ga1_4 Rh1_0 2.657151 1_555
Ga1_4 Hf1_4 2.918857 1_555
Ga1_4 Hf1_5 2.918857 1_554
Ga1_4 Hf2_0 2.999393 1_555
Ga1_4 Hf2_1 2.999393 1_554
Ga1_4 Hf0_7 2.999393 1_554
Ga1_4 Hf0_6 2.999393 1_555
Ga1_5 Rh2_6 2.574725 1_555
Ga1_5 Rh2_7 2.574725 1_555
Ga1_5 Rh0_5 2.657146 1_555
Ga1_5 Rh1_1 2.657151 1_555
Ga1_5 Hf1_4 2.918857 1_555
Ga1_5 Hf1_5 2.918857 1_555
Ga1_5 Hf2_0 2.999393 1_555
Ga1_5 Hf2_1 2.999393 1_555
Ga1_5 Hf0_7 2.999393 1_555
Ga1_5 Hf0_6 2.999393 1_555
Ga1_6 Rh2_5 2.574725 1_564
Ga1_6 Rh2_4 2.574725 1_565
Ga1_6 Rh0_6 2.657146 1_555
Ga1_6 Rh1_2 2.657151 1_555
Ga1_6 Hf1_6 2.918857 1_555
Ga1_6 Hf1_7 2.918857 1_554
Ga1_6 Hf2_2 2.999393 1_555
Ga1_6 Hf2_3 2.999393 1_554
Ga1_6 Hf0_5 2.999393 1_554
Ga1_6 Hf0_4 2.999393 1_555
Ga1_7 Rh2_4 2.574725 1_565
Ga1_7 Rh2_5 2.574725 1_565
Ga1_7 Rh0_7 2.657146 1_555
Ga1_7 Rh1_3 2.657151 1_555
Ga1_7 Hf1_6 2.918857 1_555
Ga1_7 Hf1_7 2.918857 1_555
Ga1_7 Hf2_2 2.999393 1_555
Ga1_7 Hf2_3 2.999393 1_555
Ga1_7 Hf0_5 2.999393 1_555
Ga1_7 Hf0_4 2.999393 1_555
Ga2_0 Rh2_0 2.574725 1_555
Ga2_0 Rh2_1 2.574725 1_554
Ga2_0 Rh1_0 2.657154 1_555
Ga2_0 Rh0_0 2.657154 1_555
Ga2_0 Hf2_0 2.918858 1_555
Ga2_0 Hf2_1 2.918858 1_554
Ga2_0 Hf0_0 2.999393 1_555
Ga2_0 Hf0_1 2.999393 1_554
Ga2_0 Hf1_0 2.999393 1_555
Ga2_0 Hf1_1 2.999393 1_554
Ga2_1 Rh2_0 2.574725 1_555
Ga2_1 Rh2_1 2.574725 1_555
Ga2_1 Rh0_1 2.657154 1_555
Ga2_1 Rh1_1 2.657154 1_555
Ga2_1 Hf2_0 2.918858 1_555
Ga2_1 Hf2_1 2.918858 1_555
Ga2_1 Hf0_0 2.999393 1_555
Ga2_1 Hf1_0 2.999393 1_555
Ga2_1 Hf0_1 2.999393 1_555
Ga2_1 Hf1_1 2.999393 1_555
Ga2_2 Rh2_2 2.574725 1_555
Ga2_2 Rh2_3 2.574725 1_554
Ga2_2 Rh1_2 2.657154 1_555
Ga2_2 Rh0_2 2.657154 1_555
Ga2_2 Hf2_3 2.918858 1_554
Ga2_2 Hf2_2 2.918858 1_555
Ga2_2 Hf0_2 2.999393 1_555
Ga2_2 Hf0_3 2.999393 1_554
Ga2_2 Hf1_3 2.999393 1_454
Ga2_2 Hf1_2 2.999393 1_455
Ga2_3 Rh2_2 2.574725 1_555
Ga2_3 Rh2_3 2.574725 1_555
Ga2_3 Rh1_3 2.657154 1_555
Ga2_3 Rh0_3 2.657154 1_555
Ga2_3 Hf2_2 2.918858 1_555
Ga2_3 Hf2_3 2.918858 1_555
Ga2_3 Hf0_3 2.999393 1_555
Ga2_3 Hf0_2 2.999393 1_555
Ga2_3 Hf1_2 2.999393 1_455
Ga2_3 Hf1_3 2.999393 1_455
Ga2_4 Rh2_4 2.574725 1_555
Ga2_4 Rh2_5 2.574725 1_554
Ga2_4 Rh0_4 2.657154 1_555
Ga2_4 Rh1_4 2.657154 1_555
Ga2_4 Hf2_4 2.918858 1_555
Ga2_4 Hf2_5 2.918858 1_554
Ga2_4 Hf1_5 2.999393 1_554
Ga2_4 Hf1_4 2.999393 1_555
Ga2_4 Hf0_4 2.999393 1_545
Ga2_4 Hf0_5 2.999393 1_544
Ga2_5 Rh2_4 2.574725 1_555
Ga2_5 Rh2_5 2.574725 1_555
Ga2_5 Rh0_5 2.657154 1_555
Ga2_5 Rh1_5 2.657154 1_555
Ga2_5 Hf2_4 2.918858 1_555
Ga2_5 Hf2_5 2.918858 1_555
Ga2_5 Hf1_5 2.999393 1_555
Ga2_5 Hf1_4 2.999393 1_555
Ga2_5 Hf0_4 2.999393 1_545
Ga2_5 Hf0_5 2.999393 1_545
Ga2_6 Rh2_6 2.574725 1_555
Ga2_6 Rh2_7 2.574725 1_554
Ga2_6 Rh0_6 2.657154 1_555
Ga2_6 Rh1_6 2.657154 1_555
Ga2_6 Hf2_6 2.918858 1_555
Ga2_6 Hf2_7 2.918858 1_554
Ga2_6 Hf0_6 2.999393 1_555
Ga2_6 Hf1_6 2.999393 1_555
Ga2_6 Hf1_7 2.999393 1_554
Ga2_6 Hf0_7 2.999393 1_554
Ga2_7 Rh2_6 2.574725 1_555
Ga2_7 Rh2_7 2.574725 1_555
Ga2_7 Rh0_7 2.657154 1_555
Ga2_7 Rh1_7 2.657154 1_555
Ga2_7 Hf2_6 2.918858 1_555
Ga2_7 Hf2_7 2.918858 1_555
Ga2_7 Hf0_7 2.999393 1_555
Ga2_7 Hf0_6 2.999393 1_555
Ga2_7 Hf1_6 2.999393 1_555
Ga2_7 Hf1_7 2.999393 1_555
