# generated using pymatgen
data_Ta20Pd9S50
_symmetry_space_group_name_H-M   'P 1'
_cell_length_a   10.34335216
_cell_length_b   10.34331708
_cell_length_c   15.60635289
_cell_angle_alpha   79.85376277
_cell_angle_beta   79.85406572
_cell_angle_gamma   105.67146328
_symmetry_Int_Tables_number   1
_chemical_formula_structural   Ta20Pd9S50
_chemical_formula_sum   'Ta20 Pd9 S50'
_cell_volume   1537.70604960
_cell_formula_units_Z   1
loop_
 _symmetry_equiv_pos_site_id
 _symmetry_equiv_pos_as_xyz
  1  'x, y, z'
loop_
 _atom_site_type_symbol
 _atom_site_label
 _atom_site_symmetry_multiplicity
 _atom_site_fract_x
 _atom_site_fract_y
 _atom_site_fract_z
 _atom_site_occupancy
  Ta  Ta0  1  0.64857686  0.64858701  0.62179342  1
  Ta  Ta1  1  0.84908646  0.44723427  0.62362951  1
  Ta  Ta2  1  0.04610781  0.24666213  0.62340387  1
  Ta  Ta3  1  0.24666318  0.04607964  0.62340104  1
  Ta  Ta4  1  0.44723631  0.84908847  0.62363078  1
  Ta  Ta5  1  0.55279540  0.15096102  0.37632964  1
  Ta  Ta6  1  0.75335583  0.95391436  0.37656047  1
  Ta  Ta7  1  0.95391551  0.75335350  0.37655681  1
  Ta  Ta8  1  0.15096027  0.55280613  0.37632168  1
  Ta  Ta9  1  0.35142590  0.35143505  0.37817124  1
  Ta  Ta10  1  0.67357556  0.47126337  0.81641737  1
  Ta  Ta11  1  0.87256350  0.27143347  0.81738094  1
  Ta  Ta12  1  0.07172166  0.07169428  0.81692624  1
  Ta  Ta13  1  0.27145852  0.87257022  0.81736662  1
  Ta  Ta14  1  0.47124414  0.67360453  0.81640742  1
  Ta  Ta15  1  0.52873181  0.32641623  0.18360675  1
  Ta  Ta16  1  0.72855571  0.12742929  0.18265614  1
  Ta  Ta17  1  0.92824350  0.92824589  0.18309665  1
  Ta  Ta18  1  0.12742970  0.72856115  0.18265082  1
  Ta  Ta19  1  0.32642360  0.52873777  0.18359910  1
  Pd  Pd0  1  0.90006485  0.09990761  0.00004596  1
  Pd  Pd1  1  0.09992168  0.90004083  0.00003995  1
  Pd  Pd2  1  0.30044787  0.69953084  0.00006686  1
  Pd  Pd3  1  0.49998167  0.49998281  0.00002186  1
  Pd  Pd4  1  0.69950288  0.30042971  0.00007970  1
  Pd  Pd5  1  0.10049968  0.89949443  0.49996176  1
  Pd  Pd6  1  0.69547911  0.30454472  0.49995749  1
  Pd  Pd7  1  0.30456244  0.69550289  0.49994302  1
  Pd  Pd8  1  0.89948838  0.10049010  0.49996507  1
  S  S0  1  0.44490696  0.04598642  0.69184755  1
  S  S1  1  0.64695227  0.84607312  0.69086810  1
  S  S2  1  0.84607151  0.64694547  0.69086702  1
  S  S3  1  0.04597895  0.44490016  0.69185153  1
  S  S4  1  0.24499200  0.24497801  0.69104235  1
  S  S5  1  0.75500614  0.75500902  0.30893777  1
  S  S6  1  0.95402908  0.55510924  0.30812466  1
  S  S7  1  0.15393597  0.35307125  0.30910047  1
  S  S8  1  0.35306418  0.15393276  0.30910493  1
  S  S9  1  0.55510576  0.95402561  0.30813230  1
  S  S10  1  0.44932317  0.24838250  0.50246350  1
  S  S11  1  0.65295179  0.05900655  0.50425853  1
  S  S12  1  0.85360065  0.85358394  0.50334649  1
  S  S13  1  0.05899784  0.65295432  0.50425411  1
  S  S14  1  0.24838752  0.44934611  0.50246377  1
  S  S15  1  0.75165923  0.55070316  0.49745398  1
  S  S16  1  0.94104086  0.34706327  0.49567615  1
  S  S17  1  0.14641009  0.14641717  0.49658275  1
  S  S18  1  0.34707091  0.94104413  0.49567386  1
  S  S19  1  0.55070080  0.75166684  0.49745220  1
  S  S20  1  0.62378410  0.22389201  0.87994073  1
  S  S21  1  0.82337208  0.02322263  0.88035921  1
  S  S22  1  0.02323451  0.82334128  0.88035787  1
  S  S23  1  0.22387701  0.62378181  0.87994056  1
  S  S24  1  0.42537907  0.42540840  0.87890271  1
  S  S25  1  0.57457684  0.57457326  0.12108062  1
  S  S26  1  0.77611344  0.37621038  0.12015229  1
  S  S27  1  0.97674506  0.17660889  0.11968901  1
  S  S28  1  0.17660044  0.97674491  0.11967998  1
  S  S29  1  0.37621789  0.77612412  0.12014631  1
  S  S30  1  0.59770460  0.39901761  0.68597758  1
  S  S31  1  0.79651708  0.19712250  0.68896884  1
  S  S32  1  -0.00368436  -0.00369451  0.68869293  1
  S  S33  1  0.19712278  0.79650202  0.68896702  1
  S  S34  1  0.39900979  0.59770826  0.68597810  1
  S  S35  1  0.60100340  0.40233104  0.31397825  1
  S  S36  1  0.80291406  0.20351451  0.31101103  1
  S  S37  1  0.00370914  0.00370279  0.31127144  1
  S  S38  1  0.20351430  0.80291427  0.31100421  1
  S  S39  1  0.40232813  0.60100922  0.31397542  1
  S  S40  1  0.26924064  0.06986230  0.88530210  1
  S  S41  1  0.46935565  0.86967954  0.88522389  1
  S  S42  1  0.66862497  0.66864298  0.88440675  1
  S  S43  1  0.86964470  0.46933616  0.88522924  1
  S  S44  1  0.06987020  0.26922139  0.88529943  1
  S  S45  1  0.93008660  0.73070023  0.11478298  1
  S  S46  1  0.13031800  0.53062238  0.11486434  1
  S  S47  1  0.33131462  0.33131297  0.11565899  1
  S  S48  1  0.53060225  0.13029618  0.11488220  1
  S  S49  1  0.73069747  0.93008971  0.11478577  1
loop_
_geom_bond_atom_site_label_1
_geom_bond_atom_site_label_2
_geom_bond_distance
_geom_bond_site_symmetry_2
Pd0 S27 2.334219 1_555
Pd0 S21 2.334831 1_554
Pd0 S44 2.341765 1_654
Pd0 S49 2.341994 1_545
Pd1 S28 2.334181 1_555
Pd1 S22 2.334800 1_554
Pd1 S40 2.341788 1_564
Pd1 S45 2.341979 1_455
Pd2 S29 2.336408 1_555
Pd2 S23 2.336907 1_554
Pd2 S46 2.341837 1_555
Pd2 S41 2.342271 1_554
Pd3 S25 2.337834 1_555
Pd3 S24 2.338671 1_554
Pd3 S42 2.340901 1_554
Pd3 S47 2.341216 1_555
Pd4 S26 2.336421 1_555
Pd4 S20 2.336835 1_554
Pd4 S48 2.341859 1_555
Pd4 S43 2.342295 1_554
Pd5 S13 2.455562 1_555
Pd5 S18 2.455846 1_555
Pd5 S12 2.457333 1_455
Pd5 S17 2.457582 1_565
Pd6 S11 2.444172 1_555
Pd6 S16 2.444488 1_555
Pd6 S10 2.445275 1_555
Pd6 S15 2.445291 1_555
Pd7 S18 2.444317 1_555
Pd7 S13 2.444398 1_555
Pd7 S19 2.445147 1_555
Pd7 S14 2.445221 1_555
Pd8 S11 2.455552 1_555
Pd8 S16 2.455851 1_555
Pd8 S12 2.457428 1_545
Pd8 S17 2.457555 1_655
S0 Ta13 2.461429 1_545
S0 Ta4 2.462316 1_545
S0 Ta3 2.473462 1_555
S1 Ta14 2.467068 1_555
S1 Ta0 2.474432 1_555
S1 Ta4 2.481184 1_555
S2 Ta10 2.467161 1_555
S2 Ta0 2.474531 1_555
S2 Ta1 2.481139 1_555
S3 Ta11 2.461587 1_455
S3 Ta1 2.462322 1_455
S3 Ta2 2.473472 1_555
S4 Ta12 2.463248 1_555
S4 Ta2 2.474727 1_555
S4 Ta3 2.474863 1_555
S5 Ta17 2.462564 1_555
S5 Ta6 2.474729 1_555
S5 Ta7 2.474744 1_555
S6 Ta18 2.461000 1_655
S6 Ta8 2.462409 1_655
S6 Ta7 2.473367 1_555
S7 Ta19 2.466653 1_555
S7 Ta9 2.474452 1_555
S7 Ta8 2.481151 1_555
S8 Ta15 2.466614 1_555
S8 Ta9 2.474529 1_555
S8 Ta5 2.481143 1_555
S9 Ta16 2.461024 1_565
S9 Ta5 2.462462 1_565
S9 Ta6 2.473384 1_555
S10 Ta9 2.543766 1_555
S10 Ta5 2.564177 1_555
S10 Ta3 2.679515 1_555
S11 Ta5 2.560430 1_555
S11 Ta6 2.622149 1_545
S11 Ta4 2.719349 1_545
S12 Ta7 2.578230 1_555
S12 Ta6 2.578335 1_555
S12 Ta0 2.686784 1_555
S13 Ta8 2.560454 1_555
S13 Ta7 2.622047 1_455
S13 Ta1 2.719358 1_455
S14 Ta9 2.543811 1_555
S14 Ta8 2.564257 1_555
S14 Ta2 2.679536 1_555
S15 Ta0 2.544363 1_555
S15 Ta1 2.564691 1_555
S15 Ta7 2.678985 1_555
S16 Ta1 2.560834 1_555
S16 Ta2 2.622313 1_655
S16 Ta8 2.719369 1_655
S17 Ta2 2.578654 1_555
S17 Ta3 2.578804 1_555
S17 Ta9 2.686618 1_555
S18 Ta4 2.560838 1_555
S18 Ta3 2.622126 1_565
S18 Ta5 2.719207 1_565
S19 Ta0 2.544315 1_555
S19 Ta4 2.564680 1_555
S19 Ta6 2.678930 1_555
S20 Ta10 2.451374 1_555
S20 Ta11 2.465481 1_555
S21 Ta11 2.458687 1_555
S21 Ta12 2.462396 1_655
S22 Ta13 2.458804 1_555
S22 Ta12 2.462388 1_565
S23 Ta14 2.451328 1_555
S23 Ta13 2.465530 1_555
S24 Ta14 2.462432 1_555
S24 Ta10 2.462437 1_555
S25 Ta19 2.462150 1_555
S25 Ta15 2.462179 1_555
S26 Ta15 2.451282 1_555
S26 Ta16 2.465304 1_555
S27 Ta16 2.458482 1_555
S27 Ta17 2.462393 1_545
S28 Ta18 2.458440 1_555
S28 Ta17 2.462377 1_455
S29 Ta19 2.451310 1_555
S29 Ta18 2.465378 1_555
S30 Ta10 2.469868 1_555
S30 Ta0 2.472495 1_555
S30 Ta1 2.488637 1_555
S31 Ta11 2.448901 1_555
S31 Ta1 2.478560 1_555
S31 Ta2 2.478752 1_655
S32 Ta12 2.447967 1_555
S32 Ta3 2.484730 1_555
S32 Ta2 2.484768 1_555
S33 Ta13 2.448900 1_555
S33 Ta4 2.478557 1_555
S33 Ta3 2.478617 1_565
S34 Ta14 2.469772 1_555
S34 Ta0 2.472478 1_555
S34 Ta4 2.488591 1_555
S35 Ta15 2.469143 1_555
S35 Ta9 2.472575 1_555
S35 Ta5 2.488534 1_555
S36 Ta16 2.448405 1_555
S36 Ta5 2.478599 1_555
S36 Ta6 2.478753 1_545
S37 Ta17 2.447615 1_445
S37 Ta7 2.484685 1_445
S37 Ta6 2.484754 1_445
S38 Ta18 2.448361 1_555
S38 Ta8 2.478483 1_555
S38 Ta7 2.478759 1_455
S39 Ta19 2.469172 1_555
S39 Ta9 2.472530 1_555
S39 Ta8 2.488520 1_555
S40 Ta13 2.463303 1_545
S40 Ta12 2.468765 1_555
S41 Ta14 2.459320 1_555
S41 Ta13 2.469388 1_555
S42 Ta10 2.469210 1_555
S42 Ta14 2.469331 1_555
S43 Ta10 2.459286 1_555
S43 Ta11 2.469405 1_555
S44 Ta11 2.463280 1_455
S44 Ta12 2.468847 1_555
S45 Ta18 2.463049 1_655
S45 Ta17 2.468472 1_555
S46 Ta19 2.458861 1_555
S46 Ta18 2.469141 1_555
S47 Ta19 2.469091 1_555
S47 Ta15 2.469099 1_555
S48 Ta15 2.458880 1_555
S48 Ta16 2.469133 1_555
S49 Ta16 2.463041 1_565
S49 Ta17 2.468453 1_555
