# generated using pymatgen
data_RbV3O8
_symmetry_space_group_name_H-M   'P 1'
_cell_length_a   8.41689799
_cell_length_b   5.00654176
_cell_length_c   7.90686964
_cell_angle_alpha   83.05610050
_cell_angle_beta   90.00000000
_cell_angle_gamma   90.00000000
_symmetry_Int_Tables_number   1
_chemical_formula_structural   RbV3O8
_chemical_formula_sum   'Rb2 V6 O16'
_cell_volume   330.74797674
_cell_formula_units_Z   2
loop_
 _symmetry_equiv_pos_site_id
 _symmetry_equiv_pos_as_xyz
  1  'x, y, z'
loop_
 _atom_site_type_symbol
 _atom_site_label
 _atom_site_symmetry_multiplicity
 _atom_site_fract_x
 _atom_site_fract_y
 _atom_site_fract_z
 _atom_site_occupancy
  Rb  Rb0  1  0.25000000  0.06296582  0.06434598  1
  Rb  Rb1  1  0.75000000  0.93703418  0.93565402  1
  V  V0  1  0.55407341  0.43913539  0.31807463  1
  V  V1  1  0.05407341  0.56086461  0.68192537  1
  V  V2  1  0.44592659  0.56086461  0.68192537  1
  V  V3  1  0.94592659  0.43913539  0.31807463  1
  V  V4  1  0.25000000  0.07435967  0.57409951  1
  V  V5  1  0.75000000  0.92564033  0.42590049  1
  O  O0  1  0.59974915  0.11309388  0.27235761  1
  O  O1  1  0.09974915  0.88690612  0.72764239  1
  O  O2  1  0.40025085  0.88690612  0.72764239  1
  O  O3  1  0.90025085  0.11309388  0.27235761  1
  O  O4  1  0.56498814  0.43149556  0.82913261  1
  O  O5  1  0.06498814  0.56850444  0.17086739  1
  O  O6  1  0.43501186  0.56850444  0.17086739  1
  O  O7  1  0.93501186  0.43149556  0.82913261  1
  O  O8  1  0.75000000  0.12177368  0.57292424  1
  O  O9  1  0.25000000  0.87822632  0.42707576  1
  O  O10  1  0.75000000  0.58255514  0.24780851  1
  O  O11  1  0.25000000  0.41744486  0.75219149  1
  O  O12  1  0.91234516  0.68293985  0.49478523  1
  O  O13  1  0.41234516  0.31706015  0.50521477  1
  O  O14  1  0.08765484  0.31706015  0.50521477  1
  O  O15  1  0.58765484  0.68293985  0.49478523  1
loop_
_geom_bond_atom_site_label_1
_geom_bond_atom_site_label_2
_geom_bond_distance
_geom_bond_site_symmetry_2
O0 V0 1.756609 1_555
O0 V5 1.917944 1_545
O0 Rb1 3.167236 1_544
O0 Rb0 3.396156 1_555
O1 V1 1.756609 1_555
O1 V4 1.917944 1_565
O1 Rb0 3.167236 1_566
O1 Rb1 3.396156 1_455
O2 V2 1.756609 1_555
O2 V4 1.917944 1_565
O2 Rb0 3.167236 1_566
O2 Rb1 3.396156 1_555
O3 V3 1.756609 1_555
O3 V5 1.917944 1_545
O3 Rb1 3.167236 1_544
O3 Rb0 3.396156 1_655
O4 V2 1.611291 1_555
O4 Rb1 2.959476 1_545
O4 Rb1 3.171079 1_555
O5 V3 1.611291 1_455
O5 Rb0 2.959476 1_565
O5 Rb0 3.171079 1_555
O6 V0 1.611291 1_555
O6 Rb0 2.959476 1_565
O6 Rb0 3.171079 1_555
O7 V1 1.611291 1_655
O7 Rb1 2.959476 1_545
O7 Rb1 3.171079 1_555
O8 V5 1.609857 1_545
O8 Rb1 2.905133 1_545
O9 V4 1.609857 1_565
O9 Rb0 2.905133 1_565
O10 V3 1.856692 1_555
O10 V0 1.856692 1_555
O10 V5 2.349067 1_555
O10 Rb1 2.860475 1_554
O11 V2 1.856692 1_555
O11 V1 1.856692 1_555
O11 V4 2.349067 1_555
O11 Rb0 2.860475 1_556
O12 V5 1.865541 1_555
O12 V1 1.940978 1_655
O12 V3 1.983537 1_555
O13 V4 1.865541 1_555
O13 V0 1.940978 1_555
O13 V2 1.983537 1_555
O14 V4 1.865541 1_555
O14 V3 1.940978 1_455
O14 V1 1.983537 1_555
O15 V5 1.865541 1_555
O15 V2 1.940978 1_555
O15 V0 1.983537 1_555
