# generated using pymatgen
data_NbC4N3O13
_symmetry_space_group_name_H-M   'P 1'
_cell_length_a   9.12536600
_cell_length_b   12.82436800
_cell_length_c   16.22104159
_cell_angle_alpha   86.48268065
_cell_angle_beta   90.00000000
_cell_angle_gamma   90.00000000
_symmetry_Int_Tables_number   1
_chemical_formula_structural   NbC4N3O13
_chemical_formula_sum   'Nb4 C16 N12 O52'
_cell_volume   1894.72484247
_cell_formula_units_Z   4
loop_
 _symmetry_equiv_pos_site_id
 _symmetry_equiv_pos_as_xyz
  1  'x, y, z'
loop_
 _atom_site_type_symbol
 _atom_site_label
 _atom_site_symmetry_multiplicity
 _atom_site_fract_x
 _atom_site_fract_y
 _atom_site_fract_z
 _atom_site_occupancy
  Nb  Nb0  1  0.93777900  0.19909800  0.87233100  1
  Nb  Nb1  1  0.93777900  0.80090200  0.62766900  1
  Nb  Nb2  1  0.06222100  0.80090200  0.12766900  1
  Nb  Nb3  1  0.06222100  0.19909800  0.37233100  1
  C  C0  1  0.67491600  0.45856300  0.08188000  1
  C  C1  1  0.67491600  0.54143700  0.41812000  1
  C  C2  1  0.32508400  0.54143700  0.91812000  1
  C  C3  1  0.32508400  0.45856300  0.58188000  1
  C  C4  1  0.54554600  0.26973200  0.97137200  1
  C  C5  1  0.54554600  0.73026800  0.52862800  1
  C  C6  1  0.45445400  0.73026800  0.02862800  1
  C  C7  1  0.45445400  0.26973200  0.47137200  1
  C  C8  1  0.46206900  0.12181300  0.79553000  1
  C  C9  1  0.46206900  0.87818700  0.70447000  1
  C  C10  1  0.53793100  0.87818700  0.20447000  1
  C  C11  1  0.53793100  0.12181300  0.29553000  1
  C  C12  1  0.67822100  0.00408100  0.90298700  1
  C  C13  1  0.67822100  0.99591900  0.59701300  1
  C  C14  1  0.32177900  0.99591900  0.09701300  1
  C  C15  1  0.32177900  0.00408100  0.40298700  1
  N  N0  1  0.86341000  0.06210100  0.12225400  1
  N  N1  1  0.86341000  0.93789900  0.37774600  1
  N  N2  1  0.13659000  0.93789900  0.87774600  1
  N  N3  1  0.13659000  0.06210100  0.62225400  1
  N  N4  1  0.71949200  0.29349400  0.62192600  1
  N  N5  1  0.71949200  0.70650600  0.87807400  1
  N  N6  1  0.28050800  0.70650600  0.37807400  1
  N  N7  1  0.28050800  0.29349400  0.12192600  1
  N  N8  1  0.77847200  0.37762000  0.30697400  1
  N  N9  1  0.77847200  0.62238000  0.19302600  1
  N  N10  1  0.22152800  0.62238000  0.69302600  1
  N  N11  1  0.22152800  0.37762000  0.80697400  1
  O  O0  1  0.04389500  0.13708000  0.97558300  1
  O  O1  1  0.04389500  0.86292000  0.52441700  1
  O  O2  1  0.95610500  0.86292000  0.02441700  1
  O  O3  1  0.95610500  0.13708000  0.47558300  1
  O  O4  1  0.13848100  0.20150400  0.92664600  1
  O  O5  1  0.13848100  0.79849600  0.57335400  1
  O  O6  1  0.86151900  0.79849600  0.07335400  1
  O  O7  1  0.86151900  0.20150400  0.42664600  1
  O  O8  1  0.90385700  0.15799200  0.75339000  1
  O  O9  1  0.90385700  0.84200800  0.74661000  1
  O  O10  1  0.09614300  0.84200800  0.24661000  1
  O  O11  1  0.09614300  0.15799200  0.25339000  1
  O  O12  1  0.03383500  0.21504600  0.75901700  1
  O  O13  1  0.03383500  0.78495400  0.74098300  1
  O  O14  1  0.96616500  0.78495400  0.24098300  1
  O  O15  1  0.96616500  0.21504600  0.25901700  1
  O  O16  1  0.61515800  0.23489600  0.02767100  1
  O  O17  1  0.61515800  0.76510400  0.47232900  1
  O  O18  1  0.38484200  0.76510400  0.97232900  1
  O  O19  1  0.38484200  0.23489600  0.52767100  1
  O  O20  1  0.65605600  0.41180000  0.14557900  1
  O  O21  1  0.65605600  0.58820000  0.35442100  1
  O  O22  1  0.34394400  0.58820000  0.85442100  1
  O  O23  1  0.34394400  0.41180000  0.64557900  1
  O  O24  1  0.69252400  0.50457900  0.01755700  1
  O  O25  1  0.69252400  0.49542100  0.48244300  1
  O  O26  1  0.30747600  0.49542100  0.98244300  1
  O  O27  1  0.30747600  0.50457900  0.51755700  1
  O  O28  1  0.84200600  0.31210100  0.89180400  1
  O  O29  1  0.84200600  0.68789900  0.60819600  1
  O  O30  1  0.15799400  0.68789900  0.10819600  1
  O  O31  1  0.15799400  0.31210100  0.39180400  1
  O  O32  1  0.47459500  0.30271000  0.91521100  1
  O  O33  1  0.47459500  0.69729000  0.58478900  1
  O  O34  1  0.52540500  0.69729000  0.08478900  1
  O  O35  1  0.52540500  0.30271000  0.41521100  1
  O  O36  1  0.34293800  0.12126100  0.77420300  1
  O  O37  1  0.34293800  0.87873900  0.72579700  1
  O  O38  1  0.65706200  0.87873900  0.22579700  1
  O  O39  1  0.65706200  0.12126100  0.27420300  1
  O  O40  1  0.59617900  0.93451300  0.90251200  1
  O  O41  1  0.59617900  0.06548700  0.59748800  1
  O  O42  1  0.40382100  0.06548700  0.09748800  1
  O  O43  1  0.40382100  0.93451300  0.40251200  1
  O  O44  1  0.76075100  0.07476300  0.90568100  1
  O  O45  1  0.76075100  0.92523700  0.59431900  1
  O  O46  1  0.23924900  0.92523700  0.09431900  1
  O  O47  1  0.23924900  0.07476300  0.40568100  1
  O  O48  1  0.88601400  0.50000000  0.75000000  1
  O  O49  1  0.11398600  0.50000000  0.25000000  1
  O  O50  1  0.75113300  0.50000000  0.75000000  1
  O  O51  1  0.24886700  0.50000000  0.25000000  1
loop_
_geom_bond_atom_site_label_1
_geom_bond_atom_site_label_2
_geom_bond_distance
_geom_bond_site_symmetry_2
Nb0 O28 1.737790 1_555
Nb0 O4 2.033432 1_655
Nb0 O12 2.035323 1_655
Nb0 O0 2.052305 1_655
Nb0 O8 2.054481 1_555
Nb0 O44 2.310619 1_555
Nb1 O29 1.737790 1_555
Nb1 O5 2.033432 1_655
Nb1 O13 2.035323 1_655
Nb1 O1 2.052305 1_655
Nb1 O9 2.054481 1_555
Nb1 O45 2.310619 1_555
Nb2 O30 1.737790 1_555
Nb2 O6 2.033432 1_455
Nb2 O14 2.035323 1_455
Nb2 O2 2.052305 1_455
Nb2 O10 2.054481 1_555
Nb2 O46 2.310619 1_555
Nb3 O31 1.737790 1_555
Nb3 O7 2.033432 1_455
Nb3 O15 2.035323 1_455
Nb3 O3 2.052305 1_455
Nb3 O11 2.054481 1_555
Nb3 O47 2.310619 1_555
C0 O20 1.175104 1_555
C0 O24 1.177782 1_555
C1 O21 1.175104 1_555
C1 O25 1.177782 1_555
C2 O22 1.175104 1_555
C2 O26 1.177782 1_555
C3 O23 1.175104 1_555
C3 O27 1.177782 1_555
C4 O32 1.175027 1_555
C4 O16 1.177725 1_556
C5 O33 1.175027 1_555
C5 O17 1.177725 1_555
C6 O34 1.175027 1_555
C6 O18 1.177725 1_554
C7 O35 1.175027 1_555
C7 O19 1.177725 1_555
C8 O36 1.140985 1_555
C9 O37 1.140985 1_555
C10 O38 1.140985 1_555
C11 O39 1.140985 1_555
C12 O40 1.165058 1_545
C12 O44 1.181359 1_555
C13 O41 1.165058 1_565
C13 O45 1.181359 1_555
C14 O42 1.165058 1_565
C14 O46 1.181359 1_555
C15 O43 1.165058 1_545
C15 O47 1.181359 1_555
O0 O4 1.406150 1_555
O1 O5 1.406150 1_555
O2 O6 1.406150 1_555
O3 O7 1.406150 1_555
O10 O14 1.399539 1_455
O11 O15 1.399539 1_455
O12 O8 1.399539 1_455
O13 O9 1.399539 1_455
O48 O50 1.230838 1_555
O49 O51 1.230838 1_555
