# generated using pymatgen
data_Sr3LaCu2(BiO3)4
_symmetry_space_group_name_H-M   'P 1'
_cell_length_a   4.56366946
_cell_length_b   4.88141223
_cell_length_c   16.20889457
_cell_angle_alpha   97.10350344
_cell_angle_beta   89.48129333
_cell_angle_gamma   89.70229135
_symmetry_Int_Tables_number   1
_chemical_formula_structural   Sr3LaCu2(BiO3)4
_chemical_formula_sum   'Sr3 La1 Cu2 Bi4 O12'
_cell_volume   358.29449098
_cell_formula_units_Z   1
loop_
 _symmetry_equiv_pos_site_id
 _symmetry_equiv_pos_as_xyz
  1  'x, y, z'
loop_
 _atom_site_type_symbol
 _atom_site_label
 _atom_site_symmetry_multiplicity
 _atom_site_fract_x
 _atom_site_fract_y
 _atom_site_fract_z
 _atom_site_occupancy
  Sr  Sr0  1  0.99178800  0.12023900  0.65019200  1
  Sr  Sr1  1  0.49158800  0.62910500  0.65306300  1
  Sr  Sr2  1  0.49883100  0.31964200  0.34746100  1
  La  La0  1  0.01302700  0.82481400  0.35857200  1
  Cu  Cu0  1  0.00896900  0.46803300  0.49695600  1
  Cu  Cu1  1  0.49504700  0.97609200  0.49932600  1
  Bi  Bi0  1  0.48017400  0.18185300  0.85559600  1
  Bi  Bi1  1  0.53039000  0.77578700  0.14330300  1
  Bi  Bi2  1  0.02602000  0.27750800  0.14310500  1
  Bi  Bi3  1  0.98159200  0.68108900  0.85525200  1
  O  O0  1  0.99114300  0.60846100  0.72334100  1
  O  O1  1  0.32694100  0.29330800  0.55014300  1
  O  O2  1  0.16953000  0.79311300  0.53680400  1
  O  O3  1  0.48104000  0.68370500  0.85915800  1
  O  O4  1  0.47966900  0.11462300  0.72433600  1
  O  O5  1  0.54799700  0.84526600  0.27820300  1
  O  O6  1  0.83080500  0.15009300  0.45244200  1
  O  O7  1  0.67306500  0.65764800  0.44637200  1
  O  O8  1  0.52705200  0.27481800  0.14135200  1
  O  O9  1  0.98031300  0.18357500  0.85928200  1
  O  O10  1  0.02935800  0.77503600  0.14105500  1
  O  O11  1  0.00766000  0.36819300  0.27868700  1
loop_
_geom_bond_atom_site_label_1
_geom_bond_atom_site_label_2
_geom_bond_distance
_geom_bond_site_symmetry_2
La0 O6 2.212157 1_465
La0 O7 2.314879 1_455
La0 O11 2.435733 1_555
La0 O5 2.508169 1_455
La0 O5 2.764896 1_555
La0 O11 3.092264 1_565
Cu0 O2 1.799819 1_555
Cu0 O6 1.826792 1_455
Cu0 O1 1.941149 1_555
Cu0 O7 2.018570 1_455
Cu1 O1 1.823602 1_565
Cu1 O7 1.859392 1_555
Cu1 O2 1.872255 1_555
Cu1 O6 1.949083 1_565
Bi0 O4 2.112276 1_555
Bi0 O9 2.281386 1_455
Bi0 O9 2.283823 1_555
Bi0 O3 2.439462 1_545
Bi0 O3 2.443303 1_555
Bi1 O5 2.173169 1_555
Bi1 O10 2.277063 1_655
Bi1 O10 2.287179 1_555
Bi1 O8 2.440059 1_565
Bi1 O8 2.441856 1_555
Bi2 O11 2.188207 1_555
Bi2 O8 2.277645 1_455
Bi2 O8 2.286413 1_555
Bi2 O10 2.433097 1_555
Bi2 O10 2.448852 1_545
Bi3 O0 2.123645 1_555
Bi3 O3 2.280826 1_655
Bi3 O3 2.284584 1_555
Bi3 O9 2.437547 1_555
Bi3 O9 2.445598 1_565
O0 Sr0 2.527155 1_555
O0 Sr1 2.550978 1_655
O0 Sr1 2.564820 1_555
O0 Sr0 2.894720 1_565
O1 Sr1 2.322412 1_555
O1 Sr0 2.447528 1_455
O2 Sr0 2.412346 1_465
O2 Sr1 2.600631 1_555
O4 Sr1 2.504974 1_545
O4 Sr0 2.541347 1_455
O4 Sr0 2.620162 1_555
O4 Sr1 2.891807 1_555
O5 Sr2 2.453529 1_565
O5 Sr2 2.933877 1_555
O6 Sr2 2.501552 1_555
O7 Sr2 2.303787 1_555
O11 Sr2 2.535431 1_555
O11 Sr2 2.591390 1_455
