# generated using pymatgen
data_Yb2CO7
_symmetry_space_group_name_H-M   'P 1'
_cell_length_a   6.38641800
_cell_length_b   6.43759100
_cell_length_c   15.55554559
_cell_angle_alpha   82.07586153
_cell_angle_beta   90.00000000
_cell_angle_gamma   90.00000000
_symmetry_Int_Tables_number   1
_chemical_formula_structural   Yb2CO7
_chemical_formula_sum   'Yb8 C4 O28'
_cell_volume   633.43079090
_cell_formula_units_Z   4
loop_
 _symmetry_equiv_pos_site_id
 _symmetry_equiv_pos_as_xyz
  1  'x, y, z'
loop_
 _atom_site_type_symbol
 _atom_site_label
 _atom_site_symmetry_multiplicity
 _atom_site_fract_x
 _atom_site_fract_y
 _atom_site_fract_z
 _atom_site_occupancy
  Yb  Yb0  1  0.25539100  0.90954200  0.57210400  1
  Yb  Yb1  1  0.74460900  0.09045800  0.42789600  1
  Yb  Yb2  1  0.75539100  0.09045800  0.92789600  1
  Yb  Yb3  1  0.24460900  0.90954200  0.07210400  1
  Yb  Yb4  1  0.23110600  0.89184700  0.81160000  1
  Yb  Yb5  1  0.76889400  0.10815300  0.18840000  1
  Yb  Yb6  1  0.73110600  0.10815300  0.68840000  1
  Yb  Yb7  1  0.26889400  0.89184700  0.31160000  1
  C  C0  1  0.42210900  0.41051300  0.61608000  1
  C  C1  1  0.57789100  0.58948700  0.38392000  1
  C  C2  1  0.92210900  0.58948700  0.88392000  1
  C  C3  1  0.07789100  0.41051300  0.11608000  1
  O  O0  1  0.87646600  0.92845400  0.06671500  1
  O  O1  1  0.12353400  0.07154600  0.93328500  1
  O  O2  1  0.37646600  0.07154600  0.43328500  1
  O  O3  1  0.62353400  0.92845400  0.56671500  1
  O  O4  1  0.41945200  0.91034700  0.93875800  1
  O  O5  1  0.58054800  0.08965300  0.06124200  1
  O  O6  1  0.91945200  0.08965300  0.56124200  1
  O  O7  1  0.08054800  0.91034700  0.43875800  1
  O  O8  1  0.28823600  0.55029000  0.58996000  1
  O  O9  1  0.71176400  0.44971000  0.41004000  1
  O  O10  1  0.78823600  0.44971000  0.91004000  1
  O  O11  1  0.21176400  0.55029000  0.08996000  1
  O  O12  1  0.87334600  0.78721800  0.87889500  1
  O  O13  1  0.12665400  0.21278200  0.12110500  1
  O  O14  1  0.37334600  0.21278200  0.62110500  1
  O  O15  1  0.62665400  0.78721800  0.37889500  1
  O  O16  1  0.50702800  0.83044400  0.71888200  1
  O  O17  1  0.49297200  0.16955600  0.28111800  1
  O  O18  1  0.00702800  0.16955600  0.78111800  1
  O  O19  1  0.99297200  0.83044400  0.21888200  1
  O  O20  1  0.03305900  0.91912400  0.68776900  1
  O  O21  1  0.96694100  0.08087600  0.31223100  1
  O  O22  1  0.53305900  0.08087600  0.81223100  1
  O  O23  1  0.46694100  0.91912400  0.18776900  1
  O  O24  1  0.10869100  0.54871600  0.86134500  1
  O  O25  1  0.89130900  0.45128400  0.13865500  1
  O  O26  1  0.60869100  0.45128400  0.63865500  1
  O  O27  1  0.39130900  0.54871600  0.36134500  1
loop_
_geom_bond_atom_site_label_1
_geom_bond_atom_site_label_2
_geom_bond_distance
_geom_bond_site_symmetry_2
C0 O8 1.266863 1_555
C0 O26 1.279652 1_555
C0 O14 1.302291 1_555
C1 O9 1.266863 1_555
C1 O27 1.279652 1_555
C1 O15 1.302291 1_555
C2 O10 1.266863 1_555
C2 O24 1.279652 1_655
C2 O12 1.302291 1_555
C3 O11 1.266863 1_555
C3 O25 1.279652 1_455
C3 O13 1.302291 1_555
O0 Yb3 2.355160 1_655
O0 Yb2 2.393250 1_564
O0 Yb5 2.448870 1_565
O1 Yb2 2.355160 1_455
O1 Yb3 2.393250 1_546
O1 Yb4 2.448870 1_545
O2 Yb1 2.355160 1_555
O2 Yb0 2.393250 1_545
O2 Yb7 2.448870 1_545
O3 Yb0 2.355160 1_555
O3 Yb1 2.393250 1_565
O3 Yb6 2.448870 1_565
O4 Yb4 2.332066 1_555
O4 Yb3 2.355101 1_556
O4 Yb2 2.433489 1_565
O5 Yb5 2.332066 1_555
O5 Yb2 2.355101 1_554
O5 Yb3 2.433489 1_545
O6 Yb6 2.332066 1_555
O6 Yb1 2.355101 1_555
O6 Yb0 2.433489 1_645
O7 Yb7 2.332066 1_555
O7 Yb0 2.355101 1_555
O7 Yb1 2.433489 1_465
O8 Yb0 2.300585 1_555
O9 Yb1 2.300585 1_555
O10 Yb2 2.300585 1_555
O11 Yb3 2.300585 1_555
O12 Yb2 2.317237 1_565
O12 Yb4 2.564258 1_655
O13 Yb3 2.317237 1_545
O13 Yb5 2.564258 1_455
O14 Yb0 2.317237 1_545
O14 Yb6 2.564258 1_555
O15 Yb1 2.317237 1_565
O15 Yb7 2.564258 1_555
O16 Yb6 2.288049 1_565
O16 Yb4 2.344952 1_555
O16 Yb0 2.781083 1_555
O17 Yb7 2.288049 1_545
O17 Yb5 2.344952 1_555
O17 Yb1 2.781083 1_555
O18 Yb4 2.288049 1_545
O18 Yb6 2.344952 1_455
O18 Yb2 2.781083 1_455
O19 Yb5 2.288049 1_565
O19 Yb7 2.344952 1_655
O19 Yb3 2.781083 1_655
O20 Yb6 2.280994 1_465
O20 Yb4 2.290806 1_555
O20 Yb0 2.299516 1_555
O21 Yb7 2.280994 1_645
O21 Yb5 2.290806 1_555
O21 Yb1 2.299516 1_555
O22 Yb4 2.280994 1_545
O22 Yb6 2.290806 1_555
O22 Yb2 2.299516 1_555
O23 Yb5 2.280994 1_565
O23 Yb7 2.290806 1_555
O23 Yb3 2.299516 1_555
O24 Yb4 2.370252 1_555
O25 Yb5 2.370252 1_555
O26 Yb6 2.370252 1_555
O27 Yb7 2.370252 1_555
