# generated using pymatgen
data_Hg2As5H6O2F31
_symmetry_space_group_name_H-M   'P 1'
_cell_length_a   11.12338100
_cell_length_b   10.39813800
_cell_length_c   11.54748988
_cell_angle_alpha   69.62189976
_cell_angle_beta   90.00000000
_cell_angle_gamma   90.00000000
_symmetry_Int_Tables_number   1
_chemical_formula_structural   Hg2As5H6O2F31
_chemical_formula_sum   'Hg4 As10 H12 O4 F62'
_cell_volume   1252.02197065
_cell_formula_units_Z   2
loop_
 _symmetry_equiv_pos_site_id
 _symmetry_equiv_pos_as_xyz
  1  'x, y, z'
loop_
 _atom_site_type_symbol
 _atom_site_label
 _atom_site_symmetry_multiplicity
 _atom_site_fract_x
 _atom_site_fract_y
 _atom_site_fract_z
 _atom_site_occupancy
  Hg  Hg0  1  0.35573200  0.35518200  0.53518600  1
  Hg  Hg1  1  0.85573200  0.14481800  0.46481400  1
  Hg  Hg2  1  0.64426800  0.64481800  0.46481400  1
  Hg  Hg3  1  0.14426800  0.85518200  0.53518600  1
  As  As0  1  0.00000000  0.50000000  0.50000000  1
  As  As1  1  0.50000000  0.00000000  0.50000000  1
  As  As2  1  0.18089300  0.04819300  0.79501200  1
  As  As3  1  0.68089300  0.45180700  0.20498800  1
  As  As4  1  0.81910700  0.95180700  0.20498800  1
  As  As5  1  0.31910700  0.54819300  0.79501200  1
  As  As6  1  0.17839000  0.25800900  0.24105800  1
  As  As7  1  0.67839000  0.24199100  0.75894200  1
  As  As8  1  0.82161000  0.74199100  0.75894200  1
  As  As9  1  0.32161000  0.75800900  0.24105800  1
  H  H0  1  0.92069100  0.43941200  0.88886800  1
  H  H1  1  0.42069100  0.06058800  0.11113200  1
  H  H2  1  0.07930900  0.56058800  0.11113200  1
  H  H3  1  0.57930900  0.93941200  0.88886800  1
  H  H4  1  0.92646800  0.28767300  0.87910200  1
  H  H5  1  0.42646800  0.21232700  0.12089800  1
  H  H6  1  0.07353200  0.71232700  0.12089800  1
  H  H7  1  0.57353200  0.78767300  0.87910200  1
  H  H8  1  0.05216500  0.37076000  0.88634800  1
  H  H9  1  0.55216500  0.12924000  0.11365200  1
  H  H10  1  0.94783500  0.62924000  0.11365200  1
  H  H11  1  0.44783500  0.87076000  0.88634800  1
  O  O0  1  0.96800400  0.35024400  0.91579900  1
  O  O1  1  0.46800400  0.14975600  0.08420100  1
  O  O2  1  0.03199600  0.64975600  0.08420100  1
  O  O3  1  0.53199600  0.85024400  0.91579900  1
  F  F0  1  0.50000000  0.50000000  0.50000000  1
  F  F1  1  0.00000000  0.00000000  0.50000000  1
  F  F2  1  0.15336900  0.45110400  0.53084000  1
  F  F3  1  0.65336900  0.04889600  0.46916000  1
  F  F4  1  0.84663100  0.54889600  0.46916000  1
  F  F5  1  0.34663100  0.95110400  0.53084000  1
  F  F6  1  0.96139400  0.32621500  0.51985300  1
  F  F7  1  0.46139400  0.17378500  0.48014700  1
  F  F8  1  0.03860600  0.67378500  0.48014700  1
  F  F9  1  0.53860600  0.82621500  0.51985300  1
  F  F10  1  0.97810000  0.46503500  0.65779400  1
  F  F11  1  0.47810000  0.03496500  0.34220600  1
  F  F12  1  0.02190000  0.53496500  0.34220600  1
  F  F13  1  0.52190000  0.96503500  0.65779400  1
  F  F14  1  0.24965300  0.16754200  0.64973300  1
  F  F15  1  0.74965300  0.33245800  0.35026700  1
  F  F16  1  0.75034700  0.83245800  0.35026700  1
  F  F17  1  0.25034700  0.66754200  0.64973300  1
  F  F18  1  0.33092800  0.99985100  0.84771800  1
  F  F19  1  0.83092800  0.50014900  0.15228200  1
  F  F20  1  0.66907200  0.00014900  0.15228200  1
  F  F21  1  0.16907200  0.49985100  0.84771800  1
  F  F22  1  0.12108200  0.92801300  0.92800400  1
  F  F23  1  0.62108200  0.57198700  0.07199600  1
  F  F24  1  0.87891800  0.07198700  0.07199600  1
  F  F25  1  0.37891800  0.42801300  0.92800400  1
  F  F26  1  0.04013800  0.10180500  0.72854600  1
  F  F27  1  0.54013800  0.39819500  0.27145400  1
  F  F28  1  0.95986200  0.89819500  0.27145400  1
  F  F29  1  0.45986200  0.60180500  0.72854600  1
  F  F30  1  0.18434500  0.17899500  0.85789400  1
  F  F31  1  0.68434500  0.32100500  0.14210600  1
  F  F32  1  0.81565500  0.82100500  0.14210600  1
  F  F33  1  0.31565500  0.67899500  0.85789400  1
  F  F34  1  0.18633200  0.92370200  0.72040300  1
  F  F35  1  0.68633200  0.57629800  0.27959700  1
  F  F36  1  0.81366800  0.07629800  0.27959700  1
  F  F37  1  0.31366800  0.42370200  0.72040300  1
  F  F38  1  0.22123200  0.30114800  0.37229900  1
  F  F39  1  0.72123200  0.19885200  0.62770100  1
  F  F40  1  0.77876800  0.69885200  0.62770100  1
  F  F41  1  0.27876800  0.80114800  0.37229900  1
  F  F42  1  0.33324400  0.27283300  0.19677100  1
  F  F43  1  0.83324400  0.22716700  0.80322900  1
  F  F44  1  0.66675600  0.72716700  0.80322900  1
  F  F45  1  0.16675600  0.77283300  0.19677100  1
  F  F46  1  0.16401200  0.43828600  0.15168400  1
  F  F47  1  0.66401200  0.06171400  0.84831600  1
  F  F48  1  0.83598800  0.56171400  0.84831600  1
  F  F49  1  0.33598800  0.93828600  0.15168400  1
  F  F50  1  0.13982400  0.21772100  0.11141200  1
  F  F51  1  0.63982400  0.28227900  0.88858800  1
  F  F52  1  0.86017600  0.78227900  0.88858800  1
  F  F53  1  0.36017600  0.71772100  0.11141200  1
  F  F54  1  0.02620600  0.25529500  0.28624800  1
  F  F55  1  0.52620600  0.24470500  0.71375200  1
  F  F56  1  0.97379400  0.74470500  0.71375200  1
  F  F57  1  0.47379400  0.75529500  0.28624800  1
  F  F58  1  0.19740300  0.08252000  0.32874400  1
  F  F59  1  0.69740400  0.41748000  0.67125600  1
  F  F60  1  0.80259700  0.91748000  0.67125600  1
  F  F61  1  0.30259700  0.58252000  0.32874400  1
loop_
_geom_bond_atom_site_label_1
_geom_bond_atom_site_label_2
_geom_bond_distance
_geom_bond_site_symmetry_2
As0 F12 1.746511 1_555
As0 F10 1.746511 1_455
As0 F4 1.780337 1_455
As0 F2 1.780337 1_555
As0 F8 1.792722 1_555
As0 F6 1.792722 1_455
As1 F13 1.746511 1_545
As1 F11 1.746511 1_555
As1 F3 1.780337 1_555
As1 F5 1.780337 1_545
As1 F9 1.792722 1_545
As1 F7 1.792722 1_555
As2 F22 1.739589 1_545
As2 F26 1.747341 1_555
As2 F30 1.751114 1_555
As2 F18 1.787526 1_545
As2 F34 1.788373 1_545
As2 F14 1.868032 1_555
As3 F23 1.739589 1_555
As3 F27 1.747341 1_555
As3 F31 1.751114 1_555
As3 F19 1.787526 1_555
As3 F35 1.788373 1_555
As3 F15 1.868032 1_555
As4 F24 1.739589 1_565
As4 F28 1.747341 1_555
As4 F32 1.751114 1_555
As4 F20 1.787526 1_565
As4 F36 1.788373 1_565
As4 F16 1.868032 1_555
As5 F25 1.739589 1_555
As5 F29 1.747341 1_555
As5 F33 1.751114 1_555
As5 F21 1.787526 1_555
As5 F37 1.788373 1_555
As5 F17 1.868032 1_555
As6 F50 1.742859 1_555
As6 F58 1.764361 1_555
As6 F54 1.768735 1_555
As6 F42 1.788128 1_555
As6 F38 1.788434 1_555
As6 F46 1.804798 1_555
As7 F51 1.742859 1_555
As7 F59 1.764363 1_555
As7 F55 1.768735 1_555
As7 F43 1.788128 1_555
As7 F39 1.788434 1_555
As7 F47 1.804798 1_555
As8 F52 1.742859 1_555
As8 F60 1.764361 1_555
As8 F56 1.768735 1_555
As8 F44 1.788128 1_555
As8 F40 1.788434 1_555
As8 F48 1.804798 1_555
As9 F53 1.742859 1_555
As9 F61 1.764361 1_555
As9 F57 1.768735 1_555
As9 F45 1.788128 1_555
As9 F41 1.788434 1_555
As9 F49 1.804798 1_555
H0 O0 1.016140 1_555
H1 O1 1.016140 1_555
H2 O2 1.016140 1_555
H3 O3 1.016140 1_555
H4 O0 1.004168 1_555
H5 O1 1.004168 1_555
H6 O2 1.004168 1_555
H7 O3 1.004168 1_555
H8 O0 0.993492 1_455
H9 O1 0.993492 1_555
H10 O2 0.993492 1_655
H11 O3 0.993492 1_555
F0 Hg2 2.140502 1_555
F0 Hg0 2.140502 1_555
F1 Hg1 2.140502 1_455
F1 Hg3 2.140502 1_545
F2 Hg0 2.455465 1_555
F3 Hg1 2.455465 1_555
F4 Hg2 2.455465 1_555
F5 Hg3 2.455465 1_555
F6 Hg1 2.485539 1_555
F7 Hg0 2.485539 1_555
F8 Hg3 2.485539 1_555
F9 Hg2 2.485539 1_555
F14 Hg0 2.269669 1_555
F15 Hg1 2.269669 1_555
F16 Hg2 2.269669 1_555
F17 Hg3 2.269669 1_555
F34 Hg3 2.522346 1_555
F35 Hg2 2.522346 1_555
F36 Hg1 2.522346 1_555
F37 Hg0 2.522346 1_555
F38 Hg0 2.613023 1_555
F39 Hg1 2.613023 1_555
F40 Hg2 2.613023 1_555
F41 Hg3 2.613023 1_555
F42 H5 1.619457 1_555
F43 H4 1.619457 1_555
F44 H7 1.619457 1_555
F45 H6 1.619457 1_555
F46 H2 1.519709 1_555
F47 H3 1.519709 1_545
F48 H0 1.519709 1_555
F49 H1 1.519709 1_565
