# generated using pymatgen
data_Li7Mn4CoO12
_symmetry_space_group_name_H-M   'P 1'
_cell_length_a   5.12231936
_cell_length_b   5.12231936
_cell_length_c   15.69487761
_cell_angle_alpha   81.49804083
_cell_angle_beta   81.49804083
_cell_angle_gamma   32.69171519
_symmetry_Int_Tables_number   1
_chemical_formula_structural   Li7Mn4CoO12
_chemical_formula_sum   'Li7 Mn4 Co1 O12'
_cell_volume   219.76758674
_cell_formula_units_Z   1
loop_
 _symmetry_equiv_pos_site_id
 _symmetry_equiv_pos_as_xyz
  1  'x, y, z'
loop_
 _atom_site_type_symbol
 _atom_site_label
 _atom_site_symmetry_multiplicity
 _atom_site_fract_x
 _atom_site_fract_y
 _atom_site_fract_z
 _atom_site_occupancy
  Li  Li0  1  0.25903400  0.25903400  0.07529700  1
  Li  Li1  1  0.74979900  0.74979900  0.25078900  1
  Li  Li2  1  0.24695700  0.24695700  0.42356500  1
  Li  Li3  1  0.74179100  0.74179100  0.58665700  1
  Li  Li4  1  0.24637900  0.24637900  0.75760100  1
  Li  Li5  1  0.75345100  0.75345100  0.90712500  1
  Li  Li6  1  0.50048100  0.50048100  0.83155500  1
  Mn  Mn0  1  0.01311300  0.01311300  0.98736400  1
  Mn  Mn1  1  0.99253200  0.99253200  0.67493400  1
  Mn  Mn2  1  0.50840200  0.50840200  0.16211200  1
  Mn  Mn3  1  0.99477100  0.99477100  0.33808700  1
  Co  Co0  1  0.49158800  0.49158800  0.50632200  1
  O  O0  1  0.39608400  0.39608400  0.96166600  1
  O  O1  1  0.89863900  0.89863900  0.11931700  1
  O  O2  1  0.38413400  0.38413400  0.29676800  1
  O  O3  1  0.87289200  0.87289200  0.46734000  1
  O  O4  1  0.38626000  0.38626000  0.63026900  1
  O  O5  1  0.88096500  0.88096500  0.77995300  1
  O  O6  1  0.12071500  0.12071500  0.20009500  1
  O  O7  1  0.60782000  0.60782000  0.37662800  1
  O  O8  1  0.10633600  0.10633600  0.55004200  1
  O  O9  1  0.60690700  0.60690700  0.70413600  1
  O  O10  1  0.12007100  0.12007100  0.88212300  1
  O  O11  1  0.62087900  0.62087900  0.03025800  1
loop_
_geom_bond_atom_site_label_1
_geom_bond_atom_site_label_2
_geom_bond_distance
_geom_bond_site_symmetry_2
Li0 O0 2.062854 1_554
Li0 O11 2.172156 1_545
Li0 O11 2.172156 1_455
Li0 O1 2.175126 1_455
Li0 O1 2.175126 1_545
Li0 O6 2.205608 1_555
Li1 O6 2.152355 1_655
Li1 O6 2.152355 1_565
Li1 O2 2.153269 1_565
Li1 O2 2.153269 1_655
Li1 O7 2.235929 1_555
Li1 O1 2.338447 1_555
Li2 O3 2.084467 1_545
Li2 O3 2.084467 1_455
Li2 O7 2.191401 1_455
Li2 O7 2.191401 1_545
Li2 O2 2.225293 1_555
Li2 O8 2.237365 1_555
Li3 O9 2.098698 1_555
Li3 O8 2.101761 1_565
Li3 O8 2.101761 1_655
Li3 O3 2.103373 1_555
Li3 O4 2.205283 1_655
Li3 O4 2.205283 1_565
Li4 O5 2.023555 1_455
Li4 O5 2.023555 1_545
Li4 O10 2.147910 1_555
Li4 O9 2.239809 1_455
Li4 O9 2.239809 1_545
Li4 O4 2.244540 1_555
Li5 O10 2.027308 1_655
Li5 O10 2.027308 1_565
Li5 O11 2.158046 1_556
Li5 O5 2.187280 1_555
Li5 O0 2.268673 1_655
Li5 O0 2.268673 1_565
Li6 O10 2.092304 1_655
Li6 O10 2.092304 1_565
Li6 O5 2.099463 1_455
Li6 O5 2.099463 1_545
Li6 O9 2.109307 1_555
Li6 O0 2.139519 1_555
Mn0 O10 1.816221 1_555
Mn0 O0 1.925466 1_545
Mn0 O0 1.925466 1_455
Mn0 O11 1.968127 1_456
Mn0 O11 1.968127 1_546
Mn0 O1 2.199372 1_446
Mn1 O5 1.833743 1_555
Mn1 O9 1.926465 1_655
Mn1 O9 1.926465 1_565
Mn1 O4 1.971476 1_655
Mn1 O4 1.971476 1_565
Mn1 O8 2.101933 1_665
Mn2 O6 1.963528 1_565
Mn2 O6 1.963528 1_655
Mn2 O1 1.979134 1_545
Mn2 O1 1.979134 1_455
Mn2 O11 2.190904 1_555
Mn2 O2 2.272291 1_555
Mn3 O7 1.971374 1_655
Mn3 O7 1.971374 1_565
Mn3 O2 1.974593 1_565
Mn3 O2 1.974593 1_655
Mn3 O3 2.191310 1_555
Mn3 O6 2.323183 1_665
Co0 O3 2.008493 1_545
Co0 O3 2.008493 1_455
Co0 O8 2.014951 1_565
Co0 O8 2.014951 1_655
Co0 O4 2.058097 1_555
Co0 O7 2.175383 1_555
