# generated using pymatgen
data_Mg2TiWO6
_symmetry_space_group_name_H-M   'P 1'
_cell_length_a   5.36546200
_cell_length_b   5.23042600
_cell_length_c   9.15926678
_cell_angle_alpha   56.45983519
_cell_angle_beta   90.00000000
_cell_angle_gamma   90.00000000
_symmetry_Int_Tables_number   1
_chemical_formula_structural   Mg2TiWO6
_chemical_formula_sum   'Mg4 Ti2 W2 O12'
_cell_volume   214.24457005
_cell_formula_units_Z   2
loop_
 _symmetry_equiv_pos_site_id
 _symmetry_equiv_pos_as_xyz
  1  'x, y, z'
loop_
 _atom_site_type_symbol
 _atom_site_label
 _atom_site_symmetry_multiplicity
 _atom_site_fract_x
 _atom_site_fract_y
 _atom_site_fract_z
 _atom_site_occupancy
  Mg  Mg0  1  0.05125300  0.26336600  0.74492700  1
  Mg  Mg1  1  0.55125300  0.73663400  0.75507300  1
  Mg  Mg2  1  0.94874700  0.73663400  0.25507300  1
  Mg  Mg3  1  0.44874700  0.26336600  0.24492700  1
  Ti  Ti0  1  0.00000000  0.50000000  0.00000000  1
  Ti  Ti1  1  0.50000000  0.50000000  0.50000000  1
  W  W0  1  0.00000000  0.00000000  0.50000000  1
  W  W1  1  0.50000000  0.00000000  0.00000000  1
  O  O0  1  0.31884700  0.74353300  0.57077100  1
  O  O1  1  0.81884700  0.25646700  0.92922900  1
  O  O2  1  0.68115300  0.25646700  0.42922900  1
  O  O3  1  0.18115300  0.74353300  0.07077100  1
  O  O4  1  0.19332000  0.40384800  0.43087700  1
  O  O5  1  0.69332000  0.59615200  0.06912300  1
  O  O6  1  0.80668000  0.59615200  0.56912300  1
  O  O7  1  0.30668000  0.40384800  0.93087700  1
  O  O8  1  0.43518200  0.12447500  0.74609700  1
  O  O9  1  0.93518200  0.87552500  0.75390300  1
  O  O10  1  0.06481800  0.12447500  0.24609700  1
  O  O11  1  0.56481800  0.87552500  0.25390300  1
loop_
_geom_bond_atom_site_label_1
_geom_bond_atom_site_label_2
_geom_bond_distance
_geom_bond_site_symmetry_2
Mg0 O6 2.060916 1_455
Mg0 O9 2.079765 1_445
Mg0 O1 2.082906 1_455
Mg0 O8 2.182356 1_555
Mg0 O0 2.546849 1_555
Mg0 O7 2.588786 1_555
Mg0 O4 2.656956 1_555
Mg1 O7 2.060916 1_555
Mg1 O8 2.079765 1_565
Mg1 O0 2.082906 1_555
Mg1 O9 2.182356 1_555
Mg1 O1 2.546849 1_555
Mg1 O6 2.588786 1_555
Mg1 O5 2.656956 1_556
Mg2 O4 2.060916 1_655
Mg2 O10 2.079765 1_665
Mg2 O3 2.082906 1_655
Mg2 O11 2.182356 1_555
Mg2 O2 2.546849 1_555
Mg2 O5 2.588786 1_555
Mg2 O6 2.656956 1_555
Mg3 O5 2.060916 1_555
Mg3 O11 2.079765 1_545
Mg3 O2 2.082906 1_555
Mg3 O10 2.182356 1_555
Mg3 O3 2.546849 1_555
Mg3 O4 2.588786 1_555
Mg3 O7 2.656956 1_554
O0 Ti1 1.974799 1_555
O0 W0 2.045838 1_565
O1 Ti0 1.974799 1_656
O1 W1 2.045838 1_556
O2 Ti1 1.974799 1_555
O2 W0 2.045838 1_655
O3 Ti0 1.974799 1_555
O3 W1 2.045838 1_565
O4 Ti1 1.926970 1_555
O4 W0 2.112041 1_555
O5 Ti0 1.926970 1_655
O5 W1 2.112041 1_565
O6 Ti1 1.926970 1_555
O6 W0 2.112041 1_665
O7 Ti0 1.926970 1_556
O7 W1 2.112041 1_556
O8 Ti1 2.041392 1_555
O8 W1 2.068807 1_556
O9 Ti0 2.041392 1_656
O9 W0 2.068807 1_665
O10 Ti0 2.041392 1_555
O10 W0 2.068807 1_555
O11 Ti1 2.041392 1_555
O11 W1 2.068807 1_565
