# generated using pymatgen
data_LiSO4
_symmetry_space_group_name_H-M   'P 1'
_cell_length_a   5.27427377
_cell_length_b   5.27427377
_cell_length_c   8.85322900
_cell_angle_alpha   90.00000000
_cell_angle_beta   90.00000000
_cell_angle_gamma   119.99999706
_symmetry_Int_Tables_number   1
_chemical_formula_structural   LiSO4
_chemical_formula_sum   'Li2 S2 O8'
_cell_volume   213.28370651
_cell_formula_units_Z   2
loop_
 _symmetry_equiv_pos_site_id
 _symmetry_equiv_pos_as_xyz
  1  'x, y, z'
loop_
 _atom_site_type_symbol
 _atom_site_label
 _atom_site_symmetry_multiplicity
 _atom_site_fract_x
 _atom_site_fract_y
 _atom_site_fract_z
 _atom_site_occupancy
  Li  Li0  1  0.66666700  0.33333300  0.18412600  1
  Li  Li1  1  0.33333300  0.66666700  0.68412600  1
  S  S0  1  0.66666700  0.33333300  0.79345400  1
  S  S1  1  0.33333300  0.66666700  0.29345400  1
  O  O0  1  0.94155500  0.34987200  0.74231500  1
  O  O1  1  0.40831700  0.05844500  0.74231500  1
  O  O2  1  0.05844500  0.65012800  0.24231500  1
  O  O3  1  0.65012800  0.59168300  0.74231500  1
  O  O4  1  0.59168300  0.94155500  0.24231500  1
  O  O5  1  0.34987200  0.40831700  0.24231500  1
  O  O6  1  0.66666700  0.33333300  0.96237300  1
  O  O7  1  0.33333300  0.66666700  0.46237300  1
loop_
_geom_bond_atom_site_label_1
_geom_bond_atom_site_label_2
_geom_bond_distance
_geom_bond_site_symmetry_2
Li0 O6 1.963230 1_554
Li0 O4 1.968342 1_545
Li0 O2 1.968343 1_655
Li0 O5 1.968347 1_555
Li1 O7 1.963230 1_555
Li1 O1 1.968342 1_565
Li1 O0 1.968343 1_455
Li1 O3 1.968347 1_555
O0 S0 1.479235 1_555
O1 S0 1.479238 1_555
O2 S1 1.479235 1_555
O3 S0 1.479240 1_555
O4 S1 1.479238 1_555
O5 S1 1.479240 1_555
O6 S0 1.495479 1_555
O7 S1 1.495479 1_555
