# generated using pymatgen
data_TiCoGe2
_symmetry_space_group_name_H-M   'P 1'
_cell_length_a   7.74152800
_cell_length_b   8.83127100
_cell_length_c   9.93336700
_cell_angle_alpha   90.00000000
_cell_angle_beta   90.00000000
_cell_angle_gamma   90.00000000
_symmetry_Int_Tables_number   1
_chemical_formula_structural   TiCoGe2
_chemical_formula_sum   'Ti12 Co12 Ge24'
_cell_volume   679.11978348
_cell_formula_units_Z   12
loop_
 _symmetry_equiv_pos_site_id
 _symmetry_equiv_pos_as_xyz
  1  'x, y, z'
loop_
 _atom_site_type_symbol
 _atom_site_label
 _atom_site_symmetry_multiplicity
 _atom_site_fract_x
 _atom_site_fract_y
 _atom_site_fract_z
 _atom_site_occupancy
  Ti  Ti0  1  0.74008400  0.83070600  0.04673900  1
  Ti  Ti1  1  0.74008400  0.16929400  0.95326100  1
  Ti  Ti2  1  0.25991600  0.66929400  0.54673900  1
  Ti  Ti3  1  0.25991600  0.33070600  0.45326100  1
  Ti  Ti4  1  0.25991600  0.16929400  0.95326100  1
  Ti  Ti5  1  0.25991600  0.83070600  0.04673900  1
  Ti  Ti6  1  0.74008400  0.33070600  0.45326100  1
  Ti  Ti7  1  0.74008400  0.66929400  0.54673900  1
  Ti  Ti8  1  0.50000000  0.83420600  0.31894700  1
  Ti  Ti9  1  0.50000000  0.16579400  0.68105300  1
  Ti  Ti10  1  0.50000000  0.66579400  0.81894700  1
  Ti  Ti11  1  0.50000000  0.33420600  0.18105300  1
  Co  Co0  1  0.74863500  0.59169700  0.25024400  1
  Co  Co1  1  0.74863500  0.40830300  0.74975600  1
  Co  Co2  1  0.25136500  0.90830300  0.75024400  1
  Co  Co3  1  0.25136500  0.09169700  0.24975600  1
  Co  Co4  1  0.25136500  0.40830300  0.74975600  1
  Co  Co5  1  0.25136500  0.59169700  0.25024400  1
  Co  Co6  1  0.74863500  0.09169700  0.24975600  1
  Co  Co7  1  0.74863500  0.90830300  0.75024400  1
  Co  Co8  1  0.74439700  0.00000000  0.50000000  1
  Co  Co9  1  0.25560300  0.50000000  0.00000000  1
  Co  Co10  1  0.25560300  0.00000000  0.50000000  1
  Co  Co11  1  0.74439700  0.50000000  0.00000000  1
  Ge  Ge0  1  0.83834800  0.83788100  0.31866800  1
  Ge  Ge1  1  0.83834800  0.16211900  0.68133200  1
  Ge  Ge2  1  0.16165200  0.66211900  0.81866800  1
  Ge  Ge3  1  0.16165200  0.33788100  0.18133200  1
  Ge  Ge4  1  0.16165200  0.16211900  0.68133200  1
  Ge  Ge5  1  0.16165200  0.83788100  0.31866800  1
  Ge  Ge6  1  0.83834800  0.33788100  0.18133200  1
  Ge  Ge7  1  0.83834800  0.66211900  0.81866800  1
  Ge  Ge8  1  0.50000000  0.54010400  0.37997600  1
  Ge  Ge9  1  0.50000000  0.45989600  0.62002400  1
  Ge  Ge10  1  0.50000000  0.95989600  0.87997600  1
  Ge  Ge11  1  0.50000000  0.04010400  0.12002400  1
  Ge  Ge12  1  0.00000000  0.54035900  0.37972600  1
  Ge  Ge13  1  0.00000000  0.45964100  0.62027400  1
  Ge  Ge14  1  0.00000000  0.95964100  0.87972600  1
  Ge  Ge15  1  0.00000000  0.04035900  0.12027400  1
  Ge  Ge16  1  0.50000000  0.63218700  0.09904700  1
  Ge  Ge17  1  0.50000000  0.36781300  0.90095300  1
  Ge  Ge18  1  0.50000000  0.86781300  0.59904700  1
  Ge  Ge19  1  0.50000000  0.13218700  0.40095300  1
  Ge  Ge20  1  0.00000000  0.63341500  0.09444500  1
  Ge  Ge21  1  0.00000000  0.36658500  0.90555500  1
  Ge  Ge22  1  0.00000000  0.86658500  0.59444500  1
  Ge  Ge23  1  0.00000000  0.13341500  0.40555500  1
loop_
_geom_bond_atom_site_label_1
_geom_bond_atom_site_label_2
_geom_bond_distance
_geom_bond_site_symmetry_2
Co0 Ge8 2.360762 1_555
Co0 Ge12 2.376250 1_655
Co0 Ge0 2.381408 1_555
Co0 Ge6 2.444449 1_555
Co0 Ge16 2.467481 1_555
Co0 Ge20 2.513473 1_655
Co1 Ge9 2.360762 1_555
Co1 Ge13 2.376250 1_655
Co1 Ge1 2.381408 1_555
Co1 Ge7 2.444449 1_555
Co1 Ge17 2.467481 1_555
Co1 Ge21 2.513473 1_655
Co2 Ge10 2.360762 1_555
Co2 Ge14 2.376250 1_555
Co2 Ge2 2.381408 1_555
Co2 Ge4 2.444449 1_565
Co2 Ge18 2.467481 1_555
Co2 Ge22 2.513473 1_555
Co3 Ge11 2.360762 1_555
Co3 Ge15 2.376250 1_555
Co3 Ge3 2.381408 1_555
Co3 Ge5 2.444449 1_545
Co3 Ge19 2.467481 1_555
Co3 Ge23 2.513473 1_555
Co4 Ge9 2.360762 1_555
Co4 Ge13 2.376250 1_555
Co4 Ge4 2.381408 1_555
Co4 Ge2 2.444449 1_555
Co4 Ge17 2.467481 1_555
Co4 Ge21 2.513473 1_555
Co5 Ge8 2.360762 1_555
Co5 Ge12 2.376250 1_555
Co5 Ge5 2.381408 1_555
Co5 Ge3 2.444449 1_555
Co5 Ge16 2.467481 1_555
Co5 Ge20 2.513473 1_555
Co6 Ge11 2.360762 1_555
Co6 Ge15 2.376250 1_655
Co6 Ge6 2.381408 1_555
Co6 Ge0 2.444449 1_545
Co6 Ge19 2.467481 1_555
Co6 Ge23 2.513473 1_655
Co7 Ge10 2.360762 1_555
Co7 Ge14 2.376250 1_655
Co7 Ge7 2.381408 1_555
Co7 Ge1 2.444449 1_565
Co7 Ge18 2.467481 1_555
Co7 Ge22 2.513473 1_655
Co8 Ge1 2.413145 1_555
Co8 Ge0 2.413145 1_545
Co8 Ge19 2.431144 1_555
Co8 Ge18 2.431144 1_545
Co8 Ge23 2.486731 1_655
Co8 Ge22 2.486731 1_645
Co9 Ge3 2.413145 1_555
Co9 Ge2 2.413145 1_554
Co9 Ge16 2.431144 1_555
Co9 Ge17 2.431144 1_554
Co9 Ge20 2.486731 1_555
Co9 Ge21 2.486731 1_554
Co10 Ge4 2.413145 1_555
Co10 Ge5 2.413145 1_545
Co10 Ge19 2.431144 1_555
Co10 Ge18 2.431144 1_545
Co10 Ge23 2.486731 1_555
Co10 Ge22 2.486731 1_545
Co11 Ge6 2.413145 1_555
Co11 Ge7 2.413145 1_554
Co11 Ge16 2.431144 1_555
Co11 Ge17 2.431144 1_554
Co11 Ge20 2.486731 1_655
Co11 Ge21 2.486731 1_654
Ge0 Ge5 2.502867 1_655
Ge0 Ti8 2.619533 1_555
Ge0 Ti0 2.806960 1_555
Ge0 Ti7 2.815648 1_555
Ge1 Ge4 2.502867 1_655
Ge1 Ti9 2.619533 1_555
Ge1 Ti1 2.806960 1_555
Ge1 Ti6 2.815648 1_555
Ge2 Ge7 2.502867 1_455
Ge2 Ti10 2.619533 1_555
Ge2 Ti2 2.806960 1_555
Ge2 Ti5 2.815648 1_556
Ge3 Ge6 2.502867 1_455
Ge3 Ti11 2.619533 1_555
Ge3 Ti3 2.806960 1_555
Ge3 Ti4 2.815648 1_554
Ge4 Ti9 2.619533 1_555
Ge4 Ti4 2.806960 1_555
Ge4 Ti3 2.815648 1_555
Ge5 Ti8 2.619533 1_555
Ge5 Ti5 2.806960 1_555
Ge5 Ti2 2.815648 1_555
Ge6 Ti11 2.619533 1_555
Ge6 Ti6 2.806960 1_555
Ge6 Ti1 2.815648 1_554
Ge7 Ti10 2.619533 1_555
Ge7 Ti7 2.806960 1_555
Ge7 Ti0 2.815648 1_556
Ge8 Ge9 2.487471 1_555
Ge8 Ti8 2.667104 1_555
Ge8 Ti11 2.685301 1_555
Ge8 Ti6 2.721051 1_555
Ge8 Ti3 2.721051 1_555
Ge8 Ti7 2.738647 1_555
Ge8 Ti2 2.738647 1_555
Ge9 Ti9 2.667104 1_555
Ge9 Ti10 2.685301 1_555
Ge9 Ti7 2.721051 1_555
Ge9 Ti2 2.721051 1_555
Ge9 Ti6 2.738647 1_555
Ge9 Ti3 2.738647 1_555
Ge10 Ge11 2.487471 1_566
Ge10 Ti10 2.667104 1_555
Ge10 Ti9 2.685301 1_565
Ge10 Ti1 2.721051 1_565
Ge10 Ti4 2.721051 1_565
Ge10 Ti0 2.738647 1_556
Ge10 Ti5 2.738647 1_556
Ge11 Ti11 2.667104 1_555
Ge11 Ti8 2.685301 1_545
Ge11 Ti0 2.721051 1_545
Ge11 Ti5 2.721051 1_545
Ge11 Ti1 2.738647 1_554
Ge11 Ti4 2.738647 1_554
Ge12 Ge13 2.493516 1_555
Ge12 Ti6 2.830257 1_455
Ge12 Ti3 2.830257 1_555
Ge12 Ti2 2.845623 1_555
Ge12 Ti7 2.845623 1_455
Ge13 Ti2 2.830257 1_555
Ge13 Ti7 2.830257 1_455
Ge13 Ti3 2.845623 1_555
Ge13 Ti6 2.845623 1_455
Ge14 Ge15 2.493516 1_566
Ge14 Ti4 2.830257 1_565
Ge14 Ti1 2.830257 1_465
Ge14 Ti5 2.845623 1_556
Ge14 Ti0 2.845623 1_456
Ge15 Ti5 2.830257 1_545
Ge15 Ti0 2.830257 1_445
Ge15 Ti4 2.845623 1_554
Ge15 Ti1 2.845623 1_454
Ge16 Ti0 2.607309 1_555
Ge16 Ti5 2.607309 1_555
Ge16 Ti11 2.754746 1_555
Ge16 Ti10 2.798121 1_554
Ge16 Ti8 2.820342 1_555
Ge17 Ti1 2.607309 1_555
Ge17 Ti4 2.607309 1_555
Ge17 Ti10 2.754746 1_555
Ge17 Ti11 2.798121 1_556
Ge17 Ti9 2.820342 1_555
Ge18 Ti7 2.607309 1_555
Ge18 Ti2 2.607309 1_555
Ge18 Ti9 2.754746 1_565
Ge18 Ti8 2.798121 1_555
Ge18 Ti10 2.820342 1_555
Ge19 Ti6 2.607309 1_555
Ge19 Ti3 2.607309 1_555
Ge19 Ti8 2.754746 1_545
Ge19 Ti9 2.798121 1_555
Ge19 Ti11 2.820342 1_555
Ge20 Ti5 2.703519 1_555
Ge20 Ti0 2.703519 1_455
Ge21 Ti4 2.703519 1_555
Ge21 Ti1 2.703519 1_455
Ge22 Ti2 2.703519 1_555
Ge22 Ti7 2.703519 1_455
Ge23 Ti3 2.703519 1_555
Ge23 Ti6 2.703519 1_455
