# generated using pymatgen
data_ThU4(Cu4Pd)5
_symmetry_space_group_name_H-M   'P 1'
_cell_length_a   5.01084715
_cell_length_b   5.01084715
_cell_length_c   20.57040789
_cell_angle_alpha   83.00414913
_cell_angle_beta   90.00000000
_cell_angle_gamma   120.00000000
_symmetry_Int_Tables_number   1
_chemical_formula_structural   ThU4(Cu4Pd)5
_chemical_formula_sum   'Th1 U4 Cu20 Pd5'
_cell_volume   442.85110945
_cell_formula_units_Z   1
loop_
 _symmetry_equiv_pos_site_id
 _symmetry_equiv_pos_as_xyz
  1  'x, y, z'
loop_
 _atom_site_type_symbol
 _atom_site_label
 _atom_site_symmetry_multiplicity
 _atom_site_fract_x
 _atom_site_fract_y
 _atom_site_fract_z
 _atom_site_occupancy
  Th  Th0  1  0.39979600  0.79959100  0.80061300  1
  U  U0  1  0.99945700  0.99891300  0.00163000  1
  U  U1  1  0.59998800  0.19997600  0.20003600  1
  U  U2  1  0.19995800  0.39991600  0.40012600  1
  U  U3  1  0.80028300  0.60056500  0.59915200  1
  Cu  Cu0  1  0.47349800  0.45118000  0.07532200  1
  Cu  Cu1  1  0.07397900  0.65065000  0.27537100  1
  Cu  Cu2  1  0.67365800  0.85181700  0.47452500  1
  Cu  Cu3  1  0.27305600  0.05460100  0.67234300  1
  Cu  Cu4  1  0.87340700  0.24886700  0.87772500  1
  Cu  Cu5  1  0.47349800  0.94699600  0.07532200  1
  Cu  Cu6  1  0.07397900  0.14795900  0.27537100  1
  Cu  Cu7  1  0.67365800  0.34731700  0.47452500  1
  Cu  Cu8  1  0.27305600  0.54611300  0.67234300  1
  Cu  Cu9  1  0.87340700  0.74681500  0.87772500  1
  Cu  Cu10  1  0.27515300  0.55030700  0.17454000  1
  Cu  Cu11  1  0.87508300  0.75016700  0.37475000  1
  Cu  Cu12  1  0.47553900  0.95107900  0.57338200  1
  Cu  Cu13  1  0.07546800  0.15093500  0.77359800  1
  Cu  Cu14  1  0.67490200  0.34980400  0.97529400  1
  Cu  Cu15  1  0.97768200  0.45118000  0.07532200  1
  Cu  Cu16  1  0.57667000  0.65065000  0.27537100  1
  Cu  Cu17  1  0.17815800  0.85181700  0.47452500  1
  Cu  Cu18  1  0.78154400  0.05460100  0.67234300  1
  Cu  Cu19  1  0.37546000  0.24886700  0.87772500  1
  Pd  Pd0  1  0.34842600  0.69685200  0.95472200  1
  Pd  Pd1  1  0.15032900  0.30065800  0.54901300  1
  Pd  Pd2  1  0.75110300  0.50220500  0.74669200  1
  Pd  Pd3  1  0.95020400  0.90040800  0.14938700  1
  Pd  Pd4  1  0.54959800  0.09919600  0.35120600  1
loop_
_geom_bond_atom_site_label_1
_geom_bond_atom_site_label_2
_geom_bond_distance
_geom_bond_site_symmetry_2
Cu0 Cu10 2.478028 1_555
Cu0 Cu5 2.484458 1_555
Cu0 Cu15 2.484458 1_455
Cu0 Cu14 2.505512 1_554
Cu0 Cu15 2.526389 1_555
Cu0 Cu5 2.526389 1_545
Cu0 Pd0 2.844311 1_554
Cu0 U0 2.920568 1_445
Cu0 U0 2.920568 1_555
Cu0 Pd3 2.924477 1_555
Cu0 Pd3 2.924481 1_445
Cu0 U1 2.928949 1_555
Cu1 Cu11 2.483201 1_455
Cu1 Cu16 2.491939 1_455
Cu1 Cu6 2.491939 1_565
Cu1 Cu10 2.516328 1_555
Cu1 Cu16 2.518908 1_555
Cu1 Cu6 2.518908 1_555
Cu1 U2 2.927526 1_555
Cu1 U1 2.937889 1_455
Cu1 U1 2.937889 1_565
Cu1 Pd3 2.941625 1_455
Cu1 Pd4 2.943219 1_455
Cu1 Pd4 2.943219 1_565
Cu2 Cu7 2.482875 1_565
Cu2 Cu7 2.527972 1_555
Cu2 Pd4 2.891809 1_565
Cu2 U3 2.927871 1_555
Cu2 U2 2.927997 1_665
Cu2 U2 2.927997 1_555
Cu2 Pd1 2.928936 1_665
Cu2 Pd1 2.928936 1_555
Cu3 Cu8 2.462892 1_555
Cu3 Cu8 2.547956 1_545
Cu3 Pd1 2.886302 1_555
Cu3 U3 2.915416 1_555
Cu3 U3 2.915416 1_445
Cu3 Pd2 2.927545 1_445
Cu3 Pd2 2.927545 1_555
Cu3 Th0 2.998061 1_545
Cu4 Cu9 2.495141 1_555
Cu4 Cu9 2.515706 1_545
Cu4 U0 2.911593 1_546
Cu4 Pd0 2.955700 1_545
Cu4 Pd0 2.955704 1_655
Cu4 Th0 2.956943 1_545
Cu4 Th0 2.956947 1_655
Cu4 Pd2 3.032610 1_555
Cu5 Pd0 2.844311 1_554
Cu5 U0 2.920566 1_455
Cu5 U0 2.920570 1_555
Cu5 Pd3 2.924479 1_455
Cu5 Pd3 2.924479 1_555
Cu5 U1 2.928949 1_565
Cu6 U2 2.927524 1_555
Cu6 U1 2.937887 1_455
Cu6 U1 2.937891 1_555
Cu6 Pd3 2.941629 1_445
Cu6 Pd4 2.943217 1_455
Cu6 Pd4 2.943222 1_555
Cu7 Pd4 2.891811 1_555
Cu7 U3 2.927866 1_555
Cu7 U2 2.927995 1_555
Cu7 U2 2.927999 1_655
Cu7 Pd1 2.928934 1_555
Cu7 Pd1 2.928938 1_655
Cu8 Pd1 2.886304 1_555
Cu8 U3 2.915412 1_455
Cu8 U3 2.915421 1_555
Cu8 Pd2 2.927540 1_455
Cu8 Pd2 2.927549 1_555
Cu8 Th0 2.998057 1_555
Cu9 U0 2.911591 1_556
Cu9 Pd0 2.955700 1_555
Cu9 Pd0 2.955704 1_655
Cu9 Th0 2.956941 1_555
Cu9 Th0 2.956950 1_655
Cu9 Pd2 3.032612 1_555
Cu10 Cu5 2.478026 1_555
Cu10 Cu15 2.478026 1_455
Cu10 Cu16 2.516328 1_555
Cu10 Cu6 2.516328 1_555
Cu10 Pd3 2.938013 1_455
Cu10 Pd3 2.938017 1_555
Cu10 Pd3 2.938021 1_445
Cu10 U1 2.939242 1_565
Cu10 U1 2.939242 1_455
Cu10 U1 2.939246 1_555
Cu11 Cu6 2.483201 1_665
Cu11 Cu16 2.483201 1_555
Cu11 Cu17 2.501858 1_655
Cu11 Cu7 2.501858 1_555
Cu11 Cu2 2.501858 1_555
Cu11 Pd4 2.932478 1_565
Cu11 Pd4 2.932483 1_555
Cu11 Pd4 2.932483 1_665
Cu11 U2 2.938811 1_665
Cu11 U2 2.938811 1_555
Cu11 U2 2.938815 1_655
Cu12 Cu2 2.471505 1_555
Cu12 Cu17 2.471505 1_555
Cu12 Cu7 2.471505 1_565
Cu12 Cu3 2.495197 1_565
Cu12 Cu8 2.495197 1_555
Cu12 Cu18 2.495197 1_565
Cu12 Pd1 2.935273 1_565
Cu12 Pd1 2.935277 1_665
Cu12 Pd1 2.935277 1_555
Cu12 U3 2.940231 1_455
Cu12 U3 2.940231 1_565
Cu12 U3 2.940240 1_555
Cu13 Cu3 2.504878 1_555
Cu13 Cu8 2.504881 1_555
Cu13 Cu18 2.504883 1_455
Cu13 Cu19 2.570355 1_555
Cu13 Cu4 2.570358 1_455
Cu13 Cu9 2.570358 1_445
Cu13 Pd2 2.944450 1_555
Cu13 Pd2 2.944450 1_455
Cu13 Pd2 2.944455 1_445
Cu13 Th0 2.944863 1_555
Cu13 Th0 2.944867 1_445
Cu13 Th0 2.944867 1_545
Cu14 Cu19 2.454333 1_555
Cu14 Cu9 2.454333 1_555
Cu14 Cu4 2.454333 1_555
Cu14 Cu15 2.505512 1_556
Cu14 Cu5 2.505512 1_546
Cu14 Pd0 2.923194 1_655
Cu14 Pd0 2.923194 1_545
Cu14 Pd0 2.923194 1_555
Cu14 U0 2.942312 1_446
Cu14 U0 2.942312 1_556
Cu14 U0 2.942316 1_546
Cu15 Cu5 2.484458 1_655
Cu15 Cu5 2.526389 1_545
Cu15 Pd0 2.844311 1_654
Cu15 U0 2.920566 1_555
Cu15 U0 2.920570 1_545
Cu15 Pd3 2.924477 1_555
Cu15 Pd3 2.924481 1_545
Cu15 U1 2.928949 1_555
Cu16 Cu6 2.491939 1_665
Cu16 Cu6 2.518908 1_555
Cu16 U2 2.927524 1_555
Cu16 U1 2.937887 1_565
Cu16 U1 2.937891 1_555
Cu16 Pd3 2.941627 1_555
Cu16 Pd4 2.943217 1_565
Cu16 Pd4 2.943222 1_555
Cu17 Cu7 2.482875 1_565
Cu17 Cu2 2.482875 1_555
Cu17 Cu2 2.527972 1_455
Cu17 Cu7 2.527972 1_455
Cu17 Pd4 2.891811 1_565
Cu17 U3 2.927866 1_455
Cu17 U2 2.927995 1_565
Cu17 U2 2.927999 1_555
Cu17 Pd1 2.928934 1_565
Cu17 Pd1 2.928938 1_555
Cu18 Cu3 2.462892 1_655
Cu18 Cu8 2.462892 1_655
Cu18 Cu8 2.547956 1_545
Cu18 Cu3 2.547956 1_555
Cu18 Pd1 2.886304 1_655
Cu18 U3 2.915412 1_555
Cu18 U3 2.915421 1_545
Cu18 Pd2 2.927540 1_555
Cu18 Pd2 2.927549 1_545
Cu18 Th0 2.998057 1_545
Cu19 Cu4 2.495136 1_555
Cu19 Cu9 2.495139 1_555
Cu19 Cu9 2.515708 1_445
Cu19 Cu4 2.515711 1_455
Cu19 U0 2.911591 1_446
Cu19 Pd0 2.955700 1_545
Cu19 Pd0 2.955704 1_555
Cu19 Th0 2.956945 1_545
Cu19 Th0 2.956945 1_555
Cu19 Pd2 3.032612 1_555
Pd0 U0 3.046664 1_456
Pd0 U0 3.046668 1_446
Pd0 U0 3.046668 1_556
Pd0 Th0 3.138577 1_555
Pd1 U2 3.032226 1_555
Pd1 U3 3.067934 1_455
Pd1 U3 3.067938 1_555
Pd1 U3 3.067938 1_445
Pd2 U3 3.004793 1_555
Pd2 Th0 3.094425 1_555
Pd2 Th0 3.094425 1_545
Pd2 Th0 3.094425 1_655
Pd3 U0 3.009213 1_555
Pd3 U1 3.071406 1_555
Pd3 U1 3.071410 1_665
Pd3 U1 3.071410 1_565
Pd4 U2 3.059763 1_655
Pd4 U2 3.059763 1_555
Pd4 U2 3.059763 1_545
Pd4 U1 3.078722 1_555
