# generated using pymatgen
data_Os(C2N3)3
_symmetry_space_group_name_H-M   'P 1'
_cell_length_a   7.77464983
_cell_length_b   13.85073586
_cell_length_c   11.35461500
_cell_angle_alpha   90.00000000
_cell_angle_beta   90.00000000
_cell_angle_gamma   27.03075774
_symmetry_Int_Tables_number   1
_chemical_formula_structural   Os(C2N3)3
_chemical_formula_sum   'Os2 C12 N18'
_cell_volume   555.68685264
_cell_formula_units_Z   2
loop_
 _symmetry_equiv_pos_site_id
 _symmetry_equiv_pos_as_xyz
  1  'x, y, z'
loop_
 _atom_site_type_symbol
 _atom_site_label
 _atom_site_symmetry_multiplicity
 _atom_site_fract_x
 _atom_site_fract_y
 _atom_site_fract_z
 _atom_site_occupancy
  Os  Os0  1  0.00000000  0.27983800  0.25000000  1
  Os  Os1  1  0.00000000  0.72016200  0.75000000  1
  C  C0  1  0.68176600  0.79226200  0.25000000  1
  C  C1  1  0.68176600  0.52597100  0.75000000  1
  C  C2  1  0.31823400  0.20773800  0.75000000  1
  C  C3  1  0.31823400  0.47402900  0.25000000  1
  C  C4  1  0.68124300  0.30272700  0.90249800  1
  C  C5  1  0.68124300  0.01603000  0.09750200  1
  C  C6  1  0.68124300  0.30272700  0.59750200  1
  C  C7  1  0.68124300  0.01603000  0.40249800  1
  C  C8  1  0.31875700  0.69727300  0.09750200  1
  C  C9  1  0.31875700  0.98397000  0.90249800  1
  C  C10  1  0.31875700  0.69727300  0.40249800  1
  C  C11  1  0.31875700  0.98397000  0.59750200  1
  N  N0  1  0.00000000  0.58725800  0.25000000  1
  N  N1  1  0.00000000  0.41274200  0.75000000  1
  N  N2  1  0.38271800  0.97961800  0.25000000  1
  N  N3  1  0.38271800  0.63766200  0.75000000  1
  N  N4  1  0.61728200  0.02038200  0.75000000  1
  N  N5  1  0.61728200  0.36233800  0.25000000  1
  N  N6  1  0.00000000  0.11825600  0.94873000  1
  N  N7  1  0.00000000  0.88174400  0.05127000  1
  N  N8  1  0.00000000  0.11825600  0.55127000  1
  N  N9  1  0.00000000  0.88174400  0.44873000  1
  N  N10  1  0.38060700  0.47390300  0.86507600  1
  N  N11  1  0.38060700  0.14549000  0.13492400  1
  N  N12  1  0.38060700  0.47390300  0.63492400  1
  N  N13  1  0.38060700  0.14549000  0.36507600  1
  N  N14  1  0.61939300  0.52609700  0.13492400  1
  N  N15  1  0.61939300  0.85451000  0.86507600  1
  N  N16  1  0.61939300  0.52609700  0.36507600  1
  N  N17  1  0.61939300  0.85451000  0.63492400  1
loop_
_geom_bond_atom_site_label_1
_geom_bond_atom_site_label_2
_geom_bond_distance
_geom_bond_site_symmetry_2
C0 N2 1.179431 1_555
C0 N0 1.291621 1_655
C1 N3 1.179438 1_555
C1 N1 1.291628 1_655
C2 N4 1.179431 1_555
C2 N1 1.291621 1_555
C3 N5 1.179438 1_555
C3 N0 1.291628 1_555
C4 N10 1.179993 1_555
C4 N6 1.290293 1_655
C5 N11 1.179993 1_555
C5 N7 1.290293 1_645
C6 N12 1.179993 1_555
C6 N8 1.290293 1_655
C7 N13 1.179993 1_555
C7 N9 1.290293 1_645
C8 N14 1.179993 1_555
C8 N7 1.290293 1_555
C9 N15 1.179993 1_555
C9 N6 1.290293 1_565
C10 N16 1.179993 1_555
C10 N9 1.290293 1_555
C11 N17 1.179993 1_555
C11 N8 1.290293 1_565
N2 Os0 2.025367 1_565
N3 Os1 2.025347 1_555
N4 Os1 2.025367 1_645
N5 Os0 2.025347 1_655
N10 Os1 2.028916 1_555
N11 Os0 2.028916 1_555
N12 Os1 2.028916 1_555
N13 Os0 2.028916 1_555
N14 Os0 2.028916 1_655
N15 Os1 2.028916 1_655
N16 Os0 2.028916 1_655
N17 Os1 2.028916 1_655
