# generated using pymatgen
data_Li2LaTa2O7
_symmetry_space_group_name_H-M   'P 1'
_cell_length_a   4.00099600
_cell_length_b   4.00099600
_cell_length_c   9.70659735
_cell_angle_alpha   101.89370827
_cell_angle_beta   101.89370827
_cell_angle_gamma   90.00000000
_symmetry_Int_Tables_number   1
_chemical_formula_structural   Li2LaTa2O7
_chemical_formula_sum   'Li2 La1 Ta2 O7'
_cell_volume   148.63642530
_cell_formula_units_Z   1
loop_
 _symmetry_equiv_pos_site_id
 _symmetry_equiv_pos_as_xyz
  1  'x, y, z'
loop_
 _atom_site_type_symbol
 _atom_site_label
 _atom_site_symmetry_multiplicity
 _atom_site_fract_x
 _atom_site_fract_y
 _atom_site_fract_z
 _atom_site_occupancy
  Li  Li0  1  0.75000000  0.25000000  0.50000000  1
  Li  Li1  1  0.25000000  0.75000000  0.50000000  1
  La  La0  1  0.00000000  0.00000000  0.00000000  1
  Ta  Ta0  1  0.61292800  0.61292800  0.22585600  1
  Ta  Ta1  1  0.38707200  0.38707200  0.77414400  1
  O  O0  1  0.71531300  0.71531300  0.43062600  1
  O  O1  1  0.50000000  0.50000000  0.00000000  1
  O  O2  1  0.09710100  0.59710100  0.19420200  1
  O  O3  1  0.59710100  0.09710100  0.19420200  1
  O  O4  1  0.40289900  0.90289900  0.80579800  1
  O  O5  1  0.90289900  0.40289900  0.80579800  1
  O  O6  1  0.28468700  0.28468700  0.56937400  1
loop_
_geom_bond_atom_site_label_1
_geom_bond_atom_site_label_2
_geom_bond_distance
_geom_bond_site_symmetry_2
Li0 O6 2.101647 1_655
Li0 O6 2.101647 1_555
Li0 O0 2.101647 1_545
Li0 O0 2.101647 1_555
Li1 O6 2.101647 1_565
Li1 O6 2.101647 1_555
Li1 O0 2.101647 1_455
Li1 O0 2.101647 1_555
La0 O3 2.693233 1_455
La0 O2 2.693233 1_545
La0 O2 2.693233 1_555
La0 O3 2.693233 1_555
La0 O4 2.693233 1_544
La0 O5 2.693233 1_454
La0 O5 2.693233 1_444
La0 O4 2.693233 1_444
La0 O1 2.829131 1_545
La0 O1 2.829131 1_555
La0 O1 2.829131 1_445
La0 O1 2.829131 1_455
O0 Ta0 1.901321 1_555
O1 Ta0 2.097107 1_555
O1 Ta1 2.097107 1_554
O2 Ta0 2.021973 1_555
O2 Ta0 2.021973 1_455
O3 Ta0 2.021973 1_555
O3 Ta0 2.021973 1_545
O4 Ta1 2.021973 1_565
O4 Ta1 2.021973 1_555
O5 Ta1 2.021973 1_655
O5 Ta1 2.021973 1_555
O6 Ta1 1.901321 1_555
