# generated using pymatgen
data_YSi2
_symmetry_space_group_name_H-M   'P 1'
_cell_length_a   4.18919900
_cell_length_b   9.07195369
_cell_length_c   8.17604368
_cell_angle_alpha   124.07376196
_cell_angle_beta   90.00000000
_cell_angle_gamma   90.00000000
_symmetry_Int_Tables_number   1
_chemical_formula_structural   YSi2
_chemical_formula_sum   'Y4 Si8'
_cell_volume   257.37809775
_cell_formula_units_Z   4
loop_
 _symmetry_equiv_pos_site_id
 _symmetry_equiv_pos_as_xyz
  1  'x, y, z'
loop_
 _atom_site_type_symbol
 _atom_site_label
 _atom_site_symmetry_multiplicity
 _atom_site_fract_x
 _atom_site_fract_y
 _atom_site_fract_z
 _atom_site_occupancy
  Y  Y0  1  0.00000000  0.95830500  0.43830300  1
  Y  Y1  1  0.00000000  0.47919700  0.88157300  1
  Y  Y2  1  0.00000000  0.52023200  0.37281000  1
  Y  Y3  1  0.00000000  0.98597200  0.96211200  1
  Si  Si0  1  0.50000000  0.73725500  0.98394600  1
  Si  Si1  1  0.50000000  0.26437200  0.23933200  1
  Si  Si2  1  0.50000000  0.00161600  0.70963200  1
  Si  Si3  1  0.50000000  0.32012500  0.99704700  1
  Si  Si4  1  0.50000000  0.71196200  0.67596200  1
  Si  Si5  1  0.50000000  0.02606200  0.25641600  1
  Si  Si6  1  0.50000000  0.32880800  0.57296300  1
  Si  Si7  1  0.50000000  0.66599500  0.24290200  1
loop_
_geom_bond_atom_site_label_1
_geom_bond_atom_site_label_2
_geom_bond_distance
_geom_bond_site_symmetry_2
Si0 Si5 2.299394 1_566
Si0 Si4 2.397082 1_555
Si0 Si7 2.536590 1_556
Si0 Y1 2.893607 1_555
Si0 Y1 2.893607 1_655
Si0 Y3 3.156210 1_555
Si0 Y3 3.156210 1_655
Si1 Si5 2.243180 1_555
Si1 Si3 2.302738 1_554
Si1 Si6 2.448627 1_555
Si1 Y2 2.850904 1_555
Si1 Y2 2.850904 1_655
Si1 Y3 3.080431 1_544
Si1 Y3 3.080431 1_644
Si2 Si4 2.483984 1_545
Si2 Si3 2.502578 1_555
Si2 Y0 2.913130 1_645
Si2 Y0 2.913130 1_545
Si2 Y3 2.999508 1_645
Si2 Y3 2.999508 1_545
Si3 Si7 2.611230 1_556
Si3 Y1 2.981256 1_655
Si3 Y1 2.981256 1_555
Si3 Y2 3.297304 1_656
Si3 Y2 3.297304 1_556
Si3 Y3 3.562053 1_645
Si3 Y3 3.562053 1_545
Si4 Y2 2.953875 1_655
Si4 Y2 2.953875 1_555
Si4 Y3 3.086025 1_655
Si4 Y3 3.086025 1_555
Si5 Si6 2.505320 1_555
Si5 Y0 2.828601 1_545
Si5 Y0 2.828601 1_645
Si5 Y3 3.054344 1_544
Si5 Y3 3.054344 1_644
Si6 Y1 2.959383 1_555
Si6 Y1 2.959383 1_655
Si7 Y2 2.972858 1_555
Si7 Y2 2.972858 1_655
Si7 Y0 3.037219 1_655
Si7 Y0 3.037219 1_555
Si7 Y1 3.221328 1_654
Si7 Y1 3.221328 1_554
