# generated using pymatgen
data_Mn2Cu10Sb4S13
_symmetry_space_group_name_H-M   'P 1'
_cell_length_a   9.05099099
_cell_length_b   9.05099099
_cell_length_c   9.05099099
_cell_angle_alpha   110.21042184
_cell_angle_beta   110.21042184
_cell_angle_gamma   108.00272330
_symmetry_Int_Tables_number   1
_chemical_formula_structural   Mn2Cu10Sb4S13
_chemical_formula_sum   'Mn2 Cu10 Sb4 S13'
_cell_volume   570.49672839
_cell_formula_units_Z   1
loop_
 _symmetry_equiv_pos_site_id
 _symmetry_equiv_pos_as_xyz
  1  'x, y, z'
loop_
 _atom_site_type_symbol
 _atom_site_label
 _atom_site_symmetry_multiplicity
 _atom_site_fract_x
 _atom_site_fract_y
 _atom_site_fract_z
 _atom_site_occupancy
  Mn  Mn0  1  0.77762200  0.77762200  0.00000000  1
  Mn  Mn1  1  0.22237800  0.22237800  0.00000000  1
  Cu  Cu0  1  0.75240000  0.50000000  0.25240000  1
  Cu  Cu1  1  0.25000000  0.75000000  0.50000000  1
  Cu  Cu2  1  0.50000000  0.24760000  0.74760000  1
  Cu  Cu3  1  0.50000000  0.75240000  0.25240000  1
  Cu  Cu4  1  0.75000000  0.25000000  0.50000000  1
  Cu  Cu5  1  0.24760000  0.50000000  0.74760000  1
  Cu  Cu6  1  0.00000000  0.77818500  0.77818500  1
  Cu  Cu7  1  0.77818500  0.00000000  0.77818500  1
  Cu  Cu8  1  0.00000000  0.22181500  0.22181500  1
  Cu  Cu9  1  0.22181500  0.00000000  0.22181500  1
  Sb  Sb0  1  0.46576200  0.46576200  0.45800800  1
  Sb  Sb1  1  0.00775400  0.00775400  0.54199200  1
  Sb  Sb2  1  0.99224600  0.53423800  0.00000000  1
  Sb  Sb3  1  0.53423800  0.99224600  0.00000000  1
  S  S0  1  0.00000000  0.00000000  0.00000000  1
  S  S1  1  0.51163500  0.51163500  0.76298800  1
  S  S2  1  0.77096600  0.51961100  0.52194800  1
  S  S3  1  0.51961100  0.77096600  0.52194800  1
  S  S4  1  0.74864800  0.74864800  0.23701200  1
  S  S5  1  0.99766200  0.24901800  0.47805200  1
  S  S6  1  0.24901800  0.99766200  0.47805200  1
  S  S7  1  0.25135200  0.48836500  0.00000000  1
  S  S8  1  0.00233800  0.48038900  0.25135600  1
  S  S9  1  0.75098200  0.22903400  0.74864400  1
  S  S10  1  0.48836500  0.25135200  0.00000000  1
  S  S11  1  0.22903400  0.75098200  0.74864400  1
  S  S12  1  0.48038900  0.00233800  0.25135600  1
loop_
_geom_bond_atom_site_label_1
_geom_bond_atom_site_label_2
_geom_bond_distance
_geom_bond_site_symmetry_2
Mn0 S4 2.339718 1_555
Mn0 S1 2.339725 1_554
Mn0 S0 2.366042 1_665
Mn1 S7 2.339727 1_555
Mn1 S10 2.339727 1_555
Mn1 S0 2.366042 1_555
Cu0 S10 2.312115 1_555
Cu0 S4 2.312119 1_555
Cu0 S2 2.326126 1_555
Cu0 S8 2.326133 1_655
Cu1 S6 2.320133 1_555
Cu1 S11 2.320133 1_555
Cu1 S8 2.320137 1_555
Cu1 S3 2.320142 1_555
Cu2 S1 2.312112 1_555
Cu2 S10 2.312115 1_556
Cu2 S9 2.326129 1_555
Cu2 S6 2.326129 1_545
Cu3 S7 2.312115 1_555
Cu3 S4 2.312119 1_555
Cu3 S3 2.326126 1_555
Cu3 S12 2.326133 1_565
Cu4 S5 2.320133 1_555
Cu4 S9 2.320133 1_555
Cu4 S12 2.320137 1_555
Cu4 S2 2.320142 1_555
Cu5 S1 2.312112 1_555
Cu5 S7 2.312115 1_556
Cu5 S11 2.326129 1_555
Cu5 S5 2.326129 1_455
Cu6 S2 2.254402 1_455
Cu6 S11 2.254405 1_555
Cu6 S0 2.297033 1_566
Cu7 S3 2.254402 1_545
Cu7 S9 2.254405 1_555
Cu7 S0 2.297033 1_656
Cu8 S8 2.254396 1_555
Cu8 S5 2.254405 1_455
Cu8 S0 2.297033 1_555
Cu9 S12 2.254396 1_555
Cu9 S6 2.254405 1_545
Cu9 S0 2.297033 1_555
S1 Sb0 2.504817 1_555
S2 Sb0 2.464069 1_555
S3 Sb0 2.464069 1_555
S4 Sb1 2.504812 1_665
S5 Sb1 2.464071 1_655
S6 Sb1 2.464071 1_565
S7 Sb2 2.504808 1_455
S8 Sb2 2.464076 1_455
S9 Sb2 2.464071 1_556
S10 Sb3 2.504808 1_545
S11 Sb3 2.464071 1_556
S12 Sb3 2.464076 1_545
