# generated using pymatgen
data_NiPH15O11
_symmetry_space_group_name_H-M   'P 1'
_cell_length_a   6.12539700
_cell_length_b   7.12437000
_cell_length_c   11.31313800
_cell_angle_alpha   90.00000000
_cell_angle_beta   90.00000000
_cell_angle_gamma   90.00000000
_symmetry_Int_Tables_number   1
_chemical_formula_structural   NiPH15O11
_chemical_formula_sum   'Ni2 P2 H30 O22'
_cell_volume   493.70075626
_cell_formula_units_Z   2
loop_
 _symmetry_equiv_pos_site_id
 _symmetry_equiv_pos_as_xyz
  1  'x, y, z'
loop_
 _atom_site_type_symbol
 _atom_site_label
 _atom_site_symmetry_multiplicity
 _atom_site_fract_x
 _atom_site_fract_y
 _atom_site_fract_z
 _atom_site_occupancy
  Ni  Ni0  1  0.38263200  0.00000000  0.59638500  1
  Ni  Ni1  1  0.61736800  0.50000000  0.09638500  1
  P  P0  1  0.00308800  0.50000000  0.73012600  1
  P  P1  1  0.99691200  0.00000000  0.23012600  1
  H  H0  1  0.82811800  0.00000000  0.55844300  1
  H  H1  1  0.17188200  0.50000000  0.05844300  1
  H  H2  1  0.71893400  0.00000000  0.42819700  1
  H  H3  1  0.28106600  0.50000000  0.92819700  1
  H  H4  1  0.00808200  0.11272600  0.71536100  1
  H  H5  1  0.00808200  0.88727400  0.71536100  1
  H  H6  1  0.99191800  0.38727400  0.21536100  1
  H  H7  1  0.99191800  0.61272600  0.21536100  1
  H  H8  1  0.38514300  0.31484500  0.73403200  1
  H  H9  1  0.38514300  0.68515500  0.73403200  1
  H  H10  1  0.61485700  0.18515500  0.23403200  1
  H  H11  1  0.61485700  0.81484500  0.23403200  1
  H  H12  1  0.63231500  0.25102200  0.71785700  1
  H  H13  1  0.63231500  0.74897800  0.71785700  1
  H  H14  1  0.36768500  0.24897800  0.21785700  1
  H  H15  1  0.36768500  0.75102200  0.21785700  1
  H  H16  1  0.21505600  0.19472600  0.40311100  1
  H  H17  1  0.21505600  0.80527400  0.40311100  1
  H  H18  1  0.78494400  0.30527400  0.90311100  1
  H  H19  1  0.78494400  0.69472600  0.90311100  1
  H  H20  1  0.18275300  0.30784600  0.52311600  1
  H  H21  1  0.18275300  0.69215400  0.52311600  1
  H  H22  1  0.81724700  0.19215400  0.02311600  1
  H  H23  1  0.81724700  0.80784600  0.02311600  1
  H  H24  1  0.86666300  0.50000000  0.54502900  1
  H  H25  1  0.13333700  0.00000000  0.04502900  1
  H  H26  1  0.55437500  0.38968400  0.47211100  1
  H  H27  1  0.55437500  0.61031600  0.47211100  1
  H  H28  1  0.44562500  0.11031600  0.97211100  1
  H  H29  1  0.44562500  0.88968400  0.97211100  1
  O  O0  1  0.68830500  0.00000000  0.51438600  1
  O  O1  1  0.31169500  0.50000000  0.01438600  1
  O  O2  1  0.05225200  0.00000000  0.66834100  1
  O  O3  1  0.94774800  0.50000000  0.16834100  1
  O  O4  1  0.47948500  0.20683700  0.70951200  1
  O  O5  1  0.47948500  0.79316300  0.70951200  1
  O  O6  1  0.52051500  0.29316300  0.20951200  1
  O  O7  1  0.52051500  0.70683700  0.20951200  1
  O  O8  1  0.28102400  0.21785500  0.48345500  1
  O  O9  1  0.28102400  0.78214500  0.48345500  1
  O  O10  1  0.71897600  0.28214500  0.98345500  1
  O  O11  1  0.71897600  0.71785500  0.98345500  1
  O  O12  1  0.01913600  0.50000000  0.58603700  1
  O  O13  1  0.98086400  0.00000000  0.08603700  1
  O  O14  1  0.23990500  0.50000000  0.77381800  1
  O  O15  1  0.76009500  0.00000000  0.27381800  1
  O  O16  1  0.88221500  0.68031500  0.76648300  1
  O  O17  1  0.88221500  0.31968500  0.76648300  1
  O  O18  1  0.11778500  0.81968500  0.26648300  1
  O  O19  1  0.11778500  0.18031500  0.26648300  1
  O  O20  1  0.64918100  0.50000000  0.48109200  1
  O  O21  1  0.35081900  0.00000000  0.98109200  1
loop_
_geom_bond_atom_site_label_1
_geom_bond_atom_site_label_2
_geom_bond_distance
_geom_bond_site_symmetry_2
Ni0 O4 2.039939 1_555
Ni0 O5 2.039939 1_545
Ni0 O0 2.089576 1_555
Ni0 O9 2.104415 1_545
Ni0 O8 2.104415 1_555
Ni0 O2 2.181300 1_555
Ni1 O7 2.039939 1_555
Ni1 O6 2.039939 1_555
Ni1 O1 2.089576 1_555
Ni1 O11 2.104415 1_554
Ni1 O10 2.104415 1_554
Ni1 O3 2.181300 1_555
H0 O0 0.990890 1_555
H1 O1 0.990890 1_555
H2 O0 0.992954 1_555
H3 O1 0.992954 1_556
H4 O2 1.000569 1_555
H4 O17 1.761510 1_455
H5 O2 1.000569 1_565
H5 O16 1.761510 1_455
H6 O3 1.000569 1_555
H6 O19 1.761510 1_655
H7 O3 1.000569 1_555
H7 O18 1.761510 1_655
H8 O4 1.001504 1_555
H8 O14 1.653515 1_555
H9 O5 1.001504 1_555
H9 O14 1.653515 1_555
H10 O6 1.001504 1_555
H10 O15 1.653515 1_555
H11 O7 1.001504 1_555
H11 O15 1.653515 1_565
H12 O4 0.992155 1_555
H12 O17 1.698551 1_555
H13 O5 0.992155 1_555
H13 O16 1.698551 1_555
H14 O6 0.992155 1_555
H14 O19 1.698551 1_555
H15 O7 0.992155 1_555
H15 O18 1.698551 1_555
H16 O8 1.008271 1_555
H16 O19 1.659731 1_555
H17 O9 1.008271 1_555
H17 O18 1.659731 1_555
H18 O10 1.008271 1_555
H18 O17 1.659731 1_555
H19 O11 1.008271 1_555
H19 O16 1.659731 1_555
H20 O8 0.987275 1_555
H21 O9 0.987275 1_555
H22 O10 0.987275 1_554
H23 O11 0.987275 1_554
H24 O12 1.042836 1_655
H24 O20 1.515871 1_555
H25 O13 1.042836 1_455
H25 O21 1.515871 1_554
H26 O20 0.982473 1_555
H27 O20 0.982473 1_555
H28 O21 0.982473 1_555
H29 O21 0.982473 1_565
O12 P0 1.633060 1_555
O13 P1 1.633060 1_555
O14 P0 1.532502 1_555
O15 P1 1.532502 1_555
O16 P0 1.538713 1_655
O17 P0 1.538713 1_655
O18 P1 1.538713 1_465
O19 P1 1.538713 1_455
