# generated using pymatgen
data_Na11TiNb2Si4P2(O12F)2
_symmetry_space_group_name_H-M   'P 1'
_cell_length_a   5.61723500
_cell_length_b   7.28603345
_cell_length_c   14.70666405
_cell_angle_alpha   92.80692553
_cell_angle_beta   95.61673149
_cell_angle_gamma   90.65110372
_symmetry_Int_Tables_number   1
_chemical_formula_structural   Na11TiNb2Si4P2(O12F)2
_chemical_formula_sum   'Na11 Ti1 Nb2 Si4 P2 O24 F2'
_cell_volume   598.21741437
_cell_formula_units_Z   1
loop_
 _symmetry_equiv_pos_site_id
 _symmetry_equiv_pos_as_xyz
  1  'x, y, z'
loop_
 _atom_site_type_symbol
 _atom_site_label
 _atom_site_symmetry_multiplicity
 _atom_site_fract_x
 _atom_site_fract_y
 _atom_site_fract_z
 _atom_site_occupancy
  Na  Na0  1  0.24616700  0.73546800  0.07853400  1
  Na  Na1  1  0.75383300  0.26453200  0.92146600  1
  Na  Na2  1  0.28969300  0.01085000  0.26417200  1
  Na  Na3  1  0.71030700  0.98915000  0.73582800  1
  Na  Na4  1  0.81603200  0.01909700  0.10058500  1
  Na  Na5  1  0.18396800  0.98090300  0.89941500  1
  Na  Na6  1  0.00000000  0.50000000  0.50000000  1
  Na  Na7  1  0.80216400  0.49357100  0.13329100  1
  Na  Na8  1  0.19783600  0.50642900  0.86670900  1
  Na  Na9  1  0.49706500  0.24384100  0.50150900  1
  Na  Na10  1  0.50293500  0.75615900  0.49849100  1
  Ti  Ti0  1  0.00000000  0.00000000  0.50000000  1
  Nb  Nb0  1  0.29766000  0.49166400  0.28317600  1
  Nb  Nb1  1  0.70234000  0.50833600  0.71682400  1
  Si  Si0  1  0.18615500  0.21968900  0.69691300  1
  Si  Si1  1  0.81384500  0.78031100  0.30308700  1
  Si  Si2  1  0.79923000  0.20497300  0.31520900  1
  Si  Si3  1  0.20077000  0.79502700  0.68479100  1
  P  P0  1  0.31131200  0.25576100  0.06637100  1
  P  P1  1  0.68868800  0.74423900  0.93362900  1
  O  O0  1  0.01276300  0.31286700  0.27229300  1
  O  O1  1  0.98723700  0.68713300  0.72770700  1
  O  O2  1  0.84175300  0.19570900  0.42621100  1
  O  O3  1  0.15824700  0.80429100  0.57378900  1
  O  O4  1  0.25565600  0.43006500  0.12979100  1
  O  O5  1  0.74434400  0.56993500  0.87020900  1
  O  O6  1  0.20381400  0.00645900  0.73450800  1
  O  O7  1  0.79618600  0.99354100  0.26549200  1
  O  O8  1  0.31787700  0.51550000  0.40657300  1
  O  O9  1  0.68212300  0.48450000  0.59342700  1
  O  O10  1  0.53839100  0.28664400  0.28266700  1
  O  O11  1  0.46160900  0.71335600  0.71733300  1
  O  O12  1  0.56445900  0.67629000  0.25848100  1
  O  O13  1  0.43554100  0.32371000  0.74151900  1
  O  O14  1  0.58399000  0.25696700  0.05643600  1
  O  O15  1  0.41601000  0.74303300  0.94356400  1
  O  O16  1  0.23433600  0.07462600  0.10843100  1
  O  O17  1  0.76566400  0.92537400  0.89156900  1
  O  O18  1  0.16778700  0.27323200  0.97118900  1
  O  O19  1  0.83221300  0.72676800  0.02881100  1
  O  O20  1  0.04622000  0.69616300  0.25531100  1
  O  O21  1  0.95378000  0.30383700  0.74468900  1
  O  O22  1  0.16030700  0.20689300  0.58560000  1
  O  O23  1  0.83969300  0.79310700  0.41440000  1
  F  F0  1  0.27632900  0.00243200  0.42437300  1
  F  F1  1  0.72367100  0.99756800  0.57562700  1
loop_
_geom_bond_atom_site_label_1
_geom_bond_atom_site_label_2
_geom_bond_distance
_geom_bond_site_symmetry_2
Na0 O15 2.287689 1_554
Na0 O19 2.367475 1_455
Na0 O4 2.383613 1_555
Na0 O16 2.491424 1_565
Na0 O20 2.956285 1_555
Na1 O14 2.287689 1_556
Na1 O18 2.367475 1_655
Na1 O5 2.383613 1_555
Na1 O17 2.491424 1_545
Na1 O21 2.956285 1_555
Na2 O16 2.350914 1_555
Na2 O10 2.423166 1_555
Na2 O20 2.647459 1_545
Na2 O0 2.713807 1_555
Na2 O7 2.775589 1_445
Na2 O7 2.847526 1_545
Na2 O12 2.902059 1_545
Na3 O17 2.350914 1_555
Na3 O11 2.423166 1_555
Na3 O21 2.647459 1_565
Na3 O1 2.713807 1_555
Na3 O6 2.775589 1_665
Na3 O6 2.847526 1_565
Na3 O13 2.902059 1_565
Na4 O14 2.262773 1_555
Na4 O19 2.337092 1_545
Na4 O16 2.370422 1_655
Na4 O7 2.454695 1_545
Na5 O15 2.262773 1_555
Na5 O18 2.337092 1_565
Na5 O17 2.370422 1_455
Na5 O6 2.454695 1_565
Na6 O8 2.362164 1_555
Na6 O9 2.362164 1_455
Na6 O2 2.532580 1_455
Na6 O3 2.532580 1_555
Na6 O22 2.653587 1_555
Na6 O23 2.653587 1_455
Na7 O14 2.289392 1_555
Na7 O19 2.361421 1_555
Na7 O20 2.547850 1_655
Na7 O4 2.599225 1_655
Na7 O0 2.671617 1_655
Na7 O12 2.688221 1_555
Na8 O15 2.289392 1_555
Na8 O18 2.361421 1_555
Na8 O21 2.547850 1_455
Na8 O5 2.599225 1_455
Na8 O1 2.671617 1_455
Na8 O13 2.688221 1_555
Na9 O9 2.331075 1_555
Na9 O2 2.344190 1_555
Na9 O22 2.378906 1_555
Na9 O8 2.630784 1_555
Na10 O8 2.331075 1_555
Na10 O3 2.344190 1_555
Na10 O23 2.378906 1_555
Na10 O9 2.630784 1_555
Nb0 O8 1.806861 1_555
Nb0 O10 2.026523 1_555
Nb0 O0 2.041035 1_555
Nb0 O12 2.072687 1_555
Nb0 O20 2.092175 1_555
Nb0 O4 2.267136 1_555
Nb1 O9 1.806861 1_555
Nb1 O11 2.026523 1_555
Nb1 O1 2.041035 1_555
Nb1 O13 2.072687 1_555
Nb1 O21 2.092175 1_555
Nb1 O5 2.267136 1_555
O0 Si2 1.621852 1_455
O1 Si3 1.621852 1_655
O2 Si2 1.631379 1_555
O2 Ti0 1.998162 1_655
O3 Si3 1.631379 1_555
O3 Ti0 1.998162 1_565
O4 P0 1.590790 1_555
O5 P1 1.590790 1_555
O6 Si3 1.671730 1_545
O6 Si0 1.675144 1_555
O7 Si2 1.671730 1_565
O7 Si1 1.675144 1_555
O10 Si2 1.624923 1_555
O11 Si3 1.624923 1_555
O12 Si1 1.647560 1_555
O13 Si0 1.647560 1_555
O14 P0 1.552787 1_555
O15 P1 1.552787 1_555
O16 P0 1.559063 1_555
O17 P1 1.559063 1_555
O18 P0 1.557089 1_556
O19 P1 1.557089 1_554
O20 Si1 1.651946 1_455
O21 Si0 1.651946 1_655
O22 Si0 1.627237 1_555
O22 Ti0 2.056551 1_555
O23 Si1 1.627237 1_555
O23 Ti0 2.056551 1_665
F0 Ti0 1.996480 1_555
F0 Na9 2.323308 1_555
F0 Na2 2.368313 1_555
F0 Na10 2.449492 1_545
F1 Ti0 1.996480 1_665
F1 Na10 2.323308 1_555
F1 Na3 2.368313 1_555
F1 Na9 2.449492 1_565
