# generated using pymatgen
data_Tm4In(NiGe2)2
_symmetry_space_group_name_H-M   'P 1'
_cell_length_a   7.95385638
_cell_length_b   7.95385638
_cell_length_c   6.98959541
_cell_angle_alpha   72.06714339
_cell_angle_beta   72.06714339
_cell_angle_gamma   30.55783146
_symmetry_Int_Tables_number   1
_chemical_formula_structural   Tm4In(NiGe2)2
_chemical_formula_sum   'Tm4 In1 Ni2 Ge4'
_cell_volume   213.05282058
_cell_formula_units_Z   1
loop_
 _symmetry_equiv_pos_site_id
 _symmetry_equiv_pos_as_xyz
  1  'x, y, z'
loop_
 _atom_site_type_symbol
 _atom_site_label
 _atom_site_symmetry_multiplicity
 _atom_site_fract_x
 _atom_site_fract_y
 _atom_site_fract_z
 _atom_site_occupancy
  Tm  Tm0  1  0.34397100  0.34397100  0.93717100  1
  Tm  Tm1  1  0.65602900  0.65602900  0.06282900  1
  Tm  Tm2  1  0.40869300  0.40869300  0.39097300  1
  Tm  Tm3  1  0.59130700  0.59130700  0.60902700  1
  In  In0  1  0.00000000  0.00000000  0.00000000  1
  Ni  Ni0  1  0.21810400  0.21810400  0.36203900  1
  Ni  Ni1  1  0.78189600  0.78189600  0.63796100  1
  Ge  Ge0  1  0.06617100  0.06617100  0.33733200  1
  Ge  Ge1  1  0.93382900  0.93382900  0.66266800  1
  Ge  Ge2  1  0.20155000  0.20155000  0.73554900  1
  Ge  Ge3  1  0.79845000  0.79845000  0.26445100  1
loop_
_geom_bond_atom_site_label_1
_geom_bond_atom_site_label_2
_geom_bond_distance
_geom_bond_site_symmetry_2
In0 Tm1 3.315127 1_545
In0 Tm1 3.315127 1_455
In0 Tm0 3.315127 1_544
In0 Tm0 3.315127 1_454
In0 Tm2 3.373419 1_455
In0 Tm2 3.373419 1_545
In0 Tm3 3.373419 1_454
In0 Tm3 3.373419 1_544
Ni0 Tm0 2.981260 1_554
Ni0 Tm2 2.995362 1_555
Ni0 Tm3 3.002513 1_545
Ni0 Tm3 3.002513 1_455
Ni1 Tm1 2.981260 1_556
Ni1 Tm3 2.995362 1_555
Ni1 Tm2 3.002513 1_565
Ni1 Tm2 3.002513 1_655
Ge0 Ni0 2.392205 1_555
Ge0 Ge1 2.519371 1_445
Ge0 In0 2.849340 1_555
Ge0 Tm1 2.878700 1_545
Ge0 Tm1 2.878700 1_455
Ge0 Tm3 2.935283 1_455
Ge0 Tm3 2.935283 1_545
Ge0 Tm2 3.129720 1_545
Ge0 Tm2 3.129720 1_455
Ge1 Ni1 2.392205 1_555
Ge1 In0 2.849340 1_666
Ge1 Tm0 2.878700 1_565
Ge1 Tm0 2.878700 1_655
Ge1 Tm2 2.935283 1_655
Ge1 Tm2 2.935283 1_565
Ge1 Tm3 3.129720 1_655
Ge1 Tm3 3.129720 1_565
Ge2 Ni1 2.416962 1_545
Ge2 Ni1 2.416962 1_455
Ge2 Ni0 2.541032 1_555
Ge2 Tm0 2.954423 1_555
Ge2 Tm3 2.998697 1_545
Ge2 Tm3 2.998697 1_455
Ge2 Tm1 3.015616 1_546
Ge2 Tm1 3.015616 1_456
Ge2 In0 3.054996 1_556
Ge2 Tm2 3.319275 1_555
Ge3 Ni0 2.416962 1_655
Ge3 Ni0 2.416962 1_565
Ge3 Ni1 2.541032 1_555
Ge3 Tm1 2.954423 1_555
Ge3 Tm2 2.998697 1_565
Ge3 Tm2 2.998697 1_655
Ge3 Tm0 3.015616 1_564
Ge3 Tm0 3.015616 1_654
Ge3 In0 3.054996 1_665
Ge3 Tm3 3.319275 1_555
