# generated using pymatgen
data_SmEu(CoO3)4
_symmetry_space_group_name_H-M   'P 1'
_cell_length_a   5.25178650
_cell_length_b   5.25178650
_cell_length_c   7.50452391
_cell_angle_alpha   90.00000000
_cell_angle_beta   90.00000000
_cell_angle_gamma   90.00000000
_symmetry_Int_Tables_number   1
_chemical_formula_structural   SmEu(CoO3)4
_chemical_formula_sum   'Sm1 Eu1 Co4 O12'
_cell_volume   206.98423596
_cell_formula_units_Z   1
loop_
 _symmetry_equiv_pos_site_id
 _symmetry_equiv_pos_as_xyz
  1  'x, y, z'
loop_
 _atom_site_type_symbol
 _atom_site_label
 _atom_site_symmetry_multiplicity
 _atom_site_fract_x
 _atom_site_fract_y
 _atom_site_fract_z
 _atom_site_occupancy
  Sm  Sm0  1  0.00000000  -0.00000000  0.50000000  1
  Eu  Eu0  1  0.50000000  0.50000000  -0.00000000  1
  Co  Co0  1  0.00000000  0.50000000  0.75202230  1
  Co  Co1  1  -0.00000000  0.50000000  0.24797770  1
  Co  Co2  1  0.50000000  -0.00000000  0.24797770  1
  Co  Co3  1  0.50000000  -0.00000000  0.75202230  1
  O  O0  1  0.24835909  0.24835909  0.25177741  1
  O  O1  1  0.24835909  0.24835909  0.74822259  1
  O  O2  1  0.75164091  0.75164091  0.25177741  1
  O  O3  1  0.75164091  0.75164091  0.74822259  1
  O  O4  1  0.75164091  0.24835909  0.74822259  1
  O  O5  1  0.75164091  0.24835909  0.25177741  1
  O  O6  1  0.24835909  0.75164091  0.74822259  1
  O  O7  1  0.24835909  0.75164091  0.25177741  1
  O  O8  1  0.00000000  0.50000000  0.50000000  1
  O  O9  1  0.00000000  0.50000000  -0.00000000  1
  O  O10  1  0.50000000  -0.00000000  0.50000000  1
  O  O11  1  0.50000000  -0.00000000  -0.00000000  1
loop_
_geom_bond_atom_site_label_1
_geom_bond_atom_site_label_2
_geom_bond_distance
_geom_bond_site_symmetry_2
Eu0 O11 2.625893 1_555
Eu0 O11 2.625893 1_565
Eu0 O9 2.625893 1_555
Eu0 O9 2.625893 1_655
Eu0 O0 2.657661 1_555
Eu0 O1 2.657661 1_554
Eu0 O5 2.657661 1_555
Eu0 O2 2.657661 1_555
Eu0 O3 2.657661 1_554
Eu0 O4 2.657661 1_554
Eu0 O6 2.657661 1_554
Eu0 O7 2.657661 1_555
Co0 O3 1.857046 1_455
Co0 O6 1.857046 1_555
Co0 O4 1.857046 1_455
Co0 O1 1.857046 1_555
Co0 O9 1.860955 1_556
Co0 O8 1.891307 1_555
Co1 O5 1.857046 1_455
Co1 O7 1.857046 1_555
Co1 O0 1.857046 1_555
Co1 O2 1.857046 1_455
Co1 O9 1.860955 1_555
Co1 O8 1.891307 1_555
Co2 O2 1.857046 1_545
Co2 O0 1.857046 1_555
Co2 O5 1.857046 1_555
Co2 O7 1.857046 1_545
Co2 O11 1.860955 1_555
Co2 O10 1.891307 1_555
Co3 O1 1.857046 1_555
Co3 O4 1.857046 1_555
Co3 O6 1.857046 1_545
Co3 O3 1.857046 1_545
Co3 O11 1.860955 1_556
Co3 O10 1.891307 1_555
O0 Sm0 2.621554 1_555
O1 Sm0 2.621554 1_555
O2 Sm0 2.621554 1_665
O3 Sm0 2.621554 1_665
O4 Sm0 2.621554 1_655
O5 Sm0 2.621554 1_655
O6 Sm0 2.621554 1_565
O7 Sm0 2.621554 1_565
O8 Sm0 2.625893 1_555
O8 Sm0 2.625893 1_565
O10 Sm0 2.625893 1_555
O10 Sm0 2.625893 1_655
