# generated using pymatgen
data_Hg
_symmetry_space_group_name_H-M   'P 1'
_cell_length_a   13.26692158
_cell_length_b   13.26692158
_cell_length_c   10.51850700
_cell_angle_alpha   90.00000000
_cell_angle_beta   90.00000000
_cell_angle_gamma   119.94803861
_symmetry_Int_Tables_number   1
_chemical_formula_structural   Hg
_chemical_formula_sum   Hg34
_cell_volume   1604.17673386
_cell_formula_units_Z   34
loop_
 _symmetry_equiv_pos_site_id
 _symmetry_equiv_pos_as_xyz
  1  'x, y, z'
loop_
 _atom_site_type_symbol
 _atom_site_label
 _atom_site_symmetry_multiplicity
 _atom_site_fract_x
 _atom_site_fract_y
 _atom_site_fract_z
 _atom_site_occupancy
  Hg  Hg0  1  0.74935800  0.25097300  0.49787200  1
  Hg  Hg1  1  0.74904200  0.49809200  0.49743700  1
  Hg  Hg2  1  0.50163200  0.25102300  0.49787100  1
  Hg  Hg3  1  0.25097300  0.74935800  0.50212800  1
  Hg  Hg4  1  0.25102300  0.50163200  0.50212900  1
  Hg  Hg5  1  0.49809200  0.74904200  0.50256300  1
  Hg  Hg6  1  0.25097300  0.74935800  0.99787200  1
  Hg  Hg7  1  0.25102300  0.50163200  0.99787100  1
  Hg  Hg8  1  0.49809200  0.74904200  0.99743700  1
  Hg  Hg9  1  0.74935800  0.25097300  0.00212800  1
  Hg  Hg10  1  0.74904200  0.49809200  0.00256300  1
  Hg  Hg11  1  0.50163200  0.25102300  0.00212900  1
  Hg  Hg12  1  0.83302800  0.66669700  0.75000000  1
  Hg  Hg13  1  0.33332100  0.16674700  0.75000000  1
  Hg  Hg14  1  0.83325000  0.16634100  0.75000000  1
  Hg  Hg15  1  0.16674700  0.33332100  0.25000000  1
  Hg  Hg16  1  0.66669700  0.83302800  0.25000000  1
  Hg  Hg17  1  0.16634100  0.83325000  0.25000000  1
  Hg  Hg18  1  0.75012600  0.75012600  0.50000000  1
  Hg  Hg19  1  0.25016100  0.00005400  0.49982100  1
  Hg  Hg20  1  0.00005400  0.25016100  0.50017900  1
  Hg  Hg21  1  0.25001400  0.25001400  0.50000000  1
  Hg  Hg22  1  0.00048300  0.75014200  0.50011800  1
  Hg  Hg23  1  0.75014200  0.00048300  0.49988200  1
  Hg  Hg24  1  0.25001400  0.25001400  0.00000000  1
  Hg  Hg25  1  0.75014200  0.00048300  0.00011800  1
  Hg  Hg26  1  0.00048300  0.75014200  0.99988200  1
  Hg  Hg27  1  0.75012600  0.75012600  0.00000000  1
  Hg  Hg28  1  0.00005400  0.25016100  0.99982100  1
  Hg  Hg29  1  0.25016100  0.00005400  0.00017900  1
  Hg  Hg30  1  0.49952800  0.50048100  0.75000000  1
  Hg  Hg31  1  0.49945100  0.99895800  0.75000000  1
  Hg  Hg32  1  0.50048100  0.49952800  0.25000000  1
  Hg  Hg33  1  0.99895800  0.49945100  0.25000000  1
loop_
_geom_bond_atom_site_label_1
_geom_bond_atom_site_label_2
_geom_bond_distance
_geom_bond_site_symmetry_2
Hg0 Hg1 3.280606 1_555
Hg0 Hg14 3.283337 1_555
Hg0 Hg2 3.286893 1_555
Hg0 Hg23 3.328503 1_555
Hg0 Hg20 3.331444 1_655
Hg1 Hg2 3.282688 1_555
Hg1 Hg12 3.288475 1_555
Hg1 Hg18 3.336668 1_555
Hg1 Hg22 3.342637 1_655
Hg2 Hg21 3.331609 1_555
Hg3 Hg5 3.280606 1_555
Hg3 Hg4 3.286893 1_555
Hg4 Hg5 3.282688 1_555
Hg6 Hg8 3.280606 1_555
Hg6 Hg7 3.286893 1_555
Hg7 Hg8 3.282688 1_555
Hg10 Hg9 3.280606 1_555
Hg10 Hg11 3.282688 1_555
Hg10 Hg12 3.288475 1_554
Hg10 Hg27 3.336668 1_555
Hg10 Hg26 3.342637 1_654
Hg11 Hg13 3.282796 1_554
Hg11 Hg9 3.286893 1_555
Hg11 Hg24 3.331609 1_555
Hg11 Hg29 3.335601 1_555
Hg12 Hg18 3.250412 1_555
Hg12 Hg27 3.250412 1_556
Hg12 Hg22 3.257907 1_655
Hg12 Hg26 3.257907 1_655
Hg13 Hg24 3.252052 1_556
Hg13 Hg21 3.252052 1_555
Hg13 Hg29 3.255264 1_556
Hg13 Hg19 3.255264 1_555
Hg13 Hg2 3.282796 1_555
Hg14 Hg23 3.249106 1_555
Hg14 Hg25 3.249106 1_556
Hg14 Hg28 3.252980 1_655
Hg14 Hg20 3.252980 1_655
Hg14 Hg9 3.283337 1_556
Hg15 Hg24 3.252052 1_555
Hg15 Hg21 3.252052 1_555
Hg15 Hg20 3.255264 1_555
Hg15 Hg28 3.255264 1_554
Hg15 Hg7 3.282796 1_554
Hg15 Hg4 3.282796 1_555
Hg16 Hg18 3.250412 1_555
Hg16 Hg27 3.250412 1_555
Hg16 Hg23 3.257907 1_565
Hg16 Hg25 3.257907 1_565
Hg16 Hg5 3.288475 1_555
Hg16 Hg8 3.288475 1_554
Hg17 Hg22 3.249106 1_555
Hg17 Hg26 3.249106 1_554
Hg17 Hg29 3.252980 1_565
Hg17 Hg19 3.252980 1_565
Hg17 Hg6 3.283337 1_554
Hg17 Hg3 3.283337 1_555
Hg18 Hg23 3.321361 1_565
Hg18 Hg22 3.321361 1_655
Hg18 Hg5 3.336668 1_555
Hg19 Hg22 3.316616 1_545
Hg19 Hg21 3.317174 1_555
Hg19 Hg3 3.331444 1_545
Hg19 Hg2 3.335601 1_555
Hg20 Hg23 3.316616 1_455
Hg20 Hg21 3.317174 1_555
Hg20 Hg4 3.335601 1_555
Hg21 Hg4 3.331609 1_555
Hg22 Hg3 3.328503 1_555
Hg23 Hg5 3.342637 1_545
Hg24 Hg29 3.317174 1_555
Hg24 Hg28 3.317174 1_554
Hg24 Hg7 3.331609 1_554
Hg25 Hg28 3.316616 1_654
Hg25 Hg27 3.321361 1_545
Hg25 Hg9 3.328503 1_555
Hg25 Hg8 3.342637 1_544
Hg26 Hg29 3.316616 1_566
Hg26 Hg27 3.321361 1_456
Hg26 Hg6 3.328503 1_555
Hg27 Hg8 3.336668 1_554
Hg28 Hg9 3.331444 1_456
Hg28 Hg7 3.335601 1_555
Hg29 Hg6 3.331444 1_544
