# generated using pymatgen
data_Sm(Tl3Te2)3
_symmetry_space_group_name_H-M   'P 1'
_cell_length_a   9.04575400
_cell_length_b   9.04575400
_cell_length_c   9.31461195
_cell_angle_alpha   119.04968946
_cell_angle_beta   119.04968946
_cell_angle_gamma   90.00000000
_symmetry_Int_Tables_number   1
_chemical_formula_structural   Sm(Tl3Te2)3
_chemical_formula_sum   'Sm1 Tl9 Te6'
_cell_volume   554.05802758
_cell_formula_units_Z   1
loop_
 _symmetry_equiv_pos_site_id
 _symmetry_equiv_pos_as_xyz
  1  'x, y, z'
loop_
 _atom_site_type_symbol
 _atom_site_label
 _atom_site_symmetry_multiplicity
 _atom_site_fract_x
 _atom_site_fract_y
 _atom_site_fract_z
 _atom_site_occupancy
  Sm  Sm0  1  0.00000000  0.00000000  0.00000000  1
  Tl  Tl0  1  0.50000000  0.50000000  0.00000000  1
  Tl  Tl1  1  0.79843900  0.31364300  0.31664000  1
  Tl  Tl2  1  0.51820100  0.00299600  0.31664000  1
  Tl  Tl3  1  0.00299600  0.79843900  0.31664000  1
  Tl  Tl4  1  0.31364300  0.51820100  0.31664000  1
  Tl  Tl5  1  0.20156100  0.68635700  0.68336000  1
  Tl  Tl6  1  0.48179900  0.99700400  0.68336000  1
  Tl  Tl7  1  0.99700400  0.20156100  0.68336000  1
  Tl  Tl8  1  0.68635700  0.48179900  0.68336000  1
  Te  Te0  1  0.23590800  0.23590800  0.47181500  1
  Te  Te1  1  0.76409200  0.76409200  0.52818500  1
  Te  Te2  1  0.84989600  0.32245700  0.00000000  1
  Te  Te3  1  0.15010400  0.67754300  0.00000000  1
  Te  Te4  1  0.67754300  0.84989600  0.00000000  1
  Te  Te5  1  0.32245700  0.15010400  0.00000000  1
loop_
_geom_bond_atom_site_label_1
_geom_bond_atom_site_label_2
_geom_bond_distance
_geom_bond_site_symmetry_2
Sm0 Te0 3.194754 1_555
Sm0 Te1 3.194754 1_444
Sm0 Te3 3.217412 1_545
Sm0 Te4 3.217412 1_445
Sm0 Te2 3.217412 1_455
Sm0 Te5 3.217412 1_555
Te0 Tl0 3.576447 1_556
Te1 Tl0 3.576447 1_555
Te2 Tl6 3.237808 1_544
Te2 Tl1 3.237812 1_555
Te2 Tl0 3.549219 1_555
Te3 Tl2 3.237808 1_565
Te3 Tl5 3.237812 1_554
Te3 Tl0 3.549219 1_555
Te4 Tl3 3.237808 1_655
Te4 Tl8 3.237812 1_554
Te4 Tl0 3.549219 1_555
Te5 Tl7 3.237808 1_454
Te5 Tl4 3.237812 1_555
Te5 Tl0 3.549219 1_555
