# generated using pymatgen
data_K2Al2Sb3
_symmetry_space_group_name_H-M   'P 1'
_cell_length_a   7.28564925
_cell_length_b   14.84412187
_cell_length_c   16.74899132
_cell_angle_alpha   89.43269201
_cell_angle_beta   90.00000000
_cell_angle_gamma   90.00000000
_symmetry_Int_Tables_number   1
_chemical_formula_structural   K2Al2Sb3
_chemical_formula_sum   'K16 Al16 Sb24'
_cell_volume   1811.29896645
_cell_formula_units_Z   8
loop_
 _symmetry_equiv_pos_site_id
 _symmetry_equiv_pos_as_xyz
  1  'x, y, z'
loop_
 _atom_site_type_symbol
 _atom_site_label
 _atom_site_symmetry_multiplicity
 _atom_site_fract_x
 _atom_site_fract_y
 _atom_site_fract_z
 _atom_site_occupancy
  K  K0  1  0.97014593  0.85886336  0.99259366  1
  K  K1  1  0.47014593  0.14113664  0.50740634  1
  K  K2  1  0.02985407  0.14113664  0.00740634  1
  K  K3  1  0.52985407  0.85886336  0.49259366  1
  K  K4  1  0.54794322  0.35005000  0.01818521  1
  K  K5  1  0.04794322  0.64995000  0.48181479  1
  K  K6  1  0.45205678  0.64995000  0.98181479  1
  K  K7  1  0.95205678  0.35005000  0.51818521  1
  K  K8  1  0.53212250  0.07466868  0.10914990  1
  K  K9  1  0.03212250  0.92533132  0.39085010  1
  K  K10  1  0.46787750  0.92533132  0.89085010  1
  K  K11  1  0.96787750  0.07466868  0.60914990  1
  K  K12  1  0.94505521  0.55680204  0.89571198  1
  K  K13  1  0.44505521  0.44319796  0.60428802  1
  K  K14  1  0.05494479  0.44319796  0.10428802  1
  K  K15  1  0.55494479  0.55680204  0.39571198  1
  Al  Al0  1  0.28257421  0.31265916  0.82674940  1
  Al  Al1  1  0.78257421  0.68734084  0.67325060  1
  Al  Al2  1  0.71742579  0.68734084  0.17325060  1
  Al  Al3  1  0.21742579  0.31265916  0.32674940  1
  Al  Al4  1  0.78899231  0.90601646  0.73052139  1
  Al  Al5  1  0.28899231  0.09398354  0.76947861  1
  Al  Al6  1  0.21100769  0.09398354  0.26947861  1
  Al  Al7  1  0.71100769  0.90601646  0.23052139  1
  Al  Al8  1  0.76638572  0.18436066  0.82118034  1
  Al  Al9  1  0.26638572  0.81563934  0.67881966  1
  Al  Al10  1  0.23361428  0.81563934  0.17881966  1
  Al  Al11  1  0.73361428  0.18436066  0.32118034  1
  Al  Al12  1  0.76201825  0.40519304  0.76118915  1
  Al  Al13  1  0.26201825  0.59480696  0.73881085  1
  Al  Al14  1  0.23798175  0.59480696  0.23881085  1
  Al  Al15  1  0.73798175  0.40519304  0.26118915  1
  Sb  Sb0  1  0.96331594  0.02870164  0.82333773  1
  Sb  Sb1  1  0.46331594  0.97129836  0.67666227  1
  Sb  Sb2  1  0.03668406  0.97129836  0.17666227  1
  Sb  Sb3  1  0.53668406  0.02870164  0.32333773  1
  Sb  Sb4  1  0.45025286  0.16477595  0.90076443  1
  Sb  Sb5  1  0.95025286  0.83522405  0.59923557  1
  Sb  Sb6  1  0.54974714  0.83522405  0.09923557  1
  Sb  Sb7  1  0.04974714  0.16477595  0.40076443  1
  Sb  Sb8  1  0.94405876  0.32843985  0.88649680  1
  Sb  Sb9  1  0.44405876  0.67156015  0.61350320  1
  Sb  Sb10  1  0.05594124  0.67156015  0.11350320  1
  Sb  Sb11  1  0.55594124  0.32843985  0.38649680  1
  Sb  Sb12  1  0.82432321  0.25275809  0.17505402  1
  Sb  Sb13  1  0.32432321  0.74724191  0.32494598  1
  Sb  Sb14  1  0.17567679  0.74724191  0.82494598  1
  Sb  Sb15  1  0.67567679  0.25275809  0.67505402  1
  Sb  Sb16  1  0.45732049  0.47478688  0.83220691  1
  Sb  Sb17  1  0.95732049  0.52521312  0.66779309  1
  Sb  Sb18  1  0.54267951  0.52521312  0.16779309  1
  Sb  Sb19  1  0.04267951  0.47478688  0.33220691  1
  Sb  Sb20  1  0.22148467  0.24636540  0.17798598  1
  Sb  Sb21  1  0.72148467  0.75363460  0.32201402  1
  Sb  Sb22  1  0.77851533  0.75363460  0.82201402  1
  Sb  Sb23  1  0.27851533  0.24636540  0.67798598  1
loop_
_geom_bond_atom_site_label_1
_geom_bond_atom_site_label_2
_geom_bond_distance
_geom_bond_site_symmetry_2
K0 Sb10 3.480037 1_656
K0 Sb2 3.553466 1_656
K0 Sb22 3.555307 1_555
K0 Sb6 3.561216 1_556
K0 Sb14 3.600594 1_655
K0 Sb0 3.775362 1_565
K1 Sb11 3.480037 1_555
K1 Sb3 3.553466 1_555
K1 Sb23 3.555307 1_555
K1 Sb7 3.561216 1_555
K1 Sb15 3.600594 1_555
K1 Sb1 3.775362 1_545
K2 Sb8 3.480037 1_454
K2 Sb0 3.553466 1_454
K2 Sb20 3.555307 1_555
K2 Sb4 3.561216 1_554
K2 Sb12 3.600594 1_455
K2 Sb2 3.775362 1_545
K3 Sb9 3.480037 1_555
K3 Sb1 3.553466 1_555
K3 Sb21 3.555307 1_555
K3 Sb5 3.561216 1_555
K3 Sb13 3.600594 1_555
K3 Sb3 3.775362 1_565
K4 Sb4 3.470630 1_554
K4 Sb12 3.601170 1_555
K4 Sb18 3.629073 1_555
K4 Sb8 3.648363 1_554
K4 Sb16 3.667843 1_554
K4 Sb20 3.886904 1_555
K5 Sb5 3.470630 1_455
K5 Sb13 3.601170 1_555
K5 Sb19 3.629073 1_555
K5 Sb9 3.648363 1_555
K5 Sb17 3.667843 1_455
K5 Sb21 3.886904 1_455
K6 Sb6 3.470630 1_556
K6 Sb14 3.601170 1_555
K6 Sb16 3.629073 1_555
K6 Sb10 3.648363 1_556
K6 Sb18 3.667843 1_556
K6 Sb22 3.886904 1_555
K7 Sb7 3.470630 1_655
K7 Sb15 3.601170 1_555
K7 Sb17 3.629073 1_555
K7 Sb11 3.648363 1_555
K7 Sb19 3.667843 1_655
K7 Sb23 3.886904 1_655
K8 Sb6 3.562179 1_545
K8 Sb12 3.577266 1_555
K8 Sb20 3.606289 1_555
K8 Sb3 3.645254 1_555
K8 Sb4 3.772828 1_554
K9 Sb7 3.562179 1_565
K9 Sb13 3.577266 1_555
K9 Sb21 3.606289 1_455
K9 Sb2 3.645254 1_555
K9 Sb5 3.772828 1_455
K10 Sb4 3.562179 1_565
K10 Sb14 3.577266 1_555
K10 Sb22 3.606289 1_555
K10 Sb1 3.645254 1_555
K10 Sb6 3.772828 1_556
K11 Sb5 3.562179 1_545
K11 Sb15 3.577266 1_555
K11 Sb23 3.606289 1_655
K11 Sb0 3.645254 1_555
K11 Sb7 3.772828 1_655
K12 Sb22 3.385471 1_555
K12 Sb8 3.394882 1_555
K12 Sb14 3.486128 1_655
K12 Sb17 3.851745 1_555
K12 Sb16 3.907206 1_555
K12 Sb16 4.070425 1_655
K13 Sb23 3.385471 1_555
K13 Sb9 3.394882 1_555
K13 Sb15 3.486128 1_555
K13 Sb16 3.851745 1_555
K13 Sb17 3.907206 1_455
K13 Sb17 4.070425 1_555
K14 Sb20 3.385471 1_555
K14 Sb10 3.394882 1_555
K14 Sb12 3.486128 1_455
K14 Sb19 3.851745 1_555
K14 Sb18 3.907206 1_555
K14 Sb18 4.070425 1_455
K15 Sb21 3.385471 1_555
K15 Sb11 3.394882 1_555
K15 Sb13 3.486128 1_555
K15 Sb18 3.851745 1_555
K15 Sb19 3.907206 1_655
K15 Sb19 4.070425 1_555
Al0 Sb8 2.672750 1_455
Al0 Sb23 2.688138 1_555
Al0 Sb16 2.724983 1_555
Al0 Sb4 2.791813 1_555
Al0 K4 3.789724 1_556
Al1 Sb9 2.672750 1_555
Al1 Sb22 2.688138 1_555
Al1 Sb17 2.724983 1_555
Al1 Sb5 2.791813 1_555
Al1 K5 3.789724 1_655
Al2 Sb10 2.672750 1_655
Al2 Sb21 2.688138 1_555
Al2 Sb18 2.724983 1_555
Al2 Sb6 2.791813 1_555
Al2 K6 3.789724 1_554
Al3 Sb11 2.672750 1_555
Al3 Sb20 2.688138 1_555
Al3 Sb19 2.724983 1_555
Al3 Sb7 2.791813 1_555
Al3 K7 3.789724 1_455
Al4 Sb1 2.713949 1_555
Al4 Sb5 2.713962 1_555
Al4 Sb22 2.720661 1_555
Al4 Sb0 2.720742 1_565
Al4 K11 3.463778 1_565
Al4 K10 3.575182 1_555
Al5 Sb0 2.713949 1_455
Al5 Sb4 2.713962 1_555
Al5 Sb23 2.720661 1_555
Al5 Sb1 2.720742 1_545
Al5 K10 3.463778 1_545
Al5 K11 3.575182 1_455
Al6 Sb3 2.713949 1_555
Al6 Sb7 2.713962 1_555
Al6 Sb20 2.720661 1_555
Al6 Sb2 2.720742 1_545
Al6 K9 3.463778 1_545
Al6 K8 3.575182 1_555
Al7 Sb2 2.713949 1_655
Al7 Sb6 2.713962 1_555
Al7 Sb21 2.720661 1_555
Al7 Sb3 2.720742 1_565
Al7 K8 3.463778 1_565
Al7 K9 3.575182 1_655
Al8 Sb4 2.675536 1_555
Al8 Sb0 2.719774 1_555
Al8 Sb15 2.721853 1_555
Al8 Sb8 2.737322 1_555
Al8 K2 3.712876 1_656
Al9 Sb5 2.675536 1_455
Al9 Sb1 2.719774 1_555
Al9 Sb14 2.721853 1_555
Al9 Sb9 2.737322 1_555
Al9 K3 3.712876 1_555
Al10 Sb6 2.675536 1_555
Al10 Sb2 2.719774 1_555
Al10 Sb13 2.721853 1_555
Al10 Sb10 2.737322 1_555
Al10 K0 3.712876 1_454
Al11 Sb7 2.675536 1_655
Al11 Sb3 2.719774 1_555
Al11 Sb12 2.721853 1_555
Al11 Sb11 2.737322 1_555
Al11 K1 3.712876 1_555
Al12 Sb8 2.722980 1_555
Al12 Sb16 2.726618 1_555
Al12 Sb17 2.755094 1_555
Al12 Sb15 2.767989 1_555
Al12 K12 3.466997 1_555
Al12 K13 3.539454 1_555
Al13 Sb9 2.722980 1_555
Al13 Sb17 2.726618 1_455
Al13 Sb16 2.755094 1_555
Al13 Sb14 2.767989 1_555
Al13 K13 3.466997 1_555
Al13 K12 3.539454 1_455
Al14 Sb10 2.722980 1_555
Al14 Sb18 2.726618 1_555
Al14 Sb19 2.755094 1_555
Al14 Sb13 2.767989 1_555
Al14 K14 3.466997 1_555
Al14 K15 3.539454 1_555
Al15 Sb11 2.722980 1_555
Al15 Sb19 2.726618 1_655
Al15 Sb18 2.755094 1_555
Al15 Sb12 2.767989 1_555
Al15 K15 3.466997 1_555
Al15 K14 3.539454 1_655
Sb12 Sb20 2.895535 1_655
Sb13 Sb21 2.895535 1_555
Sb14 Sb22 2.895535 1_455
Sb15 Sb23 2.895535 1_555
