# generated using pymatgen
data_K3Tc2Cl8O3
_symmetry_space_group_name_H-M   'P 1'
_cell_length_a   13.13837430
_cell_length_b   13.13837430
_cell_length_c   8.34345800
_cell_angle_alpha   90.00000000
_cell_angle_beta   90.00000000
_cell_angle_gamma   120.00000153
_symmetry_Int_Tables_number   1
_chemical_formula_structural   K3Tc2Cl8O3
_chemical_formula_sum   'K9 Tc6 Cl24 O9'
_cell_volume   1247.26854535
_cell_formula_units_Z   3
loop_
 _symmetry_equiv_pos_site_id
 _symmetry_equiv_pos_as_xyz
  1  'x, y, z'
loop_
 _atom_site_type_symbol
 _atom_site_label
 _atom_site_symmetry_multiplicity
 _atom_site_fract_x
 _atom_site_fract_y
 _atom_site_fract_z
 _atom_site_occupancy
  K  K0  1  0.71826200  0.00000000  0.33333300  1
  K  K1  1  0.00000000  0.71826200  0.66666700  1
  K  K2  1  0.28173800  0.28173800  0.00000000  1
  K  K3  1  0.50969200  0.18090700  0.74649200  1
  K  K4  1  0.81909300  0.32878400  0.07982500  1
  K  K5  1  0.18090700  0.50969200  0.25350800  1
  K  K6  1  0.67121600  0.49030800  0.41315900  1
  K  K7  1  0.32878400  0.81909300  0.92017500  1
  K  K8  1  0.49030800  0.67121600  0.58684100  1
  Tc  Tc0  1  0.08322300  0.44426100  0.72996900  1
  Tc  Tc1  1  0.55573900  0.63896200  0.06330200  1
  Tc  Tc2  1  0.44426100  0.08322300  0.27003100  1
  Tc  Tc3  1  0.36103800  0.91677700  0.39663500  1
  Tc  Tc4  1  0.63896200  0.55573900  0.93669800  1
  Tc  Tc5  1  0.91677700  0.36103800  0.60336500  1
  Cl  Cl0  1  0.20381800  0.62994900  0.60122300  1
  Cl  Cl1  1  0.37005100  0.57386900  0.93455600  1
  Cl  Cl2  1  0.62994900  0.20381800  0.39877700  1
  Cl  Cl3  1  0.42613100  0.79618200  0.26788900  1
  Cl  Cl4  1  0.57386900  0.37005100  0.06544400  1
  Cl  Cl5  1  0.79618200  0.42613100  0.73211100  1
  Cl  Cl6  1  0.49950600  0.43756800  0.73377100  1
  Cl  Cl7  1  0.56243200  0.06193800  0.06710500  1
  Cl  Cl8  1  0.43756800  0.49950600  0.26622900  1
  Cl  Cl9  1  0.93806200  0.50049400  0.40043800  1
  Cl  Cl10  1  0.06193800  0.56243200  0.93289500  1
  Cl  Cl11  1  0.50049400  0.93806200  0.59956200  1
  Cl  Cl12  1  0.05269900  0.31269200  0.93789600  1
  Cl  Cl13  1  0.68730800  0.74000700  0.27122900  1
  Cl  Cl14  1  0.31269200  0.05269900  0.06210400  1
  Cl  Cl15  1  0.25999300  0.94730100  0.60456200  1
  Cl  Cl16  1  0.74000700  0.68730800  0.72877100  1
  Cl  Cl17  1  0.94730100  0.25999300  0.39543800  1
  Cl  Cl18  1  0.19593300  0.37992900  0.59549900  1
  Cl  Cl19  1  0.62007100  0.81600400  0.92883200  1
  Cl  Cl20  1  0.37992900  0.19593300  0.40450100  1
  Cl  Cl21  1  0.18399600  0.80406700  0.26216500  1
  Cl  Cl22  1  0.81600400  0.62007100  0.07116800  1
  Cl  Cl23  1  0.80406700  0.18399600  0.73783500  1
  O  O0  1  0.15028500  0.09267300  0.78834400  1
  O  O1  1  0.90732700  0.05761200  0.12167700  1
  O  O2  1  0.09267300  0.15028500  0.21165600  1
  O  O3  1  0.94238800  0.84971500  0.45501000  1
  O  O4  1  0.05761200  0.90732700  0.87832300  1
  O  O5  1  0.84971500  0.94238800  0.54499000  1
  O  O6  1  0.05088300  0.00000000  0.83333300  1
  O  O7  1  0.00000000  0.05088300  0.16666700  1
  O  O8  1  0.94911700  0.94911700  0.50000000  1
loop_
_geom_bond_atom_site_label_1
_geom_bond_atom_site_label_2
_geom_bond_distance
_geom_bond_site_symmetry_2
K0 O1 2.825167 1_555
K0 O5 2.825172 1_545
K1 O4 2.825167 1_555
K1 O3 2.825172 1_455
K2 O2 2.825167 1_555
K2 O0 2.825167 1_554
Tc0 Tc5 2.168518 1_455
Tc1 Tc4 2.168518 1_554
Tc2 Tc3 2.168518 1_545
Cl0 Tc0 2.398060 1_555
Cl0 K5 3.244688 1_555
Cl0 K7 3.445698 1_555
Cl0 K1 3.452868 1_555
Cl0 K8 3.526383 1_555
Cl1 Tc1 2.398060 1_556
Cl1 K8 3.244690 1_555
Cl1 K5 3.445699 1_556
Cl1 K2 3.452868 1_556
Cl1 K7 3.526395 1_555
Cl2 Tc2 2.398060 1_555
Cl2 K3 3.244688 1_555
Cl2 K4 3.445698 1_555
Cl2 K0 3.452868 1_555
Cl2 K6 3.526383 1_555
Cl3 Tc3 2.398060 1_555
Cl3 K7 3.244686 1_554
Cl3 K8 3.445692 1_555
Cl3 K0 3.452868 1_565
Cl3 K5 3.526387 1_555
Cl4 Tc4 2.398060 1_554
Cl4 K6 3.244690 1_555
Cl4 K3 3.445699 1_554
Cl4 K2 3.452868 1_555
Cl4 K4 3.526395 1_555
Cl5 Tc5 2.398060 1_555
Cl5 K4 3.244686 1_556
Cl5 K6 3.445692 1_555
Cl5 K1 3.452868 1_655
Cl5 K3 3.526387 1_555
Cl6 Tc4 2.406138 1_555
Cl6 K6 3.340974 1_555
Cl6 K8 3.363303 1_555
Cl6 K2 3.384372 1_556
Cl6 K3 3.442611 1_555
Cl7 Tc2 2.406133 1_555
Cl7 K3 3.340973 1_554
Cl7 K7 3.363297 1_544
Cl7 K0 3.384366 1_555
Cl7 K4 3.442604 1_555
Cl8 Tc1 2.406138 1_555
Cl8 K8 3.340974 1_555
Cl8 K6 3.363303 1_555
Cl8 K2 3.384372 1_555
Cl8 K5 3.442611 1_555
Cl9 Tc5 2.406138 1_555
Cl9 K4 3.340979 1_555
Cl9 K5 3.363291 1_655
Cl9 K1 3.384372 1_655
Cl9 K6 3.442598 1_555
Cl10 Tc0 2.406133 1_555
Cl10 K5 3.340973 1_556
Cl10 K4 3.363297 1_456
Cl10 K1 3.384366 1_555
Cl10 K7 3.442604 1_555
Cl11 Tc3 2.406138 1_555
Cl11 K7 3.340979 1_555
Cl11 K3 3.363291 1_565
Cl11 K0 3.384372 1_565
Cl11 K8 3.442598 1_555
Cl12 Tc0 2.337798 1_555
Cl12 K2 3.273067 1_556
Cl12 K4 3.393506 1_456
Cl12 K5 3.480073 1_556
Cl13 Tc1 2.337798 1_555
Cl13 K0 3.273067 1_565
Cl13 K6 3.393522 1_555
Cl13 K8 3.480074 1_555
Cl14 Tc2 2.337798 1_555
Cl14 K2 3.273067 1_555
Cl14 K7 3.393506 1_544
Cl14 K3 3.480073 1_554
Cl15 Tc3 2.337798 1_555
Cl15 K1 3.273068 1_555
Cl15 K3 3.393516 1_565
Cl15 K7 3.480073 1_555
Cl16 Tc4 2.337798 1_555
Cl16 K1 3.273067 1_655
Cl16 K8 3.393522 1_555
Cl16 K6 3.480074 1_555
Cl17 Tc5 2.337798 1_555
Cl17 K0 3.273068 1_555
Cl17 K5 3.393516 1_655
Cl17 K4 3.480073 1_555
Cl18 Tc0 2.327578 1_555
Cl18 K5 3.379936 1_555
Cl19 Tc1 2.327578 1_556
Cl19 K8 3.379931 1_555
Cl20 Tc2 2.327578 1_555
Cl20 K3 3.379936 1_555
Cl21 Tc3 2.327578 1_555
Cl21 K7 3.379921 1_554
Cl22 Tc4 2.327578 1_554
Cl22 K6 3.379931 1_555
Cl23 Tc5 2.327578 1_555
Cl23 K4 3.379921 1_556
O0 O6 1.318651 1_555
O1 O7 1.318653 1_655
O2 O7 1.318651 1_555
O3 O8 1.318653 1_555
O4 O6 1.318653 1_565
O5 O8 1.318653 1_555
