# generated using pymatgen
data_Li10Zn(PS4)4
_symmetry_space_group_name_H-M   'P 1'
_cell_length_a   6.52868000
_cell_length_b   7.77066540
_cell_length_c   12.36669918
_cell_angle_alpha   89.79717405
_cell_angle_beta   89.91277780
_cell_angle_gamma   89.44664414
_symmetry_Int_Tables_number   1
_chemical_formula_structural   Li10Zn(PS4)4
_chemical_formula_sum   'Li10 Zn1 P4 S16'
_cell_volume   627.35581999
_cell_formula_units_Z   1
loop_
 _symmetry_equiv_pos_site_id
 _symmetry_equiv_pos_as_xyz
  1  'x, y, z'
loop_
 _atom_site_type_symbol
 _atom_site_label
 _atom_site_symmetry_multiplicity
 _atom_site_fract_x
 _atom_site_fract_y
 _atom_site_fract_z
 _atom_site_occupancy
  Li  Li0  1  0.31369400  0.23563400  0.99854100  1
  Li  Li1  1  0.68845900  0.25293100  0.74944400  1
  Li  Li2  1  0.67809500  0.26003900  0.24820300  1
  Li  Li3  1  0.68619700  0.74382200  0.74810800  1
  Li  Li4  1  0.67204600  0.74913900  0.25503400  1
  Li  Li5  1  0.31497800  0.74944000  0.00270900  1
  Li  Li6  1  0.15190000  0.98659700  0.75204900  1
  Li  Li7  1  0.14808300  0.97859500  0.26074100  1
  Li  Li8  1  0.86034900  0.53545200  0.50325000  1
  Li  Li9  1  0.85765000  0.49925500  0.00543600  1
  Zn  Zn0  1  0.30647800  0.25336300  0.50170200  1
  P  P0  1  0.81531100  0.01131700  0.49843100  1
  P  P1  1  0.81938900  0.99718200  0.00158400  1
  P  P2  1  0.18734400  0.49126600  0.74883400  1
  P  P3  1  0.17733400  0.50133500  0.25457500  1
  S  S0  1  0.11811700  0.00698200  0.55128500  1
  S  S1  1  0.11513300  0.99470700  0.05873200  1
  S  S2  1  0.81384100  0.99510500  0.83483100  1
  S  S3  1  0.80703100  0.00795400  0.33225000  1
  S  S4  1  0.66740300  0.23837500  0.55102500  1
  S  S5  1  0.67201200  0.21791300  0.05300100  1
  S  S6  1  0.32948500  0.26959900  0.80177700  1
  S  S7  1  0.31810700  0.27077700  0.30869400  1
  S  S8  1  0.20921900  0.51620500  0.58122700  1
  S  S9  1  0.19697700  0.49212200  0.08795300  1
  S  S10  1  0.88910800  0.49591200  0.80248500  1
  S  S11  1  0.87729800  0.50099900  0.30492400  1
  S  S12  1  0.33202800  0.70555200  0.80793800  1
  S  S13  1  0.32243400  0.70325800  0.31972200  1
  S  S14  1  0.66588100  0.80426400  0.55528700  1
  S  S15  1  0.67252800  0.78113000  0.05752300  1
loop_
_geom_bond_atom_site_label_1
_geom_bond_atom_site_label_2
_geom_bond_distance
_geom_bond_site_symmetry_2
Li0 S9 2.399870 1_556
Li0 S1 2.402841 1_546
Li0 S5 2.437827 1_556
Li0 S6 2.448786 1_555
Li1 S2 2.398962 1_545
Li1 S10 2.402178 1_555
Li1 S6 2.432760 1_555
Li1 S4 2.460906 1_555
Li2 S3 2.362727 1_555
Li2 S11 2.397600 1_555
Li2 S5 2.437681 1_555
Li2 S7 2.466077 1_555
Li3 S2 2.388816 1_555
Li3 S10 2.421262 1_555
Li3 S14 2.432312 1_555
Li3 S12 2.447229 1_555
Li4 S3 2.404926 1_565
Li4 S11 2.416302 1_555
Li4 S13 2.446435 1_555
Li4 S15 2.454301 1_555
Li5 S9 2.390669 1_555
Li5 S1 2.402765 1_555
Li5 S12 2.436119 1_554
Li5 S15 2.446700 1_555
Li6 S2 2.431953 1_455
Li6 S0 2.497235 1_565
Li6 S12 2.563651 1_555
Li6 S6 2.572836 1_565
Li7 S3 2.403652 1_465
Li7 S1 2.510335 1_555
Li7 S13 2.519887 1_555
Li7 S7 2.607489 1_565
Li8 S11 2.470345 1_555
Li8 S8 2.477721 1_655
Li8 S14 2.518958 1_555
Li8 S4 2.703557 1_555
Li9 S9 2.440561 1_655
Li9 S10 2.518117 1_554
Li9 S15 2.574837 1_555
Li9 S5 2.575717 1_555
P0 S14 2.013714 1_545
P0 S3 2.056169 1_555
P0 S0 2.083047 1_655
P0 S4 2.107579 1_555
P1 S1 2.056998 1_655
P1 S15 2.058476 1_555
P1 S5 2.060603 1_565
P1 S2 2.062680 1_554
P2 S6 2.054225 1_555
P2 S10 2.056099 1_455
P2 S12 2.059202 1_555
P2 S8 2.085909 1_555
P3 S13 2.012079 1_555
P3 S11 2.054538 1_455
P3 S9 2.065807 1_555
P3 S7 2.112811 1_555
S0 Zn0 2.364026 1_555
S4 Zn0 2.436522 1_555
S7 Zn0 2.391358 1_555
S8 Zn0 2.351444 1_555
