# generated using pymatgen
data_BaSm2FeS5
_symmetry_space_group_name_H-M   'P 1'
_cell_length_a   8.72053886
_cell_length_b   8.72053886
_cell_length_c   8.72053886
_cell_angle_alpha   126.71675485
_cell_angle_beta   126.71675485
_cell_angle_gamma   78.71326173
_symmetry_Int_Tables_number   1
_chemical_formula_structural   BaSm2FeS5
_chemical_formula_sum   'Ba2 Sm4 Fe2 S10'
_cell_volume   412.41768699
_cell_formula_units_Z   2
loop_
 _symmetry_equiv_pos_site_id
 _symmetry_equiv_pos_as_xyz
  1  'x, y, z'
loop_
 _atom_site_type_symbol
 _atom_site_label
 _atom_site_symmetry_multiplicity
 _atom_site_fract_x
 _atom_site_fract_y
 _atom_site_fract_z
 _atom_site_occupancy
  Ba  Ba0  1  0.25000000  0.25000000  0.00000000  1
  Ba  Ba1  1  0.75000000  0.75000000  0.00000000  1
  Sm  Sm0  1  0.33813000  0.16187000  0.50000000  1
  Sm  Sm1  1  0.16187000  0.66187000  0.82374000  1
  Sm  Sm2  1  0.83813000  0.33813000  0.17626000  1
  Sm  Sm3  1  0.66187000  0.83813000  0.50000000  1
  Fe  Fe0  1  0.75000000  0.25000000  0.50000000  1
  Fe  Fe1  1  0.25000000  0.75000000  0.50000000  1
  S  S0  1  0.48624000  0.98624000  0.20473500  1
  S  S1  1  0.21849500  0.71849500  0.20473500  1
  S  S2  1  0.51376000  0.01376000  0.79526500  1
  S  S3  1  0.01376000  0.21849500  0.50000000  1
  S  S4  1  0.71849500  0.51376000  0.50000000  1
  S  S5  1  0.98624000  0.78150500  0.50000000  1
  S  S6  1  0.28150500  0.48624000  0.50000000  1
  S  S7  1  0.78150500  0.28150500  0.79526500  1
  S  S8  1  0.50000000  0.50000000  0.00000000  1
  S  S9  1  0.00000000  0.00000000  0.00000000  1
loop_
_geom_bond_atom_site_label_1
_geom_bond_atom_site_label_2
_geom_bond_distance
_geom_bond_site_symmetry_2
Ba0 S8 3.371421 1_555
Ba0 S9 3.371421 1_555
Ba0 S0 3.373410 1_545
Ba0 S5 3.373410 1_444
Ba0 S6 3.373410 1_555
Ba0 S7 3.373410 1_454
Ba0 S4 3.373410 1_555
Ba0 S1 3.373410 1_555
Ba0 S2 3.373410 1_554
Ba0 S3 3.373410 1_554
Ba1 S8 3.371421 1_555
Ba1 S9 3.371421 1_665
Ba1 S1 3.373410 1_655
Ba1 S3 3.373410 1_665
Ba1 S5 3.373410 1_555
Ba1 S6 3.373410 1_554
Ba1 S7 3.373410 1_554
Ba1 S4 3.373410 1_554
Ba1 S2 3.373410 1_564
Ba1 S0 3.373410 1_555
Fe0 S0 2.262457 1_545
Fe0 S3 2.262457 1_655
Fe0 S4 2.262457 1_555
Fe0 S7 2.262457 1_555
Fe1 S5 2.262457 1_455
Fe1 S6 2.262457 1_555
Fe1 S2 2.262457 1_565
Fe1 S1 2.262457 1_555
S0 Sm1 2.774620 1_554
S0 Sm0 3.021708 1_565
S0 Sm3 3.021708 1_555
S1 Sm1 2.774620 1_554
S1 Sm3 3.021708 1_555
S1 Sm0 3.021708 1_565
S2 Sm2 2.774620 1_556
S2 Sm0 3.021708 1_555
S2 Sm3 3.021708 1_545
S3 Sm0 2.774620 1_555
S3 Sm2 3.021708 1_455
S3 Sm1 3.021708 1_555
S4 Sm3 2.774620 1_555
S4 Sm1 3.021708 1_655
S4 Sm2 3.021708 1_555
S5 Sm3 2.774620 1_555
S5 Sm1 3.021708 1_655
S5 Sm2 3.021708 1_555
S6 Sm0 2.774620 1_555
S6 Sm2 3.021708 1_455
S6 Sm1 3.021708 1_555
S7 Sm2 2.774620 1_556
S7 Sm0 3.021708 1_555
S7 Sm3 3.021708 1_545
S8 Sm3 2.931822 1_555
S8 Sm1 2.931822 1_554
S8 Sm2 2.931822 1_555
S8 Sm0 2.931822 1_554
S9 Sm1 2.931822 1_544
S9 Sm3 2.931822 1_444
S9 Sm2 2.931822 1_455
S9 Sm0 2.931822 1_555
