# generated using pymatgen
data_Cs9Fe2S7
_symmetry_space_group_name_H-M   'P 1'
_cell_length_a   13.88308900
_cell_length_b   13.88308900
_cell_length_c   13.88308900
_cell_angle_alpha   90.00000000
_cell_angle_beta   90.00000000
_cell_angle_gamma   90.00000000
_symmetry_Int_Tables_number   1
_chemical_formula_structural   Cs9Fe2S7
_chemical_formula_sum   'Cs36 Fe8 S28'
_cell_volume   2675.82879768
_cell_formula_units_Z   4
loop_
 _symmetry_equiv_pos_site_id
 _symmetry_equiv_pos_as_xyz
  1  'x, y, z'
loop_
 _atom_site_type_symbol
 _atom_site_label
 _atom_site_symmetry_multiplicity
 _atom_site_fract_x
 _atom_site_fract_y
 _atom_site_fract_z
 _atom_site_occupancy
  Cs  Cs0  1  0.20236700  0.16709900  0.50301600  1
  Cs  Cs1  1  0.49698400  0.70236700  0.33290100  1
  Cs  Cs2  1  0.66709900  0.99698400  0.79763300  1
  Cs  Cs3  1  0.70236700  0.33290100  0.49698400  1
  Cs  Cs4  1  0.99698400  0.79763300  0.66709900  1
  Cs  Cs5  1  0.16709900  0.50301600  0.20236700  1
  Cs  Cs6  1  0.79763300  0.66709900  0.99698400  1
  Cs  Cs7  1  0.50301600  0.20236700  0.16709900  1
  Cs  Cs8  1  0.33290100  0.49698400  0.70236700  1
  Cs  Cs9  1  0.29763300  0.83290100  0.00301600  1
  Cs  Cs10  1  0.00301600  0.29763300  0.83290100  1
  Cs  Cs11  1  0.83290100  0.00301600  0.29763300  1
  Cs  Cs12  1  0.70785300  0.82386800  0.54234900  1
  Cs  Cs13  1  0.45765100  0.20785300  0.67613200  1
  Cs  Cs14  1  0.32386800  0.95765100  0.29214700  1
  Cs  Cs15  1  0.20785300  0.67613200  0.45765100  1
  Cs  Cs16  1  0.95765100  0.29214700  0.32386800  1
  Cs  Cs17  1  0.82386800  0.54234900  0.70785300  1
  Cs  Cs18  1  0.29214700  0.32386800  0.95765100  1
  Cs  Cs19  1  0.54234900  0.70785300  0.82386800  1
  Cs  Cs20  1  0.67613200  0.45765100  0.20785300  1
  Cs  Cs21  1  0.79214700  0.17613200  0.04234900  1
  Cs  Cs22  1  0.04234900  0.79214700  0.17613200  1
  Cs  Cs23  1  0.17613200  0.04234900  0.79214700  1
  Cs  Cs24  1  0.08460500  0.58460500  0.91539500  1
  Cs  Cs25  1  0.58460500  0.91539500  0.08460500  1
  Cs  Cs26  1  0.91539500  0.08460500  0.58460500  1
  Cs  Cs27  1  0.41539500  0.41539500  0.41539500  1
  Cs  Cs28  1  0.26273400  0.76273400  0.73726600  1
  Cs  Cs29  1  0.76273400  0.73726600  0.26273400  1
  Cs  Cs30  1  0.73726600  0.26273400  0.76273400  1
  Cs  Cs31  1  0.23726600  0.23726600  0.23726600  1
  Cs  Cs32  1  0.44072800  0.94072800  0.55927200  1
  Cs  Cs33  1  0.94072800  0.55927200  0.44072800  1
  Cs  Cs34  1  0.55927200  0.44072800  0.94072800  1
  Cs  Cs35  1  0.05927200  0.05927200  0.05927200  1
  Fe  Fe0  1  0.92931200  0.42931200  0.07068800  1
  Fe  Fe1  1  0.42931200  0.07068800  0.92931200  1
  Fe  Fe2  1  0.07068800  0.92931200  0.42931200  1
  Fe  Fe3  1  0.57068800  0.57068800  0.57068800  1
  Fe  Fe4  1  0.59978100  0.09978100  0.40021900  1
  Fe  Fe5  1  0.09978100  0.40021900  0.59978100  1
  Fe  Fe6  1  0.40021900  0.59978100  0.09978100  1
  Fe  Fe7  1  0.90021900  0.90021900  0.90021900  1
  S  S0  1  0.66064700  0.08841400  0.55555900  1
  S  S1  1  0.44444100  0.16064700  0.41158600  1
  S  S2  1  0.58841400  0.94444100  0.33935300  1
  S  S3  1  0.16064700  0.41158600  0.44444100  1
  S  S4  1  0.94444100  0.33935300  0.58841400  1
  S  S5  1  0.08841400  0.55555900  0.66064700  1
  S  S6  1  0.33935300  0.58841400  0.94444100  1
  S  S7  1  0.55555900  0.66064700  0.08841400  1
  S  S8  1  0.41158600  0.44444100  0.16064700  1
  S  S9  1  0.83935300  0.91158600  0.05555900  1
  S  S10  1  0.05555900  0.83935300  0.91158600  1
  S  S11  1  0.91158600  0.05555900  0.83935300  1
  S  S12  1  0.17970900  0.92294200  0.54965500  1
  S  S13  1  0.45034500  0.67970900  0.57705800  1
  S  S14  1  0.42294200  0.95034500  0.82029100  1
  S  S15  1  0.67970900  0.57705800  0.45034500  1
  S  S16  1  0.95034500  0.82029100  0.42294200  1
  S  S17  1  0.92294200  0.54965500  0.17970900  1
  S  S18  1  0.82029100  0.42294200  0.95034500  1
  S  S19  1  0.54965500  0.17970900  0.92294200  1
  S  S20  1  0.57705800  0.45034500  0.67970900  1
  S  S21  1  0.32029100  0.07705800  0.04965500  1
  S  S22  1  0.04965500  0.32029100  0.07705800  1
  S  S23  1  0.07705800  0.04965500  0.32029100  1
  S  S24  1  0.69826700  0.19826700  0.30173300  1
  S  S25  1  0.19826700  0.30173300  0.69826700  1
  S  S26  1  0.30173300  0.69826700  0.19826700  1
  S  S27  1  0.80173300  0.80173300  0.80173300  1
loop_
_geom_bond_atom_site_label_1
_geom_bond_atom_site_label_2
_geom_bond_distance
_geom_bond_site_symmetry_2
Cs0 S25 3.293134 1_555
Cs0 S12 3.465249 1_545
Cs0 S23 3.481414 1_555
Cs0 S3 3.538022 1_555
Cs0 S1 3.593572 1_555
Cs1 S26 3.293134 1_555
Cs1 S13 3.465249 1_555
Cs1 S15 3.481414 1_555
Cs1 S7 3.538022 1_555
Cs1 S2 3.593572 1_555
Cs2 S27 3.293134 1_555
Cs2 S14 3.465249 1_555
Cs2 S19 3.481414 1_565
Cs2 S11 3.538022 1_565
Cs2 S0 3.593572 1_565
Cs3 S24 3.293134 1_555
Cs3 S15 3.465249 1_555
Cs3 S20 3.481414 1_555
Cs3 S0 3.538022 1_555
Cs3 S4 3.593572 1_555
Cs4 S27 3.293134 1_555
Cs4 S16 3.465249 1_555
Cs4 S12 3.481414 1_655
Cs4 S10 3.538022 1_655
Cs4 S5 3.593572 1_655
Cs5 S26 3.293134 1_555
Cs5 S17 3.465249 1_455
Cs5 S22 3.481414 1_555
Cs5 S8 3.538022 1_555
Cs5 S3 3.593572 1_555
Cs6 S27 3.293134 1_555
Cs6 S18 3.465249 1_555
Cs6 S17 3.481414 1_556
Cs6 S9 3.538022 1_556
Cs6 S7 3.593572 1_556
Cs7 S24 3.293134 1_555
Cs7 S19 3.465249 1_554
Cs7 S21 3.481414 1_555
Cs7 S1 3.538022 1_555
Cs7 S8 3.593572 1_555
Cs8 S25 3.293134 1_555
Cs8 S20 3.465249 1_555
Cs8 S13 3.481414 1_555
Cs8 S5 3.538022 1_555
Cs8 S6 3.593572 1_555
Cs9 S26 3.293134 1_555
Cs9 S21 3.465249 1_565
Cs9 S14 3.481414 1_554
Cs9 S6 3.538022 1_554
Cs9 S10 3.593572 1_554
Cs10 S25 3.293134 1_555
Cs10 S22 3.465249 1_556
Cs10 S18 3.481414 1_455
Cs10 S4 3.538022 1_455
Cs10 S11 3.593572 1_455
Cs11 S24 3.293134 1_555
Cs11 S23 3.465249 1_655
Cs11 S16 3.481414 1_545
Cs11 S2 3.538022 1_545
Cs11 S9 3.593572 1_545
Cs12 S2 3.673406 1_555
Cs12 S15 3.677630 1_555
Cs12 S0 3.735235 1_565
Cs12 S16 3.752884 1_555
Cs12 S27 3.841967 1_555
Cs13 S0 3.673406 1_555
Cs13 S19 3.677630 1_555
Cs13 S1 3.735235 1_555
Cs13 S20 3.752884 1_555
Cs13 S25 3.841967 1_555
Cs14 S1 3.673406 1_565
Cs14 S23 3.677630 1_565
Cs14 S2 3.735235 1_555
Cs14 S21 3.752884 1_565
Cs14 S26 3.841967 1_555
Cs15 S5 3.673406 1_555
Cs15 S12 3.677630 1_555
Cs15 S3 3.735235 1_555
Cs15 S13 3.752884 1_555
Cs15 S26 3.841967 1_555
Cs16 S3 3.673406 1_655
Cs16 S22 3.677630 1_655
Cs16 S4 3.735235 1_555
Cs16 S23 3.752884 1_655
Cs16 S24 3.841967 1_555
Cs17 S4 3.673406 1_555
Cs17 S20 3.677630 1_555
Cs17 S5 3.735235 1_655
Cs17 S18 3.752884 1_555
Cs17 S27 3.841967 1_555
Cs18 S8 3.673406 1_556
Cs18 S21 3.677630 1_556
Cs18 S6 3.735235 1_555
Cs18 S22 3.752884 1_556
Cs18 S25 3.841967 1_555
Cs19 S6 3.673406 1_555
Cs19 S13 3.677630 1_555
Cs19 S7 3.735235 1_556
Cs19 S14 3.752884 1_555
Cs19 S27 3.841967 1_555
Cs20 S7 3.673406 1_555
Cs20 S17 3.677630 1_555
Cs20 S8 3.735235 1_555
Cs20 S15 3.752884 1_555
Cs20 S24 3.841967 1_555
Cs21 S11 3.673406 1_554
Cs21 S18 3.677630 1_554
Cs21 S9 3.735235 1_545
Cs21 S19 3.752884 1_554
Cs21 S24 3.841967 1_555
Cs22 S9 3.673406 1_455
Cs22 S16 3.677630 1_455
Cs22 S10 3.735235 1_554
Cs22 S17 3.752884 1_455
Cs22 S26 3.841967 1_555
Cs23 S10 3.673406 1_545
Cs23 S14 3.677630 1_545
Cs23 S11 3.735235 1_455
Cs23 S12 3.752884 1_545
Cs23 S25 3.841967 1_555
Cs24 S6 3.559997 1_555
Cs24 S5 3.559997 1_555
Cs24 S10 3.559997 1_555
Cs24 Fe0 3.734209 1_456
Cs25 S2 3.559997 1_555
Cs25 S7 3.559997 1_555
Cs25 S9 3.559997 1_555
Cs25 Fe1 3.734209 1_564
Cs26 S4 3.559997 1_555
Cs26 S0 3.559997 1_555
Cs26 S11 3.559997 1_555
Cs26 Fe2 3.734209 1_645
Cs27 S8 3.559997 1_555
Cs27 S3 3.559997 1_555
Cs27 S1 3.559997 1_555
Cs27 Fe3 3.734209 1_555
Cs28 S12 3.613809 1_555
Cs28 S13 3.613809 1_555
Cs28 S14 3.613809 1_555
Cs28 S5 3.906540 1_555
Cs28 S6 3.906540 1_555
Cs28 S10 3.906540 1_555
Cs29 S17 3.613809 1_555
Cs29 S15 3.613809 1_555
Cs29 S16 3.613809 1_555
Cs29 S7 3.906540 1_555
Cs29 S2 3.906540 1_555
Cs29 S9 3.906540 1_555
Cs30 S19 3.613809 1_555
Cs30 S20 3.613809 1_555
Cs30 S18 3.613809 1_555
Cs30 S0 3.906540 1_555
Cs30 S4 3.906540 1_555
Cs30 S11 3.906540 1_555
Cs31 S22 3.613809 1_555
Cs31 S23 3.613809 1_555
Cs31 S21 3.613809 1_555
Cs31 S1 3.906540 1_555
Cs31 S8 3.906540 1_555
Cs31 S3 3.906540 1_555
Cs32 S14 3.634606 1_555
Cs32 S13 3.634606 1_555
Cs32 S12 3.634606 1_555
Cs32 S1 3.678084 1_565
Cs32 S0 3.678084 1_565
Cs32 S2 3.678084 1_555
Cs33 S16 3.634606 1_555
Cs33 S15 3.634606 1_555
Cs33 S17 3.634606 1_555
Cs33 S3 3.678084 1_655
Cs33 S5 3.678084 1_655
Cs33 S4 3.678084 1_555
Cs34 S18 3.634606 1_555
Cs34 S20 3.634606 1_555
Cs34 S19 3.634606 1_555
Cs34 S8 3.678084 1_556
Cs34 S7 3.678084 1_556
Cs34 S6 3.678084 1_555
Cs35 S23 3.634606 1_555
Cs35 S21 3.634606 1_555
Cs35 S22 3.634606 1_555
Cs35 S9 3.678084 1_445
Cs35 S11 3.678084 1_454
Cs35 S10 3.678084 1_544
Fe0 S18 2.256102 1_554
Fe0 S17 2.256102 1_555
Fe0 S22 2.256102 1_655
Fe1 S14 2.256102 1_545
Fe1 S21 2.256102 1_556
Fe1 S19 2.256102 1_555
Fe2 S16 2.256102 1_455
Fe2 S23 2.256102 1_565
Fe2 S12 2.256102 1_555
Fe3 S13 2.256102 1_555
Fe3 S20 2.256102 1_555
Fe3 S15 2.256102 1_555
Fe4 S1 2.321608 1_555
Fe4 S0 2.321608 1_555
Fe4 S2 2.321608 1_545
Fe4 S24 2.368216 1_555
Fe5 S3 2.321608 1_555
Fe5 S5 2.321608 1_555
Fe5 S4 2.321608 1_455
Fe5 S25 2.368216 1_555
Fe6 S8 2.321608 1_555
Fe6 S7 2.321608 1_555
Fe6 S6 2.321608 1_554
Fe6 S26 2.368216 1_555
Fe7 S11 2.321608 1_565
Fe7 S10 2.321608 1_655
Fe7 S9 2.321608 1_556
Fe7 S27 2.368216 1_555
