# generated using pymatgen
data_Dy4Ga12Fe
_symmetry_space_group_name_H-M   'P 1'
_cell_length_a   7.38187739
_cell_length_b   7.38187501
_cell_length_c   7.38186848
_cell_angle_alpha   109.47129554
_cell_angle_beta   109.47120108
_cell_angle_gamma   109.47126626
_symmetry_Int_Tables_number   1
_chemical_formula_structural   Dy4Ga12Fe
_chemical_formula_sum   'Dy4 Ga12 Fe1'
_cell_volume   309.65449321
_cell_formula_units_Z   1
loop_
 _symmetry_equiv_pos_site_id
 _symmetry_equiv_pos_as_xyz
  1  'x, y, z'
loop_
 _atom_site_type_symbol
 _atom_site_label
 _atom_site_symmetry_multiplicity
 _atom_site_fract_x
 _atom_site_fract_y
 _atom_site_fract_z
 _atom_site_occupancy
  Dy  Dy0  1  0.00000000  0.00000000  0.50000000  1
  Dy  Dy1  1  0.00000000  0.50000000  0.00000000  1
  Dy  Dy2  1  0.50000000  0.00000000  0.00000000  1
  Dy  Dy3  1  0.50000000  0.50000000  0.50000000  1
  Ga  Ga0  1  0.75000000  0.25000000  0.50000000  1
  Ga  Ga1  1  0.75000000  0.50000000  0.25000000  1
  Ga  Ga2  1  0.50000000  0.25000000  0.75000000  1
  Ga  Ga3  1  0.25000000  0.50000000  0.75000000  1
  Ga  Ga4  1  0.25000000  0.75000000  0.50000000  1
  Ga  Ga5  1  0.50000000  0.75000000  0.25000000  1
  Ga  Ga6  1  0.71061702  0.71061702  0.00000000  1
  Ga  Ga7  1  0.28938298  -0.00000000  0.28938298  1
  Ga  Ga8  1  -0.00000000  0.28938298  0.28938298  1
  Ga  Ga9  1  0.28938298  0.28938298  -0.00000000  1
  Ga  Ga10  1  0.71061702  0.00000000  0.71061702  1
  Ga  Ga11  1  0.00000000  0.71061702  0.71061702  1
  Fe  Fe0  1  0.00000000  0.00000000  0.00000000  1
loop_
_geom_bond_atom_site_label_1
_geom_bond_atom_site_label_2
_geom_bond_distance
_geom_bond_site_symmetry_2
Dy0 Ga1 3.013634 1_445
Dy0 Ga3 3.013634 1_555
Dy0 Ga2 3.013636 1_555
Dy0 Ga5 3.013636 1_445
Dy0 Ga0 3.013639 1_455
Dy0 Ga4 3.013639 1_545
Dy0 Ga6 3.032271 1_445
Dy0 Ga9 3.032271 1_556
Dy0 Ga10 3.032276 1_455
Dy0 Ga7 3.032276 1_555
Dy0 Ga8 3.032277 1_555
Dy0 Ga11 3.032277 1_545
Dy1 Ga4 3.013632 1_555
Dy1 Ga0 3.013632 1_454
Dy1 Ga2 3.013636 1_454
Dy1 Ga5 3.013636 1_555
Dy1 Ga3 3.013637 1_554
Dy1 Ga1 3.013637 1_455
Dy1 Ga10 3.032272 1_454
Dy1 Ga7 3.032272 1_565
Dy1 Ga8 3.032277 1_555
Dy1 Ga11 3.032277 1_554
Dy1 Ga9 3.032278 1_555
Dy1 Ga6 3.032278 1_455
Dy2 Ga0 3.013632 1_555
Dy2 Ga4 3.013632 1_544
Dy2 Ga1 3.013634 1_555
Dy2 Ga3 3.013634 1_544
Dy2 Ga5 3.013638 1_545
Dy2 Ga2 3.013638 1_554
Dy2 Ga11 3.032275 1_544
Dy2 Ga8 3.032275 1_655
Dy2 Ga10 3.032275 1_554
Dy2 Ga7 3.032275 1_555
Dy2 Ga6 3.032278 1_545
Dy2 Ga9 3.032278 1_555
Dy3 Ga3 3.013637 1_555
Dy3 Ga1 3.013637 1_555
Dy3 Ga2 3.013638 1_555
Dy3 Ga5 3.013638 1_555
Dy3 Ga0 3.013639 1_555
Dy3 Ga4 3.013639 1_555
Dy3 Ga6 3.032272 1_556
Dy3 Ga9 3.032272 1_555
Dy3 Ga7 3.032274 1_555
Dy3 Ga10 3.032274 1_565
Dy3 Ga11 3.032276 1_655
Dy3 Ga8 3.032276 1_555
Ga0 Ga11 2.786391 1_655
Ga0 Ga7 2.786394 1_555
Ga0 Ga8 2.786394 1_655
Ga0 Ga10 2.786395 1_555
Ga0 Ga5 3.013634 1_545
Ga0 Ga3 3.013636 1_655
Ga0 Ga2 3.013637 1_555
Ga0 Ga1 3.013638 1_555
Ga1 Ga11 2.786390 1_655
Ga1 Ga9 2.786394 1_555
Ga1 Ga6 2.786395 1_555
Ga1 Ga8 2.786397 1_655
Ga1 Ga2 3.013632 1_554
Ga1 Ga4 3.013636 1_655
Ga1 Ga5 3.013639 1_555
Ga2 Ga7 2.786390 1_555
Ga2 Ga6 2.786391 1_556
Ga2 Ga9 2.786394 1_556
Ga2 Ga4 3.013634 1_545
Ga2 Ga3 3.013639 1_555
Ga3 Ga8 2.786390 1_555
Ga3 Ga6 2.786394 1_556
Ga3 Ga9 2.786395 1_556
Ga3 Ga5 3.013632 1_556
Ga3 Ga4 3.013638 1_555
Ga4 Ga8 2.786391 1_555
Ga4 Ga7 2.786395 1_565
Ga4 Ga5 3.013637 1_555
Ga5 Ga9 2.786391 1_555
Ga5 Ga6 2.786394 1_555
Ga5 Ga7 2.786396 1_565
Ga10 Ga5 2.786390 1_545
Ga10 Ga4 2.786394 1_545
Ga10 Ga2 2.786396 1_555
Ga11 Ga4 2.786394 1_555
Ga11 Ga3 2.786397 1_555
Fe0 Ga11 2.466655 1_544
Fe0 Ga8 2.466655 1_555
Fe0 Ga6 2.466658 1_445
Fe0 Ga9 2.466658 1_555
Fe0 Ga10 2.466658 1_454
Fe0 Ga7 2.466658 1_555
