# generated using pymatgen
data_ZrFeRe
_symmetry_space_group_name_H-M   'P 1'
_cell_length_a   5.08219200
_cell_length_b   5.07993570
_cell_length_c   8.44633400
_cell_angle_alpha   90.00000000
_cell_angle_beta   90.00000000
_cell_angle_gamma   61.28931985
_symmetry_Int_Tables_number   1
_chemical_formula_structural   ZrFeRe
_chemical_formula_sum   'Zr4 Fe4 Re4'
_cell_volume   191.25164160
_cell_formula_units_Z   4
loop_
 _symmetry_equiv_pos_site_id
 _symmetry_equiv_pos_as_xyz
  1  'x, y, z'
loop_
 _atom_site_type_symbol
 _atom_site_label
 _atom_site_symmetry_multiplicity
 _atom_site_fract_x
 _atom_site_fract_y
 _atom_site_fract_z
 _atom_site_occupancy
  Zr  Zr0  1  0.33257200  0.33257700  0.56945600  1
  Zr  Zr1  1  0.66459000  0.66452900  0.44387800  1
  Zr  Zr2  1  0.66459000  0.66452900  0.05612200  1
  Zr  Zr3  1  0.33257200  0.33257700  0.93054400  1
  Fe  Fe0  1  0.99594400  0.99600800  0.51184400  1
  Fe  Fe1  1  0.99594400  0.99600800  0.98815600  1
  Fe  Fe2  1  0.83525400  0.34415600  0.75000000  1
  Fe  Fe3  1  0.34415700  0.83527000  0.75000000  1
  Re  Re0  1  0.83493900  0.83492600  0.75000000  1
  Re  Re1  1  0.16660900  0.66523600  0.25000000  1
  Re  Re2  1  0.66519100  0.16660200  0.25000000  1
  Re  Re3  1  0.16763700  0.16758200  0.25000000  1
loop_
_geom_bond_atom_site_label_1
_geom_bond_atom_site_label_2
_geom_bond_distance
_geom_bond_site_symmetry_2
Zr0 Zr3 3.049870 1_555
Zr0 Zr1 3.090254 1_555
Zr0 Zr1 3.160275 1_545
Zr0 Zr1 3.161214 1_455
Zr2 Zr3 3.090254 1_554
Zr2 Zr3 3.160275 1_564
Zr2 Zr3 3.161214 1_654
Fe0 Re0 2.455353 1_555
Fe0 Fe2 2.540358 1_565
Fe0 Fe3 2.540965 1_655
Fe0 Re1 2.658334 1_655
Fe0 Re2 2.658626 1_565
Fe0 Re3 2.672642 1_665
Fe0 Zr1 2.953872 1_555
Fe0 Zr0 2.982819 1_665
Fe0 Zr0 2.997038 1_655
Fe0 Zr0 2.998024 1_565
Fe0 Zr1 3.033795 1_565
Fe0 Zr1 3.035621 1_655
Fe1 Re0 2.455353 1_555
Fe1 Fe2 2.540358 1_565
Fe1 Fe3 2.540965 1_655
Fe1 Re1 2.658334 1_656
Fe1 Re2 2.658626 1_566
Fe1 Re3 2.672642 1_666
Fe1 Zr2 2.953872 1_556
Fe1 Zr3 2.982819 1_665
Fe1 Zr3 2.997038 1_655
Fe1 Zr3 2.998024 1_565
Fe1 Zr2 3.033795 1_566
Fe1 Zr2 3.035621 1_656
Fe2 Re0 2.492311 1_555
Fe2 Fe3 2.543809 1_555
Fe2 Re0 2.587625 1_545
Fe2 Fe3 2.635952 1_645
Fe2 Zr3 2.928162 1_655
Fe2 Zr0 2.928162 1_655
Fe2 Zr2 2.954678 1_556
Fe2 Zr1 2.954678 1_555
Fe2 Zr3 2.999982 1_555
Fe2 Zr0 2.999982 1_555
Fe3 Re0 2.493409 1_555
Fe3 Re0 2.588784 1_455
Fe3 Zr3 2.927134 1_565
Fe3 Zr0 2.927134 1_565
Fe3 Zr1 2.955099 1_555
Fe3 Zr2 2.955099 1_556
Fe3 Zr3 2.999077 1_555
Fe3 Zr0 2.999077 1_555
Re0 Zr1 2.983984 1_555
Re0 Zr2 2.983984 1_556
Re0 Zr3 3.005501 1_655
Re0 Zr0 3.005501 1_655
Re0 Zr3 3.005599 1_565
Re0 Zr0 3.005599 1_565
Re1 Re3 2.525545 1_555
Re1 Re3 2.554399 1_565
Re1 Re2 2.582670 1_555
Re1 Re2 2.597091 1_465
Re1 Zr1 3.012973 1_555
Re1 Zr2 3.012973 1_555
Re1 Zr1 3.033123 1_455
Re1 Zr2 3.033123 1_455
Re1 Zr0 3.078661 1_555
Re1 Zr3 3.078661 1_554
Re2 Re3 2.526277 1_555
Re2 Re3 2.555922 1_655
Re2 Zr2 3.012015 1_555
Re2 Zr1 3.012015 1_555
Re2 Zr2 3.032183 1_545
Re2 Zr1 3.032183 1_545
Re2 Zr0 3.078887 1_555
Re2 Zr3 3.078887 1_554
Re3 Zr0 3.059514 1_555
Re3 Zr3 3.059514 1_554
Re3 Zr1 3.064274 1_455
Re3 Zr2 3.064274 1_455
Re3 Zr2 3.064278 1_545
Re3 Zr1 3.064278 1_545
