# generated using pymatgen
data_Be3Co
_symmetry_space_group_name_H-M   'P 1'
_cell_length_a   4.12165052
_cell_length_b   4.12165052
_cell_length_c   4.12165052
_cell_angle_alpha   135.93353862
_cell_angle_beta   135.93353862
_cell_angle_gamma   64.08310229
_symmetry_Int_Tables_number   1
_chemical_formula_structural   Be3Co
_chemical_formula_sum   'Be3 Co1'
_cell_volume   33.41132289
_cell_formula_units_Z   1
loop_
 _symmetry_equiv_pos_site_id
 _symmetry_equiv_pos_as_xyz
  1  'x, y, z'
loop_
 _atom_site_type_symbol
 _atom_site_label
 _atom_site_symmetry_multiplicity
 _atom_site_fract_x
 _atom_site_fract_y
 _atom_site_fract_z
 _atom_site_occupancy
  Be  Be0  1  0.75000000  0.25000000  0.50000000  1
  Be  Be1  1  0.25000000  0.75000000  0.50000000  1
  Be  Be2  1  0.50000000  0.50000000  0.00000000  1
  Co  Co0  1  0.00000000  -0.00000000  0.00000000  1
loop_
_geom_bond_atom_site_label_1
_geom_bond_atom_site_label_2
_geom_bond_distance
_geom_bond_site_symmetry_2
Be0 Be1 2.186676 1_544
Be0 Be1 2.186676 1_555
Be0 Be1 2.186676 1_645
Be0 Be1 2.186676 1_656
Be0 Co0 2.332893 1_655
Be0 Co0 2.332893 1_656
Be0 Co0 2.332893 1_666
Be0 Be2 2.332893 1_555
Be0 Be2 2.332893 1_556
Be0 Be2 2.332893 1_656
Be0 Be2 2.332893 1_545
Be0 Co0 2.332893 1_555
Be1 Co0 2.332893 1_565
Be1 Be2 2.332893 1_455
Be1 Be2 2.332893 1_566
Be1 Co0 2.332893 1_666
Be1 Be2 2.332893 1_555
Be1 Be2 2.332893 1_556
Be1 Co0 2.332893 1_555
Be1 Co0 2.332893 1_566
Be2 Co0 2.186676 1_554
Be2 Co0 2.186676 1_655
Be2 Co0 2.186676 1_565
Be2 Co0 2.186676 1_666
