# generated using pymatgen
data_Ba(ErTe2)2
_symmetry_space_group_name_H-M   'P 1'
_cell_length_a   4.45249658
_cell_length_b   13.74366562
_cell_length_c   16.17270159
_cell_angle_alpha   90.00000000
_cell_angle_beta   90.00000000
_cell_angle_gamma   90.00000000
_symmetry_Int_Tables_number   1
_chemical_formula_structural   Ba(ErTe2)2
_chemical_formula_sum   'Ba4 Er8 Te16'
_cell_volume   989.66622291
_cell_formula_units_Z   4
loop_
 _symmetry_equiv_pos_site_id
 _symmetry_equiv_pos_as_xyz
  1  'x, y, z'
loop_
 _atom_site_type_symbol
 _atom_site_label
 _atom_site_symmetry_multiplicity
 _atom_site_fract_x
 _atom_site_fract_y
 _atom_site_fract_z
 _atom_site_occupancy
  Ba  Ba0  1  0.75000000  0.26141360  0.83033269  1
  Ba  Ba1  1  0.25000000  0.73858640  0.16966731  1
  Ba  Ba2  1  0.75000000  0.76141360  0.66966731  1
  Ba  Ba3  1  0.25000000  0.23858640  0.33033269  1
  Er  Er0  1  0.25000000  0.08094268  0.59677465  1
  Er  Er1  1  0.75000000  0.91905732  0.40322535  1
  Er  Er2  1  0.25000000  0.58094268  0.90322535  1
  Er  Er3  1  0.75000000  0.41905732  0.09677465  1
  Er  Er4  1  0.75000000  0.94145737  0.89003001  1
  Er  Er5  1  0.25000000  0.05854263  0.10996999  1
  Er  Er6  1  0.75000000  0.44145737  0.60996999  1
  Er  Er7  1  0.25000000  0.55854263  0.39003001  1
  Te  Te0  1  0.25000000  0.47246339  0.21570557  1
  Te  Te1  1  0.75000000  0.52753661  0.78429443  1
  Te  Te2  1  0.25000000  0.97246339  0.28429443  1
  Te  Te3  1  0.75000000  0.02753661  0.71570557  1
  Te  Te4  1  0.25000000  0.37466818  0.97202046  1
  Te  Te5  1  0.75000000  0.62533182  0.02797954  1
  Te  Te6  1  0.25000000  0.87466818  0.52797954  1
  Te  Te7  1  0.75000000  0.12533182  0.47202046  1
  Te  Te8  1  0.25000000  0.29576696  0.65831260  1
  Te  Te9  1  0.75000000  0.70423304  0.34168740  1
  Te  Te10  1  0.25000000  0.79576696  0.84168740  1
  Te  Te11  1  0.75000000  0.20423304  0.15831260  1
  Te  Te12  1  0.75000000  0.41069525  0.42466371  1
  Te  Te13  1  0.25000000  0.58930475  0.57533629  1
  Te  Te14  1  0.75000000  0.91069525  0.07533629  1
  Te  Te15  1  0.25000000  0.08930475  0.92466371  1
loop_
_geom_bond_atom_site_label_1
_geom_bond_atom_site_label_2
_geom_bond_distance
_geom_bond_site_symmetry_2
Ba0 Te4 3.553847 1_555
Ba0 Te4 3.553847 1_655
Ba0 Te15 3.588697 1_555
Ba0 Te15 3.588697 1_655
Ba0 Te8 3.594271 1_655
Ba0 Te8 3.594271 1_555
Ba0 Te3 3.710604 1_555
Ba0 Te1 3.732522 1_555
Ba1 Te5 3.553847 1_455
Ba1 Te5 3.553847 1_555
Ba1 Te14 3.588697 1_455
Ba1 Te14 3.588697 1_555
Ba1 Te9 3.594271 1_555
Ba1 Te9 3.594271 1_455
Ba1 Te2 3.710604 1_555
Ba1 Te0 3.732522 1_555
Ba2 Te6 3.553847 1_655
Ba2 Te6 3.553847 1_555
Ba2 Te13 3.588697 1_555
Ba2 Te13 3.588697 1_655
Ba2 Te10 3.594271 1_555
Ba2 Te10 3.594271 1_655
Ba2 Te1 3.710604 1_555
Ba2 Te3 3.732522 1_565
Ba3 Te7 3.553847 1_555
Ba3 Te7 3.553847 1_455
Ba3 Te12 3.588697 1_455
Ba3 Te12 3.588697 1_555
Ba3 Te11 3.594271 1_455
Ba3 Te11 3.594271 1_555
Ba3 Te0 3.710604 1_555
Ba3 Te2 3.732522 1_545
Er0 Te3 3.032248 1_455
Er0 Te3 3.032248 1_555
Er0 Te6 3.045477 1_545
Er0 Te7 3.065799 1_555
Er0 Te7 3.065799 1_455
Er0 Te8 3.115701 1_555
Er1 Te2 3.032248 1_655
Er1 Te2 3.032248 1_555
Er1 Te7 3.045477 1_565
Er1 Te6 3.065799 1_555
Er1 Te6 3.065799 1_655
Er1 Te9 3.115701 1_555
Er2 Te1 3.032248 1_455
Er2 Te1 3.032248 1_555
Er2 Te4 3.045477 1_555
Er2 Te5 3.065799 1_456
Er2 Te5 3.065799 1_556
Er2 Te10 3.115701 1_555
Er3 Te0 3.032248 1_555
Er3 Te0 3.032248 1_655
Er3 Te5 3.045477 1_555
Er3 Te4 3.065799 1_654
Er3 Te4 3.065799 1_554
Er3 Te11 3.115701 1_555
Er4 Te14 3.026578 1_556
Er4 Te3 3.057455 1_565
Er4 Te15 3.065746 1_665
Er4 Te15 3.065746 1_565
Er4 Te10 3.094629 1_555
Er4 Te10 3.094629 1_655
Er5 Te15 3.026578 1_554
Er5 Te2 3.057455 1_545
Er5 Te14 3.065746 1_445
Er5 Te14 3.065746 1_545
Er5 Te11 3.094629 1_555
Er5 Te11 3.094629 1_455
Er6 Te12 3.026578 1_555
Er6 Te1 3.057455 1_555
Er6 Te13 3.065746 1_555
Er6 Te13 3.065746 1_655
Er6 Te8 3.094629 1_655
Er6 Te8 3.094629 1_555
Er7 Te13 3.026578 1_555
Er7 Te0 3.057455 1_555
Er7 Te12 3.065746 1_455
Er7 Te12 3.065746 1_555
Er7 Te9 3.094629 1_555
Er7 Te9 3.094629 1_455
