# generated using pymatgen
data_CaFe2(CuO4)2
_symmetry_space_group_name_H-M   'P 1'
_cell_length_a   8.66601900
_cell_length_b   6.50090700
_cell_length_c   12.15859424
_cell_angle_alpha   86.08062629
_cell_angle_beta   90.00000000
_cell_angle_gamma   90.00000000
_symmetry_Int_Tables_number   1
_chemical_formula_structural   CaFe2(CuO4)2
_chemical_formula_sum   'Ca4 Fe8 Cu8 O32'
_cell_volume   683.37651206
_cell_formula_units_Z   4
loop_
 _symmetry_equiv_pos_site_id
 _symmetry_equiv_pos_as_xyz
  1  'x, y, z'
loop_
 _atom_site_type_symbol
 _atom_site_label
 _atom_site_symmetry_multiplicity
 _atom_site_fract_x
 _atom_site_fract_y
 _atom_site_fract_z
 _atom_site_occupancy
  Ca  Ca0  1  0.16935600  0.15281100  0.02401700  1
  Ca  Ca1  1  0.83064400  0.84718900  0.97598300  1
  Ca  Ca2  1  0.66935600  0.84718900  0.47598300  1
  Ca  Ca3  1  0.33064400  0.15281100  0.52401700  1
  Fe  Fe0  1  0.46315900  0.08688000  0.83050600  1
  Fe  Fe1  1  0.03684100  0.08688000  0.33050600  1
  Fe  Fe2  1  0.10129200  0.60048800  0.13492000  1
  Fe  Fe3  1  0.96315900  0.91312000  0.66949400  1
  Fe  Fe4  1  0.89870800  0.39951200  0.86508000  1
  Fe  Fe5  1  0.60129200  0.39951200  0.36508000  1
  Fe  Fe6  1  0.39870800  0.60048800  0.63492000  1
  Fe  Fe7  1  0.53684100  0.91312000  0.16949400  1
  Cu  Cu0  1  0.19444800  0.73440800  0.88029900  1
  Cu  Cu1  1  0.04093800  0.39770600  0.63858600  1
  Cu  Cu2  1  0.95906200  0.60229400  0.36141400  1
  Cu  Cu3  1  0.80555200  0.26559200  0.11970100  1
  Cu  Cu4  1  0.30555200  0.73440800  0.38029900  1
  Cu  Cu5  1  0.45906200  0.39770600  0.13858600  1
  Cu  Cu6  1  0.69444800  0.26559200  0.61970100  1
  Cu  Cu7  1  0.54093800  0.60229400  0.86141400  1
  O  O0  1  0.22498200  0.00234900  0.37606800  1
  O  O1  1  0.99428600  0.67092100  0.60971500  1
  O  O2  1  0.59711800  0.19699700  0.48370900  1
  O  O3  1  0.09711800  0.80300300  0.01629100  1
  O  O4  1  0.27501800  0.00234900  0.87606800  1
  O  O5  1  0.77501800  0.99765100  0.62393200  1
  O  O6  1  0.08955500  0.12203200  0.62510000  1
  O  O7  1  0.89504000  0.52483900  0.12212700  1
  O  O8  1  0.60496000  0.52483900  0.62212700  1
  O  O9  1  0.86013800  0.33540400  0.71465600  1
  O  O10  1  0.36013800  0.66459600  0.78534400  1
  O  O11  1  0.10496000  0.47516100  0.87787300  1
  O  O12  1  0.91044500  0.87796800  0.37490000  1
  O  O13  1  0.51200600  0.85811700  0.30965900  1
  O  O14  1  0.23621600  0.44551600  0.59120300  1
  O  O15  1  0.26378400  0.44551600  0.09120300  1
  O  O16  1  0.01200600  0.14188300  0.19034100  1
  O  O17  1  0.39504000  0.47516100  0.37787300  1
  O  O18  1  0.48799400  0.14188300  0.69034100  1
  O  O19  1  0.40288200  0.80300300  0.51629100  1
  O  O20  1  0.50571400  0.67092100  0.10971500  1
  O  O21  1  0.13986200  0.66459600  0.28534400  1
  O  O22  1  0.72498200  0.99765100  0.12393200  1
  O  O23  1  0.41044500  0.12203200  0.12510000  1
  O  O24  1  0.90288200  0.19699700  0.98370900  1
  O  O25  1  0.73621600  0.55448400  0.90879700  1
  O  O26  1  0.00571400  0.32907900  0.39028500  1
  O  O27  1  0.49428600  0.32907900  0.89028500  1
  O  O28  1  0.58955500  0.87796800  0.87490000  1
  O  O29  1  0.76378400  0.55448400  0.40879700  1
  O  O30  1  0.63986200  0.33540400  0.21465600  1
  O  O31  1  0.98799400  0.85811700  0.80965900  1
loop_
_geom_bond_atom_site_label_1
_geom_bond_atom_site_label_2
_geom_bond_distance
_geom_bond_site_symmetry_2
Ca0 O15 2.273823 1_555
Ca0 O4 2.295999 1_554
Ca0 O3 2.366710 1_545
Ca0 O24 2.374063 1_454
Ca0 O23 2.425289 1_555
Ca0 O16 2.436056 1_555
Ca0 O11 2.711307 1_554
Ca1 O25 2.273823 1_555
Ca1 O22 2.295999 1_556
Ca1 O24 2.366710 1_565
Ca1 O3 2.374063 1_656
Ca1 O28 2.425289 1_555
Ca1 O31 2.436056 1_555
Ca1 O7 2.711307 1_556
Ca2 O29 2.273823 1_555
Ca2 O5 2.295999 1_555
Ca2 O2 2.366710 1_565
Ca2 O19 2.374063 1_555
Ca2 O12 2.425289 1_555
Ca2 O13 2.436056 1_555
Ca2 O8 2.711307 1_555
Ca3 O14 2.273823 1_555
Ca3 O0 2.295999 1_555
Ca3 O19 2.366710 1_545
Ca3 O2 2.374063 1_555
Ca3 O6 2.425289 1_555
Ca3 O18 2.436056 1_555
Ca3 O17 2.711307 1_555
Fe0 O18 1.730665 1_555
Fe0 O4 1.795985 1_555
Fe0 O28 1.798725 1_545
Fe0 O27 1.799050 1_555
Fe1 O16 1.730665 1_555
Fe1 O0 1.795985 1_555
Fe1 O12 1.798725 1_445
Fe1 O26 1.799050 1_555
Fe2 O15 1.831290 1_555
Fe2 O7 1.863128 1_455
Fe2 O3 1.885571 1_555
Fe2 O21 1.932524 1_555
Fe3 O31 1.730665 1_555
Fe3 O5 1.795985 1_555
Fe3 O6 1.798725 1_665
Fe3 O1 1.799050 1_555
Fe4 O25 1.831290 1_555
Fe4 O11 1.863128 1_655
Fe4 O24 1.885571 1_555
Fe4 O9 1.932524 1_555
Fe5 O29 1.831290 1_555
Fe5 O17 1.863128 1_555
Fe5 O2 1.885571 1_555
Fe5 O30 1.932524 1_555
Fe6 O14 1.831290 1_555
Fe6 O8 1.863128 1_555
Fe6 O19 1.885571 1_555
Fe6 O10 1.932524 1_555
Fe7 O13 1.730665 1_555
Fe7 O22 1.795985 1_555
Fe7 O23 1.798725 1_565
Fe7 O20 1.799050 1_555
Cu0 O11 1.857269 1_555
Cu0 O4 1.874029 1_565
Cu0 O10 1.916311 1_555
Cu0 O3 1.935213 1_556
Cu0 O31 2.119204 1_455
Cu1 O14 1.807719 1_555
Cu1 O1 1.831974 1_455
Cu1 O9 1.850187 1_455
Cu1 O6 1.859112 1_555
Cu2 O29 1.807719 1_555
Cu2 O26 1.831974 1_655
Cu2 O21 1.850187 1_655
Cu2 O12 1.859112 1_555
Cu3 O7 1.857269 1_555
Cu3 O22 1.874029 1_545
Cu3 O30 1.916311 1_555
Cu3 O24 1.935213 1_554
Cu3 O16 2.119204 1_655
Cu4 O17 1.857269 1_555
Cu4 O0 1.874029 1_565
Cu4 O21 1.916311 1_555
Cu4 O19 1.935213 1_555
Cu4 O13 2.119204 1_555
Cu5 O15 1.807719 1_555
Cu5 O20 1.831974 1_555
Cu5 O30 1.850187 1_555
Cu5 O23 1.859112 1_555
Cu6 O8 1.857269 1_555
Cu6 O5 1.874029 1_545
Cu6 O9 1.916311 1_555
Cu6 O2 1.935213 1_555
Cu6 O18 2.119204 1_555
Cu7 O25 1.807719 1_555
Cu7 O27 1.831974 1_555
Cu7 O10 1.850187 1_555
Cu7 O28 1.859112 1_555
