# generated using pymatgen
data_MnB4
_symmetry_space_group_name_H-M   'P 1'
_cell_length_a   5.32656370
_cell_length_b   5.42171991
_cell_length_c   5.45504007
_cell_angle_alpha   114.81670295
_cell_angle_beta   90.00000000
_cell_angle_gamma   90.00000000
_symmetry_Int_Tables_number   1
_chemical_formula_structural   MnB4
_chemical_formula_sum   'Mn4 B16'
_cell_volume   142.98913167
_cell_formula_units_Z   4
loop_
 _symmetry_equiv_pos_site_id
 _symmetry_equiv_pos_as_xyz
  1  'x, y, z'
loop_
 _atom_site_type_symbol
 _atom_site_label
 _atom_site_symmetry_multiplicity
 _atom_site_fract_x
 _atom_site_fract_y
 _atom_site_fract_z
 _atom_site_occupancy
  Mn  Mn0  1  0.49941368  0.72866789  0.22230396  1
  Mn  Mn1  1  0.99941368  0.27133211  0.27769604  1
  Mn  Mn2  1  0.50058632  0.27133211  0.77769604  1
  Mn  Mn3  1  0.00058632  0.72866789  0.72230396  1
  B  B0  1  0.68136470  0.12939530  0.37449447  1
  B  B1  1  0.18136470  0.87060470  0.12550553  1
  B  B2  1  0.31863530  0.87060470  0.62550553  1
  B  B3  1  0.81863530  0.12939530  0.87449447  1
  B  B4  1  0.68707788  0.63521766  0.86199339  1
  B  B5  1  0.18707788  0.36478234  0.63800661  1
  B  B6  1  0.31292212  0.36478234  0.13800661  1
  B  B7  1  0.81292212  0.63521766  0.36199339  1
  B  B8  1  0.62989098  0.32931758  0.17563369  1
  B  B9  1  0.12989098  0.67068242  0.32436631  1
  B  B10  1  0.37010902  0.67068242  0.82436631  1
  B  B11  1  0.87010902  0.32931758  0.67563369  1
  B  B12  1  0.62929126  0.83672684  0.65821336  1
  B  B13  1  0.12929126  0.16327316  0.84178664  1
  B  B14  1  0.37070874  0.16327316  0.34178664  1
  B  B15  1  0.87070874  0.83672684  0.15821336  1
loop_
_geom_bond_atom_site_label_1
_geom_bond_atom_site_label_2
_geom_bond_distance
_geom_bond_site_symmetry_2
B0 B14 1.682620 1_555
B0 B15 1.831798 1_545
B0 B11 1.841059 1_555
B0 B8 1.847667 1_555
B0 Mn1 2.020427 1_555
B0 Mn0 2.198808 1_545
B0 Mn2 2.221783 1_555
B1 B15 1.682620 1_455
B1 B14 1.831798 1_565
B1 B10 1.841059 1_554
B1 B9 1.847667 1_555
B1 Mn0 2.020427 1_555
B1 Mn1 2.198808 1_465
B1 Mn3 2.221783 1_554
B2 B9 1.841059 1_555
B2 Mn3 2.020427 1_555
B2 Mn2 2.198808 1_565
B2 Mn0 2.221783 1_555
B3 B8 1.841059 1_556
B3 Mn2 2.020427 1_555
B3 Mn3 2.198808 1_645
B3 Mn1 2.221783 1_556
B4 Mn3 1.987485 1_655
B4 Mn0 2.069588 1_556
B4 Mn2 2.080612 1_555
B5 Mn2 1.987485 1_555
B5 Mn1 2.069588 1_455
B5 Mn3 2.080612 1_555
B6 B8 1.721271 1_555
B6 B9 1.821889 1_555
B6 Mn1 1.987485 1_455
B6 Mn2 2.069588 1_554
B6 Mn0 2.080612 1_555
B7 B9 1.721271 1_655
B7 B8 1.821889 1_555
B7 Mn0 1.987485 1_555
B7 Mn3 2.069588 1_655
B7 Mn1 2.080612 1_555
B8 Mn1 2.104730 1_555
B8 Mn2 2.170845 1_554
B8 Mn0 2.184733 1_555
B9 Mn0 2.104730 1_555
B9 Mn3 2.170845 1_555
B9 Mn1 2.184733 1_455
B10 B4 1.721271 1_555
B10 B5 1.821889 1_555
B10 B2 1.847667 1_555
B10 B12 2.054949 1_555
B10 Mn3 2.104730 1_555
B10 Mn0 2.170845 1_556
B10 Mn2 2.184733 1_555
B11 B5 1.721271 1_655
B11 B4 1.821889 1_555
B11 B3 1.847667 1_555
B11 B13 2.054949 1_655
B11 Mn2 2.104730 1_555
B11 Mn1 2.170845 1_555
B11 Mn3 2.184733 1_655
B12 B2 1.682620 1_555
B12 B7 1.810940 1_555
B12 B3 1.831798 1_565
B12 B4 1.882433 1_555
B12 Mn3 2.132795 1_655
B12 Mn2 2.271077 1_565
B12 Mn0 2.303651 1_555
B13 B3 1.682620 1_455
B13 B6 1.810940 1_556
B13 B2 1.831798 1_545
B13 B5 1.882433 1_555
B13 Mn2 2.132795 1_555
B13 Mn3 2.271077 1_545
B13 Mn1 2.303651 1_456
B14 B5 1.810940 1_555
B14 B6 1.882433 1_555
B14 B8 2.054949 1_555
B14 Mn1 2.132795 1_455
B14 Mn0 2.271077 1_545
B14 Mn2 2.303651 1_555
B15 B4 1.810940 1_554
B15 B7 1.882433 1_555
B15 B9 2.054949 1_655
B15 Mn0 2.132795 1_555
B15 Mn1 2.271077 1_565
B15 Mn3 2.303651 1_654
