# generated using pymatgen
data_HfMg14CrO16
_symmetry_space_group_name_H-M   'P 1'
_cell_length_a   8.72165392
_cell_length_b   8.73820368
_cell_length_c   4.29465641
_cell_angle_alpha   90.00000000
_cell_angle_beta   90.00000000
_cell_angle_gamma   90.00000000
_symmetry_Int_Tables_number   1
_chemical_formula_structural   HfMg14CrO16
_chemical_formula_sum   'Hf1 Mg14 Cr1 O16'
_cell_volume   327.30258655
_cell_formula_units_Z   1
loop_
 _symmetry_equiv_pos_site_id
 _symmetry_equiv_pos_as_xyz
  1  'x, y, z'
loop_
 _atom_site_type_symbol
 _atom_site_label
 _atom_site_symmetry_multiplicity
 _atom_site_fract_x
 _atom_site_fract_y
 _atom_site_fract_z
 _atom_site_occupancy
  Hf  Hf0  1  0.00000000  0.50000000  0.00000000  1
  Mg  Mg0  1  0.50000000  0.00000000  0.00000000  1
  Mg  Mg1  1  0.50000000  0.50000000  0.00000000  1
  Mg  Mg2  1  0.00000000  0.23649086  0.50000000  1
  Mg  Mg3  1  0.00000000  0.76350914  0.50000000  1
  Mg  Mg4  1  0.50000000  0.24813760  0.50000000  1
  Mg  Mg5  1  0.50000000  0.75186240  0.50000000  1
  Mg  Mg6  1  0.25291777  0.00000000  0.50000000  1
  Mg  Mg7  1  0.25804009  0.50000000  0.50000000  1
  Mg  Mg8  1  0.74708223  0.00000000  0.50000000  1
  Mg  Mg9  1  0.74195991  0.50000000  0.50000000  1
  Mg  Mg10  1  0.25741240  0.24238047  0.00000000  1
  Mg  Mg11  1  0.25741240  0.75761953  0.00000000  1
  Mg  Mg12  1  0.74258760  0.24238047  0.00000000  1
  Mg  Mg13  1  0.74258760  0.75761953  0.00000000  1
  Cr  Cr0  1  0.00000000  0.00000000  0.00000000  1
  O  O0  1  0.26903653  0.00000000  0.00000000  1
  O  O1  1  0.25430452  0.50000000  0.00000000  1
  O  O2  1  0.73096347  0.00000000  0.00000000  1
  O  O3  1  0.74569548  0.50000000  0.00000000  1
  O  O4  1  0.24857337  0.25049890  0.50000000  1
  O  O5  1  0.24857337  0.74950110  0.50000000  1
  O  O6  1  0.75142663  0.25049890  0.50000000  1
  O  O7  1  0.75142663  0.74950110  0.50000000  1
  O  O8  1  0.00000000  0.00000000  0.50000000  1
  O  O9  1  0.00000000  0.50000000  0.50000000  1
  O  O10  1  0.50000000  0.00000000  0.50000000  1
  O  O11  1  0.50000000  0.50000000  0.50000000  1
  O  O12  1  0.00000000  0.26578353  0.00000000  1
  O  O13  1  0.00000000  0.73421647  0.00000000  1
  O  O14  1  0.50000000  0.25471551  0.00000000  1
  O  O15  1  0.50000000  0.74528449  0.00000000  1
loop_
_geom_bond_atom_site_label_1
_geom_bond_atom_site_label_2
_geom_bond_distance
_geom_bond_site_symmetry_2
Hf0 O12 2.046631 1_555
Hf0 O13 2.046631 1_555
Hf0 O9 2.147328 1_554
Hf0 O9 2.147328 1_555
Hf0 O1 2.217956 1_555
Hf0 O3 2.217956 1_455
Mg0 O2 2.014383 1_555
Mg0 O0 2.014383 1_555
Mg0 O10 2.147328 1_554
Mg0 O10 2.147328 1_555
Mg0 O14 2.225756 1_555
Mg0 O15 2.225756 1_545
Mg1 O3 2.142871 1_555
Mg1 O1 2.142871 1_555
Mg1 O15 2.143346 1_555
Mg1 O14 2.143346 1_555
Mg1 O11 2.147328 1_554
Mg1 O11 2.147328 1_555
Mg2 O8 2.066505 1_555
Mg2 O12 2.162530 1_556
Mg2 O12 2.162530 1_555
Mg2 O4 2.171424 1_555
Mg2 O6 2.171424 1_455
Mg2 O9 2.302597 1_555
Mg3 O8 2.066505 1_565
Mg3 O13 2.162530 1_555
Mg3 O13 2.162530 1_556
Mg3 O7 2.171424 1_455
Mg3 O5 2.171424 1_555
Mg3 O9 2.302597 1_555
Mg4 O14 2.148097 1_556
Mg4 O14 2.148097 1_555
Mg4 O10 2.168277 1_555
Mg4 O4 2.192953 1_555
Mg4 O6 2.192953 1_555
Mg4 O11 2.200825 1_555
Mg5 O15 2.148097 1_556
Mg5 O15 2.148097 1_555
Mg5 O10 2.168277 1_565
Mg5 O5 2.192953 1_555
Mg5 O7 2.192953 1_555
Mg5 O11 2.200825 1_555
Mg6 O0 2.151925 1_555
Mg6 O0 2.151925 1_556
Mg6 O10 2.154966 1_555
Mg6 O5 2.189238 1_545
Mg6 O4 2.189238 1_555
Mg6 O8 2.205861 1_555
Mg7 O11 2.110291 1_555
Mg7 O1 2.147575 1_556
Mg7 O1 2.147575 1_555
Mg7 O4 2.181754 1_555
Mg7 O5 2.181754 1_555
Mg7 O9 2.250536 1_555
Mg8 O2 2.151925 1_555
Mg8 O2 2.151925 1_556
Mg8 O10 2.154966 1_555
Mg8 O7 2.189238 1_545
Mg8 O6 2.189238 1_555
Mg8 O8 2.205861 1_655
Mg9 O11 2.110291 1_555
Mg9 O3 2.147575 1_556
Mg9 O3 2.147575 1_555
Mg9 O6 2.181754 1_555
Mg9 O7 2.181754 1_555
Mg9 O9 2.250536 1_655
Mg10 O14 2.118509 1_555
Mg10 O0 2.120395 1_555
Mg10 O4 2.149882 1_554
Mg10 O4 2.149882 1_555
Mg10 O1 2.251295 1_555
Mg10 O12 2.254357 1_555
Mg11 O15 2.118509 1_555
Mg11 O0 2.120395 1_565
Mg11 O5 2.149882 1_555
Mg11 O5 2.149882 1_554
Mg11 O1 2.251295 1_555
Mg11 O13 2.254357 1_555
Mg12 O14 2.118509 1_555
Mg12 O2 2.120395 1_555
Mg12 O6 2.149882 1_555
Mg12 O6 2.149882 1_554
Mg12 O3 2.251295 1_555
Mg12 O12 2.254357 1_655
Mg13 O15 2.118509 1_555
Mg13 O2 2.120395 1_565
Mg13 O7 2.149882 1_555
Mg13 O7 2.149882 1_554
Mg13 O3 2.251295 1_555
Mg13 O13 2.254357 1_655
Cr0 O8 2.147328 1_554
Cr0 O8 2.147328 1_555
Cr0 O13 2.322471 1_545
Cr0 O12 2.322471 1_555
Cr0 O0 2.346444 1_555
Cr0 O2 2.346444 1_455
