# generated using pymatgen
data_Li9Mn2Co5O16
_symmetry_space_group_name_H-M   'P 1'
_cell_length_a   5.76904829
_cell_length_b   8.50583175
_cell_length_c   6.52856144
_cell_angle_alpha   90.27360811
_cell_angle_beta   116.22079831
_cell_angle_gamma   89.99999794
_symmetry_Int_Tables_number   1
_chemical_formula_structural   Li9Mn2Co5O16
_chemical_formula_sum   'Li9 Mn2 Co5 O16'
_cell_volume   287.39037192
_cell_formula_units_Z   1
loop_
 _symmetry_equiv_pos_site_id
 _symmetry_equiv_pos_as_xyz
  1  'x, y, z'
loop_
 _atom_site_type_symbol
 _atom_site_label
 _atom_site_symmetry_multiplicity
 _atom_site_fract_x
 _atom_site_fract_y
 _atom_site_fract_z
 _atom_site_occupancy
  Li  Li0  1  0.62283500  0.26052400  0.74806000  1
  Li  Li1  1  0.37477500  0.73947600  0.25194000  1
  Li  Li2  1  0.12522500  0.26052400  0.74806000  1
  Li  Li3  1  0.50011200  0.50123900  0.00022400  1
  Li  Li4  1  0.25000000  0.00000000  0.50000000  1
  Li  Li5  1  0.99988800  0.49876100  0.99977600  1
  Li  Li6  1  0.87716500  0.73947600  0.25194000  1
  Li  Li7  1  0.75000000  0.00000000  0.50000000  1
  Li  Li8  1  0.25000000  0.50000000  0.50000000  1
  Mn  Mn0  1  0.00043200  0.00243400  0.00086300  1
  Mn  Mn1  1  0.49956800  0.99756600  0.99913700  1
  Co  Co0  1  0.75000000  0.50000000  0.50000000  1
  Co  Co1  1  0.61837900  0.73833700  0.74439900  1
  Co  Co2  1  0.37398000  0.26166300  0.25560100  1
  Co  Co3  1  0.12602000  0.73833700  0.74439900  1
  Co  Co4  1  0.88162100  0.26166300  0.25560100  1
  O  O0  1  0.63769900  0.99922500  0.77149300  1
  O  O1  1  0.40245400  0.49262000  0.26823500  1
  O  O2  1  0.13379400  0.99922500  0.77149300  1
  O  O3  1  0.51165500  0.24363800  0.02331000  1
  O  O4  1  0.26156300  0.75804400  0.52312500  1
  O  O5  1  0.00532400  0.24535700  0.01064800  1
  O  O6  1  0.86578100  0.49262000  0.26823500  1
  O  O7  1  0.75231300  0.72883500  0.50462600  1
  O  O8  1  0.63421900  0.50738000  0.73176500  1
  O  O9  1  0.36620600  0.00077500  0.22850700  1
  O  O10  1  0.09754600  0.50738000  0.73176500  1
  O  O11  1  0.49467600  0.75464300  0.98935200  1
  O  O12  1  0.23843700  0.24195600  0.47687500  1
  O  O13  1  0.98834500  0.75636200  0.97669000  1
  O  O14  1  0.86230100  0.00077500  0.22850700  1
  O  O15  1  0.74768700  0.27116500  0.49537400  1
loop_
_geom_bond_atom_site_label_1
_geom_bond_atom_site_label_2
_geom_bond_distance
_geom_bond_site_symmetry_2
Li0 O15 2.073605 1_555
Li0 O8 2.105408 1_555
Li0 O5 2.117544 1_656
Li0 O12 2.145961 1_555
Li0 O3 2.163829 1_556
Li0 O0 2.227602 1_545
Li1 O7 2.073605 1_555
Li1 O1 2.105408 1_555
Li1 O11 2.117544 1_554
Li1 O4 2.145957 1_555
Li1 O13 2.163829 1_454
Li1 O9 2.227602 1_565
Li2 O15 2.073605 1_455
Li2 O10 2.105408 1_555
Li2 O5 2.117544 1_556
Li2 O12 2.145957 1_555
Li2 O3 2.163829 1_556
Li2 O2 2.227602 1_545
Li3 O6 2.063166 1_555
Li3 O1 2.063166 1_555
Li3 O11 2.156691 1_554
Li3 O3 2.195997 1_555
Li3 O10 2.207301 1_554
Li3 O8 2.207301 1_554
Li4 O12 2.063208 1_555
Li4 O4 2.063208 1_545
Li4 O0 2.154348 1_545
Li4 O14 2.154348 1_455
Li4 O9 2.154348 1_555
Li4 O2 2.154348 1_545
Li5 O8 2.063166 1_555
Li5 O10 2.063166 1_655
Li5 O5 2.156691 1_656
Li5 O13 2.195997 1_555
Li5 O1 2.207301 1_656
Li5 O6 2.207301 1_556
Li6 O7 2.073605 1_555
Li6 O6 2.105408 1_555
Li6 O11 2.117544 1_554
Li6 O4 2.145961 1_655
Li6 O13 2.163829 1_554
Li6 O14 2.227602 1_565
Li7 O2 2.139213 1_645
Li7 O9 2.139213 1_555
Li7 O14 2.139213 1_555
Li7 O0 2.139213 1_545
Li7 O7 2.306787 1_545
Li7 O15 2.306787 1_555
Li8 O8 2.059610 1_555
Li8 O6 2.059610 1_455
Li8 O1 2.059610 1_555
Li8 O10 2.059610 1_555
Li8 O4 2.198334 1_555
Li8 O12 2.198334 1_555
Mn0 O2 1.962838 1_544
Mn0 O0 1.962842 1_444
Mn0 O9 1.972486 1_555
Mn0 O14 1.972490 1_455
Mn0 O5 2.066752 1_555
Mn0 O13 2.097078 1_444
Mn1 O9 1.962838 1_566
Mn1 O14 1.962842 1_566
Mn1 O2 1.972486 1_555
Mn1 O0 1.972490 1_555
Mn1 O11 2.066752 1_555
Mn1 O3 2.097078 1_566
Co0 O10 1.905707 1_655
Co0 O1 1.905707 1_555
Co0 O6 1.905707 1_555
Co0 O8 1.905707 1_555
Co0 O15 1.946476 1_555
Co0 O7 1.946476 1_555
Co1 O4 1.930522 1_555
Co1 O8 1.969633 1_555
Co1 O13 2.004084 1_555
Co1 O11 2.022947 1_555
Co1 O7 2.030159 1_555
Co1 O0 2.224142 1_555
Co2 O12 1.930526 1_555
Co2 O1 1.969633 1_555
Co2 O3 2.004084 1_555
Co2 O5 2.022947 1_555
Co2 O15 2.030159 1_555
Co2 O9 2.224142 1_555
Co3 O4 1.930526 1_555
Co3 O10 1.969633 1_555
Co3 O13 2.004084 1_455
Co3 O11 2.022947 1_555
Co3 O7 2.030159 1_455
Co3 O2 2.224142 1_555
Co4 O12 1.930522 1_655
Co4 O6 1.969633 1_555
Co4 O3 2.004084 1_555
Co4 O5 2.022947 1_655
Co4 O15 2.030159 1_555
Co4 O14 2.224142 1_555
