# generated using pymatgen
data_Tb3Rh2
_symmetry_space_group_name_H-M   'P 1'
_cell_length_a   11.12959446
_cell_length_b   11.12955184
_cell_length_c   14.75859258
_cell_angle_alpha   112.15186650
_cell_angle_beta   112.15195582
_cell_angle_gamma   89.99855391
_symmetry_Int_Tables_number   1
_chemical_formula_structural   Tb3Rh2
_chemical_formula_sum   'Tb42 Rh28'
_cell_volume   1546.51203673
_cell_formula_units_Z   14
loop_
 _symmetry_equiv_pos_site_id
 _symmetry_equiv_pos_as_xyz
  1  'x, y, z'
loop_
 _atom_site_type_symbol
 _atom_site_label
 _atom_site_symmetry_multiplicity
 _atom_site_fract_x
 _atom_site_fract_y
 _atom_site_fract_z
 _atom_site_occupancy
  Tb  Tb0  1  0.50397103  0.63234885  0.85698831  1
  Tb  Tb1  1  0.35301827  0.22464046  0.85698831  1
  Tb  Tb2  1  0.85303156  0.13236227  0.85700149  1
  Tb  Tb3  1  0.00397093  0.72463922  0.85700149  1
  Tb  Tb4  1  0.63236216  0.35303139  0.85700141  1
  Tb  Tb5  1  0.22463925  0.50397102  0.85700141  1
  Tb  Tb6  1  0.13234883  0.00397100  0.85698831  1
  Tb  Tb7  1  0.72464048  0.85301831  0.85698831  1
  Tb  Tb8  1  0.49602897  0.36765115  0.14301169  1
  Tb  Tb9  1  0.64698173  0.77535954  0.14301169  1
  Tb  Tb10  1  0.14696844  0.86763773  0.14299851  1
  Tb  Tb11  1  0.99602907  0.27536078  0.14299851  1
  Tb  Tb12  1  0.36763784  0.64696861  0.14299859  1
  Tb  Tb13  1  0.77536075  0.49602898  0.14299859  1
  Tb  Tb14  1  0.86765117  0.99602900  0.14301169  1
  Tb  Tb15  1  0.27535952  0.14698169  0.14301169  1
  Tb  Tb16  1  0.51650841  0.38680780  0.61308067  1
  Tb  Tb17  1  0.09657327  0.22627288  0.61308067  1
  Tb  Tb18  1  0.59656159  0.88679452  0.61307242  1
  Tb  Tb19  1  0.01651283  0.72627890  0.61307242  1
  Tb  Tb20  1  0.38679465  0.09656167  0.61307243  1
  Tb  Tb21  1  0.22627879  0.51651277  0.61307243  1
  Tb  Tb22  1  0.88680785  0.01650834  0.61308070  1
  Tb  Tb23  1  0.72627285  0.59657336  0.61308070  1
  Tb  Tb24  1  0.48349159  0.61319220  0.38691933  1
  Tb  Tb25  1  0.90342673  0.77372712  0.38691933  1
  Tb  Tb26  1  0.40343841  0.11320548  0.38692758  1
  Tb  Tb27  1  0.98348717  0.27372110  0.38692758  1
  Tb  Tb28  1  0.61320535  0.90343833  0.38692757  1
  Tb  Tb29  1  0.77372121  0.48348723  0.38692757  1
  Tb  Tb30  1  0.11319215  0.98349166  0.38691930  1
  Tb  Tb31  1  0.27372715  0.40342664  0.38691930  1
  Tb  Tb32  1  0.35157557  0.85157573  0.00000000  1
  Tb  Tb33  1  0.64842443  0.14842427  -0.00000000  1
  Tb  Tb34  1  0.14841250  0.35158770  0.00000000  1
  Tb  Tb35  1  0.85158750  0.64841230  -0.00000000  1
  Tb  Tb36  1  0.88725078  0.38725078  0.77450155  1
  Tb  Tb37  1  0.38725377  0.88725377  0.77450553  1
  Tb  Tb38  1  0.11274922  0.61274922  0.22549845  1
  Tb  Tb39  1  0.61274623  0.11274623  0.22549447  1
  Tb  Tb40  1  0.75000291  0.25000291  0.50000582  1
  Tb  Tb41  1  0.24999709  0.74999709  0.49999418  1
  Rh  Rh0  1  0.21495361  0.71495350  0.78713035  1
  Rh  Rh1  1  0.57217673  0.07217685  0.78713035  1
  Rh  Rh2  1  0.07221881  0.21494519  0.78716301  1
  Rh  Rh3  1  0.71494521  0.57221882  0.78716301  1
  Rh  Rh4  1  0.78504639  0.28504650  0.21286965  1
  Rh  Rh5  1  0.42782327  0.92782315  0.21286965  1
  Rh  Rh6  1  0.92778119  0.78505481  0.21283699  1
  Rh  Rh7  1  0.28505479  0.42778118  0.21283699  1
  Rh  Rh8  1  0.96461022  0.46461021  0.62370138  1
  Rh  Rh9  1  0.65909116  0.15909117  0.62370138  1
  Rh  Rh10  1  0.15905663  0.96467431  0.62373106  1
  Rh  Rh11  1  0.46467443  0.65905675  0.62373106  1
  Rh  Rh12  1  0.03538978  0.53538979  0.37629862  1
  Rh  Rh13  1  0.34090884  0.84090883  0.37629862  1
  Rh  Rh14  1  0.84094337  0.03532569  0.37626894  1
  Rh  Rh15  1  0.53532557  0.34094325  0.37626894  1
  Rh  Rh16  1  0.09860837  0.59860838  0.00000000  1
  Rh  Rh17  1  0.90139163  0.40139162  -0.00000000  1
  Rh  Rh18  1  0.40143746  0.09856264  -0.00000000  1
  Rh  Rh19  1  0.59856254  0.90143736  0.00000000  1
  Rh  Rh20  1  0.36761110  0.36761110  0.73522020  1
  Rh  Rh21  1  0.86761111  0.86761111  0.73522021  1
  Rh  Rh22  1  0.63238890  0.63238890  0.26477980  1
  Rh  Rh23  1  0.13238889  0.13238889  0.26477979  1
  Rh  Rh24  1  0.50000000  0.50000000  -0.00000000  1
  Rh  Rh25  1  -0.00000000  -0.00000000  -0.00000000  1
  Rh  Rh26  1  0.25000000  0.25000000  0.50000000  1
  Rh  Rh27  1  0.75000000  0.75000000  0.50000000  1
loop_
_geom_bond_atom_site_label_1
_geom_bond_atom_site_label_2
_geom_bond_distance
_geom_bond_site_symmetry_2
Rh0 Tb32 2.699863 1_556
Rh0 Tb21 2.730983 1_555
Rh0 Tb19 2.730985 1_555
Rh0 Tb37 2.815741 1_555
Rh0 Tb5 2.886339 1_555
Rh0 Tb3 2.886351 1_555
Rh0 Tb6 3.235527 1_565
Rh0 Tb0 3.235533 1_555
Rh1 Tb33 2.699863 1_556
Rh1 Tb20 2.730989 1_555
Rh1 Tb18 2.730991 1_545
Rh1 Tb37 2.815709 1_545
Rh1 Tb4 2.886349 1_555
Rh1 Tb2 2.886362 1_555
Rh1 Tb7 3.235522 1_545
Rh1 Tb1 3.235528 1_555
Rh2 Tb34 2.699563 1_556
Rh2 Tb17 2.731236 1_555
Rh2 Tb22 2.731239 1_455
Rh2 Tb36 2.816076 1_455
Rh2 Tb6 2.885788 1_555
Rh2 Tb1 2.885798 1_555
Rh2 Tb5 3.235549 1_555
Rh2 Tb2 3.235559 1_455
Rh3 Tb35 2.699563 1_556
Rh3 Tb23 2.731235 1_555
Rh3 Tb16 2.731240 1_555
Rh3 Tb36 2.816076 1_555
Rh3 Tb7 2.885788 1_555
Rh3 Tb0 2.885798 1_555
Rh3 Tb4 3.235553 1_555
Rh3 Tb3 3.235555 1_655
Rh4 Tb33 2.699863 1_555
Rh4 Tb29 2.730983 1_555
Rh4 Tb27 2.730985 1_555
Rh4 Tb39 2.815741 1_555
Rh4 Tb13 2.886339 1_555
Rh4 Tb11 2.886351 1_555
Rh4 Tb14 3.235527 1_545
Rh4 Tb8 3.235533 1_555
Rh5 Tb32 2.699863 1_555
Rh5 Tb28 2.730989 1_555
Rh5 Tb26 2.730991 1_565
Rh5 Tb39 2.815709 1_565
Rh5 Tb12 2.886349 1_555
Rh5 Tb10 2.886362 1_555
Rh5 Tb15 3.235522 1_565
Rh5 Tb9 3.235528 1_555
Rh6 Tb35 2.699563 1_555
Rh6 Tb25 2.731236 1_555
Rh6 Tb30 2.731239 1_655
Rh6 Tb38 2.816076 1_655
Rh6 Tb14 2.885788 1_555
Rh6 Tb9 2.885798 1_555
Rh6 Tb13 3.235549 1_555
Rh6 Tb10 3.235559 1_655
Rh7 Tb34 2.699563 1_555
Rh7 Tb31 2.731235 1_555
Rh7 Tb24 2.731240 1_555
Rh7 Tb38 2.816076 1_555
Rh7 Tb15 2.885788 1_555
Rh7 Tb8 2.885798 1_555
Rh7 Tb12 3.235553 1_555
Rh7 Tb11 3.235555 1_455
Rh8 Tb40 2.857660 1_555
Rh8 Tb17 3.012925 1_655
Rh8 Tb23 3.012931 1_555
Rh8 Tb19 3.041786 1_655
Rh8 Tb21 3.041795 1_655
Rh8 Tb36 3.053849 1_555
Rh8 Tb29 3.424010 1_555
Rh8 Tb27 3.424012 1_555
Rh8 Tb3 3.430845 1_655
Rh8 Tb5 3.430846 1_655
Rh9 Tb40 2.857660 1_555
Rh9 Tb16 3.012919 1_555
Rh9 Tb22 3.012926 1_555
Rh9 Tb18 3.041770 1_545
Rh9 Tb20 3.041779 1_555
Rh9 Tb36 3.053849 1_555
Rh9 Tb28 3.424017 1_545
Rh9 Tb26 3.424019 1_555
Rh9 Tb2 3.430848 1_555
Rh9 Tb4 3.430849 1_555
Rh10 Tb41 2.858541 1_555
Rh10 Tb19 3.013054 1_555
Rh10 Tb20 3.013084 1_565
Rh10 Tb17 3.040983 1_565
Rh10 Tb22 3.040994 1_465
Rh10 Tb37 3.054214 1_555
Rh10 Tb30 3.424338 1_555
Rh10 Tb25 3.424343 1_455
Rh10 Tb6 3.430312 1_565
Rh10 Tb1 3.430318 1_565
Rh11 Tb41 2.858541 1_555
Rh11 Tb21 3.013063 1_555
Rh11 Tb18 3.013075 1_555
Rh11 Tb16 3.040985 1_555
Rh11 Tb23 3.040992 1_555
Rh11 Tb37 3.054214 1_555
Rh11 Tb24 3.424339 1_555
Rh11 Tb31 3.424343 1_555
Rh11 Tb0 3.430310 1_555
Rh11 Tb7 3.430319 1_555
Rh12 Tb41 2.857660 1_555
Rh12 Tb25 3.012925 1_455
Rh12 Tb31 3.012931 1_555
Rh12 Tb27 3.041786 1_455
Rh12 Tb29 3.041795 1_455
Rh12 Tb38 3.053849 1_555
Rh12 Tb21 3.424010 1_555
Rh12 Tb19 3.424012 1_555
Rh12 Tb11 3.430845 1_455
Rh12 Tb13 3.430846 1_455
Rh13 Tb41 2.857660 1_555
Rh13 Tb24 3.012919 1_555
Rh13 Tb30 3.012926 1_555
Rh13 Tb26 3.041770 1_565
Rh13 Tb28 3.041779 1_555
Rh13 Tb38 3.053849 1_555
Rh13 Tb20 3.424017 1_565
Rh13 Tb18 3.424019 1_555
Rh13 Tb10 3.430848 1_555
Rh13 Tb12 3.430849 1_555
Rh14 Tb40 2.858541 1_555
Rh14 Tb27 3.013054 1_555
Rh14 Tb28 3.013084 1_545
Rh14 Tb25 3.040983 1_545
Rh14 Tb30 3.040994 1_645
Rh14 Tb39 3.054214 1_555
Rh14 Tb22 3.424338 1_555
Rh14 Tb17 3.424343 1_655
Rh14 Tb14 3.430312 1_545
Rh14 Tb9 3.430318 1_545
Rh15 Tb40 2.858541 1_555
Rh15 Tb29 3.013063 1_555
Rh15 Tb26 3.013075 1_555
Rh15 Tb24 3.040985 1_555
Rh15 Tb31 3.040992 1_555
Rh15 Tb39 3.054214 1_555
Rh15 Tb16 3.424339 1_555
Rh15 Tb23 3.424343 1_555
Rh15 Tb8 3.430310 1_555
Rh15 Tb15 3.430319 1_555
Rh16 Tb34 2.804538 1_555
Rh16 Tb35 2.804550 1_455
Rh16 Tb3 2.843745 1_554
Rh16 Tb10 2.843746 1_555
Rh16 Tb5 2.843752 1_554
Rh16 Tb12 2.843753 1_555
Rh16 Tb36 3.214872 1_454
Rh16 Tb38 3.214873 1_555
Rh17 Tb35 2.804538 1_555
Rh17 Tb34 2.804550 1_655
Rh17 Tb11 2.843745 1_555
Rh17 Tb2 2.843746 1_554
Rh17 Tb13 2.843752 1_555
Rh17 Tb4 2.843753 1_554
Rh17 Tb38 3.214872 1_655
Rh17 Tb36 3.214873 1_554
Rh18 Tb32 2.804324 1_545
Rh18 Tb33 2.804334 1_555
Rh18 Tb8 2.844257 1_555
Rh18 Tb6 2.844265 1_554
Rh18 Tb1 2.844267 1_554
Rh18 Tb15 2.844275 1_555
Rh18 Tb39 3.214462 1_555
Rh18 Tb37 3.214462 1_544
Rh19 Tb33 2.804324 1_565
Rh19 Tb32 2.804334 1_555
Rh19 Tb0 2.844257 1_554
Rh19 Tb14 2.844265 1_555
Rh19 Tb9 2.844267 1_555
Rh19 Tb7 2.844275 1_554
Rh19 Tb37 3.214462 1_554
Rh19 Tb39 3.214462 1_565
Rh20 Tb0 2.857358 1_555
Rh20 Tb1 2.857370 1_555
Rh20 Tb4 2.857459 1_555
Rh20 Tb5 2.857473 1_555
Rh20 Tb16 2.929922 1_555
Rh20 Tb17 2.929938 1_555
Rh20 Tb20 2.929978 1_555
Rh20 Tb21 2.929982 1_555
Rh21 Tb6 2.857364 1_665
Rh21 Tb7 2.857376 1_555
Rh21 Tb2 2.857454 1_565
Rh21 Tb3 2.857468 1_655
Rh21 Tb22 2.929915 1_565
Rh21 Tb23 2.929931 1_555
Rh21 Tb18 2.929985 1_555
Rh21 Tb19 2.929988 1_655
Rh22 Tb8 2.857358 1_555
Rh22 Tb9 2.857370 1_555
Rh22 Tb12 2.857459 1_555
Rh22 Tb13 2.857473 1_555
Rh22 Tb24 2.929922 1_555
Rh22 Tb25 2.929938 1_555
Rh22 Tb28 2.929978 1_555
Rh22 Tb29 2.929982 1_555
Rh23 Tb14 2.857364 1_445
Rh23 Tb15 2.857376 1_555
Rh23 Tb10 2.857454 1_545
Rh23 Tb11 2.857468 1_455
Rh23 Tb30 2.929915 1_545
Rh23 Tb31 2.929931 1_555
Rh23 Tb26 2.929985 1_555
Rh23 Tb27 2.929988 1_455
Rh24 Tb12 3.006798 1_555
Rh24 Tb4 3.006798 1_554
Rh24 Tb13 3.006801 1_555
Rh24 Tb5 3.006801 1_554
Rh24 Tb1 3.006876 1_554
Rh24 Tb9 3.006876 1_555
Rh24 Tb8 3.006888 1_555
Rh24 Tb0 3.006888 1_554
Rh25 Tb2 3.006792 1_454
Rh25 Tb10 3.006792 1_545
Rh25 Tb3 3.006795 1_544
Rh25 Tb11 3.006795 1_455
Rh25 Tb15 3.006882 1_555
Rh25 Tb7 3.006882 1_444
Rh25 Tb14 3.006893 1_445
Rh25 Tb6 3.006893 1_554
Rh26 Tb20 2.872626 1_555
Rh26 Tb26 2.872632 1_555
Rh26 Tb21 2.872641 1_555
Rh26 Tb27 2.872647 1_455
Rh26 Tb31 2.872677 1_555
Rh26 Tb17 2.872683 1_555
Rh26 Tb30 2.872685 1_545
Rh26 Tb16 2.872692 1_555
Rh27 Tb28 2.872626 1_555
Rh27 Tb18 2.872632 1_555
Rh27 Tb29 2.872641 1_555
Rh27 Tb19 2.872647 1_655
Rh27 Tb23 2.872677 1_555
Rh27 Tb25 2.872683 1_555
Rh27 Tb22 2.872685 1_565
Rh27 Tb24 2.872692 1_555
