# generated using pymatgen
data_Li4MnCo2O7
_symmetry_space_group_name_H-M   'P 1'
_cell_length_a   5.08169900
_cell_length_b   5.15517881
_cell_length_c   10.49779837
_cell_angle_alpha   84.73277044
_cell_angle_beta   77.26361535
_cell_angle_gamma   70.29248388
_symmetry_Int_Tables_number   1
_chemical_formula_structural   Li4MnCo2O7
_chemical_formula_sum   'Li8 Mn2 Co4 O14'
_cell_volume   252.48707790
_cell_formula_units_Z   2
loop_
 _symmetry_equiv_pos_site_id
 _symmetry_equiv_pos_as_xyz
  1  'x, y, z'
loop_
 _atom_site_type_symbol
 _atom_site_label
 _atom_site_symmetry_multiplicity
 _atom_site_fract_x
 _atom_site_fract_y
 _atom_site_fract_z
 _atom_site_occupancy
  Li  Li0  1  0.92959300  0.50378100  0.63491500  1
  Li  Li1  1  0.50000000  0.50000000  0.50000000  1
  Li  Li2  1  0.07040700  0.49621900  0.36508500  1
  Li  Li3  1  0.63704800  0.50123300  0.21833500  1
  Li  Li4  1  0.20877600  0.50069500  0.07301600  1
  Li  Li5  1  0.79122400  0.49930500  0.92698400  1
  Li  Li6  1  0.36295200  0.49876700  0.78166500  1
  Li  Li7  1  0.00000000  0.00000000  0.50000000  1
  Mn  Mn0  1  0.86084800  0.99753500  0.78084700  1
  Mn  Mn1  1  0.13915200  0.00246500  0.21915300  1
  Co  Co0  1  0.42121900  0.00723100  0.63629500  1
  Co  Co1  1  0.57878100  0.99276900  0.36370500  1
  Co  Co2  1  0.71490300  0.00102500  0.07161400  1
  Co  Co3  1  0.28509700  0.99897500  0.92838600  1
  O  O0  1  0.61440800  0.78024200  0.78354000  1
  O  O1  1  0.16184100  0.77336800  0.65703200  1
  O  O2  1  0.72510800  0.75939100  0.49476100  1
  O  O3  1  0.31572400  0.76815400  0.34479600  1
  O  O4  1  0.89774500  0.77954000  0.20792900  1
  O  O5  1  0.44307900  0.77751600  0.07239300  1
  O  O6  1  0.02698300  0.76892200  0.92681500  1
  O  O7  1  0.27489200  0.24060900  0.50523900  1
  O  O8  1  0.83815900  0.22663200  0.34296800  1
  O  O9  1  0.38559200  0.21975800  0.21646000  1
  O  O10  1  0.97301700  0.23107800  0.07318500  1
  O  O11  1  0.55692100  0.22248400  0.92760700  1
  O  O12  1  0.10225500  0.22046000  0.79207100  1
  O  O13  1  0.68427600  0.23184600  0.65520400  1
loop_
_geom_bond_atom_site_label_1
_geom_bond_atom_site_label_2
_geom_bond_distance
_geom_bond_site_symmetry_2
Li0 O2 2.091792 1_555
Li0 O7 2.110228 1_655
Li0 O13 2.138096 1_555
Li0 O1 2.159762 1_655
Li0 O0 2.190375 1_555
Li0 O12 2.226317 1_655
Li1 O2 2.022412 1_555
Li1 O7 2.022412 1_555
Li1 O13 2.197421 1_555
Li1 O3 2.197421 1_555
Li1 O1 2.280502 1_555
Li1 O8 2.280502 1_555
Li2 O7 2.091792 1_555
Li2 O2 2.110228 1_455
Li2 O3 2.138096 1_555
Li2 O8 2.159762 1_455
Li2 O9 2.190375 1_555
Li2 O4 2.226317 1_455
Li3 O8 2.008496 1_555
Li3 O3 2.046054 1_555
Li3 O5 2.160048 1_555
Li3 O10 2.194355 1_555
Li3 O9 2.237331 1_555
Li3 O4 2.239359 1_555
Li4 O4 2.103534 1_455
Li4 O10 2.118707 1_455
Li4 O9 2.119189 1_555
Li4 O6 2.120149 1_554
Li4 O5 2.143602 1_555
Li4 O11 2.239858 1_554
Li5 O12 2.103534 1_655
Li5 O6 2.118707 1_655
Li5 O0 2.119189 1_555
Li5 O10 2.120149 1_556
Li5 O11 2.143602 1_555
Li5 O5 2.239858 1_556
Li6 O1 2.008496 1_555
Li6 O13 2.046054 1_555
Li6 O11 2.160048 1_555
Li6 O6 2.194355 1_555
Li6 O0 2.237331 1_555
Li6 O12 2.239359 1_555
Li7 O1 2.086873 1_545
Li7 O8 2.086873 1_455
Li7 O3 2.137496 1_545
Li7 O13 2.137496 1_455
Li7 O7 2.169784 1_555
Li7 O2 2.169784 1_445
Mn0 O13 1.871420 1_565
Mn0 O1 1.889837 1_655
Mn0 O0 1.936145 1_555
Mn0 O12 1.969504 1_665
Mn0 O6 2.004392 1_655
Mn0 O11 2.043203 1_565
Mn1 O3 1.871420 1_545
Mn1 O8 1.889837 1_455
Mn1 O9 1.936145 1_555
Mn1 O4 1.969504 1_445
Mn1 O10 2.004392 1_455
Mn1 O5 2.043203 1_545
Co0 O7 1.853923 1_555
Co0 O1 2.033530 1_545
Co0 O2 2.056918 1_545
Co0 O0 2.069941 1_545
Co0 O13 2.090536 1_555
Co0 O12 2.114100 1_555
Co1 O2 1.853923 1_555
Co1 O8 2.033530 1_565
Co1 O7 2.056918 1_565
Co1 O9 2.069941 1_565
Co1 O3 2.090536 1_555
Co1 O4 2.114100 1_555
Co2 O4 1.945653 1_545
Co2 O11 1.957912 1_554
Co2 O10 2.046827 1_555
Co2 O6 2.061206 1_644
Co2 O5 2.074245 1_545
Co2 O9 2.074662 1_555
Co3 O12 1.945653 1_565
Co3 O5 1.957912 1_556
Co3 O6 2.046827 1_555
Co3 O10 2.061206 1_466
Co3 O11 2.074245 1_565
Co3 O0 2.074662 1_555
