# generated using pymatgen
data_MgPNO5
_symmetry_space_group_name_H-M   'P 1'
_cell_length_a   5.10665400
_cell_length_b   5.85074400
_cell_length_c   7.03399800
_cell_angle_alpha   90.00000000
_cell_angle_beta   90.00000000
_cell_angle_gamma   90.00000000
_symmetry_Int_Tables_number   1
_chemical_formula_structural   MgPNO5
_chemical_formula_sum   'Mg2 P2 N2 O10'
_cell_volume   210.15985966
_cell_formula_units_Z   2
loop_
 _symmetry_equiv_pos_site_id
 _symmetry_equiv_pos_as_xyz
  1  'x, y, z'
loop_
 _atom_site_type_symbol
 _atom_site_label
 _atom_site_symmetry_multiplicity
 _atom_site_fract_x
 _atom_site_fract_y
 _atom_site_fract_z
 _atom_site_occupancy
  Mg  Mg0  1  0.60406000  0.00000000  0.98297500  1
  Mg  Mg1  1  0.10406000  0.50000000  0.01702500  1
  P  P0  1  0.56319500  0.50000000  0.79306700  1
  P  P1  1  0.06319500  0.00000000  0.20693300  1
  N  N0  1  0.79223500  0.00000000  0.54155000  1
  N  N1  1  0.29223500  0.50000000  0.45845000  1
  O  O0  1  0.85724000  0.50000000  0.80117100  1
  O  O1  1  0.35724000  0.00000000  0.19882900  1
  O  O2  1  0.53490600  0.50000000  0.55465600  1
  O  O3  1  0.03490600  0.00000000  0.44534400  1
  O  O4  1  0.42119000  0.70952800  0.87606500  1
  O  O5  1  0.42119000  0.29047200  0.87606500  1
  O  O6  1  0.92119000  0.79047200  0.12393500  1
  O  O7  1  0.92119000  0.20952800  0.12393500  1
  O  O8  1  0.83798400  0.00000000  0.70981300  1
  O  O9  1  0.33798400  0.50000000  0.29018700  1
loop_
_geom_bond_atom_site_label_1
_geom_bond_atom_site_label_2
_geom_bond_distance
_geom_bond_site_symmetry_2
Mg0 O1 1.973311 1_556
Mg0 O5 2.079860 1_555
Mg0 O4 2.079860 1_545
Mg0 O6 2.260223 1_546
Mg0 O7 2.260223 1_556
Mg0 O8 2.262488 1_555
Mg1 O0 1.973311 1_454
Mg1 O6 2.079860 1_455
Mg1 O7 2.079860 1_455
Mg1 O4 2.260223 1_554
Mg1 O5 2.260223 1_554
Mg1 O9 2.262488 1_555
N0 O8 1.206399 1_555
N0 O3 1.411966 1_655
N1 O9 1.206399 1_555
N1 O2 1.411966 1_555
O0 P0 1.502668 1_555
O1 P1 1.502668 1_555
O2 P0 1.683193 1_555
O3 P1 1.683193 1_555
O4 P0 1.539325 1_555
O5 P0 1.539325 1_555
O6 P1 1.539325 1_665
O7 P1 1.539325 1_655
