# generated using pymatgen
data_TaTl3(SeS)2
_symmetry_space_group_name_H-M   'P 1'
_cell_length_a   7.96918131
_cell_length_b   6.92310646
_cell_length_c   6.87989131
_cell_angle_alpha   70.52815618
_cell_angle_beta   54.98961133
_cell_angle_gamma   54.48223248
_symmetry_Int_Tables_number   1
_chemical_formula_structural   TaTl3(SeS)2
_chemical_formula_sum   'Ta1 Tl3 Se2 S2'
_cell_volume   253.04374362
_cell_formula_units_Z   1
loop_
 _symmetry_equiv_pos_site_id
 _symmetry_equiv_pos_as_xyz
  1  'x, y, z'
loop_
 _atom_site_type_symbol
 _atom_site_label
 _atom_site_symmetry_multiplicity
 _atom_site_fract_x
 _atom_site_fract_y
 _atom_site_fract_z
 _atom_site_occupancy
  Ta  Ta0  1  0.99610100  0.00389900  0.00389900  1
  Tl  Tl0  1  0.49438500  0.00561500  0.00561500  1
  Tl  Tl1  1  0.99438500  0.50561500  0.50561500  1
  Tl  Tl2  1  0.50191700  0.49808300  0.49808300  1
  Se  Se0  1  0.99947400  0.65003900  0.00052600  1
  Se  Se1  1  0.34996100  0.00052600  0.65003900  1
  S  S0  1  0.99852300  0.00147700  0.33474700  1
  S  S1  1  0.66525300  0.33474700  0.00147700  1
loop_
_geom_bond_atom_site_label_1
_geom_bond_atom_site_label_2
_geom_bond_distance
_geom_bond_site_symmetry_2
Se0 Ta0 2.442029 1_565
Se0 Tl1 3.262777 1_555
Se0 Tl0 3.262777 1_565
Se0 Tl2 3.276669 1_654
Se1 Ta0 2.442029 1_456
Se1 Tl1 3.262777 1_455
Se1 Tl0 3.262777 1_556
Se1 Tl2 3.276669 1_545
S0 Ta0 2.281737 1_555
S0 Tl2 3.226244 1_555
S0 Tl0 3.250300 1_655
S0 Tl1 3.250300 1_545
S1 Ta0 2.281737 1_555
S1 Tl2 3.226244 1_555
S1 Tl1 3.250300 1_554
S1 Tl0 3.250300 1_555
