# generated using pymatgen
data_Ba2Ca2TbTi3(CuO7)2
_symmetry_space_group_name_H-M   'P 1'
_cell_length_a   3.91333800
_cell_length_b   3.91333800
_cell_length_c   19.69237200
_cell_angle_alpha   90.00000000
_cell_angle_beta   90.00000000
_cell_angle_gamma   90.00000000
_symmetry_Int_Tables_number   1
_chemical_formula_structural   Ba2Ca2TbTi3(CuO7)2
_chemical_formula_sum   'Ba2 Ca2 Tb1 Ti3 Cu2 O14'
_cell_volume   301.57320493
_cell_formula_units_Z   1
loop_
 _symmetry_equiv_pos_site_id
 _symmetry_equiv_pos_as_xyz
  1  'x, y, z'
loop_
 _atom_site_type_symbol
 _atom_site_label
 _atom_site_symmetry_multiplicity
 _atom_site_fract_x
 _atom_site_fract_y
 _atom_site_fract_z
 _atom_site_occupancy
  Ba  Ba0  1  0.50000000  0.50000000  0.30704300  1
  Ba  Ba1  1  0.50000000  0.50000000  0.69295700  1
  Ca  Ca0  1  0.50000000  0.50000000  0.10238000  1
  Ca  Ca1  1  0.50000000  0.50000000  0.89762000  1
  Tb  Tb0  1  0.50000000  0.50000000  0.50000000  1
  Ti  Ti0  1  0.00000000  0.00000000  0.19894800  1
  Ti  Ti1  1  0.00000000  0.00000000  0.80105200  1
  Ti  Ti2  1  0.00000000  0.00000000  0.00000000  1
  Cu  Cu0  1  0.00000000  0.00000000  0.41255600  1
  Cu  Cu1  1  0.00000000  0.00000000  0.58744400  1
  O  O0  1  0.00000000  0.50000000  0.42869200  1
  O  O1  1  0.00000000  0.50000000  0.57130800  1
  O  O2  1  0.50000000  0.00000000  0.57130800  1
  O  O3  1  0.50000000  0.00000000  0.42869200  1
  O  O4  1  0.00000000  0.00000000  0.09814200  1
  O  O5  1  0.00000000  0.00000000  0.90185800  1
  O  O6  1  0.00000000  0.50000000  0.00000000  1
  O  O7  1  0.50000000  0.00000000  0.00000000  1
  O  O8  1  0.00000000  0.00000000  0.29767100  1
  O  O9  1  0.00000000  0.00000000  0.70232900  1
  O  O10  1  0.00000000  0.50000000  0.19354900  1
  O  O11  1  0.00000000  0.50000000  0.80645100  1
  O  O12  1  0.50000000  0.00000000  0.80645100  1
  O  O13  1  0.50000000  0.00000000  0.19354900  1
loop_
_geom_bond_atom_site_label_1
_geom_bond_atom_site_label_2
_geom_bond_distance
_geom_bond_site_symmetry_2
Ba0 O8 2.773296 1_655
Ba0 O8 2.773296 1_565
Ba0 O8 2.773296 1_555
Ba0 O8 2.773296 1_665
Ba0 O10 2.970459 1_555
Ba0 O13 2.970459 1_565
Ba0 O10 2.970459 1_655
Ba0 O13 2.970459 1_555
Ba0 O3 3.093097 1_555
Ba0 O0 3.093097 1_555
Ba0 O3 3.093097 1_565
Ba0 O0 3.093097 1_655
Ba1 O9 2.773296 1_655
Ba1 O9 2.773296 1_555
Ba1 O9 2.773296 1_565
Ba1 O9 2.773296 1_665
Ba1 O12 2.970459 1_565
Ba1 O11 2.970459 1_555
Ba1 O12 2.970459 1_555
Ba1 O11 2.970459 1_655
Ba1 O1 3.093097 1_555
Ba1 O1 3.093097 1_655
Ba1 O2 3.093097 1_555
Ba1 O2 3.093097 1_565
Ca0 O13 2.655518 1_555
Ca0 O10 2.655518 1_555
Ca0 O13 2.655518 1_565
Ca0 O10 2.655518 1_655
Ca0 O4 2.768406 1_665
Ca0 O4 2.768406 1_655
Ca0 O4 2.768406 1_555
Ca0 O4 2.768406 1_565
Ca0 O7 2.809490 1_565
Ca0 O6 2.809490 1_555
Ca0 O7 2.809490 1_555
Ca0 O6 2.809490 1_655
Ca1 O12 2.655518 1_565
Ca1 O11 2.655518 1_555
Ca1 O12 2.655518 1_555
Ca1 O11 2.655518 1_655
Ca1 O5 2.768406 1_555
Ca1 O5 2.768406 1_655
Ca1 O5 2.768406 1_665
Ca1 O5 2.768406 1_565
Ca1 O6 2.809490 1_656
Ca1 O7 2.809490 1_566
Ca1 O6 2.809490 1_556
Ca1 O7 2.809490 1_556
Cu0 O0 1.982302 1_545
Cu0 O0 1.982302 1_555
Cu0 O3 1.982302 1_555
Cu0 O3 1.982302 1_455
Cu0 O8 2.262358 1_555
Cu1 O2 1.982302 1_455
Cu1 O2 1.982302 1_555
Cu1 O1 1.982302 1_545
Cu1 O1 1.982302 1_555
Cu1 O9 2.262358 1_555
O0 Tb0 2.408401 1_455
O0 Tb0 2.408401 1_555
O1 Tb0 2.408401 1_555
O1 Tb0 2.408401 1_455
O2 Tb0 2.408401 1_555
O2 Tb0 2.408401 1_545
O3 Tb0 2.408401 1_555
O3 Tb0 2.408401 1_545
O4 Ti2 1.932649 1_555
O4 Ti0 1.985109 1_555
O5 Ti2 1.932649 1_556
O5 Ti1 1.985109 1_555
O6 Ti2 1.956669 1_565
O6 Ti2 1.956669 1_555
O7 Ti2 1.956669 1_555
O7 Ti2 1.956669 1_655
O8 Ti0 1.944090 1_555
O9 Ti1 1.944090 1_555
O10 Ti0 1.959555 1_555
O10 Ti0 1.959555 1_565
O11 Ti1 1.959555 1_555
O11 Ti1 1.959555 1_565
O12 Ti1 1.959555 1_555
O12 Ti1 1.959555 1_655
O13 Ti0 1.959555 1_555
O13 Ti0 1.959555 1_655
