# generated using pymatgen
data_La5Mg41
_symmetry_space_group_name_H-M   'P 1'
_cell_length_a   11.69859864
_cell_length_b   11.69859864
_cell_length_c   11.69859864
_cell_angle_alpha   101.55629839
_cell_angle_beta   101.55629839
_cell_angle_gamma   126.82254239
_symmetry_Int_Tables_number   1
_chemical_formula_structural   La5Mg41
_chemical_formula_sum   'La5 Mg41'
_cell_volume   1146.08202104
_cell_formula_units_Z   1
loop_
 _symmetry_equiv_pos_site_id
 _symmetry_equiv_pos_as_xyz
  1  'x, y, z'
loop_
 _atom_site_type_symbol
 _atom_site_label
 _atom_site_symmetry_multiplicity
 _atom_site_fract_x
 _atom_site_fract_y
 _atom_site_fract_z
 _atom_site_occupancy
  La  La0  1  0.00000000  0.00000000  0.00000000  1
  La  La1  1  0.57097000  0.23687800  0.80784900  1
  La  La2  1  0.42903000  0.76312200  0.19215100  1
  La  La3  1  0.23687800  0.42903000  0.66590800  1
  La  La4  1  0.76312200  0.57097000  0.33409200  1
  Mg  Mg0  1  0.77861400  0.12189500  0.90050800  1
  Mg  Mg1  1  0.22138600  0.87810500  0.09949200  1
  Mg  Mg2  1  0.12189500  0.22138600  0.34328100  1
  Mg  Mg3  1  0.87810500  0.77861400  0.65671900  1
  Mg  Mg4  1  0.79185500  0.08000700  0.16584900  1
  Mg  Mg5  1  0.20814500  0.91999300  0.83415100  1
  Mg  Mg6  1  0.91415800  0.62600600  0.83415100  1
  Mg  Mg7  1  0.08000700  0.91415800  0.28815200  1
  Mg  Mg8  1  0.08584200  0.37399400  0.16584900  1
  Mg  Mg9  1  0.91999300  0.08584200  0.71184800  1
  Mg  Mg10  1  0.62600600  0.79185500  0.71184800  1
  Mg  Mg11  1  0.37399400  0.20814500  0.28815200  1
  Mg  Mg12  1  0.98996600  0.40243900  0.39240600  1
  Mg  Mg13  1  0.01003400  0.59756100  0.60759400  1
  Mg  Mg14  1  0.40243900  0.01003400  0.41247300  1
  Mg  Mg15  1  0.59756100  0.98996600  0.58752700  1
  Mg  Mg16  1  0.55431000  0.76717500  0.94067400  1
  Mg  Mg17  1  0.44569000  0.23282500  0.05932600  1
  Mg  Mg18  1  0.82650000  0.61363600  0.05932600  1
  Mg  Mg19  1  0.76717500  0.82650000  0.21286500  1
  Mg  Mg20  1  0.17350000  0.38636400  0.94067400  1
  Mg  Mg21  1  0.23282500  0.17350000  0.78713500  1
  Mg  Mg22  1  0.61363600  0.55431000  0.78713500  1
  Mg  Mg23  1  0.38636400  0.44569000  0.21286500  1
  Mg  Mg24  1  0.78326000  0.34101200  0.12427200  1
  Mg  Mg25  1  0.21674000  0.65898800  0.87572800  1
  Mg  Mg26  1  0.34101200  0.21674000  0.55775200  1
  Mg  Mg27  1  0.65898800  0.78326000  0.44224800  1
  Mg  Mg28  1  0.37405500  0.81770600  0.70948400  1
  Mg  Mg29  1  0.62594500  0.18229400  0.29051600  1
  Mg  Mg30  1  0.10822100  0.66457000  0.29051600  1
  Mg  Mg31  1  0.81770600  0.10822100  0.44365100  1
  Mg  Mg32  1  0.89177900  0.33543000  0.70948400  1
  Mg  Mg33  1  0.18229400  0.89177900  0.55634900  1
  Mg  Mg34  1  0.66457000  0.37405500  0.55634900  1
  Mg  Mg35  1  0.33543000  0.62594500  0.44365100  1
  Mg  Mg36  1  0.50000000  0.50000000  0.00000000  1
  Mg  Mg37  1  0.50000000  0.00000000  0.00000000  1
  Mg  Mg38  1  0.00000000  0.50000000  0.00000000  1
  Mg  Mg39  1  0.00000000  0.00000000  0.50000000  1
  Mg  Mg40  1  0.50000000  0.50000000  0.50000000  1
loop_
_geom_bond_atom_site_label_1
_geom_bond_atom_site_label_2
_geom_bond_distance
_geom_bond_site_symmetry_2
La0 Mg3 3.738979 1_444
La0 Mg2 3.738979 1_555
La0 Mg1 3.738982 1_545
La0 Mg0 3.738982 1_454
La0 Mg10 3.803532 1_444
La0 Mg11 3.803532 1_555
La0 Mg9 3.803532 1_454
La0 Mg8 3.803532 1_555
La0 Mg7 3.803532 1_545
La0 Mg4 3.803532 1_455
La0 Mg6 3.803532 1_444
La0 Mg5 3.803532 1_544
La0 Mg20 3.981898 1_554
La0 Mg18 3.981898 1_445
La0 Mg17 3.981900 1_555
La0 Mg23 3.981900 1_555
La0 Mg22 3.981900 1_444
La0 Mg16 3.981900 1_444
La0 Mg21 3.981902 1_554
La0 Mg19 3.981902 1_445
La1 Mg26 3.415172 1_555
La1 Mg24 3.498253 1_556
La1 Mg21 3.505028 1_555
La1 Mg22 3.505029 1_555
La1 Mg0 3.511565 1_555
La1 Mg17 3.536283 1_556
La1 Mg18 3.536289 1_556
La1 Mg15 3.674100 1_545
La1 Mg33 3.675188 1_545
La1 Mg34 3.675195 1_555
La1 Mg28 3.716684 1_545
La1 Mg32 3.716699 1_555
La1 Mg37 3.729251 1_556
La1 Mg38 3.729258 1_656
La1 Mg5 3.737997 1_545
La1 Mg6 3.738007 1_555
La2 Mg27 3.415172 1_555
La2 Mg25 3.498253 1_554
La2 Mg19 3.505028 1_555
La2 Mg23 3.505029 1_555
La2 Mg1 3.511565 1_555
La2 Mg16 3.536283 1_554
La2 Mg20 3.536289 1_554
La2 Mg14 3.674100 1_565
La2 Mg31 3.675188 1_565
La2 Mg35 3.675195 1_555
La2 Mg29 3.716684 1_565
La2 Mg30 3.716699 1_555
La2 Mg37 3.729251 1_565
La2 Mg38 3.729258 1_555
La2 Mg4 3.737997 1_565
La2 Mg8 3.738007 1_555
La3 Mg25 3.415164 1_555
La3 Mg26 3.498263 1_555
La3 Mg20 3.505021 1_555
La3 Mg16 3.505025 1_555
La3 Mg2 3.511570 1_555
La3 Mg21 3.536283 1_555
La3 Mg22 3.536294 1_555
La3 Mg12 3.674086 1_455
La3 Mg32 3.675180 1_455
La3 Mg28 3.675187 1_555
La3 Mg35 3.716685 1_555
La3 Mg31 3.716685 1_455
La3 Mg39 3.729260 1_555
La3 Mg40 3.729260 1_555
La3 Mg10 3.738003 1_555
La3 Mg9 3.738003 1_455
La4 Mg24 3.415164 1_555
La4 Mg27 3.498263 1_555
La4 Mg18 3.505021 1_555
La4 Mg17 3.505025 1_555
La4 Mg3 3.511570 1_555
La4 Mg19 3.536283 1_555
La4 Mg23 3.536294 1_555
La4 Mg13 3.674086 1_655
La4 Mg30 3.675180 1_655
La4 Mg29 3.675187 1_555
La4 Mg34 3.716685 1_555
La4 Mg33 3.716685 1_655
La4 Mg40 3.729260 1_555
La4 Mg39 3.729260 1_665
La4 Mg11 3.738003 1_555
La4 Mg7 3.738003 1_655
Mg0 Mg9 3.116128 1_555
Mg0 Mg10 3.116133 1_545
Mg0 Mg8 3.226055 1_656
Mg0 Mg4 3.226060 1_556
Mg0 Mg24 3.242491 1_556
Mg0 Mg38 3.259665 1_656
Mg0 Mg37 3.259673 1_556
Mg0 Mg15 3.314298 1_545
Mg0 Mg28 3.527711 1_545
Mg0 Mg32 3.527711 1_555
Mg0 Mg20 3.542516 1_655
Mg0 Mg16 3.542516 1_545
Mg1 Mg7 3.116128 1_555
Mg1 Mg11 3.116133 1_565
Mg1 Mg6 3.226055 1_454
Mg1 Mg5 3.226060 1_554
Mg1 Mg25 3.242491 1_554
Mg1 Mg38 3.259665 1_555
Mg1 Mg37 3.259673 1_565
Mg1 Mg14 3.314298 1_565
Mg1 Mg30 3.527711 1_555
Mg1 Mg29 3.527711 1_565
Mg1 Mg18 3.542516 1_455
Mg1 Mg17 3.542516 1_565
Mg2 Mg8 3.116137 1_555
Mg2 Mg4 3.116137 1_455
Mg2 Mg7 3.226048 1_545
Mg2 Mg26 3.242483 1_555
Mg2 Mg39 3.259665 1_555
Mg2 Mg40 3.259665 1_555
Mg2 Mg31 3.527711 1_455
Mg2 Mg35 3.527711 1_555
Mg2 Mg23 3.542510 1_555
Mg3 Mg5 3.116137 1_655
Mg3 Mg6 3.116137 1_555
Mg3 Mg9 3.226048 1_565
Mg3 Mg39 3.259665 1_665
Mg3 Mg40 3.259665 1_555
Mg3 Mg33 3.527711 1_655
Mg3 Mg34 3.527711 1_555
Mg4 Mg8 3.078688 1_655
Mg5 Mg6 3.078688 1_455
Mg10 Mg16 2.978567 1_555
Mg10 Mg22 3.011455 1_555
Mg10 Mg40 3.014217 1_555
Mg10 Mg9 3.078688 1_565
Mg10 Mg15 3.111010 1_555
Mg10 Mg28 3.133526 1_555
Mg10 Mg3 3.226048 1_555
Mg10 Mg27 3.242431 1_555
Mg10 Mg35 3.247290 1_555
Mg11 Mg17 2.978567 1_555
Mg11 Mg23 3.011455 1_555
Mg11 Mg40 3.014217 1_555
Mg11 Mg7 3.078688 1_545
Mg11 Mg14 3.111010 1_555
Mg11 Mg29 3.133526 1_555
Mg11 Mg2 3.226048 1_555
Mg11 Mg26 3.242431 1_555
Mg11 Mg34 3.247290 1_555
Mg12 Mg13 2.901969 1_655
Mg12 Mg31 3.043662 1_555
Mg12 Mg35 3.043672 1_655
Mg12 Mg4 3.111015 1_555
Mg12 Mg8 3.111020 1_655
Mg12 Mg30 3.127055 1_655
Mg12 Mg29 3.127055 1_555
Mg12 Mg24 3.190324 1_555
Mg12 Mg2 3.314310 1_655
Mg13 Mg33 3.043662 1_555
Mg13 Mg34 3.043672 1_455
Mg13 Mg5 3.111015 1_555
Mg13 Mg6 3.111020 1_455
Mg13 Mg28 3.127055 1_555
Mg13 Mg32 3.127055 1_455
Mg13 Mg25 3.190324 1_555
Mg13 Mg3 3.314310 1_455
Mg14 Mg15 2.901985 1_545
Mg14 Mg29 3.043660 1_555
Mg14 Mg30 3.043669 1_545
Mg14 Mg7 3.111010 1_545
Mg14 Mg33 3.127055 1_545
Mg14 Mg34 3.127055 1_555
Mg14 Mg26 3.190315 1_555
Mg15 Mg28 3.043660 1_555
Mg15 Mg32 3.043669 1_565
Mg15 Mg9 3.111010 1_565
Mg15 Mg35 3.127055 1_555
Mg15 Mg31 3.127055 1_565
Mg15 Mg27 3.190315 1_555
Mg16 Mg4 3.011455 1_566
Mg16 Mg36 3.052865 1_556
Mg16 Mg37 3.130120 1_566
Mg16 Mg25 3.193100 1_555
Mg16 Mg22 3.269281 1_555
Mg16 Mg19 3.269286 1_556
Mg16 Mg28 3.458435 1_555
Mg17 Mg5 3.011455 1_544
Mg17 Mg36 3.052865 1_555
Mg17 Mg37 3.130120 1_555
Mg17 Mg24 3.193100 1_555
Mg17 Mg23 3.269281 1_555
Mg17 Mg21 3.269286 1_554
Mg17 Mg29 3.458435 1_555
Mg18 Mg7 2.978568 1_655
Mg18 Mg6 3.011461 1_554
Mg18 Mg36 3.052854 1_555
Mg18 Mg38 3.130132 1_655
Mg18 Mg24 3.193105 1_555
Mg18 Mg19 3.269263 1_555
Mg18 Mg22 3.269276 1_554
Mg18 Mg30 3.458441 1_655
Mg19 Mg4 2.978578 1_565
Mg19 Mg7 3.011450 1_655
Mg19 Mg36 3.052860 1_555
Mg19 Mg39 3.130119 1_665
Mg19 Mg27 3.193099 1_555
Mg19 Mg31 3.458435 1_565
Mg19 Mg2 3.542516 1_665
Mg20 Mg9 2.978568 1_455
Mg20 Mg8 3.011461 1_556
Mg20 Mg36 3.052854 1_556
Mg20 Mg38 3.130132 1_556
Mg20 Mg25 3.193105 1_555
Mg20 Mg21 3.269263 1_555
Mg20 Mg23 3.269276 1_556
Mg20 Mg32 3.458441 1_455
Mg21 Mg5 2.978578 1_545
Mg21 Mg9 3.011450 1_455
Mg21 Mg36 3.052860 1_556
Mg21 Mg39 3.130119 1_555
Mg21 Mg26 3.193099 1_555
Mg21 Mg33 3.458435 1_545
Mg21 Mg3 3.542516 1_445
Mg22 Mg6 2.978567 1_555
Mg22 Mg36 3.052865 1_556
Mg22 Mg40 3.130120 1_555
Mg22 Mg26 3.193100 1_555
Mg22 Mg34 3.458426 1_555
Mg22 Mg3 3.542510 1_555
Mg23 Mg8 2.978567 1_555
Mg23 Mg36 3.052865 1_555
Mg23 Mg40 3.130120 1_555
Mg23 Mg27 3.193100 1_555
Mg23 Mg35 3.458426 1_555
Mg24 Mg37 2.984852 1_555
Mg24 Mg38 2.984852 1_655
Mg24 Mg30 3.066212 1_655
Mg24 Mg29 3.066221 1_555
Mg24 Mg8 3.242431 1_655
Mg24 Mg4 3.242431 1_555
Mg25 Mg37 2.984852 1_566
Mg25 Mg38 2.984852 1_556
Mg25 Mg32 3.066212 1_455
Mg25 Mg28 3.066221 1_555
Mg25 Mg5 3.242431 1_555
Mg25 Mg6 3.242431 1_455
Mg26 Mg39 2.984852 1_555
Mg26 Mg40 2.984852 1_555
Mg26 Mg33 3.066211 1_545
Mg26 Mg34 3.066211 1_555
Mg26 Mg7 3.242431 1_545
Mg27 Mg40 2.984852 1_555
Mg27 Mg39 2.984852 1_665
Mg27 Mg31 3.066211 1_565
Mg27 Mg35 3.066211 1_555
Mg27 Mg9 3.242431 1_565
Mg27 Mg3 3.242483 1_555
Mg28 Mg37 3.097231 1_566
Mg28 Mg35 3.214771 1_555
Mg28 Mg33 3.214775 1_555
Mg28 Mg5 3.247296 1_555
Mg29 Mg37 3.097231 1_555
Mg29 Mg34 3.214771 1_555
Mg29 Mg31 3.214775 1_555
Mg29 Mg4 3.247296 1_555
Mg30 Mg38 3.097231 1_555
Mg30 Mg7 3.133530 1_555
Mg30 Mg33 3.214771 1_555
Mg30 Mg35 3.214775 1_555
Mg30 Mg8 3.247293 1_555
Mg31 Mg39 3.097221 1_655
Mg31 Mg4 3.133528 1_555
Mg31 Mg32 3.214771 1_555
Mg31 Mg9 3.247290 1_555
Mg32 Mg38 3.097231 1_656
Mg32 Mg9 3.133530 1_555
Mg32 Mg34 3.214775 1_555
Mg32 Mg6 3.247293 1_555
Mg33 Mg39 3.097221 1_565
Mg33 Mg5 3.133528 1_555
Mg33 Mg7 3.247290 1_555
Mg34 Mg40 3.097221 1_555
Mg34 Mg6 3.133528 1_555
Mg35 Mg40 3.097221 1_555
Mg35 Mg8 3.133528 1_555
Mg37 Mg4 3.014217 1_555
Mg37 Mg5 3.014217 1_544
Mg38 Mg6 3.014217 1_454
Mg38 Mg8 3.014217 1_555
Mg39 Mg7 3.014217 1_545
Mg39 Mg9 3.014217 1_455
