# generated using pymatgen
data_Mg7Zn
_symmetry_space_group_name_H-M   'P 1'
_cell_length_a   6.28003875
_cell_length_b   6.28003875
_cell_length_c   4.93159268
_cell_angle_alpha   90.00000000
_cell_angle_beta   90.00000000
_cell_angle_gamma   120.00014786
_symmetry_Int_Tables_number   1
_chemical_formula_structural   Mg7Zn
_chemical_formula_sum   'Mg7 Zn1'
_cell_volume   168.43868087
_cell_formula_units_Z   1
loop_
 _symmetry_equiv_pos_site_id
 _symmetry_equiv_pos_as_xyz
  1  'x, y, z'
loop_
 _atom_site_type_symbol
 _atom_site_label
 _atom_site_symmetry_multiplicity
 _atom_site_fract_x
 _atom_site_fract_y
 _atom_site_fract_z
 _atom_site_occupancy
  Mg  Mg0  1  0.99951046  0.49975573  0.50000000  1
  Mg  Mg1  1  0.50024527  0.49975473  0.50000000  1
  Mg  Mg2  1  0.50024427  0.00048954  0.50000000  1
  Mg  Mg3  1  0.16212370  0.32424640  0.00000000  1
  Mg  Mg4  1  0.16212270  0.83787730  -0.00000000  1
  Mg  Mg5  1  0.67575360  0.83787630  0.00000000  1
  Mg  Mg6  1  0.66666700  0.33333300  -0.00000000  1
  Zn  Zn0  1  -0.00000000  0.00000000  0.50000000  1
loop_
_geom_bond_atom_site_label_1
_geom_bond_atom_site_label_2
_geom_bond_distance
_geom_bond_site_symmetry_2
Mg0 Mg6 3.058932 1_556
Mg0 Mg6 3.058932 1_555
Mg0 Mg4 3.076273 1_656
Mg0 Mg4 3.076273 1_655
Mg0 Mg3 3.076279 1_655
Mg0 Mg3 3.076279 1_656
Mg0 Mg1 3.135402 1_555
Mg0 Mg2 3.135404 1_555
Mg0 Zn0 3.140017 1_665
Mg0 Zn0 3.140024 1_655
Mg0 Mg2 3.144621 1_665
Mg0 Mg1 3.144637 1_655
Mg1 Mg6 3.058934 1_556
Mg1 Mg6 3.058934 1_555
Mg1 Mg5 3.076273 1_556
Mg1 Mg5 3.076273 1_555
Mg1 Mg3 3.076273 1_556
Mg1 Mg3 3.076273 1_555
Mg1 Mg2 3.135402 1_555
Mg1 Zn0 3.140013 1_555
Mg1 Zn0 3.140013 1_665
Mg1 Mg2 3.144637 1_565
Mg2 Mg6 3.058932 1_556
Mg2 Mg6 3.058932 1_555
Mg2 Mg4 3.076273 1_545
Mg2 Mg4 3.076273 1_546
Mg2 Mg5 3.076279 1_546
Mg2 Mg5 3.076279 1_545
Mg2 Zn0 3.140017 1_555
Mg2 Zn0 3.140024 1_655
Mg3 Zn0 3.031496 1_555
Mg3 Zn0 3.031496 1_554
Mg3 Mg4 3.054414 1_545
Mg3 Mg5 3.054416 1_445
Mg3 Mg6 3.140408 1_555
Mg3 Mg6 3.140408 1_455
Mg3 Mg5 3.225608 1_555
Mg3 Mg4 3.225625 1_555
Mg4 Zn0 3.031495 1_565
Mg4 Zn0 3.031495 1_564
Mg4 Mg5 3.054414 1_455
Mg4 Mg6 3.140401 1_455
Mg4 Mg6 3.140401 1_565
Mg4 Mg5 3.225625 1_555
Mg5 Zn0 3.031496 1_665
Mg5 Zn0 3.031496 1_664
Mg5 Mg6 3.140408 1_555
Mg5 Mg6 3.140408 1_565
