# generated using pymatgen
data_LaMg6Bi
_symmetry_space_group_name_H-M   'P 1'
_cell_length_a   7.03823169
_cell_length_b   7.03823169
_cell_length_c   5.33476200
_cell_angle_alpha   90.00000000
_cell_angle_beta   90.00000000
_cell_angle_gamma   126.17723839
_symmetry_Int_Tables_number   1
_chemical_formula_structural   LaMg6Bi
_chemical_formula_sum   'La1 Mg6 Bi1'
_cell_volume   213.31459155
_cell_formula_units_Z   1
loop_
 _symmetry_equiv_pos_site_id
 _symmetry_equiv_pos_as_xyz
  1  'x, y, z'
loop_
 _atom_site_type_symbol
 _atom_site_label
 _atom_site_symmetry_multiplicity
 _atom_site_fract_x
 _atom_site_fract_y
 _atom_site_fract_z
 _atom_site_occupancy
  La  La0  1  0.82282800  0.17717200  0.50000000  1
  Mg  Mg0  1  0.32996500  0.17178900  0.50000000  1
  Mg  Mg1  1  0.82821100  0.67003500  0.50000000  1
  Mg  Mg2  1  0.18346500  0.31731800  0.00000000  1
  Mg  Mg3  1  0.68268200  0.81653500  0.00000000  1
  Mg  Mg4  1  0.65471400  0.34528600  0.00000000  1
  Mg  Mg5  1  0.16508000  0.83492000  0.00000000  1
  Bi  Bi0  1  0.33305800  0.66694200  0.50000000  1
loop_
_geom_bond_atom_site_label_1
_geom_bond_atom_site_label_2
_geom_bond_distance
_geom_bond_site_symmetry_2
La0 Mg4 3.401145 1_556
La0 Mg4 3.401145 1_555
La0 Mg2 3.402176 1_656
La0 Mg2 3.402176 1_655
La0 Mg3 3.402176 1_545
La0 Mg3 3.402176 1_546
La0 Mg1 3.446656 1_555
La0 Mg0 3.446656 1_555
La0 Mg0 3.591842 1_655
La0 Mg1 3.591842 1_545
Mg0 Mg1 3.174412 1_555
Mg0 Mg1 3.196762 1_445
Mg0 Mg2 3.236362 1_556
Mg0 Mg2 3.236362 1_555
Mg0 Mg4 3.245805 1_556
Mg0 Mg4 3.245805 1_555
Mg0 Mg5 3.291626 1_545
Mg0 Mg5 3.291626 1_546
Mg1 Mg3 3.236362 1_555
Mg1 Mg3 3.236362 1_556
Mg1 Mg4 3.245805 1_556
Mg1 Mg4 3.245805 1_555
Mg1 Mg5 3.291626 1_655
Mg1 Mg5 3.291626 1_656
Mg2 Mg3 3.180598 1_555
Mg2 Mg3 3.190576 1_445
Mg2 Mg4 3.204507 1_555
Mg2 Mg5 3.320490 1_545
Mg3 Mg4 3.204507 1_555
Mg3 Mg5 3.320490 1_655
Mg4 Mg5 3.188243 1_545
Mg4 Mg5 3.188243 1_655
Bi0 La0 3.188174 1_455
Bi0 La0 3.188174 1_565
Bi0 Mg2 3.349628 1_556
Bi0 Mg2 3.349628 1_555
Bi0 Mg3 3.349628 1_555
Bi0 Mg3 3.349628 1_556
Bi0 Mg5 3.400086 1_555
Bi0 Mg5 3.400086 1_556
Bi0 Mg0 3.472196 1_555
Bi0 Mg1 3.472196 1_555
Bi0 Mg1 3.566124 1_455
Bi0 Mg0 3.566124 1_565
