# generated using pymatgen
data_LaMnNi4
_symmetry_space_group_name_H-M   'P 1'
_cell_length_a   5.07358209
_cell_length_b   5.07358209
_cell_length_c   4.00887200
_cell_angle_alpha   90.00000000
_cell_angle_beta   90.00000000
_cell_angle_gamma   120.00000113
_symmetry_Int_Tables_number   1
_chemical_formula_structural   LaMnNi4
_chemical_formula_sum   'La1 Mn1 Ni4'
_cell_volume   89.36803300
_cell_formula_units_Z   1
loop_
 _symmetry_equiv_pos_site_id
 _symmetry_equiv_pos_as_xyz
  1  'x, y, z'
loop_
 _atom_site_type_symbol
 _atom_site_label
 _atom_site_symmetry_multiplicity
 _atom_site_fract_x
 _atom_site_fract_y
 _atom_site_fract_z
 _atom_site_occupancy
  La  La0  1  0.33333300  0.66666700  0.00000000  1
  Mn  Mn0  1  0.66666700  0.33333300  0.00000000  1
  Ni  Ni0  1  0.00000000  0.00000000  0.00000000  1
  Ni  Ni1  1  0.33065400  0.16532700  0.50000000  1
  Ni  Ni2  1  0.83467300  0.16532700  0.50000000  1
  Ni  Ni3  1  0.83467300  0.66934600  0.50000000  1
loop_
_geom_bond_atom_site_label_1
_geom_bond_atom_site_label_2
_geom_bond_distance
_geom_bond_site_symmetry_2
La0 Mn0 2.929231 1_455
La0 Mn0 2.929231 1_565
La0 Ni0 2.929231 1_565
La0 Ni0 2.929235 1_555
La0 Ni0 2.929235 1_665
La0 Mn0 2.929240 1_555
La0 Ni3 3.233141 1_454
La0 Ni1 3.233141 1_564
La0 Ni3 3.233141 1_455
La0 Ni1 3.233141 1_565
La0 Ni2 3.233143 1_455
La0 Ni2 3.233143 1_454
La0 Ni2 3.233143 1_565
La0 Ni2 3.233143 1_564
La0 Ni3 3.233145 1_555
La0 Ni1 3.233145 1_555
La0 Ni1 3.233145 1_554
La0 Ni3 3.233145 1_554
Mn0 Ni2 2.489474 1_555
Mn0 Ni2 2.489474 1_554
Mn0 Ni1 2.489477 1_555
Mn0 Ni3 2.489477 1_554
Mn0 Ni1 2.489477 1_554
Mn0 Ni3 2.489477 1_555
Mn0 Ni0 2.929231 1_655
Mn0 Ni0 2.929235 1_555
Mn0 Ni0 2.929235 1_665
Ni0 Ni1 2.475585 1_555
Ni0 Ni3 2.475585 1_444
Ni0 Ni3 2.475585 1_445
Ni0 Ni1 2.475585 1_554
Ni0 Ni2 2.475585 1_455
Ni0 Ni2 2.475585 1_454
Ni1 Ni3 2.516400 1_445
Ni1 Ni2 2.516400 1_455
Ni1 Ni3 2.557182 1_555
Ni1 Ni2 2.557182 1_555
Ni2 Ni3 2.516400 1_545
Ni2 Ni3 2.557182 1_555
