# generated using pymatgen
data_NaLaSiO4
_symmetry_space_group_name_H-M   'P 1'
_cell_length_a   5.57388200
_cell_length_b   9.48616500
_cell_length_c   21.61560000
_cell_angle_alpha   90.00000000
_cell_angle_beta   90.00000000
_cell_angle_gamma   90.00000000
_symmetry_Int_Tables_number   1
_chemical_formula_structural   NaLaSiO4
_chemical_formula_sum   'Na12 La12 Si12 O48'
_cell_volume   1142.91975612
_cell_formula_units_Z   12
loop_
 _symmetry_equiv_pos_site_id
 _symmetry_equiv_pos_as_xyz
  1  'x, y, z'
loop_
 _atom_site_type_symbol
 _atom_site_label
 _atom_site_symmetry_multiplicity
 _atom_site_fract_x
 _atom_site_fract_y
 _atom_site_fract_z
 _atom_site_occupancy
  Na  Na0  1  0.01441900  0.07033100  0.55827600  1
  Na  Na1  1  0.51441900  0.92966900  0.44172400  1
  Na  Na2  1  0.51441900  0.57033100  0.94172400  1
  Na  Na3  1  0.01441900  0.42966900  0.05827600  1
  Na  Na4  1  0.05750500  0.42381400  0.72474600  1
  Na  Na5  1  0.55750500  0.57618600  0.27525400  1
  Na  Na6  1  0.55750500  0.92381400  0.77525400  1
  Na  Na7  1  0.05750500  0.07618600  0.22474600  1
  Na  Na8  1  0.04667100  0.07249000  0.89220500  1
  Na  Na9  1  0.54667100  0.92751000  0.10779500  1
  Na  Na10  1  0.54667100  0.57249000  0.60779500  1
  Na  Na11  1  0.04667100  0.42751000  0.39220500  1
  La  La0  1  0.51084900  0.30266200  0.49996600  1
  La  La1  1  0.01084900  0.69733800  0.50003400  1
  La  La2  1  0.01084900  0.80266200  0.00003400  1
  La  La3  1  0.51084900  0.19733800  0.99996600  1
  La  La4  1  0.56588600  0.19688500  0.66659800  1
  La  La5  1  0.06588600  0.80311500  0.33340200  1
  La  La6  1  0.06588600  0.69688500  0.83340200  1
  La  La7  1  0.56588600  0.30311500  0.16659800  1
  La  La8  1  0.55356900  0.30076900  0.83303600  1
  La  La9  1  0.05356900  0.69923100  0.16696400  1
  La  La10  1  0.05356900  0.80076900  0.66696400  1
  La  La11  1  0.55356900  0.19923100  0.33303600  1
  Si  Si0  1  0.04906600  0.41569600  0.57730900  1
  Si  Si1  1  0.54906600  0.58430400  0.42269100  1
  Si  Si2  1  0.54906600  0.91569600  0.92269100  1
  Si  Si3  1  0.04906600  0.08430400  0.07730900  1
  Si  Si4  1  0.04974700  0.08242400  0.74391900  1
  Si  Si5  1  0.54974700  0.91757600  0.25608100  1
  Si  Si6  1  0.54974700  0.58242400  0.75608100  1
  Si  Si7  1  0.04974700  0.41757600  0.24391900  1
  Si  Si8  1  0.02153300  0.41491900  0.90948000  1
  Si  Si9  1  0.52153300  0.58508100  0.09052000  1
  Si  Si10  1  0.52153300  0.91491900  0.59052000  1
  Si  Si11  1  0.02153300  0.08508100  0.40948000  1
  O  O0  1  0.11201000  0.43792300  0.50301100  1
  O  O1  1  0.61201000  0.56207700  0.49698900  1
  O  O2  1  0.61201000  0.93792300  0.99698900  1
  O  O3  1  0.11201000  0.06207700  0.00301100  1
  O  O4  1  0.99706400  0.57300400  0.94106200  1
  O  O5  1  0.49706400  0.42699600  0.05893800  1
  O  O6  1  0.49706400  0.07300400  0.55893800  1
  O  O7  1  0.99706400  0.92699600  0.44106200  1
  O  O8  1  0.80042400  0.31128700  0.93129100  1
  O  O9  1  0.30042400  0.68871300  0.06870900  1
  O  O10  1  0.30042400  0.81128700  0.56870900  1
  O  O11  1  0.80042400  0.18871300  0.43129100  1
  O  O12  1  0.81912500  0.30891700  0.58584200  1
  O  O13  1  0.31912500  0.69108300  0.41415800  1
  O  O14  1  0.31912500  0.80891700  0.91415800  1
  O  O15  1  0.81912500  0.19108300  0.08584200  1
  O  O16  1  0.29678600  0.34937600  0.60743300  1
  O  O17  1  0.79678600  0.65062400  0.39256700  1
  O  O18  1  0.79678600  0.84937600  0.89256700  1
  O  O19  1  0.29678600  0.15062400  0.10743300  1
  O  O20  1  0.99177400  0.06380000  0.66932100  1
  O  O21  1  0.49177400  0.93620000  0.33067900  1
  O  O22  1  0.49177400  0.56380000  0.83067900  1
  O  O23  1  0.99177400  0.43620000  0.16932100  1
  O  O24  1  0.27294900  0.19358100  0.75473500  1
  O  O25  1  0.77294900  0.80641900  0.24526500  1
  O  O26  1  0.77294900  0.69358100  0.74526500  1
  O  O27  1  0.27294900  0.30641900  0.25473500  1
  O  O28  1  0.11510400  0.92528300  0.77274900  1
  O  O29  1  0.61510400  0.07471700  0.22725100  1
  O  O30  1  0.61510400  0.42528300  0.72725100  1
  O  O31  1  0.11510400  0.57471700  0.27274900  1
  O  O32  1  0.79728100  0.14188200  0.77382900  1
  O  O33  1  0.29728100  0.85811800  0.22617100  1
  O  O34  1  0.29728100  0.64188200  0.72617100  1
  O  O35  1  0.79728100  0.35811800  0.27382900  1
  O  O36  1  0.99248100  0.43583900  0.83409800  1
  O  O37  1  0.49248100  0.56416100  0.16590200  1
  O  O38  1  0.49248100  0.93583900  0.66590200  1
  O  O39  1  0.99248100  0.06416100  0.33409800  1
  O  O40  1  0.98841600  0.57189900  0.60686400  1
  O  O41  1  0.48841600  0.42810100  0.39313600  1
  O  O42  1  0.48841600  0.07189900  0.89313600  1
  O  O43  1  0.98841600  0.92810100  0.10686400  1
  O  O44  1  0.28280900  0.34545100  0.92672500  1
  O  O45  1  0.78280900  0.65454900  0.07327500  1
  O  O46  1  0.78280900  0.84545100  0.57327500  1
  O  O47  1  0.28280900  0.15454900  0.42672500  1
loop_
_geom_bond_atom_site_label_1
_geom_bond_atom_site_label_2
_geom_bond_distance
_geom_bond_site_symmetry_2
Na0 O20 2.404419 1_455
Na0 O46 2.514450 1_445
Na0 O12 2.581153 1_455
Na0 O6 2.690364 1_555
Na0 O7 2.877069 1_445
Na0 O6 2.883823 1_455
Na0 O10 2.937803 1_545
Na1 O21 2.404419 1_555
Na1 O47 2.514450 1_565
Na1 O13 2.581153 1_555
Na1 O7 2.690364 1_555
Na1 O6 2.877069 1_565
Na1 O7 2.883823 1_455
Na1 O11 2.937803 1_565
Na2 O22 2.404419 1_555
Na2 O44 2.514450 1_555
Na2 O14 2.581153 1_555
Na2 O4 2.690364 1_555
Na2 O5 2.877069 1_556
Na2 O4 2.883823 1_455
Na2 O8 2.937803 1_555
Na3 O23 2.404419 1_455
Na3 O45 2.514450 1_455
Na3 O15 2.581153 1_455
Na3 O5 2.690364 1_555
Na3 O4 2.877069 1_454
Na3 O5 2.883823 1_455
Na3 O9 2.937803 1_555
Na4 O36 2.394054 1_455
Na4 O34 2.462999 1_555
Na4 O30 2.466525 1_455
Na4 O24 2.575315 1_555
Na5 O37 2.394054 1_555
Na5 O35 2.462999 1_555
Na5 O31 2.466525 1_555
Na5 O25 2.575315 1_555
Na6 O38 2.394054 1_555
Na6 O32 2.462999 1_565
Na6 O28 2.466525 1_555
Na6 O26 2.575315 1_555
Na7 O39 2.394054 1_455
Na7 O33 2.462999 1_545
Na7 O29 2.466525 1_455
Na7 O27 2.575315 1_555
Na8 O3 2.424681 1_556
Na8 O42 2.462323 1_555
Na8 O18 2.533691 1_445
Na8 O8 2.780133 1_455
Na9 O2 2.424681 1_554
Na9 O43 2.462323 1_555
Na9 O19 2.533691 1_565
Na9 O9 2.780133 1_555
Na10 O1 2.424681 1_555
Na10 O40 2.462323 1_555
Na10 O16 2.533691 1_555
Na10 O10 2.780133 1_555
Na11 O0 2.424681 1_555
Na11 O41 2.462323 1_555
Na11 O17 2.533691 1_455
Na11 O11 2.780133 1_455
La0 O11 2.444832 1_555
La0 O47 2.469021 1_555
La0 O6 2.525269 1_555
La0 O1 2.525446 1_555
La0 O12 2.530170 1_555
La0 O0 2.567643 1_555
La0 O41 2.600761 1_555
La0 O16 2.648805 1_555
La1 O10 2.444832 1_555
La1 O46 2.469021 1_455
La1 O7 2.525269 1_455
La1 O0 2.525446 1_555
La1 O13 2.530170 1_555
La1 O1 2.567643 1_455
La1 O40 2.600761 1_455
La1 O17 2.648805 1_455
La2 O9 2.444832 1_555
La2 O45 2.469021 1_455
La2 O4 2.525269 1_454
La2 O3 2.525446 1_565
La2 O14 2.530170 1_554
La2 O2 2.567643 1_454
La2 O43 2.600761 1_455
La2 O18 2.648805 1_454
La3 O8 2.444832 1_555
La3 O44 2.469021 1_555
La3 O5 2.525269 1_556
La3 O2 2.525446 1_545
La3 O15 2.530170 1_556
La3 O3 2.567643 1_556
La3 O42 2.600761 1_555
La3 O19 2.648805 1_556
La4 O16 2.444968 1_555
La4 O12 2.483733 1_555
La4 O24 2.509291 1_555
La4 O38 2.509944 1_545
La4 O30 2.547226 1_555
La4 O6 2.635091 1_555
La4 O20 2.689321 1_555
La4 O32 2.703374 1_555
La5 O17 2.444968 1_455
La5 O13 2.483733 1_555
La5 O25 2.509291 1_455
La5 O39 2.509944 1_465
La5 O31 2.547226 1_555
La5 O7 2.635091 1_455
La5 O21 2.689321 1_555
La5 O33 2.703374 1_555
La6 O18 2.444968 1_455
La6 O14 2.483733 1_555
La6 O26 2.509291 1_455
La6 O36 2.509944 1_455
La6 O28 2.547226 1_555
La6 O4 2.635091 1_455
La6 O22 2.689321 1_555
La6 O34 2.703374 1_555
La7 O19 2.444968 1_555
La7 O15 2.483733 1_555
La7 O27 2.509291 1_555
La7 O37 2.509944 1_555
La7 O29 2.547226 1_555
La7 O5 2.635091 1_555
La7 O23 2.689321 1_555
La7 O35 2.703374 1_555
La8 O32 2.398942 1_555
La8 O24 2.518941 1_555
La8 O22 2.519332 1_555
La8 O8 2.532561 1_555
La8 O42 2.556014 1_555
La8 O44 2.560957 1_555
La8 O30 2.596411 1_555
La8 O36 2.761763 1_555
La9 O33 2.398942 1_555
La9 O25 2.518941 1_455
La9 O23 2.519332 1_455
La9 O9 2.532561 1_555
La9 O43 2.556014 1_455
La9 O45 2.560957 1_455
La9 O31 2.596411 1_555
La9 O37 2.761763 1_555
La10 O34 2.398942 1_555
La10 O26 2.518941 1_455
La10 O20 2.519332 1_465
La10 O10 2.532561 1_555
La10 O40 2.556014 1_455
La10 O46 2.560957 1_455
La10 O28 2.596411 1_555
La10 O38 2.761763 1_555
La11 O35 2.398942 1_555
La11 O27 2.518941 1_555
La11 O21 2.519332 1_545
La11 O11 2.532561 1_555
La11 O41 2.556014 1_555
La11 O47 2.560957 1_555
La11 O29 2.596411 1_555
La11 O39 2.761763 1_555
O0 Si0 1.657338 1_555
O1 Si1 1.657338 1_555
O2 Si2 1.657338 1_555
O3 Si3 1.657338 1_555
O4 Si8 1.653328 1_655
O5 Si9 1.653328 1_555
O6 Si10 1.653328 1_545
O7 Si11 1.653328 1_665
O8 Si8 1.645478 1_655
O9 Si9 1.645478 1_555
O10 Si10 1.645478 1_555
O11 Si11 1.645478 1_655
O12 Si0 1.643988 1_655
O13 Si1 1.643988 1_555
O14 Si2 1.643988 1_555
O15 Si3 1.643988 1_655
O16 Si0 1.651149 1_555
O17 Si1 1.651149 1_555
O18 Si2 1.651149 1_555
O19 Si3 1.651149 1_555
O20 Si4 1.654002 1_655
O21 Si5 1.654002 1_555
O22 Si6 1.654002 1_555
O23 Si7 1.654002 1_655
O24 Si4 1.647520 1_555
O25 Si5 1.647520 1_555
O26 Si6 1.647520 1_555
O27 Si7 1.647520 1_555
O28 Si4 1.656244 1_565
O29 Si5 1.656244 1_545
O30 Si6 1.656244 1_555
O31 Si7 1.656244 1_555
O32 Si4 1.648143 1_655
O33 Si5 1.648143 1_555
O34 Si6 1.648143 1_555
O35 Si7 1.648143 1_655
O36 Si8 1.649436 1_655
O37 Si9 1.649436 1_555
O38 Si10 1.649436 1_555
O39 Si11 1.649436 1_655
O40 Si0 1.648649 1_655
O41 Si1 1.648649 1_555
O42 Si2 1.648649 1_545
O43 Si3 1.648649 1_665
O44 Si8 1.641367 1_555
O45 Si9 1.641367 1_555
O46 Si10 1.641367 1_555
O47 Si11 1.641367 1_555
