# generated using pymatgen
data_Al5(CoO4)3
_symmetry_space_group_name_H-M   'P 1'
_cell_length_a   5.72949037
_cell_length_b   5.72949037
_cell_length_c   14.00632400
_cell_angle_alpha   89.80522821
_cell_angle_beta   89.80522821
_cell_angle_gamma   60.08687267
_symmetry_Int_Tables_number   1
_chemical_formula_structural   Al5(CoO4)3
_chemical_formula_sum   'Al10 Co6 O24'
_cell_volume   398.53177091
_cell_formula_units_Z   2
loop_
 _symmetry_equiv_pos_site_id
 _symmetry_equiv_pos_as_xyz
  1  'x, y, z'
loop_
 _atom_site_type_symbol
 _atom_site_label
 _atom_site_symmetry_multiplicity
 _atom_site_fract_x
 _atom_site_fract_y
 _atom_site_fract_z
 _atom_site_occupancy
  Al  Al0  1  0.82627300  0.34058900  0.79522500  1
  Al  Al1  1  0.82887400  0.82887400  0.79451300  1
  Al  Al2  1  0.34058900  0.82627300  0.79522500  1
  Al  Al3  1  0.17001600  0.66332100  0.45949800  1
  Al  Al4  1  0.00540000  0.00540000  0.62367800  1
  Al  Al5  1  0.66332100  0.17001600  0.45949800  1
  Al  Al6  1  0.49812200  0.00516000  0.11987300  1
  Al  Al7  1  0.32794000  0.32794000  0.29350900  1
  Al  Al8  1  0.49763300  0.49763300  0.12038800  1
  Al  Al9  1  0.00516000  0.49812200  0.11987300  1
  Co  Co0  1  0.00123800  0.00123800  0.99620700  1
  Co  Co1  1  0.33693500  0.33693500  0.66566700  1
  Co  Co2  1  0.66692100  0.66692100  0.95097900  1
  Co  Co3  1  0.65862500  0.65862500  0.57739600  1
  Co  Co4  1  0.67485300  0.67485300  0.33589000  1
  Co  Co5  1  0.99526800  0.99526800  0.25652200  1
  O  O0  1  0.95741400  0.51944200  0.86736500  1
  O  O1  1  0.66592800  0.66592800  0.71421900  1
  O  O2  1  0.51946100  0.51946100  0.86811100  1
  O  O3  1  0.51944200  0.95741400  0.86736500  1
  O  O4  1  0.14736200  0.69994800  0.71434200  1
  O  O5  1  0.30705500  0.82391300  0.54501700  1
  O  O6  1  0.14988300  0.14988300  0.71276100  1
  O  O7  1  0.98942100  0.98942100  0.38435600  1
  O  O8  1  0.84925200  0.84925200  0.53760600  1
  O  O9  1  0.99918000  0.99918000  0.86302900  1
  O  O10  1  0.82391300  0.30705500  0.54501700  1
  O  O11  1  0.69994800  0.14736200  0.71434200  1
  O  O12  1  0.63972300  0.18230200  0.20439800  1
  O  O13  1  0.51049400  0.02268400  0.37121600  1
  O  O14  1  0.48307000  0.48307000  0.37864300  1
  O  O15  1  0.33326200  0.33326200  0.06082100  1
  O  O16  1  0.34433900  0.34433900  0.53541800  1
  O  O17  1  0.18025900  0.18025900  0.20650400  1
  O  O18  1  0.18230200  0.63972300  0.20439800  1
  O  O19  1  0.02268400  0.51049400  0.37121600  1
  O  O20  1  0.82185900  0.35798400  0.04662600  1
  O  O21  1  0.82115300  0.82115300  0.04640500  1
  O  O22  1  0.66720100  0.66720100  0.19329600  1
  O  O23  1  0.35798400  0.82185900  0.04662600  1
loop_
_geom_bond_atom_site_label_1
_geom_bond_atom_site_label_2
_geom_bond_distance
_geom_bond_site_symmetry_2
Al0 O2 1.838667 1_555
Al0 O0 1.848167 1_555
Al0 O9 1.941819 1_545
Al0 O11 1.961172 1_555
Al0 O1 1.972470 1_555
Al0 O6 1.984729 1_655
Al1 O0 1.848587 1_555
Al1 O3 1.848587 1_555
Al1 O11 1.945168 1_565
Al1 O4 1.945168 1_655
Al1 O9 1.946159 1_555
Al1 O1 1.972708 1_555
Al2 O2 1.838667 1_555
Al2 O3 1.848167 1_555
Al2 O9 1.941819 1_455
Al2 O4 1.961172 1_555
Al2 O1 1.972470 1_555
Al2 O6 1.984729 1_565
Al3 O5 1.905847 1_555
Al3 O16 1.908367 1_555
Al3 O14 1.926877 1_555
Al3 O7 1.932628 1_455
Al3 O8 1.936710 1_455
Al3 O19 1.939043 1_555
Al4 O5 1.866714 1_545
Al4 O10 1.866714 1_455
Al4 O6 1.903915 1_555
Al4 O8 1.966496 1_445
Al4 O4 1.977150 1_545
Al4 O11 1.977150 1_455
Al5 O10 1.905847 1_555
Al5 O16 1.908367 1_555
Al5 O14 1.926877 1_555
Al5 O7 1.932628 1_545
Al5 O8 1.936710 1_545
Al5 O13 1.939043 1_555
Al6 O15 1.825903 1_555
Al6 O21 1.908963 1_545
Al6 O23 1.911573 1_545
Al6 O22 1.966667 1_545
Al6 O12 1.981372 1_555
Al6 O17 1.991604 1_555
Al7 O19 1.872897 1_555
Al7 O13 1.872897 1_555
Al7 O17 1.909193 1_555
Al7 O14 1.950428 1_555
Al7 O18 1.987559 1_555
Al7 O12 1.987559 1_555
Al8 O15 1.834443 1_555
Al8 O20 1.915348 1_555
Al8 O23 1.915348 1_555
Al8 O18 1.958706 1_555
Al8 O12 1.958706 1_555
Al8 O22 1.971158 1_555
Al9 O15 1.825903 1_555
Al9 O21 1.908963 1_455
Al9 O20 1.911573 1_455
Al9 O22 1.966667 1_455
Al9 O18 1.981372 1_555
Al9 O17 1.991604 1_555
Co0 O9 1.865526 1_445
Co0 O23 1.908533 1_546
Co0 O20 1.908533 1_456
Co0 O21 1.917154 1_446
Co1 O16 1.825499 1_555
Co1 O11 1.929221 1_555
Co1 O4 1.929221 1_555
Co1 O6 1.966765 1_555
Co2 O0 1.856470 1_555
Co2 O3 1.856470 1_555
Co2 O2 1.870841 1_555
Co2 O23 2.034848 1_556
Co2 O20 2.034848 1_556
Co2 O21 2.035447 1_556
Co3 O10 1.805740 1_555
Co3 O5 1.805740 1_555
Co3 O1 1.918040 1_555
Co3 O8 1.969228 1_555
Co4 O13 1.798611 1_565
Co4 O19 1.798611 1_655
Co4 O14 1.992151 1_555
Co4 O22 1.998957 1_555
Co5 O7 1.791196 1_555
Co5 O12 1.912759 1_565
Co5 O18 1.912759 1_655
Co5 O17 1.961616 1_665
