# generated using pymatgen
data_Er5Si3C
_symmetry_space_group_name_H-M   'P 1'
_cell_length_a   8.39292000
_cell_length_b   8.39292006
_cell_length_c   6.28473400
_cell_angle_alpha   90.00000000
_cell_angle_beta   90.00000000
_cell_angle_gamma   119.99999977
_symmetry_Int_Tables_number   1
_chemical_formula_structural   Er5Si3C
_chemical_formula_sum   'Er10 Si6 C2'
_cell_volume   383.39258024
_cell_formula_units_Z   2
loop_
 _symmetry_equiv_pos_site_id
 _symmetry_equiv_pos_as_xyz
  1  'x, y, z'
loop_
 _atom_site_type_symbol
 _atom_site_label
 _atom_site_symmetry_multiplicity
 _atom_site_fract_x
 _atom_site_fract_y
 _atom_site_fract_z
 _atom_site_occupancy
  Er  Er0  1  0.66666700  0.33333300  0.00000000  1
  Er  Er1  1  0.33333300  0.66666700  0.00000000  1
  Er  Er2  1  0.33333300  0.66666700  0.50000000  1
  Er  Er3  1  0.66666700  0.33333300  0.50000000  1
  Er  Er4  1  0.77584100  0.77584100  0.75000000  1
  Er  Er5  1  0.22415900  0.00000000  0.75000000  1
  Er  Er6  1  0.00000000  0.22415900  0.75000000  1
  Er  Er7  1  0.22415900  0.22415900  0.25000000  1
  Er  Er8  1  0.77584100  0.00000000  0.25000000  1
  Er  Er9  1  0.00000000  0.77584100  0.25000000  1
  Si  Si0  1  0.40626500  0.40626500  0.75000000  1
  Si  Si1  1  0.59373500  0.00000000  0.75000000  1
  Si  Si2  1  0.00000000  0.59373500  0.75000000  1
  Si  Si3  1  0.59373500  0.59373500  0.25000000  1
  Si  Si4  1  0.40626500  0.00000000  0.25000000  1
  Si  Si5  1  0.00000000  0.40626500  0.25000000  1
  C  C0  1  0.00000000  0.00000000  0.00000000  1
  C  C1  1  0.00000000  0.00000000  0.50000000  1
loop_
_geom_bond_atom_site_label_1
_geom_bond_atom_site_label_2
_geom_bond_distance
_geom_bond_site_symmetry_2
Er0 Si5 2.992926 1_655
Er0 Si1 2.992926 1_554
Er0 Si2 2.992928 1_654
Er0 Si4 2.992928 1_555
Er0 Si0 2.992933 1_554
Er0 Si3 2.992933 1_555
Er1 Si2 2.992926 1_554
Er1 Si4 2.992926 1_565
Er1 Si5 2.992928 1_555
Er1 Si1 2.992928 1_564
Er1 Si3 2.992933 1_555
Er1 Si0 2.992933 1_554
Er2 Si2 2.992926 1_555
Er2 Si4 2.992926 1_565
Er2 Si5 2.992928 1_555
Er2 Si1 2.992928 1_565
Er2 Si3 2.992933 1_555
Er2 Si0 2.992933 1_555
Er3 Si5 2.992926 1_655
Er3 Si1 2.992926 1_555
Er3 Si2 2.992928 1_655
Er3 Si4 2.992928 1_555
Er3 Si0 2.992933 1_555
Er3 Si3 2.992933 1_555
Er4 Si2 2.958198 1_655
Er4 Si1 2.958198 1_565
Er4 Si0 3.101822 1_555
Er4 Si3 3.494350 1_556
Er4 Si3 3.494350 1_555
Er5 Si0 2.958198 1_555
Er5 Si2 2.958198 1_545
Er5 Si1 3.101822 1_555
Er5 Si4 3.494350 1_556
Er5 Si4 3.494350 1_555
Er6 Si0 2.958198 1_555
Er6 Si1 2.958198 1_455
Er6 Si2 3.101822 1_555
Er6 Si5 3.494350 1_555
Er6 Si5 3.494350 1_556
Er7 Si5 2.958198 1_555
Er7 Si4 2.958198 1_555
Er7 Si3 3.101822 1_555
Er7 Si0 3.494350 1_555
Er7 Si0 3.494350 1_554
Er8 Si3 2.958198 1_545
Er8 Si5 2.958198 1_655
Er8 Si4 3.101822 1_555
Er8 Si1 3.494350 1_555
Er8 Si1 3.494350 1_554
Er9 Si3 2.958198 1_455
Er9 Si4 2.958198 1_565
Er9 Si5 3.101822 1_555
Er9 Si2 3.494350 1_555
Er9 Si2 3.494350 1_554
C0 Er8 2.451141 1_455
C0 Er5 2.451141 1_554
C0 Er9 2.451141 1_545
C0 Er4 2.451141 1_444
C0 Er7 2.451141 1_555
C0 Er6 2.451141 1_554
C1 Er8 2.451141 1_455
C1 Er5 2.451141 1_555
C1 Er6 2.451141 1_555
C1 Er9 2.451141 1_545
C1 Er7 2.451141 1_555
C1 Er4 2.451141 1_445
