# generated using pymatgen
data_Cs2TmCl4
_symmetry_space_group_name_H-M   'P 1'
_cell_length_a   5.32062200
_cell_length_b   5.32062200
_cell_length_c   9.49122795
_cell_angle_alpha   106.27760612
_cell_angle_beta   106.27760612
_cell_angle_gamma   90.00000000
_symmetry_Int_Tables_number   1
_chemical_formula_structural   Cs2TmCl4
_chemical_formula_sum   'Cs2 Tm1 Cl4'
_cell_volume   246.67683209
_cell_formula_units_Z   1
loop_
 _symmetry_equiv_pos_site_id
 _symmetry_equiv_pos_as_xyz
  1  'x, y, z'
loop_
 _atom_site_type_symbol
 _atom_site_label
 _atom_site_symmetry_multiplicity
 _atom_site_fract_x
 _atom_site_fract_y
 _atom_site_fract_z
 _atom_site_occupancy
  Cs  Cs0  1  0.64258600  0.64258600  0.28517200  1
  Cs  Cs1  1  0.35741400  0.35741400  0.71482800  1
  Tm  Tm0  1  0.00000000  0.00000000  0.00000000  1
  Cl  Cl0  1  0.84552200  0.84552200  0.69104400  1
  Cl  Cl1  1  0.15447800  0.15447800  0.30895600  1
  Cl  Cl2  1  0.00000000  0.50000000  0.00000000  1
  Cl  Cl3  1  0.50000000  0.00000000  0.00000000  1
loop_
_geom_bond_atom_site_label_1
_geom_bond_atom_site_label_2
_geom_bond_distance
_geom_bond_site_symmetry_2
Cl0 Tm0 2.692156 1_666
Cl0 Cs0 3.536655 1_555
Cl0 Cs1 3.767952 1_665
Cl0 Cs1 3.767952 1_565
Cl0 Cs1 3.767952 1_655
Cl0 Cs1 3.767952 1_555
Cl1 Tm0 2.692156 1_555
Cl1 Cs1 3.536655 1_555
Cl1 Cs0 3.767952 1_455
Cl1 Cs0 3.767952 1_445
Cl1 Cs0 3.767952 1_555
Cl1 Cs0 3.767952 1_545
Cl2 Tm0 2.660311 1_555
Cl2 Tm0 2.660311 1_565
Cl2 Cs1 3.640333 1_454
Cl2 Cs0 3.640333 1_555
Cl2 Cs0 3.640333 1_455
Cl2 Cs1 3.640333 1_554
Cl3 Tm0 2.660311 1_555
Cl3 Tm0 2.660311 1_655
Cl3 Cs0 3.640333 1_555
Cl3 Cs1 3.640333 1_544
Cl3 Cs0 3.640333 1_545
Cl3 Cs1 3.640333 1_554
