# generated using pymatgen
data_CaMnP2O7
_symmetry_space_group_name_H-M   'P 1'
_cell_length_a   8.97770800
_cell_length_b   7.46074500
_cell_length_c   9.34361398
_cell_angle_alpha   64.42514520
_cell_angle_beta   90.00000000
_cell_angle_gamma   90.00000000
_symmetry_Int_Tables_number   1
_chemical_formula_structural   CaMnP2O7
_chemical_formula_sum   'Ca4 Mn4 P8 O28'
_cell_volume   564.52050667
_cell_formula_units_Z   4
loop_
 _symmetry_equiv_pos_site_id
 _symmetry_equiv_pos_as_xyz
  1  'x, y, z'
loop_
 _atom_site_type_symbol
 _atom_site_label
 _atom_site_symmetry_multiplicity
 _atom_site_fract_x
 _atom_site_fract_y
 _atom_site_fract_z
 _atom_site_occupancy
  Ca  Ca0  1  0.94704100  0.71309400  0.15214000  1
  Ca  Ca1  1  0.44704100  0.28690600  0.34786000  1
  Ca  Ca2  1  0.55295900  0.71309400  0.65214000  1
  Ca  Ca3  1  0.05295900  0.28690600  0.84786000  1
  Mn  Mn0  1  0.06926100  0.22817600  0.38621500  1
  Mn  Mn1  1  0.93073900  0.77182400  0.61378500  1
  Mn  Mn2  1  0.56926100  0.77182400  0.11378500  1
  Mn  Mn3  1  0.43073900  0.22817600  0.88621500  1
  P  P0  1  0.72776000  0.05768700  0.75860500  1
  P  P1  1  0.23882900  0.53537400  0.03021600  1
  P  P2  1  0.77224000  0.05768700  0.25860500  1
  P  P3  1  0.26117100  0.53537400  0.53021600  1
  P  P4  1  0.22776000  0.94231300  0.74139500  1
  P  P5  1  0.73882900  0.46462600  0.46978400  1
  P  P6  1  0.76117100  0.46462600  0.96978400  1
  P  P7  1  0.27224000  0.94231300  0.24139500  1
  O  O0  1  0.17557500  0.74346900  0.89611300  1
  O  O1  1  0.62703200  0.09532900  0.32390500  1
  O  O2  1  0.87296800  0.09532900  0.82390500  1
  O  O3  1  0.38640100  0.56758600  0.09892800  1
  O  O4  1  0.82442500  0.25653100  0.10388700  1
  O  O5  1  0.09534100  0.98022500  0.62625800  1
  O  O6  1  0.61359900  0.43241400  0.90107200  1
  O  O7  1  0.10969600  0.47578800  0.15007400  1
  O  O8  1  0.24535400  0.39304200  0.45169200  1
  O  O9  1  0.90465900  0.01977500  0.37374200  1
  O  O10  1  0.40465900  0.98022500  0.12625800  1
  O  O11  1  0.76075800  0.89865500  0.19604000  1
  O  O12  1  0.26075800  0.10134500  0.30396000  1
  O  O13  1  0.32442500  0.74346900  0.39611300  1
  O  O14  1  0.59534100  0.01977500  0.87374200  1
  O  O15  1  0.12703200  0.90467100  0.17609500  1
  O  O16  1  0.23924200  0.10134500  0.80396000  1
  O  O17  1  0.89030400  0.52421200  0.84992600  1
  O  O18  1  0.25464600  0.39304200  0.95169200  1
  O  O19  1  0.74535400  0.60695800  0.04830800  1
  O  O20  1  0.88640100  0.43241400  0.40107200  1
  O  O21  1  0.39030400  0.47578800  0.65007400  1
  O  O22  1  0.60969600  0.52421200  0.34992600  1
  O  O23  1  0.37296800  0.90467100  0.67609500  1
  O  O24  1  0.73924200  0.89865500  0.69604000  1
  O  O25  1  0.11359900  0.56758600  0.59892800  1
  O  O26  1  0.75464600  0.60695800  0.54830800  1
  O  O27  1  0.67557500  0.25653100  0.60388700  1
loop_
_geom_bond_atom_site_label_1
_geom_bond_atom_site_label_2
_geom_bond_distance
_geom_bond_site_symmetry_2
Ca0 O15 2.231677 1_655
Ca0 O7 2.301492 1_655
Ca0 O11 2.317772 1_555
Ca0 O19 2.347364 1_555
Ca0 O20 2.426158 1_555
Ca1 O1 2.231677 1_555
Ca1 O22 2.301492 1_555
Ca1 O12 2.317772 1_555
Ca1 O8 2.347364 1_555
Ca1 O3 2.426158 1_555
Ca2 O23 2.231677 1_555
Ca2 O21 2.301492 1_555
Ca2 O24 2.317772 1_555
Ca2 O26 2.347364 1_555
Ca2 O6 2.426158 1_555
Ca3 O2 2.231677 1_455
Ca3 O17 2.301492 1_455
Ca3 O16 2.317772 1_555
Ca3 O18 2.347364 1_555
Ca3 O25 2.426158 1_555
Mn0 O9 2.184321 1_455
Mn0 O7 2.212152 1_555
Mn0 O5 2.219274 1_545
Mn0 O8 2.244156 1_555
Mn0 O12 2.251585 1_555
Mn0 O20 2.284475 1_455
Mn1 O5 2.184321 1_655
Mn1 O17 2.212152 1_555
Mn1 O9 2.219274 1_565
Mn1 O26 2.244156 1_555
Mn1 O24 2.251585 1_555
Mn1 O25 2.284475 1_655
Mn2 O10 2.184321 1_555
Mn2 O22 2.212152 1_555
Mn2 O14 2.219274 1_564
Mn2 O19 2.244156 1_555
Mn2 O11 2.251585 1_555
Mn2 O3 2.284475 1_555
Mn3 O14 2.184321 1_555
Mn3 O21 2.212152 1_555
Mn3 O10 2.219274 1_546
Mn3 O18 2.244156 1_555
Mn3 O16 2.251585 1_555
Mn3 O6 2.284475 1_555
O0 P1 1.619669 1_556
O0 P4 1.630506 1_555
O1 P2 1.516094 1_555
O2 P0 1.516094 1_555
O3 P1 1.535711 1_555
O4 P6 1.619669 1_554
O4 P2 1.630506 1_555
O5 P4 1.545288 1_555
O6 P6 1.535711 1_555
O7 P1 1.538180 1_555
O8 P3 1.535834 1_555
O9 P2 1.545288 1_555
O10 P7 1.545288 1_555
O11 P2 1.535899 1_565
O12 P7 1.535899 1_545
O13 P3 1.619669 1_555
O13 P7 1.630506 1_555
O14 P0 1.545288 1_555
O15 P7 1.516094 1_555
O16 P4 1.535899 1_545
O17 P6 1.538180 1_555
O18 P1 1.535834 1_556
O19 P6 1.535834 1_554
O20 P5 1.535711 1_555
O21 P3 1.538180 1_555
O22 P5 1.538180 1_555
O23 P4 1.516094 1_555
O24 P0 1.535899 1_565
O25 P3 1.535711 1_555
O26 P5 1.535834 1_555
O27 P5 1.619669 1_555
O27 P0 1.630506 1_555
