# generated using pymatgen
data_La5Ti4GaO17
_symmetry_space_group_name_H-M   'P 1'
_cell_length_a   3.95392400
_cell_length_b   5.55499300
_cell_length_c   31.43220000
_cell_angle_alpha   90.00000000
_cell_angle_beta   90.00000000
_cell_angle_gamma   90.00000000
_symmetry_Int_Tables_number   1
_chemical_formula_structural   La5Ti4GaO17
_chemical_formula_sum   'La10 Ti8 Ga2 O34'
_cell_volume   690.37747392
_cell_formula_units_Z   2
loop_
 _symmetry_equiv_pos_site_id
 _symmetry_equiv_pos_as_xyz
  1  'x, y, z'
loop_
 _atom_site_type_symbol
 _atom_site_label
 _atom_site_symmetry_multiplicity
 _atom_site_fract_x
 _atom_site_fract_y
 _atom_site_fract_z
 _atom_site_occupancy
  La  La0  1  0.00000000  0.57028200  0.28652400  1
  La  La1  1  0.00000000  0.42971800  0.71347600  1
  La  La2  1  0.50000000  0.07028200  0.21347600  1
  La  La3  1  0.50000000  0.92971800  0.78652400  1
  La  La4  1  0.00000000  0.50000000  0.50000000  1
  La  La5  1  0.50000000  0.00000000  0.00000000  1
  La  La6  1  0.00000000  0.99453700  0.41109900  1
  La  La7  1  0.00000000  0.00546300  0.58890100  1
  La  La8  1  0.50000000  0.49453700  0.08890100  1
  La  La9  1  0.50000000  0.50546300  0.91109900  1
  Ti  Ti0  1  0.50000000  0.03406900  0.32271300  1
  Ti  Ti1  1  0.50000000  0.96593100  0.67728700  1
  Ti  Ti2  1  0.00000000  0.53406900  0.17728700  1
  Ti  Ti3  1  0.00000000  0.46593100  0.82271300  1
  Ti  Ti4  1  0.50000000  0.50452700  0.40837700  1
  Ti  Ti5  1  0.50000000  0.49547300  0.59162300  1
  Ti  Ti6  1  0.00000000  0.00452700  0.09162300  1
  Ti  Ti7  1  0.00000000  0.99547300  0.90837700  1
  Ga  Ga0  1  0.50000000  0.00000000  0.50000000  1
  Ga  Ga1  1  0.00000000  0.50000000  0.00000000  1
  O  O0  1  0.50000000  0.29733400  0.28733400  1
  O  O1  1  0.50000000  0.70266600  0.71266600  1
  O  O2  1  0.00000000  0.79733400  0.21266600  1
  O  O3  1  0.00000000  0.20266600  0.78733400  1
  O  O4  1  0.50000000  0.71037500  0.53641300  1
  O  O5  1  0.50000000  0.28962500  0.46358700  1
  O  O6  1  0.00000000  0.21037500  0.96358700  1
  O  O7  1  0.00000000  0.78962500  0.03641300  1
  O  O8  1  0.00000000  0.49469400  0.41564900  1
  O  O9  1  0.00000000  0.50530600  0.58435100  1
  O  O10  1  0.50000000  0.99469400  0.08435100  1
  O  O11  1  0.50000000  0.00530600  0.91564900  1
  O  O12  1  0.00000000  0.00371500  0.32898600  1
  O  O13  1  0.00000000  0.99628500  0.67101400  1
  O  O14  1  0.50000000  0.50371500  0.17101400  1
  O  O15  1  0.50000000  0.49628500  0.82898600  1
  O  O16  1  0.50000000  0.19616900  0.37910900  1
  O  O17  1  0.50000000  0.80383100  0.62089100  1
  O  O18  1  0.00000000  0.69616900  0.12089100  1
  O  O19  1  0.00000000  0.30383100  0.87910900  1
  O  O20  1  0.50000000  0.78213600  0.44884500  1
  O  O21  1  0.50000000  0.21786400  0.55115500  1
  O  O22  1  0.00000000  0.28213600  0.05115500  1
  O  O23  1  0.00000000  0.71786400  0.94884500  1
  O  O24  1  0.50000000  0.81251600  0.27631700  1
  O  O25  1  0.50000000  0.18748400  0.72368300  1
  O  O26  1  0.00000000  0.31251600  0.22368300  1
  O  O27  1  0.00000000  0.68748400  0.77631700  1
  O  O28  1  0.50000000  0.71550000  0.36348200  1
  O  O29  1  0.50000000  0.28450000  0.63651800  1
  O  O30  1  0.00000000  0.21550000  0.13651800  1
  O  O31  1  0.00000000  0.78450000  0.86348200  1
  O  O32  1  0.00000000  0.00000000  0.50000000  1
  O  O33  1  0.50000000  0.50000000  0.00000000  1
loop_
_geom_bond_atom_site_label_1
_geom_bond_atom_site_label_2
_geom_bond_distance
_geom_bond_site_symmetry_2
La0 O24 2.412876 1_555
La0 O24 2.412876 1_455
La0 O26 2.439640 1_555
La0 O0 2.491578 1_555
La0 O0 2.491578 1_455
La0 O2 2.642018 1_555
La0 O12 2.752900 1_565
La1 O25 2.412876 1_455
La1 O25 2.412876 1_555
La1 O27 2.439640 1_555
La1 O1 2.491578 1_455
La1 O1 2.491578 1_555
La1 O3 2.642018 1_555
La1 O13 2.752900 1_545
La2 O26 2.412876 1_555
La2 O26 2.412876 1_655
La2 O24 2.439640 1_545
La2 O2 2.491578 1_545
La2 O2 2.491578 1_645
La2 O0 2.642018 1_555
La2 O14 2.752900 1_555
La3 O27 2.412876 1_555
La3 O27 2.412876 1_655
La3 O25 2.439640 1_565
La3 O3 2.491578 1_565
La3 O3 2.491578 1_665
La3 O1 2.642018 1_555
La3 O15 2.752900 1_555
La4 O5 2.565941 1_555
La4 O5 2.565941 1_455
La4 O4 2.565941 1_555
La4 O4 2.565941 1_455
La4 O9 2.651501 1_555
La4 O8 2.651501 1_555
La4 O32 2.777496 1_555
La4 O32 2.777496 1_565
La4 O21 2.991669 1_555
La4 O21 2.991669 1_455
La4 O20 2.991669 1_455
La4 O20 2.991669 1_555
La5 O7 2.565941 1_545
La5 O7 2.565941 1_645
La5 O6 2.565941 1_654
La5 O6 2.565941 1_554
La5 O11 2.651501 1_554
La5 O10 2.651501 1_545
La5 O33 2.777496 1_545
La5 O33 2.777496 1_555
La5 O23 2.991669 1_544
La5 O23 2.991669 1_644
La5 O22 2.991669 1_555
La5 O22 2.991669 1_655
La6 O16 2.484751 1_465
La6 O16 2.484751 1_565
La6 O12 2.581496 1_565
La6 O20 2.590010 1_555
La6 O20 2.590010 1_455
La6 O8 2.780305 1_555
La6 O8 2.782047 1_565
La6 O32 2.794519 1_565
La6 O28 2.924237 1_555
La6 O28 2.924237 1_455
La6 O5 3.052422 1_565
La6 O5 3.052422 1_465
La7 O17 2.484751 1_445
La7 O17 2.484751 1_545
La7 O13 2.581496 1_545
La7 O21 2.590010 1_555
La7 O21 2.590010 1_455
La7 O9 2.780305 1_555
La7 O9 2.782047 1_545
La7 O32 2.794519 1_555
La7 O29 2.924237 1_455
La7 O29 2.924237 1_555
La7 O4 3.052422 1_445
La7 O4 3.052422 1_545
La8 O18 2.484751 1_555
La8 O18 2.484751 1_655
La8 O14 2.581496 1_555
La8 O22 2.590010 1_555
La8 O22 2.590010 1_655
La8 O10 2.780305 1_545
La8 O10 2.782047 1_555
La8 O33 2.794519 1_555
La8 O30 2.924237 1_655
La8 O30 2.924237 1_555
La8 O7 3.052422 1_655
La8 O7 3.052422 1_555
La9 O19 2.484751 1_655
La9 O19 2.484751 1_555
La9 O15 2.581496 1_555
La9 O23 2.590010 1_655
La9 O23 2.590010 1_555
La9 O11 2.780305 1_565
La9 O11 2.782047 1_555
La9 O33 2.794519 1_556
La9 O31 2.924237 1_555
La9 O31 2.924237 1_655
La9 O6 3.052422 1_655
La9 O6 3.052422 1_555
Ga0 O5 1.974442 1_555
Ga0 O4 1.974442 1_545
Ga0 O32 1.976962 1_555
Ga0 O32 1.976962 1_655
Ga0 O21 2.012474 1_555
Ga0 O20 2.012474 1_545
Ga1 O7 1.974442 1_555
Ga1 O6 1.974442 1_554
Ga1 O33 1.976962 1_455
Ga1 O33 1.976962 1_555
Ga1 O23 2.012474 1_554
Ga1 O22 2.012474 1_555
O0 Ti0 1.837212 1_555
O1 Ti1 1.837212 1_555
O2 Ti2 1.837212 1_555
O3 Ti3 1.837212 1_555
O4 Ti5 2.106329 1_555
O5 Ti4 2.106329 1_555
O6 Ti7 2.106329 1_545
O7 Ti6 2.106329 1_565
O8 Ti4 1.990881 1_455
O8 Ti4 1.990881 1_555
O9 Ti5 1.990881 1_455
O9 Ti5 1.990881 1_555
O10 Ti6 1.990881 1_565
O10 Ti6 1.990881 1_665
O11 Ti7 1.990881 1_545
O11 Ti7 1.990881 1_645
O12 Ti0 1.993913 1_555
O12 Ti0 1.993913 1_455
O13 Ti1 1.993913 1_555
O13 Ti1 1.993913 1_455
O14 Ti2 1.993913 1_655
O14 Ti2 1.993913 1_555
O15 Ti3 1.993913 1_655
O15 Ti3 1.993913 1_555
O16 Ti4 1.944335 1_555
O16 Ti0 1.988247 1_555
O17 Ti5 1.944335 1_555
O17 Ti1 1.988247 1_555
O18 Ti6 1.944335 1_565
O18 Ti2 1.988247 1_555
O19 Ti7 1.944335 1_545
O19 Ti3 1.988247 1_555
O20 Ti4 1.999025 1_555
O21 Ti5 1.999025 1_555
O22 Ti6 1.999025 1_555
O23 Ti7 1.999025 1_555
O24 Ti0 1.908247 1_565
O25 Ti1 1.908247 1_545
O26 Ti2 1.908247 1_555
O27 Ti3 1.908247 1_555
O28 Ti4 1.834343 1_555
O28 Ti0 2.184901 1_565
O29 Ti5 1.834343 1_555
O29 Ti1 2.184901 1_545
O30 Ti6 1.834343 1_555
O30 Ti2 2.184901 1_555
O31 Ti7 1.834343 1_555
O31 Ti3 2.184901 1_555
