# generated using pymatgen
data_Ba3VO5
_symmetry_space_group_name_H-M   'P 1'
_cell_length_a   7.89554121
_cell_length_b   7.89554103
_cell_length_c   7.89575790
_cell_angle_alpha   124.83485317
_cell_angle_beta   124.83459651
_cell_angle_gamma   81.81015383
_symmetry_Int_Tables_number   1
_chemical_formula_structural   Ba3VO5
_chemical_formula_sum   'Ba6 V2 O10'
_cell_volume   319.03284326
_cell_formula_units_Z   2
loop_
 _symmetry_equiv_pos_site_id
 _symmetry_equiv_pos_as_xyz
  1  'x, y, z'
loop_
 _atom_site_type_symbol
 _atom_site_label
 _atom_site_symmetry_multiplicity
 _atom_site_fract_x
 _atom_site_fract_y
 _atom_site_fract_z
 _atom_site_occupancy
  Ba  Ba0  1  0.24999953  0.24999654  -0.00000218  1
  Ba  Ba1  1  0.74999899  0.74999811  -0.00000178  1
  Ba  Ba2  1  0.17855137  0.67855255  0.85708474  1
  Ba  Ba3  1  0.82146954  0.32147036  0.14291276  1
  Ba  Ba4  1  0.67852893  0.82144661  0.50000103  1
  Ba  Ba5  1  0.32144789  0.17852741  0.50000097  1
  V  V0  1  0.74998352  0.24998109  0.49999437  1
  V  V1  1  0.25001692  0.75001436  0.49999979  1
  O  O0  1  0.79175505  0.29175598  0.77127223  1
  O  O1  1  0.20826930  0.70827311  0.22884289  1
  O  O2  1  0.52047907  0.02048200  0.22872251  1
  O  O3  1  0.29174599  0.52060135  0.50000564  1
  O  O4  1  0.97949265  0.20823220  0.50000122  1
  O  O5  1  0.47943045  0.97943091  0.77116132  1
  O  O6  1  0.70823072  0.47949208  0.50000002  1
  O  O7  1  0.02060040  0.79174492  0.50000240  1
  O  O8  1  0.00000038  0.00000002  0.00000142  1
  O  O9  1  0.49999828  0.49999942  -0.00000035  1
loop_
_geom_bond_atom_site_label_1
_geom_bond_atom_site_label_2
_geom_bond_distance
_geom_bond_site_symmetry_2
Ba0 O8 2.983703 1_555
Ba0 O9 2.983706 1_555
Ba0 O2 3.055515 1_555
Ba0 O0 3.055559 1_454
Ba0 O4 3.055597 1_454
Ba0 O6 3.055606 1_555
Ba0 O5 3.055614 1_544
Ba0 O7 3.055650 1_544
Ba0 O1 3.055675 1_555
Ba0 O3 3.055719 1_555
Ba1 O8 2.983708 1_665
Ba1 O9 2.983712 1_555
Ba1 O0 3.055528 1_554
Ba1 O2 3.055550 1_565
Ba1 O6 3.055583 1_554
Ba1 O4 3.055611 1_565
Ba1 O1 3.055631 1_655
Ba1 O5 3.055643 1_554
Ba1 O3 3.055658 1_554
Ba1 O7 3.055703 1_655
Ba2 O2 2.676474 1_566
Ba2 O1 2.677337 1_556
Ba2 O8 2.688560 1_566
Ba2 O9 2.688571 1_556
Ba2 O3 2.974446 1_555
Ba2 O7 2.974462 1_555
Ba2 O4 2.974641 1_455
Ba2 O6 2.974652 1_455
Ba3 O0 2.676452 1_554
Ba3 O5 2.677343 1_544
Ba3 O8 2.688566 1_655
Ba3 O9 2.688570 1_555
Ba3 O7 2.974449 1_655
Ba3 O3 2.974467 1_655
Ba3 O6 2.974684 1_555
Ba3 O4 2.974693 1_555
Ba4 O6 2.676589 1_555
Ba4 O7 2.677507 1_655
Ba4 O9 2.688720 1_555
Ba4 O8 2.688723 1_666
Ba4 O5 2.974282 1_555
Ba4 O1 2.974297 1_555
Ba4 O0 2.974516 1_565
Ba4 O2 2.974547 1_565
Ba5 O4 2.676598 1_455
Ba5 O3 2.677513 1_555
Ba5 O9 2.688714 1_556
Ba5 O8 2.688722 1_555
Ba5 O1 2.974255 1_545
Ba5 O5 2.974277 1_545
Ba5 O0 2.974509 1_555
Ba5 O2 2.974512 1_555
O0 V0 1.795085 1_555
O1 V1 1.794360 1_555
O2 V0 1.795062 1_555
O3 V1 1.794311 1_555
O4 V0 1.795017 1_555
O5 V1 1.794381 1_555
O6 V0 1.795037 1_555
O7 V1 1.794327 1_555
