# generated using pymatgen
data_Ca3(MnN2)2
_symmetry_space_group_name_H-M   'P 1'
_cell_length_a   5.64061100
_cell_length_b   9.62142700
_cell_length_c   9.05916600
_cell_angle_alpha   90.00000000
_cell_angle_beta   90.00000000
_cell_angle_gamma   90.00000000
_symmetry_Int_Tables_number   1
_chemical_formula_structural   Ca3(MnN2)2
_chemical_formula_sum   'Ca12 Mn8 N16'
_cell_volume   491.64752458
_cell_formula_units_Z   4
loop_
 _symmetry_equiv_pos_site_id
 _symmetry_equiv_pos_as_xyz
  1  'x, y, z'
loop_
 _atom_site_type_symbol
 _atom_site_label
 _atom_site_symmetry_multiplicity
 _atom_site_fract_x
 _atom_site_fract_y
 _atom_site_fract_z
 _atom_site_occupancy
  Ca  Ca0  1  0.61652900  0.15600500  0.41708500  1
  Ca  Ca1  1  0.88347100  0.84399500  0.41708500  1
  Ca  Ca2  1  0.61652900  0.34399500  0.08291500  1
  Ca  Ca3  1  0.88347100  0.65600500  0.08291500  1
  Ca  Ca4  1  0.38347100  0.84399500  0.58291500  1
  Ca  Ca5  1  0.11652900  0.15600500  0.58291500  1
  Ca  Ca6  1  0.38347100  0.65600500  0.91708500  1
  Ca  Ca7  1  0.11652900  0.34399500  0.91708500  1
  Ca  Ca8  1  0.75000000  0.50000000  0.40286500  1
  Ca  Ca9  1  0.75000000  0.00000000  0.09713500  1
  Ca  Ca10  1  0.25000000  0.50000000  0.59713500  1
  Ca  Ca11  1  0.25000000  0.00000000  0.90286500  1
  Mn  Mn0  1  0.75000000  0.50000000  0.73397300  1
  Mn  Mn1  1  0.75000000  0.00000000  0.76602700  1
  Mn  Mn2  1  0.25000000  0.50000000  0.26602600  1
  Mn  Mn3  1  0.25000000  0.00000000  0.23397400  1
  Mn  Mn4  1  0.65207900  0.25000000  0.75000000  1
  Mn  Mn5  1  0.84792100  0.75000000  0.75000000  1
  Mn  Mn6  1  0.34792100  0.75000000  0.25000000  1
  Mn  Mn7  1  0.15207900  0.25000000  0.25000000  1
  N  N0  1  0.87823700  0.35778600  0.62371200  1
  N  N1  1  0.62176300  0.64221400  0.62371200  1
  N  N2  1  0.87823700  0.14221400  0.87628800  1
  N  N3  1  0.62176300  0.85778600  0.87628800  1
  N  N4  1  0.12176300  0.64221400  0.37628800  1
  N  N5  1  0.37823700  0.35778600  0.37628800  1
  N  N6  1  0.12176300  0.85778600  0.12371200  1
  N  N7  1  0.37823700  0.14221400  0.12371200  1
  N  N8  1  0.50462600  0.41486000  0.83613100  1
  N  N9  1  0.99537400  0.58514000  0.83613100  1
  N  N10  1  0.50462600  0.08514000  0.66386900  1
  N  N11  1  0.99537400  0.91486000  0.66386900  1
  N  N12  1  0.49537400  0.58514000  0.16386900  1
  N  N13  1  0.00462600  0.41486000  0.16386900  1
  N  N14  1  0.49537400  0.91486000  0.33613100  1
  N  N15  1  0.00462600  0.08514000  0.33613100  1
loop_
_geom_bond_atom_site_label_1
_geom_bond_atom_site_label_2
_geom_bond_distance
_geom_bond_site_symmetry_2
Ca0 N5 2.390052 1_555
Ca0 N15 2.407260 1_655
Ca0 N10 2.421045 1_555
Ca0 N14 2.527449 1_545
Ca1 N4 2.390052 1_655
Ca1 N14 2.407260 1_555
Ca1 N11 2.421045 1_555
Ca1 N15 2.527449 1_665
Ca2 N7 2.390052 1_555
Ca2 N13 2.407260 1_655
Ca2 N8 2.421045 1_554
Ca2 N12 2.527449 1_555
Ca3 N6 2.390052 1_655
Ca3 N12 2.407260 1_555
Ca3 N9 2.421045 1_554
Ca3 N13 2.527449 1_655
Ca4 N1 2.390052 1_555
Ca4 N11 2.407260 1_455
Ca4 N14 2.421045 1_555
Ca4 N10 2.527449 1_565
Ca5 N0 2.390052 1_455
Ca5 N10 2.407260 1_555
Ca5 N15 2.421045 1_555
Ca5 N11 2.527449 1_445
Ca6 N3 2.390052 1_555
Ca6 N9 2.407260 1_455
Ca6 N12 2.421045 1_556
Ca6 N8 2.527449 1_555
Ca7 N2 2.390052 1_455
Ca7 N8 2.407260 1_555
Ca7 N13 2.421045 1_556
Ca7 N9 2.527449 1_455
Ca8 N5 2.515453 1_555
Ca8 N4 2.515453 1_655
Ca8 N0 2.529471 1_555
Ca8 N1 2.529471 1_555
Ca8 N12 2.724246 1_555
Ca8 N13 2.724246 1_655
Ca9 N7 2.515453 1_555
Ca9 N6 2.515453 1_645
Ca9 N2 2.529471 1_554
Ca9 N3 2.529471 1_544
Ca9 N15 2.724246 1_655
Ca9 N14 2.724246 1_545
Ca10 N1 2.515453 1_555
Ca10 N0 2.515453 1_455
Ca10 N4 2.529471 1_555
Ca10 N5 2.529471 1_555
Ca10 N8 2.724246 1_555
Ca10 N9 2.724246 1_455
Ca11 N2 2.515453 1_455
Ca11 N3 2.515453 1_545
Ca11 N7 2.529471 1_556
Ca11 N6 2.529471 1_546
Ca11 N10 2.724246 1_555
Ca11 N11 2.724246 1_445
Mn0 N0 1.842067 1_555
Mn0 N1 1.842067 1_555
Mn0 N9 1.855571 1_555
Mn0 N8 1.855571 1_555
Mn1 N2 1.842067 1_555
Mn1 N3 1.842067 1_545
Mn1 N11 1.855571 1_545
Mn1 N10 1.855571 1_555
Mn2 N4 1.842072 1_555
Mn2 N5 1.842072 1_555
Mn2 N12 1.855567 1_555
Mn2 N13 1.855567 1_555
Mn3 N7 1.842072 1_555
Mn3 N6 1.842072 1_545
Mn3 N14 1.855567 1_545
Mn3 N15 1.855567 1_555
Mn4 N8 1.953609 1_555
Mn4 N10 1.953609 1_555
Mn4 N2 2.002922 1_555
Mn4 N0 2.002922 1_555
Mn5 N9 1.953609 1_555
Mn5 N11 1.953609 1_555
Mn5 N3 2.002922 1_555
Mn5 N1 2.002922 1_555
Mn6 N14 1.953609 1_555
Mn6 N12 1.953609 1_555
Mn6 N4 2.002922 1_555
Mn6 N6 2.002922 1_555
Mn7 N15 1.953609 1_555
Mn7 N13 1.953609 1_555
Mn7 N5 2.002922 1_555
Mn7 N7 2.002922 1_555
