# generated using pymatgen
data_U7Mo
_symmetry_space_group_name_H-M   'P 1'
_cell_length_a   5.99702800
_cell_length_b   10.29425200
_cell_length_c   20.52151600
_cell_angle_alpha   90.00000000
_cell_angle_beta   90.00000000
_cell_angle_gamma   90.00000000
_symmetry_Int_Tables_number   1
_chemical_formula_structural   U7Mo
_chemical_formula_sum   'U56 Mo8'
_cell_volume   1266.89409689
_cell_formula_units_Z   8
loop_
 _symmetry_equiv_pos_site_id
 _symmetry_equiv_pos_as_xyz
  1  'x, y, z'
loop_
 _atom_site_type_symbol
 _atom_site_label
 _atom_site_symmetry_multiplicity
 _atom_site_fract_x
 _atom_site_fract_y
 _atom_site_fract_z
 _atom_site_occupancy
  U  U0_0  1  0.25000000  0.25000000  0.37586800  1
  U  U0_1  1  0.25000000  0.25000000  0.87586800  1
  U  U0_2  1  0.25000000  0.75000000  0.37586800  1
  U  U0_3  1  0.25000000  0.75000000  0.87586800  1
  U  U0_4  1  0.75000000  0.25000000  0.37586800  1
  U  U0_5  1  0.75000000  0.25000000  0.87586800  1
  U  U0_6  1  0.75000000  0.75000000  0.37586800  1
  U  U0_7  1  0.75000000  0.75000000  0.87586800  1
  U  U1_0  1  0.25000000  0.25000000  0.12413200  1
  U  U1_1  1  0.25000000  0.25000000  0.62413200  1
  U  U1_2  1  0.25000000  0.75000000  0.12413200  1
  U  U1_3  1  0.25000000  0.75000000  0.62413200  1
  U  U1_4  1  0.75000000  0.25000000  0.12413200  1
  U  U1_5  1  0.75000000  0.25000000  0.62413200  1
  U  U1_6  1  0.75000000  0.75000000  0.12413200  1
  U  U1_7  1  0.75000000  0.75000000  0.62413200  1
  U  U2_0  1  0.25000000  0.00000000  0.00000000  1
  U  U2_1  1  0.25000000  0.00000000  0.50000000  1
  U  U2_2  1  0.25000000  0.50000000  0.00000000  1
  U  U2_3  1  0.25000000  0.50000000  0.50000000  1
  U  U2_4  1  0.75000000  0.00000000  0.00000000  1
  U  U2_5  1  0.75000000  0.00000000  0.50000000  1
  U  U2_6  1  0.75000000  0.50000000  0.00000000  1
  U  U2_7  1  0.75000000  0.50000000  0.50000000  1
  U  U3_0  1  0.25000000  0.00000000  0.25000000  1
  U  U3_1  1  0.25000000  0.00000000  0.75000000  1
  U  U3_2  1  0.25000000  0.50000000  0.25000000  1
  U  U3_3  1  0.25000000  0.50000000  0.75000000  1
  U  U3_4  1  0.75000000  0.00000000  0.25000000  1
  U  U3_5  1  0.75000000  0.00000000  0.75000000  1
  U  U3_6  1  0.75000000  0.50000000  0.25000000  1
  U  U3_7  1  0.75000000  0.50000000  0.75000000  1
  U  U4_0  1  0.00000000  0.00000000  0.38117350  1
  U  U4_1  1  0.00000000  0.00000000  0.88117350  1
  U  U4_2  1  0.00000000  0.50000000  0.38117350  1
  U  U4_3  1  0.00000000  0.50000000  0.88117350  1
  U  U4_4  1  0.50000000  0.00000000  0.38117350  1
  U  U4_5  1  0.50000000  0.00000000  0.88117350  1
  U  U4_6  1  0.50000000  0.50000000  0.38117350  1
  U  U4_7  1  0.50000000  0.50000000  0.88117350  1
  U  U5_0  1  0.00000000  0.00000000  0.11882650  1
  U  U5_1  1  0.00000000  0.00000000  0.61882650  1
  U  U5_2  1  0.00000000  0.50000000  0.11882650  1
  U  U5_3  1  0.00000000  0.50000000  0.61882650  1
  U  U5_4  1  0.50000000  0.00000000  0.11882650  1
  U  U5_5  1  0.50000000  0.00000000  0.61882650  1
  U  U5_6  1  0.50000000  0.50000000  0.11882650  1
  U  U5_7  1  0.50000000  0.50000000  0.61882650  1
  U  U6_0  1  0.00000000  0.25000000  0.25000000  1
  U  U6_1  1  0.00000000  0.25000000  0.75000000  1
  U  U6_2  1  0.00000000  0.75000000  0.25000000  1
  U  U6_3  1  0.00000000  0.75000000  0.75000000  1
  U  U6_4  1  0.50000000  0.25000000  0.25000000  1
  U  U6_5  1  0.50000000  0.25000000  0.75000000  1
  U  U6_6  1  0.50000000  0.75000000  0.25000000  1
  U  U6_7  1  0.50000000  0.75000000  0.75000000  1
  Mo  Mo0_0  1  0.00000000  0.25000000  0.00000000  1
  Mo  Mo0_1  1  0.00000000  0.25000000  0.50000000  1
  Mo  Mo0_2  1  0.00000000  0.75000000  0.00000000  1
  Mo  Mo0_3  1  0.00000000  0.75000000  0.50000000  1
  Mo  Mo0_4  1  0.50000000  0.25000000  0.00000000  1
  Mo  Mo0_5  1  0.50000000  0.25000000  0.50000000  1
  Mo  Mo0_6  1  0.50000000  0.75000000  0.00000000  1
  Mo  Mo0_7  1  0.50000000  0.75000000  0.50000000  1
loop_
_geom_bond_atom_site_label_1
_geom_bond_atom_site_label_2
_geom_bond_distance
_geom_bond_site_symmetry_2
U0_0 U4_6 2.980411 1_555
U0_0 U4_0 2.980411 1_555
U0_0 U4_4 2.980411 1_555
U0_0 U4_2 2.980411 1_555
U0_0 U6_0 2.986582 1_555
U0_0 U6_4 2.986582 1_555
U0_1 U4_3 2.980411 1_555
U0_1 U4_7 2.980411 1_555
U0_1 U4_1 2.980411 1_555
U0_1 U4_5 2.980411 1_555
U0_1 U6_1 2.986582 1_555
U0_1 U6_5 2.986582 1_555
U0_2 U4_6 2.980411 1_555
U0_2 U4_0 2.980411 1_565
U0_2 U4_2 2.980411 1_555
U0_2 U4_4 2.980411 1_565
U0_2 U6_6 2.986582 1_555
U0_2 U6_2 2.986582 1_555
U0_3 U4_3 2.980411 1_555
U0_3 U4_7 2.980411 1_555
U0_3 U4_1 2.980411 1_565
U0_3 U4_5 2.980411 1_565
U0_3 U6_3 2.986582 1_555
U0_3 U6_7 2.986582 1_555
U0_4 U4_6 2.980411 1_555
U0_4 U4_2 2.980411 1_655
U0_4 U4_4 2.980411 1_555
U0_4 U4_0 2.980411 1_655
U0_4 U6_0 2.986582 1_655
U0_4 U6_4 2.986582 1_555
U0_5 U4_3 2.980411 1_655
U0_5 U4_7 2.980411 1_555
U0_5 U4_1 2.980411 1_655
U0_5 U4_5 2.980411 1_555
U0_5 U6_1 2.986582 1_655
U0_5 U6_5 2.986582 1_555
U0_6 U4_6 2.980411 1_555
U0_6 U4_2 2.980411 1_655
U0_6 U4_4 2.980411 1_565
U0_6 U4_0 2.980411 1_665
U0_6 U6_6 2.986582 1_555
U0_6 U6_2 2.986582 1_655
U0_7 U4_3 2.980411 1_655
U0_7 U4_7 2.980411 1_555
U0_7 U4_5 2.980411 1_565
U0_7 U4_1 2.980411 1_665
U0_7 U6_3 2.986582 1_655
U0_7 U6_7 2.986582 1_555
U1_0 U5_2 2.980411 1_555
U1_0 U5_0 2.980411 1_555
U1_0 U5_6 2.980411 1_555
U1_0 U5_4 2.980411 1_555
U1_0 U6_4 2.986582 1_555
U1_0 U6_0 2.986582 1_555
U1_1 U5_1 2.980411 1_555
U1_1 U5_5 2.980411 1_555
U1_1 U5_3 2.980411 1_555
U1_1 U5_7 2.980411 1_555
U1_1 U6_1 2.986582 1_555
U1_1 U6_5 2.986582 1_555
U1_2 U5_0 2.980411 1_565
U1_2 U5_4 2.980411 1_565
U1_2 U5_2 2.980411 1_555
U1_2 U5_6 2.980411 1_555
U1_2 U6_2 2.986582 1_555
U1_2 U6_6 2.986582 1_555
U1_3 U5_1 2.980411 1_565
U1_3 U5_5 2.980411 1_565
U1_3 U5_3 2.980411 1_555
U1_3 U5_7 2.980411 1_555
U1_3 U6_7 2.986582 1_555
U1_3 U6_3 2.986582 1_555
U1_4 U5_0 2.980411 1_655
U1_4 U5_2 2.980411 1_655
U1_4 U5_6 2.980411 1_555
U1_4 U5_4 2.980411 1_555
U1_4 U6_0 2.986582 1_655
U1_4 U6_4 2.986582 1_555
U1_5 U5_3 2.980411 1_655
U1_5 U5_1 2.980411 1_655
U1_5 U5_5 2.980411 1_555
U1_5 U5_7 2.980411 1_555
U1_5 U6_1 2.986582 1_655
U1_5 U6_5 2.986582 1_555
U1_6 U5_4 2.980411 1_565
U1_6 U5_0 2.980411 1_665
U1_6 U5_2 2.980411 1_655
U1_6 U5_6 2.980411 1_555
U1_6 U6_2 2.986582 1_655
U1_6 U6_6 2.986582 1_555
U1_7 U5_3 2.980411 1_655
U1_7 U5_5 2.980411 1_565
U1_7 U5_1 2.980411 1_665
U1_7 U5_7 2.980411 1_555
U1_7 U6_3 2.986582 1_655
U1_7 U6_7 2.986582 1_555
U2_0 U5_0 2.862526 1_555
U2_0 U5_4 2.862526 1_555
U2_0 U4_5 2.862526 1_554
U2_0 U4_1 2.862526 1_554
U2_1 U4_0 2.862526 1_555
U2_1 U4_4 2.862526 1_555
U2_1 U5_5 2.862526 1_555
U2_1 U5_1 2.862526 1_555
U2_2 U5_2 2.862526 1_555
U2_2 U5_6 2.862526 1_555
U2_2 U4_3 2.862526 1_554
U2_2 U4_7 2.862526 1_554
U2_3 U4_6 2.862526 1_555
U2_3 U4_2 2.862526 1_555
U2_3 U5_3 2.862526 1_555
U2_3 U5_7 2.862526 1_555
U2_4 U5_0 2.862526 1_655
U2_4 U5_4 2.862526 1_555
U2_4 U4_5 2.862526 1_554
U2_4 U4_1 2.862526 1_654
U2_5 U4_4 2.862526 1_555
U2_5 U4_0 2.862526 1_655
U2_5 U5_1 2.862526 1_655
U2_5 U5_5 2.862526 1_555
U2_6 U5_2 2.862526 1_655
U2_6 U5_6 2.862526 1_555
U2_6 U4_3 2.862526 1_654
U2_6 U4_7 2.862526 1_554
U2_7 U4_2 2.862526 1_655
U2_7 U4_6 2.862526 1_555
U2_7 U5_7 2.862526 1_555
U2_7 U5_3 2.862526 1_655
U3_0 U6_6 2.978422 1_545
U3_0 U6_0 2.978422 1_555
U3_0 U6_4 2.978422 1_555
U3_0 U6_2 2.978422 1_545
U3_0 U3_4 2.998514 1_455
U3_0 U3_4 2.998514 1_555
U3_0 U5_4 3.081231 1_555
U3_0 U5_0 3.081231 1_555
U3_0 U4_0 3.081231 1_555
U3_0 U4_4 3.081231 1_555
U3_1 U6_3 2.978422 1_545
U3_1 U6_1 2.978422 1_555
U3_1 U6_7 2.978422 1_545
U3_1 U6_5 2.978422 1_555
U3_1 U3_5 2.998514 1_455
U3_1 U3_5 2.998514 1_555
U3_1 U4_5 3.081231 1_555
U3_1 U4_1 3.081231 1_555
U3_1 U5_1 3.081231 1_555
U3_1 U5_5 3.081231 1_555
U3_2 U6_2 2.978422 1_555
U3_2 U6_6 2.978422 1_555
U3_2 U6_0 2.978422 1_555
U3_2 U6_4 2.978422 1_555
U3_2 U3_6 2.998514 1_555
U3_2 U3_6 2.998514 1_455
U3_2 U5_2 3.081231 1_555
U3_2 U5_6 3.081231 1_555
U3_2 U4_2 3.081231 1_555
U3_2 U4_6 3.081231 1_555
U3_3 U6_3 2.978422 1_555
U3_3 U6_1 2.978422 1_555
U3_3 U6_7 2.978422 1_555
U3_3 U6_5 2.978422 1_555
U3_3 U3_7 2.998514 1_555
U3_3 U3_7 2.998514 1_455
U3_3 U4_3 3.081231 1_555
U3_3 U4_7 3.081231 1_555
U3_3 U5_7 3.081231 1_555
U3_3 U5_3 3.081231 1_555
U3_4 U6_6 2.978422 1_545
U3_4 U6_0 2.978422 1_655
U3_4 U6_4 2.978422 1_555
U3_4 U6_2 2.978422 1_645
U3_4 U5_0 3.081231 1_655
U3_4 U5_4 3.081231 1_555
U3_4 U4_0 3.081231 1_655
U3_4 U4_4 3.081231 1_555
U3_5 U6_3 2.978422 1_645
U3_5 U6_7 2.978422 1_545
U3_5 U6_1 2.978422 1_655
U3_5 U6_5 2.978422 1_555
U3_5 U4_5 3.081231 1_555
U3_5 U4_1 3.081231 1_655
U3_5 U5_1 3.081231 1_655
U3_5 U5_5 3.081231 1_555
U3_6 U6_6 2.978422 1_555
U3_6 U6_0 2.978422 1_655
U3_6 U6_4 2.978422 1_555
U3_6 U6_2 2.978422 1_655
U3_6 U5_2 3.081231 1_655
U3_6 U5_6 3.081231 1_555
U3_6 U4_6 3.081231 1_555
U3_6 U4_2 3.081231 1_655
U3_7 U6_3 2.978422 1_655
U3_7 U6_7 2.978422 1_555
U3_7 U6_1 2.978422 1_655
U3_7 U6_5 2.978422 1_555
U3_7 U4_3 3.081231 1_655
U3_7 U4_7 3.081231 1_555
U3_7 U5_7 3.081231 1_555
U3_7 U5_3 3.081231 1_655
U4_0 U4_4 2.998514 1_455
U4_0 U4_4 2.998514 1_555
U4_1 U4_5 2.998514 1_555
U4_1 U4_5 2.998514 1_455
U4_2 U4_6 2.998514 1_455
U4_2 U4_6 2.998514 1_555
U4_3 U4_7 2.998514 1_555
U4_3 U4_7 2.998514 1_455
U5_0 U5_4 2.998514 1_455
U5_0 U5_4 2.998514 1_555
U5_1 U5_5 2.998514 1_455
U5_1 U5_5 2.998514 1_555
U5_2 U5_6 2.998514 1_555
U5_2 U5_6 2.998514 1_455
U5_3 U5_7 2.998514 1_455
U5_3 U5_7 2.998514 1_555
U6_0 U6_4 2.998514 1_555
U6_0 U6_4 2.998514 1_455
U6_1 U6_5 2.998514 1_555
U6_1 U6_5 2.998514 1_455
U6_2 U6_6 2.998514 1_455
U6_2 U6_6 2.998514 1_555
U6_3 U6_7 2.998514 1_555
U6_3 U6_7 2.998514 1_455
Mo0_0 U1_4 2.955825 1_455
Mo0_0 U1_0 2.955825 1_555
Mo0_0 U0_1 2.955825 1_554
Mo0_0 U0_5 2.955825 1_454
Mo0_0 U2_0 2.978422 1_555
Mo0_0 U2_4 2.978422 1_455
Mo0_0 U2_6 2.978422 1_455
Mo0_0 U2_2 2.978422 1_555
Mo0_0 U5_2 3.545350 1_555
Mo0_0 U5_0 3.545350 1_555
Mo0_0 U4_1 3.545350 1_554
Mo0_0 U4_3 3.545350 1_554
Mo0_1 U0_0 2.955825 1_555
Mo0_1 U1_5 2.955825 1_455
Mo0_1 U1_1 2.955825 1_555
Mo0_1 U0_4 2.955825 1_455
Mo0_1 U2_3 2.978422 1_555
Mo0_1 U2_7 2.978422 1_455
Mo0_1 U2_1 2.978422 1_555
Mo0_1 U2_5 2.978422 1_455
Mo0_1 U4_0 3.545350 1_555
Mo0_1 U4_2 3.545350 1_555
Mo0_1 U5_1 3.545350 1_555
Mo0_1 U5_3 3.545350 1_555
Mo0_2 U1_6 2.955825 1_455
Mo0_2 U1_2 2.955825 1_555
Mo0_2 U0_3 2.955825 1_554
Mo0_2 U0_7 2.955825 1_454
Mo0_2 U2_0 2.978422 1_565
Mo0_2 U2_4 2.978422 1_465
Mo0_2 U2_6 2.978422 1_455
Mo0_2 U2_2 2.978422 1_555
Mo0_2 U5_0 3.545350 1_565
Mo0_2 U5_2 3.545350 1_555
Mo0_2 U4_1 3.545350 1_564
Mo0_2 U4_3 3.545350 1_554
Mo0_3 U1_7 2.955825 1_455
Mo0_3 U0_6 2.955825 1_455
Mo0_3 U1_3 2.955825 1_555
Mo0_3 U0_2 2.955825 1_555
Mo0_3 U2_3 2.978422 1_555
Mo0_3 U2_7 2.978422 1_455
Mo0_3 U2_5 2.978422 1_465
Mo0_3 U2_1 2.978422 1_565
Mo0_3 U4_0 3.545350 1_565
Mo0_3 U4_2 3.545350 1_555
Mo0_3 U5_3 3.545350 1_555
Mo0_3 U5_1 3.545350 1_565
Mo0_4 U1_0 2.955825 1_555
Mo0_4 U1_4 2.955825 1_555
Mo0_4 U0_1 2.955825 1_554
Mo0_4 U0_5 2.955825 1_554
Mo0_4 U2_0 2.978422 1_555
Mo0_4 U2_6 2.978422 1_555
Mo0_4 U2_4 2.978422 1_555
Mo0_4 U2_2 2.978422 1_555
Mo0_4 U5_6 3.545350 1_555
Mo0_4 U5_4 3.545350 1_555
Mo0_4 U4_7 3.545350 1_554
Mo0_4 U4_5 3.545350 1_554
Mo0_5 U1_5 2.955825 1_555
Mo0_5 U0_0 2.955825 1_555
Mo0_5 U0_4 2.955825 1_555
Mo0_5 U1_1 2.955825 1_555
Mo0_5 U2_3 2.978422 1_555
Mo0_5 U2_1 2.978422 1_555
Mo0_5 U2_7 2.978422 1_555
Mo0_5 U2_5 2.978422 1_555
Mo0_5 U4_6 3.545350 1_555
Mo0_5 U4_4 3.545350 1_555
Mo0_5 U5_5 3.545350 1_555
Mo0_5 U5_7 3.545350 1_555
Mo0_6 U1_6 2.955825 1_555
Mo0_6 U1_2 2.955825 1_555
Mo0_6 U0_7 2.955825 1_554
Mo0_6 U0_3 2.955825 1_554
Mo0_6 U2_6 2.978422 1_555
Mo0_6 U2_0 2.978422 1_565
Mo0_6 U2_4 2.978422 1_565
Mo0_6 U2_2 2.978422 1_555
Mo0_6 U5_6 3.545350 1_555
Mo0_6 U5_4 3.545350 1_565
Mo0_6 U4_7 3.545350 1_554
Mo0_6 U4_5 3.545350 1_564
Mo0_7 U0_6 2.955825 1_555
Mo0_7 U1_3 2.955825 1_555
Mo0_7 U1_7 2.955825 1_555
Mo0_7 U0_2 2.955825 1_555
Mo0_7 U2_3 2.978422 1_555
Mo0_7 U2_5 2.978422 1_565
Mo0_7 U2_7 2.978422 1_555
Mo0_7 U2_1 2.978422 1_565
Mo0_7 U4_4 3.545350 1_565
Mo0_7 U4_6 3.545350 1_555
Mo0_7 U5_7 3.545350 1_555
Mo0_7 U5_5 3.545350 1_565
