# generated using pymatgen
data_Ce23Cd4Ir7
_symmetry_space_group_name_H-M   'P 1'
_cell_length_a   9.86456327
_cell_length_b   9.86456327
_cell_length_c   22.13411585
_cell_angle_alpha   90.00000000
_cell_angle_beta   90.00000000
_cell_angle_gamma   120.00000573
_symmetry_Int_Tables_number   1
_chemical_formula_structural   Ce23Cd4Ir7
_chemical_formula_sum   'Ce46 Cd8 Ir14'
_cell_volume   1865.29923051
_cell_formula_units_Z   2
loop_
 _symmetry_equiv_pos_site_id
 _symmetry_equiv_pos_as_xyz
  1  'x, y, z'
loop_
 _atom_site_type_symbol
 _atom_site_label
 _atom_site_symmetry_multiplicity
 _atom_site_fract_x
 _atom_site_fract_y
 _atom_site_fract_z
 _atom_site_occupancy
  Ce  Ce0  1  0.20504025  0.41008049  0.71893142  1
  Ce  Ce1  1  0.20504025  0.79495975  0.71893142  1
  Ce  Ce2  1  0.79495975  0.58991951  0.21893142  1
  Ce  Ce3  1  0.58991951  0.79495975  0.71893142  1
  Ce  Ce4  1  0.79495975  0.20504025  0.21893142  1
  Ce  Ce5  1  0.41008049  0.20504025  0.21893142  1
  Ce  Ce6  1  0.79513601  0.59027202  0.94608437  1
  Ce  Ce7  1  0.79513601  0.20486399  0.94608437  1
  Ce  Ce8  1  0.20486399  0.40972798  0.44608437  1
  Ce  Ce9  1  0.40972798  0.20486399  0.94608437  1
  Ce  Ce10  1  0.20486399  0.79513601  0.44608437  1
  Ce  Ce11  1  0.59027202  0.79513601  0.44608437  1
  Ce  Ce12  1  0.21032999  0.42065998  0.99172709  1
  Ce  Ce13  1  0.21032999  0.78967001  0.99172709  1
  Ce  Ce14  1  0.78967001  0.57934002  0.49172709  1
  Ce  Ce15  1  0.57934002  0.78967001  0.99172709  1
  Ce  Ce16  1  0.78967001  0.21032999  0.49172709  1
  Ce  Ce17  1  0.42065998  0.21032999  0.49172709  1
  Ce  Ce18  1  0.86865592  0.73731185  0.63682752  1
  Ce  Ce19  1  0.86865592  0.13134408  0.63682752  1
  Ce  Ce20  1  0.13134408  0.26268815  0.13682752  1
  Ce  Ce21  1  0.26268815  0.13134408  0.63682752  1
  Ce  Ce22  1  0.13134408  0.86865592  0.13682752  1
  Ce  Ce23  1  0.73731185  0.86865592  0.13682752  1
  Ce  Ce24  1  0.45760493  0.91520985  0.85686202  1
  Ce  Ce25  1  0.45760493  0.54239507  0.85686202  1
  Ce  Ce26  1  0.54239507  0.08479015  0.35686202  1
  Ce  Ce27  1  0.08479015  0.54239507  0.85686202  1
  Ce  Ce28  1  0.54239507  0.45760493  0.35686202  1
  Ce  Ce29  1  0.91520985  0.45760493  0.35686202  1
  Ce  Ce30  1  0.00000000  -0.00000000  0.99685394  1
  Ce  Ce31  1  0.00000000  -0.00000000  0.49685394  1
  Ce  Ce32  1  0.46165372  0.92330744  0.58438834  1
  Ce  Ce33  1  0.46165372  0.53834628  0.58438834  1
  Ce  Ce34  1  0.53834628  0.07669256  0.08438834  1
  Ce  Ce35  1  0.07669256  0.53834628  0.58438834  1
  Ce  Ce36  1  0.53834628  0.46165372  0.08438834  1
  Ce  Ce37  1  0.92330744  0.46165372  0.08438834  1
  Ce  Ce38  1  0.79804337  0.59608674  0.78307252  1
  Ce  Ce39  1  0.79804337  0.20195663  0.78307252  1
  Ce  Ce40  1  0.20195663  0.40391326  0.28307252  1
  Ce  Ce41  1  0.40391326  0.20195663  0.78307252  1
  Ce  Ce42  1  0.20195663  0.79804337  0.28307252  1
  Ce  Ce43  1  0.59608674  0.79804337  0.28307252  1
  Ce  Ce44  1  0.66666700  0.33333300  0.63926839  1
  Ce  Ce45  1  0.33333300  0.66666700  0.13926839  1
  Cd  Cd0  1  0.00000000  -0.00000000  0.74868240  1
  Cd  Cd1  1  0.00000000  -0.00000000  0.24868240  1
  Cd  Cd2  1  0.10652139  0.21304278  0.86314804  1
  Cd  Cd3  1  0.10652139  0.89347861  0.86314804  1
  Cd  Cd4  1  0.89347861  0.78695722  0.36314804  1
  Cd  Cd5  1  0.78695722  0.89347861  0.86314804  1
  Cd  Cd6  1  0.89347861  0.10652139  0.36314804  1
  Cd  Cd7  1  0.21304278  0.10652139  0.36314804  1
  Ir  Ir0  1  0.51929645  0.03859289  0.71042923  1
  Ir  Ir1  1  0.51929645  0.48070355  0.71042923  1
  Ir  Ir2  1  0.48070355  0.96140711  0.21042923  1
  Ir  Ir3  1  0.96140711  0.48070355  0.71042923  1
  Ir  Ir4  1  0.48070355  0.51929645  0.21042923  1
  Ir  Ir5  1  0.03859289  0.51929645  0.21042923  1
  Ir  Ir6  1  0.66666700  0.33333300  0.86536473  1
  Ir  Ir7  1  0.33333300  0.66666700  0.36536473  1
  Ir  Ir8  1  0.14481100  0.28962199  0.56404630  1
  Ir  Ir9  1  0.14481100  0.85518900  0.56404630  1
  Ir  Ir10  1  0.85518900  0.71037801  0.06404630  1
  Ir  Ir11  1  0.71037801  0.85518900  0.56404630  1
  Ir  Ir12  1  0.85518900  0.14481100  0.06404630  1
  Ir  Ir13  1  0.28962199  0.14481100  0.06404630  1
loop_
_geom_bond_atom_site_label_1
_geom_bond_atom_site_label_2
_geom_bond_distance
_geom_bond_site_symmetry_2
Ce0 Ir1 2.823313 1_555
Ce0 Ir3 2.823313 1_455
Ce1 Ir3 2.823313 1_455
Ce1 Ir0 2.823313 1_565
Ce2 Ir4 2.823313 1_555
Ce2 Ir5 2.823313 1_655
Ce3 Ir1 2.823313 1_555
Ce3 Ir0 2.823313 1_565
Ce4 Ir2 2.823313 1_545
Ce4 Ir5 2.823313 1_655
Ce5 Ir4 2.823313 1_555
Ce5 Ir2 2.823313 1_545
Ce6 Ir10 2.805358 1_556
Ce6 Ir6 2.830240 1_555
Ce7 Ir12 2.805358 1_556
Ce7 Ir6 2.830234 1_555
Ce8 Ir8 2.805358 1_555
Ce8 Ir7 2.830240 1_555
Ce9 Ir13 2.805358 1_556
Ce9 Ir6 2.830240 1_555
Ce10 Ir9 2.805358 1_555
Ce10 Ir7 2.830234 1_555
Ce11 Ir11 2.805358 1_555
Ce11 Ir7 2.830240 1_555
Ce12 Ir12 3.564699 1_456
Ce12 Ir13 3.564699 1_556
Ce13 Ir13 3.564699 1_566
Ce13 Ir10 3.564699 1_456
Ce14 Ir9 3.564699 1_655
Ce14 Ir11 3.564699 1_555
Ce15 Ir12 3.564699 1_566
Ce15 Ir10 3.564699 1_556
Ce16 Ir11 3.564699 1_545
Ce16 Ir8 3.564699 1_655
Ce17 Ir9 3.564699 1_545
Ce17 Ir8 3.564699 1_555
Ce18 Ir9 2.863669 1_655
Ce18 Ir11 2.863669 1_555
Ce18 Ir1 3.494967 1_555
Ce18 Ir3 3.494967 1_555
Ce19 Ir11 2.863669 1_545
Ce19 Ir8 2.863669 1_655
Ce19 Ir0 3.494967 1_555
Ce19 Ir3 3.494967 1_555
Ce20 Ir12 2.863669 1_455
Ce20 Ir13 2.863669 1_555
Ce20 Ir4 3.494967 1_555
Ce20 Ir5 3.494967 1_555
Ce21 Ir9 2.863669 1_545
Ce21 Ir8 2.863669 1_555
Ce21 Ir1 3.494967 1_555
Ce21 Ir0 3.494967 1_555
Ce22 Ir10 2.863669 1_455
Ce22 Ir13 2.863669 1_565
Ce22 Ir5 3.494967 1_555
Ce22 Ir2 3.494967 1_555
Ce23 Ir12 2.863669 1_565
Ce23 Ir10 2.863669 1_555
Ce23 Ir4 3.494967 1_555
Ce23 Ir2 3.494967 1_555
Ce24 Ir0 3.408248 1_565
Ce24 Ir6 3.576965 1_565
Ce25 Ir1 3.408248 1_555
Ce25 Ir6 3.576973 1_555
Ce26 Ir2 3.408248 1_545
Ce26 Ir7 3.576965 1_545
Ce27 Ir3 3.408248 1_455
Ce27 Ir6 3.576965 1_455
Ce28 Ir4 3.408248 1_555
Ce28 Ir7 3.576973 1_555
Ce29 Ir5 3.408248 1_655
Ce29 Ir7 3.576965 1_655
Ce30 Ir10 2.886816 1_446
Ce30 Ir13 2.886816 1_556
Ce30 Ir12 2.886816 1_456
Ce31 Ir11 2.886816 1_445
Ce31 Ir8 2.886816 1_555
Ce31 Ir9 2.886816 1_545
Ce32 Ir9 2.884941 1_555
Ce32 Ir11 2.884941 1_555
Ce32 Ir0 2.958546 1_565
Ce33 Ir8 2.884941 1_555
Ce33 Ir11 2.884941 1_555
Ce33 Ir1 2.958546 1_555
Ce34 Ir12 2.884941 1_555
Ce34 Ir13 2.884941 1_555
Ce34 Ir2 2.958546 1_545
Ce35 Ir9 2.884941 1_555
Ce35 Ir8 2.884941 1_555
Ce35 Ir3 2.958546 1_455
Ce36 Ir13 2.884941 1_555
Ce36 Ir10 2.884941 1_555
Ce36 Ir4 2.958546 1_555
Ce37 Ir12 2.884941 1_555
Ce37 Ir10 2.884941 1_555
Ce37 Ir5 2.958546 1_655
Ce38 Ir1 2.883060 1_555
Ce38 Ir3 2.883061 1_555
Ce38 Ir6 2.890743 1_555
Ce39 Ir3 2.883060 1_555
Ce39 Ir0 2.883060 1_555
Ce39 Ir6 2.890736 1_555
Ce40 Ir4 2.883060 1_555
Ce40 Ir5 2.883061 1_555
Ce40 Ir7 2.890743 1_555
Ce41 Ir1 2.883060 1_555
Ce41 Ir0 2.883061 1_555
Ce41 Ir6 2.890743 1_555
Ce42 Ir5 2.883060 1_555
Ce42 Ir2 2.883060 1_555
Ce42 Ir7 2.890736 1_555
Ce43 Ir4 2.883060 1_555
Ce43 Ir2 2.883061 1_555
Ce43 Ir7 2.890743 1_555
Ce44 Ir3 2.970012 1_555
Ce44 Ir0 2.970012 1_555
Ce44 Ir1 2.970020 1_555
Ce45 Ir5 2.970012 1_555
Ce45 Ir2 2.970012 1_555
Ce45 Ir4 2.970020 1_555
Cd0 Cd2 3.119546 1_555
Cd0 Cd5 3.119546 1_445
Cd0 Cd3 3.119546 1_545
Cd0 Ce21 3.341522 1_555
Cd0 Ce18 3.341522 1_445
Cd0 Ce19 3.341522 1_455
Cd0 Ce41 3.533577 1_555
Cd0 Ce38 3.533577 1_445
Cd0 Ce39 3.533577 1_455
Cd0 Ce0 3.564655 1_555
Cd0 Ce3 3.564655 1_445
Cd0 Ce1 3.564655 1_545
Cd1 Cd7 3.119546 1_555
Cd1 Cd4 3.119546 1_445
Cd1 Cd6 3.119546 1_455
Cd1 Ce23 3.341522 1_445
Cd1 Ce20 3.341522 1_555
Cd1 Ce22 3.341522 1_545
Cd1 Ce40 3.533577 1_555
Cd1 Ce43 3.533577 1_445
Cd1 Ce42 3.533577 1_545
Cd1 Ce5 3.564655 1_555
Cd1 Ce2 3.564655 1_445
Cd1 Ce4 3.564655 1_455
Cd2 Cd5 3.152361 1_445
Cd2 Cd3 3.152361 1_545
Cd2 Ce12 3.353433 1_555
Cd2 Ce25 3.364110 1_555
Cd2 Ce27 3.364110 1_555
Cd2 Ce30 3.474316 1_555
Cd2 Ce39 3.475692 1_455
Cd2 Ce41 3.475692 1_555
Cd2 Ce7 3.544543 1_455
Cd2 Ce9 3.544543 1_555
Cd2 Ce0 3.608739 1_555
Cd3 Cd5 3.152361 1_455
Cd3 Ce13 3.353433 1_555
Cd3 Ce27 3.364110 1_555
Cd3 Ce24 3.364110 1_555
Cd3 Ce30 3.474316 1_565
Cd3 Ce38 3.475692 1_455
Cd3 Ce41 3.475692 1_565
Cd3 Ce6 3.544543 1_455
Cd3 Ce9 3.544543 1_565
Cd3 Ce1 3.608740 1_555
Cd4 Cd7 3.152361 1_665
Cd4 Cd6 3.152361 1_565
Cd4 Ce14 3.353433 1_555
Cd4 Ce28 3.364110 1_555
Cd4 Ce29 3.364110 1_555
Cd4 Ce31 3.474316 1_665
Cd4 Ce42 3.475692 1_655
Cd4 Ce43 3.475692 1_555
Cd4 Ce10 3.544543 1_655
Cd4 Ce11 3.544543 1_555
Cd4 Ce2 3.608739 1_555
Cd5 Ce15 3.353433 1_555
Cd5 Ce25 3.364110 1_555
Cd5 Ce24 3.364110 1_555
Cd5 Ce30 3.474316 1_665
Cd5 Ce39 3.475692 1_565
Cd5 Ce38 3.475692 1_555
Cd5 Ce7 3.544543 1_565
Cd5 Ce6 3.544543 1_555
Cd5 Ce3 3.608739 1_555
Cd6 Cd7 3.152361 1_655
Cd6 Ce16 3.353433 1_555
Cd6 Ce26 3.364110 1_555
Cd6 Ce29 3.364110 1_555
Cd6 Ce31 3.474316 1_655
Cd6 Ce43 3.475692 1_545
Cd6 Ce40 3.475692 1_655
Cd6 Ce11 3.544543 1_545
Cd6 Ce8 3.544543 1_655
Cd6 Ce4 3.608740 1_555
Cd7 Ce17 3.353433 1_555
Cd7 Ce28 3.364110 1_555
Cd7 Ce26 3.364110 1_555
Cd7 Ce31 3.474316 1_555
Cd7 Ce42 3.475692 1_545
Cd7 Ce40 3.475692 1_555
Cd7 Ce10 3.544543 1_545
Cd7 Ce8 3.544543 1_555
Cd7 Ce5 3.608739 1_555
