# generated using pymatgen
data_Er2Co7B3
_symmetry_space_group_name_H-M   'P 1'
_cell_length_a   4.99480027
_cell_length_b   4.99480027
_cell_length_c   12.78416100
_cell_angle_alpha   90.00000000
_cell_angle_beta   90.00000000
_cell_angle_gamma   120.00000359
_symmetry_Int_Tables_number   1
_chemical_formula_structural   Er2Co7B3
_chemical_formula_sum   'Er4 Co14 B6'
_cell_volume   276.20981094
_cell_formula_units_Z   2
loop_
 _symmetry_equiv_pos_site_id
 _symmetry_equiv_pos_as_xyz
  1  'x, y, z'
loop_
 _atom_site_type_symbol
 _atom_site_label
 _atom_site_symmetry_multiplicity
 _atom_site_fract_x
 _atom_site_fract_y
 _atom_site_fract_z
 _atom_site_occupancy
  Er  Er0  1  0.00000000  0.00000000  0.00000000  1
  Er  Er1  1  0.00000000  0.00000000  0.50000000  1
  Er  Er2  1  0.00000000  0.00000000  0.73918800  1
  Er  Er3  1  0.00000000  0.00000000  0.26081200  1
  Co  Co0  1  0.66666700  0.33333300  0.00000000  1
  Co  Co1  1  0.33333300  0.66666700  0.00000000  1
  Co  Co2  1  0.50000000  0.50000000  0.84519400  1
  Co  Co3  1  0.50000000  0.00000000  0.84519400  1
  Co  Co4  1  0.00000000  0.50000000  0.84519400  1
  Co  Co5  1  0.50000000  0.50000000  0.15480600  1
  Co  Co6  1  0.50000000  0.00000000  0.15480600  1
  Co  Co7  1  0.00000000  0.50000000  0.15480600  1
  Co  Co8  1  0.50000000  0.50000000  0.61551100  1
  Co  Co9  1  0.50000000  0.00000000  0.61551100  1
  Co  Co10  1  0.00000000  0.50000000  0.61551100  1
  Co  Co11  1  0.50000000  0.50000000  0.38448900  1
  Co  Co12  1  0.50000000  0.00000000  0.38448900  1
  Co  Co13  1  0.00000000  0.50000000  0.38448900  1
  B  B0  1  0.66666700  0.33333300  0.50000000  1
  B  B1  1  0.33333300  0.66666700  0.50000000  1
  B  B2  1  0.66666700  0.33333300  0.73156700  1
  B  B3  1  0.33333300  0.66666700  0.73156700  1
  B  B4  1  0.33333300  0.66666700  0.26843300  1
  B  B5  1  0.66666700  0.33333300  0.26843300  1
loop_
_geom_bond_atom_site_label_1
_geom_bond_atom_site_label_2
_geom_bond_distance
_geom_bond_site_symmetry_2
Er1 Er2 3.057818 1_555
Er1 Er3 3.057818 1_555
Co0 Co7 2.448611 1_655
Co0 Co3 2.448611 1_554
Co0 Co6 2.448611 1_555
Co0 Co4 2.448611 1_654
Co0 Co2 2.448614 1_554
Co0 Co5 2.448614 1_555
Co0 Er0 2.883746 1_655
Co0 Er0 2.883751 1_665
Co0 Er0 2.883751 1_555
Co1 Co6 2.448611 1_565
Co1 Co4 2.448611 1_554
Co1 Co7 2.448611 1_555
Co1 Co3 2.448611 1_564
Co1 Co2 2.448614 1_554
Co1 Co5 2.448614 1_555
Co1 Er0 2.883746 1_565
Co1 Er0 2.883751 1_555
Co1 Er0 2.883751 1_665
Co2 Er2 2.841402 1_555
Co2 Er2 2.841402 1_665
Co3 Er2 2.841403 1_655
Co3 Er2 2.841403 1_555
Co4 Er2 2.841403 1_565
Co4 Er2 2.841403 1_555
Co5 Er3 2.841402 1_555
Co5 Er3 2.841402 1_665
Co6 Er3 2.841403 1_555
Co6 Er3 2.841403 1_655
Co7 Er3 2.841403 1_555
Co7 Er3 2.841403 1_565
Co8 Er1 2.901324 1_665
Co8 Er1 2.901324 1_555
Co8 Er2 2.955826 1_665
Co8 Er2 2.955826 1_555
Co9 Er1 2.901324 1_655
Co9 Er1 2.901324 1_555
Co9 Er2 2.955826 1_655
Co9 Er2 2.955826 1_555
Co10 Er1 2.901324 1_565
Co10 Er1 2.901324 1_555
Co10 Er2 2.955826 1_555
Co10 Er2 2.955826 1_565
Co11 Er1 2.901324 1_555
Co11 Er1 2.901324 1_665
Co11 Er3 2.955826 1_555
Co11 Er3 2.955826 1_665
Co12 Er1 2.901324 1_555
Co12 Er1 2.901324 1_655
Co12 Er3 2.955826 1_555
Co12 Er3 2.955826 1_655
Co13 Er1 2.901324 1_555
Co13 Er1 2.901324 1_565
Co13 Er3 2.955826 1_555
Co13 Er3 2.955826 1_565
B0 Co10 2.063898 1_655
B0 Co9 2.063898 1_555
B0 Co13 2.063898 1_655
B0 Co12 2.063898 1_555
B0 Co8 2.063901 1_555
B0 Co11 2.063901 1_555
B0 Er1 2.883746 1_655
B0 Er1 2.883751 1_665
B0 Er1 2.883751 1_555
B1 Co9 2.063898 1_565
B1 Co10 2.063898 1_555
B1 Co12 2.063898 1_565
B1 Co13 2.063898 1_555
B1 Co8 2.063901 1_555
B1 Co11 2.063901 1_555
B1 Er1 2.883746 1_565
B1 Er1 2.883751 1_555
B1 Er1 2.883751 1_665
B2 Co3 2.046734 1_555
B2 Co4 2.046734 1_655
B2 Co2 2.046737 1_555
B2 Co10 2.068889 1_655
B2 Co9 2.068889 1_555
B2 Co8 2.068892 1_555
B2 Er2 2.885392 1_655
B2 Er2 2.885396 1_665
B2 Er2 2.885396 1_555
B3 Co3 2.046734 1_565
B3 Co4 2.046734 1_555
B3 Co2 2.046737 1_555
B3 Co9 2.068889 1_565
B3 Co10 2.068889 1_555
B3 Co8 2.068892 1_555
B3 Er2 2.885392 1_565
B3 Er2 2.885396 1_555
B3 Er2 2.885396 1_665
B4 Co7 2.046734 1_555
B4 Co6 2.046734 1_565
B4 Co5 2.046737 1_555
B4 Co12 2.068889 1_565
B4 Co13 2.068889 1_555
B4 Co11 2.068892 1_555
B4 Er3 2.885392 1_565
B4 Er3 2.885396 1_555
B4 Er3 2.885396 1_665
B5 Co7 2.046734 1_655
B5 Co6 2.046734 1_555
B5 Co5 2.046737 1_555
B5 Co13 2.068889 1_655
B5 Co12 2.068889 1_555
B5 Co11 2.068892 1_555
B5 Er3 2.885392 1_655
B5 Er3 2.885396 1_665
B5 Er3 2.885396 1_555
