# generated using pymatgen
data_Tb9Mg5Ni4
_symmetry_space_group_name_H-M   'P 1'
_cell_length_a   10.92478820
_cell_length_b   10.92540065
_cell_length_c   3.63112699
_cell_angle_alpha   90.00000000
_cell_angle_beta   90.00000000
_cell_angle_gamma   89.99952108
_symmetry_Int_Tables_number   1
_chemical_formula_structural   Tb9Mg5Ni4
_chemical_formula_sum   'Tb9 Mg5 Ni4'
_cell_volume   433.40292272
_cell_formula_units_Z   1
loop_
 _symmetry_equiv_pos_site_id
 _symmetry_equiv_pos_as_xyz
  1  'x, y, z'
loop_
 _atom_site_type_symbol
 _atom_site_label
 _atom_site_symmetry_multiplicity
 _atom_site_fract_x
 _atom_site_fract_y
 _atom_site_fract_z
 _atom_site_occupancy
  Tb  Tb0  1  0.32077926  0.32076914  0.50000000  1
  Tb  Tb1  1  0.67922074  0.67923086  0.50000000  1
  Tb  Tb2  1  0.32077431  0.67923552  0.50000000  1
  Tb  Tb3  1  0.67922569  0.32076448  0.50000000  1
  Tb  Tb4  1  -0.00000029  0.27571808  0.50000000  1
  Tb  Tb5  1  0.00000029  0.72428192  0.50000000  1
  Tb  Tb6  1  0.27573056  -0.00000010  0.50000000  1
  Tb  Tb7  1  0.72426944  0.00000010  0.50000000  1
  Tb  Tb8  1  -0.00000000  0.00000000  -0.00000000  1
  Mg  Mg0  1  0.49999986  0.14077595  -0.00000000  1
  Mg  Mg1  1  0.50000014  0.85922405  -0.00000000  1
  Mg  Mg2  1  0.14078689  0.49999993  -0.00000000  1
  Mg  Mg3  1  0.85921311  0.50000007  0.00000000  1
  Mg  Mg4  1  0.50000000  0.50000000  -0.00000000  1
  Ni  Ni0  1  0.19059985  0.19058963  0.00000000  1
  Ni  Ni1  1  0.80940015  0.80941037  -0.00000000  1
  Ni  Ni2  1  0.19059562  0.80941375  -0.00000000  1
  Ni  Ni3  1  0.80940438  0.19058625  -0.00000000  1
loop_
_geom_bond_atom_site_label_1
_geom_bond_atom_site_label_2
_geom_bond_distance
_geom_bond_site_symmetry_2
Mg0 Mg1 3.076067 1_545
Mg0 Tb0 3.316154 1_555
Mg0 Tb0 3.316154 1_554
Mg0 Tb3 3.316177 1_555
Mg0 Tb3 3.316177 1_554
Mg0 Tb7 3.415367 1_555
Mg0 Tb7 3.415367 1_554
Mg0 Tb6 3.415384 1_554
Mg0 Tb6 3.415384 1_555
Mg1 Tb1 3.316154 1_554
Mg1 Tb1 3.316154 1_555
Mg1 Tb2 3.316177 1_555
Mg1 Tb2 3.316177 1_554
Mg1 Tb6 3.415367 1_564
Mg1 Tb6 3.415367 1_565
Mg1 Tb7 3.415384 1_565
Mg1 Tb7 3.415384 1_564
Mg2 Mg3 3.076134 1_455
Mg2 Tb0 3.316214 1_555
Mg2 Tb0 3.316214 1_554
Mg2 Tb2 3.316232 1_554
Mg2 Tb2 3.316232 1_555
Mg2 Tb5 3.415577 1_555
Mg2 Tb5 3.415577 1_554
Mg2 Tb4 3.415597 1_554
Mg2 Tb4 3.415597 1_555
Mg3 Tb1 3.316214 1_554
Mg3 Tb1 3.316214 1_555
Mg3 Tb3 3.316232 1_555
Mg3 Tb3 3.316232 1_554
Mg3 Tb4 3.415577 1_654
Mg3 Tb4 3.415577 1_655
Mg3 Tb5 3.415597 1_655
Mg3 Tb5 3.415597 1_654
Mg4 Tb1 3.311242 1_554
Mg4 Tb1 3.311242 1_555
Mg4 Tb0 3.311242 1_555
Mg4 Tb0 3.311242 1_554
Mg4 Tb2 3.311285 1_555
Mg4 Tb2 3.311285 1_554
Mg4 Tb3 3.311285 1_554
Mg4 Tb3 3.311285 1_555
Ni0 Tb0 2.709565 1_555
Ni0 Tb0 2.709565 1_554
Ni0 Tb6 2.914970 1_554
Ni0 Tb6 2.914970 1_555
Ni0 Tb4 2.914976 1_555
Ni0 Tb4 2.914976 1_554
Ni0 Tb8 2.944780 1_555
Ni1 Tb1 2.709565 1_554
Ni1 Tb1 2.709565 1_555
Ni1 Tb7 2.914970 1_565
Ni1 Tb7 2.914970 1_564
Ni1 Tb5 2.914976 1_655
Ni1 Tb5 2.914976 1_654
Ni1 Tb8 2.944780 1_665
Ni2 Tb2 2.709541 1_555
Ni2 Tb2 2.709541 1_554
Ni2 Tb5 2.914962 1_555
Ni2 Tb5 2.914962 1_554
Ni2 Tb6 2.914968 1_565
Ni2 Tb6 2.914968 1_564
Ni2 Tb8 2.944697 1_565
Ni3 Tb3 2.709541 1_554
Ni3 Tb3 2.709541 1_555
Ni3 Tb4 2.914962 1_655
Ni3 Tb4 2.914962 1_654
Ni3 Tb7 2.914968 1_554
Ni3 Tb7 2.914968 1_555
Ni3 Tb8 2.944697 1_655
