# generated using pymatgen
data_Mo3O8
_symmetry_space_group_name_H-M   'P 1'
_cell_length_a   6.50880103
_cell_length_b   6.50880103
_cell_length_c   5.06517070
_cell_angle_alpha   71.21906846
_cell_angle_beta   71.21906846
_cell_angle_gamma   55.66453754
_symmetry_Int_Tables_number   1
_chemical_formula_structural   Mo3O8
_chemical_formula_sum   'Mo3 O8'
_cell_volume   165.03191526
_cell_formula_units_Z   1
loop_
 _symmetry_equiv_pos_site_id
 _symmetry_equiv_pos_as_xyz
  1  'x, y, z'
loop_
 _atom_site_type_symbol
 _atom_site_label
 _atom_site_symmetry_multiplicity
 _atom_site_fract_x
 _atom_site_fract_y
 _atom_site_fract_z
 _atom_site_occupancy
  Mo  Mo0  1  0.00000000  0.00000000  0.50000000  1
  Mo  Mo1  1  0.71022000  0.28978000  0.00000000  1
  Mo  Mo2  1  0.28978000  0.71022000  0.00000000  1
  O  O0  1  0.38359700  0.38359700  0.94283600  1
  O  O1  1  0.61640300  0.61640300  0.05716400  1
  O  O2  1  0.90344500  0.90344500  0.90276100  1
  O  O3  1  0.09655500  0.09655500  0.09723900  1
  O  O4  1  0.32307700  0.86547400  0.60706800  1
  O  O5  1  0.86547400  0.32307700  0.60706800  1
  O  O6  1  0.13452600  0.67692300  0.39293200  1
  O  O7  1  0.67692300  0.13452600  0.39293200  1
loop_
_geom_bond_atom_site_label_1
_geom_bond_atom_site_label_2
_geom_bond_distance
_geom_bond_site_symmetry_2
Mo0 O3 1.935511 1_555
Mo0 O2 1.935511 1_445
Mo0 O6 1.958116 1_545
Mo0 O7 1.958116 1_455
Mo0 O5 1.958116 1_455
Mo0 O4 1.958116 1_545
Mo1 O7 1.924468 1_555
Mo1 O5 1.924468 1_554
Mo1 O0 1.947908 1_554
Mo1 O1 1.947908 1_555
Mo1 O2 2.231255 1_544
Mo1 O3 2.231255 1_655
Mo2 O6 1.924468 1_555
Mo2 O4 1.924468 1_554
Mo2 O0 1.947908 1_554
Mo2 O1 1.947908 1_555
Mo2 O3 2.231255 1_565
Mo2 O2 2.231255 1_454
