# generated using pymatgen
data_KMn2Zn3(Si2O5)6
_symmetry_space_group_name_H-M   'P 1'
_cell_length_a   10.30006446
_cell_length_b   10.29105071
_cell_length_c   14.56653543
_cell_angle_alpha   89.44161205
_cell_angle_beta   90.65762413
_cell_angle_gamma   120.15394338
_symmetry_Int_Tables_number   1
_chemical_formula_structural   KMn2Zn3(Si2O5)6
_chemical_formula_sum   'K2 Mn4 Zn6 Si24 O60'
_cell_volume   1334.98863456
_cell_formula_units_Z   2
loop_
 _symmetry_equiv_pos_site_id
 _symmetry_equiv_pos_as_xyz
  1  'x, y, z'
loop_
 _atom_site_type_symbol
 _atom_site_label
 _atom_site_symmetry_multiplicity
 _atom_site_fract_x
 _atom_site_fract_y
 _atom_site_fract_z
 _atom_site_occupancy
  K  K0  1  0.00505894  0.00594465  0.25056078  1
  K  K1  1  0.99502030  0.99363626  0.75057360  1
  Mn  Mn0  1  0.33670143  0.67031006  0.25052419  1
  Mn  Mn1  1  0.32999145  0.66215217  0.75053650  1
  Mn  Mn2  1  0.66950750  0.33691355  0.25048662  1
  Mn  Mn3  1  0.66367034  0.32991595  0.75049242  1
  Zn  Zn0  1  0.99810546  0.50212896  0.75114239  1
  Zn  Zn1  1  0.49937542  0.00224570  0.25083095  1
  Zn  Zn2  1  0.50024451  0.99751999  0.75036810  1
  Zn  Zn3  1  0.50465066  0.50408632  0.75007756  1
  Zn  Zn4  1  0.00210425  0.49851336  0.25042474  1
  Zn  Zn5  1  0.49552631  0.49597742  0.25031478  1
  Si  Si0  1  0.23868519  0.88909142  0.39325229  1
  Si  Si1  1  0.23944760  0.35202311  0.10605385  1
  Si  Si2  1  0.88420302  0.23534418  0.89032066  1
  Si  Si3  1  0.64503171  0.88329631  0.89291186  1
  Si  Si4  1  0.35122324  0.23981494  0.39474604  1
  Si  Si5  1  0.76429666  0.65059148  0.11168544  1
  Si  Si6  1  0.76418698  0.11589171  0.39106648  1
  Si  Si7  1  0.64889169  0.76038142  0.60634056  1
  Si  Si8  1  0.64925545  0.88738429  0.10975274  1
  Si  Si9  1  0.88922631  0.23932729  0.10724016  1
  Si  Si10  1  0.23633376  0.88299284  0.61016882  1
  Si  Si11  1  0.11064044  0.76125190  0.89368954  1
  Si  Si12  1  0.11565760  0.35458603  0.39409248  1
  Si  Si13  1  0.35025554  0.11294521  0.89101839  1
  Si  Si14  1  0.35394452  0.11584504  0.10780064  1
  Si  Si15  1  0.23582048  0.35065011  0.88916837  1
  Si  Si16  1  0.64962276  0.76420396  0.38943395  1
  Si  Si17  1  0.34992164  0.23504017  0.61167749  1
  Si  Si18  1  0.11364281  0.35060358  0.61093324  1
  Si  Si19  1  0.88509522  0.64606619  0.60720344  1
  Si  Si20  1  0.76019223  0.64815859  0.89464605  1
  Si  Si21  1  0.11597269  0.76419802  0.11064525  1
  Si  Si22  1  0.88687043  0.64942475  0.39049124  1
  Si  Si23  1  0.76156254  0.11092699  0.60814354  1
  O  O0  1  0.87101220  0.60411468  0.49875625  1
  O  O1  1  0.27436561  0.06068832  0.37045214  1
  O  O2  1  0.73465878  0.60696785  0.00360246  1
  O  O3  1  0.50527789  0.65791945  0.66968058  1
  O  O4  1  0.66243986  0.15890597  0.32662135  1
  O  O5  1  0.34266209  0.85118649  0.33008147  1
  O  O6  1  0.22109016  0.94359251  0.13314225  1
  O  O7  1  0.49851446  0.15893210  0.17235495  1
  O  O8  1  0.78198022  0.72122160  0.63023676  1
  O  O9  1  0.39561572  0.12942431  0.99947305  1
  O  O10  1  0.27862161  0.22054123  0.86565332  1
  O  O11  1  0.73453472  0.12709921  0.49920743  1
  O  O12  1  0.26648902  0.87170994  0.50205960  1
  O  O13  1  0.21639948  0.27350127  0.63527980  1
  O  O14  1  0.60563474  0.73442414  0.49741669  1
  O  O15  1  0.21384533  0.94118429  0.86919188  1
  O  O16  1  0.65599710  0.14720410  0.67071259  1
  O  O17  1  0.84321463  0.50191149  0.67142689  1
  O  O18  1  0.15903849  0.49947612  0.32957753  1
  O  O19  1  0.06045275  0.27392100  0.13021351  1
  O  O20  1  0.15463927  0.49485131  0.67532118  1
  O  O21  1  0.60288138  0.86958888  0.00130296  1
  O  O22  1  0.27783106  0.05544843  0.63585995  1
  O  O23  1  0.27832190  0.21870629  0.13029763  1
  O  O24  1  0.72548085  0.78389584  0.13469312  1
  O  O25  1  0.16018630  0.66272230  0.17530626  1
  O  O26  1  0.34194816  0.49554935  0.16968218  1
  O  O27  1  0.85172684  0.34392095  0.17008679  1
  O  O28  1  0.39311858  0.26512177  0.50365371  1
  O  O29  1  0.94330293  0.22216682  0.36874081  1
  O  O30  1  0.21720732  0.27782629  0.37092168  1
  O  O31  1  0.72248496  0.78232249  0.87009192  1
  O  O32  1  0.94084629  0.21846905  0.63356858  1
  O  O33  1  0.93885611  0.72424145  0.87026484  1
  O  O34  1  0.33838752  0.49654364  0.82460136  1
  O  O35  1  0.15007259  0.65805229  0.83061420  1
  O  O36  1  0.72600175  0.94414774  0.36571632  1
  O  O37  1  0.78290341  0.05990023  0.13197589  1
  O  O38  1  0.49237826  0.14943064  0.82761904  1
  O  O39  1  0.26569113  0.39517683  0.99718395  1
  O  O40  1  0.78053342  0.72256520  0.36575949  1
  O  O41  1  0.33655912  0.83698725  0.67515729  1
  O  O42  1  0.05887309  0.78446188  0.36847719  1
  O  O43  1  0.94402180  0.72434549  0.13592167  1
  O  O44  1  0.84231079  0.33799949  0.82606560  1
  O  O45  1  0.50612571  0.84820252  0.17367189  1
  O  O46  1  0.66062056  0.50621069  0.17561812  1
  O  O47  1  0.50414957  0.66171860  0.32490303  1
  O  O48  1  0.77619354  0.05609275  0.86751758  1
  O  O49  1  0.72767043  0.93973458  0.63078687  1
  O  O50  1  0.49432587  0.33906329  0.67558254  1
  O  O51  1  0.05717907  0.77962470  0.63247284  1
  O  O52  1  0.65659349  0.50440614  0.83161928  1
  O  O53  1  0.87320236  0.26600817  0.99832758  1
  O  O54  1  0.49940778  0.83791717  0.82789855  1
  O  O55  1  0.13014669  0.39683212  0.50268318  1
  O  O56  1  0.84838178  0.50642838  0.32672887  1
  O  O57  1  0.05584660  0.27309662  0.86525822  1
  O  O58  1  0.49442389  0.34309659  0.33151279  1
  O  O59  1  0.12738593  0.73381580  0.00257540  1
loop_
_geom_bond_atom_site_label_1
_geom_bond_atom_site_label_2
_geom_bond_distance
_geom_bond_site_symmetry_2
K0 O19 3.058084 1_555
K0 O1 3.065890 1_555
K0 O30 3.089100 1_555
K0 O42 3.102219 1_545
K0 O23 3.103562 1_555
K0 O37 3.113695 1_455
K0 O24 3.116974 1_445
K0 O36 3.119817 1_445
K0 O43 3.133970 1_445
K0 O6 3.135533 1_545
K0 O29 3.137064 1_455
K0 O40 3.144330 1_445
K1 O49 3.051104 1_555
K1 O33 3.062360 1_555
K1 O15 3.077611 1_655
K1 O31 3.089583 1_555
K1 O8 3.094215 1_555
K1 O13 3.116202 1_665
K1 O57 3.116687 1_665
K1 O51 3.120215 1_655
K1 O32 3.125394 1_565
K1 O10 3.147488 1_665
K1 O22 3.148274 1_665
K1 O48 3.155952 1_565
Mn0 O47 2.065136 1_555
Mn0 O25 2.079769 1_555
Mn0 O45 2.108391 1_555
Mn0 O18 2.131266 1_555
Mn0 O5 2.176511 1_555
Mn0 O26 2.182778 1_555
Mn1 O34 2.046000 1_555
Mn1 O41 2.070841 1_555
Mn1 O20 2.072207 1_555
Mn1 O54 2.100059 1_555
Mn1 O35 2.183292 1_555
Mn1 O3 2.185773 1_555
Mn2 O46 2.086635 1_555
Mn2 O4 2.102214 1_555
Mn2 O56 2.105447 1_555
Mn2 O7 2.122681 1_555
Mn2 O27 2.193687 1_555
Mn2 O58 2.194275 1_555
Mn3 O50 2.088358 1_555
Mn3 O44 2.099025 1_555
Mn3 O38 2.130129 1_555
Mn3 O17 2.144757 1_555
Mn3 O16 2.187112 1_555
Mn3 O52 2.191152 1_555
O0 Si22 1.626727 1_555
O0 Si19 1.627267 1_555
O1 Si4 1.640195 1_555
O1 Si0 1.644133 1_545
O2 Si5 1.624349 1_555
O2 Si20 1.628577 1_554
O3 Si7 1.611396 1_555
O3 Zn3 1.957425 1_555
O4 Si6 1.615822 1_555
O4 Zn1 1.977551 1_555
O5 Si0 1.610961 1_555
O5 Zn1 1.960008 1_565
O6 Si21 1.638124 1_555
O6 Si14 1.647109 1_565
O7 Si14 1.615809 1_555
O7 Zn1 1.971058 1_555
O8 Si19 1.636248 1_555
O8 Si7 1.644395 1_555
O9 Si14 1.626252 1_556
O9 Si13 1.628349 1_555
O10 Si15 1.646184 1_555
O10 Si13 1.647279 1_555
O11 Si6 1.624173 1_555
O11 Si23 1.629252 1_555
O12 Si10 1.625085 1_555
O12 Si0 1.631435 1_555
O13 Si18 1.644742 1_555
O13 Si17 1.651260 1_555
O14 Si16 1.625051 1_555
O14 Si7 1.630880 1_555
O15 Si11 1.644508 1_555
O15 Si13 1.644758 1_565
O16 Si23 1.609205 1_555
O16 Zn2 1.953970 1_545
O17 Si19 1.612868 1_555
O17 Zn0 1.961513 1_555
O18 Si12 1.618355 1_555
O18 Zn4 1.970703 1_555
O19 Si1 1.639997 1_555
O19 Si9 1.645342 1_455
O20 Si18 1.627851 1_555
O20 Zn0 1.997189 1_455
O21 Si3 1.628227 1_554
O21 Si8 1.630245 1_555
O22 Si17 1.644940 1_555
O22 Si10 1.649136 1_545
O23 Si14 1.635729 1_555
O23 Si1 1.645161 1_555
O24 Si8 1.645784 1_555
O24 Si5 1.648385 1_555
O25 Si21 1.622916 1_555
O25 Zn4 1.986134 1_555
O26 Si1 1.610242 1_555
O26 Zn5 1.957627 1_555
O27 Si9 1.609610 1_555
O27 Zn4 1.954132 1_655
O28 Si17 1.624192 1_555
O28 Si4 1.627931 1_555
O29 Si6 1.638687 1_555
O29 Si12 1.645988 1_655
O30 Si12 1.635654 1_555
O30 Si4 1.645516 1_555
O31 Si3 1.634743 1_555
O31 Si20 1.646509 1_555
O32 Si18 1.642803 1_655
O32 Si23 1.646551 1_555
O33 Si20 1.639425 1_555
O33 Si11 1.644341 1_655
O34 Si15 1.629911 1_555
O34 Zn3 2.006157 1_555
O35 Si11 1.611827 1_555
O35 Zn0 1.958633 1_455
O36 Si16 1.642447 1_555
O36 Si6 1.651015 1_565
O37 Si8 1.642369 1_545
O37 Si9 1.644144 1_555
O38 Si13 1.615192 1_555
O38 Zn2 1.969879 1_545
O39 Si15 1.625288 1_555
O39 Si1 1.631179 1_556
O40 Si22 1.646166 1_555
O40 Si16 1.647643 1_555
O41 Si10 1.626612 1_555
O41 Zn2 1.991642 1_555
O42 Si22 1.644272 1_455
O42 Si0 1.645768 1_555
O43 Si5 1.645061 1_555
O43 Si21 1.650107 1_655
O44 Si2 1.614837 1_555
O44 Zn0 1.974921 1_555
O45 Si8 1.621690 1_555
O45 Zn1 1.982019 1_565
O46 Si5 1.617752 1_555
O46 Zn5 1.986694 1_555
O47 Si16 1.624936 1_555
O47 Zn5 1.994819 1_555
O48 Si2 1.640902 1_555
O48 Si3 1.645983 1_545
O49 Si7 1.641184 1_555
O49 Si23 1.645559 1_565
O50 Si17 1.616411 1_555
O50 Zn3 1.981096 1_555
O51 Si10 1.636224 1_555
O51 Si19 1.647317 1_455
O52 Si20 1.608754 1_555
O52 Zn3 1.952525 1_555
O53 Si2 1.623989 1_555
O53 Si9 1.628059 1_556
O54 Si3 1.623893 1_555
O54 Zn2 1.980681 1_555
O55 Si18 1.628465 1_555
O55 Si12 1.629769 1_555
O56 Si22 1.617859 1_555
O56 Zn4 1.980094 1_655
O57 Si15 1.642825 1_555
O57 Si2 1.652823 1_455
O58 Si4 1.609585 1_555
O58 Zn5 1.954600 1_555
O59 Si21 1.624950 1_555
O59 Si11 1.630664 1_554
