# generated using pymatgen
data_FePH6(NO2)2
_symmetry_space_group_name_H-M   'P 1'
_cell_length_a   10.19092400
_cell_length_b   6.47379000
_cell_length_c   9.79112679
_cell_angle_alpha   51.45195522
_cell_angle_beta   90.00000000
_cell_angle_gamma   90.00000000
_symmetry_Int_Tables_number   1
_chemical_formula_structural   FePH6(NO2)2
_chemical_formula_sum   'Fe4 P4 H24 N8 O16'
_cell_volume   505.19528561
_cell_formula_units_Z   4
loop_
 _symmetry_equiv_pos_site_id
 _symmetry_equiv_pos_as_xyz
  1  'x, y, z'
loop_
 _atom_site_type_symbol
 _atom_site_label
 _atom_site_symmetry_multiplicity
 _atom_site_fract_x
 _atom_site_fract_y
 _atom_site_fract_z
 _atom_site_occupancy
  Fe  Fe0  1  0.84196000  0.33317400  0.91181700  1
  Fe  Fe1  1  0.65804000  0.33317400  0.41181700  1
  Fe  Fe2  1  0.15804000  0.66682600  0.08818300  1
  Fe  Fe3  1  0.34196000  0.66682600  0.58818300  1
  P  P0  1  0.16287200  0.29324900  0.95784800  1
  P  P1  1  0.33712800  0.29324900  0.45784800  1
  P  P2  1  0.83712800  0.70675100  0.04215200  1
  P  P3  1  0.66287200  0.70675100  0.54215200  1
  H  H0  1  0.87450700  0.06112100  0.59419400  1
  H  H1  1  0.62549300  0.06112100  0.09419400  1
  H  H2  1  0.12549300  0.93887900  0.40580600  1
  H  H3  1  0.37450700  0.93887900  0.90580600  1
  H  H4  1  0.63262200  0.32882100  0.08075500  1
  H  H5  1  0.86737800  0.32882100  0.58075500  1
  H  H6  1  0.36737800  0.67117900  0.91924500  1
  H  H7  1  0.13262200  0.67117900  0.41924500  1
  H  H8  1  0.57756400  0.35345000  0.90943700  1
  H  H9  1  0.92243600  0.35345000  0.40943700  1
  H  H10  1  0.42243600  0.64655000  0.09056300  1
  H  H11  1  0.07756400  0.64655000  0.59056300  1
  H  H12  1  0.47473800  0.82981800  0.30667700  1
  H  H13  1  0.02526200  0.82981800  0.80667700  1
  H  H14  1  0.52526200  0.17018200  0.69332300  1
  H  H15  1  0.97473800  0.17018200  0.19332300  1
  H  H16  1  0.07105200  0.09738700  0.78176400  1
  H  H17  1  0.42894800  0.09738700  0.28176400  1
  H  H18  1  0.92894800  0.90261300  0.21823600  1
  H  H19  1  0.57105200  0.90261300  0.71823600  1
  H  H20  1  0.32439400  0.95511800  0.23104600  1
  H  H21  1  0.17560600  0.95511800  0.73104600  1
  H  H22  1  0.67560600  0.04488200  0.76895400  1
  H  H23  1  0.82439400  0.04488200  0.26895400  1
  N  N0  1  0.64318800  0.25957200  0.01143200  1
  N  N1  1  0.85681200  0.25957200  0.51143200  1
  N  N2  1  0.35681200  0.74042800  0.98856800  1
  N  N3  1  0.14318800  0.74042800  0.48856800  1
  N  N4  1  0.89709400  0.07909100  0.18389800  1
  N  N5  1  0.60290600  0.07909100  0.68389800  1
  N  N6  1  0.10290600  0.92090900  0.81610200  1
  N  N7  1  0.39709400  0.92090900  0.31610200  1
  O  O0  1  0.34888100  0.35785100  0.58595000  1
  O  O1  1  0.15111900  0.35785100  0.08595000  1
  O  O2  1  0.65111900  0.64214900  0.41405000  1
  O  O3  1  0.84888100  0.64214900  0.91405000  1
  O  O4  1  0.18076100  0.98972500  0.07392300  1
  O  O5  1  0.31923900  0.98972500  0.57392300  1
  O  O6  1  0.81923900  0.01027500  0.92607700  1
  O  O7  1  0.68076100  0.01027500  0.42607700  1
  O  O8  1  0.28368800  0.43747600  0.83769400  1
  O  O9  1  0.21631200  0.43747600  0.33769400  1
  O  O10  1  0.71631200  0.56252400  0.16230600  1
  O  O11  1  0.78368800  0.56252400  0.66230600  1
  O  O12  1  0.03610100  0.37896200  0.84428300  1
  O  O13  1  0.46389900  0.37896200  0.34428300  1
  O  O14  1  0.96389900  0.62103800  0.15571700  1
  O  O15  1  0.53610100  0.62103800  0.65571700  1
loop_
_geom_bond_atom_site_label_1
_geom_bond_atom_site_label_2
_geom_bond_distance
_geom_bond_site_symmetry_2
Fe0 O11 2.001145 1_555
Fe0 O3 2.015171 1_555
Fe0 O6 2.019663 1_555
Fe0 O12 2.048213 1_655
Fe0 N4 2.157947 1_556
Fe0 N0 2.168514 1_556
Fe1 O10 2.001145 1_555
Fe1 O2 2.015171 1_555
Fe1 O7 2.019663 1_555
Fe1 O13 2.048213 1_555
Fe1 N5 2.157947 1_555
Fe1 N1 2.168514 1_555
Fe2 O9 2.001145 1_555
Fe2 O1 2.015171 1_555
Fe2 O4 2.019663 1_555
Fe2 O14 2.048213 1_455
Fe2 N6 2.157947 1_554
Fe2 N2 2.168514 1_554
Fe3 O8 2.001145 1_555
Fe3 O0 2.015171 1_555
Fe3 O5 2.019663 1_555
Fe3 O15 2.048213 1_555
Fe3 N7 2.157947 1_555
Fe3 N3 2.168514 1_555
H0 N1 1.020869 1_555
H1 N0 1.020869 1_555
H2 N3 1.020869 1_555
H3 N2 1.020869 1_555
H4 N0 1.025922 1_555
H5 N1 1.025922 1_555
H6 N2 1.025922 1_555
H7 N3 1.025922 1_555
H8 N0 1.028333 1_556
H9 N1 1.028333 1_555
H10 N2 1.028333 1_554
H11 N3 1.028333 1_555
H12 N7 1.024788 1_555
H13 N6 1.024788 1_555
H14 N5 1.024788 1_555
H15 N4 1.024788 1_555
H16 N6 1.022226 1_545
H17 N7 1.022226 1_545
H18 N4 1.022226 1_565
H19 N5 1.022226 1_565
H20 N7 1.030354 1_555
H21 N6 1.030354 1_555
H22 N5 1.030354 1_555
H23 N4 1.030354 1_555
O0 P1 1.554415 1_555
O1 P0 1.554415 1_554
O2 P3 1.554415 1_555
O3 P2 1.554415 1_556
O4 P0 1.550036 1_564
O5 P1 1.550036 1_565
O6 P2 1.550036 1_546
O7 P3 1.550036 1_545
O8 P0 1.550063 1_555
O9 P1 1.550063 1_555
O10 P2 1.550063 1_555
O11 P3 1.550063 1_555
O12 P0 1.563439 1_555
O13 P1 1.563439 1_555
O14 P2 1.563439 1_555
O15 P3 1.563439 1_555
