# generated using pymatgen
data_Rb2BiAuBr6
_symmetry_space_group_name_H-M   'P 1'
_cell_length_a   8.05667850
_cell_length_b   8.05667850
_cell_length_c   8.05667850
_cell_angle_alpha   60.00000000
_cell_angle_beta   60.00000000
_cell_angle_gamma   60.00000000
_symmetry_Int_Tables_number   1
_chemical_formula_structural   Rb2BiAuBr6
_chemical_formula_sum   'Rb2 Bi1 Au1 Br6'
_cell_volume   369.78824593
_cell_formula_units_Z   1
loop_
 _symmetry_equiv_pos_site_id
 _symmetry_equiv_pos_as_xyz
  1  'x, y, z'
loop_
 _atom_site_type_symbol
 _atom_site_label
 _atom_site_symmetry_multiplicity
 _atom_site_fract_x
 _atom_site_fract_y
 _atom_site_fract_z
 _atom_site_occupancy
  Rb  Rb0  1  0.75000000  0.75000000  0.75000000  1
  Rb  Rb1  1  0.25000000  0.25000000  0.25000000  1
  Bi  Bi0  1  0.00000000  0.00000000  0.00000000  1
  Au  Au0  1  0.50000000  0.50000000  0.50000000  1
  Br  Br0  1  0.74713600  0.25286400  0.25286400  1
  Br  Br1  1  0.25286400  0.25286400  0.74713600  1
  Br  Br2  1  0.25286400  0.74713600  0.74713600  1
  Br  Br3  1  0.25286400  0.74713600  0.25286400  1
  Br  Br4  1  0.74713600  0.25286400  0.74713600  1
  Br  Br5  1  0.74713600  0.74713600  0.25286400  1
loop_
_geom_bond_atom_site_label_1
_geom_bond_atom_site_label_2
_geom_bond_distance
_geom_bond_site_symmetry_2
Bi0 Br0 2.881098 1_455
Bi0 Br3 2.881098 1_545
Bi0 Br1 2.881098 1_554
Bi0 Br2 2.881098 1_544
Bi0 Br5 2.881098 1_445
Bi0 Br4 2.881098 1_454
Au0 Br2 2.815834 1_555
Au0 Br5 2.815834 1_555
Au0 Br4 2.815834 1_555
Au0 Br0 2.815834 1_555
Au0 Br1 2.815834 1_555
Au0 Br3 2.815834 1_555
Br0 Rb1 4.028471 1_555
Br0 Rb0 4.028471 1_554
Br0 Rb0 4.028471 1_545
Br0 Rb1 4.028471 1_655
Br1 Rb1 4.028471 1_555
Br1 Rb0 4.028471 1_455
Br1 Rb0 4.028471 1_545
Br1 Rb1 4.028471 1_556
Br2 Rb0 4.028471 1_455
Br2 Rb1 4.028471 1_556
Br2 Rb1 4.028471 1_565
Br2 Rb0 4.028471 1_555
Br3 Rb1 4.028471 1_555
Br3 Rb0 4.028471 1_554
Br3 Rb0 4.028471 1_455
Br3 Rb1 4.028471 1_565
Br4 Rb0 4.028471 1_545
Br4 Rb1 4.028471 1_655
Br4 Rb1 4.028471 1_556
Br4 Rb0 4.028471 1_555
Br5 Rb0 4.028471 1_554
Br5 Rb1 4.028471 1_655
Br5 Rb1 4.028471 1_565
Br5 Rb0 4.028471 1_555
