# generated using pymatgen
data_Tb2CoSi2
_symmetry_space_group_name_H-M   'P 1'
_cell_length_a   5.62825563
_cell_length_b   5.62825563
_cell_length_c   10.01061892
_cell_angle_alpha   63.10741714
_cell_angle_beta   63.10741714
_cell_angle_gamma   43.23735816
_symmetry_Int_Tables_number   1
_chemical_formula_structural   Tb2CoSi2
_chemical_formula_sum   'Tb4 Co2 Si4'
_cell_volume   189.78137795
_cell_formula_units_Z   2
loop_
 _symmetry_equiv_pos_site_id
 _symmetry_equiv_pos_as_xyz
  1  'x, y, z'
loop_
 _atom_site_type_symbol
 _atom_site_label
 _atom_site_symmetry_multiplicity
 _atom_site_fract_x
 _atom_site_fract_y
 _atom_site_fract_z
 _atom_site_occupancy
  Tb  Tb0  1  0.99927100  0.99927100  0.32865700  1
  Tb  Tb1  1  0.00072900  0.00072900  0.67134300  1
  Tb  Tb2  1  0.81290300  0.81290300  0.10733100  1
  Tb  Tb3  1  0.18709700  0.18709700  0.89266900  1
  Co  Co0  1  0.72691800  0.72691800  0.62312500  1
  Co  Co1  1  0.27308200  0.27308200  0.37687500  1
  Si  Si0  1  0.65172100  0.65172100  0.43410000  1
  Si  Si1  1  0.34827900  0.34827900  0.56590000  1
  Si  Si2  1  0.50594900  0.50594900  0.12516300  1
  Si  Si3  1  0.49405100  0.49405100  0.87483700  1
loop_
_geom_bond_atom_site_label_1
_geom_bond_atom_site_label_2
_geom_bond_distance
_geom_bond_site_symmetry_2
Co0 Si1 2.352225 1_565
Co0 Si1 2.352225 1_655
Co0 Si0 2.376729 1_555
Co0 Si3 2.512480 1_555
Co0 Tb0 2.938903 1_555
Co0 Tb1 3.003951 1_565
Co0 Tb1 3.003951 1_655
Co0 Tb1 3.128748 1_665
Co0 Tb3 3.264990 1_565
Co0 Tb3 3.264990 1_655
Co1 Si0 2.352225 1_545
Co1 Si0 2.352225 1_455
Co1 Si1 2.376729 1_555
Co1 Si2 2.512480 1_555
Co1 Tb1 2.938903 1_555
Co1 Tb0 3.003951 1_455
Co1 Tb0 3.003951 1_545
Co1 Tb0 3.128748 1_445
Co1 Tb2 3.264990 1_455
Co1 Tb2 3.264990 1_545
Si0 Si1 2.783386 1_555
Si0 Tb2 2.859451 1_555
Si0 Tb1 2.963993 1_565
Si0 Tb1 2.963993 1_655
Si0 Tb0 3.098029 1_545
Si0 Tb0 3.098029 1_455
Si0 Tb0 3.256723 1_555
Si1 Tb3 2.859451 1_555
Si1 Tb0 2.963993 1_545
Si1 Tb0 2.963993 1_455
Si1 Tb1 3.098029 1_565
Si1 Tb1 3.098029 1_655
Si1 Tb1 3.256723 1_555
Si2 Si3 2.568801 1_554
Si2 Tb0 2.883743 1_455
Si2 Tb0 2.883743 1_545
Si2 Tb2 2.960353 1_545
Si2 Tb2 2.960353 1_455
Si2 Tb3 3.002823 1_564
Si2 Tb3 3.002823 1_654
Si2 Tb2 3.129214 1_555
Si3 Tb1 2.883743 1_655
Si3 Tb1 2.883743 1_565
Si3 Tb3 2.960353 1_655
Si3 Tb3 2.960353 1_565
Si3 Tb2 3.002823 1_546
Si3 Tb2 3.002823 1_456
Si3 Tb3 3.129214 1_555
