# generated using pymatgen
data_CaMn7O12
_symmetry_space_group_name_H-M   'P 1'
_cell_length_a   6.46526308
_cell_length_b   6.50817030
_cell_length_c   6.50828590
_cell_angle_alpha   109.59442073
_cell_angle_beta   109.34658703
_cell_angle_gamma   109.34649847
_symmetry_Int_Tables_number   1
_chemical_formula_structural   CaMn7O12
_chemical_formula_sum   'Ca1 Mn7 O12'
_cell_volume   211.13592535
_cell_formula_units_Z   1
loop_
 _symmetry_equiv_pos_site_id
 _symmetry_equiv_pos_as_xyz
  1  'x, y, z'
loop_
 _atom_site_type_symbol
 _atom_site_label
 _atom_site_symmetry_multiplicity
 _atom_site_fract_x
 _atom_site_fract_y
 _atom_site_fract_z
 _atom_site_occupancy
  Ca  Ca0  1  0.00000000  0.00000000  0.00000000  1
  Mn  Mn0  1  0.50000100  0.00000100  0.50000200  1
  Mn  Mn1  1  0.00000000  0.50000000  0.50000000  1
  Mn  Mn2  1  0.50000100  0.50000000  0.00000100  1
  Mn  Mn3  1  0.00000000  0.00000000  0.50000000  1
  Mn  Mn4  1  0.50000100  0.50000200  0.50000100  1
  Mn  Mn5  1  0.00000000  0.49999900  0.99999900  1
  Mn  Mn6  1  0.50000100  0.99999800  0.00000200  1
  O  O0  1  0.13062000  0.82528600  0.32051800  1
  O  O1  1  0.81028700  0.67972200  0.50476500  1
  O  O2  1  0.30530700  0.49520800  0.17465900  1
  O  O3  1  0.86938000  0.17471500  0.67948100  1
  O  O4  1  0.18971300  0.32027800  0.49523500  1
  O  O5  1  0.69469300  0.50479200  0.82534000  1
  O  O6  1  0.52064500  0.83207600  0.69950500  1
  O  O7  1  0.82113100  0.30047700  0.13260500  1
  O  O8  1  0.68884500  0.86749700  0.16816500  1
  O  O9  1  0.47935400  0.16792400  0.30049400  1
  O  O10  1  0.17886900  0.69952300  0.86739500  1
  O  O11  1  0.31115500  0.13250300  0.83183400  1
loop_
_geom_bond_atom_site_label_1
_geom_bond_atom_site_label_2
_geom_bond_distance
_geom_bond_site_symmetry_2
Ca0 O9 2.632571 1_555
Ca0 O6 2.632577 1_444
Ca0 O8 2.632652 1_445
Ca0 O11 2.632658 1_554
Ca0 O10 2.633251 1_544
Ca0 O7 2.633251 1_455
Ca0 O5 2.723346 1_444
Ca0 O2 2.723347 1_555
Ca0 O0 2.723514 1_545
Ca0 O3 2.723524 1_454
Ca0 O4 2.723677 1_555
Ca0 O1 2.723677 1_444
Mn0 O3 1.955062 1_555
Mn0 O0 1.955073 1_545
Mn0 O6 1.957474 1_545
Mn0 O9 1.957491 1_555
Mn1 O1 1.955733 1_455
Mn1 O4 1.955733 1_555
Mn1 O10 1.957385 1_555
Mn1 O7 1.957385 1_455
Mn2 O2 1.955341 1_555
Mn2 O5 1.955346 1_554
Mn2 O11 1.957820 1_554
Mn2 O8 1.957821 1_555
Mn3 O3 1.941531 1_455
Mn3 O0 1.941532 1_545
Mn3 O11 2.043926 1_555
Mn3 O8 2.043930 1_445
Mn3 O4 2.055438 1_555
Mn3 O1 2.055438 1_445
Mn4 O1 1.942479 1_555
Mn4 O4 1.942490 1_555
Mn4 O6 2.046071 1_555
Mn4 O9 2.046088 1_555
Mn4 O5 2.057328 1_555
Mn4 O2 2.057334 1_555
Mn5 O2 1.940949 1_556
Mn5 O5 1.940954 1_455
Mn5 O10 2.046049 1_555
Mn5 O7 2.046052 1_456
Mn5 O3 2.057346 1_455
Mn5 O0 2.057360 1_556
Mn6 O10 1.967319 1_554
Mn6 O7 1.967330 1_565
Mn6 O9 1.967996 1_565
Mn6 O6 1.968006 1_554
Mn6 O8 1.969103 1_555
Mn6 O11 1.969148 1_564
