# generated using pymatgen
data_ZrMn2
_symmetry_space_group_name_H-M   'P 1'
_cell_length_a   5.26316328
_cell_length_b   5.26309977
_cell_length_c   17.17397082
_cell_angle_alpha   90.00000000
_cell_angle_beta   90.00000000
_cell_angle_gamma   119.99965243
_symmetry_Int_Tables_number   1
_chemical_formula_structural   ZrMn2
_chemical_formula_sum   'Zr8 Mn16'
_cell_volume   411.99440611
_cell_formula_units_Z   8
loop_
 _symmetry_equiv_pos_site_id
 _symmetry_equiv_pos_as_xyz
  1  'x, y, z'
loop_
 _atom_site_type_symbol
 _atom_site_label
 _atom_site_symmetry_multiplicity
 _atom_site_fract_x
 _atom_site_fract_y
 _atom_site_fract_z
 _atom_site_occupancy
  Zr  Zr0  1  0.00000312  0.00000206  0.09380273  1
  Zr  Zr1  1  -0.00000312  -0.00000206  0.59380273  1
  Zr  Zr2  1  -0.00000312  -0.00000206  0.90619727  1
  Zr  Zr3  1  0.00000312  0.00000206  0.40619727  1
  Zr  Zr4  1  0.33333214  0.66666507  0.84408760  1
  Zr  Zr5  1  0.66666786  0.33333493  0.34408760  1
  Zr  Zr6  1  0.66666786  0.33333493  0.15591240  1
  Zr  Zr7  1  0.33333214  0.66666507  0.65591240  1
  Mn  Mn0  1  0.33333596  0.66666748  0.12451554  1
  Mn  Mn1  1  0.66666404  0.33333252  0.62451554  1
  Mn  Mn2  1  0.66666404  0.33333252  0.87548446  1
  Mn  Mn3  1  0.33333596  0.66666748  0.37548446  1
  Mn  Mn4  1  0.50000000  -0.00000000  -0.00000000  1
  Mn  Mn5  1  0.50000000  0.50000000  0.50000000  1
  Mn  Mn6  1  -0.00000000  0.50000000  0.50000000  1
  Mn  Mn7  1  -0.00000000  0.50000000  -0.00000000  1
  Mn  Mn8  1  0.50000000  0.50000000  -0.00000000  1
  Mn  Mn9  1  0.50000000  -0.00000000  0.50000000  1
  Mn  Mn10  1  0.16658898  0.33317267  0.25000000  1
  Mn  Mn11  1  0.83341202  0.16658369  0.75000000  1
  Mn  Mn12  1  0.33316689  0.16658344  0.75000000  1
  Mn  Mn13  1  0.66683311  0.83341656  0.25000000  1
  Mn  Mn14  1  0.16658798  0.83341631  0.25000000  1
  Mn  Mn15  1  0.83341102  0.66682733  0.75000000  1
loop_
_geom_bond_atom_site_label_1
_geom_bond_atom_site_label_2
_geom_bond_distance
_geom_bond_site_symmetry_2
Zr0 Zr6 3.220445 1_445
Zr0 Zr6 3.220452 1_455
Zr0 Zr6 3.220470 1_555
Zr0 Zr2 3.221931 1_554
Zr1 Zr7 3.220445 1_555
Zr1 Zr7 3.220452 1_545
Zr1 Zr7 3.220470 1_445
Zr1 Zr3 3.221931 1_555
Zr2 Zr4 3.220445 1_555
Zr2 Zr4 3.220452 1_545
Zr2 Zr4 3.220470 1_445
Zr3 Zr5 3.220445 1_445
Zr3 Zr5 3.220452 1_455
Zr3 Zr5 3.220470 1_555
Zr4 Zr7 3.231715 1_555
Zr5 Zr6 3.231715 1_555
Mn0 Mn8 2.623207 1_555
Mn0 Mn4 2.623209 1_565
Mn0 Mn7 2.623228 1_555
Mn0 Mn10 2.637218 1_555
Mn0 Mn14 2.637223 1_555
Mn0 Mn13 2.637234 1_555
Mn0 Zr0 3.084097 1_555
Mn0 Zr0 3.084108 1_565
Mn0 Zr0 3.084140 1_665
Mn0 Zr6 3.086125 1_555
Mn0 Zr6 3.086137 1_565
Mn0 Zr6 3.086176 1_455
Mn1 Mn5 2.623207 1_555
Mn1 Mn9 2.623209 1_555
Mn1 Mn6 2.623228 1_655
Mn1 Mn15 2.637218 1_555
Mn1 Mn11 2.637223 1_555
Mn1 Mn12 2.637234 1_555
Mn1 Zr1 3.084097 1_665
Mn1 Zr1 3.084108 1_655
Mn1 Zr1 3.084140 1_555
Mn1 Zr7 3.086125 1_555
Mn1 Zr7 3.086137 1_545
Mn1 Zr7 3.086176 1_655
Mn2 Mn8 2.623207 1_556
Mn2 Mn4 2.623209 1_556
Mn2 Mn7 2.623228 1_656
Mn2 Zr2 3.084097 1_665
Mn2 Zr2 3.084108 1_655
Mn2 Zr2 3.084140 1_555
Mn2 Zr4 3.086125 1_555
Mn2 Zr4 3.086137 1_545
Mn2 Zr4 3.086176 1_655
Mn3 Mn5 2.623207 1_555
Mn3 Mn9 2.623209 1_565
Mn3 Mn6 2.623228 1_555
Mn3 Zr3 3.084097 1_555
Mn3 Zr3 3.084108 1_565
Mn3 Zr3 3.084140 1_665
Mn3 Zr5 3.086125 1_555
Mn3 Zr5 3.086137 1_565
Mn3 Zr5 3.086176 1_455
Mn4 Mn8 2.631550 1_555
Mn4 Mn8 2.631550 1_545
Mn4 Mn7 2.631580 1_655
Mn4 Mn7 2.631580 1_545
Mn4 Zr4 3.078655 1_544
Mn4 Zr6 3.078655 1_555
Mn4 Zr2 3.085510 1_654
Mn4 Zr0 3.085510 1_555
Mn4 Zr0 3.085529 1_655
Mn4 Zr2 3.085529 1_554
Mn5 Mn9 2.631550 1_555
Mn5 Mn9 2.631550 1_565
Mn5 Mn6 2.631582 1_555
Mn5 Mn6 2.631582 1_655
Mn5 Zr7 3.078651 1_555
Mn5 Zr5 3.078651 1_555
Mn5 Zr1 3.085506 1_665
Mn5 Zr3 3.085506 1_555
Mn5 Zr1 3.085529 1_555
Mn5 Zr3 3.085529 1_665
Mn6 Mn9 2.631580 1_455
Mn6 Mn9 2.631580 1_565
Mn6 Zr7 3.078658 1_555
Mn6 Zr5 3.078658 1_455
Mn6 Zr1 3.085490 1_565
Mn6 Zr3 3.085490 1_555
Mn6 Zr1 3.085495 1_555
Mn6 Zr3 3.085495 1_565
Mn7 Mn8 2.631582 1_555
Mn7 Mn8 2.631582 1_455
Mn7 Zr4 3.078658 1_554
Mn7 Zr6 3.078658 1_455
Mn7 Zr2 3.085490 1_564
Mn7 Zr0 3.085490 1_555
Mn7 Zr0 3.085495 1_565
Mn7 Zr2 3.085495 1_554
Mn8 Zr4 3.078651 1_554
Mn8 Zr6 3.078651 1_555
Mn8 Zr2 3.085506 1_664
Mn8 Zr0 3.085506 1_555
Mn8 Zr0 3.085529 1_665
Mn8 Zr2 3.085529 1_554
Mn9 Zr7 3.078655 1_545
Mn9 Zr5 3.078655 1_555
Mn9 Zr1 3.085510 1_655
Mn9 Zr3 3.085510 1_555
Mn9 Zr1 3.085529 1_555
Mn9 Zr3 3.085529 1_655
Mn10 Mn14 2.630265 1_545
Mn10 Mn13 2.630295 1_445
Mn10 Mn14 2.632835 1_555
Mn10 Mn13 2.632864 1_555
Mn10 Mn3 2.637218 1_555
Mn10 Zr3 3.082542 1_555
Mn10 Zr0 3.082542 1_555
Mn10 Zr6 3.088067 1_555
Mn10 Zr5 3.088067 1_555
Mn10 Zr5 3.088087 1_455
Mn10 Zr6 3.088087 1_455
Mn11 Mn15 2.630265 1_545
Mn11 Mn12 2.630292 1_655
Mn11 Mn15 2.632835 1_555
Mn11 Mn12 2.632871 1_555
Mn11 Mn2 2.637223 1_555
Mn11 Zr1 3.082543 1_655
Mn11 Zr2 3.082543 1_655
Mn11 Zr7 3.088072 1_545
Mn11 Zr4 3.088072 1_545
Mn11 Zr4 3.088078 1_655
Mn11 Zr7 3.088078 1_655
Mn12 Mn15 2.630295 1_445
Mn12 Mn15 2.632864 1_555
Mn12 Mn2 2.637234 1_555
Mn12 Zr2 3.082550 1_555
Mn12 Zr1 3.082550 1_555
Mn12 Zr4 3.088045 1_555
Mn12 Zr7 3.088045 1_555
Mn12 Zr7 3.088054 1_545
Mn12 Zr4 3.088054 1_545
Mn13 Mn14 2.630292 1_655
Mn13 Mn14 2.632871 1_555
Mn13 Mn3 2.637234 1_555
Mn13 Zr3 3.082550 1_665
Mn13 Zr0 3.082550 1_665
Mn13 Zr5 3.088045 1_555
Mn13 Zr6 3.088045 1_555
Mn13 Zr5 3.088054 1_565
Mn13 Zr6 3.088054 1_565
Mn14 Mn3 2.637223 1_555
Mn14 Zr3 3.082543 1_565
Mn14 Zr0 3.082543 1_565
Mn14 Zr6 3.088072 1_565
Mn14 Zr5 3.088072 1_565
Mn14 Zr6 3.088078 1_455
Mn14 Zr5 3.088078 1_455
Mn15 Mn2 2.637218 1_555
Mn15 Zr1 3.082542 1_665
Mn15 Zr2 3.082542 1_665
Mn15 Zr7 3.088067 1_555
Mn15 Zr4 3.088067 1_555
Mn15 Zr4 3.088087 1_655
Mn15 Zr7 3.088087 1_655
