# generated using pymatgen
data_Co3Si6N11
_symmetry_space_group_name_H-M   'P 1'
_cell_length_a   9.55480900
_cell_length_b   9.55480900
_cell_length_c   4.85871300
_cell_angle_alpha   90.00000000
_cell_angle_beta   90.00000000
_cell_angle_gamma   90.00000000
_symmetry_Int_Tables_number   1
_chemical_formula_structural   Co3Si6N11
_chemical_formula_sum   'Co6 Si12 N22'
_cell_volume   443.57316677
_cell_formula_units_Z   2
loop_
 _symmetry_equiv_pos_site_id
 _symmetry_equiv_pos_as_xyz
  1  'x, y, z'
loop_
 _atom_site_type_symbol
 _atom_site_label
 _atom_site_symmetry_multiplicity
 _atom_site_fract_x
 _atom_site_fract_y
 _atom_site_fract_z
 _atom_site_occupancy
  Co  Co0  1  0.34137000  0.84137000  0.91472900  1
  Co  Co1  1  0.65863000  0.15863000  0.91472900  1
  Co  Co2  1  0.15863000  0.34137000  0.91472900  1
  Co  Co3  1  0.84137000  0.65863000  0.91472900  1
  Co  Co4  1  0.50000000  0.50000000  0.96341700  1
  Co  Co5  1  0.00000000  0.00000000  0.96341700  1
  Si  Si0  1  0.42810700  0.28568000  0.53824700  1
  Si  Si1  1  0.57189300  0.71432000  0.53824700  1
  Si  Si2  1  0.07189300  0.78568000  0.53824700  1
  Si  Si3  1  0.92810700  0.21432000  0.53824700  1
  Si  Si4  1  0.28568000  0.57189300  0.53824700  1
  Si  Si5  1  0.71432000  0.42810700  0.53824700  1
  Si  Si6  1  0.78568000  0.92810700  0.53824700  1
  Si  Si7  1  0.21432000  0.07189300  0.53824700  1
  Si  Si8  1  0.87534200  0.37534200  0.04422300  1
  Si  Si9  1  0.12465800  0.62465800  0.04422300  1
  Si  Si10  1  0.62465800  0.87534200  0.04422300  1
  Si  Si11  1  0.37534200  0.12465800  0.04422300  1
  N  N0  1  0.31848000  0.41130200  0.68488300  1
  N  N1  1  0.68152000  0.58869800  0.68488300  1
  N  N2  1  0.18152000  0.91130200  0.68488300  1
  N  N3  1  0.81848000  0.08869800  0.68488300  1
  N  N4  1  0.41130200  0.68152000  0.68488300  1
  N  N5  1  0.58869800  0.31848000  0.68488300  1
  N  N6  1  0.91130200  0.81848000  0.68488300  1
  N  N7  1  0.08869800  0.18152000  0.68488300  1
  N  N8  1  0.43269500  0.28074100  0.18357300  1
  N  N9  1  0.56730500  0.71925900  0.18357300  1
  N  N10  1  0.06730500  0.78074100  0.18357300  1
  N  N11  1  0.93269500  0.21925900  0.18357300  1
  N  N12  1  0.28074100  0.56730500  0.18357300  1
  N  N13  1  0.71925900  0.43269500  0.18357300  1
  N  N14  1  0.78074100  0.93269500  0.18357300  1
  N  N15  1  0.21925900  0.06730500  0.18357300  1
  N  N16  1  0.86639100  0.36639100  0.68381600  1
  N  N17  1  0.13360900  0.63360900  0.68381600  1
  N  N18  1  0.63360900  0.86639100  0.68381600  1
  N  N19  1  0.36639100  0.13360900  0.68381600  1
  N  N20  1  0.50000000  0.00000000  0.09277600  1
  N  N21  1  0.00000000  0.50000000  0.09277600  1
loop_
_geom_bond_atom_site_label_1
_geom_bond_atom_site_label_2
_geom_bond_distance
_geom_bond_site_symmetry_2
Co0 N4 2.006582 1_555
Co0 N2 2.006582 1_555
Co0 N20 2.311478 1_566
Co1 N3 2.006582 1_555
Co1 N5 2.006582 1_555
Co1 N20 2.311478 1_556
Co2 N0 2.006582 1_555
Co2 N7 2.006582 1_555
Co2 N21 2.311478 1_556
Co3 N1 2.006582 1_555
Co3 N6 2.006582 1_555
Co3 N21 2.311478 1_656
Co4 N0 2.357502 1_555
Co4 N4 2.357502 1_555
Co4 N1 2.357502 1_555
Co4 N5 2.357502 1_555
Co4 N12 2.438585 1_556
Co4 N13 2.438585 1_556
Co4 N9 2.438585 1_556
Co4 N8 2.438585 1_556
Co5 N7 2.357502 1_555
Co5 N3 2.357502 1_455
Co5 N2 2.357502 1_545
Co5 N6 2.357502 1_445
Co5 N10 2.438585 1_546
Co5 N14 2.438585 1_446
Co5 N11 2.438585 1_456
Co5 N15 2.438585 1_556
N0 Si4 1.720539 1_555
N0 Si0 1.745134 1_555
N1 Si5 1.720539 1_555
N1 Si1 1.745134 1_555
N2 Si7 1.720539 1_565
N2 Si2 1.745134 1_555
N3 Si6 1.720539 1_545
N3 Si3 1.745134 1_555
N4 Si1 1.720539 1_555
N4 Si4 1.745134 1_555
N5 Si0 1.720539 1_555
N5 Si5 1.745134 1_555
N6 Si2 1.720539 1_655
N6 Si6 1.745134 1_555
N7 Si3 1.720539 1_455
N7 Si7 1.745134 1_555
N8 Si0 1.724463 1_555
N8 Si11 1.727084 1_555
N9 Si1 1.724463 1_555
N9 Si10 1.727084 1_555
N10 Si2 1.724463 1_555
N10 Si9 1.727084 1_555
N11 Si3 1.724463 1_555
N11 Si8 1.727084 1_555
N12 Si4 1.724463 1_555
N12 Si9 1.727084 1_555
N13 Si5 1.724463 1_555
N13 Si8 1.727084 1_555
N14 Si6 1.724463 1_555
N14 Si10 1.727084 1_555
N15 Si7 1.724463 1_555
N15 Si11 1.727084 1_555
N16 Si3 1.720234 1_555
N16 Si5 1.720234 1_555
N16 Si8 1.755286 1_556
N17 Si4 1.720234 1_555
N17 Si2 1.720234 1_555
N17 Si9 1.755286 1_556
N18 Si6 1.720234 1_555
N18 Si1 1.720234 1_555
N18 Si10 1.755286 1_556
N19 Si0 1.720234 1_555
N19 Si7 1.720234 1_555
N19 Si11 1.755286 1_556
N20 Si11 1.700885 1_555
N20 Si10 1.700885 1_545
N21 Si9 1.700885 1_555
N21 Si8 1.700885 1_455
