# generated using pymatgen
data_La2Nb4Cu(ClO7)2
_symmetry_space_group_name_H-M   'P 1'
_cell_length_a   5.54084500
_cell_length_b   5.54084500
_cell_length_c   11.87332800
_cell_angle_alpha   90.00000000
_cell_angle_beta   90.00000000
_cell_angle_gamma   90.00000000
_symmetry_Int_Tables_number   1
_chemical_formula_structural   La2Nb4Cu(ClO7)2
_chemical_formula_sum   'La2 Nb4 Cu1 Cl2 O14'
_cell_volume   364.52260734
_cell_formula_units_Z   1
loop_
 _symmetry_equiv_pos_site_id
 _symmetry_equiv_pos_as_xyz
  1  'x, y, z'
loop_
 _atom_site_type_symbol
 _atom_site_label
 _atom_site_symmetry_multiplicity
 _atom_site_fract_x
 _atom_site_fract_y
 _atom_site_fract_z
 _atom_site_occupancy
  La  La0  1  0.50000000  0.00000000  0.00000000  1
  La  La1  1  0.00000000  0.50000000  0.00000000  1
  Nb  Nb0  1  0.00000000  0.00000000  0.80654400  1
  Nb  Nb1  1  0.50000000  0.50000000  0.80230900  1
  Nb  Nb2  1  0.00000000  0.00000000  0.19345600  1
  Nb  Nb3  1  0.50000000  0.50000000  0.19769100  1
  Cu  Cu0  1  0.00000000  0.00000000  0.50000000  1
  Cl  Cl0  1  0.00000000  0.50000000  0.50000000  1
  Cl  Cl1  1  0.50000000  0.00000000  0.50000000  1
  O  O0  1  0.75088500  0.75088500  0.15371900  1
  O  O1  1  0.24911500  0.24911500  0.15371900  1
  O  O2  1  0.00000000  0.00000000  0.65287100  1
  O  O3  1  0.50000000  0.50000000  0.65442600  1
  O  O4  1  0.75088500  0.75088500  0.84628100  1
  O  O5  1  0.24911500  0.24911500  0.84628100  1
  O  O6  1  0.00000000  0.00000000  0.34712900  1
  O  O7  1  0.50000000  0.50000000  0.34557400  1
  O  O8  1  0.75088500  0.24911500  0.15371900  1
  O  O9  1  0.24911500  0.75088500  0.15371900  1
  O  O10  1  0.24911500  0.75088500  0.84628100  1
  O  O11  1  0.75088500  0.24911500  0.84628100  1
  O  O12  1  0.00000000  0.00000000  0.00000000  1
  O  O13  1  0.50000000  0.50000000  0.00000000  1
loop_
_geom_bond_atom_site_label_1
_geom_bond_atom_site_label_2
_geom_bond_distance
_geom_bond_site_symmetry_2
La0 O8 2.677473 1_555
La0 O11 2.677473 1_554
La0 O0 2.677473 1_545
La0 O1 2.677473 1_555
La0 O5 2.677473 1_554
La0 O4 2.677473 1_544
La0 O9 2.677473 1_545
La0 O10 2.677473 1_544
La0 O13 2.770423 1_545
La0 O12 2.770423 1_555
La0 O13 2.770423 1_555
La0 O12 2.770423 1_655
La1 O9 2.677473 1_555
La1 O10 2.677473 1_554
La1 O0 2.677473 1_455
La1 O1 2.677473 1_555
La1 O4 2.677473 1_454
La1 O5 2.677473 1_554
La1 O8 2.677473 1_455
La1 O11 2.677473 1_454
La1 O13 2.770423 1_455
La1 O12 2.770423 1_555
La1 O13 2.770423 1_555
La1 O12 2.770423 1_565
Nb0 O2 1.824610 1_555
Nb0 O5 2.008259 1_555
Nb0 O11 2.008259 1_455
Nb0 O10 2.008259 1_545
Nb0 O4 2.008259 1_445
Nb0 O12 2.296967 1_556
Nb1 O3 1.755863 1_555
Nb1 O4 2.034065 1_555
Nb1 O10 2.034065 1_555
Nb1 O11 2.034065 1_555
Nb1 O5 2.034065 1_555
Nb1 O13 2.347250 1_556
Nb2 O6 1.824610 1_555
Nb2 O1 2.008259 1_555
Nb2 O8 2.008259 1_455
Nb2 O9 2.008259 1_545
Nb2 O0 2.008259 1_445
Nb2 O12 2.296967 1_555
Nb3 O7 1.755863 1_555
Nb3 O0 2.034065 1_555
Nb3 O9 2.034065 1_555
Nb3 O8 2.034065 1_555
Nb3 O1 2.034065 1_555
Nb3 O13 2.347250 1_555
Cu0 O2 1.815088 1_555
Cu0 O6 1.815088 1_555
Cl0 Cu0 2.770423 1_555
Cl0 Cu0 2.770423 1_565
Cl1 Cu0 2.770423 1_555
Cl1 Cu0 2.770423 1_655
