# generated using pymatgen
data_Lu4Ge6Rh7
_symmetry_space_group_name_H-M   'P 1'
_cell_length_a   7.14216823
_cell_length_b   7.14216901
_cell_length_c   7.14216822
_cell_angle_alpha   109.47122701
_cell_angle_beta   109.47122927
_cell_angle_gamma   109.47121391
_symmetry_Int_Tables_number   1
_chemical_formula_structural   Lu4Ge6Rh7
_chemical_formula_sum   'Lu4 Ge6 Rh7'
_cell_volume   280.45832678
_cell_formula_units_Z   1
loop_
 _symmetry_equiv_pos_site_id
 _symmetry_equiv_pos_as_xyz
  1  'x, y, z'
loop_
 _atom_site_type_symbol
 _atom_site_label
 _atom_site_symmetry_multiplicity
 _atom_site_fract_x
 _atom_site_fract_y
 _atom_site_fract_z
 _atom_site_occupancy
  Lu  Lu0  1  -0.00000000  -0.00000000  0.50000000  1
  Lu  Lu1  1  -0.00000000  0.50000000  -0.00000000  1
  Lu  Lu2  1  0.50000000  -0.00000000  -0.00000000  1
  Lu  Lu3  1  0.50000000  0.50000000  0.50000000  1
  Ge  Ge0  1  0.00000000  0.68149086  0.68149086  1
  Ge  Ge1  1  0.31850914  0.31850914  -0.00000000  1
  Ge  Ge2  1  0.68149086  0.68149086  0.00000000  1
  Ge  Ge3  1  0.68149086  0.00000000  0.68149086  1
  Ge  Ge4  1  0.31850914  -0.00000000  0.31850914  1
  Ge  Ge5  1  -0.00000000  0.31850914  0.31850914  1
  Rh  Rh0  1  0.50000000  0.75000000  0.25000000  1
  Rh  Rh1  1  0.25000000  0.50000000  0.75000000  1
  Rh  Rh2  1  0.75000000  0.25000000  0.50000000  1
  Rh  Rh3  1  0.25000000  0.75000000  0.50000000  1
  Rh  Rh4  1  0.50000000  0.25000000  0.75000000  1
  Rh  Rh5  1  0.75000000  0.50000000  0.25000000  1
  Rh  Rh6  1  -0.00000000  -0.00000000  -0.00000000  1
loop_
_geom_bond_atom_site_label_1
_geom_bond_atom_site_label_2
_geom_bond_distance
_geom_bond_site_symmetry_2
Lu0 Rh4 2.915778 1_555
Lu0 Rh0 2.915778 1_445
Lu0 Rh2 2.915778 1_455
Lu0 Rh3 2.915778 1_545
Lu0 Rh1 2.915778 1_555
Lu0 Rh5 2.915778 1_445
Lu1 Rh3 2.915778 1_555
Lu1 Rh2 2.915778 1_454
Lu1 Rh4 2.915778 1_454
Lu1 Rh0 2.915778 1_555
Lu1 Rh5 2.915778 1_455
Lu1 Rh1 2.915778 1_554
Lu2 Rh3 2.915778 1_544
Lu2 Rh2 2.915778 1_555
Lu2 Rh5 2.915778 1_555
Lu2 Rh1 2.915778 1_544
Lu2 Rh0 2.915778 1_545
Lu2 Rh4 2.915778 1_554
Lu3 Rh3 2.915778 1_555
Lu3 Rh2 2.915778 1_555
Lu3 Rh1 2.915778 1_555
Lu3 Rh5 2.915778 1_555
Lu3 Rh4 2.915778 1_555
Lu3 Rh0 2.915778 1_555
Ge0 Rh5 2.547781 1_455
Ge0 Rh1 2.547782 1_555
Ge0 Rh3 2.547782 1_555
Ge0 Rh2 2.547782 1_455
Ge0 Rh6 2.626766 1_566
Ge0 Lu2 2.970014 1_566
Ge0 Lu3 2.970014 1_455
Ge0 Lu1 2.970015 1_556
Ge0 Lu0 2.970015 1_565
Ge1 Rh5 2.547782 1_555
Ge1 Rh4 2.547782 1_554
Ge1 Rh0 2.547782 1_555
Ge1 Rh1 2.547782 1_554
Ge1 Rh6 2.626766 1_555
Ge1 Lu0 2.970014 1_554
Ge1 Lu3 2.970014 1_555
Ge1 Lu1 2.970014 1_555
Ge1 Lu2 2.970015 1_555
Ge2 Rh1 2.547782 1_554
Ge2 Rh0 2.547782 1_555
Ge2 Rh4 2.547782 1_554
Ge2 Rh5 2.547782 1_555
Ge2 Rh6 2.626766 1_665
Ge2 Lu0 2.970014 1_665
Ge2 Lu3 2.970014 1_554
Ge2 Lu1 2.970014 1_655
Ge2 Lu2 2.970015 1_565
Ge3 Rh0 2.547781 1_545
Ge3 Rh3 2.547782 1_545
Ge3 Rh4 2.547782 1_555
Ge3 Rh2 2.547782 1_555
Ge3 Rh6 2.626765 1_656
Ge3 Lu1 2.970014 1_656
Ge3 Lu2 2.970015 1_556
Ge3 Lu0 2.970015 1_655
Ge3 Lu3 2.970015 1_545
Ge4 Rh4 2.547781 1_555
Ge4 Rh2 2.547782 1_555
Ge4 Rh0 2.547782 1_545
Ge4 Rh3 2.547782 1_545
Ge4 Rh6 2.626765 1_555
Ge4 Lu1 2.970014 1_545
Ge4 Lu2 2.970015 1_555
Ge4 Lu0 2.970015 1_555
Ge4 Lu3 2.970015 1_555
Ge5 Rh1 2.547781 1_555
Ge5 Rh5 2.547782 1_455
Ge5 Rh2 2.547782 1_455
Ge5 Rh3 2.547782 1_555
Ge5 Rh6 2.626766 1_555
Ge5 Lu2 2.970014 1_455
Ge5 Lu3 2.970014 1_555
Ge5 Lu1 2.970015 1_555
Ge5 Lu0 2.970015 1_555
