# generated using pymatgen
data_Mn3O4
_symmetry_space_group_name_H-M   'P 1'
_cell_length_a   3.17260000
_cell_length_b   12.14924400
_cell_length_c   10.47941700
_cell_angle_alpha   90.00000000
_cell_angle_beta   90.00000000
_cell_angle_gamma   90.00000000
_symmetry_Int_Tables_number   1
_chemical_formula_structural   Mn3O4
_chemical_formula_sum   'Mn12 O16'
_cell_volume   403.92589552
_cell_formula_units_Z   4
loop_
 _symmetry_equiv_pos_site_id
 _symmetry_equiv_pos_as_xyz
  1  'x, y, z'
loop_
 _atom_site_type_symbol
 _atom_site_label
 _atom_site_symmetry_multiplicity
 _atom_site_fract_x
 _atom_site_fract_y
 _atom_site_fract_z
 _atom_site_occupancy
  Mn  Mn0  1  0.24269900  0.25000000  0.52591800  1
  Mn  Mn1  1  0.75730100  0.75000000  0.47408200  1
  Mn  Mn2  1  0.24269900  0.75000000  0.97408200  1
  Mn  Mn3  1  0.75730100  0.25000000  0.02591800  1
  Mn  Mn4  1  0.74108500  0.45579200  0.62268100  1
  Mn  Mn5  1  0.25891500  0.95579200  0.37731900  1
  Mn  Mn6  1  0.74108500  0.54420800  0.87731900  1
  Mn  Mn7  1  0.25891500  0.04420800  0.12268100  1
  Mn  Mn8  1  0.25891500  0.54420800  0.37731900  1
  Mn  Mn9  1  0.74108500  0.04420800  0.62268100  1
  Mn  Mn10  1  0.25891500  0.45579200  0.12268100  1
  Mn  Mn11  1  0.74108500  0.95579200  0.87731900  1
  O  O0  1  0.23679500  0.50000000  0.75000000  1
  O  O1  1  0.76320500  0.00000000  0.25000000  1
  O  O2  1  0.76320500  0.50000000  0.25000000  1
  O  O3  1  0.23679500  0.00000000  0.75000000  1
  O  O4  1  0.74243200  0.25000000  0.62186500  1
  O  O5  1  0.25756800  0.75000000  0.37813500  1
  O  O6  1  0.74243200  0.75000000  0.87813500  1
  O  O7  1  0.25756800  0.25000000  0.12186500  1
  O  O8  1  0.24416500  0.40518700  0.50574800  1
  O  O9  1  0.75583500  0.90518700  0.49425200  1
  O  O10  1  0.24416500  0.59481300  0.99425200  1
  O  O11  1  0.75583500  0.09481300  0.00574800  1
  O  O12  1  0.75583500  0.59481300  0.49425200  1
  O  O13  1  0.24416500  0.09481300  0.50574800  1
  O  O14  1  0.75583500  0.40518700  0.00574800  1
  O  O15  1  0.24416500  0.90518700  0.99425200  1
loop_
_geom_bond_atom_site_label_1
_geom_bond_atom_site_label_2
_geom_bond_distance
_geom_bond_site_symmetry_2
Mn0 O4 1.877399 1_555
Mn0 O4 1.878830 1_455
Mn0 O13 1.897222 1_555
Mn0 O8 1.897222 1_555
Mn1 O5 1.877399 1_555
Mn1 O5 1.878830 1_655
Mn1 O9 1.897222 1_555
Mn1 O12 1.897222 1_555
Mn2 O6 1.877399 1_555
Mn2 O6 1.878830 1_455
Mn2 O10 1.897222 1_555
Mn2 O15 1.897222 1_555
Mn3 O7 1.877399 1_555
Mn3 O7 1.878830 1_655
Mn3 O11 1.897222 1_555
Mn3 O14 1.897222 1_555
Mn4 O8 2.089262 1_555
Mn4 O8 2.104048 1_655
Mn4 O0 2.131194 1_655
Mn4 O0 2.151360 1_555
Mn4 O12 2.160151 1_555
Mn4 O4 2.500235 1_555
Mn5 O9 2.089262 1_555
Mn5 O9 2.104048 1_455
Mn5 O1 2.131194 1_465
Mn5 O1 2.151360 1_565
Mn5 O13 2.160151 1_565
Mn5 O5 2.500235 1_555
Mn6 O10 2.089262 1_555
Mn6 O10 2.104048 1_655
Mn6 O0 2.131194 1_655
Mn6 O0 2.151360 1_555
Mn6 O14 2.160151 1_556
Mn6 O6 2.500235 1_555
Mn7 O11 2.089262 1_555
Mn7 O11 2.104048 1_455
Mn7 O1 2.131194 1_455
Mn7 O1 2.151360 1_555
Mn7 O15 2.160151 1_544
Mn7 O7 2.500235 1_555
Mn8 O12 2.089262 1_555
Mn8 O12 2.104048 1_455
Mn8 O2 2.131194 1_455
Mn8 O2 2.151360 1_555
Mn8 O8 2.160151 1_555
Mn8 O5 2.500235 1_555
Mn9 O13 2.089262 1_555
Mn9 O13 2.104048 1_655
Mn9 O3 2.131194 1_655
Mn9 O3 2.151360 1_555
Mn9 O9 2.160151 1_545
Mn9 O4 2.500235 1_555
Mn10 O14 2.089262 1_555
Mn10 O14 2.104048 1_455
Mn10 O2 2.131194 1_455
Mn10 O2 2.151360 1_555
Mn10 O10 2.160151 1_554
Mn10 O7 2.500235 1_555
Mn11 O15 2.089262 1_555
Mn11 O15 2.104048 1_655
Mn11 O3 2.131194 1_665
Mn11 O3 2.151360 1_565
Mn11 O11 2.160151 1_566
Mn11 O6 2.500235 1_555
