# generated using pymatgen
data_CsLiMg6O7
_symmetry_space_group_name_H-M   'P 1'
_cell_length_a   8.52155042
_cell_length_b   4.54973856
_cell_length_c   4.54973856
_cell_angle_alpha   90.00000000
_cell_angle_beta   90.00000000
_cell_angle_gamma   90.00000000
_symmetry_Int_Tables_number   1
_chemical_formula_structural   CsLiMg6O7
_chemical_formula_sum   'Cs1 Li1 Mg6 O7'
_cell_volume   176.39712450
_cell_formula_units_Z   1
loop_
 _symmetry_equiv_pos_site_id
 _symmetry_equiv_pos_as_xyz
  1  'x, y, z'
loop_
 _atom_site_type_symbol
 _atom_site_label
 _atom_site_symmetry_multiplicity
 _atom_site_fract_x
 _atom_site_fract_y
 _atom_site_fract_z
 _atom_site_occupancy
  Cs  Cs0  1  0.08458450  0.50000000  0.50000000  1
  Li  Li0  1  0.98063027  0.00000000  -0.00000000  1
  Mg  Mg0  1  0.49522555  0.00000000  -0.00000000  1
  Mg  Mg1  1  0.51717506  0.50000000  0.50000000  1
  Mg  Mg2  1  0.24312516  0.00000000  0.50000000  1
  Mg  Mg3  1  0.76163115  -0.00000000  0.50000000  1
  Mg  Mg4  1  0.24312516  0.50000000  0.00000000  1
  Mg  Mg5  1  0.76163115  0.50000000  0.00000000  1
  O  O0  1  0.25244214  0.00000000  -0.00000000  1
  O  O1  1  0.73064626  0.00000000  0.00000000  1
  O  O2  1  0.73894761  0.50000000  0.50000000  1
  O  O3  1  0.99324241  0.00000000  0.50000000  1
  O  O4  1  0.47717559  -0.00000000  0.50000000  1
  O  O5  1  0.99324241  0.50000000  -0.00000000  1
  O  O6  1  0.47717559  0.50000000  -0.00000000  1
loop_
_geom_bond_atom_site_label_1
_geom_bond_atom_site_label_2
_geom_bond_distance
_geom_bond_site_symmetry_2
Cs0 O5 2.404350 1_455
Cs0 O3 2.404350 1_455
Cs0 O5 2.404350 1_456
Cs0 O3 2.404350 1_465
Li0 O1 2.130251 1_555
Li0 O5 2.277407 1_555
Li0 O3 2.277407 1_555
Li0 O3 2.277407 1_554
Li0 O5 2.277407 1_545
Li0 O0 2.316259 1_655
Mg0 O1 2.006149 1_555
Mg0 O0 2.068891 1_555
Mg0 O6 2.280063 1_545
Mg0 O6 2.280063 1_555
Mg0 O4 2.280063 1_554
Mg0 O4 2.280063 1_555
Mg1 O2 1.889846 1_555
Mg1 O4 2.300264 1_555
Mg1 O4 2.300264 1_565
Mg1 O6 2.300264 1_556
Mg1 O6 2.300264 1_555
Mg2 O4 1.994473 1_555
Mg2 O3 2.129388 1_455
Mg2 O0 2.276254 1_555
Mg2 O0 2.276254 1_556
Mg3 O3 1.973687 1_555
Mg3 O2 2.283067 1_555
Mg3 O2 2.283067 1_545
Mg3 O1 2.290141 1_556
Mg3 O1 2.290141 1_555
Mg3 O4 2.424002 1_555
Mg4 O6 1.994473 1_555
Mg4 O5 2.129388 1_455
Mg4 O0 2.276254 1_555
Mg4 O0 2.276254 1_565
Mg5 O5 1.973687 1_555
Mg5 O2 2.283067 1_555
Mg5 O2 2.283067 1_554
Mg5 O1 2.290141 1_565
Mg5 O1 2.290141 1_555
Mg5 O6 2.424002 1_555
