# generated using pymatgen
data_Ta2Ga(ReSe4)2
_symmetry_space_group_name_H-M   'P 1'
_cell_length_a   3.47204510
_cell_length_b   3.47204510
_cell_length_c   29.43510600
_cell_angle_alpha   90.00000000
_cell_angle_beta   90.00000000
_cell_angle_gamma   119.99998285
_symmetry_Int_Tables_number   1
_chemical_formula_structural   Ta2Ga(ReSe4)2
_chemical_formula_sum   'Ta2 Ga1 Re2 Se8'
_cell_volume   307.30316023
_cell_formula_units_Z   1
loop_
 _symmetry_equiv_pos_site_id
 _symmetry_equiv_pos_as_xyz
  1  'x, y, z'
loop_
 _atom_site_type_symbol
 _atom_site_label
 _atom_site_symmetry_multiplicity
 _atom_site_fract_x
 _atom_site_fract_y
 _atom_site_fract_z
 _atom_site_occupancy
  Ta  Ta0  1  0.00000000  0.00000000  0.61649500  1
  Ta  Ta1  1  0.00000000  0.00000000  0.12526900  1
  Ga  Ga0  1  0.00000000  0.00000000  0.74269900  1
  Re  Re0  1  0.00000000  0.00000000  0.88534900  1
  Re  Re1  1  0.00000000  0.00000000  0.37479200  1
  Se  Se0  1  0.33333300  0.66666700  0.67505200  1
  Se  Se1  1  0.33333300  0.66666700  0.18256500  1
  Se  Se2  1  0.66666700  0.33333300  0.83279300  1
  Se  Se3  1  0.66666700  0.33333300  0.32179500  1
  Se  Se4  1  0.66666700  0.33333300  0.93802600  1
  Se  Se5  1  0.66666700  0.33333300  0.42790100  1
  Se  Se6  1  0.33333300  0.66666700  0.55921300  1
  Se  Se7  1  0.33333300  0.66666700  0.06805000  1
loop_
_geom_bond_atom_site_label_1
_geom_bond_atom_site_label_2
_geom_bond_distance
_geom_bond_site_symmetry_2
Ga0 Se0 2.825459 1_545
Ga0 Se0 2.825462 1_555
Ga0 Se0 2.825462 1_445
Re0 Se2 2.532102 1_455
Re0 Se2 2.532105 1_445
Re0 Se2 2.532105 1_555
Re0 Se4 2.534279 1_455
Re0 Se4 2.534282 1_445
Re0 Se4 2.534282 1_555
Re1 Se3 2.540053 1_455
Re1 Se3 2.540056 1_445
Re1 Se3 2.540056 1_555
Re1 Se5 2.542079 1_455
Re1 Se5 2.542082 1_555
Re1 Se5 2.542082 1_445
Se0 Ta0 2.643721 1_565
Se0 Ta0 2.643724 1_555
Se0 Ta0 2.643724 1_665
Se1 Ta1 2.619673 1_565
Se1 Ta1 2.619676 1_555
Se1 Ta1 2.619676 1_665
Se6 Ta0 2.619408 1_565
Se6 Ta0 2.619410 1_665
Se6 Ta0 2.619410 1_555
Se7 Ta1 2.618214 1_565
Se7 Ta1 2.618217 1_665
Se7 Ta1 2.618217 1_555
