# generated using pymatgen
data_Dy2MgSe4
_symmetry_space_group_name_H-M   'P 1'
_cell_length_a   14.06648071
_cell_length_b   8.18276716
_cell_length_c   6.79853760
_cell_angle_alpha   90.00000000
_cell_angle_beta   90.00000000
_cell_angle_gamma   90.00000000
_symmetry_Int_Tables_number   1
_chemical_formula_structural   Dy2MgSe4
_chemical_formula_sum   'Dy8 Mg4 Se16'
_cell_volume   782.53028135
_cell_formula_units_Z   4
loop_
 _symmetry_equiv_pos_site_id
 _symmetry_equiv_pos_as_xyz
  1  'x, y, z'
loop_
 _atom_site_type_symbol
 _atom_site_label
 _atom_site_symmetry_multiplicity
 _atom_site_fract_x
 _atom_site_fract_y
 _atom_site_fract_z
 _atom_site_occupancy
  Dy  Dy0  1  0.00000000  -0.00000000  0.50000000  1
  Dy  Dy1  1  0.50000000  -0.00000000  -0.00000000  1
  Dy  Dy2  1  0.50000000  0.50000000  -0.00000000  1
  Dy  Dy3  1  0.00000000  0.50000000  0.50000000  1
  Dy  Dy4  1  0.23439696  0.75000000  -0.00292967  1
  Dy  Dy5  1  0.76560304  0.25000000  0.00292967  1
  Dy  Dy6  1  0.26560304  0.25000000  0.49707033  1
  Dy  Dy7  1  0.73439696  0.75000000  0.50292967  1
  Mg  Mg0  1  0.09406998  0.25000000  0.91581661  1
  Mg  Mg1  1  0.90593002  0.75000000  0.08418339  1
  Mg  Mg2  1  0.40593002  0.75000000  0.41581661  1
  Mg  Mg3  1  0.59406998  0.25000000  0.58418339  1
  Se  Se0  1  0.17009070  0.00552142  0.73648077  1
  Se  Se1  1  0.82990930  0.99447858  0.26351923  1
  Se  Se2  1  0.32990930  0.99447858  0.23648077  1
  Se  Se3  1  0.67009070  0.00552142  0.76351923  1
  Se  Se4  1  0.67009070  0.49447858  0.76351923  1
  Se  Se5  1  0.32990930  0.50552142  0.23648077  1
  Se  Se6  1  0.82990930  0.50552142  0.26351923  1
  Se  Se7  1  0.17009070  0.49447858  0.73648077  1
  Se  Se8  1  0.07261676  0.75000000  0.24647772  1
  Se  Se9  1  0.92738324  0.25000000  0.75352228  1
  Se  Se10  1  0.42738324  0.25000000  0.74647772  1
  Se  Se11  1  0.57261676  0.75000000  0.25352228  1
  Se  Se12  1  0.09024995  0.25000000  0.28497222  1
  Se  Se13  1  0.90975005  0.75000000  0.71502778  1
  Se  Se14  1  0.40975005  0.75000000  0.78497222  1
  Se  Se15  1  0.59024995  0.25000000  0.21502778  1
loop_
_geom_bond_atom_site_label_1
_geom_bond_atom_site_label_2
_geom_bond_distance
_geom_bond_site_symmetry_2
Dy0 Se12 2.816658 1_555
Dy0 Se13 2.816658 1_445
Dy0 Se8 2.863384 1_545
Dy0 Se9 2.863384 1_455
Dy0 Se0 2.882923 1_555
Dy0 Se1 2.882923 1_445
Dy1 Se14 2.816658 1_544
Dy1 Se15 2.816658 1_555
Dy1 Se11 2.863384 1_545
Dy1 Se10 2.863384 1_554
Dy1 Se2 2.882923 1_545
Dy1 Se3 2.882923 1_554
Dy2 Se15 2.816658 1_555
Dy2 Se14 2.816658 1_554
Dy2 Se11 2.863384 1_555
Dy2 Se10 2.863384 1_554
Dy2 Se5 2.882923 1_555
Dy2 Se4 2.882923 1_554
Dy3 Se12 2.816658 1_555
Dy3 Se13 2.816658 1_455
Dy3 Se8 2.863384 1_555
Dy3 Se9 2.863384 1_455
Dy3 Se6 2.882923 1_455
Dy3 Se7 2.882923 1_555
Dy4 Se8 2.837920 1_555
Dy4 Se14 2.857159 1_554
Dy4 Se7 2.885939 1_554
Dy4 Se0 2.885939 1_564
Dy4 Se2 2.907974 1_555
Dy4 Se5 2.907974 1_555
Dy5 Se9 2.837920 1_554
Dy5 Se15 2.857159 1_555
Dy5 Se1 2.885939 1_545
Dy5 Se6 2.885939 1_555
Dy5 Se3 2.907974 1_554
Dy5 Se4 2.907974 1_554
Dy6 Se10 2.837920 1_555
Dy6 Se12 2.857159 1_555
Dy6 Se5 2.885939 1_555
Dy6 Se2 2.885939 1_545
Dy6 Se0 2.907974 1_555
Dy6 Se7 2.907974 1_555
Dy7 Se11 2.837920 1_555
Dy7 Se13 2.857159 1_555
Dy7 Se3 2.885939 1_565
Dy7 Se4 2.885939 1_555
Dy7 Se1 2.907974 1_555
Dy7 Se6 2.907974 1_555
Mg0 Se12 2.510293 1_556
Mg0 Se0 2.575275 1_555
Mg0 Se7 2.575275 1_555
Mg0 Se9 2.591334 1_455
Mg1 Se13 2.510293 1_554
Mg1 Se6 2.575275 1_555
Mg1 Se1 2.575275 1_555
Mg1 Se8 2.591334 1_655
Mg2 Se14 2.510293 1_555
Mg2 Se2 2.575275 1_555
Mg2 Se5 2.575275 1_555
Mg2 Se11 2.591334 1_555
Mg3 Se15 2.510293 1_555
Mg3 Se4 2.575275 1_555
Mg3 Se3 2.575275 1_555
Mg3 Se10 2.591334 1_555
