# generated using pymatgen
data_Tb2Ni22C3
_symmetry_space_group_name_H-M   'P 1'
_cell_length_a   9.36043373
_cell_length_b   9.36043373
_cell_length_c   14.56618963
_cell_angle_alpha   90.00000000
_cell_angle_beta   90.00000000
_cell_angle_gamma   105.92346596
_symmetry_Int_Tables_number   1
_chemical_formula_structural   Tb2Ni22C3
_chemical_formula_sum   'Tb8 Ni88 C12'
_cell_volume   1227.28512038
_cell_formula_units_Z   4
loop_
 _symmetry_equiv_pos_site_id
 _symmetry_equiv_pos_as_xyz
  1  'x, y, z'
loop_
 _atom_site_type_symbol
 _atom_site_label
 _atom_site_symmetry_multiplicity
 _atom_site_fract_x
 _atom_site_fract_y
 _atom_site_fract_z
 _atom_site_occupancy
  Tb  Tb0  1  0.81481501  0.68518499  0.25000000  1
  Tb  Tb1  1  0.68518499  0.81481501  0.75000000  1
  Tb  Tb2  1  0.18518499  0.31481501  0.75000000  1
  Tb  Tb3  1  0.31481501  0.18518499  0.25000000  1
  Tb  Tb4  1  0.70702860  0.29297140  0.52800188  1
  Tb  Tb5  1  0.29297140  0.70702860  0.47199812  1
  Tb  Tb6  1  0.79297140  0.20702860  0.02800188  1
  Tb  Tb7  1  0.20702860  0.79297140  0.97199812  1
  Ni  Ni0  1  0.92845048  0.43046318  0.18173490  1
  Ni  Ni1  1  0.43046318  0.92845048  0.81826510  1
  Ni  Ni2  1  0.93046318  0.42845048  0.68173490  1
  Ni  Ni3  1  0.42845048  0.93046318  0.31826510  1
  Ni  Ni4  1  0.07154952  0.56953682  0.81826510  1
  Ni  Ni5  1  0.56953682  0.07154952  0.18173490  1
  Ni  Ni6  1  0.06953682  0.57154952  0.31826510  1
  Ni  Ni7  1  0.57154952  0.06953682  0.68173490  1
  Ni  Ni8  1  0.56072346  0.43927654  0.34196008  1
  Ni  Ni9  1  0.43927654  0.56072346  0.65803992  1
  Ni  Ni10  1  0.93927654  0.06072346  0.84196008  1
  Ni  Ni11  1  0.06072346  0.93927654  0.15803992  1
  Ni  Ni12  1  0.00854369  0.76841348  0.42195435  1
  Ni  Ni13  1  0.76841348  0.00854369  0.57804565  1
  Ni  Ni14  1  0.26841348  0.50854369  0.92195435  1
  Ni  Ni15  1  0.50854369  0.26841348  0.07804565  1
  Ni  Ni16  1  0.99145631  0.23158652  0.57804565  1
  Ni  Ni17  1  0.23158652  0.99145631  0.42195435  1
  Ni  Ni18  1  0.73158652  0.49145631  0.07804565  1
  Ni  Ni19  1  0.49145631  0.73158652  0.92195435  1
  Ni  Ni20  1  0.75189923  0.59758712  0.45009293  1
  Ni  Ni21  1  0.59758712  0.75189923  0.54990707  1
  Ni  Ni22  1  0.09758712  0.25189923  0.95009293  1
  Ni  Ni23  1  0.25189923  0.09758712  0.04990707  1
  Ni  Ni24  1  0.24810077  0.40241288  0.54990707  1
  Ni  Ni25  1  0.40241288  0.24810077  0.45009293  1
  Ni  Ni26  1  0.90241288  0.74810077  0.04990707  1
  Ni  Ni27  1  0.74810077  0.90241288  0.95009293  1
  Ni  Ni28  1  0.14067048  0.21195449  0.42701651  1
  Ni  Ni29  1  0.21195449  0.14067048  0.57298349  1
  Ni  Ni30  1  0.71195449  0.64067048  0.92701651  1
  Ni  Ni31  1  0.64067048  0.71195449  0.07298349  1
  Ni  Ni32  1  0.85932952  0.78804551  0.57298349  1
  Ni  Ni33  1  0.78804551  0.85932952  0.42701651  1
  Ni  Ni34  1  0.28804551  0.35932952  0.07298349  1
  Ni  Ni35  1  0.35932952  0.28804551  0.92701651  1
  Ni  Ni36  1  0.82145877  0.39576903  0.34388002  1
  Ni  Ni37  1  0.39576903  0.82145877  0.65611998  1
  Ni  Ni38  1  0.89576903  0.32145877  0.84388002  1
  Ni  Ni39  1  0.32145877  0.89576903  0.15611998  1
  Ni  Ni40  1  0.17854123  0.60423097  0.65611998  1
  Ni  Ni41  1  0.60423097  0.17854123  0.34388002  1
  Ni  Ni42  1  0.10423097  0.67854123  0.15611998  1
  Ni  Ni43  1  0.67854123  0.10423097  0.84388002  1
  Ni  Ni44  1  0.94910631  0.79713554  0.86976737  1
  Ni  Ni45  1  0.79713554  0.94910631  0.13023263  1
  Ni  Ni46  1  0.29713554  0.44910631  0.36976737  1
  Ni  Ni47  1  0.44910631  0.29713554  0.63023263  1
  Ni  Ni48  1  0.05089369  0.20286446  0.13023263  1
  Ni  Ni49  1  0.20286446  0.05089369  0.86976737  1
  Ni  Ni50  1  0.70286446  0.55089369  0.63023263  1
  Ni  Ni51  1  0.55089369  0.70286446  0.36976737  1
  Ni  Ni52  1  0.04657461  0.29313735  0.29879808  1
  Ni  Ni53  1  0.29313735  0.04657461  0.70120192  1
  Ni  Ni54  1  0.79313735  0.54657461  0.79879808  1
  Ni  Ni55  1  0.54657461  0.79313735  0.20120192  1
  Ni  Ni56  1  0.95342539  0.70686265  0.70120192  1
  Ni  Ni57  1  0.70686265  0.95342539  0.29879808  1
  Ni  Ni58  1  0.20686265  0.45342539  0.20120192  1
  Ni  Ni59  1  0.45342539  0.20686265  0.79879808  1
  Ni  Ni60  1  0.81937088  0.18062912  0.23308976  1
  Ni  Ni61  1  0.18062912  0.81937088  0.76691024  1
  Ni  Ni62  1  0.68062912  0.31937088  0.73308976  1
  Ni  Ni63  1  0.31937088  0.68062912  0.26691024  1
  Ni  Ni64  1  0.85570662  0.14429338  0.41355523  1
  Ni  Ni65  1  0.14429338  0.85570662  0.58644477  1
  Ni  Ni66  1  0.64429338  0.35570662  0.91355523  1
  Ni  Ni67  1  0.35570662  0.64429338  0.08644477  1
  Ni  Ni68  1  0.99792029  0.00207971  0.32542537  1
  Ni  Ni69  1  0.00207971  0.99792029  0.67457463  1
  Ni  Ni70  1  0.50207971  0.49792029  0.82542537  1
  Ni  Ni71  1  0.49792029  0.50207971  0.17457463  1
  Ni  Ni72  1  0.65838126  0.34161874  0.21172214  1
  Ni  Ni73  1  0.34161874  0.65838126  0.78827786  1
  Ni  Ni74  1  0.84161874  0.15838126  0.71172214  1
  Ni  Ni75  1  0.15838126  0.84161874  0.28827786  1
  Ni  Ni76  1  0.00000000  -0.00000000  0.50000000  1
  Ni  Ni77  1  0.50000000  0.50000000  0.00000000  1
  Ni  Ni78  1  0.08998985  0.46773383  0.04836835  1
  Ni  Ni79  1  0.46773383  0.08998985  0.95163165  1
  Ni  Ni80  1  0.96773383  0.58998985  0.54836835  1
  Ni  Ni81  1  0.58998985  0.96773383  0.45163165  1
  Ni  Ni82  1  0.91001015  0.53226617  0.95163165  1
  Ni  Ni83  1  0.53226617  0.91001015  0.04836835  1
  Ni  Ni84  1  0.03226617  0.41001015  0.45163165  1
  Ni  Ni85  1  0.41001015  0.03226617  0.54836835  1
  Ni  Ni86  1  0.50000000  0.50000000  0.50000000  1
  Ni  Ni87  1  0.00000000  -0.00000000  -0.00000000  1
  C  C0  1  0.94538482  0.05461518  0.21150924  1
  C  C1  1  0.05461518  0.94538482  0.78849076  1
  C  C2  1  0.55461518  0.44538482  0.71150924  1
  C  C3  1  0.44538482  0.55461518  0.28849076  1
  C  C4  1  0.93204880  0.55756102  0.41640747  1
  C  C5  1  0.55756102  0.93204880  0.58359253  1
  C  C6  1  0.05756102  0.43204880  0.91640747  1
  C  C7  1  0.43204880  0.05756102  0.08359253  1
  C  C8  1  0.06795120  0.44243898  0.58359253  1
  C  C9  1  0.44243898  0.06795120  0.41640747  1
  C  C10  1  0.94243898  0.56795120  0.08359253  1
  C  C11  1  0.56795120  0.94243898  0.91640747  1
loop_
_geom_bond_atom_site_label_1
_geom_bond_atom_site_label_2
_geom_bond_distance
_geom_bond_site_symmetry_2
Ni0 Ni72 2.473751 1_555
Ni0 Ni52 2.561707 1_655
Ni0 Ni58 2.571147 1_655
Ni0 Tb0 3.032602 1_555
Ni0 Tb6 3.088933 1_555
Ni1 Ni73 2.473751 1_555
Ni1 Ni53 2.561707 1_565
Ni1 Ni59 2.571147 1_565
Ni1 Tb1 3.032602 1_555
Ni1 Tb7 3.088933 1_555
Ni2 Ni74 2.473751 1_555
Ni2 Ni54 2.561707 1_555
Ni2 Ni56 2.571147 1_555
Ni2 Tb2 3.032602 1_655
Ni2 Tb4 3.088933 1_555
Ni3 Ni75 2.473751 1_555
Ni3 Ni55 2.561707 1_555
Ni3 Ni57 2.571147 1_555
Ni3 Tb3 3.032602 1_565
Ni3 Tb5 3.088933 1_555
Ni4 Ni73 2.473751 1_555
Ni4 Ni56 2.561707 1_455
Ni4 Ni54 2.571147 1_455
Ni4 Tb2 3.032602 1_555
Ni4 Tb7 3.088933 1_555
Ni5 Ni72 2.473751 1_555
Ni5 Ni57 2.561707 1_545
Ni5 Ni55 2.571147 1_545
Ni5 Tb3 3.032602 1_555
Ni5 Tb6 3.088933 1_555
Ni6 Ni75 2.473751 1_555
Ni6 Tb0 3.032602 1_455
Ni6 Tb5 3.088933 1_555
Ni7 Ni74 2.473751 1_555
Ni7 Tb1 3.032602 1_545
Ni7 Tb4 3.088933 1_555
Ni8 Ni86 2.474432 1_555
Ni8 Tb3 3.121772 1_555
Ni8 Tb0 3.121772 1_555
Ni9 Tb2 3.121772 1_555
Ni9 Tb1 3.121772 1_555
Ni10 Ni74 2.393452 1_555
Ni10 Ni87 2.474432 1_656
Ni10 Tb2 3.121772 1_655
Ni10 Tb1 3.121772 1_545
Ni11 Ni75 2.393452 1_555
Ni11 Ni87 2.474432 1_565
Ni11 Tb3 3.121772 1_565
Ni11 Tb0 3.121772 1_455
Ni12 Ni75 2.387625 1_555
Ni12 Ni33 2.439952 1_455
Ni12 Ni76 2.468408 1_565
Ni12 Ni32 2.639137 1_455
Ni12 Ni65 2.730087 1_555
Ni12 Tb5 2.964643 1_555
Ni12 Tb0 3.064921 1_455
Ni13 Ni74 2.387625 1_555
Ni13 Ni32 2.439952 1_545
Ni13 Ni76 2.468408 1_655
Ni13 Ni33 2.639137 1_545
Ni13 Ni64 2.730087 1_555
Ni13 Tb4 2.964643 1_555
Ni13 Tb1 3.064921 1_545
Ni14 Ni73 2.387625 1_555
Ni14 Ni35 2.439952 1_555
Ni14 Ni77 2.468408 1_556
Ni14 Ni34 2.639137 1_556
Ni14 Ni67 2.730087 1_556
Ni14 Tb7 2.964643 1_555
Ni14 Tb2 3.064921 1_555
Ni15 Ni72 2.387625 1_555
Ni15 Ni34 2.439952 1_555
Ni15 Ni77 2.468408 1_555
Ni15 Ni35 2.639137 1_554
Ni15 Ni66 2.730087 1_554
Ni15 Tb6 2.964643 1_555
Ni15 Tb3 3.064921 1_555
Ni16 Ni74 2.387625 1_555
Ni16 Ni29 2.439952 1_655
Ni16 Ni76 2.468408 1_655
Ni16 Ni28 2.639137 1_655
Ni16 Ni64 2.730087 1_555
Ni16 Tb4 2.964643 1_555
Ni16 Tb2 3.064921 1_655
Ni17 Ni75 2.387625 1_555
Ni17 Ni28 2.439952 1_565
Ni17 Ni76 2.468408 1_565
Ni17 Ni29 2.639137 1_565
Ni17 Ni65 2.730087 1_555
Ni17 Tb5 2.964643 1_555
Ni17 Tb3 3.064921 1_565
Ni18 Ni72 2.387625 1_555
Ni18 Ni31 2.439952 1_555
Ni18 Ni77 2.468408 1_555
Ni18 Ni30 2.639137 1_554
Ni18 Ni66 2.730087 1_554
Ni18 Tb6 2.964643 1_555
Ni18 Tb0 3.064921 1_555
Ni19 Ni73 2.387625 1_555
Ni19 Ni30 2.439952 1_555
Ni19 Ni77 2.468408 1_556
Ni19 Ni31 2.639137 1_556
Ni19 Ni67 2.730087 1_556
Ni19 Tb7 2.964643 1_555
Ni19 Tb1 3.064921 1_555
Ni20 Ni86 2.395971 1_555
Ni20 Ni33 2.403169 1_555
Ni20 Ni32 2.531813 1_555
Ni20 Tb4 2.989524 1_555
Ni20 Tb0 3.041222 1_555
Ni21 Ni86 2.395971 1_555
Ni21 Ni32 2.403169 1_555
Ni21 Ni33 2.531813 1_555
Ni21 Tb5 2.989524 1_555
Ni21 Tb1 3.041222 1_555
Ni22 Ni87 2.395971 1_556
Ni22 Ni35 2.403169 1_555
Ni22 Ni34 2.531813 1_556
Ni22 Tb6 2.989524 1_456
Ni22 Tb2 3.041222 1_555
Ni23 Ni87 2.395971 1_555
Ni23 Ni34 2.403169 1_555
Ni23 Ni35 2.531813 1_554
Ni23 Tb7 2.989524 1_544
Ni23 Tb3 3.041222 1_555
Ni24 Ni86 2.395971 1_555
Ni24 Ni29 2.403169 1_555
Ni24 Ni28 2.531813 1_555
Ni24 Tb5 2.989524 1_555
Ni24 Tb2 3.041222 1_555
Ni25 Ni86 2.395971 1_555
Ni25 Ni28 2.403169 1_555
Ni25 Ni29 2.531813 1_555
Ni25 Tb4 2.989524 1_555
Ni25 Tb3 3.041222 1_555
Ni26 Ni87 2.395971 1_665
Ni26 Ni31 2.403169 1_555
Ni26 Ni30 2.531813 1_554
Ni26 Tb7 2.989524 1_654
Ni26 Tb0 3.041222 1_555
Ni27 Ni87 2.395971 1_666
Ni27 Ni30 2.403169 1_555
Ni27 Ni31 2.531813 1_556
Ni27 Tb6 2.989524 1_566
Ni27 Tb1 3.041222 1_555
Ni28 Ni52 2.282239 1_555
Ni28 Ni76 2.316620 1_555
Ni28 Ni84 2.372192 1_555
Ni28 Ni29 2.378107 1_555
Ni28 Ni46 2.446257 1_555
Ni28 Ni68 2.528679 1_455
Ni28 Ni64 2.574403 1_455
Ni28 Tb3 3.097171 1_555
Ni29 Ni53 2.282239 1_555
Ni29 Ni76 2.316620 1_555
Ni29 Ni85 2.372192 1_555
Ni29 Ni47 2.446257 1_555
Ni29 Ni69 2.528679 1_545
Ni29 Ni65 2.574403 1_545
Ni29 Tb2 3.097171 1_555
Ni30 Ni54 2.282239 1_555
Ni30 Ni77 2.316620 1_556
Ni30 Ni82 2.372192 1_555
Ni30 Ni31 2.378107 1_556
Ni30 Ni44 2.446257 1_555
Ni30 Ni70 2.528679 1_555
Ni30 Ni66 2.574403 1_555
Ni30 Tb1 3.097171 1_555
Ni31 Ni55 2.282239 1_555
Ni31 Ni77 2.316620 1_555
Ni31 Ni83 2.372192 1_555
Ni31 Ni45 2.446257 1_555
Ni31 Ni71 2.528679 1_555
Ni31 Ni67 2.574403 1_555
Ni31 Tb0 3.097171 1_555
Ni32 Ni56 2.282239 1_555
Ni32 Ni76 2.316620 1_665
Ni32 Ni80 2.372192 1_555
Ni32 Ni33 2.378107 1_555
Ni32 Ni50 2.446257 1_555
Ni32 Ni69 2.528679 1_655
Ni32 Ni65 2.574403 1_655
Ni32 Tb1 3.097171 1_555
Ni33 Ni57 2.282239 1_555
Ni33 Ni76 2.316620 1_665
Ni33 Ni81 2.372192 1_555
Ni33 Ni51 2.446257 1_555
Ni33 Ni68 2.528679 1_565
Ni33 Ni64 2.574403 1_565
Ni33 Tb0 3.097171 1_555
Ni34 Ni58 2.282239 1_555
Ni34 Ni77 2.316620 1_555
Ni34 Ni78 2.372192 1_555
Ni34 Ni35 2.378107 1_554
Ni34 Ni48 2.446257 1_555
Ni34 Ni71 2.528679 1_555
Ni34 Ni67 2.574403 1_555
Ni34 Tb3 3.097171 1_555
Ni35 Ni59 2.282239 1_555
Ni35 Ni77 2.316620 1_556
Ni35 Ni79 2.372192 1_555
Ni35 Ni49 2.446257 1_555
Ni35 Ni70 2.528679 1_555
Ni35 Ni66 2.574403 1_555
Ni35 Tb2 3.097171 1_555
Ni36 Ni72 2.422450 1_555
Ni36 Ni52 2.627754 1_655
Ni36 Ni64 2.662292 1_555
Ni36 Tb4 2.949665 1_555
Ni36 Tb0 3.050458 1_555
Ni37 Ni73 2.422450 1_555
Ni37 Ni53 2.627754 1_565
Ni37 Ni65 2.662292 1_555
Ni37 Tb5 2.949665 1_555
Ni37 Tb1 3.050458 1_555
Ni38 Ni74 2.422450 1_555
Ni38 Ni54 2.627754 1_555
Ni38 Ni66 2.662292 1_555
Ni38 Tb6 2.949665 1_556
Ni38 Tb2 3.050458 1_655
Ni39 Ni75 2.422450 1_555
Ni39 Ni55 2.627754 1_555
Ni39 Ni67 2.662292 1_555
Ni39 Tb7 2.949665 1_554
Ni39 Tb3 3.050458 1_565
Ni40 Ni73 2.422450 1_555
Ni40 Ni56 2.627754 1_455
Ni40 Ni65 2.662292 1_555
Ni40 Tb5 2.949665 1_555
Ni40 Tb2 3.050458 1_555
Ni41 Ni72 2.422450 1_555
Ni41 Ni57 2.627754 1_545
Ni41 Ni64 2.662292 1_555
Ni41 Tb4 2.949665 1_555
Ni41 Tb3 3.050458 1_555
Ni42 Ni75 2.422450 1_555
Ni42 Ni58 2.627754 1_555
Ni42 Ni67 2.662292 1_555
Ni42 Tb7 2.949665 1_554
Ni42 Tb0 3.050458 1_455
Ni43 Ni74 2.422450 1_555
Ni43 Ni59 2.627754 1_555
Ni43 Ni66 2.662292 1_555
Ni43 Tb6 2.949665 1_556
Ni43 Tb1 3.050458 1_545
Ni44 Ni56 2.600609 1_555
Ni44 Ni54 2.611888 1_555
Ni44 Ni87 2.633435 1_666
Ni44 Tb7 2.845924 1_655
Ni44 Tb1 3.065639 1_555
Ni45 Ni57 2.600609 1_555
Ni45 Ni55 2.611888 1_555
Ni45 Ni87 2.633435 1_665
Ni45 Tb6 2.845924 1_565
Ni45 Tb0 3.065639 1_555
Ni46 Ni58 2.600609 1_555
Ni46 Ni52 2.611888 1_555
Ni46 Ni86 2.633435 1_555
Ni46 Tb5 2.845924 1_555
Ni46 Tb3 3.065639 1_555
Ni47 Ni59 2.600609 1_555
Ni47 Ni53 2.611888 1_555
Ni47 Ni86 2.633435 1_555
Ni47 Tb4 2.845924 1_555
Ni47 Tb2 3.065639 1_555
Ni48 Ni52 2.600609 1_555
Ni48 Ni58 2.611888 1_555
Ni48 Ni87 2.633435 1_555
Ni48 Tb6 2.845924 1_455
Ni48 Tb3 3.065639 1_555
Ni49 Ni53 2.600609 1_555
Ni49 Ni59 2.611888 1_555
Ni49 Ni87 2.633435 1_556
Ni49 Tb7 2.845924 1_545
Ni49 Tb2 3.065639 1_555
Ni50 Ni54 2.600609 1_555
Ni50 Ni56 2.611888 1_555
Ni50 Ni86 2.633435 1_555
Ni50 Tb4 2.845924 1_555
Ni50 Tb1 3.065639 1_555
Ni51 Ni55 2.600609 1_555
Ni51 Ni57 2.611888 1_555
Ni51 Ni86 2.633435 1_555
Ni51 Tb5 2.845924 1_555
Ni51 Tb0 3.065639 1_555
Ni52 Ni58 2.299557 1_555
Ni52 Ni60 2.306333 1_455
Ni52 Ni84 2.500221 1_555
Ni52 Ni64 2.561528 1_455
Ni52 Ni6 2.571147 1_555
Ni52 Ni68 2.664493 1_455
Ni52 Tb3 3.036909 1_555
Ni53 Ni59 2.299557 1_555
Ni53 Ni61 2.306333 1_545
Ni53 Ni85 2.500221 1_555
Ni53 Ni65 2.561528 1_545
Ni53 Ni7 2.571147 1_555
Ni53 Ni69 2.664493 1_545
Ni53 Tb2 3.036909 1_555
Ni54 Ni56 2.299557 1_555
Ni54 Ni62 2.306333 1_555
Ni54 Ni82 2.500221 1_555
Ni54 Ni66 2.561528 1_555
Ni54 Ni70 2.664493 1_555
Ni54 Tb1 3.036909 1_555
Ni55 Ni57 2.299557 1_555
Ni55 Ni63 2.306333 1_555
Ni55 Ni83 2.500221 1_555
Ni55 Ni67 2.561528 1_555
Ni55 Ni71 2.664493 1_555
Ni55 Tb0 3.036909 1_555
Ni56 Ni61 2.306333 1_655
Ni56 Ni80 2.500221 1_555
Ni56 Ni65 2.561528 1_655
Ni56 Ni69 2.664493 1_655
Ni56 Tb1 3.036909 1_555
Ni57 Ni60 2.306333 1_565
Ni57 Ni81 2.500221 1_555
Ni57 Ni64 2.561528 1_565
Ni57 Ni68 2.664493 1_565
Ni57 Tb0 3.036909 1_555
Ni58 Ni63 2.306333 1_555
Ni58 Ni78 2.500221 1_555
Ni58 Ni67 2.561528 1_555
Ni58 Ni6 2.561707 1_555
Ni58 Ni71 2.664493 1_555
Ni58 Tb3 3.036909 1_555
Ni59 Ni62 2.306333 1_555
Ni59 Ni79 2.500221 1_555
Ni59 Ni66 2.561528 1_555
Ni59 Ni7 2.561707 1_555
Ni59 Ni70 2.664493 1_555
Ni59 Tb2 3.036909 1_555
Ni60 Ni72 2.425818 1_555
Ni60 Ni64 2.684189 1_555
Ni60 Tb6 3.013285 1_555
Ni61 Ni73 2.425818 1_555
Ni61 Ni65 2.684189 1_555
Ni61 Tb7 3.013285 1_555
Ni62 Ni74 2.425818 1_555
Ni62 Ni66 2.684189 1_555
Ni62 Tb4 3.013285 1_555
Ni63 Ni75 2.425818 1_555
Ni63 Ni67 2.684189 1_555
Ni63 Tb5 3.013285 1_555
Ni64 Ni68 2.482811 1_555
Ni64 Ni76 2.496997 1_655
Ni64 Ni81 2.640025 1_545
Ni64 Ni84 2.640025 1_655
Ni64 Tb4 2.777661 1_555
Ni65 Ni69 2.482811 1_555
Ni65 Ni76 2.496997 1_565
Ni65 Ni80 2.640025 1_455
Ni65 Ni85 2.640025 1_565
Ni65 Tb5 2.777661 1_555
Ni66 Ni70 2.482811 1_555
Ni66 Ni77 2.496997 1_556
Ni66 Ni82 2.640025 1_555
Ni66 Ni79 2.640025 1_555
Ni66 Tb6 2.777661 1_556
Ni67 Ni71 2.482811 1_555
Ni67 Ni77 2.496997 1_555
Ni67 Ni83 2.640025 1_555
Ni67 Ni78 2.640025 1_555
Ni67 Tb7 2.777661 1_554
Ni68 Ni75 2.458161 1_645
Ni68 Ni76 2.543077 1_655
Ni68 Tb3 3.186502 1_655
Ni68 Tb0 3.186502 1_545
Ni69 Ni74 2.458161 1_465
Ni69 Ni76 2.543077 1_565
Ni69 Tb2 3.186502 1_565
Ni69 Tb1 3.186502 1_455
Ni70 Ni73 2.458161 1_555
Ni70 Ni77 2.543077 1_556
Ni70 Tb2 3.186502 1_555
Ni70 Tb1 3.186502 1_555
Ni71 Ni72 2.458161 1_555
Ni71 Ni77 2.543077 1_555
Ni71 Tb3 3.186502 1_555
Ni71 Tb0 3.186502 1_555
Ni72 Ni8 2.393452 1_555
Ni72 Tb0 3.195830 1_555
Ni72 Tb3 3.195830 1_555
Ni72 Tb6 3.347643 1_555
Ni73 Ni9 2.393452 1_555
Ni73 Tb2 3.195830 1_555
Ni73 Tb1 3.195830 1_555
Ni73 Tb7 3.347643 1_555
Ni74 Tb1 3.195830 1_545
Ni74 Tb2 3.195830 1_655
Ni74 Tb4 3.347643 1_555
Ni75 Tb3 3.195830 1_565
Ni75 Tb0 3.195830 1_455
Ni75 Tb5 3.347643 1_555
Ni78 Tb7 3.142577 1_554
Ni78 Tb6 3.170176 1_455
Ni79 Tb6 3.142577 1_556
Ni79 Tb7 3.170176 1_545
Ni80 Tb5 3.142577 1_655
Ni80 Tb4 3.170176 1_555
Ni81 Tb4 3.142577 1_565
Ni81 Tb5 3.170176 1_555
Ni82 Tb6 3.142577 1_556
Ni82 Tb7 3.170176 1_655
Ni83 Tb7 3.142577 1_554
Ni83 Tb6 3.170176 1_565
Ni84 Tb4 3.142577 1_455
Ni84 Tb5 3.170176 1_555
Ni85 Tb5 3.142577 1_545
Ni85 Tb4 3.170176 1_555
Ni86 Ni9 2.474432 1_555
Ni86 Tb4 3.120529 1_555
Ni86 Tb5 3.120529 1_555
Ni87 Tb7 3.120529 1_544
Ni87 Tb6 3.120529 1_455
C0 Ni68 1.835672 1_555
C0 Ni48 1.884310 1_655
C0 Ni45 1.884310 1_545
C0 Ni11 1.891379 1_645
C0 Ni60 1.909161 1_555
C0 Ni57 2.517583 1_545
C0 Ni52 2.517583 1_655
C1 Ni69 1.835672 1_555
C1 Ni49 1.884310 1_565
C1 Ni44 1.884310 1_455
C1 Ni10 1.891379 1_465
C1 Ni61 1.909161 1_555
C1 Ni56 2.517583 1_455
C1 Ni53 2.517583 1_565
C2 Ni70 1.835672 1_555
C2 Ni47 1.884310 1_555
C2 Ni50 1.884310 1_555
C2 Ni9 1.891379 1_555
C2 Ni62 1.909161 1_555
C2 Ni59 2.517583 1_555
C2 Ni54 2.517583 1_555
C3 Ni71 1.835672 1_555
C3 Ni46 1.884310 1_555
C3 Ni51 1.884310 1_555
C3 Ni8 1.891379 1_555
C3 Ni63 1.909161 1_555
C3 Ni58 2.517583 1_555
C3 Ni55 2.517583 1_555
C4 Ni20 1.889795 1_555
C4 Ni36 1.902890 1_555
C4 Ni6 1.903827 1_655
C4 Ni12 1.907660 1_655
C4 Ni84 1.939512 1_655
C4 Ni80 1.960308 1_555
C4 Tb0 3.037436 1_555
C5 Ni21 1.889795 1_555
C5 Ni37 1.902890 1_555
C5 Ni7 1.903827 1_565
C5 Ni13 1.907660 1_565
C5 Ni85 1.939512 1_565
C5 Ni81 1.960308 1_555
C5 Tb1 3.037436 1_555
C6 Ni22 1.889795 1_555
C6 Ni38 1.902890 1_455
C6 Ni4 1.903827 1_555
C6 Ni14 1.907660 1_555
C6 Ni82 1.939512 1_455
C6 Ni78 1.960308 1_556
C6 Tb2 3.037436 1_555
C7 Ni23 1.889795 1_555
C7 Ni39 1.902890 1_545
C7 Ni5 1.903827 1_555
C7 Ni15 1.907660 1_555
C7 Ni83 1.939512 1_545
C7 Ni79 1.960308 1_554
C7 Tb3 3.037436 1_555
C8 Ni24 1.889795 1_555
C8 Ni40 1.902890 1_555
C8 Ni2 1.903827 1_455
C8 Ni16 1.907660 1_455
C8 Ni80 1.939512 1_455
C8 Ni84 1.960308 1_555
C8 Tb2 3.037436 1_555
C9 Ni25 1.889795 1_555
C9 Ni41 1.902890 1_555
C9 Ni3 1.903827 1_545
C9 Ni17 1.907660 1_545
C9 Ni81 1.939512 1_545
C9 Ni85 1.960308 1_555
C9 Tb3 3.037436 1_555
C10 Ni26 1.889795 1_555
C10 Ni42 1.902890 1_655
C10 Ni0 1.903827 1_555
C10 Ni18 1.907660 1_555
C10 Ni78 1.939512 1_655
C10 Ni82 1.960308 1_554
C10 Tb0 3.037436 1_555
C11 Ni27 1.889795 1_555
C11 Ni43 1.902890 1_565
C11 Ni1 1.903827 1_555
C11 Ni19 1.907660 1_555
C11 Ni79 1.939512 1_565
C11 Ni83 1.960308 1_556
C11 Tb1 3.037436 1_555
