# generated using pymatgen
data_Cs3NpH8O9
_symmetry_space_group_name_H-M   'P 1'
_cell_length_a   8.30667609
_cell_length_b   8.76680261
_cell_length_c   8.76680261
_cell_angle_alpha   84.28987938
_cell_angle_beta   86.46780671
_cell_angle_gamma   86.46780671
_symmetry_Int_Tables_number   1
_chemical_formula_structural   Cs3NpH8O9
_chemical_formula_sum   'Cs6 Np2 H16 O18'
_cell_volume   633.06006583
_cell_formula_units_Z   2
loop_
 _symmetry_equiv_pos_site_id
 _symmetry_equiv_pos_as_xyz
  1  'x, y, z'
loop_
 _atom_site_type_symbol
 _atom_site_label
 _atom_site_symmetry_multiplicity
 _atom_site_fract_x
 _atom_site_fract_y
 _atom_site_fract_z
 _atom_site_occupancy
  Cs  Cs0  1  0.55042000  0.61115500  0.78536300  1
  Cs  Cs1  1  0.94958000  0.21463700  0.38884500  1
  Cs  Cs2  1  0.44958000  0.38884500  0.21463700  1
  Cs  Cs3  1  0.05042000  0.78536300  0.61115500  1
  Cs  Cs4  1  0.25000000  0.93064000  0.06936000  1
  Cs  Cs5  1  0.75000000  0.06936000  0.93064000  1
  Np  Np0  1  0.00000000  0.50000000  0.00000000  1
  Np  Np1  1  0.50000000  0.00000000  0.50000000  1
  H  H0  1  0.91981100  0.44184700  0.68961600  1
  H  H1  1  0.58018900  0.31038400  0.55815300  1
  H  H2  1  0.08018900  0.55815300  0.31038400  1
  H  H3  1  0.41981100  0.68961600  0.44184700  1
  H  H4  1  0.18912600  0.08259700  0.71346900  1
  H  H5  1  0.31087400  0.28653100  0.91740300  1
  H  H6  1  0.81087400  0.91740300  0.28653100  1
  H  H7  1  0.68912600  0.71346900  0.08259700  1
  H  H8  1  0.06298500  0.22411800  0.74780800  1
  H  H9  1  0.43701500  0.25219200  0.77588200  1
  H  H10  1  0.93701500  0.77588200  0.25219200  1
  H  H11  1  0.56298500  0.74780800  0.22411800  1
  H  H12  1  0.16364700  0.45092400  0.61058300  1
  H  H13  1  0.33635400  0.38941700  0.54907600  1
  H  H14  1  0.83635300  0.54907600  0.38941700  1
  H  H15  1  0.66364700  0.61058300  0.45092400  1
  O  O0  1  0.88142100  0.68513700  0.92735000  1
  O  O1  1  0.61857900  0.07265000  0.31486300  1
  O  O2  1  0.11857900  0.31486300  0.07265000  1
  O  O3  1  0.38142100  0.92735000  0.68513700  1
  O  O4  1  0.19879200  0.59564200  0.95550600  1
  O  O5  1  0.30120800  0.04449400  0.40435800  1
  O  O6  1  0.80120800  0.40435800  0.04449400  1
  O  O7  1  0.69879200  0.95550600  0.59564200  1
  O  O8  1  0.01764800  0.41379100  0.74452000  1
  O  O9  1  0.48235200  0.25548000  0.58620900  1
  O  O10  1  0.98235200  0.58620900  0.25548000  1
  O  O11  1  0.51764800  0.74452000  0.41379100  1
  O  O12  1  0.07674300  0.10905800  0.74644600  1
  O  O13  1  0.42325700  0.25355400  0.89094200  1
  O  O14  1  0.92325700  0.89094200  0.25355400  1
  O  O15  1  0.57674300  0.74644600  0.10905800  1
  O  O16  1  0.25000000  0.47350300  0.52649700  1
  O  O17  1  0.75000000  0.52649700  0.47350300  1
loop_
_geom_bond_atom_site_label_1
_geom_bond_atom_site_label_2
_geom_bond_distance
_geom_bond_site_symmetry_2
Cs0 O3 3.100752 1_555
Cs0 O4 3.201025 1_555
Cs1 O2 3.100752 1_655
Cs1 O5 3.201025 1_655
Cs2 O1 3.100752 1_555
Cs2 O6 3.201025 1_555
Cs3 O0 3.100752 1_455
Cs3 O7 3.201025 1_455
Cs4 O14 3.091892 1_455
Cs4 O15 3.091892 1_555
Cs4 O5 3.254525 1_565
Cs4 O4 3.254525 1_554
Cs4 H11 3.264595 1_555
Cs4 H10 3.264595 1_455
Cs4 H4 3.324042 1_564
Cs4 H5 3.324042 1_564
Cs4 O13 3.446083 1_564
Cs4 O12 3.446083 1_564
Cs4 O3 3.478664 1_554
Cs4 O2 3.478664 1_565
Cs5 O12 3.091892 1_655
Cs5 O13 3.091892 1_555
Cs5 O6 3.254525 1_556
Cs5 O7 3.254525 1_545
Cs5 H9 3.264595 1_555
Cs5 H8 3.264595 1_655
Cs5 H7 3.324042 1_546
Cs5 H6 3.324042 1_546
Cs5 O14 3.446083 1_546
Cs5 O15 3.446083 1_546
Cs5 O1 3.478664 1_556
Cs5 O0 3.478664 1_545
Np0 O4 1.899511 1_554
Np0 O6 1.899511 1_455
Np0 O2 1.919583 1_555
Np0 O0 1.919583 1_454
Np0 O10 2.427317 1_455
Np0 O8 2.427317 1_554
Np1 O7 1.899511 1_545
Np1 O5 1.899511 1_555
Np1 O3 1.919583 1_545
Np1 O1 1.919583 1_555
Np1 O9 2.427317 1_555
Np1 O11 2.427317 1_545
H0 O8 0.976049 1_655
H1 O9 0.976049 1_555
H2 O10 0.976049 1_455
H3 O11 0.976049 1_555
H4 O12 0.980957 1_555
H5 O13 0.980957 1_555
H6 O14 0.980957 1_555
H7 O15 0.980957 1_555
H8 O12 1.009317 1_555
H9 O13 1.009317 1_555
H10 O14 1.009317 1_555
H11 O15 1.009317 1_555
H12 O16 1.010162 1_555
H13 O16 1.010168 1_555
H14 O17 1.010162 1_555
H15 O17 1.010162 1_555
