# generated using pymatgen
data_Ca(BC)2
_symmetry_space_group_name_H-M   'P 1'
_cell_length_a   3.78964300
_cell_length_b   3.78964300
_cell_length_c   7.61866100
_cell_angle_alpha   90.00000000
_cell_angle_beta   90.00000000
_cell_angle_gamma   90.00000000
_symmetry_Int_Tables_number   1
_chemical_formula_structural   Ca(BC)2
_chemical_formula_sum   'Ca2 B4 C4'
_cell_volume   109.41459289
_cell_formula_units_Z   2
loop_
 _symmetry_equiv_pos_site_id
 _symmetry_equiv_pos_as_xyz
  1  'x, y, z'
loop_
 _atom_site_type_symbol
 _atom_site_label
 _atom_site_symmetry_multiplicity
 _atom_site_fract_x
 _atom_site_fract_y
 _atom_site_fract_z
 _atom_site_occupancy
  Ca  Ca0  1  0.00000000  0.00000000  0.75000000  1
  Ca  Ca1  1  0.00000000  0.00000000  0.25000000  1
  B  B0  1  0.50000000  0.77977400  0.50000000  1
  B  B1  1  0.22022600  0.50000000  0.00000000  1
  B  B2  1  0.50000000  0.22022600  0.50000000  1
  B  B3  1  0.77977400  0.50000000  0.00000000  1
  C  C0  1  0.50000000  0.81605800  0.00000000  1
  C  C1  1  0.81605800  0.50000000  0.50000000  1
  C  C2  1  0.18394200  0.50000000  0.50000000  1
  C  C3  1  0.50000000  0.18394200  0.00000000  1
loop_
_geom_bond_atom_site_label_1
_geom_bond_atom_site_label_2
_geom_bond_distance
_geom_bond_site_symmetry_2
B0 C2 1.599598 1_555
B0 C1 1.599598 1_555
B0 Ca1 2.813293 1_565
B0 Ca0 2.813293 1_665
B0 Ca0 2.813293 1_565
B0 Ca1 2.813293 1_665
B1 C0 1.599598 1_555
B1 C3 1.599598 1_555
B1 Ca1 2.813293 1_555
B1 Ca0 2.813293 1_564
B1 Ca0 2.813293 1_554
B1 Ca1 2.813293 1_565
B2 C1 1.599598 1_555
B2 C2 1.599598 1_555
B2 Ca1 2.813293 1_555
B2 Ca1 2.813293 1_655
B2 Ca0 2.813293 1_555
B2 Ca0 2.813293 1_655
B3 C0 1.599598 1_555
B3 C3 1.599598 1_555
B3 Ca0 2.813293 1_664
B3 Ca1 2.813293 1_655
B3 Ca1 2.813293 1_665
B3 Ca0 2.813293 1_654
C0 C3 1.394149 1_565
C0 Ca1 2.775610 1_565
C0 Ca0 2.775610 1_564
C0 Ca0 2.775610 1_664
C0 Ca1 2.775610 1_665
C1 C2 1.394149 1_655
C1 Ca1 2.775610 1_655
C1 Ca1 2.775610 1_665
C1 Ca0 2.775610 1_655
C1 Ca0 2.775610 1_665
C2 Ca0 2.775610 1_555
C2 Ca1 2.775610 1_555
C2 Ca1 2.775610 1_565
C2 Ca0 2.775610 1_565
C3 Ca0 2.775610 1_654
C3 Ca1 2.775610 1_555
C3 Ca0 2.775610 1_554
C3 Ca1 2.775610 1_655
