# generated using pymatgen
data_Eu(Ga4Rh)2
_symmetry_space_group_name_H-M   'P 1'
_cell_length_a   4.16743600
_cell_length_b   12.73888900
_cell_length_c   14.71329200
_cell_angle_alpha   90.00000000
_cell_angle_beta   90.00000000
_cell_angle_gamma   90.00000000
_symmetry_Int_Tables_number   1
_chemical_formula_structural   Eu(Ga4Rh)2
_chemical_formula_sum   'Eu4 Ga32 Rh8'
_cell_volume   781.10667030
_cell_formula_units_Z   4
loop_
 _symmetry_equiv_pos_site_id
 _symmetry_equiv_pos_as_xyz
  1  'x, y, z'
loop_
 _atom_site_type_symbol
 _atom_site_label
 _atom_site_symmetry_multiplicity
 _atom_site_fract_x
 _atom_site_fract_y
 _atom_site_fract_z
 _atom_site_occupancy
  Eu  Eu0  1  0.50000000  0.15774600  0.31883400  1
  Eu  Eu1  1  0.50000000  0.84225400  0.68116600  1
  Eu  Eu2  1  0.50000000  0.65774600  0.18116600  1
  Eu  Eu3  1  0.50000000  0.34225400  0.81883400  1
  Ga  Ga0  1  0.00000000  0.50000000  0.50000000  1
  Ga  Ga1  1  0.00000000  0.00000000  0.00000000  1
  Ga  Ga2  1  0.50000000  0.50000000  0.00000000  1
  Ga  Ga3  1  0.50000000  0.00000000  0.50000000  1
  Ga  Ga4  1  0.50000000  0.65958500  0.45704600  1
  Ga  Ga5  1  0.50000000  0.34041500  0.54295400  1
  Ga  Ga6  1  0.50000000  0.15958500  0.04295400  1
  Ga  Ga7  1  0.50000000  0.84041500  0.95704600  1
  Ga  Ga8  1  0.50000000  0.40135900  0.25132700  1
  Ga  Ga9  1  0.50000000  0.59864100  0.74867300  1
  Ga  Ga10  1  0.50000000  0.90135900  0.24867300  1
  Ga  Ga11  1  0.50000000  0.09864100  0.75132700  1
  Ga  Ga12  1  0.00000000  0.55011200  0.31535900  1
  Ga  Ga13  1  0.00000000  0.44988800  0.68464100  1
  Ga  Ga14  1  0.00000000  0.05011200  0.18464100  1
  Ga  Ga15  1  0.00000000  0.94988800  0.81535900  1
  Ga  Ga16  1  0.00000000  0.33433500  0.37676000  1
  Ga  Ga17  1  0.00000000  0.66566500  0.62323900  1
  Ga  Ga18  1  0.00000000  0.83433500  0.12324000  1
  Ga  Ga19  1  0.00000000  0.16566500  0.87676100  1
  Ga  Ga20  1  0.00000000  0.16965900  0.48689700  1
  Ga  Ga21  1  0.00000000  0.83034100  0.51310300  1
  Ga  Ga22  1  0.00000000  0.66965900  0.01310300  1
  Ga  Ga23  1  0.00000000  0.33034100  0.98689700  1
  Ga  Ga24  1  0.00000000  0.75900100  0.32380800  1
  Ga  Ga25  1  0.00000000  0.24099900  0.67619200  1
  Ga  Ga26  1  0.00000000  0.25900100  0.17619200  1
  Ga  Ga27  1  0.00000000  0.74099900  0.82380800  1
  Ga  Ga28  1  0.00000000  0.97860400  0.36727300  1
  Ga  Ga29  1  0.00000000  0.02139600  0.63272700  1
  Ga  Ga30  1  0.00000000  0.47860400  0.13272700  1
  Ga  Ga31  1  0.00000000  0.52139600  0.86727300  1
  Rh  Rh0  1  0.50000000  0.84458200  0.40523800  1
  Rh  Rh1  1  0.50000000  0.15541800  0.59476200  1
  Rh  Rh2  1  0.50000000  0.34458200  0.09476200  1
  Rh  Rh3  1  0.50000000  0.65541800  0.90523800  1
  Rh  Rh4  1  0.50000000  0.46464300  0.40352700  1
  Rh  Rh5  1  0.50000000  0.53535700  0.59647300  1
  Rh  Rh6  1  0.50000000  0.96464300  0.09647300  1
  Rh  Rh7  1  0.50000000  0.03535700  0.90352700  1
loop_
_geom_bond_atom_site_label_1
_geom_bond_atom_site_label_2
_geom_bond_distance
_geom_bond_site_symmetry_2
Eu0 Ga28 3.171382 1_545
Eu0 Ga28 3.171382 1_645
Eu0 Ga14 3.181232 1_555
Eu0 Ga14 3.181232 1_655
Eu0 Ga16 3.182567 1_555
Eu0 Ga16 3.182567 1_655
Eu0 Ga26 3.226506 1_655
Eu0 Ga26 3.226506 1_555
Eu0 Ga20 3.237198 1_555
Eu0 Ga20 3.237198 1_655
Eu0 Ga8 3.258433 1_555
Eu0 Ga3 3.338154 1_555
Eu0 Ga10 3.425340 1_545
Eu1 Ga29 3.171382 1_565
Eu1 Ga29 3.171382 1_665
Eu1 Ga15 3.181232 1_655
Eu1 Ga15 3.181232 1_555
Eu1 Ga17 3.182571 1_555
Eu1 Ga17 3.182571 1_655
Eu1 Ga27 3.226506 1_655
Eu1 Ga27 3.226506 1_555
Eu1 Ga21 3.237198 1_655
Eu1 Ga21 3.237198 1_555
Eu1 Ga9 3.258433 1_555
Eu1 Ga3 3.338154 1_565
Eu1 Ga11 3.425340 1_565
Eu2 Ga30 3.171382 1_655
Eu2 Ga30 3.171382 1_555
Eu2 Ga12 3.181232 1_655
Eu2 Ga12 3.181232 1_555
Eu2 Ga18 3.182567 1_555
Eu2 Ga18 3.182567 1_655
Eu2 Ga24 3.226506 1_655
Eu2 Ga24 3.226506 1_555
Eu2 Ga22 3.237198 1_655
Eu2 Ga22 3.237198 1_555
Eu2 Ga10 3.258433 1_555
Eu2 Ga2 3.338154 1_555
Eu2 Ga8 3.425340 1_555
Eu3 Ga31 3.171382 1_555
Eu3 Ga31 3.171382 1_655
Eu3 Ga13 3.181232 1_555
Eu3 Ga13 3.181232 1_655
Eu3 Ga19 3.182571 1_555
Eu3 Ga19 3.182571 1_655
Eu3 Ga25 3.226506 1_555
Eu3 Ga25 3.226506 1_655
Eu3 Ga23 3.237198 1_655
Eu3 Ga23 3.237198 1_555
Eu3 Ga11 3.258433 1_555
Eu3 Ga2 3.338154 1_556
Eu3 Ga9 3.425340 1_555
Ga0 Rh5 2.561161 1_555
Ga0 Rh5 2.561161 1_455
Ga0 Rh4 2.561161 1_455
Ga0 Rh4 2.561161 1_555
Ga0 Ga17 2.782376 1_555
Ga0 Ga16 2.782386 1_555
Ga0 Ga13 2.790672 1_555
Ga0 Ga12 2.790672 1_555
Ga0 Ga4 2.978947 1_455
Ga0 Ga4 2.978947 1_555
Ga0 Ga5 2.978947 1_455
Ga0 Ga5 2.978947 1_555
Ga1 Rh6 2.561161 1_545
Ga1 Rh6 2.561161 1_445
Ga1 Rh7 2.561161 1_454
Ga1 Rh7 2.561161 1_554
Ga1 Ga19 2.782376 1_554
Ga1 Ga18 2.782386 1_545
Ga1 Ga14 2.790672 1_555
Ga1 Ga15 2.790672 1_544
Ga1 Ga6 2.978947 1_555
Ga1 Ga6 2.978947 1_455
Ga1 Ga7 2.978947 1_444
Ga1 Ga7 2.978947 1_544
Ga2 Rh3 2.421524 1_554
Ga2 Rh2 2.421524 1_555
Ga2 Ga30 2.868762 1_655
Ga2 Ga30 2.868762 1_555
Ga2 Ga31 2.868762 1_554
Ga2 Ga31 2.868762 1_654
Ga2 Ga22 3.008342 1_555
Ga2 Ga22 3.008342 1_655
Ga2 Ga23 3.008342 1_554
Ga2 Ga23 3.008342 1_654
Ga3 Rh1 2.421524 1_555
Ga3 Rh0 2.421524 1_545
Ga4 Rh0 2.476869 1_555
Ga4 Rh5 2.590899 1_555
Ga4 Rh4 2.605199 1_555
Ga5 Rh1 2.476869 1_555
Ga5 Rh4 2.590899 1_555
Ga5 Rh5 2.605199 1_555
Ga6 Rh2 2.476869 1_555
Ga6 Rh7 2.590899 1_554
Ga6 Rh6 2.605199 1_545
Ga7 Rh3 2.476869 1_555
Ga7 Rh6 2.590899 1_556
Ga7 Rh7 2.605199 1_565
Ga8 Rh4 2.380053 1_555
Ga8 Rh2 2.414465 1_555
Ga9 Rh5 2.380053 1_555
Ga9 Rh3 2.414465 1_555
Ga10 Rh6 2.380053 1_555
Ga10 Rh0 2.414465 1_555
Ga10 Ga28 2.890533 1_655
Ga10 Ga28 2.890533 1_555
Ga10 Ga18 2.911505 1_555
Ga10 Ga18 2.911505 1_655
Ga10 Ga14 2.969899 1_565
Ga10 Ga14 2.969899 1_665
Ga10 Ga24 2.975348 1_555
Ga10 Ga24 2.975348 1_655
Ga11 Rh7 2.380053 1_555
Ga11 Rh1 2.414465 1_555
Ga11 Ga29 2.890533 1_655
Ga11 Ga29 2.890533 1_555
Ga11 Ga19 2.911515 1_655
Ga11 Ga19 2.911515 1_555
Ga11 Ga15 2.969899 1_645
Ga11 Ga15 2.969899 1_545
Ga11 Ga25 2.975348 1_555
Ga11 Ga25 2.975348 1_655
Ga12 Ga24 2.663916 1_555
Ga12 Rh4 2.685174 1_455
Ga12 Rh4 2.685174 1_555
Ga12 Ga30 2.837323 1_555
Ga12 Ga16 2.893411 1_555
Ga12 Ga8 2.969899 1_555
Ga12 Ga8 2.969899 1_455
Ga13 Ga25 2.663916 1_555
Ga13 Rh5 2.685174 1_455
Ga13 Rh5 2.685174 1_555
Ga13 Ga31 2.837323 1_555
Ga13 Ga17 2.893416 1_555
Ga13 Ga9 2.969899 1_555
Ga13 Ga9 2.969899 1_455
Ga14 Ga26 2.663916 1_555
Ga14 Rh6 2.685174 1_545
Ga14 Rh6 2.685174 1_445
Ga14 Ga28 2.837323 1_545
Ga14 Ga18 2.893411 1_545
Ga15 Ga27 2.663916 1_555
Ga15 Rh7 2.685174 1_565
Ga15 Rh7 2.685174 1_465
Ga15 Ga29 2.837323 1_565
Ga15 Ga19 2.893416 1_565
Ga16 Ga20 2.650786 1_555
Ga16 Rh4 2.693049 1_555
Ga16 Rh4 2.693049 1_455
Ga16 Ga8 2.911505 1_455
Ga16 Ga8 2.911505 1_555
Ga16 Ga26 3.103137 1_555
Ga17 Ga21 2.650777 1_555
Ga17 Rh5 2.693047 1_455
Ga17 Rh5 2.693047 1_555
Ga17 Ga9 2.911515 1_555
Ga17 Ga9 2.911515 1_455
Ga17 Ga27 3.103151 1_555
Ga18 Ga22 2.650786 1_555
Ga18 Rh6 2.693049 1_555
Ga18 Rh6 2.693049 1_455
Ga18 Ga24 3.103137 1_555
Ga19 Ga23 2.650777 1_555
Ga19 Rh7 2.693047 1_455
Ga19 Rh7 2.693047 1_555
Ga19 Ga25 3.103151 1_555
Ga20 Rh1 2.625551 1_555
Ga20 Rh1 2.625551 1_455
Ga20 Ga29 2.858492 1_555
Ga20 Ga25 2.929672 1_555
Ga20 Ga28 3.003555 1_545
Ga20 Ga3 3.008342 1_555
Ga20 Ga3 3.008342 1_455
Ga20 Ga5 3.123111 1_555
Ga20 Ga5 3.123111 1_455
Ga21 Rh0 2.625551 1_455
Ga21 Rh0 2.625551 1_555
Ga21 Ga28 2.858492 1_555
Ga21 Ga24 2.929672 1_555
Ga21 Ga29 3.003555 1_565
Ga21 Ga3 3.008342 1_465
Ga21 Ga3 3.008342 1_565
Ga21 Ga4 3.123111 1_455
Ga21 Ga4 3.123111 1_555
Ga22 Rh3 2.625551 1_454
Ga22 Rh3 2.625551 1_554
Ga22 Ga31 2.858492 1_554
Ga22 Ga27 2.929672 1_554
Ga22 Ga30 3.003555 1_555
Ga22 Ga7 3.123111 1_554
Ga22 Ga7 3.123111 1_454
Ga23 Rh2 2.625551 1_456
Ga23 Rh2 2.625551 1_556
Ga23 Ga30 2.858492 1_556
Ga23 Ga26 2.929672 1_556
Ga23 Ga31 3.003555 1_555
Ga23 Ga6 3.123111 1_456
Ga23 Ga6 3.123111 1_556
Ga24 Rh0 2.639296 1_455
Ga24 Rh0 2.639296 1_555
Ga24 Ga28 2.869664 1_555
Ga24 Ga4 3.128710 1_455
Ga24 Ga4 3.128710 1_555
Ga25 Rh1 2.639296 1_455
Ga25 Rh1 2.639296 1_555
Ga25 Ga29 2.869664 1_555
Ga25 Ga5 3.128710 1_455
Ga25 Ga5 3.128710 1_555
Ga26 Rh2 2.639296 1_455
Ga26 Rh2 2.639296 1_555
Ga26 Ga30 2.869664 1_555
Ga26 Ga8 2.975348 1_555
Ga26 Ga8 2.975348 1_455
Ga26 Ga6 3.128710 1_555
Ga26 Ga6 3.128710 1_455
Ga27 Rh3 2.639296 1_555
Ga27 Rh3 2.639296 1_455
Ga27 Ga31 2.869664 1_555
Ga27 Ga9 2.975348 1_555
Ga27 Ga9 2.975348 1_455
Ga27 Ga7 3.128710 1_455
Ga27 Ga7 3.128710 1_555
Ga28 Rh0 2.751136 1_555
Ga28 Rh0 2.751136 1_455
Ga28 Ga3 2.868762 1_565
Ga28 Ga3 2.868762 1_465
Ga29 Rh1 2.751136 1_455
Ga29 Rh1 2.751136 1_555
Ga29 Ga3 2.868762 1_455
Ga29 Ga3 2.868762 1_555
Ga30 Rh2 2.751136 1_555
Ga30 Rh2 2.751136 1_455
Ga30 Ga8 2.890533 1_555
Ga30 Ga8 2.890533 1_455
Ga31 Rh3 2.751136 1_555
Ga31 Rh3 2.751136 1_455
Ga31 Ga9 2.890533 1_555
Ga31 Ga9 2.890533 1_455
