# generated using pymatgen
data_Na5VO5
_symmetry_space_group_name_H-M   'P 1'
_cell_length_a   5.85936500
_cell_length_b   6.67406600
_cell_length_c   16.29542900
_cell_angle_alpha   90.00000000
_cell_angle_beta   90.00000000
_cell_angle_gamma   90.00000000
_symmetry_Int_Tables_number   1
_chemical_formula_structural   Na5VO5
_chemical_formula_sum   'Na20 V4 O20'
_cell_volume   637.24560371
_cell_formula_units_Z   4
loop_
 _symmetry_equiv_pos_site_id
 _symmetry_equiv_pos_as_xyz
  1  'x, y, z'
loop_
 _atom_site_type_symbol
 _atom_site_label
 _atom_site_symmetry_multiplicity
 _atom_site_fract_x
 _atom_site_fract_y
 _atom_site_fract_z
 _atom_site_occupancy
  Na  Na0  1  0.51126000  0.00000000  0.25000000  1
  Na  Na1  1  0.48874000  0.50000000  0.75000000  1
  Na  Na2  1  0.51126000  0.50000000  0.25000000  1
  Na  Na3  1  0.48874000  0.00000000  0.75000000  1
  Na  Na4  1  0.21001200  0.98606000  0.08276700  1
  Na  Na5  1  0.21001200  0.01394000  0.41723300  1
  Na  Na6  1  0.78998800  0.48606000  0.91723300  1
  Na  Na7  1  0.78998800  0.51394000  0.58276700  1
  Na  Na8  1  0.78998800  0.01394000  0.91723300  1
  Na  Na9  1  0.78998800  0.98606000  0.58276700  1
  Na  Na10  1  0.21001200  0.51394000  0.08276700  1
  Na  Na11  1  0.21001200  0.48606000  0.41723300  1
  Na  Na12  1  0.99999000  0.75000000  0.23101800  1
  Na  Na13  1  0.99999000  0.25000000  0.26898200  1
  Na  Na14  1  0.00001000  0.25000000  0.76898200  1
  Na  Na15  1  0.00001000  0.75000000  0.73101800  1
  Na  Na16  1  0.66510900  0.75000000  0.08456200  1
  Na  Na17  1  0.66510900  0.25000000  0.41543800  1
  Na  Na18  1  0.33489100  0.25000000  0.91543800  1
  Na  Na19  1  0.33489100  0.75000000  0.58456200  1
  V  V0  1  0.22271300  0.25000000  0.59341700  1
  V  V1  1  0.22271300  0.75000000  0.90658300  1
  V  V2  1  0.77728700  0.75000000  0.40658300  1
  V  V3  1  0.77728700  0.25000000  0.09341700  1
  O  O0  1  0.64961900  0.25000000  0.82705200  1
  O  O1  1  0.64961900  0.75000000  0.67294800  1
  O  O2  1  0.35038100  0.25000000  0.32705200  1
  O  O3  1  0.35038100  0.75000000  0.17294800  1
  O  O4  1  0.83581700  0.46172900  0.15354500  1
  O  O5  1  0.83581700  0.53827100  0.34645500  1
  O  O6  1  0.16418300  0.96172900  0.84645500  1
  O  O7  1  0.16418300  0.03827100  0.65354500  1
  O  O8  1  0.16418300  0.53827100  0.84645500  1
  O  O9  1  0.16418300  0.46172900  0.65354500  1
  O  O10  1  0.83581700  0.03827100  0.15354500  1
  O  O11  1  0.83581700  0.96172900  0.34645500  1
  O  O12  1  0.97020400  0.25000000  0.01185700  1
  O  O13  1  0.97020400  0.75000000  0.48814300  1
  O  O14  1  0.02979600  0.75000000  0.98814300  1
  O  O15  1  0.02979600  0.25000000  0.51185700  1
  O  O16  1  0.49767900  0.25000000  0.05575500  1
  O  O17  1  0.49767900  0.75000000  0.44424500  1
  O  O18  1  0.50232100  0.75000000  0.94424500  1
  O  O19  1  0.50232100  0.25000000  0.55575500  1
loop_
_geom_bond_atom_site_label_1
_geom_bond_atom_site_label_2
_geom_bond_distance
_geom_bond_site_symmetry_2
Na0 O2 2.291081 1_555
Na0 O3 2.291081 1_545
Na0 O11 2.480358 1_545
Na0 O10 2.480358 1_555
Na1 O1 2.291081 1_555
Na1 O0 2.291081 1_555
Na1 O9 2.480358 1_555
Na1 O8 2.480358 1_555
Na2 O2 2.291081 1_555
Na2 O3 2.291081 1_555
Na2 O5 2.480358 1_555
Na2 O4 2.480358 1_555
Na3 O0 2.291081 1_555
Na3 O1 2.291081 1_545
Na3 O6 2.480358 1_545
Na3 O7 2.480358 1_555
Na4 O3 2.306110 1_555
Na4 O14 2.444329 1_554
Na4 O16 2.477476 1_565
Na4 O10 2.501782 1_465
Na4 O12 2.532319 1_465
Na5 O2 2.306110 1_555
Na5 O15 2.444329 1_555
Na5 O17 2.477476 1_545
Na5 O11 2.501782 1_445
Na5 O13 2.532319 1_445
Na6 O0 2.306110 1_555
Na6 O12 2.444329 1_556
Na6 O18 2.477476 1_555
Na6 O8 2.501782 1_655
Na6 O14 2.532319 1_655
Na7 O1 2.306110 1_555
Na7 O13 2.444329 1_555
Na7 O19 2.477476 1_555
Na7 O9 2.501782 1_655
Na7 O15 2.532319 1_655
Na8 O0 2.306110 1_555
Na8 O12 2.444329 1_556
Na8 O18 2.477476 1_545
Na8 O6 2.501782 1_645
Na8 O14 2.532319 1_645
Na9 O1 2.306110 1_555
Na9 O13 2.444329 1_555
Na9 O19 2.477476 1_565
Na9 O7 2.501782 1_665
Na9 O15 2.532319 1_665
Na10 O3 2.306110 1_555
Na10 O14 2.444329 1_554
Na10 O16 2.477476 1_555
Na10 O4 2.501782 1_455
Na10 O12 2.532319 1_455
Na11 O2 2.306110 1_555
Na11 O15 2.444329 1_555
Na11 O17 2.477476 1_555
Na11 O5 2.501782 1_455
Na11 O13 2.532319 1_455
Na12 O3 2.260648 1_655
Na12 O4 2.494130 1_555
Na12 O10 2.494130 1_565
Na12 O11 2.541791 1_555
Na12 O5 2.541791 1_555
Na13 O2 2.260648 1_655
Na13 O5 2.494130 1_555
Na13 O11 2.494130 1_545
Na13 O10 2.541791 1_555
Na13 O4 2.541791 1_555
Na14 O0 2.260648 1_455
Na14 O6 2.494130 1_545
Na14 O8 2.494130 1_555
Na14 O9 2.541791 1_555
Na14 O7 2.541791 1_555
Na15 O1 2.260648 1_455
Na15 O7 2.494130 1_565
Na15 O9 2.494130 1_555
Na15 O8 2.541791 1_555
Na15 O6 2.541791 1_555
Na16 O3 2.339905 1_555
Na16 O4 2.442467 1_555
Na16 O10 2.442467 1_565
Na16 O18 2.477499 1_554
Na16 O14 2.652300 1_654
Na17 O2 2.339905 1_555
Na17 O5 2.442467 1_555
Na17 O11 2.442467 1_545
Na17 O19 2.477499 1_555
Na17 O15 2.652300 1_655
Na18 O0 2.339905 1_555
Na18 O8 2.442467 1_555
Na18 O6 2.442467 1_545
Na18 O16 2.477499 1_556
Na18 O12 2.652300 1_456
Na19 O1 2.339905 1_555
Na19 O9 2.442467 1_555
Na19 O7 2.442467 1_565
Na19 O17 2.477499 1_555
Na19 O13 2.652300 1_455
O4 V3 1.753419 1_555
O5 V2 1.753419 1_555
O6 V1 1.753419 1_555
O7 V0 1.753419 1_555
O8 V1 1.753419 1_555
O9 V0 1.753419 1_555
O10 V3 1.753419 1_555
O11 V2 1.753419 1_555
O12 V3 1.744743 1_555
O13 V2 1.744743 1_555
O14 V1 1.744743 1_555
O15 V0 1.744743 1_555
O16 V3 1.749503 1_555
O17 V2 1.749503 1_555
O18 V1 1.749503 1_555
O19 V0 1.749503 1_555
