# generated using pymatgen
data_Ba2FeSe3
_symmetry_space_group_name_H-M   'P 1'
_cell_length_a   4.45420800
_cell_length_b   12.68645100
_cell_length_c   12.97447100
_cell_angle_alpha   90.00000000
_cell_angle_beta   90.00000000
_cell_angle_gamma   90.00000000
_symmetry_Int_Tables_number   1
_chemical_formula_structural   Ba2FeSe3
_chemical_formula_sum   'Ba8 Fe4 Se12'
_cell_volume   733.16259490
_cell_formula_units_Z   4
loop_
 _symmetry_equiv_pos_site_id
 _symmetry_equiv_pos_as_xyz
  1  'x, y, z'
loop_
 _atom_site_type_symbol
 _atom_site_label
 _atom_site_symmetry_multiplicity
 _atom_site_fract_x
 _atom_site_fract_y
 _atom_site_fract_z
 _atom_site_occupancy
  Ba  Ba0  1  0.25000000  0.32417700  0.98102300  1
  Ba  Ba1  1  0.25000000  0.82417700  0.51897700  1
  Ba  Ba2  1  0.75000000  0.67582300  0.01897700  1
  Ba  Ba3  1  0.75000000  0.17582300  0.48102300  1
  Ba  Ba4  1  0.25000000  0.98836200  0.17507100  1
  Ba  Ba5  1  0.25000000  0.48836200  0.32492900  1
  Ba  Ba6  1  0.75000000  0.01163800  0.82492900  1
  Ba  Ba7  1  0.75000000  0.51163800  0.67507100  1
  Fe  Fe0  1  0.25000000  0.24531900  0.69875600  1
  Fe  Fe1  1  0.25000000  0.74531900  0.80124400  1
  Fe  Fe2  1  0.75000000  0.75468100  0.30124400  1
  Fe  Fe3  1  0.75000000  0.25468100  0.19875600  1
  Se  Se0  1  0.25000000  0.36632600  0.55391400  1
  Se  Se1  1  0.25000000  0.86632600  0.94608600  1
  Se  Se2  1  0.75000000  0.63367400  0.44608600  1
  Se  Se3  1  0.75000000  0.13367400  0.05391400  1
  Se  Se4  1  0.25000000  0.06235800  0.64059200  1
  Se  Se5  1  0.25000000  0.56235800  0.85940800  1
  Se  Se6  1  0.75000000  0.93764200  0.35940800  1
  Se  Se7  1  0.75000000  0.43764200  0.14059200  1
  Se  Se8  1  0.25000000  0.72451000  0.21144400  1
  Se  Se9  1  0.25000000  0.22451000  0.28855600  1
  Se  Se10  1  0.75000000  0.27549000  0.78855600  1
  Se  Se11  1  0.75000000  0.77549000  0.71144400  1
loop_
_geom_bond_atom_site_label_1
_geom_bond_atom_site_label_2
_geom_bond_distance
_geom_bond_site_symmetry_2
Ba0 Se7 3.364268 1_556
Ba0 Se7 3.364268 1_456
Ba0 Se10 3.402543 1_455
Ba0 Se10 3.402543 1_555
Ba0 Se5 3.408847 1_555
Ba0 Se3 3.419845 1_556
Ba0 Se3 3.419845 1_456
Ba1 Se6 3.364268 1_555
Ba1 Se6 3.364268 1_455
Ba1 Se11 3.402543 1_555
Ba1 Se11 3.402543 1_455
Ba1 Se4 3.408847 1_565
Ba1 Se2 3.419845 1_555
Ba1 Se2 3.419845 1_455
Ba2 Se5 3.364268 1_654
Ba2 Se5 3.364268 1_554
Ba2 Se8 3.402543 1_655
Ba2 Se8 3.402543 1_555
Ba2 Se7 3.408847 1_555
Ba2 Se1 3.419845 1_654
Ba2 Se1 3.419845 1_554
Ba3 Se4 3.364268 1_555
Ba3 Se4 3.364268 1_655
Ba3 Se9 3.402543 1_655
Ba3 Se9 3.402543 1_555
Ba3 Se6 3.408847 1_545
Ba3 Se0 3.419845 1_655
Ba3 Se0 3.419845 1_555
Ba4 Se3 3.290818 1_465
Ba4 Se3 3.290818 1_565
Ba4 Se6 3.330786 1_555
Ba4 Se6 3.330786 1_455
Ba4 Se9 3.338155 1_565
Ba4 Se1 3.350154 1_554
Ba4 Se8 3.380448 1_555
Ba5 Se2 3.290818 1_455
Ba5 Se2 3.290818 1_555
Ba5 Se7 3.330786 1_555
Ba5 Se7 3.330786 1_455
Ba5 Se8 3.338155 1_555
Ba5 Se0 3.350154 1_555
Ba5 Se9 3.380448 1_555
Ba6 Se1 3.290818 1_545
Ba6 Se1 3.290818 1_645
Ba6 Se4 3.330786 1_655
Ba6 Se4 3.330786 1_555
Ba6 Se11 3.338155 1_545
Ba6 Se3 3.350154 1_556
Ba6 Se10 3.380448 1_555
Ba7 Se0 3.290818 1_655
Ba7 Se0 3.290818 1_555
Ba7 Se5 3.330786 1_655
Ba7 Se5 3.330786 1_555
Ba7 Se10 3.338155 1_555
Ba7 Se2 3.350154 1_555
Ba7 Se11 3.380448 1_555
Fe0 Se0 2.426573 1_555
Fe0 Se4 2.440721 1_555
Fe0 Se10 2.542435 1_455
Fe0 Se10 2.542435 1_555
Fe1 Se1 2.426573 1_555
Fe1 Se5 2.440721 1_555
Fe1 Se11 2.542435 1_555
Fe1 Se11 2.542435 1_455
Fe2 Se2 2.426573 1_555
Fe2 Se6 2.440721 1_555
Fe2 Se8 2.542435 1_555
Fe2 Se8 2.542435 1_655
Fe3 Se3 2.426573 1_555
Fe3 Se7 2.440721 1_555
Fe3 Se9 2.542435 1_655
Fe3 Se9 2.542435 1_555
