# generated using pymatgen
data_HfZrB4
_symmetry_space_group_name_H-M   'P 1'
_cell_length_a   3.14972593
_cell_length_b   3.51672217
_cell_length_c   5.45681539
_cell_angle_alpha   90.00000000
_cell_angle_beta   90.00000000
_cell_angle_gamma   90.00000000
_symmetry_Int_Tables_number   1
_chemical_formula_structural   HfZrB4
_chemical_formula_sum   'Hf1 Zr1 B4'
_cell_volume   60.44356710
_cell_formula_units_Z   1
loop_
 _symmetry_equiv_pos_site_id
 _symmetry_equiv_pos_as_xyz
  1  'x, y, z'
loop_
 _atom_site_type_symbol
 _atom_site_label
 _atom_site_symmetry_multiplicity
 _atom_site_fract_x
 _atom_site_fract_y
 _atom_site_fract_z
 _atom_site_occupancy
  Hf  Hf0  1  -0.00000000  0.00000000  0.00000000  1
  Zr  Zr0  1  0.50000000  0.00000000  0.50000000  1
  B  B0  1  0.00000000  0.50000000  0.66841515  1
  B  B1  1  0.50000000  0.50000000  0.16513484  1
  B  B2  1  0.50000000  0.50000000  0.83486516  1
  B  B3  1  -0.00000000  0.50000000  0.33158485  1
loop_
_geom_bond_atom_site_label_1
_geom_bond_atom_site_label_2
_geom_bond_distance
_geom_bond_site_symmetry_2
B0 B2 1.818015 1_455
B0 B2 1.818015 1_555
B0 B3 1.838021 1_555
B0 Hf0 2.523044 1_556
B0 Hf0 2.523044 1_566
B0 Zr0 2.533102 1_565
B0 Zr0 2.533102 1_465
B0 Zr0 2.533102 1_555
B0 Zr0 2.533102 1_455
B1 B2 1.802221 1_554
B1 B3 1.818015 1_555
B1 B3 1.818015 1_655
B1 Hf0 2.526663 1_655
B1 Hf0 2.526663 1_565
B1 Hf0 2.526663 1_665
B1 Hf0 2.526663 1_555
B1 Zr0 2.535912 1_565
B1 Zr0 2.535912 1_555
B2 Hf0 2.526663 1_556
B2 Hf0 2.526663 1_656
B2 Hf0 2.526663 1_566
B2 Hf0 2.526663 1_666
B2 Zr0 2.535912 1_565
B2 Zr0 2.535912 1_555
B3 Hf0 2.523044 1_555
B3 Hf0 2.523044 1_565
B3 Zr0 2.533102 1_465
B3 Zr0 2.533102 1_555
B3 Zr0 2.533102 1_455
B3 Zr0 2.533102 1_565
