# generated using pymatgen
data_TlCu7Se4
_symmetry_space_group_name_H-M   'P 1'
_cell_length_a   4.00835186
_cell_length_b   7.68129453
_cell_length_c   7.59139861
_cell_angle_alpha   87.20526420
_cell_angle_beta   74.62234140
_cell_angle_gamma   75.52254846
_symmetry_Int_Tables_number   1
_chemical_formula_structural   TlCu7Se4
_chemical_formula_sum   'Tl1 Cu7 Se4'
_cell_volume   218.17138920
_cell_formula_units_Z   1
loop_
 _symmetry_equiv_pos_site_id
 _symmetry_equiv_pos_as_xyz
  1  'x, y, z'
loop_
 _atom_site_type_symbol
 _atom_site_label
 _atom_site_symmetry_multiplicity
 _atom_site_fract_x
 _atom_site_fract_y
 _atom_site_fract_z
 _atom_site_occupancy
  Tl  Tl0  1  0.99711700  0.99037500  0.00901500  1
  Cu  Cu0  1  0.03016200  0.35116600  0.60042100  1
  Cu  Cu1  1  0.32360000  0.89775700  0.45530200  1
  Cu  Cu2  1  0.34666600  0.59980300  0.64828400  1
  Cu  Cu3  1  0.64105100  0.39326400  0.35575500  1
  Cu  Cu4  1  0.66691900  0.12474600  0.55810400  1
  Cu  Cu5  1  0.75192900  0.54740400  0.88171600  1
  Cu  Cu6  1  0.02857500  0.64446900  0.38324800  1
  Se  Se0  1  0.25161700  0.18518700  0.31116400  1
  Se  Se1  1  0.41752500  0.32938600  0.83060000  1
  Se  Se2  1  0.61039300  0.66457300  0.18826100  1
  Se  Se3  1  0.71344600  0.81787100  0.67412800  1
loop_
_geom_bond_atom_site_label_1
_geom_bond_atom_site_label_2
_geom_bond_distance
_geom_bond_site_symmetry_2
Cu0 Se0 2.430762 1_555
Cu0 Se1 2.602444 1_555
Cu0 Cu4 2.610872 1_455
Cu0 Se1 2.648161 1_455
Cu0 Cu4 2.653789 1_555
Cu1 Se0 2.401754 1_565
Cu1 Se3 2.525044 1_555
Cu1 Se2 2.593828 1_555
Cu1 Cu4 2.706679 1_465
Cu1 Cu4 2.728519 1_565
Cu1 Se3 2.759318 1_455
Cu2 Se1 2.438020 1_555
Cu2 Se3 2.534173 1_555
Cu2 Se3 2.632251 1_455
Cu3 Se2 2.381458 1_555
Cu3 Cu4 2.508615 1_555
Cu3 Se0 2.513229 1_655
Cu3 Se0 2.585789 1_555
Cu4 Se3 2.455971 1_545
Cu4 Se1 2.486779 1_555
Cu4 Se0 2.711381 1_655
Cu4 Se0 2.772121 1_555
Cu5 Se2 2.407497 1_556
Cu5 Se1 2.492659 1_555
Cu5 Se3 2.544167 1_555
Cu5 Se1 2.711705 1_655
Cu6 Se2 2.445543 1_555
Cu6 Se2 2.487736 1_455
Cu6 Se3 2.492388 1_455
Se0 Tl0 3.298494 1_445
Se0 Tl0 3.300556 1_545
Se2 Tl0 3.317570 1_555
Se3 Tl0 3.319336 1_456
