# generated using pymatgen
data_Ag3Sn2(GeP2)3
_symmetry_space_group_name_H-M   'P 1'
_cell_length_a   9.20276526
_cell_length_b   9.20276526
_cell_length_c   9.20276526
_cell_angle_alpha   109.47122063
_cell_angle_beta   109.47122063
_cell_angle_gamma   109.47122063
_symmetry_Int_Tables_number   1
_chemical_formula_structural   Ag3Sn2(GeP2)3
_chemical_formula_sum   'Ag6 Sn4 Ge6 P12'
_cell_volume   599.97498335
_cell_formula_units_Z   2
loop_
 _symmetry_equiv_pos_site_id
 _symmetry_equiv_pos_as_xyz
  1  'x, y, z'
loop_
 _atom_site_type_symbol
 _atom_site_label
 _atom_site_symmetry_multiplicity
 _atom_site_fract_x
 _atom_site_fract_y
 _atom_site_fract_z
 _atom_site_occupancy
  Ag  Ag0  1  0.19612700  0.19612700  0.00000000  1
  Ag  Ag1  1  0.80387300  0.80387300  0.00000000  1
  Ag  Ag2  1  0.00000000  0.19612700  0.19612700  1
  Ag  Ag3  1  0.00000000  0.80387300  0.80387300  1
  Ag  Ag4  1  0.80387300  0.00000000  0.80387300  1
  Ag  Ag5  1  0.19612700  0.00000000  0.19612700  1
  Sn  Sn0  1  0.41154900  0.41154900  0.41154900  1
  Sn  Sn1  1  0.58845100  0.00000000  0.00000000  1
  Sn  Sn2  1  0.00000000  0.00000000  0.58845100  1
  Sn  Sn3  1  0.00000000  0.58845100  0.00000000  1
  Ge  Ge0  1  0.25000000  0.75000000  0.50000000  1
  Ge  Ge1  1  0.75000000  0.25000000  0.50000000  1
  Ge  Ge2  1  0.75000000  0.50000000  0.25000000  1
  Ge  Ge3  1  0.50000000  0.75000000  0.25000000  1
  Ge  Ge4  1  0.25000000  0.50000000  0.75000000  1
  Ge  Ge5  1  0.50000000  0.25000000  0.75000000  1
  P  P0  1  0.50945400  0.50945400  0.74927100  1
  P  P1  1  0.00000000  0.49054600  0.23981700  1
  P  P2  1  0.49054600  0.00000000  0.23981700  1
  P  P3  1  0.50945400  0.74927100  0.50945400  1
  P  P4  1  0.23981700  0.49054600  0.00000000  1
  P  P5  1  0.49054600  0.23981700  0.00000000  1
  P  P6  1  0.76018300  0.76018300  0.25072900  1
  P  P7  1  0.76018300  0.25072900  0.76018300  1
  P  P8  1  0.74927100  0.50945400  0.50945400  1
  P  P9  1  0.23981700  0.00000000  0.49054600  1
  P  P10  1  0.00000000  0.23981700  0.49054600  1
  P  P11  1  0.25072900  0.76018300  0.76018300  1
loop_
_geom_bond_atom_site_label_1
_geom_bond_atom_site_label_2
_geom_bond_distance
_geom_bond_site_symmetry_2
Ag0 P4 2.603194 1_555
Ag0 P5 2.603194 1_555
Ag0 Sn0 3.094089 1_555
Ag0 Sn2 3.094089 1_554
Ag1 P6 2.603194 1_555
Ag1 P0 2.603194 1_554
Ag1 Sn3 3.094089 1_655
Ag1 Sn1 3.094089 1_565
Ag2 P1 2.603194 1_555
Ag2 P10 2.603194 1_555
Ag2 Sn0 3.094089 1_555
Ag2 Sn1 3.094089 1_455
Ag3 P11 2.603194 1_555
Ag3 P8 2.603194 1_455
Ag3 Sn2 3.094089 1_565
Ag3 Sn3 3.094089 1_556
Ag4 P7 2.603194 1_555
Ag4 P3 2.603194 1_545
Ag4 Sn2 3.094089 1_655
Ag4 Sn1 3.094089 1_556
Ag5 P9 2.603194 1_555
Ag5 P2 2.603194 1_555
Ag5 Sn0 3.094089 1_555
Ag5 Sn3 3.094089 1_545
Ge0 P1 2.362472 1_555
Ge0 P3 2.362472 1_555
Ge0 P9 2.362472 1_565
Ge0 P11 2.362472 1_555
Ge1 P8 2.362472 1_555
Ge1 P2 2.362472 1_555
Ge1 P10 2.362472 1_655
Ge1 P7 2.362472 1_555
Ge2 P8 2.362472 1_555
Ge2 P1 2.362472 1_655
Ge2 P6 2.362472 1_555
Ge2 P5 2.362472 1_555
Ge3 P3 2.362472 1_555
Ge3 P2 2.362472 1_565
Ge3 P4 2.362472 1_555
Ge3 P6 2.362472 1_555
Ge4 P0 2.362472 1_555
Ge4 P10 2.362472 1_555
Ge4 P11 2.362472 1_555
Ge4 P4 2.362472 1_556
Ge5 P9 2.362472 1_555
Ge5 P5 2.362472 1_556
Ge5 P0 2.362472 1_555
Ge5 P7 2.362472 1_555
P0 Sn0 2.647302 1_555
P1 Sn3 2.647302 1_555
P2 Sn1 2.647302 1_555
P3 Sn0 2.647302 1_555
P4 Sn3 2.647302 1_555
P5 Sn1 2.647302 1_555
P6 Sn2 2.647302 1_665
P7 Sn3 2.647302 1_656
P8 Sn0 2.647302 1_555
P9 Sn2 2.647302 1_555
P10 Sn2 2.647302 1_555
P11 Sn1 2.647302 1_566
