# generated using pymatgen
data_CsPrCdTe3
_symmetry_space_group_name_H-M   'P 1'
_cell_length_a   4.66176600
_cell_length_b   9.00706343
_cell_length_c   12.20091100
_cell_angle_alpha   90.00000000
_cell_angle_beta   90.00000000
_cell_angle_gamma   104.99791530
_symmetry_Int_Tables_number   1
_chemical_formula_structural   CsPrCdTe3
_chemical_formula_sum   'Cs2 Pr2 Cd2 Te6'
_cell_volume   494.85044167
_cell_formula_units_Z   2
loop_
 _symmetry_equiv_pos_site_id
 _symmetry_equiv_pos_as_xyz
  1  'x, y, z'
loop_
 _atom_site_type_symbol
 _atom_site_label
 _atom_site_symmetry_multiplicity
 _atom_site_fract_x
 _atom_site_fract_y
 _atom_site_fract_z
 _atom_site_occupancy
  Cs  Cs0  1  0.24983800  0.49967600  0.75000000  1
  Cs  Cs1  1  0.75016200  0.50032400  0.25000000  1
  Pr  Pr0  1  0.00000000  0.00000000  0.50000000  1
  Pr  Pr1  1  0.00000000  0.00000000  0.00000000  1
  Cd  Cd0  1  0.46502500  0.93005000  0.25000000  1
  Cd  Cd1  1  0.53497500  0.06995000  0.75000000  1
  Te  Te0  1  0.62275100  0.24550200  0.55438500  1
  Te  Te1  1  0.37724900  0.75449800  0.44561500  1
  Te  Te2  1  0.37724900  0.75449800  0.05438500  1
  Te  Te3  1  0.62275100  0.24550200  0.94561500  1
  Te  Te4  1  0.06639700  0.13279400  0.25000000  1
  Te  Te5  1  0.93360300  0.86720600  0.75000000  1
loop_
_geom_bond_atom_site_label_1
_geom_bond_atom_site_label_2
_geom_bond_distance
_geom_bond_site_symmetry_2
Cs0 Te5 3.956976 1_555
Cs0 Te5 3.956976 1_455
Cs0 Te3 4.002429 1_455
Cs0 Te0 4.002429 1_455
Cs0 Te3 4.002429 1_555
Cs0 Te0 4.002429 1_555
Cs0 Te2 4.325189 1_556
Cs0 Te1 4.325189 1_555
Cs1 Te4 3.956976 1_555
Cs1 Te4 3.956976 1_655
Cs1 Te1 4.002429 1_655
Cs1 Te2 4.002429 1_655
Cs1 Te1 4.002429 1_555
Cs1 Te2 4.002429 1_555
Cs1 Te3 4.325189 1_554
Cs1 Te0 4.325189 1_555
Pr0 Te1 3.230401 1_545
Pr0 Te0 3.230401 1_555
Pr0 Te0 3.230401 1_455
Pr0 Te1 3.230401 1_445
Pr0 Te4 3.261702 1_555
Pr0 Te5 3.261702 1_445
Pr1 Te2 3.230401 1_445
Pr1 Te3 3.230401 1_554
Pr1 Te2 3.230401 1_545
Pr1 Te3 3.230401 1_454
Pr1 Te4 3.261702 1_555
Pr1 Te5 3.261702 1_444
Cd0 Te1 2.833554 1_555
Cd0 Te2 2.833554 1_555
Cd0 Te4 2.923086 1_665
Cd0 Te4 2.923086 1_565
Cd1 Te3 2.833554 1_555
Cd1 Te0 2.833554 1_555
Cd1 Te5 2.923086 1_545
Cd1 Te5 2.923086 1_445
