# generated using pymatgen
data_RbLiZn2O3
_symmetry_space_group_name_H-M   'P 1'
_cell_length_a   10.49877300
_cell_length_b   10.49877300
_cell_length_c   3.47434600
_cell_angle_alpha   90.00000000
_cell_angle_beta   90.00000000
_cell_angle_gamma   90.00000000
_symmetry_Int_Tables_number   1
_chemical_formula_structural   RbLiZn2O3
_chemical_formula_sum   'Rb4 Li4 Zn8 O12'
_cell_volume   382.95712826
_cell_formula_units_Z   4
loop_
 _symmetry_equiv_pos_site_id
 _symmetry_equiv_pos_as_xyz
  1  'x, y, z'
loop_
 _atom_site_type_symbol
 _atom_site_label
 _atom_site_symmetry_multiplicity
 _atom_site_fract_x
 _atom_site_fract_y
 _atom_site_fract_z
 _atom_site_occupancy
  Rb  Rb0  1  0.39028900  0.39028900  0.00000000  1
  Rb  Rb1  1  0.89028900  0.10971100  0.50000000  1
  Rb  Rb2  1  0.10971100  0.89028900  0.50000000  1
  Rb  Rb3  1  0.60971100  0.60971100  0.00000000  1
  Li  Li0  1  0.79837200  0.79837200  0.50000000  1
  Li  Li1  1  0.20162800  0.20162800  0.50000000  1
  Li  Li2  1  0.29837200  0.70162800  0.00000000  1
  Li  Li3  1  0.70162800  0.29837200  0.00000000  1
  Zn  Zn0  1  0.32834900  0.07310200  0.00000000  1
  Zn  Zn1  1  0.67165100  0.92689800  0.00000000  1
  Zn  Zn2  1  0.42689800  0.82834900  0.50000000  1
  Zn  Zn3  1  0.57310200  0.17165100  0.50000000  1
  Zn  Zn4  1  0.07310200  0.32834900  0.00000000  1
  Zn  Zn5  1  0.82834900  0.42689800  0.50000000  1
  Zn  Zn6  1  0.17165100  0.57310200  0.50000000  1
  Zn  Zn7  1  0.92689800  0.67165100  0.00000000  1
  O  O0  1  0.38615000  0.15530000  0.50000000  1
  O  O1  1  0.84470000  0.61385000  0.50000000  1
  O  O2  1  0.15530000  0.38615000  0.50000000  1
  O  O3  1  0.88615000  0.34470000  0.00000000  1
  O  O4  1  0.85837800  0.85837800  0.00000000  1
  O  O5  1  0.35837800  0.64162200  0.50000000  1
  O  O6  1  0.64162200  0.35837800  0.50000000  1
  O  O7  1  0.14162200  0.14162200  0.00000000  1
  O  O8  1  0.61385000  0.84470000  0.50000000  1
  O  O9  1  0.65530000  0.11385000  0.00000000  1
  O  O10  1  0.34470000  0.88615000  0.00000000  1
  O  O11  1  0.11385000  0.65530000  0.00000000  1
loop_
_geom_bond_atom_site_label_1
_geom_bond_atom_site_label_2
_geom_bond_distance
_geom_bond_site_symmetry_2
Li0 O4 1.952317 1_555
Li0 O4 1.952317 1_556
Li0 O1 1.997380 1_555
Li0 O8 1.997380 1_555
Li1 O7 1.952317 1_556
Li1 O7 1.952317 1_555
Li1 O0 1.997380 1_555
Li1 O2 1.997380 1_555
Li2 O5 1.952317 1_555
Li2 O5 1.952317 1_554
Li2 O11 1.997380 1_555
Li2 O10 1.997380 1_555
Li3 O6 1.952317 1_554
Li3 O6 1.952317 1_555
Li3 O9 1.997380 1_555
Li3 O3 1.997380 1_555
O0 Zn3 1.970259 1_555
O0 Zn0 2.032426 1_556
O0 Zn0 2.032426 1_555
O0 Rb0 3.017652 1_555
O0 Rb0 3.017652 1_556
O1 Zn5 1.970259 1_555
O1 Zn7 2.032426 1_556
O1 Zn7 2.032426 1_555
O1 Rb3 3.017652 1_556
O1 Rb3 3.017652 1_555
O2 Zn6 1.970259 1_555
O2 Zn4 2.032426 1_556
O2 Zn4 2.032426 1_555
O2 Rb0 3.017652 1_555
O2 Rb0 3.017652 1_556
O3 Zn4 1.970259 1_655
O3 Zn5 2.032426 1_554
O3 Zn5 2.032426 1_555
O3 Rb1 3.017652 1_554
O3 Rb1 3.017652 1_555
O4 Zn7 2.088226 1_555
O4 Zn1 2.088226 1_555
O4 Rb2 3.176899 1_655
O4 Rb2 3.176899 1_654
O4 Rb1 3.176899 1_564
O4 Rb1 3.176899 1_565
O5 Zn2 2.088226 1_555
O5 Zn6 2.088226 1_555
O5 Rb3 3.176899 1_555
O5 Rb3 3.176899 1_556
O5 Rb0 3.176899 1_555
O5 Rb0 3.176899 1_556
O6 Zn5 2.088226 1_555
O6 Zn3 2.088226 1_555
O6 Rb3 3.176899 1_555
O6 Rb3 3.176899 1_556
O6 Rb0 3.176899 1_555
O6 Rb0 3.176899 1_556
O7 Zn0 2.088226 1_555
O7 Zn4 2.088226 1_555
O7 Rb1 3.176899 1_455
O7 Rb2 3.176899 1_545
O7 Rb2 3.176899 1_544
O7 Rb1 3.176899 1_454
O8 Zn2 1.970259 1_555
O8 Zn1 2.032426 1_555
O8 Zn1 2.032426 1_556
O8 Rb3 3.017652 1_556
O8 Rb3 3.017652 1_555
O9 Zn1 1.970259 1_545
O9 Zn3 2.032426 1_555
O9 Zn3 2.032426 1_554
O9 Rb1 3.017652 1_555
O9 Rb1 3.017652 1_554
O10 Zn0 1.970259 1_565
O10 Zn2 2.032426 1_555
O10 Zn2 2.032426 1_554
O10 Rb2 3.017652 1_554
O10 Rb2 3.017652 1_555
O11 Zn7 1.970259 1_455
O11 Zn6 2.032426 1_554
O11 Zn6 2.032426 1_555
O11 Rb2 3.017652 1_555
O11 Rb2 3.017652 1_554
