# generated using pymatgen
data_CsMg6BO7
_symmetry_space_group_name_H-M   'P 1'
_cell_length_a   4.26858805
_cell_length_b   4.26858805
_cell_length_c   12.19909824
_cell_angle_alpha   88.72292073
_cell_angle_beta   88.72292073
_cell_angle_gamma   91.04936721
_symmetry_Int_Tables_number   1
_chemical_formula_structural   CsMg6BO7
_chemical_formula_sum   'Cs1 Mg6 B1 O7'
_cell_volume   222.12810539
_cell_formula_units_Z   1
loop_
 _symmetry_equiv_pos_site_id
 _symmetry_equiv_pos_as_xyz
  1  'x, y, z'
loop_
 _atom_site_type_symbol
 _atom_site_label
 _atom_site_symmetry_multiplicity
 _atom_site_fract_x
 _atom_site_fract_y
 _atom_site_fract_z
 _atom_site_occupancy
  Cs  Cs0  1  0.99567400  0.99567400  0.03352100  1
  Mg  Mg0  1  0.99969400  0.99969400  0.54421400  1
  Mg  Mg1  1  0.49675800  0.49675800  0.53430300  1
  Mg  Mg2  1  0.50741400  0.01134900  0.35954500  1
  Mg  Mg3  1  0.49564900  0.97571600  0.72406600  1
  Mg  Mg4  1  0.01134900  0.50741400  0.35954500  1
  Mg  Mg5  1  0.97571600  0.49564900  0.72406600  1
  B  B0  1  0.38604600  0.38604600  0.84686700  1
  O  O0  1  0.99315800  0.99315800  0.70472100  1
  O  O1  1  0.50935000  0.50935000  0.35950800  1
  O  O2  1  0.48863200  0.48863200  0.72536300  1
  O  O3  1  0.53134500  0.13231100  0.88222300  1
  O  O4  1  0.49871600  0.99877000  0.53465300  1
  O  O5  1  0.13231100  0.53134500  0.88222300  1
  O  O6  1  0.99877000  0.49871600  0.53465300  1
loop_
_geom_bond_atom_site_label_1
_geom_bond_atom_site_label_2
_geom_bond_distance
_geom_bond_site_symmetry_2
Cs0 O3 2.798686 1_564
Cs0 O5 2.798686 1_654
Cs0 O3 2.947912 1_664
Cs0 O5 2.947912 1_664
Mg0 O0 1.957187 1_555
Mg0 O6 2.130794 1_565
Mg0 O4 2.130794 1_655
Mg0 O4 2.144178 1_555
Mg0 O6 2.144178 1_555
Mg1 O4 2.125785 1_545
Mg1 O6 2.125785 1_455
Mg1 O1 2.131275 1_555
Mg1 O6 2.142845 1_555
Mg1 O4 2.142845 1_555
Mg1 O2 2.329720 1_555
Mg2 O1 2.125616 1_555
Mg2 O4 2.135116 1_545
Mg2 O1 2.143004 1_545
Mg3 O3 2.063824 1_565
Mg3 O2 2.078531 1_555
Mg3 O0 2.131257 1_555
Mg3 O0 2.165543 1_455
Mg3 O2 2.190585 1_565
Mg3 O4 2.310305 1_555
Mg4 O1 2.125616 1_555
Mg4 O6 2.135116 1_455
Mg4 O1 2.143004 1_455
Mg5 O5 2.063824 1_655
Mg5 O2 2.078531 1_555
Mg5 O0 2.131257 1_555
Mg5 O0 2.165543 1_545
Mg5 O2 2.190585 1_655
Mg5 O6 2.310305 1_555
B0 O5 1.326459 1_555
B0 O3 1.326459 1_555
B0 O2 1.586081 1_555
