# generated using pymatgen
data_CeMo12(NO27)2
_symmetry_space_group_name_H-M   'P 1'
_cell_length_a   10.39613867
_cell_length_b   10.39613867
_cell_length_c   10.39613886
_cell_angle_alpha   77.83449460
_cell_angle_beta   77.83449460
_cell_angle_gamma   77.83449232
_symmetry_Int_Tables_number   1
_chemical_formula_structural   CeMo12(NO27)2
_chemical_formula_sum   'Ce1 Mo12 N2 O54'
_cell_volume   1057.32273173
_cell_formula_units_Z   1
loop_
 _symmetry_equiv_pos_site_id
 _symmetry_equiv_pos_as_xyz
  1  'x, y, z'
loop_
 _atom_site_type_symbol
 _atom_site_label
 _atom_site_symmetry_multiplicity
 _atom_site_fract_x
 _atom_site_fract_y
 _atom_site_fract_z
 _atom_site_occupancy
  Ce  Ce0  1  -0.00000000  0.00000000  -0.00000000  1
  Mo  Mo0  1  0.15457368  0.06393037  0.65534342  1
  Mo  Mo1  1  0.06393037  0.65534342  0.15457368  1
  Mo  Mo2  1  0.65534342  0.15457368  0.06393037  1
  Mo  Mo3  1  0.84542632  0.93606963  0.34465658  1
  Mo  Mo4  1  0.93606963  0.34465658  0.84542632  1
  Mo  Mo5  1  0.34465658  0.84542632  0.93606963  1
  Mo  Mo6  1  0.83286385  0.06203715  0.71857831  1
  Mo  Mo7  1  0.06203715  0.71857831  0.83286385  1
  Mo  Mo8  1  0.71857831  0.83286385  0.06203715  1
  Mo  Mo9  1  0.16713615  0.93796285  0.28142169  1
  Mo  Mo10  1  0.93796285  0.28142169  0.16713615  1
  Mo  Mo11  1  0.28142169  0.16713615  0.93796285  1
  N  N0  1  0.69006223  0.69006223  0.69006223  1
  N  N1  1  0.30993777  0.30993777  0.30993777  1
  O  O0  1  0.21465420  0.20839097  0.58029004  1
  O  O1  1  0.20839097  0.58029004  0.21465420  1
  O  O2  1  0.58029004  0.21465420  0.20839097  1
  O  O3  1  0.78534580  0.79160903  0.41970996  1
  O  O4  1  0.79160903  0.41970996  0.78534580  1
  O  O5  1  0.41970996  0.78534580  0.79160903  1
  O  O6  1  0.97468839  0.17049359  0.78509501  1
  O  O7  1  0.17049359  0.78509501  0.97468839  1
  O  O8  1  0.78509501  0.97468839  0.17049359  1
  O  O9  1  0.02531161  0.82950641  0.21490499  1
  O  O10  1  0.82950641  0.21490499  0.02531161  1
  O  O11  1  0.21490499  0.02531161  0.82950641  1
  O  O12  1  0.26369649  0.93686761  0.57787078  1
  O  O13  1  0.93686761  0.57787078  0.26369649  1
  O  O14  1  0.57787078  0.26369649  0.93686761  1
  O  O15  1  0.73630351  0.06313239  0.42212922  1
  O  O16  1  0.06313239  0.42212922  0.73630351  1
  O  O17  1  0.42212922  0.73630351  0.06313239  1
  O  O18  1  0.02565648  0.91342088  0.78783096  1
  O  O19  1  0.91342088  0.78783096  0.02565648  1
  O  O20  1  0.78783096  0.02565648  0.91342088  1
  O  O21  1  0.97434352  0.08657912  0.21216904  1
  O  O22  1  0.08657912  0.21216904  0.97434352  1
  O  O23  1  0.21216904  0.97434352  0.08657912  1
  O  O24  1  0.99296768  0.08350469  0.57423965  1
  O  O25  1  0.08350469  0.57423965  0.99296768  1
  O  O26  1  0.57423965  0.99296768  0.08350469  1
  O  O27  1  0.00703232  0.91649531  0.42576035  1
  O  O28  1  0.91649531  0.42576035  0.00703232  1
  O  O29  1  0.42576035  0.00703232  0.91649531  1
  O  O30  1  0.72174752  0.20497401  0.67049807  1
  O  O31  1  0.20497401  0.67049807  0.72174752  1
  O  O32  1  0.67049807  0.72174752  0.20497401  1
  O  O33  1  0.27825248  0.79502599  0.32950193  1
  O  O34  1  0.79502599  0.32950193  0.27825248  1
  O  O35  1  0.32950193  0.27825248  0.79502599  1
  O  O36  1  0.77721551  0.93400565  0.67536138  1
  O  O37  1  0.93400565  0.67536138  0.77721551  1
  O  O38  1  0.67536138  0.77721551  0.93400565  1
  O  O39  1  0.22278449  0.06599435  0.32463862  1
  O  O40  1  0.06599435  0.32463862  0.22278449  1
  O  O41  1  0.32463862  0.22278449  0.06599435  1
  O  O42  1  0.95228787  0.44139976  0.44797969  1
  O  O43  1  0.44139976  0.44797969  0.95228787  1
  O  O44  1  0.44797969  0.95228787  0.44139976  1
  O  O45  1  0.04771213  0.55860024  0.55202031  1
  O  O46  1  0.55860024  0.55202031  0.04771213  1
  O  O47  1  0.55202031  0.04771213  0.55860024  1
  O  O48  1  0.50862124  0.44646717  0.75298105  1
  O  O49  1  0.44646717  0.75298105  0.50862124  1
  O  O50  1  0.75298105  0.50862124  0.44646717  1
  O  O51  1  0.49137876  0.55353283  0.24701895  1
  O  O52  1  0.55353283  0.24701895  0.49137876  1
  O  O53  1  0.24701895  0.49137876  0.55353283  1
loop_
_geom_bond_atom_site_label_1
_geom_bond_atom_site_label_2
_geom_bond_distance
_geom_bond_site_symmetry_2
Ce0 O23 2.496840 1_545
Ce0 O20 2.496840 1_454
Ce0 O22 2.496840 1_554
Ce0 O19 2.496840 1_445
Ce0 O18 2.496840 1_544
Ce0 O21 2.496840 1_455
Ce0 O7 2.566056 1_544
Ce0 O10 2.566056 1_455
Ce0 O9 2.566056 1_545
Ce0 O6 2.566056 1_454
Ce0 O8 2.566056 1_445
Ce0 O11 2.566056 1_554
Mo0 O0 1.717705 1_555
Mo0 O12 1.764180 1_545
Mo0 O11 1.974605 1_555
Mo0 O24 1.988879 1_455
Mo0 O6 2.288589 1_455
Mo0 O18 2.310669 1_545
Mo1 O1 1.717704 1_555
Mo1 O13 1.764180 1_455
Mo1 O9 1.974605 1_555
Mo1 O25 1.988879 1_554
Mo1 O7 2.288589 1_554
Mo1 O19 2.310669 1_455
Mo2 O2 1.717705 1_555
Mo2 O14 1.764180 1_554
Mo2 O10 1.974605 1_555
Mo2 O26 1.988879 1_545
Mo2 O8 2.288589 1_545
Mo2 O20 2.310669 1_554
Mo3 O3 1.717705 1_555
Mo3 O15 1.764180 1_565
Mo3 O8 1.974605 1_555
Mo3 O27 1.988879 1_655
Mo3 O9 2.288589 1_655
Mo3 O21 2.310669 1_565
Mo4 O4 1.717704 1_555
Mo4 O16 1.764180 1_655
Mo4 O6 1.974605 1_555
Mo4 O28 1.988879 1_556
Mo4 O10 2.288589 1_556
Mo4 O22 2.310669 1_655
Mo5 O5 1.717705 1_555
Mo5 O17 1.764180 1_556
Mo5 O7 1.974605 1_555
Mo5 O29 1.988879 1_565
Mo5 O11 2.288589 1_565
Mo5 O23 2.310669 1_556
Mo6 O36 1.730421 1_545
Mo6 O30 1.731841 1_555
Mo6 O20 1.953808 1_555
Mo6 O24 2.008649 1_555
Mo6 O6 2.320019 1_555
Mo6 O18 2.399348 1_645
Mo7 O37 1.730421 1_455
Mo7 O31 1.731841 1_555
Mo7 O18 1.953808 1_555
Mo7 O25 2.008649 1_555
Mo7 O7 2.320019 1_555
Mo7 O19 2.399348 1_456
Mo8 O38 1.730421 1_554
Mo8 O32 1.731841 1_555
Mo8 O19 1.953808 1_555
Mo8 O26 2.008649 1_555
Mo8 O8 2.320019 1_555
Mo8 O20 2.399348 1_564
Mo9 O39 1.730421 1_565
Mo9 O33 1.731841 1_555
Mo9 O23 1.953808 1_555
Mo9 O27 2.008649 1_555
Mo9 O9 2.320019 1_555
Mo9 O21 2.399348 1_465
Mo10 O40 1.730421 1_655
Mo10 O34 1.731841 1_555
Mo10 O21 1.953808 1_555
Mo10 O28 2.008649 1_555
Mo10 O10 2.320019 1_555
Mo10 O22 2.399348 1_654
Mo11 O41 1.730421 1_556
Mo11 O35 1.731841 1_555
Mo11 O22 1.953808 1_555
Mo11 O29 2.008649 1_555
Mo11 O11 2.320019 1_555
Mo11 O23 2.399348 1_546
O42 O50 2.044677 1_555
O43 O48 2.044677 1_555
O44 O49 2.044677 1_555
O45 O53 2.044677 1_555
O46 O51 2.044677 1_555
O47 O52 2.044677 1_555
