# generated using pymatgen
data_Mg5Si6
_symmetry_space_group_name_H-M   'P 1'
_cell_length_a   15.47815600
_cell_length_b   15.47815600
_cell_length_c   6.87529700
_cell_angle_alpha   78.86619785
_cell_angle_beta   78.86619785
_cell_angle_gamma   14.43475742
_symmetry_Int_Tables_number   1
_chemical_formula_structural   Mg5Si6
_chemical_formula_sum   'Mg10 Si12'
_cell_volume   402.74125272
_cell_formula_units_Z   2
loop_
 _symmetry_equiv_pos_site_id
 _symmetry_equiv_pos_as_xyz
  1  'x, y, z'
loop_
 _atom_site_type_symbol
 _atom_site_label
 _atom_site_symmetry_multiplicity
 _atom_site_fract_x
 _atom_site_fract_y
 _atom_site_fract_z
 _atom_site_occupancy
  Mg  Mg0  1  0.07894500  0.07894500  0.03941800  1
  Mg  Mg1  1  0.87413500  0.87413500  0.51572800  1
  Mg  Mg2  1  0.91605700  0.91605700  0.99222300  1
  Mg  Mg3  1  0.24561400  0.24561400  0.06463400  1
  Mg  Mg4  1  0.65759200  0.65759200  0.15193500  1
  Mg  Mg5  1  0.50135900  0.50135900  0.92295000  1
  Mg  Mg6  1  0.82099400  0.82099400  0.18782000  1
  Mg  Mg7  1  0.28899500  0.28899500  0.53696000  1
  Mg  Mg8  1  0.61888500  0.61888500  0.69070300  1
  Mg  Mg9  1  0.53991300  0.53991300  0.38529200  1
  Si  Si0  1  0.05248000  0.05248000  0.68737300  1
  Si  Si1  1  0.10736600  0.10736600  0.38951900  1
  Si  Si2  1  0.80000800  0.80000800  0.82051000  1
  Si  Si3  1  0.35209900  0.35209900  0.87284700  1
  Si  Si4  1  0.98469600  0.98469600  0.23787700  1
  Si  Si5  1  0.17343900  0.17343900  0.84000400  1
  Si  Si6  1  0.72954900  0.72954900  0.38952500  1
  Si  Si7  1  0.42981000  0.42981000  0.65811200  1
  Si  Si8  1  0.97880900  0.97880900  0.61072100  1
  Si  Si9  1  0.18093800  0.18093800  0.46183200  1
  Si  Si10  1  0.72474200  0.72474200  0.75697400  1
  Si  Si11  1  0.43163900  0.43163900  0.28341300  1
loop_
_geom_bond_atom_site_label_1
_geom_bond_atom_site_label_2
_geom_bond_distance
_geom_bond_site_symmetry_2
Mg0 Si0 2.699039 1_554
Mg0 Si1 2.715438 1_555
Mg0 Si4 2.949974 1_445
Mg0 Si5 2.958464 1_554
Mg1 Si2 2.777854 1_555
Mg1 Si7 2.883549 1_655
Mg1 Si7 2.883549 1_565
Mg1 Si11 2.890204 1_655
Mg1 Si11 2.890204 1_565
Mg1 Si3 3.101781 1_565
Mg1 Si3 3.101781 1_655
Mg2 Si11 2.896798 1_566
Mg2 Si11 2.896798 1_656
Mg2 Si8 2.937012 1_555
Mg2 Si4 2.946531 1_556
Mg2 Si7 2.976379 1_655
Mg2 Si7 2.976379 1_565
Mg2 Si3 2.990110 1_565
Mg2 Si3 2.990110 1_655
Mg3 Si2 2.880555 1_544
Mg3 Si2 2.880555 1_454
Mg3 Si6 2.930073 1_545
Mg3 Si6 2.930073 1_455
Mg3 Si5 2.937852 1_554
Mg3 Si10 3.032230 1_454
Mg3 Si10 3.032230 1_544
Mg3 Si9 3.048156 1_555
Mg4 Si1 2.801436 1_565
Mg4 Si1 2.801436 1_655
Mg4 Si5 2.865544 1_654
Mg4 Si5 2.865544 1_564
Mg4 Si6 2.992846 1_555
Mg4 Si9 3.070790 1_655
Mg4 Si9 3.070790 1_565
Mg4 Si10 3.073543 1_554
Mg5 Si0 2.807073 1_655
Mg5 Si0 2.807073 1_565
Mg5 Si4 2.880991 1_456
Mg5 Si4 2.880991 1_546
Mg5 Si11 2.942927 1_556
Mg5 Si8 3.073747 1_455
Mg5 Si8 3.073747 1_545
Mg5 Si7 3.114694 1_555
Mg6 Si2 2.725152 1_554
Mg6 Si6 2.879930 1_555
Mg6 Si3 2.928852 1_564
Mg6 Si3 2.928852 1_654
Mg7 Si2 2.820106 1_455
Mg7 Si2 2.820106 1_545
Mg7 Si10 2.966714 1_455
Mg7 Si10 2.966714 1_545
Mg7 Si6 2.976964 1_545
Mg7 Si6 2.976964 1_455
Mg8 Si0 2.821192 1_565
Mg8 Si0 2.821192 1_655
Mg8 Si5 2.882981 1_565
Mg8 Si5 2.882981 1_655
Mg8 Si1 2.911983 1_565
Mg8 Si1 2.911983 1_655
Mg8 Si9 2.953279 1_655
Mg8 Si9 2.953279 1_565
Mg9 Si1 2.845526 1_565
Mg9 Si1 2.845526 1_655
Mg9 Si4 2.890215 1_545
Mg9 Si4 2.890215 1_455
Mg9 Si0 2.925048 1_655
Mg9 Si0 2.925048 1_565
Mg9 Si8 2.927943 1_545
Mg9 Si8 2.927943 1_455
Si0 Si1 2.385611 1_555
Si0 Si8 2.420922 1_445
Si1 Si9 2.406180 1_555
Si2 Si3 2.587323 1_565
Si2 Si3 2.587323 1_655
Si3 Si7 2.550256 1_555
Si4 Si8 2.534434 1_555
Si5 Si9 2.565184 1_555
Si6 Si9 2.443025 1_565
Si6 Si9 2.443025 1_655
Si7 Si8 2.441548 1_455
Si7 Si8 2.441548 1_545
Si10 Si2 2.434525 1_555
Si10 Si5 2.497913 1_655
Si10 Si5 2.497913 1_565
Si10 Si6 2.501780 1_555
Si11 Si4 2.517121 1_545
Si11 Si4 2.517121 1_455
Si11 Si7 2.565825 1_555
