# generated using pymatgen
data_NdP2H2(WO3)2
_symmetry_space_group_name_H-M   'P 1'
_cell_length_a   6.67694000
_cell_length_b   7.21743500
_cell_length_c   19.19751600
_cell_angle_alpha   90.00000000
_cell_angle_beta   90.00000000
_cell_angle_gamma   90.00000000
_symmetry_Int_Tables_number   1
_chemical_formula_structural   NdP2H2(WO3)2
_chemical_formula_sum   'Nd4 P8 H8 W8 O24'
_cell_volume   925.13559971
_cell_formula_units_Z   4
loop_
 _symmetry_equiv_pos_site_id
 _symmetry_equiv_pos_as_xyz
  1  'x, y, z'
loop_
 _atom_site_type_symbol
 _atom_site_label
 _atom_site_symmetry_multiplicity
 _atom_site_fract_x
 _atom_site_fract_y
 _atom_site_fract_z
 _atom_site_occupancy
  Nd  Nd0  1  0.13719200  0.06948300  0.24281100  1
  Nd  Nd1  1  0.36280800  0.93051700  0.74281100  1
  Nd  Nd2  1  0.86280800  0.56948300  0.25718900  1
  Nd  Nd3  1  0.63719200  0.43051700  0.75718900  1
  P  P0  1  0.07141200  0.33934200  0.40720700  1
  P  P1  1  0.42858800  0.66065800  0.90720700  1
  P  P2  1  0.92858800  0.83934200  0.09279300  1
  P  P3  1  0.57141200  0.16065800  0.59279300  1
  P  P4  1  0.32584900  0.57783000  0.23735000  1
  P  P5  1  0.17415100  0.42217000  0.73735000  1
  P  P6  1  0.67415100  0.07783000  0.26265000  1
  P  P7  1  0.82584900  0.92217000  0.76265000  1
  H  H0  1  0.27102900  0.40160100  0.40024300  1
  H  H1  1  0.22897100  0.59839900  0.90024300  1
  H  H2  1  0.72897100  0.90160100  0.09975700  1
  H  H3  1  0.77102900  0.09839900  0.59975700  1
  H  H4  1  0.62822000  0.10890300  0.33400600  1
  H  H5  1  0.87178000  0.89109700  0.83400600  1
  H  H6  1  0.37178000  0.60890300  0.16599400  1
  H  H7  1  0.12822000  0.39109700  0.66599400  1
  W  W0  1  0.99057700  0.40606000  0.05324900  1
  W  W1  1  0.50942300  0.59394000  0.55324900  1
  W  W2  1  0.00942300  0.90606000  0.44675100  1
  W  W3  1  0.49057700  0.09394000  0.94675100  1
  W  W4  1  0.49518800  0.42929000  0.04779500  1
  W  W5  1  0.00481200  0.57071000  0.54779500  1
  W  W6  1  0.50481200  0.92929000  0.45220500  1
  W  W7  1  0.99518800  0.07071000  0.95220500  1
  O  O0  1  0.06472800  0.14216200  0.37202700  1
  O  O1  1  0.43527200  0.85783800  0.87202700  1
  O  O2  1  0.93527200  0.64216200  0.12797300  1
  O  O3  1  0.56472800  0.35783800  0.62797300  1
  O  O4  1  0.02615000  0.32372300  0.48550300  1
  O  O5  1  0.47385000  0.67627700  0.98550300  1
  O  O6  1  0.97385000  0.82372300  0.01449700  1
  O  O7  1  0.52615000  0.17627700  0.51449700  1
  O  O8  1  0.19046000  0.73953600  0.26246100  1
  O  O9  1  0.30954000  0.26046400  0.76246100  1
  O  O10  1  0.80954000  0.23953600  0.23753900  1
  O  O11  1  0.69046000  0.76046400  0.73753900  1
  O  O12  1  0.43483500  0.02401600  0.63131000  1
  O  O13  1  0.06516500  0.97598400  0.13131000  1
  O  O14  1  0.56516500  0.52401600  0.86869000  1
  O  O15  1  0.93483500  0.47598400  0.36869000  1
  O  O16  1  0.47976500  0.05728600  0.22257100  1
  O  O17  1  0.02023500  0.94271400  0.72257100  1
  O  O18  1  0.52023500  0.55728600  0.27742900  1
  O  O19  1  0.97976500  0.44271400  0.77742900  1
  O  O20  1  0.19058900  0.40252400  0.23888300  1
  O  O21  1  0.30941100  0.59747600  0.73888300  1
  O  O22  1  0.80941100  0.90252400  0.26111700  1
  O  O23  1  0.69058900  0.09747600  0.76111700  1
loop_
_geom_bond_atom_site_label_1
_geom_bond_atom_site_label_2
_geom_bond_distance
_geom_bond_site_symmetry_2
Nd0 O13 2.295341 1_545
Nd0 O16 2.321777 1_555
Nd0 O20 2.431169 1_555
Nd0 O8 2.437156 1_545
Nd0 O10 2.510520 1_455
Nd0 O22 2.522979 1_445
Nd0 O0 2.581233 1_555
Nd1 O12 2.295341 1_565
Nd1 O17 2.321777 1_555
Nd1 O21 2.431169 1_555
Nd1 O9 2.437156 1_565
Nd1 O11 2.510520 1_555
Nd1 O23 2.522979 1_565
Nd1 O1 2.581233 1_555
Nd2 O15 2.295341 1_555
Nd2 O18 2.321777 1_555
Nd2 O22 2.431169 1_555
Nd2 O10 2.437156 1_555
Nd2 O8 2.510520 1_655
Nd2 O20 2.522979 1_655
Nd2 O2 2.581233 1_555
Nd3 O14 2.295341 1_555
Nd3 O19 2.321777 1_555
Nd3 O23 2.431169 1_555
Nd3 O11 2.437156 1_555
Nd3 O9 2.510520 1_555
Nd3 O21 2.522979 1_555
Nd3 O3 2.581233 1_555
H0 P0 1.412879 1_555
H1 P1 1.412879 1_555
H2 P2 1.412879 1_555
H3 P3 1.412879 1_555
H4 P6 1.421569 1_555
H5 P7 1.421569 1_555
H6 P4 1.421569 1_555
H7 P5 1.421569 1_555
O0 P0 1.575888 1_555
O0 W2 2.257871 1_545
O1 P1 1.575888 1_555
O1 W3 2.257871 1_565
O2 P2 1.575888 1_555
O2 W0 2.257871 1_555
O3 P3 1.575888 1_555
O3 W1 2.257871 1_555
O4 P0 1.537308 1_555
O4 W5 2.151294 1_555
O5 P1 1.537308 1_555
O5 W4 2.151294 1_556
O6 P2 1.537308 1_555
O6 W7 2.151294 1_564
O7 P3 1.537308 1_555
O7 W6 2.151294 1_545
O8 P4 1.552967 1_555
O9 P5 1.552967 1_555
O10 P6 1.552967 1_555
O11 P7 1.552967 1_555
O12 P3 1.533281 1_555
O13 P2 1.533281 1_455
O14 P1 1.533281 1_555
O15 P0 1.533281 1_655
O16 P6 1.516094 1_555
O17 P7 1.516094 1_455
O18 P4 1.516094 1_555
O19 P5 1.516094 1_655
O20 P4 1.554792 1_555
O21 P5 1.554792 1_555
O22 P6 1.554792 1_565
O23 P7 1.554792 1_545
