# generated using pymatgen
data_Ga2Ru
_symmetry_space_group_name_H-M   'P 1'
_cell_length_a   4.72783286
_cell_length_b   4.72783286
_cell_length_c   4.94625742
_cell_angle_alpha   103.82268972
_cell_angle_beta   103.82268972
_cell_angle_gamma   120.01332558
_symmetry_Int_Tables_number   1
_chemical_formula_structural   Ga2Ru
_chemical_formula_sum   'Ga4 Ru2'
_cell_volume   84.09379009
_cell_formula_units_Z   2
loop_
 _symmetry_equiv_pos_site_id
 _symmetry_equiv_pos_as_xyz
  1  'x, y, z'
loop_
 _atom_site_type_symbol
 _atom_site_label
 _atom_site_symmetry_multiplicity
 _atom_site_fract_x
 _atom_site_fract_y
 _atom_site_fract_z
 _atom_site_occupancy
  Ga  Ga0  1  0.08086160  0.91913840  0.50000000  1
  Ga  Ga1  1  0.41909077  0.58090923  0.50000000  1
  Ga  Ga2  1  0.66913840  0.33086160  -0.00000000  1
  Ga  Ga3  1  0.33090823  0.66909177  0.00000000  1
  Ru  Ru0  1  0.74999573  0.25000427  0.50000000  1
  Ru  Ru1  1  0.00000427  0.99999573  0.00000000  1
loop_
_geom_bond_atom_site_label_1
_geom_bond_atom_site_label_2
_geom_bond_distance
_geom_bond_site_symmetry_2
Ga0 Ru1 2.560242 1_555
Ga0 Ru1 2.560242 1_556
Ga0 Ga2 2.576380 1_566
Ga0 Ga2 2.576380 1_455
Ga0 Ga1 2.709421 1_565
Ga0 Ga1 2.709421 1_455
Ga0 Ru0 2.709592 1_465
Ga0 Ru0 2.739410 1_455
Ga0 Ru0 2.739410 1_565
Ga0 Ga1 2.769893 1_555
Ga1 Ru1 2.560114 1_656
Ga1 Ru1 2.560114 1_545
Ga1 Ga3 2.576409 1_555
Ga1 Ga3 2.576409 1_556
Ga1 Ru0 2.709912 1_555
Ga1 Ru0 2.739249 1_455
Ga1 Ru0 2.739249 1_565
Ga2 Ru0 2.560242 1_554
Ga2 Ru0 2.560242 1_555
Ga2 Ga3 2.709417 1_655
Ga2 Ga3 2.709417 1_545
Ga2 Ru1 2.709592 1_645
Ga2 Ru1 2.739410 1_545
Ga2 Ru1 2.739410 1_655
Ga2 Ga3 2.769901 1_555
Ga3 Ru0 2.560111 1_565
Ga3 Ru0 2.560111 1_454
Ga3 Ru1 2.709904 1_555
Ga3 Ru1 2.739253 1_655
Ga3 Ru1 2.739253 1_545
