# generated using pymatgen
data_TbHSO5
_symmetry_space_group_name_H-M   'P 1'
_cell_length_a   8.07615159
_cell_length_b   8.26677665
_cell_length_c   10.99300700
_cell_angle_alpha   90.00000000
_cell_angle_beta   90.00000000
_cell_angle_gamma   93.97978889
_symmetry_Int_Tables_number   1
_chemical_formula_structural   TbHSO5
_chemical_formula_sum   'Tb8 H8 S8 O40'
_cell_volume   732.16446315
_cell_formula_units_Z   8
loop_
 _symmetry_equiv_pos_site_id
 _symmetry_equiv_pos_as_xyz
  1  'x, y, z'
loop_
 _atom_site_type_symbol
 _atom_site_label
 _atom_site_symmetry_multiplicity
 _atom_site_fract_x
 _atom_site_fract_y
 _atom_site_fract_z
 _atom_site_occupancy
  Tb  Tb0  1  0.83833300  0.62585200  0.06103900  1
  Tb  Tb1  1  0.33833300  0.12585200  0.43896100  1
  Tb  Tb2  1  0.16166700  0.37414800  0.93896100  1
  Tb  Tb3  1  0.66166700  0.87414800  0.56103900  1
  Tb  Tb4  1  0.81112400  0.09013700  0.07474000  1
  Tb  Tb5  1  0.31112400  0.59013700  0.42526000  1
  Tb  Tb6  1  0.18887600  0.90986300  0.92526000  1
  Tb  Tb7  1  0.68887600  0.40986300  0.57474000  1
  H  H0  1  0.84153400  0.87098700  0.87618400  1
  H  H1  1  0.34153400  0.37098700  0.62381600  1
  H  H2  1  0.15846600  0.12901300  0.12381600  1
  H  H3  1  0.65846600  0.62901300  0.37618400  1
  H  H4  1  0.18857900  0.64765100  0.09141200  1
  H  H5  1  0.68857900  0.14765100  0.40858800  1
  H  H6  1  0.81142100  0.35234900  0.90858800  1
  H  H7  1  0.31142100  0.85234900  0.59141200  1
  S  S0  1  0.95776300  0.36559300  0.30954100  1
  S  S1  1  0.45776300  0.86559300  0.19045900  1
  S  S2  1  0.04223700  0.63440700  0.69045900  1
  S  S3  1  0.54223700  0.13440700  0.80954100  1
  S  S4  1  0.50017500  0.36571600  0.17185500  1
  S  S5  1  0.00017500  0.86571600  0.32814500  1
  S  S6  1  0.49982500  0.63428400  0.82814500  1
  S  S7  1  0.99982500  0.13428400  0.67185500  1
  O  O0  1  0.35699500  0.40134400  0.09470200  1
  O  O1  1  0.85699500  0.90134400  0.40529800  1
  O  O2  1  0.64300500  0.59865600  0.90529800  1
  O  O3  1  0.14300500  0.09865600  0.59470200  1
  O  O4  1  0.57287300  0.21760600  0.12882800  1
  O  O5  1  0.07287300  0.71760600  0.37117200  1
  O  O6  1  0.42712700  0.78239400  0.87117200  1
  O  O7  1  0.92712700  0.28239400  0.62882800  1
  O  O8  1  0.62839800  0.50231400  0.17211000  1
  O  O9  1  0.12839800  0.00231400  0.32789000  1
  O  O10  1  0.37160200  0.49768600  0.82789000  1
  O  O11  1  0.87160200  0.99768600  0.67211000  1
  O  O12  1  0.43949300  0.34458500  0.30107300  1
  O  O13  1  0.93949300  0.84458500  0.19892700  1
  O  O14  1  0.56050700  0.65541500  0.69892700  1
  O  O15  1  0.06050700  0.15541500  0.80107300  1
  O  O16  1  0.83871500  0.42953700  0.39671700  1
  O  O17  1  0.33871600  0.92953700  0.10328300  1
  O  O18  1  0.16128400  0.57046300  0.60328300  1
  O  O19  1  0.66128500  0.07046300  0.89671700  1
  O  O20  1  0.12078200  0.35019400  0.37216500  1
  O  O21  1  0.62078200  0.85019400  0.12783500  1
  O  O22  1  0.87921800  0.64980600  0.62783500  1
  O  O23  1  0.37921800  0.14980600  0.87216500  1
  O  O24  1  0.98666600  0.47735800  0.20507200  1
  O  O25  1  0.48666600  0.97735800  0.29492800  1
  O  O26  1  0.01333400  0.52264200  0.79492800  1
  O  O27  1  0.51333400  0.02264200  0.70507200  1
  O  O28  1  0.88720400  0.20617100  0.26390400  1
  O  O29  1  0.38720400  0.70617100  0.23609600  1
  O  O30  1  0.11279600  0.79382900  0.73609600  1
  O  O31  1  0.61279600  0.29382900  0.76390400  1
  O  O32  1  0.90054700  0.86881500  0.95371100  1
  O  O33  1  0.40054700  0.36881500  0.54628900  1
  O  O34  1  0.09945300  0.13118500  0.04628900  1
  O  O35  1  0.59945300  0.63118500  0.45371100  1
  O  O36  1  0.12783500  0.64384200  0.01405900  1
  O  O37  1  0.62783500  0.14384200  0.48594100  1
  O  O38  1  0.87216500  0.35615800  0.98594100  1
  O  O39  1  0.37216500  0.85615800  0.51405900  1
loop_
_geom_bond_atom_site_label_1
_geom_bond_atom_site_label_2
_geom_bond_distance
_geom_bond_site_symmetry_2
H0 O32 0.977238 1_555
H1 O33 0.977238 1_555
H2 O34 0.977238 1_555
H3 O35 0.977238 1_555
H4 O36 0.981119 1_555
H5 O37 0.981119 1_555
H6 O38 0.981119 1_555
H7 O39 0.981119 1_555
O0 S4 1.480034 1_555
O0 Tb2 2.328298 1_554
O1 S5 1.480034 1_655
O1 Tb3 2.328298 1_555
O2 S6 1.480034 1_555
O2 Tb0 2.328298 1_556
O3 S7 1.480034 1_455
O3 Tb1 2.328298 1_555
O4 S4 1.472195 1_555
O4 Tb4 2.334041 1_555
O5 S5 1.472195 1_555
O5 Tb5 2.334041 1_555
O6 S6 1.472195 1_555
O6 Tb6 2.334041 1_555
O7 S7 1.472195 1_555
O7 Tb7 2.334041 1_555
O8 S4 1.478242 1_555
O8 Tb0 2.273342 1_555
O9 S5 1.478242 1_545
O9 Tb1 2.273342 1_555
O10 S6 1.478242 1_555
O10 Tb2 2.273342 1_555
O11 S7 1.478242 1_565
O11 Tb3 2.273342 1_555
O12 S4 1.508844 1_555
O12 Tb1 2.455547 1_555
O12 Tb5 2.711320 1_555
O13 S5 1.508844 1_655
O13 Tb0 2.455547 1_555
O13 Tb4 2.711320 1_565
O14 S6 1.508844 1_555
O14 Tb3 2.455547 1_555
O14 Tb7 2.711320 1_555
O15 S7 1.508844 1_455
O15 Tb2 2.455547 1_555
O15 Tb6 2.711320 1_545
O16 S0 1.480794 1_555
O16 Tb7 2.300741 1_555
O17 S1 1.480789 1_555
O17 Tb6 2.300745 1_554
O18 S2 1.480789 1_555
O18 Tb5 2.300745 1_555
O19 S3 1.480794 1_555
O19 Tb4 2.300741 1_556
O20 S0 1.498915 1_455
O20 Tb5 2.492988 1_555
O20 Tb1 2.741885 1_555
O21 S1 1.498915 1_555
O21 Tb4 2.492988 1_565
O21 Tb0 2.741885 1_555
O22 S2 1.498915 1_655
O22 Tb7 2.492988 1_555
O22 Tb3 2.741885 1_555
O23 S3 1.498915 1_555
O23 Tb6 2.492988 1_545
O23 Tb2 2.741885 1_555
O24 S0 1.482261 1_555
O24 Tb0 2.377640 1_555
O25 S1 1.482261 1_555
O25 Tb1 2.377640 1_565
O26 S2 1.482261 1_555
O26 Tb2 2.377640 1_555
O27 S3 1.482261 1_555
O27 Tb3 2.377640 1_545
O28 S0 1.486286 1_555
O28 Tb4 2.353737 1_555
O29 S1 1.486286 1_555
O29 Tb5 2.353737 1_555
O30 S2 1.486286 1_555
O30 Tb6 2.353737 1_555
O31 S3 1.486286 1_555
O31 Tb7 2.353737 1_555
O32 Tb6 2.350662 1_655
O32 Tb0 2.353421 1_556
O32 Tb4 2.413015 1_566
O33 Tb7 2.350662 1_555
O33 Tb1 2.353421 1_555
O33 Tb5 2.413015 1_555
O34 Tb4 2.350662 1_455
O34 Tb2 2.353421 1_554
O34 Tb6 2.413015 1_544
O35 Tb5 2.350662 1_555
O35 Tb3 2.353421 1_555
O35 Tb7 2.413015 1_555
O36 Tb0 2.388955 1_455
O36 Tb2 2.410689 1_554
O36 Tb6 2.425210 1_554
O37 Tb1 2.388955 1_555
O37 Tb3 2.410689 1_545
O37 Tb7 2.425210 1_555
O38 Tb2 2.388955 1_655
O38 Tb0 2.410689 1_556
O38 Tb4 2.425210 1_556
O39 Tb3 2.388955 1_555
O39 Tb1 2.410689 1_565
O39 Tb5 2.425210 1_555
