# generated using pymatgen
data_V2PbN4
_symmetry_space_group_name_H-M   'P 1'
_cell_length_a   10.63563935
_cell_length_b   10.63563935
_cell_length_c   10.63563935
_cell_angle_alpha   90.00000000
_cell_angle_beta   90.00000000
_cell_angle_gamma   90.00000000
_symmetry_Int_Tables_number   1
_chemical_formula_structural   V2PbN4
_chemical_formula_sum   'V24 Pb12 N48'
_cell_volume   1203.06974856
_cell_formula_units_Z   12
loop_
 _symmetry_equiv_pos_site_id
 _symmetry_equiv_pos_as_xyz
  1  'x, y, z'
loop_
 _atom_site_type_symbol
 _atom_site_label
 _atom_site_symmetry_multiplicity
 _atom_site_fract_x
 _atom_site_fract_y
 _atom_site_fract_z
 _atom_site_occupancy
  V  V0  1  0.37833314  0.70252046  0.35825127  1
  V  V1  1  0.62166686  0.20252046  0.14174873  1
  V  V2  1  0.12166686  0.29747954  0.85825127  1
  V  V3  1  0.87833314  0.79747954  0.64174873  1
  V  V4  1  0.35825127  0.37833314  0.70252046  1
  V  V5  1  0.14174873  0.62166686  0.20252046  1
  V  V6  1  0.85825127  0.12166686  0.29747954  1
  V  V7  1  0.64174873  0.87833314  0.79747954  1
  V  V8  1  0.70252046  0.35825127  0.37833314  1
  V  V9  1  0.20252046  0.14174873  0.62166686  1
  V  V10  1  0.29747954  0.85825127  0.12166686  1
  V  V11  1  0.79747954  0.64174873  0.87833314  1
  V  V12  1  0.62166686  0.29747954  0.64174873  1
  V  V13  1  0.37833314  0.79747954  0.85825127  1
  V  V14  1  0.87833314  0.70252046  0.14174873  1
  V  V15  1  0.12166686  0.20252046  0.35825127  1
  V  V16  1  0.64174873  0.62166686  0.29747954  1
  V  V17  1  0.85825127  0.37833314  0.79747954  1
  V  V18  1  0.14174873  0.87833314  0.70252046  1
  V  V19  1  0.35825127  0.12166686  0.20252046  1
  V  V20  1  0.29747954  0.64174873  0.62166686  1
  V  V21  1  0.79747954  0.85825127  0.37833314  1
  V  V22  1  0.70252046  0.14174873  0.87833314  1
  V  V23  1  0.20252046  0.35825127  0.12166686  1
  Pb  Pb0  1  0.50000000  0.50000000  -0.00000000  1
  Pb  Pb1  1  0.50000000  0.00000000  0.50000000  1
  Pb  Pb2  1  0.00000000  0.50000000  0.50000000  1
  Pb  Pb3  1  0.00000000  0.00000000  -0.00000000  1
  Pb  Pb4  1  0.12210925  0.87789075  0.37789075  1
  Pb  Pb5  1  0.87789075  0.37789075  0.12210925  1
  Pb  Pb6  1  0.37789075  0.12210925  0.87789075  1
  Pb  Pb7  1  0.62210925  0.62210925  0.62210925  1
  Pb  Pb8  1  0.87789075  0.12210925  0.62210925  1
  Pb  Pb9  1  0.12210925  0.62210925  0.87789075  1
  Pb  Pb10  1  0.62210925  0.87789075  0.12210925  1
  Pb  Pb11  1  0.37789075  0.37789075  0.37789075  1
  N  N0  1  0.35867367  0.85696097  0.27923264  1
  N  N1  1  0.64132633  0.35696097  0.22076736  1
  N  N2  1  0.14132633  0.14303903  0.77923264  1
  N  N3  1  0.85867367  0.64303903  0.72076736  1
  N  N4  1  0.27923264  0.35867367  0.85696097  1
  N  N5  1  0.22076736  0.64132633  0.35696097  1
  N  N6  1  0.77923264  0.14132633  0.14303903  1
  N  N7  1  0.72076736  0.85867367  0.64303903  1
  N  N8  1  0.85696097  0.27923264  0.35867367  1
  N  N9  1  0.35696097  0.22076736  0.64132633  1
  N  N10  1  0.14303903  0.77923264  0.14132633  1
  N  N11  1  0.64303903  0.72076736  0.85867367  1
  N  N12  1  0.64132633  0.14303903  0.72076736  1
  N  N13  1  0.35867367  0.64303903  0.77923264  1
  N  N14  1  0.85867367  0.85696097  0.22076736  1
  N  N15  1  0.14132633  0.35696097  0.27923264  1
  N  N16  1  0.72076736  0.64132633  0.14303903  1
  N  N17  1  0.77923264  0.35867367  0.64303903  1
  N  N18  1  0.22076736  0.85867367  0.85696097  1
  N  N19  1  0.27923264  0.14132633  0.35696097  1
  N  N20  1  0.14303903  0.72076736  0.64132633  1
  N  N21  1  0.64303903  0.77923264  0.35867367  1
  N  N22  1  0.85696097  0.22076736  0.85867367  1
  N  N23  1  0.35696097  0.27923264  0.14132633  1
  N  N24  1  0.41465932  0.72107224  0.52367736  1
  N  N25  1  0.58534068  0.22107224  0.97632264  1
  N  N26  1  0.08534068  0.27892776  0.02367736  1
  N  N27  1  0.91465932  0.77892776  0.47632264  1
  N  N28  1  0.52367736  0.41465932  0.72107224  1
  N  N29  1  0.97632264  0.58534068  0.22107224  1
  N  N30  1  0.02367736  0.08534068  0.27892776  1
  N  N31  1  0.47632264  0.91465932  0.77892776  1
  N  N32  1  0.72107224  0.52367736  0.41465932  1
  N  N33  1  0.22107224  0.97632264  0.58534068  1
  N  N34  1  0.27892776  0.02367736  0.08534068  1
  N  N35  1  0.77892776  0.47632264  0.91465932  1
  N  N36  1  0.58534068  0.27892776  0.47632264  1
  N  N37  1  0.41465932  0.77892776  0.02367736  1
  N  N38  1  0.91465932  0.72107224  0.97632264  1
  N  N39  1  0.08534068  0.22107224  0.52367736  1
  N  N40  1  0.47632264  0.58534068  0.27892776  1
  N  N41  1  0.02367736  0.41465932  0.77892776  1
  N  N42  1  0.97632264  0.91465932  0.72107224  1
  N  N43  1  0.52367736  0.08534068  0.22107224  1
  N  N44  1  0.27892776  0.47632264  0.58534068  1
  N  N45  1  0.77892776  0.02367736  0.41465932  1
  N  N46  1  0.72107224  0.97632264  0.91465932  1
  N  N47  1  0.22107224  0.52367736  0.08534068  1
loop_
_geom_bond_atom_site_label_1
_geom_bond_atom_site_label_2
_geom_bond_distance
_geom_bond_site_symmetry_2
N0 V10 1.797812 1_555
N0 V0 1.856896 1_555
N0 Pb4 2.735122 1_555
N1 V8 1.797812 1_555
N1 V1 1.856896 1_555
N1 Pb5 2.735122 1_555
N2 V9 1.797812 1_555
N2 V2 1.856896 1_555
N2 Pb6 2.735122 1_555
N3 V11 1.797812 1_555
N3 V3 1.856896 1_555
N3 Pb7 2.735122 1_555
N4 V2 1.797812 1_555
N4 V4 1.856896 1_555
N4 Pb6 2.735122 1_555
N5 V0 1.797812 1_555
N5 V5 1.856896 1_555
N5 Pb4 2.735122 1_555
N6 V1 1.797812 1_555
N6 V6 1.856896 1_555
N6 Pb5 2.735122 1_555
N7 V3 1.797812 1_555
N7 V7 1.856896 1_555
N7 Pb7 2.735122 1_555
N8 V6 1.797812 1_555
N8 V8 1.856896 1_555
N8 Pb5 2.735122 1_555
N9 V4 1.797812 1_555
N9 V9 1.856896 1_555
N9 Pb6 2.735122 1_555
N10 V5 1.797812 1_555
N10 V10 1.856896 1_555
N10 Pb4 2.735122 1_555
N11 V7 1.797812 1_555
N11 V11 1.856896 1_555
N11 Pb7 2.735122 1_555
N12 V22 1.797812 1_555
N12 V12 1.856896 1_555
N12 Pb8 2.735122 1_555
N13 V20 1.797812 1_555
N13 V13 1.856896 1_555
N13 Pb9 2.735122 1_555
N14 V21 1.797812 1_555
N14 V14 1.856896 1_555
N14 Pb10 2.735122 1_555
N15 V23 1.797812 1_555
N15 V15 1.856896 1_555
N15 Pb11 2.735122 1_555
N16 V14 1.797812 1_555
N16 V16 1.856896 1_555
N16 Pb10 2.735122 1_555
N17 V12 1.797812 1_555
N17 V17 1.856896 1_555
N17 Pb8 2.735122 1_555
N18 V13 1.797812 1_555
N18 V18 1.856896 1_555
N18 Pb9 2.735122 1_555
N19 V15 1.797812 1_555
N19 V19 1.856896 1_555
N19 Pb11 2.735122 1_555
N20 V18 1.797812 1_555
N20 V20 1.856896 1_555
N20 Pb9 2.735122 1_555
N21 V16 1.797812 1_555
N21 V21 1.856896 1_555
N21 Pb10 2.735122 1_555
N22 V17 1.797812 1_555
N22 V22 1.856896 1_555
N22 Pb8 2.735122 1_555
N23 V19 1.797812 1_555
N23 V23 1.856896 1_555
N23 Pb11 2.735122 1_555
N24 V0 1.812107 1_555
N24 V20 1.830605 1_555
N24 Pb7 2.659292 1_555
N25 V1 1.812107 1_556
N25 V22 1.830605 1_555
N25 Pb6 2.659292 1_555
N26 V2 1.812107 1_554
N26 V23 1.830605 1_555
N26 Pb5 2.659292 1_455
N27 V3 1.812107 1_555
N27 V21 1.830605 1_555
N27 Pb4 2.659292 1_655
N28 V4 1.812107 1_555
N28 V12 1.830605 1_555
N28 Pb7 2.659292 1_555
N29 V5 1.812107 1_655
N29 V14 1.830605 1_555
N29 Pb5 2.659292 1_555
N30 V6 1.812107 1_455
N30 V15 1.830605 1_555
N30 Pb4 2.659292 1_545
N31 V7 1.812107 1_555
N31 V13 1.830605 1_555
N31 Pb6 2.659292 1_565
N32 V8 1.812107 1_555
N32 V16 1.830605 1_555
N32 Pb7 2.659292 1_555
N33 V9 1.812107 1_565
N33 V18 1.830605 1_555
N33 Pb4 2.659292 1_555
N34 V10 1.812107 1_545
N34 V19 1.830605 1_555
N34 Pb6 2.659292 1_554
N35 V11 1.812107 1_555
N35 V17 1.830605 1_555
N35 Pb5 2.659292 1_556
N36 V12 1.812107 1_555
N36 V8 1.830605 1_555
N36 Pb11 2.659292 1_555
N37 V13 1.812107 1_554
N37 V10 1.830605 1_555
N37 Pb10 2.659292 1_555
N38 V14 1.812107 1_556
N38 V11 1.830605 1_555
N38 Pb9 2.659292 1_655
N39 V15 1.812107 1_555
N39 V9 1.830605 1_555
N39 Pb8 2.659292 1_455
N40 V16 1.812107 1_555
N40 V0 1.830605 1_555
N40 Pb11 2.659292 1_555
N41 V17 1.812107 1_455
N41 V2 1.830605 1_555
N41 Pb9 2.659292 1_555
N42 V18 1.812107 1_655
N42 V3 1.830605 1_555
N42 Pb8 2.659292 1_565
N43 V19 1.812107 1_555
N43 V1 1.830605 1_555
N43 Pb10 2.659292 1_545
N44 V20 1.812107 1_555
N44 V4 1.830605 1_555
N44 Pb11 2.659292 1_555
N45 V21 1.812107 1_545
N45 V6 1.830605 1_555
N45 Pb8 2.659292 1_555
N46 V22 1.812107 1_565
N46 V7 1.830605 1_555
N46 Pb10 2.659292 1_556
N47 V23 1.812107 1_555
N47 V5 1.830605 1_555
N47 Pb9 2.659292 1_554
