# generated using pymatgen
data_Mg2SbWO6
_symmetry_space_group_name_H-M   'P 1'
_cell_length_a   5.54255200
_cell_length_b   5.67136561
_cell_length_c   5.81775563
_cell_angle_alpha   118.83095703
_cell_angle_beta   92.79867851
_cell_angle_gamma   99.13059096
_symmetry_Int_Tables_number   1
_chemical_formula_structural   Mg2SbWO6
_chemical_formula_sum   'Mg2 Sb1 W1 O6'
_cell_volume   156.50664930
_cell_formula_units_Z   1
loop_
 _symmetry_equiv_pos_site_id
 _symmetry_equiv_pos_as_xyz
  1  'x, y, z'
loop_
 _atom_site_type_symbol
 _atom_site_label
 _atom_site_symmetry_multiplicity
 _atom_site_fract_x
 _atom_site_fract_y
 _atom_site_fract_z
 _atom_site_occupancy
  Mg  Mg0  1  0.02899800  0.38785900  0.35165600  1
  Mg  Mg1  1  0.60471000  0.88441700  0.27967600  1
  Sb  Sb0  1  0.44697000  0.60380600  0.83950900  1
  W  W0  1  0.05945900  0.96328600  0.05982600  1
  O  O0  1  0.77891700  0.67349700  0.18259900  1
  O  O1  1  0.39116000  0.19885400  0.04261000  1
  O  O2  1  0.92872100  0.10215500  0.25173700  1
  O  O3  1  0.94309200  0.16654200  0.71403400  1
  O  O4  1  0.28583300  0.67891900  0.44181400  1
  O  O5  1  0.19572200  0.67266200  0.99078400  1
loop_
_geom_bond_atom_site_label_1
_geom_bond_atom_site_label_2
_geom_bond_distance
_geom_bond_site_symmetry_2
Mg0 O2 1.430561 1_455
Mg0 O4 1.836475 1_555
Mg1 O0 1.565378 1_555
Mg1 O2 2.072359 1_565
Mg1 O4 2.437434 1_555
Mg1 O3 2.673674 1_565
O1 W0 2.131290 1_545
O2 W0 1.343119 1_645
O3 W0 2.852664 1_646
O4 Sb0 2.683622 1_555
O5 Sb0 1.681385 1_555
O5 W0 1.798497 1_556
