# generated using pymatgen
data_MgFeF5
_symmetry_space_group_name_H-M   'P 1'
_cell_length_a   9.73625900
_cell_length_b   5.19165100
_cell_length_c   7.46250730
_cell_angle_alpha   70.20295564
_cell_angle_beta   90.00000000
_cell_angle_gamma   90.00000000
_symmetry_Int_Tables_number   1
_chemical_formula_structural   MgFeF5
_chemical_formula_sum   'Mg4 Fe4 F20'
_cell_volume   354.91555559
_cell_formula_units_Z   4
loop_
 _symmetry_equiv_pos_site_id
 _symmetry_equiv_pos_as_xyz
  1  'x, y, z'
loop_
 _atom_site_type_symbol
 _atom_site_label
 _atom_site_symmetry_multiplicity
 _atom_site_fract_x
 _atom_site_fract_y
 _atom_site_fract_z
 _atom_site_occupancy
  Mg  Mg0  1  0.01130200  0.52129800  0.75521200  1
  Mg  Mg1  1  0.51130200  0.47870200  0.74478800  1
  Mg  Mg2  1  0.98869800  0.47870200  0.24478800  1
  Mg  Mg3  1  0.48869800  0.52129800  0.25521200  1
  Fe  Fe0  1  0.75494700  0.10173300  0.60365100  1
  Fe  Fe1  1  0.25494700  0.89826700  0.89634900  1
  Fe  Fe2  1  0.24505300  0.89826700  0.39634900  1
  Fe  Fe3  1  0.74505300  0.10173300  0.10365100  1
  F  F0  1  0.88935900  0.39125000  0.58385300  1
  F  F1  1  0.38935900  0.60875000  0.91614700  1
  F  F2  1  0.11064100  0.60875000  0.41614700  1
  F  F3  1  0.61064100  0.39125000  0.08385300  1
  F  F4  1  0.60499400  0.35505600  0.49173400  1
  F  F5  1  0.10499400  0.64494400  0.00826600  1
  F  F6  1  0.39500600  0.64494400  0.50826600  1
  F  F7  1  0.89500600  0.35505600  0.99173400  1
  F  F8  1  0.40285500  0.14616600  0.80315900  1
  F  F9  1  0.90285500  0.85383400  0.69684100  1
  F  F10  1  0.59714500  0.85383400  0.19684100  1
  F  F11  1  0.09714500  0.14616600  0.30315900  1
  F  F12  1  0.13520100  0.20834100  0.84362100  1
  F  F13  1  0.63520100  0.79165900  0.65637900  1
  F  F14  1  0.86479900  0.79165900  0.15637900  1
  F  F15  1  0.36479900  0.20834100  0.34362100  1
  F  F16  1  0.68296300  0.17506200  0.83486900  1
  F  F17  1  0.18296300  0.82493800  0.66513100  1
  F  F18  1  0.31703700  0.82493800  0.16513100  1
  F  F19  1  0.81703700  0.17506200  0.33486900  1
loop_
_geom_bond_atom_site_label_1
_geom_bond_atom_site_label_2
_geom_bond_distance
_geom_bond_site_symmetry_2
F0 Fe0 1.960419 1_555
F0 Mg0 2.021270 1_655
F0 Mg2 2.601098 1_555
F1 Fe1 1.960419 1_555
F1 Mg1 2.021270 1_555
F1 Mg3 2.601098 1_556
F2 Fe2 1.960419 1_555
F2 Mg2 2.021270 1_455
F2 Mg0 2.601098 1_555
F3 Fe3 1.960419 1_555
F3 Mg3 2.021270 1_555
F3 Mg1 2.601098 1_554
F4 Fe0 1.953125 1_555
F4 Mg3 2.027429 1_555
F4 Mg1 2.373068 1_555
F5 Fe1 1.953125 1_554
F5 Mg2 2.027429 1_455
F5 Mg0 2.373068 1_554
F6 Fe2 1.953125 1_555
F6 Mg1 2.027429 1_555
F6 Mg3 2.373068 1_555
F7 Fe3 1.953125 1_556
F7 Mg0 2.027429 1_655
F7 Mg2 2.373068 1_556
F8 Fe1 1.899353 1_545
F8 Mg1 1.943115 1_555
F9 Fe0 1.899353 1_565
F9 Mg0 1.943115 1_655
F10 Fe3 1.899353 1_565
F10 Mg3 1.943115 1_555
F11 Fe2 1.899353 1_545
F11 Mg2 1.943115 1_455
F12 Fe1 1.917413 1_545
F12 Mg0 1.950438 1_555
F13 Fe0 1.917413 1_565
F13 Mg1 1.950438 1_555
F14 Fe3 1.917413 1_565
F14 Mg2 1.950438 1_555
F15 Fe2 1.917413 1_545
F15 Mg3 1.950438 1_555
F16 Fe3 2.004075 1_556
F16 Fe0 2.014527 1_555
F16 Mg1 2.238851 1_555
F17 Fe2 2.004075 1_555
F17 Fe1 2.014527 1_555
F17 Mg0 2.238851 1_555
F18 Fe1 2.004075 1_554
F18 Fe2 2.014527 1_555
F18 Mg3 2.238851 1_555
F19 Fe0 2.004075 1_555
F19 Fe3 2.014527 1_555
F19 Mg2 2.238851 1_555
