# generated using pymatgen
data_Ba11W4O23
_symmetry_space_group_name_H-M   'P 1'
_cell_length_a   12.53655636
_cell_length_b   12.68726473
_cell_length_c   12.58846005
_cell_angle_alpha   60.58159791
_cell_angle_beta   58.53443568
_cell_angle_gamma   59.19497748
_symmetry_Int_Tables_number   1
_chemical_formula_structural   Ba11W4O23
_chemical_formula_sum   'Ba22 W8 O46'
_cell_volume   1396.71898367
_cell_formula_units_Z   2
loop_
 _symmetry_equiv_pos_site_id
 _symmetry_equiv_pos_as_xyz
  1  'x, y, z'
loop_
 _atom_site_type_symbol
 _atom_site_label
 _atom_site_symmetry_multiplicity
 _atom_site_fract_x
 _atom_site_fract_y
 _atom_site_fract_z
 _atom_site_occupancy
  Ba  Ba0  1  0.23471863  0.20789110  0.24378592  1
  Ba  Ba1  1  0.13911298  0.15812764  0.60130419  1
  Ba  Ba2  1  0.13926082  0.59957697  0.15624559  1
  Ba  Ba3  1  0.60122197  0.16514542  0.14438624  1
  Ba  Ba4  1  0.35498638  0.38981867  0.37734950  1
  Ba  Ba5  1  0.12956912  0.57758938  0.63283796  1
  Ba  Ba6  1  0.19638393  0.80082188  0.29816638  1
  Ba  Ba7  1  0.24624579  0.22751478  0.79024294  1
  Ba  Ba8  1  0.06715993  0.79672364  0.77898533  1
  Ba  Ba9  1  0.62828252  0.15262289  0.54763522  1
  Ba  Ba10  1  0.62081112  0.55788964  0.15661789  1
  Ba  Ba11  1  0.34801438  0.43965537  0.86799584  1
  Ba  Ba12  1  0.36671850  0.83261710  0.45557860  1
  Ba  Ba13  1  0.98971402  0.17315826  0.17657474  1
  Ba  Ba14  1  0.73376880  0.75942052  0.22711553  1
  Ba  Ba15  1  0.85192621  0.40019115  0.37942077  1
  Ba  Ba16  1  0.74961101  0.18643586  0.75765609  1
  Ba  Ba17  1  0.62797690  0.59198114  0.63945173  1
  Ba  Ba18  1  0.37982530  0.83842376  0.84496568  1
  Ba  Ba19  1  0.83147288  0.86084430  0.38764938  1
  Ba  Ba20  1  0.84570222  0.38496891  0.85945910  1
  Ba  Ba21  1  0.76672585  0.78802295  0.74271318  1
  W  W0  1  0.97735902  0.00577956  0.01280620  1
  W  W1  1  0.45589375  0.99833563  0.01782052  1
  W  W2  1  0.48461761  0.00014788  0.50220159  1
  W  W3  1  0.48777884  0.50444606  0.00519225  1
  W  W4  1  0.48134066  0.49837415  0.51548708  1
  W  W5  1  0.98689803  0.50262869  0.00405309  1
  W  W6  1  0.98795542  0.49939413  0.50351086  1
  W  W7  1  0.96651638  0.02437478  0.51104862  1
  O  O0  1  0.11916893  0.38392998  0.39218222  1
  O  O1  1  0.50538599  0.12961577  0.97901247  1
  O  O2  1  0.08424848  0.38570765  0.63042865  1
  O  O3  1  0.10810150  0.59989021  0.40636835  1
  O  O4  1  0.36828685  0.39958158  0.10357766  1
  O  O5  1  0.37612093  0.10228797  0.38945369  1
  O  O6  1  0.36255814  0.61812282  0.11745388  1
  O  O7  1  0.37156041  0.12428458  0.60321724  1
  O  O8  1  0.57948019  0.38636201  0.13110027  1
  O  O9  1  0.60268150  0.10049502  0.37861854  1
  O  O10  1  0.38420426  0.37874584  0.59566323  1
  O  O11  1  0.38423722  0.60802149  0.39190028  1
  O  O12  1  0.33153700  0.60950182  0.63234567  1
  O  O13  1  0.61756797  0.40055621  0.39421959  1
  O  O14  1  0.09796985  0.89915389  0.91102019  1
  O  O15  1  0.51301839  0.85955505  0.14585160  1
  O  O16  1  0.56225137  0.40139791  0.64809064  1
  O  O17  1  0.58368826  0.61396055  0.43332199  1
  O  O18  1  0.35787847  0.90577419  0.62461470  1
  O  O19  1  0.39131342  0.61691781  0.88221408  1
  O  O20  1  0.88209495  0.41018445  0.03301761  1
  O  O21  1  0.88659806  0.02138073  0.41242835  1
  O  O22  1  0.80838371  0.98099614  0.69510896  1
  O  O23  1  0.81076533  0.19145051  0.53541258  1
  O  O24  1  0.82886363  0.58154863  0.13456330  1
  O  O25  1  0.02691383  0.02861692  0.62403086  1
  O  O26  1  0.05857663  0.36516405  0.13594840  1
  O  O27  1  0.02047300  0.17379804  0.36311420  1
  O  O28  1  0.08777028  0.59546373  0.98326798  1
  O  O29  1  0.60777242  0.39470128  0.89126673  1
  O  O30  1  0.59148891  0.87356547  0.40719877  1
  O  O31  1  0.27568041  0.05863739  0.07503438  1
  O  O32  1  0.60358665  0.60731183  0.91044519  1
  O  O33  1  0.59281760  0.89700256  0.61249311  1
  O  O34  1  0.89671586  0.61039600  0.37579786  1
  O  O35  1  0.87394250  0.39377174  0.60203573  1
  O  O36  1  0.84504353  0.13805703  0.93767085  1
  O  O37  1  0.83730711  0.93396901  0.13901070  1
  O  O38  1  0.50962328  0.95508379  0.87539404  1
  O  O39  1  0.86251660  0.61316484  0.61185252  1
  O  O40  1  0.03589903  0.93694839  0.15418720  1
  O  O41  1  0.05057787  0.13851927  0.93877454  1
  O  O42  1  0.93643099  0.64245347  0.85765609  1
  O  O43  1  0.02187367  0.82542012  0.57319217  1
  O  O44  1  0.14375120  0.41678419  0.87286576  1
  O  O45  1  0.16730586  0.95482784  0.38911820  1
loop_
_geom_bond_atom_site_label_1
_geom_bond_atom_site_label_2
_geom_bond_distance
_geom_bond_site_symmetry_2
Ba0 O27 2.448924 1_555
Ba0 O26 2.579934 1_555
Ba0 O5 2.616780 1_555
Ba0 O0 2.921694 1_555
Ba0 O4 2.950036 1_555
Ba0 O45 3.124812 1_545
Ba0 O31 3.190478 1_555
Ba0 O1 3.406279 1_554
Ba1 O25 2.499114 1_555
Ba1 O7 2.731008 1_555
Ba1 O2 2.772539 1_555
Ba1 O0 2.782921 1_555
Ba1 O5 2.805374 1_555
Ba1 O18 2.963463 1_545
Ba1 O35 3.131285 1_455
Ba2 O28 2.602802 1_554
Ba2 O6 2.695366 1_555
Ba2 O4 2.706494 1_555
Ba2 O34 2.841663 1_455
Ba2 O0 2.883127 1_555
Ba2 O3 2.965354 1_555
Ba2 O19 3.243445 1_554
Ba3 O8 2.604300 1_555
Ba3 O9 2.651893 1_555
Ba3 O36 2.780585 1_554
Ba3 O37 2.908876 1_545
Ba3 O4 2.967682 1_555
Ba3 O5 2.986038 1_555
Ba3 O29 3.081779 1_554
Ba3 O1 3.173064 1_554
Ba4 O3 2.853683 1_555
Ba4 O10 2.885417 1_555
Ba4 O0 2.901142 1_555
Ba4 O8 2.903660 1_555
Ba4 O11 3.072476 1_555
Ba4 O6 3.122635 1_555
Ba4 O7 3.157056 1_555
Ba4 O2 3.225204 1_555
Ba4 O4 3.304914 1_555
Ba4 O9 3.381782 1_555
Ba4 O5 3.450693 1_555
Ba4 O13 3.481039 1_555
Ba5 O43 2.581507 1_555
Ba5 O44 2.730813 1_555
Ba5 O12 2.757907 1_555
Ba5 O42 2.764537 1_455
Ba5 O2 2.785232 1_555
Ba5 O10 2.850534 1_555
Ba5 O3 2.865440 1_555
Ba5 O11 3.089395 1_555
Ba5 O39 3.277276 1_455
Ba6 O45 2.508779 1_555
Ba6 O11 2.662196 1_555
Ba6 O3 2.735671 1_555
Ba6 O40 2.736527 1_555
Ba6 O43 3.053667 1_555
Ba6 O6 3.189766 1_555
Ba7 O44 2.529263 1_555
Ba7 O41 2.600539 1_555
Ba7 O7 2.605149 1_555
Ba7 O10 2.651757 1_555
Ba7 O2 2.885151 1_555
Ba7 O31 3.256544 1_556
Ba8 O25 2.566079 1_565
Ba8 O28 2.601390 1_555
Ba8 O42 2.680392 1_455
Ba8 O43 2.750158 1_555
Ba8 O14 2.811929 1_555
Ba8 O12 3.145084 1_555
Ba8 O22 3.238510 1_455
Ba9 O23 2.492446 1_555
Ba9 O9 2.716612 1_555
Ba9 O13 2.740948 1_555
Ba9 O21 2.768321 1_555
Ba9 O22 2.941936 1_545
Ba9 O10 2.956407 1_555
Ba9 O7 3.092594 1_555
Ba9 O33 3.143061 1_545
Ba10 O24 2.633297 1_555
Ba10 O13 2.650179 1_555
Ba10 O8 2.668896 1_555
Ba10 O20 2.814027 1_555
Ba10 O32 2.948600 1_554
Ba10 O11 2.953155 1_555
Ba10 O6 3.173526 1_555
Ba10 O15 3.298038 1_555
Ba11 O19 2.670548 1_555
Ba11 O44 2.687962 1_555
Ba11 O16 2.708359 1_555
Ba11 O12 2.718507 1_555
Ba11 O28 2.815571 1_555
Ba11 O4 2.879450 1_556
Ba11 O29 3.153596 1_555
Ba11 O1 3.293596 1_555
Ba12 O45 2.508547 1_555
Ba12 O18 2.643939 1_555
Ba12 O12 2.688007 1_555
Ba12 O17 2.722559 1_555
Ba12 O30 2.824546 1_555
Ba12 O5 3.150482 1_565
Ba12 O11 3.198379 1_555
Ba12 O15 3.248110 1_555
Ba13 O27 2.574932 1_655
Ba13 O21 2.668454 1_555
Ba13 O20 2.679654 1_555
Ba13 O26 2.722181 1_655
Ba13 O40 2.877139 1_645
Ba13 O41 2.881140 1_654
Ba13 O31 2.881449 1_655
Ba14 O24 2.499741 1_555
Ba14 O30 2.603067 1_555
Ba14 O37 2.616781 1_555
Ba14 O17 2.726847 1_555
Ba14 O34 2.794678 1_555
Ba14 O15 2.897766 1_555
Ba15 O23 2.523713 1_555
Ba15 O27 2.582088 1_655
Ba15 O13 2.842945 1_555
Ba15 O24 2.856686 1_555
Ba15 O26 2.858740 1_655
Ba15 O35 2.914858 1_555
Ba15 O34 2.969416 1_555
Ba15 O17 3.034598 1_555
Ba15 O0 3.333808 1_655
Ba16 O23 2.460661 1_555
Ba16 O22 2.720281 1_545
Ba16 O36 2.766802 1_555
Ba16 O16 2.825437 1_555
Ba16 O25 2.999755 1_655
Ba16 O1 3.006531 1_555
Ba16 O35 3.022635 1_555
Ba16 O29 3.066580 1_555
Ba17 O17 2.784597 1_555
Ba17 O35 2.785524 1_555
Ba17 O16 2.868127 1_555
Ba17 O29 2.897295 1_555
Ba17 O39 2.913695 1_555
Ba17 O19 2.960525 1_555
Ba17 O34 3.285080 1_555
Ba17 O30 3.313888 1_555
Ba18 O19 2.549481 1_555
Ba18 O18 2.593792 1_555
Ba18 O33 2.825710 1_555
Ba18 O14 2.923040 1_555
Ba18 O38 2.942741 1_555
Ba18 O32 2.959929 1_555
Ba18 O6 3.170391 1_556
Ba18 O7 3.395200 1_565
Ba19 O21 2.648428 1_565
Ba19 O37 2.764182 1_555
Ba19 O30 2.811911 1_555
Ba19 O40 2.832190 1_655
Ba19 O33 2.863973 1_555
Ba19 O34 2.909322 1_555
Ba19 O9 2.924560 1_565
Ba19 O39 3.028749 1_555
Ba19 O3 3.372005 1_655
Ba20 O20 2.638328 1_556
Ba20 O29 2.738112 1_555
Ba20 O36 2.787643 1_555
Ba20 O2 2.873469 1_655
Ba20 O32 2.925328 1_555
Ba20 O41 2.958930 1_655
Ba20 O35 3.020978 1_555
Ba20 O39 3.035810 1_555
Ba20 O8 3.304075 1_556
Ba21 O22 2.483468 1_555
Ba21 O42 2.568079 1_555
Ba21 O33 2.787338 1_555
Ba21 O39 2.805998 1_555
Ba21 O43 2.905902 1_655
Ba21 O38 2.920847 1_555
Ba21 O32 3.071901 1_555
O0 W6 1.989459 1_455
O1 W1 1.827704 1_546
O2 W6 2.014112 1_455
O3 W6 1.975396 1_455
O4 W3 2.008424 1_555
O5 W2 1.986728 1_555
O6 W3 1.977077 1_555
O7 W2 1.976334 1_555
O8 W3 1.970736 1_555
O9 W2 1.952514 1_555
O10 W4 1.977440 1_555
O11 W4 1.988497 1_555
O12 W4 2.029816 1_555
O13 W4 1.937987 1_555
O14 W0 1.828456 1_466
O15 W1 1.826581 1_555
O16 W4 1.949609 1_555
O17 W4 1.979482 1_555
O18 W2 1.978048 1_565
O19 W3 1.977937 1_556
O20 W5 1.973047 1_555
O21 W7 1.982512 1_555
O22 W7 2.161257 1_565
O23 W7 2.043066 1_555
O24 W5 1.952699 1_555
O25 W7 1.959662 1_455
O26 W5 1.927101 1_455
O27 W7 2.012391 1_455
O28 W5 1.983003 1_456
O29 W3 1.955112 1_556
O30 W2 1.953123 1_565
O31 W1 1.811213 1_545
O32 W3 1.958929 1_556
O33 W2 1.960426 1_565
O34 W6 1.980426 1_555
O35 W6 1.963513 1_555
O36 W0 1.920917 1_556
O37 W0 1.934225 1_565
O38 W1 1.815648 1_556
O39 W6 1.945901 1_555
O40 W0 1.910268 1_465
O41 W0 1.922431 1_456
O42 W5 1.949275 1_556
O43 W7 2.073128 1_465
O44 W5 1.990820 1_456
O45 W7 2.119627 1_465
