# generated using pymatgen
data_ZnH16C4S4(N5O3)2
_symmetry_space_group_name_H-M   'P 1'
_cell_length_a   24.71732784
_cell_length_b   10.45422910
_cell_length_c   9.11394627
_cell_angle_alpha   90.00000000
_cell_angle_beta   90.00000000
_cell_angle_gamma   90.00000000
_symmetry_Int_Tables_number   1
_chemical_formula_structural   ZnH16C4S4(N5O3)2
_chemical_formula_sum   'Zn4 H64 C16 S16 N40 O24'
_cell_volume   2355.04925726
_cell_formula_units_Z   4
loop_
 _symmetry_equiv_pos_site_id
 _symmetry_equiv_pos_as_xyz
  1  'x, y, z'
loop_
 _atom_site_type_symbol
 _atom_site_label
 _atom_site_symmetry_multiplicity
 _atom_site_fract_x
 _atom_site_fract_y
 _atom_site_fract_z
 _atom_site_occupancy
  Zn  Zn0  1  0.46957528  0.75000000  0.75000000  1
  Zn  Zn1  1  0.03042472  0.25000000  0.25000000  1
  Zn  Zn2  1  0.53042472  0.25000000  0.25000000  1
  Zn  Zn3  1  0.96957528  0.75000000  0.75000000  1
  H  H0  1  0.68959732  0.11418132  0.75973619  1
  H  H1  1  0.68959732  0.38581868  0.74026381  1
  H  H2  1  0.81040268  0.88581868  0.25973619  1
  H  H3  1  0.81040268  0.61418132  0.24026381  1
  H  H4  1  0.31040268  0.88581868  0.24026381  1
  H  H5  1  0.31040268  0.61418132  0.25973619  1
  H  H6  1  0.18959732  0.11418132  0.74026381  1
  H  H7  1  0.18959732  0.38581868  0.75973619  1
  H  H8  1  0.63412034  0.15283256  0.87354121  1
  H  H9  1  0.63412034  0.34716744  0.62645879  1
  H  H10  1  0.86587966  0.84716744  0.37354121  1
  H  H11  1  0.86587966  0.65283256  0.12645879  1
  H  H12  1  0.36587966  0.84716744  0.12645879  1
  H  H13  1  0.36587966  0.65283256  0.37354121  1
  H  H14  1  0.13412034  0.15283256  0.62645879  1
  H  H15  1  0.13412034  0.34716744  0.87354121  1
  H  H16  1  0.63481868  0.82697191  0.62732076  1
  H  H17  1  0.63481868  0.67302809  0.87267924  1
  H  H18  1  0.86518132  0.17302809  0.12732076  1
  H  H19  1  0.86518132  0.32697191  0.37267924  1
  H  H20  1  0.36518132  0.17302809  0.37267924  1
  H  H21  1  0.36518132  0.32697191  0.12732076  1
  H  H22  1  0.13481868  0.82697191  0.87267924  1
  H  H23  1  0.13481868  0.67302809  0.62732076  1
  H  H24  1  0.69223317  0.92031435  0.64167083  1
  H  H25  1  0.69223317  0.57968565  0.85832917  1
  H  H26  1  0.80776683  0.07968565  0.14167083  1
  H  H27  1  0.80776683  0.42031435  0.35832917  1
  H  H28  1  0.30776683  0.07968565  0.35832917  1
  H  H29  1  0.30776683  0.42031435  0.14167083  1
  H  H30  1  0.19223317  0.92031435  0.85832917  1
  H  H31  1  0.19223317  0.57968565  0.64167083  1
  H  H32  1  0.42463163  0.36403148  0.70860625  1
  H  H33  1  0.42463163  0.13596852  0.79139375  1
  H  H34  1  0.07536837  0.63596852  0.20860625  1
  H  H35  1  0.07536837  0.86403148  0.29139375  1
  H  H36  1  0.57536837  0.63596852  0.29139375  1
  H  H37  1  0.57536837  0.86403148  0.20860625  1
  H  H38  1  0.92463163  0.36403148  0.79139375  1
  H  H39  1  0.92463163  0.13596852  0.70860625  1
  H  H40  1  0.44902882  0.39520805  0.74225150  1
  H  H41  1  0.44902882  0.10479195  0.75774850  1
  H  H42  1  0.05097118  0.60479195  0.24225150  1
  H  H43  1  0.05097118  0.89520805  0.25774850  1
  H  H44  1  0.55097118  0.60479195  0.25774850  1
  H  H45  1  0.55097118  0.89520805  0.24225150  1
  H  H46  1  0.94902882  0.39520805  0.75774850  1
  H  H47  1  0.94902882  0.10479195  0.74225150  1
  H  H48  1  0.29657089  0.62983168  0.90235917  1
  H  H49  1  0.29657089  0.87016832  0.59764083  1
  H  H50  1  0.20342911  0.37016832  0.40235917  1
  H  H51  1  0.20342911  0.12983168  0.09764083  1
  H  H52  1  0.70342911  0.37016832  0.09764083  1
  H  H53  1  0.70342911  0.12983168  0.40235917  1
  H  H54  1  0.79657089  0.62983168  0.59764083  1
  H  H55  1  0.79657089  0.87016832  0.90235917  1
  H  H56  1  0.30676085  0.51336797  0.75942866  1
  H  H57  1  0.30676085  0.98663203  0.74057134  1
  H  H58  1  0.19323915  0.48663203  0.25942866  1
  H  H59  1  0.19323915  0.01336797  0.24057134  1
  H  H60  1  0.69323915  0.48663203  0.24057134  1
  H  H61  1  0.69323915  0.01336797  0.25942866  1
  H  H62  1  0.80676085  0.51336797  0.74057134  1
  H  H63  1  0.80676085  0.98663203  0.75942866  1
  C  C0  1  0.37481800  0.59802237  0.83931227  1
  C  C1  1  0.37481800  0.90197763  0.66068773  1
  C  C2  1  0.12518200  0.40197763  0.33931227  1
  C  C3  1  0.12518200  0.09802237  0.16068773  1
  C  C4  1  0.62518200  0.40197763  0.16068773  1
  C  C5  1  0.62518200  0.09802237  0.33931227  1
  C  C6  1  0.87481800  0.59802237  0.66068773  1
  C  C7  1  0.87481800  0.90197763  0.83931227  1
  C  C8  1  0.62655246  0.98566283  0.75950627  1
  C  C9  1  0.62655246  0.51433717  0.74049373  1
  C  C10  1  0.87344754  0.01433717  0.25950627  1
  C  C11  1  0.87344754  0.48566283  0.24049373  1
  C  C12  1  0.37344754  0.01433717  0.24049373  1
  C  C13  1  0.37344754  0.48566283  0.25950627  1
  C  C14  1  0.12655246  0.98566283  0.74049373  1
  C  C15  1  0.12655246  0.51433717  0.75950627  1
  S  S0  1  0.41744889  0.67715639  0.94512733  1
  S  S1  1  0.41744889  0.82284361  0.55487267  1
  S  S2  1  0.08255111  0.32284361  0.44512733  1
  S  S3  1  0.08255111  0.17715639  0.05487267  1
  S  S4  1  0.58255111  0.32284361  0.05487267  1
  S  S5  1  0.58255111  0.17715639  0.44512733  1
  S  S6  1  0.91744889  0.67715639  0.55487267  1
  S  S7  1  0.91744889  0.82284361  0.94512733  1
  S  S8  1  0.55254120  0.82816338  0.84739512  1
  S  S9  1  0.55254120  0.67183662  0.65260488  1
  S  S10  1  0.94745880  0.17183662  0.34739512  1
  S  S11  1  0.94745880  0.32816338  0.15260488  1
  S  S12  1  0.44745880  0.17183662  0.15260488  1
  S  S13  1  0.44745880  0.32816338  0.34739512  1
  S  S14  1  0.05254120  0.82816338  0.65260488  1
  S  S15  1  0.05254120  0.67183662  0.84739512  1
  N  N0  1  0.65145149  0.09553287  0.79714111  1
  N  N1  1  0.65145149  0.40446713  0.70285889  1
  N  N2  1  0.84854851  0.90446713  0.29714111  1
  N  N3  1  0.84854851  0.59553287  0.20285889  1
  N  N4  1  0.34854851  0.90446713  0.20285889  1
  N  N5  1  0.34854851  0.59553287  0.29714111  1
  N  N6  1  0.15145149  0.09553287  0.70285889  1
  N  N7  1  0.15145149  0.40446713  0.79714111  1
  N  N8  1  0.65408686  0.90107421  0.67692701  1
  N  N9  1  0.65408686  0.59892579  0.82307299  1
  N  N10  1  0.84591314  0.09892579  0.17692701  1
  N  N11  1  0.84591314  0.40107421  0.32307299  1
  N  N12  1  0.34591314  0.09892579  0.32307299  1
  N  N13  1  0.34591314  0.40107421  0.17692701  1
  N  N14  1  0.15408686  0.90107421  0.82307299  1
  N  N15  1  0.15408686  0.59892579  0.67692701  1
  N  N16  1  0.57488621  0.53102404  0.69882387  1
  N  N17  1  0.57488621  0.96897596  0.80117613  1
  N  N18  1  0.92511379  0.46897596  0.19882387  1
  N  N19  1  0.92511379  0.03102404  0.30117613  1
  N  N20  1  0.42511379  0.46897596  0.30117613  1
  N  N21  1  0.42511379  0.03102404  0.19882387  1
  N  N22  1  0.07488621  0.53102404  0.80117613  1
  N  N23  1  0.07488621  0.96897596  0.69882387  1
  N  N24  1  0.32368174  0.57809049  0.83434801  1
  N  N25  1  0.32368174  0.92190951  0.66565199  1
  N  N26  1  0.17631826  0.42190951  0.33434801  1
  N  N27  1  0.17631826  0.07809049  0.16565199  1
  N  N28  1  0.67631826  0.42190951  0.16565199  1
  N  N29  1  0.67631826  0.07809049  0.33434801  1
  N  N30  1  0.82368174  0.57809049  0.66565199  1
  N  N31  1  0.82368174  0.92190951  0.83434801  1
  N  N32  1  0.78040144  0.33294555  0.93024495  1
  N  N33  1  0.78040144  0.16705445  0.56975505  1
  N  N34  1  0.71959856  0.66705445  0.43024495  1
  N  N35  1  0.71959856  0.83294555  0.06975505  1
  N  N36  1  0.21959856  0.66705445  0.06975505  1
  N  N37  1  0.21959856  0.83294555  0.43024495  1
  N  N38  1  0.28040144  0.33294555  0.56975505  1
  N  N39  1  0.28040144  0.16705445  0.93024495  1
  O  O0  1  0.76024436  0.41805359  0.84319268  1
  O  O1  1  0.76024436  0.08194641  0.65680732  1
  O  O2  1  0.73975564  0.58194641  0.34319268  1
  O  O3  1  0.73975564  0.91805359  0.15680732  1
  O  O4  1  0.23975564  0.58194641  0.15680732  1
  O  O5  1  0.23975564  0.91805359  0.34319268  1
  O  O6  1  0.26024436  0.41805359  0.65680732  1
  O  O7  1  0.26024436  0.08194641  0.84319268  1
  O  O8  1  0.82984484  0.31117258  0.93105454  1
  O  O9  1  0.82984484  0.18882742  0.56894546  1
  O  O10  1  0.67015516  0.68882742  0.43105454  1
  O  O11  1  0.67015516  0.81117258  0.06894546  1
  O  O12  1  0.17015516  0.68882742  0.06894546  1
  O  O13  1  0.17015516  0.81117258  0.43105454  1
  O  O14  1  0.32984484  0.31117258  0.56894546  1
  O  O15  1  0.32984484  0.18882742  0.93105454  1
  O  O16  1  0.74812812  0.27209120  0.01494739  1
  O  O17  1  0.74812812  0.22790880  0.48505261  1
  O  O18  1  0.75187188  0.72790880  0.51494739  1
  O  O19  1  0.75187188  0.77209120  0.98505261  1
  O  O20  1  0.25187188  0.72790880  0.98505261  1
  O  O21  1  0.25187188  0.77209120  0.51494739  1
  O  O22  1  0.24812812  0.27209120  0.48505261  1
  O  O23  1  0.24812812  0.22790880  0.01494739  1
loop_
_geom_bond_atom_site_label_1
_geom_bond_atom_site_label_2
_geom_bond_distance
_geom_bond_site_symmetry_2
H0 N0 1.021379 1_555
H1 N1 1.021379 1_555
H2 N2 1.021379 1_555
H3 N3 1.021379 1_555
H4 N4 1.021379 1_555
H5 N5 1.021379 1_555
H6 N6 1.021379 1_555
H7 N7 1.021379 1_555
H8 N0 1.013500 1_555
H9 N1 1.013500 1_555
H10 N2 1.013500 1_555
H11 N3 1.013500 1_555
H12 N4 1.013500 1_555
H13 N5 1.013500 1_555
H14 N6 1.013500 1_555
H15 N7 1.013500 1_555
H16 N8 1.015557 1_555
H17 N9 1.015557 1_555
H18 N10 1.015557 1_555
H19 N11 1.015557 1_555
H20 N12 1.015557 1_555
H21 N13 1.015557 1_555
H22 N14 1.015557 1_555
H23 N15 1.015557 1_555
H24 N8 1.016228 1_555
H25 N9 1.016228 1_555
H26 N10 1.016228 1_555
H27 N11 1.016228 1_555
H28 N12 1.016228 1_555
H29 N13 1.016228 1_555
H30 N14 1.016228 1_555
H31 N15 1.016228 1_555
H32 H40 0.750937 1_555
H33 H41 0.750937 1_555
H34 H42 0.750937 1_555
H35 H43 0.750937 1_555
H36 H44 0.750937 1_555
H37 H45 0.750937 1_555
H38 H46 0.750937 1_555
H39 H47 0.750937 1_555
H48 N24 1.061059 1_555
H48 O20 1.685219 1_555
H49 N25 1.061059 1_555
H49 O21 1.685219 1_555
H50 N26 1.061059 1_555
H50 O22 1.685219 1_555
H51 N27 1.061059 1_555
H51 O23 1.685219 1_555
H52 N28 1.061059 1_555
H52 O16 1.685219 1_555
H53 N29 1.061059 1_555
H53 O17 1.685219 1_555
H54 N30 1.061059 1_555
H54 O18 1.685219 1_555
H55 N31 1.061059 1_555
H55 O19 1.685219 1_555
H56 N24 1.048320 1_555
H57 N25 1.048320 1_555
H58 N26 1.048320 1_555
H59 N27 1.048320 1_555
H60 N28 1.048320 1_555
H61 N29 1.048320 1_555
H62 N30 1.048320 1_555
H63 N31 1.048320 1_555
C0 N24 1.281811 1_555
C0 S0 1.650692 1_555
C1 N25 1.281811 1_555
C1 S1 1.650692 1_555
C2 N26 1.281811 1_555
C2 S2 1.650692 1_555
C3 N27 1.281811 1_555
C3 S3 1.650692 1_555
C4 N28 1.281811 1_555
C4 S4 1.650692 1_555
C5 N29 1.281811 1_555
C5 S5 1.650692 1_555
C6 N30 1.281811 1_555
C6 S6 1.650692 1_555
C7 N31 1.281811 1_555
C7 S7 1.650692 1_555
C8 N17 1.343698 1_555
C8 N8 1.345967 1_555
C8 N0 1.347483 1_565
C9 N16 1.343698 1_555
C9 N9 1.345967 1_555
C9 N1 1.347483 1_555
C10 N19 1.343698 1_555
C10 N10 1.345967 1_555
C10 N2 1.347483 1_545
C11 N18 1.343698 1_555
C11 N11 1.345967 1_555
C11 N3 1.347483 1_555
C12 N21 1.343698 1_555
C12 N12 1.345967 1_555
C12 N4 1.347483 1_545
C13 N20 1.343698 1_555
C13 N13 1.345967 1_555
C13 N5 1.347483 1_555
C14 N23 1.343698 1_555
C14 N14 1.345967 1_555
C14 N6 1.347483 1_565
C15 N22 1.343698 1_555
C15 N15 1.345967 1_555
C15 N7 1.347483 1_555
S0 Zn0 2.324348 1_555
S1 Zn0 2.324348 1_555
S2 Zn1 2.324348 1_555
S3 Zn1 2.324348 1_555
S4 Zn2 2.324348 1_555
S5 Zn2 2.324348 1_555
S6 Zn3 2.324348 1_555
S7 Zn3 2.324348 1_555
S8 Zn0 2.379285 1_555
S9 Zn0 2.379285 1_555
S10 Zn1 2.379285 1_655
S11 Zn1 2.379285 1_655
S12 Zn2 2.379285 1_555
S13 Zn2 2.379285 1_555
S14 Zn3 2.379285 1_455
S15 Zn3 2.379285 1_455
N16 S9 1.627737 1_555
N17 S8 1.627737 1_555
N18 S11 1.627737 1_555
N19 S10 1.627737 1_555
N20 S13 1.627737 1_555
N21 S12 1.627737 1_555
N22 S15 1.627737 1_555
N23 S14 1.627737 1_555
N32 O8 1.243147 1_555
N32 O16 1.279459 1_556
N32 O0 1.292027 1_555
N33 O9 1.243147 1_555
N33 O17 1.279459 1_555
N33 O1 1.292027 1_555
N34 O10 1.243147 1_555
N34 O18 1.279459 1_555
N34 O2 1.292027 1_555
N35 O11 1.243147 1_555
N35 O19 1.279459 1_554
N35 O3 1.292027 1_555
N36 O12 1.243147 1_555
N36 O20 1.279459 1_554
N36 O4 1.292027 1_555
N37 O13 1.243147 1_555
N37 O21 1.279459 1_555
N37 O5 1.292027 1_555
N38 O14 1.243147 1_555
N38 O22 1.279459 1_555
N38 O6 1.292027 1_555
N39 O15 1.243147 1_555
N39 O23 1.279459 1_556
N39 O7 1.292027 1_555
