# generated using pymatgen
data_Pr2Co5B2
_symmetry_space_group_name_H-M   'P 1'
_cell_length_a   5.21875367
_cell_length_b   5.21875367
_cell_length_c   20.20017800
_cell_angle_alpha   90.00000000
_cell_angle_beta   90.00000000
_cell_angle_gamma   119.97720078
_symmetry_Int_Tables_number   1
_chemical_formula_structural   Pr2Co5B2
_chemical_formula_sum   'Pr8 Co20 B8'
_cell_volume   476.56171860
_cell_formula_units_Z   4
loop_
 _symmetry_equiv_pos_site_id
 _symmetry_equiv_pos_as_xyz
  1  'x, y, z'
loop_
 _atom_site_type_symbol
 _atom_site_label
 _atom_site_symmetry_multiplicity
 _atom_site_fract_x
 _atom_site_fract_y
 _atom_site_fract_z
 _atom_site_occupancy
  Pr  Pr0  1  0.66682300  0.33317700  0.52062900  1
  Pr  Pr1  1  0.33317700  0.66682300  0.47937100  1
  Pr  Pr2  1  0.33317700  0.66682300  0.02062900  1
  Pr  Pr3  1  0.66682300  0.33317700  0.97937100  1
  Pr  Pr4  1  0.66670500  0.33329500  0.67445100  1
  Pr  Pr5  1  0.33329500  0.66670500  0.32554900  1
  Pr  Pr6  1  0.33329500  0.66670500  0.17445100  1
  Pr  Pr7  1  0.66670500  0.33329500  0.82554900  1
  Co  Co0  1  0.00000000  0.00000000  0.50000000  1
  Co  Co1  1  0.00000000  0.00000000  0.00000000  1
  Co  Co2  1  0.16812600  0.33615400  0.75000000  1
  Co  Co3  1  0.16809400  0.83190600  0.75000000  1
  Co  Co4  1  0.66384600  0.83187400  0.75000000  1
  Co  Co5  1  0.83187400  0.66384600  0.25000000  1
  Co  Co6  1  0.83190600  0.16809400  0.25000000  1
  Co  Co7  1  0.33615400  0.16812600  0.25000000  1
  Co  Co8  1  0.16044300  0.32044900  0.60873200  1
  Co  Co9  1  0.16044700  0.83955300  0.60870300  1
  Co  Co10  1  0.67955100  0.83955700  0.60873200  1
  Co  Co11  1  0.83955700  0.67955100  0.39126800  1
  Co  Co12  1  0.83955300  0.16044700  0.39129700  1
  Co  Co13  1  0.32044900  0.16044300  0.39126800  1
  Co  Co14  1  0.83955700  0.67955100  0.10873200  1
  Co  Co15  1  0.83955300  0.16044700  0.10870300  1
  Co  Co16  1  0.32044900  0.16044300  0.10873200  1
  Co  Co17  1  0.16044300  0.32044900  0.89126800  1
  Co  Co18  1  0.16044700  0.83955300  0.89129700  1
  Co  Co19  1  0.67955100  0.83955700  0.89126800  1
  B  B0  1  0.00005600  0.99994400  0.67890400  1
  B  B1  1  0.99994400  0.00005600  0.32109600  1
  B  B2  1  0.99994400  0.00005600  0.17890400  1
  B  B3  1  0.00005600  0.99994400  0.82109600  1
  B  B4  1  0.66659700  0.33340300  0.32544500  1
  B  B5  1  0.33340300  0.66659700  0.67455500  1
  B  B6  1  0.33340300  0.66659700  0.82544500  1
  B  B7  1  0.66659700  0.33340300  0.17455500  1
loop_
_geom_bond_atom_site_label_1
_geom_bond_atom_site_label_2
_geom_bond_distance
_geom_bond_site_symmetry_2
Pr0 Pr4 3.107232 1_555
Pr0 Pr1 3.125495 1_545
Pr0 Pr1 3.125495 1_655
Pr0 Pr1 3.128578 1_555
Pr1 Pr5 3.107232 1_555
Pr2 Pr6 3.107232 1_555
Pr2 Pr3 3.125495 1_454
Pr2 Pr3 3.125495 1_564
Pr2 Pr3 3.128578 1_554
Pr3 Pr7 3.107232 1_555
Pr4 Pr7 3.052206 1_555
Pr5 Pr6 3.052206 1_555
Co0 Co10 2.631106 1_445
Co0 Co8 2.631106 1_555
Co0 Co13 2.631106 1_555
Co0 Co11 2.631106 1_445
Co0 Co12 2.631449 1_455
Co0 Co9 2.631449 1_545
Co0 Pr0 3.039986 1_455
Co0 Pr1 3.039986 1_545
Co0 Pr1 3.043114 1_555
Co0 Pr0 3.043114 1_555
Co0 Pr1 3.043114 1_445
Co0 Pr0 3.043114 1_445
Co1 Co16 2.631106 1_555
Co1 Co14 2.631106 1_445
Co1 Co19 2.631106 1_444
Co1 Co17 2.631106 1_554
Co1 Co18 2.631449 1_544
Co1 Co15 2.631449 1_455
Co1 Pr2 3.039986 1_545
Co1 Pr3 3.039986 1_454
Co1 Pr2 3.043114 1_555
Co1 Pr3 3.043114 1_554
Co1 Pr2 3.043114 1_445
Co1 Pr3 3.043114 1_444
Co2 Pr7 3.022880 1_455
Co2 Pr4 3.022880 1_455
Co2 Pr4 3.022947 1_555
Co2 Pr7 3.022947 1_555
Co3 Pr4 3.023688 1_455
Co3 Pr7 3.023688 1_455
Co3 Pr4 3.023688 1_565
Co3 Pr7 3.023688 1_565
Co4 Pr7 3.022880 1_565
Co4 Pr4 3.022880 1_565
Co4 Pr4 3.022947 1_555
Co4 Pr7 3.022947 1_555
Co5 Pr5 3.022880 1_655
Co5 Pr6 3.022880 1_655
Co5 Pr5 3.022947 1_555
Co5 Pr6 3.022947 1_555
Co6 Pr5 3.023688 1_545
Co6 Pr6 3.023688 1_545
Co6 Pr5 3.023688 1_655
Co6 Pr6 3.023688 1_655
Co7 Pr5 3.022880 1_545
Co7 Pr6 3.022880 1_545
Co7 Pr6 3.022947 1_555
Co7 Pr5 3.022947 1_555
Co8 Pr4 2.927509 1_555
Co8 Pr4 2.928965 1_455
Co8 Pr1 3.046338 1_555
Co8 Pr0 3.158943 1_455
Co8 Pr0 3.159119 1_555
Co9 Pr4 2.929274 1_455
Co9 Pr4 2.929274 1_565
Co9 Pr1 3.043437 1_555
Co9 Pr0 3.159445 1_565
Co9 Pr0 3.159445 1_455
Co10 Pr4 2.927509 1_555
Co10 Pr4 2.928965 1_565
Co10 Pr1 3.046338 1_555
Co10 Pr0 3.158943 1_565
Co10 Pr0 3.159119 1_555
Co11 Pr5 2.927509 1_555
Co11 Pr5 2.928965 1_655
Co11 Pr0 3.046338 1_555
Co11 Pr1 3.158943 1_655
Co11 Pr1 3.159119 1_555
Co12 Pr5 2.929274 1_545
Co12 Pr5 2.929274 1_655
Co12 Pr0 3.043437 1_555
Co12 Pr1 3.159445 1_655
Co12 Pr1 3.159445 1_545
Co13 Pr5 2.927509 1_555
Co13 Pr5 2.928965 1_545
Co13 Pr0 3.046338 1_555
Co13 Pr1 3.158943 1_545
Co13 Pr1 3.159119 1_555
Co14 Pr6 2.927509 1_555
Co14 Pr6 2.928965 1_655
Co14 Pr3 3.046338 1_554
Co14 Pr2 3.158943 1_655
Co14 Pr2 3.159119 1_555
Co15 Pr6 2.929274 1_545
Co15 Pr6 2.929274 1_655
Co15 Pr3 3.043437 1_554
Co15 Pr2 3.159445 1_655
Co15 Pr2 3.159445 1_545
Co16 Pr6 2.927509 1_555
Co16 Pr6 2.928965 1_545
Co16 Pr3 3.046338 1_554
Co16 Pr2 3.158943 1_545
Co16 Pr2 3.159119 1_555
Co17 Pr7 2.927509 1_555
Co17 Pr7 2.928965 1_455
Co17 Pr2 3.046338 1_556
Co17 Pr3 3.158943 1_455
Co17 Pr3 3.159119 1_555
Co18 Pr7 2.929274 1_455
Co18 Pr7 2.929274 1_565
Co18 Pr2 3.043437 1_556
Co18 Pr3 3.159445 1_565
Co18 Pr3 3.159445 1_455
Co19 Pr7 2.927509 1_555
Co19 Pr7 2.928965 1_565
Co19 Pr2 3.046338 1_556
Co19 Pr3 3.158943 1_565
Co19 Pr3 3.159119 1_555
B0 Co10 2.026948 1_455
B0 Co8 2.026948 1_565
B0 Co9 2.027896 1_555
B0 Co3 2.090244 1_555
B0 Co2 2.091065 1_565
B0 Co4 2.091065 1_455
B0 Pr4 3.014205 1_465
B0 Pr4 3.015003 1_455
B0 Pr4 3.015003 1_565
B1 Co11 2.026948 1_545
B1 Co13 2.026948 1_655
B1 Co12 2.027896 1_555
B1 Co6 2.090244 1_555
B1 Co7 2.091065 1_655
B1 Co5 2.091065 1_545
B1 Pr5 3.014205 1_645
B1 Pr5 3.015003 1_545
B1 Pr5 3.015003 1_655
B2 Co14 2.026948 1_545
B2 Co16 2.026948 1_655
B2 Co15 2.027896 1_555
B2 Co6 2.090244 1_555
B2 Co5 2.091065 1_545
B2 Co7 2.091065 1_655
B2 Pr6 3.014205 1_645
B2 Pr6 3.015003 1_545
B2 Pr6 3.015003 1_655
B3 Co19 2.026948 1_455
B3 Co17 2.026948 1_565
B3 Co18 2.027896 1_555
B3 Co3 2.090244 1_555
B3 Co4 2.091065 1_455
B3 Co2 2.091065 1_565
B3 Pr7 3.014205 1_465
B3 Pr7 3.015003 1_455
B3 Pr7 3.015003 1_565
B4 Co12 2.052576 1_555
B4 Co13 2.053420 1_555
B4 Co11 2.053420 1_555
B4 Co5 2.134019 1_555
B4 Co7 2.134019 1_555
B4 Co6 2.134212 1_555
B4 Pr5 3.012420 1_555
B4 Pr5 3.013883 1_545
B4 Pr5 3.013883 1_655
B5 Co9 2.052576 1_555
B5 Co8 2.053420 1_555
B5 Co10 2.053420 1_555
B5 Co4 2.134019 1_555
B5 Co2 2.134019 1_555
B5 Co3 2.134212 1_555
B5 Pr4 3.012420 1_555
B5 Pr4 3.013883 1_455
B5 Pr4 3.013883 1_565
B6 Co18 2.052576 1_555
B6 Co19 2.053420 1_555
B6 Co17 2.053420 1_555
B6 Co4 2.134019 1_555
B6 Co2 2.134019 1_555
B6 Co3 2.134212 1_555
B6 Pr7 3.012420 1_555
B6 Pr7 3.013883 1_455
B6 Pr7 3.013883 1_565
B7 Co15 2.052576 1_555
B7 Co14 2.053420 1_555
B7 Co16 2.053420 1_555
B7 Co5 2.134019 1_555
B7 Co7 2.134019 1_555
B7 Co6 2.134212 1_555
B7 Pr6 3.012420 1_555
B7 Pr6 3.013883 1_545
B7 Pr6 3.013883 1_655
