# generated using pymatgen
data_Ba2LiLaCu3O7
_symmetry_space_group_name_H-M   'P 1'
_cell_length_a   4.04612800
_cell_length_b   3.89163900
_cell_length_c   12.88516600
_cell_angle_alpha   90.00000000
_cell_angle_beta   90.00000000
_cell_angle_gamma   90.00000000
_symmetry_Int_Tables_number   1
_chemical_formula_structural   Ba2LiLaCu3O7
_chemical_formula_sum   'Ba2 Li1 La1 Cu3 O7'
_cell_volume   202.89071966
_cell_formula_units_Z   1
loop_
 _symmetry_equiv_pos_site_id
 _symmetry_equiv_pos_as_xyz
  1  'x, y, z'
loop_
 _atom_site_type_symbol
 _atom_site_label
 _atom_site_symmetry_multiplicity
 _atom_site_fract_x
 _atom_site_fract_y
 _atom_site_fract_z
 _atom_site_occupancy
  Ba  Ba0  1  0.50000000  0.50000000  0.89737700  1
  Ba  Ba1  1  0.50000000  0.50000000  0.19328500  1
  Li  Li0  1  0.00000000  0.50000000  0.74173400  1
  La  La0  1  0.50000000  0.50000000  0.48691700  1
  Cu  Cu0  1  0.00000000  0.00000000  0.62266400  1
  Cu  Cu1  1  0.00000000  0.00000000  0.35072100  1
  Cu  Cu2  1  0.00000000  0.00000000  0.04179500  1
  O  O0  1  0.50000000  0.00000000  0.59370100  1
  O  O1  1  0.00000000  0.50000000  0.59815900  1
  O  O2  1  0.50000000  0.00000000  0.34964800  1
  O  O3  1  0.00000000  0.50000000  0.35521600  1
  O  O4  1  0.00000000  0.50000000  0.04623400  1
  O  O5  1  0.50000000  0.00000000  0.04533500  1
  O  O6  1  0.00000000  0.00000000  0.80521400  1
loop_
_geom_bond_atom_site_label_1
_geom_bond_atom_site_label_2
_geom_bond_distance
_geom_bond_site_symmetry_2
Ba0 O5 2.724118 1_566
Ba0 O5 2.724118 1_556
Ba0 O4 2.787776 1_656
Ba0 O4 2.787776 1_556
Ba0 Li0 2.848642 1_655
Ba0 Li0 2.848642 1_555
Ba0 O6 3.047826 1_665
Ba0 O6 3.047826 1_655
Ba0 O6 3.047826 1_555
Ba0 O6 3.047826 1_565
Ba1 O5 2.724045 1_555
Ba1 O5 2.724045 1_565
Ba1 O4 2.771816 1_555
Ba1 O4 2.771816 1_655
Ba1 O2 2.800979 1_555
Ba1 O2 2.800979 1_565
Ba1 O3 2.906252 1_555
Ba1 O3 2.906252 1_655
Li0 O1 1.849988 1_555
Li0 O6 2.110748 1_555
Li0 O6 2.110748 1_565
La0 O0 2.383148 1_555
La0 O0 2.383148 1_565
La0 O1 2.479383 1_555
La0 O1 2.479383 1_655
La0 O2 2.629569 1_555
La0 O2 2.629569 1_565
La0 O3 2.640561 1_555
La0 O3 2.640561 1_655
Cu0 O1 1.971272 1_555
Cu0 O1 1.971272 1_545
Cu0 O0 2.057197 1_455
Cu0 O0 2.057197 1_555
Cu0 O6 2.352187 1_555
Cu1 O3 1.946681 1_555
Cu1 O3 1.946681 1_545
Cu1 O2 2.023111 1_555
Cu1 O2 2.023111 1_455
Cu2 O4 1.946660 1_555
Cu2 O4 1.946660 1_545
Cu2 O5 2.023578 1_555
Cu2 O5 2.023578 1_455
