# generated using pymatgen
data_Zn2Cu10Sb4S13
_symmetry_space_group_name_H-M   'P 1'
_cell_length_a   9.03952655
_cell_length_b   9.03952655
_cell_length_c   9.03952655
_cell_angle_alpha   109.77039133
_cell_angle_beta   109.77039133
_cell_angle_gamma   108.87452199
_symmetry_Int_Tables_number   1
_chemical_formula_structural   Zn2Cu10Sb4S13
_chemical_formula_sum   'Zn2 Cu10 Sb4 S13'
_cell_volume   568.56468226
_cell_formula_units_Z   1
loop_
 _symmetry_equiv_pos_site_id
 _symmetry_equiv_pos_as_xyz
  1  'x, y, z'
loop_
 _atom_site_type_symbol
 _atom_site_label
 _atom_site_symmetry_multiplicity
 _atom_site_fract_x
 _atom_site_fract_y
 _atom_site_fract_z
 _atom_site_occupancy
  Zn  Zn0  1  0.77387200  0.77387200  0.00000000  1
  Zn  Zn1  1  0.22612800  0.22612800  0.00000000  1
  Cu  Cu0  1  0.50000000  0.75336900  0.25336900  1
  Cu  Cu1  1  0.24663100  0.50000000  0.74663100  1
  Cu  Cu2  1  0.75000000  0.25000000  0.50000000  1
  Cu  Cu3  1  0.75336900  0.50000000  0.25336900  1
  Cu  Cu4  1  0.50000000  0.24663100  0.74663100  1
  Cu  Cu5  1  0.25000000  0.75000000  0.50000000  1
  Cu  Cu6  1  0.00000000  0.77605100  0.77605100  1
  Cu  Cu7  1  0.77605100  0.00000000  0.77605100  1
  Cu  Cu8  1  0.00000000  0.22394900  0.22394900  1
  Cu  Cu9  1  0.22394900  0.00000000  0.22394900  1
  Sb  Sb0  1  0.46684600  0.46684600  0.46101600  1
  Sb  Sb1  1  0.00583000  0.00583000  0.53898400  1
  Sb  Sb2  1  0.99417000  0.53315400  0.00000000  1
  Sb  Sb3  1  0.53315400  0.99417000  0.00000000  1
  S  S0  1  0.00000000  0.00000000  0.00000000  1
  S  S1  1  0.51230800  0.51230800  0.76447000  1
  S  S2  1  0.77090900  0.51962900  0.52128100  1
  S  S3  1  0.51962900  0.77090900  0.52128100  1
  S  S4  1  0.74783800  0.74783800  0.23553000  1
  S  S5  1  0.99834800  0.24962800  0.47871900  1
  S  S6  1  0.24962800  0.99834800  0.47871900  1
  S  S7  1  0.25216200  0.48769200  0.00000000  1
  S  S8  1  0.00165200  0.48037100  0.25128000  1
  S  S9  1  0.75037200  0.22909100  0.74872000  1
  S  S10  1  0.48769200  0.25216200  0.00000000  1
  S  S11  1  0.22909100  0.75037200  0.74872000  1
  S  S12  1  0.48037100  0.00165200  0.25128000  1
loop_
_geom_bond_atom_site_label_1
_geom_bond_atom_site_label_2
_geom_bond_distance
_geom_bond_site_symmetry_2
Cu0 S12 2.313667 1_565
Cu0 S3 2.313667 1_555
Cu0 S4 2.314959 1_555
Cu0 S7 2.314959 1_555
Cu1 S11 2.313667 1_555
Cu1 S5 2.313667 1_455
Cu1 S1 2.314959 1_555
Cu1 S7 2.314959 1_556
Cu2 S5 2.318062 1_555
Cu2 S2 2.318062 1_555
Cu2 S12 2.318062 1_555
Cu2 S9 2.318062 1_555
Cu3 S8 2.313667 1_655
Cu3 S2 2.313667 1_555
Cu3 S4 2.314959 1_555
Cu3 S10 2.314959 1_555
Cu4 S9 2.313667 1_555
Cu4 S6 2.313667 1_545
Cu4 S1 2.314959 1_555
Cu4 S10 2.314959 1_556
Cu5 S6 2.318062 1_555
Cu5 S3 2.318062 1_555
Cu5 S8 2.318062 1_555
Cu5 S11 2.318062 1_555
Cu6 S2 2.240932 1_455
Cu6 S11 2.240932 1_555
Cu6 S0 2.328929 1_566
Cu7 S3 2.240932 1_545
Cu7 S9 2.240932 1_555
Cu7 S0 2.328929 1_656
Cu8 S5 2.240932 1_455
Cu8 S8 2.240932 1_555
Cu8 S0 2.328929 1_555
Cu9 S12 2.240932 1_555
Cu9 S6 2.240932 1_545
Cu9 S0 2.328929 1_555
S0 Zn0 2.377661 1_445
S0 Zn1 2.377661 1_555
S1 Zn0 2.299094 1_556
S1 Sb0 2.495550 1_555
S2 Sb0 2.458020 1_555
S3 Sb0 2.458020 1_555
S4 Zn0 2.299094 1_555
S4 Sb1 2.495550 1_665
S5 Sb1 2.458020 1_655
S6 Sb1 2.458020 1_565
S7 Zn1 2.299094 1_555
S7 Sb2 2.495550 1_455
S8 Sb2 2.458020 1_455
S9 Sb2 2.458020 1_556
S10 Zn1 2.299094 1_555
S10 Sb3 2.495550 1_545
S11 Sb3 2.458020 1_556
S12 Sb3 2.458020 1_545
