# generated using pymatgen
data_Li4MnV3(P2O7)4
_symmetry_space_group_name_H-M   'P 1'
_cell_length_a   7.06101700
_cell_length_b   8.31146379
_cell_length_c   9.75179090
_cell_angle_alpha   89.69793673
_cell_angle_beta   71.21598525
_cell_angle_gamma   89.46985509
_symmetry_Int_Tables_number   1
_chemical_formula_structural   Li4MnV3(P2O7)4
_chemical_formula_sum   'Li4 Mn1 V3 P8 O28'
_cell_volume   541.80077169
_cell_formula_units_Z   1
loop_
 _symmetry_equiv_pos_site_id
 _symmetry_equiv_pos_as_xyz
  1  'x, y, z'
loop_
 _atom_site_type_symbol
 _atom_site_label
 _atom_site_symmetry_multiplicity
 _atom_site_fract_x
 _atom_site_fract_y
 _atom_site_fract_z
 _atom_site_occupancy
  Li  Li0  1  0.32625200  0.86251500  0.08638300  1
  Li  Li1  1  0.67546600  0.36191000  0.41199900  1
  Li  Li2  1  0.32439200  0.86192300  0.58818200  1
  Li  Li3  1  0.67597200  0.36144900  0.91225300  1
  Mn  Mn0  1  0.73148200  0.99889900  0.89234000  1
  V  V0  1  0.27169800  0.49933500  0.10702900  1
  V  V1  1  0.72806400  0.99969100  0.39281400  1
  V  V2  1  0.27189300  0.49933800  0.60786400  1
  P  P0  1  0.47785500  0.17963400  0.19967000  1
  P  P1  1  0.91236300  0.78464100  0.10690100  1
  P  P2  1  0.08619500  0.28412600  0.39336900  1
  P  P3  1  0.52183200  0.68061600  0.30002800  1
  P  P4  1  0.47795900  0.17908000  0.70078700  1
  P  P5  1  0.91230500  0.78326500  0.60799100  1
  P  P6  1  0.08657000  0.28559400  0.89384500  1
  P  P7  1  0.51960300  0.68032500  0.80065100  1
  O  O0  1  0.15131000  0.32560000  0.02446400  1
  O  O1  1  0.11265000  0.69605300  0.06673300  1
  O  O2  1  0.51821300  0.03720500  0.09371800  1
  O  O3  1  0.49386500  0.34295200  0.12354700  1
  O  O4  1  0.39465800  0.67782600  0.19859600  1
  O  O5  1  0.08346600  0.43331100  0.30003500  1
  O  O6  1  0.24799200  0.15342200  0.29753100  1
  O  O7  1  0.75266600  0.65432300  0.20209700  1
  O  O8  1  0.91481300  0.93330700  0.19907700  1
  O  O9  1  0.60493800  0.17731600  0.30163300  1
  O  O10  1  0.50622600  0.84315600  0.37675600  1
  O  O11  1  0.48315100  0.53846900  0.40650600  1
  O  O12  1  0.14888800  0.32477900  0.52456200  1
  O  O13  1  0.11372500  0.69605500  0.56612900  1
  O  O14  1  0.88651700  0.19641200  0.43319400  1
  O  O15  1  0.85131700  0.82529200  0.47548100  1
  O  O16  1  0.51739500  0.03817600  0.59361800  1
  O  O17  1  0.49442100  0.34206200  0.62371000  1
  O  O18  1  0.39518200  0.67599300  0.69698600  1
  O  O19  1  0.08551900  0.43469600  0.79974900  1
  O  O20  1  0.24765700  0.15400500  0.79790600  1
  O  O21  1  0.75179600  0.65438500  0.70300100  1
  O  O22  1  0.91512000  0.93288800  0.70018000  1
  O  O23  1  0.60782000  0.17610800  0.80114900  1
  O  O24  1  0.49807100  0.84159000  0.87740000  1
  O  O25  1  0.48311100  0.53688700  0.90603000  1
  O  O26  1  0.88615700  0.20126300  0.93552300  1
  O  O27  1  0.85345100  0.82529000  0.97258400  1
loop_
_geom_bond_atom_site_label_1
_geom_bond_atom_site_label_2
_geom_bond_distance
_geom_bond_site_symmetry_2
Li0 O2 2.012557 1_565
Li0 O24 2.015679 1_554
Li0 O4 2.023868 1_555
Li0 O1 2.110274 1_555
Li1 O11 2.002363 1_555
Li1 O9 2.033958 1_555
Li1 O17 2.055349 1_555
Li1 O14 2.076785 1_555
Li2 O18 2.018346 1_555
Li2 O16 2.022451 1_565
Li2 O10 2.053934 1_555
Li2 O13 2.099195 1_555
Li3 O25 1.999975 1_555
Li3 O23 2.036065 1_555
Li3 O26 2.050321 1_555
Li3 O3 2.053470 1_556
Mn0 O27 1.958380 1_555
Mn0 O22 1.981600 1_555
Mn0 O23 2.045738 1_565
Mn0 O2 2.078175 1_566
Mn0 O26 2.129961 1_565
Mn0 O24 2.154882 1_555
O0 P6 1.524561 1_554
O0 V0 1.982863 1_555
O1 P1 1.524017 1_455
O1 V0 2.081432 1_555
O2 P0 1.538557 1_555
O3 P0 1.531202 1_555
O3 V0 2.073414 1_555
O4 P3 1.535564 1_555
O4 V0 2.071008 1_555
O5 P2 1.537923 1_555
O5 V0 2.000436 1_555
O6 P0 1.612257 1_555
O6 P2 1.630618 1_555
O7 P3 1.615426 1_555
O7 P1 1.626150 1_555
O8 P1 1.535316 1_555
O8 V1 2.001439 1_555
O9 P0 1.538942 1_555
O9 V1 2.046037 1_545
O10 P3 1.533576 1_555
O10 V1 2.090133 1_555
O11 P3 1.535901 1_555
O11 V2 2.074262 1_555
O12 P2 1.522814 1_555
O12 V2 2.002331 1_555
O13 P5 1.524770 1_455
O13 V2 2.082812 1_555
O14 P2 1.527618 1_655
O14 V1 2.098711 1_545
O15 P5 1.525810 1_555
O15 V1 1.981042 1_555
O16 P4 1.536466 1_555
O16 V1 2.066763 1_545
O17 P4 1.532768 1_555
O17 V2 2.077923 1_555
O18 P7 1.538835 1_555
O18 V2 2.047762 1_555
O19 P6 1.539491 1_555
O19 V2 1.984586 1_555
O20 P4 1.611574 1_555
O20 P6 1.633306 1_555
O21 P5 1.620528 1_555
O21 P7 1.622184 1_555
O22 P5 1.542359 1_555
O23 P4 1.541607 1_555
O24 P7 1.520965 1_555
O25 P7 1.538167 1_555
O25 V0 2.070178 1_556
O26 P6 1.517888 1_655
O27 P1 1.531818 1_556
