# generated using pymatgen
data_VNO3
_symmetry_space_group_name_H-M   'P 1'
_cell_length_a   3.21025100
_cell_length_b   6.01461400
_cell_length_c   18.12280900
_cell_angle_alpha   90.00000000
_cell_angle_beta   90.00000000
_cell_angle_gamma   90.00000000
_symmetry_Int_Tables_number   1
_chemical_formula_structural   VNO3
_chemical_formula_sum   'V4 N4 O12'
_cell_volume   349.92281877
_cell_formula_units_Z   4
loop_
 _symmetry_equiv_pos_site_id
 _symmetry_equiv_pos_as_xyz
  1  'x, y, z'
loop_
 _atom_site_type_symbol
 _atom_site_label
 _atom_site_symmetry_multiplicity
 _atom_site_fract_x
 _atom_site_fract_y
 _atom_site_fract_z
 _atom_site_occupancy
  V  V0  1  0.52195200  0.25000000  0.30543800  1
  V  V1  1  0.47804800  0.75000000  0.69456200  1
  V  V2  1  0.52195200  0.75000000  0.19456200  1
  V  V3  1  0.47804800  0.25000000  0.80543800  1
  N  N0  1  0.27850100  0.25000000  0.04470100  1
  N  N1  1  0.72149900  0.75000000  0.95529900  1
  N  N2  1  0.27850100  0.75000000  0.45529900  1
  N  N3  1  0.72149900  0.25000000  0.54470100  1
  O  O0  1  0.52519900  0.00000000  0.25000000  1
  O  O1  1  0.47480100  0.50000000  0.75000000  1
  O  O2  1  0.47480100  0.00000000  0.75000000  1
  O  O3  1  0.52519900  0.50000000  0.25000000  1
  O  O4  1  0.02224000  0.25000000  0.35468400  1
  O  O5  1  0.97776000  0.75000000  0.64531600  1
  O  O6  1  0.02224000  0.75000000  0.14531600  1
  O  O7  1  0.97776000  0.25000000  0.85468400  1
  O  O8  1  0.46622800  0.25000000  0.49914700  1
  O  O9  1  0.53377200  0.75000000  0.50085300  1
  O  O10  1  0.46622800  0.75000000  0.00085300  1
  O  O11  1  0.53377200  0.25000000  0.99914700  1
loop_
_geom_bond_atom_site_label_1
_geom_bond_atom_site_label_2
_geom_bond_distance
_geom_bond_site_symmetry_2
N0 O11 1.163234 1_554
N1 O10 1.163234 1_556
N2 O9 1.163234 1_555
N3 O8 1.163234 1_555
O0 V0 1.808449 1_555
O0 V2 1.808449 1_545
O1 V3 1.808449 1_555
O1 V1 1.808449 1_555
O2 V3 1.808449 1_555
O2 V1 1.808449 1_545
O3 V0 1.808449 1_555
O3 V2 1.808449 1_555
O4 V0 1.835749 1_555
O4 V0 1.837365 1_455
O5 V1 1.835749 1_555
O5 V1 1.837365 1_655
O6 V2 1.835749 1_555
O6 V2 1.837365 1_455
O7 V3 1.835749 1_555
O7 V3 1.837365 1_655
