# generated using pymatgen
data_YMg14MnO16
_symmetry_space_group_name_H-M   'P 1'
_cell_length_a   4.37985300
_cell_length_b   8.71634000
_cell_length_c   8.75278800
_cell_angle_alpha   90.00000000
_cell_angle_beta   90.00000000
_cell_angle_gamma   90.00000000
_symmetry_Int_Tables_number   1
_chemical_formula_structural   YMg14MnO16
_chemical_formula_sum   'Y1 Mg14 Mn1 O16'
_cell_volume   334.14895460
_cell_formula_units_Z   1
loop_
 _symmetry_equiv_pos_site_id
 _symmetry_equiv_pos_as_xyz
  1  'x, y, z'
loop_
 _atom_site_type_symbol
 _atom_site_label
 _atom_site_symmetry_multiplicity
 _atom_site_fract_x
 _atom_site_fract_y
 _atom_site_fract_z
 _atom_site_occupancy
  Y  Y0  1  0.00000000  0.00000000  0.50000000  1
  Mg  Mg0  1  0.00000000  0.50000000  0.00000000  1
  Mg  Mg1  1  0.00000000  0.50000000  0.50000000  1
  Mg  Mg2  1  0.50000000  0.00000000  0.23791400  1
  Mg  Mg3  1  0.50000000  0.00000000  0.76208600  1
  Mg  Mg4  1  0.50000000  0.50000000  0.24739700  1
  Mg  Mg5  1  0.50000000  0.50000000  0.75260300  1
  Mg  Mg6  1  0.50000000  0.25411100  0.00000000  1
  Mg  Mg7  1  0.50000000  0.26271100  0.50000000  1
  Mg  Mg8  1  0.50000000  0.74588900  0.00000000  1
  Mg  Mg9  1  0.50000000  0.73728900  0.50000000  1
  Mg  Mg10  1  0.00000000  0.25805300  0.24264700  1
  Mg  Mg11  1  0.00000000  0.25805300  0.75735300  1
  Mg  Mg12  1  0.00000000  0.74194700  0.24264700  1
  Mg  Mg13  1  0.00000000  0.74194700  0.75735300  1
  Mn  Mn0  1  0.00000000  0.00000000  0.00000000  1
  O  O0  1  0.00000000  0.26054300  0.00000000  1
  O  O1  1  0.00000000  0.26013400  0.50000000  1
  O  O2  1  0.00000000  0.73945700  0.00000000  1
  O  O3  1  0.00000000  0.73986600  0.50000000  1
  O  O4  1  0.50000000  0.24958900  0.24997100  1
  O  O5  1  0.50000000  0.24958900  0.75002900  1
  O  O6  1  0.50000000  0.75041100  0.24997100  1
  O  O7  1  0.50000000  0.75041100  0.75002900  1
  O  O8  1  0.50000000  0.00000000  0.00000000  1
  O  O9  1  0.50000000  0.00000000  0.50000000  1
  O  O10  1  0.50000000  0.50000000  0.00000000  1
  O  O11  1  0.50000000  0.50000000  0.50000000  1
  O  O12  1  0.00000000  0.00000000  0.24545900  1
  O  O13  1  0.00000000  0.00000000  0.75454100  1
  O  O14  1  0.00000000  0.50000000  0.25032900  1
  O  O15  1  0.00000000  0.50000000  0.74967100  1
loop_
_geom_bond_atom_site_label_1
_geom_bond_atom_site_label_2
_geom_bond_distance
_geom_bond_site_symmetry_2
Mg0 O2 2.087189 1_555
Mg0 O0 2.087189 1_555
Mg0 O10 2.189926 1_555
Mg0 O10 2.189926 1_455
Mg0 O14 2.191077 1_555
Mg0 O15 2.191077 1_554
Mg1 O3 2.090754 1_555
Mg1 O1 2.090754 1_555
Mg1 O15 2.185317 1_555
Mg1 O14 2.185317 1_555
Mg1 O11 2.189926 1_455
Mg1 O11 2.189926 1_555
Mg2 O8 2.082411 1_555
Mg2 O4 2.178061 1_555
Mg2 O6 2.178061 1_545
Mg2 O12 2.190922 1_655
Mg2 O12 2.190922 1_555
Mg2 O9 2.293983 1_555
Mg3 O8 2.082411 1_556
Mg3 O5 2.178061 1_555
Mg3 O7 2.178061 1_545
Mg3 O13 2.190922 1_655
Mg3 O13 2.190922 1_555
Mg3 O9 2.293983 1_555
Mg4 O10 2.165413 1_555
Mg4 O6 2.182784 1_555
Mg4 O4 2.182784 1_555
Mg4 O14 2.190077 1_555
Mg4 O14 2.190077 1_655
Mg4 O11 2.210981 1_555
Mg5 O10 2.165413 1_556
Mg5 O7 2.182784 1_555
Mg5 O5 2.182784 1_555
Mg5 O15 2.190077 1_555
Mg5 O15 2.190077 1_655
Mg5 O11 2.210981 1_555
Mg6 O10 2.143252 1_555
Mg6 O4 2.188298 1_555
Mg6 O5 2.188298 1_554
Mg6 O0 2.190644 1_555
Mg6 O0 2.190644 1_655
Mg6 O8 2.214918 1_555
Mg7 O11 2.068292 1_555
Mg7 O1 2.190042 1_555
Mg7 O1 2.190042 1_655
Mg7 O4 2.191438 1_555
Mg7 O5 2.191438 1_555
Mg7 O9 2.289878 1_555
Mg8 O10 2.143252 1_555
Mg8 O7 2.188298 1_554
Mg8 O6 2.188298 1_555
Mg8 O2 2.190644 1_555
Mg8 O2 2.190644 1_655
Mg8 O8 2.214918 1_565
Mg9 O11 2.068292 1_555
Mg9 O3 2.190042 1_555
Mg9 O3 2.190042 1_655
Mg9 O7 2.191438 1_555
Mg9 O6 2.191438 1_555
Mg9 O9 2.289878 1_565
Mg10 O14 2.109964 1_555
Mg10 O0 2.123949 1_555
Mg10 O4 2.192106 1_555
Mg10 O4 2.192106 1_455
Mg10 O12 2.249412 1_555
Mg10 O1 2.252629 1_555
Mg11 O15 2.109964 1_555
Mg11 O0 2.123949 1_556
Mg11 O5 2.192106 1_455
Mg11 O5 2.192106 1_555
Mg11 O13 2.249412 1_555
Mg11 O1 2.252629 1_555
Mg12 O14 2.109964 1_555
Mg12 O2 2.123949 1_555
Mg12 O6 2.192106 1_455
Mg12 O6 2.192106 1_555
Mg12 O12 2.249412 1_565
Mg12 O3 2.252629 1_555
Mg13 O15 2.109964 1_555
Mg13 O2 2.123949 1_556
Mg13 O7 2.192106 1_555
Mg13 O7 2.192106 1_455
Mg13 O13 2.249412 1_565
Mg13 O3 2.252629 1_555
Mn0 O12 2.148451 1_555
Mn0 O13 2.148451 1_554
Mn0 O8 2.189926 1_455
Mn0 O8 2.189926 1_555
Mn0 O0 2.270981 1_555
Mn0 O2 2.270981 1_545
O1 Y0 2.267416 1_555
O3 Y0 2.267416 1_565
O9 Y0 2.189926 1_555
O9 Y0 2.189926 1_655
O12 Y0 2.227943 1_555
O13 Y0 2.227943 1_555
