# generated using pymatgen
data_Sr3Sn3Au8
_symmetry_space_group_name_H-M   'P 1'
_cell_length_a   4.80557400
_cell_length_b   9.80331700
_cell_length_c   14.26983400
_cell_angle_alpha   90.00000000
_cell_angle_beta   90.00000000
_cell_angle_gamma   90.00000000
_symmetry_Int_Tables_number   1
_chemical_formula_structural   Sr3Sn3Au8
_chemical_formula_sum   'Sr6 Sn6 Au16'
_cell_volume   672.25994632
_cell_formula_units_Z   2
loop_
 _symmetry_equiv_pos_site_id
 _symmetry_equiv_pos_as_xyz
  1  'x, y, z'
loop_
 _atom_site_type_symbol
 _atom_site_label
 _atom_site_symmetry_multiplicity
 _atom_site_fract_x
 _atom_site_fract_y
 _atom_site_fract_z
 _atom_site_occupancy
  Sr  Sr0  1  0.50000000  0.50535300  0.30404500  1
  Sr  Sr1  1  0.50000000  0.49464700  0.69595500  1
  Sr  Sr2  1  0.00000000  0.00535300  0.19595500  1
  Sr  Sr3  1  0.00000000  0.99464700  0.80404500  1
  Sr  Sr4  1  0.50000000  0.50000000  0.00000000  1
  Sr  Sr5  1  0.00000000  0.00000000  0.50000000  1
  Sn  Sn0  1  0.50000000  0.15465900  0.32706900  1
  Sn  Sn1  1  0.50000000  0.84534100  0.67293100  1
  Sn  Sn2  1  0.00000000  0.65465900  0.17293100  1
  Sn  Sn3  1  0.00000000  0.34534100  0.82706900  1
  Sn  Sn4  1  0.00000000  0.50000000  0.50000000  1
  Sn  Sn5  1  0.50000000  0.00000000  0.00000000  1
  Au  Au0  1  0.50000000  0.69764400  0.49830400  1
  Au  Au1  1  0.50000000  0.30235600  0.50169600  1
  Au  Au2  1  0.00000000  0.19764400  0.00169600  1
  Au  Au3  1  0.00000000  0.80235600  0.99830400  1
  Au  Au4  1  0.50000000  0.77865800  0.12678300  1
  Au  Au5  1  0.50000000  0.22134200  0.87321700  1
  Au  Au6  1  0.00000000  0.27865800  0.37321700  1
  Au  Au7  1  0.00000000  0.72134200  0.62678300  1
  Au  Au8  1  0.50000000  0.78423800  0.86531700  1
  Au  Au9  1  0.50000000  0.21576200  0.13468300  1
  Au  Au10  1  0.00000000  0.28423800  0.63468300  1
  Au  Au11  1  0.00000000  0.71576200  0.36531700  1
  Au  Au12  1  0.50000000  0.87615800  0.34127800  1
  Au  Au13  1  0.50000000  0.12384200  0.65872200  1
  Au  Au14  1  0.00000000  0.37615800  0.15872200  1
  Au  Au15  1  0.00000000  0.62384200  0.84127800  1
loop_
_geom_bond_atom_site_label_1
_geom_bond_atom_site_label_2
_geom_bond_distance
_geom_bond_site_symmetry_2
Sn0 Sr2 3.378806 1_655
Sn0 Sr2 3.378806 1_555
Sn0 Sr0 3.453628 1_555
Sn1 Sr3 3.378806 1_555
Sn1 Sr3 3.378806 1_655
Sn1 Sr1 3.453628 1_555
Sn2 Sr0 3.378806 1_555
Sn2 Sr0 3.378806 1_455
Sn2 Sr2 3.453628 1_565
Sn3 Sr1 3.378806 1_455
Sn3 Sr1 3.378806 1_555
Sn3 Sr3 3.453628 1_545
Sn4 Sr0 3.687157 1_455
Sn4 Sr0 3.687157 1_555
Sn4 Sr1 3.687157 1_455
Sn4 Sr1 3.687157 1_555
Sn5 Sr2 3.687157 1_555
Sn5 Sr2 3.687157 1_655
Sn5 Sr3 3.687157 1_644
Sn5 Sr3 3.687157 1_544
Au0 Au12 2.843149 1_555
Au0 Sn1 2.882019 1_555
Au0 Au7 3.031273 1_555
Au0 Au7 3.031273 1_655
Au0 Au11 3.066954 1_655
Au0 Au11 3.066954 1_555
Au0 Sn4 3.086768 1_555
Au0 Sn4 3.086768 1_655
Au0 Sr0 3.352281 1_555
Au0 Sr1 3.451840 1_555
Au1 Au13 2.843149 1_555
Au1 Sn0 2.882019 1_555
Au1 Au6 3.031273 1_555
Au1 Au6 3.031273 1_655
Au1 Au10 3.066954 1_555
Au1 Au10 3.066954 1_655
Au1 Sn4 3.086768 1_555
Au1 Sn4 3.086768 1_655
Au1 Sr1 3.352281 1_555
Au1 Sr0 3.451840 1_555
Au2 Sn3 2.882019 1_554
Au2 Au5 3.031273 1_554
Au2 Au5 3.031273 1_454
Au2 Au9 3.066954 1_555
Au2 Au9 3.066954 1_455
Au2 Sn5 3.086768 1_455
Au2 Sn5 3.086768 1_555
Au2 Sr2 3.352281 1_555
Au2 Sr3 3.451840 1_544
Au3 Sn2 2.882019 1_556
Au3 Au4 3.031273 1_456
Au3 Au4 3.031273 1_556
Au3 Au8 3.066954 1_555
Au3 Au8 3.066954 1_455
Au3 Sn5 3.086768 1_466
Au3 Sn5 3.086768 1_566
Au3 Sr3 3.352281 1_555
Au3 Sr2 3.451840 1_566
Au4 Sn2 2.772134 1_655
Au4 Sn2 2.772134 1_555
Au4 Sn5 2.825156 1_565
Au4 Sr4 3.276536 1_555
Au4 Sr2 3.418566 1_565
Au4 Sr2 3.418566 1_665
Au4 Sr0 3.684697 1_555
Au5 Sn3 2.772134 1_655
Au5 Sn3 2.772134 1_555
Au5 Sn5 2.825156 1_556
Au5 Sr4 3.276536 1_556
Au5 Sr3 3.418566 1_545
Au5 Sr3 3.418566 1_645
Au5 Sr1 3.684697 1_555
Au6 Sn0 2.772134 1_555
Au6 Sn0 2.772134 1_455
Au6 Sn4 2.825156 1_555
Au6 Sr5 3.276536 1_555
Au6 Sr0 3.418566 1_455
Au6 Sr0 3.418566 1_555
Au6 Sr2 3.684697 1_555
Au7 Sn1 2.772134 1_455
Au7 Sn1 2.772134 1_555
Au7 Sn4 2.825156 1_555
Au7 Sr5 3.276536 1_565
Au7 Sr1 3.418566 1_455
Au7 Sr1 3.418566 1_555
Au7 Sr3 3.684697 1_555
Au8 Sn1 2.809907 1_555
Au8 Sn5 2.857922 1_566
Au8 Sr3 3.285211 1_555
Au8 Sr3 3.285211 1_655
Au8 Sr4 3.384990 1_556
Au8 Sr1 3.728326 1_555
Au9 Sn0 2.809907 1_555
Au9 Sn5 2.857922 1_555
Au9 Sr2 3.285211 1_655
Au9 Sr2 3.285211 1_555
Au9 Sr4 3.384990 1_555
Au9 Sr0 3.728326 1_555
Au10 Sn3 2.809907 1_555
Au10 Sn4 2.857922 1_555
Au10 Au13 2.891978 1_455
Au10 Au13 2.891978 1_555
Au10 Sr1 3.285211 1_455
Au10 Sr1 3.285211 1_555
Au10 Sr5 3.384990 1_555
Au10 Sr3 3.728326 1_545
Au11 Sn2 2.809907 1_555
Au11 Sn4 2.857922 1_555
Au11 Au12 2.891978 1_555
Au11 Au12 2.891978 1_455
Au11 Sr0 3.285211 1_455
Au11 Sr0 3.285211 1_555
Au11 Sr5 3.384990 1_565
Au11 Sr2 3.728326 1_565
Au12 Sn0 2.737752 1_565
Au12 Au4 3.206578 1_555
Au12 Sr2 3.417292 1_565
Au12 Sr2 3.417292 1_665
Au12 Sr5 3.518135 1_565
Au12 Sr5 3.518135 1_665
Au12 Sr0 3.673742 1_555
Au13 Sn1 2.737752 1_545
Au13 Au5 3.206578 1_555
Au13 Sr3 3.417292 1_545
Au13 Sr3 3.417292 1_645
Au13 Sr5 3.518135 1_655
Au13 Sr5 3.518135 1_555
Au13 Sr1 3.673742 1_555
Au14 Sn2 2.737752 1_555
Au14 Au2 2.843149 1_555
Au14 Au9 2.891978 1_555
Au14 Au9 2.891978 1_455
Au14 Au6 3.206578 1_555
Au14 Sr0 3.417292 1_455
Au14 Sr0 3.417292 1_555
Au14 Sr4 3.518135 1_455
Au14 Sr4 3.518135 1_555
Au14 Sr2 3.673742 1_555
Au15 Sn3 2.737752 1_555
Au15 Au3 2.843149 1_555
Au15 Au8 2.891978 1_455
Au15 Au8 2.891978 1_555
Au15 Au7 3.206578 1_555
Au15 Sr1 3.417292 1_455
Au15 Sr1 3.417292 1_555
Au15 Sr4 3.518135 1_556
Au15 Sr4 3.518135 1_456
Au15 Sr3 3.673742 1_555
