# generated using pymatgen
data_Na4NiMo6(H19O20)2
_symmetry_space_group_name_H-M   'P 1'
_cell_length_a   7.97357286
_cell_length_b   10.57138703
_cell_length_c   12.51261217
_cell_angle_alpha   105.95504250
_cell_angle_beta   108.92477893
_cell_angle_gamma   96.19252342
_symmetry_Int_Tables_number   1
_chemical_formula_structural   Na4NiMo6(H19O20)2
_chemical_formula_sum   'Na4 Ni1 Mo6 H38 O40'
_cell_volume   936.48609228
_cell_formula_units_Z   1
loop_
 _symmetry_equiv_pos_site_id
 _symmetry_equiv_pos_as_xyz
  1  'x, y, z'
loop_
 _atom_site_type_symbol
 _atom_site_label
 _atom_site_symmetry_multiplicity
 _atom_site_fract_x
 _atom_site_fract_y
 _atom_site_fract_z
 _atom_site_occupancy
  Na  Na0  1  0.80429100  0.86046400  0.58109900  1
  Na  Na1  1  0.19570900  0.13953600  0.41890100  1
  Na  Na2  1  0.20493000  0.86027300  0.80017200  1
  Na  Na3  1  0.79507000  0.13972700  0.19982800  1
  Ni  Ni0  1  0.00000000  0.50000000  0.00000000  1
  Mo  Mo0  1  0.87287700  0.26341000  0.72897600  1
  Mo  Mo1  1  0.12712300  0.73659000  0.27102400  1
  Mo  Mo2  1  0.25092500  0.27035100  0.95302100  1
  Mo  Mo3  1  0.74907500  0.72964900  0.04697900  1
  Mo  Mo4  1  0.36621700  0.49753500  0.23111100  1
  Mo  Mo5  1  0.63378300  0.50246500  0.76888900  1
  H  H0  1  0.00753400  0.54125800  0.79529500  1
  H  H1  1  0.99246600  0.45874200  0.20470500  1
  H  H2  1  0.88888100  0.23585300  0.95501100  1
  H  H3  1  0.11111900  0.76414700  0.04498900  1
  H  H4  1  0.35480200  0.55861100  0.02674600  1
  H  H5  1  0.64519800  0.44138900  0.97325400  1
  H  H6  1  0.57480000  0.80173800  0.33104300  1
  H  H7  1  0.42520000  0.19826200  0.66895700  1
  H  H8  1  0.75846400  0.78723800  0.31511300  1
  H  H9  1  0.24153600  0.21276200  0.68488700  1
  H  H10  1  0.39676600  0.73000900  0.50038600  1
  H  H11  1  0.60323400  0.26999100  0.49961400  1
  H  H12  1  0.47639600  0.78238700  0.63782800  1
  H  H13  1  0.52360400  0.21761300  0.36217200  1
  H  H14  1  0.93388400  0.93942800  0.84977100  1
  H  H15  1  0.06611600  0.06057200  0.15022900  1
  H  H16  1  0.84392600  0.78740400  0.81767000  1
  H  H17  1  0.15607400  0.21259600  0.18233000  1
  H  H18  1  0.13403300  0.83862900  0.54457200  1
  H  H19  1  0.86596700  0.16137100  0.45542800  1
  H  H20  1  0.19754800  0.99339700  0.62082100  1
  H  H21  1  0.80245200  0.00660300  0.37917900  1
  H  H22  1  0.79506700  0.59038900  0.44286200  1
  H  H23  1  0.20493300  0.40961100  0.55713800  1
  H  H24  1  0.75540000  0.58557100  0.55720500  1
  H  H25  1  0.24460000  0.41442900  0.44279500  1
  H  H26  1  0.37291500  0.79457500  0.01708700  1
  H  H27  1  0.62708500  0.20542500  0.98291300  1
  H  H28  1  0.34954600  0.94477900  0.04917000  1
  H  H29  1  0.65045400  0.05522100  0.95083000  1
  H  H30  1  0.59197400  0.82013300  0.83960900  1
  H  H31  1  0.40802600  0.17986700  0.16039100  1
  H  H32  1  0.58643100  0.93463100  0.78170500  1
  H  H33  1  0.41356900  0.06536900  0.21829500  1
  H  H34  1  0.22177100  0.56741100  0.72714200  1
  H  H35  1  0.77822900  0.43258900  0.27285800  1
  H  H36  1  0.04266100  0.60182000  0.64462100  1
  H  H37  1  0.95733900  0.39818000  0.35537900  1
  O  O0  1  0.93145500  0.48791500  0.82440000  1
  O  O1  1  0.06854500  0.51208500  0.17560000  1
  O  O2  1  0.96459800  0.29297500  0.92939500  1
  O  O3  1  0.03540200  0.70702500  0.07060500  1
  O  O4  1  0.27220900  0.49226500  0.03979700  1
  O  O5  1  0.72779100  0.50773500  0.96020300  1
  O  O6  1  0.14186900  0.28773100  0.79696100  1
  O  O7  1  0.85813100  0.71226900  0.20303900  1
  O  O8  1  0.28276100  0.30450700  0.12597200  1
  O  O9  1  0.71723900  0.69549300  0.87402800  1
  O  O10  1  0.35788900  0.69048200  0.26622700  1
  O  O11  1  0.64211100  0.30951800  0.73377300  1
  O  O12  1  0.86686500  0.28399000  0.59322900  1
  O  O13  1  0.13313500  0.71601000  0.40677100  1
  O  O14  1  0.80410900  0.08993800  0.69576300  1
  O  O15  1  0.19589100  0.91006200  0.30423700  1
  O  O16  1  0.20021300  0.09516100  0.91907100  1
  O  O17  1  0.79978700  0.90483900  0.08092900  1
  O  O18  1  0.48067200  0.30936800  0.96789600  1
  O  O19  1  0.51932800  0.69063200  0.03210400  1
  O  O20  1  0.60010100  0.51937300  0.25934500  1
  O  O21  1  0.39989900  0.48062700  0.74065500  1
  O  O22  1  0.34702200  0.46726600  0.35709000  1
  O  O23  1  0.65297800  0.53273400  0.64291000  1
  O  O24  1  0.70667000  0.84333700  0.36829200  1
  O  O25  1  0.29333000  0.15666300  0.63170800  1
  O  O26  1  0.50839600  0.77982900  0.56843800  1
  O  O27  1  0.49160400  0.22017100  0.43156200  1
  O  O28  1  0.89533400  0.85243000  0.78628500  1
  O  O29  1  0.10466600  0.14757000  0.21371500  1
  O  O30  1  0.12889200  0.90587900  0.61528100  1
  O  O31  1  0.87110800  0.09412100  0.38471900  1
  O  O32  1  0.84574100  0.62618700  0.53031800  1
  O  O33  1  0.15425900  0.37381300  0.46968200  1
  O  O34  1  0.28188700  0.85155700  0.00167200  1
  O  O35  1  0.71811300  0.14844300  0.99832800  1
  O  O36  1  0.52242400  0.88890800  0.81981300  1
  O  O37  1  0.47757600  0.11109200  0.18018700  1
  O  O38  1  0.12721300  0.62084200  0.72811400  1
  O  O39  1  0.87278700  0.37915800  0.27188600  1
loop_
_geom_bond_atom_site_label_1
_geom_bond_atom_site_label_2
_geom_bond_distance
_geom_bond_site_symmetry_2
Na0 O26 2.359584 1_555
Na0 O30 2.452210 1_655
Na0 O14 2.456001 1_565
Na0 O28 2.459683 1_555
Na0 O24 2.467615 1_555
Na0 O32 2.468673 1_555
Na1 O27 2.359584 1_555
Na1 O31 2.452210 1_455
Na1 O15 2.456001 1_545
Na1 O29 2.459683 1_555
Na1 O25 2.467615 1_555
Na1 O33 2.468673 1_555
Na2 O38 2.376564 1_555
Na2 O30 2.391358 1_555
Na2 O28 2.408458 1_455
Na2 O34 2.424521 1_556
Na2 O36 2.439476 1_555
Na2 O16 2.531013 1_565
Na3 O39 2.376564 1_555
Na3 O31 2.391358 1_555
Na3 O29 2.408458 1_655
Na3 O35 2.424521 1_554
Na3 O37 2.439476 1_555
Na3 O17 2.531013 1_545
Ni0 O0 2.048035 1_454
Ni0 O1 2.048035 1_555
Ni0 O3 2.071686 1_555
Ni0 O2 2.071686 1_454
Ni0 O4 2.079718 1_555
Ni0 O5 2.079718 1_454
Mo0 O14 1.747172 1_555
Mo0 O12 1.757069 1_555
Mo0 O11 1.968741 1_555
Mo0 O6 1.991814 1_655
Mo0 O0 2.262231 1_555
Mo0 O2 2.291630 1_555
Mo1 O15 1.747172 1_555
Mo1 O13 1.757069 1_555
Mo1 O10 1.968741 1_555
Mo1 O7 1.991814 1_455
Mo1 O1 2.262231 1_555
Mo1 O3 2.291630 1_555
Mo2 O16 1.751676 1_555
Mo2 O18 1.770384 1_555
Mo2 O6 1.932174 1_555
Mo2 O8 2.017998 1_556
Mo2 O2 2.252951 1_455
Mo2 O4 2.259512 1_556
Mo3 O17 1.751676 1_555
Mo3 O19 1.770384 1_555
Mo3 O7 1.932174 1_555
Mo3 O9 2.017998 1_554
Mo3 O3 2.252951 1_655
Mo3 O5 2.259512 1_554
Mo4 O22 1.741796 1_555
Mo4 O20 1.758081 1_555
Mo4 O10 1.978219 1_555
Mo4 O8 2.000203 1_555
Mo4 O4 2.247038 1_555
Mo4 O1 2.282056 1_555
Mo5 O23 1.741796 1_555
Mo5 O21 1.758081 1_555
Mo5 O11 1.978219 1_555
Mo5 O9 2.000203 1_555
Mo5 O5 2.247038 1_555
Mo5 O0 2.282056 1_555
H0 O0 1.000506 1_455
H1 O1 1.000506 1_655
H2 O2 0.992549 1_555
H3 O3 0.992549 1_555
H4 O4 0.992657 1_555
H4 O19 1.780397 1_555
H5 O5 0.992657 1_555
H5 O18 1.780397 1_555
H6 O24 0.992922 1_555
H7 O25 0.992922 1_555
H8 O24 0.989529 1_555
H9 O25 0.989529 1_555
H10 O26 0.977443 1_555
H11 O27 0.977443 1_555
H12 O26 0.975692 1_555
H13 O27 0.975692 1_555
H14 O28 0.974845 1_555
H15 O29 0.974845 1_555
H16 O28 0.993388 1_555
H17 O29 0.993388 1_555
H18 O30 0.986863 1_555
H19 O31 0.986863 1_555
H20 O30 0.995650 1_555
H21 O31 0.995650 1_555
H22 O32 0.978011 1_555
H23 O33 0.978011 1_555
H24 O32 0.993133 1_555
H24 O23 1.711124 1_555
H25 O33 0.993133 1_555
H25 O22 1.711124 1_555
H26 O34 0.997130 1_555
H26 O19 1.689257 1_555
H27 O35 0.997130 1_555
H27 O18 1.689257 1_555
H28 O34 0.985279 1_555
H29 O35 0.985279 1_555
H30 O36 0.997187 1_555
H31 O37 0.997187 1_555
H32 O36 0.976123 1_555
H33 O37 0.976123 1_555
H34 O38 0.990809 1_555
H35 O39 0.990809 1_555
H36 O38 0.992361 1_555
H37 O39 0.992361 1_555
