# generated using pymatgen
data_Li4V3P8O29
_symmetry_space_group_name_H-M   'P 1'
_cell_length_a   9.79950800
_cell_length_b   9.80369102
_cell_length_c   14.01585261
_cell_angle_alpha   89.75899946
_cell_angle_beta   89.76313667
_cell_angle_gamma   60.05215508
_symmetry_Int_Tables_number   1
_chemical_formula_structural   Li4V3P8O29
_chemical_formula_sum   'Li8 V6 P16 O58'
_cell_volume   1166.72097438
_cell_formula_units_Z   2
loop_
 _symmetry_equiv_pos_site_id
 _symmetry_equiv_pos_as_xyz
  1  'x, y, z'
loop_
 _atom_site_type_symbol
 _atom_site_label
 _atom_site_symmetry_multiplicity
 _atom_site_fract_x
 _atom_site_fract_y
 _atom_site_fract_z
 _atom_site_occupancy
  Li  Li0  1  0.32075500  0.77074500  0.56311800  1
  Li  Li1  1  0.77577300  0.90750200  0.56160500  1
  Li  Li2  1  0.91300100  0.76955100  0.05812600  1
  Li  Li3  1  0.77130500  0.32284800  0.05777300  1
  Li  Li4  1  0.90170600  0.32510300  0.56214400  1
  Li  Li5  1  0.09825100  0.22328500  0.93771800  1
  Li  Li6  1  0.22768900  0.09319000  0.44224700  1
  Li  Li7  1  0.67600700  0.09426100  0.93574100  1
  V  V0  1  0.00546900  0.56622500  0.25489000  1
  V  V1  1  0.99935200  0.43487500  0.74979700  1
  V  V2  1  0.42837700  0.56830600  0.75381800  1
  V  V3  1  0.56047700  0.43617600  0.25368800  1
  V  V4  1  0.43662100  0.99312900  0.24396600  1
  V  V5  1  0.56801000  0.99855600  0.74918400  1
  P  P0  1  0.31697700  0.91331200  0.84147600  1
  P  P1  1  0.31498100  0.77177100  0.34266400  1
  P  P2  1  0.76813600  0.91280100  0.34246000  1
  P  P3  1  0.67304000  0.66221900  0.12834500  1
  P  P4  1  0.66491000  0.66573700  0.62677500  1
  P  P5  1  0.91308300  0.76789900  0.84360200  1
  P  P6  1  0.08609800  0.68377000  0.65897300  1
  P  P7  1  0.76776200  0.31856100  0.84195900  1
  P  P8  1  0.22922700  0.68696700  0.15642600  1
  P  P9  1  0.90984900  0.31888600  0.34068300  1
  P  P10  1  0.08816400  0.23208000  0.15906500  1
  P  P11  1  0.33406900  0.32783200  0.37179800  1
  P  P12  1  0.33508500  0.33092000  0.87332500  1
  P  P13  1  0.23198200  0.08807200  0.65786900  1
  P  P14  1  0.68249000  0.23230200  0.65807800  1
  P  P15  1  0.68235900  0.08921300  0.15928100  1
  O  O0  1  0.24092200  0.00233600  0.56702200  1
  O  O1  1  0.33839600  0.91785200  0.33531300  1
  O  O2  1  0.23586900  0.76569500  0.06919300  1
  O  O3  1  0.34227000  0.74350800  0.83423800  1
  O  O4  1  0.47756700  0.90367200  0.82526600  1
  O  O5  1  0.52172200  0.81354300  0.17380500  1
  O  O6  1  0.61545100  0.90648300  0.32059800  1
  O  O7  1  0.75749800  0.00143400  0.06962800  1
  O  O8  1  0.74593500  0.91675800  0.83799000  1
  O  O9  1  0.51191700  0.67003800  0.66970200  1
  O  O10  1  0.47798700  0.61910800  0.32203700  1
  O  O11  1  0.67254400  0.81229100  0.66640300  1
  O  O12  1  0.67052400  0.66781800  0.02279900  1
  O  O13  1  0.65976700  0.66708100  0.52011500  1
  O  O14  1  0.81892100  0.66790400  0.17001800  1
  O  O15  1  0.61735400  0.47941300  0.82359100  1
  O  O16  1  0.66988500  0.51383700  0.16934000  1
  O  O17  1  0.91157700  0.74349900  0.33202300  1
  O  O18  1  0.00561900  0.78691700  0.75454600  1
  O  O19  1  0.99676600  0.77165300  0.57345700  1
  O  O20  1  0.99078200  0.76054800  0.93538100  1
  O  O21  1  0.90144700  0.61797700  0.82309000  1
  O  O22  1  0.81163600  0.51221100  0.66649900  1
  O  O23  1  0.08505200  0.65917700  0.16381000  1
  O  O24  1  0.90386600  0.47855100  0.32272700  1
  O  O25  1  0.74209900  0.34380900  0.33396800  1
  O  O26  1  0.20697900  0.78863500  0.25335300  1
  O  O27  1  0.24774000  0.76249300  0.43508300  1
  O  O28  1  0.76779300  0.23991800  0.57263300  1
  O  O29  1  0.25558200  0.66268400  0.66210300  1
  O  O30  1  0.09971000  0.52197300  0.67491200  1
  O  O31  1  0.91549000  0.33630000  0.84167600  1
  O  O32  1  0.18516200  0.47871500  0.32586700  1
  O  O33  1  0.09440900  0.38403500  0.17752200  1
  O  O34  1  0.00176300  0.24136000  0.06966100  1
  O  O35  1  0.99736000  0.24307900  0.43012300  1
  O  O36  1  0.99960000  0.20871900  0.24999100  1
  O  O37  1  0.08234500  0.25393800  0.66013500  1
  O  O38  1  0.33454600  0.48099300  0.82607200  1
  O  O39  1  0.38286400  0.52528300  0.17898700  1
  O  O40  1  0.18655900  0.32817200  0.83393700  1
  O  O41  1  0.33674700  0.33561600  0.97951000  1
  O  O42  1  0.32866200  0.33377400  0.47698700  1
  O  O43  1  0.33205100  0.18054400  0.33065000  1
  O  O44  1  0.52329600  0.38408500  0.67763200  1
  O  O45  1  0.48006400  0.33378400  0.32612100  1
  O  O46  1  0.25646400  0.08823900  0.16527200  1
  O  O47  1  0.21166800  0.99559300  0.74622800  1
  O  O48  1  0.22952400  0.00318700  0.92669800  1
  O  O49  1  0.37981900  0.10075000  0.67519500  1
  O  O50  1  0.48918100  0.18576100  0.83358000  1
  O  O51  1  0.52087800  0.09822700  0.17708400  1
  O  O52  1  0.66150200  0.25637200  0.16115900  1
  O  O53  1  0.75464400  0.24459300  0.93346200  1
  O  O54  1  0.78764800  0.20701500  0.75393400  1
  O  O55  1  0.66071900  0.08609600  0.65920100  1
  O  O56  1  0.76147300  0.99072200  0.43313500  1
  O  O57  1  0.78978100  0.00200200  0.25072700  1
loop_
_geom_bond_atom_site_label_1
_geom_bond_atom_site_label_2
_geom_bond_distance
_geom_bond_site_symmetry_2
Li0 O27 1.951521 1_555
Li0 O0 1.999305 1_565
Li0 O29 2.027515 1_555
Li0 O9 2.209020 1_555
Li1 O19 1.900711 1_555
Li1 O56 1.950146 1_555
Li1 O55 2.060180 1_565
Li1 O11 2.229573 1_555
Li2 O20 1.863256 1_554
Li2 O7 2.014542 1_565
Li2 O23 2.096017 1_655
Li2 O14 2.279174 1_555
Li3 O53 1.946686 1_554
Li3 O34 1.991706 1_655
Li3 O52 2.088437 1_555
Li3 O16 2.256684 1_555
Li4 O28 1.879548 1_555
Li4 O35 2.048125 1_555
Li4 O37 2.070156 1_655
Li4 O22 2.162993 1_555
Li5 O48 1.887975 1_555
Li5 O34 2.041161 1_556
Li5 O31 2.067209 1_455
Li5 O40 2.188033 1_555
Li6 O0 1.934430 1_555
Li6 O35 1.993065 1_455
Li6 O1 2.127065 1_545
Li6 O43 2.252945 1_555
Li7 O53 1.974916 1_555
Li7 O8 2.048559 1_545
Li7 O7 2.063913 1_556
Li7 O50 2.139612 1_555
O0 P13 1.506656 1_555
O1 P1 1.562346 1_555
O1 V4 1.949726 1_555
O2 P8 1.461633 1_555
O3 P0 1.559558 1_555
O3 V2 1.869249 1_555
O4 P0 1.544611 1_555
O4 V5 1.896026 1_555
O5 P3 1.615373 1_555
O5 V4 1.817706 1_555
O6 P2 1.559787 1_555
O6 V4 1.862220 1_555
O7 P15 1.493480 1_555
O8 P5 1.559600 1_555
O8 V5 1.961106 1_555
O9 P4 1.594107 1_555
O9 V2 1.962691 1_555
O10 P1 1.577356 1_555
O10 V3 1.829777 1_555
O11 P4 1.578850 1_555
O11 V5 1.967347 1_555
O12 P3 1.479955 1_555
O13 P4 1.495769 1_555
O14 P3 1.573097 1_555
O14 V0 1.984735 1_655
O15 P7 1.550668 1_555
O15 V2 1.881956 1_555
O16 P3 1.576373 1_555
O16 V3 1.980844 1_555
O17 P2 1.556625 1_555
O17 V0 1.856552 1_655
O18 P5 1.603915 1_455
O18 P6 1.626443 1_555
O19 P6 1.480606 1_655
O20 P5 1.480607 1_555
O21 P5 1.557912 1_555
O21 V1 1.867057 1_555
O22 P4 1.575317 1_555
O22 V1 1.984829 1_555
O23 P8 1.569692 1_555
O23 V0 1.939014 1_555
O24 P9 1.556322 1_555
O24 V0 1.863835 1_655
O25 P9 1.539779 1_555
O25 V3 1.911181 1_555
O26 P1 1.596531 1_555
O26 P8 1.636621 1_555
O27 P1 1.473817 1_555
O28 P14 1.480488 1_555
O29 P6 1.568709 1_555
O29 V2 1.954360 1_555
O30 P6 1.539405 1_555
O30 V1 1.902703 1_455
O31 P7 1.541847 1_555
O31 V1 2.010310 1_555
O32 P11 1.605140 1_555
O32 V0 1.823571 1_555
O33 P10 1.544127 1_555
O33 V0 1.892084 1_555
O34 P10 1.492063 1_555
O35 P9 1.491284 1_555
O36 P9 1.615454 1_555
O36 P10 1.617602 1_655
O37 P13 1.553961 1_555
O37 V1 1.989265 1_455
O38 P12 1.608528 1_555
O38 V2 1.837010 1_555
O39 P8 1.579960 1_555
O39 V3 1.837946 1_555
O40 P12 1.571572 1_555
O40 V1 1.985449 1_455
O41 P12 1.489586 1_555
O42 P11 1.475397 1_555
O43 P11 1.566413 1_555
O43 V4 2.007666 1_545
O44 P14 1.550876 1_555
O44 V2 1.896832 1_555
O45 P11 1.592347 1_555
O45 V3 1.853064 1_555
O46 P10 1.547349 1_555
O46 V4 1.888559 1_545
O47 P13 1.601259 1_565
O47 P0 1.633720 1_555
O48 P0 1.477836 1_545
O49 P13 1.534985 1_555
O49 V5 1.908536 1_545
O50 P12 1.571607 1_555
O50 V5 1.989842 1_545
O51 P15 1.559317 1_555
O51 V4 1.859291 1_545
O52 P15 1.547240 1_555
O52 V3 2.008854 1_555
O53 P7 1.507002 1_555
O54 P7 1.597678 1_555
O54 P14 1.637670 1_555
O55 P14 1.550929 1_555
O55 V5 1.977976 1_545
O56 P2 1.469919 1_555
O57 P15 1.607859 1_555
O57 P2 1.623666 1_545
