# generated using pymatgen
data_ReBiO5
_symmetry_space_group_name_H-M   'P 1'
_cell_length_a   6.30480000
_cell_length_b   12.50873800
_cell_length_c   16.92331700
_cell_angle_alpha   90.00000000
_cell_angle_beta   90.00000000
_cell_angle_gamma   90.00000000
_symmetry_Int_Tables_number   1
_chemical_formula_structural   ReBiO5
_chemical_formula_sum   'Re8 Bi8 O40'
_cell_volume   1334.65894102
_cell_formula_units_Z   8
loop_
 _symmetry_equiv_pos_site_id
 _symmetry_equiv_pos_as_xyz
  1  'x, y, z'
loop_
 _atom_site_type_symbol
 _atom_site_label
 _atom_site_symmetry_multiplicity
 _atom_site_fract_x
 _atom_site_fract_y
 _atom_site_fract_z
 _atom_site_occupancy
  Re  Re0  1  0.98598500  0.39463600  0.38795400  1
  Re  Re1  1  0.51401500  0.89463600  0.61204600  1
  Re  Re2  1  0.01401500  0.60536400  0.61204600  1
  Re  Re3  1  0.48598500  0.10536400  0.38795400  1
  Re  Re4  1  0.01401500  0.10536400  0.88795400  1
  Re  Re5  1  0.98598500  0.89463600  0.11204600  1
  Re  Re6  1  0.51401500  0.39463600  0.88795400  1
  Re  Re7  1  0.48598500  0.60536400  0.11204600  1
  Bi  Bi0  1  0.95071600  0.82263800  0.78845000  1
  Bi  Bi1  1  0.04928400  0.17736200  0.21155000  1
  Bi  Bi2  1  0.54928400  0.32263800  0.21155000  1
  Bi  Bi3  1  0.04928400  0.67736200  0.28845000  1
  Bi  Bi4  1  0.45071600  0.17736200  0.71155000  1
  Bi  Bi5  1  0.45071600  0.67736200  0.78845000  1
  Bi  Bi6  1  0.54928400  0.82263800  0.28845000  1
  Bi  Bi7  1  0.95071600  0.32263800  0.71155000  1
  O  O0  1  0.91743300  0.30388700  0.30900300  1
  O  O1  1  0.24404900  0.05124800  0.92658000  1
  O  O2  1  0.25595100  0.55124800  0.07342000  1
  O  O3  1  0.23945500  0.78155700  0.84411300  1
  O  O4  1  0.26054500  0.28155700  0.15588700  1
  O  O5  1  0.91743300  0.80388700  0.19099700  1
  O  O6  1  0.26054500  0.78155700  0.34411300  1
  O  O7  1  0.58256700  0.80388700  0.69099700  1
  O  O8  1  0.24404900  0.55124800  0.57342000  1
  O  O9  1  0.08256700  0.69611300  0.69099700  1
  O  O10  1  0.58256700  0.30388700  0.80900300  1
  O  O11  1  0.62256200  0.17115600  0.46171000  1
  O  O12  1  0.74404900  0.94875200  0.57342000  1
  O  O13  1  0.76054500  0.71844300  0.34411300  1
  O  O14  1  0.14309800  0.00047500  0.15071000  1
  O  O15  1  0.74404900  0.44875200  0.92658000  1
  O  O16  1  0.08256700  0.19611300  0.80900300  1
  O  O17  1  0.73945500  0.21844300  0.65588700  1
  O  O18  1  0.12256200  0.82884400  0.03829000  1
  O  O19  1  0.25595100  0.05124800  0.42658000  1
  O  O20  1  0.37743800  0.82884400  0.53829000  1
  O  O21  1  0.85690200  0.99952500  0.84929000  1
  O  O22  1  0.76054500  0.21844300  0.15588700  1
  O  O23  1  0.64309800  0.99952500  0.34929000  1
  O  O24  1  0.37743800  0.32884400  0.96171000  1
  O  O25  1  0.12256200  0.32884400  0.46171000  1
  O  O26  1  0.75595100  0.44875200  0.42658000  1
  O  O27  1  0.75595100  0.94875200  0.07342000  1
  O  O28  1  0.64309800  0.49952500  0.15071000  1
  O  O29  1  0.87743800  0.67115600  0.53829000  1
  O  O30  1  0.87743800  0.17115600  0.96171000  1
  O  O31  1  0.62256200  0.67115600  0.03829000  1
  O  O32  1  0.85690200  0.49952500  0.65071000  1
  O  O33  1  0.73945500  0.71844300  0.84411300  1
  O  O34  1  0.23945500  0.28155700  0.65588700  1
  O  O35  1  0.14309800  0.50047500  0.34929000  1
  O  O36  1  0.35690200  0.50047500  0.84929000  1
  O  O37  1  0.41743300  0.19611300  0.30900300  1
  O  O38  1  0.35690200  0.00047500  0.65071000  1
  O  O39  1  0.41743300  0.69611300  0.19099700  1
loop_
_geom_bond_atom_site_label_1
_geom_bond_atom_site_label_2
_geom_bond_distance
_geom_bond_site_symmetry_2
Bi0 O33 2.088109 1_555
Bi0 O3 2.113159 1_655
Bi0 O9 2.432250 1_655
Bi0 O21 2.511115 1_555
Bi1 O4 2.088109 1_555
Bi1 O22 2.113159 1_455
Bi1 O0 2.432250 1_455
Bi1 O14 2.511115 1_555
Bi2 O22 2.088109 1_555
Bi2 O4 2.113159 1_555
Bi2 O37 2.432250 1_555
Bi2 O28 2.511115 1_555
Bi3 O6 2.088109 1_555
Bi3 O13 2.113159 1_455
Bi3 O5 2.432250 1_455
Bi3 O35 2.511115 1_555
Bi4 O34 2.088109 1_555
Bi4 O17 2.113159 1_555
Bi4 O10 2.432250 1_555
Bi4 O38 2.511115 1_555
Bi5 O3 2.088109 1_555
Bi5 O33 2.113159 1_555
Bi5 O7 2.432250 1_555
Bi5 O36 2.511115 1_555
Bi6 O13 2.088109 1_555
Bi6 O6 2.113159 1_555
Bi6 O39 2.432250 1_555
Bi6 O23 2.511115 1_555
Bi7 O17 2.088109 1_555
Bi7 O34 2.113159 1_655
Bi7 O16 2.432250 1_655
Bi7 O32 2.511115 1_555
O0 Re0 1.805707 1_555
O1 Re4 1.728857 1_555
O2 Re7 1.728857 1_555
O5 Re5 1.805707 1_555
O7 Re1 1.805707 1_555
O8 Re2 1.728857 1_555
O9 Re2 1.805707 1_555
O10 Re6 1.805707 1_555
O11 Re3 1.725329 1_555
O12 Re1 1.728857 1_555
O14 Re5 1.778230 1_445
O15 Re6 1.728857 1_555
O16 Re4 1.805707 1_555
O18 Re5 1.725329 1_455
O19 Re3 1.728857 1_555
O20 Re1 1.725329 1_555
O21 Re4 1.778230 1_665
O23 Re3 1.778230 1_565
O24 Re6 1.725329 1_555
O25 Re0 1.725329 1_455
O26 Re0 1.728857 1_555
O27 Re5 1.728857 1_555
O28 Re7 1.778230 1_555
O29 Re2 1.725329 1_655
O30 Re4 1.725329 1_655
O31 Re7 1.725329 1_555
O32 Re2 1.778230 1_655
O35 Re0 1.778230 1_455
O36 Re6 1.778230 1_555
O37 Re3 1.805707 1_555
O38 Re1 1.778230 1_545
O39 Re7 1.805707 1_555
