# generated using pymatgen
data_Li5Mn4(P2O7)4
_symmetry_space_group_name_H-M   'P 1'
_cell_length_a   9.76485800
_cell_length_b   9.76990298
_cell_length_c   11.32834820
_cell_angle_alpha   102.88254619
_cell_angle_beta   90.43702286
_cell_angle_gamma   90.64704025
_symmetry_Int_Tables_number   1
_chemical_formula_structural   Li5Mn4(P2O7)4
_chemical_formula_sum   'Li10 Mn8 P16 O56'
_cell_volume   1053.41637788
_cell_formula_units_Z   2
loop_
 _symmetry_equiv_pos_site_id
 _symmetry_equiv_pos_as_xyz
  1  'x, y, z'
loop_
 _atom_site_type_symbol
 _atom_site_label
 _atom_site_symmetry_multiplicity
 _atom_site_fract_x
 _atom_site_fract_y
 _atom_site_fract_z
 _atom_site_occupancy
  Li  Li0  1  0.57005100  0.84217800  0.46348900  1
  Li  Li1  1  0.89242800  0.91121500  0.97698500  1
  Li  Li2  1  0.40427500  0.57793500  0.01934800  1
  Li  Li3  1  0.03454700  0.61945400  0.50080600  1
  Li  Li4  1  0.20775100  0.38421700  0.54524500  1
  Li  Li5  1  0.41292100  0.15136300  0.03882600  1
  Li  Li6  1  0.89868300  0.35329700  0.96322800  1
  Li  Li7  1  0.10747200  0.09361400  0.03189300  1
  Li  Li8  1  0.41882300  0.16526300  0.54291900  1
  Li  Li9  1  0.72468600  0.12902400  0.45211600  1
  Mn  Mn0  1  0.07281800  0.79860700  0.32206800  1
  Mn  Mn1  1  0.77384500  0.72259100  0.16465300  1
  Mn  Mn2  1  0.29048200  0.75683200  0.82425100  1
  Mn  Mn3  1  0.57633100  0.69715900  0.67235800  1
  Mn  Mn4  1  0.42171800  0.29775900  0.32357600  1
  Mn  Mn5  1  0.71403400  0.23989200  0.17244100  1
  Mn  Mn6  1  0.22251500  0.26148300  0.82928800  1
  Mn  Mn7  1  0.93071500  0.20681900  0.67329100  1
  P  P0  1  0.55866300  0.97290300  0.23973100  1
  P  P1  1  0.29225800  0.87853500  0.11060800  1
  P  P2  1  0.07024500  0.94082900  0.76169400  1
  P  P3  1  0.85423800  0.88009700  0.57282900  1
  P  P4  1  0.34921000  0.62279800  0.43107600  1
  P  P5  1  0.57235300  0.56702200  0.24549600  1
  P  P6  1  0.95269000  0.47750500  0.25143200  1
  P  P7  1  0.78813400  0.61758300  0.88503000  1
  P  P8  1  0.20818200  0.38793100  0.11082400  1
  P  P9  1  0.05050900  0.53246600  0.75552300  1
  P  P10  1  0.42118700  0.43058200  0.75216600  1
  P  P11  1  0.65258300  0.37815700  0.58930700  1
  P  P12  1  0.14812000  0.11894200  0.42082800  1
  P  P13  1  0.92608000  0.06393100  0.24075300  1
  P  P14  1  0.71204300  0.11351100  0.89210000  1
  P  P15  1  0.45128100  0.01831600  0.75537500  1
  O  O0  1  0.58616300  0.98677300  0.37350900  1
  O  O1  1  0.15200200  0.96206600  0.42353600  1
  O  O2  1  0.91165200  0.91730600  0.26774900  1
  O  O3  1  0.65940700  0.88579500  0.15277800  1
  O  O4  1  0.41188400  0.89897900  0.21504600  1
  O  O5  1  0.17176200  0.82148800  0.17027200  1
  O  O6  1  0.34853200  0.77096300  0.99894700  1
  O  O7  1  0.73716800  0.97167700  0.91459500  1
  O  O8  1  0.92843200  0.87614800  0.69948000  1
  O  O9  1  0.05888300  0.94494600  0.89480700  1
  O  O10  1  0.46097100  0.86193500  0.77744000  1
  O  O11  1  0.70978500  0.82520400  0.58397300  1
  O  O12  1  0.18518600  0.83906600  0.70685500  1
  O  O13  1  0.94033600  0.79177700  0.47327600  1
  O  O14  1  0.44503500  0.71365800  0.52762100  1
  O  O15  1  0.68422000  0.67681500  0.30831300  1
  O  O16  1  0.20881100  0.68292500  0.41516200  1
  O  O17  1  0.95594100  0.62915100  0.21840100  1
  O  O18  1  0.42823100  0.62266600  0.30370500  1
  O  O19  1  0.57486800  0.57909500  0.11432000  1
  O  O20  1  0.24113500  0.52796900  0.08676400  1
  O  O21  1  0.83983900  0.72762700  0.00079600  1
  O  O22  1  0.66959500  0.67863100  0.82441200  1
  O  O23  1  0.90878100  0.61115200  0.78458900  1
  O  O24  1  0.41026200  0.58242000  0.73380000  1
  O  O25  1  0.15472300  0.61705400  0.84789900  1
  O  O26  1  0.92788400  0.48405500  0.38162500  1
  O  O27  1  0.65997100  0.53107800  0.57552800  1
  O  O28  1  0.33686300  0.47096100  0.44436100  1
  O  O29  1  0.08416500  0.52867300  0.62581800  1
  O  O30  1  0.85355800  0.38549700  0.15516500  1
  O  O31  1  0.59070900  0.41882300  0.26859900  1
  O  O32  1  0.10027800  0.41049300  0.22267400  1
  O  O33  1  0.32677800  0.31000600  0.15594500  1
  O  O34  1  0.13190900  0.28551800  0.00337300  1
  O  O35  1  0.77172900  0.47734000  0.91440500  1
  O  O36  1  0.39891000  0.41677000  0.88095700  1
  O  O37  1  0.57419100  0.37925500  0.71438700  1
  O  O38  1  0.03538300  0.37921800  0.77992100  1
  O  O39  1  0.79359500  0.31583200  0.60232100  1
  O  O40  1  0.32312000  0.32674000  0.66859600  1
  O  O41  1  0.57193600  0.27973600  0.48729800  1
  O  O42  1  0.07691300  0.21193400  0.52726400  1
  O  O43  1  0.81045600  0.16345200  0.30180000  1
  O  O44  1  0.29318600  0.17436100  0.40810900  1
  O  O45  1  0.54847100  0.12285000  0.20639700  1
  O  O46  1  0.93166800  0.07109500  0.10912500  1
  O  O47  1  0.06888700  0.13127300  0.29842200  1
  O  O48  1  0.27364900  0.02007700  0.08081400  1
  O  O49  1  0.64496500  0.21499100  0.00520100  1
  O  O50  1  0.83129900  0.18780600  0.84373100  1
  O  O51  1  0.59794400  0.09430400  0.78458700  1
  O  O52  1  0.35435900  0.09723700  0.85283400  1
  O  O53  1  0.08421700  0.08848000  0.73016300  1
  O  O54  1  0.84717100  0.03829600  0.56641500  1
  O  O55  1  0.42397300  0.01941900  0.62562400  1
loop_
_geom_bond_atom_site_label_1
_geom_bond_atom_site_label_2
_geom_bond_distance
_geom_bond_site_symmetry_2
Li0 O0 1.923268 1_555
Li0 O11 1.957001 1_555
Li0 O14 1.995084 1_555
Li0 O15 2.397362 1_555
Li1 O7 1.826759 1_555
Li1 O21 1.936658 1_556
Li1 O46 1.939743 1_566
Li1 O9 1.940359 1_655
Li2 O20 1.877916 1_555
Li2 O36 1.958565 1_554
Li2 O19 1.974684 1_555
Li2 O6 2.030220 1_554
Li3 O29 1.893743 1_555
Li3 O26 1.951563 1_455
Li3 O13 2.010660 1_455
Li3 O16 2.119224 1_555
Li4 O29 1.939633 1_555
Li4 O40 1.969077 1_555
Li4 O28 2.010863 1_555
Li4 O42 2.074004 1_555
Li4 O44 2.439502 1_555
Li5 O48 1.990850 1_555
Li5 O33 1.999917 1_555
Li5 O52 2.126967 1_554
Li5 O45 2.374645 1_555
Li5 O49 2.398472 1_555
Li6 O35 1.906240 1_555
Li6 O50 1.966224 1_555
Li6 O30 2.175678 1_556
Li6 O34 2.446325 1_656
Li6 O38 2.535201 1_655
Li7 O48 1.909606 1_555
Li7 O9 1.927139 1_544
Li7 O46 1.964981 1_455
Li7 O34 1.984361 1_555
Li8 O55 1.872645 1_555
Li8 O44 1.969690 1_555
Li8 O41 2.043049 1_555
Li8 O40 2.107421 1_555
Li9 O0 1.985310 1_545
Li9 O43 1.996253 1_555
Li9 O41 2.085363 1_555
Li9 O54 2.098786 1_555
Li9 O39 2.291097 1_555
Mn0 O1 1.899867 1_555
Mn0 O5 2.032820 1_555
Mn0 O17 2.119558 1_455
Mn0 O2 2.131872 1_455
Mn0 O13 2.166796 1_455
Mn0 O16 2.167259 1_555
Mn1 O21 1.980289 1_555
Mn1 O3 1.985654 1_555
Mn1 O15 1.987940 1_555
Mn1 O17 2.152650 1_555
Mn1 O19 2.372945 1_555
Mn1 O2 2.391915 1_555
Mn2 O25 1.954925 1_555
Mn2 O12 1.986342 1_555
Mn2 O6 2.028836 1_555
Mn2 O10 2.079627 1_555
Mn2 O24 2.146227 1_555
Mn3 O27 1.937280 1_555
Mn3 O22 1.986974 1_555
Mn3 O14 2.109164 1_555
Mn3 O10 2.117665 1_555
Mn3 O24 2.166767 1_555
Mn3 O11 2.192559 1_555
Mn4 O28 2.106834 1_555
Mn4 O44 2.108245 1_555
Mn4 O33 2.134686 1_555
Mn4 O31 2.193169 1_555
Mn4 O45 2.296859 1_555
Mn4 O41 2.394273 1_555
Mn5 O49 1.968420 1_555
Mn5 O30 2.000650 1_555
Mn5 O43 2.018548 1_555
Mn5 O45 2.057455 1_555
Mn5 O31 2.216132 1_555
Mn6 O52 2.129761 1_555
Mn6 O34 2.133520 1_556
Mn6 O53 2.240656 1_555
Mn6 O36 2.267345 1_555
Mn6 O40 2.283853 1_555
Mn6 O38 2.300797 1_555
Mn7 O54 1.976845 1_555
Mn7 O39 1.992763 1_555
Mn7 O53 2.086891 1_655
Mn7 O38 2.091829 1_655
Mn7 O42 2.201897 1_655
Mn7 O50 2.211193 1_555
O0 P0 1.512799 1_555
O1 P12 1.540680 1_565
O2 P13 1.535224 1_565
O3 P0 1.523880 1_555
O4 P0 1.592025 1_555
O4 P1 1.634763 1_555
O5 P1 1.522239 1_555
O6 P1 1.561220 1_556
O7 P14 1.486436 1_565
O8 P2 1.606372 1_655
O8 P3 1.610694 1_555
O9 P2 1.504476 1_555
O10 P15 1.605890 1_565
O11 P3 1.519560 1_555
O12 P2 1.547439 1_555
O13 P3 1.523215 1_555
O14 P4 1.546754 1_555
O15 P5 1.572125 1_555
O16 P4 1.522760 1_555
O17 P6 1.606980 1_555
O18 P5 1.607026 1_555
O18 P4 1.641207 1_555
O19 P5 1.517031 1_555
O20 P8 1.485720 1_555
O21 P7 1.574674 1_554
O22 P7 1.534025 1_555
O23 P9 1.591490 1_655
O23 P7 1.636084 1_555
O24 P10 1.547944 1_555
O25 P9 1.546859 1_555
O26 P6 1.483823 1_555
O27 P11 1.537336 1_555
O28 P4 1.527595 1_555
O29 P9 1.500571 1_555
O30 P6 1.568914 1_555
O31 P5 1.539847 1_555
O32 P6 1.595343 1_455
O32 P8 1.632591 1_555
O33 P8 1.538316 1_555
O34 P8 1.569645 1_555
O35 P7 1.487583 1_555
O36 P10 1.512001 1_555
O37 P10 1.611777 1_555
O37 P11 1.613625 1_555
O38 P9 1.587457 1_555
O39 P11 1.531143 1_555
O40 P10 1.542236 1_555
O41 P11 1.534178 1_555
O42 P12 1.517004 1_555
O43 P13 1.560537 1_555
O44 P12 1.530067 1_555
O45 P0 1.596254 1_545
O46 P13 1.509646 1_555
O47 P13 1.605610 1_455
O47 P12 1.611264 1_555
O48 P1 1.507341 1_545
O49 P14 1.585762 1_554
O50 P14 1.533362 1_555
O51 P15 1.603404 1_555
O51 P14 1.622536 1_555
O52 P15 1.536881 1_555
O53 P2 1.566260 1_545
O54 P3 1.565661 1_545
O55 P15 1.494280 1_555
