# generated using pymatgen
data_Cs2Al(TeO4)3
_symmetry_space_group_name_H-M   'P 1'
_cell_length_a   7.12658001
_cell_length_b   7.12658001
_cell_length_c   7.12657977
_cell_angle_alpha   61.72923516
_cell_angle_beta   61.72923516
_cell_angle_gamma   61.72923843
_symmetry_Int_Tables_number   1
_chemical_formula_structural   Cs2Al(TeO4)3
_chemical_formula_sum   'Cs2 Al1 Te3 O12'
_cell_volume   265.85280251
_cell_formula_units_Z   1
loop_
 _symmetry_equiv_pos_site_id
 _symmetry_equiv_pos_as_xyz
  1  'x, y, z'
loop_
 _atom_site_type_symbol
 _atom_site_label
 _atom_site_symmetry_multiplicity
 _atom_site_fract_x
 _atom_site_fract_y
 _atom_site_fract_z
 _atom_site_occupancy
  Cs  Cs0  1  0.12835900  0.12835900  0.12835900  1
  Cs  Cs1  1  0.87164100  0.87164100  0.87164100  1
  Al  Al0  1  0.50000000  0.50000000  0.50000000  1
  Te  Te0  1  0.00000000  0.50000000  0.50000000  1
  Te  Te1  1  0.50000000  0.50000000  0.00000000  1
  Te  Te2  1  0.50000000  0.00000000  0.50000000  1
  O  O0  1  0.43352600  0.81410900  0.43352600  1
  O  O1  1  0.82600600  0.43204500  0.82600600  1
  O  O2  1  0.43204500  0.82600600  0.82600600  1
  O  O3  1  0.81410900  0.43352600  0.43352600  1
  O  O4  1  0.82600600  0.82600600  0.43204500  1
  O  O5  1  0.43352600  0.43352600  0.81410900  1
  O  O6  1  0.56647400  0.18589100  0.56647400  1
  O  O7  1  0.17399400  0.56795500  0.17399400  1
  O  O8  1  0.56795500  0.17399400  0.17399400  1
  O  O9  1  0.18589100  0.56647400  0.56647400  1
  O  O10  1  0.17399400  0.17399400  0.56795500  1
  O  O11  1  0.56647400  0.56647400  0.18589100  1
loop_
_geom_bond_atom_site_label_1
_geom_bond_atom_site_label_2
_geom_bond_distance
_geom_bond_site_symmetry_2
Cs0 O4 3.087534 1_445
Cs0 O2 3.087534 1_544
Cs0 O1 3.087534 1_454
Cs0 O5 3.118955 1_554
Cs0 O0 3.118955 1_545
Cs0 O3 3.118955 1_455
Cs1 O10 3.087534 1_665
Cs1 O7 3.087534 1_656
Cs1 O8 3.087534 1_566
Cs1 O11 3.118955 1_556
Cs1 O9 3.118955 1_655
Cs1 O6 3.118955 1_565
Al0 O11 1.913980 1_555
Al0 O5 1.913980 1_555
Al0 O9 1.913980 1_555
Al0 O6 1.913980 1_555
Al0 O0 1.913980 1_555
Al0 O3 1.913980 1_555
O0 Te2 1.898799 1_565
O1 Te0 1.985924 1_655
O1 Te1 1.985924 1_556
O2 Te2 1.985924 1_565
O2 Te1 1.985924 1_556
O3 Te0 1.898799 1_655
O4 Te0 1.985924 1_655
O4 Te2 1.985924 1_565
O5 Te1 1.898799 1_556
O6 Te2 1.898799 1_555
O7 Te0 1.985924 1_555
O7 Te1 1.985924 1_555
O8 Te2 1.985924 1_555
O8 Te1 1.985924 1_555
O9 Te0 1.898799 1_555
O10 Te0 1.985924 1_555
O10 Te2 1.985924 1_555
O11 Te1 1.898799 1_555
