# generated using pymatgen
data_Mg14ZrCr
_symmetry_space_group_name_H-M   'P 1'
_cell_length_a   6.37252164
_cell_length_b   6.32592285
_cell_length_c   10.19365784
_cell_angle_alpha   90.00000000
_cell_angle_beta   90.00000000
_cell_angle_gamma   119.75840449
_symmetry_Int_Tables_number   1
_chemical_formula_structural   Mg14ZrCr
_chemical_formula_sum   'Mg14 Zr1 Cr1'
_cell_volume   356.73689987
_cell_formula_units_Z   1
loop_
 _symmetry_equiv_pos_site_id
 _symmetry_equiv_pos_as_xyz
  1  'x, y, z'
loop_
 _atom_site_type_symbol
 _atom_site_label
 _atom_site_symmetry_multiplicity
 _atom_site_fract_x
 _atom_site_fract_y
 _atom_site_fract_z
 _atom_site_occupancy
  Mg  Mg0  1  0.16694731  0.33347315  0.62500000  1
  Mg  Mg1  1  0.16608053  0.83303977  0.62500000  1
  Mg  Mg2  1  0.66333050  0.32572566  0.12500000  1
  Mg  Mg3  1  0.66620168  0.33379805  0.62500000  1
  Mg  Mg4  1  0.66333050  0.83760384  0.12500000  1
  Mg  Mg5  1  0.66620168  0.83240263  0.62500000  1
  Mg  Mg6  1  0.32927118  0.16344265  0.37068668  1
  Mg  Mg7  1  0.32927118  0.16344265  0.87931332  1
  Mg  Mg8  1  0.32927118  0.66582953  0.37068668  1
  Mg  Mg9  1  0.32927118  0.66582953  0.87931332  1
  Mg  Mg10  1  0.83728526  0.16864313  0.37568743  1
  Mg  Mg11  1  0.83728526  0.16864313  0.87431257  1
  Mg  Mg12  1  0.83943143  0.66971622  0.36758436  1
  Mg  Mg13  1  0.83943143  0.66971622  0.88241564  1
  Zr  Zr0  1  0.16476822  0.33238361  0.12500000  1
  Cr  Cr0  1  0.17262146  0.83631023  0.12500000  1
loop_
_geom_bond_atom_site_label_1
_geom_bond_atom_site_label_2
_geom_bond_distance
_geom_bond_site_symmetry_2
Mg0 Mg10 3.128063 1_455
Mg0 Mg11 3.128063 1_455
Mg0 Mg1 3.162965 1_545
Mg0 Mg1 3.162965 1_555
Mg0 Mg6 3.170465 1_555
Mg0 Mg7 3.170465 1_555
Mg0 Mg8 3.170472 1_555
Mg0 Mg9 3.170472 1_555
Mg0 Mg5 3.180489 1_555
Mg0 Mg3 3.180490 1_555
Mg0 Mg5 3.192033 1_445
Mg0 Mg3 3.192033 1_455
Mg1 Mg8 3.164290 1_555
Mg1 Mg9 3.164290 1_555
Mg1 Mg6 3.164296 1_565
Mg1 Mg7 3.164296 1_565
Mg1 Mg3 3.183490 1_455
Mg1 Mg5 3.183490 1_455
Mg1 Mg12 3.186051 1_455
Mg1 Mg13 3.186051 1_455
Mg1 Mg3 3.189035 1_565
Mg1 Mg5 3.189035 1_555
Mg2 Mg4 3.087821 1_545
Mg2 Mg7 3.112636 1_554
Mg2 Mg6 3.112636 1_555
Mg2 Zr0 3.174728 1_655
Mg2 Zr0 3.198213 1_555
Mg2 Mg4 3.238102 1_555
Mg3 Mg5 3.154134 1_555
Mg3 Mg5 3.171789 1_545
Mg3 Mg6 3.192946 1_555
Mg3 Mg7 3.192946 1_555
Mg4 Mg9 3.112636 1_554
Mg4 Mg8 3.112636 1_555
Mg4 Zr0 3.174728 1_665
Mg4 Zr0 3.198213 1_555
Mg5 Mg8 3.192946 1_555
Mg5 Mg9 3.192946 1_555
Mg6 Zr0 3.102491 1_555
Mg6 Mg8 3.147862 1_545
Mg6 Mg8 3.178061 1_555
Mg7 Zr0 3.102491 1_556
Mg7 Mg9 3.147862 1_545
Mg7 Mg9 3.178061 1_555
Mg8 Zr0 3.102497 1_555
Mg9 Zr0 3.102497 1_556
Mg10 Zr0 3.132473 1_655
Mg10 Mg2 3.136866 1_555
Mg10 Mg4 3.136872 1_545
Mg10 Mg3 3.141588 1_555
Mg10 Mg5 3.141595 1_545
Mg10 Mg8 3.152061 1_655
Mg10 Mg6 3.152061 1_655
Mg10 Mg12 3.164062 1_545
Mg10 Mg12 3.164062 1_555
Mg10 Mg8 3.221532 1_545
Mg10 Mg6 3.221532 1_555
Mg11 Zr0 3.132473 1_656
Mg11 Mg2 3.136866 1_556
Mg11 Mg4 3.136872 1_546
Mg11 Mg3 3.141588 1_555
Mg11 Mg5 3.141595 1_545
Mg11 Mg9 3.152061 1_655
Mg11 Mg7 3.152061 1_655
Mg11 Mg13 3.164062 1_545
Mg11 Mg13 3.164062 1_555
Mg11 Mg9 3.221532 1_545
Mg11 Mg7 3.221532 1_555
Mg12 Mg4 3.112114 1_555
Mg12 Mg2 3.112120 1_555
Mg12 Mg6 3.133950 1_665
Mg12 Mg8 3.133950 1_655
Mg12 Mg5 3.207949 1_555
Mg12 Mg3 3.207955 1_555
Mg12 Mg6 3.239028 1_555
Mg12 Mg8 3.239028 1_555
Mg13 Mg4 3.112114 1_556
Mg13 Mg2 3.112120 1_556
Mg13 Mg7 3.133950 1_665
Mg13 Mg9 3.133950 1_655
Mg13 Mg5 3.207949 1_555
Mg13 Mg3 3.207955 1_555
Mg13 Mg7 3.239028 1_555
Mg13 Mg9 3.239028 1_555
Cr0 Mg9 3.082288 1_554
Cr0 Mg8 3.082288 1_555
Cr0 Mg7 3.082295 1_564
Cr0 Mg6 3.082295 1_565
Cr0 Mg13 3.084226 1_454
Cr0 Mg12 3.084226 1_455
Cr0 Mg2 3.123000 1_565
Cr0 Mg4 3.123000 1_555
Cr0 Zr0 3.163260 1_555
Cr0 Zr0 3.163260 1_565
Cr0 Mg2 3.249537 1_455
Cr0 Mg4 3.249537 1_455
