# generated using pymatgen
data_Er11(Ni10C)6
_symmetry_space_group_name_H-M   'P 1'
_cell_length_a   10.75847944
_cell_length_b   10.75847944
_cell_length_c   10.75847944
_cell_angle_alpha   109.47122063
_cell_angle_beta   109.47122063
_cell_angle_gamma   109.47122063
_symmetry_Int_Tables_number   1
_chemical_formula_structural   Er11(Ni10C)6
_chemical_formula_sum   'Er11 Ni60 C6'
_cell_volume   958.58535972
_cell_formula_units_Z   1
loop_
 _symmetry_equiv_pos_site_id
 _symmetry_equiv_pos_as_xyz
  1  'x, y, z'
loop_
 _atom_site_type_symbol
 _atom_site_label
 _atom_site_symmetry_multiplicity
 _atom_site_fract_x
 _atom_site_fract_y
 _atom_site_fract_z
 _atom_site_occupancy
  Er  Er0  1  0.00000000  0.00000000  0.33707100  1
  Er  Er1  1  0.00000000  0.33707100  0.00000000  1
  Er  Er2  1  0.33707100  0.00000000  0.00000000  1
  Er  Er3  1  0.66292900  0.66292900  0.66292900  1
  Er  Er4  1  0.00000000  0.00000000  0.66292900  1
  Er  Er5  1  0.00000000  0.66292900  0.00000000  1
  Er  Er6  1  0.66292900  0.00000000  0.00000000  1
  Er  Er7  1  0.33707100  0.33707100  0.33707100  1
  Er  Er8  1  0.50000000  0.50000000  0.00000000  1
  Er  Er9  1  0.50000000  0.00000000  0.50000000  1
  Er  Er10  1  0.00000000  0.50000000  0.50000000  1
  Ni  Ni0  1  0.00000000  0.76707300  0.41887300  1
  Ni  Ni1  1  0.23292700  0.23292700  0.65180000  1
  Ni  Ni2  1  0.76707300  0.00000000  0.41887300  1
  Ni  Ni3  1  0.00000000  0.41887300  0.76707300  1
  Ni  Ni4  1  0.76707300  0.41887300  0.00000000  1
  Ni  Ni5  1  0.23292700  0.65180000  0.23292700  1
  Ni  Ni6  1  0.65180000  0.23292700  0.23292700  1
  Ni  Ni7  1  0.41887300  0.76707300  0.00000000  1
  Ni  Ni8  1  0.41887300  0.00000000  0.76707300  1
  Ni  Ni9  1  0.34820000  0.58112700  0.58112700  1
  Ni  Ni10  1  0.58112700  0.58112700  0.34820000  1
  Ni  Ni11  1  0.58112700  0.34820000  0.58112700  1
  Ni  Ni12  1  0.00000000  0.23292700  0.58112700  1
  Ni  Ni13  1  0.76707300  0.76707300  0.34820000  1
  Ni  Ni14  1  0.23292700  0.00000000  0.58112700  1
  Ni  Ni15  1  0.00000000  0.58112700  0.23292700  1
  Ni  Ni16  1  0.23292700  0.58112700  0.00000000  1
  Ni  Ni17  1  0.76707300  0.34820000  0.76707300  1
  Ni  Ni18  1  0.34820000  0.76707300  0.76707300  1
  Ni  Ni19  1  0.58112700  0.23292700  0.00000000  1
  Ni  Ni20  1  0.58112700  0.00000000  0.23292700  1
  Ni  Ni21  1  0.65180000  0.41887300  0.41887300  1
  Ni  Ni22  1  0.41887300  0.41887300  0.65180000  1
  Ni  Ni23  1  0.41887300  0.65180000  0.41887300  1
  Ni  Ni24  1  0.14847200  0.31872600  0.46719800  1
  Ni  Ni25  1  0.68127400  0.82974600  0.14847200  1
  Ni  Ni26  1  0.17025400  0.85152800  0.31872600  1
  Ni  Ni27  1  0.85152800  0.17025400  0.31872600  1
  Ni  Ni28  1  0.31872600  0.14847200  0.46719800  1
  Ni  Ni29  1  0.82974600  0.68127400  0.14847200  1
  Ni  Ni30  1  0.85152800  0.31872600  0.17025400  1
  Ni  Ni31  1  0.31872600  0.46719800  0.14847200  1
  Ni  Ni32  1  0.82974600  0.14847200  0.68127400  1
  Ni  Ni33  1  0.14847200  0.46719800  0.31872600  1
  Ni  Ni34  1  0.68127400  0.14847200  0.82974600  1
  Ni  Ni35  1  0.17025400  0.31872600  0.85152800  1
  Ni  Ni36  1  0.14847200  0.68127400  0.82974600  1
  Ni  Ni37  1  0.31872600  0.17025400  0.85152800  1
  Ni  Ni38  1  0.46719800  0.14847200  0.31872600  1
  Ni  Ni39  1  0.14847200  0.82974600  0.68127400  1
  Ni  Ni40  1  0.31872600  0.85152800  0.17025400  1
  Ni  Ni41  1  0.46719800  0.31872600  0.14847200  1
  Ni  Ni42  1  0.85152800  0.68127400  0.53280200  1
  Ni  Ni43  1  0.68127400  0.53280200  0.85152800  1
  Ni  Ni44  1  0.53280200  0.85152800  0.68127400  1
  Ni  Ni45  1  0.85152800  0.53280200  0.68127400  1
  Ni  Ni46  1  0.68127400  0.85152800  0.53280200  1
  Ni  Ni47  1  0.53280200  0.68127400  0.85152800  1
  Ni  Ni48  1  0.85664600  0.85664600  0.00000000  1
  Ni  Ni49  1  0.14335400  0.00000000  0.14335400  1
  Ni  Ni50  1  0.00000000  0.14335400  0.14335400  1
  Ni  Ni51  1  0.14335400  0.14335400  0.00000000  1
  Ni  Ni52  1  0.85664600  0.00000000  0.85664600  1
  Ni  Ni53  1  0.00000000  0.85664600  0.85664600  1
  Ni  Ni54  1  0.75000000  0.25000000  0.50000000  1
  Ni  Ni55  1  0.75000000  0.50000000  0.25000000  1
  Ni  Ni56  1  0.50000000  0.25000000  0.75000000  1
  Ni  Ni57  1  0.25000000  0.50000000  0.75000000  1
  Ni  Ni58  1  0.25000000  0.75000000  0.50000000  1
  Ni  Ni59  1  0.50000000  0.75000000  0.25000000  1
  C  C0  1  0.70812900  0.70812900  0.00000000  1
  C  C1  1  0.29187100  0.00000000  0.29187100  1
  C  C2  1  0.00000000  0.29187100  0.29187100  1
  C  C3  1  0.29187100  0.29187100  0.00000000  1
  C  C4  1  0.70812900  0.00000000  0.70812900  1
  C  C5  1  0.00000000  0.70812900  0.70812900  1
loop_
_geom_bond_atom_site_label_1
_geom_bond_atom_site_label_2
_geom_bond_distance
_geom_bond_site_symmetry_2
Er0 Ni25 2.815461 1_445
Er0 Ni29 2.815461 1_445
Er0 Ni28 2.815461 1_555
Er0 Ni26 2.815461 1_545
Er0 Ni27 2.815461 1_455
Er0 Ni24 2.815461 1_555
Er0 Ni0 2.919677 1_545
Er0 Ni2 2.919677 1_455
Er0 Ni1 2.919677 1_555
Er0 Ni14 2.964350 1_555
Er0 Ni12 2.964350 1_555
Er0 Ni13 2.964350 1_445
Er0 Ni50 2.977399 1_555
Er0 Ni49 2.977399 1_555
Er0 Ni48 2.977399 1_445
Er1 Ni34 2.815461 1_454
Er1 Ni32 2.815461 1_454
Er1 Ni30 2.815461 1_455
Er1 Ni33 2.815461 1_555
Er1 Ni35 2.815461 1_554
Er1 Ni31 2.815461 1_555
Er1 Ni3 2.919677 1_554
Er1 Ni5 2.919677 1_555
Er1 Ni4 2.919677 1_455
Er1 Ni15 2.964350 1_555
Er1 Ni16 2.964350 1_555
Er1 Ni17 2.964350 1_454
Er1 Ni51 2.977399 1_555
Er1 Ni50 2.977399 1_555
Er1 Ni52 2.977399 1_454
Er2 Ni36 2.815461 1_544
Er2 Ni39 2.815461 1_544
Er2 Ni38 2.815461 1_555
Er2 Ni40 2.815461 1_545
Er2 Ni37 2.815461 1_554
Er2 Ni41 2.815461 1_555
Er2 Ni8 2.919677 1_554
Er2 Ni7 2.919677 1_545
Er2 Ni6 2.919677 1_555
Er2 Ni20 2.964350 1_555
Er2 Ni19 2.964350 1_555
Er2 Ni18 2.964350 1_544
Er2 Ni51 2.977399 1_555
Er2 Ni53 2.977399 1_544
Er2 Ni49 2.977399 1_555
Er3 Ni42 2.815461 1_555
Er3 Ni45 2.815461 1_555
Er3 Ni43 2.815461 1_555
Er3 Ni44 2.815461 1_555
Er3 Ni46 2.815461 1_555
Er3 Ni47 2.815461 1_555
Er3 Ni11 2.919677 1_555
Er3 Ni10 2.919677 1_555
Er3 Ni9 2.919677 1_555
Er3 Ni23 2.964350 1_555
Er3 Ni21 2.964350 1_555
Er3 Ni22 2.964350 1_555
Er3 Ni52 2.977399 1_565
Er3 Ni53 2.977399 1_655
Er3 Ni48 2.977399 1_556
Er4 Ni42 2.815461 1_445
Er4 Ni37 2.815461 1_555
Er4 Ni46 2.815461 1_445
Er4 Ni35 2.815461 1_555
Er4 Ni32 2.815461 1_455
Er4 Ni39 2.815461 1_545
Er4 Ni14 2.919677 1_555
Er4 Ni12 2.919677 1_555
Er4 Ni13 2.919677 1_445
Er4 Ni1 2.964350 1_555
Er4 Ni2 2.964350 1_455
Er4 Ni0 2.964350 1_545
Er4 Ni51 2.977399 1_556
Er4 Ni53 2.977399 1_545
Er4 Ni52 2.977399 1_455
Er5 Ni43 2.815461 1_454
Er5 Ni40 2.815461 1_555
Er5 Ni45 2.815461 1_454
Er5 Ni26 2.815461 1_555
Er5 Ni36 2.815461 1_554
Er5 Ni29 2.815461 1_455
Er5 Ni17 2.919677 1_454
Er5 Ni15 2.919677 1_555
Er5 Ni16 2.919677 1_555
Er5 Ni3 2.964350 1_554
Er5 Ni5 2.964350 1_555
Er5 Ni4 2.964350 1_455
Er5 Ni49 2.977399 1_565
Er5 Ni53 2.977399 1_554
Er5 Ni48 2.977399 1_455
Er6 Ni30 2.815461 1_555
Er6 Ni44 2.815461 1_544
Er6 Ni47 2.815461 1_544
Er6 Ni34 2.815461 1_554
Er6 Ni27 2.815461 1_555
Er6 Ni25 2.815461 1_545
Er6 Ni18 2.919677 1_544
Er6 Ni19 2.919677 1_555
Er6 Ni20 2.919677 1_555
Er6 Ni8 2.964350 1_554
Er6 Ni6 2.964350 1_555
Er6 Ni7 2.964350 1_545
Er6 Ni50 2.977399 1_655
Er6 Ni52 2.977399 1_554
Er6 Ni48 2.977399 1_545
Er7 Ni28 2.815461 1_555
Er7 Ni38 2.815461 1_555
Er7 Ni41 2.815461 1_555
Er7 Ni33 2.815461 1_555
Er7 Ni24 2.815461 1_555
Er7 Ni31 2.815461 1_555
Er7 Ni21 2.919677 1_555
Er7 Ni23 2.919677 1_555
Er7 Ni22 2.919677 1_555
Er7 Ni11 2.964350 1_555
Er7 Ni9 2.964350 1_555
Er7 Ni10 2.964350 1_555
Er7 Ni51 2.977399 1_555
Er7 Ni50 2.977399 1_555
Er7 Ni49 2.977399 1_555
Er8 Ni55 3.105706 1_555
Er8 Ni56 3.105706 1_554
Er8 Ni57 3.105706 1_554
Er8 Ni59 3.105706 1_555
Er8 Ni4 3.269483 1_555
Er8 Ni22 3.269483 1_554
Er8 Ni1 3.269483 1_554
Er8 Ni19 3.269483 1_555
Er8 Ni16 3.269483 1_555
Er8 Ni13 3.269483 1_555
Er8 Ni7 3.269483 1_555
Er8 Ni10 3.269483 1_555
Er9 Ni56 3.105706 1_555
Er9 Ni54 3.105706 1_555
Er9 Ni58 3.105706 1_545
Er9 Ni59 3.105706 1_545
Er9 Ni23 3.269483 1_545
Er9 Ni5 3.269483 1_545
Er9 Ni20 3.269483 1_555
Er9 Ni14 3.269483 1_555
Er9 Ni17 3.269483 1_555
Er9 Ni2 3.269483 1_555
Er9 Ni8 3.269483 1_555
Er9 Ni11 3.269483 1_555
Er10 Ni57 3.105706 1_555
Er10 Ni55 3.105706 1_455
Er10 Ni54 3.105706 1_455
Er10 Ni58 3.105706 1_555
Er10 Ni12 3.269483 1_555
Er10 Ni0 3.269483 1_555
Er10 Ni21 3.269483 1_455
Er10 Ni6 3.269483 1_455
Er10 Ni15 3.269483 1_555
Er10 Ni18 3.269483 1_555
Er10 Ni3 3.269483 1_555
Er10 Ni9 3.269483 1_555
Ni0 Ni15 2.309974 1_555
Ni0 Ni13 2.363813 1_455
Ni0 Ni14 2.363813 1_565
Ni0 Ni42 2.445898 1_455
Ni0 Ni39 2.445898 1_555
Ni0 Ni26 2.490029 1_555
Ni0 Ni29 2.490029 1_455
Ni0 Ni58 2.626938 1_555
Ni0 Ni55 2.626938 1_455
Ni1 Ni22 2.309974 1_555
Ni1 Ni14 2.363813 1_555
Ni1 Ni12 2.363813 1_555
Ni1 Ni35 2.445898 1_555
Ni1 Ni37 2.445898 1_555
Ni1 Ni24 2.490029 1_555
Ni1 Ni28 2.490029 1_555
Ni1 Ni57 2.626938 1_555
Ni1 Ni56 2.626938 1_555
Ni2 Ni20 2.309974 1_555
Ni2 Ni32 2.445898 1_555
Ni2 Ni46 2.445898 1_545
Ni2 Ni27 2.490029 1_555
Ni2 Ni25 2.490029 1_545
Ni2 Ni54 2.626938 1_555
Ni2 Ni59 2.626938 1_545
Ni3 Ni45 2.445898 1_455
Ni3 Ni36 2.445898 1_555
Ni3 Ni35 2.490029 1_555
Ni3 Ni32 2.490029 1_455
Ni3 Ni57 2.626938 1_555
Ni3 Ni54 2.626938 1_455
Ni4 Ni43 2.445898 1_554
Ni4 Ni55 2.626938 1_555
Ni4 Ni56 2.626938 1_554
Ni5 Ni59 2.626938 1_555
Ni5 Ni58 2.626938 1_555
Ni10 Ni13 2.309974 1_555
Ni10 Ni21 2.363813 1_555
Ni10 Ni23 2.363813 1_555
Ni10 Ni41 2.445898 1_555
Ni10 Ni31 2.445898 1_555
Ni10 Ni42 2.490029 1_555
Ni10 Ni46 2.490029 1_555
Ni10 Ni55 2.626938 1_555
Ni10 Ni59 2.626938 1_555
Ni11 Ni17 2.309974 1_555
Ni11 Ni22 2.363813 1_555
Ni11 Ni21 2.363813 1_555
Ni11 Ni38 2.445898 1_555
Ni11 Ni28 2.445898 1_555
Ni11 Ni45 2.490029 1_555
Ni11 Ni43 2.490029 1_555
Ni11 Ni56 2.626938 1_555
Ni11 Ni54 2.626938 1_555
Ni12 Ni3 2.309974 1_555
Ni12 Ni2 2.363813 1_455
Ni12 Ni27 2.445898 1_455
Ni12 Ni24 2.445898 1_555
Ni12 Ni35 2.490029 1_555
Ni12 Ni32 2.490029 1_455
Ni12 Ni57 2.626938 1_555
Ni12 Ni54 2.626938 1_455
Ni13 Ni2 2.363813 1_565
Ni13 Ni29 2.445898 1_555
Ni13 Ni25 2.445898 1_555
Ni13 Ni42 2.490029 1_555
Ni13 Ni46 2.490029 1_555
Ni13 Ni55 2.626938 1_555
Ni13 Ni59 2.626938 1_555
Ni14 Ni8 2.309974 1_555
Ni14 Ni26 2.445898 1_545
Ni14 Ni28 2.445898 1_555
Ni14 Ni37 2.490029 1_555
Ni14 Ni39 2.490029 1_545
Ni14 Ni56 2.626938 1_555
Ni14 Ni58 2.626938 1_545
Ni15 Ni5 2.363813 1_555
Ni15 Ni4 2.363813 1_455
Ni15 Ni30 2.445898 1_455
Ni15 Ni33 2.445898 1_555
Ni15 Ni26 2.490029 1_555
Ni15 Ni29 2.490029 1_455
Ni15 Ni55 2.626938 1_455
Ni15 Ni58 2.626938 1_555
Ni16 Ni7 2.309974 1_555
Ni16 Ni3 2.363813 1_554
Ni16 Ni5 2.363813 1_555
Ni16 Ni35 2.445898 1_554
Ni16 Ni31 2.445898 1_555
Ni16 Ni40 2.490029 1_555
Ni16 Ni36 2.490029 1_554
Ni16 Ni57 2.626938 1_554
Ni16 Ni59 2.626938 1_555
Ni17 Ni3 2.363813 1_655
Ni17 Ni4 2.363813 1_556
Ni17 Ni34 2.445898 1_555
Ni17 Ni32 2.445898 1_555
Ni17 Ni45 2.490029 1_555
Ni17 Ni43 2.490029 1_555
Ni17 Ni56 2.626938 1_555
Ni17 Ni54 2.626938 1_555
Ni18 Ni9 2.309974 1_555
Ni18 Ni8 2.363813 1_565
Ni18 Ni7 2.363813 1_556
Ni18 Ni39 2.445898 1_555
Ni18 Ni36 2.445898 1_555
Ni18 Ni44 2.490029 1_555
Ni18 Ni47 2.490029 1_555
Ni18 Ni57 2.626938 1_555
Ni18 Ni58 2.626938 1_555
Ni19 Ni4 2.309974 1_555
Ni19 Ni8 2.363813 1_554
Ni19 Ni6 2.363813 1_555
Ni19 Ni41 2.445898 1_555
Ni19 Ni37 2.445898 1_554
Ni19 Ni30 2.490029 1_555
Ni19 Ni34 2.490029 1_554
Ni19 Ni55 2.626938 1_555
Ni19 Ni56 2.626938 1_554
Ni20 Ni7 2.363813 1_545
Ni20 Ni6 2.363813 1_555
Ni20 Ni38 2.445898 1_555
Ni20 Ni40 2.445898 1_545
Ni20 Ni27 2.490029 1_555
Ni20 Ni25 2.490029 1_545
Ni20 Ni59 2.626938 1_545
Ni20 Ni54 2.626938 1_555
Ni21 Ni6 2.309974 1_555
Ni21 Ni42 2.445898 1_555
Ni21 Ni45 2.445898 1_555
Ni21 Ni38 2.490029 1_555
Ni21 Ni41 2.490029 1_555
Ni21 Ni54 2.626938 1_555
Ni21 Ni55 2.626938 1_555
Ni22 Ni9 2.363813 1_555
Ni22 Ni43 2.445898 1_555
Ni22 Ni47 2.445898 1_555
Ni22 Ni24 2.490029 1_555
Ni22 Ni28 2.490029 1_555
Ni22 Ni56 2.626938 1_555
Ni22 Ni57 2.626938 1_555
Ni23 Ni5 2.309974 1_555
Ni23 Ni9 2.363813 1_555
Ni23 Ni44 2.445898 1_555
Ni23 Ni46 2.445898 1_555
Ni23 Ni31 2.490029 1_555
Ni23 Ni33 2.490029 1_555
Ni23 Ni59 2.626938 1_555
Ni23 Ni58 2.626938 1_555
Ni24 Ni9 2.445898 1_555
Ni24 Ni57 2.581084 1_555
Ni25 Ni7 2.445898 1_555
Ni25 Ni59 2.581084 1_555
Ni26 Ni5 2.445898 1_555
Ni26 Ni58 2.581084 1_555
Ni27 Ni6 2.445898 1_555
Ni27 Ni54 2.581084 1_555
Ni28 Ni56 2.581084 1_555
Ni29 Ni4 2.445898 1_555
Ni29 Ni55 2.581084 1_555
Ni30 Ni6 2.445898 1_555
Ni30 Ni4 2.490029 1_555
Ni30 Ni55 2.581084 1_555
Ni31 Ni5 2.490029 1_555
Ni31 Ni59 2.581084 1_555
Ni32 Ni54 2.581084 1_555
Ni33 Ni9 2.445898 1_555
Ni33 Ni5 2.490029 1_555
Ni33 Ni58 2.581084 1_555
Ni34 Ni8 2.445898 1_555
Ni34 Ni4 2.490029 1_556
Ni34 Ni56 2.581084 1_555
Ni35 Ni57 2.581084 1_555
Ni36 Ni7 2.490029 1_556
Ni36 Ni57 2.581084 1_555
Ni37 Ni8 2.490029 1_555
Ni37 Ni56 2.581084 1_555
Ni38 Ni6 2.490029 1_555
Ni38 Ni54 2.581084 1_555
Ni39 Ni8 2.490029 1_565
Ni39 Ni58 2.581084 1_555
Ni40 Ni5 2.445898 1_555
Ni40 Ni7 2.490029 1_555
Ni40 Ni59 2.581084 1_555
Ni41 Ni6 2.490029 1_555
Ni41 Ni55 2.581084 1_555
Ni42 Ni55 2.581084 1_555
Ni43 Ni56 2.581084 1_555
Ni44 Ni8 2.445898 1_565
Ni44 Ni9 2.490029 1_555
Ni44 Ni58 2.581084 1_555
Ni45 Ni54 2.581084 1_555
Ni46 Ni59 2.581084 1_555
Ni47 Ni7 2.445898 1_556
Ni47 Ni9 2.490029 1_555
Ni47 Ni57 2.581084 1_555
Ni54 Ni6 2.626938 1_555
Ni55 Ni6 2.626938 1_555
Ni56 Ni8 2.626938 1_555
Ni57 Ni7 2.626938 1_556
Ni57 Ni9 2.626938 1_555
Ni58 Ni8 2.626938 1_565
Ni58 Ni9 2.626938 1_555
Ni59 Ni7 2.626938 1_555
C0 Ni48 1.845000 1_555
C0 Ni25 1.874370 1_555
C0 Ni29 1.874370 1_555
C0 Ni43 1.874370 1_554
C0 Ni47 1.874370 1_554
C0 Er8 2.585550 1_555
C1 Ni49 1.845000 1_555
C1 Ni28 1.874370 1_555
C1 Ni38 1.874370 1_555
C1 Ni40 1.874370 1_545
C1 Ni26 1.874370 1_545
C1 Er9 2.585550 1_555
C2 Ni50 1.845000 1_555
C2 Ni33 1.874370 1_555
C2 Ni24 1.874370 1_555
C2 Ni27 1.874370 1_455
C2 Ni30 1.874370 1_455
C2 Er10 2.585550 1_555
C3 Ni51 1.845000 1_555
C3 Ni31 1.874370 1_555
C3 Ni41 1.874370 1_555
C3 Ni35 1.874370 1_554
C3 Ni37 1.874370 1_554
C3 Er8 2.585550 1_555
C4 Ni52 1.845000 1_555
C4 Ni34 1.874370 1_555
C4 Ni32 1.874370 1_555
C4 Ni46 1.874370 1_545
C4 Ni44 1.874370 1_545
C4 Er9 2.585550 1_555
C5 Ni53 1.845000 1_555
C5 Ni36 1.874370 1_555
C5 Ni39 1.874370 1_555
C5 Ni42 1.874370 1_455
C5 Ni45 1.874370 1_455
C5 Er10 2.585550 1_555
