# generated using pymatgen
data_Sr5Mg
_symmetry_space_group_name_H-M   'P 1'
_cell_length_a   15.63608073
_cell_length_b   15.63608073
_cell_length_c   18.43759097
_cell_angle_alpha   74.74875425
_cell_angle_beta   74.74875425
_cell_angle_gamma   32.73948614
_symmetry_Int_Tables_number   1
_chemical_formula_structural   Sr5Mg
_chemical_formula_sum   'Sr40 Mg8'
_cell_volume   2344.46893724
_cell_formula_units_Z   8
loop_
 _symmetry_equiv_pos_site_id
 _symmetry_equiv_pos_as_xyz
  1  'x, y, z'
loop_
 _atom_site_type_symbol
 _atom_site_label
 _atom_site_symmetry_multiplicity
 _atom_site_fract_x
 _atom_site_fract_y
 _atom_site_fract_z
 _atom_site_occupancy
  Sr  Sr0_0  1  0.00201000  0.00201000  0.03165050  1
  Sr  Sr0_1  1  0.00201000  0.00201000  0.53165050  1
  Sr  Sr0_2  1  0.00201000  0.50201000  0.03165050  1
  Sr  Sr0_3  1  0.00201000  0.50201000  0.53165050  1
  Sr  Sr0_4  1  0.50201000  0.00201000  0.03165050  1
  Sr  Sr0_5  1  0.50201000  0.00201000  0.53165050  1
  Sr  Sr0_6  1  0.50201000  0.50201000  0.03165050  1
  Sr  Sr0_7  1  0.50201000  0.50201000  0.53165050  1
  Sr  Sr1_0  1  0.14607950  0.14607950  0.17685700  1
  Sr  Sr1_1  1  0.14607950  0.14607950  0.67685700  1
  Sr  Sr1_2  1  0.14607950  0.64607950  0.17685700  1
  Sr  Sr1_3  1  0.14607950  0.64607950  0.67685700  1
  Sr  Sr1_4  1  0.64607950  0.14607950  0.17685700  1
  Sr  Sr1_5  1  0.64607950  0.14607950  0.67685700  1
  Sr  Sr1_6  1  0.64607950  0.64607950  0.17685700  1
  Sr  Sr1_7  1  0.64607950  0.64607950  0.67685700  1
  Sr  Sr2_0  1  0.48331300  0.48331300  0.27010050  1
  Sr  Sr2_1  1  0.48331300  0.48331300  0.77010050  1
  Sr  Sr2_2  1  0.48331300  0.98331300  0.27010050  1
  Sr  Sr2_3  1  0.48331300  0.98331300  0.77010050  1
  Sr  Sr2_4  1  0.98331300  0.48331300  0.27010050  1
  Sr  Sr2_5  1  0.98331300  0.48331300  0.77010050  1
  Sr  Sr2_6  1  0.98331300  0.98331300  0.27010050  1
  Sr  Sr2_7  1  0.98331300  0.98331300  0.77010050  1
  Sr  Sr3_0  1  0.32322350  0.32322350  0.34924800  1
  Sr  Sr3_1  1  0.32322350  0.32322350  0.84924800  1
  Sr  Sr3_2  1  0.32322350  0.82322350  0.34924800  1
  Sr  Sr3_3  1  0.32322350  0.82322350  0.84924800  1
  Sr  Sr3_4  1  0.82322350  0.32322350  0.34924800  1
  Sr  Sr3_5  1  0.82322350  0.32322350  0.84924800  1
  Sr  Sr3_6  1  0.82322350  0.82322350  0.34924800  1
  Sr  Sr3_7  1  0.82322350  0.82322350  0.84924800  1
  Sr  Sr4_0  1  0.14746000  0.14746000  0.46345350  1
  Sr  Sr4_1  1  0.14746000  0.14746000  0.96345350  1
  Sr  Sr4_2  1  0.14746000  0.64746000  0.46345350  1
  Sr  Sr4_3  1  0.14746000  0.64746000  0.96345350  1
  Sr  Sr4_4  1  0.64746000  0.14746000  0.46345350  1
  Sr  Sr4_5  1  0.64746000  0.14746000  0.96345350  1
  Sr  Sr4_6  1  0.64746000  0.64746000  0.46345350  1
  Sr  Sr4_7  1  0.64746000  0.64746000  0.96345350  1
  Mg  Mg0_0  1  0.31458100  0.31458100  0.12535700  1
  Mg  Mg0_1  1  0.31458100  0.31458100  0.62535700  1
  Mg  Mg0_2  1  0.31458100  0.81458100  0.12535700  1
  Mg  Mg0_3  1  0.31458100  0.81458100  0.62535700  1
  Mg  Mg0_4  1  0.81458100  0.31458100  0.12535700  1
  Mg  Mg0_5  1  0.81458100  0.31458100  0.62535700  1
  Mg  Mg0_6  1  0.81458100  0.81458100  0.12535700  1
  Mg  Mg0_7  1  0.81458100  0.81458100  0.62535700  1
loop_
_geom_bond_atom_site_label_1
_geom_bond_atom_site_label_2
_geom_bond_distance
_geom_bond_site_symmetry_2
Sr0_0 Sr3_3 4.097616 1_544
Sr0_0 Sr3_5 4.097616 1_454
Sr0_0 Sr4_1 4.197369 1_554
Sr0_0 Sr4_5 4.294110 1_454
Sr0_0 Sr4_3 4.294110 1_544
Sr0_1 Sr3_4 4.097616 1_455
Sr0_1 Sr3_2 4.097616 1_545
Sr0_1 Sr4_0 4.197369 1_555
Sr0_1 Sr4_4 4.294110 1_455
Sr0_1 Sr4_2 4.294110 1_545
Sr0_2 Sr3_1 4.097616 1_554
Sr0_2 Sr3_7 4.097616 1_454
Sr0_2 Sr4_3 4.197369 1_554
Sr0_2 Sr4_7 4.294110 1_454
Sr0_2 Sr4_1 4.294110 1_554
Sr0_3 Sr3_0 4.097616 1_555
Sr0_3 Sr3_6 4.097616 1_455
Sr0_3 Sr4_2 4.197369 1_555
Sr0_3 Sr4_6 4.294110 1_455
Sr0_3 Sr4_0 4.294110 1_555
Sr0_4 Sr3_1 4.097616 1_554
Sr0_4 Sr3_7 4.097616 1_544
Sr0_4 Sr4_5 4.197369 1_554
Sr0_4 Sr4_7 4.294110 1_544
Sr0_4 Sr4_1 4.294110 1_554
Sr0_5 Sr3_0 4.097616 1_555
Sr0_5 Sr3_6 4.097616 1_545
Sr0_5 Sr4_4 4.197369 1_555
Sr0_5 Sr4_6 4.294110 1_545
Sr0_5 Sr4_0 4.294110 1_555
Sr0_6 Sr3_3 4.097616 1_554
Sr0_6 Sr3_5 4.097616 1_554
Sr0_6 Sr4_7 4.197369 1_554
Sr0_6 Sr4_5 4.294110 1_554
Sr0_6 Sr4_3 4.294110 1_554
Sr0_7 Sr3_4 4.097616 1_555
Sr0_7 Sr3_2 4.097616 1_555
Sr0_7 Sr4_6 4.197369 1_555
Sr0_7 Sr4_4 4.294110 1_555
Sr0_7 Sr4_2 4.294110 1_555
Sr1_0 Sr4_1 3.923492 1_554
Sr1_0 Sr3_4 3.990786 1_455
Sr1_0 Sr3_2 3.990786 1_545
Sr1_1 Sr4_0 3.923492 1_555
Sr1_1 Sr3_5 3.990786 1_455
Sr1_1 Sr3_3 3.990786 1_545
Sr1_2 Sr4_3 3.923492 1_554
Sr1_2 Sr3_6 3.990786 1_455
Sr1_2 Sr3_0 3.990786 1_555
Sr1_3 Sr4_2 3.923492 1_555
Sr1_3 Sr3_1 3.990786 1_555
Sr1_3 Sr3_7 3.990786 1_455
Sr1_4 Sr4_5 3.923492 1_554
Sr1_4 Sr3_6 3.990786 1_545
Sr1_4 Sr3_0 3.990786 1_555
Sr1_5 Sr4_4 3.923492 1_555
Sr1_5 Sr3_1 3.990786 1_555
Sr1_5 Sr3_7 3.990786 1_545
Sr1_6 Sr4_7 3.923492 1_554
Sr1_6 Sr3_2 3.990786 1_555
Sr1_6 Sr3_4 3.990786 1_555
Sr1_7 Sr4_6 3.923492 1_555
Sr1_7 Sr3_5 3.990786 1_555
Sr1_7 Sr3_3 3.990786 1_555
Sr2_0 Sr3_4 4.052260 1_555
Sr2_0 Sr3_2 4.052260 1_555
Sr2_0 Sr4_4 4.377681 1_555
Sr2_0 Sr4_2 4.377681 1_555
Sr2_1 Sr3_3 4.052260 1_555
Sr2_1 Sr3_5 4.052260 1_555
Sr2_1 Sr4_5 4.377681 1_555
Sr2_1 Sr4_3 4.377681 1_555
Sr2_2 Sr3_0 4.052260 1_565
Sr2_2 Sr3_6 4.052260 1_555
Sr2_2 Sr4_6 4.377681 1_555
Sr2_2 Sr4_0 4.377681 1_565
Sr2_3 Sr3_7 4.052260 1_555
Sr2_3 Sr3_1 4.052260 1_565
Sr2_3 Sr4_1 4.377681 1_565
Sr2_3 Sr4_7 4.377681 1_555
Sr2_4 Sr3_0 4.052260 1_655
Sr2_4 Sr3_6 4.052260 1_555
Sr2_4 Sr4_6 4.377681 1_555
Sr2_4 Sr4_0 4.377681 1_655
Sr2_5 Sr3_1 4.052260 1_655
Sr2_5 Sr3_7 4.052260 1_555
Sr2_5 Sr4_7 4.377681 1_555
Sr2_5 Sr4_1 4.377681 1_655
Sr2_6 Sr3_4 4.052260 1_565
Sr2_6 Sr3_2 4.052260 1_655
Sr2_6 Sr4_4 4.377681 1_565
Sr2_6 Sr4_2 4.377681 1_655
Sr2_7 Sr3_3 4.052260 1_655
Sr2_7 Sr3_5 4.052260 1_565
Sr2_7 Sr4_5 4.377681 1_565
Sr2_7 Sr4_3 4.377681 1_655
Sr3_0 Sr4_4 4.101470 1_555
Sr3_0 Sr4_2 4.101470 1_555
Sr3_1 Sr4_3 4.101470 1_555
Sr3_1 Sr4_5 4.101470 1_555
Sr3_2 Sr4_0 4.101470 1_565
Sr3_2 Sr4_6 4.101470 1_555
Sr3_3 Sr4_1 4.101470 1_565
Sr3_3 Sr4_7 4.101470 1_555
Sr3_4 Sr4_0 4.101470 1_655
Sr3_4 Sr4_6 4.101470 1_555
Sr3_5 Sr4_1 4.101470 1_655
Sr3_5 Sr4_7 4.101470 1_555
Sr3_6 Sr4_2 4.101470 1_655
Sr3_6 Sr4_4 4.101470 1_565
Sr3_7 Sr4_5 4.101470 1_565
Sr3_7 Sr4_3 4.101470 1_655
Sr4_0 Sr4_6 4.406792 1_455
Sr4_0 Sr4_6 4.406792 1_545
Sr4_1 Sr4_7 4.406792 1_455
Sr4_1 Sr4_7 4.406792 1_545
Sr4_2 Sr4_4 4.406792 1_555
Sr4_2 Sr4_4 4.406792 1_465
Sr4_3 Sr4_5 4.406792 1_465
Sr4_3 Sr4_5 4.406792 1_555
Mg0_0 Sr1_4 3.606847 1_555
Mg0_0 Sr1_2 3.606847 1_555
Mg0_0 Sr0_4 3.625361 1_555
Mg0_0 Sr0_2 3.625361 1_555
Mg0_0 Sr2_4 3.788748 1_455
Mg0_0 Sr2_2 3.788748 1_545
Mg0_0 Sr4_3 3.984889 1_554
Mg0_0 Sr4_5 3.984889 1_554
Mg0_1 Sr1_5 3.606847 1_555
Mg0_1 Sr1_3 3.606847 1_555
Mg0_1 Sr0_5 3.625361 1_555
Mg0_1 Sr0_3 3.625361 1_555
Mg0_1 Sr2_5 3.788748 1_455
Mg0_1 Sr2_3 3.788748 1_545
Mg0_1 Sr4_2 3.984889 1_555
Mg0_1 Sr4_4 3.984889 1_555
Mg0_2 Sr1_6 3.606847 1_555
Mg0_2 Sr1_0 3.606847 1_565
Mg0_2 Sr0_0 3.625361 1_565
Mg0_2 Sr0_6 3.625361 1_555
Mg0_2 Sr2_0 3.788748 1_555
Mg0_2 Sr2_6 3.788748 1_455
Mg0_2 Sr4_1 3.984889 1_564
Mg0_2 Sr4_7 3.984889 1_554
Mg0_3 Sr1_7 3.606847 1_555
Mg0_3 Sr1_1 3.606847 1_565
Mg0_3 Sr0_1 3.625361 1_565
Mg0_3 Sr0_7 3.625361 1_555
Mg0_3 Sr2_7 3.788748 1_455
Mg0_3 Sr2_1 3.788748 1_555
Mg0_3 Sr4_0 3.984889 1_565
Mg0_3 Sr4_6 3.984889 1_555
Mg0_4 Sr1_6 3.606847 1_555
Mg0_4 Sr1_0 3.606847 1_655
Mg0_4 Sr0_0 3.625361 1_655
Mg0_4 Sr0_6 3.625361 1_555
Mg0_4 Sr2_0 3.788748 1_555
Mg0_4 Sr2_6 3.788748 1_545
Mg0_4 Sr4_1 3.984889 1_654
Mg0_4 Sr4_7 3.984889 1_554
Mg0_5 Sr1_7 3.606847 1_555
Mg0_5 Sr1_1 3.606847 1_655
Mg0_5 Sr0_1 3.625361 1_655
Mg0_5 Sr0_7 3.625361 1_555
Mg0_5 Sr2_1 3.788748 1_555
Mg0_5 Sr2_7 3.788748 1_545
Mg0_5 Sr4_0 3.984889 1_655
Mg0_5 Sr4_6 3.984889 1_555
Mg0_6 Sr1_4 3.606847 1_565
Mg0_6 Sr1_2 3.606847 1_655
Mg0_6 Sr0_4 3.625361 1_565
Mg0_6 Sr0_2 3.625361 1_655
Mg0_6 Sr2_2 3.788748 1_555
Mg0_6 Sr2_4 3.788748 1_555
Mg0_6 Sr4_3 3.984889 1_654
Mg0_6 Sr4_5 3.984889 1_564
Mg0_7 Sr1_3 3.606847 1_655
Mg0_7 Sr1_5 3.606847 1_565
Mg0_7 Sr0_5 3.625361 1_565
Mg0_7 Sr0_3 3.625361 1_655
Mg0_7 Sr2_5 3.788748 1_555
Mg0_7 Sr2_3 3.788748 1_555
Mg0_7 Sr4_2 3.984889 1_655
Mg0_7 Sr4_4 3.984889 1_565
