# generated using pymatgen
data_SrMnSb2
_symmetry_space_group_name_H-M   'P 1'
_cell_length_a   4.45107000
_cell_length_b   4.51581900
_cell_length_c   22.62601900
_cell_angle_alpha   90.00000000
_cell_angle_beta   90.00000000
_cell_angle_gamma   90.00000000
_symmetry_Int_Tables_number   1
_chemical_formula_structural   SrMnSb2
_chemical_formula_sum   'Sr4 Mn4 Sb8'
_cell_volume   454.78810616
_cell_formula_units_Z   4
loop_
 _symmetry_equiv_pos_site_id
 _symmetry_equiv_pos_as_xyz
  1  'x, y, z'
loop_
 _atom_site_type_symbol
 _atom_site_label
 _atom_site_symmetry_multiplicity
 _atom_site_fract_x
 _atom_site_fract_y
 _atom_site_fract_z
 _atom_site_occupancy
  Sr  Sr0  1  0.25000000  0.72503100  0.11885900  1
  Sr  Sr1  1  0.75000000  0.27496900  0.88114100  1
  Sr  Sr2  1  0.75000000  0.22503100  0.38114100  1
  Sr  Sr3  1  0.25000000  0.77496900  0.61885900  1
  Mn  Mn0  1  0.25000000  0.22342100  0.25005800  1
  Mn  Mn1  1  0.75000000  0.77657900  0.74994200  1
  Mn  Mn2  1  0.75000000  0.72342100  0.24994200  1
  Mn  Mn3  1  0.25000000  0.27657900  0.75005800  1
  Sb  Sb0  1  0.25000000  0.72553600  0.31915700  1
  Sb  Sb1  1  0.75000000  0.27446400  0.68084300  1
  Sb  Sb2  1  0.75000000  0.22553600  0.18084300  1
  Sb  Sb3  1  0.25000000  0.77446400  0.81915700  1
  Sb  Sb4  1  0.25000000  0.21469300  0.00162200  1
  Sb  Sb5  1  0.75000000  0.78530700  0.99837800  1
  Sb  Sb6  1  0.75000000  0.71469300  0.49837800  1
  Sb  Sb7  1  0.25000000  0.28530700  0.50162200  1
loop_
_geom_bond_atom_site_label_1
_geom_bond_atom_site_label_2
_geom_bond_distance
_geom_bond_site_symmetry_2
Mn0 Sb2 2.721331 1_555
Mn0 Sb2 2.721331 1_455
Mn0 Sb0 2.738512 1_545
Mn0 Sb0 2.754216 1_555
Mn1 Sb3 2.721331 1_655
Mn1 Sb3 2.721331 1_555
Mn1 Sb1 2.738512 1_565
Mn1 Sb1 2.754216 1_555
Mn2 Sb0 2.721331 1_555
Mn2 Sb0 2.721331 1_655
Mn2 Sb2 2.738512 1_555
Mn2 Sb2 2.754216 1_565
Mn3 Sb1 2.721331 1_455
Mn3 Sb1 2.721331 1_555
Mn3 Sb3 2.738512 1_555
Mn3 Sb3 2.754216 1_545
Sb0 Sr2 3.465218 1_565
Sb0 Sr2 3.465218 1_465
Sb0 Sr2 3.468189 1_455
Sb0 Sr2 3.468189 1_555
Sb1 Sr3 3.465218 1_645
Sb1 Sr3 3.465218 1_545
Sb1 Sr3 3.468189 1_655
Sb1 Sr3 3.468189 1_555
Sb2 Sr0 3.465218 1_655
Sb2 Sr0 3.465218 1_555
Sb2 Sr0 3.468189 1_545
Sb2 Sr0 3.468189 1_645
Sb3 Sr1 3.465218 1_555
Sb3 Sr1 3.465218 1_455
Sb3 Sr1 3.468189 1_565
Sb3 Sr1 3.468189 1_465
Sb4 Sb5 2.952665 1_544
Sb4 Sb5 2.952665 1_444
Sb4 Sb5 3.405619 1_554
Sb4 Sb5 3.405619 1_454
Sb4 Sr0 3.453381 1_545
Sb4 Sr0 3.513897 1_555
Sb4 Sr1 3.529618 1_454
Sb4 Sr1 3.529618 1_554
Sb5 Sr1 3.453381 1_565
Sb5 Sr1 3.513897 1_555
Sb5 Sr0 3.529618 1_556
Sb5 Sr0 3.529618 1_656
Sb6 Sb7 2.952665 1_655
Sb6 Sb7 2.952665 1_555
Sb6 Sb7 3.405619 1_665
Sb6 Sb7 3.405619 1_565
Sb6 Sr2 3.453381 1_555
Sb6 Sr2 3.513897 1_565
Sb6 Sr3 3.529618 1_555
Sb6 Sr3 3.529618 1_655
Sb7 Sr3 3.453381 1_555
Sb7 Sr3 3.513897 1_545
Sb7 Sr2 3.529618 1_455
Sb7 Sr2 3.529618 1_555
