# generated using pymatgen
data_Y(Fe5W)2
_symmetry_space_group_name_H-M   'P 1'
_cell_length_a   4.69046200
_cell_length_b   6.47016377
_cell_length_c   6.47016377
_cell_angle_alpha   97.61044317
_cell_angle_beta   111.25187688
_cell_angle_gamma   68.74812312
_symmetry_Int_Tables_number   1
_chemical_formula_structural   Y(Fe5W)2
_chemical_formula_sum   'Y1 Fe10 W2'
_cell_volume   170.55872563
_cell_formula_units_Z   1
loop_
 _symmetry_equiv_pos_site_id
 _symmetry_equiv_pos_as_xyz
  1  'x, y, z'
loop_
 _atom_site_type_symbol
 _atom_site_label
 _atom_site_symmetry_multiplicity
 _atom_site_fract_x
 _atom_site_fract_y
 _atom_site_fract_z
 _atom_site_occupancy
  Y  Y0  1  0.00000000  0.00000000  0.00000000  1
  Fe  Fe0  1  0.72345600  0.77654400  0.22345600  1
  Fe  Fe1  1  0.27654400  0.22345600  0.77654400  1
  Fe  Fe2  1  0.50000000  0.77934300  0.77934300  1
  Fe  Fe3  1  0.50000000  0.22065700  0.22065700  1
  Fe  Fe4  1  0.50000000  0.00000000  0.50000000  1
  Fe  Fe5  1  0.00000000  0.00000000  0.50000000  1
  Fe  Fe6  1  0.50000000  0.50000000  0.00000000  1
  Fe  Fe7  1  0.00000000  0.50000000  0.00000000  1
  Fe  Fe8  1  0.63089300  0.36910700  0.63089300  1
  Fe  Fe9  1  0.36910700  0.63089300  0.36910700  1
  W  W0  1  0.00000000  0.35359700  0.35359700  1
  W  W1  1  0.00000000  0.64640300  0.64640300  1
loop_
_geom_bond_atom_site_label_1
_geom_bond_atom_site_label_2
_geom_bond_distance
_geom_bond_site_symmetry_2
Fe0 Fe7 2.442577 1_655
Fe0 Fe4 2.442577 1_565
Fe0 Fe6 2.442577 1_555
Fe0 Fe5 2.442577 1_665
Fe0 Fe9 2.654204 1_555
Fe0 Fe9 2.654204 1_655
Fe0 W1 2.669358 1_655
Fe0 W0 2.669358 1_655
Fe0 Fe2 2.678149 1_554
Fe0 Fe3 2.678149 1_565
Fe0 Y0 3.022565 1_565
Fe0 Y0 3.022565 1_665
Fe1 Fe6 2.442577 1_556
Fe1 Fe7 2.442577 1_556
Fe1 Fe5 2.442577 1_555
Fe1 Fe4 2.442577 1_555
Fe1 Fe8 2.654204 1_455
Fe1 Fe8 2.654204 1_555
Fe1 W1 2.669358 1_555
Fe1 W0 2.669358 1_555
Fe1 Fe2 2.678149 1_545
Fe1 Fe3 2.678149 1_556
Fe1 Y0 3.022565 1_656
Fe1 Y0 3.022565 1_556
Fe2 Fe4 2.447130 1_565
Fe2 Fe7 2.447130 1_656
Fe2 Fe6 2.447130 1_556
Fe2 Fe5 2.447130 1_565
Fe2 W1 2.604580 1_555
Fe2 W1 2.604580 1_655
Fe2 Fe8 2.629756 1_555
Fe2 Fe9 2.629756 1_555
Fe2 Y0 3.006127 1_666
Fe2 Y0 3.006127 1_566
Fe3 Fe7 2.447130 1_555
Fe3 Fe4 2.447130 1_555
Fe3 Fe5 2.447130 1_655
Fe3 Fe6 2.447130 1_555
Fe3 W0 2.604580 1_655
Fe3 W0 2.604580 1_555
Fe3 Fe9 2.629756 1_555
Fe3 Fe8 2.629756 1_555
Fe3 Y0 3.006127 1_555
Fe3 Y0 3.006127 1_655
Fe4 Fe5 2.345231 1_655
Fe4 Fe5 2.345231 1_555
Fe4 W0 2.589493 1_555
Fe4 W1 2.589493 1_645
Fe4 Fe9 2.635878 1_545
Fe4 Fe8 2.635878 1_555
Fe4 Y0 3.235082 1_656
Fe4 Y0 3.235082 1_555
Fe5 W1 2.589493 1_545
Fe5 W0 2.589493 1_555
Fe5 Fe8 2.635878 1_455
Fe5 Fe9 2.635878 1_545
Fe5 Y0 3.235082 1_556
Fe5 Y0 3.235082 1_555
Fe6 Fe7 2.345231 1_555
Fe6 Fe7 2.345231 1_655
Fe6 W0 2.589493 1_655
Fe6 W1 2.589493 1_554
Fe6 Fe9 2.635878 1_555
Fe6 Fe8 2.635878 1_554
Fe6 Y0 3.235082 1_655
Fe6 Y0 3.235082 1_565
Fe7 W1 2.589493 1_554
Fe7 W0 2.589493 1_555
Fe7 Fe8 2.635878 1_454
Fe7 Fe9 2.635878 1_555
Fe7 Y0 3.235082 1_555
Fe7 Y0 3.235082 1_565
Fe8 Fe9 2.233850 1_555
Fe8 W1 2.881759 1_555
Fe8 W1 2.881759 1_655
Fe8 W0 2.881759 1_555
Fe8 W0 2.881759 1_655
Fe8 Y0 3.149632 1_656
Fe9 W1 2.881759 1_555
Fe9 W0 2.881759 1_655
Fe9 W1 2.881759 1_655
Fe9 W0 2.881759 1_555
Fe9 Y0 3.149632 1_565
W0 W1 2.495518 1_555
W0 Y0 3.013626 1_555
W1 Y0 3.013626 1_566
