# generated using pymatgen
data_Ba2LaNb5O15
_symmetry_space_group_name_H-M   'P 1'
_cell_length_a   12.74891700
_cell_length_b   12.74891700
_cell_length_c   4.04453900
_cell_angle_alpha   90.00000000
_cell_angle_beta   90.00000000
_cell_angle_gamma   90.00000000
_symmetry_Int_Tables_number   1
_chemical_formula_structural   Ba2LaNb5O15
_chemical_formula_sum   'Ba4 La2 Nb10 O30'
_cell_volume   657.37867992
_cell_formula_units_Z   2
loop_
 _symmetry_equiv_pos_site_id
 _symmetry_equiv_pos_as_xyz
  1  'x, y, z'
loop_
 _atom_site_type_symbol
 _atom_site_label
 _atom_site_symmetry_multiplicity
 _atom_site_fract_x
 _atom_site_fract_y
 _atom_site_fract_z
 _atom_site_occupancy
  Ba  Ba0  1  0.66810900  0.16810900  0.00000000  1
  Ba  Ba1  1  0.33189100  0.83189100  0.00000000  1
  Ba  Ba2  1  0.16810900  0.33189100  0.00000000  1
  Ba  Ba3  1  0.83189100  0.66810900  0.00000000  1
  La  La0  1  0.50000000  0.50000000  0.00000000  1
  La  La1  1  0.00000000  0.00000000  0.00000000  1
  Nb  Nb0  1  0.57683100  0.71199100  0.50000000  1
  Nb  Nb1  1  0.42316900  0.28800900  0.50000000  1
  Nb  Nb2  1  0.07683100  0.78800900  0.50000000  1
  Nb  Nb3  1  0.92316900  0.21199100  0.50000000  1
  Nb  Nb4  1  0.28800900  0.57683100  0.50000000  1
  Nb  Nb5  1  0.71199100  0.42316900  0.50000000  1
  Nb  Nb6  1  0.21199100  0.07683100  0.50000000  1
  Nb  Nb7  1  0.78800900  0.92316900  0.50000000  1
  Nb  Nb8  1  0.50000000  0.00000000  0.50000000  1
  Nb  Nb9  1  0.00000000  0.50000000  0.50000000  1
  O  O0  1  0.57589600  0.70023600  0.00000000  1
  O  O1  1  0.42410400  0.29976400  0.00000000  1
  O  O2  1  0.07589600  0.79976400  0.00000000  1
  O  O3  1  0.92410400  0.20023600  0.00000000  1
  O  O4  1  0.29976400  0.57589600  0.00000000  1
  O  O5  1  0.70023600  0.42410400  0.00000000  1
  O  O6  1  0.20023600  0.07589600  0.00000000  1
  O  O7  1  0.79976400  0.92410400  0.00000000  1
  O  O8  1  0.63098900  0.56331100  0.50000000  1
  O  O9  1  0.36901100  0.43668900  0.50000000  1
  O  O10  1  0.13098900  0.93668900  0.50000000  1
  O  O11  1  0.86901100  0.06331100  0.50000000  1
  O  O12  1  0.43668900  0.63098900  0.50000000  1
  O  O13  1  0.56331100  0.36901100  0.50000000  1
  O  O14  1  0.06331100  0.13098900  0.50000000  1
  O  O15  1  0.93668900  0.86901100  0.50000000  1
  O  O16  1  0.77867000  0.27867000  0.50000000  1
  O  O17  1  0.22133000  0.72133000  0.50000000  1
  O  O18  1  0.27867000  0.22133000  0.50000000  1
  O  O19  1  0.72133000  0.77867000  0.50000000  1
  O  O20  1  0.84127000  0.50911500  0.50000000  1
  O  O21  1  0.15873000  0.49088500  0.50000000  1
  O  O22  1  0.34127000  0.99088500  0.50000000  1
  O  O23  1  0.65873000  0.00911500  0.50000000  1
  O  O24  1  0.49088500  0.84127000  0.50000000  1
  O  O25  1  0.50911500  0.15873000  0.50000000  1
  O  O26  1  0.00911500  0.34127000  0.50000000  1
  O  O27  1  0.99088500  0.65873000  0.50000000  1
  O  O28  1  0.50000000  0.00000000  0.00000000  1
  O  O29  1  0.00000000  0.50000000  0.00000000  1
loop_
_geom_bond_atom_site_label_1
_geom_bond_atom_site_label_2
_geom_bond_distance
_geom_bond_site_symmetry_2
Ba0 O16 2.839567 1_554
Ba0 O16 2.839567 1_555
Ba0 O23 2.865764 1_554
Ba0 O23 2.865764 1_555
Ba0 O25 2.865764 1_554
Ba0 O25 2.865764 1_555
Ba0 O28 3.030953 1_555
Ba0 O3 3.289260 1_555
Ba0 O5 3.289260 1_555
Ba1 O17 2.839567 1_555
Ba1 O17 2.839567 1_554
Ba1 O24 2.865764 1_554
Ba1 O24 2.865764 1_555
Ba1 O22 2.865764 1_555
Ba1 O22 2.865764 1_554
Ba1 O28 3.030953 1_565
Ba1 O4 3.289260 1_555
Ba1 O2 3.289260 1_555
Ba2 O18 2.839567 1_555
Ba2 O18 2.839567 1_554
Ba2 O21 2.865764 1_555
Ba2 O21 2.865764 1_554
Ba2 O26 2.865764 1_555
Ba2 O26 2.865764 1_554
Ba2 O29 3.030953 1_555
Ba2 O1 3.289260 1_555
Ba2 O6 3.289260 1_555
Ba3 O19 2.839567 1_555
Ba3 O19 2.839567 1_554
Ba3 O20 2.865764 1_555
Ba3 O20 2.865764 1_554
Ba3 O27 2.865764 1_554
Ba3 O27 2.865764 1_555
Ba3 O29 3.030953 1_655
Ba3 O0 3.289260 1_555
Ba3 O7 3.289260 1_555
La0 O0 2.730015 1_555
La0 O4 2.730015 1_555
La0 O5 2.730015 1_555
La0 O1 2.730015 1_555
La0 O8 2.744058 1_554
La0 O13 2.744058 1_554
La0 O8 2.744058 1_555
La0 O9 2.744058 1_554
La0 O12 2.744058 1_554
La0 O9 2.744058 1_555
La0 O13 2.744058 1_555
La0 O12 2.744058 1_555
La1 O6 2.730015 1_555
La1 O3 2.730015 1_455
La1 O2 2.730015 1_545
La1 O7 2.730015 1_445
La1 O14 2.744058 1_554
La1 O14 2.744058 1_555
La1 O11 2.744058 1_455
La1 O11 2.744058 1_454
La1 O10 2.744058 1_544
La1 O10 2.744058 1_545
La1 O15 2.744058 1_445
La1 O15 2.744058 1_444
Nb0 O24 1.979155 1_555
Nb0 O8 2.017346 1_555
Nb0 O0 2.027850 1_555
Nb0 O0 2.027850 1_556
Nb0 O19 2.028883 1_555
Nb0 O12 2.063636 1_555
Nb1 O25 1.979155 1_555
Nb1 O9 2.017346 1_555
Nb1 O1 2.027850 1_555
Nb1 O1 2.027850 1_556
Nb1 O18 2.028883 1_555
Nb1 O13 2.063636 1_555
Nb2 O27 1.979155 1_455
Nb2 O10 2.017346 1_555
Nb2 O2 2.027850 1_556
Nb2 O2 2.027850 1_555
Nb2 O17 2.028883 1_555
Nb2 O15 2.063636 1_455
Nb3 O26 1.979155 1_655
Nb3 O11 2.017346 1_555
Nb3 O3 2.027850 1_556
Nb3 O3 2.027850 1_555
Nb3 O16 2.028883 1_555
Nb3 O14 2.063636 1_655
Nb4 O21 1.979155 1_555
Nb4 O12 2.017346 1_555
Nb4 O4 2.027850 1_556
Nb4 O4 2.027850 1_555
Nb4 O17 2.028883 1_555
Nb4 O9 2.063636 1_555
Nb5 O20 1.979155 1_555
Nb5 O13 2.017346 1_555
Nb5 O5 2.027850 1_555
Nb5 O5 2.027850 1_556
Nb5 O16 2.028883 1_555
Nb5 O8 2.063636 1_555
Nb6 O22 1.979155 1_545
Nb6 O14 2.017346 1_555
Nb6 O6 2.027850 1_556
Nb6 O6 2.027850 1_555
Nb6 O18 2.028883 1_555
Nb6 O10 2.063636 1_545
Nb7 O23 1.979155 1_565
Nb7 O15 2.017346 1_555
Nb7 O7 2.027850 1_555
Nb7 O7 2.027850 1_556
Nb7 O19 2.028883 1_555
Nb7 O11 2.063636 1_565
Nb8 O28 2.022270 1_556
Nb8 O28 2.022270 1_555
Nb8 O24 2.026969 1_545
Nb8 O25 2.026969 1_555
Nb8 O23 2.026969 1_555
Nb8 O22 2.026969 1_545
Nb9 O29 2.022270 1_555
Nb9 O29 2.022270 1_556
Nb9 O20 2.026969 1_455
Nb9 O26 2.026969 1_555
Nb9 O21 2.026969 1_555
Nb9 O27 2.026969 1_455
