# generated using pymatgen
data_La8Sb14Pt17
_symmetry_space_group_name_H-M   'P 1'
_cell_length_a   14.11667160
_cell_length_b   14.11667160
_cell_length_c   14.11667160
_cell_angle_alpha   126.24561837
_cell_angle_beta   126.24561837
_cell_angle_gamma   79.48482433
_symmetry_Int_Tables_number   1
_chemical_formula_structural   La8Sb14Pt17
_chemical_formula_sum   'La16 Sb28 Pt34'
_cell_volume   1768.36406785
_cell_formula_units_Z   2
loop_
 _symmetry_equiv_pos_site_id
 _symmetry_equiv_pos_as_xyz
  1  'x, y, z'
loop_
 _atom_site_type_symbol
 _atom_site_label
 _atom_site_symmetry_multiplicity
 _atom_site_fract_x
 _atom_site_fract_y
 _atom_site_fract_z
 _atom_site_occupancy
  La  La0  1  0.92938600  0.42938600  0.99882700  1
  La  La1  1  0.43055800  0.93055900  0.00117300  1
  La  La2  1  0.42938600  0.43055900  0.50000000  1
  La  La3  1  0.93055900  0.92938600  0.50000000  1
  La  La4  1  0.17608900  0.17608900  0.00000000  1
  La  La5  1  0.67608900  0.67608900  0.00000000  1
  La  La6  1  0.17129900  0.67129900  0.50000000  1
  La  La7  1  0.67129900  0.17129900  0.50000000  1
  La  La8  1  0.67339200  0.43966400  0.26369900  1
  La  La9  1  0.17596500  0.40969400  0.73630100  1
  La  La10  1  0.43966400  0.17596500  0.76627100  1
  La  La11  1  0.67596500  0.93966400  0.76627100  1
  La  La12  1  0.40969400  0.67339200  0.23372900  1
  La  La13  1  0.17339200  0.90969400  0.23372900  1
  La  La14  1  0.90969400  0.67596500  0.73630100  1
  La  La15  1  0.93966400  0.17339200  0.26369900  1
  Sb  Sb0  1  0.24494200  0.49179200  0.26146600  1
  Sb  Sb1  1  0.23032600  0.98347600  0.73853400  1
  Sb  Sb2  1  0.49179200  0.23032600  0.24685100  1
  Sb  Sb3  1  0.73032600  0.99179200  0.24685100  1
  Sb  Sb4  1  0.98347600  0.24494200  0.75314900  1
  Sb  Sb5  1  0.74494200  0.48347600  0.75314900  1
  Sb  Sb6  1  0.48347600  0.73032600  0.73853400  1
  Sb  Sb7  1  0.99179200  0.74494200  0.26146600  1
  Sb  Sb8  1  0.17898500  0.20017400  0.27393500  1
  Sb  Sb9  1  0.92623900  0.90505000  0.72606500  1
  Sb  Sb10  1  0.20017400  0.92623900  0.02118900  1
  Sb  Sb11  1  0.42623900  0.70017400  0.02118900  1
  Sb  Sb12  1  0.90505000  0.17898500  0.97881100  1
  Sb  Sb13  1  0.67898500  0.40505000  0.97881100  1
  Sb  Sb14  1  0.40505000  0.42623900  0.72606500  1
  Sb  Sb15  1  0.70017400  0.67898500  0.27393500  1
  Sb  Sb16  1  0.37568400  0.37568400  0.00000000  1
  Sb  Sb17  1  0.87568400  0.87568400  0.00000000  1
  Sb  Sb18  1  0.13494100  0.63494100  0.69365500  1
  Sb  Sb19  1  0.94128600  0.44128600  0.30634500  1
  Sb  Sb20  1  0.63494100  0.94128600  0.50000000  1
  Sb  Sb21  1  0.44128600  0.13494100  0.50000000  1
  Sb  Sb22  1  0.40089700  0.90089700  0.50000000  1
  Sb  Sb23  1  0.90089700  0.40089700  0.50000000  1
  Sb  Sb24  1  0.07953500  0.57953500  0.94752500  1
  Sb  Sb25  1  0.63201000  0.13201000  0.05247500  1
  Sb  Sb26  1  0.57953500  0.63201000  0.50000000  1
  Sb  Sb27  1  0.13201000  0.07953500  0.50000000  1
  Pt  Pt0  1  0.37133200  0.13816800  0.27211300  1
  Pt  Pt1  1  0.86605500  0.09921900  0.72788700  1
  Pt  Pt2  1  0.13816800  0.86605500  0.76683600  1
  Pt  Pt3  1  0.36605500  0.63816800  0.76683600  1
  Pt  Pt4  1  0.09921900  0.37133200  0.23316400  1
  Pt  Pt5  1  0.87133200  0.59921900  0.23316400  1
  Pt  Pt6  1  0.59921900  0.36605500  0.72788700  1
  Pt  Pt7  1  0.63816800  0.87133200  0.27211300  1
  Pt  Pt8  1  0.88613600  0.38613600  0.67054000  1
  Pt  Pt9  1  0.71559600  0.21559600  0.32946000  1
  Pt  Pt10  1  0.38613600  0.71559600  0.50000000  1
  Pt  Pt11  1  0.21559600  0.88613600  0.50000000  1
  Pt  Pt12  1  0.66188600  0.16188600  0.74109900  1
  Pt  Pt13  1  0.42078700  0.92078700  0.25890100  1
  Pt  Pt14  1  0.16188600  0.42078700  0.50000000  1
  Pt  Pt15  1  0.92078700  0.66188600  0.50000000  1
  Pt  Pt16  1  0.21149700  0.71149700  0.96965200  1
  Pt  Pt17  1  0.74184600  0.24184600  0.03034800  1
  Pt  Pt18  1  0.71149700  0.74184600  0.50000000  1
  Pt  Pt19  1  0.24184600  0.21149700  0.50000000  1
  Pt  Pt20  1  0.42573500  0.41395600  0.23822600  1
  Pt  Pt21  1  0.17573000  0.18750900  0.76177400  1
  Pt  Pt22  1  0.41395600  0.17573000  0.98822100  1
  Pt  Pt23  1  0.67573000  0.91395600  0.98822100  1
  Pt  Pt24  1  0.18750900  0.42573500  0.01177900  1
  Pt  Pt25  1  0.92573500  0.68750900  0.01177900  1
  Pt  Pt26  1  0.68750900  0.67573000  0.76177400  1
  Pt  Pt27  1  0.91395600  0.92573500  0.23822600  1
  Pt  Pt28  1  0.44553900  0.94553900  0.78119200  1
  Pt  Pt29  1  0.16434800  0.66434800  0.21880800  1
  Pt  Pt30  1  0.94553900  0.16434800  0.50000000  1
  Pt  Pt31  1  0.66434800  0.44553900  0.50000000  1
  Pt  Pt32  1  0.00057600  0.00057600  0.00000000  1
  Pt  Pt33  1  0.50057600  0.50057600  0.00000000  1
loop_
_geom_bond_atom_site_label_1
_geom_bond_atom_site_label_2
_geom_bond_distance
_geom_bond_site_symmetry_2
La0 Pt4 3.236213 1_656
La0 Pt5 3.236213 1_556
La0 Sb4 3.334406 1_555
La0 Sb5 3.334406 1_555
La0 Pt29 3.361912 1_656
La0 Sb12 3.440966 1_555
La0 Sb13 3.440966 1_555
La0 Sb0 3.522201 1_656
La0 Sb7 3.522201 1_556
La0 Pt24 3.531064 1_656
La0 Pt25 3.531064 1_556
La0 Pt1 3.680918 1_555
La0 Pt6 3.680918 1_555
La0 Pt12 3.803803 1_555
La1 Pt2 3.236203 1_554
La1 Pt3 3.236214 1_554
La1 Sb2 3.334396 1_565
La1 Sb3 3.334408 1_555
La1 Pt28 3.361904 1_554
La1 Sb10 3.440952 1_555
La1 Sb11 3.440963 1_555
La1 Sb1 3.522199 1_554
La1 Sb6 3.522211 1_554
La1 Pt22 3.531066 1_564
La1 Pt23 3.531078 1_554
La1 Pt0 3.680908 1_565
La1 Pt7 3.680920 1_555
La1 Pt13 3.803795 1_555
La2 Pt6 3.236213 1_555
La2 Pt0 3.236213 1_555
La2 Sb0 3.334396 1_555
La2 Sb6 3.334396 1_555
La2 Pt31 3.361909 1_555
La2 Sb14 3.440966 1_555
La2 Sb8 3.440966 1_555
La2 Sb2 3.522191 1_555
La2 Sb5 3.522199 1_555
La2 Pt20 3.531064 1_555
La2 Pt26 3.531064 1_555
La2 Pt3 3.680918 1_555
La2 Pt4 3.680918 1_555
La2 Pt14 3.803803 1_555
La3 Pt1 3.236213 1_565
La3 Pt7 3.236213 1_555
La3 Sb7 3.334396 1_555
La3 Sb1 3.334396 1_655
La3 Pt30 3.361909 1_565
La3 Sb9 3.440966 1_555
La3 Sb15 3.440966 1_555
La3 Sb3 3.522191 1_555
La3 Sb4 3.522199 1_565
La3 Pt21 3.531064 1_665
La3 Pt27 3.531064 1_555
La3 Pt2 3.680918 1_655
La3 Pt5 3.680918 1_555
La3 Pt15 3.803803 1_555
La4 Pt20 3.457766 1_555
La4 Pt22 3.457766 1_554
La4 Pt24 3.457766 1_555
La4 Pt21 3.457766 1_554
La4 Pt0 3.465897 1_555
La4 Pt1 3.465897 1_454
La4 Pt4 3.465897 1_555
La4 Pt2 3.465897 1_544
La4 Sb1 3.509618 1_544
La4 Sb0 3.509618 1_555
La4 Sb2 3.509619 1_555
La4 Sb4 3.509628 1_454
La4 Sb10 3.651676 1_545
La4 Sb9 3.651676 1_444
La4 Sb12 3.651676 1_454
La4 Sb8 3.651676 1_555
La4 Pt32 3.810276 1_555
La5 Pt27 3.457766 1_555
La5 Pt25 3.457766 1_555
La5 Pt23 3.457766 1_554
La5 Pt26 3.457766 1_554
La5 Pt3 3.465897 1_554
La5 Pt6 3.465897 1_554
La5 Pt7 3.465897 1_555
La5 Pt5 3.465897 1_555
La5 Sb7 3.509618 1_555
La5 Sb6 3.509618 1_554
La5 Sb3 3.509619 1_555
La5 Sb5 3.509628 1_554
La5 Sb14 3.651676 1_554
La5 Sb13 3.651676 1_554
La5 Sb11 3.651676 1_555
La5 Sb15 3.651676 1_555
La5 Pt33 3.810276 1_555
La6 Pt10 3.206401 1_555
La6 Pt11 3.206401 1_555
La6 Pt4 3.366641 1_555
La6 Pt5 3.366641 1_455
La6 Pt2 3.366641 1_555
La6 Pt3 3.366641 1_555
La6 Sb18 3.378584 1_555
La6 Sb19 3.378584 1_455
La6 Sb6 3.453798 1_555
La6 Sb0 3.453798 1_555
La6 Sb1 3.453798 1_555
La6 Sb7 3.453798 1_455
La6 Pt15 3.563042 1_455
La6 Pt14 3.563042 1_555
La7 Pt8 3.206401 1_555
La7 Pt9 3.206401 1_555
La7 Pt6 3.366641 1_555
La7 Pt0 3.366641 1_555
La7 Pt1 3.366641 1_555
La7 Pt7 3.366641 1_545
La7 Sb21 3.378584 1_555
La7 Sb20 3.378584 1_545
La7 Sb3 3.453787 1_545
La7 Sb2 3.453787 1_555
La7 Sb5 3.453796 1_555
La7 Sb4 3.453796 1_555
La7 Pt13 3.563042 1_545
La7 Pt12 3.563042 1_555
La8 Sb23 3.254263 1_555
La8 Pt15 3.318720 1_555
La8 Sb16 3.353420 1_555
La8 Pt20 3.362417 1_555
La8 Pt31 3.365000 1_555
La8 Sb15 3.376662 1_555
La8 Pt17 3.388937 1_555
La8 Pt18 3.391593 1_555
La8 Sb25 3.412809 1_555
La8 Sb19 3.462350 1_555
La8 Pt33 3.581755 1_555
La8 Pt9 3.654084 1_555
La8 Pt22 3.663817 1_554
La8 Sb26 3.668564 1_555
La8 Sb13 3.802167 1_554
La9 Sb23 3.254258 1_455
La9 Pt14 3.318711 1_555
La9 Sb16 3.353429 1_556
La9 Pt21 3.362431 1_555
La9 Pt30 3.365009 1_455
La9 Sb14 3.376658 1_555
La9 Pt16 3.388920 1_555
La9 Pt19 3.391595 1_555
La9 Sb24 3.412807 1_555
La9 Sb18 3.462336 1_555
La9 Pt33 3.581755 1_556
La9 Pt8 3.654086 1_455
La9 Pt24 3.663825 1_556
La9 Sb27 3.668575 1_555
La9 Sb11 3.802158 1_556
La10 Sb22 3.254258 1_545
La10 Pt12 3.318711 1_555
La10 Sb16 3.353429 1_556
La10 Pt22 3.362431 1_555
La10 Pt28 3.365018 1_545
La10 Sb13 3.376658 1_555
La10 Pt19 3.388918 1_555
La10 Pt17 3.391593 1_556
La10 Sb27 3.412807 1_555
La10 Sb21 3.462336 1_555
La10 Pt33 3.581755 1_556
La10 Pt11 3.654086 1_545
La10 Pt21 3.663825 1_555
La10 Sb25 3.668575 1_556
La10 Sb14 3.802158 1_555
La11 Sb22 3.254258 1_555
La11 Pt12 3.318711 1_565
La11 Sb17 3.353429 1_556
La11 Pt23 3.362431 1_555
La11 Pt28 3.365018 1_555
La11 Sb12 3.376658 1_565
La11 Pt18 3.388918 1_555
La11 Pt17 3.391593 1_566
La11 Sb26 3.412807 1_555
La11 Sb20 3.462336 1_555
La11 Pt32 3.581755 1_666
La11 Pt10 3.654086 1_555
La11 Pt26 3.663825 1_555
La11 Sb25 3.668575 1_566
La11 Sb9 3.802158 1_555
La12 Sb22 3.254262 1_555
La12 Pt13 3.318725 1_555
La12 Sb16 3.353419 1_555
La12 Pt24 3.362422 1_555
La12 Pt29 3.364999 1_555
La12 Sb11 3.376667 1_555
La12 Pt18 3.388916 1_555
La12 Pt16 3.391595 1_554
La12 Sb26 3.412798 1_555
La12 Sb20 3.462344 1_555
La12 Pt33 3.581754 1_555
La12 Pt10 3.654079 1_555
La12 Pt20 3.663811 1_555
La12 Sb24 3.668576 1_554
La12 Sb15 3.802160 1_555
La13 Sb22 3.254262 1_555
La13 Pt13 3.318725 1_555
La13 Sb17 3.353419 1_455
La13 Pt25 3.362422 1_455
La13 Pt29 3.364999 1_555
La13 Sb10 3.376667 1_555
La13 Pt19 3.388916 1_565
La13 Pt16 3.391595 1_554
La13 Sb27 3.412798 1_565
La13 Sb21 3.462344 1_565
La13 Pt32 3.581754 1_565
La13 Pt11 3.654079 1_555
La13 Pt27 3.663811 1_455
La13 Sb24 3.668576 1_554
La13 Sb8 3.802160 1_565
La14 Sb23 3.254258 1_555
La14 Pt15 3.318711 1_555
La14 Sb17 3.353429 1_556
La14 Pt26 3.362431 1_555
La14 Pt31 3.365009 1_555
La14 Sb9 3.376658 1_555
La14 Pt16 3.388920 1_655
La14 Pt18 3.391595 1_555
La14 Sb24 3.412807 1_655
La14 Sb18 3.462336 1_655
La14 Pt32 3.581755 1_666
La14 Pt8 3.654086 1_555
La14 Pt25 3.663825 1_556
La14 Sb26 3.668575 1_555
La14 Sb10 3.802158 1_656
La15 Sb23 3.254263 1_555
La15 Pt14 3.318720 1_655
La15 Sb17 3.353420 1_545
La15 Pt27 3.362417 1_545
La15 Pt30 3.365000 1_555
La15 Sb8 3.376662 1_655
La15 Pt17 3.388937 1_555
La15 Pt19 3.391593 1_655
La15 Sb25 3.412809 1_555
La15 Sb19 3.462350 1_555
La15 Pt32 3.581755 1_655
La15 Pt9 3.654084 1_555
La15 Pt23 3.663817 1_544
La15 Sb27 3.668564 1_655
La15 Sb12 3.802167 1_554
Pt0 Sb2 2.604713 1_555
Pt0 Sb10 2.705950 1_545
Pt0 Sb8 2.707058 1_555
Pt0 Sb21 2.779686 1_555
Pt0 Pt13 2.938420 1_545
Pt1 Sb4 2.604735 1_555
Pt1 Sb12 2.705950 1_555
Pt1 Sb9 2.707058 1_545
Pt1 Sb20 2.779686 1_545
Pt1 Pt12 2.938420 1_555
Pt2 Sb1 2.604725 1_555
Pt2 Sb9 2.705950 1_455
Pt2 Sb10 2.707058 1_556
Pt2 Sb18 2.779686 1_555
Pt3 Sb6 2.604725 1_555
Pt3 Sb14 2.705950 1_555
Pt3 Sb11 2.707058 1_556
Pt3 Sb18 2.779686 1_555
Pt4 Sb0 2.604725 1_555
Pt4 Sb8 2.705950 1_555
Pt4 Sb12 2.707058 1_454
Pt4 Sb19 2.779686 1_455
Pt5 Sb7 2.604725 1_555
Pt5 Sb15 2.705950 1_555
Pt5 Sb13 2.707058 1_554
Pt5 Sb19 2.779686 1_555
Pt6 Sb5 2.604735 1_555
Pt6 Sb13 2.705950 1_555
Pt6 Sb14 2.707058 1_555
Pt6 Sb21 2.779686 1_555
Pt7 Sb3 2.604713 1_555
Pt7 Sb11 2.705950 1_555
Pt7 Sb15 2.707058 1_555
Pt7 Sb20 2.779686 1_555
Pt8 Sb4 2.659880 1_555
Pt8 Sb5 2.659880 1_555
Pt8 Sb23 2.661758 1_555
Pt8 Sb24 2.769514 1_655
Pt9 Sb2 2.659892 1_555
Pt9 Sb3 2.659892 1_545
Pt9 Sb23 2.661758 1_555
Pt9 Sb25 2.769514 1_555
Pt10 Sb0 2.659889 1_555
Pt10 Sb6 2.659889 1_555
Pt10 Sb22 2.661758 1_555
Pt10 Sb26 2.769514 1_555
Pt11 Sb7 2.659889 1_455
Pt11 Sb1 2.659889 1_555
Pt11 Sb22 2.661758 1_555
Pt11 Sb27 2.769514 1_565
Pt12 Sb21 2.791888 1_555
Pt12 Sb20 2.791888 1_545
Pt12 Pt6 2.938420 1_555
Pt12 Pt17 2.964079 1_556
Pt12 Sb12 2.970795 1_555
Pt12 Sb13 2.970795 1_555
Pt13 Sb21 2.791888 1_565
Pt13 Sb20 2.791888 1_555
Pt13 Pt7 2.938420 1_555
Pt13 Pt16 2.964089 1_554
Pt13 Sb11 2.970795 1_555
Pt13 Sb10 2.970795 1_555
Pt14 Sb18 2.791888 1_555
Pt14 Sb19 2.791888 1_455
Pt14 Pt3 2.938420 1_555
Pt14 Pt4 2.938420 1_555
Pt14 Pt19 2.964092 1_555
Pt14 Sb14 2.970795 1_555
Pt14 Sb8 2.970795 1_555
Pt15 Sb19 2.791888 1_555
Pt15 Sb18 2.791888 1_655
Pt15 Pt5 2.938420 1_555
Pt15 Pt2 2.938420 1_655
Pt15 Pt18 2.964092 1_555
Pt15 Sb9 2.970795 1_555
Pt15 Sb15 2.970795 1_555
Pt16 Sb24 2.632216 1_555
Pt16 Sb11 2.664055 1_556
Pt16 Sb10 2.664055 1_556
Pt16 Sb18 2.825616 1_555
Pt17 Sb25 2.632238 1_555
Pt17 Sb13 2.664042 1_554
Pt17 Sb12 2.664042 1_554
Pt17 Sb19 2.825606 1_555
Pt18 Sb26 2.632226 1_555
Pt18 Sb15 2.664050 1_555
Pt18 Sb9 2.664050 1_555
Pt18 Sb20 2.825603 1_555
Pt19 Sb27 2.632226 1_555
Pt19 Sb14 2.664050 1_555
Pt19 Sb8 2.664050 1_555
Pt19 Sb21 2.825603 1_555
Pt20 Sb2 2.638332 1_555
Pt20 Sb16 2.698461 1_555
Pt20 Sb26 2.710330 1_555
Pt20 Sb0 2.714581 1_555
Pt20 Pt31 3.013558 1_555
Pt20 Pt24 3.044365 1_555
Pt20 Pt22 3.044365 1_554
Pt21 Sb4 2.638321 1_455
Pt21 Sb16 2.698461 1_556
Pt21 Sb27 2.710330 1_555
Pt21 Sb1 2.714581 1_545
Pt21 Pt30 3.013558 1_455
Pt21 Pt24 3.044365 1_556
Pt21 Pt22 3.044365 1_555
Pt22 Sb1 2.638326 1_545
Pt22 Sb16 2.698461 1_556
Pt22 Sb25 2.710330 1_556
Pt22 Sb2 2.714594 1_556
Pt22 Pt28 3.013552 1_545
Pt23 Sb6 2.638326 1_555
Pt23 Sb17 2.698461 1_556
Pt23 Sb25 2.710330 1_566
Pt23 Sb3 2.714594 1_556
Pt23 Pt28 3.013552 1_555
Pt23 Pt27 3.044365 1_556
Pt23 Pt26 3.044365 1_555
Pt24 Sb0 2.638326 1_555
Pt24 Sb16 2.698461 1_555
Pt24 Sb24 2.710330 1_554
Pt24 Sb4 2.714583 1_454
Pt24 Pt29 3.013553 1_555
Pt25 Sb7 2.638326 1_555
Pt25 Sb17 2.698461 1_555
Pt25 Sb24 2.710330 1_654
Pt25 Sb5 2.714583 1_554
Pt25 Pt29 3.013553 1_655
Pt25 Pt27 3.044365 1_555
Pt25 Pt26 3.044365 1_554
Pt26 Sb5 2.638321 1_555
Pt26 Sb17 2.698461 1_556
Pt26 Sb26 2.710330 1_555
Pt26 Sb6 2.714581 1_555
Pt26 Pt31 3.013558 1_555
Pt27 Sb3 2.638332 1_555
Pt27 Sb17 2.698461 1_555
Pt27 Sb27 2.710330 1_665
Pt27 Sb7 2.714581 1_555
Pt27 Pt30 3.013558 1_565
Pt28 Sb25 2.685589 1_566
Pt28 Sb6 2.739262 1_555
Pt28 Sb1 2.739262 1_555
Pt29 Sb24 2.685581 1_554
Pt29 Sb7 2.739273 1_455
Pt29 Sb0 2.739273 1_555
Pt30 Sb27 2.685593 1_655
Pt30 Sb4 2.739253 1_555
Pt30 Sb3 2.739265 1_545
Pt31 Sb26 2.685593 1_555
Pt31 Sb5 2.739253 1_555
Pt31 Sb2 2.739265 1_555
Pt32 Sb17 2.711326 1_445
Pt32 Sb10 2.724928 1_545
Pt32 Sb12 2.724928 1_454
Pt32 Sb8 2.724928 1_555
Pt32 Sb9 2.724928 1_444
Pt33 Sb16 2.711326 1_555
Pt33 Sb13 2.724928 1_554
Pt33 Sb15 2.724928 1_555
Pt33 Sb11 2.724928 1_555
Pt33 Sb14 2.724928 1_554
