# generated using pymatgen
data_NaHg2Bi
_symmetry_space_group_name_H-M   'P 1'
_cell_length_a   12.25966454
_cell_length_b   12.25966454
_cell_length_c   12.25966454
_cell_angle_alpha   120.32376762
_cell_angle_beta   119.84255643
_cell_angle_gamma   89.85652587
_symmetry_Int_Tables_number   1
_chemical_formula_structural   NaHg2Bi
_chemical_formula_sum   'Na1 Hg2 Bi1'
_cell_volume   1301.25806755
_cell_formula_units_Z   1
loop_
 _symmetry_equiv_pos_site_id
 _symmetry_equiv_pos_as_xyz
  1  'x, y, z'
loop_
 _atom_site_type_symbol
 _atom_site_label
 _atom_site_symmetry_multiplicity
 _atom_site_fract_x
 _atom_site_fract_y
 _atom_site_fract_z
 _atom_site_occupancy
  Na  Na0  1  0.00000000  0.00000000  0.00000000  1
  Hg  Hg0  1  0.00000000  0.24365600  0.24365600  1
  Hg  Hg1  1  0.00000000  0.75634400  0.75634400  1
  Bi  Bi0  1  0.00000000  0.50000000  0.50000000  1
loop_
_geom_bond_atom_site_label_1
_geom_bond_atom_site_label_2
_geom_bond_distance
_geom_bond_site_symmetry_2
Hg0 Na0 2.972511 1_555
Hg1 Na0 2.972511 1_566
Bi0 Hg1 3.127299 1_555
Bi0 Hg0 3.127299 1_555
