# generated using pymatgen
data_Ca3Mn4BiO12
_symmetry_space_group_name_H-M   'P 1'
_cell_length_a   7.66142300
_cell_length_b   5.41155300
_cell_length_c   5.49067003
_cell_angle_alpha   89.76794325
_cell_angle_beta   90.00000000
_cell_angle_gamma   90.00000000
_symmetry_Int_Tables_number   1
_chemical_formula_structural   Ca3Mn4BiO12
_chemical_formula_sum   'Ca3 Mn4 Bi1 O12'
_cell_volume   227.64239207
_cell_formula_units_Z   1
loop_
 _symmetry_equiv_pos_site_id
 _symmetry_equiv_pos_as_xyz
  1  'x, y, z'
loop_
 _atom_site_type_symbol
 _atom_site_label
 _atom_site_symmetry_multiplicity
 _atom_site_fract_x
 _atom_site_fract_y
 _atom_site_fract_z
 _atom_site_occupancy
  Ca  Ca0  1  0.00000000  0.00720700  0.95599200  1
  Ca  Ca1  1  0.50000000  0.50657100  0.54388000  1
  Ca  Ca2  1  0.50000000  0.99399900  0.04216000  1
  Mn  Mn0  1  0.25360900  0.99900700  0.50217500  1
  Mn  Mn1  1  0.74567000  0.50078600  0.99674000  1
  Mn  Mn2  1  0.74639100  0.99900700  0.50217500  1
  Mn  Mn3  1  0.25433000  0.50078600  0.99674000  1
  Bi  Bi0  1  0.00000000  0.49157200  0.44715300  1
  O  O0  1  0.20716900  0.20969900  0.21109200  1
  O  O1  1  0.78962300  0.29473800  0.70680300  1
  O  O2  1  0.71044200  0.79634400  0.79467400  1
  O  O3  1  0.28650000  0.70242200  0.29555100  1
  O  O4  1  0.28955800  0.79634400  0.79467400  1
  O  O5  1  0.71350000  0.70242200  0.29555100  1
  O  O6  1  0.79283100  0.20969900  0.21109200  1
  O  O7  1  0.21037700  0.29473800  0.70680300  1
  O  O8  1  0.00000000  0.57546800  0.02189600  1
  O  O9  1  0.00000000  0.92125900  0.51879400  1
  O  O10  1  0.50000000  0.42093200  0.97936500  1
  O  O11  1  0.50000000  0.07699900  0.47668900  1
loop_
_geom_bond_atom_site_label_1
_geom_bond_atom_site_label_2
_geom_bond_distance
_geom_bond_site_symmetry_2
Ca0 O8 2.362786 1_546
Ca0 O0 2.386276 1_556
Ca0 O6 2.386276 1_456
Ca0 O9 2.447003 1_545
Ca0 O7 2.621779 1_555
Ca0 O1 2.621779 1_455
Ca0 O4 2.648820 1_545
Ca0 O2 2.648820 1_445
Ca1 O11 2.355219 1_555
Ca1 O5 2.376187 1_555
Ca1 O3 2.376187 1_555
Ca1 O10 2.433759 1_555
Ca1 O4 2.640486 1_555
Ca1 O2 2.640486 1_555
Ca1 O1 2.651350 1_555
Ca1 O7 2.651350 1_555
Ca2 O10 2.334574 1_564
Ca2 O2 2.366820 1_554
Ca2 O4 2.366820 1_554
Ca2 O11 2.429553 1_565
Ca2 O3 2.661423 1_555
Ca2 O5 2.661423 1_555
Ca2 O6 2.695356 1_565
Ca2 O0 2.695356 1_565
Mn0 O11 1.939244 1_565
Mn0 O4 1.960529 1_555
Mn0 O3 1.985278 1_555
Mn0 O7 1.986904 1_565
Mn0 O9 1.990052 1_555
Mn0 O0 1.991530 1_565
Mn1 O10 1.933593 1_555
Mn1 O2 1.961525 1_555
Mn1 O1 1.976205 1_555
Mn1 O5 1.989395 1_556
Mn1 O8 1.994901 1_656
Mn1 O6 1.995513 1_556
Mn2 O11 1.939244 1_565
Mn2 O2 1.960529 1_555
Mn2 O5 1.985278 1_555
Mn2 O1 1.986904 1_565
Mn2 O9 1.990052 1_655
Mn2 O6 1.991530 1_565
Mn3 O10 1.933593 1_555
Mn3 O4 1.961525 1_555
Mn3 O7 1.976205 1_555
Mn3 O3 1.989395 1_556
Mn3 O8 1.994901 1_556
Mn3 O0 1.995513 1_556
Bi0 O9 2.359881 1_555
Bi0 O8 2.376869 1_555
Bi0 O7 2.398467 1_555
Bi0 O1 2.398467 1_455
Bi0 O0 2.557727 1_555
Bi0 O6 2.557727 1_455
Bi0 O5 2.608667 1_455
Bi0 O3 2.608667 1_555
