# generated using pymatgen
data_Ba2CaY(Co4O7)2
_symmetry_space_group_name_H-M   'P 1'
_cell_length_a   6.41341537
_cell_length_b   6.41341537
_cell_length_c   10.38074349
_cell_angle_alpha   89.40461894
_cell_angle_beta   89.40461894
_cell_angle_gamma   60.29315059
_symmetry_Int_Tables_number   1
_chemical_formula_structural   Ba2CaY(Co4O7)2
_chemical_formula_sum   'Ba2 Ca1 Y1 Co8 O14'
_cell_volume   370.83592761
_cell_formula_units_Z   1
loop_
 _symmetry_equiv_pos_site_id
 _symmetry_equiv_pos_as_xyz
  1  'x, y, z'
loop_
 _atom_site_type_symbol
 _atom_site_label
 _atom_site_symmetry_multiplicity
 _atom_site_fract_x
 _atom_site_fract_y
 _atom_site_fract_z
 _atom_site_occupancy
  Ba  Ba0  1  0.33987600  0.33987600  0.01948400  1
  Ba  Ba1  1  0.65792400  0.65792400  0.52166700  1
  Ca  Ca0  1  0.33251100  0.33251100  0.62751700  1
  Y  Y0  1  0.66760600  0.66760600  0.13270500  1
  Co  Co0  1  0.83130000  0.83130000  0.81180400  1
  Co  Co1  1  0.33764600  0.82688600  0.81324900  1
  Co  Co2  1  0.82688600  0.33764600  0.81324900  1
  Co  Co3  1  0.16930700  0.16930700  0.31353900  1
  Co  Co4  1  0.66367400  0.16724700  0.31103700  1
  Co  Co5  1  0.16724700  0.66367400  0.31103700  1
  Co  Co6  1  0.00432000  0.00432000  0.05438900  1
  Co  Co7  1  0.99588400  0.99588400  0.55254100  1
  O  O0  1  0.00176400  0.00176400  0.24100200  1
  O  O1  1  0.99561200  0.99561200  0.74686800  1
  O  O2  1  0.50556100  0.50556100  0.74828300  1
  O  O3  1  0.97668100  0.51840900  0.74920500  1
  O  O4  1  0.51840900  0.97668100  0.74920500  1
  O  O5  1  0.49518100  0.49518100  0.24372800  1
  O  O6  1  0.01038800  0.49627600  0.24128000  1
  O  O7  1  0.49627600  0.01038800  0.24128000  1
  O  O8  1  0.83986000  0.83986000  0.99386400  1
  O  O9  1  0.32337800  0.82781900  0.00323000  1
  O  O10  1  0.82781900  0.32337800  0.00323000  1
  O  O11  1  0.15962500  0.15962500  0.50108500  1
  O  O12  1  0.68255800  0.17270800  0.49986100  1
  O  O13  1  0.17270800  0.68255800  0.49986100  1
loop_
_geom_bond_atom_site_label_1
_geom_bond_atom_site_label_2
_geom_bond_distance
_geom_bond_site_symmetry_2
Ba0 O5 2.912485 1_555
Ba0 O6 2.935757 1_555
Ba0 O7 2.935757 1_555
Ba0 O9 3.081219 1_555
Ba0 O10 3.081219 1_555
Ba0 O8 3.231868 1_544
Ba0 O8 3.231868 1_454
Ba0 O2 3.343467 1_554
Ba0 O9 3.343774 1_545
Ba0 O10 3.343774 1_455
Ba0 O3 3.469056 1_454
Ba0 O4 3.469056 1_544
Ba1 O2 2.880023 1_555
Ba1 O3 2.966890 1_555
Ba1 O4 2.966890 1_555
Ba1 O13 3.047407 1_555
Ba1 O12 3.047407 1_555
Ba1 O11 3.228025 1_565
Ba1 O11 3.228025 1_655
Ba1 O13 3.387766 1_655
Ba1 O12 3.387766 1_565
Ba1 O5 3.421714 1_555
Ba1 O7 3.501378 1_565
Ba1 O6 3.501378 1_655
Ca0 O2 2.305159 1_555
Ca0 O11 2.336743 1_555
Ca0 O3 2.345165 1_455
Ca0 O4 2.345165 1_545
Ca0 O13 2.352109 1_555
Ca0 O12 2.352109 1_555
Co0 O4 1.865088 1_555
Co0 O3 1.865088 1_555
Co0 O8 1.893441 1_555
Co0 O1 1.935587 1_555
Co1 O2 1.917186 1_555
Co1 O4 1.945121 1_555
Co1 O9 1.973249 1_556
Co1 O1 2.030017 1_455
Co2 O2 1.917186 1_555
Co2 O3 1.945121 1_555
Co2 O10 1.973249 1_556
Co2 O1 2.030017 1_545
Co3 O11 1.948538 1_555
Co3 O7 1.965629 1_555
Co3 O6 1.965629 1_555
Co3 O0 2.013497 1_555
Co4 O7 1.946985 1_555
Co4 O5 1.952405 1_555
Co4 O12 1.966871 1_555
Co4 O0 2.014684 1_655
Co5 O6 1.946985 1_555
Co5 O5 1.952405 1_555
Co5 O13 1.966871 1_555
Co5 O0 2.014684 1_565
Co6 O10 1.855992 1_455
Co6 O9 1.855992 1_545
Co6 O8 1.936471 1_444
Co6 O0 1.937048 1_555
Co7 O12 1.836977 1_565
Co7 O13 1.836977 1_655
Co7 O11 1.886953 1_665
Co7 O1 2.017225 1_555
O5 Y0 2.221043 1_555
O6 Y0 2.223119 1_455
O7 Y0 2.223119 1_545
O8 Y0 2.379408 1_556
O9 Y0 2.349630 1_555
O10 Y0 2.349630 1_555
