# generated using pymatgen
data_Hf6CoSb2
_symmetry_space_group_name_H-M   'P 1'
_cell_length_a   7.70224198
_cell_length_b   7.70224198
_cell_length_c   3.55564428
_cell_angle_alpha   90.00000000
_cell_angle_beta   90.00000000
_cell_angle_gamma   120.00000273
_symmetry_Int_Tables_number   1
_chemical_formula_structural   Hf6CoSb2
_chemical_formula_sum   'Hf6 Co1 Sb2'
_cell_volume   182.67673583
_cell_formula_units_Z   1
loop_
 _symmetry_equiv_pos_site_id
 _symmetry_equiv_pos_as_xyz
  1  'x, y, z'
loop_
 _atom_site_type_symbol
 _atom_site_label
 _atom_site_symmetry_multiplicity
 _atom_site_fract_x
 _atom_site_fract_y
 _atom_site_fract_z
 _atom_site_occupancy
  Hf  Hf0  1  0.23902162  1.00000000  0.50000000  1
  Hf  Hf1  1  1.00000000  0.23902162  0.50000000  1
  Hf  Hf2  1  0.76097838  0.76097838  0.50000000  1
  Hf  Hf3  1  0.60243792  0.00000000  0.00000000  1
  Hf  Hf4  1  0.00000000  0.60243792  0.00000000  1
  Hf  Hf5  1  0.39756208  0.39756208  -0.00000000  1
  Co  Co0  1  -0.00000000  -0.00000000  -0.00000000  1
  Sb  Sb0  1  0.33333300  0.66666700  0.50000000  1
  Sb  Sb1  1  0.66666700  0.33333300  0.50000000  1
loop_
_geom_bond_atom_site_label_1
_geom_bond_atom_site_label_2
_geom_bond_distance
_geom_bond_site_symmetry_2
Hf0 Sb0 2.997376 1_555
Hf0 Sb1 2.997381 1_565
Hf1 Sb1 2.997376 1_555
Hf1 Sb0 2.997381 1_655
Hf2 Sb1 2.997383 1_555
Hf2 Sb0 2.997383 1_555
Hf3 Sb1 2.954128 1_555
Hf3 Sb1 2.954128 1_554
Hf3 Sb0 2.954130 1_545
Hf3 Sb0 2.954130 1_544
Hf4 Sb0 2.954128 1_555
Hf4 Sb0 2.954128 1_554
Hf4 Sb1 2.954130 1_455
Hf4 Sb1 2.954130 1_454
Hf5 Sb1 2.954134 1_554
Hf5 Sb0 2.954134 1_555
Hf5 Sb0 2.954134 1_554
Hf5 Sb1 2.954134 1_555
Co0 Hf2 2.559285 1_445
Co0 Hf2 2.559285 1_444
Co0 Hf0 2.559285 1_544
Co0 Hf0 2.559285 1_545
Co0 Hf1 2.559285 1_454
Co0 Hf1 2.559285 1_455
Co0 Hf5 3.062119 1_555
Co0 Hf4 3.062119 1_545
Co0 Hf3 3.062119 1_455
