# generated using pymatgen
data_K5CuCO5
_symmetry_space_group_name_H-M   'P 1'
_cell_length_a   7.63521470
_cell_length_b   7.63521470
_cell_length_c   8.86536400
_cell_angle_alpha   90.00000000
_cell_angle_beta   90.00000000
_cell_angle_gamma   91.51701165
_symmetry_Int_Tables_number   1
_chemical_formula_structural   K5CuCO5
_chemical_formula_sum   'K10 Cu2 C2 O10'
_cell_volume   516.63858249
_cell_formula_units_Z   2
loop_
 _symmetry_equiv_pos_site_id
 _symmetry_equiv_pos_as_xyz
  1  'x, y, z'
loop_
 _atom_site_type_symbol
 _atom_site_label
 _atom_site_symmetry_multiplicity
 _atom_site_fract_x
 _atom_site_fract_y
 _atom_site_fract_z
 _atom_site_occupancy
  K  K0  1  0.46462300  0.96462300  0.75889500  1
  K  K1  1  0.53904300  0.46938800  0.74864500  1
  K  K2  1  0.96938800  0.03904300  0.74864500  1
  K  K3  1  0.05083900  0.55083900  0.76557100  1
  K  K4  1  0.55083900  0.05083900  0.23442900  1
  K  K5  1  0.46938800  0.53904300  0.25135500  1
  K  K6  1  0.03904300  0.96938800  0.25135500  1
  K  K7  1  0.96462300  0.46462300  0.24110500  1
  K  K8  1  0.24790100  0.24790100  0.50000000  1
  K  K9  1  0.74790100  0.74790100  0.50000000  1
  Cu  Cu0  1  0.25085400  0.25085400  0.00000000  1
  Cu  Cu1  1  0.75085400  0.75085400  0.00000000  1
  C  C0  1  0.77088400  0.27088400  0.48589300  1
  C  C1  1  0.27088400  0.77088400  0.51410700  1
  O  O0  1  0.26514900  0.23781900  0.79709300  1
  O  O1  1  0.73781900  0.76514900  0.79709300  1
  O  O2  1  0.76514900  0.73781900  0.20290700  1
  O  O3  1  0.23781900  0.26514900  0.20290700  1
  O  O4  1  0.37724600  0.87724600  0.44105600  1
  O  O5  1  0.61513500  0.32201900  0.44808800  1
  O  O6  1  0.82201900  0.11513500  0.44808800  1
  O  O7  1  0.32201900  0.61513500  0.55191200  1
  O  O8  1  0.11513500  0.82201900  0.55191200  1
  O  O9  1  0.87724600  0.37724600  0.55894400  1
loop_
_geom_bond_atom_site_label_1
_geom_bond_atom_site_label_2
_geom_bond_distance
_geom_bond_site_symmetry_2
K0 O0 2.636952 1_565
K0 O1 2.636952 1_555
K1 O7 2.669013 1_555
K1 O1 2.721375 1_555
K1 O0 2.736438 1_555
K1 O5 2.956015 1_555
K1 O9 3.176084 1_555
K2 O8 2.669013 1_645
K2 O0 2.721375 1_655
K2 O1 2.736438 1_545
K2 O6 2.956015 1_555
K2 O9 3.176084 1_555
K3 O9 2.603082 1_455
K3 O8 2.839380 1_555
K3 O7 2.839380 1_555
K3 O1 2.945272 1_455
K3 O0 2.945272 1_555
K4 O4 2.603082 1_545
K4 O6 2.839380 1_555
K4 O5 2.839380 1_555
K4 O2 2.945272 1_545
K4 O3 2.945272 1_555
K5 O5 2.669013 1_555
K5 O2 2.721375 1_555
K5 O3 2.736438 1_555
K5 O7 2.956015 1_555
K5 O4 3.176084 1_555
K6 O6 2.669013 1_465
K6 O3 2.721375 1_565
K6 O2 2.736438 1_455
K6 O8 2.956015 1_555
K6 O4 3.176084 1_555
K7 O3 2.636952 1_655
K7 O2 2.636952 1_555
K8 O0 2.638353 1_555
K8 O3 2.638353 1_555
K8 O7 2.882699 1_555
K8 O5 2.882699 1_555
K8 O4 3.066828 1_545
K8 O9 3.066828 1_455
K9 O1 2.638353 1_555
K9 O2 2.638353 1_555
K9 O8 2.882699 1_655
K9 O6 2.882699 1_565
K9 O4 3.066828 1_555
K9 O9 3.066828 1_555
Cu0 O3 1.805058 1_555
Cu0 O0 1.805058 1_554
Cu1 O2 1.805058 1_555
Cu1 O1 1.805058 1_554
C0 O6 1.305177 1_555
C0 O5 1.305177 1_555
C0 O9 1.305182 1_555
C1 O8 1.305177 1_555
C1 O7 1.305177 1_555
C1 O4 1.305182 1_555
