# generated using pymatgen
data_Ta2Mn(P2O7)3
_symmetry_space_group_name_H-M   'P 1'
_cell_length_a   8.06984300
_cell_length_b   6.66700000
_cell_length_c   16.95392209
_cell_angle_alpha   67.48612507
_cell_angle_beta   90.00000000
_cell_angle_gamma   90.00000000
_symmetry_Int_Tables_number   1
_chemical_formula_structural   Ta2Mn(P2O7)3
_chemical_formula_sum   'Ta4 Mn2 P12 O42'
_cell_volume   842.63111475
_cell_formula_units_Z   2
loop_
 _symmetry_equiv_pos_site_id
 _symmetry_equiv_pos_as_xyz
  1  'x, y, z'
loop_
 _atom_site_type_symbol
 _atom_site_label
 _atom_site_symmetry_multiplicity
 _atom_site_fract_x
 _atom_site_fract_y
 _atom_site_fract_z
 _atom_site_occupancy
  Ta  Ta0  1  0.97820900  0.70309800  0.83308400  1
  Ta  Ta1  1  0.02179100  0.29690200  0.16691600  1
  Ta  Ta2  1  0.47820900  0.29690200  0.66691600  1
  Ta  Ta3  1  0.52179100  0.70309800  0.33308400  1
  Mn  Mn0  1  0.50000000  0.00000000  0.00000000  1
  Mn  Mn1  1  0.00000000  0.00000000  0.50000000  1
  P  P0  1  0.39614500  0.81854100  0.83689100  1
  P  P1  1  0.60385500  0.18145900  0.16310900  1
  P  P2  1  0.89614500  0.18145900  0.66310900  1
  P  P3  1  0.10385500  0.81854100  0.33689100  1
  P  P4  1  0.10939300  0.54609400  0.66842800  1
  P  P5  1  0.89060700  0.45390600  0.33157200  1
  P  P6  1  0.60939300  0.45390600  0.83157200  1
  P  P7  1  0.39060700  0.54609400  0.16842800  1
  P  P8  1  0.88880500  0.79228700  0.01758700  1
  P  P9  1  0.11119500  0.20771300  0.98241300  1
  P  P10  1  0.38880500  0.20771300  0.48241300  1
  P  P11  1  0.61119500  0.79228700  0.51758700  1
  O  O0  1  0.77688200  0.82256200  0.54874800  1
  O  O1  1  0.22311800  0.17743800  0.45125200  1
  O  O2  1  0.27688200  0.17743800  0.95125200  1
  O  O3  1  0.72311800  0.82256200  0.04874800  1
  O  O4  1  0.39279700  0.23522500  0.56959100  1
  O  O5  1  0.60720300  0.76477500  0.43040900  1
  O  O6  1  0.89279700  0.76477500  0.93040900  1
  O  O7  1  0.10720300  0.23522500  0.06959100  1
  O  O8  1  0.44611100  0.59665000  0.82652400  1
  O  O9  1  0.55388900  0.40335000  0.17347600  1
  O  O10  1  0.94611100  0.40335000  0.67347600  1
  O  O11  1  0.05388900  0.59665000  0.32652400  1
  O  O12  1  0.25739100  0.38450100  0.69431700  1
  O  O13  1  0.74260900  0.61549900  0.30568300  1
  O  O14  1  0.75739100  0.61549900  0.80568300  1
  O  O15  1  0.24260900  0.38450100  0.19431700  1
  O  O16  1  0.42450400  0.99822900  0.74610200  1
  O  O17  1  0.57549600  0.00177100  0.25389800  1
  O  O18  1  0.92450400  0.00177100  0.75389800  1
  O  O19  1  0.07549600  0.99822900  0.24610200  1
  O  O20  1  0.20593100  0.79216900  0.85201700  1
  O  O21  1  0.79406900  0.20783100  0.14798300  1
  O  O22  1  0.70593100  0.20783100  0.64798300  1
  O  O23  1  0.29406900  0.79216900  0.35201700  1
  O  O24  1  0.13505800  0.72311400  0.58379700  1
  O  O25  1  0.86494200  0.27688600  0.41620300  1
  O  O26  1  0.63505800  0.27688600  0.91620300  1
  O  O27  1  0.36494200  0.72311400  0.08379700  1
  O  O28  1  0.07627600  0.62630400  0.74159700  1
  O  O29  1  0.92372400  0.37369600  0.25840300  1
  O  O30  1  0.57627600  0.37369600  0.75840300  1
  O  O31  1  0.42372400  0.62630400  0.24159700  1
  O  O32  1  0.49324000  0.85343000  0.90454500  1
  O  O33  1  0.50676000  0.14657000  0.09545500  1
  O  O34  1  0.99324000  0.14657000  0.59545500  1
  O  O35  1  0.00676000  0.85343000  0.40454500  1
  O  O36  1  0.98279600  0.59842600  0.08424500  1
  O  O37  1  0.01720400  0.40157400  0.91575500  1
  O  O38  1  0.48279600  0.40157400  0.41575500  1
  O  O39  1  0.51720400  0.59842600  0.58424500  1
  O  O40  1  0.50000000  0.00000000  0.50000000  1
  O  O41  1  0.00000000  0.00000000  0.00000000  1
loop_
_geom_bond_atom_site_label_1
_geom_bond_atom_site_label_2
_geom_bond_distance
_geom_bond_site_symmetry_2
Mn0 O3 2.139078 1_545
Mn0 O2 2.139078 1_554
Mn0 O26 2.146049 1_554
Mn0 O27 2.146049 1_545
Mn0 O33 2.188136 1_555
Mn0 O32 2.188136 1_544
Mn1 O1 2.139078 1_555
Mn1 O0 2.139078 1_445
Mn1 O25 2.146049 1_455
Mn1 O24 2.146049 1_545
Mn1 O34 2.188136 1_455
Mn1 O35 2.188136 1_545
O0 P11 1.479613 1_555
O1 P10 1.479613 1_555
O2 P9 1.479613 1_555
O3 P8 1.479613 1_555
O4 P10 1.557820 1_555
O4 Ta2 1.971396 1_555
O5 P11 1.557820 1_555
O5 Ta3 1.971396 1_555
O6 P8 1.557820 1_556
O6 Ta0 1.971396 1_555
O7 P9 1.557820 1_554
O7 Ta1 1.971396 1_555
O8 P0 1.606570 1_555
O8 P6 1.608373 1_555
O9 P1 1.606570 1_555
O9 P7 1.608373 1_555
O10 P2 1.606570 1_555
O10 P4 1.608373 1_655
O11 P3 1.606570 1_555
O11 P5 1.608373 1_455
O12 P4 1.554859 1_555
O12 Ta2 1.984961 1_555
O13 P5 1.554859 1_555
O13 Ta3 1.984961 1_555
O14 P6 1.554859 1_555
O14 Ta0 1.984961 1_555
O15 P7 1.554859 1_555
O15 Ta1 1.984961 1_555
O16 P0 1.563529 1_555
O16 Ta2 1.976871 1_565
O17 P1 1.563529 1_555
O17 Ta3 1.976871 1_545
O18 P2 1.563529 1_555
O18 Ta0 1.976871 1_545
O19 P3 1.563529 1_555
O19 Ta1 1.976871 1_565
O20 P0 1.555109 1_555
O20 Ta0 1.994673 1_455
O21 P1 1.555109 1_555
O21 Ta1 1.994673 1_655
O22 P2 1.555109 1_555
O22 Ta2 1.994673 1_555
O23 P3 1.555109 1_555
O23 Ta3 1.994673 1_555
O24 P4 1.482454 1_555
O25 P5 1.482454 1_555
O26 P6 1.482454 1_555
O27 P7 1.482454 1_555
O28 P4 1.550565 1_555
O28 Ta0 1.975441 1_455
O29 P5 1.550565 1_555
O29 Ta1 1.975441 1_655
O30 P6 1.550565 1_555
O30 Ta2 1.975441 1_555
O31 P7 1.550565 1_555
O31 Ta3 1.975441 1_555
O32 P0 1.479179 1_555
O33 P1 1.479179 1_555
O34 P2 1.479179 1_555
O35 P3 1.479179 1_555
O36 P8 1.550604 1_555
O36 Ta1 1.986683 1_655
O37 P9 1.550604 1_555
O37 Ta0 1.986683 1_455
O38 P10 1.550604 1_555
O38 Ta3 1.986683 1_555
O39 P11 1.550604 1_555
O39 Ta2 1.986683 1_555
O40 P11 1.579753 1_545
O40 P10 1.579753 1_555
O41 P9 1.579753 1_554
O41 P8 1.579753 1_445
