# generated using pymatgen
data_NaLa2TaTi2O12
_symmetry_space_group_name_H-M   'P 1'
_cell_length_a   3.88684100
_cell_length_b   3.88814801
_cell_length_c   17.31770942
_cell_angle_alpha   95.10170334
_cell_angle_beta   95.79105908
_cell_angle_gamma   89.95872444
_symmetry_Int_Tables_number   1
_chemical_formula_structural   NaLa2TaTi2O12
_chemical_formula_sum   'Na1 La2 Ta1 Ti2 O12'
_cell_volume   259.33965770
_cell_formula_units_Z   1
loop_
 _symmetry_equiv_pos_site_id
 _symmetry_equiv_pos_as_xyz
  1  'x, y, z'
loop_
 _atom_site_type_symbol
 _atom_site_label
 _atom_site_symmetry_multiplicity
 _atom_site_fract_x
 _atom_site_fract_y
 _atom_site_fract_z
 _atom_site_occupancy
  Na  Na0  1  0.29182600  0.88179300  0.58434000  1
  La  La0  1  0.43067600  0.43077800  0.86660500  1
  La  La1  1  0.55980300  0.55639400  0.12114100  1
  Ta  Ta0  1  0.11863000  0.10288200  0.25722000  1
  Ti  Ti0  1  0.00342800  0.99876600  0.00108200  1
  Ti  Ti1  1  0.87562500  0.88059800  0.74685600  1
  O  O0  1  0.14794500  0.13018500  0.35980100  1
  O  O1  1  0.82432100  0.84229400  0.64583100  1
  O  O2  1  0.05716200  0.03848300  0.11698600  1
  O  O3  1  0.95279600  0.94620600  0.89040600  1
  O  O4  1  0.11153100  0.59175600  0.22622600  1
  O  O5  1  0.60712200  0.09651600  0.22595300  1
  O  O6  1  0.89249000  0.39517400  0.77743300  1
  O  O7  1  0.39188200  0.89407500  0.77557800  1
  O  O8  1  0.43828600  0.36201200  0.49231700  1
  O  O9  1  0.64459300  0.55429900  0.46688900  1
  O  O10  1  0.01509400  0.49721400  0.00728200  1
  O  O11  1  0.50928800  0.99707500  0.00705500  1
loop_
_geom_bond_atom_site_label_1
_geom_bond_atom_site_label_2
_geom_bond_distance
_geom_bond_site_symmetry_2
Na0 O1 2.208949 1_455
Na0 O1 2.241689 1_555
Na0 O8 2.560609 1_555
Na0 O8 2.657783 1_565
Na0 O9 2.781764 1_555
La0 O6 2.467834 1_455
La0 O6 2.479296 1_555
La0 O7 2.491846 1_555
La0 O7 2.495958 1_545
La0 O3 2.732660 1_445
La0 O3 2.763779 1_455
La0 O3 2.793194 1_545
La0 O3 2.827499 1_555
La0 O10 3.048380 1_556
La0 O11 3.071100 1_546
La0 O11 3.123455 1_556
La0 O10 3.151805 1_656
La1 O4 2.638474 1_555
La1 O5 2.644617 1_565
La1 O5 2.652359 1_555
La1 O4 2.664180 1_655
La1 O2 2.704264 1_665
La1 O2 2.706641 1_565
La1 O11 2.720499 1_555
La1 O10 2.738784 1_555
La1 O10 2.774053 1_655
La1 O2 2.791775 1_655
La1 O2 2.797971 1_555
La1 O11 2.798133 1_545
O0 Ta0 1.762306 1_555
O1 Ti1 1.733802 1_555
O2 Ti0 1.989123 1_545
O2 Ta0 2.406739 1_555
O3 Ti0 1.899562 1_656
O3 Ti1 2.464118 1_555
O4 Ta0 2.011401 1_565
O4 Ta0 2.019985 1_555
O5 Ta0 2.006736 1_655
O5 Ta0 2.025796 1_555
O6 Ti1 2.004379 1_555
O6 Ti1 2.022980 1_545
O7 Ti1 1.992330 1_555
O7 Ti1 2.017605 1_455
O8 O9 1.235544 1_555
O10 Ti0 1.931766 1_545
O10 Ti0 1.962813 1_555
O11 Ti0 1.933868 1_655
O11 Ti0 1.958503 1_555
