# generated using pymatgen
data_Ba4Si21Au2
_symmetry_space_group_name_H-M   'P 1'
_cell_length_a   10.49770213
_cell_length_b   10.49770213
_cell_length_c   10.43827800
_cell_angle_alpha   90.00000000
_cell_angle_beta   90.00000000
_cell_angle_gamma   90.03595364
_symmetry_Int_Tables_number   1
_chemical_formula_structural   Ba4Si21Au2
_chemical_formula_sum   'Ba8 Si42 Au4'
_cell_volume   1150.31627695
_cell_formula_units_Z   2
loop_
 _symmetry_equiv_pos_site_id
 _symmetry_equiv_pos_as_xyz
  1  'x, y, z'
loop_
 _atom_site_type_symbol
 _atom_site_label
 _atom_site_symmetry_multiplicity
 _atom_site_fract_x
 _atom_site_fract_y
 _atom_site_fract_z
 _atom_site_occupancy
  Ba  Ba0  1  0.49928000  0.00099100  0.25000000  1
  Ba  Ba1  1  0.00099100  0.49928000  0.75000000  1
  Ba  Ba2  1  0.75903500  0.01109200  0.75000000  1
  Ba  Ba3  1  0.01109200  0.75903500  0.25000000  1
  Ba  Ba4  1  0.48866200  0.48866200  0.50000000  1
  Ba  Ba5  1  0.24044200  0.01161000  0.75000000  1
  Ba  Ba6  1  0.01161000  0.24044200  0.25000000  1
  Ba  Ba7  1  0.48866200  0.48866200  0.00000000  1
  Si  Si0  1  0.68463700  0.81411300  0.43440600  1
  Si  Si1  1  0.31746500  0.18384700  0.06544700  1
  Si  Si2  1  0.31746500  0.18384700  0.43455300  1
  Si  Si3  1  0.68463700  0.81411300  0.06559400  1
  Si  Si4  1  0.68482600  0.18344700  0.06539700  1
  Si  Si5  1  0.31772300  0.81372700  0.43495200  1
  Si  Si6  1  0.31772300  0.81372700  0.06504800  1
  Si  Si7  1  0.68482600  0.18344700  0.43460300  1
  Si  Si8  1  0.81411300  0.68463700  0.93440600  1
  Si  Si9  1  0.18384700  0.31746500  0.56544700  1
  Si  Si10  1  0.18384700  0.31746500  0.93455300  1
  Si  Si11  1  0.81411300  0.68463700  0.56559400  1
  Si  Si12  1  0.18344700  0.68482600  0.56539700  1
  Si  Si13  1  0.81372700  0.31772300  0.93495200  1
  Si  Si14  1  0.81372700  0.31772300  0.56504800  1
  Si  Si15  1  0.18344700  0.68482600  0.93460300  1
  Si  Si16  1  0.50072000  0.88089500  0.55648300  1
  Si  Si17  1  0.80348300  0.99866800  0.36714900  1
  Si  Si18  1  0.61687000  0.69310800  0.25000000  1
  Si  Si19  1  0.50103000  0.11836100  0.94429000  1
  Si  Si20  1  0.19864500  0.99897800  0.13158200  1
  Si  Si21  1  0.38204100  0.30462600  0.25000000  1
  Si  Si22  1  0.50103000  0.11836100  0.55571000  1
  Si  Si23  1  0.19864500  0.99897800  0.36841800  1
  Si  Si24  1  0.50072000  0.88089500  0.94351700  1
  Si  Si25  1  0.80348300  0.99866800  0.13285100  1
  Si  Si26  1  0.61944800  0.30515700  0.25000000  1
  Si  Si27  1  0.38355300  0.69386400  0.25000000  1
  Si  Si28  1  0.88089500  0.50072000  0.05648300  1
  Si  Si29  1  0.99866800  0.80348300  0.86714900  1
  Si  Si30  1  0.69310800  0.61687000  0.75000000  1
  Si  Si31  1  0.11836100  0.50103000  0.44429000  1
  Si  Si32  1  0.99897800  0.19864500  0.63158200  1
  Si  Si33  1  0.30462600  0.38204100  0.75000000  1
  Si  Si34  1  0.11836100  0.50103000  0.05571000  1
  Si  Si35  1  0.99897800  0.19864500  0.86841800  1
  Si  Si36  1  0.88089500  0.50072000  0.44351700  1
  Si  Si37  1  0.99866800  0.80348300  0.63285100  1
  Si  Si38  1  0.30515700  0.61944800  0.75000000  1
  Si  Si39  1  0.69386400  0.38355300  0.75000000  1
  Si  Si40  1  0.74967700  0.49922900  0.25000000  1
  Si  Si41  1  0.49922900  0.74967700  0.75000000  1
  Au  Au0  1  0.00048100  0.00048100  0.50000000  1
  Au  Au1  1  0.25090200  0.49966000  0.25000000  1
  Au  Au2  1  0.49966000  0.25090200  0.75000000  1
  Au  Au3  1  0.00048100  0.00048100  0.00000000  1
loop_
_geom_bond_atom_site_label_1
_geom_bond_atom_site_label_2
_geom_bond_distance
_geom_bond_site_symmetry_2
Ba0 Si2 3.323149 1_555
Ba0 Si1 3.323149 1_555
Ba0 Si7 3.342304 1_555
Ba0 Si4 3.342304 1_555
Ba0 Si6 3.349559 1_545
Ba0 Si5 3.349559 1_545
Ba0 Si0 3.368205 1_545
Ba0 Si3 3.368205 1_545
Ba0 Si23 3.389461 1_545
Ba0 Si20 3.389461 1_545
Ba0 Si21 3.417544 1_555
Ba0 Si25 3.419653 1_545
Ba0 Si17 3.419653 1_545
Ba0 Si19 3.420738 1_554
Ba0 Si22 3.420738 1_555
Ba0 Si26 3.432467 1_555
Ba0 Si16 3.438646 1_545
Ba0 Si24 3.438646 1_544
Ba0 Si27 3.444704 1_545
Ba0 Si18 3.460498 1_545
Ba1 Si10 3.323149 1_555
Ba1 Si9 3.323149 1_555
Ba1 Si15 3.342304 1_555
Ba1 Si12 3.342304 1_555
Ba1 Si13 3.349559 1_455
Ba1 Si14 3.349559 1_455
Ba1 Si8 3.368205 1_455
Ba1 Si11 3.368205 1_455
Ba1 Si35 3.389461 1_455
Ba1 Si32 3.389461 1_455
Ba1 Si33 3.417544 1_555
Ba1 Si29 3.419653 1_455
Ba1 Si37 3.419653 1_455
Ba1 Si34 3.420738 1_556
Ba1 Si31 3.420738 1_555
Ba1 Si38 3.432467 1_555
Ba1 Si36 3.438646 1_455
Ba1 Si28 3.438646 1_456
Ba1 Si39 3.444704 1_455
Ba1 Si30 3.460498 1_455
Ba2 Si35 3.426769 1_555
Ba2 Si32 3.426769 1_555
Ba2 Si29 3.546870 1_545
Ba2 Si37 3.546870 1_545
Ba2 Si22 3.566600 1_555
Ba2 Si19 3.566600 1_555
Ba2 Si24 3.646524 1_545
Ba2 Si16 3.646524 1_545
Ba3 Si23 3.426769 1_555
Ba3 Si20 3.426769 1_555
Ba3 Si17 3.546870 1_455
Ba3 Si25 3.546870 1_455
Ba3 Si34 3.566600 1_555
Ba3 Si31 3.566600 1_555
Ba3 Si28 3.646524 1_455
Ba3 Si36 3.646524 1_455
Ba4 Si33 3.434002 1_555
Ba4 Si21 3.434002 1_555
Ba4 Si38 3.522657 1_555
Ba4 Si26 3.522657 1_555
Ba4 Si39 3.559592 1_555
Ba4 Si27 3.559592 1_555
Ba4 Si30 3.636465 1_555
Ba4 Si18 3.636465 1_555
Ba4 Si9 3.732078 1_555
Ba4 Si2 3.732078 1_555
Ba5 Si35 3.437226 1_455
Ba5 Si32 3.437226 1_455
Ba5 Si29 3.564234 1_445
Ba5 Si37 3.564234 1_445
Ba5 Si22 3.584461 1_555
Ba5 Si19 3.584461 1_555
Ba5 Si24 3.665184 1_545
Ba5 Si16 3.665184 1_545
Ba5 Si10 3.791506 1_555
Ba5 Si9 3.791506 1_555
Ba5 Si1 3.842287 1_556
Ba5 Si2 3.842287 1_555
Ba6 Si23 3.437226 1_545
Ba6 Si20 3.437226 1_545
Ba6 Si17 3.564234 1_445
Ba6 Si25 3.564234 1_445
Ba6 Si34 3.584461 1_555
Ba6 Si31 3.584461 1_555
Ba6 Si28 3.665184 1_455
Ba6 Si36 3.665184 1_455
Ba6 Si2 3.791506 1_555
Ba6 Si1 3.791506 1_555
Ba6 Si9 3.842287 1_555
Ba6 Si10 3.842287 1_554
Ba7 Si21 3.434002 1_555
Ba7 Si33 3.434002 1_554
Ba7 Si26 3.522657 1_555
Ba7 Si38 3.522657 1_554
Ba7 Si39 3.559592 1_554
Ba7 Si27 3.559592 1_555
Ba7 Si18 3.636465 1_555
Ba7 Si30 3.636465 1_554
Ba7 Si1 3.732078 1_555
Ba7 Si10 3.732078 1_554
Si0 Si11 2.360585 1_555
Si0 Si17 2.408298 1_555
Si0 Si18 2.413238 1_555
Si0 Si16 2.417556 1_555
Si1 Si21 2.403564 1_555
Si1 Si19 2.405622 1_554
Si1 Si20 2.407424 1_545
Si1 Si10 2.409212 1_554
Si2 Si21 2.403564 1_555
Si2 Si22 2.405622 1_555
Si2 Si23 2.407424 1_545
Si2 Si9 2.409212 1_555
Si3 Si8 2.360585 1_554
Si10 Si33 2.403564 1_555
Si10 Si34 2.405622 1_556
Si10 Si35 2.407424 1_455
Si11 Si37 2.408298 1_555
Si11 Si30 2.413238 1_555
Si11 Si36 2.417556 1_555
Si12 Si5 2.381095 1_555
Si12 Si31 2.405405 1_555
Si12 Si37 2.411022 1_455
Si12 Si38 2.411986 1_555
Si13 Si4 2.381095 1_556
Si13 Si39 2.406052 1_555
Si13 Si28 2.407319 1_556
Si13 Si35 2.414517 1_555
Si14 Si7 2.381095 1_555
Si14 Si39 2.406052 1_555
Si14 Si36 2.407319 1_555
Si14 Si32 2.414517 1_555
Si15 Si6 2.381095 1_556
Si15 Si34 2.405405 1_556
Si15 Si29 2.411022 1_455
Si15 Si38 2.411986 1_555
Si16 Si5 2.407319 1_555
Si16 Si41 2.445000 1_555
Si16 Si22 2.492860 1_565
Si17 Si7 2.411022 1_565
Si18 Si3 2.413238 1_555
Si18 Si27 2.449310 1_555
Si18 Si40 2.467721 1_555
Si19 Si4 2.405405 1_556
Si19 Si24 2.492860 1_545
Si20 Si6 2.414517 1_555
Si21 Si26 2.492231 1_555
Si22 Si7 2.405405 1_555
Si23 Si5 2.414517 1_555
Si24 Si6 2.407319 1_556
Si24 Si3 2.417556 1_556
Si24 Si41 2.445000 1_555
Si25 Si3 2.408298 1_555
Si25 Si4 2.411022 1_565
Si26 Si7 2.411986 1_555
Si26 Si4 2.411986 1_555
Si26 Si40 2.452777 1_555
Si27 Si5 2.406052 1_555
Si27 Si6 2.406052 1_555
Si28 Si8 2.417556 1_554
Si28 Si40 2.445000 1_555
Si28 Si34 2.492860 1_655
Si29 Si8 2.408298 1_555
Si30 Si8 2.413238 1_555
Si30 Si39 2.449310 1_555
Si30 Si41 2.467721 1_555
Si31 Si9 2.405622 1_555
Si31 Si36 2.492860 1_455
Si32 Si9 2.407424 1_655
Si33 Si9 2.403564 1_555
Si33 Si38 2.492231 1_555
Si36 Si40 2.445000 1_555
Si38 Si41 2.452777 1_555
Au0 Si37 2.489996 1_445
Au0 Si17 2.489996 1_445
Au0 Si32 2.492844 1_455
Au0 Si23 2.492844 1_545
Au0 Ba5 3.628869 1_555
Au0 Ba6 3.628869 1_555
Au0 Ba2 3.639637 1_455
Au0 Ba3 3.639637 1_545
Au1 Si34 2.459504 1_555
Au1 Si31 2.459504 1_555
Au1 Si21 2.467916 1_555
Au1 Si27 2.468169 1_555
Au1 Ba4 3.612925 1_555
Au1 Ba7 3.612925 1_555
Au1 Ba6 3.702234 1_555
Au1 Ba3 3.709453 1_555
Au2 Si22 2.459504 1_555
Au2 Si19 2.459504 1_555
Au2 Si33 2.467916 1_555
Au2 Si39 2.468169 1_555
Au2 Ba4 3.612925 1_555
Au2 Ba7 3.612925 1_556
Au2 Ba5 3.702234 1_555
Au2 Ba2 3.709453 1_555
Au3 Si25 2.489996 1_445
Au3 Si29 2.489996 1_444
Au3 Si20 2.492844 1_545
Au3 Si35 2.492844 1_454
Au3 Ba5 3.628869 1_554
Au3 Ba6 3.628869 1_555
Au3 Ba2 3.639637 1_454
Au3 Ba3 3.639637 1_545
