# generated using pymatgen
data_LiV3OF11
_symmetry_space_group_name_H-M   'P 1'
_cell_length_a   5.30443700
_cell_length_b   5.47413950
_cell_length_c   15.65686853
_cell_angle_alpha   80.63646074
_cell_angle_beta   89.92028582
_cell_angle_gamma   89.83572605
_symmetry_Int_Tables_number   1
_chemical_formula_structural   LiV3OF11
_chemical_formula_sum   'Li2 V6 O2 F22'
_cell_volume   448.57245728
_cell_formula_units_Z   2
loop_
 _symmetry_equiv_pos_site_id
 _symmetry_equiv_pos_as_xyz
  1  'x, y, z'
loop_
 _atom_site_type_symbol
 _atom_site_label
 _atom_site_symmetry_multiplicity
 _atom_site_fract_x
 _atom_site_fract_y
 _atom_site_fract_z
 _atom_site_occupancy
  Li  Li0  1  0.22302500  0.46928600  0.48944800  1
  Li  Li1  1  0.33441500  0.86687600  0.83067600  1
  V  V0  1  0.99864600  0.00338200  0.99576000  1
  V  V1  1  0.99261400  0.32771800  0.32536600  1
  V  V2  1  0.50637500  0.16720300  0.66498600  1
  V  V3  1  0.49883600  0.49602300  0.00710400  1
  V  V4  1  0.47409100  0.79977700  0.33099300  1
  V  V5  1  0.99655900  0.66460600  0.66887600  1
  O  O0  1  0.08812000  0.02299200  0.89320400  1
  O  O1  1  0.28505500  0.54531300  0.35292100  1
  F  F0  1  0.20635500  0.03120800  0.35268000  1
  F  F1  1  0.29801600  0.20184000  0.02541400  1
  F  F2  1  0.71009700  0.13329900  0.31242600  1
  F  F3  1  0.41218800  0.21813500  0.54653600  1
  F  F4  1  0.09057100  0.38031500  0.21743000  1
  F  F5  1  0.57095000  0.11082200  0.78415700  1
  F  F6  1  0.93842100  0.30818000  0.44162600  1
  F  F7  1  0.58716400  0.46255900  0.11675500  1
  F  F8  1  0.19356300  0.36225800  0.68649700  1
  F  F9  1  0.20764800  0.68786400  0.02752200  1
  F  F10  1  0.78832700  0.30804700  0.97844500  1
  F  F11  1  0.70601500  0.48821200  0.64204500  1
  F  F12  1  0.78005700  0.62850700  0.30796800  1
  F  F13  1  0.41376800  0.54705100  0.89151500  1
  F  F14  1  0.09654500  0.70500400  0.55525100  1
  F  F15  1  0.43034600  0.89580500  0.21965600  1
  F  F16  1  0.91744100  0.63060200  0.77982200  1
  F  F17  1  0.92275500  0.95295400  0.11253100  1
  F  F18  1  0.57781600  0.79697400  0.44034400  1
  F  F19  1  0.29365600  0.84845100  0.69649900  1
  F  F20  1  0.69322200  0.79935100  0.97908600  1
  F  F21  1  0.81022400  0.97270300  0.64203000  1
loop_
_geom_bond_atom_site_label_1
_geom_bond_atom_site_label_2
_geom_bond_distance
_geom_bond_site_symmetry_2
Li0 O1 2.135437 1_555
Li1 O0 1.912558 1_565
O0 V0 1.660467 1_455
O1 V4 1.707378 1_555
O1 V1 2.047183 1_455
F0 V4 1.966099 1_545
F0 V1 1.966681 1_455
F1 V3 1.915479 1_555
F1 V0 2.023261 1_454
F2 V1 1.870740 1_555
F2 V4 2.196462 1_545
F3 Li0 1.814008 1_555
F3 V2 1.897432 1_555
F4 V1 1.746102 1_455
F5 V2 1.872899 1_555
F5 Li1 1.891711 1_545
F6 V1 1.828338 1_555
F6 Li0 1.960389 1_655
F7 V3 1.760642 1_555
F8 V5 1.936433 1_455
F8 V2 2.027829 1_555
F9 V3 1.920771 1_555
F9 V0 2.042211 1_464
F10 V3 1.938424 1_556
F10 V0 1.985610 1_555
F11 V5 1.904314 1_555
F11 V2 2.035337 1_555
F12 V4 1.934594 1_555
F12 V1 1.975062 1_555
F13 V3 1.842263 1_556
F13 Li1 1.898404 1_555
F14 V5 1.834423 1_455
F14 Li0 1.897967 1_555
F15 V4 1.752465 1_555
F16 V5 1.766744 1_555
F17 V0 1.848022 1_564
F18 V4 1.796733 1_555
F19 V5 1.958586 1_455
F19 V2 2.071442 1_565
F19 Li1 2.130863 1_555
F20 V3 1.945324 1_556
F20 V0 2.011658 1_565
F21 V5 1.938824 1_555
F21 V2 1.993392 1_565
