# generated using pymatgen
data_PrInPd
_symmetry_space_group_name_H-M   'P 1'
_cell_length_a   7.82561705
_cell_length_b   7.82561705
_cell_length_c   4.00147861
_cell_angle_alpha   90.00000000
_cell_angle_beta   90.00000000
_cell_angle_gamma   120.00000954
_symmetry_Int_Tables_number   1
_chemical_formula_structural   PrInPd
_chemical_formula_sum   'Pr3 In3 Pd3'
_cell_volume   212.22095907
_cell_formula_units_Z   3
loop_
 _symmetry_equiv_pos_site_id
 _symmetry_equiv_pos_as_xyz
  1  'x, y, z'
loop_
 _atom_site_type_symbol
 _atom_site_label
 _atom_site_symmetry_multiplicity
 _atom_site_fract_x
 _atom_site_fract_y
 _atom_site_fract_z
 _atom_site_occupancy
  Pr  Pr0  1  0.41316111  0.41316111  0.50000000  1
  Pr  Pr1  1  0.58683889  0.00000000  0.50000000  1
  Pr  Pr2  1  0.00000000  0.58683889  0.50000000  1
  In  In0  1  0.74863732  0.74863732  -0.00000000  1
  In  In1  1  0.25136268  0.00000000  -0.00000000  1
  In  In2  1  0.00000000  0.25136268  0.00000000  1
  Pd  Pd0  1  0.66666700  0.33333300  -0.00000000  1
  Pd  Pd1  1  0.33333300  0.66666700  0.00000000  1
  Pd  Pd2  1  0.00000000  -0.00000000  0.50000000  1
loop_
_geom_bond_atom_site_label_1
_geom_bond_atom_site_label_2
_geom_bond_distance
_geom_bond_site_symmetry_2
In0 Pd2 2.805764 1_664
In0 Pd2 2.805764 1_665
In0 Pd1 2.981490 1_555
In0 Pd0 2.981490 1_555
In0 Pr0 3.300788 1_555
In0 Pr0 3.300788 1_554
In0 Pr2 3.459213 1_654
In0 Pr1 3.459213 1_565
In0 Pr2 3.459213 1_655
In0 Pr1 3.459213 1_564
In1 Pd2 2.805765 1_554
In1 Pd2 2.805765 1_555
In1 Pd1 2.981482 1_545
In1 Pd0 2.981487 1_555
In1 Pr1 3.300788 1_555
In1 Pr1 3.300788 1_554
In1 Pr2 3.459213 1_545
In1 Pr2 3.459213 1_544
In1 Pr0 3.459213 1_555
In1 Pr0 3.459213 1_554
In2 Pd2 2.805765 1_554
In2 Pd2 2.805765 1_555
In2 Pd0 2.981482 1_455
In2 Pd1 2.981487 1_555
In2 Pr2 3.300788 1_554
In2 Pr2 3.300788 1_555
In2 Pr1 3.459213 1_454
In2 Pr1 3.459213 1_455
In2 Pr0 3.459213 1_555
In2 Pr0 3.459213 1_554
Pd0 Pr1 3.093236 1_554
Pd0 Pr1 3.093236 1_555
Pd0 Pr2 3.093238 1_654
Pd0 Pr2 3.093238 1_655
Pd0 Pr0 3.093242 1_555
Pd0 Pr0 3.093242 1_554
Pd1 Pr2 3.093236 1_555
Pd1 Pr2 3.093236 1_554
Pd1 Pr1 3.093238 1_565
Pd1 Pr1 3.093238 1_564
Pd1 Pr0 3.093242 1_555
Pd1 Pr0 3.093242 1_554
Pd2 Pr0 3.233240 1_555
Pd2 Pr2 3.233241 1_545
Pd2 Pr1 3.233241 1_455
