# generated using pymatgen
data_Al4Si
_symmetry_space_group_name_H-M   'P 1'
_cell_length_a   22.96036234
_cell_length_b   22.96036234
_cell_length_c   22.96036183
_cell_angle_alpha   14.23689395
_cell_angle_beta   14.23689395
_cell_angle_gamma   14.23689300
_symmetry_Int_Tables_number   1
_chemical_formula_structural   Al4Si
_chemical_formula_sum   'Al32 Si8'
_cell_volume   637.27088227
_cell_formula_units_Z   8
loop_
 _symmetry_equiv_pos_site_id
 _symmetry_equiv_pos_as_xyz
  1  'x, y, z'
loop_
 _atom_site_type_symbol
 _atom_site_label
 _atom_site_symmetry_multiplicity
 _atom_site_fract_x
 _atom_site_fract_y
 _atom_site_fract_z
 _atom_site_occupancy
  Al  Al0_0  1  0.30136150  0.30136150  0.30136150  1
  Al  Al0_1  1  0.30136150  0.30136150  0.80136150  1
  Al  Al0_2  1  0.30136150  0.80136150  0.30136150  1
  Al  Al0_3  1  0.30136150  0.80136150  0.80136150  1
  Al  Al0_4  1  0.80136150  0.30136150  0.30136150  1
  Al  Al0_5  1  0.80136150  0.30136150  0.80136150  1
  Al  Al0_6  1  0.80136150  0.80136150  0.30136150  1
  Al  Al0_7  1  0.80136150  0.80136150  0.80136150  1
  Al  Al1_0  1  0.10068500  0.10068500  0.10068500  1
  Al  Al1_1  1  0.10068500  0.10068500  0.60068500  1
  Al  Al1_2  1  0.10068500  0.60068500  0.10068500  1
  Al  Al1_3  1  0.10068500  0.60068500  0.60068500  1
  Al  Al1_4  1  0.60068500  0.10068500  0.10068500  1
  Al  Al1_5  1  0.60068500  0.10068500  0.60068500  1
  Al  Al1_6  1  0.60068500  0.60068500  0.10068500  1
  Al  Al1_7  1  0.60068500  0.60068500  0.60068500  1
  Al  Al2_0  1  0.39931500  0.39931500  0.39931500  1
  Al  Al2_1  1  0.39931500  0.39931500  0.89931500  1
  Al  Al2_2  1  0.39931500  0.89931500  0.39931500  1
  Al  Al2_3  1  0.39931500  0.89931500  0.89931500  1
  Al  Al2_4  1  0.89931500  0.39931500  0.39931500  1
  Al  Al2_5  1  0.89931500  0.39931500  0.89931500  1
  Al  Al2_6  1  0.89931500  0.89931500  0.39931500  1
  Al  Al2_7  1  0.89931500  0.89931500  0.89931500  1
  Al  Al3_0  1  0.19863850  0.19863850  0.19863850  1
  Al  Al3_1  1  0.19863850  0.19863850  0.69863850  1
  Al  Al3_2  1  0.19863850  0.69863850  0.19863850  1
  Al  Al3_3  1  0.19863850  0.69863850  0.69863850  1
  Al  Al3_4  1  0.69863850  0.19863850  0.19863850  1
  Al  Al3_5  1  0.69863850  0.19863850  0.69863850  1
  Al  Al3_6  1  0.69863850  0.69863850  0.19863850  1
  Al  Al3_7  1  0.69863850  0.69863850  0.69863850  1
  Si  Si0_0  1  0.00000000  0.00000000  0.00000000  1
  Si  Si0_1  1  0.00000000  0.00000000  0.50000000  1
  Si  Si0_2  1  0.00000000  0.50000000  0.00000000  1
  Si  Si0_3  1  0.00000000  0.50000000  0.50000000  1
  Si  Si0_4  1  0.50000000  0.00000000  0.00000000  1
  Si  Si0_5  1  0.50000000  0.00000000  0.50000000  1
  Si  Si0_6  1  0.50000000  0.50000000  0.00000000  1
  Si  Si0_7  1  0.50000000  0.50000000  0.50000000  1
loop_
_geom_bond_atom_site_label_1
_geom_bond_atom_site_label_2
_geom_bond_distance
_geom_bond_site_symmetry_2
Al0_0 Si0_5 2.729312 1_555
Al0_0 Si0_3 2.729312 1_555
Al0_0 Si0_6 2.729312 1_555
Al0_0 Al1_4 2.841494 1_555
Al0_0 Al1_2 2.841494 1_555
Al0_0 Al1_1 2.841494 1_555
Al0_0 Al0_6 2.845270 1_455
Al0_0 Al0_6 2.845270 1_545
Al0_0 Al0_3 2.845270 1_545
Al0_0 Al0_5 2.845270 1_554
Al0_0 Al0_3 2.845270 1_554
Al0_0 Al0_5 2.845270 1_455
Al0_1 Si0_4 2.729312 1_556
Al0_1 Si0_2 2.729312 1_556
Al0_1 Si0_7 2.729312 1_555
Al0_1 Al1_5 2.841494 1_555
Al0_1 Al1_3 2.841494 1_555
Al0_1 Al1_0 2.841494 1_556
Al0_1 Al0_7 2.845270 1_545
Al0_1 Al0_7 2.845270 1_455
Al0_1 Al0_2 2.845270 1_555
Al0_1 Al0_4 2.845270 1_555
Al0_1 Al0_4 2.845270 1_456
Al0_1 Al0_2 2.845270 1_546
Al0_2 Si0_7 2.729312 1_555
Al0_2 Si0_1 2.729312 1_565
Al0_2 Si0_4 2.729312 1_565
Al0_2 Al1_6 2.841494 1_555
Al0_2 Al1_0 2.841494 1_565
Al0_2 Al1_3 2.841494 1_555
Al0_2 Al0_4 2.845270 1_555
Al0_2 Al0_4 2.845270 1_465
Al0_2 Al0_7 2.845270 1_554
Al0_2 Al0_7 2.845270 1_455
Al0_3 Si0_6 2.729312 1_556
Al0_3 Si0_0 2.729312 1_566
Al0_3 Si0_5 2.729312 1_565
Al0_3 Al1_7 2.841494 1_555
Al0_3 Al1_1 2.841494 1_565
Al0_3 Al1_2 2.841494 1_556
Al0_3 Al0_5 2.845270 1_555
Al0_3 Al0_5 2.845270 1_465
Al0_3 Al0_6 2.845270 1_555
Al0_3 Al0_6 2.845270 1_456
Al0_4 Si0_7 2.729312 1_555
Al0_4 Si0_1 2.729312 1_655
Al0_4 Si0_2 2.729312 1_655
Al0_4 Al1_6 2.841494 1_555
Al0_4 Al1_0 2.841494 1_655
Al0_4 Al1_5 2.841494 1_555
Al0_4 Al0_7 2.845270 1_554
Al0_4 Al0_7 2.845270 1_545
Al0_5 Si0_6 2.729312 1_556
Al0_5 Si0_0 2.729312 1_656
Al0_5 Si0_3 2.729312 1_655
Al0_5 Al1_7 2.841494 1_555
Al0_5 Al1_1 2.841494 1_655
Al0_5 Al1_4 2.841494 1_556
Al0_5 Al0_6 2.845270 1_555
Al0_5 Al0_6 2.845270 1_546
Al0_6 Si0_5 2.729312 1_565
Al0_6 Si0_3 2.729312 1_655
Al0_6 Si0_0 2.729312 1_665
Al0_6 Al1_2 2.841494 1_655
Al0_6 Al1_4 2.841494 1_565
Al0_6 Al1_7 2.841494 1_555
Al0_7 Si0_2 2.729312 1_656
Al0_7 Si0_4 2.729312 1_566
Al0_7 Si0_1 2.729312 1_665
Al0_7 Al1_5 2.841494 1_565
Al0_7 Al1_3 2.841494 1_655
Al0_7 Al1_6 2.841494 1_556
Al1_0 Al1_6 2.845270 1_545
Al1_0 Al1_6 2.845270 1_455
Al1_0 Al1_3 2.845270 1_545
Al1_0 Al1_3 2.845270 1_554
Al1_0 Al1_5 2.845270 1_554
Al1_0 Al1_5 2.845270 1_455
Al1_0 Al2_5 2.880200 1_454
Al1_0 Al2_3 2.880200 1_544
Al1_0 Al2_6 2.880200 1_445
Al1_1 Al1_7 2.845270 1_455
Al1_1 Al1_7 2.845270 1_545
Al1_1 Al1_4 2.845270 1_555
Al1_1 Al1_4 2.845270 1_456
Al1_1 Al1_2 2.845270 1_546
Al1_1 Al1_2 2.845270 1_555
Al1_1 Al2_2 2.880200 1_545
Al1_1 Al2_4 2.880200 1_455
Al1_1 Al2_7 2.880200 1_445
Al1_2 Al1_4 2.845270 1_555
Al1_2 Al1_4 2.845270 1_465
Al1_2 Al1_7 2.845270 1_455
Al1_2 Al1_7 2.845270 1_554
Al1_2 Al2_7 2.880200 1_454
Al1_2 Al2_1 2.880200 1_554
Al1_2 Al2_4 2.880200 1_455
Al1_3 Al1_5 2.845270 1_555
Al1_3 Al1_5 2.845270 1_465
Al1_3 Al1_6 2.845270 1_555
Al1_3 Al1_6 2.845270 1_456
Al1_3 Al2_6 2.880200 1_455
Al1_3 Al2_0 2.880200 1_555
Al1_3 Al2_5 2.880200 1_455
Al1_4 Al1_7 2.845270 1_545
Al1_4 Al1_7 2.845270 1_554
Al1_4 Al2_7 2.880200 1_544
Al1_4 Al2_1 2.880200 1_554
Al1_4 Al2_2 2.880200 1_545
Al1_5 Al1_6 2.845270 1_555
Al1_5 Al1_6 2.845270 1_546
Al1_5 Al2_6 2.880200 1_545
Al1_5 Al2_0 2.880200 1_555
Al1_5 Al2_3 2.880200 1_545
Al1_6 Al2_3 2.880200 1_554
Al1_6 Al2_5 2.880200 1_554
Al1_6 Al2_0 2.880200 1_555
Al1_7 Al2_4 2.880200 1_555
Al1_7 Al2_2 2.880200 1_555
Al1_7 Al2_1 2.880200 1_555
Al2_0 Al3_2 2.841494 1_555
Al2_0 Al3_4 2.841494 1_555
Al2_0 Al3_1 2.841494 1_555
Al2_0 Al2_6 2.845270 1_455
Al2_0 Al2_6 2.845270 1_545
Al2_0 Al2_5 2.845270 1_554
Al2_0 Al2_3 2.845270 1_554
Al2_0 Al2_5 2.845270 1_455
Al2_0 Al2_3 2.845270 1_545
Al2_1 Al3_3 2.841494 1_555
Al2_1 Al3_5 2.841494 1_555
Al2_1 Al3_0 2.841494 1_556
Al2_1 Al2_7 2.845270 1_455
Al2_1 Al2_7 2.845270 1_545
Al2_1 Al2_4 2.845270 1_456
Al2_1 Al2_2 2.845270 1_546
Al2_1 Al2_2 2.845270 1_555
Al2_1 Al2_4 2.845270 1_555
Al2_2 Al3_6 2.841494 1_555
Al2_2 Al3_0 2.841494 1_565
Al2_2 Al3_3 2.841494 1_555
Al2_2 Al2_4 2.845270 1_465
Al2_2 Al2_4 2.845270 1_555
Al2_2 Al2_7 2.845270 1_554
Al2_2 Al2_7 2.845270 1_455
Al2_3 Al3_7 2.841494 1_555
Al2_3 Al3_1 2.841494 1_565
Al2_3 Al3_2 2.841494 1_556
Al2_3 Al2_5 2.845270 1_555
Al2_3 Al2_5 2.845270 1_465
Al2_3 Al2_6 2.845270 1_456
Al2_3 Al2_6 2.845270 1_555
Al2_4 Al3_6 2.841494 1_555
Al2_4 Al3_0 2.841494 1_655
Al2_4 Al3_5 2.841494 1_555
Al2_4 Al2_7 2.845270 1_554
Al2_4 Al2_7 2.845270 1_545
Al2_5 Al3_7 2.841494 1_555
Al2_5 Al3_1 2.841494 1_655
Al2_5 Al3_4 2.841494 1_556
Al2_5 Al2_6 2.845270 1_546
Al2_5 Al2_6 2.845270 1_555
Al2_6 Al3_2 2.841494 1_655
Al2_6 Al3_4 2.841494 1_565
Al2_6 Al3_7 2.841494 1_555
Al2_7 Al3_5 2.841494 1_565
Al2_7 Al3_3 2.841494 1_655
Al2_7 Al3_6 2.841494 1_556
Al3_0 Si0_4 2.729312 1_555
Al3_0 Si0_2 2.729312 1_555
Al3_0 Si0_1 2.729312 1_555
Al3_0 Al3_6 2.845270 1_455
Al3_0 Al3_6 2.845270 1_545
Al3_0 Al3_5 2.845270 1_455
Al3_0 Al3_5 2.845270 1_554
Al3_0 Al3_3 2.845270 1_554
Al3_0 Al3_3 2.845270 1_545
Al3_1 Si0_5 2.729312 1_555
Al3_1 Si0_3 2.729312 1_555
Al3_1 Si0_0 2.729312 1_556
Al3_1 Al3_7 2.845270 1_455
Al3_1 Al3_7 2.845270 1_545
Al3_1 Al3_4 2.845270 1_555
Al3_1 Al3_2 2.845270 1_555
Al3_1 Al3_4 2.845270 1_456
Al3_1 Al3_2 2.845270 1_546
Al3_2 Si0_0 2.729312 1_565
Al3_2 Si0_6 2.729312 1_555
Al3_2 Si0_3 2.729312 1_555
Al3_2 Al3_4 2.845270 1_555
Al3_2 Al3_4 2.845270 1_465
Al3_2 Al3_7 2.845270 1_455
Al3_2 Al3_7 2.845270 1_554
Al3_3 Si0_7 2.729312 1_555
Al3_3 Si0_1 2.729312 1_565
Al3_3 Si0_2 2.729312 1_556
Al3_3 Al3_5 2.845270 1_465
Al3_3 Al3_5 2.845270 1_555
Al3_3 Al3_6 2.845270 1_456
Al3_3 Al3_6 2.845270 1_555
Al3_4 Si0_0 2.729312 1_655
Al3_4 Si0_6 2.729312 1_555
Al3_4 Si0_5 2.729312 1_555
Al3_4 Al3_7 2.845270 1_545
Al3_4 Al3_7 2.845270 1_554
Al3_5 Si0_7 2.729312 1_555
Al3_5 Si0_1 2.729312 1_655
Al3_5 Si0_4 2.729312 1_556
Al3_5 Al3_6 2.845270 1_546
Al3_5 Al3_6 2.845270 1_555
Al3_6 Si0_2 2.729312 1_655
Al3_6 Si0_4 2.729312 1_565
Al3_6 Si0_7 2.729312 1_555
Al3_7 Si0_5 2.729312 1_565
Al3_7 Si0_3 2.729312 1_655
Al3_7 Si0_6 2.729312 1_556
