# generated using pymatgen
data_DyH2C2SNO9
_symmetry_space_group_name_H-M   'P 1'
_cell_length_a   8.70212600
_cell_length_b   6.60904700
_cell_length_c   15.19650227
_cell_angle_alpha   66.97238846
_cell_angle_beta   90.00000000
_cell_angle_gamma   90.00000000
_symmetry_Int_Tables_number   1
_chemical_formula_structural   DyH2C2SNO9
_chemical_formula_sum   'Dy4 H8 C8 S4 N4 O36'
_cell_volume   804.34993492
_cell_formula_units_Z   4
loop_
 _symmetry_equiv_pos_site_id
 _symmetry_equiv_pos_as_xyz
  1  'x, y, z'
loop_
 _atom_site_type_symbol
 _atom_site_label
 _atom_site_symmetry_multiplicity
 _atom_site_fract_x
 _atom_site_fract_y
 _atom_site_fract_z
 _atom_site_occupancy
  Dy  Dy0  1  0.73055900  0.33079700  0.41734200  1
  Dy  Dy1  1  0.76944100  0.33079700  0.91734200  1
  Dy  Dy2  1  0.26944100  0.66920300  0.58265800  1
  Dy  Dy3  1  0.23055900  0.66920300  0.08265800  1
  H  H0  1  0.94156500  0.04256600  0.56816800  1
  H  H1  1  0.55843500  0.04256600  0.06816800  1
  H  H2  1  0.05843500  0.95743400  0.43183200  1
  H  H3  1  0.44156500  0.95743400  0.93183200  1
  H  H4  1  0.02267900  0.27176900  0.53710700  1
  H  H5  1  0.47732100  0.27176900  0.03710700  1
  H  H6  1  0.97732100  0.72823100  0.46289300  1
  H  H7  1  0.52267900  0.72823100  0.96289300  1
  C  C0  1  0.02700700  0.61235500  0.27643100  1
  C  C1  1  0.47299300  0.61235500  0.77643100  1
  C  C2  1  0.97299300  0.38764500  0.72356900  1
  C  C3  1  0.52700700  0.38764500  0.22356900  1
  C  C4  1  0.02499000  0.33836000  0.26571200  1
  C  C5  1  0.47501000  0.33836000  0.76571200  1
  C  C6  1  0.97501000  0.66164000  0.73428800  1
  C  C7  1  0.52499000  0.66164000  0.23428800  1
  S  S0  1  0.33013100  0.26433700  0.47440400  1
  S  S1  1  0.16986900  0.26433700  0.97440400  1
  S  S2  1  0.66986900  0.73566300  0.52559600  1
  S  S3  1  0.83013100  0.73566300  0.02559600  1
  N  N0  1  0.83622800  0.04638100  0.18670600  1
  N  N1  1  0.66377200  0.04638100  0.68670600  1
  N  N2  1  0.16377200  0.95361900  0.81329400  1
  N  N3  1  0.33622800  0.95361900  0.31329400  1
  O  O0  1  0.50028400  0.26443900  0.48825500  1
  O  O1  1  0.99971600  0.26443900  0.98825500  1
  O  O2  1  0.49971600  0.73556100  0.51174500  1
  O  O3  1  0.00028400  0.73556100  0.01174500  1
  O  O4  1  0.25646200  0.41667800  0.51371800  1
  O  O5  1  0.24353800  0.41667800  0.01371800  1
  O  O6  1  0.74353800  0.58332200  0.48628200  1
  O  O7  1  0.75646200  0.58332200  0.98628200  1
  O  O8  1  0.29153600  0.33027500  0.37325400  1
  O  O9  1  0.20846400  0.33027500  0.87325400  1
  O  O10  1  0.70846400  0.66972500  0.62674600  1
  O  O11  1  0.79153600  0.66972500  0.12674600  1
  O  O12  1  0.27000000  0.03970600  0.53268600  1
  O  O13  1  0.23000000  0.03970600  0.03268600  1
  O  O14  1  0.73000000  0.96029400  0.46731400  1
  O  O15  1  0.77000000  0.96029400  0.96731400  1
  O  O16  1  0.93874900  0.60681700  0.33998800  1
  O  O17  1  0.56125100  0.60681700  0.83998800  1
  O  O18  1  0.06125100  0.39318300  0.66001200  1
  O  O19  1  0.43874900  0.39318300  0.16001200  1
  O  O20  1  0.94473800  0.20999500  0.32979000  1
  O  O21  1  0.55526200  0.20999500  0.82979000  1
  O  O22  1  0.05526200  0.79000500  0.67021000  1
  O  O23  1  0.44473800  0.79000500  0.17021000  1
  O  O24  1  0.10352200  0.34692600  0.19780200  1
  O  O25  1  0.39647800  0.34692600  0.69780200  1
  O  O26  1  0.89647800  0.65307400  0.80219800  1
  O  O27  1  0.60352200  0.65307400  0.30219800  1
  O  O28  1  0.11681300  0.73487800  0.21759600  1
  O  O29  1  0.38318700  0.73487800  0.71759600  1
  O  O30  1  0.88318700  0.26512200  0.78240400  1
  O  O31  1  0.61681300  0.26512200  0.28240400  1
  O  O32  1  0.92923000  0.19843100  0.52825900  1
  O  O33  1  0.57077000  0.19843100  0.02825900  1
  O  O34  1  0.07077000  0.80156900  0.47174100  1
  O  O35  1  0.42923000  0.80156900  0.97174100  1
loop_
_geom_bond_atom_site_label_1
_geom_bond_atom_site_label_2
_geom_bond_distance
_geom_bond_site_symmetry_2
Dy0 O0 2.235939 1_555
Dy0 O14 2.262280 1_545
Dy0 O6 2.294260 1_555
Dy0 O32 2.332751 1_555
Dy0 O27 2.429969 1_555
Dy0 O31 2.463616 1_555
Dy0 O16 2.512809 1_555
Dy0 O20 2.590839 1_555
Dy1 O1 2.235939 1_555
Dy1 O15 2.262280 1_545
Dy1 O7 2.294260 1_555
Dy1 O33 2.332751 1_556
Dy1 O26 2.429969 1_555
Dy1 O30 2.463616 1_555
Dy1 O17 2.512809 1_555
Dy1 O21 2.590839 1_555
Dy2 O2 2.235939 1_555
Dy2 O12 2.262280 1_565
Dy2 O4 2.294260 1_555
Dy2 O34 2.332751 1_555
Dy2 O25 2.429969 1_555
Dy2 O29 2.463616 1_555
Dy2 O18 2.512809 1_555
Dy2 O22 2.590839 1_555
Dy3 O3 2.235939 1_555
Dy3 O13 2.262280 1_565
Dy3 O5 2.294260 1_555
Dy3 O35 2.332751 1_554
Dy3 O24 2.429969 1_555
Dy3 O28 2.463616 1_555
Dy3 O19 2.512809 1_555
Dy3 O23 2.590839 1_555
H0 O32 0.975558 1_555
H1 O33 0.975558 1_555
H2 O34 0.975558 1_555
H3 O35 0.975558 1_555
H4 O32 0.982495 1_455
H5 O33 0.982495 1_555
H6 O34 0.982495 1_655
H7 O35 0.982495 1_555
C0 O16 1.223279 1_455
C0 O28 1.224513 1_555
C1 O17 1.223279 1_555
C1 O29 1.224513 1_555
C2 O18 1.223279 1_655
C2 O30 1.224513 1_555
C3 O19 1.223279 1_555
C3 O31 1.224513 1_555
C4 O24 1.220467 1_555
C4 O20 1.228555 1_455
C5 O25 1.220467 1_555
C5 O21 1.228555 1_555
C6 O26 1.220467 1_555
C6 O22 1.228555 1_655
C7 O27 1.220467 1_555
C7 O23 1.228555 1_555
O0 S0 1.495616 1_555
O1 S1 1.495616 1_655
O2 S2 1.495616 1_555
O3 S3 1.495616 1_455
O4 S0 1.500736 1_555
O5 S1 1.500736 1_554
O6 S2 1.500736 1_555
O7 S3 1.500736 1_556
O8 S0 1.463354 1_555
O9 S1 1.463354 1_555
O10 S2 1.463354 1_555
O11 S3 1.463354 1_555
O12 S0 1.494514 1_555
O13 S1 1.494514 1_554
O14 S2 1.494514 1_555
O15 S3 1.494514 1_556
