# generated using pymatgen
data_Gd5B3O13
_symmetry_space_group_name_H-M   'P 1'
_cell_length_a   9.06209930
_cell_length_b   9.06209930
_cell_length_c   6.84179700
_cell_angle_alpha   90.00000000
_cell_angle_beta   90.00000000
_cell_angle_gamma   119.99999487
_symmetry_Int_Tables_number   1
_chemical_formula_structural   Gd5B3O13
_chemical_formula_sum   'Gd10 B6 O26'
_cell_volume   486.58472537
_cell_formula_units_Z   2
loop_
 _symmetry_equiv_pos_site_id
 _symmetry_equiv_pos_as_xyz
  1  'x, y, z'
loop_
 _atom_site_type_symbol
 _atom_site_label
 _atom_site_symmetry_multiplicity
 _atom_site_fract_x
 _atom_site_fract_y
 _atom_site_fract_z
 _atom_site_occupancy
  Gd  Gd0  1  0.25077800  0.23931500  0.25000000  1
  Gd  Gd1  1  0.74922200  0.76068500  0.75000000  1
  Gd  Gd2  1  0.76068500  0.01146300  0.25000000  1
  Gd  Gd3  1  0.23931500  0.98853700  0.75000000  1
  Gd  Gd4  1  0.98853700  0.74922200  0.25000000  1
  Gd  Gd5  1  0.01146300  0.25077800  0.75000000  1
  Gd  Gd6  1  0.33333300  0.66666700  0.00138700  1
  Gd  Gd7  1  0.66666700  0.33333300  0.99861300  1
  Gd  Gd8  1  0.66666700  0.33333300  0.50138700  1
  Gd  Gd9  1  0.33333300  0.66666700  0.49861300  1
  B  B0  1  0.03025600  0.39980800  0.25000000  1
  B  B1  1  0.96974400  0.60019200  0.75000000  1
  B  B2  1  0.60019200  0.63044800  0.25000000  1
  B  B3  1  0.39980800  0.36955200  0.75000000  1
  B  B4  1  0.36955200  0.96974400  0.25000000  1
  B  B5  1  0.63044800  0.03025600  0.75000000  1
  O  O0  1  0.12420400  0.58872500  0.25000000  1
  O  O1  1  0.87579600  0.41127500  0.75000000  1
  O  O2  1  0.41127500  0.53547900  0.25000000  1
  O  O3  1  0.58872500  0.46452100  0.75000000  1
  O  O4  1  0.46452100  0.87579600  0.25000000  1
  O  O5  1  0.53547900  0.12420400  0.75000000  1
  O  O6  1  0.08874600  0.34674400  0.07361100  1
  O  O7  1  0.91125400  0.65325600  0.92638900  1
  O  O8  1  0.65325600  0.74200300  0.07361100  1
  O  O9  1  0.91125400  0.65325600  0.57361100  1
  O  O10  1  0.34674400  0.25799700  0.92638900  1
  O  O11  1  0.08874600  0.34674400  0.42638900  1
  O  O12  1  0.25799700  0.91125400  0.07361100  1
  O  O13  1  0.34674400  0.25799700  0.57361100  1
  O  O14  1  0.74200300  0.08874600  0.92638900  1
  O  O15  1  0.65325600  0.74200300  0.42638900  1
  O  O16  1  0.74200300  0.08874600  0.57361100  1
  O  O17  1  0.25799700  0.91125400  0.42638900  1
  O  O18  1  0.48227800  0.15488200  0.25000000  1
  O  O19  1  0.51772200  0.84511800  0.75000000  1
  O  O20  1  0.84511800  0.32739600  0.25000000  1
  O  O21  1  0.15488200  0.67260400  0.75000000  1
  O  O22  1  0.67260400  0.51772200  0.25000000  1
  O  O23  1  0.32739600  0.48227800  0.75000000  1
  O  O24  1  0.00000000  0.00000000  0.25000000  1
  O  O25  1  0.00000000  0.00000000  0.75000000  1
loop_
_geom_bond_atom_site_label_1
_geom_bond_atom_site_label_2
_geom_bond_distance
_geom_bond_site_symmetry_2
Gd0 O24 2.222457 1_555
Gd0 O2 2.327019 1_555
Gd0 O10 2.353695 1_554
Gd0 O13 2.353695 1_555
Gd0 O11 2.447389 1_555
Gd0 O6 2.447389 1_555
Gd0 O18 2.567429 1_555
Gd1 O25 2.222457 1_665
Gd1 O3 2.327019 1_555
Gd1 O15 2.353695 1_555
Gd1 O8 2.353695 1_556
Gd1 O7 2.447389 1_555
Gd1 O9 2.447389 1_555
Gd1 O19 2.567429 1_555
Gd2 O24 2.222457 1_655
Gd2 O4 2.327019 1_545
Gd2 O14 2.353692 1_554
Gd2 O16 2.353692 1_555
Gd2 O8 2.447382 1_545
Gd2 O15 2.447382 1_545
Gd2 O20 2.567429 1_555
Gd3 O25 2.222457 1_565
Gd3 O5 2.327019 1_565
Gd3 O17 2.353692 1_555
Gd3 O12 2.353692 1_556
Gd3 O13 2.447382 1_565
Gd3 O10 2.447382 1_565
Gd3 O21 2.567429 1_555
Gd4 O24 2.222457 1_665
Gd4 O0 2.327019 1_655
Gd4 O7 2.353694 1_554
Gd4 O9 2.353694 1_555
Gd4 O12 2.447383 1_655
Gd4 O17 2.447383 1_655
Gd4 O22 2.567429 1_555
Gd5 O25 2.222457 1_555
Gd5 O1 2.327019 1_455
Gd5 O11 2.353694 1_555
Gd5 O6 2.353694 1_556
Gd5 O14 2.447383 1_455
Gd5 O16 2.447383 1_455
Gd5 O23 2.567429 1_555
Gd6 O0 2.375954 1_555
Gd6 O4 2.375955 1_555
Gd6 O2 2.375960 1_555
Gd6 O21 2.379755 1_554
Gd6 O19 2.379758 1_554
Gd6 O23 2.379761 1_554
Gd6 O12 2.671366 1_555
Gd6 O8 2.671366 1_555
Gd6 O6 2.671366 1_555
Gd7 O1 2.375954 1_555
Gd7 O5 2.375955 1_555
Gd7 O3 2.375960 1_555
Gd7 O20 2.379755 1_556
Gd7 O18 2.379758 1_556
Gd7 O22 2.379761 1_556
Gd7 O14 2.671366 1_555
Gd7 O10 2.671366 1_555
Gd7 O7 2.671366 1_555
Gd8 O1 2.375954 1_555
Gd8 O5 2.375955 1_555
Gd8 O3 2.375960 1_555
Gd8 O20 2.379755 1_555
Gd8 O18 2.379758 1_555
Gd8 O22 2.379761 1_555
Gd8 O16 2.671366 1_555
Gd8 O13 2.671366 1_555
Gd8 O9 2.671366 1_555
Gd9 O0 2.375954 1_555
Gd9 O4 2.375955 1_555
Gd9 O2 2.375960 1_555
Gd9 O21 2.379755 1_555
Gd9 O19 2.379758 1_555
Gd9 O23 2.379761 1_555
Gd9 O17 2.671366 1_555
Gd9 O15 2.671366 1_555
Gd9 O11 2.671366 1_555
B0 O20 1.464402 1_455
B0 O0 1.482629 1_555
B0 O11 1.491131 1_555
B0 O6 1.491131 1_555
B1 O21 1.464402 1_655
B1 O1 1.482629 1_555
B1 O7 1.491131 1_555
B1 O9 1.491131 1_555
B2 O22 1.464402 1_555
B2 O2 1.482629 1_555
B2 O8 1.491136 1_555
B2 O15 1.491136 1_555
B3 O23 1.464402 1_555
B3 O3 1.482629 1_555
B3 O13 1.491136 1_555
B3 O10 1.491136 1_555
B4 O18 1.464402 1_565
B4 O4 1.482629 1_555
B4 O17 1.491136 1_555
B4 O12 1.491136 1_555
B5 O19 1.464402 1_545
B5 O5 1.482629 1_555
B5 O14 1.491136 1_555
B5 O16 1.491136 1_555
