# generated using pymatgen
data_AlMoN3
_symmetry_space_group_name_H-M   'P 1'
_cell_length_a   11.90426434
_cell_length_b   5.49772654
_cell_length_c   8.68364290
_cell_angle_alpha   119.80524769
_cell_angle_beta   112.85014578
_cell_angle_gamma   114.30030878
_symmetry_Int_Tables_number   1
_chemical_formula_structural   AlMoN3
_chemical_formula_sum   'Al4 Mo4 N12'
_cell_volume   297.44837391
_cell_formula_units_Z   4
loop_
 _symmetry_equiv_pos_site_id
 _symmetry_equiv_pos_as_xyz
  1  'x, y, z'
loop_
 _atom_site_type_symbol
 _atom_site_label
 _atom_site_symmetry_multiplicity
 _atom_site_fract_x
 _atom_site_fract_y
 _atom_site_fract_z
 _atom_site_occupancy
  Al  Al0  1  0.71663500  0.82676400  0.49658900  1
  Al  Al1  1  0.28336500  0.17323600  0.50341100  1
  Al  Al2  1  0.66165000  0.35260700  0.64051500  1
  Al  Al3  1  0.33835000  0.64739300  0.35948500  1
  Mo  Mo0  1  0.95707300  0.67438100  0.67734900  1
  Mo  Mo1  1  0.04292700  0.32561900  0.32265100  1
  Mo  Mo2  1  0.64374700  0.67482600  0.01680500  1
  Mo  Mo3  1  0.35625300  0.32517400  0.98319500  1
  N  N0  1  0.76741100  0.62079900  0.59008400  1
  N  N1  1  0.23258900  0.37920100  0.40991600  1
  N  N2  1  0.82811100  0.25828900  0.29925000  1
  N  N3  1  0.17188900  0.74171100  0.70075000  1
  N  N4  1  0.92647500  0.41570600  0.74368000  1
  N  N5  1  0.07352500  0.58429400  0.25632000  1
  N  N6  1  0.46648900  0.22381400  0.58822900  1
  N  N7  1  0.53351100  0.77618600  0.41177100  1
  N  N8  1  0.80938900  0.70273900  0.00108600  1
  N  N9  1  0.19061100  0.29726100  0.99891400  1
  N  N10  1  0.39972200  0.49355700  0.85401000  1
  N  N11  1  0.60027800  0.50644300  0.14599000  1
loop_
_geom_bond_atom_site_label_1
_geom_bond_atom_site_label_2
_geom_bond_distance
_geom_bond_site_symmetry_2
Al0 N0 1.844666 1_555
Al0 N7 1.850008 1_555
Al0 N4 1.897780 1_565
Al0 N11 1.917316 1_555
Al1 N1 1.844666 1_555
Al1 N6 1.850008 1_555
Al1 N5 1.897780 1_545
Al1 N10 1.917316 1_555
Al2 N0 1.868990 1_555
Al2 N8 1.883460 1_556
Al2 N6 1.900593 1_555
Al2 N7 1.930178 1_545
Al3 N1 1.868990 1_555
Al3 N9 1.883460 1_554
Al3 N7 1.900593 1_555
Al3 N6 1.930178 1_565
Mo0 N4 1.742928 1_555
Mo0 N0 1.913252 1_555
Mo0 N9 1.970378 1_665
Mo0 N2 2.024397 1_555
Mo0 N3 2.336726 1_655
Mo1 N5 1.742928 1_555
Mo1 N1 1.913252 1_555
Mo1 N8 1.970378 1_445
Mo1 N3 2.024397 1_555
Mo1 N2 2.336726 1_455
Mo2 N2 1.823702 1_565
Mo2 N11 1.863355 1_555
Mo2 N8 1.977668 1_555
Mo2 N10 2.111329 1_554
Mo2 N6 2.207330 1_554
Mo3 N3 1.823702 1_545
Mo3 N10 1.863355 1_555
Mo3 N9 1.977668 1_555
Mo3 N11 2.111329 1_556
Mo3 N7 2.207330 1_556
