# generated using pymatgen
data_Tb2Fe2Si2C
_symmetry_space_group_name_H-M   'P 1'
_cell_length_a   4.51982563
_cell_length_b   5.49568439
_cell_length_c   5.39629768
_cell_angle_alpha   93.13212426
_cell_angle_beta   65.24181281
_cell_angle_gamma   65.71876129
_symmetry_Int_Tables_number   1
_chemical_formula_structural   Tb2Fe2Si2C
_chemical_formula_sum   'Tb2 Fe2 Si2 C1'
_cell_volume   106.70517851
_cell_formula_units_Z   1
loop_
 _symmetry_equiv_pos_site_id
 _symmetry_equiv_pos_as_xyz
  1  'x, y, z'
loop_
 _atom_site_type_symbol
 _atom_site_label
 _atom_site_symmetry_multiplicity
 _atom_site_fract_x
 _atom_site_fract_y
 _atom_site_fract_z
 _atom_site_occupancy
  Tb  Tb0  1  0.59329098  0.09515527  0.71826378  1
  Tb  Tb1  1  0.40670902  0.90484473  0.28173622  1
  Fe  Fe0  1  0.20609576  0.72134187  0.86646760  1
  Fe  Fe1  1  0.79390424  0.27865813  0.13353240  1
  Si  Si0  1  0.13255206  0.48729732  0.24759756  1
  Si  Si1  1  0.86744794  0.51270268  0.75240244  1
  C  C0  1  0.50000000  0.50000000  0.50000000  1
loop_
_geom_bond_atom_site_label_1
_geom_bond_atom_site_label_2
_geom_bond_distance
_geom_bond_site_symmetry_2
Fe0 Si0 2.462310 1_556
Fe0 Si1 2.488339 1_455
Fe0 Si1 2.488339 1_555
Fe1 Si1 2.462310 1_554
Fe1 Si0 2.488339 1_655
Fe1 Si0 2.488339 1_555
Si0 Si1 2.441880 1_455
Si0 Tb0 2.791837 1_554
Si0 Tb1 2.968021 1_545
Si0 Tb1 3.052649 1_555
Si0 Tb1 3.052649 1_455
Si0 Tb0 3.277574 1_465
Si1 Tb1 2.791837 1_556
Si1 Tb0 2.968021 1_565
Si1 Tb0 3.052649 1_555
Si1 Tb0 3.052649 1_655
Si1 Tb1 3.277574 1_645
C0 Fe1 1.833835 1_555
C0 Fe0 1.833835 1_555
C0 Tb0 2.538897 1_555
C0 Tb1 2.538897 1_555
C0 Si1 2.568636 1_455
C0 Si0 2.568636 1_655
C0 Si1 2.568640 1_555
C0 Si0 2.568640 1_555
