# generated using pymatgen
data_Rb4Ga8P10O41
_symmetry_space_group_name_H-M   'P 1'
_cell_length_a   5.15959271
_cell_length_b   8.30189602
_cell_length_c   21.92458303
_cell_angle_alpha   89.99390239
_cell_angle_beta   89.99944267
_cell_angle_gamma   91.75049639
_symmetry_Int_Tables_number   1
_chemical_formula_structural   Rb4Ga8P10O41
_chemical_formula_sum   'Rb4 Ga8 P10 O41'
_cell_volume   938.68813562
_cell_formula_units_Z   1
loop_
 _symmetry_equiv_pos_site_id
 _symmetry_equiv_pos_as_xyz
  1  'x, y, z'
loop_
 _atom_site_type_symbol
 _atom_site_label
 _atom_site_symmetry_multiplicity
 _atom_site_fract_x
 _atom_site_fract_y
 _atom_site_fract_z
 _atom_site_occupancy
  Rb  Rb0  1  0.97911500  0.83724200  0.49969400  1
  Rb  Rb1  1  0.02093900  0.16308300  0.99969600  1
  Rb  Rb2  1  0.00117700  0.42786700  0.77627500  1
  Rb  Rb3  1  0.99282800  0.57464600  0.27534300  1
  Ga  Ga0  1  0.45903100  0.54381200  0.91392000  1
  Ga  Ga1  1  0.54075600  0.45587200  0.41380200  1
  Ga  Ga2  1  0.96770600  0.33842300  0.57676600  1
  Ga  Ga3  1  0.03220400  0.66171300  0.07665100  1
  Ga  Ga4  1  0.04299900  0.97954800  0.82110500  1
  Ga  Ga5  1  0.95729200  0.02053200  0.32115500  1
  Ga  Ga6  1  0.47752400  0.83556200  0.65660200  1
  Ga  Ga7  1  0.52196600  0.16440600  0.15672600  1
  P  P0  1  0.53539200  0.16883200  0.87586600  1
  P  P1  1  0.46485700  0.83089200  0.37575200  1
  P  P2  1  0.00305200  0.04717100  0.67061200  1
  P  P3  1  0.99685800  0.95258900  0.17074900  1
  P  P4  1  0.50442300  0.54484200  0.56314700  1
  P  P5  1  0.49495200  0.45527200  0.06321500  1
  P  P6  1  0.54286000  0.74032100  0.79022200  1
  P  P7  1  0.45730800  0.25990000  0.29028900  1
  P  P8  1  0.97227000  0.74890500  0.93943100  1
  P  P9  1  0.02766900  0.25120800  0.43946300  1
  O  O0  1  0.15466700  0.91290200  0.63645200  1
  O  O1  1  0.84485200  0.08649200  0.13655200  1
  O  O2  1  0.20715100  0.51026000  0.56867900  1
  O  O3  1  0.79235900  0.48998300  0.06882700  1
  O  O4  1  0.06906600  0.21241900  0.64016100  1
  O  O5  1  0.93144800  0.78614500  0.14078400  1
  O  O6  1  0.60780700  0.54443400  0.49795900  1
  O  O7  1  0.39224300  0.45555900  0.99799700  1
  O  O8  1  0.65444700  0.42146600  0.60243300  1
  O  O9  1  0.34467300  0.57829900  0.10256000  1
  O  O10  1  0.62221100  0.34258900  0.89912200  1
  O  O11  1  0.37762500  0.65713300  0.39899600  1
  O  O12  1  0.10881700  0.60173500  0.91132900  1
  O  O13  1  0.89130000  0.39837900  0.41123800  1
  O  O14  1  0.08505200  0.06244900  0.73669200  1
  O  O15  1  0.91577600  0.93631100  0.23682000  1
  O  O16  1  0.36944800  0.86858700  0.81509100  1
  O  O17  1  0.63048400  0.13122300  0.31497200  1
  O  O18  1  0.53691100  0.07671200  0.93728900  1
  O  O19  1  0.46308900  0.92339000  0.43704600  1
  O  O20  1  0.83232800  0.79133100  0.79217400  1
  O  O21  1  0.16761300  0.20896800  0.29211800  1
  O  O22  1  0.26257300  0.17541400  0.84802800  1
  O  O23  1  0.73772700  0.82417900  0.34795400  1
  O  O24  1  0.74452500  0.12311900  0.82985000  1
  O  O25  1  0.25577900  0.87576500  0.32949500  1
  O  O26  1  0.49886500  0.57636600  0.82446800  1
  O  O27  1  0.50105500  0.42387200  0.32439700  1
  O  O28  1  0.55938200  0.71904500  0.58751900  1
  O  O29  1  0.44057900  0.28092800  0.08756900  1
  O  O30  1  0.70908500  0.00890300  0.66028500  1
  O  O31  1  0.29070000  0.99080100  0.16021700  1
  O  O32  1  0.06470300  0.78172800  0.00683600  1
  O  O33  1  0.93500500  0.21862000  0.50681400  1
  O  O34  1  0.46863800  0.69679200  0.72194200  1
  O  O35  1  0.53154800  0.30366600  0.22192900  1
  O  O36  1  0.67822000  0.70838400  0.94123900  1
  O  O37  1  0.32173800  0.29154400  0.44129800  1
  O  O38  1  0.02979200  0.90808900  0.90679800  1
  O  O39  1  0.97012700  0.09197900  0.40678600  1
  O  O40  1  0.49041600  0.32940200  0.72800500  1
loop_
_geom_bond_atom_site_label_1
_geom_bond_atom_site_label_2
_geom_bond_distance
_geom_bond_site_symmetry_2
Ga0 O36 1.846672 1_555
Ga0 O12 1.884849 1_555
Ga0 O10 1.921157 1_555
Ga0 O26 1.989488 1_555
Ga0 O7 2.009422 1_555
Ga1 O37 1.845853 1_555
Ga1 O13 1.885468 1_555
Ga1 O11 1.921291 1_555
Ga1 O27 1.987860 1_555
Ga1 O6 2.012321 1_555
Ga2 O4 1.825581 1_655
Ga2 O33 1.833002 1_555
Ga2 O8 1.863464 1_555
Ga2 O2 1.866848 1_655
Ga3 O5 1.829639 1_455
Ga3 O32 1.831183 1_555
Ga3 O9 1.862685 1_555
Ga3 O3 1.866998 1_455
Ga4 O16 1.948795 1_555
Ga4 O38 1.970711 1_555
Ga4 O20 1.980379 1_455
Ga4 O14 1.984064 1_565
Ga4 O24 1.985248 1_465
Ga4 O22 2.040503 1_565
Ga5 O17 1.949548 1_555
Ga5 O39 1.969459 1_555
Ga5 O21 1.981469 1_655
Ga5 O15 1.986133 1_545
Ga5 O25 1.990657 1_645
Ga5 O23 2.042744 1_545
Ga6 O34 1.837922 1_555
Ga6 O30 1.843868 1_565
Ga6 O28 1.852943 1_555
Ga6 O0 1.856784 1_555
Ga7 O35 1.838351 1_555
Ga7 O31 1.844393 1_545
Ga7 O29 1.853539 1_555
Ga7 O1 1.858853 1_555
O0 P2 1.571252 1_565
O0 Rb0 3.189175 1_455
O1 P3 1.570383 1_545
O1 Rb1 3.193283 1_654
O2 P4 1.556525 1_555
O2 Rb0 3.351875 1_455
O3 P5 1.557518 1_555
O3 Rb1 3.354068 1_654
O4 P2 1.554034 1_555
O4 Rb2 3.502425 1_555
O5 P3 1.557751 1_555
O5 Rb3 3.452471 1_555
O6 P4 1.525553 1_555
O6 Rb0 3.048987 1_555
O7 P5 1.524952 1_556
O7 Rb1 3.046813 1_555
O8 P4 1.561545 1_555
O9 P5 1.561108 1_555
O10 P0 1.581822 1_555
O10 Rb2 3.390223 1_655
O10 Rb1 3.391475 1_655
O11 P1 1.582196 1_555
O11 Rb0 3.395021 1_455
O11 Rb3 3.417297 1_455
O12 P8 1.556110 1_455
O12 Rb2 3.333384 1_555
O13 P9 1.556652 1_655
O13 Rb3 3.353369 1_555
O14 P2 1.513544 1_555
O14 Rb2 3.197545 1_555
O15 P3 1.512664 1_555
O15 Rb3 3.155762 1_555
O16 P6 1.513298 1_555
O17 P7 1.513480 1_555
O18 P0 1.548746 1_555
O18 Rb1 2.917887 1_655
O18 Rb1 3.096829 1_555
O19 P1 1.548010 1_555
O19 Rb0 2.919633 1_455
O19 Rb0 3.098888 1_555
O20 P6 1.540514 1_555
O20 Rb2 3.185318 1_655
O21 P7 1.541405 1_555
O21 Rb3 3.214309 1_455
O22 P0 1.536763 1_555
O22 Rb2 2.976301 1_555
O23 P1 1.536720 1_555
O23 Rb3 2.953903 1_555
O24 P0 1.533386 1_555
O24 Rb2 3.054300 1_655
O25 P1 1.534771 1_555
O25 Rb3 3.048446 1_455
O26 P6 1.564886 1_555
O26 Rb2 3.006185 1_555
O26 Rb2 3.090105 1_655
O27 P7 1.563549 1_555
O27 Rb3 2.994531 1_555
O27 Rb3 3.130482 1_455
O28 P4 1.559675 1_555
O28 Rb0 3.038133 1_555
O29 P5 1.560051 1_555
O29 Rb1 3.037743 1_554
O30 P2 1.556698 1_655
O31 P3 1.556639 1_455
O32 P8 1.574113 1_454
O32 Rb1 3.184718 1_564
O33 P9 1.572976 1_655
O33 Rb0 3.185101 1_545
O34 P6 1.584284 1_555
O34 Rb2 3.448358 1_555
O35 P7 1.586319 1_555
O35 Rb3 3.430791 1_555
O36 P8 1.544468 1_555
O37 P9 1.544294 1_555
O38 P8 1.523892 1_455
O38 Rb1 2.939161 1_565
O39 P9 1.524819 1_655
O39 Rb0 2.937490 1_545
O40 Rb2 2.878606 1_555
O40 Rb2 2.932874 1_655
