# generated using pymatgen
data_MgSnF5
_symmetry_space_group_name_H-M   'P 1'
_cell_length_a   5.60917163
_cell_length_b   5.60917163
_cell_length_c   8.14781103
_cell_angle_alpha   68.39823897
_cell_angle_beta   68.39823897
_cell_angle_gamma   71.75468118
_symmetry_Int_Tables_number   1
_chemical_formula_structural   MgSnF5
_chemical_formula_sum   'Mg2 Sn2 F10'
_cell_volume   216.88326438
_cell_formula_units_Z   2
loop_
 _symmetry_equiv_pos_site_id
 _symmetry_equiv_pos_as_xyz
  1  'x, y, z'
loop_
 _atom_site_type_symbol
 _atom_site_label
 _atom_site_symmetry_multiplicity
 _atom_site_fract_x
 _atom_site_fract_y
 _atom_site_fract_z
 _atom_site_occupancy
  Mg  Mg0  1  0.51232300  0.48767700  0.75000000  1
  Mg  Mg1  1  0.48767700  0.51232300  0.25000000  1
  Sn  Sn0  1  0.00000000  0.00000000  0.50000000  1
  Sn  Sn1  1  0.00000000  0.00000000  0.00000000  1
  F  F0  1  0.14190800  0.85809200  0.25000000  1
  F  F1  1  0.85809200  0.14190800  0.75000000  1
  F  F2  1  0.70330900  0.77565700  0.14004400  1
  F  F3  1  0.22434300  0.29669100  0.35995600  1
  F  F4  1  0.67417300  0.29347400  0.43998600  1
  F  F5  1  0.70652600  0.32582700  0.06001400  1
  F  F6  1  0.32582700  0.70652600  0.56001400  1
  F  F7  1  0.29347400  0.67417300  0.93998600  1
  F  F8  1  0.77565700  0.70330900  0.64004400  1
  F  F9  1  0.29669100  0.22434300  0.85995600  1
loop_
_geom_bond_atom_site_label_1
_geom_bond_atom_site_label_2
_geom_bond_distance
_geom_bond_site_symmetry_2
F0 Sn0 2.240452 1_565
F0 Sn1 2.240452 1_565
F0 Mg1 2.273269 1_555
F1 Sn1 2.240452 1_656
F1 Sn0 2.240452 1_655
F1 Mg0 2.273269 1_555
F2 Mg1 1.947770 1_555
F2 Sn1 2.123895 1_665
F3 Mg1 1.947770 1_555
F3 Sn0 2.123895 1_555
F4 Mg1 1.996619 1_555
F4 Sn0 2.114373 1_655
F5 Mg1 1.996619 1_555
F5 Sn1 2.114373 1_655
F6 Mg0 1.996619 1_555
F6 Sn0 2.114373 1_565
F7 Mg0 1.996619 1_555
F7 Sn1 2.114373 1_566
F8 Mg0 1.947770 1_555
F8 Sn0 2.123895 1_665
F9 Mg0 1.947770 1_555
F9 Sn1 2.123895 1_556
