# generated using pymatgen
data_Li8TeN2
_symmetry_space_group_name_H-M   'P 1'
_cell_length_a   7.23611470
_cell_length_b   7.23611470
_cell_length_c   7.23611470
_cell_angle_alpha   120.16551634
_cell_angle_beta   120.16551634
_cell_angle_gamma   89.71355556
_symmetry_Int_Tables_number   1
_chemical_formula_structural   Li8TeN2
_chemical_formula_sum   'Li16 Te2 N4'
_cell_volume   267.24376256
_cell_formula_units_Z   2
loop_
 _symmetry_equiv_pos_site_id
 _symmetry_equiv_pos_as_xyz
  1  'x, y, z'
loop_
 _atom_site_type_symbol
 _atom_site_label
 _atom_site_symmetry_multiplicity
 _atom_site_fract_x
 _atom_site_fract_y
 _atom_site_fract_z
 _atom_site_occupancy
  Li  Li0  1  0.91650700  0.48551200  0.05795100  1
  Li  Li1  1  0.42756100  0.85855600  0.94204900  1
  Li  Li2  1  0.23551200  0.16650700  0.55795100  1
  Li  Li3  1  0.60855600  0.67756100  0.44204900  1
  Li  Li4  1  0.91650700  0.85855600  0.43099600  1
  Li  Li5  1  0.42756100  0.48551200  0.56900400  1
  Li  Li6  1  0.23551200  0.67756100  0.06900400  1
  Li  Li7  1  0.60855600  0.16650700  0.93099600  1
  Li  Li8  1  0.05851500  0.40391800  0.34540300  1
  Li  Li9  1  0.05851500  0.71311300  0.65459700  1
  Li  Li10  1  0.15391800  0.30851500  0.84540300  1
  Li  Li11  1  0.46311300  0.30851500  0.15459700  1
  Li  Li12  1  0.29129400  0.79129400  0.50000000  1
  Li  Li13  1  0.54129400  0.54129400  0.00000000  1
  Li  Li14  1  0.87278400  0.37278400  0.50000000  1
  Li  Li15  1  0.12278400  0.12278400  0.00000000  1
  Te  Te0  1  0.85323700  0.85323700  0.00000000  1
  Te  Te1  1  0.60323700  0.10323700  0.50000000  1
  N  N0  1  0.24990900  0.48066500  0.23075600  1
  N  N1  1  0.24990900  0.01915300  0.76924400  1
  N  N2  1  0.23066500  0.49990900  0.73075600  1
  N  N3  1  0.76915300  0.49990900  0.26924400  1
loop_
_geom_bond_atom_site_label_1
_geom_bond_atom_site_label_2
_geom_bond_distance
_geom_bond_site_symmetry_2
Li0 N0 2.096801 1_655
Li0 N3 2.227705 1_555
Li0 Te0 2.895189 1_555
Li0 Te1 2.954948 1_554
Li1 N1 2.096801 1_565
Li1 N2 2.227705 1_555
Li1 Te0 2.895189 1_556
Li1 Te1 2.954948 1_566
Li2 N2 2.096801 1_555
Li2 N1 2.227705 1_555
Li2 Te1 2.895189 1_555
Li2 Te0 2.954948 1_445
Li3 N3 2.096801 1_555
Li3 N0 2.227705 1_555
Li3 Te1 2.895189 1_565
Li3 Te0 2.954948 1_556
Li4 N1 2.096799 1_665
Li4 N3 2.227703 1_555
Li4 Te0 2.895196 1_555
Li4 Te1 2.954946 1_565
Li5 N0 2.096795 1_555
Li5 N2 2.227711 1_555
Li5 Te0 2.895189 1_556
Li5 Te1 2.954949 1_555
Li6 N2 2.096795 1_554
Li6 N0 2.227711 1_555
Li6 Te1 2.895189 1_565
Li6 Te0 2.954949 1_455
Li7 N3 2.096799 1_556
Li7 N1 2.227703 1_555
Li7 Te1 2.895196 1_555
Li7 Te0 2.954946 1_546
Li8 N2 2.093058 1_555
Li8 N3 2.093058 1_455
Li8 N0 2.130760 1_555
Li9 N3 2.093059 1_455
Li9 N2 2.093065 1_555
Li9 N1 2.130754 1_565
Li10 N0 2.093058 1_556
Li10 N1 2.093058 1_555
Li10 N2 2.130760 1_555
Li11 N1 2.093059 1_554
Li11 N0 2.093065 1_555
Li11 N3 2.130754 1_555
Li12 N1 1.989240 1_565
Li12 N0 1.989240 1_555
Li13 N2 1.989240 1_554
Li13 N3 1.989240 1_555
Li14 N3 2.115438 1_555
Li14 N2 2.115438 1_655
Li14 Te1 2.765272 1_555
Li15 N1 2.115438 1_554
Li15 N0 2.115438 1_555
Li15 Te0 2.765272 1_445
