# generated using pymatgen
data_SrCa(CoO3)4
_symmetry_space_group_name_H-M   'P 1'
_cell_length_a   5.26437504
_cell_length_b   5.26434571
_cell_length_c   7.44233328
_cell_angle_alpha   89.99999765
_cell_angle_beta   90.00004471
_cell_angle_gamma   89.99995276
_symmetry_Int_Tables_number   1
_chemical_formula_structural   SrCa(CoO3)4
_chemical_formula_sum   'Sr1 Ca1 Co4 O12'
_cell_volume   206.25303011
_cell_formula_units_Z   1
loop_
 _symmetry_equiv_pos_site_id
 _symmetry_equiv_pos_as_xyz
  1  'x, y, z'
loop_
 _atom_site_type_symbol
 _atom_site_label
 _atom_site_symmetry_multiplicity
 _atom_site_fract_x
 _atom_site_fract_y
 _atom_site_fract_z
 _atom_site_occupancy
  Sr  Sr0  1  0.00000000  0.00000000  0.50000000  1
  Ca  Ca0  1  0.50000000  0.50000000  -0.00000000  1
  Co  Co0  1  0.99999961  0.49999998  0.75125723  1
  Co  Co1  1  0.00000039  0.50000002  0.24874277  1
  Co  Co2  1  0.49999965  0.99999998  0.24874485  1
  Co  Co3  1  0.50000035  0.00000002  0.75125515  1
  O  O0  1  0.25328632  0.25324380  0.24442316  1
  O  O1  1  0.25328634  0.25324389  0.75557684  1
  O  O2  1  0.74671366  0.74675611  0.24442316  1
  O  O3  1  0.74671368  0.74675620  0.75557684  1
  O  O4  1  0.74671381  0.25324368  0.75557670  1
  O  O5  1  0.74671378  0.25324379  0.24442318  1
  O  O6  1  0.25328622  0.74675621  0.75557682  1
  O  O7  1  0.25328619  0.74675632  0.24442330  1
  O  O8  1  0.00000000  0.50000000  0.50000000  1
  O  O9  1  0.00000000  0.50000000  -0.00000000  1
  O  O10  1  0.50000000  0.00000000  0.50000000  1
  O  O11  1  0.50000000  0.00000000  -0.00000000  1
loop_
_geom_bond_atom_site_label_1
_geom_bond_atom_site_label_2
_geom_bond_distance
_geom_bond_site_symmetry_2
Ca0 O5 2.585214 1_555
Ca0 O6 2.585214 1_554
Ca0 O1 2.585215 1_554
Ca0 O2 2.585215 1_555
Ca0 O3 2.585216 1_554
Ca0 O0 2.585216 1_555
Ca0 O7 2.585217 1_555
Ca0 O4 2.585217 1_554
Ca0 O11 2.632173 1_555
Ca0 O11 2.632173 1_565
Ca0 O9 2.632188 1_555
Ca0 O9 2.632188 1_655
Co0 O9 1.851227 1_656
Co0 O3 1.861825 1_555
Co0 O4 1.861826 1_555
Co0 O1 1.861828 1_655
Co0 O6 1.861829 1_655
Co0 O8 1.869940 1_655
Co1 O9 1.851227 1_555
Co1 O0 1.861825 1_555
Co1 O7 1.861826 1_555
Co1 O2 1.861828 1_455
Co1 O5 1.861829 1_455
Co1 O8 1.869940 1_555
Co2 O11 1.851242 1_565
Co2 O0 1.861509 1_565
Co2 O7 1.861510 1_555
Co2 O2 1.861511 1_555
Co2 O5 1.861513 1_565
Co2 O10 1.869925 1_565
Co3 O11 1.851242 1_556
Co3 O3 1.861509 1_545
Co3 O4 1.861510 1_555
Co3 O1 1.861511 1_555
Co3 O6 1.861513 1_545
Co3 O10 1.869925 1_555
O0 Sr0 2.678285 1_555
O1 Sr0 2.678284 1_555
O2 Sr0 2.678284 1_665
O3 Sr0 2.678285 1_665
O4 Sr0 2.678282 1_655
O5 Sr0 2.678282 1_655
O6 Sr0 2.678282 1_565
O7 Sr0 2.678282 1_565
O8 Sr0 2.632173 1_565
O8 Sr0 2.632173 1_555
O10 Sr0 2.632188 1_655
O10 Sr0 2.632188 1_555
