# generated using pymatgen
data_Si6Sb3N11
_symmetry_space_group_name_H-M   'P 1'
_cell_length_a   10.14854700
_cell_length_b   10.14854700
_cell_length_c   4.91577700
_cell_angle_alpha   90.00000000
_cell_angle_beta   90.00000000
_cell_angle_gamma   90.00000000
_symmetry_Int_Tables_number   1
_chemical_formula_structural   Si6Sb3N11
_chemical_formula_sum   'Si12 Sb6 N22'
_cell_volume   506.29065109
_cell_formula_units_Z   2
loop_
 _symmetry_equiv_pos_site_id
 _symmetry_equiv_pos_as_xyz
  1  'x, y, z'
loop_
 _atom_site_type_symbol
 _atom_site_label
 _atom_site_symmetry_multiplicity
 _atom_site_fract_x
 _atom_site_fract_y
 _atom_site_fract_z
 _atom_site_occupancy
  Si  Si0  1  0.41918200  0.29226100  0.53190800  1
  Si  Si1  1  0.58081800  0.70773900  0.53190800  1
  Si  Si2  1  0.08081800  0.79226100  0.53190800  1
  Si  Si3  1  0.91918200  0.20773900  0.53190800  1
  Si  Si4  1  0.29226100  0.58081800  0.53190800  1
  Si  Si5  1  0.70773900  0.41918200  0.53190800  1
  Si  Si6  1  0.79226100  0.91918200  0.53190800  1
  Si  Si7  1  0.20773900  0.08081800  0.53190800  1
  Si  Si8  1  0.88347700  0.38347700  0.05080300  1
  Si  Si9  1  0.11652300  0.61652300  0.05080300  1
  Si  Si10  1  0.61652300  0.88347700  0.05080300  1
  Si  Si11  1  0.38347700  0.11652300  0.05080300  1
  Sb  Sb0  1  0.31036000  0.81036000  0.95635500  1
  Sb  Sb1  1  0.68964000  0.18964000  0.95635500  1
  Sb  Sb2  1  0.18964000  0.31036000  0.95635500  1
  Sb  Sb3  1  0.81036000  0.68964000  0.95635500  1
  Sb  Sb4  1  0.50000000  0.50000000  0.97212200  1
  Sb  Sb5  1  0.00000000  0.00000000  0.97212200  1
  N  N0  1  0.32312400  0.42377400  0.66175000  1
  N  N1  1  0.67687600  0.57622600  0.66175000  1
  N  N2  1  0.17687600  0.92377400  0.66175000  1
  N  N3  1  0.82312400  0.07622600  0.66175000  1
  N  N4  1  0.42377400  0.67687600  0.66175000  1
  N  N5  1  0.57622600  0.32312400  0.66175000  1
  N  N6  1  0.92377400  0.82312400  0.66175000  1
  N  N7  1  0.07622600  0.17687600  0.66175000  1
  N  N8  1  0.42415700  0.26886900  0.18886600  1
  N  N9  1  0.57584300  0.73113100  0.18886600  1
  N  N10  1  0.07584300  0.76886900  0.18886600  1
  N  N11  1  0.92415700  0.23113100  0.18886600  1
  N  N12  1  0.26886900  0.57584300  0.18886600  1
  N  N13  1  0.73113100  0.42415700  0.18886600  1
  N  N14  1  0.76886900  0.92415700  0.18886600  1
  N  N15  1  0.23113100  0.07584300  0.18886600  1
  N  N16  1  0.83719500  0.33719500  0.71023900  1
  N  N17  1  0.16280500  0.66280500  0.71023900  1
  N  N18  1  0.66280500  0.83719500  0.71023900  1
  N  N19  1  0.33719500  0.16280500  0.71023900  1
  N  N20  1  0.50000000  0.00000000  0.03152900  1
  N  N21  1  0.00000000  0.50000000  0.03152900  1
loop_
_geom_bond_atom_site_label_1
_geom_bond_atom_site_label_2
_geom_bond_distance
_geom_bond_site_symmetry_2
N0 Si4 1.745163 1_555
N0 Si0 1.771739 1_555
N0 Sb2 2.292862 1_555
N0 Sb4 2.479597 1_555
N1 Si5 1.745163 1_555
N1 Si1 1.771739 1_555
N1 Sb3 2.292862 1_555
N1 Sb4 2.479597 1_555
N2 Si7 1.745163 1_565
N2 Si2 1.771739 1_555
N2 Sb0 2.292862 1_555
N2 Sb5 2.479597 1_565
N3 Si6 1.745163 1_545
N3 Si3 1.771739 1_555
N3 Sb1 2.292862 1_555
N3 Sb5 2.479597 1_655
N4 Si1 1.745163 1_555
N4 Si4 1.771739 1_555
N4 Sb0 2.292862 1_555
N4 Sb4 2.479597 1_555
N5 Si0 1.745163 1_555
N5 Si5 1.771739 1_555
N5 Sb1 2.292862 1_555
N5 Sb4 2.479597 1_555
N6 Si2 1.745163 1_655
N6 Si6 1.771739 1_555
N6 Sb3 2.292862 1_555
N6 Sb5 2.479597 1_665
N7 Si3 1.745163 1_455
N7 Si7 1.771739 1_555
N7 Sb2 2.292862 1_555
N7 Sb5 2.479597 1_555
N8 Si0 1.703694 1_555
N8 Si11 1.738232 1_555
N8 Sb2 2.673597 1_554
N8 Sb4 2.688809 1_554
N9 Si1 1.703694 1_555
N9 Si10 1.738232 1_555
N9 Sb3 2.673597 1_554
N9 Sb4 2.688809 1_554
N10 Si2 1.703694 1_555
N10 Si9 1.738232 1_555
N10 Sb0 2.673597 1_554
N10 Sb5 2.688809 1_564
N11 Si3 1.703694 1_555
N11 Si8 1.738232 1_555
N11 Sb1 2.673597 1_554
N11 Sb5 2.688809 1_654
N12 Si4 1.703694 1_555
N12 Si9 1.738232 1_555
N12 Sb0 2.673597 1_554
N12 Sb4 2.688809 1_554
N13 Si5 1.703694 1_555
N13 Si8 1.738232 1_555
N13 Sb1 2.673597 1_554
N13 Sb4 2.688809 1_554
N14 Si6 1.703694 1_555
N14 Si10 1.738232 1_555
N14 Sb3 2.673597 1_554
N14 Sb5 2.688809 1_664
N15 Si7 1.703694 1_555
N15 Si11 1.738232 1_555
N15 Sb2 2.673597 1_554
N15 Sb5 2.688809 1_554
N16 Si5 1.785172 1_555
N16 Si3 1.785172 1_555
N16 Si8 1.801100 1_556
N16 Sb1 2.438968 1_555
N17 Si4 1.785172 1_555
N17 Si2 1.785172 1_555
N17 Si9 1.801100 1_556
N17 Sb0 2.438968 1_555
N18 Si1 1.785172 1_555
N18 Si6 1.785172 1_555
N18 Si10 1.801100 1_556
N18 Sb3 2.438968 1_555
N19 Si0 1.785172 1_555
N19 Si7 1.785172 1_555
N19 Si11 1.801100 1_556
N19 Sb2 2.438968 1_555
N20 Si11 1.675045 1_555
N20 Si10 1.675045 1_545
N20 Sb0 2.746726 1_544
N20 Sb1 2.746726 1_554
N21 Si8 1.675045 1_455
N21 Si9 1.675045 1_555
N21 Sb2 2.746726 1_554
N21 Sb3 2.746726 1_454
