# generated using pymatgen
data_Li2MgTi9O20
_symmetry_space_group_name_H-M   'P 1'
_cell_length_a   10.07570300
_cell_length_b   5.24182500
_cell_length_c   7.47373264
_cell_angle_alpha   70.05821586
_cell_angle_beta   90.00000000
_cell_angle_gamma   90.00000000
_symmetry_Int_Tables_number   1
_chemical_formula_structural   Li2MgTi9O20
_chemical_formula_sum   'Li2 Mg1 Ti9 O20'
_cell_volume   371.05783306
_cell_formula_units_Z   1
loop_
 _symmetry_equiv_pos_site_id
 _symmetry_equiv_pos_as_xyz
  1  'x, y, z'
loop_
 _atom_site_type_symbol
 _atom_site_label
 _atom_site_symmetry_multiplicity
 _atom_site_fract_x
 _atom_site_fract_y
 _atom_site_fract_z
 _atom_site_occupancy
  Li  Li0  1  0.50000000  0.21295500  0.40089300  1
  Li  Li1  1  0.00000000  0.28414900  0.09508300  1
  Mg  Mg0  1  0.50000000  0.70088700  0.90388400  1
  Ti  Ti0  1  0.18453500  0.80229800  0.93914700  1
  Ti  Ti1  1  0.19003000  0.30510000  0.42728700  1
  Ti  Ti2  1  0.31800900  0.19974800  0.06785300  1
  Ti  Ti3  1  0.32099600  0.70747200  0.56826600  1
  Ti  Ti4  1  0.81546500  0.80229800  0.93914700  1
  Ti  Ti5  1  0.80997000  0.30510000  0.42728700  1
  Ti  Ti6  1  0.68199100  0.19974800  0.06785300  1
  Ti  Ti7  1  0.67900400  0.70747200  0.56826600  1
  Ti  Ti8  1  0.00000000  0.79732800  0.59794600  1
  O  O0  1  0.50000000  0.31601600  0.10435800  1
  O  O1  1  0.50000000  0.81768400  0.60812100  1
  O  O2  1  0.00000000  0.68203900  0.86989300  1
  O  O3  1  0.00000000  0.14883200  0.40751700  1
  O  O4  1  0.31136500  0.52858200  0.84345800  1
  O  O5  1  0.30343400  0.02875800  0.34300300  1
  O  O6  1  0.18546400  0.47787300  0.16054700  1
  O  O7  1  0.18336100  0.96503400  0.65473200  1
  O  O8  1  0.68863500  0.52858200  0.84345800  1
  O  O9  1  0.69656600  0.02875800  0.34300300  1
  O  O10  1  0.81453600  0.47787300  0.16054700  1
  O  O11  1  0.81663900  0.96503400  0.65473200  1
  O  O12  1  0.36350000  0.93006500  0.97491000  1
  O  O13  1  0.35854100  0.43222600  0.47938200  1
  O  O14  1  0.13732400  0.06835200  0.02275700  1
  O  O15  1  0.12813000  0.57454700  0.52480900  1
  O  O16  1  0.63650000  0.93006500  0.97491000  1
  O  O17  1  0.64145900  0.43222600  0.47938200  1
  O  O18  1  0.86267600  0.06835200  0.02275700  1
  O  O19  1  0.87187000  0.57454700  0.52480900  1
loop_
_geom_bond_atom_site_label_1
_geom_bond_atom_site_label_2
_geom_bond_distance
_geom_bond_site_symmetry_2
Li0 O13 2.038768 1_555
Li0 O17 2.038768 1_555
Li0 O0 2.094469 1_555
Li0 O1 2.121955 1_545
Li0 O9 2.308014 1_555
Li0 O5 2.308014 1_555
Li1 O18 1.975670 1_455
Li1 O14 1.975670 1_555
Li1 O2 2.188178 1_554
Li1 O3 2.196765 1_555
Li1 O10 2.258632 1_455
Li1 O6 2.258632 1_555
Mg0 O16 2.012823 1_555
Mg0 O12 2.012823 1_555
Mg0 O0 2.062283 1_556
Mg0 O1 2.082739 1_555
Mg0 O4 2.215928 1_555
Mg0 O8 2.215928 1_555
O0 Ti2 1.980329 1_555
O0 Ti6 1.980329 1_555
O1 Ti3 1.947511 1_555
O1 Ti7 1.947511 1_555
O2 Ti8 1.912658 1_555
O2 Ti4 2.084443 1_455
O2 Ti0 2.084443 1_555
O3 Ti8 1.905696 1_545
O3 Ti1 2.107460 1_555
O3 Ti5 2.107460 1_455
O4 Ti3 1.950185 1_555
O4 Ti2 1.953531 1_556
O4 Ti0 2.214265 1_555
O5 Ti3 1.941106 1_545
O5 Ti2 1.948441 1_555
O5 Ti1 2.103107 1_555
O6 Ti1 1.888115 1_555
O6 Ti0 1.926286 1_554
O6 Ti2 2.253399 1_555
O7 Ti1 2.001164 1_565
O7 Ti0 2.002321 1_555
O7 Ti8 2.149564 1_555
O7 Ti3 2.181427 1_555
O8 Ti7 1.950185 1_555
O8 Ti6 1.953531 1_556
O8 Ti4 2.214265 1_555
O9 Ti7 1.941106 1_545
O9 Ti6 1.948441 1_555
O9 Ti5 2.103107 1_555
O10 Ti5 1.888115 1_555
O10 Ti4 1.926286 1_554
O10 Ti6 2.253399 1_555
O11 Ti5 2.001164 1_565
O11 Ti4 2.002321 1_555
O11 Ti8 2.149564 1_655
O11 Ti7 2.181427 1_555
O12 Ti2 1.833241 1_566
O12 Ti0 1.973224 1_555
O13 Ti3 1.822038 1_555
O13 Ti1 1.911902 1_555
O14 Ti0 1.776551 1_544
O14 Ti2 2.015104 1_555
O15 Ti1 1.901913 1_555
O15 Ti8 1.940253 1_555
O15 Ti3 2.126406 1_555
O16 Ti6 1.833241 1_566
O16 Ti4 1.973224 1_555
O17 Ti7 1.822038 1_555
O17 Ti5 1.911902 1_555
O18 Ti4 1.776551 1_544
O18 Ti6 2.015104 1_555
O19 Ti5 1.901913 1_555
O19 Ti8 1.940253 1_655
O19 Ti7 2.126406 1_555
