# generated using pymatgen
data_Lu(Fe2Ge)2
_symmetry_space_group_name_H-M   'P 1'
_cell_length_a   7.17592800
_cell_length_b   7.17592800
_cell_length_c   3.85787100
_cell_angle_alpha   90.00000000
_cell_angle_beta   90.00000000
_cell_angle_gamma   90.00000000
_symmetry_Int_Tables_number   1
_chemical_formula_structural   Lu(Fe2Ge)2
_chemical_formula_sum   'Lu2 Fe8 Ge4'
_cell_volume   198.65698807
_cell_formula_units_Z   2
loop_
 _symmetry_equiv_pos_site_id
 _symmetry_equiv_pos_as_xyz
  1  'x, y, z'
loop_
 _atom_site_type_symbol
 _atom_site_label
 _atom_site_symmetry_multiplicity
 _atom_site_fract_x
 _atom_site_fract_y
 _atom_site_fract_z
 _atom_site_occupancy
  Lu  Lu0  1  0.50000000  0.50000000  0.00000000  1
  Lu  Lu1  1  0.00000000  0.00000000  0.50000000  1
  Fe  Fe0  1  0.14544400  0.59088500  0.50000000  1
  Fe  Fe1  1  0.85455600  0.40911500  0.50000000  1
  Fe  Fe2  1  0.35455600  0.09088500  0.00000000  1
  Fe  Fe3  1  0.64544400  0.90911500  0.00000000  1
  Fe  Fe4  1  0.59088500  0.14544400  0.50000000  1
  Fe  Fe5  1  0.40911500  0.85455600  0.50000000  1
  Fe  Fe6  1  0.09088500  0.35455600  0.00000000  1
  Fe  Fe7  1  0.90911500  0.64544400  0.00000000  1
  Ge  Ge0  1  0.71550900  0.71550900  0.50000000  1
  Ge  Ge1  1  0.28449100  0.28449100  0.50000000  1
  Ge  Ge2  1  0.78449100  0.21550900  0.00000000  1
  Ge  Ge3  1  0.21550900  0.78449100  0.00000000  1
loop_
_geom_bond_atom_site_label_1
_geom_bond_atom_site_label_2
_geom_bond_distance
_geom_bond_site_symmetry_2
Fe0 Ge1 2.414477 1_555
Fe0 Ge3 2.429762 1_556
Fe0 Ge3 2.429762 1_555
Fe0 Lu1 3.115783 1_565
Fe0 Lu0 3.258748 1_556
Fe0 Lu0 3.258748 1_555
Fe1 Ge0 2.414477 1_555
Fe1 Ge2 2.429762 1_556
Fe1 Ge2 2.429762 1_555
Fe1 Lu1 3.115783 1_655
Fe1 Lu0 3.258748 1_556
Fe1 Lu0 3.258748 1_555
Fe2 Ge3 2.414477 1_545
Fe2 Ge1 2.429762 1_555
Fe2 Ge1 2.429762 1_554
Fe2 Lu0 3.115783 1_555
Fe2 Lu1 3.258748 1_555
Fe2 Lu1 3.258748 1_554
Fe3 Ge2 2.414477 1_565
Fe3 Ge0 2.429762 1_554
Fe3 Ge0 2.429762 1_555
Fe3 Lu0 3.115783 1_555
Fe3 Lu1 3.258748 1_664
Fe3 Lu1 3.258748 1_665
Fe4 Ge1 2.414477 1_555
Fe4 Ge2 2.429762 1_556
Fe4 Ge2 2.429762 1_555
Fe4 Lu1 3.115783 1_655
Fe4 Lu0 3.258748 1_556
Fe4 Lu0 3.258748 1_555
Fe5 Ge0 2.414477 1_555
Fe5 Ge3 2.429762 1_556
Fe5 Ge3 2.429762 1_555
Fe5 Lu1 3.115783 1_565
Fe5 Lu0 3.258748 1_556
Fe5 Lu0 3.258748 1_555
Fe6 Ge2 2.414477 1_455
Fe6 Ge1 2.429762 1_555
Fe6 Ge1 2.429762 1_554
Fe6 Lu0 3.115783 1_555
Fe6 Lu1 3.258748 1_555
Fe6 Lu1 3.258748 1_554
Fe7 Ge3 2.414477 1_655
Fe7 Ge0 2.429762 1_554
Fe7 Ge0 2.429762 1_555
Fe7 Lu0 3.115783 1_555
Fe7 Lu1 3.258748 1_664
Fe7 Lu1 3.258748 1_665
Ge0 Lu1 2.887099 1_665
Ge0 Lu0 2.916158 1_556
Ge0 Lu0 2.916158 1_555
Ge1 Lu1 2.887099 1_555
Ge1 Lu0 2.916158 1_556
Ge1 Lu0 2.916158 1_555
Ge2 Lu0 2.887099 1_555
Ge2 Lu1 2.916158 1_655
Ge2 Lu1 2.916158 1_654
Ge3 Lu0 2.887099 1_555
Ge3 Lu1 2.916158 1_564
Ge3 Lu1 2.916158 1_565
