# generated using pymatgen
data_Nb2Pb3N4
_symmetry_space_group_name_H-M   'P 1'
_cell_length_a   6.72795700
_cell_length_b   11.62728800
_cell_length_c   9.69281700
_cell_angle_alpha   90.00000000
_cell_angle_beta   90.00000000
_cell_angle_gamma   90.00000000
_symmetry_Int_Tables_number   1
_chemical_formula_structural   Nb2Pb3N4
_chemical_formula_sum   'Nb8 Pb12 N16'
_cell_volume   758.24865784
_cell_formula_units_Z   4
loop_
 _symmetry_equiv_pos_site_id
 _symmetry_equiv_pos_as_xyz
  1  'x, y, z'
loop_
 _atom_site_type_symbol
 _atom_site_label
 _atom_site_symmetry_multiplicity
 _atom_site_fract_x
 _atom_site_fract_y
 _atom_site_fract_z
 _atom_site_occupancy
  Nb  Nb0  1  0.75000000  0.50000000  0.76640400  1
  Nb  Nb1  1  0.75000000  0.00000000  0.73359600  1
  Nb  Nb2  1  0.25000000  0.50000000  0.23359600  1
  Nb  Nb3  1  0.25000000  0.00000000  0.26640400  1
  Nb  Nb4  1  0.80581900  0.25000000  0.75000000  1
  Nb  Nb5  1  0.69418100  0.75000000  0.75000000  1
  Nb  Nb6  1  0.19418100  0.75000000  0.25000000  1
  Nb  Nb7  1  0.30581900  0.25000000  0.25000000  1
  Pb  Pb0  1  0.75780200  0.14293600  0.42024400  1
  Pb  Pb1  1  0.74219800  0.85706400  0.42024400  1
  Pb  Pb2  1  0.75780200  0.35706400  0.07975600  1
  Pb  Pb3  1  0.74219800  0.64293600  0.07975600  1
  Pb  Pb4  1  0.24219800  0.85706400  0.57975600  1
  Pb  Pb5  1  0.25780200  0.14293600  0.57975600  1
  Pb  Pb6  1  0.24219800  0.64293600  0.92024400  1
  Pb  Pb7  1  0.25780200  0.35706400  0.92024400  1
  Pb  Pb8  1  0.75000000  0.50000000  0.43232300  1
  Pb  Pb9  1  0.75000000  0.00000000  0.06767700  1
  Pb  Pb10  1  0.25000000  0.50000000  0.56767700  1
  Pb  Pb11  1  0.25000000  0.00000000  0.93232300  1
  N  N0  1  0.90238800  0.40019000  0.64088800  1
  N  N1  1  0.59761200  0.59981000  0.64088800  1
  N  N2  1  0.90238800  0.09981000  0.85911200  1
  N  N3  1  0.59761200  0.90019000  0.85911200  1
  N  N4  1  0.09761200  0.59981000  0.35911200  1
  N  N5  1  0.40238800  0.40019000  0.35911200  1
  N  N6  1  0.09761200  0.90019000  0.14088800  1
  N  N7  1  0.40238800  0.09981000  0.14088800  1
  N  N8  1  0.61862900  0.35418700  0.83802600  1
  N  N9  1  0.88137100  0.64581300  0.83802600  1
  N  N10  1  0.61862900  0.14581300  0.66197400  1
  N  N11  1  0.88137100  0.85418700  0.66197400  1
  N  N12  1  0.38137100  0.64581300  0.16197400  1
  N  N13  1  0.11862900  0.35418700  0.16197400  1
  N  N14  1  0.38137100  0.85418700  0.33802600  1
  N  N15  1  0.11862900  0.14581300  0.33802600  1
loop_
_geom_bond_atom_site_label_1
_geom_bond_atom_site_label_2
_geom_bond_distance
_geom_bond_site_symmetry_2
N0 Nb0 1.969286 1_555
N0 Nb4 2.142480 1_555
N0 Pb8 2.546519 1_555
N0 Pb10 2.705545 1_655
N1 Nb0 1.969286 1_555
N1 Nb5 2.142480 1_555
N1 Pb8 2.546519 1_555
N1 Pb10 2.705545 1_555
N2 Nb1 1.969286 1_555
N2 Nb4 2.142480 1_555
N2 Pb9 2.546519 1_556
N2 Pb11 2.705545 1_655
N3 Nb1 1.969286 1_565
N3 Nb5 2.142480 1_555
N3 Pb9 2.546519 1_566
N3 Pb11 2.705545 1_565
N4 Nb2 1.969286 1_555
N4 Nb6 2.142480 1_555
N4 Pb10 2.546519 1_555
N4 Pb8 2.705545 1_455
N5 Nb2 1.969286 1_555
N5 Nb7 2.142480 1_555
N5 Pb10 2.546519 1_555
N5 Pb8 2.705545 1_555
N6 Nb3 1.969286 1_565
N6 Nb6 2.142480 1_555
N6 Pb11 2.546519 1_564
N6 Pb9 2.705545 1_465
N7 Nb3 1.969286 1_555
N7 Nb7 2.142480 1_555
N7 Pb11 2.546519 1_554
N7 Pb9 2.705545 1_555
N8 Nb4 1.944636 1_555
N8 Nb0 2.034099 1_555
N8 Pb2 2.523436 1_556
N8 Pb7 2.555306 1_555
N9 Nb5 1.944636 1_555
N9 Nb0 2.034099 1_555
N9 Pb3 2.523436 1_556
N9 Pb6 2.555306 1_655
N10 Nb4 1.944636 1_555
N10 Nb1 2.034099 1_555
N10 Pb0 2.523436 1_555
N10 Pb5 2.555306 1_555
N11 Nb5 1.944636 1_555
N11 Nb1 2.034099 1_565
N11 Pb1 2.523436 1_555
N11 Pb4 2.555306 1_655
N12 Nb6 1.944636 1_555
N12 Nb2 2.034099 1_555
N12 Pb6 2.523436 1_554
N12 Pb3 2.555306 1_555
N13 Nb7 1.944636 1_555
N13 Nb2 2.034099 1_555
N13 Pb7 2.523436 1_554
N13 Pb2 2.555306 1_455
N14 Nb6 1.944636 1_555
N14 Nb3 2.034099 1_565
N14 Pb4 2.523436 1_555
N14 Pb1 2.555306 1_555
N15 Nb7 1.944636 1_555
N15 Nb3 2.034099 1_555
N15 Pb5 2.523436 1_555
N15 Pb0 2.555306 1_455
