# generated using pymatgen
data_ScAgSe2
_symmetry_space_group_name_H-M   'P 1'
_cell_length_a   3.90558424
_cell_length_b   3.90558410
_cell_length_c   6.61040586
_cell_angle_alpha   90.00000000
_cell_angle_beta   90.00000000
_cell_angle_gamma   120.00000116
_symmetry_Int_Tables_number   1
_chemical_formula_structural   ScAgSe2
_chemical_formula_sum   'Sc1 Ag1 Se2'
_cell_volume   87.32342379
_cell_formula_units_Z   1
loop_
 _symmetry_equiv_pos_site_id
 _symmetry_equiv_pos_as_xyz
  1  'x, y, z'
loop_
 _atom_site_type_symbol
 _atom_site_label
 _atom_site_symmetry_multiplicity
 _atom_site_fract_x
 _atom_site_fract_y
 _atom_site_fract_z
 _atom_site_occupancy
  Sc  Sc0  1  0.00000000  0.00000000  -0.00000000  1
  Ag  Ag0  1  0.00000000  0.00000000  0.50000000  1
  Se  Se0  1  0.33333300  0.66666700  0.23212153  1
  Se  Se1  1  0.66666700  0.33333300  0.76787847  1
loop_
_geom_bond_atom_site_label_1
_geom_bond_atom_site_label_2
_geom_bond_distance
_geom_bond_site_symmetry_2
Sc0 Se0 2.727445 1_545
Sc0 Se1 2.727445 1_454
Sc0 Se1 2.727448 1_444
Sc0 Se0 2.727448 1_555
Sc0 Se0 2.727448 1_445
Sc0 Se1 2.727448 1_554
Ag0 Se1 2.867089 1_455
Ag0 Se0 2.867089 1_545
Ag0 Se0 2.867092 1_555
Ag0 Se1 2.867092 1_445
Ag0 Se0 2.867092 1_445
Ag0 Se1 2.867092 1_555
