# generated using pymatgen
data_CdFeO3
_symmetry_space_group_name_H-M   'P 1'
_cell_length_a   5.37915513
_cell_length_b   5.50600509
_cell_length_c   7.66956810
_cell_angle_alpha   89.99227199
_cell_angle_beta   90.26211392
_cell_angle_gamma   89.98123974
_symmetry_Int_Tables_number   1
_chemical_formula_structural   CdFeO3
_chemical_formula_sum   'Cd4 Fe4 O12'
_cell_volume   227.15223466
_cell_formula_units_Z   4
loop_
 _symmetry_equiv_pos_site_id
 _symmetry_equiv_pos_as_xyz
  1  'x, y, z'
loop_
 _atom_site_type_symbol
 _atom_site_label
 _atom_site_symmetry_multiplicity
 _atom_site_fract_x
 _atom_site_fract_y
 _atom_site_fract_z
 _atom_site_occupancy
  Cd  Cd0  1  0.01228300  0.95189800  0.75135100  1
  Cd  Cd1  1  0.48766800  0.45192800  0.74869300  1
  Cd  Cd2  1  0.51245500  0.54809600  0.25131700  1
  Cd  Cd3  1  0.98760600  0.04812800  0.24862200  1
  Fe  Fe0  1  0.00008700  0.50000500  0.49999300  1
  Fe  Fe1  1  0.49990500  0.99997700  0.00000500  1
  Fe  Fe2  1  0.99996900  0.50000200  0.99999100  1
  Fe  Fe3  1  0.50003300  0.00001600  0.49999300  1
  O  O0  1  0.10258400  0.45996900  0.25522200  1
  O  O1  1  0.39742600  0.95981700  0.24469500  1
  O  O2  1  0.60248200  0.04016700  0.75531500  1
  O  O3  1  0.89751100  0.54004400  0.74476500  1
  O  O4  1  0.19240900  0.20920400  0.55655000  1
  O  O5  1  0.20442900  0.20162200  0.94693600  1
  O  O6  1  0.29567600  0.70172300  0.55300600  1
  O  O7  1  0.30751600  0.70907700  0.94347600  1
  O  O8  1  0.69237800  0.29086600  0.05652300  1
  O  O9  1  0.70444500  0.29831200  0.44703500  1
  O  O10  1  0.79543100  0.79834300  0.05305600  1
  O  O11  1  0.80770800  0.79080600  0.44345800  1
loop_
_geom_bond_atom_site_label_1
_geom_bond_atom_site_label_2
_geom_bond_distance
_geom_bond_site_symmetry_2
Cd0 O2 2.257510 1_465
Cd0 O4 2.278522 1_565
Cd0 O5 2.279545 1_565
Cd0 O3 2.350893 1_455
Cd0 O7 2.541159 1_555
Cd0 O6 2.560424 1_555
Cd0 O10 2.730324 1_456
Cd0 O11 2.747974 1_455
Cd1 O3 2.257853 1_555
Cd1 O7 2.277810 1_555
Cd1 O6 2.279269 1_555
Cd1 O2 2.350060 1_555
Cd1 O4 2.541801 1_555
Cd1 O5 2.560166 1_555
Cd1 O9 2.729905 1_555
Cd1 O8 2.747356 1_556
Cd2 O0 2.258010 1_555
Cd2 O8 2.277615 1_555
Cd2 O9 2.279384 1_555
Cd2 O1 2.350152 1_555
Cd2 O11 2.541731 1_555
Cd2 O10 2.559228 1_555
Cd2 O6 2.730130 1_555
Cd2 O7 2.747773 1_554
Cd3 O1 2.257654 1_645
Cd3 O11 2.278228 1_545
Cd3 O10 2.279723 1_545
Cd3 O0 2.351117 1_655
Cd3 O8 2.540787 1_555
Cd3 O9 2.560016 1_555
Cd3 O5 2.730029 1_654
Cd3 O4 2.748662 1_655
Fe0 O4 1.953642 1_555
Fe0 O11 1.953767 1_455
Fe0 O0 1.971367 1_555
Fe0 O3 1.971497 1_455
Fe0 O6 1.980506 1_555
Fe0 O9 1.980572 1_455
Fe1 O7 1.954883 1_554
Fe1 O8 1.955054 1_565
Fe1 O1 1.970808 1_555
Fe1 O2 1.970976 1_564
Fe1 O5 1.979234 1_564
Fe1 O10 1.979388 1_555
Fe2 O5 2.019241 1_655
Fe2 O10 2.019311 1_556
Fe2 O3 2.043036 1_555
Fe2 O0 2.043291 1_656
Fe2 O7 2.063392 1_655
Fe2 O8 2.063797 1_556
Fe3 O6 2.018980 1_545
Fe3 O9 2.019069 1_555
Fe3 O2 2.043888 1_555
Fe3 O1 2.043966 1_545
Fe3 O4 2.063601 1_555
Fe3 O11 2.063853 1_545
