# generated using pymatgen
data_Ba7Sr5(MoN4)4
_symmetry_space_group_name_H-M   'P 1'
_cell_length_a   10.64914081
_cell_length_b   10.03826658
_cell_length_c   12.04525726
_cell_angle_alpha   89.85946566
_cell_angle_beta   90.00000000
_cell_angle_gamma   90.00000000
_symmetry_Int_Tables_number   1
_chemical_formula_structural   Ba7Sr5(MoN4)4
_chemical_formula_sum   'Ba14 Sr10 Mo8 N32'
_cell_volume   1287.62104982
_cell_formula_units_Z   2
loop_
 _symmetry_equiv_pos_site_id
 _symmetry_equiv_pos_as_xyz
  1  'x, y, z'
loop_
 _atom_site_type_symbol
 _atom_site_label
 _atom_site_symmetry_multiplicity
 _atom_site_fract_x
 _atom_site_fract_y
 _atom_site_fract_z
 _atom_site_occupancy
  Ba  Ba0  1  0.77205252  0.56325699  0.38474890  1
  Ba  Ba1  1  0.27205252  0.43674301  0.61525110  1
  Ba  Ba2  1  0.22822818  0.05278795  0.12009615  1
  Ba  Ba3  1  0.72822818  0.94721205  0.87990385  1
  Ba  Ba4  1  0.23046465  0.94429075  0.61640771  1
  Ba  Ba5  1  0.73046465  0.05570925  0.38359229  1
  Ba  Ba6  1  0.77169981  0.44211335  0.88534643  1
  Ba  Ba7  1  0.27169981  0.55788665  0.11465357  1
  Ba  Ba8  1  0.97127574  0.37509930  0.14877153  1
  Ba  Ba9  1  0.47127574  0.62490070  0.85122847  1
  Ba  Ba10  1  0.97205066  0.62257132  0.64717249  1
  Ba  Ba11  1  0.47205066  0.37742868  0.35282751  1
  Ba  Ba12  1  0.02937167  0.12281806  0.85549526  1
  Ba  Ba13  1  0.52937167  0.87718194  0.14450474  1
  Sr  Sr0  1  0.12451111  0.21700656  0.39521689  1
  Sr  Sr1  1  0.62451111  0.78299344  0.60478311  1
  Sr  Sr2  1  0.87756273  0.71747823  0.10547187  1
  Sr  Sr3  1  0.37756273  0.28252177  0.89452813  1
  Sr  Sr4  1  0.87638778  0.28287359  0.60310023  1
  Sr  Sr5  1  0.37638778  0.71712641  0.39689977  1
  Sr  Sr6  1  0.12289759  0.78322070  0.89441734  1
  Sr  Sr7  1  0.62289759  0.21677930  0.10558266  1
  Sr  Sr8  1  0.03500285  0.87269575  0.36321052  1
  Sr  Sr9  1  0.53500285  0.12730425  0.63678948  1
  Mo  Mo0  1  0.09582026  0.55085612  0.38412608  1
  Mo  Mo1  1  0.59582026  0.44914388  0.61587392  1
  Mo  Mo2  1  0.90400960  0.04326719  0.11831756  1
  Mo  Mo3  1  0.40400960  0.95673281  0.88168244  1
  Mo  Mo4  1  0.90267971  0.95316145  0.61181046  1
  Mo  Mo5  1  0.40267971  0.04683855  0.38818954  1
  Mo  Mo6  1  0.09630476  0.45344030  0.88431888  1
  Mo  Mo7  1  0.59630476  0.54655970  0.11568112  1
  N  N0  1  0.22226817  0.45070000  0.31733968  1
  N  N1  1  0.72226817  0.54930000  0.68266032  1
  N  N2  1  0.77513472  0.94463064  0.18175550  1
  N  N3  1  0.27513472  0.05536936  0.81824450  1
  N  N4  1  0.76988098  0.05061890  0.67235770  1
  N  N5  1  0.26988098  0.94938110  0.32764230  1
  N  N6  1  0.22305281  0.55271392  0.81694691  1
  N  N7  1  0.72305281  0.44728608  0.18305309  1
  N  N8  1  0.15955824  0.67817681  0.48200017  1
  N  N9  1  0.65955824  0.32182319  0.51799983  1
  N  N10  1  0.84122747  0.17496201  0.02252315  1
  N  N11  1  0.34122747  0.82503799  0.97747685  1
  N  N12  1  0.84333837  0.82260994  0.51438914  1
  N  N13  1  0.34333837  0.17739006  0.48561086  1
  N  N14  1  0.16003148  0.32478750  0.98164274  1
  N  N15  1  0.66003148  0.67521250  0.01835726  1
  N  N16  1  0.99325326  0.43267771  0.46381653  1
  N  N17  1  0.49325326  0.56732229  0.53618347  1
  N  N18  1  0.00550716  0.92885777  0.03500734  1
  N  N19  1  0.50550716  0.07114223  0.96499266  1
  N  N20  1  0.00597308  0.06837232  0.53055198  1
  N  N21  1  0.50597308  0.93162768  0.46944802  1
  N  N22  1  0.99540695  0.57002388  0.96609323  1
  N  N23  1  0.49540695  0.42997612  0.03390677  1
  N  N24  1  0.99606046  0.63716910  0.27924397  1
  N  N25  1  0.49606046  0.36283090  0.72075603  1
  N  N26  1  0.00410303  0.11994347  0.22799867  1
  N  N27  1  0.50410303  0.88005653  0.77200133  1
  N  N28  1  0.00017299  0.87544665  0.72295922  1
  N  N29  1  0.50017299  0.12455335  0.27704078  1
  N  N30  1  0.99471120  0.37274001  0.77768536  1
  N  N31  1  0.49471120  0.62725999  0.22231464  1
loop_
_geom_bond_atom_site_label_1
_geom_bond_atom_site_label_2
_geom_bond_distance
_geom_bond_site_symmetry_2
Ba0 N7 2.746590 1_555
Ba0 N24 2.802045 1_555
Ba0 N16 2.857960 1_555
Ba0 N12 3.132513 1_555
Ba0 N9 3.141007 1_555
Ba1 N6 2.746590 1_555
Ba1 N25 2.802045 1_555
Ba1 N17 2.857960 1_555
Ba1 N13 3.132513 1_555
Ba1 N8 3.141007 1_555
Ba2 N5 2.740666 1_545
Ba2 N26 2.800808 1_555
Ba2 N18 2.868751 1_545
Ba2 N11 3.105675 1_544
Ba2 N14 3.277413 1_554
Ba3 N4 2.740666 1_565
Ba3 N27 2.800808 1_555
Ba3 N19 2.868751 1_565
Ba3 N10 3.105675 1_566
Ba3 N15 3.277413 1_556
Ba4 N3 2.719101 1_565
Ba4 N28 2.852150 1_555
Ba4 N20 2.886132 1_565
Ba4 N13 3.063344 1_565
Ba4 N8 3.216896 1_555
Ba5 N2 2.719101 1_545
Ba5 N29 2.852150 1_555
Ba5 N21 2.886132 1_545
Ba5 N12 3.063344 1_545
Ba5 N9 3.216896 1_555
Ba6 N1 2.717055 1_555
Ba6 N30 2.794842 1_555
Ba6 N22 2.876815 1_555
Ba6 N15 3.078082 1_556
Ba6 N10 3.232394 1_556
Ba7 N0 2.717055 1_555
Ba7 N31 2.794842 1_555
Ba7 N23 2.876815 1_555
Ba7 N14 3.078082 1_554
Ba7 N11 3.232394 1_554
Ba8 N26 2.753416 1_655
Ba8 N7 2.772080 1_555
Ba8 N10 2.877787 1_555
Ba8 N14 2.890175 1_654
Ba8 N22 2.952186 1_554
Ba8 N24 3.079044 1_555
Ba8 N0 3.442434 1_655
Ba9 N27 2.753416 1_555
Ba9 N6 2.772080 1_555
Ba9 N11 2.877787 1_555
Ba9 N15 2.890175 1_556
Ba9 N23 2.952186 1_556
Ba9 N25 3.079044 1_555
Ba9 N1 3.442434 1_555
Ba10 N28 2.716250 1_655
Ba10 N1 2.792418 1_555
Ba10 N8 2.872558 1_655
Ba10 N12 2.907462 1_555
Ba10 N16 2.929680 1_555
Ba10 N30 2.966428 1_555
Ba11 N29 2.716250 1_555
Ba11 N0 2.792418 1_555
Ba11 N9 2.872558 1_555
Ba11 N13 2.907462 1_555
Ba11 N17 2.929680 1_555
Ba11 N31 2.966428 1_555
Ba12 N30 2.701317 1_455
Ba12 N3 2.740583 1_555
Ba12 N10 2.888109 1_456
Ba12 N14 2.893166 1_555
Ba12 N18 2.917233 1_546
Ba12 N28 2.971684 1_545
Ba13 N31 2.701317 1_555
Ba13 N2 2.740583 1_555
Ba13 N11 2.888109 1_554
Ba13 N15 2.893166 1_555
Ba13 N19 2.917233 1_564
Ba13 N29 2.971684 1_565
Mo0 N24 1.862779 1_455
Mo0 N0 1.864180 1_555
Mo0 N8 1.868538 1_555
Mo0 N16 1.875137 1_455
Mo1 N25 1.862779 1_555
Mo1 N1 1.864180 1_555
Mo1 N9 1.868538 1_555
Mo1 N17 1.875137 1_555
Mo2 N2 1.855817 1_545
Mo2 N26 1.865204 1_655
Mo2 N18 1.870803 1_645
Mo2 N10 1.875786 1_555
Mo3 N3 1.855817 1_565
Mo3 N27 1.865204 1_555
Mo3 N19 1.870803 1_565
Mo3 N11 1.875786 1_555
Mo4 N28 1.863812 1_655
Mo4 N4 1.868798 1_565
Mo4 N20 1.870817 1_665
Mo4 N12 1.871188 1_555
Mo5 N29 1.863812 1_555
Mo5 N5 1.868798 1_545
Mo5 N21 1.870817 1_545
Mo5 N13 1.871188 1_555
Mo6 N6 1.862663 1_555
Mo6 N30 1.865899 1_455
Mo6 N14 1.869554 1_555
Mo6 N22 1.870817 1_455
Mo7 N7 1.862663 1_555
Mo7 N31 1.865899 1_555
Mo7 N15 1.869554 1_555
Mo7 N23 1.870817 1_555
N0 Sr0 2.730572 1_555
N1 Sr1 2.730572 1_555
N2 Sr2 2.691420 1_555
N3 Sr3 2.691420 1_555
N4 Sr9 2.651558 1_555
N4 Sr4 2.721837 1_555
N4 Sr1 3.207337 1_545
N5 Sr8 2.651558 1_555
N5 Sr5 2.721837 1_555
N5 Sr0 3.207337 1_565
N6 Sr6 2.715328 1_555
N7 Sr7 2.715328 1_555
N8 Sr5 2.556042 1_555
N8 Sr8 2.757855 1_555
N9 Sr4 2.556042 1_555
N9 Sr9 2.757855 1_555
N10 Sr7 2.566118 1_555
N11 Sr6 2.566118 1_555
N12 Sr1 2.602298 1_555
N12 Sr8 2.780326 1_655
N13 Sr0 2.602298 1_555
N13 Sr9 2.780326 1_555
N14 Sr3 2.578668 1_555
N15 Sr2 2.578668 1_555
N16 Sr4 2.571475 1_555
N16 Sr0 2.707844 1_655
N17 Sr5 2.571475 1_555
N17 Sr1 2.707844 1_555
N18 Sr6 2.565139 1_554
N18 Sr2 2.659015 1_455
N19 Sr7 2.565139 1_556
N19 Sr3 2.659015 1_555
N20 Sr0 2.542650 1_555
N20 Sr4 2.704357 1_455
N20 Sr8 2.834821 1_545
N21 Sr1 2.542650 1_555
N21 Sr5 2.704357 1_555
N21 Sr9 2.834821 1_565
N22 Sr2 2.568376 1_556
N22 Sr6 2.675764 1_655
N23 Sr3 2.568376 1_554
N23 Sr7 2.675764 1_555
N24 Sr2 2.572004 1_555
N24 Sr8 2.607001 1_655
N25 Sr3 2.572004 1_555
N25 Sr9 2.607001 1_555
N26 Sr0 2.580711 1_555
N26 Sr8 2.983455 1_545
N27 Sr1 2.580711 1_555
N27 Sr9 2.983455 1_565
N28 Sr6 2.611706 1_555
N29 Sr7 2.611706 1_555
N30 Sr4 2.614018 1_555
N31 Sr5 2.614018 1_555
