# generated using pymatgen
data_Mg14NbFe
_symmetry_space_group_name_H-M   'P 1'
_cell_length_a   6.26239862
_cell_length_b   6.26239813
_cell_length_c   9.84202819
_cell_angle_alpha   90.00000000
_cell_angle_beta   90.00000000
_cell_angle_gamma   120.00000258
_symmetry_Int_Tables_number   1
_chemical_formula_structural   Mg14NbFe
_chemical_formula_sum   'Mg14 Nb1 Fe1'
_cell_volume   334.26938916
_cell_formula_units_Z   1
loop_
 _symmetry_equiv_pos_site_id
 _symmetry_equiv_pos_as_xyz
  1  'x, y, z'
loop_
 _atom_site_type_symbol
 _atom_site_label
 _atom_site_symmetry_multiplicity
 _atom_site_fract_x
 _atom_site_fract_y
 _atom_site_fract_z
 _atom_site_occupancy
  Mg  Mg0  1  0.16493178  0.83246539  0.12500000  1
  Mg  Mg1  1  0.17412350  0.83706125  0.62500000  1
  Mg  Mg2  1  0.66753461  0.33506822  0.12500000  1
  Mg  Mg3  1  0.66293875  0.32587650  0.62500000  1
  Mg  Mg4  1  0.66753461  0.83246539  0.12500000  1
  Mg  Mg5  1  0.66293875  0.83706125  0.62500000  1
  Mg  Mg6  1  0.32382365  0.17617635  0.36722199  1
  Mg  Mg7  1  0.32382365  0.17617635  0.88277801  1
  Mg  Mg8  1  0.32382365  0.64764830  0.36722199  1
  Mg  Mg9  1  0.32382365  0.64764830  0.88277801  1
  Mg  Mg10  1  0.85235170  0.17617635  0.36722199  1
  Mg  Mg11  1  0.85235170  0.17617635  0.88277801  1
  Mg  Mg12  1  0.83333300  0.66666700  0.38075879  1
  Mg  Mg13  1  0.83333300  0.66666700  0.86924121  1
  Nb  Nb0  1  0.16666700  0.33333300  0.62500000  1
  Fe  Fe0  1  0.16666700  0.33333300  0.12500000  1
loop_
_geom_bond_atom_site_label_1
_geom_bond_atom_site_label_2
_geom_bond_distance
_geom_bond_site_symmetry_2
Mg0 Mg9 3.027307 1_554
Mg0 Mg8 3.027307 1_555
Mg0 Mg6 3.027314 1_565
Mg0 Mg7 3.027314 1_564
Mg0 Mg13 3.093612 1_454
Mg0 Mg12 3.093612 1_455
Mg0 Mg2 3.114899 1_455
Mg0 Mg4 3.114899 1_455
Mg0 Mg2 3.147499 1_565
Mg0 Mg4 3.147499 1_555
Mg1 Mg12 3.032225 1_455
Mg1 Mg13 3.032225 1_455
Mg1 Mg3 3.061156 1_565
Mg1 Mg5 3.061156 1_555
Mg1 Nb0 3.131460 1_555
Mg1 Nb0 3.131460 1_565
Mg1 Mg8 3.136014 1_555
Mg1 Mg9 3.136014 1_555
Mg1 Mg7 3.136020 1_565
Mg1 Mg6 3.136020 1_565
Mg1 Mg3 3.201242 1_455
Mg1 Mg5 3.201243 1_455
Mg2 Mg7 3.027314 1_554
Mg2 Mg6 3.027314 1_555
Mg2 Mg4 3.114899 1_555
Mg2 Mg4 3.147499 1_545
Mg3 Mg5 3.061156 1_545
Mg3 Nb0 3.131460 1_555
Mg3 Nb0 3.131460 1_655
Mg3 Mg6 3.136020 1_555
Mg3 Mg7 3.136020 1_555
Mg3 Mg5 3.201242 1_555
Mg4 Mg8 3.027314 1_555
Mg4 Mg9 3.027314 1_554
Mg5 Nb0 3.131460 1_555
Mg5 Nb0 3.131460 1_665
Mg5 Mg8 3.136020 1_555
Mg5 Mg9 3.136020 1_555
Mg6 Mg8 2.952545 1_555
Mg6 Nb0 3.056547 1_555
Mg6 Mg8 3.309853 1_545
Mg7 Mg9 2.952545 1_555
Mg7 Nb0 3.056547 1_555
Mg7 Mg9 3.309853 1_545
Mg8 Nb0 3.056553 1_555
Mg9 Nb0 3.056553 1_555
Mg10 Mg8 2.952545 1_655
Mg10 Mg6 2.952545 1_655
Mg10 Mg2 3.027308 1_555
Mg10 Mg4 3.027314 1_545
Mg10 Nb0 3.056553 1_655
Mg10 Mg12 3.135729 1_545
Mg10 Mg12 3.135729 1_555
Mg10 Mg3 3.136014 1_555
Mg10 Mg5 3.136020 1_545
Mg10 Mg8 3.309853 1_545
Mg10 Mg6 3.309853 1_555
Mg11 Mg9 2.952545 1_655
Mg11 Mg7 2.952545 1_655
Mg11 Mg2 3.027308 1_556
Mg11 Mg4 3.027314 1_546
Mg11 Nb0 3.056553 1_655
Mg11 Mg13 3.135729 1_545
Mg11 Mg13 3.135729 1_555
Mg11 Mg3 3.136014 1_555
Mg11 Mg5 3.136020 1_545
Mg11 Mg9 3.309853 1_545
Mg11 Mg7 3.309853 1_555
Mg12 Mg5 3.032219 1_555
Mg12 Mg3 3.032225 1_555
Mg12 Mg4 3.093605 1_555
Mg12 Mg2 3.093612 1_555
Mg12 Mg6 3.135729 1_665
Mg12 Mg6 3.135729 1_555
Mg12 Mg8 3.135729 1_555
Mg12 Mg8 3.135729 1_655
Mg13 Mg5 3.032219 1_555
Mg13 Mg3 3.032225 1_555
Mg13 Mg4 3.093605 1_556
Mg13 Mg2 3.093612 1_556
Mg13 Mg7 3.135729 1_665
Mg13 Mg7 3.135729 1_555
Mg13 Mg9 3.135729 1_555
Mg13 Mg9 3.135729 1_655
Fe0 Mg6 2.930710 1_555
Fe0 Mg7 2.930710 1_554
Fe0 Mg8 2.930716 1_555
Fe0 Mg9 2.930716 1_554
Fe0 Mg10 2.930716 1_455
Fe0 Mg11 2.930716 1_454
Fe0 Mg0 3.131213 1_545
Fe0 Mg4 3.131213 1_445
Fe0 Mg0 3.131213 1_555
Fe0 Mg4 3.131213 1_555
Fe0 Mg2 3.131213 1_555
Fe0 Mg2 3.131213 1_455
