# generated using pymatgen
data_LiCr4P7O24
_symmetry_space_group_name_H-M   'P 1'
_cell_length_a   10.17480700
_cell_length_b   10.26224689
_cell_length_c   10.72063205
_cell_angle_alpha   108.34560981
_cell_angle_beta   111.61388876
_cell_angle_gamma   105.04177731
_symmetry_Int_Tables_number   1
_chemical_formula_structural   LiCr4P7O24
_chemical_formula_sum   'Li2 Cr8 P14 O48'
_cell_volume   893.93297560
_cell_formula_units_Z   2
loop_
 _symmetry_equiv_pos_site_id
 _symmetry_equiv_pos_as_xyz
  1  'x, y, z'
loop_
 _atom_site_type_symbol
 _atom_site_label
 _atom_site_symmetry_multiplicity
 _atom_site_fract_x
 _atom_site_fract_y
 _atom_site_fract_z
 _atom_site_occupancy
  Li  Li0  1  0.59454800  0.22369200  0.62910000  1
  Li  Li1  1  0.40545200  0.77630800  0.37090000  1
  Cr  Cr0  1  0.50096000  0.89953900  0.74702300  1
  Cr  Cr1  1  0.00296600  0.38844900  0.07576100  1
  Cr  Cr2  1  0.51108800  0.66346700  0.88576800  1
  Cr  Cr3  1  0.98402300  0.82926300  0.41181900  1
  Cr  Cr4  1  0.01597700  0.17073700  0.58818100  1
  Cr  Cr5  1  0.48891200  0.33653300  0.11423200  1
  Cr  Cr6  1  0.99703400  0.61155100  0.92423900  1
  Cr  Cr7  1  0.49904000  0.10046100  0.25297700  1
  P  P0  1  0.77097000  0.77917300  0.77400900  1
  P  P1  1  0.19189100  0.62726600  0.43339700  1
  P  P2  1  0.19632700  0.93752900  0.25862800  1
  P  P3  1  0.26286500  0.03693400  0.75843900  1
  P  P4  1  0.25220500  0.39245300  0.52284800  1
  P  P5  1  0.73466500  0.17999300  0.11859700  1
  P  P6  1  0.74804800  0.54146400  0.05269500  1
  P  P7  1  0.25195200  0.45853600  0.94730500  1
  P  P8  1  0.26533500  0.82000700  0.88140300  1
  P  P9  1  0.74779500  0.60754700  0.47715200  1
  P  P10  1  0.73713500  0.96306600  0.24156100  1
  P  P11  1  0.80367300  0.06247100  0.74137200  1
  P  P12  1  0.80810900  0.37273400  0.56660300  1
  P  P13  1  0.22903000  0.22082700  0.22599100  1
  O  O0  1  0.86739400  0.21096100  0.87675200  1
  O  O1  1  0.62252800  0.98772900  0.65927400  1
  O  O2  1  0.64197500  0.06527700  0.95466300  1
  O  O3  1  0.11545700  0.25947500  0.12826400  1
  O  O4  1  0.36864100  0.73369500  0.53217700  1
  O  O5  1  0.16657100  0.56935800  0.27228500  1
  O  O6  1  0.65378800  0.56913200  0.92205600  1
  O  O7  1  0.63360400  0.78198300  0.80237300  1
  O  O8  1  0.37503900  0.00876100  0.70067500  1
  O  O9  1  0.15651000  0.48368200  0.46968900  1
  O  O10  1  0.31128700  0.33976500  0.40134500  1
  O  O11  1  0.14000100  0.05663200  0.20451400  1
  O  O12  1  0.14420500  0.92887500  0.37124800  1
  O  O13  1  0.39586000  0.49514800  0.67232400  1
  O  O14  1  0.87418900  0.50202900  0.01154000  1
  O  O15  1  0.08654300  0.69717800  0.46309900  1
  O  O16  1  0.87165000  0.31995800  0.16116700  1
  O  O17  1  0.33851100  0.17502900  0.90610300  1
  O  O18  1  0.18507300  0.89395700  0.78109400  1
  O  O19  1  0.14571100  0.24740600  0.50412700  1
  O  O20  1  0.11954900  0.02620700  0.62700900  1
  O  O21  1  0.37621400  0.77946000  0.81933400  1
  O  O22  1  0.36474800  0.59533000  0.95280300  1
  O  O23  1  0.83544800  0.67782400  0.20761100  1
  O  O24  1  0.16455200  0.32217600  0.79238900  1
  O  O25  1  0.63525200  0.40467000  0.04719700  1
  O  O26  1  0.62378600  0.22054000  0.18066600  1
  O  O27  1  0.88045100  0.97379300  0.37299100  1
  O  O28  1  0.85428900  0.75259400  0.49587300  1
  O  O29  1  0.81492700  0.10604300  0.21890600  1
  O  O30  1  0.66148900  0.82497100  0.09389700  1
  O  O31  1  0.12835000  0.68004200  0.83883300  1
  O  O32  1  0.91345700  0.30282200  0.53690100  1
  O  O33  1  0.12581100  0.49797100  0.98846000  1
  O  O34  1  0.60414000  0.50485200  0.32767600  1
  O  O35  1  0.85579500  0.07112500  0.62875200  1
  O  O36  1  0.85999900  0.94336800  0.79548600  1
  O  O37  1  0.68871300  0.66023500  0.59865500  1
  O  O38  1  0.84349000  0.51631800  0.53031100  1
  O  O39  1  0.62496100  0.99123900  0.29932500  1
  O  O40  1  0.36639600  0.21801700  0.19762700  1
  O  O41  1  0.34621200  0.43086800  0.07794400  1
  O  O42  1  0.83342900  0.43064200  0.72771500  1
  O  O43  1  0.63135900  0.26630500  0.46782300  1
  O  O44  1  0.88454300  0.74052500  0.87173600  1
  O  O45  1  0.35802500  0.93472300  0.04533700  1
  O  O46  1  0.37747200  0.01227100  0.34072600  1
  O  O47  1  0.13260600  0.78903900  0.12324800  1
loop_
_geom_bond_atom_site_label_1
_geom_bond_atom_site_label_2
_geom_bond_distance
_geom_bond_site_symmetry_2
Li0 O43 2.046693 1_555
Li0 O42 2.355848 1_555
Li0 O1 2.613901 1_545
Li1 O4 2.046693 1_555
Li1 O5 2.355848 1_555
Li1 O46 2.613901 1_565
Cr0 O8 1.942096 1_565
Cr0 O2 1.975795 1_565
Cr0 O1 2.011507 1_555
Cr0 O4 2.018126 1_555
Cr0 O21 2.060319 1_555
Cr0 O7 2.081998 1_555
Cr1 O0 1.963104 1_454
Cr1 O16 1.984057 1_455
Cr1 O5 2.001636 1_555
Cr1 O3 2.039449 1_555
Cr1 O14 2.045174 1_455
Cr1 O33 2.120453 1_554
Cr2 O6 1.935773 1_555
Cr2 O22 1.945947 1_555
Cr2 O30 1.976735 1_556
Cr2 O13 2.019568 1_555
Cr2 O21 2.113990 1_555
Cr2 O7 2.133335 1_555
Cr3 O23 1.921982 1_555
Cr3 O12 1.956484 1_655
Cr3 O28 1.989227 1_555
Cr3 O15 2.002050 1_655
Cr3 O27 2.088177 1_555
Cr3 O20 2.140835 1_665
Cr4 O24 1.921982 1_555
Cr4 O35 1.956484 1_455
Cr4 O19 1.989227 1_555
Cr4 O32 2.002050 1_455
Cr4 O20 2.088177 1_555
Cr4 O27 2.140835 1_445
Cr5 O41 1.935773 1_555
Cr5 O25 1.945947 1_555
Cr5 O17 1.976735 1_554
Cr5 O34 2.019568 1_555
Cr5 O26 2.113990 1_555
Cr5 O40 2.133335 1_555
Cr6 O47 1.963104 1_656
Cr6 O31 1.984057 1_655
Cr6 O42 2.001636 1_555
Cr6 O44 2.039449 1_555
Cr6 O33 2.045174 1_655
Cr6 O14 2.120453 1_556
Cr7 O39 1.942096 1_545
Cr7 O45 1.975795 1_545
Cr7 O46 2.011507 1_555
Cr7 O43 2.018126 1_555
Cr7 O26 2.060319 1_555
Cr7 O40 2.081998 1_555
O0 P11 1.500213 1_555
O1 P11 1.551201 1_565
O2 P5 1.504763 1_556
O3 P13 1.482527 1_555
O4 P1 1.548531 1_555
O5 P1 1.532778 1_555
O6 P6 1.537551 1_556
O7 P0 1.541196 1_555
O8 P3 1.532654 1_555
O9 P4 1.596732 1_555
O9 P1 1.625086 1_555
O10 P13 1.609521 1_555
O10 P4 1.628709 1_555
O11 P13 1.588303 1_555
O11 P2 1.650439 1_545
O12 P2 1.503865 1_555
O13 P4 1.492261 1_555
O14 P6 1.606263 1_555
O15 P1 1.507281 1_555
O16 P5 1.514490 1_555
O17 P3 1.493583 1_555
O18 P8 1.608634 1_555
O18 P3 1.612919 1_565
O19 P4 1.498199 1_555
O20 P3 1.558591 1_555
O21 P8 1.584647 1_555
O22 P7 1.534001 1_555
O23 P6 1.519979 1_555
O24 P7 1.519979 1_555
O25 P6 1.534001 1_555
O26 P5 1.584647 1_555
O27 P10 1.558591 1_555
O28 P9 1.498199 1_555
O29 P5 1.608634 1_555
O29 P10 1.612919 1_545
O30 P10 1.493583 1_555
O31 P8 1.514490 1_555
O32 P12 1.507281 1_555
O33 P7 1.606263 1_555
O34 P9 1.492261 1_555
O35 P11 1.503865 1_555
O36 P0 1.588303 1_555
O36 P11 1.650439 1_565
O37 P0 1.609521 1_555
O37 P9 1.628709 1_555
O38 P9 1.596732 1_555
O38 P12 1.625086 1_555
O39 P10 1.532654 1_555
O40 P13 1.541196 1_555
O41 P7 1.537551 1_554
O42 P12 1.532778 1_555
O43 P12 1.548531 1_555
O44 P0 1.482527 1_555
O45 P8 1.504763 1_554
O46 P2 1.551201 1_545
O47 P2 1.500213 1_555
