# generated using pymatgen
data_Mg6ZnCr
_symmetry_space_group_name_H-M   'P 1'
_cell_length_a   4.94931600
_cell_length_b   6.19418900
_cell_length_c   10.68904000
_cell_angle_alpha   90.00000000
_cell_angle_beta   90.00000000
_cell_angle_gamma   90.00000000
_symmetry_Int_Tables_number   1
_chemical_formula_structural   Mg6ZnCr
_chemical_formula_sum   'Mg12 Zn2 Cr2'
_cell_volume   327.69388565
_cell_formula_units_Z   2
loop_
 _symmetry_equiv_pos_site_id
 _symmetry_equiv_pos_as_xyz
  1  'x, y, z'
loop_
 _atom_site_type_symbol
 _atom_site_label
 _atom_site_symmetry_multiplicity
 _atom_site_fract_x
 _atom_site_fract_y
 _atom_site_fract_z
 _atom_site_occupancy
  Mg  Mg0  1  0.00000000  0.74374500  0.91296000  1
  Mg  Mg1  1  0.00000000  0.25625500  0.91296000  1
  Mg  Mg2  1  0.00000000  0.50000000  0.16691600  1
  Mg  Mg3  1  0.50000000  0.75603300  0.08502500  1
  Mg  Mg4  1  0.50000000  0.24396700  0.08502500  1
  Mg  Mg5  1  0.50000000  0.50000000  0.33382700  1
  Mg  Mg6  1  0.00000000  0.24374500  0.41296000  1
  Mg  Mg7  1  0.00000000  0.75625500  0.41296000  1
  Mg  Mg8  1  0.00000000  0.00000000  0.66691600  1
  Mg  Mg9  1  0.50000000  0.25603300  0.58502500  1
  Mg  Mg10  1  0.50000000  0.74396700  0.58502500  1
  Mg  Mg11  1  0.50000000  0.00000000  0.83382700  1
  Zn  Zn0  1  0.00000000  0.50000000  0.67238500  1
  Zn  Zn1  1  0.00000000  0.00000000  0.17238500  1
  Cr  Cr0  1  0.50000000  0.50000000  0.83090200  1
  Cr  Cr1  1  0.50000000  0.00000000  0.33090200  1
loop_
_geom_bond_atom_site_label_1
_geom_bond_atom_site_label_2
_geom_bond_distance
_geom_bond_site_symmetry_2
Mg0 Zn0 2.981979 1_555
Mg0 Mg1 3.019605 1_555
Mg0 Mg11 3.059232 1_565
Mg0 Mg11 3.059232 1_465
Mg0 Mg8 3.071850 1_565
Mg0 Mg3 3.084221 1_556
Mg0 Mg3 3.084221 1_456
Mg0 Mg2 3.106165 1_556
Mg0 Mg1 3.174584 1_565
Mg0 Zn1 3.195160 1_566
Mg1 Zn0 2.981979 1_555
Mg1 Mg11 3.059232 1_455
Mg1 Mg11 3.059232 1_555
Mg1 Mg8 3.071850 1_555
Mg1 Mg4 3.084221 1_456
Mg1 Mg4 3.084221 1_556
Mg1 Mg2 3.106165 1_556
Mg1 Zn1 3.195160 1_556
Mg2 Mg5 3.050739 1_455
Mg2 Mg5 3.050739 1_555
Mg2 Mg3 3.066803 1_455
Mg2 Mg4 3.066803 1_455
Mg2 Mg3 3.066803 1_555
Mg2 Mg4 3.066803 1_555
Mg2 Mg7 3.071850 1_555
Mg2 Mg6 3.071850 1_555
Mg2 Zn1 3.097646 1_555
Mg2 Zn1 3.097646 1_565
Mg3 Mg4 3.022355 1_565
Mg3 Zn1 3.046237 1_565
Mg3 Zn1 3.046237 1_665
Mg3 Mg5 3.096422 1_555
Mg3 Mg4 3.171834 1_555
Mg4 Zn1 3.046237 1_555
Mg4 Zn1 3.046237 1_655
Mg4 Mg5 3.096422 1_555
Mg5 Mg6 3.059232 1_655
Mg5 Mg7 3.059232 1_555
Mg5 Mg7 3.059232 1_655
Mg5 Mg6 3.059232 1_555
Mg5 Mg9 3.081109 1_555
Mg6 Zn1 2.981979 1_555
Mg6 Mg7 3.019605 1_545
Mg6 Mg9 3.084221 1_455
Mg6 Mg9 3.084221 1_555
Mg6 Mg8 3.106165 1_555
Mg6 Mg7 3.174584 1_555
Mg6 Zn0 3.195160 1_555
Mg7 Zn1 2.981979 1_565
Mg7 Mg8 3.106165 1_565
Mg7 Zn0 3.195160 1_555
Mg8 Mg9 3.066803 1_455
Mg8 Mg9 3.066803 1_555
Mg8 Zn0 3.097646 1_555
Mg8 Zn0 3.097646 1_545
Mg9 Zn0 3.046237 1_655
Mg9 Zn0 3.046237 1_555
Mg10 Mg9 3.022355 1_555
Mg10 Zn0 3.046237 1_655
Mg10 Zn0 3.046237 1_555
Mg10 Mg8 3.066803 1_665
Mg10 Mg8 3.066803 1_565
Mg10 Mg5 3.081109 1_555
Mg10 Mg7 3.084221 1_655
Mg10 Mg7 3.084221 1_555
Mg10 Mg11 3.096422 1_565
Mg10 Mg9 3.171834 1_565
Mg11 Mg8 3.050739 1_655
Mg11 Mg8 3.050739 1_555
Mg11 Mg4 3.081109 1_556
Mg11 Mg3 3.081109 1_546
Mg11 Mg9 3.096422 1_555
Cr0 Zn0 2.999151 1_655
Cr0 Zn0 2.999151 1_555
Cr0 Mg0 3.028659 1_655
Cr0 Mg1 3.028659 1_655
Cr0 Mg1 3.028659 1_555
Cr0 Mg0 3.028659 1_555
Cr0 Mg9 3.031672 1_555
Cr0 Mg10 3.031672 1_555
Cr0 Mg11 3.097252 1_565
Cr0 Mg11 3.097252 1_555
Cr0 Mg4 3.145407 1_556
Cr0 Mg3 3.145407 1_556
Cr1 Zn1 2.999151 1_555
Cr1 Zn1 2.999151 1_655
Cr1 Mg7 3.028659 1_645
Cr1 Mg7 3.028659 1_545
Cr1 Mg6 3.028659 1_655
Cr1 Mg6 3.028659 1_555
Cr1 Mg4 3.031672 1_555
Cr1 Mg3 3.031672 1_545
Cr1 Mg5 3.097252 1_555
Cr1 Mg5 3.097252 1_545
Cr1 Mg10 3.145407 1_545
Cr1 Mg9 3.145407 1_555
