# generated using pymatgen
data_Li13(Si5Pd7)2
_symmetry_space_group_name_H-M   'P 1'
_cell_length_a   4.35217745
_cell_length_b   12.75725494
_cell_length_c   18.49562532
_cell_angle_alpha   90.00000000
_cell_angle_beta   90.00000000
_cell_angle_gamma   90.00000000
_symmetry_Int_Tables_number   1
_chemical_formula_structural   Li13(Si5Pd7)2
_chemical_formula_sum   'Li26 Si20 Pd28'
_cell_volume   1026.91109929
_cell_formula_units_Z   2
loop_
 _symmetry_equiv_pos_site_id
 _symmetry_equiv_pos_as_xyz
  1  'x, y, z'
loop_
 _atom_site_type_symbol
 _atom_site_label
 _atom_site_symmetry_multiplicity
 _atom_site_fract_x
 _atom_site_fract_y
 _atom_site_fract_z
 _atom_site_occupancy
  Li  Li0  1  -0.00000000  0.02074752  0.27366277  1
  Li  Li1  1  -0.00000000  0.97925248  0.72633723  1
  Li  Li2  1  0.50000000  0.47925248  0.77366277  1
  Li  Li3  1  0.50000000  0.52074752  0.22633723  1
  Li  Li4  1  -0.00000000  0.21652566  0.22381110  1
  Li  Li5  1  -0.00000000  0.78347434  0.77618890  1
  Li  Li6  1  0.50000000  0.28347434  0.72381110  1
  Li  Li7  1  0.50000000  0.71652566  0.27618890  1
  Li  Li8  1  0.00000000  0.99242083  0.13782855  1
  Li  Li9  1  0.00000000  0.00757917  0.86217145  1
  Li  Li10  1  0.50000000  0.50757917  0.63782855  1
  Li  Li11  1  0.50000000  0.49242083  0.36217145  1
  Li  Li12  1  -0.00000000  0.20447767  0.64659361  1
  Li  Li13  1  0.00000000  0.79552233  0.35340639  1
  Li  Li14  1  0.50000000  0.29552233  0.14659361  1
  Li  Li15  1  0.50000000  0.70447767  0.85340639  1
  Li  Li16  1  0.00000000  0.00882316  0.58421492  1
  Li  Li17  1  0.00000000  0.99117684  0.41578508  1
  Li  Li18  1  0.50000000  0.49117684  0.08421492  1
  Li  Li19  1  0.50000000  0.50882316  0.91578508  1
  Li  Li20  1  -0.00000000  0.00000000  0.00000000  1
  Li  Li21  1  0.50000000  0.50000000  0.50000000  1
  Li  Li22  1  -0.00000000  0.78847604  0.06316664  1
  Li  Li23  1  -0.00000000  0.21152396  0.93683336  1
  Li  Li24  1  0.50000000  0.71152396  0.56316664  1
  Li  Li25  1  0.50000000  0.28847604  0.43683336  1
  Si  Si0  1  -0.00000000  0.19499738  0.50252692  1
  Si  Si1  1  -0.00000000  0.80500262  0.49747308  1
  Si  Si2  1  0.50000000  0.30500262  0.00252692  1
  Si  Si3  1  0.50000000  0.69499738  0.99747308  1
  Si  Si4  1  -0.00000000  0.38406385  0.30935823  1
  Si  Si5  1  0.00000000  0.61593615  0.69064177  1
  Si  Si6  1  0.50000000  0.11593615  0.80935823  1
  Si  Si7  1  0.50000000  0.88406385  0.19064177  1
  Si  Si8  1  0.00000000  0.38326537  0.56439100  1
  Si  Si9  1  0.00000000  0.61673463  0.43560900  1
  Si  Si10  1  0.50000000  0.11673463  0.06439100  1
  Si  Si11  1  0.50000000  0.88326537  0.93560900  1
  Si  Si12  1  0.00000000  0.37351818  0.06482947  1
  Si  Si13  1  -0.00000000  0.62648182  0.93517053  1
  Si  Si14  1  0.50000000  0.12648182  0.56482947  1
  Si  Si15  1  0.50000000  0.87351818  0.43517053  1
  Si  Si16  1  0.00000000  0.63279564  0.18265190  1
  Si  Si17  1  0.00000000  0.36720436  0.81734810  1
  Si  Si18  1  0.50000000  0.86720436  0.68265190  1
  Si  Si19  1  0.50000000  0.13279564  0.31734810  1
  Pd  Pd0  1  -0.00000000  0.20836262  0.37157767  1
  Pd  Pd1  1  0.00000000  0.79163738  0.62842233  1
  Pd  Pd2  1  0.50000000  0.29163738  0.87157767  1
  Pd  Pd3  1  0.50000000  0.70836262  0.12842233  1
  Pd  Pd4  1  -0.00000000  0.42773623  0.43753619  1
  Pd  Pd5  1  0.00000000  0.57226377  0.56246381  1
  Pd  Pd6  1  0.50000000  0.07226377  0.93753619  1
  Pd  Pd7  1  0.50000000  0.92773623  0.06246381  1
  Pd  Pd8  1  -0.00000000  0.57644914  0.30812656  1
  Pd  Pd9  1  -0.00000000  0.42355086  0.69187344  1
  Pd  Pd10  1  0.50000000  0.92355086  0.80812656  1
  Pd  Pd11  1  0.50000000  0.07644914  0.19187344  1
  Pd  Pd12  1  -0.00000000  0.43837725  0.18441060  1
  Pd  Pd13  1  0.00000000  0.56162275  0.81558940  1
  Pd  Pd14  1  0.50000000  0.06162275  0.68441060  1
  Pd  Pd15  1  0.50000000  0.93837725  0.31558940  1
  Pd  Pd16  1  -0.00000000  0.18745624  0.08454339  1
  Pd  Pd17  1  0.00000000  0.81254376  0.91545661  1
  Pd  Pd18  1  0.50000000  0.31254376  0.58454339  1
  Pd  Pd19  1  0.50000000  0.68745624  0.41545661  1
  Pd  Pd20  1  0.00000000  0.57257829  0.05953431  1
  Pd  Pd21  1  0.00000000  0.42742171  0.94046569  1
  Pd  Pd22  1  0.50000000  0.92742171  0.55953431  1
  Pd  Pd23  1  0.50000000  0.07257829  0.44046569  1
  Pd  Pd24  1  -0.00000000  0.18763183  0.78825605  1
  Pd  Pd25  1  -0.00000000  0.81236817  0.21174395  1
  Pd  Pd26  1  0.50000000  0.31236817  0.28825605  1
  Pd  Pd27  1  0.50000000  0.68763183  0.71174395  1
loop_
_geom_bond_atom_site_label_1
_geom_bond_atom_site_label_2
_geom_bond_distance
_geom_bond_site_symmetry_2
Li0 Pd15 2.537897 1_445
Li0 Pd15 2.537897 1_545
Li0 Li8 2.538195 1_545
Li0 Li17 2.655572 1_545
Li0 Li4 2.662352 1_555
Li0 Si19 2.726072 1_555
Li0 Si19 2.726072 1_455
Li0 Pd11 2.743850 1_455
Li0 Pd11 2.743850 1_555
Li0 Pd25 2.894540 1_545
Li0 Pd0 3.001388 1_555
Li1 Pd14 2.537897 1_565
Li1 Pd14 2.537897 1_465
Li1 Li9 2.538195 1_565
Li1 Li16 2.655572 1_565
Li1 Li5 2.662352 1_555
Li1 Si18 2.726072 1_455
Li1 Si18 2.726072 1_555
Li1 Pd10 2.743850 1_555
Li1 Pd10 2.743850 1_455
Li1 Pd24 2.894540 1_565
Li1 Pd1 3.001388 1_555
Li2 Pd13 2.537897 1_655
Li2 Pd13 2.537897 1_555
Li2 Li6 2.662352 1_555
Li2 Si17 2.726072 1_555
Li2 Si17 2.726072 1_655
Li2 Pd9 2.743850 1_655
Li2 Pd9 2.743850 1_555
Li2 Pd27 2.894540 1_555
Li2 Pd2 3.001388 1_555
Li3 Pd12 2.537897 1_555
Li3 Pd12 2.537897 1_655
Li3 Li7 2.662352 1_555
Li3 Si16 2.726072 1_555
Li3 Si16 2.726072 1_655
Li3 Pd8 2.743850 1_555
Li3 Pd8 2.743850 1_655
Li3 Pd26 2.894540 1_555
Li3 Pd3 3.001388 1_555
Li4 Pd16 2.602402 1_555
Li4 Si4 2.659262 1_555
Li4 Pd0 2.735018 1_555
Li4 Pd26 2.766057 1_555
Li4 Pd26 2.766057 1_455
Li4 Pd11 2.877088 1_455
Li4 Pd11 2.877088 1_555
Li4 Pd12 2.922531 1_555
Li4 Si19 2.978141 1_555
Li4 Si19 2.978141 1_455
Li5 Pd17 2.602402 1_555
Li5 Si5 2.659262 1_555
Li5 Pd1 2.735018 1_555
Li5 Pd27 2.766057 1_555
Li5 Pd27 2.766057 1_455
Li5 Pd10 2.877088 1_455
Li5 Pd10 2.877088 1_555
Li5 Pd13 2.922531 1_555
Li5 Si18 2.978141 1_455
Li5 Si18 2.978141 1_555
Li6 Pd18 2.602402 1_555
Li6 Si6 2.659262 1_555
Li6 Pd2 2.735018 1_555
Li6 Pd24 2.766057 1_555
Li6 Pd24 2.766057 1_655
Li6 Pd9 2.877088 1_555
Li6 Pd9 2.877088 1_655
Li6 Pd14 2.922531 1_555
Li6 Si17 2.978141 1_655
Li6 Si17 2.978141 1_555
Li7 Pd19 2.602402 1_555
Li7 Si7 2.659262 1_555
Li7 Pd3 2.735018 1_555
Li7 Pd25 2.766057 1_555
Li7 Pd25 2.766057 1_655
Li7 Pd8 2.877088 1_555
Li7 Pd8 2.877088 1_655
Li7 Pd15 2.922531 1_555
Li7 Si16 2.978141 1_655
Li7 Si16 2.978141 1_555
Li8 Pd11 2.623675 1_465
Li8 Pd11 2.623675 1_565
Li8 Pd25 2.673032 1_555
Li8 Pd16 2.676195 1_565
Li8 Pd7 2.712807 1_455
Li8 Pd7 2.712807 1_555
Li8 Si7 2.756879 1_555
Li8 Si7 2.756879 1_455
Li8 Si10 3.015851 1_465
Li8 Si10 3.015851 1_565
Li9 Pd10 2.623675 1_445
Li9 Pd10 2.623675 1_545
Li9 Pd24 2.673032 1_555
Li9 Pd17 2.676195 1_545
Li9 Pd6 2.712807 1_455
Li9 Pd6 2.712807 1_555
Li9 Si6 2.756879 1_555
Li9 Si6 2.756879 1_455
Li9 Si11 3.015851 1_445
Li9 Si11 3.015851 1_545
Li10 Li2 2.538195 1_555
Li10 Li21 2.551058 1_555
Li10 Pd9 2.623675 1_555
Li10 Pd9 2.623675 1_655
Li10 Pd27 2.673032 1_555
Li10 Pd18 2.676195 1_555
Li10 Pd5 2.712807 1_555
Li10 Pd5 2.712807 1_655
Li10 Si5 2.756879 1_555
Li10 Si5 2.756879 1_655
Li10 Si8 3.015851 1_555
Li10 Si8 3.015851 1_655
Li11 Li3 2.538195 1_555
Li11 Li21 2.551058 1_555
Li11 Pd8 2.623675 1_555
Li11 Pd8 2.623675 1_655
Li11 Pd26 2.673032 1_555
Li11 Pd19 2.676195 1_555
Li11 Pd4 2.712807 1_555
Li11 Pd4 2.712807 1_655
Li11 Si4 2.756879 1_555
Li11 Si4 2.756879 1_655
Li11 Si9 3.015851 1_555
Li11 Si9 3.015851 1_655
Li12 Pd24 2.628934 1_555
Li12 Si0 2.667347 1_555
Li12 Si8 2.741134 1_555
Li12 Li6 2.791182 1_555
Li12 Li6 2.791182 1_455
Li12 Pd18 2.820123 1_555
Li12 Pd18 2.820123 1_455
Li12 Si14 2.830618 1_455
Li12 Si14 2.830618 1_555
Li12 Pd9 2.917554 1_555
Li12 Pd14 2.923331 1_455
Li12 Pd14 2.923331 1_555
Li13 Pd25 2.628934 1_555
Li13 Si1 2.667347 1_555
Li13 Si9 2.741134 1_555
Li13 Li7 2.791182 1_555
Li13 Li7 2.791182 1_455
Li13 Pd19 2.820123 1_455
Li13 Pd19 2.820123 1_555
Li13 Si15 2.830618 1_455
Li13 Si15 2.830618 1_555
Li13 Pd8 2.917554 1_555
Li13 Pd15 2.923331 1_555
Li13 Pd15 2.923331 1_455
Li14 Pd26 2.628934 1_555
Li14 Si2 2.667347 1_555
Li14 Si10 2.741134 1_555
Li14 Li4 2.791182 1_555
Li14 Li4 2.791182 1_655
Li14 Pd16 2.820123 1_655
Li14 Pd16 2.820123 1_555
Li14 Si12 2.830618 1_655
Li14 Si12 2.830618 1_555
Li14 Pd11 2.917554 1_555
Li14 Pd12 2.923331 1_555
Li14 Pd12 2.923331 1_655
Li15 Pd27 2.628934 1_555
Li15 Si3 2.667347 1_555
Li15 Si11 2.741134 1_555
Li15 Li5 2.791182 1_555
Li15 Li5 2.791182 1_655
Li15 Pd17 2.820123 1_555
Li15 Pd17 2.820123 1_655
Li15 Si13 2.830618 1_655
Li15 Si13 2.830618 1_555
Li15 Pd10 2.917554 1_555
Li15 Pd13 2.923331 1_655
Li15 Pd13 2.923331 1_555
Li16 Pd22 2.454004 1_445
Li16 Pd22 2.454004 1_545
Li16 Si14 2.667756 1_555
Li16 Si14 2.667756 1_455
Li16 Si0 2.814906 1_555
Li16 Pd1 2.888821 1_545
Li16 Pd14 2.936554 1_555
Li16 Pd14 2.936554 1_455
Li17 Pd23 2.454004 1_465
Li17 Pd23 2.454004 1_565
Li17 Si15 2.667756 1_455
Li17 Si15 2.667756 1_555
Li17 Si1 2.814906 1_555
Li17 Pd0 2.888821 1_565
Li17 Pd15 2.936554 1_455
Li17 Pd15 2.936554 1_555
Li18 Pd20 2.454004 1_555
Li18 Pd20 2.454004 1_655
Li18 Li3 2.655572 1_555
Li18 Si12 2.667756 1_555
Li18 Si12 2.667756 1_655
Li18 Si2 2.814906 1_555
Li18 Pd3 2.888821 1_555
Li18 Pd12 2.936554 1_555
Li18 Pd12 2.936554 1_655
Li19 Pd21 2.454004 1_555
Li19 Pd21 2.454004 1_655
Li19 Li2 2.655572 1_555
Li19 Si13 2.667756 1_655
Li19 Si13 2.667756 1_555
Li19 Si3 2.814906 1_555
Li19 Pd2 2.888821 1_555
Li19 Pd13 2.936554 1_655
Li19 Pd13 2.936554 1_555
Li20 Li8 2.551058 1_545
Li20 Li9 2.551058 1_554
Li20 Pd7 2.630584 1_445
Li20 Pd7 2.630584 1_545
Li20 Pd6 2.630584 1_554
Li20 Pd6 2.630584 1_454
Li20 Pd16 2.857276 1_555
Li20 Pd17 2.857276 1_544
Li20 Si11 2.893352 1_544
Li20 Si11 2.893352 1_444
Li20 Si10 2.893352 1_455
Li20 Si10 2.893352 1_555
Li20 Li22 2.940519 1_545
Li20 Li23 2.940519 1_554
Li21 Pd5 2.630584 1_555
Li21 Pd5 2.630584 1_655
Li21 Pd4 2.630584 1_655
Li21 Pd4 2.630584 1_555
Li21 Pd18 2.857276 1_555
Li21 Pd19 2.857276 1_555
Li21 Si9 2.893352 1_555
Li21 Si9 2.893352 1_655
Li21 Si8 2.893352 1_555
Li21 Si8 2.893352 1_655
Li21 Li24 2.940519 1_555
Li21 Li25 2.940519 1_555
Li22 Pd3 2.690096 1_455
Li22 Pd3 2.690096 1_555
Li22 Pd17 2.749189 1_554
Li22 Pd20 2.755082 1_555
Li22 Si3 2.762937 1_454
Li22 Si3 2.762937 1_554
Li22 Pd25 2.764882 1_555
Li22 Pd7 2.809228 1_555
Li22 Pd7 2.809228 1_455
Li22 Si16 2.971248 1_555
Li23 Pd2 2.690096 1_455
Li23 Pd2 2.690096 1_555
Li23 Pd16 2.749189 1_556
Li23 Pd21 2.755082 1_555
Li23 Si2 2.762937 1_556
Li23 Si2 2.762937 1_456
Li23 Pd24 2.764882 1_555
Li23 Pd6 2.809228 1_455
Li23 Pd6 2.809228 1_555
Li23 Si17 2.971248 1_555
Li24 Pd1 2.690096 1_555
Li24 Pd1 2.690096 1_655
Li24 Pd19 2.749189 1_555
Li24 Pd22 2.755082 1_555
Li24 Si1 2.762937 1_655
Li24 Si1 2.762937 1_555
Li24 Pd27 2.764882 1_555
Li24 Pd5 2.809228 1_555
Li24 Pd5 2.809228 1_655
Li24 Si18 2.971248 1_555
Li25 Pd0 2.690096 1_555
Li25 Pd0 2.690096 1_655
Li25 Pd18 2.749189 1_555
Li25 Pd23 2.755082 1_555
Li25 Si0 2.762937 1_555
Li25 Si0 2.762937 1_655
Li25 Pd26 2.764882 1_555
Li25 Pd4 2.809228 1_555
Li25 Pd4 2.809228 1_655
Li25 Si19 2.971248 1_555
Si0 Si14 2.612894 1_555
Si0 Si14 2.612894 1_455
Si0 Si8 2.660411 1_555
Si1 Si15 2.612894 1_555
Si1 Si15 2.612894 1_455
Si1 Si9 2.660411 1_555
Si10 Si2 2.660411 1_555
Si11 Si3 2.660411 1_555
Si12 Si2 2.612894 1_555
Si12 Si2 2.612894 1_455
Si13 Si3 2.612894 1_555
Si13 Si3 2.612894 1_455
Pd0 Si0 2.427982 1_555
Pd0 Si4 2.519619 1_555
Pd0 Si19 2.582777 1_555
Pd0 Si19 2.582777 1_455
Pd1 Si1 2.427982 1_555
Pd1 Si5 2.519619 1_555
Pd1 Si18 2.582777 1_455
Pd1 Si18 2.582777 1_555
Pd2 Si2 2.427982 1_556
Pd2 Si6 2.519619 1_555
Pd2 Si17 2.582777 1_555
Pd2 Si17 2.582777 1_655
Pd3 Si3 2.427982 1_554
Pd3 Si7 2.519619 1_555
Pd3 Si16 2.582777 1_555
Pd3 Si16 2.582777 1_655
Pd4 Si9 2.411364 1_555
Pd4 Si8 2.413875 1_555
Pd4 Si4 2.435318 1_555
Pd5 Si8 2.411364 1_555
Pd5 Si9 2.413875 1_555
Pd5 Si5 2.435318 1_555
Pd6 Si11 2.411364 1_545
Pd6 Si10 2.413875 1_556
Pd6 Si6 2.435318 1_555
Pd7 Si10 2.411364 1_565
Pd7 Si11 2.413875 1_554
Pd7 Si7 2.435318 1_555
Pd8 Si9 2.413227 1_555
Pd8 Si16 2.429508 1_555
Pd8 Si4 2.454414 1_555
Pd9 Si8 2.413227 1_555
Pd9 Si17 2.429508 1_555
Pd9 Si5 2.454414 1_555
Pd10 Si11 2.413227 1_555
Pd10 Si18 2.429508 1_555
Pd10 Si6 2.454414 1_565
Pd11 Si10 2.413227 1_555
Pd11 Si19 2.429508 1_555
Pd11 Si7 2.454414 1_545
Pd12 Si12 2.361434 1_555
Pd12 Si4 2.412622 1_555
Pd12 Si16 2.480458 1_555
Pd13 Si13 2.361434 1_555
Pd13 Si5 2.412622 1_555
Pd13 Si17 2.480458 1_555
Pd14 Si14 2.361434 1_555
Pd14 Si6 2.412622 1_555
Pd14 Si18 2.480458 1_545
Pd15 Si15 2.361434 1_555
Pd15 Si7 2.412622 1_555
Pd15 Si19 2.480458 1_565
Pd16 Si10 2.385012 1_455
Pd16 Si10 2.385012 1_555
Pd16 Si12 2.401482 1_555
Pd17 Si11 2.385012 1_455
Pd17 Si11 2.385012 1_555
Pd17 Si13 2.401482 1_555
Pd18 Si8 2.385012 1_555
Pd18 Si8 2.385012 1_655
Pd18 Si14 2.401482 1_555
Pd19 Si9 2.385012 1_555
Pd19 Si9 2.385012 1_655
Pd19 Si15 2.401482 1_555
Pd20 Si13 2.400778 1_554
Pd20 Si16 2.403226 1_555
Pd20 Si12 2.541348 1_555
Pd21 Si12 2.400778 1_556
Pd21 Si17 2.403226 1_555
Pd21 Si13 2.541348 1_555
Pd22 Si15 2.400778 1_555
Pd22 Si18 2.403226 1_555
Pd22 Si14 2.541348 1_565
Pd23 Si14 2.400778 1_555
Pd23 Si19 2.403226 1_555
Pd23 Si15 2.541348 1_545
Pd24 Si17 2.353196 1_555
Pd24 Si6 2.392543 1_555
Pd24 Si6 2.392543 1_455
Pd25 Si16 2.353196 1_555
Pd25 Si7 2.392543 1_555
Pd25 Si7 2.392543 1_455
Pd26 Si19 2.353196 1_555
Pd26 Si4 2.392543 1_655
Pd26 Si4 2.392543 1_555
Pd27 Si18 2.353196 1_555
Pd27 Si5 2.392543 1_655
Pd27 Si5 2.392543 1_555
