# generated using pymatgen
data_ZrO2F5
_symmetry_space_group_name_H-M   'P 1'
_cell_length_a   5.90487631
_cell_length_b   5.82237382
_cell_length_c   7.15653800
_cell_angle_alpha   90.00000000
_cell_angle_beta   90.00000000
_cell_angle_gamma   108.01285516
_symmetry_Int_Tables_number   1
_chemical_formula_structural   ZrO2F5
_chemical_formula_sum   'Zr2 O4 F10'
_cell_volume   233.98527391
_cell_formula_units_Z   2
loop_
 _symmetry_equiv_pos_site_id
 _symmetry_equiv_pos_as_xyz
  1  'x, y, z'
loop_
 _atom_site_type_symbol
 _atom_site_label
 _atom_site_symmetry_multiplicity
 _atom_site_fract_x
 _atom_site_fract_y
 _atom_site_fract_z
 _atom_site_occupancy
  Zr  Zr0  1  0.19440300  0.80725500  0.00000000  1
  Zr  Zr1  1  0.80559700  0.19274500  0.00000000  1
  O  O0  1  0.50000000  0.50000000  0.58254900  1
  O  O1  1  0.50000000  0.50000000  0.41745100  1
  O  O2  1  0.01973100  0.90678200  0.50000000  1
  O  O3  1  0.98026900  0.09321800  0.50000000  1
  F  F0  1  0.25236900  0.74165100  0.72037000  1
  F  F1  1  0.74763100  0.25834900  0.72037000  1
  F  F2  1  0.74763100  0.25834900  0.27963000  1
  F  F3  1  0.25236900  0.74165100  0.27963000  1
  F  F4  1  0.00000000  0.00000000  0.83615200  1
  F  F5  1  0.00000000  0.00000000  0.16384800  1
  F  F6  1  0.83451200  0.57041500  0.00000000  1
  F  F7  1  0.16548800  0.42958500  0.00000000  1
  F  F8  1  0.56538300  0.82912200  0.00000000  1
  F  F9  1  0.43461700  0.17087800  0.00000000  1
loop_
_geom_bond_atom_site_label_1
_geom_bond_atom_site_label_2
_geom_bond_distance
_geom_bond_site_symmetry_2
O0 O1 1.181530 1_555
O2 O3 1.178576 1_465
F0 Zr0 2.085342 1_556
F1 Zr1 2.085342 1_556
F2 Zr1 2.085342 1_555
F3 Zr0 2.085342 1_555
F4 Zr0 2.179179 1_546
F4 Zr1 2.179179 1_456
F5 Zr0 2.179179 1_545
F5 Zr1 2.179179 1_455
F6 Zr0 2.145992 1_655
F6 Zr1 2.152272 1_555
F7 Zr1 2.145992 1_455
F7 Zr0 2.152272 1_555
F8 Zr1 2.153373 1_565
F8 Zr0 2.154625 1_555
F9 Zr0 2.153373 1_545
F9 Zr1 2.154625 1_555
