# generated using pymatgen
data_Ti21Mn25
_symmetry_space_group_name_H-M   'P 1'
_cell_length_a   13.70243707
_cell_length_b   13.70243707
_cell_length_c   13.70243744
_cell_angle_alpha   116.39083140
_cell_angle_beta   116.39083140
_cell_angle_gamma   116.39082534
_symmetry_Int_Tables_number   1
_chemical_formula_structural   Ti21Mn25
_chemical_formula_sum   'Ti42 Mn50'
_cell_volume   1238.23216790
_cell_formula_units_Z   2
loop_
 _symmetry_equiv_pos_site_id
 _symmetry_equiv_pos_as_xyz
  1  'x, y, z'
loop_
 _atom_site_type_symbol
 _atom_site_label
 _atom_site_symmetry_multiplicity
 _atom_site_fract_x
 _atom_site_fract_y
 _atom_site_fract_z
 _atom_site_occupancy
  Ti  Ti0  1  0.55451000  0.94549000  0.25000000  1
  Ti  Ti1  1  0.25000000  0.55451000  0.94549000  1
  Ti  Ti2  1  0.94549000  0.25000000  0.55451000  1
  Ti  Ti3  1  0.75000000  0.44549000  0.05451000  1
  Ti  Ti4  1  0.05451000  0.75000000  0.44549000  1
  Ti  Ti5  1  0.44549000  0.05451000  0.75000000  1
  Ti  Ti6  1  0.45074400  0.22610400  0.68439200  1
  Ti  Ti7  1  0.68439200  0.45074400  0.22610400  1
  Ti  Ti8  1  0.22610400  0.68439200  0.45074400  1
  Ti  Ti9  1  0.18439200  0.72610400  0.95074400  1
  Ti  Ti10  1  0.95074400  0.18439200  0.72610400  1
  Ti  Ti11  1  0.72610400  0.95074400  0.18439200  1
  Ti  Ti12  1  0.54925600  0.77389600  0.31560800  1
  Ti  Ti13  1  0.31560800  0.54925600  0.77389600  1
  Ti  Ti14  1  0.77389600  0.31560800  0.54925600  1
  Ti  Ti15  1  0.81560800  0.27389600  0.04925600  1
  Ti  Ti16  1  0.04925600  0.81560800  0.27389600  1
  Ti  Ti17  1  0.27389600  0.04925600  0.81560800  1
  Ti  Ti18  1  0.31911000  0.43408600  0.54878700  1
  Ti  Ti19  1  0.54878700  0.31911000  0.43408600  1
  Ti  Ti20  1  0.43408600  0.54878700  0.31911000  1
  Ti  Ti21  1  0.04878700  0.93408600  0.81911000  1
  Ti  Ti22  1  0.81911000  0.04878700  0.93408600  1
  Ti  Ti23  1  0.93408600  0.81911000  0.04878700  1
  Ti  Ti24  1  0.68089000  0.56591400  0.45121300  1
  Ti  Ti25  1  0.45121300  0.68089000  0.56591400  1
  Ti  Ti26  1  0.56591400  0.45121300  0.68089000  1
  Ti  Ti27  1  0.95121300  0.06591400  0.18089000  1
  Ti  Ti28  1  0.18089000  0.95121300  0.06591400  1
  Ti  Ti29  1  0.06591400  0.18089000  0.95121300  1
  Ti  Ti30  1  0.93881800  0.45703800  0.36197100  1
  Ti  Ti31  1  0.36197100  0.93881800  0.45703800  1
  Ti  Ti32  1  0.45703800  0.36197100  0.93881800  1
  Ti  Ti33  1  0.86197100  0.95703800  0.43881800  1
  Ti  Ti34  1  0.43881800  0.86197100  0.95703800  1
  Ti  Ti35  1  0.95703800  0.43881800  0.86197100  1
  Ti  Ti36  1  0.06118200  0.54296200  0.63802900  1
  Ti  Ti37  1  0.63802900  0.06118200  0.54296200  1
  Ti  Ti38  1  0.54296200  0.63802900  0.06118200  1
  Ti  Ti39  1  0.13802900  0.04296200  0.56118200  1
  Ti  Ti40  1  0.56118200  0.13802900  0.04296200  1
  Ti  Ti41  1  0.04296200  0.56118200  0.13802900  1
  Mn  Mn0  1  0.50000000  0.50000000  0.50000000  1
  Mn  Mn1  1  0.00000000  0.00000000  0.00000000  1
  Mn  Mn2  1  0.18865500  0.31134500  0.25000000  1
  Mn  Mn3  1  0.25000000  0.18865500  0.31134500  1
  Mn  Mn4  1  0.31134500  0.25000000  0.18865500  1
  Mn  Mn5  1  0.75000000  0.81134500  0.68865500  1
  Mn  Mn6  1  0.68865500  0.75000000  0.81134500  1
  Mn  Mn7  1  0.81134500  0.68865500  0.75000000  1
  Mn  Mn8  1  0.80567600  0.69432400  0.25000000  1
  Mn  Mn9  1  0.25000000  0.80567600  0.69432400  1
  Mn  Mn10  1  0.69432400  0.25000000  0.80567600  1
  Mn  Mn11  1  0.75000000  0.19432400  0.30567600  1
  Mn  Mn12  1  0.30567600  0.75000000  0.19432400  1
  Mn  Mn13  1  0.19432400  0.30567600  0.75000000  1
  Mn  Mn14  1  0.19317000  0.13240400  0.42852900  1
  Mn  Mn15  1  0.42852900  0.19317000  0.13240400  1
  Mn  Mn16  1  0.13240400  0.42852900  0.19317000  1
  Mn  Mn17  1  0.92852900  0.63240400  0.69317000  1
  Mn  Mn18  1  0.69317000  0.92852900  0.63240400  1
  Mn  Mn19  1  0.63240400  0.69317000  0.92852900  1
  Mn  Mn20  1  0.80683000  0.86759600  0.57147100  1
  Mn  Mn21  1  0.57147100  0.80683000  0.86759600  1
  Mn  Mn22  1  0.86759600  0.57147100  0.80683000  1
  Mn  Mn23  1  0.07147100  0.36759600  0.30683000  1
  Mn  Mn24  1  0.30683000  0.07147100  0.36759600  1
  Mn  Mn25  1  0.36759600  0.30683000  0.07147100  1
  Mn  Mn26  1  0.01907500  0.31141500  0.42753700  1
  Mn  Mn27  1  0.42753700  0.01907500  0.31141500  1
  Mn  Mn28  1  0.31141500  0.42753700  0.01907500  1
  Mn  Mn29  1  0.92753700  0.81141500  0.51907500  1
  Mn  Mn30  1  0.51907500  0.92753700  0.81141500  1
  Mn  Mn31  1  0.81141500  0.51907500  0.92753700  1
  Mn  Mn32  1  0.98092500  0.68858500  0.57246300  1
  Mn  Mn33  1  0.57246300  0.98092500  0.68858500  1
  Mn  Mn34  1  0.68858500  0.57246300  0.98092500  1
  Mn  Mn35  1  0.07246300  0.18858500  0.48092500  1
  Mn  Mn36  1  0.48092500  0.07246300  0.18858500  1
  Mn  Mn37  1  0.18858500  0.48092500  0.07246300  1
  Mn  Mn38  1  0.26511300  0.61902700  0.61570800  1
  Mn  Mn39  1  0.61570800  0.26511300  0.61902700  1
  Mn  Mn40  1  0.61902700  0.61570800  0.26511300  1
  Mn  Mn41  1  0.11570800  0.11902700  0.76511300  1
  Mn  Mn42  1  0.76511300  0.11570800  0.11902700  1
  Mn  Mn43  1  0.11902700  0.76511300  0.11570800  1
  Mn  Mn44  1  0.73488700  0.38097300  0.38429200  1
  Mn  Mn45  1  0.38429200  0.73488700  0.38097300  1
  Mn  Mn46  1  0.38097300  0.38429200  0.73488700  1
  Mn  Mn47  1  0.88429200  0.88097300  0.23488700  1
  Mn  Mn48  1  0.23488700  0.88429200  0.88097300  1
  Mn  Mn49  1  0.88097300  0.23488700  0.88429200  1
loop_
_geom_bond_atom_site_label_1
_geom_bond_atom_site_label_2
_geom_bond_distance
_geom_bond_site_symmetry_2
Ti0 Ti11 2.850950 1_555
Ti0 Ti12 2.850950 1_555
Ti0 Ti1 2.880962 1_554
Ti0 Ti2 2.880962 1_565
Ti0 Ti9 2.927947 1_554
Ti0 Ti14 2.927947 1_565
Ti0 Ti37 2.929721 1_565
Ti0 Ti34 2.929721 1_554
Ti1 Ti9 2.850950 1_555
Ti1 Ti13 2.850950 1_555
Ti1 Ti2 2.880962 1_455
Ti1 Ti12 2.927947 1_556
Ti1 Ti10 2.927947 1_455
Ti1 Ti38 2.929721 1_556
Ti1 Ti35 2.929721 1_455
Ti2 Ti33 2.929721 1_545
Ti2 Ti36 2.929721 1_655
Ti3 Ti7 2.850950 1_555
Ti3 Ti4 2.880962 1_655
Ti3 Ti5 2.880962 1_554
Ti3 Ti6 2.927947 1_554
Ti3 Ti32 2.929721 1_554
Ti3 Ti41 2.929721 1_655
Ti4 Ti8 2.850950 1_555
Ti4 Ti5 2.880962 1_565
Ti4 Ti7 2.927947 1_455
Ti5 Ti6 2.850950 1_555
Ti5 Ti8 2.927947 1_545
Ti10 Ti37 2.784230 1_555
Ti10 Ti29 2.806900 1_655
Ti10 Ti2 2.850950 1_555
Ti10 Ti33 2.855405 1_545
Ti10 Ti35 3.073679 1_555
Ti10 Ti12 3.224624 1_545
Ti11 Ti38 2.784230 1_555
Ti11 Ti27 2.806900 1_565
Ti11 Ti34 2.855405 1_554
Ti11 Ti2 2.927947 1_565
Ti11 Ti33 3.073679 1_555
Ti11 Ti13 3.224624 1_554
Ti12 Ti33 2.784230 1_555
Ti12 Ti20 2.806900 1_555
Ti12 Ti37 2.855405 1_565
Ti12 Ti38 3.073679 1_555
Ti13 Ti34 2.784230 1_555
Ti13 Ti18 2.806900 1_555
Ti13 Ti38 2.855405 1_556
Ti13 Ti2 2.927947 1_455
Ti13 Ti36 3.073679 1_555
Ti14 Ti35 2.784230 1_555
Ti14 Ti19 2.806900 1_555
Ti14 Ti2 2.850950 1_555
Ti14 Ti36 2.855405 1_655
Ti14 Ti37 3.073679 1_555
Ti14 Ti9 3.224624 1_655
Ti15 Ti30 2.784230 1_555
Ti15 Ti22 2.806900 1_554
Ti15 Ti3 2.850950 1_555
Ti15 Ti41 2.855405 1_655
Ti15 Ti5 2.927947 1_554
Ti15 Ti40 3.073679 1_555
Ti15 Ti8 3.224624 1_655
Ti16 Ti31 2.784230 1_555
Ti16 Ti23 2.806900 1_455
Ti16 Ti4 2.850950 1_555
Ti16 Ti39 2.855405 1_565
Ti16 Ti3 2.927947 1_455
Ti16 Ti41 3.073679 1_555
Ti16 Ti6 3.224624 1_565
Ti17 Ti32 2.784230 1_555
Ti17 Ti21 2.806900 1_545
Ti17 Ti5 2.850950 1_555
Ti17 Ti40 2.855405 1_556
Ti17 Ti4 2.927947 1_545
Ti17 Ti39 3.073679 1_555
Ti17 Ti7 3.224624 1_556
Ti18 Ti26 2.871098 1_555
Ti18 Ti25 2.871098 1_555
Ti18 Ti27 2.909958 1_455
Ti19 Ti26 2.871098 1_555
Ti19 Ti24 2.871098 1_555
Ti19 Ti28 2.909958 1_545
Ti20 Ti24 2.871098 1_555
Ti20 Ti25 2.871098 1_555
Ti20 Ti29 2.909958 1_554
Ti21 Ti29 2.871098 1_565
Ti21 Ti28 2.871098 1_556
Ti21 Ti24 2.909958 1_455
Ti22 Ti27 2.871098 1_556
Ti22 Ti29 2.871098 1_655
Ti22 Ti25 2.909958 1_545
Ti23 Ti27 2.871098 1_565
Ti23 Ti28 2.871098 1_655
Ti23 Ti26 2.909958 1_554
Ti24 Ti7 2.806900 1_555
Ti25 Ti8 2.806900 1_555
Ti26 Ti6 2.806900 1_555
Ti28 Ti9 2.806900 1_554
Ti30 Ti36 2.674642 1_655
Ti30 Ti40 2.790828 1_555
Ti30 Ti8 2.855405 1_655
Ti30 Ti4 2.929721 1_655
Ti30 Ti7 3.073679 1_555
Ti31 Ti37 2.674642 1_565
Ti31 Ti41 2.790828 1_555
Ti31 Ti6 2.855405 1_565
Ti31 Ti5 2.929721 1_565
Ti31 Ti8 3.073679 1_555
Ti32 Ti38 2.674642 1_556
Ti32 Ti39 2.790828 1_555
Ti32 Ti7 2.855405 1_556
Ti32 Ti6 3.073679 1_555
Ti33 Ti39 2.674642 1_665
Ti33 Ti38 2.790828 1_555
Ti34 Ti40 2.674642 1_566
Ti34 Ti36 2.790828 1_555
Ti34 Ti9 3.073679 1_555
Ti35 Ti41 2.674642 1_656
Ti35 Ti37 2.790828 1_555
Ti35 Ti9 2.855405 1_655
Ti36 Ti9 2.784230 1_555
Ti39 Ti6 2.784230 1_555
Ti39 Ti4 2.929721 1_545
Ti40 Ti7 2.784230 1_555
Ti40 Ti5 2.929721 1_554
Ti41 Ti8 2.784230 1_555
Mn0 Mn4 2.439165 1_555
Mn0 Mn6 2.439165 1_555
Mn0 Mn7 2.439165 1_555
Mn0 Mn2 2.439165 1_555
Mn0 Mn5 2.439166 1_555
Mn0 Mn3 2.439166 1_555
Mn0 Ti19 2.725049 1_555
Mn0 Ti25 2.725049 1_555
Mn0 Ti20 2.725049 1_555
Mn0 Ti26 2.725049 1_555
Mn0 Ti18 2.725049 1_555
Mn0 Ti24 2.725049 1_555
Mn1 Mn5 2.439165 1_444
Mn1 Mn3 2.439165 1_555
Mn1 Mn7 2.439165 1_444
Mn1 Mn2 2.439165 1_555
Mn1 Mn4 2.439166 1_555
Mn1 Mn6 2.439166 1_444
Mn1 Ti22 2.725049 1_454
Mn1 Ti28 2.725049 1_545
Mn1 Ti21 2.725049 1_544
Mn1 Ti27 2.725049 1_455
Mn1 Ti23 2.725049 1_445
Mn1 Ti29 2.725049 1_554
Mn2 Mn23 2.336024 1_555
Mn2 Mn3 2.474629 1_555
Mn2 Mn4 2.474629 1_555
Mn2 Ti29 2.736026 1_554
Mn2 Ti18 2.736026 1_555
Mn2 Ti20 2.737698 1_555
Mn2 Ti27 2.737698 1_455
Mn2 Ti22 2.792244 1_454
Mn2 Ti25 2.792244 1_555
Mn3 Mn4 2.474629 1_555
Mn3 Ti27 2.736026 1_455
Mn3 Ti19 2.736026 1_555
Mn3 Ti18 2.737698 1_555
Mn3 Ti28 2.737698 1_545
Mn3 Ti26 2.792244 1_555
Mn3 Ti23 2.792244 1_445
Mn4 Ti20 2.736026 1_555
Mn4 Ti28 2.736026 1_545
Mn4 Ti29 2.737698 1_554
Mn4 Ti19 2.737698 1_555
Mn4 Ti21 2.792244 1_544
Mn4 Ti24 2.792244 1_555
Mn5 Mn7 2.474629 1_555
Mn5 Mn6 2.474629 1_555
Mn5 Ti21 2.736026 1_655
Mn5 Ti25 2.736026 1_555
Mn5 Ti24 2.737698 1_555
Mn5 Ti22 2.737698 1_565
Mn5 Ti20 2.792244 1_555
Mn5 Ti29 2.792244 1_665
Mn6 Mn7 2.474629 1_555
Mn6 Ti26 2.736026 1_555
Mn6 Ti22 2.736026 1_565
Mn6 Ti23 2.737698 1_556
Mn6 Ti25 2.737698 1_555
Mn6 Ti27 2.792244 1_566
Mn6 Ti18 2.792244 1_555
Mn7 Ti23 2.736026 1_556
Mn7 Ti24 2.736026 1_555
Mn7 Ti21 2.737698 1_655
Mn7 Ti26 2.737698 1_555
Mn7 Ti28 2.792244 1_656
Mn7 Ti19 2.792244 1_555
Mn8 Ti32 2.651606 1_554
Mn8 Ti39 2.651606 1_665
Mn8 Ti3 2.671043 1_555
Mn8 Ti4 2.671043 1_655
Mn8 Ti7 2.760914 1_555
Mn8 Ti16 2.760914 1_655
Mn8 Ti38 2.779427 1_555
Mn8 Ti33 2.779427 1_555
Mn9 Ti40 2.651606 1_566
Mn9 Ti30 2.651606 1_455
Mn9 Ti4 2.671043 1_555
Mn9 Ti5 2.671043 1_565
Mn9 Ti17 2.760914 1_565
Mn9 Ti8 2.760914 1_555
Mn9 Ti34 2.779427 1_555
Mn9 Ti36 2.779427 1_555
Mn10 Mn31 2.417186 1_555
Mn10 Mn33 2.417186 1_545
Mn10 Mn49 2.442189 1_555
Mn10 Mn39 2.442189 1_555
Mn10 Ti31 2.651606 1_545
Mn10 Ti41 2.651606 1_656
Mn10 Ti3 2.671043 1_556
Mn10 Ti5 2.671043 1_555
Mn10 Ti6 2.760914 1_555
Mn10 Ti15 2.760914 1_556
Mn10 Ti37 2.779427 1_555
Mn10 Ti35 2.779427 1_555
Mn11 Mn26 2.417186 1_655
Mn11 Mn36 2.417186 1_555
Mn11 Mn44 2.442189 1_555
Mn11 Mn42 2.442189 1_555
Mn11 Ti34 2.651606 1_544
Mn11 Ti36 2.651606 1_655
Mn11 Ti2 2.671043 1_555
Mn11 Ti0 2.671043 1_545
Mn11 Ti11 2.760914 1_545
Mn11 Ti14 2.760914 1_555
Mn11 Ti40 2.779427 1_555
Mn11 Ti30 2.779427 1_555
Mn12 Mn37 2.417186 1_555
Mn12 Mn27 2.417186 1_565
Mn12 Mn43 2.442189 1_555
Mn12 Mn45 2.442189 1_555
Mn12 Ti37 2.651606 1_565
Mn12 Ti35 2.651606 1_454
Mn12 Ti1 2.671043 1_554
Mn12 Ti0 2.671043 1_555
Mn12 Ti12 2.760914 1_555
Mn12 Ti9 2.760914 1_554
Mn12 Ti31 2.779427 1_555
Mn12 Ti41 2.779427 1_555
Mn13 Mn28 2.417186 1_556
Mn13 Mn35 2.417186 1_555
Mn13 Mn41 2.442189 1_555
Mn13 Mn46 2.442189 1_555
Mn13 Ti38 2.651606 1_556
Mn13 Ti33 2.651606 1_445
Mn13 Ti2 2.671043 1_455
Mn13 Ti1 2.671043 1_555
Mn13 Ti13 2.760914 1_555
Mn13 Ti10 2.760914 1_455
Mn13 Ti39 2.779427 1_555
Mn13 Ti32 2.779427 1_555
Mn14 Mn3 2.336024 1_555
Mn14 Mn24 2.347767 1_555
Mn14 Mn35 2.353709 1_555
Mn14 Mn47 2.397983 1_445
Mn14 Mn46 2.403615 1_555
Mn14 Ti6 2.714138 1_555
Mn14 Ti16 2.778598 1_545
Mn14 Ti39 2.784764 1_555
Mn14 Ti18 2.802912 1_555
Mn14 Ti27 2.810963 1_455
Mn14 Ti26 2.857062 1_555
Mn14 Ti23 2.877428 1_445
Mn15 Mn4 2.336024 1_555
Mn15 Mn25 2.347767 1_555
Mn15 Mn36 2.353709 1_555
Mn15 Mn48 2.397983 1_544
Mn15 Mn44 2.403615 1_555
Mn15 Ti7 2.714138 1_555
Mn15 Ti17 2.778598 1_554
Mn15 Ti40 2.784764 1_555
Mn15 Ti19 2.802912 1_555
Mn15 Ti28 2.810963 1_545
Mn15 Ti24 2.857062 1_555
Mn15 Ti21 2.877428 1_544
Mn16 Mn2 2.336024 1_555
Mn16 Mn23 2.347767 1_555
Mn16 Mn37 2.353710 1_555
Mn16 Mn49 2.397983 1_454
Mn16 Mn45 2.403615 1_555
Mn16 Ti8 2.714138 1_555
Mn16 Ti15 2.778598 1_455
Mn16 Ti41 2.784764 1_555
Mn16 Ti20 2.802912 1_555
Mn16 Ti29 2.810963 1_554
Mn16 Ti25 2.857062 1_555
Mn16 Ti22 2.877428 1_454
Mn17 Mn7 2.336024 1_555
Mn17 Mn22 2.347767 1_555
Mn17 Mn32 2.353710 1_555
Mn17 Mn44 2.397983 1_555
Mn17 Mn48 2.403615 1_655
Mn17 Ti9 2.714138 1_655
Mn17 Ti14 2.778598 1_555
Mn17 Ti36 2.784764 1_655
Mn17 Ti21 2.802912 1_655
Mn17 Ti24 2.810963 1_555
Mn17 Ti28 2.857062 1_656
Mn17 Ti19 2.877428 1_555
Mn18 Mn5 2.336024 1_555
Mn18 Mn20 2.347767 1_555
Mn18 Mn33 2.353709 1_555
Mn18 Mn45 2.397983 1_555
Mn18 Mn49 2.403615 1_565
Mn18 Ti10 2.714138 1_565
Mn18 Ti12 2.778598 1_555
Mn18 Ti37 2.784764 1_565
Mn18 Ti22 2.802912 1_565
Mn18 Ti25 2.810963 1_555
Mn18 Ti29 2.857062 1_665
Mn18 Ti20 2.877428 1_555
Mn19 Mn6 2.336024 1_555
Mn19 Mn21 2.347767 1_555
Mn19 Mn34 2.353709 1_555
Mn19 Mn46 2.397983 1_555
Mn19 Mn47 2.403615 1_556
Mn19 Ti11 2.714138 1_556
Mn19 Ti13 2.778598 1_555
Mn19 Ti38 2.784764 1_556
Mn19 Ti23 2.802912 1_556
Mn19 Ti26 2.810963 1_555
Mn19 Ti27 2.857062 1_566
Mn19 Ti18 2.877428 1_555
Mn20 Mn5 2.336024 1_555
Mn20 Mn29 2.353709 1_555
Mn20 Mn41 2.397983 1_665
Mn20 Mn40 2.403615 1_555
Mn20 Ti12 2.714138 1_555
Mn20 Ti10 2.778598 1_565
Mn20 Ti33 2.784764 1_555
Mn20 Ti24 2.802912 1_555
Mn20 Ti21 2.810963 1_655
Mn20 Ti20 2.857062 1_555
Mn20 Ti29 2.877428 1_665
Mn21 Mn6 2.336024 1_555
Mn21 Mn30 2.353709 1_555
Mn21 Mn42 2.397983 1_566
Mn21 Mn38 2.403615 1_555
Mn21 Ti13 2.714138 1_555
Mn21 Ti11 2.778598 1_556
Mn21 Ti34 2.784764 1_555
Mn21 Ti25 2.802912 1_555
Mn21 Ti22 2.810963 1_565
Mn21 Ti18 2.857062 1_555
Mn21 Ti27 2.877428 1_566
Mn22 Mn7 2.336024 1_555
Mn22 Mn31 2.353710 1_555
Mn22 Mn43 2.397983 1_656
Mn22 Mn39 2.403615 1_555
Mn22 Ti14 2.714138 1_555
Mn22 Ti9 2.778598 1_655
Mn22 Ti35 2.784764 1_555
Mn22 Ti26 2.802912 1_555
Mn22 Ti23 2.810963 1_556
Mn22 Ti19 2.857062 1_555
Mn22 Ti28 2.877428 1_656
Mn23 Mn26 2.353710 1_555
Mn23 Mn38 2.397983 1_555
Mn23 Mn42 2.403615 1_455
Mn23 Ti15 2.714138 1_455
Mn23 Ti8 2.778598 1_555
Mn23 Ti30 2.784764 1_455
Mn23 Ti27 2.802912 1_455
Mn23 Ti18 2.810963 1_555
Mn23 Ti22 2.857062 1_454
Mn23 Ti25 2.877428 1_555
Mn24 Mn3 2.336024 1_555
Mn24 Mn27 2.353709 1_555
Mn24 Mn39 2.397983 1_555
Mn24 Mn43 2.403615 1_545
Mn24 Ti16 2.714138 1_545
Mn24 Ti6 2.778598 1_555
Mn24 Ti31 2.784764 1_545
Mn24 Ti28 2.802912 1_545
Mn24 Ti19 2.810963 1_555
Mn24 Ti23 2.857062 1_445
Mn24 Ti26 2.877428 1_555
Mn25 Mn4 2.336024 1_555
Mn25 Mn28 2.353709 1_555
Mn25 Mn40 2.397983 1_555
Mn25 Mn41 2.403615 1_554
Mn25 Ti17 2.714138 1_554
Mn25 Ti7 2.778598 1_555
Mn25 Ti32 2.784764 1_554
Mn25 Ti29 2.802912 1_554
Mn25 Ti20 2.810963 1_555
Mn25 Ti21 2.857062 1_544
Mn25 Ti24 2.877428 1_555
Mn26 Mn35 2.369896 1_555
Mn26 Mn42 2.391677 1_455
Mn26 Mn38 2.399728 1_555
Mn26 Ti2 2.618907 1_455
Mn26 Ti13 2.643860 1_555
Mn26 Ti11 2.734096 1_445
Mn26 Ti36 2.734291 1_555
Mn26 Ti18 2.790995 1_555
Mn26 Ti27 2.814526 1_455
Mn26 Ti30 2.943503 1_455
Mn27 Mn36 2.369896 1_555
Mn27 Mn43 2.391677 1_545
Mn27 Mn39 2.399728 1_555
Mn27 Ti0 2.618907 1_545
Mn27 Ti14 2.643860 1_555
Mn27 Ti9 2.734095 1_544
Mn27 Ti37 2.734291 1_555
Mn27 Ti19 2.790995 1_555
Mn27 Ti28 2.814526 1_545
Mn27 Ti31 2.943503 1_545
Mn28 Mn37 2.369896 1_555
Mn28 Mn41 2.391677 1_554
Mn28 Mn40 2.399728 1_555
Mn28 Ti1 2.618907 1_554
Mn28 Ti12 2.643860 1_555
Mn28 Ti10 2.734095 1_454
Mn28 Ti38 2.734291 1_555
Mn28 Ti20 2.790995 1_555
Mn28 Ti29 2.814526 1_554
Mn28 Ti32 2.943503 1_554
Mn29 Mn32 2.369896 1_555
Mn29 Mn40 2.391677 1_555
Mn29 Mn41 2.399728 1_665
Mn29 Mn8 2.417186 1_555
Mn29 Ti4 2.618907 1_655
Mn29 Ti17 2.643860 1_665
Mn29 Ti7 2.734095 1_555
Mn29 Ti39 2.734291 1_665
Mn29 Ti21 2.790995 1_655
Mn29 Ti24 2.814526 1_555
Mn29 Ti33 2.943503 1_555
Mn30 Mn33 2.369896 1_555
Mn30 Mn38 2.391677 1_555
Mn30 Mn42 2.399728 1_566
Mn30 Mn9 2.417186 1_555
Mn30 Ti5 2.618907 1_565
Mn30 Ti15 2.643860 1_566
Mn30 Ti8 2.734095 1_555
Mn30 Ti40 2.734291 1_566
Mn30 Ti22 2.790995 1_565
Mn30 Ti25 2.814526 1_555
Mn30 Ti34 2.943503 1_555
Mn31 Mn34 2.369896 1_555
Mn31 Mn39 2.391677 1_555
Mn31 Mn43 2.399728 1_656
Mn31 Ti3 2.618907 1_556
Mn31 Ti16 2.643860 1_656
Mn31 Ti6 2.734096 1_555
Mn31 Ti41 2.734291 1_656
Mn31 Ti23 2.790995 1_556
Mn31 Ti26 2.814526 1_555
Mn31 Ti35 2.943503 1_555
Mn32 Mn48 2.391677 1_655
Mn32 Mn44 2.399728 1_555
Mn32 Mn9 2.417186 1_655
Mn32 Ti4 2.618907 1_655
Mn32 Ti7 2.643860 1_555
Mn32 Ti17 2.734096 1_665
Mn32 Ti30 2.734291 1_555
Mn32 Ti24 2.790995 1_555
Mn32 Ti21 2.814526 1_655
Mn32 Ti36 2.943503 1_655
Mn33 Mn49 2.391677 1_565
Mn33 Mn45 2.399728 1_555
Mn33 Ti5 2.618907 1_565
Mn33 Ti8 2.643860 1_555
Mn33 Ti15 2.734095 1_566
Mn33 Ti31 2.734291 1_555
Mn33 Ti25 2.790995 1_555
Mn33 Ti22 2.814526 1_565
Mn33 Ti37 2.943503 1_565
Mn34 Mn47 2.391677 1_556
Mn34 Mn46 2.399728 1_555
Mn34 Mn8 2.417186 1_556
Mn34 Ti3 2.618907 1_556
Mn34 Ti6 2.643860 1_555
Mn34 Ti16 2.734095 1_656
Mn34 Ti32 2.734291 1_555
Mn34 Ti26 2.790995 1_555
Mn34 Ti23 2.814526 1_556
Mn34 Ti38 2.943503 1_556
Mn35 Mn46 2.391677 1_555
Mn35 Mn47 2.399728 1_445
Mn35 Ti2 2.618907 1_455
Mn35 Ti11 2.643860 1_445
Mn35 Ti13 2.734095 1_555
Mn35 Ti33 2.734291 1_445
Mn35 Ti27 2.790995 1_455
Mn35 Ti18 2.814526 1_555
Mn35 Ti39 2.943503 1_555
Mn36 Mn44 2.391677 1_555
Mn36 Mn48 2.399728 1_544
Mn36 Ti0 2.618907 1_545
Mn36 Ti9 2.643860 1_544
Mn36 Ti14 2.734095 1_555
Mn36 Ti34 2.734291 1_544
Mn36 Ti28 2.790995 1_545
Mn36 Ti19 2.814526 1_555
Mn36 Ti40 2.943503 1_555
Mn37 Mn45 2.391677 1_555
Mn37 Mn49 2.399728 1_454
Mn37 Ti1 2.618907 1_554
Mn37 Ti10 2.643860 1_454
Mn37 Ti12 2.734096 1_555
Mn37 Ti35 2.734291 1_454
Mn37 Ti29 2.790995 1_554
Mn37 Ti20 2.814526 1_555
Mn37 Ti41 2.943503 1_555
Mn38 Mn9 2.442189 1_555
Mn38 Ti13 2.681055 1_555
Mn38 Ti8 2.710842 1_555
Mn38 Ti36 2.728059 1_555
Mn38 Ti30 2.739177 1_455
Mn38 Ti25 2.797493 1_555
Mn38 Ti34 2.800100 1_555
Mn38 Ti18 2.830965 1_555
Mn39 Ti14 2.681055 1_555
Mn39 Ti6 2.710842 1_555
Mn39 Ti37 2.728059 1_555
Mn39 Ti31 2.739178 1_545
Mn39 Ti26 2.797493 1_555
Mn39 Ti35 2.800100 1_555
Mn39 Ti19 2.830965 1_555
Mn40 Mn8 2.442189 1_555
Mn40 Ti12 2.681055 1_555
Mn40 Ti7 2.710842 1_555
Mn40 Ti38 2.728059 1_555
Mn40 Ti32 2.739177 1_554
Mn40 Ti24 2.797493 1_555
Mn40 Ti33 2.800100 1_555
Mn40 Ti20 2.830965 1_555
Mn41 Ti17 2.681055 1_555
Mn41 Ti10 2.710842 1_455
Mn41 Ti39 2.728059 1_555
Mn41 Ti33 2.739177 1_445
Mn41 Ti29 2.797493 1_555
Mn41 Ti32 2.800100 1_555
Mn41 Ti21 2.830965 1_545
Mn42 Ti15 2.681055 1_555
Mn42 Ti11 2.710842 1_545
Mn42 Ti40 2.728059 1_555
Mn42 Ti34 2.739178 1_544
Mn42 Ti27 2.797493 1_555
Mn42 Ti30 2.800100 1_555
Mn42 Ti22 2.830965 1_554
Mn43 Ti16 2.681055 1_555
Mn43 Ti9 2.710842 1_554
Mn43 Ti41 2.728059 1_555
Mn43 Ti35 2.739177 1_454
Mn43 Ti28 2.797493 1_555
Mn43 Ti31 2.800100 1_555
Mn43 Ti23 2.830965 1_455
Mn44 Ti7 2.681055 1_555
Mn44 Ti14 2.710842 1_555
Mn44 Ti30 2.728059 1_555
Mn44 Ti36 2.739177 1_655
Mn44 Ti19 2.797493 1_555
Mn44 Ti40 2.800100 1_555
Mn44 Ti24 2.830965 1_555
Mn45 Ti8 2.681055 1_555
Mn45 Ti12 2.710842 1_555
Mn45 Ti31 2.728059 1_555
Mn45 Ti37 2.739178 1_565
Mn45 Ti20 2.797493 1_555
Mn45 Ti41 2.800100 1_555
Mn45 Ti25 2.830965 1_555
Mn46 Ti6 2.681055 1_555
Mn46 Ti13 2.710842 1_555
Mn46 Ti32 2.728059 1_555
Mn46 Ti38 2.739177 1_556
Mn46 Ti18 2.797493 1_555
Mn46 Ti39 2.800100 1_555
Mn46 Ti26 2.830965 1_555
Mn47 Mn8 2.442189 1_555
Mn47 Ti11 2.681055 1_555
Mn47 Ti16 2.710842 1_655
Mn47 Ti33 2.728059 1_555
Mn47 Ti39 2.739177 1_665
Mn47 Ti23 2.797493 1_555
Mn47 Ti38 2.800100 1_555
Mn47 Ti27 2.830965 1_565
Mn48 Mn9 2.442189 1_555
Mn48 Ti9 2.681055 1_555
Mn48 Ti17 2.710842 1_565
Mn48 Ti34 2.728059 1_555
Mn48 Ti40 2.739178 1_566
Mn48 Ti21 2.797493 1_555
Mn48 Ti36 2.800100 1_555
Mn48 Ti28 2.830965 1_556
Mn49 Ti10 2.681055 1_555
Mn49 Ti15 2.710842 1_556
Mn49 Ti35 2.728059 1_555
Mn49 Ti41 2.739177 1_656
Mn49 Ti22 2.797493 1_555
Mn49 Ti37 2.800100 1_555
Mn49 Ti29 2.830965 1_655
