# generated using pymatgen
data_Li7Mn2(CoO4)3
_symmetry_space_group_name_H-M   'P 1'
_cell_length_a   3.00626400
_cell_length_b   5.01074645
_cell_length_c   14.45225998
_cell_angle_alpha   87.63339218
_cell_angle_beta   88.75288045
_cell_angle_gamma   88.46528446
_symmetry_Int_Tables_number   1
_chemical_formula_structural   Li7Mn2(CoO4)3
_chemical_formula_sum   'Li7 Mn2 Co3 O12'
_cell_volume   217.39321718
_cell_formula_units_Z   1
loop_
 _symmetry_equiv_pos_site_id
 _symmetry_equiv_pos_as_xyz
  1  'x, y, z'
loop_
 _atom_site_type_symbol
 _atom_site_label
 _atom_site_symmetry_multiplicity
 _atom_site_fract_x
 _atom_site_fract_y
 _atom_site_fract_z
 _atom_site_occupancy
  Li  Li0  1  0.99900500  0.67662800  0.82324500  1
  Li  Li1  1  0.50857400  0.50063300  0.50655900  1
  Li  Li2  1  0.00266100  0.33367000  0.16997600  1
  Li  Li3  1  0.49082000  0.16508300  0.82354700  1
  Li  Li4  1  0.99471900  0.98984000  0.50616300  1
  Li  Li5  1  0.50274200  0.83446300  0.17012800  1
  Li  Li6  1  0.50065700  0.83391400  0.66540700  1
  Mn  Mn0  1  0.99870600  0.00111700  0.99818100  1
  Mn  Mn1  1  0.49836800  0.50087000  0.99844100  1
  Co  Co0  1  0.00146900  0.66540300  0.33652100  1
  Co  Co1  1  0.00024600  0.33347300  0.66546200  1
  Co  Co2  1  0.50197000  0.16604200  0.33631000  1
  O  O0  1  0.46006400  0.82599700  0.91902300  1
  O  O1  1  0.99679000  0.62783200  0.59152700  1
  O  O2  1  0.50746000  0.48965200  0.25799500  1
  O  O3  1  0.96001500  0.32880200  0.92177500  1
  O  O4  1  0.51373700  0.18642400  0.59437300  1
  O  O5  1  0.00762900  0.98828700  0.25842800  1
  O  O6  1  0.48664300  0.48121500  0.73717800  1
  O  O7  1  0.99298400  0.33966300  0.41159000  1
  O  O8  1  0.53886300  0.17449800  0.07740400  1
  O  O9  1  0.00336600  0.03870600  0.73979500  1
  O  O10  1  0.49402200  0.84219300  0.41412800  1
  O  O11  1  0.03848900  0.67559500  0.07684500  1
loop_
_geom_bond_atom_site_label_1
_geom_bond_atom_site_label_2
_geom_bond_distance
_geom_bond_site_symmetry_2
Li0 O9 2.136867 1_665
Li0 O6 2.144608 1_655
Li0 O0 2.149891 1_655
Li0 O3 2.208566 1_555
Li0 O0 2.241481 1_555
Li0 O6 2.267871 1_555
Li1 O4 1.980964 1_555
Li1 O1 2.052120 1_455
Li1 O1 2.064346 1_555
Li1 O10 2.127258 1_555
Li1 O7 2.143965 1_555
Li1 O7 2.277690 1_455
Li2 O2 2.093476 1_455
Li2 O5 2.108592 1_545
Li2 O11 2.138157 1_555
Li2 O8 2.144525 1_455
Li2 O2 2.182134 1_555
Li2 O8 2.224824 1_555
Li3 O6 1.975800 1_555
Li3 O9 2.042093 1_655
Li3 O9 2.050302 1_555
Li3 O0 2.146768 1_545
Li3 O3 2.218827 1_555
Li3 O3 2.272032 1_455
Li4 O10 2.122387 1_655
Li4 O1 2.151120 1_555
Li4 O4 2.152548 1_565
Li4 O7 2.177769 1_565
Li4 O10 2.193244 1_555
Li4 O4 2.302751 1_665
Li5 O5 2.091689 1_555
Li5 O2 2.101480 1_555
Li5 O8 2.127352 1_565
Li5 O11 2.151542 1_555
Li5 O5 2.180507 1_655
Li5 O11 2.229498 1_655
Li6 O4 2.006892 1_565
Li6 O6 2.012874 1_555
Li6 O1 2.090501 1_555
Li6 O9 2.093503 1_565
Li6 O9 2.176614 1_665
Li6 O1 2.178555 1_455
Mn0 O3 1.942803 1_555
Mn0 O11 1.951825 1_646
Mn0 O8 1.981325 1_556
Mn0 O0 1.987726 1_645
Mn0 O0 2.222729 1_545
Mn0 O8 2.222886 1_656
Mn1 O0 1.956010 1_555
Mn1 O8 1.957760 1_556
Mn1 O3 1.960860 1_555
Mn1 O11 1.977552 1_556
Mn1 O3 2.195915 1_455
Mn1 O11 2.219273 1_656
Co0 O7 1.922643 1_455
Co0 O5 1.934318 1_555
Co0 O10 2.074875 1_455
Co0 O2 2.076775 1_555
Co0 O10 2.111853 1_555
Co0 O2 2.120148 1_455
Co1 O1 1.785179 1_455
Co1 O9 1.790072 1_555
Co1 O4 1.978380 1_555
Co1 O4 1.980715 1_455
Co1 O6 1.984637 1_455
Co1 O6 1.986894 1_555
Co2 O10 1.936188 1_545
Co2 O2 1.938997 1_555
Co2 O7 2.053355 1_455
Co2 O5 2.075297 1_645
Co2 O7 2.082380 1_555
Co2 O5 2.120210 1_545
