# generated using pymatgen
data_Li6CrN4
_symmetry_space_group_name_H-M   'P 1'
_cell_length_a   6.48530000
_cell_length_b   6.48530000
_cell_length_c   4.89418700
_cell_angle_alpha   90.00000000
_cell_angle_beta   90.00000000
_cell_angle_gamma   90.00000000
_symmetry_Int_Tables_number   1
_chemical_formula_structural   Li6CrN4
_chemical_formula_sum   'Li12 Cr2 N8'
_cell_volume   205.84517920
_cell_formula_units_Z   2
loop_
 _symmetry_equiv_pos_site_id
 _symmetry_equiv_pos_as_xyz
  1  'x, y, z'
loop_
 _atom_site_type_symbol
 _atom_site_label
 _atom_site_symmetry_multiplicity
 _atom_site_fract_x
 _atom_site_fract_y
 _atom_site_fract_z
 _atom_site_occupancy
  Li  Li0  1  0.50000000  0.00000000  0.60291400  1
  Li  Li1  1  0.00000000  0.50000000  0.89708600  1
  Li  Li2  1  0.00000000  0.50000000  0.39708600  1
  Li  Li3  1  0.50000000  0.00000000  0.10291400  1
  Li  Li4  1  0.21578200  0.21578200  0.50000000  1
  Li  Li5  1  0.78421800  0.78421800  0.50000000  1
  Li  Li6  1  0.71578200  0.71578200  0.00000000  1
  Li  Li7  1  0.28421800  0.28421800  0.00000000  1
  Li  Li8  1  0.21578200  0.78421800  0.50000000  1
  Li  Li9  1  0.78421800  0.21578200  0.50000000  1
  Li  Li10  1  0.71578200  0.28421800  0.00000000  1
  Li  Li11  1  0.28421800  0.71578200  0.00000000  1
  Cr  Cr0  1  0.50000000  0.50000000  0.50000000  1
  Cr  Cr1  1  0.00000000  0.00000000  0.00000000  1
  N  N0  1  0.50000000  0.26738300  0.31149000  1
  N  N1  1  0.50000000  0.73261700  0.31149000  1
  N  N2  1  0.00000000  0.76738300  0.18851000  1
  N  N3  1  0.00000000  0.23261700  0.18851000  1
  N  N4  1  0.26738300  0.50000000  0.68851000  1
  N  N5  1  0.73261700  0.50000000  0.68851000  1
  N  N6  1  0.76738300  0.00000000  0.81149000  1
  N  N7  1  0.23261700  0.00000000  0.81149000  1
loop_
_geom_bond_atom_site_label_1
_geom_bond_atom_site_label_2
_geom_bond_distance
_geom_bond_site_symmetry_2
Li0 N6 2.012216 1_555
Li0 N7 2.012216 1_555
Li0 N0 2.245272 1_555
Li0 N1 2.245272 1_545
Li1 N4 2.012216 1_555
Li1 N5 2.012216 1_455
Li1 N2 2.245272 1_556
Li1 N3 2.245272 1_556
Li2 N3 2.012216 1_555
Li2 N2 2.012216 1_555
Li2 N4 2.245272 1_555
Li2 N5 2.245272 1_455
Li3 N0 2.012216 1_555
Li3 N1 2.012216 1_545
Li3 N7 2.245272 1_554
Li3 N6 2.245272 1_554
Li4 N3 2.072279 1_555
Li4 N7 2.072279 1_555
Li4 N4 2.088233 1_555
Li4 N0 2.088233 1_555
Li5 N2 2.072279 1_655
Li5 N6 2.072279 1_565
Li5 N5 2.088233 1_555
Li5 N1 2.088233 1_555
Li6 N1 2.072279 1_555
Li6 N5 2.072279 1_554
Li6 N2 2.088233 1_655
Li6 N6 2.088233 1_564
Li7 N4 2.072279 1_554
Li7 N0 2.072279 1_555
Li7 N7 2.088233 1_554
Li7 N3 2.088233 1_555
Li8 N2 2.072279 1_555
Li8 N7 2.072279 1_565
Li8 N4 2.088233 1_555
Li8 N1 2.088233 1_555
Li9 N6 2.072279 1_555
Li9 N3 2.072279 1_655
Li9 N5 2.088233 1_555
Li9 N0 2.088233 1_555
Li10 N5 2.072279 1_554
Li10 N0 2.072279 1_555
Li10 N6 2.088233 1_554
Li10 N3 2.088233 1_655
Li11 N1 2.072279 1_555
Li11 N4 2.072279 1_554
Li11 N7 2.088233 1_564
Li11 N2 2.088233 1_555
Cr0 N5 1.768345 1_555
Cr0 N1 1.768345 1_555
Cr0 N4 1.768345 1_555
Cr0 N0 1.768345 1_555
Cr1 N6 1.768345 1_454
Cr1 N2 1.768345 1_545
Cr1 N7 1.768345 1_554
Cr1 N3 1.768345 1_555
