# generated using pymatgen
data_CeSn3Ru
_symmetry_space_group_name_H-M   'P 1'
_cell_length_a   9.82032400
_cell_length_b   9.82032400
_cell_length_c   9.82032400
_cell_angle_alpha   90.00000000
_cell_angle_beta   90.00000000
_cell_angle_gamma   90.00000000
_symmetry_Int_Tables_number   1
_chemical_formula_structural   CeSn3Ru
_chemical_formula_sum   'Ce8 Sn24 Ru8'
_cell_volume   947.05990339
_cell_formula_units_Z   8
loop_
 _symmetry_equiv_pos_site_id
 _symmetry_equiv_pos_as_xyz
  1  'x, y, z'
loop_
 _atom_site_type_symbol
 _atom_site_label
 _atom_site_symmetry_multiplicity
 _atom_site_fract_x
 _atom_site_fract_y
 _atom_site_fract_z
 _atom_site_occupancy
  Ce  Ce0  1  0.00000000  0.50000000  0.75000000  1
  Ce  Ce1  1  0.50000000  0.25000000  0.00000000  1
  Ce  Ce2  1  0.75000000  0.00000000  0.50000000  1
  Ce  Ce3  1  0.00000000  0.50000000  0.25000000  1
  Ce  Ce4  1  0.50000000  0.75000000  0.00000000  1
  Ce  Ce5  1  0.25000000  0.00000000  0.50000000  1
  Ce  Ce6  1  0.50000000  0.50000000  0.50000000  1
  Ce  Ce7  1  0.00000000  0.00000000  0.00000000  1
  Sn  Sn0  1  0.81757100  0.34518700  0.50000000  1
  Sn  Sn1  1  0.65481300  0.50000000  0.81757100  1
  Sn  Sn2  1  0.50000000  0.18242900  0.65481300  1
  Sn  Sn3  1  0.18242900  0.65481300  0.50000000  1
  Sn  Sn4  1  0.34518700  0.50000000  0.18242900  1
  Sn  Sn5  1  0.50000000  0.81757100  0.34518700  1
  Sn  Sn6  1  0.81757100  0.65481300  0.50000000  1
  Sn  Sn7  1  0.65481300  0.50000000  0.18242900  1
  Sn  Sn8  1  0.18242900  0.34518700  0.50000000  1
  Sn  Sn9  1  0.34518700  0.50000000  0.81757100  1
  Sn  Sn10  1  0.50000000  0.81757100  0.65481300  1
  Sn  Sn11  1  0.50000000  0.18242900  0.34518700  1
  Sn  Sn12  1  0.31757100  0.00000000  0.84518700  1
  Sn  Sn13  1  0.15481300  0.31757100  0.00000000  1
  Sn  Sn14  1  0.00000000  0.15481300  0.68242900  1
  Sn  Sn15  1  0.68242900  0.00000000  0.15481300  1
  Sn  Sn16  1  0.84518700  0.68242900  0.00000000  1
  Sn  Sn17  1  0.00000000  0.84518700  0.31757100  1
  Sn  Sn18  1  0.31757100  0.00000000  0.15481300  1
  Sn  Sn19  1  0.15481300  0.68242900  0.00000000  1
  Sn  Sn20  1  0.68242900  0.00000000  0.84518700  1
  Sn  Sn21  1  0.84518700  0.31757100  0.00000000  1
  Sn  Sn22  1  0.00000000  0.15481300  0.31757100  1
  Sn  Sn23  1  0.00000000  0.84518700  0.68242900  1
  Ru  Ru0  1  0.75000000  0.25000000  0.75000000  1
  Ru  Ru1  1  0.25000000  0.75000000  0.25000000  1
  Ru  Ru2  1  0.75000000  0.75000000  0.25000000  1
  Ru  Ru3  1  0.25000000  0.25000000  0.75000000  1
  Ru  Ru4  1  0.25000000  0.75000000  0.75000000  1
  Ru  Ru5  1  0.75000000  0.25000000  0.25000000  1
  Ru  Ru6  1  0.25000000  0.25000000  0.25000000  1
  Ru  Ru7  1  0.75000000  0.75000000  0.75000000  1
loop_
_geom_bond_atom_site_label_1
_geom_bond_atom_site_label_2
_geom_bond_distance
_geom_bond_site_symmetry_2
Ce0 Sn16 3.398278 1_456
Ce0 Sn0 3.398278 1_455
Ce0 Sn6 3.398278 1_455
Ce0 Sn8 3.398278 1_555
Ce0 Sn19 3.398278 1_556
Ce0 Sn13 3.398278 1_556
Ce0 Sn21 3.398278 1_456
Ce0 Sn3 3.398278 1_555
Ce0 Sn23 3.454185 1_555
Ce0 Sn14 3.454185 1_555
Ce0 Sn9 3.454185 1_555
Ce0 Sn1 3.454185 1_455
Ce0 Ru0 3.472009 1_455
Ce0 Ru4 3.472009 1_555
Ce0 Ru7 3.472009 1_455
Ce0 Ru3 3.472009 1_555
Ce1 Sn1 3.398278 1_554
Ce1 Sn9 3.398278 1_554
Ce1 Sn4 3.398278 1_555
Ce1 Sn12 3.398278 1_554
Ce1 Sn15 3.398278 1_555
Ce1 Sn20 3.398278 1_554
Ce1 Sn7 3.398278 1_555
Ce1 Sn18 3.398278 1_555
Ce1 Sn11 3.454185 1_555
Ce1 Sn2 3.454185 1_554
Ce1 Sn21 3.454185 1_555
Ce1 Sn13 3.454185 1_555
Ce1 Ru6 3.472009 1_555
Ce1 Ru0 3.472009 1_554
Ce1 Ru3 3.472009 1_554
Ce1 Ru5 3.472009 1_555
Ce2 Sn23 3.398278 1_645
Ce2 Sn10 3.398278 1_545
Ce2 Sn17 3.398278 1_645
Ce2 Sn11 3.398278 1_555
Ce2 Sn5 3.398278 1_545
Ce2 Sn2 3.398278 1_555
Ce2 Sn14 3.398278 1_655
Ce2 Sn22 3.398278 1_655
Ce2 Sn6 3.454185 1_545
Ce2 Sn20 3.454185 1_555
Ce2 Sn15 3.454185 1_555
Ce2 Sn0 3.454185 1_555
Ce2 Ru7 3.472009 1_545
Ce2 Ru0 3.472009 1_555
Ce2 Ru5 3.472009 1_555
Ce2 Ru2 3.472009 1_545
Ce3 Sn16 3.398278 1_455
Ce3 Sn0 3.398278 1_455
Ce3 Sn6 3.398278 1_455
Ce3 Sn8 3.398278 1_555
Ce3 Sn21 3.398278 1_455
Ce3 Sn19 3.398278 1_555
Ce3 Sn13 3.398278 1_555
Ce3 Sn3 3.398278 1_555
Ce3 Sn17 3.454185 1_555
Ce3 Sn4 3.454185 1_555
Ce3 Sn7 3.454185 1_455
Ce3 Sn22 3.454185 1_555
Ce3 Ru5 3.472009 1_455
Ce3 Ru6 3.472009 1_555
Ce3 Ru2 3.472009 1_455
Ce3 Ru1 3.472009 1_555
Ce4 Sn1 3.398278 1_554
Ce4 Sn9 3.398278 1_554
Ce4 Sn4 3.398278 1_555
Ce4 Sn15 3.398278 1_565
Ce4 Sn20 3.398278 1_564
Ce4 Sn7 3.398278 1_555
Ce4 Sn12 3.398278 1_564
Ce4 Sn18 3.398278 1_565
Ce4 Sn10 3.454185 1_554
Ce4 Sn5 3.454185 1_555
Ce4 Sn19 3.454185 1_555
Ce4 Sn16 3.454185 1_555
Ce4 Ru4 3.472009 1_554
Ce4 Ru2 3.472009 1_555
Ce4 Ru7 3.472009 1_554
Ce4 Ru1 3.472009 1_555
Ce5 Sn23 3.398278 1_545
Ce5 Sn10 3.398278 1_545
Ce5 Sn11 3.398278 1_555
Ce5 Sn14 3.398278 1_555
Ce5 Sn17 3.398278 1_545
Ce5 Sn5 3.398278 1_545
Ce5 Sn2 3.398278 1_555
Ce5 Sn22 3.398278 1_555
Ce5 Sn8 3.454185 1_555
Ce5 Sn3 3.454185 1_545
Ce5 Sn18 3.454185 1_555
Ce5 Sn12 3.454185 1_555
Ce5 Ru6 3.472009 1_555
Ce5 Ru1 3.472009 1_545
Ce5 Ru4 3.472009 1_545
Ce5 Ru3 3.472009 1_555
Ce6 Sn4 3.469486 1_555
Ce6 Sn7 3.469486 1_555
Ce6 Sn11 3.469486 1_555
Ce6 Sn8 3.469486 1_555
Ce6 Sn2 3.469486 1_555
Ce6 Sn3 3.469486 1_555
Ce6 Sn0 3.469486 1_555
Ce6 Sn5 3.469486 1_555
Ce6 Sn9 3.469486 1_555
Ce6 Sn6 3.469486 1_555
Ce6 Sn10 3.469486 1_555
Ce6 Sn1 3.469486 1_555
Ce7 Sn17 3.469486 1_545
Ce7 Sn21 3.469486 1_455
Ce7 Sn13 3.469486 1_555
Ce7 Sn12 3.469486 1_554
Ce7 Sn22 3.469486 1_555
Ce7 Sn18 3.469486 1_555
Ce7 Sn14 3.469486 1_554
Ce7 Sn16 3.469486 1_445
Ce7 Sn19 3.469486 1_545
Ce7 Sn23 3.469486 1_544
Ce7 Sn20 3.469486 1_454
Ce7 Sn15 3.469486 1_455
Sn0 Sn6 3.040628 1_555
Sn0 Sn22 3.148680 1_655
Sn0 Sn14 3.148680 1_655
Sn1 Sn9 3.040628 1_555
Sn1 Sn16 3.148680 1_556
Sn1 Sn21 3.148680 1_556
Sn2 Sn20 3.148680 1_555
Sn3 Sn8 3.040628 1_555
Sn4 Sn7 3.040628 1_555
Sn10 Sn5 3.040628 1_555
Sn10 Sn12 3.148680 1_565
Sn10 Sn20 3.148680 1_565
Sn11 Sn2 3.040628 1_555
Sn11 Sn15 3.148680 1_555
Sn11 Sn18 3.148680 1_555
Sn12 Sn18 3.040628 1_556
Sn12 Sn2 3.148680 1_555
Sn13 Sn21 3.040628 1_455
Sn13 Sn9 3.148680 1_554
Sn13 Sn4 3.148680 1_555
Sn14 Sn23 3.040628 1_545
Sn14 Sn8 3.148680 1_555
Sn15 Sn20 3.040628 1_554
Sn15 Sn5 3.148680 1_545
Sn16 Sn19 3.040628 1_655
Sn16 Sn7 3.148680 1_555
Sn17 Sn22 3.040628 1_565
Sn17 Sn6 3.148680 1_455
Sn17 Sn3 3.148680 1_555
Sn18 Sn5 3.148680 1_545
Sn19 Sn4 3.148680 1_555
Sn19 Sn9 3.148680 1_554
Sn21 Sn7 3.148680 1_555
Sn22 Sn8 3.148680 1_555
Sn23 Sn3 3.148680 1_555
Sn23 Sn6 3.148680 1_455
Ru0 Sn20 2.709527 1_555
Ru0 Sn21 2.709527 1_556
Ru0 Sn1 2.709527 1_555
Ru0 Sn2 2.709527 1_555
Ru0 Sn0 2.709527 1_555
Ru0 Sn14 2.709527 1_655
Ru1 Sn17 2.709527 1_555
Ru1 Sn5 2.709527 1_555
Ru1 Sn18 2.709527 1_565
Ru1 Sn19 2.709527 1_555
Ru1 Sn3 2.709527 1_555
Ru1 Sn4 2.709527 1_555
Ru2 Sn15 2.709527 1_565
Ru2 Sn17 2.709527 1_655
Ru2 Sn5 2.709527 1_555
Ru2 Sn6 2.709527 1_555
Ru2 Sn7 2.709527 1_555
Ru2 Sn16 2.709527 1_555
Ru3 Sn8 2.709527 1_555
Ru3 Sn14 2.709527 1_555
Ru3 Sn13 2.709527 1_556
Ru3 Sn2 2.709527 1_555
Ru3 Sn9 2.709527 1_555
Ru3 Sn12 2.709527 1_555
Ru4 Sn10 2.709527 1_555
Ru4 Sn23 2.709527 1_555
Ru4 Sn19 2.709527 1_556
Ru4 Sn9 2.709527 1_555
Ru4 Sn12 2.709527 1_565
Ru4 Sn3 2.709527 1_555
Ru5 Sn11 2.709527 1_555
Ru5 Sn0 2.709527 1_555
Ru5 Sn15 2.709527 1_555
Ru5 Sn22 2.709527 1_655
Ru5 Sn21 2.709527 1_555
Ru5 Sn7 2.709527 1_555
Ru6 Sn13 2.709527 1_555
Ru6 Sn11 2.709527 1_555
Ru6 Sn8 2.709527 1_555
Ru6 Sn18 2.709527 1_555
Ru6 Sn22 2.709527 1_555
Ru6 Sn4 2.709527 1_555
Ru7 Sn20 2.709527 1_565
Ru7 Sn10 2.709527 1_555
Ru7 Sn1 2.709527 1_555
Ru7 Sn16 2.709527 1_556
Ru7 Sn23 2.709527 1_655
Ru7 Sn6 2.709527 1_555
