# generated using pymatgen
data_Sc6ReO12
_symmetry_space_group_name_H-M   'P 1'
_cell_length_a   6.13663066
_cell_length_b   6.13663066
_cell_length_c   6.13663113
_cell_angle_alpha   99.14696996
_cell_angle_beta   99.14696996
_cell_angle_gamma   99.14696277
_symmetry_Int_Tables_number   1
_chemical_formula_structural   Sc6ReO12
_chemical_formula_sum   'Sc6 Re1 O12'
_cell_volume   221.19441001
_cell_formula_units_Z   1
loop_
 _symmetry_equiv_pos_site_id
 _symmetry_equiv_pos_as_xyz
  1  'x, y, z'
loop_
 _atom_site_type_symbol
 _atom_site_label
 _atom_site_symmetry_multiplicity
 _atom_site_fract_x
 _atom_site_fract_y
 _atom_site_fract_z
 _atom_site_occupancy
  Sc  Sc0  1  0.85573900  0.39173700  0.67114500  1
  Sc  Sc1  1  0.67114500  0.85573900  0.39173700  1
  Sc  Sc2  1  0.39173700  0.67114500  0.85573900  1
  Sc  Sc3  1  0.14426100  0.60826300  0.32885500  1
  Sc  Sc4  1  0.32885500  0.14426100  0.60826300  1
  Sc  Sc5  1  0.60826300  0.32885500  0.14426100  1
  Re  Re0  1  0.00000000  0.00000000  0.00000000  1
  O  O0  1  0.58681200  0.17778200  0.41801000  1
  O  O1  1  0.41801000  0.58681200  0.17778200  1
  O  O2  1  0.17778200  0.41801000  0.58681200  1
  O  O3  1  0.41318800  0.82221800  0.58199000  1
  O  O4  1  0.58199000  0.41318800  0.82221800  1
  O  O5  1  0.82221800  0.58199000  0.41318800  1
  O  O6  1  0.04452500  0.69601100  0.90201600  1
  O  O7  1  0.30398900  0.09798400  0.95547500  1
  O  O8  1  0.09798400  0.95547500  0.30398900  1
  O  O9  1  0.95547500  0.30398900  0.09798400  1
  O  O10  1  0.69601100  0.90201600  0.04452500  1
  O  O11  1  0.90201600  0.04452500  0.69601100  1
loop_
_geom_bond_atom_site_label_1
_geom_bond_atom_site_label_2
_geom_bond_distance
_geom_bond_site_symmetry_2
O0 Sc5 2.055606 1_555
O0 Sc1 2.109459 1_545
O0 Sc4 2.114632 1_555
O0 Sc0 2.169799 1_555
O1 Sc3 2.055606 1_555
O1 Sc2 2.109459 1_554
O1 Sc5 2.114632 1_555
O1 Sc1 2.169799 1_555
O2 Sc4 2.055605 1_555
O2 Sc0 2.109459 1_455
O2 Sc3 2.114632 1_555
O2 Sc2 2.169799 1_555
O3 Sc2 2.055606 1_555
O3 Sc4 2.109459 1_565
O3 Sc1 2.114632 1_555
O3 Sc3 2.169799 1_555
O4 Sc0 2.055606 1_555
O4 Sc5 2.109459 1_556
O4 Sc2 2.114632 1_555
O4 Sc4 2.169799 1_555
O5 Sc1 2.055605 1_555
O5 Sc3 2.109459 1_655
O5 Sc0 2.114632 1_555
O5 Sc5 2.169799 1_555
O6 Re0 1.942638 1_566
O6 Sc0 2.187514 1_455
O6 Sc2 2.219423 1_555
O7 Re0 1.942638 1_556
O7 Sc5 2.187514 1_556
O7 Sc4 2.219423 1_555
O8 Re0 1.942638 1_565
O8 Sc4 2.187514 1_565
O8 Sc3 2.219423 1_555
O9 Re0 1.942638 1_655
O9 Sc3 2.187514 1_655
O9 Sc5 2.219423 1_555
O10 Re0 1.942638 1_665
O10 Sc2 2.187514 1_554
O10 Sc1 2.219423 1_555
O11 Re0 1.942638 1_656
O11 Sc1 2.187514 1_545
O11 Sc0 2.219423 1_555
