# generated using pymatgen
data_HoNiGe3
_symmetry_space_group_name_H-M   'P 1'
_cell_length_a   10.91233590
_cell_length_b   10.91233590
_cell_length_c   4.06326307
_cell_angle_alpha   90.00000000
_cell_angle_beta   90.00000000
_cell_angle_gamma   158.60644817
_symmetry_Int_Tables_number   1
_chemical_formula_structural   HoNiGe3
_chemical_formula_sum   'Ho2 Ni2 Ge6'
_cell_volume   176.49478868
_cell_formula_units_Z   2
loop_
 _symmetry_equiv_pos_site_id
 _symmetry_equiv_pos_as_xyz
  1  'x, y, z'
loop_
 _atom_site_type_symbol
 _atom_site_label
 _atom_site_symmetry_multiplicity
 _atom_site_fract_x
 _atom_site_fract_y
 _atom_site_fract_z
 _atom_site_occupancy
  Ho  Ho0  1  0.16860235  0.83139765  0.50000000  1
  Ho  Ho1  1  0.83139765  0.16860235  0.50000000  1
  Ni  Ni0  1  0.38935413  0.61064587  -0.00000000  1
  Ni  Ni1  1  0.61064587  0.38935413  0.00000000  1
  Ge  Ge0  1  0.28360149  0.71639851  0.00000000  1
  Ge  Ge1  1  0.71639851  0.28360149  0.00000000  1
  Ge  Ge2  1  0.44256139  0.55743861  0.50000000  1
  Ge  Ge3  1  0.55743861  0.44256139  0.50000000  1
  Ge  Ge4  1  0.05757859  0.94242141  -0.00000000  1
  Ge  Ge5  1  0.94242141  0.05757859  -0.00000000  1
loop_
_geom_bond_atom_site_label_1
_geom_bond_atom_site_label_2
_geom_bond_distance
_geom_bond_site_symmetry_2
Ho0 Ni1 3.126466 1_456
Ho0 Ni1 3.126466 1_455
Ho0 Ni1 3.126466 1_565
Ho0 Ni1 3.126466 1_566
Ho1 Ni0 3.126466 1_546
Ho1 Ni0 3.126466 1_545
Ho1 Ni0 3.126466 1_655
Ho1 Ni0 3.126466 1_656
Ge0 Ni0 2.267911 1_555
Ge0 Ge1 2.485862 1_455
Ge0 Ge1 2.485862 1_565
Ge0 Ho1 3.046413 1_455
Ge0 Ho1 3.046413 1_454
Ge0 Ho1 3.046413 1_565
Ge0 Ho1 3.046413 1_564
Ge0 Ho0 3.195262 1_555
Ge0 Ho0 3.195262 1_554
Ge1 Ni1 2.267911 1_555
Ge1 Ho0 3.046413 1_655
Ge1 Ho0 3.046413 1_544
Ge1 Ho0 3.046413 1_545
Ge1 Ho0 3.046413 1_654
Ge1 Ho1 3.195262 1_555
Ge1 Ho1 3.195262 1_554
Ge2 Ni0 2.330135 1_556
Ge2 Ni0 2.330135 1_555
Ge2 Ge3 2.463591 1_555
Ge2 Ge5 2.868797 1_455
Ge2 Ge5 2.868797 1_456
Ge2 Ge5 2.868797 1_566
Ge2 Ge5 2.868797 1_565
Ge2 Ho1 3.128210 1_565
Ge2 Ho1 3.128210 1_455
Ge3 Ni1 2.330135 1_555
Ge3 Ni1 2.330135 1_556
Ge3 Ge4 2.868797 1_545
Ge3 Ge4 2.868797 1_546
Ge3 Ge4 2.868797 1_655
Ge3 Ge4 2.868797 1_656
Ge3 Ho0 3.128210 1_655
Ge3 Ho0 3.128210 1_545
Ge4 Ni1 2.323278 1_565
Ge4 Ni1 2.323278 1_455
Ge4 Ge5 2.469595 1_465
Ge4 Ho0 3.129930 1_554
Ge4 Ho0 3.129930 1_555
Ge5 Ni0 2.323278 1_655
Ge5 Ni0 2.323278 1_545
Ge5 Ho1 3.129930 1_555
Ge5 Ho1 3.129930 1_554
