# generated using pymatgen
data_TaNi11(BO5)4
_symmetry_space_group_name_H-M   'P 1'
_cell_length_a   6.12563871
_cell_length_b   6.12563871
_cell_length_c   21.81029820
_cell_angle_alpha   79.86142531
_cell_angle_beta   79.86142531
_cell_angle_gamma   60.72195735
_symmetry_Int_Tables_number   1
_chemical_formula_structural   TaNi11(BO5)4
_chemical_formula_sum   'Ta2 Ni22 B8 O40'
_cell_volume   698.84005106
_cell_formula_units_Z   2
loop_
 _symmetry_equiv_pos_site_id
 _symmetry_equiv_pos_as_xyz
  1  'x, y, z'
loop_
 _atom_site_type_symbol
 _atom_site_label
 _atom_site_symmetry_multiplicity
 _atom_site_fract_x
 _atom_site_fract_y
 _atom_site_fract_z
 _atom_site_occupancy
  Ta  Ta0  1  0.71514700  0.28485300  0.75000000  1
  Ta  Ta1  1  0.28485300  0.71514700  0.25000000  1
  Ni  Ni0  1  0.57793000  0.20610900  0.60890600  1
  Ni  Ni1  1  0.42207000  0.79389100  0.39109400  1
  Ni  Ni2  1  0.79389100  0.42207000  0.89109400  1
  Ni  Ni3  1  0.20610900  0.57793000  0.10890600  1
  Ni  Ni4  1  0.00000000  0.00000000  0.50000000  1
  Ni  Ni5  1  0.00000000  0.00000000  0.00000000  1
  Ni  Ni6  1  0.18838500  0.81161500  0.75000000  1
  Ni  Ni7  1  0.81161500  0.18838500  0.25000000  1
  Ni  Ni8  1  0.68069300  0.81750500  0.75026800  1
  Ni  Ni9  1  0.31930700  0.18249500  0.24973200  1
  Ni  Ni10  1  0.18249500  0.31930700  0.74973200  1
  Ni  Ni11  1  0.81750500  0.68069300  0.25026800  1
  Ni  Ni12  1  0.49962900  0.74943300  0.99946800  1
  Ni  Ni13  1  0.50037100  0.25056700  0.00053200  1
  Ni  Ni14  1  0.25056700  0.50037100  0.50053200  1
  Ni  Ni15  1  0.74943300  0.49962900  0.49946800  1
  Ni  Ni16  1  0.50000000  0.00000000  0.50000000  1
  Ni  Ni17  1  0.00000000  0.50000000  0.00000000  1
  Ni  Ni18  1  0.79555500  0.91725000  0.89346600  1
  Ni  Ni19  1  0.20444500  0.08275000  0.10653400  1
  Ni  Ni20  1  0.08275000  0.20444500  0.60653400  1
  Ni  Ni21  1  0.91725000  0.79555500  0.39346600  1
  B  B0  1  0.57086100  0.69441700  0.63015800  1
  B  B1  1  0.42913900  0.30558300  0.36984200  1
  B  B2  1  0.30558300  0.42913900  0.86984200  1
  B  B3  1  0.69441700  0.57086100  0.13015800  1
  B  B4  1  0.30340200  0.93170000  0.86832900  1
  B  B5  1  0.69659800  0.06830000  0.13167100  1
  B  B6  1  0.06830000  0.69659800  0.63167100  1
  B  B7  1  0.93170000  0.30340200  0.36832900  1
  O  O0  1  0.33116300  0.95991900  0.80217000  1
  O  O1  1  0.66883700  0.04008100  0.19783000  1
  O  O2  1  0.04008100  0.66883700  0.69783000  1
  O  O3  1  0.95991900  0.33116300  0.30217000  1
  O  O4  1  0.61947400  0.24371200  0.51368000  1
  O  O5  1  0.38052600  0.75628800  0.48632000  1
  O  O6  1  0.75628800  0.38052600  0.98632000  1
  O  O7  1  0.24371200  0.61947400  0.01368000  1
  O  O8  1  0.51586900  0.80166500  0.90009400  1
  O  O9  1  0.48413100  0.19833500  0.09990600  1
  O  O10  1  0.19833500  0.48413100  0.59990600  1
  O  O11  1  0.80166500  0.51586900  0.40009400  1
  O  O12  1  0.51805400  0.29919200  0.90103700  1
  O  O13  1  0.48194600  0.70080800  0.09896300  1
  O  O14  1  0.70080800  0.48194600  0.59896300  1
  O  O15  1  0.29919200  0.51805400  0.40103700  1
  O  O16  1  0.46964100  0.93418800  0.60026900  1
  O  O17  1  0.53035900  0.06581200  0.39973100  1
  O  O18  1  0.06581200  0.53035900  0.89973100  1
  O  O19  1  0.93418800  0.46964100  0.10026900  1
  O  O20  1  0.83047200  0.96609200  0.80003200  1
  O  O21  1  0.16952800  0.03390800  0.19996800  1
  O  O22  1  0.03390800  0.16952800  0.69996800  1
  O  O23  1  0.96609200  0.83047200  0.30003200  1
  O  O24  1  0.53855100  0.18215600  0.70338900  1
  O  O25  1  0.46144900  0.81784400  0.29661100  1
  O  O26  1  0.81784400  0.46144900  0.79661100  1
  O  O27  1  0.18215600  0.53855100  0.20338900  1
  O  O28  1  0.93605900  0.96510800  0.09992300  1
  O  O29  1  0.06394100  0.03489200  0.90007700  1
  O  O30  1  0.03489200  0.06394100  0.40007700  1
  O  O31  1  0.96510800  0.93605900  0.59992300  1
  O  O32  1  0.75512200  0.88041400  0.98739600  1
  O  O33  1  0.24487800  0.11958600  0.01260400  1
  O  O34  1  0.11958600  0.24487800  0.51260400  1
  O  O35  1  0.88041400  0.75512200  0.48739600  1
  O  O36  1  0.54381500  0.65746100  0.69698600  1
  O  O37  1  0.45618500  0.34253900  0.30301400  1
  O  O38  1  0.34253900  0.45618500  0.80301400  1
  O  O39  1  0.65746100  0.54381500  0.19698600  1
loop_
_geom_bond_atom_site_label_1
_geom_bond_atom_site_label_2
_geom_bond_distance
_geom_bond_site_symmetry_2
Ni0 O24 2.019747 1_555
Ni0 O4 2.033272 1_555
Ni0 O16 2.117830 1_545
Ni0 O31 2.124375 1_545
Ni0 O10 2.124963 1_555
Ni0 O14 2.127466 1_555
Ni1 O25 2.019747 1_555
Ni1 O5 2.033272 1_555
Ni1 O17 2.117830 1_565
Ni1 O30 2.124375 1_565
Ni1 O11 2.124963 1_555
Ni1 O15 2.127466 1_555
Ni2 O26 2.019747 1_555
Ni2 O6 2.033272 1_555
Ni2 O18 2.117830 1_655
Ni2 O29 2.124375 1_655
Ni2 O8 2.124963 1_555
Ni2 O12 2.127466 1_555
Ni3 O27 2.019747 1_555
Ni3 O7 2.033272 1_555
Ni3 O19 2.117830 1_455
Ni3 O28 2.124375 1_455
Ni3 O9 2.124963 1_555
Ni3 O13 2.127466 1_555
Ni4 O34 2.037921 1_555
Ni4 O35 2.037921 1_445
Ni4 O4 2.063845 1_455
Ni4 O5 2.063845 1_545
Ni4 O31 2.136828 1_445
Ni4 O30 2.136828 1_555
Ni5 O33 2.037921 1_555
Ni5 O32 2.037921 1_444
Ni5 O7 2.063845 1_545
Ni5 O6 2.063845 1_454
Ni5 O28 2.136828 1_445
Ni5 O29 2.136828 1_554
Ni6 O2 2.091968 1_555
Ni6 O0 2.091968 1_555
Ni6 O20 2.094049 1_455
Ni6 O22 2.094049 1_565
Ni6 O36 2.110960 1_555
Ni6 O38 2.110960 1_555
Ni7 O1 2.091968 1_555
Ni7 O3 2.091968 1_555
Ni7 O23 2.094049 1_545
Ni7 O21 2.094049 1_655
Ni7 O39 2.110960 1_555
Ni7 O37 2.110960 1_555
Ni8 O26 2.053070 1_555
Ni8 O0 2.072244 1_555
Ni8 O20 2.088886 1_555
Ni8 O24 2.097638 1_565
Ni8 O2 2.122078 1_655
Ni8 O36 2.136061 1_555
Ni9 O27 2.053070 1_555
Ni9 O1 2.072244 1_555
Ni9 O21 2.088886 1_555
Ni9 O25 2.097638 1_545
Ni9 O3 2.122078 1_455
Ni9 O37 2.136061 1_555
Ni10 O24 2.053070 1_555
Ni10 O2 2.072244 1_555
Ni10 O22 2.088886 1_555
Ni10 O26 2.097638 1_455
Ni10 O0 2.122078 1_545
Ni10 O38 2.136061 1_555
Ni11 O25 2.053070 1_555
Ni11 O3 2.072244 1_555
Ni11 O23 2.088886 1_555
Ni11 O27 2.097638 1_655
Ni11 O1 2.122078 1_565
Ni11 O39 2.136061 1_555
Ni12 O7 2.037172 1_556
Ni12 O32 2.042362 1_555
Ni12 O6 2.062788 1_555
Ni12 O33 2.066145 1_566
Ni12 O8 2.126234 1_555
Ni12 O13 2.128537 1_556
Ni13 O6 2.037172 1_554
Ni13 O33 2.042362 1_555
Ni13 O7 2.062788 1_555
Ni13 O32 2.066145 1_544
Ni13 O9 2.126234 1_555
Ni13 O12 2.128537 1_554
Ni14 O5 2.037172 1_555
Ni14 O34 2.042362 1_555
Ni14 O4 2.062788 1_555
Ni14 O35 2.066145 1_455
Ni14 O10 2.126234 1_555
Ni14 O15 2.128537 1_555
Ni15 O4 2.037172 1_555
Ni15 O35 2.042362 1_555
Ni15 O5 2.062788 1_555
Ni15 O34 2.066145 1_655
Ni15 O11 2.126234 1_555
Ni15 O14 2.128537 1_555
Ni16 O4 2.038553 1_555
Ni16 O5 2.038553 1_545
Ni16 O35 2.063149 1_545
Ni16 O34 2.063149 1_555
Ni16 O16 2.144619 1_545
Ni16 O17 2.144619 1_555
Ni17 O7 2.038553 1_555
Ni17 O6 2.038553 1_454
Ni17 O32 2.063149 1_454
Ni17 O33 2.063149 1_555
Ni17 O19 2.144619 1_455
Ni17 O18 2.144619 1_554
Ni18 O20 1.995615 1_555
Ni18 O32 2.005611 1_555
Ni18 O18 2.122296 1_655
Ni18 O8 2.126192 1_555
Ni18 O29 2.126449 1_665
Ni18 O12 2.130248 1_565
Ni19 O21 1.995615 1_555
Ni19 O33 2.005611 1_555
Ni19 O19 2.122296 1_455
Ni19 O9 2.126192 1_555
Ni19 O28 2.126449 1_445
Ni19 O13 2.130248 1_545
Ni20 O22 1.995615 1_555
Ni20 O34 2.005611 1_555
Ni20 O16 2.122296 1_545
Ni20 O10 2.126192 1_555
Ni20 O31 2.126449 1_445
Ni20 O14 2.130248 1_455
Ni21 O23 1.995615 1_555
Ni21 O35 2.005611 1_555
Ni21 O17 2.122296 1_565
Ni21 O11 2.126192 1_555
Ni21 O30 2.126449 1_665
Ni21 O15 2.130248 1_655
B0 O16 1.371538 1_555
B0 O14 1.377769 1_555
B0 O36 1.427802 1_555
B1 O17 1.371538 1_555
B1 O15 1.377769 1_555
B1 O37 1.427802 1_555
B2 O18 1.371538 1_555
B2 O12 1.377769 1_555
B2 O38 1.427802 1_555
B3 O19 1.371538 1_555
B3 O13 1.377769 1_555
B3 O39 1.427802 1_555
B4 O8 1.384746 1_555
B4 O29 1.385744 1_565
B4 O0 1.412603 1_555
B5 O9 1.384746 1_555
B5 O28 1.385744 1_545
B5 O1 1.412603 1_555
B6 O10 1.384746 1_555
B6 O31 1.385744 1_455
B6 O2 1.412603 1_555
B7 O11 1.384746 1_555
B7 O30 1.385744 1_655
B7 O3 1.412603 1_555
O20 Ta0 1.916917 1_565
O21 Ta1 1.916917 1_545
O22 Ta0 1.916917 1_455
O23 Ta1 1.916917 1_655
O24 Ta0 1.969103 1_555
O25 Ta1 1.969103 1_555
O26 Ta0 1.969103 1_555
O27 Ta1 1.969103 1_555
O36 Ta0 2.191604 1_555
O37 Ta1 2.191604 1_555
O38 Ta0 2.191604 1_555
O39 Ta1 2.191604 1_555
