# generated using pymatgen
data_Cs4Ge(PSe3)4
_symmetry_space_group_name_H-M   'P 1'
_cell_length_a   7.99414014
_cell_length_b   15.07207153
_cell_length_c   25.33451712
_cell_angle_alpha   90.00000000
_cell_angle_beta   90.00000000
_cell_angle_gamma   90.00000000
_symmetry_Int_Tables_number   1
_chemical_formula_structural   Cs4Ge(PSe3)4
_chemical_formula_sum   'Cs16 Ge4 P16 Se48'
_cell_volume   3052.51168333
_cell_formula_units_Z   4
loop_
 _symmetry_equiv_pos_site_id
 _symmetry_equiv_pos_as_xyz
  1  'x, y, z'
loop_
 _atom_site_type_symbol
 _atom_site_label
 _atom_site_symmetry_multiplicity
 _atom_site_fract_x
 _atom_site_fract_y
 _atom_site_fract_z
 _atom_site_occupancy
  Cs  Cs0  1  0.27105525  0.46331130  0.55884564  1
  Cs  Cs1  1  0.72894475  0.53668870  0.05884564  1
  Cs  Cs2  1  0.27105525  0.03668870  0.05884564  1
  Cs  Cs3  1  0.72894475  0.96331130  0.55884564  1
  Cs  Cs4  1  0.23067582  0.12463596  0.66534539  1
  Cs  Cs5  1  0.76932418  0.87536404  0.16534539  1
  Cs  Cs6  1  0.23067582  0.37536404  0.16534539  1
  Cs  Cs7  1  0.76932418  0.62463596  0.66534539  1
  Cs  Cs8  1  0.21580962  0.82419265  0.78879822  1
  Cs  Cs9  1  0.78419038  0.17580735  0.28879822  1
  Cs  Cs10  1  0.21580962  0.67580735  0.28879822  1
  Cs  Cs11  1  0.78419038  0.32419265  0.78879822  1
  Cs  Cs12  1  0.18251478  0.67220237  0.93624917  1
  Cs  Cs13  1  0.81748522  0.32779763  0.43624917  1
  Cs  Cs14  1  0.18251478  0.82779763  0.43624917  1
  Cs  Cs15  1  0.81748522  0.17220237  0.93624917  1
  Ge  Ge0  1  0.32849054  0.42286584  0.86662308  1
  Ge  Ge1  1  0.67150946  0.57713416  0.36662308  1
  Ge  Ge2  1  0.32849054  0.07713416  0.36662308  1
  Ge  Ge3  1  0.67150946  0.92286584  0.86662308  1
  P  P0  1  0.27379569  0.40352883  0.72337891  1
  P  P1  1  0.72620431  0.59647117  0.22337891  1
  P  P2  1  0.27379569  0.09647117  0.22337891  1
  P  P3  1  0.72620431  0.90352883  0.72337891  1
  P  P4  1  0.77326533  0.04391190  0.75658401  1
  P  P5  1  0.22673467  0.95608810  0.25658401  1
  P  P6  1  0.77326533  0.45608810  0.25658401  1
  P  P7  1  0.22673467  0.54391190  0.75658401  1
  P  P8  1  0.16997258  0.39313798  0.99962402  1
  P  P9  1  0.83002742  0.60686202  0.49962402  1
  P  P10  1  0.16997258  0.10686202  0.49962402  1
  P  P11  1  0.83002742  0.89313798  0.99962402  1
  P  P12  1  0.38427543  0.29655227  0.97940359  1
  P  P13  1  0.61572457  0.70344773  0.47940359  1
  P  P14  1  0.38427543  0.20344773  0.47940359  1
  P  P15  1  0.61572457  0.79655227  0.97940359  1
  Se  Se0  1  0.51018968  0.39816977  0.68277300  1
  Se  Se1  1  0.48981032  0.60183023  0.18277300  1
  Se  Se2  1  0.51018968  0.10183023  0.18277300  1
  Se  Se3  1  0.48981032  0.89816977  0.68277300  1
  Se  Se4  1  0.05487389  0.36666437  0.67831199  1
  Se  Se5  1  0.94512611  0.63333563  0.17831199  1
  Se  Se6  1  0.05487389  0.13333563  0.17831199  1
  Se  Se7  1  0.94512611  0.86666437  0.67831199  1
  Se  Se8  1  0.27450080  0.31380424  0.79948606  1
  Se  Se9  1  0.72549920  0.68619576  0.29948606  1
  Se  Se10  1  0.27450080  0.18619576  0.29948606  1
  Se  Se11  1  0.72549920  0.81380424  0.79948606  1
  Se  Se12  1  0.71330939  0.13597775  0.69458528  1
  Se  Se13  1  0.28669061  0.86402225  0.19458528  1
  Se  Se14  1  0.71330939  0.36402225  0.19458528  1
  Se  Se15  1  0.28669061  0.63597775  0.69458528  1
  Se  Se16  1  0.01325926  0.05414733  0.79598685  1
  Se  Se17  1  0.98674074  0.94585267  0.29598685  1
  Se  Se18  1  0.01325926  0.44585267  0.29598685  1
  Se  Se19  1  0.98674074  0.55414733  0.79598685  1
  Se  Se20  1  0.56612009  0.05117302  0.82103362  1
  Se  Se21  1  0.43387991  0.94882698  0.32103362  1
  Se  Se22  1  0.56612009  0.44882698  0.32103362  1
  Se  Se23  1  0.43387991  0.55117302  0.82103362  1
  Se  Se24  1  0.07012721  0.43135573  0.91556127  1
  Se  Se25  1  0.92987279  0.56864427  0.41556127  1
  Se  Se26  1  0.07012721  0.06864427  0.41556127  1
  Se  Se27  1  0.92987279  0.93135573  0.91556127  1
  Se  Se28  1  0.25828432  0.99012368  0.54079245  1
  Se  Se29  1  0.74171568  0.00987632  0.04079245  1
  Se  Se30  1  0.25828432  0.50987632  0.04079245  1
  Se  Se31  1  0.74171568  0.49012368  0.54079245  1
  Se  Se32  1  0.02541411  0.68195373  0.53766104  1
  Se  Se33  1  0.97458589  0.31804627  0.03766104  1
  Se  Se34  1  0.02541411  0.81804627  0.03766104  1
  Se  Se35  1  0.97458589  0.18195373  0.53766104  1
  Se  Se36  1  0.54880774  0.39347167  0.92852026  1
  Se  Se37  1  0.45119226  0.60652833  0.42852026  1
  Se  Se38  1  0.54880774  0.10652833  0.42852026  1
  Se  Se39  1  0.45119226  0.89347167  0.92852026  1
  Se  Se40  1  0.51621447  0.23239922  0.55101332  1
  Se  Se41  1  0.48378553  0.76760078  0.05101332  1
  Se  Se42  1  0.51621447  0.26760078  0.05101332  1
  Se  Se43  1  0.48378553  0.73239922  0.55101332  1
  Se  Se44  1  0.29839963  0.19021601  0.92879281  1
  Se  Se45  1  0.70160037  0.80978399  0.42879281  1
  Se  Se46  1  0.29839963  0.30978399  0.42879281  1
  Se  Se47  1  0.70160037  0.69021601  0.92879281  1
loop_
_geom_bond_atom_site_label_1
_geom_bond_atom_site_label_2
_geom_bond_distance
_geom_bond_site_symmetry_2
Cs0 Se4 3.777426 1_555
Cs0 Se0 3.804708 1_555
Cs0 Se31 3.811705 1_555
Cs0 Se32 3.873467 1_555
Cs0 Se40 3.999123 1_555
Cs0 Se46 4.032138 1_555
Cs0 Se37 4.199357 1_555
Cs0 Se31 4.275402 1_455
Cs0 Se15 4.314434 1_555
Cs1 Se5 3.777426 1_555
Cs1 Se1 3.804708 1_555
Cs1 Se30 3.811705 1_555
Cs1 Se33 3.873467 1_555
Cs1 Se41 3.999123 1_555
Cs1 Se47 4.032138 1_554
Cs1 Se36 4.199357 1_554
Cs1 Se30 4.275402 1_655
Cs1 Se14 4.314434 1_555
Cs2 Se6 3.777426 1_555
Cs2 Se2 3.804708 1_555
Cs2 Se29 3.811705 1_555
Cs2 Se34 3.873467 1_545
Cs2 Se42 3.999123 1_555
Cs2 Se44 4.032138 1_554
Cs2 Se39 4.199357 1_544
Cs2 Se29 4.275402 1_455
Cs2 Se13 4.314434 1_545
Cs3 Se7 3.777426 1_555
Cs3 Se3 3.804708 1_555
Cs3 Se28 3.811705 1_555
Cs3 Se35 3.873467 1_565
Cs3 Se43 3.999123 1_555
Cs3 Se45 4.032138 1_555
Cs3 Se38 4.199357 1_565
Cs3 Se28 4.275402 1_655
Cs3 Se12 4.314434 1_565
Cs4 Se28 3.757138 1_545
Cs4 Se16 3.886377 1_555
Cs4 Se4 3.923006 1_555
Cs4 Se35 3.924474 1_455
Cs4 Se12 3.932428 1_555
Cs4 Se3 4.017089 1_545
Cs4 Se40 4.029701 1_555
Cs4 Se12 4.205192 1_455
Cs5 Se29 3.757138 1_565
Cs5 Se17 3.886377 1_555
Cs5 Se5 3.923006 1_555
Cs5 Se34 3.924474 1_655
Cs5 Se13 3.932428 1_555
Cs5 Se2 4.017089 1_565
Cs5 Se41 4.029701 1_555
Cs5 Se13 4.205192 1_655
Cs6 Se30 3.757138 1_555
Cs6 Se18 3.886377 1_555
Cs6 Se6 3.923006 1_555
Cs6 Se33 3.924474 1_455
Cs6 Se14 3.932428 1_555
Cs6 Se1 4.017089 1_555
Cs6 Se42 4.029701 1_555
Cs6 Se14 4.205192 1_455
Cs7 Se31 3.757138 1_555
Cs7 Se19 3.886377 1_555
Cs7 Se7 3.923006 1_555
Cs7 Se32 3.924474 1_655
Cs7 Se15 3.932428 1_555
Cs7 Se0 4.017089 1_555
Cs7 Se43 4.029701 1_555
Cs7 Se15 4.205192 1_655
Cs8 Se7 3.595442 1_455
Cs8 Se3 3.640903 1_555
Cs8 Se15 3.750392 1_555
Cs8 Se16 3.829810 1_565
Cs8 Se11 3.932070 1_455
Cs8 Se11 4.086518 1_555
Cs8 Se39 4.142602 1_555
Cs8 Se27 4.259971 1_455
Cs9 Se6 3.595442 1_655
Cs9 Se2 3.640903 1_555
Cs9 Se14 3.750392 1_555
Cs9 Se17 3.829810 1_545
Cs9 Se10 3.932070 1_655
Cs9 Se10 4.086518 1_555
Cs9 Se38 4.142602 1_555
Cs9 Se26 4.259971 1_655
Cs10 Se5 3.595442 1_455
Cs10 Se1 3.640903 1_555
Cs10 Se13 3.750392 1_555
Cs10 Se18 3.829810 1_555
Cs10 Se9 3.932070 1_455
Cs10 Se9 4.086518 1_555
Cs10 Se37 4.142602 1_555
Cs10 Se25 4.259971 1_455
Cs11 Se4 3.595442 1_655
Cs11 Se0 3.640903 1_555
Cs11 Se12 3.750392 1_555
Cs11 Se19 3.829810 1_555
Cs11 Se8 3.932070 1_655
Cs11 Se8 4.086518 1_555
Cs11 Se36 4.142602 1_555
Cs11 Se24 4.259971 1_655
Cs12 Se34 3.606950 1_556
Cs12 Se30 3.656163 1_556
Cs12 Se24 3.776138 1_555
Cs12 Se47 3.858699 1_455
Cs12 Se39 3.971614 1_555
Cs12 Se23 3.985675 1_555
Cs12 Se41 4.039967 1_556
Cs12 Se47 4.162804 1_555
Cs12 Se19 4.271136 1_455
Cs13 Se35 3.606950 1_555
Cs13 Se31 3.656163 1_555
Cs13 Se25 3.776138 1_555
Cs13 Se46 3.858699 1_655
Cs13 Se38 3.971614 1_555
Cs13 Se22 3.985675 1_555
Cs13 Se40 4.039967 1_555
Cs13 Se46 4.162804 1_555
Cs13 Se18 4.271136 1_655
Cs14 Se32 3.606950 1_555
Cs14 Se28 3.656163 1_555
Cs14 Se26 3.776138 1_565
Cs14 Se45 3.858699 1_455
Cs14 Se37 3.971614 1_555
Cs14 Se21 3.985675 1_555
Cs14 Se43 4.039967 1_555
Cs14 Se45 4.162804 1_555
Cs14 Se17 4.271136 1_455
Cs15 Se33 3.606950 1_556
Cs15 Se29 3.656163 1_556
Cs15 Se27 3.776138 1_545
Cs15 Se44 3.858699 1_655
Cs15 Se36 3.971614 1_555
Cs15 Se20 3.985675 1_555
Cs15 Se42 4.039967 1_556
Cs15 Se44 4.162804 1_555
Cs15 Se16 4.271136 1_655
Ge0 Se36 2.399440 1_555
Ge0 Se8 2.404436 1_555
Ge0 Se23 2.404910 1_555
Ge0 Se24 2.412341 1_555
Ge1 Se37 2.399440 1_555
Ge1 Se9 2.404436 1_555
Ge1 Se22 2.404910 1_555
Ge1 Se25 2.412341 1_555
Ge2 Se38 2.399440 1_555
Ge2 Se10 2.404436 1_555
Ge2 Se21 2.404910 1_545
Ge2 Se26 2.412341 1_555
Ge3 Se39 2.399440 1_555
Ge3 Se11 2.404436 1_555
Ge3 Se20 2.404910 1_565
Ge3 Se27 2.412341 1_555
P0 Se0 2.153144 1_555
P0 Se4 2.162204 1_555
P0 P7 2.307833 1_555
P0 Se8 2.355113 1_555
P1 Se1 2.153144 1_555
P1 Se5 2.162204 1_555
P1 P6 2.307833 1_555
P1 Se9 2.355113 1_555
P2 Se2 2.153144 1_555
P2 Se6 2.162204 1_555
P2 P5 2.307833 1_545
P2 Se10 2.355113 1_555
P3 Se3 2.153144 1_555
P3 Se7 2.162204 1_555
P3 P4 2.307833 1_565
P3 Se11 2.355113 1_555
P4 Se12 2.149964 1_555
P4 Se16 2.168207 1_655
P4 Se20 2.328127 1_555
P5 Se13 2.149964 1_555
P5 Se17 2.168207 1_455
P5 Se21 2.328127 1_555
P6 Se14 2.149964 1_555
P6 Se18 2.168207 1_655
P6 Se22 2.328127 1_555
P7 Se15 2.149964 1_555
P7 Se19 2.168207 1_455
P7 Se23 2.328127 1_555
P8 Se33 2.156211 1_456
P8 Se30 2.163796 1_556
P8 Se24 2.346159 1_555
P9 Se32 2.156211 1_655
P9 Se31 2.163796 1_555
P9 Se25 2.346159 1_555
P10 Se35 2.156211 1_455
P10 Se28 2.163796 1_545
P10 P14 2.305768 1_555
P10 Se26 2.346159 1_555
P11 Se34 2.156211 1_656
P11 Se29 2.163796 1_566
P11 P15 2.305768 1_555
P11 Se27 2.346159 1_555
P12 Se42 2.143408 1_556
P12 Se44 2.164254 1_555
P12 P8 2.305768 1_555
P12 Se36 2.350672 1_555
P13 Se43 2.143408 1_555
P13 Se45 2.164254 1_555
P13 P9 2.305768 1_555
P13 Se37 2.350672 1_555
P14 Se40 2.143408 1_555
P14 Se46 2.164254 1_555
P14 Se38 2.350672 1_555
P15 Se41 2.143408 1_556
P15 Se47 2.164254 1_555
P15 Se39 2.350672 1_555
