# generated using pymatgen
data_Y5(MoO6)2
_symmetry_space_group_name_H-M   'P 1'
_cell_length_a   6.76060513
_cell_length_b   6.76060513
_cell_length_c   7.51310797
_cell_angle_alpha   73.68445137
_cell_angle_beta   73.68445137
_cell_angle_gamma   49.98582477
_symmetry_Int_Tables_number   1
_chemical_formula_structural   Y5(MoO6)2
_chemical_formula_sum   'Y5 Mo2 O12'
_cell_volume   250.04723401
_cell_formula_units_Z   1
loop_
 _symmetry_equiv_pos_site_id
 _symmetry_equiv_pos_as_xyz
  1  'x, y, z'
loop_
 _atom_site_type_symbol
 _atom_site_label
 _atom_site_symmetry_multiplicity
 _atom_site_fract_x
 _atom_site_fract_y
 _atom_site_fract_z
 _atom_site_occupancy
  Y  Y0  1  0.50000000  0.50000000  0.50000000  1
  Y  Y1  1  0.18481356  0.18481356  0.17821365  1
  Y  Y2  1  0.81518644  0.81518644  0.82178635  1
  Y  Y3  1  0.80600934  0.80600934  0.36036475  1
  Y  Y4  1  0.19399066  0.19399066  0.63963525  1
  Mo  Mo0  1  0.71669162  0.28330838  -0.00000000  1
  Mo  Mo1  1  0.28330838  0.71669162  -0.00000000  1
  O  O0  1  0.99926829  0.99926829  0.18209238  1
  O  O1  1  0.00073171  0.00073171  0.81790762  1
  O  O2  1  0.49912414  0.49912414  0.79531230  1
  O  O3  1  0.50087586  0.50087586  0.20468770  1
  O  O4  1  0.59731914  0.09294389  0.57506237  1
  O  O5  1  0.90705611  0.40268086  0.42493763  1
  O  O6  1  0.40268086  0.90705611  0.42493763  1
  O  O7  1  0.40781430  0.91866725  0.91745835  1
  O  O8  1  0.08133275  0.59218570  0.08254165  1
  O  O9  1  0.59218570  0.08133275  0.08254165  1
  O  O10  1  0.91866725  0.40781430  0.91745835  1
  O  O11  1  0.09294389  0.59731914  0.57506237  1
loop_
_geom_bond_atom_site_label_1
_geom_bond_atom_site_label_2
_geom_bond_distance
_geom_bond_site_symmetry_2
Mo0 O9 1.914838 1_555
Mo0 O10 1.914838 1_554
Mo0 O2 1.976799 1_554
Mo0 O3 1.976799 1_555
Mo0 O0 2.117452 1_545
Mo0 O1 2.117452 1_654
Mo1 O8 1.914838 1_555
Mo1 O7 1.914838 1_554
Mo1 O2 1.976799 1_554
Mo1 O3 1.976799 1_555
Mo1 O0 2.117452 1_455
Mo1 O1 2.117452 1_564
O0 Y1 2.265010 1_665
O0 Y3 2.331701 1_555
O1 Y2 2.265010 1_445
O1 Y4 2.331701 1_555
O2 Y0 2.215410 1_555
O3 Y0 2.215410 1_555
O4 Y2 2.270080 1_545
O4 Y4 2.277000 1_555
O4 Y3 2.305517 1_545
O4 Y0 2.309170 1_555
O5 Y1 2.270080 1_655
O5 Y3 2.277000 1_555
O5 Y4 2.305517 1_655
O5 Y0 2.309170 1_555
O6 Y1 2.270080 1_565
O6 Y3 2.277000 1_555
O6 Y4 2.305517 1_565
O6 Y0 2.309170 1_555
O7 Y2 2.298619 1_555
O7 Y4 2.442017 1_565
O7 Y1 2.486188 1_566
O8 Y1 2.298619 1_555
O8 Y3 2.442017 1_455
O8 Y2 2.486188 1_454
O9 Y1 2.298619 1_555
O9 Y3 2.442017 1_545
O9 Y2 2.486188 1_544
O10 Y2 2.298619 1_555
O10 Y4 2.442017 1_655
O10 Y1 2.486188 1_656
O11 Y2 2.270080 1_455
O11 Y4 2.277000 1_555
O11 Y3 2.305517 1_455
O11 Y0 2.309170 1_555
