# generated using pymatgen
data_H6PbCBr3N
_symmetry_space_group_name_H-M   'P 1'
_cell_length_a   8.42167000
_cell_length_b   8.54700200
_cell_length_c   12.18399300
_cell_angle_alpha   90.00000000
_cell_angle_beta   90.00000000
_cell_angle_gamma   90.00000000
_symmetry_Int_Tables_number   1
_chemical_formula_structural   H6PbCBr3N
_chemical_formula_sum   'H24 Pb4 C4 Br12 N4'
_cell_volume   877.00418572
_cell_formula_units_Z   4
loop_
 _symmetry_equiv_pos_site_id
 _symmetry_equiv_pos_as_xyz
  1  'x, y, z'
loop_
 _atom_site_type_symbol
 _atom_site_label
 _atom_site_symmetry_multiplicity
 _atom_site_fract_x
 _atom_site_fract_y
 _atom_site_fract_z
 _atom_site_occupancy
  H  H0  1  0.89115400  0.08155100  0.18191900  1
  H  H1  1  0.10884600  0.91844900  0.81808100  1
  H  H2  1  0.39115400  0.41844900  0.81808100  1
  H  H3  1  0.60884600  0.58155100  0.18191900  1
  H  H4  1  0.60884600  0.58155100  0.31808100  1
  H  H5  1  0.39115400  0.41844900  0.68191900  1
  H  H6  1  0.10884600  0.91844900  0.68191900  1
  H  H7  1  0.89115400  0.08155100  0.31808100  1
  H  H8  1  0.88272000  0.09225500  0.67585700  1
  H  H9  1  0.11728000  0.90774500  0.32414300  1
  H  H10  1  0.38272000  0.40774500  0.32414300  1
  H  H11  1  0.61728000  0.59225500  0.67585700  1
  H  H12  1  0.61728000  0.59225500  0.82414300  1
  H  H13  1  0.38272000  0.40774500  0.17585700  1
  H  H14  1  0.11728000  0.90774500  0.17585700  1
  H  H15  1  0.88272000  0.09225500  0.82414300  1
  H  H16  1  0.04160300  0.16223700  0.25000000  1
  H  H17  1  0.95839700  0.83776300  0.75000000  1
  H  H18  1  0.54160300  0.33776300  0.75000000  1
  H  H19  1  0.45839700  0.66223700  0.25000000  1
  H  H20  1  0.04620500  0.17620300  0.75000000  1
  H  H21  1  0.95379500  0.82379700  0.25000000  1
  H  H22  1  0.54620500  0.32379700  0.25000000  1
  H  H23  1  0.45379500  0.67620300  0.75000000  1
  Pb  Pb0  1  0.50000000  0.00000000  0.00000000  1
  Pb  Pb1  1  0.00000000  0.50000000  0.00000000  1
  Pb  Pb2  1  0.00000000  0.50000000  0.50000000  1
  Pb  Pb3  1  0.50000000  0.00000000  0.50000000  1
  C  C0  1  0.95557100  0.08458700  0.75000000  1
  C  C1  1  0.04442900  0.91541300  0.25000000  1
  C  C2  1  0.45557100  0.41541300  0.25000000  1
  C  C3  1  0.54442900  0.58458700  0.75000000  1
  Br  Br0  1  0.19902400  0.20047100  0.01757100  1
  Br  Br1  1  0.80097600  0.79952900  0.98242900  1
  Br  Br2  1  0.69902400  0.29952900  0.98242900  1
  Br  Br3  1  0.30097600  0.70047100  0.01757100  1
  Br  Br4  1  0.30097600  0.70047100  0.48242900  1
  Br  Br5  1  0.69902400  0.29952900  0.51757100  1
  Br  Br6  1  0.80097600  0.79952900  0.51757100  1
  Br  Br7  1  0.19902400  0.20047100  0.48242900  1
  Br  Br8  1  0.43870700  0.02426100  0.75000000  1
  Br  Br9  1  0.56129300  0.97573900  0.25000000  1
  Br  Br10  1  0.93870700  0.47573900  0.25000000  1
  Br  Br11  1  0.06129300  0.52426100  0.75000000  1
  N  N0  1  0.96305100  0.06995100  0.25000000  1
  N  N1  1  0.03694900  0.93004900  0.75000000  1
  N  N2  1  0.46305100  0.43004900  0.75000000  1
  N  N3  1  0.53694900  0.56995100  0.25000000  1
loop_
_geom_bond_atom_site_label_1
_geom_bond_atom_site_label_2
_geom_bond_distance
_geom_bond_site_symmetry_2
H0 N0 1.031755 1_555
H1 N1 1.031755 1_555
H2 N2 1.031755 1_555
H3 N3 1.031755 1_555
H4 N3 1.031755 1_555
H5 N2 1.031755 1_555
H6 N1 1.031755 1_555
H7 N0 1.031755 1_555
H16 N0 1.029461 1_455
H17 N1 1.029461 1_655
H18 N2 1.029461 1_555
H19 N3 1.029461 1_555
C0 H20 1.093511 1_655
C0 H15 1.093968 1_555
C0 H8 1.093968 1_555
C0 N1 1.488052 1_645
C1 H21 1.093511 1_455
C1 H14 1.093968 1_555
C1 H9 1.093968 1_555
C1 N0 1.488052 1_465
C2 H22 1.093511 1_555
C2 H13 1.093968 1_555
C2 H10 1.093968 1_555
C2 N3 1.488052 1_555
C3 H23 1.093511 1_555
C3 H12 1.093968 1_555
C3 H11 1.093968 1_555
C3 N2 1.488052 1_555
Br0 Pb0 3.066997 1_555
Br0 Pb1 3.067438 1_555
Br1 Pb0 3.066997 1_566
Br1 Pb1 3.067438 1_656
Br2 Pb1 3.066997 1_656
Br2 Pb0 3.067438 1_556
Br3 Pb1 3.066997 1_555
Br3 Pb0 3.067438 1_565
Br4 Pb2 3.066997 1_555
Br4 Pb3 3.067438 1_565
Br5 Pb2 3.066997 1_655
Br5 Pb3 3.067438 1_555
Br6 Pb3 3.066997 1_565
Br6 Pb2 3.067438 1_655
Br7 Pb3 3.066997 1_555
Br7 Pb2 3.067438 1_555
Br8 Pb3 3.096378 1_555
Br8 Pb0 3.096378 1_556
Br9 Pb3 3.096378 1_565
Br9 Pb0 3.096378 1_565
Br10 Pb1 3.096378 1_655
Br10 Pb2 3.096378 1_655
Br11 Pb1 3.096378 1_556
Br11 Pb2 3.096378 1_555
