# generated using pymatgen
data_Mn2FeO4
_symmetry_space_group_name_H-M   'P 1'
_cell_length_a   5.99335400
_cell_length_b   5.99613600
_cell_length_c   6.20028875
_cell_angle_alpha   61.08258323
_cell_angle_beta   61.09817993
_cell_angle_gamma   89.99877662
_symmetry_Int_Tables_number   1
_chemical_formula_structural   Mn2FeO4
_chemical_formula_sum   'Mn4 Fe2 O8'
_cell_volume   162.61281111
_cell_formula_units_Z   2
loop_
 _symmetry_equiv_pos_site_id
 _symmetry_equiv_pos_as_xyz
  1  'x, y, z'
loop_
 _atom_site_type_symbol
 _atom_site_label
 _atom_site_symmetry_multiplicity
 _atom_site_fract_x
 _atom_site_fract_y
 _atom_site_fract_z
 _atom_site_occupancy
  Mn  Mn0  1  0.37498700  0.62509400  0.24998500  1
  Mn  Mn1  1  0.37493800  0.12495000  0.25017400  1
  Mn  Mn2  1  0.87492700  0.62496000  0.75011300  1
  Mn  Mn3  1  0.37495700  0.62487400  0.75008200  1
  Fe  Fe0  1  0.99721200  0.99719400  0.00556100  1
  Fe  Fe1  1  0.75286400  0.25281000  0.49433000  1
  O  O0  1  0.62525800  0.85376700  0.74946000  1
  O  O1  1  0.61348400  0.37284000  0.25441200  1
  O  O2  1  0.13649500  0.87727400  0.24554100  1
  O  O3  1  0.13214300  0.37283600  0.25438000  1
  O  O4  1  0.12472500  0.85325400  0.75047200  1
  O  O5  1  0.62534500  0.39671900  0.74944900  1
  O  O6  1  0.12470200  0.39618700  0.75047400  1
  O  O7  1  0.61796200  0.87724100  0.24556500  1
loop_
_geom_bond_atom_site_label_1
_geom_bond_atom_site_label_2
_geom_bond_distance
_geom_bond_site_symmetry_2
Mn0 O2 2.080384 1_555
Mn0 O7 2.080549 1_555
Mn0 O3 2.080589 1_555
Mn0 O1 2.080725 1_555
Mn0 O6 2.268297 1_555
Mn0 O0 2.268545 1_554
Mn1 O3 2.080417 1_555
Mn1 O1 2.080436 1_555
Mn1 O7 2.080654 1_545
Mn1 O2 2.080775 1_545
Mn1 O4 2.267505 1_545
Mn1 O5 2.269386 1_554
Mn2 O4 2.030145 1_655
Mn2 O0 2.030212 1_555
Mn2 O5 2.030269 1_555
Mn2 O6 2.030486 1_655
Mn2 O1 2.282606 1_556
Mn2 O2 2.283839 1_655
Mn3 O5 2.030511 1_555
Mn3 O6 2.030577 1_555
Mn3 O0 2.030641 1_555
Mn3 O4 2.030776 1_555
Mn3 O3 2.282606 1_556
Mn3 O7 2.283585 1_555
Fe0 O7 1.895693 1_555
Fe0 O2 1.895723 1_655
Fe0 O6 1.995379 1_664
Fe0 O4 1.995558 1_654
Fe1 O3 1.895828 1_655
Fe1 O1 1.895886 1_555
Fe1 O5 1.995559 1_555
Fe1 O0 1.995631 1_545
