# generated using pymatgen
data_Rb(CrS2)2
_symmetry_space_group_name_H-M   'P 1'
_cell_length_a   11.40793300
_cell_length_b   8.38441600
_cell_length_c   12.65725900
_cell_angle_alpha   90.00000000
_cell_angle_beta   90.00000000
_cell_angle_gamma   90.00000000
_symmetry_Int_Tables_number   1
_chemical_formula_structural   Rb(CrS2)2
_chemical_formula_sum   'Rb8 Cr16 S32'
_cell_volume   1210.65234309
_cell_formula_units_Z   8
loop_
 _symmetry_equiv_pos_site_id
 _symmetry_equiv_pos_as_xyz
  1  'x, y, z'
loop_
 _atom_site_type_symbol
 _atom_site_label
 _atom_site_symmetry_multiplicity
 _atom_site_fract_x
 _atom_site_fract_y
 _atom_site_fract_z
 _atom_site_occupancy
  Rb  Rb0  1  0.04640800  0.34299200  0.66025600  1
  Rb  Rb1  1  0.95359200  0.65700800  0.16025600  1
  Rb  Rb2  1  0.45359200  0.34299200  0.16025600  1
  Rb  Rb3  1  0.54640800  0.65700800  0.66025600  1
  Rb  Rb4  1  0.10242900  0.87530700  0.33594500  1
  Rb  Rb5  1  0.89757100  0.12469300  0.83594500  1
  Rb  Rb6  1  0.39757100  0.87530700  0.83594500  1
  Rb  Rb7  1  0.60242900  0.12469300  0.33594500  1
  Cr  Cr0  1  0.10855500  0.78597100  0.67421900  1
  Cr  Cr1  1  0.89144500  0.21402900  0.17421900  1
  Cr  Cr2  1  0.39144500  0.78597100  0.17421900  1
  Cr  Cr3  1  0.60855500  0.21402900  0.67421900  1
  Cr  Cr4  1  0.14184500  0.34262800  0.33230100  1
  Cr  Cr5  1  0.85815500  0.65737200  0.83230100  1
  Cr  Cr6  1  0.35815500  0.34262800  0.83230100  1
  Cr  Cr7  1  0.64184500  0.65737200  0.33230100  1
  Cr  Cr8  1  0.15139800  0.61777400  0.92762100  1
  Cr  Cr9  1  0.84860200  0.38222600  0.42762100  1
  Cr  Cr10  1  0.34860200  0.61777400  0.42762100  1
  Cr  Cr11  1  0.65139800  0.38222600  0.92762100  1
  Cr  Cr12  1  0.15646600  0.12941900  0.02013600  1
  Cr  Cr13  1  0.84353400  0.87058100  0.52013600  1
  Cr  Cr14  1  0.34353400  0.12941900  0.52013600  1
  Cr  Cr15  1  0.65646600  0.87058100  0.02013600  1
  S  S0  1  0.03509100  0.81035600  0.84671800  1
  S  S1  1  0.96490900  0.18964400  0.34671800  1
  S  S2  1  0.46490900  0.81035600  0.34671800  1
  S  S3  1  0.53509100  0.18964400  0.84671800  1
  S  S4  1  0.07980700  0.31374100  0.15616100  1
  S  S5  1  0.92019300  0.68625900  0.65616100  1
  S  S6  1  0.42019300  0.31374100  0.65616100  1
  S  S7  1  0.57980700  0.68625900  0.15616100  1
  S  S8  1  0.98540500  0.47795700  0.91820600  1
  S  S9  1  0.01459500  0.52204300  0.41820600  1
  S  S10  1  0.51459500  0.47795700  0.41820600  1
  S  S11  1  0.48540500  0.52204300  0.91820600  1
  S  S12  1  0.97800700  0.02171500  0.07280500  1
  S  S13  1  0.02199300  0.97828500  0.57280500  1
  S  S14  1  0.52199300  0.02171500  0.57280500  1
  S  S15  1  0.47800700  0.97828500  0.07280500  1
  S  S16  1  0.27913600  0.81599100  0.54623800  1
  S  S17  1  0.72086400  0.18400900  0.04623800  1
  S  S18  1  0.22086400  0.81599100  0.04623800  1
  S  S19  1  0.77913600  0.18400900  0.54623800  1
  S  S20  1  0.24829500  0.38805600  0.49404700  1
  S  S21  1  0.75170500  0.61194400  0.99404700  1
  S  S22  1  0.25170500  0.38805600  0.99404700  1
  S  S23  1  0.74829500  0.61194400  0.49404700  1
  S  S24  1  0.20789200  0.14339900  0.84205800  1
  S  S25  1  0.79210800  0.85660100  0.34205800  1
  S  S26  1  0.29210800  0.14339900  0.34205800  1
  S  S27  1  0.70789200  0.85660100  0.84205800  1
  S  S28  1  0.23557700  0.58193000  0.77029000  1
  S  S29  1  0.76442300  0.41807000  0.27029000  1
  S  S30  1  0.26442300  0.58193000  0.27029000  1
  S  S31  1  0.73557700  0.41807000  0.77029000  1
loop_
_geom_bond_atom_site_label_1
_geom_bond_atom_site_label_2
_geom_bond_distance
_geom_bond_site_symmetry_2
Rb0 S20 3.142110 1_555
Rb0 S5 3.218584 1_455
Rb0 S28 3.257332 1_555
Rb0 S13 3.263933 1_545
Rb0 S24 3.389591 1_555
Rb0 S9 3.430980 1_555
Rb0 S8 3.524863 1_455
Rb0 S19 3.627129 1_455
Rb1 S21 3.142110 1_554
Rb1 S4 3.218584 1_655
Rb1 S29 3.257332 1_555
Rb1 S12 3.263933 1_565
Rb1 S25 3.389591 1_555
Rb1 S8 3.430980 1_554
Rb1 S9 3.524863 1_655
Rb1 S18 3.627129 1_655
Rb2 S22 3.142110 1_554
Rb2 S7 3.218584 1_555
Rb2 S30 3.257332 1_555
Rb2 S15 3.263933 1_545
Rb2 S26 3.389591 1_555
Rb2 S11 3.430980 1_554
Rb2 S10 3.524863 1_555
Rb2 S17 3.627129 1_555
Rb3 S23 3.142110 1_555
Rb3 S6 3.218584 1_555
Rb3 S31 3.257332 1_555
Rb3 S14 3.263933 1_565
Rb3 S27 3.389591 1_555
Rb3 S10 3.430980 1_555
Rb3 S11 3.524863 1_555
Rb3 S16 3.627129 1_555
Rb4 S1 3.070149 1_465
Rb4 S26 3.121025 1_565
Rb4 S30 3.186901 1_555
Rb4 S13 3.251996 1_555
Rb4 S9 3.295608 1_555
Rb4 S16 3.375775 1_555
Rb4 S25 3.544438 1_455
Rb5 S0 3.070149 1_645
Rb5 S27 3.121025 1_545
Rb5 S31 3.186901 1_555
Rb5 S12 3.251996 1_556
Rb5 S8 3.295608 1_555
Rb5 S17 3.375775 1_556
Rb5 S24 3.544438 1_655
Rb6 S3 3.070149 1_565
Rb6 S24 3.121025 1_565
Rb6 S28 3.186901 1_555
Rb6 S15 3.251996 1_556
Rb6 S11 3.295608 1_555
Rb6 S18 3.375775 1_556
Rb6 S27 3.544438 1_555
Rb7 S2 3.070149 1_545
Rb7 S25 3.121025 1_545
Rb7 S29 3.186901 1_555
Rb7 S14 3.251996 1_555
Rb7 S10 3.295608 1_555
Rb7 S19 3.375775 1_555
Rb7 S26 3.544438 1_555
Cr0 S13 2.285344 1_555
Cr0 S5 2.317027 1_455
Cr0 S0 2.347605 1_555
Cr0 S16 2.544448 1_555
Cr0 S28 2.550516 1_555
Cr1 S12 2.285344 1_555
Cr1 S4 2.317027 1_655
Cr1 S1 2.347605 1_555
Cr1 S17 2.544448 1_555
Cr1 S29 2.550516 1_555
Cr2 S15 2.285344 1_555
Cr2 S7 2.317027 1_555
Cr2 S2 2.347605 1_555
Cr2 S18 2.544448 1_555
Cr2 S30 2.550516 1_555
Cr3 S14 2.285344 1_555
Cr3 S6 2.317027 1_555
Cr3 S3 2.347605 1_555
Cr3 S19 2.544448 1_555
Cr3 S31 2.550516 1_555
Cr4 S4 2.351591 1_555
Cr4 S9 2.356368 1_555
Cr4 S26 2.396664 1_555
Cr4 S1 2.398501 1_455
Cr4 S20 2.410614 1_555
Cr4 S30 2.568489 1_555
Cr5 S5 2.351591 1_555
Cr5 S8 2.356368 1_555
Cr5 S27 2.396664 1_555
Cr5 S0 2.398501 1_655
Cr5 S21 2.410614 1_555
Cr5 S31 2.568489 1_555
Cr6 S6 2.351591 1_555
Cr6 S11 2.356368 1_555
Cr6 S24 2.396664 1_555
Cr6 S3 2.398501 1_555
Cr6 S22 2.410614 1_555
Cr6 S28 2.568489 1_555
Cr7 S7 2.351591 1_555
Cr7 S10 2.356368 1_555
Cr7 S25 2.396664 1_555
Cr7 S2 2.398501 1_555
Cr7 S23 2.410614 1_555
Cr7 S29 2.568489 1_555
Cr8 S8 2.230317 1_455
Cr8 S28 2.231166 1_555
Cr8 S0 2.327288 1_555
Cr8 S18 2.375736 1_556
Cr8 S22 2.392902 1_555
Cr9 S9 2.230317 1_655
Cr9 S29 2.231166 1_555
Cr9 S1 2.327288 1_555
Cr9 S19 2.375736 1_555
Cr9 S23 2.392902 1_555
Cr10 S10 2.230317 1_555
Cr10 S30 2.231166 1_555
Cr10 S2 2.327288 1_555
Cr10 S16 2.375736 1_555
Cr10 S20 2.392902 1_555
Cr11 S11 2.230317 1_555
Cr11 S31 2.231166 1_555
Cr11 S3 2.327288 1_555
Cr11 S17 2.375736 1_556
Cr11 S21 2.392902 1_555
Cr12 S12 2.324772 1_455
Cr12 S24 2.332024 1_554
Cr12 S22 2.447848 1_554
Cr12 S4 2.473340 1_555
Cr12 S18 2.748595 1_545
Cr13 S13 2.324772 1_655
Cr13 S25 2.332024 1_555
Cr13 S23 2.447848 1_555
Cr13 S5 2.473340 1_555
Cr13 S19 2.748595 1_565
Cr14 S14 2.324772 1_555
Cr14 S26 2.332024 1_555
Cr14 S20 2.447848 1_555
Cr14 S6 2.473340 1_555
Cr14 S16 2.748595 1_545
Cr15 S15 2.324772 1_555
Cr15 S27 2.332024 1_554
Cr15 S21 2.447848 1_554
Cr15 S7 2.473340 1_555
Cr15 S17 2.748595 1_565
