# generated using pymatgen
data_Lu2Si2O7
_symmetry_space_group_name_H-M   'P 1'
_cell_length_a   6.49300517
_cell_length_b   6.49300517
_cell_length_c   11.84644502
_cell_angle_alpha   90.00000000
_cell_angle_beta   90.00000000
_cell_angle_gamma   90.00000000
_symmetry_Int_Tables_number   1
_chemical_formula_structural   Lu2Si2O7
_chemical_formula_sum   'Lu8 Si8 O28'
_cell_volume   499.43565142
_cell_formula_units_Z   4
loop_
 _symmetry_equiv_pos_site_id
 _symmetry_equiv_pos_as_xyz
  1  'x, y, z'
loop_
 _atom_site_type_symbol
 _atom_site_label
 _atom_site_symmetry_multiplicity
 _atom_site_fract_x
 _atom_site_fract_y
 _atom_site_fract_z
 _atom_site_occupancy
  Lu  Lu0  1  0.64752582  0.12459715  0.36571622  1
  Lu  Lu1  1  0.35247418  0.87540285  0.86571622  1
  Lu  Lu2  1  0.12459715  0.64752582  0.63428378  1
  Lu  Lu3  1  0.62459715  0.85247418  0.11571622  1
  Lu  Lu4  1  0.37540285  0.14752582  0.61571622  1
  Lu  Lu5  1  0.85247418  0.62459715  0.88428378  1
  Lu  Lu6  1  0.14752582  0.37540285  0.38428378  1
  Lu  Lu7  1  0.87540285  0.35247418  0.13428378  1
  Si  Si0  1  0.84741781  0.09910633  0.87876788  1
  Si  Si1  1  0.15258219  0.90089367  0.37876788  1
  Si  Si2  1  0.09910633  0.84741781  0.12123212  1
  Si  Si3  1  0.59910633  0.65258219  0.62876788  1
  Si  Si4  1  0.40089367  0.34741781  0.12876788  1
  Si  Si5  1  0.65258219  0.59910633  0.37123212  1
  Si  Si6  1  0.34741781  0.40089367  0.87123212  1
  Si  Si7  1  0.90089367  0.15258219  0.62123212  1
  O  O0  1  0.86114288  0.30853207  0.95260522  1
  O  O1  1  0.13885712  0.69146793  0.45260522  1
  O  O2  1  0.30853207  0.86114288  0.04739478  1
  O  O3  1  0.80853207  0.63885712  0.70260522  1
  O  O4  1  0.19146793  0.36114288  0.20260522  1
  O  O5  1  0.63885712  0.80853207  0.29739478  1
  O  O6  1  0.36114288  0.19146793  0.79739478  1
  O  O7  1  0.69146793  0.13885712  0.54739478  1
  O  O8  1  0.66385341  0.94526152  0.92688694  1
  O  O9  1  0.33614659  0.05473848  0.42688694  1
  O  O10  1  0.94526152  0.66385341  0.07311306  1
  O  O11  1  0.44526152  0.83614659  0.67688694  1
  O  O12  1  0.55473848  0.16385341  0.17688694  1
  O  O13  1  0.83614659  0.44526152  0.32311306  1
  O  O14  1  0.16385341  0.55473848  0.82311306  1
  O  O15  1  0.05473848  0.33614659  0.57311306  1
  O  O16  1  0.81477380  0.18522620  0.75000000  1
  O  O17  1  0.31477380  0.31477380  -0.00000000  1
  O  O18  1  0.68522620  0.68522620  0.50000000  1
  O  O19  1  0.18522620  0.81477380  0.25000000  1
  O  O20  1  0.06940087  0.96960819  0.62427313  1
  O  O21  1  0.53039181  0.56940087  0.87427313  1
  O  O22  1  0.46960819  0.43059913  0.37427313  1
  O  O23  1  0.56940087  0.53039181  0.12572687  1
  O  O24  1  0.43059913  0.46960819  0.62572687  1
  O  O25  1  0.93059913  0.03039181  0.12427313  1
  O  O26  1  0.96960819  0.06940087  0.37572687  1
  O  O27  1  0.03039181  0.93059913  0.87572687  1
loop_
_geom_bond_atom_site_label_1
_geom_bond_atom_site_label_2
_geom_bond_distance
_geom_bond_site_symmetry_2
Lu0 O26 2.125081 1_555
Lu0 O7 2.173048 1_555
Lu0 O9 2.195107 1_555
Lu0 O5 2.206766 1_545
Lu0 O22 2.300537 1_555
Lu0 O12 2.330646 1_555
Lu0 O13 2.467729 1_555
Lu1 O27 2.125081 1_555
Lu1 O2 2.173048 1_556
Lu1 O8 2.195107 1_555
Lu1 O6 2.206766 1_565
Lu1 O21 2.300537 1_555
Lu1 O11 2.330646 1_555
Lu1 O14 2.467729 1_555
Lu2 O20 2.125081 1_555
Lu2 O1 2.173048 1_555
Lu2 O15 2.195107 1_555
Lu2 O3 2.206766 1_455
Lu2 O24 2.300537 1_555
Lu2 O14 2.330646 1_555
Lu2 O11 2.467729 1_555
Lu3 O23 2.125081 1_555
Lu3 O5 2.173048 1_555
Lu3 O12 2.195107 1_565
Lu3 O2 2.206766 1_555
Lu3 O25 2.300537 1_565
Lu3 O8 2.330646 1_554
Lu3 O10 2.467729 1_555
Lu4 O24 2.125081 1_555
Lu4 O6 2.173048 1_555
Lu4 O11 2.195107 1_545
Lu4 O7 2.206766 1_555
Lu4 O20 2.300537 1_545
Lu4 O9 2.330646 1_555
Lu4 O15 2.467729 1_555
Lu5 O21 2.125081 1_555
Lu5 O3 2.173048 1_555
Lu5 O14 2.195107 1_655
Lu5 O0 2.206766 1_555
Lu5 O27 2.300537 1_655
Lu5 O10 2.330646 1_556
Lu5 O8 2.467729 1_555
Lu6 O22 2.125081 1_555
Lu6 O4 2.173048 1_555
Lu6 O13 2.195107 1_455
Lu6 O1 2.206766 1_555
Lu6 O26 2.300537 1_455
Lu6 O15 2.330646 1_555
Lu6 O9 2.467729 1_555
Lu7 O25 2.125081 1_555
Lu7 O0 2.173048 1_554
Lu7 O10 2.195107 1_555
Lu7 O4 2.206766 1_655
Lu7 O23 2.300537 1_555
Lu7 O13 2.330646 1_555
Lu7 O12 2.467729 1_555
O0 Si0 1.619297 1_555
O1 Si1 1.619297 1_555
O2 Si2 1.619297 1_555
O3 Si3 1.619297 1_555
O4 Si4 1.619297 1_555
O5 Si5 1.619297 1_555
O6 Si6 1.619297 1_555
O7 Si7 1.619297 1_555
O8 Si0 1.656311 1_565
O9 Si1 1.656311 1_545
O10 Si2 1.656311 1_655
O11 Si3 1.656311 1_555
O12 Si4 1.656311 1_555
O13 Si5 1.656311 1_555
O14 Si6 1.656311 1_555
O15 Si7 1.656311 1_455
O16 Si0 1.638468 1_555
O16 Si7 1.638468 1_555
O17 Si6 1.638468 1_554
O17 Si4 1.638468 1_555
O18 Si5 1.638468 1_555
O18 Si3 1.638468 1_555
O19 Si2 1.638468 1_555
O19 Si1 1.638468 1_555
O20 Si7 1.615505 1_465
O21 Si6 1.615505 1_555
O22 Si5 1.615505 1_555
O23 Si4 1.615505 1_555
O24 Si3 1.615505 1_555
O25 Si2 1.615505 1_645
O26 Si1 1.615505 1_645
O27 Si0 1.615505 1_465
