# generated using pymatgen
data_Sb2XeF14
_symmetry_space_group_name_H-M   'P 1'
_cell_length_a   8.22895700
_cell_length_b   8.49516254
_cell_length_c   9.81400859
_cell_angle_alpha   112.60988595
_cell_angle_beta   89.52802007
_cell_angle_gamma   112.15987607
_symmetry_Int_Tables_number   1
_chemical_formula_structural   Sb2XeF14
_chemical_formula_sum   'Sb4 Xe2 F28'
_cell_volume   578.99746822
_cell_formula_units_Z   2
loop_
 _symmetry_equiv_pos_site_id
 _symmetry_equiv_pos_as_xyz
  1  'x, y, z'
loop_
 _atom_site_type_symbol
 _atom_site_label
 _atom_site_symmetry_multiplicity
 _atom_site_fract_x
 _atom_site_fract_y
 _atom_site_fract_z
 _atom_site_occupancy
  Sb  Sb0  1  0.20578400  0.35998300  0.77073600  1
  Sb  Sb1  1  0.79421600  0.64001700  0.22926400  1
  Sb  Sb2  1  0.50897600  0.12636300  0.70843100  1
  Sb  Sb3  1  0.49102400  0.87363700  0.29156900  1
  Xe  Xe0  1  0.19233500  0.29442200  0.25885900  1
  Xe  Xe1  1  0.80766500  0.70557800  0.74114100  1
  F  F0  1  0.12217500  0.37629100  0.57160700  1
  F  F1  1  0.87782500  0.62370900  0.42839300  1
  F  F2  1  0.41052500  0.56291900  0.70565300  1
  F  F3  1  0.58947500  0.43708100  0.29434700  1
  F  F4  1  0.34525100  0.88928500  0.76431500  1
  F  F5  1  0.65474900  0.11071500  0.23568500  1
  F  F6  1  0.64881400  0.80595100  0.21684900  1
  F  F7  1  0.35118600  0.19404900  0.78315100  1
  F  F8  1  0.65102300  0.80376900  0.48577700  1
  F  F9  1  0.34897700  0.19623100  0.51422300  1
  F  F10  1  0.36401400  0.61854200  0.36071300  1
  F  F11  1  0.63598600  0.38145800  0.63928700  1
  F  F12  1  0.68286500  0.68119000  0.02782700  1
  F  F13  1  0.31713500  0.31881000  0.97217300  1
  F  F14  1  0.35084600  0.92184200  0.10048700  1
  F  F15  1  0.64915400  0.07815800  0.89951300  1
  F  F16  1  0.97559700  0.86263100  0.16078500  1
  F  F17  1  0.02440300  0.13736900  0.83921500  1
  F  F18  1  0.92170700  0.48701200  0.24121300  1
  F  F19  1  0.07829300  0.51298800  0.75878700  1
  F  F20  1  0.35544500  0.93809400  0.36961300  1
  F  F21  1  0.64455500  0.06190600  0.63038700  1
  F  F22  1  0.00462400  0.72286900  0.90566300  1
  F  F23  1  0.99537600  0.27713100  0.09433700  1
  F  F24  1  0.95732600  0.95728300  0.63326100  1
  F  F25  1  0.04267400  0.04271700  0.36673900  1
  F  F26  1  0.71905700  0.45632400  0.89772300  1
  F  F27  1  0.28094300  0.54367600  0.10227700  1
loop_
_geom_bond_atom_site_label_1
_geom_bond_atom_site_label_2
_geom_bond_distance
_geom_bond_site_symmetry_2
F0 Sb0 2.147998 1_555
F1 Sb1 2.147998 1_555
F2 Sb0 2.203729 1_555
F3 Sb1 2.203729 1_555
F4 Sb2 2.227643 1_565
F5 Sb3 2.227643 1_545
F6 Sb3 1.666632 1_555
F6 Sb1 2.200088 1_555
F7 Sb2 1.666632 1_555
F7 Sb0 2.200088 1_555
F8 Sb3 2.686853 1_555
F9 Sb2 2.686853 1_555
F10 Xe0 2.355632 1_555
F10 Sb3 2.378954 1_555
F11 Xe1 2.355632 1_555
F11 Sb2 2.378954 1_555
F12 F6 1.829425 1_555
F12 Sb1 2.381889 1_555
F13 F7 1.829425 1_555
F13 Sb0 2.381889 1_555
F14 Sb3 2.448970 1_555
F15 Sb2 2.448970 1_555
F16 Sb1 2.255481 1_555
F17 Sb0 2.255481 1_555
F18 Sb1 1.987920 1_555
F19 Sb0 1.987920 1_555
F20 Sb3 1.501835 1_555
F21 Sb2 1.501835 1_555
F22 Xe1 2.221849 1_455
F23 Xe0 2.221849 1_655
F24 Xe1 2.634861 1_555
F25 Xe0 2.634861 1_555
F26 Sb2 2.586551 1_555
F27 Sb3 2.586551 1_555
