# generated using pymatgen
data_Li9Mn2Co5O16
_symmetry_space_group_name_H-M   'P 1'
_cell_length_a   6.56696000
_cell_length_b   6.65341845
_cell_length_c   7.69010383
_cell_angle_alpha   65.13682967
_cell_angle_beta   75.26142096
_cell_angle_gamma   72.18346402
_symmetry_Int_Tables_number   1
_chemical_formula_structural   Li9Mn2Co5O16
_chemical_formula_sum   'Li9 Mn2 Co5 O16'
_cell_volume   287.14584781
_cell_formula_units_Z   1
loop_
 _symmetry_equiv_pos_site_id
 _symmetry_equiv_pos_as_xyz
  1  'x, y, z'
loop_
 _atom_site_type_symbol
 _atom_site_label
 _atom_site_symmetry_multiplicity
 _atom_site_fract_x
 _atom_site_fract_y
 _atom_site_fract_z
 _atom_site_occupancy
  Li  Li0  1  0.06973000  0.44480600  0.67969600  1
  Li  Li1  1  0.31383000  0.19440400  0.43533900  1
  Li  Li2  1  0.68471300  0.80609800  0.56553300  1
  Li  Li3  1  0.93309700  0.55586800  0.32038800  1
  Li  Li4  1  0.55648400  0.93666900  0.19064700  1
  Li  Li5  1  0.19180200  0.30866600  0.06545700  1
  Li  Li6  1  0.80916200  0.69055200  0.93281400  1
  Li  Li7  1  0.43939100  0.06428900  0.81116600  1
  Li  Li8  1  0.49917000  0.50113100  0.49853500  1
  Mn  Mn0  1  0.00360900  0.00007300  0.00105600  1
  Mn  Mn1  1  0.74705500  0.25102600  0.25067500  1
  Co  Co0  1  0.25327900  0.73868100  0.74698700  1
  Co  Co1  1  0.86669100  0.12416000  0.62459100  1
  Co  Co2  1  0.13953700  0.86670800  0.38122800  1
  Co  Co3  1  0.37654800  0.62461100  0.12715900  1
  Co  Co4  1  0.62464000  0.38046300  0.86462400  1
  O  O0  1  0.14095900  0.07978800  0.73179300  1
  O  O1  1  0.38849500  0.85313000  0.46687900  1
  O  O2  1  0.77792800  0.45634700  0.61350500  1
  O  O3  1  0.00990700  0.21679000  0.34440000  1
  O  O4  1  0.65328000  0.56383100  0.21462400  1
  O  O5  1  0.26143800  0.97497300  0.08946300  1
  O  O6  1  0.90161100  0.31681000  0.98508900  1
  O  O7  1  0.51723900  0.70562000  0.86149600  1
  O  O8  1  0.97344000  0.78858000  0.65124400  1
  O  O9  1  0.22643000  0.55073000  0.38150900  1
  O  O10  1  0.61538300  0.15541000  0.51978100  1
  O  O11  1  0.85666100  0.92754900  0.26842400  1
  O  O12  1  0.49485600  0.27562500  0.15098600  1
  O  O13  1  0.09942500  0.68551300  0.03046000  1
  O  O14  1  0.73672500  0.03422200  0.90740900  1
  O  O15  1  0.33749200  0.42688400  0.78704000  1
loop_
_geom_bond_atom_site_label_1
_geom_bond_atom_site_label_2
_geom_bond_distance
_geom_bond_site_symmetry_2
Li0 O2 2.076152 1_455
Li0 O15 2.077266 1_555
Li0 O8 2.108041 1_455
Li0 O9 2.167498 1_555
Li0 O0 2.204424 1_555
Li0 O6 2.243624 1_455
Li1 O1 2.090727 1_545
Li1 O12 2.136275 1_555
Li1 O9 2.141110 1_555
Li1 O10 2.146803 1_555
Li1 O0 2.195131 1_555
Li1 O3 2.221565 1_555
Li2 O2 2.108849 1_555
Li2 O10 2.116358 1_565
Li2 O8 2.116395 1_555
Li2 O1 2.153199 1_555
Li2 O7 2.175637 1_555
Li2 O11 2.200323 1_555
Li3 O9 2.083178 1_655
Li3 O3 2.092584 1_655
Li3 O2 2.132331 1_555
Li3 O13 2.151352 1_655
Li3 O4 2.169226 1_555
Li3 O11 2.244680 1_555
Li4 O1 2.056300 1_555
Li4 O12 2.066082 1_565
Li4 O14 2.129797 1_564
Li4 O5 2.173183 1_555
Li4 O11 2.177945 1_555
Li4 O4 2.302552 1_555
Li5 O15 2.029834 1_554
Li5 O5 2.061427 1_545
Li5 O3 2.107693 1_555
Li5 O6 2.127069 1_454
Li5 O12 2.172169 1_555
Li5 O13 2.304766 1_555
Li6 O4 2.078023 1_556
Li6 O8 2.081389 1_555
Li6 O7 2.087350 1_555
Li6 O14 2.121067 1_565
Li6 O13 2.205990 1_656
Li6 O6 2.252426 1_555
Li7 O5 2.093305 1_546
Li7 O0 2.157788 1_555
Li7 O7 2.164112 1_545
Li7 O10 2.166348 1_555
Li7 O14 2.184524 1_555
Li7 O15 2.236345 1_555
Li8 O4 2.081644 1_555
Li8 O9 2.082176 1_555
Li8 O2 2.118901 1_555
Li8 O15 2.120000 1_555
Li8 O10 2.138537 1_555
Li8 O1 2.154397 1_555
Mn0 O5 1.916784 1_545
Mn0 O13 1.922460 1_545
Mn0 O0 1.949722 1_554
Mn0 O11 1.957718 1_445
Mn0 O6 1.966027 1_454
Mn0 O14 1.975563 1_454
Mn1 O4 1.898673 1_555
Mn1 O12 1.931856 1_555
Mn1 O10 1.937546 1_555
Mn1 O3 1.950716 1_655
Mn1 O6 1.964291 1_554
Mn1 O11 2.005938 1_545
Co0 O15 1.884575 1_555
Co0 O1 2.017306 1_555
Co0 O8 2.034449 1_455
Co0 O7 2.051585 1_555
Co0 O13 2.085102 1_556
Co0 O0 2.122483 1_565
Co1 O10 1.934520 1_555
Co1 O14 2.022460 1_555
Co1 O3 2.028298 1_655
Co1 O0 2.058209 1_655
Co1 O8 2.061334 1_545
Co1 O2 2.076150 1_555
Co2 O1 1.876804 1_555
Co2 O9 2.002030 1_555
Co2 O8 2.014570 1_455
Co2 O5 2.067317 1_555
Co2 O11 2.105154 1_455
Co2 O3 2.141221 1_565
Co3 O9 1.883141 1_555
Co3 O7 1.932936 1_554
Co3 O4 1.965193 1_555
Co3 O13 2.003244 1_555
Co3 O5 2.134112 1_555
Co3 O12 2.153921 1_555
Co4 O2 1.870696 1_555
Co4 O15 2.016997 1_555
Co4 O12 2.044393 1_556
Co4 O7 2.051705 1_555
Co4 O6 2.098057 1_555
Co4 O14 2.098862 1_555
