# generated using pymatgen
data_Sr3NbGa3(SiO7)2
_symmetry_space_group_name_H-M   'P 1'
_cell_length_a   8.40778081
_cell_length_b   8.40778081
_cell_length_c   5.14984500
_cell_angle_alpha   90.00000000
_cell_angle_beta   90.00000000
_cell_angle_gamma   120.00000634
_symmetry_Int_Tables_number   1
_chemical_formula_structural   Sr3NbGa3(SiO7)2
_chemical_formula_sum   'Sr3 Nb1 Ga3 Si2 O14'
_cell_volume   315.27354035
_cell_formula_units_Z   1
loop_
 _symmetry_equiv_pos_site_id
 _symmetry_equiv_pos_as_xyz
  1  'x, y, z'
loop_
 _atom_site_type_symbol
 _atom_site_label
 _atom_site_symmetry_multiplicity
 _atom_site_fract_x
 _atom_site_fract_y
 _atom_site_fract_z
 _atom_site_occupancy
  Sr  Sr0  1  0.42780200  0.00000000  0.00000000  1
  Sr  Sr1  1  0.57219800  0.57219800  0.00000000  1
  Sr  Sr2  1  0.00000000  0.42780200  0.00000000  1
  Nb  Nb0  1  0.00000000  0.00000000  0.00000000  1
  Ga  Ga0  1  0.74349700  0.00000000  0.50000000  1
  Ga  Ga1  1  0.25650300  0.25650300  0.50000000  1
  Ga  Ga2  1  0.00000000  0.74349700  0.50000000  1
  Si  Si0  1  0.66666700  0.33333300  0.53408900  1
  Si  Si1  1  0.33333300  0.66666700  0.46591100  1
  O  O0  1  0.66666700  0.33333300  0.22161100  1
  O  O1  1  0.33333300  0.66666700  0.77838900  1
  O  O2  1  0.16440200  0.68719200  0.33081800  1
  O  O3  1  0.52279000  0.83559800  0.33081800  1
  O  O4  1  0.31280800  0.47721000  0.33081800  1
  O  O5  1  0.83559800  0.52279000  0.66918200  1
  O  O6  1  0.68719200  0.16440200  0.66918200  1
  O  O7  1  0.47721000  0.31280800  0.66918200  1
  O  O8  1  0.12586400  0.90253900  0.76885700  1
  O  O9  1  0.77667400  0.87413600  0.76885700  1
  O  O10  1  0.09746100  0.22332600  0.76885700  1
  O  O11  1  0.87413600  0.77667400  0.23114300  1
  O  O12  1  0.90253900  0.12586400  0.23114300  1
  O  O13  1  0.22332600  0.09746100  0.23114300  1
loop_
_geom_bond_atom_site_label_1
_geom_bond_atom_site_label_2
_geom_bond_distance
_geom_bond_site_symmetry_2
Nb0 O12 2.018767 1_455
Nb0 O8 2.018767 1_544
Nb0 O9 2.018772 1_444
Nb0 O11 2.018772 1_445
Nb0 O13 2.018773 1_555
Nb0 O10 2.018773 1_554
Ga0 O9 1.846593 1_545
Ga0 O12 1.846596 1_555
Ga0 O3 1.883665 1_545
Ga0 O6 1.883665 1_555
Ga1 O13 1.846598 1_555
Ga1 O10 1.846598 1_555
Ga1 O7 1.883665 1_555
Ga1 O4 1.883665 1_555
Ga2 O11 1.846593 1_455
Ga2 O8 1.846596 1_555
Ga2 O5 1.883665 1_455
Ga2 O2 1.883665 1_555
O0 Si0 1.609213 1_555
O0 Sr2 2.749880 1_655
O0 Sr0 2.749882 1_555
O0 Sr1 2.749887 1_555
O1 Si1 1.609213 1_555
O1 Sr0 2.749880 1_566
O1 Sr2 2.749882 1_556
O1 Sr1 2.749887 1_556
O2 Si1 1.666208 1_555
O2 Sr2 2.560242 1_555
O2 Sr0 2.983203 1_565
O3 Si1 1.666212 1_555
O3 Sr0 2.560242 1_565
O3 Sr1 2.983203 1_555
O4 Si1 1.666215 1_555
O4 Sr1 2.560242 1_555
O4 Sr2 2.983203 1_555
O5 Si0 1.666212 1_555
O5 Sr2 2.560242 1_656
O5 Sr1 2.983203 1_556
O6 Si0 1.666208 1_555
O6 Sr0 2.560242 1_556
O6 Sr2 2.983203 1_656
O7 Si0 1.666215 1_555
O7 Sr1 2.560242 1_556
O7 Sr0 2.983203 1_556
O8 Sr0 2.540237 1_566
O9 Sr1 2.540236 1_556
O10 Sr2 2.540230 1_556
O11 Sr1 2.540236 1_555
O12 Sr2 2.540237 1_655
O13 Sr0 2.540230 1_555
