# generated using pymatgen
data_Ti3Cu
_symmetry_space_group_name_H-M   'P 1'
_cell_length_a   3.96806200
_cell_length_b   3.96806200
_cell_length_c   3.96806200
_cell_angle_alpha   90.00000000
_cell_angle_beta   90.00000000
_cell_angle_gamma   90.00000000
_symmetry_Int_Tables_number   1
_chemical_formula_structural   Ti3Cu
_chemical_formula_sum   'Ti3 Cu1'
_cell_volume   62.47918385
_cell_formula_units_Z   1
loop_
 _symmetry_equiv_pos_site_id
 _symmetry_equiv_pos_as_xyz
  1  'x, y, z'
loop_
 _atom_site_type_symbol
 _atom_site_label
 _atom_site_symmetry_multiplicity
 _atom_site_fract_x
 _atom_site_fract_y
 _atom_site_fract_z
 _atom_site_occupancy
  Ti  Ti0  1  0.50000000  0.50000000  0.00000000  1
  Ti  Ti1  1  0.00000000  0.50000000  0.50000000  1
  Ti  Ti2  1  0.50000000  0.00000000  0.50000000  1
  Cu  Cu0  1  0.00000000  0.00000000  0.00000000  1
loop_
_geom_bond_atom_site_label_1
_geom_bond_atom_site_label_2
_geom_bond_distance
_geom_bond_site_symmetry_2
Ti0 Ti2 2.805844 1_555
Ti0 Ti1 2.805844 1_655
Ti0 Ti1 2.805844 1_654
Ti0 Ti1 2.805844 1_554
Ti0 Ti2 2.805844 1_565
Ti0 Ti2 2.805844 1_564
Ti0 Ti1 2.805844 1_555
Ti0 Ti2 2.805844 1_554
Ti1 Ti2 2.805844 1_555
Ti1 Ti2 2.805844 1_465
Ti1 Ti2 2.805844 1_565
Ti1 Ti2 2.805844 1_455
Cu0 Ti2 2.805844 1_555
Cu0 Ti0 2.805844 1_455
Cu0 Ti1 2.805844 1_554
Cu0 Ti1 2.805844 1_545
Cu0 Ti0 2.805844 1_555
Cu0 Ti0 2.805844 1_545
Cu0 Ti2 2.805844 1_554
Cu0 Ti0 2.805844 1_445
Cu0 Ti2 2.805844 1_455
Cu0 Ti2 2.805844 1_454
Cu0 Ti1 2.805844 1_544
Cu0 Ti1 2.805844 1_555
