# generated using pymatgen
data_KCaCeFeO6
_symmetry_space_group_name_H-M   'P 1'
_cell_length_a   5.78788558
_cell_length_b   5.78788558
_cell_length_c   5.78788558
_cell_angle_alpha   60.00000000
_cell_angle_beta   60.00000000
_cell_angle_gamma   60.00000000
_symmetry_Int_Tables_number   1
_chemical_formula_structural   KCaCeFeO6
_chemical_formula_sum   'K1 Ca1 Ce1 Fe1 O6'
_cell_volume   137.10232273
_cell_formula_units_Z   1
loop_
 _symmetry_equiv_pos_site_id
 _symmetry_equiv_pos_as_xyz
  1  'x, y, z'
loop_
 _atom_site_type_symbol
 _atom_site_label
 _atom_site_symmetry_multiplicity
 _atom_site_fract_x
 _atom_site_fract_y
 _atom_site_fract_z
 _atom_site_occupancy
  K  K0  1  0.25000000  0.25000000  0.25000000  1
  Ca  Ca0  1  0.75000000  0.75000000  0.75000000  1
  Ce  Ce0  1  0.00000000  0.00000000  -0.00000000  1
  Fe  Fe0  1  0.50000000  0.50000000  0.50000000  1
  O  O0  1  0.73329887  0.26670113  0.26670113  1
  O  O1  1  0.26670113  0.73329887  0.73329887  1
  O  O2  1  0.73329887  0.26670113  0.73329887  1
  O  O3  1  0.26670113  0.73329887  0.26670113  1
  O  O4  1  0.73329887  0.73329887  0.26670113  1
  O  O5  1  0.26670113  0.26670113  0.73329887  1
loop_
_geom_bond_atom_site_label_1
_geom_bond_atom_site_label_2
_geom_bond_distance
_geom_bond_site_symmetry_2
K0 O5 2.897170 1_554
K0 O3 2.897170 1_545
K0 O1 2.897170 1_554
K0 O2 2.897170 1_554
K0 O1 2.897170 1_545
K0 O0 2.897170 1_455
K0 O4 2.897170 1_545
K0 O3 2.897170 1_555
K0 O0 2.897170 1_555
K0 O4 2.897170 1_455
K0 O2 2.897170 1_455
K0 O5 2.897170 1_555
Ca0 O2 2.897170 1_555
Ca0 O0 2.897170 1_556
Ca0 O4 2.897170 1_555
Ca0 O3 2.897170 1_655
Ca0 O0 2.897170 1_565
Ca0 O1 2.897170 1_555
Ca0 O3 2.897170 1_556
Ca0 O1 2.897170 1_655
Ca0 O2 2.897170 1_565
Ca0 O5 2.897170 1_655
Ca0 O4 2.897170 1_556
Ca0 O5 2.897170 1_565
Ce0 O4 2.183030 1_445
Ce0 O1 2.183030 1_544
Ce0 O2 2.183030 1_454
Ce0 O5 2.183030 1_554
Ce0 O0 2.183030 1_455
Ce0 O3 2.183030 1_545
Fe0 O5 1.909623 1_555
Fe0 O0 1.909623 1_555
Fe0 O3 1.909623 1_555
Fe0 O2 1.909623 1_555
Fe0 O4 1.909623 1_555
Fe0 O1 1.909623 1_555
