# generated using pymatgen
data_SmCd6
_symmetry_space_group_name_H-M   'P 1'
_cell_length_a   13.76611954
_cell_length_b   13.76611954
_cell_length_c   13.76611954
_cell_angle_alpha   71.83898604
_cell_angle_beta   70.35165108
_cell_angle_gamma   110.61368070
_symmetry_Int_Tables_number   1
_chemical_formula_structural   SmCd6
_chemical_formula_sum   'Sm12 Cd72'
_cell_volume   2007.29522152
_cell_formula_units_Z   12
loop_
 _symmetry_equiv_pos_site_id
 _symmetry_equiv_pos_as_xyz
  1  'x, y, z'
loop_
 _atom_site_type_symbol
 _atom_site_label
 _atom_site_symmetry_multiplicity
 _atom_site_fract_x
 _atom_site_fract_y
 _atom_site_fract_z
 _atom_site_occupancy
  Sm  Sm0  1  0.70199965  0.50528358  0.19671607  1
  Sm  Sm1  1  0.29800035  0.49471642  0.80328393  1
  Sm  Sm2  1  0.70199965  0.89871572  0.80328393  1
  Sm  Sm3  1  0.29800035  0.10128428  0.19671607  1
  Sm  Sm4  1  0.80828937  0.30301886  0.88869176  1
  Sm  Sm5  1  0.19171063  0.69698114  0.11130824  1
  Sm  Sm6  1  0.19171063  0.30301886  0.50527051  1
  Sm  Sm7  1  0.80828937  0.69698114  0.49472949  1
  Sm  Sm8  1  0.48438744  0.18737185  0.70298441  1
  Sm  Sm9  1  0.51561256  0.81262815  0.29701559  1
  Sm  Sm10  1  0.10964374  0.81262815  0.70298441  1
  Sm  Sm11  1  0.89035626  0.18737185  0.29701559  1
  Cd  Cd0  1  0.90345852  0.64632613  0.25713239  1
  Cd  Cd1  1  0.09654148  0.35367387  0.74286761  1
  Cd  Cd2  1  0.90345852  0.16059092  0.74286761  1
  Cd  Cd3  1  0.09654148  0.83940908  0.25713239  1
  Cd  Cd4  1  0.77180912  0.09023101  0.13795988  1
  Cd  Cd5  1  0.22819088  0.90976899  0.86204012  1
  Cd  Cd6  1  0.22819088  0.09023101  0.68157811  1
  Cd  Cd7  1  0.77180912  0.90976899  0.31842189  1
  Cd  Cd8  1  0.33471006  0.24040101  0.90569095  1
  Cd  Cd9  1  0.66528994  0.75959899  0.09430905  1
  Cd  Cd10  1  0.85390804  0.75959899  0.90569095  1
  Cd  Cd11  1  0.14609196  0.24040101  0.09430905  1
  Cd  Cd12  1  0.64455067  0.24117017  0.40338050  1
  Cd  Cd13  1  0.35544933  0.75882983  0.59661950  1
  Cd  Cd14  1  0.64455067  0.04793116  0.59661950  1
  Cd  Cd15  1  0.35544933  0.95206884  0.40338050  1
  Cd  Cd16  1  0.59612815  0.35438492  0.04948693  1
  Cd  Cd17  1  0.40387185  0.64561508  0.95051307  1
  Cd  Cd18  1  0.40387185  0.35438492  0.24174324  1
  Cd  Cd19  1  0.59612815  0.64561508  0.75825676  1
  Cd  Cd20  1  0.75065189  0.40136187  0.65070998  1
  Cd  Cd21  1  0.24934811  0.59863813  0.34929002  1
  Cd  Cd22  1  0.94792816  0.59863813  0.65070998  1
  Cd  Cd23  1  0.05207184  0.40136187  0.34929002  1
  Cd  Cd24  1  0.99954510  0.67364114  0.00482262  1
  Cd  Cd25  1  0.32153624  0.32635886  0.67409603  1
  Cd  Cd26  1  0.67846376  0.00436773  0.99517738  1
  Cd  Cd27  1  0.00045490  0.99563227  0.32590397  1
  Cd  Cd28  1  0.00045490  0.32635886  0.99517738  1
  Cd  Cd29  1  0.67846376  0.67364114  0.32590397  1
  Cd  Cd30  1  0.32153624  0.99563227  0.00482262  1
  Cd  Cd31  1  0.99954510  0.00436773  0.67409603  1
  Cd  Cd32  1  0.91284623  0.45015090  0.22698983  1
  Cd  Cd33  1  0.32285927  0.54984910  0.53730467  1
  Cd  Cd34  1  0.67714073  0.13983605  0.77301017  1
  Cd  Cd35  1  0.08715377  0.86016395  0.46269533  1
  Cd  Cd36  1  0.55138315  0.09200182  0.13985868  1
  Cd  Cd37  1  0.23186050  0.69124183  0.86014132  1
  Cd  Cd38  1  0.44861685  0.30875817  0.45938133  1
  Cd  Cd39  1  0.76813950  0.90799818  0.54061867  1
  Cd  Cd40  1  0.53911041  0.45492970  0.68413896  1
  Cd  Cd41  1  0.46088959  0.77675063  0.08418071  1
  Cd  Cd42  1  0.86093135  0.54507030  0.91581929  1
  Cd  Cd43  1  0.13906865  0.22324937  0.31586104  1
  Cd  Cd44  1  0.08715377  0.54984910  0.77301017  1
  Cd  Cd45  1  0.67714073  0.45015090  0.46269533  1
  Cd  Cd46  1  0.32285927  0.86016395  0.22698983  1
  Cd  Cd47  1  0.91284623  0.13983605  0.53730467  1
  Cd  Cd48  1  0.44861685  0.90799818  0.86014132  1
  Cd  Cd49  1  0.76813950  0.30875817  0.13985868  1
  Cd  Cd50  1  0.55138315  0.69124183  0.54061867  1
  Cd  Cd51  1  0.23186050  0.09200182  0.45938133  1
  Cd  Cd52  1  0.46088959  0.54507030  0.31586104  1
  Cd  Cd53  1  0.53911041  0.22324937  0.91581929  1
  Cd  Cd54  1  0.13906865  0.45492970  0.08418071  1
  Cd  Cd55  1  0.86093135  0.77675063  0.68413896  1
  Cd  Cd56  1  -0.00000000  0.59143929  0.40856071  1
  Cd  Cd57  1  0.00000000  0.40856071  0.59143929  1
  Cd  Cd58  1  0.59903511  -0.00000000  0.40096489  1
  Cd  Cd59  1  0.40096489  0.00000000  0.59903511  1
  Cd  Cd60  1  0.40336375  0.40336375  -0.00000000  1
  Cd  Cd61  1  0.59663625  0.59663625  0.00000000  1
  Cd  Cd62  1  0.80063230  0.30063230  0.50000000  1
  Cd  Cd63  1  0.19936770  0.69936770  0.50000000  1
  Cd  Cd64  1  0.50000000  0.20157484  0.29842516  1
  Cd  Cd65  1  0.50000000  0.79842516  0.70157484  1
  Cd  Cd66  1  0.69591747  0.50000000  0.80408253  1
  Cd  Cd67  1  0.30408253  0.50000000  0.19591747  1
  Cd  Cd68  1  0.90664861  0.82108860  0.08556001  1
  Cd  Cd69  1  0.09335139  0.17891140  0.91443999  1
  Cd  Cd70  1  0.90664861  0.99220862  0.91443999  1
  Cd  Cd71  1  0.09335139  0.00779138  0.08556001  1
loop_
_geom_bond_atom_site_label_1
_geom_bond_atom_site_label_2
_geom_bond_distance
_geom_bond_site_symmetry_2
Cd0 Cd68 2.771642 1_555
Cd0 Cd56 2.875918 1_655
Cd0 Cd32 2.896584 1_555
Cd0 Cd45 2.896584 1_555
Cd0 Cd3 3.025772 1_655
Cd0 Cd24 3.114645 1_555
Cd0 Cd29 3.114645 1_555
Cd0 Sm0 3.304402 1_555
Cd0 Sm5 3.476217 1_655
Cd0 Sm7 3.476217 1_555
Cd1 Cd69 2.771642 1_555
Cd1 Cd57 2.875918 1_555
Cd1 Cd33 2.896584 1_555
Cd1 Cd44 2.896584 1_555
Cd1 Cd2 3.025772 1_455
Cd1 Cd28 3.114645 1_555
Cd1 Cd25 3.114645 1_555
Cd1 Sm1 3.304402 1_555
Cd1 Sm4 3.476217 1_455
Cd1 Sm6 3.476217 1_555
Cd2 Cd70 2.771642 1_545
Cd2 Cd57 2.875918 1_655
Cd2 Cd34 2.896584 1_555
Cd2 Cd47 2.896584 1_555
Cd2 Cd26 3.114645 1_555
Cd2 Cd31 3.114645 1_555
Cd2 Sm2 3.304402 1_545
Cd2 Sm4 3.476217 1_555
Cd2 Sm6 3.476217 1_655
Cd3 Cd71 2.771642 1_565
Cd3 Cd56 2.875918 1_555
Cd3 Cd46 2.896584 1_555
Cd3 Cd35 2.896584 1_555
Cd3 Cd30 3.114645 1_555
Cd3 Sm3 3.304402 1_565
Cd3 Sm5 3.476217 1_555
Cd3 Sm7 3.476217 1_455
Cd4 Cd7 2.914774 1_545
Cd4 Cd49 3.034479 1_555
Cd4 Cd58 3.103800 1_555
Cd4 Sm11 3.455044 1_555
Cd4 Sm9 3.455044 1_545
Cd4 Sm4 3.485258 1_554
Cd5 Cd6 2.914774 1_565
Cd5 Cd59 3.103800 1_565
Cd5 Sm10 3.455044 1_555
Cd5 Sm8 3.455044 1_565
Cd5 Sm5 3.485258 1_556
Cd6 Sm10 3.455044 1_545
Cd6 Sm8 3.455044 1_555
Cd6 Sm6 3.485257 1_555
Cd7 Sm11 3.455044 1_565
Cd7 Sm9 3.455044 1_555
Cd7 Sm7 3.485257 1_555
Cd8 Sm8 3.320783 1_555
Cd8 Sm3 3.625952 1_556
Cd8 Sm1 3.625952 1_555
Cd9 Sm9 3.320783 1_555
Cd9 Sm2 3.625952 1_554
Cd9 Sm0 3.625952 1_555
Cd10 Cd55 2.950216 1_555
Cd10 Cd42 2.950216 1_555
Cd10 Cd61 2.959598 1_556
Cd10 Cd9 2.991668 1_556
Cd10 Cd70 3.075305 1_555
Cd10 Cd68 3.075305 1_556
Cd10 Cd24 3.128207 1_556
Cd10 Cd31 3.128207 1_565
Cd10 Sm10 3.320783 1_655
Cd10 Sm0 3.625952 1_556
Cd10 Sm2 3.625952 1_555
Cd11 Cd43 2.950216 1_555
Cd11 Cd54 2.950216 1_555
Cd11 Cd60 2.959598 1_555
Cd11 Cd8 2.991668 1_554
Cd11 Cd71 3.075305 1_555
Cd11 Cd69 3.075305 1_554
Cd11 Cd28 3.128207 1_554
Cd11 Cd27 3.128207 1_545
Cd11 Sm11 3.320783 1_455
Cd11 Sm3 3.625952 1_555
Cd11 Sm1 3.625952 1_554
Cd12 Cd64 2.829312 1_555
Cd12 Cd62 2.901372 1_555
Cd12 Cd49 3.090471 1_555
Cd12 Cd38 3.090471 1_555
Cd12 Cd14 3.121144 1_555
Cd12 Cd32 3.153759 1_555
Cd12 Cd45 3.153759 1_555
Cd12 Cd58 3.167656 1_555
Cd12 Cd59 3.167656 1_555
Cd12 Sm0 3.457262 1_555
Cd12 Sm11 3.640202 1_555
Cd12 Sm8 3.640202 1_555
Cd13 Cd65 2.829312 1_555
Cd13 Cd63 2.901372 1_555
Cd13 Cd37 3.090471 1_555
Cd13 Cd50 3.090471 1_555
Cd13 Cd15 3.121144 1_555
Cd13 Cd33 3.153759 1_555
Cd13 Cd44 3.153759 1_555
Cd13 Cd58 3.167656 1_565
Cd13 Cd59 3.167656 1_565
Cd13 Sm1 3.457262 1_555
Cd13 Sm9 3.640202 1_555
Cd13 Sm10 3.640202 1_555
Cd14 Cd65 2.829312 1_545
Cd14 Cd62 2.901372 1_555
Cd14 Cd39 3.090471 1_545
Cd14 Cd48 3.090471 1_545
Cd14 Cd47 3.153759 1_555
Cd14 Cd34 3.153759 1_555
Cd14 Cd58 3.167656 1_555
Cd14 Cd59 3.167656 1_555
Cd14 Sm2 3.457262 1_545
Cd14 Sm11 3.640202 1_555
Cd14 Sm8 3.640202 1_555
Cd15 Cd64 2.829312 1_565
Cd15 Cd63 2.901372 1_555
Cd15 Cd51 3.090471 1_565
Cd15 Cd36 3.090471 1_565
Cd15 Cd35 3.153759 1_555
Cd15 Cd46 3.153759 1_555
Cd15 Cd59 3.167656 1_565
Cd15 Cd58 3.167656 1_565
Cd15 Sm3 3.457262 1_565
Cd15 Sm10 3.640202 1_555
Cd15 Sm9 3.640202 1_555
Cd16 Cd66 2.834911 1_554
Cd16 Cd64 2.901107 1_555
Cd16 Cd18 3.049373 1_555
Cd16 Cd53 3.050432 1_554
Cd16 Cd42 3.050432 1_554
Cd16 Cd49 3.176559 1_555
Cd16 Cd36 3.176559 1_555
Cd16 Cd61 3.185842 1_555
Cd16 Cd60 3.185842 1_555
Cd16 Sm4 3.465850 1_554
Cd16 Sm0 3.609199 1_555
Cd16 Sm3 3.609199 1_555
Cd17 Cd67 2.834911 1_556
Cd17 Cd65 2.901107 1_555
Cd17 Cd19 3.049373 1_555
Cd17 Cd41 3.050432 1_556
Cd17 Cd54 3.050432 1_556
Cd17 Cd37 3.176559 1_555
Cd17 Cd48 3.176559 1_555
Cd17 Cd60 3.185842 1_556
Cd17 Cd61 3.185842 1_556
Cd17 Sm5 3.465850 1_556
Cd17 Sm1 3.609199 1_555
Cd17 Sm2 3.609199 1_555
Cd18 Cd67 2.834911 1_555
Cd18 Cd64 2.901107 1_555
Cd18 Cd52 3.050432 1_555
Cd18 Cd43 3.050432 1_555
Cd18 Cd38 3.176559 1_555
Cd18 Cd51 3.176559 1_555
Cd18 Cd61 3.185842 1_555
Cd18 Cd60 3.185842 1_555
Cd18 Sm6 3.465850 1_555
Cd18 Sm0 3.609199 1_555
Cd18 Sm3 3.609199 1_555
Cd19 Cd66 2.834911 1_555
Cd19 Cd65 2.901107 1_555
Cd19 Cd40 3.050432 1_555
Cd19 Cd55 3.050432 1_555
Cd19 Cd50 3.176559 1_555
Cd19 Cd39 3.176559 1_555
Cd19 Cd60 3.185842 1_556
Cd19 Cd61 3.185842 1_556
Cd19 Sm7 3.465850 1_555
Cd19 Sm1 3.609199 1_555
Cd19 Sm2 3.609199 1_555
Cd20 Cd62 2.864571 1_555
Cd20 Cd66 2.882195 1_555
Cd20 Cd45 3.054575 1_555
Cd20 Cd34 3.054576 1_555
Cd20 Cd22 3.091484 1_555
Cd20 Cd53 3.171487 1_555
Cd20 Cd40 3.171487 1_555
Cd20 Cd56 3.206963 1_655
Cd20 Cd57 3.206963 1_655
Cd20 Sm8 3.454382 1_555
Cd20 Sm4 3.596486 1_555
Cd20 Sm7 3.596486 1_555
Cd21 Cd63 2.864571 1_555
Cd21 Cd67 2.882195 1_555
Cd21 Cd33 3.054575 1_555
Cd21 Cd46 3.054576 1_555
Cd21 Cd23 3.091484 1_555
Cd21 Cd41 3.171487 1_555
Cd21 Cd52 3.171487 1_555
Cd21 Cd56 3.206963 1_555
Cd21 Cd57 3.206963 1_555
Cd21 Sm9 3.454382 1_555
Cd21 Sm5 3.596486 1_555
Cd21 Sm6 3.596486 1_555
Cd22 Cd63 2.864570 1_655
Cd22 Cd66 2.882195 1_555
Cd22 Cd44 3.054575 1_655
Cd22 Cd35 3.054575 1_655
Cd22 Cd42 3.171487 1_555
Cd22 Cd55 3.171487 1_555
Cd22 Cd57 3.206963 1_655
Cd22 Cd56 3.206963 1_655
Cd22 Sm10 3.454382 1_655
Cd22 Sm4 3.596486 1_555
Cd22 Sm7 3.596486 1_555
Cd23 Cd62 2.864570 1_455
Cd23 Cd67 2.882195 1_555
Cd23 Cd32 3.054575 1_455
Cd23 Cd47 3.054575 1_455
Cd23 Cd43 3.171487 1_555
Cd23 Cd54 3.171487 1_555
Cd23 Cd56 3.206963 1_555
Cd23 Cd57 3.206963 1_555
Cd23 Sm11 3.454382 1_455
Cd23 Sm5 3.596486 1_555
Cd23 Sm6 3.596486 1_555
Cd24 Cd42 2.970009 1_554
Cd24 Cd5 2.998191 1_654
Cd24 Cd37 3.020487 1_654
Cd24 Cd68 3.044489 1_555
Cd24 Cd32 3.055769 1_555
Cd24 Sm0 3.368942 1_555
Cd24 Sm5 3.398973 1_655
Cd24 Sm10 3.462684 1_654
Cd25 Cd40 2.970009 1_555
Cd25 Cd6 2.998191 1_555
Cd25 Cd38 3.020487 1_555
Cd25 Cd69 3.044489 1_555
Cd25 Cd33 3.055769 1_555
Cd25 Cd8 3.128207 1_555
Cd25 Sm1 3.368942 1_555
Cd25 Sm6 3.398973 1_555
Cd25 Sm8 3.462684 1_555
Cd26 Cd41 2.970009 1_546
Cd26 Cd4 2.998191 1_556
Cd26 Cd36 3.020487 1_556
Cd26 Cd70 3.044489 1_545
Cd26 Cd34 3.055769 1_555
Cd26 Cd9 3.128207 1_546
Cd26 Sm2 3.368942 1_545
Cd26 Sm4 3.398973 1_555
Cd26 Sm9 3.462684 1_546
Cd27 Cd43 2.970009 1_565
Cd27 Cd7 2.998191 1_455
Cd27 Cd39 3.020487 1_455
Cd27 Cd71 3.044489 1_565
Cd27 Cd35 3.055769 1_555
Cd27 Cd3 3.114645 1_555
Cd27 Sm3 3.368942 1_565
Cd27 Sm7 3.398973 1_455
Cd27 Sm11 3.462684 1_465
Cd28 Cd54 2.970009 1_556
Cd28 Cd4 2.998191 1_456
Cd28 Cd49 3.020487 1_456
Cd28 Cd69 3.044489 1_555
Cd28 Cd44 3.055769 1_555
Cd28 Sm1 3.368942 1_555
Cd28 Sm4 3.398973 1_455
Cd28 Sm11 3.462684 1_456
Cd29 Cd52 2.970009 1_555
Cd29 Cd7 2.998191 1_555
Cd29 Cd50 3.020487 1_555
Cd29 Cd68 3.044489 1_555
Cd29 Cd45 3.055769 1_555
Cd29 Cd9 3.128207 1_555
Cd29 Sm0 3.368942 1_555
Cd29 Sm7 3.398973 1_555
Cd29 Sm9 3.462684 1_555
Cd30 Cd53 2.970009 1_564
Cd30 Cd5 2.998191 1_554
Cd30 Cd48 3.020487 1_554
Cd30 Cd71 3.044489 1_565
Cd30 Cd46 3.055769 1_555
Cd30 Cd8 3.128207 1_564
Cd30 Sm3 3.368942 1_565
Cd30 Sm5 3.398973 1_555
Cd30 Sm8 3.462684 1_564
Cd31 Cd55 2.970009 1_545
Cd31 Cd6 2.998191 1_655
Cd31 Cd51 3.020487 1_655
Cd31 Cd70 3.044489 1_545
Cd31 Cd47 3.055769 1_555
Cd31 Sm2 3.368942 1_545
Cd31 Sm6 3.398973 1_655
Cd31 Sm10 3.462684 1_645
Cd32 Cd54 3.037333 1_655
Cd32 Cd49 3.086678 1_555
Cd32 Cd62 3.127664 1_555
Cd32 Sm11 3.308765 1_555
Cd32 Sm0 3.367771 1_555
Cd32 Sm5 3.485628 1_655
Cd33 Cd52 3.037333 1_555
Cd33 Cd50 3.086678 1_555
Cd33 Cd63 3.127664 1_555
Cd33 Sm9 3.308765 1_555
Cd33 Sm1 3.367771 1_555
Cd33 Sm6 3.485628 1_555
Cd34 Cd53 3.037333 1_555
Cd34 Cd48 3.086678 1_545
Cd34 Cd62 3.127664 1_555
Cd34 Sm8 3.308765 1_555
Cd34 Sm2 3.367771 1_545
Cd34 Sm4 3.485628 1_555
Cd35 Cd55 3.037333 1_455
Cd35 Cd51 3.086678 1_565
Cd35 Cd63 3.127664 1_555
Cd35 Sm10 3.308765 1_555
Cd35 Sm3 3.367771 1_565
Cd35 Sm7 3.485628 1_455
Cd36 Cd4 3.034479 1_555
Cd36 Cd64 3.050552 1_555
Cd36 Cd46 3.086678 1_545
Cd36 Cd53 3.145891 1_554
Cd36 Sm4 3.344034 1_554
Cd36 Sm3 3.366893 1_555
Cd36 Cd49 3.396754 1_555
Cd36 Sm9 3.532309 1_545
Cd37 Cd5 3.034479 1_555
Cd37 Cd65 3.050552 1_555
Cd37 Cd44 3.086678 1_555
Cd37 Cd54 3.145891 1_556
Cd37 Sm5 3.344034 1_556
Cd37 Sm1 3.366893 1_555
Cd37 Cd48 3.396754 1_555
Cd37 Sm10 3.532309 1_555
Cd38 Cd6 3.034479 1_555
Cd38 Cd64 3.050552 1_555
Cd38 Cd45 3.086678 1_555
Cd38 Cd52 3.145891 1_555
Cd38 Sm6 3.344034 1_555
Cd38 Sm0 3.366893 1_555
Cd38 Cd51 3.396754 1_555
Cd38 Sm8 3.532309 1_555
Cd39 Cd7 3.034479 1_555
Cd39 Cd65 3.050552 1_555
Cd39 Cd47 3.086678 1_565
Cd39 Cd55 3.145891 1_555
Cd39 Sm7 3.344034 1_555
Cd39 Sm2 3.366893 1_555
Cd39 Cd50 3.396754 1_555
Cd39 Sm11 3.532309 1_565
Cd40 Cd8 2.950216 1_555
Cd40 Cd45 3.037333 1_555
Cd40 Cd66 3.140609 1_555
Cd40 Cd50 3.145891 1_555
Cd40 Sm7 3.320390 1_555
Cd40 Sm8 3.394141 1_555
Cd40 Sm1 3.490834 1_555
Cd41 Cd9 2.950216 1_555
Cd41 Cd46 3.037333 1_555
Cd41 Cd67 3.140609 1_555
Cd41 Cd48 3.145891 1_554
Cd41 Sm5 3.320390 1_555
Cd41 Sm9 3.394141 1_555
Cd41 Sm2 3.490834 1_554
Cd42 Cd44 3.037333 1_655
Cd42 Cd66 3.140609 1_555
Cd42 Cd49 3.145891 1_556
Cd42 Sm4 3.320390 1_555
Cd42 Sm10 3.394141 1_655
Cd42 Sm0 3.490834 1_556
Cd43 Cd47 3.037333 1_455
Cd43 Cd67 3.140609 1_555
Cd43 Cd51 3.145891 1_555
Cd43 Sm6 3.320390 1_555
Cd43 Sm11 3.394141 1_455
Cd43 Sm3 3.490834 1_555
Cd44 Cd63 3.127664 1_555
Cd44 Sm10 3.308765 1_555
Cd44 Sm1 3.367771 1_555
Cd44 Sm4 3.485628 1_455
Cd45 Cd62 3.127664 1_555
Cd45 Sm8 3.308765 1_555
Cd45 Sm0 3.367771 1_555
Cd45 Sm7 3.485628 1_555
Cd46 Cd63 3.127664 1_555
Cd46 Sm9 3.308765 1_555
Cd46 Sm3 3.367771 1_565
Cd46 Sm5 3.485628 1_555
Cd47 Cd62 3.127664 1_555
Cd47 Sm11 3.308765 1_555
Cd47 Sm2 3.367771 1_545
Cd47 Sm6 3.485628 1_655
Cd48 Cd5 3.034479 1_555
Cd48 Cd65 3.050552 1_555
Cd48 Sm5 3.344034 1_556
Cd48 Sm2 3.366893 1_555
Cd48 Sm8 3.532309 1_565
Cd49 Cd64 3.050552 1_555
Cd49 Sm4 3.344034 1_554
Cd49 Sm0 3.366893 1_555
Cd49 Sm11 3.532309 1_555
Cd50 Cd7 3.034479 1_555
Cd50 Cd65 3.050552 1_555
Cd50 Sm7 3.344034 1_555
Cd50 Sm1 3.366893 1_555
Cd50 Sm9 3.532309 1_555
Cd51 Cd6 3.034479 1_555
Cd51 Cd64 3.050552 1_555
Cd51 Sm6 3.344034 1_555
Cd51 Sm3 3.366893 1_555
Cd51 Sm10 3.532309 1_545
Cd52 Cd9 2.950216 1_555
Cd52 Cd67 3.140609 1_555
Cd52 Sm6 3.320390 1_555
Cd52 Sm9 3.394141 1_555
Cd52 Sm0 3.490834 1_555
Cd53 Cd8 2.950216 1_555
Cd53 Cd66 3.140609 1_555
Cd53 Sm4 3.320390 1_555
Cd53 Sm8 3.394141 1_555
Cd53 Sm3 3.490834 1_556
Cd54 Cd67 3.140609 1_555
Cd54 Sm5 3.320390 1_555
Cd54 Sm11 3.394141 1_455
Cd54 Sm1 3.490834 1_554
Cd55 Cd66 3.140609 1_555
Cd55 Sm7 3.320390 1_555
Cd55 Sm10 3.394141 1_655
Cd55 Sm2 3.490834 1_555
Cd56 Cd57 2.953806 1_555
Cd56 Cd62 3.455754 1_455
Cd56 Cd63 3.455754 1_555
Cd56 Sm5 3.485959 1_555
Cd56 Sm7 3.485959 1_455
Cd57 Cd62 3.455754 1_455
Cd57 Cd63 3.455754 1_555
Cd57 Sm4 3.485959 1_455
Cd57 Sm6 3.485959 1_555
Cd58 Cd7 3.103800 1_545
Cd58 Cd59 3.141588 1_555
Cd58 Sm11 3.367498 1_555
Cd58 Sm9 3.367498 1_545
Cd59 Cd6 3.103800 1_555
Cd59 Sm10 3.367498 1_545
Cd59 Sm8 3.367498 1_555
Cd60 Cd8 2.959598 1_554
Cd60 Cd61 3.028742 1_555
Cd60 Cd67 3.456808 1_555
Cd60 Cd66 3.456808 1_554
Cd60 Sm3 3.580713 1_555
Cd60 Sm1 3.580713 1_554
Cd61 Cd9 2.959598 1_555
Cd61 Cd67 3.456808 1_555
Cd61 Cd66 3.456808 1_554
Cd61 Sm0 3.580713 1_555
Cd61 Sm2 3.580713 1_554
Cd62 Sm8 3.676357 1_555
Cd62 Sm11 3.676357 1_555
Cd63 Sm9 3.676357 1_555
Cd63 Sm10 3.676357 1_555
Cd64 Sm0 3.566389 1_555
Cd64 Sm3 3.566389 1_555
Cd65 Sm2 3.566389 1_555
Cd65 Sm1 3.566389 1_555
Cd66 Sm4 3.646805 1_555
Cd66 Sm7 3.646805 1_555
Cd67 Sm5 3.646805 1_555
Cd67 Sm6 3.646805 1_555
Cd68 Cd70 2.763884 1_554
Cd68 Cd71 2.925789 1_665
Cd68 Cd9 3.075305 1_555
Cd68 Sm0 3.675365 1_555
Cd69 Cd71 2.763884 1_556
Cd69 Cd70 2.925789 1_445
Cd69 Cd8 3.075305 1_555
Cd69 Sm1 3.675365 1_555
Cd70 Cd9 3.075305 1_556
Cd70 Sm2 3.675365 1_555
Cd71 Cd8 3.075305 1_554
Cd71 Sm3 3.675365 1_555
