# generated using pymatgen
data_TlInS2
_symmetry_space_group_name_H-M   'P 1'
_cell_length_a   4.65665677
_cell_length_b   4.65665677
_cell_length_c   6.52777750
_cell_angle_alpha   68.00247055
_cell_angle_beta   68.00247055
_cell_angle_gamma   81.07142044
_symmetry_Int_Tables_number   1
_chemical_formula_structural   TlInS2
_chemical_formula_sum   'Tl1 In1 S2'
_cell_volume   121.67332830
_cell_formula_units_Z   1
loop_
 _symmetry_equiv_pos_site_id
 _symmetry_equiv_pos_as_xyz
  1  'x, y, z'
loop_
 _atom_site_type_symbol
 _atom_site_label
 _atom_site_symmetry_multiplicity
 _atom_site_fract_x
 _atom_site_fract_y
 _atom_site_fract_z
 _atom_site_occupancy
  Tl  Tl0  1  0.00000000  0.00000000  0.00000000  1
  In  In0  1  0.00000000  0.00000000  0.50000000  1
  S  S0  1  0.51226700  0.51226700  0.83302300  1
  S  S1  1  0.48773300  0.48773300  0.16697700  1
loop_
_geom_bond_atom_site_label_1
_geom_bond_atom_site_label_2
_geom_bond_distance
_geom_bond_site_symmetry_2
In0 S1 3.040769 1_555
In0 S0 3.040769 1_445
In0 Tl0 3.263889 1_556
In0 Tl0 3.263889 1_555
S0 S1 2.099835 1_556
S0 Tl0 3.203405 1_566
S0 Tl0 3.203405 1_656
S0 Tl0 3.231021 1_556
S1 Tl0 3.203405 1_565
S1 Tl0 3.203405 1_655
S1 Tl0 3.231021 1_665
