# generated using pymatgen
data_Fe2Ni3H4(Se3O10)2
_symmetry_space_group_name_H-M   'P 1'
_cell_length_a   6.53449500
_cell_length_b   8.07049929
_cell_length_c   8.94480021
_cell_angle_alpha   85.33614772
_cell_angle_beta   78.36098424
_cell_angle_gamma   76.49827431
_symmetry_Int_Tables_number   1
_chemical_formula_structural   Fe2Ni3H4(Se3O10)2
_chemical_formula_sum   'Fe2 Ni3 H4 Se6 O20'
_cell_volume   448.96048665
_cell_formula_units_Z   1
loop_
 _symmetry_equiv_pos_site_id
 _symmetry_equiv_pos_as_xyz
  1  'x, y, z'
loop_
 _atom_site_type_symbol
 _atom_site_label
 _atom_site_symmetry_multiplicity
 _atom_site_fract_x
 _atom_site_fract_y
 _atom_site_fract_z
 _atom_site_occupancy
  Fe  Fe0  1  0.13533400  0.39732000  0.11882800  1
  Fe  Fe1  1  0.86466600  0.60268000  0.88117200  1
  Ni  Ni0  1  0.30937800  0.67514600  0.26543800  1
  Ni  Ni1  1  0.69062200  0.32485400  0.73456200  1
  Ni  Ni2  1  0.50000000  0.00000000  0.00000000  1
  H  H0  1  0.12962500  0.63456300  0.55758000  1
  H  H1  1  0.87037500  0.36543700  0.44242000  1
  H  H2  1  0.31415500  0.46609500  0.53546800  1
  H  H3  1  0.68584500  0.53390500  0.46453200  1
  Se  Se0  1  0.66786200  0.28887200  0.12946800  1
  Se  Se1  1  0.33213800  0.71112800  0.87053200  1
  Se  Se2  1  0.23635300  0.07395900  0.36901800  1
  Se  Se3  1  0.76364700  0.92604100  0.63098200  1
  Se  Se4  1  0.20311600  0.21377000  0.77523200  1
  Se  Se5  1  0.79688400  0.78623000  0.22476800  1
  O  O0  1  0.24794600  0.57019200  0.48219300  1
  O  O1  1  0.75205400  0.42980800  0.51780700  1
  O  O2  1  0.40061800  0.31064700  0.68244400  1
  O  O3  1  0.59938200  0.68935300  0.31755600  1
  O  O4  1  0.23305600  0.20237800  0.96950800  1
  O  O5  1  0.76694400  0.79762200  0.03049200  1
  O  O6  1  0.02294500  0.61957400  0.23279000  1
  O  O7  1  0.97705500  0.38042600  0.76721000  1
  O  O8  1  0.45904600  0.05529700  0.22281500  1
  O  O9  1  0.54095400  0.94470300  0.77718500  1
  O  O10  1  0.05886200  0.24651000  0.29567100  1
  O  O11  1  0.94113800  0.75349000  0.70432900  1
  O  O12  1  0.13325900  0.90523000  0.34820000  1
  O  O13  1  0.86674100  0.09477000  0.65180000  1
  O  O14  1  0.32987800  0.79915400  0.03967300  1
  O  O15  1  0.67012200  0.20084600  0.96032700  1
  O  O16  1  0.83068700  0.43894200  0.07090300  1
  O  O17  1  0.16931300  0.56105800  0.92909700  1
  O  O18  1  0.41563200  0.43068100  0.16347800  1
  O  O19  1  0.58436800  0.56931900  0.83652200  1
loop_
_geom_bond_atom_site_label_1
_geom_bond_atom_site_label_2
_geom_bond_distance
_geom_bond_site_symmetry_2
Fe0 O10 1.971095 1_555
Fe0 O18 2.032166 1_555
Fe0 O6 2.043523 1_555
Fe0 O4 2.048260 1_554
Fe0 O16 2.065964 1_455
Fe0 O17 2.072670 1_554
Fe1 O11 1.971095 1_555
Fe1 O19 2.032166 1_555
Fe1 O7 2.043523 1_555
Fe1 O5 2.048260 1_556
Fe1 O17 2.065964 1_655
Fe1 O16 2.072670 1_556
Ni0 O12 2.049987 1_555
Ni0 O0 2.053130 1_555
Ni0 O3 2.070802 1_555
Ni0 O6 2.103210 1_555
Ni0 O18 2.145658 1_555
Ni0 O14 2.173112 1_555
Ni1 O13 2.049987 1_555
Ni1 O1 2.053130 1_555
Ni1 O2 2.070802 1_555
Ni1 O7 2.103210 1_555
Ni1 O19 2.145658 1_555
Ni1 O15 2.173112 1_555
Ni2 O8 2.028949 1_555
Ni2 O9 2.028949 1_544
Ni2 O5 2.138677 1_545
Ni2 O4 2.138677 1_554
Ni2 O15 2.139584 1_554
Ni2 O14 2.139584 1_545
H0 O0 0.990672 1_555
H1 O1 0.990672 1_555
H2 O0 0.984083 1_555
H3 O1 0.984083 1_555
O2 Se4 1.702694 1_555
O3 Se5 1.702694 1_555
O4 Se4 1.780263 1_555
O5 Se5 1.780263 1_555
O6 Se5 1.759431 1_455
O7 Se4 1.759431 1_655
O8 Se2 1.735602 1_555
O9 Se3 1.735602 1_555
O10 Se2 1.766106 1_555
O11 Se3 1.766106 1_555
O12 Se2 1.692044 1_565
O13 Se3 1.692044 1_545
O14 Se1 1.718936 1_554
O15 Se0 1.718936 1_556
O16 Se0 1.773975 1_555
O17 Se1 1.773975 1_555
O18 Se0 1.758522 1_555
O19 Se1 1.758522 1_555
