# generated using pymatgen
data_Nd2NiGe3
_symmetry_space_group_name_H-M   'P 1'
_cell_length_a   4.25083020
_cell_length_b   4.25083020
_cell_length_c   8.26431000
_cell_angle_alpha   90.00000000
_cell_angle_beta   90.00000000
_cell_angle_gamma   120.00000314
_symmetry_Int_Tables_number   1
_chemical_formula_structural   Nd2NiGe3
_chemical_formula_sum   'Nd2 Ni1 Ge3'
_cell_volume   129.32566865
_cell_formula_units_Z   1
loop_
 _symmetry_equiv_pos_site_id
 _symmetry_equiv_pos_as_xyz
  1  'x, y, z'
loop_
 _atom_site_type_symbol
 _atom_site_label
 _atom_site_symmetry_multiplicity
 _atom_site_fract_x
 _atom_site_fract_y
 _atom_site_fract_z
 _atom_site_occupancy
  Nd  Nd0  1  0.33333300  0.66666700  0.23252000  1
  Nd  Nd1  1  0.33333300  0.66666700  0.76748000  1
  Ni  Ni0  1  0.66666700  0.33333300  0.00000000  1
  Ge  Ge0  1  0.66666700  0.33333300  0.50000000  1
  Ge  Ge1  1  0.00000000  0.00000000  0.00000000  1
  Ge  Ge2  1  0.00000000  0.00000000  0.50000000  1
loop_
_geom_bond_atom_site_label_1
_geom_bond_atom_site_label_2
_geom_bond_distance
_geom_bond_site_symmetry_2
Nd0 Ni0 3.117016 1_455
Nd0 Ni0 3.117016 1_565
Nd0 Ni0 3.117022 1_555
Nd1 Ni0 3.117016 1_456
Nd1 Ni0 3.117016 1_566
Nd1 Ni0 3.117022 1_556
Ge0 Ge2 2.454216 1_655
Ge0 Ge2 2.454219 1_665
Ge0 Ge2 2.454219 1_555
Ge0 Nd0 3.302976 1_545
Ge0 Nd1 3.302976 1_545
Ge0 Nd0 3.302976 1_655
Ge0 Nd1 3.302976 1_655
Ge0 Nd0 3.302981 1_555
Ge0 Nd1 3.302981 1_555
Ge1 Ni0 2.454216 1_455
Ge1 Ni0 2.454219 1_445
Ge1 Ni0 2.454219 1_555
Ge1 Nd1 3.117016 1_544
Ge1 Nd0 3.117016 1_545
Ge1 Nd1 3.117019 1_554
Ge1 Nd0 3.117019 1_555
Ge1 Nd1 3.117019 1_444
Ge1 Nd0 3.117019 1_445
Ge2 Nd0 3.302976 1_545
Ge2 Nd1 3.302976 1_545
Ge2 Nd0 3.302979 1_555
Ge2 Nd0 3.302979 1_445
Ge2 Nd1 3.302979 1_555
Ge2 Nd1 3.302979 1_445
