# generated using pymatgen
data_Cu2ClO3
_symmetry_space_group_name_H-M   'P 1'
_cell_length_a   8.55984117
_cell_length_b   8.55984117
_cell_length_c   8.55984192
_cell_angle_alpha   95.34768607
_cell_angle_beta   95.34768607
_cell_angle_gamma   95.34768500
_symmetry_Int_Tables_number   1
_chemical_formula_structural   Cu2ClO3
_chemical_formula_sum   'Cu16 Cl8 O24'
_cell_volume   618.44680469
_cell_formula_units_Z   8
loop_
 _symmetry_equiv_pos_site_id
 _symmetry_equiv_pos_as_xyz
  1  'x, y, z'
loop_
 _atom_site_type_symbol
 _atom_site_label
 _atom_site_symmetry_multiplicity
 _atom_site_fract_x
 _atom_site_fract_y
 _atom_site_fract_z
 _atom_site_occupancy
  Cu  Cu0  1  0.50000000  0.50000000  0.50000000  1
  Cu  Cu1  1  0.00000000  0.50000000  0.00000000  1
  Cu  Cu2  1  0.00000000  0.00000000  0.50000000  1
  Cu  Cu3  1  0.50000000  0.00000000  0.00000000  1
  Cu  Cu4  1  0.99968800  0.75290300  0.25169300  1
  Cu  Cu5  1  0.25169300  0.99968800  0.75290300  1
  Cu  Cu6  1  0.75290300  0.25169300  0.99968800  1
  Cu  Cu7  1  0.00031200  0.24709700  0.74830700  1
  Cu  Cu8  1  0.74830700  0.00031200  0.24709700  1
  Cu  Cu9  1  0.24709700  0.74830700  0.00031200  1
  Cu  Cu10  1  0.24578100  0.49881500  0.25274700  1
  Cu  Cu11  1  0.25274700  0.24578100  0.49881500  1
  Cu  Cu12  1  0.49881500  0.25274700  0.24578100  1
  Cu  Cu13  1  0.75421900  0.50118500  0.74725300  1
  Cu  Cu14  1  0.74725300  0.75421900  0.50118500  1
  Cu  Cu15  1  0.50118500  0.74725300  0.75421900  1
  Cl  Cl0  1  0.80932400  0.80932400  0.80932400  1
  Cl  Cl1  1  0.19067600  0.19067600  0.19067600  1
  Cl  Cl2  1  0.31217000  0.80664200  0.31011300  1
  Cl  Cl3  1  0.31011300  0.31217000  0.80664200  1
  Cl  Cl4  1  0.80664200  0.31011300  0.31217000  1
  Cl  Cl5  1  0.68783000  0.19335800  0.68988700  1
  Cl  Cl6  1  0.68988700  0.68783000  0.19335800  1
  Cl  Cl7  1  0.19335800  0.68988700  0.68783000  1
  O  O0  1  0.22466600  0.53207600  0.03561400  1
  O  O1  1  0.03561400  0.22466600  0.53207600  1
  O  O2  1  0.53207600  0.03561400  0.22466600  1
  O  O3  1  0.77533400  0.46792400  0.96438600  1
  O  O4  1  0.96438600  0.77533400  0.46792400  1
  O  O5  1  0.46792400  0.96438600  0.77533400  1
  O  O6  1  0.03182500  0.73384700  0.03681500  1
  O  O7  1  0.03681500  0.03182500  0.73384700  1
  O  O8  1  0.73384700  0.03681500  0.03182500  1
  O  O9  1  0.96817500  0.26615300  0.96318500  1
  O  O10  1  0.96318500  0.96817500  0.26615300  1
  O  O11  1  0.26615300  0.96318500  0.96817500  1
  O  O12  1  0.03251300  0.53883200  0.23991400  1
  O  O13  1  0.23991400  0.03251300  0.53883200  1
  O  O14  1  0.53883200  0.23991400  0.03251300  1
  O  O15  1  0.96748700  0.46116800  0.76008600  1
  O  O16  1  0.76008600  0.96748700  0.46116800  1
  O  O17  1  0.46116800  0.76008600  0.96748700  1
  O  O18  1  0.73186400  0.53738300  0.53208800  1
  O  O19  1  0.53208800  0.73186400  0.53738300  1
  O  O20  1  0.53738300  0.53208800  0.73186400  1
  O  O21  1  0.26813600  0.46261700  0.46791200  1
  O  O22  1  0.46791200  0.26813600  0.46261700  1
  O  O23  1  0.46261700  0.46791200  0.26813600  1
loop_
_geom_bond_atom_site_label_1
_geom_bond_atom_site_label_2
_geom_bond_distance
_geom_bond_site_symmetry_2
Cu0 O19 1.969916 1_555
Cu0 O22 1.969916 1_555
Cu0 O18 1.969916 1_555
Cu0 O21 1.969916 1_555
Cu0 O20 1.969917 1_555
Cu0 O23 1.969917 1_555
Cu1 O0 1.908757 1_555
Cu1 O3 1.908757 1_454
Cu1 O6 1.986220 1_555
Cu1 O9 1.986220 1_454
Cu1 O12 2.038211 1_555
Cu1 O15 2.038211 1_454
Cu2 O1 1.908757 1_555
Cu2 O4 1.908757 1_445
Cu2 O7 1.986220 1_555
Cu2 O10 1.986220 1_445
Cu2 O13 2.038211 1_555
Cu2 O16 2.038211 1_445
Cu3 O2 1.908757 1_555
Cu3 O5 1.908757 1_544
Cu3 O8 1.986220 1_555
Cu3 O11 1.986220 1_544
Cu3 O14 2.038211 1_555
Cu3 O17 2.038211 1_544
Cu4 O12 1.874478 1_655
Cu4 O6 1.879398 1_655
Cu4 O10 1.892218 1_555
Cu4 O4 1.898117 1_555
Cu5 O13 1.874478 1_565
Cu5 O7 1.879398 1_565
Cu5 O11 1.892219 1_555
Cu5 O5 1.898116 1_555
Cu6 O14 1.874478 1_556
Cu6 O8 1.879398 1_556
Cu6 O9 1.892218 1_555
Cu6 O3 1.898116 1_555
Cu7 O15 1.874478 1_455
Cu7 O9 1.879398 1_455
Cu7 O7 1.892218 1_555
Cu7 O1 1.898117 1_555
Cu8 O16 1.874478 1_545
Cu8 O10 1.879398 1_545
Cu8 O8 1.892219 1_555
Cu8 O2 1.898116 1_555
Cu9 O17 1.874478 1_554
Cu9 O11 1.879398 1_554
Cu9 O6 1.892218 1_555
Cu9 O0 1.898116 1_555
Cu10 O12 1.883664 1_555
Cu10 O21 1.891164 1_555
Cu10 O23 1.893358 1_555
Cu10 O0 1.901005 1_555
Cu11 O13 1.883664 1_555
Cu11 O22 1.891164 1_555
Cu11 O21 1.893358 1_555
Cu11 O1 1.901005 1_555
Cu12 O14 1.883664 1_555
Cu12 O23 1.891164 1_555
Cu12 O22 1.893358 1_555
Cu12 O2 1.901005 1_555
Cu13 O15 1.883664 1_555
Cu13 O18 1.891164 1_555
Cu13 O20 1.893358 1_555
Cu13 O3 1.901005 1_555
Cu14 O16 1.883664 1_555
Cu14 O19 1.891164 1_555
Cu14 O18 1.893358 1_555
Cu14 O4 1.901005 1_555
Cu15 O17 1.883664 1_555
Cu15 O20 1.891164 1_555
Cu15 O19 1.893358 1_555
Cu15 O5 1.901005 1_555
Cl0 Cu15 2.630968 1_555
Cl0 Cu13 2.630968 1_555
Cl0 Cu14 2.630968 1_555
Cl1 Cu12 2.630968 1_555
Cl1 Cu10 2.630968 1_555
Cl1 Cu11 2.630968 1_555
Cl2 Cu10 2.633387 1_555
Cl2 Cu9 2.649132 1_555
Cl2 Cu4 2.663579 1_455
Cl3 Cu11 2.633387 1_555
Cl3 Cu7 2.649132 1_555
Cl3 Cu5 2.663579 1_545
Cl4 Cu12 2.633387 1_555
Cl4 Cu8 2.649132 1_555
Cl4 Cu6 2.663580 1_554
Cl5 Cu13 2.633387 1_555
Cl5 Cu6 2.649132 1_555
Cl5 Cu7 2.663579 1_655
Cl6 Cu14 2.633387 1_555
Cl6 Cu4 2.649132 1_555
Cl6 Cu8 2.663579 1_565
Cl7 Cu15 2.633387 1_555
Cl7 Cu5 2.649132 1_555
Cl7 Cu9 2.663580 1_556
