# generated using pymatgen
data_MgCo6Ag2P6(HO6)4
_symmetry_space_group_name_H-M   'P 1'
_cell_length_a   6.39672956
_cell_length_b   9.19856325
_cell_length_c   9.07797594
_cell_angle_alpha   83.34754824
_cell_angle_beta   105.74023419
_cell_angle_gamma   103.35789425
_symmetry_Int_Tables_number   1
_chemical_formula_structural   MgCo6Ag2P6(HO6)4
_chemical_formula_sum   'Mg1 Co6 Ag2 P6 H4 O24'
_cell_volume   499.40847862
_cell_formula_units_Z   1
loop_
 _symmetry_equiv_pos_site_id
 _symmetry_equiv_pos_as_xyz
  1  'x, y, z'
loop_
 _atom_site_type_symbol
 _atom_site_label
 _atom_site_symmetry_multiplicity
 _atom_site_fract_x
 _atom_site_fract_y
 _atom_site_fract_z
 _atom_site_occupancy
  Mg  Mg0  1  0.48532072  0.48808658  0.71928249  1
  Co  Co0  1  0.33278573  0.77251650  0.33973811  1
  Co  Co1  1  0.82439046  0.65542721  0.97752621  1
  Co  Co2  1  0.10200498  0.86473783  0.55796832  1
  Co  Co3  1  0.31803035  0.38892611  0.06445351  1
  Co  Co4  1  0.87806270  0.13334986  0.44973890  1
  Co  Co5  1  0.73104185  0.22071055  0.74853219  1
  Ag  Ag0  1  0.23402233  0.48147292  0.41698665  1
  Ag  Ag1  1  0.66760771  0.56299225  0.45693869  1
  P  P0  1  0.22999594  0.16049984  0.81122154  1
  P  P1  1  0.78961725  0.85452565  0.21764866  1
  P  P2  1  0.37310058  0.14983797  0.38469584  1
  P  P3  1  0.05701394  0.57478977  0.78561569  1
  P  P4  1  0.63731417  0.85846459  0.66620866  1
  P  P5  1  0.84860922  0.36900094  0.13829011  1
  H  H0  1  0.31913663  0.06171736  0.16176453  1
  H  H1  1  0.18403328  0.90435541  0.85931927  1
  H  H2  1  0.72001908  0.93108101  0.90402393  1
  H  H3  1  0.79527285  0.12764054  0.12238219  1
  O  O0  1  0.25869980  0.49554642  0.84317711  1
  O  O1  1  0.08712554  0.70302557  0.89269341  1
  O  O2  1  0.68072598  0.97887147  0.79192040  1
  O  O3  1  0.78834672  0.22405821  0.04365860  1
  O  O4  1  0.34527364  0.28811714  0.27941006  1
  O  O5  1  0.04412832  0.64100600  0.61970150  1
  O  O6  1  0.63554622  0.70765922  0.75934346  1
  O  O7  1  0.86516262  0.32529993  0.30921523  1
  O  O8  1  0.18898923  0.09379280  0.47052630  1
  O  O9  1  0.35864247  0.02096052  0.27024313  1
  O  O10  1  0.80124440  0.84353248  0.04906589  1
  O  O11  1  0.80831751  0.02054103  0.24341527  1
  O  O12  1  0.24421715  0.17583628  0.98031249  1
  O  O13  1  0.23543067  0.98939928  0.79005370  1
  O  O14  1  0.56415418  0.76035509  0.23781410  1
  O  O15  1  0.98817808  0.79086911  0.32686495  1
  O  O16  1  0.43365903  0.25674508  0.75896556  1
  O  O17  1  0.81326921  0.90767929  0.57405907  1
  O  O18  1  0.83407665  0.45693813  0.78801355  1
  O  O19  1  0.60113575  0.16625902  0.50431079  1
  O  O20  1  0.06569175  0.47090328  0.11348410  1
  O  O21  1  0.41096555  0.85758731  0.55124607  1
  O  O22  1  0.66191413  0.46257045  0.06916327  1
  O  O23  1  0.01772258  0.20075202  0.70100449  1
loop_
_geom_bond_atom_site_label_1
_geom_bond_atom_site_label_2
_geom_bond_distance
_geom_bond_site_symmetry_2
Mg0 O6 2.053984 1_555
Mg0 O0 2.078354 1_555
Mg0 O16 2.080731 1_555
Mg0 O18 2.224191 1_555
Co0 O14 1.975470 1_555
Co0 O21 2.048273 1_555
Co0 O15 2.220131 1_455
Co0 O9 2.279473 1_565
Co1 O10 1.966856 1_556
Co1 O1 1.973176 1_655
Co1 O22 2.048053 1_556
Co1 O6 2.088696 1_555
Co1 O20 2.545277 1_656
Co2 O21 2.010072 1_555
Co2 O17 2.021258 1_455
Co2 O5 2.044463 1_555
Co2 O15 2.160128 1_455
Co2 O8 2.165521 1_565
Co2 O13 2.369427 1_555
Co3 O4 2.041817 1_555
Co3 O12 2.090938 1_554
Co3 O20 2.098135 1_555
Co3 O0 2.107812 1_554
Co3 O22 2.136980 1_555
Co4 O19 2.057588 1_555
Co4 O8 2.058796 1_655
Co4 O7 2.059141 1_555
Co4 O11 2.137050 1_555
Co4 O17 2.251230 1_545
Co4 O23 2.313338 1_655
Co5 O16 2.033194 1_555
Co5 O23 2.045957 1_655
Co5 O18 2.162200 1_555
Co5 O2 2.177702 1_545
Co5 O19 2.218573 1_555
Co5 O3 2.606575 1_556
Ag0 O7 2.468827 1_455
Ag0 O4 2.609858 1_555
Ag0 Ag1 2.634873 1_555
Ag0 Co0 2.661216 1_555
Ag0 O20 2.676574 1_555
Ag0 Mg0 2.778247 1_555
Ag1 O5 2.452607 1_655
Ag1 O14 2.587461 1_555
H0 O9 0.998698 1_555
H1 O13 0.997391 1_555
H2 O2 1.049146 1_555
H2 O10 1.492869 1_556
H3 O3 1.073970 1_555
H3 O11 1.386425 1_555
O0 P3 1.565036 1_555
O1 P3 1.559646 1_555
O2 P4 1.607787 1_555
O3 P5 1.585057 1_555
O4 P2 1.514512 1_555
O5 P3 1.545836 1_555
O6 P4 1.538006 1_555
O7 P5 1.538325 1_555
O8 P2 1.544063 1_555
O9 P2 1.635860 1_555
O10 P1 1.568100 1_555
O11 P1 1.544098 1_545
O12 P0 1.533915 1_555
O13 P0 1.616852 1_565
O14 P1 1.546974 1_555
O15 P1 1.570041 1_555
O16 P0 1.552777 1_555
O17 P4 1.535974 1_555
O18 P3 1.583158 1_655
O19 P2 1.551286 1_555
O20 P5 1.541725 1_455
O21 P4 1.536989 1_555
O22 P5 1.582410 1_555
O23 P0 1.546391 1_555
