# generated using pymatgen
data_DyB4W
_symmetry_space_group_name_H-M   'P 1'
_cell_length_a   6.02624550
_cell_length_b   11.64459594
_cell_length_c   3.61954200
_cell_angle_alpha   90.00000387
_cell_angle_beta   89.99999620
_cell_angle_gamma   89.99997096
_symmetry_Int_Tables_number   1
_chemical_formula_structural   DyB4W
_chemical_formula_sum   'Dy4 B16 W4'
_cell_volume   253.99482253
_cell_formula_units_Z   4
loop_
 _symmetry_equiv_pos_site_id
 _symmetry_equiv_pos_as_xyz
  1  'x, y, z'
loop_
 _atom_site_type_symbol
 _atom_site_label
 _atom_site_symmetry_multiplicity
 _atom_site_fract_x
 _atom_site_fract_y
 _atom_site_fract_z
 _atom_site_occupancy
  Dy  Dy0  1  0.62734206  0.35063032  0.00000001  1
  Dy  Dy1  1  0.37265568  0.64936479  0.00000004  1
  Dy  Dy2  1  0.12734386  0.14937046  0.00000002  1
  Dy  Dy3  1  0.87265852  0.85063485  0.00000003  1
  B  B0  1  0.78630248  0.18630563  0.49999998  1
  B  B1  1  0.21370083  0.81369997  0.50000001  1
  B  B2  1  0.28630243  0.31369516  0.50000003  1
  B  B3  1  0.71369994  0.68630025  0.50000005  1
  B  B4  1  0.86611099  0.03203450  0.50000001  1
  B  B5  1  0.13389188  0.96797672  0.49999996  1
  B  B6  1  0.36610836  0.46796603  0.50000000  1
  B  B7  1  0.63388827  0.53202322  0.50000008  1
  B  B8  1  0.88620120  0.45273909  0.50000005  1
  B  B9  1  0.11379816  0.54725090  0.50000009  1
  B  B10  1  0.38620284  0.04726124  0.49999999  1
  B  B11  1  0.61380086  0.95274984  0.50000000  1
  B  B12  1  0.97603877  0.30693729  0.50000004  1
  B  B13  1  0.02396288  0.69305643  0.50000003  1
  B  B14  1  0.47603929  0.19306336  0.49999954  1
  B  B15  1  0.52396451  0.80694300  0.49999997  1
  W  W0  1  0.63007465  0.08413014  -0.00000005  1
  W  W1  1  0.36992152  0.91588153  0.00000006  1
  W  W2  1  0.13007315  0.41587014  0.00000011  1
  W  W3  1  0.86991886  0.58411816  -0.00000008  1
loop_
_geom_bond_atom_site_label_1
_geom_bond_atom_site_label_2
_geom_bond_distance
_geom_bond_site_symmetry_2
Dy0 W3 3.086941 1_555
Dy0 W2 3.091460 1_555
Dy0 W0 3.103331 1_555
Dy0 W2 3.123379 1_655
Dy1 W2 3.087027 1_555
Dy1 W3 3.091446 1_555
Dy1 W1 3.103523 1_555
Dy1 W3 3.123431 1_455
Dy2 W1 3.086953 1_545
Dy2 W0 3.091464 1_455
Dy2 W2 3.103325 1_555
Dy2 W0 3.123378 1_555
Dy3 W0 3.087036 1_565
Dy3 W1 3.091446 1_655
Dy3 W3 3.103523 1_555
Dy3 W1 3.123432 1_555
B0 B12 1.811232 1_555
B0 B4 1.859691 1_555
B0 B14 1.871377 1_555
B0 W0 2.361618 1_556
B0 W0 2.361618 1_555
B0 Dy2 2.772020 1_655
B0 Dy2 2.772020 1_656
B0 Dy0 2.802565 1_556
B0 Dy0 2.802565 1_555
B1 B13 1.811345 1_555
B1 B5 1.859755 1_555
B1 B15 1.871380 1_555
B1 W1 2.361636 1_555
B1 W1 2.361636 1_556
B1 Dy3 2.772024 1_456
B1 Dy3 2.772024 1_455
B1 Dy1 2.802637 1_555
B1 Dy1 2.802637 1_556
B2 B6 1.859685 1_555
B2 W2 2.361618 1_555
B2 W2 2.361618 1_556
B2 Dy0 2.772013 1_555
B2 Dy0 2.772013 1_556
B2 Dy2 2.802562 1_555
B2 Dy2 2.802562 1_556
B3 B7 1.859763 1_555
B3 W3 2.361634 1_556
B3 W3 2.361635 1_555
B3 Dy1 2.772034 1_556
B3 Dy1 2.772034 1_555
B3 Dy3 2.802640 1_556
B3 Dy3 2.802641 1_555
B4 B5 1.777773 1_645
B4 W0 2.380448 1_556
B4 W0 2.380448 1_555
B4 Dy2 2.760508 1_655
B4 Dy2 2.760508 1_656
B4 Dy3 2.781860 1_545
B4 Dy3 2.781861 1_546
B5 W1 2.380422 1_555
B5 W1 2.380423 1_556
B5 Dy3 2.760544 1_455
B5 Dy3 2.760544 1_456
B5 Dy2 2.781808 1_565
B5 Dy2 2.781808 1_566
B6 B7 1.777765 1_555
B6 B9 1.778831 1_555
B6 W2 2.380445 1_555
B6 W2 2.380445 1_556
B6 Dy0 2.760508 1_555
B6 Dy0 2.760509 1_556
B6 Dy1 2.781853 1_555
B6 Dy1 2.781853 1_556
B7 B8 1.778841 1_555
B7 W3 2.380425 1_556
B7 W3 2.380426 1_555
B7 Dy1 2.760538 1_556
B7 Dy1 2.760539 1_555
B7 Dy0 2.781801 1_556
B7 Dy0 2.781801 1_555
B8 B9 1.758516 1_655
B8 W2 2.370529 1_655
B8 W2 2.370529 1_656
B8 W3 2.371783 1_556
B8 W3 2.371784 1_555
B8 Dy0 2.668796 1_556
B8 Dy0 2.668796 1_555
B9 W3 2.370552 1_456
B9 W3 2.370554 1_455
B9 W2 2.371795 1_555
B9 W2 2.371795 1_556
B9 Dy1 2.668816 1_556
B9 Dy1 2.668817 1_555
B10 B11 1.758517 1_545
B10 B5 1.778834 1_545
B10 B14 1.782032 1_555
B10 W0 2.370529 1_556
B10 W0 2.370529 1_555
B10 W1 2.371788 1_545
B10 W1 2.371789 1_546
B10 Dy2 2.668797 1_556
B10 Dy2 2.668797 1_555
B11 B4 1.778830 1_565
B11 B15 1.782084 1_555
B11 W1 2.370556 1_555
B11 W1 2.370556 1_556
B11 W0 2.371791 1_566
B11 W0 2.371791 1_565
B11 Dy3 2.668822 1_555
B11 Dy3 2.668822 1_556
B12 B8 1.782030 1_555
B12 B2 1.871380 1_655
B12 W2 2.397073 1_655
B12 W2 2.397073 1_656
B12 Dy2 2.733706 1_655
B12 Dy2 2.733706 1_656
B12 Dy0 2.819527 1_556
B12 Dy0 2.819527 1_555
B13 B9 1.782067 1_555
B13 B3 1.871375 1_455
B13 W3 2.397128 1_456
B13 W3 2.397129 1_455
B13 Dy3 2.733795 1_456
B13 Dy3 2.733796 1_455
B13 Dy1 2.819506 1_555
B13 Dy1 2.819506 1_556
B14 B2 1.811234 1_555
B14 W0 2.397076 1_555
B14 W0 2.397078 1_556
B14 Dy0 2.733702 1_555
B14 Dy0 2.733704 1_556
B14 Dy2 2.819520 1_555
B14 Dy2 2.819522 1_556
B15 B3 1.811328 1_555
B15 W1 2.397127 1_555
B15 W1 2.397127 1_556
B15 Dy1 2.733803 1_555
B15 Dy1 2.733804 1_556
B15 Dy3 2.819512 1_555
B15 Dy3 2.819513 1_556
