# generated using pymatgen
data_Sr3Sm(CoO4)2
_symmetry_space_group_name_H-M   'P 1'
_cell_length_a   6.84721306
_cell_length_b   6.84721306
_cell_length_c   5.38218900
_cell_angle_alpha   90.00000000
_cell_angle_beta   90.00000000
_cell_angle_gamma   133.94174768
_symmetry_Int_Tables_number   1
_chemical_formula_structural   Sr3Sm(CoO4)2
_chemical_formula_sum   'Sr3 Sm1 Co2 O8'
_cell_volume   181.69654934
_cell_formula_units_Z   1
loop_
 _symmetry_equiv_pos_site_id
 _symmetry_equiv_pos_as_xyz
  1  'x, y, z'
loop_
 _atom_site_type_symbol
 _atom_site_label
 _atom_site_symmetry_multiplicity
 _atom_site_fract_x
 _atom_site_fract_y
 _atom_site_fract_z
 _atom_site_occupancy
  Sr  Sr0  1  0.64665100  0.35334900  0.00000000  1
  Sr  Sr1  1  0.35574800  0.64425200  0.00000000  1
  Sr  Sr2  1  0.85454400  0.14545600  0.50000000  1
  Sm  Sm0  1  0.13818400  0.86181600  0.50000000  1
  Co  Co0  1  0.49941500  0.50058500  0.50000000  1
  Co  Co1  1  0.99983000  0.00017000  0.00000000  1
  O  O0  1  0.84377600  0.15622400  0.00000000  1
  O  O1  1  0.32144800  0.67855200  0.50000000  1
  O  O2  1  0.66152400  0.33847600  0.50000000  1
  O  O3  1  0.15950300  0.84049700  0.00000000  1
  O  O4  1  0.24819000  0.23850100  0.25089400  1
  O  O5  1  0.76149900  0.75181000  0.74910600  1
  O  O6  1  0.24819000  0.23850100  0.74910600  1
  O  O7  1  0.76149900  0.75181000  0.25089400  1
loop_
_geom_bond_atom_site_label_1
_geom_bond_atom_site_label_2
_geom_bond_distance
_geom_bond_site_symmetry_2
Co0 O7 1.921659 1_555
Co0 O4 1.921659 1_555
Co0 O5 1.921659 1_555
Co0 O6 1.921659 1_555
Co0 O2 2.043070 1_555
Co0 O1 2.242929 1_555
Co1 O6 1.878030 1_654
Co1 O4 1.878030 1_655
Co1 O7 1.878030 1_545
Co1 O5 1.878030 1_544
Co1 O0 1.966759 1_555
Co1 O3 2.012369 1_645
O0 Sr0 2.484379 1_555
O0 Sr1 2.682869 1_655
O0 Sr1 2.682869 1_545
O0 Sr2 2.694514 1_555
O0 Sr2 2.694514 1_554
O1 Sm0 2.309688 1_555
O1 Sr2 2.710904 1_455
O1 Sr2 2.710904 1_565
O1 Sr1 2.725594 1_556
O1 Sr1 2.725594 1_555
O2 Sr2 2.432643 1_555
O2 Sm0 2.694726 1_545
O2 Sm0 2.694726 1_655
O2 Sr0 2.697615 1_555
O2 Sr0 2.697615 1_556
O3 Sr1 2.473288 1_555
O3 Sr0 2.683516 1_565
O3 Sr0 2.683516 1_455
O3 Sm0 2.704474 1_554
O3 Sm0 2.704474 1_555
O4 Sm0 2.514188 1_545
O4 Sr0 2.628319 1_555
O4 Sr2 2.661818 1_455
O4 Sr1 2.691636 1_555
O5 Sm0 2.514188 1_655
O5 Sr0 2.628319 1_556
O5 Sr2 2.661818 1_565
O5 Sr1 2.691636 1_556
O6 Sm0 2.514188 1_545
O6 Sr0 2.628319 1_556
O6 Sr2 2.661818 1_455
O6 Sr1 2.691636 1_556
O7 Sm0 2.514188 1_655
O7 Sr0 2.628319 1_555
O7 Sr2 2.661818 1_565
O7 Sr1 2.691636 1_555
