# generated using pymatgen
data_RbLa(WO4)2
_symmetry_space_group_name_H-M   'P 1'
_cell_length_a   7.62300983
_cell_length_b   7.62300983
_cell_length_c   7.75638859
_cell_angle_alpha   66.36643367
_cell_angle_beta   66.36643367
_cell_angle_gamma   92.29440505
_symmetry_Int_Tables_number   1
_chemical_formula_structural   RbLa(WO4)2
_chemical_formula_sum   'Rb2 La2 W4 O16'
_cell_volume   367.30998897
_cell_formula_units_Z   2
loop_
 _symmetry_equiv_pos_site_id
 _symmetry_equiv_pos_as_xyz
  1  'x, y, z'
loop_
 _atom_site_type_symbol
 _atom_site_label
 _atom_site_symmetry_multiplicity
 _atom_site_fract_x
 _atom_site_fract_y
 _atom_site_fract_z
 _atom_site_occupancy
  Rb  Rb0  1  0.31404200  0.31404200  0.53348700  1
  Rb  Rb1  1  0.68595800  0.68595800  0.46651300  1
  La  La0  1  0.29868200  0.70131800  0.00000000  1
  La  La1  1  0.70131800  0.29868200  0.00000000  1
  W  W0  1  0.20111300  0.20111300  0.06828000  1
  W  W1  1  0.79888700  0.79888700  0.93172000  1
  W  W2  1  0.83893000  0.16107000  0.50000000  1
  W  W3  1  0.16107000  0.83893000  0.50000000  1
  O  O0  1  0.98476800  0.98476800  0.34728900  1
  O  O1  1  0.01523200  0.01523200  0.65271100  1
  O  O2  1  0.29116500  0.03824900  0.94905900  1
  O  O3  1  0.96175100  0.70883500  0.05094100  1
  O  O4  1  0.70883500  0.96175100  0.05094100  1
  O  O5  1  0.03824900  0.29116500  0.94905900  1
  O  O6  1  0.58159000  0.58159000  0.09441500  1
  O  O7  1  0.41841000  0.41841000  0.90558500  1
  O  O8  1  0.91047800  0.65698900  0.73368800  1
  O  O9  1  0.34301100  0.08952200  0.26631200  1
  O  O10  1  0.08952200  0.34301100  0.26631200  1
  O  O11  1  0.65698900  0.91047800  0.73368800  1
  O  O12  1  0.78339800  0.30632800  0.64406300  1
  O  O13  1  0.69367200  0.21660200  0.35593700  1
  O  O14  1  0.21660200  0.69367200  0.35593700  1
  O  O15  1  0.30632800  0.78339800  0.64406300  1
loop_
_geom_bond_atom_site_label_1
_geom_bond_atom_site_label_2
_geom_bond_distance
_geom_bond_site_symmetry_2
La0 O2 2.443870 1_564
La0 O3 2.443870 1_455
La0 O14 2.549491 1_555
La0 O15 2.549491 1_554
La0 O11 2.599328 1_554
La0 O10 2.599328 1_555
La0 O7 2.628352 1_554
La0 O6 2.628352 1_555
La1 O5 2.443870 1_654
La1 O4 2.443870 1_545
La1 O13 2.549491 1_555
La1 O12 2.549491 1_554
La1 O8 2.599328 1_554
La1 O9 2.599328 1_555
La1 O7 2.628352 1_554
La1 O6 2.628352 1_555
O0 W0 2.045038 1_665
O0 W2 2.187537 1_565
O0 W3 2.187537 1_655
O0 Rb1 2.727457 1_555
O1 W1 2.045038 1_445
O1 W2 2.187537 1_455
O1 W3 2.187537 1_545
O1 Rb0 2.727457 1_555
O2 W0 1.829609 1_556
O2 Rb0 2.987793 1_555
O3 W1 1.829609 1_554
O3 Rb1 2.987793 1_555
O4 W1 1.829609 1_554
O4 Rb1 2.987793 1_555
O5 W0 1.829609 1_556
O5 Rb0 2.987793 1_555
O6 W1 1.873108 1_554
O6 Rb0 2.906289 1_555
O7 W0 1.873108 1_556
O7 Rb1 2.906289 1_555
O8 W3 1.963230 1_655
O8 W1 2.147372 1_555
O8 Rb1 3.127237 1_555
O9 W3 1.963230 1_545
O9 W0 2.147372 1_555
O9 Rb0 3.127237 1_555
O10 W2 1.963230 1_455
O10 W0 2.147372 1_555
O10 Rb0 3.127237 1_555
O11 W2 1.963230 1_565
O11 W1 2.147372 1_555
O11 Rb1 3.127237 1_555
O12 W2 1.817756 1_555
O12 Rb1 2.935979 1_555
O13 W2 1.817756 1_555
O13 Rb0 2.935979 1_555
O14 W3 1.817756 1_555
O14 Rb0 2.935979 1_555
O15 W3 1.817756 1_555
O15 Rb1 2.935979 1_555
