# generated using pymatgen
data_Gd2CoSi2
_symmetry_space_group_name_H-M   'P 1'
_cell_length_a   5.68536173
_cell_length_b   5.68536173
_cell_length_c   10.01375418
_cell_angle_alpha   62.68687527
_cell_angle_beta   62.68687527
_cell_angle_gamma   42.75098194
_symmetry_Int_Tables_number   1
_chemical_formula_structural   Gd2CoSi2
_chemical_formula_sum   'Gd4 Co2 Si4'
_cell_volume   191.19147438
_cell_formula_units_Z   2
loop_
 _symmetry_equiv_pos_site_id
 _symmetry_equiv_pos_as_xyz
  1  'x, y, z'
loop_
 _atom_site_type_symbol
 _atom_site_label
 _atom_site_symmetry_multiplicity
 _atom_site_fract_x
 _atom_site_fract_y
 _atom_site_fract_z
 _atom_site_occupancy
  Gd  Gd0  1  0.99807100  0.99807100  0.67330800  1
  Gd  Gd1  1  0.00192900  0.00192900  0.32669200  1
  Gd  Gd2  1  0.18702900  0.18702900  0.89739900  1
  Gd  Gd3  1  0.81297100  0.81297100  0.10260100  1
  Co  Co0  1  0.27334100  0.27334100  0.38147000  1
  Co  Co1  1  0.72665900  0.72665900  0.61853000  1
  Si  Si0  1  0.34551100  0.34551100  0.56536400  1
  Si  Si1  1  0.65448900  0.65448900  0.43463600  1
  Si  Si2  1  0.50015800  0.50015800  0.87219100  1
  Si  Si3  1  0.49984200  0.49984200  0.12780900  1
loop_
_geom_bond_atom_site_label_1
_geom_bond_atom_site_label_2
_geom_bond_distance
_geom_bond_site_symmetry_2
Gd0 Si2 2.881696 1_655
Gd0 Si2 2.881696 1_565
Gd0 Si1 2.974595 1_655
Gd0 Si1 2.974595 1_565
Gd0 Si0 3.129321 1_655
Gd0 Si0 3.129321 1_565
Gd0 Si0 3.283851 1_665
Gd1 Si3 2.881696 1_545
Gd1 Si3 2.881696 1_455
Gd1 Si0 2.974595 1_545
Gd1 Si0 2.974595 1_455
Gd1 Si1 3.129321 1_545
Gd1 Si1 3.129321 1_455
Gd1 Si1 3.283851 1_445
Gd2 Si0 2.893522 1_555
Gd2 Si2 2.960601 1_455
Gd2 Si2 2.960601 1_545
Gd2 Si3 3.006522 1_456
Gd2 Si3 3.006522 1_546
Gd2 Si2 3.198750 1_555
Gd3 Si1 2.893522 1_555
Gd3 Si3 2.960601 1_655
Gd3 Si3 2.960601 1_565
Gd3 Si2 3.006522 1_654
Gd3 Si2 3.006522 1_564
Gd3 Si3 3.198750 1_555
Co0 Si0 2.315550 1_555
Co0 Si1 2.345397 1_545
Co0 Si1 2.345397 1_455
Co0 Si3 2.490064 1_555
Co0 Gd0 2.939648 1_445
Co0 Gd1 3.024047 1_565
Co0 Gd1 3.024047 1_655
Co0 Gd1 3.180174 1_555
Co0 Gd3 3.333684 1_455
Co0 Gd3 3.333684 1_545
Co1 Si1 2.315550 1_555
Co1 Si0 2.345397 1_655
Co1 Si0 2.345397 1_565
Co1 Si2 2.490064 1_555
Co1 Gd1 2.939648 1_665
Co1 Gd0 3.024047 1_455
Co1 Gd0 3.024047 1_545
Co1 Gd0 3.180174 1_555
Co1 Gd2 3.333684 1_655
Co1 Gd2 3.333684 1_565
Si0 Si1 2.862960 1_555
Si2 Si3 2.558049 1_556
