# generated using pymatgen
data_Ca4Mg3Fe(SiO3)8
_symmetry_space_group_name_H-M   'P 1'
_cell_length_a   5.32235400
_cell_length_b   6.71163992
_cell_length_c   13.39840141
_cell_angle_alpha   90.40096289
_cell_angle_beta   101.16382497
_cell_angle_gamma   101.72774783
_symmetry_Int_Tables_number   1
_chemical_formula_structural   Ca4Mg3Fe(SiO3)8
_chemical_formula_sum   'Ca4 Mg3 Fe1 Si8 O24'
_cell_volume   459.21964339
_cell_formula_units_Z   1
loop_
 _symmetry_equiv_pos_site_id
 _symmetry_equiv_pos_as_xyz
  1  'x, y, z'
loop_
 _atom_site_type_symbol
 _atom_site_label
 _atom_site_symmetry_multiplicity
 _atom_site_fract_x
 _atom_site_fract_y
 _atom_site_fract_z
 _atom_site_occupancy
  Ca  Ca0  1  0.10041000  0.70097600  0.85064600  1
  Ca  Ca1  1  0.60013500  0.70023200  0.34990200  1
  Ca  Ca2  1  0.39856400  0.29739800  0.64881000  1
  Ca  Ca3  1  0.89970800  0.29915100  0.14954700  1
  Mg  Mg0  1  0.29646300  0.09271600  0.04650200  1
  Mg  Mg1  1  0.70360800  0.90709300  0.95381500  1
  Mg  Mg2  1  0.20411600  0.90808900  0.45375200  1
  Fe  Fe0  1  0.79634300  0.09326200  0.54638300  1
  Si  Si0  1  0.86717700  0.62152100  0.59735400  1
  Si  Si1  1  0.36614700  0.62031000  0.09673000  1
  Si  Si2  1  0.04133100  0.19435100  0.81145900  1
  Si  Si3  1  0.54030100  0.19360600  0.30947100  1
  Si  Si4  1  0.63381000  0.37993000  0.90346000  1
  Si  Si5  1  0.13496500  0.38127000  0.40247800  1
  Si  Si6  1  0.45853900  0.80540700  0.69078300  1
  Si  Si7  1  0.95931600  0.80663100  0.18988700  1
  O  O0  1  0.16904000  0.63206100  0.66719100  1
  O  O1  1  0.66944700  0.63323700  0.16648700  1
  O  O2  1  0.81357800  0.33336800  0.81676200  1
  O  O3  1  0.31423800  0.33401100  0.31588200  1
  O  O4  1  0.33079000  0.36740900  0.83383300  1
  O  O5  1  0.83050500  0.36663700  0.33356400  1
  O  O6  1  0.68708100  0.66800900  0.68366200  1
  O  O7  1  0.18615500  0.66691400  0.18331900  1
  O  O8  1  0.73549900  0.39107300  0.55750700  1
  O  O9  1  0.23692100  0.38886500  0.05734100  1
  O  O10  1  0.01745300  0.11451600  0.69622200  1
  O  O11  1  0.51503000  0.11537200  0.19384800  1
  O  O12  1  0.76324600  0.61136400  0.94260500  1
  O  O13  1  0.26340100  0.61227100  0.44235300  1
  O  O14  1  0.48537900  0.88468500  0.80631600  1
  O  O15  1  0.98485800  0.88515200  0.30558600  1
  O  O16  1  0.87192500  0.79301600  0.51269500  1
  O  O17  1  0.37198100  0.79630700  0.01420900  1
  O  O18  1  0.04050600  0.02837400  0.89880800  1
  O  O19  1  0.53706300  0.02549200  0.39584900  1
  O  O20  1  0.62800300  0.20361200  0.98577000  1
  O  O21  1  0.13644500  0.20546300  0.48474000  1
  O  O22  1  0.45090900  0.96929100  0.60264500  1
  O  O23  1  0.95961100  0.97155500  0.10182600  1
loop_
_geom_bond_atom_site_label_1
_geom_bond_atom_site_label_2
_geom_bond_distance
_geom_bond_site_symmetry_2
Ca0 O14 2.350678 1_555
Ca0 O12 2.351138 1_455
Ca0 O17 2.383064 1_556
Ca0 O18 2.385614 1_565
Ca0 O0 2.605683 1_555
Ca0 O2 2.609361 1_455
Ca0 O4 2.789663 1_555
Ca0 O6 2.789866 1_455
Ca1 O15 2.352385 1_555
Ca1 O13 2.352595 1_555
Ca1 O19 2.369896 1_565
Ca1 O16 2.372936 1_555
Ca1 O3 2.599991 1_555
Ca1 O1 2.603927 1_555
Ca1 O7 2.788323 1_555
Ca1 O5 2.788785 1_555
Ca2 O8 2.347247 1_555
Ca2 O10 2.349960 1_555
Ca2 O21 2.367054 1_555
Ca2 O22 2.367843 1_545
Ca2 O4 2.625888 1_555
Ca2 O6 2.629941 1_555
Ca2 O0 2.796842 1_555
Ca2 O2 2.802137 1_555
Ca3 O11 2.349417 1_555
Ca3 O9 2.353652 1_655
Ca3 O23 2.385164 1_545
Ca3 O20 2.385819 1_554
Ca3 O7 2.609404 1_655
Ca3 O5 2.612185 1_555
Ca3 O3 2.787116 1_655
Ca3 O1 2.792649 1_555
Mg0 O11 2.075675 1_555
Mg0 O9 2.083770 1_555
Mg0 O23 2.086958 1_445
Mg0 O20 2.088155 1_554
Mg0 O18 2.159450 1_554
Mg0 O17 2.164898 1_545
Mg1 O14 2.076832 1_555
Mg1 O12 2.081646 1_555
Mg1 O18 2.085118 1_665
Mg1 O17 2.085896 1_556
Mg1 O23 2.162972 1_556
Mg1 O20 2.164760 1_565
Mg2 O13 2.081800 1_555
Mg2 O19 2.082365 1_565
Mg2 O16 2.083328 1_455
Mg2 O15 2.086168 1_455
Mg2 O21 2.150378 1_565
Mg2 O22 2.151349 1_555
Fe0 O8 2.097603 1_555
Fe0 O10 2.109174 1_655
Fe0 O21 2.135258 1_655
Fe0 O22 2.136419 1_545
Fe0 O16 2.193965 1_545
Fe0 O19 2.198498 1_555
O0 Si0 1.683009 1_455
O0 Si6 1.704441 1_555
O1 Si1 1.686603 1_555
O1 Si7 1.706026 1_555
O2 Si2 1.684395 1_655
O2 Si4 1.705667 1_555
O3 Si3 1.686081 1_555
O3 Si5 1.704042 1_555
O4 Si4 1.685113 1_555
O4 Si2 1.703310 1_555
O5 Si5 1.686028 1_655
O5 Si3 1.706180 1_555
O6 Si6 1.684869 1_555
O6 Si0 1.702682 1_555
O7 Si7 1.686690 1_455
O7 Si1 1.705470 1_555
O8 Si0 1.603537 1_555
O9 Si1 1.605674 1_555
O10 Si2 1.603722 1_555
O11 Si3 1.604034 1_555
O12 Si4 1.605020 1_555
O13 Si5 1.603929 1_555
O14 Si6 1.603633 1_555
O15 Si7 1.605340 1_555
O16 Si0 1.621617 1_555
O17 Si1 1.623388 1_555
O18 Si2 1.621389 1_555
O19 Si3 1.622007 1_555
O20 Si4 1.623011 1_555
O21 Si5 1.620423 1_555
O22 Si6 1.619817 1_555
O23 Si7 1.623469 1_555
