# generated using pymatgen
data_Cu3Ru
_symmetry_space_group_name_H-M   'P 1'
_cell_length_a   5.25848560
_cell_length_b   5.25848560
_cell_length_c   4.21198800
_cell_angle_alpha   90.00000000
_cell_angle_beta   90.00000000
_cell_angle_gamma   119.99999497
_symmetry_Int_Tables_number   1
_chemical_formula_structural   Cu3Ru
_chemical_formula_sum   'Cu6 Ru2'
_cell_volume   100.86468973
_cell_formula_units_Z   2
loop_
 _symmetry_equiv_pos_site_id
 _symmetry_equiv_pos_as_xyz
  1  'x, y, z'
loop_
 _atom_site_type_symbol
 _atom_site_label
 _atom_site_symmetry_multiplicity
 _atom_site_fract_x
 _atom_site_fract_y
 _atom_site_fract_z
 _atom_site_occupancy
  Cu  Cu0  1  0.16440000  0.32880000  0.25000000  1
  Cu  Cu1  1  0.67120000  0.83560000  0.25000000  1
  Cu  Cu2  1  0.16440000  0.83560000  0.25000000  1
  Cu  Cu3  1  0.83560000  0.67120000  0.75000000  1
  Cu  Cu4  1  0.32880000  0.16440000  0.75000000  1
  Cu  Cu5  1  0.83560000  0.16440000  0.75000000  1
  Ru  Ru0  1  0.33333300  0.66666700  0.75000000  1
  Ru  Ru1  1  0.66666700  0.33333300  0.25000000  1
loop_
_geom_bond_atom_site_label_1
_geom_bond_atom_site_label_2
_geom_bond_distance
_geom_bond_site_symmetry_2
Cu0 Cu4 2.584041 1_555
Cu0 Cu4 2.584041 1_554
Cu0 Cu5 2.584041 1_454
Cu0 Cu5 2.584041 1_455
Cu0 Cu2 2.593485 1_545
Cu0 Cu1 2.593485 1_445
Cu0 Ru0 2.608184 1_555
Cu0 Ru0 2.608184 1_554
Cu0 Ru1 2.629321 1_455
Cu0 Ru1 2.629326 1_555
Cu0 Cu2 2.665001 1_555
Cu0 Cu1 2.665001 1_555
Cu1 Cu3 2.584041 1_555
Cu1 Cu3 2.584041 1_554
Cu1 Cu5 2.584041 1_565
Cu1 Cu5 2.584041 1_564
Cu1 Cu2 2.593485 1_655
Cu1 Ru0 2.608184 1_554
Cu1 Ru0 2.608184 1_555
Cu1 Ru1 2.629321 1_565
Cu1 Ru1 2.629326 1_555
Cu1 Cu2 2.665001 1_555
Cu2 Cu3 2.584041 1_454
Cu2 Cu3 2.584041 1_455
Cu2 Cu4 2.584041 1_565
Cu2 Cu4 2.584041 1_564
Cu2 Ru0 2.608181 1_554
Cu2 Ru0 2.608181 1_555
Cu2 Ru1 2.629324 1_455
Cu2 Ru1 2.629324 1_565
Cu3 Cu5 2.593485 1_565
Cu3 Cu4 2.593485 1_665
Cu3 Ru1 2.608184 1_555
Cu3 Ru1 2.608184 1_556
Cu3 Ru0 2.629321 1_655
Cu3 Ru0 2.629326 1_555
Cu3 Cu5 2.665001 1_555
Cu3 Cu4 2.665001 1_555
Cu4 Cu5 2.593485 1_455
Cu4 Ru1 2.608184 1_556
Cu4 Ru1 2.608184 1_555
Cu4 Ru0 2.629321 1_545
Cu4 Ru0 2.629326 1_555
Cu4 Cu5 2.665001 1_555
Cu5 Ru1 2.608181 1_555
Cu5 Ru1 2.608181 1_556
Cu5 Ru0 2.629324 1_545
Cu5 Ru0 2.629324 1_655
