# generated using pymatgen
data_SrLaTiMnO6
_symmetry_space_group_name_H-M   'P 1'
_cell_length_a   5.68391505
_cell_length_b   9.66826267
_cell_length_c   5.59026491
_cell_angle_alpha   72.16516837
_cell_angle_beta   59.74165405
_cell_angle_gamma   72.94995658
_symmetry_Int_Tables_number   1
_chemical_formula_structural   SrLaTiMnO6
_chemical_formula_sum   'Sr2 La2 Ti2 Mn2 O12'
_cell_volume   248.97129423
_cell_formula_units_Z   2
loop_
 _symmetry_equiv_pos_site_id
 _symmetry_equiv_pos_as_xyz
  1  'x, y, z'
loop_
 _atom_site_type_symbol
 _atom_site_label
 _atom_site_symmetry_multiplicity
 _atom_site_fract_x
 _atom_site_fract_y
 _atom_site_fract_z
 _atom_site_occupancy
  Sr  Sr0  1  0.86789900  0.37397900  0.87611500  1
  Sr  Sr1  1  0.38643800  0.87498800  0.37452300  1
  La  La0  1  0.63368800  0.12109300  0.62578100  1
  La  La1  1  0.11350200  0.61919400  0.12768700  1
  Ti  Ti0  1  0.48809800  0.49798000  0.50660700  1
  Ti  Ti1  1  0.01291600  0.99763100  0.99580000  1
  Mn  Mn0  1  0.25055000  0.24954300  0.25090600  1
  Mn  Mn1  1  0.75007100  0.75021300  0.74950000  1
  O  O0  1  0.96168800  0.87079200  0.83891300  1
  O  O1  1  0.40058100  0.38453000  0.31452200  1
  O  O2  1  0.40425400  0.88667900  0.91254100  1
  O  O3  1  0.83427200  0.37782400  0.43542600  1
  O  O4  1  0.83975200  0.87820600  0.37678200  1
  O  O5  1  0.31069700  0.37245900  0.87507900  1
  O  O6  1  0.09744900  0.61916500  0.56908000  1
  O  O7  1  0.66798400  0.12368900  0.04102200  1
  O  O8  1  0.67246500  0.62710100  0.12660100  1
  O  O9  1  0.20606300  0.12750200  0.62191400  1
  O  O10  1  0.52274100  0.62628000  0.68375100  1
  O  O11  1  0.07888700  0.12115000  0.19744600  1
loop_
_geom_bond_atom_site_label_1
_geom_bond_atom_site_label_2
_geom_bond_distance
_geom_bond_site_symmetry_2
La0 O9 2.424017 1_555
La0 O7 2.433452 1_556
La0 O11 2.455702 1_655
La0 O2 2.609170 1_545
La0 O3 2.722519 1_555
La0 O4 2.751402 1_545
La0 O5 2.845811 1_555
La0 O0 2.928879 1_545
La0 O1 2.983304 1_555
La0 O11 3.162418 1_556
La0 O7 3.167826 1_555
La0 O9 3.261132 1_655
La1 O10 2.397055 1_554
La1 O6 2.422724 1_555
La1 O8 2.488511 1_455
La1 O1 2.644988 1_555
La1 O0 2.652422 1_454
La1 O5 2.800259 1_554
La1 O3 2.808101 1_455
La1 O4 2.880730 1_455
La1 O2 3.076280 1_554
La1 O6 3.169806 1_554
La1 O8 3.197271 1_555
La1 O10 3.227841 1_455
Mn0 O1 1.949234 1_555
Mn0 O11 1.952853 1_555
Mn0 O9 1.976151 1_555
Mn0 O5 1.981972 1_554
Mn0 O3 2.191742 1_455
Mn0 O7 2.205151 1_555
Mn1 O6 1.957009 1_655
Mn1 O2 1.960969 1_555
Mn1 O4 1.962822 1_555
Mn1 O8 1.972087 1_556
Mn1 O0 2.200181 1_555
Mn1 O10 2.212853 1_555
O0 Ti1 1.866385 1_655
O0 Sr1 2.499254 1_655
O0 Sr1 3.128554 1_556
O1 Ti0 2.045328 1_555
O1 Sr0 2.550666 1_554
O1 Sr0 3.072309 1_455
O2 Ti1 2.044075 1_555
O2 Sr1 2.501439 1_556
O2 Sr1 3.096929 1_555
O3 Ti0 1.879656 1_555
O3 Sr0 2.553695 1_555
O3 Sr0 3.046129 1_554
O4 Ti1 1.971149 1_654
O4 Sr1 2.592302 1_555
O4 Sr1 3.092013 1_655
O5 Ti0 1.955920 1_555
O5 Sr0 2.509649 1_455
O5 Sr0 3.174355 1_555
O6 Ti0 2.090103 1_555
O6 Sr0 2.707814 1_455
O6 Sr1 2.988766 1_555
O7 Ti1 1.918624 1_644
O7 Sr0 2.680873 1_554
O7 Sr1 2.884806 1_545
O8 Ti0 2.017070 1_555
O8 Sr1 2.790483 1_555
O8 Sr0 2.849757 1_554
O9 Ti1 2.009656 1_545
O9 Sr0 2.833403 1_455
O9 Sr1 2.845260 1_545
O10 Ti0 1.910578 1_555
O10 Sr1 2.661121 1_555
O10 Sr0 2.944238 1_555
O11 Ti1 2.085819 1_544
O11 Sr1 2.749739 1_545
O11 Sr0 2.898696 1_454
