# generated using pymatgen
data_U6TlF25
_symmetry_space_group_name_H-M   'P 1'
_cell_length_a   8.17709835
_cell_length_b   8.17709835
_cell_length_c   16.64553700
_cell_angle_alpha   90.00000000
_cell_angle_beta   90.00000000
_cell_angle_gamma   120.00000282
_symmetry_Int_Tables_number   1
_chemical_formula_structural   U6TlF25
_chemical_formula_sum   'U12 Tl2 F50'
_cell_volume   963.88866286
_cell_formula_units_Z   2
loop_
 _symmetry_equiv_pos_site_id
 _symmetry_equiv_pos_as_xyz
  1  'x, y, z'
loop_
 _atom_site_type_symbol
 _atom_site_label
 _atom_site_symmetry_multiplicity
 _atom_site_fract_x
 _atom_site_fract_y
 _atom_site_fract_z
 _atom_site_occupancy
  U  U0  1  0.16666400  0.33332800  0.11277400  1
  U  U1  1  0.83333600  0.66667200  0.88722600  1
  U  U2  1  0.66667200  0.83333600  0.11277400  1
  U  U3  1  0.83333600  0.66667200  0.61277400  1
  U  U4  1  0.33332800  0.16666400  0.88722600  1
  U  U5  1  0.16666400  0.33332800  0.38722600  1
  U  U6  1  0.16666400  0.83333600  0.11277400  1
  U  U7  1  0.33332800  0.16666400  0.61277400  1
  U  U8  1  0.83333600  0.16666400  0.88722600  1
  U  U9  1  0.66667200  0.83333600  0.38722600  1
  U  U10  1  0.83333600  0.16666400  0.61277400  1
  U  U11  1  0.16666400  0.83333600  0.38722600  1
  Tl  Tl0  1  0.33333300  0.66666700  0.75000000  1
  Tl  Tl1  1  0.66666700  0.33333300  0.25000000  1
  F  F0  1  0.00000000  0.00000000  0.07265800  1
  F  F1  1  0.00000000  0.00000000  0.92734200  1
  F  F2  1  0.00000000  0.00000000  0.57265800  1
  F  F3  1  0.00000000  0.00000000  0.42734200  1
  F  F4  1  0.18822400  0.37644700  0.25000000  1
  F  F5  1  0.81177600  0.62355300  0.75000000  1
  F  F6  1  0.62355300  0.81177600  0.25000000  1
  F  F7  1  0.37644700  0.18822400  0.75000000  1
  F  F8  1  0.18822400  0.81177600  0.25000000  1
  F  F9  1  0.81177600  0.18822400  0.75000000  1
  F  F10  1  0.13706400  0.27412700  0.66146200  1
  F  F11  1  0.86293600  0.72587300  0.33853800  1
  F  F12  1  0.72587300  0.86293600  0.66146200  1
  F  F13  1  0.86293600  0.72587300  0.16146200  1
  F  F14  1  0.27412700  0.13706400  0.33853800  1
  F  F15  1  0.13706400  0.27412700  0.83853800  1
  F  F16  1  0.13706400  0.86293600  0.66146200  1
  F  F17  1  0.27412700  0.13706400  0.16146200  1
  F  F18  1  0.86293600  0.13706400  0.33853800  1
  F  F19  1  0.72587300  0.86293600  0.83853800  1
  F  F20  1  0.86293600  0.13706400  0.16146200  1
  F  F21  1  0.13706400  0.86293600  0.83853800  1
  F  F22  1  0.32268700  0.00000000  0.00000000  1
  F  F23  1  0.67731300  0.00000000  0.00000000  1
  F  F24  1  0.00000000  0.32268700  0.00000000  1
  F  F25  1  0.67731300  0.00000000  0.50000000  1
  F  F26  1  0.00000000  0.67731300  0.00000000  1
  F  F27  1  0.32268700  0.00000000  0.50000000  1
  F  F28  1  0.67731300  0.67731300  0.00000000  1
  F  F29  1  0.00000000  0.67731300  0.50000000  1
  F  F30  1  0.32268700  0.32268700  0.00000000  1
  F  F31  1  0.00000000  0.32268700  0.50000000  1
  F  F32  1  0.32268700  0.32268700  0.50000000  1
  F  F33  1  0.67731300  0.67731300  0.50000000  1
  F  F34  1  0.33333300  0.66666700  0.06714700  1
  F  F35  1  0.66666700  0.33333300  0.93285300  1
  F  F36  1  0.66666700  0.33333300  0.56714700  1
  F  F37  1  0.33333300  0.66666700  0.43285300  1
  F  F38  1  0.51472600  0.02945300  0.64497000  1
  F  F39  1  0.48527400  0.97054700  0.35503000  1
  F  F40  1  0.97054700  0.48527400  0.64497000  1
  F  F41  1  0.48527400  0.97054700  0.14497000  1
  F  F42  1  0.02945300  0.51472600  0.35503000  1
  F  F43  1  0.51472600  0.02945300  0.85503000  1
  F  F44  1  0.51472600  0.48527400  0.64497000  1
  F  F45  1  0.02945300  0.51472600  0.14497000  1
  F  F46  1  0.48527400  0.51472600  0.35503000  1
  F  F47  1  0.97054700  0.48527400  0.85503000  1
  F  F48  1  0.48527400  0.51472600  0.14497000  1
  F  F49  1  0.51472600  0.48527400  0.85503000  1
loop_
_geom_bond_atom_site_label_1
_geom_bond_atom_site_label_2
_geom_bond_distance
_geom_bond_site_symmetry_2
F0 U2 2.453119 1_445
F0 U0 2.453119 1_555
F0 U6 2.453119 1_545
F1 U1 2.453119 1_445
F1 U4 2.453119 1_555
F1 U8 2.453119 1_455
F2 U3 2.453119 1_445
F2 U7 2.453119 1_555
F2 U10 2.453119 1_455
F3 U9 2.453119 1_445
F3 U5 2.453119 1_555
F3 U11 2.453119 1_545
F4 U5 2.304520 1_555
F4 U0 2.304520 1_555
F5 U1 2.304520 1_555
F5 U3 2.304520 1_555
F6 U2 2.304520 1_555
F6 U9 2.304520 1_555
F7 U7 2.304520 1_555
F7 U4 2.304520 1_555
F8 U6 2.304521 1_555
F8 U11 2.304521 1_555
F9 U10 2.304521 1_555
F9 U8 2.304521 1_555
F10 U7 2.326983 1_555
F10 U10 2.326990 1_455
F11 U9 2.326983 1_555
F11 U11 2.326990 1_655
F12 U3 2.326983 1_555
F12 U10 2.326990 1_565
F13 U2 2.326983 1_555
F13 U6 2.326990 1_655
F14 U5 2.326983 1_555
F14 U11 2.326990 1_545
F15 U4 2.326983 1_555
F15 U8 2.326990 1_455
F16 U7 2.326989 1_565
F16 U3 2.326989 1_455
F17 U0 2.326983 1_555
F17 U6 2.326990 1_545
F18 U9 2.326989 1_545
F18 U5 2.326989 1_655
F19 U1 2.326983 1_555
F19 U8 2.326990 1_565
F20 U2 2.326989 1_545
F20 U0 2.326989 1_655
F21 U4 2.326989 1_565
F21 U1 2.326989 1_455
F22 U6 2.295671 1_545
F22 U4 2.295671 1_554
F23 U8 2.295671 1_554
F23 U2 2.295671 1_545
F24 U8 2.295671 1_454
F24 U0 2.295671 1_555
F25 U10 2.295671 1_555
F25 U9 2.295671 1_545
F26 U6 2.295671 1_555
F26 U1 2.295671 1_454
F27 U11 2.295671 1_545
F27 U7 2.295671 1_555
F28 U2 2.295671 1_555
F28 U1 2.295671 1_554
F29 U11 2.295671 1_555
F29 U3 2.295671 1_455
F30 U0 2.295671 1_555
F30 U4 2.295671 1_554
F31 U10 2.295671 1_455
F31 U5 2.295671 1_555
F32 U5 2.295671 1_555
F32 U7 2.295671 1_555
F33 U9 2.295671 1_555
F33 U3 2.295671 1_555
F34 U6 2.479728 1_555
F34 U0 2.479735 1_555
F34 U2 2.479735 1_555
F35 U8 2.479728 1_555
F35 U4 2.479735 1_555
F35 U1 2.479735 1_555
F36 U10 2.479728 1_555
F36 U7 2.479735 1_555
F36 U3 2.479735 1_555
F37 U11 2.479728 1_555
F37 U5 2.479735 1_555
F37 U9 2.479735 1_555
F38 U7 2.326054 1_555
F38 U10 2.326061 1_555
F39 U9 2.326054 1_555
F39 U11 2.326061 1_555
F40 U3 2.326054 1_555
F40 U10 2.326061 1_555
F41 U2 2.326054 1_555
F41 U6 2.326061 1_555
F42 U5 2.326054 1_555
F42 U11 2.326061 1_555
F43 U4 2.326054 1_555
F43 U8 2.326061 1_555
F44 U3 2.326061 1_555
F44 U7 2.326061 1_555
F45 U0 2.326054 1_555
F45 U6 2.326061 1_555
F46 U5 2.326061 1_555
F46 U9 2.326061 1_555
F47 U1 2.326054 1_555
F47 U8 2.326061 1_555
F48 U0 2.326061 1_555
F48 U2 2.326061 1_555
F49 U1 2.326061 1_555
F49 U4 2.326061 1_555
