# generated using pymatgen
data_ZnNi(GeO3)2
_symmetry_space_group_name_H-M   'P 1'
_cell_length_a   9.15973100
_cell_length_b   5.45729200
_cell_length_c   9.70314670
_cell_angle_alpha   77.71446246
_cell_angle_beta   90.00000000
_cell_angle_gamma   90.00000000
_symmetry_Int_Tables_number   1
_chemical_formula_structural   ZnNi(GeO3)2
_chemical_formula_sum   'Zn4 Ni4 Ge8 O24'
_cell_volume   473.92674531
_cell_formula_units_Z   4
loop_
 _symmetry_equiv_pos_site_id
 _symmetry_equiv_pos_as_xyz
  1  'x, y, z'
loop_
 _atom_site_type_symbol
 _atom_site_label
 _atom_site_symmetry_multiplicity
 _atom_site_fract_x
 _atom_site_fract_y
 _atom_site_fract_z
 _atom_site_occupancy
  Zn  Zn0  1  0.50012000  0.54569000  0.24639400  1
  Zn  Zn1  1  0.00012000  0.95431000  0.75360600  1
  Zn  Zn2  1  0.49988000  0.45431000  0.75360600  1
  Zn  Zn3  1  0.99988000  0.04569000  0.24639400  1
  Ni  Ni0  1  0.65566800  0.03839500  0.24667700  1
  Ni  Ni1  1  0.15566800  0.46160500  0.75332300  1
  Ni  Ni2  1  0.34433200  0.96160500  0.75332300  1
  Ni  Ni3  1  0.84433200  0.53839500  0.24667700  1
  Ge  Ge0  1  0.33781000  0.18501900  0.05561700  1
  Ge  Ge1  1  0.83781000  0.31498100  0.94438300  1
  Ge  Ge2  1  0.66219000  0.81498100  0.94438300  1
  Ge  Ge3  1  0.16219000  0.68501900  0.05561700  1
  Ge  Ge4  1  0.34219100  0.76208200  0.45479700  1
  Ge  Ge5  1  0.84219100  0.73791800  0.54520300  1
  Ge  Ge6  1  0.65780900  0.23791800  0.54520300  1
  Ge  Ge7  1  0.15780900  0.26208200  0.45479700  1
  O  O0  1  0.28213100  0.50484300  0.38049400  1
  O  O1  1  0.78213100  0.99515700  0.61950600  1
  O  O2  1  0.71786900  0.49515700  0.61950600  1
  O  O3  1  0.21786900  0.00484300  0.38049400  1
  O  O4  1  0.31664900  0.84894800  0.10927600  1
  O  O5  1  0.81664900  0.65105200  0.89072400  1
  O  O6  1  0.68335100  0.15105200  0.89072400  1
  O  O7  1  0.18335100  0.34894800  0.10927600  1
  O  O8  1  0.98670100  0.29893600  0.37427500  1
  O  O9  1  0.48670100  0.20106400  0.62572500  1
  O  O10  1  0.01329900  0.70106400  0.62572500  1
  O  O11  1  0.51329900  0.79893600  0.37427500  1
  O  O12  1  0.00899900  0.77125800  0.14042800  1
  O  O13  1  0.50899900  0.72874200  0.85957200  1
  O  O14  1  0.99100100  0.22874200  0.85957200  1
  O  O15  1  0.49100100  0.27125800  0.14042800  1
  O  O16  1  0.33405800  0.24493300  0.86843600  1
  O  O17  1  0.83405800  0.25506700  0.13156400  1
  O  O18  1  0.66594200  0.75506700  0.13156400  1
  O  O19  1  0.16594200  0.74493300  0.86843600  1
  O  O20  1  0.33391800  0.68501800  0.64013500  1
  O  O21  1  0.83391800  0.81498200  0.35986500  1
  O  O22  1  0.66608200  0.31498200  0.35986500  1
  O  O23  1  0.16608200  0.18501800  0.64013500  1
loop_
_geom_bond_atom_site_label_1
_geom_bond_atom_site_label_2
_geom_bond_distance
_geom_bond_site_symmetry_2
Ni0 O22 2.049181 1_555
Ni0 O11 2.062195 1_545
Ni0 O18 2.093364 1_545
Ni0 O15 2.096480 1_555
Ni0 O17 2.180292 1_555
Ni0 O21 2.188301 1_545
Ni1 O23 2.049181 1_555
Ni1 O10 2.062195 1_555
Ni1 O19 2.093364 1_555
Ni1 O14 2.096480 1_455
Ni1 O16 2.180292 1_555
Ni1 O20 2.188301 1_555
Ni2 O20 2.049181 1_555
Ni2 O9 2.062195 1_565
Ni2 O16 2.093364 1_565
Ni2 O13 2.096480 1_555
Ni2 O19 2.180292 1_555
Ni2 O23 2.188301 1_565
Ni3 O21 2.049181 1_555
Ni3 O8 2.062195 1_555
Ni3 O17 2.093364 1_555
Ni3 O12 2.096480 1_655
Ni3 O18 2.180292 1_555
Ni3 O22 2.188301 1_555
Ge0 O15 1.741400 1_555
Ge0 O16 1.775981 1_554
Ge0 O4 1.807200 1_545
Ge0 O7 1.808675 1_555
Ge1 O14 1.741400 1_555
Ge1 O17 1.775981 1_556
Ge1 O5 1.807200 1_555
Ge1 O6 1.808675 1_555
Ge2 O13 1.741400 1_555
Ge2 O18 1.775981 1_556
Ge2 O6 1.807200 1_565
Ge2 O5 1.808675 1_555
Ge3 O12 1.741400 1_555
Ge3 O19 1.775981 1_554
Ge3 O7 1.807200 1_555
Ge3 O4 1.808675 1_555
Ge4 O11 1.743695 1_555
Ge4 O20 1.759220 1_555
Ge4 O3 1.779108 1_565
Ge4 O0 1.795525 1_555
Ge5 O10 1.743695 1_655
Ge5 O21 1.759220 1_555
Ge5 O2 1.779108 1_555
Ge5 O1 1.795525 1_555
Ge6 O9 1.743695 1_555
Ge6 O22 1.759220 1_555
Ge6 O1 1.779108 1_545
Ge6 O2 1.795525 1_555
Ge7 O8 1.743695 1_455
Ge7 O23 1.759220 1_555
Ge7 O0 1.779108 1_555
Ge7 O3 1.795525 1_555
O0 Zn0 2.367751 1_555
O1 Zn1 2.367751 1_655
O2 Zn2 2.367751 1_555
O3 Zn3 2.367751 1_455
O4 Zn0 2.529083 1_555
O5 Zn1 2.529083 1_655
O6 Zn2 2.529083 1_555
O7 Zn3 2.529083 1_455
O8 Zn3 2.047952 1_555
O9 Zn2 2.047952 1_555
O10 Zn1 2.047952 1_555
O11 Zn0 2.047952 1_555
O12 Zn3 1.990598 1_465
O13 Zn2 1.990598 1_555
O14 Zn1 1.990598 1_645
O15 Zn0 1.990598 1_555
O16 Zn2 2.076604 1_555
O17 Zn3 2.076604 1_555
O18 Zn0 2.076604 1_555
O19 Zn1 2.076604 1_555
O20 Zn2 2.125656 1_555
O21 Zn3 2.125656 1_565
O22 Zn0 2.125656 1_555
O23 Zn1 2.125656 1_545
