# generated using pymatgen
data_SrMgV(PO4)2
_symmetry_space_group_name_H-M   'P 1'
_cell_length_a   5.56195551
_cell_length_b   7.00550125
_cell_length_c   9.48439316
_cell_angle_alpha   111.26062436
_cell_angle_beta   101.13369267
_cell_angle_gamma   98.01004514
_symmetry_Int_Tables_number   1
_chemical_formula_structural   SrMgV(PO4)2
_chemical_formula_sum   'Sr2 Mg2 V2 P4 O16'
_cell_volume   328.94222031
_cell_formula_units_Z   2
loop_
 _symmetry_equiv_pos_site_id
 _symmetry_equiv_pos_as_xyz
  1  'x, y, z'
loop_
 _atom_site_type_symbol
 _atom_site_label
 _atom_site_symmetry_multiplicity
 _atom_site_fract_x
 _atom_site_fract_y
 _atom_site_fract_z
 _atom_site_occupancy
  Sr  Sr0  1  0.24841600  0.80099400  0.04793400  1
  Sr  Sr1  1  0.75158400  0.19900600  0.95206600  1
  Mg  Mg0  1  0.98962300  0.38267000  0.65285200  1
  Mg  Mg1  1  0.01037700  0.61733000  0.34714800  1
  V  V0  1  0.64277400  0.85192300  0.56163300  1
  V  V1  1  0.35722600  0.14807700  0.43836700  1
  P  P0  1  0.39186200  0.42390700  0.23414100  1
  P  P1  1  0.60813800  0.57609300  0.76585900  1
  P  P2  1  0.84087600  0.02404300  0.30233400  1
  P  P3  1  0.15912400  0.97595700  0.69766600  1
  O  O0  1  0.81674700  0.54943300  0.88835700  1
  O  O1  1  0.65976900  0.47409500  0.21181000  1
  O  O2  1  0.66720700  0.80080300  0.77136300  1
  O  O3  1  0.96264100  0.12000800  0.69898700  1
  O  O4  1  0.34023100  0.52590500  0.78819000  1
  O  O5  1  0.00395200  0.75108300  0.57474000  1
  O  O6  1  0.99604800  0.24891700  0.42526000  1
  O  O7  1  0.25912000  0.99263100  0.86375700  1
  O  O8  1  0.33279300  0.19919700  0.22863700  1
  O  O9  1  0.74088000  0.00736900  0.13624300  1
  O  O10  1  0.18325300  0.45056700  0.11164300  1
  O  O11  1  0.36832200  0.58416900  0.39460700  1
  O  O12  1  0.63167800  0.41583100  0.60539300  1
  O  O13  1  0.62186800  0.95270100  0.36594200  1
  O  O14  1  0.03735900  0.87999200  0.30101300  1
  O  O15  1  0.37813200  0.04729900  0.63405800  1
loop_
_geom_bond_atom_site_label_1
_geom_bond_atom_site_label_2
_geom_bond_distance
_geom_bond_site_symmetry_2
Mg0 O4 2.002784 1_655
Mg0 O12 2.019604 1_555
Mg0 O6 2.027556 1_555
Mg0 O3 2.032778 1_555
Mg0 O0 2.555093 1_555
Mg1 O1 2.002784 1_455
Mg1 O11 2.019604 1_555
Mg1 O5 2.027556 1_555
Mg1 O14 2.032778 1_555
Mg1 O10 2.555093 1_555
O0 P1 1.558234 1_555
O0 Sr0 2.577582 1_656
O0 Sr1 2.726804 1_555
O1 P0 1.555221 1_555
O1 Sr1 2.713053 1_554
O2 P1 1.542216 1_555
O2 V0 2.128208 1_555
O2 Sr1 2.607052 1_565
O3 P3 1.586281 1_645
O3 V0 2.188330 1_545
O3 Sr1 2.784171 1_555
O4 P1 1.555221 1_555
O4 Sr0 2.713053 1_556
O5 P3 1.576824 1_555
O5 V0 2.216473 1_455
O6 P2 1.576824 1_555
O6 V1 2.216473 1_655
O7 P3 1.521364 1_555
O7 Sr0 2.564339 1_556
O7 Sr1 2.725141 1_565
O8 P0 1.542216 1_555
O8 V1 2.128208 1_555
O8 Sr0 2.607052 1_545
O9 P2 1.521364 1_555
O9 Sr1 2.564339 1_554
O9 Sr0 2.725141 1_545
O10 P0 1.558234 1_555
O10 Sr1 2.577582 1_454
O10 Sr0 2.726804 1_555
O11 P0 1.572459 1_555
O11 V0 2.114538 1_555
O12 P1 1.572459 1_555
O12 V1 2.114538 1_555
O13 P2 1.558954 1_565
O13 V1 2.186750 1_565
O13 V0 2.201489 1_555
O13 Sr0 3.030101 1_555
O14 P2 1.586281 1_465
O14 V1 2.188330 1_565
O14 Sr0 2.784171 1_555
O15 P3 1.558954 1_545
O15 V0 2.186750 1_545
O15 V1 2.201489 1_555
O15 Sr1 3.030101 1_555
