# generated using pymatgen
data_Li3V2(GeO4)3
_symmetry_space_group_name_H-M   'P 1'
_cell_length_a   10.48706881
_cell_length_b   10.48706881
_cell_length_c   10.48706881
_cell_angle_alpha   109.47122063
_cell_angle_beta   109.47122063
_cell_angle_gamma   109.47122063
_symmetry_Int_Tables_number   1
_chemical_formula_structural   Li3V2(GeO4)3
_chemical_formula_sum   'Li12 V8 Ge12 O48'
_cell_volume   887.85176411
_cell_formula_units_Z   4
loop_
 _symmetry_equiv_pos_site_id
 _symmetry_equiv_pos_as_xyz
  1  'x, y, z'
loop_
 _atom_site_type_symbol
 _atom_site_label
 _atom_site_symmetry_multiplicity
 _atom_site_fract_x
 _atom_site_fract_y
 _atom_site_fract_z
 _atom_site_occupancy
  Li  Li0  1  0.75000000  0.62500000  0.87500000  1
  Li  Li1  1  0.25000000  0.87500000  0.62500000  1
  Li  Li2  1  0.62500000  0.25000000  0.87500000  1
  Li  Li3  1  0.87500000  0.75000000  0.62500000  1
  Li  Li4  1  0.87500000  0.62500000  0.25000000  1
  Li  Li5  1  0.62500000  0.87500000  0.75000000  1
  Li  Li6  1  0.25000000  0.37500000  0.12500000  1
  Li  Li7  1  0.75000000  0.12500000  0.37500000  1
  Li  Li8  1  0.37500000  0.75000000  0.12500000  1
  Li  Li9  1  0.12500000  0.25000000  0.37500000  1
  Li  Li10  1  0.12500000  0.37500000  0.75000000  1
  Li  Li11  1  0.37500000  0.12500000  0.25000000  1
  V  V0  1  0.50000000  0.00000000  0.50000000  1
  V  V1  1  0.00000000  0.50000000  0.00000000  1
  V  V2  1  0.50000000  0.50000000  0.50000000  1
  V  V3  1  0.00000000  0.00000000  0.50000000  1
  V  V4  1  0.00000000  0.00000000  0.00000000  1
  V  V5  1  0.00000000  0.50000000  0.50000000  1
  V  V6  1  0.50000000  0.50000000  0.00000000  1
  V  V7  1  0.50000000  0.00000000  0.00000000  1
  Ge  Ge0  1  0.37500000  0.62500000  0.75000000  1
  Ge  Ge1  1  0.62500000  0.37500000  0.25000000  1
  Ge  Ge2  1  0.62500000  0.75000000  0.37500000  1
  Ge  Ge3  1  0.25000000  0.12500000  0.87500000  1
  Ge  Ge4  1  0.87500000  0.25000000  0.12500000  1
  Ge  Ge5  1  0.75000000  0.37500000  0.62500000  1
  Ge  Ge6  1  0.25000000  0.62500000  0.37500000  1
  Ge  Ge7  1  0.75000000  0.87500000  0.12500000  1
  Ge  Ge8  1  0.12500000  0.75000000  0.87500000  1
  Ge  Ge9  1  0.37500000  0.25000000  0.62500000  1
  Ge  Ge10  1  0.87500000  0.12500000  0.75000000  1
  Ge  Ge11  1  0.12500000  0.87500000  0.25000000  1
  O  O0  1  0.51653800  0.39916400  0.82062500  1
  O  O1  1  0.82062500  0.51653800  0.39916400  1
  O  O2  1  0.80408700  0.88262600  0.98346200  1
  O  O3  1  0.42146100  0.10083600  0.61737400  1
  O  O4  1  0.88262600  0.39916400  0.07853900  1
  O  O5  1  0.67937500  0.07853900  0.69591300  1
  O  O6  1  0.82062500  0.80408700  0.42146100  1
  O  O7  1  0.39916400  0.82062500  0.51653800  1
  O  O8  1  0.61737400  0.69591300  0.51653800  1
  O  O9  1  0.42146100  0.82062500  0.80408700  1
  O  O10  1  0.39916400  0.07853900  0.88262600  1
  O  O11  1  0.10083600  0.98346200  0.67937500  1
  O  O12  1  0.98346200  0.67937500  0.10083600  1
  O  O13  1  0.80408700  0.42146100  0.82062500  1
  O  O14  1  0.51653800  0.61737400  0.69591300  1
  O  O15  1  0.69591300  0.51653800  0.61737400  1
  O  O16  1  0.07853900  0.88262600  0.39916400  1
  O  O17  1  0.98346200  0.80408700  0.88262600  1
  O  O18  1  0.07853900  0.69591300  0.67937500  1
  O  O19  1  0.38262600  0.30408700  0.48346200  1
  O  O20  1  0.61737400  0.42146100  0.10083600  1
  O  O21  1  0.10083600  0.61737400  0.42146100  1
  O  O22  1  0.69591300  0.67937500  0.07853900  1
  O  O23  1  0.67937500  0.10083600  0.98346200  1
  O  O24  1  0.48346200  0.60083600  0.17937500  1
  O  O25  1  0.17937500  0.48346200  0.60083600  1
  O  O26  1  0.19591300  0.11737400  0.01653800  1
  O  O27  1  0.57853900  0.89916400  0.38262600  1
  O  O28  1  0.11737400  0.60083600  0.92146100  1
  O  O29  1  0.32062500  0.92146100  0.30408700  1
  O  O30  1  0.17937500  0.19591300  0.57853900  1
  O  O31  1  0.60083600  0.17937500  0.48346200  1
  O  O32  1  0.32062500  0.89916400  0.01653800  1
  O  O33  1  0.30408700  0.32062500  0.92146100  1
  O  O34  1  0.89916400  0.38262600  0.57853900  1
  O  O35  1  0.11737400  0.01653800  0.19591300  1
  O  O36  1  0.38262600  0.57853900  0.89916400  1
  O  O37  1  0.92146100  0.30408700  0.32062500  1
  O  O38  1  0.01653800  0.19591300  0.11737400  1
  O  O39  1  0.92146100  0.11737400  0.60083600  1
  O  O40  1  0.30408700  0.48346200  0.38262600  1
  O  O41  1  0.48346200  0.38262600  0.30408700  1
  O  O42  1  0.19591300  0.57853900  0.17937500  1
  O  O43  1  0.01653800  0.32062500  0.89916400  1
  O  O44  1  0.89916400  0.01653800  0.32062500  1
  O  O45  1  0.60083600  0.92146100  0.11737400  1
  O  O46  1  0.57853900  0.17937500  0.19591300  1
  O  O47  1  0.88262600  0.98346200  0.80408700  1
loop_
_geom_bond_atom_site_label_1
_geom_bond_atom_site_label_2
_geom_bond_distance
_geom_bond_site_symmetry_2
Li0 O22 2.326895 1_556
Li0 O2 2.326895 1_555
Li0 O15 2.326895 1_555
Li0 O13 2.326895 1_555
Li0 O17 2.496365 1_555
Li0 O12 2.496365 1_556
Li0 O14 2.496365 1_555
Li0 O0 2.496365 1_555
Li1 O7 2.326895 1_555
Li1 O10 2.326895 1_565
Li1 O11 2.326895 1_555
Li1 O21 2.326895 1_555
Li1 O3 2.496365 1_565
Li1 O9 2.496365 1_555
Li1 O18 2.496365 1_555
Li1 O16 2.496365 1_555
Li2 O0 2.326895 1_555
Li2 O23 2.326895 1_555
Li2 O4 2.326895 1_556
Li2 O3 2.326895 1_555
Li2 O20 2.496365 1_556
Li2 O13 2.496365 1_555
Li2 O5 2.496365 1_555
Li2 O10 2.496365 1_555
Li3 O18 2.326895 1_655
Li3 O8 2.326895 1_555
Li3 O6 2.326895 1_555
Li3 O17 2.326895 1_555
Li3 O11 2.496365 1_655
Li3 O1 2.496365 1_555
Li3 O47 2.496365 1_555
Li3 O15 2.496365 1_555
Li4 O1 2.326895 1_555
Li4 O16 2.326895 1_655
Li4 O12 2.326895 1_555
Li4 O20 2.326895 1_555
Li4 O21 2.496365 1_655
Li4 O6 2.496365 1_555
Li4 O22 2.496365 1_555
Li4 O4 2.496365 1_555
Li5 O5 2.326895 1_565
Li5 O9 2.326895 1_555
Li5 O14 2.326895 1_555
Li5 O47 2.326895 1_555
Li5 O2 2.496365 1_555
Li5 O8 2.496365 1_555
Li5 O23 2.496365 1_565
Li5 O7 2.496365 1_555
Li6 O42 2.326895 1_555
Li6 O33 2.326895 1_554
Li6 O40 2.326895 1_555
Li6 O26 2.326895 1_555
Li6 O41 2.496365 1_555
Li6 O38 2.496365 1_555
Li6 O43 2.496365 1_554
Li6 O24 2.496365 1_555
Li7 O44 2.326895 1_555
Li7 O31 2.326895 1_555
Li7 O34 2.326895 1_555
Li7 O45 2.326895 1_545
Li7 O37 2.496365 1_555
Li7 O46 2.496365 1_555
Li7 O27 2.496365 1_545
Li7 O39 2.496365 1_555
Li8 O24 2.326895 1_555
Li8 O32 2.326895 1_555
Li8 O27 2.326895 1_555
Li8 O28 2.326895 1_554
Li8 O42 2.496365 1_555
Li8 O29 2.496365 1_555
Li8 O36 2.496365 1_554
Li8 O45 2.496365 1_555
Li9 O37 2.326895 1_455
Li9 O30 2.326895 1_555
Li9 O38 2.326895 1_555
Li9 O19 2.326895 1_555
Li9 O25 2.496365 1_555
Li9 O44 2.496365 1_455
Li9 O40 2.496365 1_555
Li9 O35 2.496365 1_555
Li10 O43 2.326895 1_555
Li10 O25 2.326895 1_555
Li10 O39 2.326895 1_455
Li10 O36 2.326895 1_555
Li10 O33 2.496365 1_555
Li10 O30 2.496365 1_555
Li10 O34 2.496365 1_455
Li10 O28 2.496365 1_555
Li11 O46 2.326895 1_555
Li11 O41 2.326895 1_555
Li11 O35 2.326895 1_555
Li11 O29 2.326895 1_545
Li11 O32 2.496365 1_545
Li11 O31 2.496365 1_555
Li11 O26 2.496365 1_555
Li11 O19 2.496365 1_555
Ge0 O36 1.772431 1_555
Ge0 O25 1.772431 1_555
Ge0 O14 1.772431 1_555
Ge0 O9 1.772431 1_555
Ge1 O20 1.772431 1_555
Ge1 O46 1.772431 1_555
Ge1 O41 1.772431 1_555
Ge1 O1 1.772431 1_555
Ge2 O27 1.772431 1_555
Ge2 O24 1.772431 1_555
Ge2 O8 1.772431 1_555
Ge2 O6 1.772431 1_555
Ge3 O26 1.772431 1_556
Ge3 O33 1.772431 1_555
Ge3 O10 1.772431 1_555
Ge3 O11 1.772431 1_545
Ge4 O38 1.772431 1_655
Ge4 O4 1.772431 1_555
Ge4 O37 1.772431 1_555
Ge4 O23 1.772431 1_554
Ge5 O34 1.772431 1_555
Ge5 O31 1.772431 1_555
Ge5 O13 1.772431 1_555
Ge5 O15 1.772431 1_555
Ge6 O40 1.772431 1_555
Ge6 O21 1.772431 1_555
Ge6 O42 1.772431 1_555
Ge6 O7 1.772431 1_555
Ge7 O45 1.772431 1_555
Ge7 O44 1.772431 1_565
Ge7 O2 1.772431 1_554
Ge7 O22 1.772431 1_555
Ge8 O28 1.772431 1_555
Ge8 O32 1.772431 1_556
Ge8 O18 1.772431 1_555
Ge8 O17 1.772431 1_455
Ge9 O3 1.772431 1_555
Ge9 O30 1.772431 1_555
Ge9 O19 1.772431 1_555
Ge9 O0 1.772431 1_555
Ge10 O39 1.772431 1_555
Ge10 O43 1.772431 1_655
Ge10 O5 1.772431 1_555
Ge10 O47 1.772431 1_545
Ge11 O35 1.772431 1_565
Ge11 O16 1.772431 1_555
Ge11 O29 1.772431 1_555
Ge11 O12 1.772431 1_455
O0 V6 1.923681 1_556
O1 V5 1.923681 1_655
O2 V4 1.923681 1_666
O3 V0 1.923681 1_555
O4 V1 1.923681 1_655
O5 V0 1.923681 1_555
O6 V3 1.923681 1_665
O7 V0 1.923681 1_565
O8 V2 1.923681 1_555
O9 V7 1.923681 1_566
O10 V7 1.923681 1_556
O11 V3 1.923681 1_565
O12 V1 1.923681 1_655
O13 V1 1.923681 1_656
O14 V2 1.923681 1_555
O15 V2 1.923681 1_555
O16 V3 1.923681 1_565
O17 V4 1.923681 1_666
O18 V5 1.923681 1_555
O19 V2 1.923681 1_555
O20 V6 1.923681 1_555
O21 V5 1.923681 1_555
O22 V6 1.923681 1_555
O23 V7 1.923681 1_556
O24 V6 1.923681 1_555
O25 V5 1.923681 1_555
O26 V4 1.923681 1_555
O27 V0 1.923681 1_565
O28 V1 1.923681 1_556
O29 V0 1.923681 1_565
O30 V3 1.923681 1_555
O31 V0 1.923681 1_555
O32 V7 1.923681 1_565
O33 V6 1.923681 1_556
O34 V5 1.923681 1_655
O35 V4 1.923681 1_555
O36 V6 1.923681 1_556
O37 V5 1.923681 1_655
O38 V4 1.923681 1_555
O39 V3 1.923681 1_655
O40 V2 1.923681 1_555
O41 V2 1.923681 1_555
O42 V1 1.923681 1_555
O43 V1 1.923681 1_556
O44 V3 1.923681 1_655
O45 V7 1.923681 1_565
O46 V7 1.923681 1_555
O47 V4 1.923681 1_666
