# generated using pymatgen
data_Sr2AlCu2BiO7
_symmetry_space_group_name_H-M   'P 1'
_cell_length_a   5.29113070
_cell_length_b   5.32586349
_cell_length_c   13.00938607
_cell_angle_alpha   101.80406149
_cell_angle_beta   101.68556218
_cell_angle_gamma   90.07030229
_symmetry_Int_Tables_number   1
_chemical_formula_structural   Sr2AlCu2BiO7
_chemical_formula_sum   'Sr4 Al2 Cu4 Bi2 O14'
_cell_volume   351.06409526
_cell_formula_units_Z   2
loop_
 _symmetry_equiv_pos_site_id
 _symmetry_equiv_pos_as_xyz
  1  'x, y, z'
loop_
 _atom_site_type_symbol
 _atom_site_label
 _atom_site_symmetry_multiplicity
 _atom_site_fract_x
 _atom_site_fract_y
 _atom_site_fract_z
 _atom_site_occupancy
  Sr  Sr0  1  0.33360900  0.36700400  0.72502600  1
  Sr  Sr1  1  0.61338700  0.63446600  0.27647700  1
  Sr  Sr2  1  0.83373700  0.86050400  0.72493000  1
  Sr  Sr3  1  0.11322300  0.14312900  0.27642600  1
  Al  Al0  1  0.98699200  0.00808000  0.00056300  1
  Al  Al1  1  0.48639500  0.49826600  0.00075100  1
  Cu  Cu0  1  0.92426900  0.44881200  0.88985300  1
  Cu  Cu1  1  0.04042300  0.55885000  0.11094000  1
  Cu  Cu2  1  0.42474000  0.94548100  0.89011000  1
  Cu  Cu3  1  0.54072000  0.05586200  0.11097800  1
  Bi  Bi0  1  0.24462400  0.74459800  0.50079000  1
  Bi  Bi1  1  0.74409400  0.25939800  0.50093100  1
  O  O0  1  0.15962500  0.33873500  0.50108700  1
  O  O1  1  0.66012900  0.66532800  0.50090500  1
  O  O2  1  0.25152000  0.27332800  0.90176200  1
  O  O3  1  0.35927300  0.72844400  0.10049200  1
  O  O4  1  0.75183300  0.13152200  0.90090000  1
  O  O5  1  0.85864000  0.87535800  0.09954000  1
  O  O6  1  0.60312800  0.62574000  0.89773600  1
  O  O7  1  0.71355900  0.37614400  0.10316700  1
  O  O8  1  0.10379000  0.77603700  0.89806200  1
  O  O9  1  0.21383600  0.23127500  0.10382300  1
  O  O10  1  0.32016300  0.84294600  0.68506200  1
  O  O11  1  0.63929700  0.16118200  0.31677800  1
  O  O12  1  0.82036900  0.34656500  0.68522000  1
  O  O13  1  0.13807600  0.65842300  0.31666900  1
loop_
_geom_bond_atom_site_label_1
_geom_bond_atom_site_label_2
_geom_bond_distance
_geom_bond_site_symmetry_2
Al0 O5 1.828739 1_545
Al0 O9 1.829829 1_655
Al0 O8 1.829976 1_644
Al0 O4 1.832677 1_554
Al1 O3 1.828577 1_555
Al1 O6 1.828925 1_554
Al1 O7 1.830485 1_555
Al1 O2 1.831632 1_554
Cu0 O6 1.954660 1_555
Cu0 O8 1.956925 1_655
Cu0 O2 1.962198 1_655
Cu0 O4 1.964015 1_555
Cu0 O12 2.549337 1_555
Cu1 O3 1.954460 1_555
Cu1 O7 1.957793 1_455
Cu1 O5 1.958856 1_455
Cu1 O9 1.966323 1_555
Cu1 O13 2.563166 1_555
Cu2 O8 1.953083 1_555
Cu2 O6 1.958502 1_555
Cu2 O4 1.958882 1_565
Cu2 O2 1.965624 1_565
Cu2 O10 2.554517 1_555
Cu3 O5 1.955199 1_545
Cu3 O3 1.956175 1_545
Cu3 O9 1.961438 1_555
Cu3 O7 1.964961 1_555
Cu3 O11 2.563976 1_555
Bi0 O0 2.208259 1_555
Bi0 O1 2.238930 1_555
Bi0 O13 2.295324 1_555
Bi0 O10 2.297523 1_555
Bi1 O1 2.207692 1_555
Bi1 O0 2.237872 1_655
Bi1 O11 2.295432 1_555
Bi1 O12 2.297513 1_555
O0 Sr0 2.844522 1_555
O0 Sr3 2.854948 1_555
O1 Sr2 2.844634 1_555
O1 Sr1 2.850213 1_555
O2 Sr0 2.568525 1_555
O3 Sr1 2.554107 1_555
O4 Sr2 2.561923 1_545
O5 Sr3 2.557476 1_665
O6 Sr0 2.532067 1_555
O7 Sr1 2.544399 1_555
O8 Sr2 2.535659 1_455
O9 Sr3 2.541805 1_555
O10 Sr2 2.659052 1_555
O10 Sr0 2.687978 1_555
O10 Sr2 2.724591 1_455
O10 Sr0 2.730610 1_565
O11 Sr3 2.661970 1_655
O11 Sr1 2.675771 1_555
O11 Sr3 2.723898 1_555
O11 Sr1 2.744291 1_545
O12 Sr0 2.657285 1_655
O12 Sr2 2.677718 1_555
O12 Sr0 2.726017 1_555
O12 Sr2 2.739710 1_545
O13 Sr1 2.668470 1_555
O13 Sr3 2.684479 1_555
O13 Sr1 2.716758 1_455
O13 Sr3 2.735196 1_565
