# generated using pymatgen
data_Zn(AgO2)2
_symmetry_space_group_name_H-M   'P 1'
_cell_length_a   6.31368719
_cell_length_b   6.31368719
_cell_length_c   20.97517926
_cell_angle_alpha   82.47653517
_cell_angle_beta   82.47653517
_cell_angle_gamma   62.02847495
_symmetry_Int_Tables_number   1
_chemical_formula_structural   Zn(AgO2)2
_chemical_formula_sum   'Zn8 Ag16 O32'
_cell_volume   729.78214763
_cell_formula_units_Z   8
loop_
 _symmetry_equiv_pos_site_id
 _symmetry_equiv_pos_as_xyz
  1  'x, y, z'
loop_
 _atom_site_type_symbol
 _atom_site_label
 _atom_site_symmetry_multiplicity
 _atom_site_fract_x
 _atom_site_fract_y
 _atom_site_fract_z
 _atom_site_occupancy
  Zn  Zn0  1  0.85810400  0.85810400  0.96826000  1
  Zn  Zn1  1  0.37569900  0.37569900  0.87505900  1
  Zn  Zn2  1  0.60715900  0.60715900  0.72029600  1
  Zn  Zn3  1  0.12621000  0.12621000  0.62260100  1
  Zn  Zn4  1  0.87494000  0.87494000  0.37512100  1
  Zn  Zn5  1  0.99889900  0.99889900  0.49893600  1
  Zn  Zn6  1  0.62459900  0.62459900  0.12699500  1
  Zn  Zn7  1  0.75015500  0.75015500  0.25106800  1
  Ag  Ag0  1  0.37634900  0.87348600  0.87519700  1
  Ag  Ag1  1  0.25166100  0.25166100  0.74837200  1
  Ag  Ag2  1  0.87348600  0.37634900  0.87519700  1
  Ag  Ag3  1  0.35745200  0.35745200  0.46783500  1
  Ag  Ag4  1  0.12276100  0.63015700  0.62471900  1
  Ag  Ag5  1  0.89591600  0.89591600  0.78143200  1
  Ag  Ag6  1  0.10839400  0.10839400  0.21696800  1
  Ag  Ag7  1  0.63015700  0.12276100  0.62471900  1
  Ag  Ag8  1  0.87507700  0.37454000  0.37515700  1
  Ag  Ag9  1  0.64226200  0.64226200  0.53262600  1
  Ag  Ag10  1  0.37454000  0.87507700  0.37515700  1
  Ag  Ag11  1  0.11875500  0.62765100  0.12549600  1
  Ag  Ag12  1  0.62765100  0.11875500  0.12549600  1
  Ag  Ag13  1  0.39251500  0.39251500  0.28307800  1
  Ag  Ag14  1  0.49965300  0.49965300  0.00036700  1
  Ag  Ag15  1  0.14669800  0.14669800  0.03218100  1
  O  O0  1  0.67550100  0.21675500  0.93489200  1
  O  O1  1  0.56159600  0.56159600  0.81944900  1
  O  O2  1  0.21675500  0.67550100  0.93489200  1
  O  O3  1  0.69422400  0.69422400  0.93614700  1
  O  O4  1  0.06931200  0.06931200  0.81348800  1
  O  O5  1  0.43166900  0.96428700  0.68525600  1
  O  O6  1  0.51438400  0.08002700  0.81511200  1
  O  O7  1  0.31222100  0.31222100  0.57641600  1
  O  O8  1  0.96428700  0.43166900  0.68525600  1
  O  O9  1  0.18740000  0.18740000  0.92586800  1
  O  O10  1  0.44364400  0.44364400  0.68728100  1
  O  O11  1  0.08002700  0.51438400  0.81511200  1
  O  O12  1  0.16353000  0.74001700  0.43272100  1
  O  O13  1  0.81995000  0.81995000  0.56221100  1
  O  O14  1  0.26098200  0.83317300  0.56498900  1
  O  O15  1  0.06412700  0.06412700  0.32154000  1
  O  O16  1  0.74001700  0.16353000  0.43272100  1
  O  O17  1  0.94014300  0.94014300  0.67494200  1
  O  O18  1  0.17710500  0.17710500  0.43293100  1
  O  O19  1  0.83317300  0.26098200  0.56498900  1
  O  O20  1  0.57256700  0.57256700  0.31765200  1
  O  O21  1  0.91208800  0.49121700  0.18290600  1
  O  O22  1  0.01005800  0.58573100  0.31789700  1
  O  O23  1  0.81166300  0.81166300  0.06548000  1
  O  O24  1  0.49121700  0.91208800  0.18290600  1
  O  O25  1  0.68494700  0.68494700  0.42833400  1
  O  O26  1  0.92739200  0.92739200  0.18349500  1
  O  O27  1  0.58573100  0.01005800  0.31789700  1
  O  O28  1  0.31727600  0.31727600  0.07072500  1
  O  O29  1  0.76229800  0.33068600  0.06762000  1
  O  O30  1  0.43487800  0.43487800  0.17892800  1
  O  O31  1  0.33068600  0.76229800  0.06762000  1
loop_
_geom_bond_atom_site_label_1
_geom_bond_atom_site_label_2
_geom_bond_distance
_geom_bond_site_symmetry_2
Ag0 O6 2.096779 1_565
Ag0 O9 2.117204 1_565
Ag0 O2 2.141712 1_555
Ag0 O1 2.167318 1_555
Ag0 O4 2.225216 1_565
Ag0 O3 2.259527 1_555
Ag1 O6 2.100016 1_555
Ag1 O11 2.100016 1_555
Ag1 O5 2.153356 1_545
Ag1 O8 2.153356 1_455
Ag1 O4 2.221771 1_555
Ag1 O10 2.268309 1_555
Ag2 O11 2.096779 1_655
Ag2 O9 2.117204 1_655
Ag2 O0 2.141712 1_555
Ag2 O1 2.167318 1_555
Ag2 O4 2.225216 1_655
Ag2 O3 2.259527 1_555
Ag3 O18 2.186754 1_555
Ag3 O12 2.207214 1_555
Ag3 O16 2.207214 1_555
Ag3 O7 2.255218 1_555
Ag4 O14 2.077654 1_555
Ag4 O17 2.091551 1_455
Ag4 O7 2.109402 1_555
Ag4 O8 2.147269 1_455
Ag4 O13 2.214958 1_455
Ag4 O10 2.294940 1_555
Ag5 O4 2.087806 1_665
Ag5 O6 2.189902 1_565
Ag5 O11 2.189902 1_655
Ag5 O17 2.211698 1_555
Ag6 O15 2.172444 1_555
Ag6 O26 2.179492 1_445
Ag6 O21 2.204116 1_455
Ag6 O24 2.204116 1_545
Ag7 O19 2.077654 1_555
Ag7 O17 2.091551 1_545
Ag7 O7 2.109402 1_555
Ag7 O5 2.147269 1_545
Ag7 O13 2.214958 1_545
Ag7 O10 2.294940 1_555
Ag8 O22 2.079736 1_655
Ag8 O16 2.082001 1_555
Ag8 O25 2.130939 1_555
Ag8 O15 2.135824 1_655
Ag8 O20 2.152736 1_555
Ag8 O18 2.153698 1_655
Ag9 O13 2.108908 1_555
Ag9 O25 2.165636 1_555
Ag9 O14 2.184746 1_555
Ag9 O19 2.184746 1_555
Ag10 O27 2.079736 1_565
Ag10 O12 2.082001 1_555
Ag10 O25 2.130939 1_555
Ag10 O15 2.135824 1_565
Ag10 O20 2.152736 1_555
Ag10 O18 2.153698 1_565
Ag11 O21 2.065416 1_455
Ag11 O31 2.087648 1_555
Ag11 O26 2.143427 1_455
Ag11 O28 2.153904 1_555
Ag11 O30 2.161212 1_555
Ag11 O23 2.199278 1_455
Ag12 O24 2.065416 1_545
Ag12 O29 2.087648 1_555
Ag12 O26 2.143427 1_545
Ag12 O28 2.153904 1_555
Ag12 O30 2.161212 1_555
Ag12 O23 2.199278 1_545
Ag13 O30 2.162520 1_555
Ag13 O20 2.180486 1_555
Ag13 O22 2.204680 1_555
Ag13 O27 2.204680 1_555
Ag14 O31 2.106375 1_555
Ag14 O29 2.106375 1_555
Ag14 O2 2.166066 1_554
Ag14 O0 2.166066 1_554
Ag14 O28 2.276723 1_555
Ag14 O3 2.319851 1_554
Ag15 O28 2.125424 1_555
Ag15 O9 2.206017 1_554
Ag15 O29 2.213872 1_455
Ag15 O31 2.213872 1_545
O0 Zn0 2.072179 1_545
O0 Zn1 2.162268 1_555
O1 Zn2 2.062806 1_555
O1 Zn1 2.165853 1_555
O2 Zn0 2.072179 1_455
O2 Zn1 2.162268 1_555
O3 Zn0 1.991014 1_555
O5 Zn2 2.070663 1_555
O5 Zn3 2.225764 1_565
O6 Zn1 2.150730 1_555
O7 Zn3 2.096411 1_555
O8 Zn2 2.070663 1_555
O8 Zn3 2.225764 1_655
O9 Zn1 2.150545 1_555
O10 Zn2 1.996348 1_555
O11 Zn1 2.150730 1_555
O12 Zn5 2.074529 1_455
O12 Zn4 2.087152 1_455
O13 Zn5 2.174076 1_555
O14 Zn5 2.085424 1_455
O14 Zn3 2.108735 1_565
O15 Zn4 2.179888 1_445
O16 Zn5 2.074529 1_545
O16 Zn4 2.087152 1_545
O17 Zn3 2.141168 1_665
O18 Zn5 2.195523 1_445
O19 Zn5 2.085424 1_545
O19 Zn3 2.108735 1_655
O20 Zn7 2.196370 1_555
O21 Zn6 2.060113 1_555
O21 Zn7 2.103203 1_555
O22 Zn4 2.084987 1_455
O22 Zn7 2.087723 1_455
O23 Zn0 2.024306 1_554
O23 Zn6 2.228243 1_555
O24 Zn6 2.060113 1_555
O24 Zn7 2.103203 1_555
O25 Zn4 2.184552 1_555
O26 Zn7 2.203927 1_555
O27 Zn4 2.084987 1_545
O27 Zn7 2.087723 1_545
O29 Zn6 2.135102 1_555
O30 Zn6 2.172281 1_555
O31 Zn6 2.135102 1_555
