# generated using pymatgen
data_BaGdCuBO5
_symmetry_space_group_name_H-M   'P 1'
_cell_length_a   5.51276100
_cell_length_b   5.51276100
_cell_length_c   7.54152100
_cell_angle_alpha   90.00000000
_cell_angle_beta   90.00000000
_cell_angle_gamma   90.00000000
_symmetry_Int_Tables_number   1
_chemical_formula_structural   BaGdCuBO5
_chemical_formula_sum   'Ba2 Gd2 Cu2 B2 O10'
_cell_volume   229.19084918
_cell_formula_units_Z   2
loop_
 _symmetry_equiv_pos_site_id
 _symmetry_equiv_pos_as_xyz
  1  'x, y, z'
loop_
 _atom_site_type_symbol
 _atom_site_label
 _atom_site_symmetry_multiplicity
 _atom_site_fract_x
 _atom_site_fract_y
 _atom_site_fract_z
 _atom_site_occupancy
  Ba  Ba0  1  0.00000000  0.00000000  0.01083500  1
  Ba  Ba1  1  0.50000000  0.50000000  0.01083500  1
  Gd  Gd0  1  0.00000000  0.00000000  0.51472000  1
  Gd  Gd1  1  0.50000000  0.50000000  0.51472000  1
  Cu  Cu0  1  0.50000000  0.00000000  0.73285000  1
  Cu  Cu1  1  0.00000000  0.50000000  0.73285000  1
  B  B0  1  0.50000000  0.00000000  0.25226800  1
  B  B1  1  0.00000000  0.50000000  0.25226800  1
  O  O0  1  0.15747600  0.65747600  0.34000500  1
  O  O1  1  0.84252400  0.34252400  0.34000500  1
  O  O2  1  0.34252400  0.15747600  0.34000500  1
  O  O3  1  0.65747600  0.84252400  0.34000500  1
  O  O4  1  0.50000000  0.00000000  0.06699300  1
  O  O5  1  0.00000000  0.50000000  0.06699300  1
  O  O6  1  0.25265700  0.75265700  0.71266200  1
  O  O7  1  0.74734300  0.24734300  0.71266200  1
  O  O8  1  0.24734300  0.25265700  0.71266200  1
  O  O9  1  0.75265700  0.74734300  0.71266200  1
loop_
_geom_bond_atom_site_label_1
_geom_bond_atom_site_label_2
_geom_bond_distance
_geom_bond_site_symmetry_2
Ba0 O5 2.788727 1_545
Ba0 O4 2.788727 1_455
Ba0 O4 2.788727 1_555
Ba0 O5 2.788727 1_555
Ba0 O9 2.975869 1_444
Ba0 O6 2.975869 1_544
Ba0 O8 2.975869 1_554
Ba0 O7 2.975869 1_454
Ba0 O1 3.237540 1_455
Ba0 O3 3.237540 1_445
Ba0 O0 3.237540 1_545
Ba0 O2 3.237540 1_555
Ba1 O4 2.788727 1_555
Ba1 O4 2.788727 1_565
Ba1 O5 2.788727 1_655
Ba1 O5 2.788727 1_555
Ba1 O6 2.975869 1_554
Ba1 O7 2.975869 1_554
Ba1 O8 2.975869 1_554
Ba1 O9 2.975869 1_554
Ba1 O3 3.237540 1_555
Ba1 O2 3.237540 1_555
Ba1 O0 3.237540 1_555
Ba1 O1 3.237540 1_555
Gd0 O7 2.455127 1_455
Gd0 O9 2.455127 1_445
Gd0 O8 2.455127 1_555
Gd0 O6 2.455127 1_545
Gd0 O1 2.460744 1_455
Gd0 O3 2.460744 1_445
Gd0 O2 2.460744 1_555
Gd0 O0 2.460744 1_545
Gd1 O9 2.455127 1_555
Gd1 O6 2.455127 1_555
Gd1 O7 2.455127 1_555
Gd1 O8 2.455127 1_555
Gd1 O2 2.460744 1_555
Gd1 O3 2.460744 1_555
Gd1 O0 2.460744 1_555
Gd1 O1 2.460744 1_555
Cu0 O7 1.934342 1_555
Cu0 O6 1.934342 1_545
Cu0 O9 1.975645 1_545
Cu0 O8 1.975645 1_555
Cu0 O4 2.519946 1_556
Cu1 O8 1.934342 1_555
Cu1 O9 1.934342 1_455
Cu1 O6 1.975645 1_555
Cu1 O7 1.975645 1_455
Cu1 O5 2.519946 1_556
B0 O3 1.394668 1_545
B0 O2 1.394668 1_555
B0 O4 1.397255 1_555
B1 O1 1.394668 1_455
B1 O0 1.394668 1_555
B1 O5 1.397255 1_555
