# generated using pymatgen
data_PrInCu5
_symmetry_space_group_name_H-M   'P 1'
_cell_length_a   5.06940379
_cell_length_b   8.30848748
_cell_length_c   10.53408031
_cell_angle_alpha   90.00000000
_cell_angle_beta   90.00000000
_cell_angle_gamma   90.00000000
_symmetry_Int_Tables_number   1
_chemical_formula_structural   PrInCu5
_chemical_formula_sum   'Pr4 In4 Cu20'
_cell_volume   443.68574940
_cell_formula_units_Z   4
loop_
 _symmetry_equiv_pos_site_id
 _symmetry_equiv_pos_as_xyz
  1  'x, y, z'
loop_
 _atom_site_type_symbol
 _atom_site_label
 _atom_site_symmetry_multiplicity
 _atom_site_fract_x
 _atom_site_fract_y
 _atom_site_fract_z
 _atom_site_occupancy
  Pr  Pr0  1  0.25000000  0.75637989  0.05836732  1
  Pr  Pr1  1  0.75000000  0.24362011  0.94163268  1
  Pr  Pr2  1  0.75000000  0.74362011  0.55836732  1
  Pr  Pr3  1  0.25000000  0.25637989  0.44163268  1
  In  In0  1  0.25000000  0.64026009  0.36056942  1
  In  In1  1  0.75000000  0.35973991  0.63943058  1
  In  In2  1  0.75000000  0.85973991  0.86056942  1
  In  In3  1  0.25000000  0.14026009  0.13943058  1
  Cu  Cu0  1  0.25000000  0.81839475  0.74472626  1
  Cu  Cu1  1  0.75000000  0.18160525  0.25527374  1
  Cu  Cu2  1  0.75000000  0.68160525  0.24472626  1
  Cu  Cu3  1  0.25000000  0.31839475  0.75527374  1
  Cu  Cu4  1  0.49923954  0.56737391  0.81296055  1
  Cu  Cu5  1  0.50076046  0.43262609  0.18703945  1
  Cu  Cu6  1  0.50076046  0.93262609  0.31296055  1
  Cu  Cu7  1  0.99923954  0.43262609  0.18703945  1
  Cu  Cu8  1  0.49923954  0.06737391  0.68703945  1
  Cu  Cu9  1  0.00076046  0.56737391  0.81296055  1
  Cu  Cu10  1  0.00076046  0.06737391  0.68703945  1
  Cu  Cu11  1  0.99923954  0.93262609  0.31296055  1
  Cu  Cu12  1  0.25000000  0.56085390  0.60875936  1
  Cu  Cu13  1  0.75000000  0.43914610  0.39124064  1
  Cu  Cu14  1  0.75000000  0.93914610  0.10875936  1
  Cu  Cu15  1  0.25000000  0.06085390  0.89124064  1
  Cu  Cu16  1  0.25000000  0.91671599  0.51540329  1
  Cu  Cu17  1  0.75000000  0.08328401  0.48459671  1
  Cu  Cu18  1  0.75000000  0.58328401  0.01540329  1
  Cu  Cu19  1  0.25000000  0.41671599  0.98459671  1
loop_
_geom_bond_atom_site_label_1
_geom_bond_atom_site_label_2
_geom_bond_distance
_geom_bond_site_symmetry_2
In0 Pr3 3.301798 1_555
In0 Pr0 3.326405 1_555
In0 Pr2 3.391705 1_455
In0 Pr2 3.391705 1_555
In1 Pr2 3.301798 1_555
In1 Pr1 3.326405 1_555
In1 Pr3 3.391705 1_655
In1 Pr3 3.391705 1_555
In2 Pr1 3.301798 1_565
In2 Pr2 3.326405 1_555
In2 Pr0 3.391705 1_556
In2 Pr0 3.391705 1_656
In3 Pr0 3.301798 1_545
In3 Pr3 3.326405 1_555
In3 Pr1 3.391705 1_554
In3 Pr1 3.391705 1_454
Cu0 Cu10 2.498993 1_565
Cu0 Cu8 2.498993 1_565
Cu0 Cu15 2.537745 1_565
Cu0 Cu4 2.542207 1_555
Cu0 Cu9 2.542207 1_555
Cu0 Cu16 2.550091 1_555
Cu0 Cu12 2.574894 1_555
Cu0 In2 2.834052 1_455
Cu0 In2 2.834052 1_555
Cu0 Pr2 3.265658 1_455
Cu0 Pr2 3.265658 1_555
Cu0 Pr0 3.343856 1_556
Cu1 Cu11 2.498993 1_545
Cu1 Cu6 2.498993 1_545
Cu1 Cu14 2.537745 1_545
Cu1 Cu5 2.542207 1_555
Cu1 Cu7 2.542207 1_555
Cu1 Cu17 2.550091 1_555
Cu1 Cu13 2.574894 1_555
Cu1 In3 2.834052 1_555
Cu1 In3 2.834052 1_655
Cu1 Pr3 3.265658 1_555
Cu1 Pr3 3.265658 1_655
Cu1 Pr1 3.343856 1_554
Cu2 Cu5 2.498993 1_555
Cu2 Cu7 2.498993 1_555
Cu2 Cu6 2.542207 1_555
Cu2 In0 2.834052 1_555
Cu2 In0 2.834052 1_655
Cu2 Pr0 3.265658 1_655
Cu2 Pr0 3.265658 1_555
Cu2 Pr2 3.343856 1_555
Cu3 Cu4 2.498993 1_555
Cu3 Cu9 2.498993 1_555
Cu3 Cu8 2.542207 1_555
Cu3 In1 2.834052 1_455
Cu3 In1 2.834052 1_555
Cu3 Pr1 3.265658 1_555
Cu3 Pr1 3.265658 1_455
Cu3 Pr3 3.343856 1_555
Cu4 Cu9 2.526992 1_555
Cu4 Cu9 2.542412 1_655
Cu4 In2 2.787132 1_555
Cu4 In1 2.816651 1_555
Cu4 Pr1 3.269369 1_555
Cu4 Pr0 3.278011 1_556
Cu4 Pr2 3.309512 1_555
Cu5 Cu7 2.526992 1_555
Cu5 Cu7 2.542412 1_455
Cu5 In3 2.787132 1_555
Cu5 In0 2.816651 1_555
Cu5 Pr0 3.269369 1_555
Cu5 Pr1 3.278011 1_554
Cu5 Pr3 3.309512 1_555
Cu6 In0 2.787132 1_555
Cu6 In3 2.816651 1_565
Cu6 Pr3 3.269369 1_565
Cu6 Pr2 3.278011 1_555
Cu6 Pr0 3.309512 1_555
Cu7 In3 2.787132 1_655
Cu7 In0 2.816651 1_655
Cu7 Pr0 3.269369 1_655
Cu7 Pr1 3.278011 1_554
Cu7 Pr3 3.309512 1_655
Cu8 In1 2.787132 1_555
Cu8 In2 2.816651 1_545
Cu8 Pr2 3.269369 1_545
Cu8 Pr3 3.278011 1_555
Cu8 Pr1 3.309512 1_555
Cu9 In2 2.787132 1_455
Cu9 In1 2.816651 1_455
Cu9 Pr1 3.269369 1_455
Cu9 Pr0 3.278011 1_556
Cu9 Pr2 3.309512 1_455
Cu10 Cu17 2.486202 1_455
Cu10 Cu15 2.495289 1_555
Cu10 Cu8 2.526992 1_555
Cu10 Cu16 2.536187 1_545
Cu10 Cu3 2.542207 1_555
Cu10 Cu8 2.542412 1_455
Cu10 In1 2.787132 1_455
Cu10 In2 2.816651 1_445
Cu10 Pr2 3.269369 1_445
Cu10 Pr3 3.278011 1_555
Cu10 Pr1 3.309512 1_455
Cu11 Cu16 2.486202 1_655
Cu11 Cu14 2.495289 1_555
Cu11 Cu6 2.526992 1_555
Cu11 Cu17 2.536187 1_565
Cu11 Cu2 2.542207 1_555
Cu11 Cu6 2.542412 1_655
Cu11 In0 2.787132 1_655
Cu11 In3 2.816651 1_665
Cu11 Pr3 3.269369 1_665
Cu11 Pr2 3.278011 1_555
Cu11 Pr0 3.309512 1_655
Cu12 Cu4 2.495289 1_555
Cu12 Cu9 2.495289 1_555
Cu12 Cu3 2.537745 1_555
Cu12 In0 2.696410 1_555
Cu12 Pr2 3.002061 1_555
Cu12 Pr2 3.002061 1_455
Cu12 In1 3.053062 1_555
Cu12 In1 3.053062 1_455
Cu12 Pr3 3.082033 1_555
Cu13 Cu7 2.495289 1_555
Cu13 Cu5 2.495289 1_555
Cu13 Cu2 2.537745 1_555
Cu13 In1 2.696410 1_555
Cu13 Pr3 3.002061 1_555
Cu13 Pr3 3.002061 1_655
Cu13 In0 3.053062 1_555
Cu13 In0 3.053062 1_655
Cu13 Pr2 3.082033 1_555
Cu14 Cu6 2.495289 1_555
Cu14 Cu2 2.574894 1_555
Cu14 In2 2.696410 1_554
Cu14 Pr0 3.002061 1_555
Cu14 Pr0 3.002061 1_655
Cu14 In3 3.053062 1_665
Cu14 In3 3.053062 1_565
Cu14 Pr1 3.082033 1_564
Cu15 Cu8 2.495289 1_555
Cu15 Cu3 2.574894 1_555
Cu15 In3 2.696410 1_556
Cu15 Pr1 3.002061 1_555
Cu15 Pr1 3.002061 1_455
Cu15 In2 3.053062 1_445
Cu15 In2 3.053062 1_545
Cu15 Pr0 3.082033 1_546
Cu16 Cu6 2.486202 1_555
Cu16 Cu8 2.536187 1_565
Cu16 In0 2.817118 1_555
Cu16 Pr3 2.927132 1_565
Cu16 Pr2 2.949215 1_455
Cu16 Pr2 2.949215 1_555
Cu17 Cu8 2.486202 1_555
Cu17 Cu6 2.536187 1_545
Cu17 In1 2.817118 1_555
Cu17 Pr2 2.927132 1_545
Cu17 Pr3 2.949215 1_555
Cu17 Pr3 2.949215 1_655
Cu18 Cu9 2.486202 1_654
Cu18 Cu4 2.486202 1_554
Cu18 Cu5 2.536187 1_555
Cu18 Cu7 2.536187 1_555
Cu18 Cu2 2.550091 1_555
Cu18 In2 2.817118 1_554
Cu18 Pr1 2.927132 1_554
Cu18 Pr0 2.949215 1_555
Cu18 Pr0 2.949215 1_655
Cu19 Cu5 2.486202 1_556
Cu19 Cu7 2.486202 1_456
Cu19 Cu9 2.536187 1_555
Cu19 Cu4 2.536187 1_555
Cu19 Cu3 2.550091 1_555
Cu19 In3 2.817118 1_556
Cu19 Pr0 2.927132 1_556
Cu19 Pr1 2.949215 1_455
Cu19 Pr1 2.949215 1_555
