# generated using pymatgen
data_KBaMg6
_symmetry_space_group_name_H-M   'P 1'
_cell_length_a   5.49588100
_cell_length_b   7.22571400
_cell_length_c   12.60418700
_cell_angle_alpha   90.00000000
_cell_angle_beta   90.00000000
_cell_angle_gamma   90.00000000
_symmetry_Int_Tables_number   1
_chemical_formula_structural   KBaMg6
_chemical_formula_sum   'K2 Ba2 Mg12'
_cell_volume   500.53324272
_cell_formula_units_Z   2
loop_
 _symmetry_equiv_pos_site_id
 _symmetry_equiv_pos_as_xyz
  1  'x, y, z'
loop_
 _atom_site_type_symbol
 _atom_site_label
 _atom_site_symmetry_multiplicity
 _atom_site_fract_x
 _atom_site_fract_y
 _atom_site_fract_z
 _atom_site_occupancy
  K  K0  1  0.00000000  0.50000000  0.34154000  1
  K  K1  1  0.00000000  0.00000000  0.84154000  1
  Ba  Ba0  1  0.50000000  0.50000000  0.16288800  1
  Ba  Ba1  1  0.50000000  0.00000000  0.66288800  1
  Mg  Mg0  1  0.00000000  0.23080800  0.07965100  1
  Mg  Mg1  1  0.00000000  0.76919200  0.07965100  1
  Mg  Mg2  1  0.00000000  0.00000000  0.33191800  1
  Mg  Mg3  1  0.50000000  0.76576600  0.42013400  1
  Mg  Mg4  1  0.50000000  0.23423400  0.42013400  1
  Mg  Mg5  1  0.50000000  0.00000000  0.16408300  1
  Mg  Mg6  1  0.00000000  0.73080800  0.57965100  1
  Mg  Mg7  1  0.00000000  0.26919200  0.57965100  1
  Mg  Mg8  1  0.00000000  0.50000000  0.83191800  1
  Mg  Mg9  1  0.50000000  0.26576600  0.92013400  1
  Mg  Mg10  1  0.50000000  0.73423400  0.92013400  1
  Mg  Mg11  1  0.50000000  0.50000000  0.66408300  1
loop_
_geom_bond_atom_site_label_1
_geom_bond_atom_site_label_2
_geom_bond_distance
_geom_bond_site_symmetry_2
K0 Mg7 3.433449 1_555
K0 Mg6 3.433449 1_555
K0 Mg3 3.495745 1_455
K0 Mg4 3.495745 1_455
K0 Mg3 3.495745 1_555
K0 Mg4 3.495745 1_555
K0 Mg2 3.614892 1_555
K0 Mg2 3.614892 1_565
K0 Mg1 3.831365 1_555
K0 Mg0 3.831365 1_555
K1 Mg0 3.433449 1_556
K1 Mg1 3.433449 1_546
K1 Mg10 3.495745 1_545
K1 Mg10 3.495745 1_445
K1 Mg9 3.495745 1_555
K1 Mg9 3.495745 1_455
K1 Mg8 3.614892 1_545
K1 Mg8 3.614892 1_555
K1 Mg7 3.831365 1_555
K1 Mg6 3.831365 1_545
Ba0 Mg10 3.496634 1_554
Ba0 Mg9 3.496634 1_554
Ba0 Mg1 3.526371 1_655
Ba0 Mg0 3.526371 1_655
Ba0 Mg1 3.526371 1_555
Ba0 Mg0 3.526371 1_555
Ba0 K0 3.552691 1_555
Ba0 K0 3.552691 1_655
Ba0 Mg5 3.612888 1_555
Ba0 Mg5 3.612888 1_565
Ba0 Mg3 3.768388 1_555
Ba0 Mg4 3.768388 1_555
Ba1 Mg4 3.496634 1_555
Ba1 Mg3 3.496634 1_545
Ba1 Mg7 3.526371 1_555
Ba1 Mg7 3.526371 1_655
Ba1 Mg6 3.526371 1_545
Ba1 Mg6 3.526371 1_645
Ba1 K1 3.552691 1_555
Ba1 K1 3.552691 1_655
Ba1 Mg11 3.612888 1_545
Ba1 Mg11 3.612888 1_555
Ba1 Mg10 3.768388 1_545
Ba1 Mg9 3.768388 1_555
Mg0 Mg1 3.335505 1_545
Mg0 Mg5 3.386014 1_455
Mg0 Mg5 3.386014 1_555
Mg0 Mg9 3.414297 1_554
Mg0 Mg9 3.414297 1_454
Mg1 Mg5 3.386014 1_565
Mg1 Mg5 3.386014 1_465
Mg1 Mg10 3.414297 1_554
Mg1 Mg10 3.414297 1_454
Mg2 Mg3 3.413512 1_445
Mg2 Mg4 3.413512 1_555
Mg2 Mg4 3.413512 1_455
Mg2 Mg3 3.413512 1_545
Mg2 Mg5 3.467880 1_455
Mg2 Mg5 3.467880 1_555
Mg3 Mg4 3.385016 1_565
Mg3 Mg6 3.414297 1_555
Mg3 Mg6 3.414297 1_655
Mg4 Mg7 3.414297 1_655
Mg4 Mg7 3.414297 1_555
Mg6 Mg7 3.335505 1_555
Mg8 Mg9 3.413512 1_455
Mg8 Mg9 3.413512 1_555
Mg10 Mg9 3.385016 1_555
Mg10 Mg8 3.413512 1_655
Mg10 Mg8 3.413512 1_555
Mg11 Mg7 3.386014 1_555
Mg11 Mg7 3.386014 1_655
Mg11 Mg6 3.386014 1_555
Mg11 Mg6 3.386014 1_655
Mg11 Mg8 3.467880 1_555
Mg11 Mg8 3.467880 1_655
