# generated using pymatgen
data_Er3Lu
_symmetry_space_group_name_H-M   'P 1'
_cell_length_a   7.14180886
_cell_length_b   7.14180719
_cell_length_c   5.49300329
_cell_angle_alpha   90.00011950
_cell_angle_beta   89.99980919
_cell_angle_gamma   119.99824682
_symmetry_Int_Tables_number   1
_chemical_formula_structural   Er3Lu
_chemical_formula_sum   'Er6 Lu2'
_cell_volume   242.64117864
_cell_formula_units_Z   2
loop_
 _symmetry_equiv_pos_site_id
 _symmetry_equiv_pos_as_xyz
  1  'x, y, z'
loop_
 _atom_site_type_symbol
 _atom_site_label
 _atom_site_symmetry_multiplicity
 _atom_site_fract_x
 _atom_site_fract_y
 _atom_site_fract_z
 _atom_site_occupancy
  Er  Er0  1  0.83280408  0.16716977  0.74999294  1
  Er  Er1  1  0.33437444  0.16715685  0.75000826  1
  Er  Er2  1  0.83283220  0.66564069  0.75001960  1
  Er  Er3  1  0.16716815  0.83281989  0.25000963  1
  Er  Er4  1  0.66563553  0.83280269  0.24999020  1
  Er  Er5  1  0.16718535  0.33436535  0.24998419  1
  Lu  Lu0  1  0.66667931  0.33339356  0.25002097  1
  Lu  Lu1  1  0.33332393  0.66665320  0.74998321  1
loop_
_geom_bond_atom_site_label_1
_geom_bond_atom_site_label_2
_geom_bond_distance
_geom_bond_site_symmetry_2
Er0 Lu0 3.430417 1_555
Er0 Lu0 3.430653 1_556
Er0 Er4 3.438052 1_546
Er0 Er4 3.438074 1_545
Er0 Er5 3.438082 1_656
Er0 Er5 3.438150 1_655
Er0 Er1 3.559643 1_555
Er0 Er2 3.559883 1_555
Er0 Lu1 3.570993 1_545
Er0 Lu1 3.571016 1_655
Er0 Er2 3.581924 1_545
Er0 Er1 3.582166 1_655
Er1 Lu0 3.430346 1_555
Er1 Lu0 3.430466 1_556
Er1 Er3 3.437944 1_545
Er1 Er3 3.437958 1_546
Er1 Er5 3.438033 1_556
Er1 Er5 3.438255 1_555
Er1 Er2 3.560077 1_555
Er1 Lu1 3.570755 1_545
Er1 Lu1 3.571064 1_555
Er1 Er2 3.581920 1_445
Er2 Lu0 3.430185 1_555
Er2 Lu0 3.430199 1_556
Er2 Er4 3.437865 1_556
Er2 Er3 3.437908 1_656
Er2 Er3 3.437987 1_655
Er2 Er4 3.438133 1_555
Er2 Lu1 3.570806 1_655
Er2 Lu1 3.571013 1_555
Er3 Lu1 3.430327 1_555
Er3 Lu1 3.430549 1_554
Er3 Er5 3.559928 1_555
Er3 Er4 3.560020 1_555
Er3 Lu0 3.570702 1_455
Er3 Lu0 3.571308 1_565
Er3 Er4 3.581789 1_455
Er3 Er5 3.581880 1_565
Er4 Lu1 3.430396 1_555
Er4 Lu1 3.430466 1_554
Er4 Er5 3.559884 1_555
Er4 Lu0 3.570417 1_555
Er4 Lu0 3.571402 1_565
Er4 Er5 3.582113 1_665
Er5 Lu1 3.430338 1_555
Er5 Lu1 3.430348 1_554
Er5 Lu0 3.570765 1_555
Er5 Lu0 3.571054 1_455
