# generated using pymatgen
data_NaLi2FeF6
_symmetry_space_group_name_H-M   'P 1'
_cell_length_a   5.80412700
_cell_length_b   5.80412688
_cell_length_c   5.80412733
_cell_angle_alpha   59.99999832
_cell_angle_beta   59.99999618
_cell_angle_gamma   59.99999361
_symmetry_Int_Tables_number   1
_chemical_formula_structural   NaLi2FeF6
_chemical_formula_sum   'Na1 Li2 Fe1 F6'
_cell_volume   138.25972820
_cell_formula_units_Z   1
loop_
 _symmetry_equiv_pos_site_id
 _symmetry_equiv_pos_as_xyz
  1  'x, y, z'
loop_
 _atom_site_type_symbol
 _atom_site_label
 _atom_site_symmetry_multiplicity
 _atom_site_fract_x
 _atom_site_fract_y
 _atom_site_fract_z
 _atom_site_occupancy
  Na  Na0  1  0.50000000  0.50000000  0.50000000  1
  Li  Li0  1  0.25000000  0.25000000  0.25000000  1
  Li  Li1  1  0.75000000  0.75000000  0.75000000  1
  Fe  Fe0  1  0.00000000  0.00000000  0.00000000  1
  F  F0  1  0.23654200  0.76345800  0.23654200  1
  F  F1  1  0.76345800  0.76345800  0.23654200  1
  F  F2  1  0.76345800  0.23654200  0.76345800  1
  F  F3  1  0.76345800  0.23654200  0.23654200  1
  F  F4  1  0.23654200  0.76345800  0.76345800  1
  F  F5  1  0.23654200  0.23654200  0.76345800  1
loop_
_geom_bond_atom_site_label_1
_geom_bond_atom_site_label_2
_geom_bond_distance
_geom_bond_site_symmetry_2
F0 Fe0 1.941602 1_565
F0 Na0 2.162536 1_555
F1 Fe0 1.941602 1_665
F1 Na0 2.162536 1_555
F2 Fe0 1.941602 1_656
F2 Na0 2.162536 1_555
F3 Fe0 1.941602 1_655
F3 Na0 2.162536 1_555
F4 Fe0 1.941602 1_566
F4 Na0 2.162536 1_555
F5 Fe0 1.941602 1_556
F5 Na0 2.162536 1_555
