# generated using pymatgen
data_TaCr3(CuS4)2
_symmetry_space_group_name_H-M   'P 1'
_cell_length_a   3.41680500
_cell_length_b   11.07462800
_cell_length_c   12.56128500
_cell_angle_alpha   90.00000000
_cell_angle_beta   90.00000000
_cell_angle_gamma   90.00000000
_symmetry_Int_Tables_number   1
_chemical_formula_structural   TaCr3(CuS4)2
_chemical_formula_sum   'Ta2 Cr6 Cu4 S16'
_cell_volume   475.31706890
_cell_formula_units_Z   2
loop_
 _symmetry_equiv_pos_site_id
 _symmetry_equiv_pos_as_xyz
  1  'x, y, z'
loop_
 _atom_site_type_symbol
 _atom_site_label
 _atom_site_symmetry_multiplicity
 _atom_site_fract_x
 _atom_site_fract_y
 _atom_site_fract_z
 _atom_site_occupancy
  Ta  Ta0  1  0.00000000  0.83715900  0.57819000  1
  Ta  Ta1  1  0.50000000  0.16284100  0.07819000  1
  Cr  Cr0  1  0.50000000  0.68636800  0.88455500  1
  Cr  Cr1  1  0.00000000  0.80404600  0.11856700  1
  Cr  Cr2  1  0.00000000  0.31363200  0.38455500  1
  Cr  Cr3  1  0.50000000  0.19595400  0.61856700  1
  Cr  Cr4  1  0.50000000  0.66593700  0.41149600  1
  Cr  Cr5  1  0.00000000  0.33406300  0.91149600  1
  Cu  Cu0  1  0.50000000  0.46012700  0.67454200  1
  Cu  Cu1  1  0.00000000  0.04433500  0.34670400  1
  Cu  Cu2  1  0.00000000  0.53987300  0.17454200  1
  Cu  Cu3  1  0.50000000  0.95566500  0.84670400  1
  S  S0  1  0.00000000  0.69989100  0.28854300  1
  S  S1  1  0.50000000  0.80351900  0.71501700  1
  S  S2  1  0.50000000  0.30010900  0.78854300  1
  S  S3  1  0.00000000  0.19648100  0.21501700  1
  S  S4  1  0.50000000  0.65606100  0.07025500  1
  S  S5  1  0.00000000  0.83637200  0.93321800  1
  S  S6  1  0.00000000  0.34393900  0.57025500  1
  S  S7  1  0.50000000  0.16362800  0.43321800  1
  S  S8  1  0.00000000  0.62468900  0.54409000  1
  S  S9  1  0.50000000  0.88068000  0.44059400  1
  S  S10  1  0.50000000  0.37531100  0.04409000  1
  S  S11  1  0.00000000  0.11932000  0.94059400  1
  S  S12  1  0.00000000  0.54734900  0.83692600  1
  S  S13  1  0.50000000  0.94701000  0.15730200  1
  S  S14  1  0.50000000  0.45265100  0.33692600  1
  S  S15  1  0.00000000  0.05299000  0.65730200  1
loop_
_geom_bond_atom_site_label_1
_geom_bond_atom_site_label_2
_geom_bond_distance
_geom_bond_site_symmetry_2
Cr0 S4 2.356654 1_556
Cr0 S12 2.376320 1_555
Cr0 S12 2.376320 1_655
Cr0 S5 2.460082 1_555
Cr0 S5 2.460082 1_655
Cr0 S1 2.493695 1_555
Cr1 S5 2.355585 1_554
Cr1 S13 2.379524 1_455
Cr1 S13 2.379524 1_555
Cr1 S0 2.426775 1_555
Cr1 S4 2.443940 1_555
Cr1 S4 2.443940 1_455
Cr2 S6 2.356654 1_555
Cr2 S14 2.376320 1_455
Cr2 S14 2.376320 1_555
Cr2 S7 2.460082 1_455
Cr2 S7 2.460082 1_555
Cr2 S3 2.493695 1_555
Cr3 S7 2.355585 1_555
Cr3 S15 2.379524 1_555
Cr3 S15 2.379524 1_655
Cr3 S2 2.426775 1_555
Cr3 S6 2.443940 1_555
Cr3 S6 2.443940 1_655
Cr4 S0 2.333528 1_555
Cr4 S0 2.333528 1_655
Cr4 S9 2.406123 1_555
Cr4 S8 2.429274 1_655
Cr4 S8 2.429274 1_555
Cr4 S14 2.541012 1_555
Cr5 S2 2.333528 1_455
Cr5 S2 2.333528 1_555
Cr5 S11 2.406123 1_555
Cr5 S10 2.429274 1_456
Cr5 S10 2.429274 1_556
Cr5 S12 2.541012 1_555
Cu0 S2 2.278399 1_555
Cu0 S6 2.508063 1_555
Cu0 S6 2.508063 1_655
Cu0 S12 2.830598 1_655
Cu0 S12 2.830598 1_555
Cu0 S8 2.987502 1_555
Cu0 S8 2.987502 1_655
Cu1 S3 2.361214 1_555
Cu1 S7 2.417641 1_555
Cu1 S7 2.417641 1_455
Cu1 S9 2.755800 1_545
Cu1 S9 2.755800 1_445
Cu2 S0 2.278399 1_555
Cu2 S4 2.508063 1_455
Cu2 S4 2.508063 1_555
Cu2 S14 2.830598 1_455
Cu2 S14 2.830598 1_555
Cu2 S10 2.987502 1_555
Cu2 S10 2.987502 1_455
Cu3 S1 2.361214 1_555
Cu3 S5 2.417641 1_655
Cu3 S5 2.417641 1_555
Cu3 S11 2.755800 1_565
Cu3 S11 2.755800 1_665
S1 Ta0 2.451824 1_655
S1 Ta0 2.451824 1_555
S3 Ta1 2.451824 1_555
S3 Ta1 2.451824 1_455
S8 Ta0 2.391695 1_555
S9 Ta0 2.477549 1_655
S9 Ta0 2.477549 1_555
S10 Ta1 2.391695 1_555
S11 Ta1 2.477549 1_556
S11 Ta1 2.477549 1_456
S13 Ta1 2.588595 1_565
S15 Ta0 2.588595 1_545
