# generated using pymatgen
data_CeGaAg
_symmetry_space_group_name_H-M   'P 1'
_cell_length_a   5.75581964
_cell_length_b   5.75581964
_cell_length_c   7.32166323
_cell_angle_alpha   52.44835831
_cell_angle_beta   52.44835831
_cell_angle_gamma   47.91602906
_symmetry_Int_Tables_number   1
_chemical_formula_structural   CeGaAg
_chemical_formula_sum   'Ce2 Ga2 Ag2'
_cell_volume   134.13626230
_cell_formula_units_Z   2
loop_
 _symmetry_equiv_pos_site_id
 _symmetry_equiv_pos_as_xyz
  1  'x, y, z'
loop_
 _atom_site_type_symbol
 _atom_site_label
 _atom_site_symmetry_multiplicity
 _atom_site_fract_x
 _atom_site_fract_y
 _atom_site_fract_z
 _atom_site_occupancy
  Ce  Ce0  1  0.53194800  0.53194800  0.70947700  1
  Ce  Ce1  1  0.46805200  0.46805200  0.29052300  1
  Ga  Ga0  1  0.84125000  0.84125000  0.11163400  1
  Ga  Ga1  1  0.15875000  0.15875000  0.88836600  1
  Ag  Ag0  1  0.17230200  0.17230200  0.27611700  1
  Ag  Ag1  1  0.82769800  0.82769800  0.72388300  1
loop_
_geom_bond_atom_site_label_1
_geom_bond_atom_site_label_2
_geom_bond_distance
_geom_bond_site_symmetry_2
Ce0 Ga1 3.204665 1_555
Ce0 Ga0 3.205927 1_546
Ce0 Ga0 3.205927 1_456
Ce0 Ga0 3.278622 1_555
Ce0 Ga1 3.359773 1_655
Ce0 Ga1 3.359773 1_565
Ce1 Ga0 3.204665 1_555
Ce1 Ga1 3.205927 1_564
Ce1 Ga1 3.205927 1_654
Ce1 Ga1 3.278622 1_555
Ce1 Ga0 3.359773 1_455
Ce1 Ga0 3.359773 1_545
Ga0 Ga1 2.558368 1_664
Ag0 Ga0 2.686419 1_545
Ag0 Ga0 2.686419 1_455
Ag0 Ag1 2.834959 1_445
Ag0 Ga1 2.935986 1_554
Ag0 Ce1 3.128636 1_455
Ag0 Ce1 3.128636 1_545
Ag0 Ce1 3.182557 1_555
Ag0 Ce0 3.254114 1_554
Ag0 Ce0 3.385444 1_455
Ag0 Ce0 3.385444 1_545
Ag1 Ga1 2.686419 1_565
Ag1 Ga1 2.686419 1_655
Ag1 Ga0 2.935986 1_556
Ag1 Ce0 3.128636 1_655
Ag1 Ce0 3.128636 1_565
Ag1 Ce0 3.182557 1_555
Ag1 Ce1 3.254114 1_556
Ag1 Ce1 3.385444 1_565
Ag1 Ce1 3.385444 1_655
