# generated using pymatgen
data_AgW6CCl18
_symmetry_space_group_name_H-M   'P 1'
_cell_length_a   9.09063402
_cell_length_b   9.09063402
_cell_length_c   17.79981900
_cell_angle_alpha   90.00000000
_cell_angle_beta   90.00000000
_cell_angle_gamma   120.00000012
_symmetry_Int_Tables_number   1
_chemical_formula_structural   AgW6CCl18
_chemical_formula_sum   'Ag2 W12 C2 Cl36'
_cell_volume   1273.89773285
_cell_formula_units_Z   2
loop_
 _symmetry_equiv_pos_site_id
 _symmetry_equiv_pos_as_xyz
  1  'x, y, z'
loop_
 _atom_site_type_symbol
 _atom_site_label
 _atom_site_symmetry_multiplicity
 _atom_site_fract_x
 _atom_site_fract_y
 _atom_site_fract_z
 _atom_site_occupancy
  Ag  Ag0  1  0.00000000  0.00000000  0.00000000  1
  Ag  Ag1  1  0.00000000  0.00000000  0.50000000  1
  W  W0  1  0.82250000  0.30489000  0.83458400  1
  W  W1  1  0.17750000  0.69511000  0.16541600  1
  W  W2  1  0.48239000  0.17750000  0.83458400  1
  W  W3  1  0.17750000  0.69511000  0.33458400  1
  W  W4  1  0.51761000  0.82250000  0.16541600  1
  W  W5  1  0.82250000  0.30489000  0.66541600  1
  W  W6  1  0.69511000  0.51761000  0.83458400  1
  W  W7  1  0.51761000  0.82250000  0.33458400  1
  W  W8  1  0.30489000  0.48239000  0.16541600  1
  W  W9  1  0.48239000  0.17750000  0.66541600  1
  W  W10  1  0.30489000  0.48239000  0.33458400  1
  W  W11  1  0.69511000  0.51761000  0.66541600  1
  C  C0  1  0.66666700  0.33333300  0.75000000  1
  C  C1  1  0.33333300  0.66666700  0.25000000  1
  Cl  Cl0  1  0.80758300  0.08461200  0.75000000  1
  Cl  Cl1  1  0.19241700  0.91538800  0.25000000  1
  Cl  Cl2  1  0.27702900  0.19241700  0.75000000  1
  Cl  Cl3  1  0.72297100  0.80758300  0.25000000  1
  Cl  Cl4  1  0.91538800  0.72297100  0.75000000  1
  Cl  Cl5  1  0.08461200  0.27702900  0.25000000  1
  Cl  Cl6  1  0.73234400  0.77265100  0.90052800  1
  Cl  Cl7  1  0.26765600  0.22734900  0.09947200  1
  Cl  Cl8  1  0.04030700  0.26765600  0.90052800  1
  Cl  Cl9  1  0.26765600  0.22734900  0.40052800  1
  Cl  Cl10  1  0.95969300  0.73234400  0.09947200  1
  Cl  Cl11  1  0.73234400  0.77265100  0.59947200  1
  Cl  Cl12  1  0.22734900  0.95969300  0.90052800  1
  Cl  Cl13  1  0.95969300  0.73234400  0.40052800  1
  Cl  Cl14  1  0.77265100  0.04030700  0.09947200  1
  Cl  Cl15  1  0.04030700  0.26765600  0.59947200  1
  Cl  Cl16  1  0.77265100  0.04030700  0.40052800  1
  Cl  Cl17  1  0.22734900  0.95969300  0.59947200  1
  Cl  Cl18  1  0.51267000  0.57234100  0.75000000  1
  Cl  Cl19  1  0.48733000  0.42765900  0.25000000  1
  Cl  Cl20  1  0.05967100  0.48733000  0.75000000  1
  Cl  Cl21  1  0.94032900  0.51267000  0.25000000  1
  Cl  Cl22  1  0.42765900  0.94032900  0.75000000  1
  Cl  Cl23  1  0.57234100  0.05967100  0.25000000  1
  Cl  Cl24  1  0.63204700  0.10743200  0.92619000  1
  Cl  Cl25  1  0.36795300  0.89256800  0.07381000  1
  Cl  Cl26  1  0.47538400  0.36795300  0.92619000  1
  Cl  Cl27  1  0.36795300  0.89256800  0.42619000  1
  Cl  Cl28  1  0.52461600  0.63204700  0.07381000  1
  Cl  Cl29  1  0.63204700  0.10743200  0.57381000  1
  Cl  Cl30  1  0.89256800  0.52461600  0.92619000  1
  Cl  Cl31  1  0.52461600  0.63204700  0.42619000  1
  Cl  Cl32  1  0.10743200  0.47538400  0.07381000  1
  Cl  Cl33  1  0.47538400  0.36795300  0.57381000  1
  Cl  Cl34  1  0.10743200  0.47538400  0.42619000  1
  Cl  Cl35  1  0.89256800  0.52461600  0.57381000  1
loop_
_geom_bond_atom_site_label_1
_geom_bond_atom_site_label_2
_geom_bond_distance
_geom_bond_site_symmetry_2
Ag0 Cl7 2.880618 1_555
Ag0 Cl6 2.880618 1_444
Ag0 Cl10 2.880618 1_445
Ag0 Cl8 2.880618 1_554
Ag0 Cl14 2.880618 1_455
Ag0 Cl12 2.880618 1_544
Ag1 Cl9 2.880618 1_555
Ag1 Cl11 2.880618 1_445
Ag1 Cl13 2.880618 1_445
Ag1 Cl15 2.880618 1_555
Ag1 Cl16 2.880618 1_455
Ag1 Cl17 2.880618 1_545
C0 W5 2.169500 1_555
C0 W0 2.169500 1_555
C0 W9 2.169504 1_555
C0 W2 2.169504 1_555
C0 W6 2.169506 1_555
C0 W11 2.169506 1_555
C1 W3 2.169500 1_555
C1 W1 2.169500 1_555
C1 W7 2.169504 1_555
C1 W4 2.169504 1_555
C1 W10 2.169506 1_555
C1 W8 2.169506 1_555
Cl0 W5 2.454279 1_555
Cl0 W0 2.454279 1_555
Cl1 W3 2.454279 1_555
Cl1 W1 2.454279 1_555
Cl2 W9 2.454279 1_555
Cl2 W2 2.454279 1_555
Cl3 W7 2.454279 1_555
Cl3 W4 2.454279 1_555
Cl4 W6 2.454279 1_555
Cl4 W11 2.454279 1_555
Cl5 W10 2.454279 1_555
Cl5 W8 2.454279 1_555
Cl6 W6 2.466366 1_555
Cl7 W8 2.466366 1_555
Cl8 W0 2.466366 1_455
Cl9 W10 2.466366 1_555
Cl10 W1 2.466366 1_655
Cl11 W11 2.466366 1_555
Cl12 W2 2.466366 1_565
Cl13 W3 2.466366 1_655
Cl14 W4 2.466366 1_545
Cl15 W5 2.466366 1_455
Cl16 W7 2.466366 1_545
Cl17 W9 2.466366 1_565
Cl18 W6 2.467811 1_555
Cl18 W11 2.467811 1_555
Cl19 W10 2.467811 1_555
Cl19 W8 2.467811 1_555
Cl20 W5 2.467811 1_455
Cl20 W0 2.467811 1_455
Cl21 W3 2.467811 1_655
Cl21 W1 2.467811 1_655
Cl22 W9 2.467811 1_565
Cl22 W2 2.467811 1_565
Cl23 W7 2.467811 1_545
Cl23 W4 2.467811 1_545
Cl24 W0 2.402207 1_555
Cl24 W2 2.404569 1_555
Cl25 W1 2.402207 1_555
Cl25 W4 2.404569 1_555
Cl26 W2 2.402211 1_555
Cl26 W6 2.404574 1_555
Cl27 W3 2.402207 1_555
Cl27 W7 2.404569 1_555
Cl28 W4 2.402211 1_555
Cl28 W8 2.404574 1_555
Cl29 W5 2.402207 1_555
Cl29 W9 2.404569 1_555
Cl30 W6 2.402204 1_555
Cl30 W0 2.404575 1_555
Cl31 W7 2.402211 1_555
Cl31 W10 2.404574 1_555
Cl32 W8 2.402204 1_555
Cl32 W1 2.404575 1_555
Cl33 W9 2.402211 1_555
Cl33 W11 2.404574 1_555
Cl34 W10 2.402204 1_555
Cl34 W3 2.404575 1_555
Cl35 W11 2.402204 1_555
Cl35 W5 2.404575 1_555
