# generated using pymatgen
data_B2O3
_symmetry_space_group_name_H-M   'P 1'
_cell_length_a   11.74408967
_cell_length_b   11.59492784
_cell_length_c   10.69581139
_cell_angle_alpha   86.31372155
_cell_angle_beta   91.93746916
_cell_angle_gamma   92.61716290
_symmetry_Int_Tables_number   1
_chemical_formula_structural   B2O3
_chemical_formula_sum   'B40 O60'
_cell_volume   1451.24280430
_cell_formula_units_Z   20
loop_
 _symmetry_equiv_pos_site_id
 _symmetry_equiv_pos_as_xyz
  1  'x, y, z'
loop_
 _atom_site_type_symbol
 _atom_site_label
 _atom_site_symmetry_multiplicity
 _atom_site_fract_x
 _atom_site_fract_y
 _atom_site_fract_z
 _atom_site_occupancy
  B  B0  1  0.88027415  0.62267759  0.06643550  1
  B  B1  1  0.09816192  0.62036653  0.70289918  1
  B  B2  1  0.81351323  0.22324190  0.15167354  1
  B  B3  1  0.77396375  0.44768162  0.46589670  1
  B  B4  1  0.29438361  0.36757761  0.93077872  1
  B  B5  1  0.01122637  0.95729585  0.56803339  1
  B  B6  1  0.65817483  0.75874332  0.40892915  1
  B  B7  1  0.96440873  0.04156847  0.36363522  1
  B  B8  1  0.99351339  0.46262601  0.13728784  1
  B  B9  1  0.57120006  0.59746126  0.30520511  1
  B  B10  1  0.49755723  0.17136930  0.09272875  1
  B  B11  1  0.92803512  0.82227483  0.99325050  1
  B  B12  1  0.05025828  0.04151088  0.76413111  1
  B  B13  1  0.34944076  0.78126859  0.23368854  1
  B  B14  1  0.84552020  0.88833405  0.45385822  1
  B  B15  1  0.63974023  0.13242064  0.28111413  1
  B  B16  1  0.26613294  0.58122031  0.94111483  1
  B  B17  1  0.63652161  0.67199449  0.71316358  1
  B  B18  1  0.51536771  0.37346595  0.00094625  1
  B  B19  1  0.49336571  0.74997501  0.05243445  1
  B  B20  1  0.90831162  0.59082759  0.82684708  1
  B  B21  1  0.48028903  0.10290735  0.86330168  1
  B  B22  1  0.47901828  0.52175302  0.63204603  1
  B  B23  1  0.58606648  0.35635832  0.55750355  1
  B  B24  1  0.63625860  0.14740830  0.52208467  1
  B  B25  1  0.22740741  0.93276614  0.19224333  1
  B  B26  1  0.99643353  0.28024636  0.03670575  1
  B  B27  1  0.08732721  0.69868103  0.92642906  1
  B  B28  1  0.82579117  0.48368157  0.24311145  1
  B  B29  1  0.32480220  0.65585231  0.68589907  1
  B  B30  1  0.57936383  0.56086368  0.08353145  1
  B  B31  1  0.67042135  0.08427018  0.74972476  1
  B  B32  1  0.85387423  0.00156702  0.85577566  1
  B  B33  1  0.13862025  0.19707029  0.89468573  1
  B  B34  1  0.40646152  0.73154196  0.86124267  1
  B  B35  1  0.33235664  0.12510955  0.69030975  1
  B  B36  1  0.30370492  0.12948417  0.17797909  1
  B  B37  1  0.92568587  0.53487737  0.61128150  1
  B  B38  1  0.46188922  0.71716187  0.40250149  1
  B  B39  1  0.10683492  0.08608626  0.22231858  1
  O  O0  1  0.87650097  0.74538291  0.07533057  1
  O  O1  1  0.88009608  0.48995105  0.50700625  1
  O  O2  1  0.31874310  0.01054125  0.18934953  1
  O  O3  1  0.57423379  0.48052368  0.99571387  1
  O  O4  1  0.49235075  0.41419885  0.59214225  1
  O  O5  1  0.04005231  0.57300427  0.60692027  1
  O  O6  1  0.11818611  0.96935331  0.20486411  1
  O  O7  1  0.13761999  0.10576762  0.81833243  1
  O  O8  1  0.20773288  0.65772489  0.70152412  1
  O  O9  1  0.23176911  0.27001704  0.89767774  1
  O  O10  1  0.85327384  0.59446274  0.93029703  1
  O  O11  1  0.55125546  0.78577848  0.44782372  1
  O  O12  1  0.57269593  0.12849757  0.78758413  1
  O  O13  1  0.28890675  0.16822090  0.59291002  1
  O  O14  1  0.38930704  0.74843871  0.73347226  1
  O  O15  1  0.45390351  0.80784685  0.94084975  1
  O  O16  1  0.07561271  0.96439428  0.67728161  1
  O  O17  1  0.99673725  0.57408706  0.09027138  1
  O  O18  1  0.37720119  0.07922874  0.79535514  1
  O  O19  1  0.74751769  0.19296534  0.23850430  1
  O  O20  1  0.03451871  0.03737123  0.46989824  1
  O  O21  1  0.38720122  0.20449279  0.14198946  1
  O  O22  1  0.56149614  0.52755678  0.20782356  1
  O  O23  1  0.47945354  0.09870316  0.98767189  1
  O  O24  1  0.03525843  0.79581946  0.94747799  1
  O  O25  1  0.93704328  0.05755609  0.78431147  1
  O  O26  1  0.86667815  0.54421882  0.71900681  1
  O  O27  1  0.37029648  0.56505867  0.63233309  1
  O  O28  1  0.57266276  0.24296214  0.53386492  1
  O  O29  1  0.37385077  0.61896525  0.90980925  1
  O  O30  1  0.56315649  0.27994543  0.05815714  1
  O  O31  1  0.56000881  0.10738091  0.19779587  1
  O  O32  1  0.58060161  0.67749992  0.04249828  1
  O  O33  1  0.03365155  0.63398551  0.81676328  1
  O  O34  1  0.74290136  0.03175432  0.83663038  1
  O  O35  1  0.40934506  0.36706655  0.93762113  1
  O  O36  1  0.04686881  0.37722672  0.07744599  1
  O  O37  1  0.79724201  0.56255509  0.14990918  1
  O  O38  1  0.36027947  0.76397164  0.36262721  1
  O  O39  1  0.57321880  0.58358073  0.67821414  1
  O  O40  1  0.75371837  0.44687212  0.33969113  1
  O  O41  1  0.70166125  0.75217855  0.74235148  1
  O  O42  1  0.69264760  0.09159874  0.62215606  1
  O  O43  1  0.04189555  0.20447246  0.96491603  1
  O  O44  1  0.19164302  0.66681208  0.96428751  1
  O  O45  1  0.86443893  0.97492128  0.35931429  1
  O  O46  1  0.66611800  0.66952651  0.33008117  1
  O  O47  1  0.44321996  0.75822932  0.16590101  1
  O  O48  1  0.69212510  0.41290857  0.54907806  1
  O  O49  1  0.47754716  0.60202776  0.38155198  1
  O  O50  1  0.24689021  0.81813741  0.18463806  1
  O  O51  1  0.92660449  0.42491338  0.23744182  1
  O  O52  1  0.23335979  0.46685544  0.94512622  1
  O  O53  1  0.87933545  0.92361885  0.95388529  1
  O  O54  1  0.64499663  0.10452317  0.40654057  1
  O  O55  1  0.87688057  0.25296534  0.05989385  1
  O  O56  1  0.19336199  0.16673378  0.20053511  1
  O  O57  1  0.00028740  0.11396366  0.26281283  1
  O  O58  1  0.75284629  0.81647673  0.44976124  1
  O  O59  1  0.92389119  0.87447959  0.55407350  1
loop_
_geom_bond_atom_site_label_1
_geom_bond_atom_site_label_2
_geom_bond_distance
_geom_bond_site_symmetry_2
B0 O0 1.434820 1_555
B0 O37 1.466542 1_555
B0 O17 1.510462 1_555
B0 O10 1.532448 1_554
B1 O8 1.339137 1_555
B1 O5 1.346126 1_555
B1 O33 1.476539 1_555
B2 O19 1.252352 1_555
B2 O55 1.272290 1_555
B3 O48 1.361680 1_555
B3 O40 1.363266 1_555
B3 O1 1.386359 1_555
B4 O35 1.349890 1_555
B4 O9 1.379726 1_555
B4 O52 1.402758 1_555
B5 O16 1.375092 1_555
B5 O20 1.381854 1_565
B5 O59 1.383658 1_455
B6 O58 1.346034 1_555
B6 O46 1.384325 1_555
B6 O11 1.391428 1_555
B7 O45 1.376873 1_545
B7 O20 1.380354 1_655
B7 O57 1.388197 1_655
B8 O17 1.355663 1_555
B8 O51 1.386182 1_555
B8 O36 1.395739 1_655
B9 O22 1.359019 1_555
B9 O46 1.391074 1_555
B9 O49 1.396762 1_555
B10 O23 1.451539 1_554
B10 O30 1.478510 1_555
B10 O21 1.490791 1_555
B10 O31 1.496006 1_555
B11 O0 1.348296 1_556
B11 O53 1.366259 1_555
B11 O24 1.419766 1_655
B12 O7 1.374533 1_555
B12 O25 1.377032 1_455
B12 O16 1.378737 1_545
B13 O50 1.372565 1_555
B13 O38 1.383202 1_555
B13 O47 1.384122 1_555
B14 O58 1.341386 1_555
B14 O45 1.394337 1_555
B14 O59 1.395178 1_555
B15 O31 1.306624 1_555
B15 O54 1.359629 1_555
B15 O19 1.489752 1_555
B16 O52 1.362199 1_555
B16 O29 1.365005 1_555
B16 O44 1.391844 1_555
B17 O41 1.226095 1_555
B17 O39 1.305469 1_555
B18 O30 1.346219 1_555
B18 O3 1.391859 1_554
B18 O35 1.398439 1_554
B19 O32 1.365487 1_555
B19 O47 1.377410 1_555
B19 O15 1.406232 1_554
B20 O10 1.304114 1_555
B20 O26 1.370926 1_555
B20 O33 1.537974 1_655
B21 O23 1.328350 1_555
B21 O12 1.385919 1_555
B21 O18 1.416005 1_555
B22 O4 1.361134 1_555
B22 O39 1.384855 1_555
B22 O27 1.393367 1_555
B23 O28 1.355954 1_555
B23 O48 1.383795 1_555
B23 O4 1.387554 1_555
B24 O54 1.370160 1_555
B24 O28 1.378809 1_555
B24 O42 1.380250 1_555
B25 O50 1.366910 1_555
B25 O2 1.369343 1_565
B25 O6 1.382855 1_555
B26 O36 1.337872 1_655
B26 O43 1.343088 1_654
B26 O55 1.451137 1_555
B27 O44 1.337880 1_555
B27 O24 1.340900 1_555
B27 O33 1.534889 1_555
B28 O37 1.353040 1_555
B28 O40 1.391088 1_555
B28 O51 1.397716 1_555
B29 O27 1.368069 1_555
B29 O8 1.391907 1_555
B29 O14 1.398275 1_555
B30 O3 1.362790 1_554
B30 O22 1.380557 1_555
B30 O32 1.394310 1_555
B31 O12 1.362363 1_555
B31 O34 1.371282 1_555
B31 O42 1.394356 1_555
B32 O34 1.370172 1_555
B32 O25 1.374228 1_555
B32 O53 1.374389 1_545
B33 O9 1.352686 1_555
B33 O7 1.377387 1_555
B33 O43 1.391719 1_555
B34 O15 1.355718 1_555
B34 O14 1.377370 1_555
B34 O29 1.414560 1_555
B35 O13 1.231231 1_555
B35 O18 1.315846 1_555
B36 O21 1.330688 1_555
B36 O2 1.395427 1_555
B36 O56 1.417638 1_555
B37 O1 1.345656 1_555
B37 O26 1.377116 1_555
B37 O5 1.396054 1_655
B38 O38 1.376752 1_555
B38 O11 1.381454 1_555
B38 O49 1.389187 1_555
B39 O56 1.364749 1_555
B39 O6 1.391139 1_545
B39 O57 1.396217 1_555
