# generated using pymatgen
data_K3ReC4(N2O)2
_symmetry_space_group_name_H-M   'P 1'
_cell_length_a   6.98929928
_cell_length_b   8.50348554
_cell_length_c   7.38159450
_cell_angle_alpha   103.18070497
_cell_angle_beta   112.70574716
_cell_angle_gamma   107.16231443
_symmetry_Int_Tables_number   1
_chemical_formula_structural   K3ReC4(N2O)2
_chemical_formula_sum   'K3 Re1 C4 N4 O2'
_cell_volume   356.41096885
_cell_formula_units_Z   1
loop_
 _symmetry_equiv_pos_site_id
 _symmetry_equiv_pos_as_xyz
  1  'x, y, z'
loop_
 _atom_site_type_symbol
 _atom_site_label
 _atom_site_symmetry_multiplicity
 _atom_site_fract_x
 _atom_site_fract_y
 _atom_site_fract_z
 _atom_site_occupancy
  K  K0  1  0.40401400  0.12415400  0.74597800  1
  K  K1  1  0.59598600  0.87584600  0.25402200  1
  K  K2  1  0.50000000  0.50000000  0.50000000  1
  Re  Re0  1  0.00000000  0.00000000  0.00000000  1
  C  C0  1  0.63975500  0.86404800  0.81629600  1
  C  C1  1  0.91559800  0.67772200  0.90637900  1
  C  C2  1  0.08440200  0.32227800  0.09362100  1
  C  C3  1  0.36024500  0.13595200  0.18370400  1
  N  N0  1  0.88210300  0.22847100  0.98915900  1
  N  N1  1  0.44004500  0.79273700  0.69902800  1
  N  N2  1  0.11789700  0.77152900  0.01084100  1
  N  N3  1  0.55995500  0.20726300  0.30097200  1
  O  O0  1  0.01228900  0.98828200  0.75840500  1
  O  O1  1  0.98771100  0.01171800  0.24159500  1
loop_
_geom_bond_atom_site_label_1
_geom_bond_atom_site_label_2
_geom_bond_distance
_geom_bond_site_symmetry_2
K0 O0 2.686019 1_545
K0 N0 2.840549 1_555
K0 N1 2.857723 1_545
K1 O1 2.686019 1_565
K1 N2 2.840549 1_555
K1 N3 2.857723 1_565
K2 N1 2.820209 1_555
K2 N3 2.820209 1_555
C0 N1 1.180543 1_555
C0 Re0 2.108633 1_666
C1 N2 1.200942 1_656
C1 K2 2.887026 1_555
C2 N0 1.200942 1_454
C2 K2 2.887026 1_555
C3 N3 1.180543 1_555
C3 Re0 2.108633 1_555
N0 Re0 2.329090 1_656
N2 Re0 2.329090 1_565
O0 Re0 1.799980 1_566
O1 Re0 1.799980 1_655
