# generated using pymatgen
data_Ta17Al12
_symmetry_space_group_name_H-M   'P 1'
_cell_length_a   8.64464133
_cell_length_b   8.64464133
_cell_length_c   8.64464133
_cell_angle_alpha   109.47122063
_cell_angle_beta   109.47122063
_cell_angle_gamma   109.47122063
_symmetry_Int_Tables_number   1
_chemical_formula_structural   Ta17Al12
_chemical_formula_sum   'Ta17 Al12'
_cell_volume   497.30067220
_cell_formula_units_Z   1
loop_
 _symmetry_equiv_pos_site_id
 _symmetry_equiv_pos_as_xyz
  1  'x, y, z'
loop_
 _atom_site_type_symbol
 _atom_site_label
 _atom_site_symmetry_multiplicity
 _atom_site_fract_x
 _atom_site_fract_y
 _atom_site_fract_z
 _atom_site_occupancy
  Ta  Ta0  1  0.00000000  0.00000000  0.00000000  1
  Ta  Ta1  1  0.64487800  0.00000000  0.00000000  1
  Ta  Ta2  1  0.00000000  0.64487800  0.00000000  1
  Ta  Ta3  1  0.00000000  0.00000000  0.64487800  1
  Ta  Ta4  1  0.35512200  0.35512200  0.35512200  1
  Ta  Ta5  1  0.40689700  0.67781900  0.00000000  1
  Ta  Ta6  1  0.72907800  0.32218100  0.32218100  1
  Ta  Ta7  1  0.40689700  0.00000000  0.67781900  1
  Ta  Ta8  1  0.67781900  0.40689700  0.00000000  1
  Ta  Ta9  1  0.00000000  0.40689700  0.67781900  1
  Ta  Ta10  1  0.32218100  0.72907800  0.32218100  1
  Ta  Ta11  1  0.32218100  0.32218100  0.72907800  1
  Ta  Ta12  1  0.00000000  0.67781900  0.40689700  1
  Ta  Ta13  1  0.67781900  0.00000000  0.40689700  1
  Ta  Ta14  1  0.59310300  0.59310300  0.27092200  1
  Ta  Ta15  1  0.27092200  0.59310300  0.59310300  1
  Ta  Ta16  1  0.59310300  0.27092200  0.59310300  1
  Al  Al0  1  0.36764600  0.18645900  0.00000000  1
  Al  Al1  1  0.18118600  0.81354100  0.81354100  1
  Al  Al2  1  0.36764600  0.00000000  0.18645900  1
  Al  Al3  1  0.18645900  0.36764600  0.00000000  1
  Al  Al4  1  0.00000000  0.36764600  0.18645900  1
  Al  Al5  1  0.81354100  0.18118600  0.81354100  1
  Al  Al6  1  0.81354100  0.81354100  0.18118600  1
  Al  Al7  1  0.00000000  0.18645900  0.36764600  1
  Al  Al8  1  0.18645900  0.00000000  0.36764600  1
  Al  Al9  1  0.63235400  0.63235400  0.81881400  1
  Al  Al10  1  0.81881400  0.63235400  0.63235400  1
  Al  Al11  1  0.63235400  0.81881400  0.63235400  1
loop_
_geom_bond_atom_site_label_1
_geom_bond_atom_site_label_2
_geom_bond_distance
_geom_bond_site_symmetry_2
Ta0 Ta4 3.069902 1_555
Ta0 Ta1 3.069902 1_455
Ta0 Ta3 3.069902 1_554
Ta0 Ta2 3.069902 1_545
Ta1 Ta6 2.858231 1_555
Ta1 Ta5 2.858231 1_545
Ta1 Ta7 2.858231 1_554
Ta1 Ta13 3.433072 1_555
Ta1 Ta8 3.433072 1_555
Ta1 Ta15 3.433072 1_544
Ta2 Ta9 2.858231 1_554
Ta2 Ta8 2.858231 1_455
Ta2 Ta5 3.433072 1_555
Ta3 Ta9 3.433072 1_555
Ta3 Ta7 3.433072 1_555
Ta4 Ta6 3.433072 1_555
Ta5 Ta9 3.040236 1_554
Ta6 Ta9 2.833466 1_655
Ta6 Ta8 3.040236 1_555
Ta7 Ta8 3.040236 1_556
Ta10 Ta13 2.833466 1_565
Ta10 Ta7 2.833466 1_565
Ta10 Ta2 2.858231 1_555
Ta10 Ta15 3.040236 1_555
Ta10 Ta14 3.040236 1_555
Ta10 Ta5 3.040236 1_555
Ta10 Ta12 3.040236 1_555
Ta10 Ta4 3.433072 1_555
Ta11 Ta8 2.833466 1_556
Ta11 Ta5 2.833466 1_556
Ta11 Ta3 2.858231 1_555
Ta11 Ta15 3.040236 1_555
Ta11 Ta16 3.040236 1_555
Ta11 Ta7 3.040236 1_555
Ta11 Ta9 3.040236 1_555
Ta11 Ta4 3.433072 1_555
Ta12 Ta6 2.833466 1_455
Ta12 Ta15 2.833466 1_555
Ta12 Ta3 2.858231 1_565
Ta12 Ta7 3.040236 1_565
Ta12 Ta8 3.040236 1_455
Ta12 Ta14 3.040236 1_455
Ta12 Ta2 3.433072 1_555
Ta13 Ta16 2.833466 1_555
Ta13 Ta3 2.858231 1_655
Ta13 Ta6 3.040236 1_555
Ta13 Ta5 3.040236 1_545
Ta13 Ta9 3.040236 1_655
Ta13 Ta14 3.040236 1_545
Ta14 Ta5 2.833466 1_555
Ta14 Ta8 2.833466 1_555
Ta14 Ta4 2.858231 1_555
Ta14 Ta6 3.040236 1_555
Ta14 Ta3 3.433072 1_665
Ta15 Ta9 2.833466 1_555
Ta15 Ta4 2.858231 1_555
Ta15 Ta7 3.040236 1_565
Ta15 Ta5 3.040236 1_556
Ta16 Ta7 2.833466 1_555
Ta16 Ta4 2.858231 1_555
Ta16 Ta6 3.040236 1_555
Ta16 Ta9 3.040236 1_655
Ta16 Ta8 3.040236 1_556
Ta16 Ta2 3.433072 1_656
Al0 Al3 2.557752 1_555
Al0 Al2 2.632175 1_555
Al0 Al1 2.632175 1_544
Al0 Ta8 2.722960 1_555
Al0 Ta6 2.910677 1_555
Al0 Ta7 2.910677 1_554
Al0 Ta14 2.922627 1_555
Al0 Ta11 2.922627 1_554
Al0 Ta4 2.984071 1_555
Al0 Ta3 2.984071 1_554
Al0 Ta0 3.046913 1_555
Al0 Ta1 3.304087 1_555
Al1 Al10 2.557738 1_455
Al1 Al2 2.632175 1_566
Al1 Ta15 2.722967 1_555
Al1 Ta7 2.910682 1_565
Al1 Ta5 2.910682 1_556
Al1 Ta12 2.922627 1_555
Al1 Ta9 2.922627 1_555
Al1 Ta3 2.984066 1_565
Al1 Ta2 2.984066 1_556
Al1 Ta0 3.046906 1_566
Al1 Ta1 3.304095 1_566
Al2 Al8 2.557752 1_555
Al2 Ta13 2.722960 1_555
Al2 Ta6 2.910677 1_555
Al2 Ta5 2.910677 1_545
Al2 Ta16 2.922627 1_555
Al2 Ta10 2.922627 1_545
Al2 Ta4 2.984071 1_555
Al2 Ta2 2.984071 1_545
Al2 Ta0 3.046913 1_555
Al2 Ta1 3.304087 1_555
Al3 Al4 2.632175 1_555
Al3 Al5 2.632175 1_454
Al3 Ta5 2.722960 1_555
Al3 Ta9 2.910677 1_554
Al3 Ta10 2.910677 1_555
Al3 Ta14 2.922627 1_555
Al3 Ta11 2.922627 1_554
Al3 Ta4 2.984071 1_555
Al3 Ta3 2.984071 1_554
Al3 Ta0 3.046913 1_555
Al3 Ta2 3.304087 1_555
Al4 Al7 2.557752 1_555
Al4 Al5 2.632175 1_454
Al4 Ta12 2.722960 1_555
Al4 Ta10 2.910677 1_555
Al4 Ta8 2.910677 1_455
Al4 Ta15 2.922627 1_555
Al4 Ta6 2.922627 1_455
Al4 Ta4 2.984071 1_555
Al4 Ta1 2.984071 1_455
Al4 Ta0 3.046913 1_555
Al4 Ta2 3.304087 1_555
Al5 Ta16 2.722967 1_555
Al5 Ta8 2.910682 1_556
Al5 Ta9 2.910682 1_655
Al5 Ta13 2.922627 1_555
Al5 Ta7 2.922627 1_555
Al5 Ta3 2.984066 1_655
Al5 Ta1 2.984066 1_556
Al5 Ta0 3.046906 1_656
Al5 Ta2 3.304095 1_656
Al6 Al9 2.557738 1_554
Al6 Al8 2.632175 1_665
Al6 Al7 2.632175 1_665
Al6 Ta14 2.722967 1_555
Al6 Ta13 2.910682 1_565
Al6 Ta12 2.910682 1_655
Al6 Ta5 2.922627 1_555
Al6 Ta8 2.922627 1_555
Al6 Ta2 2.984066 1_655
Al6 Ta1 2.984066 1_565
Al6 Ta0 3.046906 1_665
Al6 Ta3 3.304095 1_665
Al7 Al8 2.632175 1_555
Al7 Ta9 2.722960 1_555
Al7 Ta11 2.910677 1_555
Al7 Ta13 2.910677 1_455
Al7 Ta15 2.922627 1_555
Al7 Ta6 2.922627 1_455
Al7 Ta1 2.984071 1_455
Al7 Ta4 2.984071 1_555
Al7 Ta0 3.046913 1_555
Al7 Ta3 3.304087 1_555
Al8 Ta7 2.722960 1_555
Al8 Ta11 2.910677 1_555
Al8 Ta12 2.910677 1_545
Al8 Ta16 2.922627 1_555
Al8 Ta10 2.922627 1_545
Al8 Ta4 2.984071 1_555
Al8 Ta2 2.984071 1_545
Al8 Ta0 3.046913 1_555
Al8 Ta3 3.304087 1_555
Al9 Ta11 2.722957 1_555
Al9 Ta15 2.910679 1_555
Al9 Ta16 2.910679 1_555
Al9 Ta8 2.922621 1_556
Al9 Ta5 2.922621 1_556
Al9 Ta2 2.984070 1_656
Al9 Ta1 2.984070 1_566
Al9 Ta0 3.046915 1_666
Al9 Ta4 3.304093 1_555
Al10 Al9 2.632189 1_555
Al10 Al11 2.632189 1_555
Al10 Ta6 2.722957 1_555
Al10 Ta16 2.910679 1_555
Al10 Ta14 2.910679 1_555
Al10 Ta12 2.922621 1_655
Al10 Ta9 2.922621 1_655
Al10 Ta3 2.984070 1_665
Al10 Ta2 2.984070 1_656
Al10 Ta0 3.046915 1_666
Al10 Ta4 3.304093 1_555
Al11 Al5 2.557738 1_565
Al11 Al9 2.632189 1_555
Al11 Ta10 2.722957 1_555
Al11 Ta15 2.910679 1_555
Al11 Ta14 2.910679 1_555
Al11 Ta13 2.922621 1_565
Al11 Ta7 2.922621 1_565
Al11 Ta3 2.984070 1_665
Al11 Ta1 2.984070 1_566
Al11 Ta0 3.046915 1_666
Al11 Ta4 3.304093 1_555
