# generated using pymatgen
data_Li4MnCrO6
_symmetry_space_group_name_H-M   'P 1'
_cell_length_a   5.00452286
_cell_length_b   5.00451943
_cell_length_c   5.11410777
_cell_angle_alpha   99.90005629
_cell_angle_beta   99.89914310
_cell_angle_gamma   119.41151241
_symmetry_Int_Tables_number   1
_chemical_formula_structural   Li4MnCrO6
_chemical_formula_sum   'Li4 Mn1 Cr1 O6'
_cell_volume   104.89582272
_cell_formula_units_Z   1
loop_
 _symmetry_equiv_pos_site_id
 _symmetry_equiv_pos_as_xyz
  1  'x, y, z'
loop_
 _atom_site_type_symbol
 _atom_site_label
 _atom_site_symmetry_multiplicity
 _atom_site_fract_x
 _atom_site_fract_y
 _atom_site_fract_z
 _atom_site_occupancy
  Li  Li0  1  0.00160300  0.49839600  0.00000000  1
  Li  Li1  1  0.50330300  0.99670000  0.49999900  1
  Li  Li2  1  0.65872400  0.84127900  0.99999900  1
  Li  Li3  1  0.33813900  0.16186400  0.99999900  1
  Mn  Mn0  1  0.83210400  0.66789600  0.49999900  1
  Cr  Cr0  1  0.17076800  0.32924200  0.50000100  1
  O  O0  1  0.78218500  0.28346300  0.27270900  1
  O  O1  1  0.21653000  0.71780300  0.72728900  1
  O  O2  1  0.42923000  0.57063100  0.27220900  1
  O  O3  1  0.92936600  0.07077100  0.72779700  1
  O  O4  1  0.57433400  0.43628300  0.72249100  1
  O  O5  1  0.06371300  0.92567100  0.27750900  1
loop_
_geom_bond_atom_site_label_1
_geom_bond_atom_site_label_2
_geom_bond_distance
_geom_bond_site_symmetry_2
Li0 O1 2.046974 1_554
Li0 O0 2.046998 1_455
Li0 O3 2.165901 1_454
Li0 O2 2.165946 1_555
Li0 O4 2.198886 1_454
Li0 O5 2.198897 1_555
Li1 O2 2.064495 1_555
Li1 O3 2.064505 1_565
Li1 O4 2.119614 1_565
Li1 O5 2.119662 1_555
Li1 O0 2.126684 1_565
Li1 O1 2.126737 1_555
Li2 O5 2.065077 1_656
Li2 O4 2.065084 1_555
Li2 O0 2.126839 1_566
Li2 O1 2.126871 1_555
Li2 O3 2.182115 1_565
Li2 O2 2.182169 1_556
Li3 O2 2.053591 1_556
Li3 O3 2.053609 1_455
Li3 O0 2.137312 1_556
Li3 O1 2.137337 1_545
Li3 O4 2.224868 1_555
Li3 O5 2.224888 1_546
Mn0 O2 1.921616 1_555
Mn0 O3 1.921625 1_565
Mn0 O0 1.942697 1_555
Mn0 O1 1.942713 1_655
Mn0 O5 1.947300 1_655
Mn0 O4 1.947302 1_555
Cr0 O5 1.896908 1_545
Cr0 O4 1.896923 1_555
Cr0 O1 1.969450 1_555
Cr0 O0 1.969526 1_455
Cr0 O2 1.989190 1_555
Cr0 O3 1.989253 1_455
