# generated using pymatgen
data_MgMn4(Si4O11)2
_symmetry_space_group_name_H-M   'P 1'
_cell_length_a   8.75919194
_cell_length_b   7.70959815
_cell_length_c   7.15467235
_cell_angle_alpha   108.68129830
_cell_angle_beta   102.25403715
_cell_angle_gamma   97.26945483
_symmetry_Int_Tables_number   1
_chemical_formula_structural   MgMn4(Si4O11)2
_chemical_formula_sum   'Mg1 Mn4 Si8 O22'
_cell_volume   437.28526737
_cell_formula_units_Z   1
loop_
 _symmetry_equiv_pos_site_id
 _symmetry_equiv_pos_as_xyz
  1  'x, y, z'
loop_
 _atom_site_type_symbol
 _atom_site_label
 _atom_site_symmetry_multiplicity
 _atom_site_fract_x
 _atom_site_fract_y
 _atom_site_fract_z
 _atom_site_occupancy
  Mg  Mg0  1  0.14490300  0.75493600  0.15083600  1
  Mn  Mn0  1  0.37894700  0.65443700  0.85544700  1
  Mn  Mn1  1  0.40145200  0.62201100  0.36854400  1
  Mn  Mn2  1  0.60464000  0.37388000  0.64874800  1
  Mn  Mn3  1  0.62331300  0.37738600  0.11389700  1
  Si  Si0  1  0.02919400  0.38077500  0.22718700  1
  Si  Si1  1  0.24185400  0.21345300  0.95394900  1
  Si  Si2  1  0.21481300  0.22787200  0.52264500  1
  Si  Si3  1  0.61051700  0.97529900  0.77959600  1
  Si  Si4  1  0.39833400  0.03360900  0.23531700  1
  Si  Si5  1  0.78575200  0.77167800  0.47378900  1
  Si  Si6  1  0.76661400  0.78253800  0.04622000  1
  Si  Si7  1  0.95896100  0.60699500  0.75304900  1
  O  O0  1  0.14032500  0.59935300  0.85081600  1
  O  O1  1  0.06303400  0.29599700  0.41534700  1
  O  O2  1  0.15303600  0.58221300  0.29613300  1
  O  O3  1  0.08414300  0.23527200  0.03829600  1
  O  O4  1  0.18509500  0.16033800  0.70668700  1
  O  O5  1  0.24601500  0.04101400  0.34858700  1
  O  O6  1  0.37627200  0.39570000  0.59955800  1
  O  O7  1  0.45289400  0.80559100  0.67336300  1
  O  O8  1  0.40249600  0.81224500  0.18482300  1
  O  O9  1  0.31520300  0.04180800  0.00831600  1
  O  O10  1  0.39097600  0.39783000  0.07089200  1
  O  O11  1  0.62964700  0.58716900  0.92169500  1
  O  O12  1  0.69955800  0.95661600  0.99975500  1
  O  O13  1  0.58024100  0.18975400  0.83302200  1
  O  O14  1  0.55232700  0.19913600  0.36491100  1
  O  O15  1  0.63798900  0.58573000  0.37392500  1
  O  O16  1  0.72978400  0.94268300  0.62793700  1
  O  O17  1  0.82745600  0.83750400  0.29229800  1
  O  O18  1  0.93151500  0.75797400  0.97382400  1
  O  O19  1  0.82371900  0.41871600  0.67534800  1
  O  O20  1  0.94409600  0.72357500  0.59660000  1
  O  O21  1  0.84676200  0.40058100  0.16679300  1
loop_
_geom_bond_atom_site_label_1
_geom_bond_atom_site_label_2
_geom_bond_distance
_geom_bond_site_symmetry_2
Mg0 O2 1.933476 1_555
Mg0 O18 2.030585 1_454
Mg0 O0 2.085644 1_554
Mg0 O5 2.150658 1_565
Mg0 O8 2.188892 1_555
Mn0 O0 2.070524 1_555
Mn0 O7 2.148119 1_555
Mn0 O6 2.227533 1_555
Mn0 O8 2.229276 1_556
Mn0 O11 2.306419 1_555
Mn1 O2 2.085155 1_555
Mn1 O7 2.099178 1_555
Mn1 O15 2.119453 1_555
Mn1 O10 2.247185 1_555
Mn1 O8 2.261766 1_555
Mn1 O6 2.780188 1_555
Mn2 O19 1.863614 1_555
Mn2 O14 1.960887 1_555
Mn2 O6 1.994413 1_555
Mn2 O11 2.058080 1_555
Mn2 O13 2.245162 1_555
Mn3 O21 1.886691 1_555
Mn3 O13 1.987732 1_554
Mn3 O15 1.997400 1_555
Mn3 O10 2.026702 1_555
Mn3 O11 2.438100 1_554
Mn3 O14 2.709111 1_555
O0 Si7 1.610838 1_455
O1 Si2 1.623089 1_555
O1 Si0 1.664537 1_555
O2 Si0 1.639397 1_555
O3 Si1 1.627409 1_554
O3 Si0 1.660733 1_555
O4 Si2 1.619597 1_555
O4 Si1 1.629586 1_555
O5 Si2 1.672041 1_555
O5 Si4 1.699620 1_555
O6 Si2 1.651513 1_555
O7 Si3 1.629751 1_555
O8 Si4 1.634255 1_565
O9 Si4 1.657520 1_555
O9 Si1 1.659537 1_554
O10 Si1 1.652594 1_554
O11 Si6 1.652600 1_556
O12 Si6 1.630668 1_556
O12 Si3 1.662064 1_555
O13 Si3 1.642918 1_545
O14 Si4 1.607217 1_555
O15 Si5 1.650016 1_555
O16 Si5 1.629852 1_555
O16 Si3 1.644642 1_555
O17 Si6 1.621708 1_555
O17 Si5 1.629018 1_555
O18 Si6 1.647550 1_556
O18 Si7 1.721017 1_555
O19 Si7 1.608636 1_555
O20 Si5 1.629376 1_555
O20 Si7 1.640098 1_555
O21 Si0 1.604496 1_655
