# generated using pymatgen
data_LiFeSiO4
_symmetry_space_group_name_H-M   'P 1'
_cell_length_a   5.48588200
_cell_length_b   8.26486500
_cell_length_c   18.76245900
_cell_angle_alpha   90.00000000
_cell_angle_beta   90.00000000
_cell_angle_gamma   90.00000000
_symmetry_Int_Tables_number   1
_chemical_formula_structural   LiFeSiO4
_chemical_formula_sum   'Li12 Fe12 Si12 O48'
_cell_volume   850.69128203
_cell_formula_units_Z   12
loop_
 _symmetry_equiv_pos_site_id
 _symmetry_equiv_pos_as_xyz
  1  'x, y, z'
loop_
 _atom_site_type_symbol
 _atom_site_label
 _atom_site_symmetry_multiplicity
 _atom_site_fract_x
 _atom_site_fract_y
 _atom_site_fract_z
 _atom_site_occupancy
  Li  Li0  1  0.48279600  0.17290300  0.41737800  1
  Li  Li1  1  0.01720400  0.67290300  0.41737800  1
  Li  Li2  1  0.50000000  0.82953900  0.25000000  1
  Li  Li3  1  0.00000000  0.32953800  0.25000000  1
  Li  Li4  1  0.51720400  0.17290300  0.08262200  1
  Li  Li5  1  0.98279600  0.67290300  0.08262200  1
  Li  Li6  1  0.48279600  0.82709700  0.91737800  1
  Li  Li7  1  0.01720400  0.32709700  0.91737800  1
  Li  Li8  1  0.50000000  0.17046100  0.75000000  1
  Li  Li9  1  0.00000000  0.67046100  0.75000000  1
  Li  Li10  1  0.51720400  0.82709700  0.58262200  1
  Li  Li11  1  0.98279600  0.32709700  0.58262200  1
  Fe  Fe0  1  0.50000000  0.50000000  0.50000000  1
  Fe  Fe1  1  0.00000000  0.00000000  0.50000000  1
  Fe  Fe2  1  0.99294100  0.00135500  0.33310000  1
  Fe  Fe3  1  0.50705900  0.50135500  0.33310000  1
  Fe  Fe4  1  0.00705900  0.00135500  0.16690000  1
  Fe  Fe5  1  0.49294100  0.50135500  0.16690000  1
  Fe  Fe6  1  0.50000000  0.50000000  0.00000000  1
  Fe  Fe7  1  0.00000000  0.00000000  0.00000000  1
  Fe  Fe8  1  0.99294100  0.99864500  0.83310000  1
  Fe  Fe9  1  0.50705900  0.49864500  0.83310000  1
  Fe  Fe10  1  0.00705900  0.99864500  0.66690000  1
  Fe  Fe11  1  0.49294100  0.49864500  0.66690000  1
  Si  Si0  1  0.49973700  0.84729700  0.41729100  1
  Si  Si1  1  0.00026300  0.34729700  0.41729100  1
  Si  Si2  1  0.50000000  0.15392000  0.25000000  1
  Si  Si3  1  0.00000000  0.65392000  0.25000000  1
  Si  Si4  1  0.50026300  0.84729700  0.08270900  1
  Si  Si5  1  0.99973700  0.34729700  0.08270900  1
  Si  Si6  1  0.49973700  0.15270300  0.91729100  1
  Si  Si7  1  0.00026300  0.65270300  0.91729100  1
  Si  Si8  1  0.50000000  0.84608000  0.75000000  1
  Si  Si9  1  0.00000000  0.34608000  0.75000000  1
  Si  Si10  1  0.50026300  0.15270300  0.58270900  1
  Si  Si11  1  0.99973700  0.65270300  0.58270900  1
  O  O0  1  0.00099600  0.76353200  0.51134700  1
  O  O1  1  0.50099600  0.73646800  0.48865300  1
  O  O2  1  0.99900400  0.23646800  0.48865300  1
  O  O3  1  0.75610400  0.47350000  0.41668900  1
  O  O4  1  0.23833700  0.47180500  0.41688500  1
  O  O5  1  0.26166300  0.97180500  0.41688500  1
  O  O6  1  0.74389600  0.97350000  0.41668900  1
  O  O7  1  0.49281700  0.73469900  0.34624200  1
  O  O8  1  0.00718300  0.23469900  0.34624200  1
  O  O9  1  0.49208200  0.26495600  0.32171700  1
  O  O10  1  0.00791800  0.76495600  0.32171700  1
  O  O11  1  0.23328200  0.52763500  0.25007100  1
  O  O12  1  0.76671800  0.52763500  0.24992900  1
  O  O13  1  0.73328200  0.02763500  0.24992900  1
  O  O14  1  0.26671800  0.02763500  0.25007100  1
  O  O15  1  0.50791800  0.26495600  0.17828300  1
  O  O16  1  0.99208200  0.76495600  0.17828300  1
  O  O17  1  0.50718300  0.73469900  0.15375800  1
  O  O18  1  0.99281700  0.23469900  0.15375800  1
  O  O19  1  0.24389600  0.47350000  0.08331100  1
  O  O20  1  0.76166300  0.47180500  0.08311500  1
  O  O21  1  0.73833700  0.97180500  0.08311500  1
  O  O22  1  0.25610400  0.97350000  0.08331100  1
  O  O23  1  0.49900400  0.73646800  0.01134700  1
  O  O24  1  0.00099600  0.23646800  0.01134700  1
  O  O25  1  0.50099600  0.26353200  0.98865300  1
  O  O26  1  0.99900400  0.76353200  0.98865300  1
  O  O27  1  0.75610400  0.52650000  0.91668900  1
  O  O28  1  0.23833700  0.52819500  0.91688500  1
  O  O29  1  0.26166300  0.02819500  0.91688500  1
  O  O30  1  0.74389600  0.02650000  0.91668900  1
  O  O31  1  0.49281700  0.26530100  0.84624200  1
  O  O32  1  0.00718300  0.76530100  0.84624200  1
  O  O33  1  0.49208200  0.73504400  0.82171700  1
  O  O34  1  0.00791800  0.23504400  0.82171700  1
  O  O35  1  0.76671800  0.47236500  0.74992900  1
  O  O36  1  0.23328200  0.47236500  0.75007100  1
  O  O37  1  0.26671800  0.97236500  0.75007100  1
  O  O38  1  0.73328200  0.97236500  0.74992900  1
  O  O39  1  0.50791800  0.73504400  0.67828300  1
  O  O40  1  0.99208200  0.23504400  0.67828300  1
  O  O41  1  0.50718300  0.26530100  0.65375800  1
  O  O42  1  0.99281700  0.76530100  0.65375800  1
  O  O43  1  0.24389600  0.52650000  0.58331100  1
  O  O44  1  0.76166300  0.52819500  0.58311500  1
  O  O45  1  0.73833700  0.02819500  0.58311500  1
  O  O46  1  0.25610400  0.02650000  0.58331100  1
  O  O47  1  0.49900400  0.26353200  0.51134700  1
loop_
_geom_bond_atom_site_label_1
_geom_bond_atom_site_label_2
_geom_bond_distance
_geom_bond_site_symmetry_2
Li0 O47 1.917667 1_555
Li0 O9 1.950091 1_555
Li0 O5 2.057699 1_545
Li0 O6 2.183544 1_545
Li1 O0 1.917667 1_555
Li1 O10 1.950091 1_555
Li1 O4 2.057699 1_555
Li1 O3 2.183544 1_455
Li2 O7 1.968919 1_555
Li2 O17 1.968919 1_555
Li2 O14 2.078058 1_565
Li2 O13 2.078058 1_565
Li3 O8 1.968916 1_555
Li3 O18 1.968916 1_455
Li3 O11 2.078065 1_555
Li3 O12 2.078065 1_455
Li4 O25 1.917667 1_554
Li4 O15 1.950091 1_555
Li4 O21 2.057699 1_545
Li4 O22 2.183544 1_545
Li5 O26 1.917667 1_554
Li5 O16 1.950091 1_555
Li5 O20 2.057699 1_555
Li5 O19 2.183544 1_655
Li6 O23 1.917667 1_556
Li6 O33 1.950091 1_555
Li6 O29 2.057699 1_565
Li6 O30 2.183544 1_565
Li7 O24 1.917667 1_556
Li7 O34 1.950091 1_555
Li7 O28 2.057699 1_555
Li7 O27 2.183544 1_455
Li8 O31 1.968919 1_555
Li8 O41 1.968919 1_555
Li8 O37 2.078058 1_545
Li8 O38 2.078058 1_545
Li9 O32 1.968919 1_555
Li9 O42 1.968919 1_455
Li9 O36 2.078058 1_555
Li9 O35 2.078058 1_455
Li10 O1 1.917667 1_555
Li10 O39 1.950091 1_555
Li10 O45 2.057699 1_565
Li10 O46 2.183544 1_565
Li11 O2 1.917667 1_555
Li11 O40 1.950091 1_555
Li11 O44 2.057699 1_555
Li11 O43 2.183544 1_655
Fe0 O47 1.965945 1_555
Fe0 O1 1.965945 1_555
Fe0 O3 2.113105 1_555
Fe0 O43 2.113105 1_555
Fe0 O44 2.132295 1_555
Fe0 O4 2.132295 1_555
Fe1 O2 1.965945 1_455
Fe1 O0 1.965945 1_545
Fe1 O6 2.113105 1_445
Fe1 O46 2.113105 1_555
Fe1 O45 2.132295 1_455
Fe1 O5 2.132295 1_545
Fe2 O8 1.945825 1_655
Fe2 O10 1.967161 1_645
Fe2 O6 2.092669 1_545
Fe2 O13 2.124005 1_555
Fe2 O5 2.168887 1_645
Fe2 O14 2.174795 1_655
Fe3 O7 1.945825 1_555
Fe3 O9 1.967161 1_555
Fe3 O3 2.092669 1_555
Fe3 O12 2.124005 1_555
Fe3 O4 2.168887 1_555
Fe3 O11 2.174795 1_555
Fe4 O18 1.945825 1_455
Fe4 O16 1.967161 1_445
Fe4 O22 2.092669 1_545
Fe4 O14 2.124005 1_555
Fe4 O21 2.168887 1_445
Fe4 O13 2.174795 1_455
Fe5 O17 1.945825 1_555
Fe5 O15 1.967161 1_555
Fe5 O19 2.092669 1_555
Fe5 O11 2.124005 1_555
Fe5 O20 2.168887 1_555
Fe5 O12 2.174795 1_555
Fe6 O25 1.965945 1_554
Fe6 O23 1.965945 1_555
Fe6 O19 2.113105 1_555
Fe6 O27 2.113105 1_554
Fe6 O28 2.132295 1_554
Fe6 O20 2.132295 1_555
Fe7 O24 1.965945 1_555
Fe7 O26 1.965945 1_444
Fe7 O22 2.113105 1_545
Fe7 O30 2.113105 1_454
Fe7 O29 2.132295 1_554
Fe7 O21 2.132295 1_445
Fe8 O32 1.945825 1_655
Fe8 O34 1.967161 1_665
Fe8 O30 2.092669 1_565
Fe8 O38 2.124005 1_555
Fe8 O29 2.168887 1_665
Fe8 O37 2.174795 1_655
Fe9 O31 1.945825 1_555
Fe9 O33 1.967161 1_555
Fe9 O27 2.092669 1_555
Fe9 O35 2.124005 1_555
Fe9 O28 2.168887 1_555
Fe9 O36 2.174795 1_555
Fe10 O42 1.945825 1_455
Fe10 O40 1.967161 1_465
Fe10 O46 2.092669 1_565
Fe10 O37 2.124005 1_555
Fe10 O45 2.168887 1_465
Fe10 O38 2.174795 1_455
Fe11 O41 1.945825 1_555
Fe11 O39 1.967161 1_555
Fe11 O43 2.092669 1_555
Fe11 O36 2.124005 1_555
Fe11 O44 2.168887 1_555
Fe11 O35 2.174795 1_555
O0 Si11 1.622284 1_455
O1 Si0 1.622284 1_555
O2 Si1 1.622284 1_655
O3 Si1 1.697689 1_655
O4 Si1 1.662751 1_555
O5 Si0 1.662751 1_555
O6 Si0 1.697689 1_555
O7 Si0 1.626193 1_555
O8 Si1 1.626193 1_555
O9 Si2 1.629313 1_555
O10 Si3 1.629313 1_555
O11 Si3 1.651409 1_555
O12 Si3 1.651409 1_655
O13 Si2 1.651409 1_555
O14 Si2 1.651409 1_555
O15 Si2 1.629313 1_555
O16 Si3 1.629313 1_655
O17 Si4 1.626193 1_555
O18 Si5 1.626193 1_555
O19 Si5 1.697689 1_455
O20 Si5 1.662751 1_555
O21 Si4 1.662751 1_555
O22 Si4 1.697689 1_555
O23 Si4 1.622284 1_555
O24 Si5 1.622284 1_455
O25 Si6 1.622284 1_555
O26 Si7 1.622284 1_655
O27 Si7 1.697689 1_655
O28 Si7 1.662751 1_555
O29 Si6 1.662751 1_555
O30 Si6 1.697689 1_555
O31 Si6 1.626193 1_555
O32 Si7 1.626193 1_555
O33 Si8 1.629313 1_555
O34 Si9 1.629313 1_555
O35 Si9 1.651409 1_655
O36 Si9 1.651409 1_555
O37 Si8 1.651409 1_555
O38 Si8 1.651409 1_555
O39 Si8 1.629313 1_555
O40 Si9 1.629313 1_655
O41 Si10 1.626193 1_555
O42 Si11 1.626193 1_555
O43 Si11 1.697689 1_455
O44 Si11 1.662751 1_555
O45 Si10 1.662751 1_555
O46 Si10 1.697689 1_555
O47 Si10 1.622284 1_555
