# generated using pymatgen
data_MgTi
_symmetry_space_group_name_H-M   'P 1'
_cell_length_a   8.55672051
_cell_length_b   8.55672051
_cell_length_c   4.76811800
_cell_angle_alpha   90.00000000
_cell_angle_beta   90.00000000
_cell_angle_gamma   146.04122469
_symmetry_Int_Tables_number   1
_chemical_formula_structural   MgTi
_chemical_formula_sum   'Mg5 Ti5'
_cell_volume   195.01127084
_cell_formula_units_Z   5
loop_
 _symmetry_equiv_pos_site_id
 _symmetry_equiv_pos_as_xyz
  1  'x, y, z'
loop_
 _atom_site_type_symbol
 _atom_site_label
 _atom_site_symmetry_multiplicity
 _atom_site_fract_x
 _atom_site_fract_y
 _atom_site_fract_z
 _atom_site_occupancy
  Mg  Mg0  1  0.01897400  0.23016900  0.00000000  1
  Mg  Mg1  1  0.23536400  0.23536400  0.50000000  1
  Mg  Mg2  1  0.83570000  0.62661400  0.50000000  1
  Mg  Mg3  1  0.62661400  0.83570000  0.50000000  1
  Mg  Mg4  1  0.23016900  0.01897400  0.00000000  1
  Ti  Ti0  1  0.82888100  0.41844200  0.00000000  1
  Ti  Ti1  1  0.04644800  0.46309400  0.50000000  1
  Ti  Ti2  1  0.62951400  0.62951400  0.00000000  1
  Ti  Ti3  1  0.41844200  0.82888100  0.00000000  1
  Ti  Ti4  1  0.46309400  0.04644800  0.50000000  1
loop_
_geom_bond_atom_site_label_1
_geom_bond_atom_site_label_2
_geom_bond_distance
_geom_bond_site_symmetry_2
Mg0 Ti3 2.979935 1_555
Mg0 Ti3 2.987552 1_445
Mg0 Ti1 2.988994 1_555
Mg0 Ti1 2.988994 1_554
Mg0 Mg1 2.996257 1_555
Mg0 Mg1 2.996257 1_554
Mg0 Ti2 3.018013 1_445
Mg0 Ti2 3.058642 1_555
Mg0 Mg3 3.090258 1_444
Mg0 Mg3 3.090258 1_445
Mg0 Ti0 3.096449 1_455
Mg1 Mg4 2.996257 1_555
Mg1 Mg4 2.996257 1_556
Mg1 Mg3 3.011186 1_555
Mg1 Mg2 3.011186 1_555
Mg1 Mg2 3.045881 1_445
Mg1 Mg3 3.045881 1_445
Mg1 Ti2 3.092549 1_555
Mg1 Ti2 3.092549 1_556
Mg1 Ti1 3.411098 1_555
Mg1 Ti4 3.411098 1_555
Mg2 Ti4 2.924626 1_555
Mg2 Ti0 2.947482 1_555
Mg2 Ti0 2.947482 1_556
Mg2 Ti2 2.978195 1_555
Mg2 Ti2 2.978195 1_556
Mg2 Ti1 3.065182 1_655
Mg2 Mg4 3.090258 1_666
Mg2 Mg4 3.090258 1_665
Mg2 Ti4 3.119776 1_665
Mg2 Mg3 3.422208 1_555
Mg3 Ti1 2.924626 1_555
Mg3 Ti3 2.947482 1_556
Mg3 Ti3 2.947482 1_555
Mg3 Ti2 2.978195 1_555
Mg3 Ti2 2.978195 1_556
Mg3 Ti4 3.065182 1_565
Mg3 Ti1 3.119776 1_665
Mg4 Ti0 2.979935 1_555
Mg4 Ti0 2.987552 1_445
Mg4 Ti4 2.988994 1_554
Mg4 Ti4 2.988994 1_555
Mg4 Ti2 3.018013 1_445
Mg4 Ti2 3.058642 1_555
Mg4 Ti3 3.096449 1_545
Ti0 Ti1 2.848780 1_654
Ti0 Ti1 2.848780 1_655
Ti0 Ti3 2.897036 1_655
Ti0 Ti3 2.897036 1_545
Ti0 Ti4 3.014142 1_554
Ti0 Ti4 3.014142 1_555
Ti0 Ti2 3.359050 1_555
Ti1 Ti4 2.846980 1_565
Ti1 Ti4 2.846980 1_455
Ti1 Ti3 3.014142 1_556
Ti1 Ti3 3.014142 1_555
Ti2 Ti3 3.359050 1_555
Ti3 Ti4 2.848780 1_565
Ti3 Ti4 2.848780 1_564
