# generated using pymatgen
data_CuC8(NCl2)2
_symmetry_space_group_name_H-M   'P 1'
_cell_length_a   9.04115100
_cell_length_b   9.71656300
_cell_length_c   13.88317200
_cell_angle_alpha   90.00000000
_cell_angle_beta   90.00000000
_cell_angle_gamma   90.00000000
_symmetry_Int_Tables_number   1
_chemical_formula_structural   CuC8(NCl2)2
_chemical_formula_sum   'Cu4 C32 N8 Cl16'
_cell_volume   1219.62157314
_cell_formula_units_Z   4
loop_
 _symmetry_equiv_pos_site_id
 _symmetry_equiv_pos_as_xyz
  1  'x, y, z'
loop_
 _atom_site_type_symbol
 _atom_site_label
 _atom_site_symmetry_multiplicity
 _atom_site_fract_x
 _atom_site_fract_y
 _atom_site_fract_z
 _atom_site_occupancy
  Cu  Cu0  1  0.25000000  0.27818900  0.58943100  1
  Cu  Cu1  1  0.25000000  0.77818900  0.91056900  1
  Cu  Cu2  1  0.75000000  0.72181100  0.41056900  1
  Cu  Cu3  1  0.75000000  0.22181100  0.08943100  1
  C  C0  1  0.25000000  0.26073600  0.88871300  1
  C  C1  1  0.25000000  0.76073600  0.61128700  1
  C  C2  1  0.75000000  0.73926400  0.11128700  1
  C  C3  1  0.75000000  0.23926400  0.38871300  1
  C  C4  1  0.25000000  0.17553500  0.97872800  1
  C  C5  1  0.25000000  0.67553500  0.52127200  1
  C  C6  1  0.75000000  0.82446500  0.02127200  1
  C  C7  1  0.75000000  0.32446500  0.47872800  1
  C  C8  1  0.35045400  0.14178700  0.86762500  1
  C  C9  1  0.14954600  0.64178700  0.63237500  1
  C  C10  1  0.85045400  0.85821300  0.13237500  1
  C  C11  1  0.64954600  0.35821300  0.36762500  1
  C  C12  1  0.64954600  0.85821300  0.13237500  1
  C  C13  1  0.85045400  0.35821300  0.36762500  1
  C  C14  1  0.14954600  0.14178700  0.86762500  1
  C  C15  1  0.35045400  0.64178700  0.63237500  1
  C  C16  1  0.25000000  0.39526900  0.19379700  1
  C  C17  1  0.25000000  0.89526900  0.30620300  1
  C  C18  1  0.75000000  0.60473100  0.80620300  1
  C  C19  1  0.75000000  0.10473100  0.69379700  1
  C  C20  1  0.25000000  0.47320600  0.10457500  1
  C  C21  1  0.25000000  0.97320600  0.39542500  1
  C  C22  1  0.75000000  0.52679400  0.89542500  1
  C  C23  1  0.75000000  0.02679400  0.60457500  1
  C  C24  1  0.36103500  0.58238300  0.13225800  1
  C  C25  1  0.13896500  0.08238300  0.36774200  1
  C  C26  1  0.86103500  0.41761700  0.86774200  1
  C  C27  1  0.63896500  0.91761700  0.63225800  1
  C  C28  1  0.63896500  0.41761700  0.86774200  1
  C  C29  1  0.86103500  0.91761700  0.63225800  1
  C  C30  1  0.13896500  0.58238300  0.13225800  1
  C  C31  1  0.36103500  0.08238300  0.36774200  1
  N  N0  1  0.25000000  0.04893900  0.92112500  1
  N  N1  1  0.25000000  0.54893900  0.57887500  1
  N  N2  1  0.75000000  0.95106100  0.07887500  1
  N  N3  1  0.75000000  0.45106100  0.42112500  1
  N  N4  1  0.25000000  0.55121100  0.21246100  1
  N  N5  1  0.25000000  0.05121100  0.28753900  1
  N  N6  1  0.75000000  0.44878900  0.78753900  1
  N  N7  1  0.75000000  0.94878900  0.71246100  1
  Cl  Cl0  1  0.25000000  0.92864500  0.63716800  1
  Cl  Cl1  1  0.25000000  0.42864500  0.86283200  1
  Cl  Cl2  1  0.75000000  0.07135500  0.36283200  1
  Cl  Cl3  1  0.75000000  0.57135500  0.13716800  1
  Cl  Cl4  1  0.02576000  0.25745300  0.63688100  1
  Cl  Cl5  1  0.47424000  0.75745300  0.86311900  1
  Cl  Cl6  1  0.52576000  0.74254700  0.36311900  1
  Cl  Cl7  1  0.97424000  0.24254700  0.13688100  1
  Cl  Cl8  1  0.97424000  0.74254700  0.36311900  1
  Cl  Cl9  1  0.52576000  0.24254700  0.13688100  1
  Cl  Cl10  1  0.47424000  0.25745300  0.63688100  1
  Cl  Cl11  1  0.02576000  0.75745300  0.86311900  1
  Cl  Cl12  1  0.25000000  0.26797400  0.42538700  1
  Cl  Cl13  1  0.25000000  0.76797400  0.07461300  1
  Cl  Cl14  1  0.75000000  0.73202600  0.57461300  1
  Cl  Cl15  1  0.75000000  0.23202600  0.92538700  1
loop_
_geom_bond_atom_site_label_1
_geom_bond_atom_site_label_2
_geom_bond_distance
_geom_bond_site_symmetry_2
Cu0 N1 2.634838 1_555
Cu1 N0 2.634838 1_565
Cu2 N3 2.634838 1_555
Cu3 N2 2.634838 1_545
C0 C8 1.498797 1_555
C0 C14 1.498797 1_555
C0 C4 1.499029 1_555
C0 Cl1 1.670596 1_555
C1 C15 1.498797 1_555
C1 C9 1.498797 1_555
C1 C5 1.499029 1_555
C1 Cl0 1.670596 1_555
C2 C6 1.499029 1_555
C2 Cl3 1.670596 1_555
C3 C7 1.499029 1_555
C3 Cl2 1.670596 1_555
C4 N0 1.467185 1_555
C5 N1 1.467185 1_555
C6 N2 1.467185 1_555
C7 N3 1.467185 1_555
C8 N0 1.480013 1_555
C9 N1 1.480013 1_555
C10 N2 1.480013 1_555
C10 C2 1.498797 1_555
C11 N3 1.480013 1_555
C11 C3 1.498797 1_555
C12 N2 1.480013 1_555
C12 C2 1.498797 1_555
C13 N3 1.480013 1_555
C13 C3 1.498797 1_555
C14 N0 1.480013 1_555
C15 N1 1.480013 1_555
C16 C20 1.451830 1_555
C16 N4 1.537216 1_555
C17 C21 1.451830 1_555
C17 N5 1.537216 1_565
C18 C22 1.451830 1_555
C18 N6 1.537216 1_555
C19 C23 1.451830 1_555
C19 N7 1.537216 1_545
C20 C24 1.510246 1_555
C20 C30 1.510246 1_555
C20 N4 1.678654 1_555
C21 C31 1.510246 1_565
C21 C25 1.510246 1_565
C21 N5 1.678654 1_565
C22 C28 1.510246 1_555
C22 C26 1.510246 1_555
C22 N6 1.678654 1_555
C23 C27 1.510246 1_545
C23 C29 1.510246 1_545
C23 N7 1.678654 1_545
C24 N4 1.529491 1_555
C24 Cl13 2.213633 1_555
C25 N5 1.529491 1_555
C25 Cl12 2.213633 1_555
C26 N6 1.529491 1_555
C26 Cl15 2.213633 1_555
C27 N7 1.529491 1_555
C27 Cl14 2.213633 1_555
C28 N6 1.529491 1_555
C28 Cl15 2.213633 1_555
C29 N7 1.529491 1_555
C29 Cl14 2.213633 1_555
C30 N4 1.529491 1_555
C30 Cl13 2.213633 1_555
C31 N5 1.529491 1_555
C31 Cl12 2.213633 1_555
Cl4 Cu0 2.141228 1_555
Cl5 Cu1 2.141228 1_555
Cl6 Cu2 2.141228 1_555
Cl7 Cu3 2.141228 1_555
Cl8 Cu2 2.141228 1_555
Cl9 Cu3 2.141228 1_555
Cl10 Cu0 2.141228 1_555
Cl11 Cu1 2.141228 1_555
Cl12 Cu0 2.279613 1_555
Cl13 Cu1 2.279613 1_554
Cl14 Cu2 2.279613 1_555
Cl15 Cu3 2.279613 1_556
