# generated using pymatgen
data_Li3Mn28O56
_symmetry_space_group_name_H-M   'P 1'
_cell_length_a   10.17356110
_cell_length_b   10.17356110
_cell_length_c   13.12761531
_cell_angle_alpha   82.68802866
_cell_angle_beta   82.68802866
_cell_angle_gamma   48.20615871
_symmetry_Int_Tables_number   1
_chemical_formula_structural   Li3Mn28O56
_chemical_formula_sum   'Li3 Mn28 O56'
_cell_volume   1003.10008947
_cell_formula_units_Z   1
loop_
 _symmetry_equiv_pos_site_id
 _symmetry_equiv_pos_as_xyz
  1  'x, y, z'
loop_
 _atom_site_type_symbol
 _atom_site_label
 _atom_site_symmetry_multiplicity
 _atom_site_fract_x
 _atom_site_fract_y
 _atom_site_fract_z
 _atom_site_occupancy
  Li  Li0  1  0.19723700  0.80276300  0.00000000  1
  Li  Li1  1  0.66071600  0.76792000  0.35700200  1
  Li  Li2  1  0.23208000  0.33928400  0.64299800  1
  Mn  Mn0  1  0.78412300  0.14459900  0.10744100  1
  Mn  Mn1  1  0.64463800  0.49771300  0.03632700  1
  Mn  Mn2  1  0.50114200  0.85826900  0.96360300  1
  Mn  Mn3  1  0.14173100  0.49885800  0.03639700  1
  Mn  Mn4  1  0.07187800  0.92862900  0.25109400  1
  Mn  Mn5  1  0.50228700  0.35536200  0.96367300  1
  Mn  Mn6  1  0.78476800  0.64201800  0.10682400  1
  Mn  Mn7  1  0.42884500  0.78449300  0.17868200  1
  Mn  Mn8  1  0.07149500  0.42765300  0.25014500  1
  Mn  Mn9  1  0.35700400  0.71276900  0.39329700  1
  Mn  Mn10  1  0.92752100  0.78622900  0.17859200  1
  Mn  Mn11  1  0.21203900  0.07274900  0.32125500  1
  Mn  Mn12  1  0.28723100  0.64299600  0.60670300  1
  Mn  Mn13  1  0.35595200  0.21559600  0.39204300  1
  Mn  Mn14  1  0.00061700  0.35549900  0.46337600  1
  Mn  Mn15  1  0.71514500  0.07227600  0.32115800  1
  Mn  Mn16  1  0.64307200  0.49830400  0.53585400  1
  Mn  Mn17  1  0.50169600  0.35692800  0.46414600  1
  Mn  Mn18  1  0.92772400  0.28485500  0.67884200  1
  Mn  Mn19  1  0.78440400  0.64404800  0.60795700  1
  Mn  Mn20  1  0.64450100  0.99938300  0.53662400  1
  Mn  Mn21  1  0.07137100  0.92812200  0.74890600  1
  Mn  Mn22  1  0.85540100  0.21587700  0.89255900  1
  Mn  Mn23  1  0.21377100  0.07247900  0.82140800  1
  Mn  Mn24  1  0.57234700  0.92850500  0.74985500  1
  Mn  Mn25  1  0.92725100  0.78796100  0.67874500  1
  Mn  Mn26  1  0.35798200  0.21523200  0.89317600  1
  Mn  Mn27  1  0.21550700  0.57115500  0.82131800  1
  O  O0  1  0.74382100  0.13104900  0.96875900  1
  O  O1  1  0.86895100  0.25617900  0.03124100  1
  O  O2  1  0.55505300  0.38209300  0.09408500  1
  O  O3  1  0.01831300  0.90317600  0.11838100  1
  O  O4  1  0.41428400  0.74013500  0.04150000  1
  O  O5  1  0.73325200  0.61407400  0.97832100  1
  O  O6  1  0.82792800  0.15442000  0.24609500  1
  O  O7  1  0.66762400  0.55539300  0.16552000  1
  O  O8  1  0.38592600  0.26674800  0.02167900  1
  O  O9  1  0.54237300  0.86735200  0.10337100  1
  O  O10  1  0.02515500  0.41607500  0.11431500  1
  O  O11  1  0.18897000  0.01527300  0.19201800  1
  O  O12  1  0.90013500  0.73224900  0.04983900  1
  O  O13  1  0.31415600  0.70289300  0.25460800  1
  O  O14  1  0.44479500  0.82461000  0.31780500  1
  O  O15  1  0.15286400  0.54223600  0.17448200  1
  O  O16  1  0.83839000  0.66877500  0.23912400  1
  O  O17  1  0.12737500  0.95141200  0.38021400  1
  O  O18  1  0.27462800  0.59973500  0.46895500  1
  O  O19  1  0.30018000  0.19073600  0.26189500  1
  O  O20  1  0.70223100  0.03006200  0.18346100  1
  O  O21  1  0.58788200  0.47457000  0.40575700  1
  O  O22  1  0.98480700  0.31845600  0.32595600  1
  O  O23  1  0.11307400  0.44036800  0.38904300  1
  O  O24  1  0.95270500  0.84201300  0.30813800  1
  O  O25  1  0.40026500  0.72537200  0.53104500  1
  O  O26  1  0.52543000  0.41211800  0.59424300  1
  O  O27  1  0.23864400  0.12767900  0.45108200  1
  O  O28  1  0.60154600  0.98601000  0.39664300  1
  O  O29  1  0.76003300  0.58810000  0.47480900  1
  O  O30  1  0.04858800  0.87262500  0.61978600  1
  O  O31  1  0.88629500  0.27412300  0.53971800  1
  O  O32  1  0.47584400  0.30148500  0.33508000  1
  O  O33  1  0.01399000  0.39845400  0.60335700  1
  O  O34  1  0.29710700  0.68584400  0.74539200  1
  O  O35  1  0.41190000  0.23996700  0.52519100  1
  O  O36  1  0.72587700  0.11370500  0.46028200  1
  O  O37  1  0.69851500  0.52415600  0.66492000  1
  O  O38  1  0.84558000  0.17207200  0.75390500  1
  O  O39  1  0.55963200  0.88692600  0.61095700  1
  O  O40  1  0.87232100  0.76135600  0.54891800  1
  O  O41  1  0.15798700  0.04729500  0.69186200  1
  O  O42  1  0.09682400  0.98168700  0.88161900  1
  O  O43  1  0.80926400  0.69982000  0.73810500  1
  O  O44  1  0.68154400  0.01519300  0.67404400  1
  O  O45  1  0.96993800  0.29776900  0.81653900  1
  O  O46  1  0.61790700  0.44494700  0.90591500  1
  O  O47  1  0.45776400  0.84713600  0.82551800  1
  O  O48  1  0.33122500  0.16161000  0.76087600  1
  O  O49  1  0.17539000  0.55520500  0.68219500  1
  O  O50  1  0.26775100  0.09986500  0.95016100  1
  O  O51  1  0.58392500  0.97484500  0.88568500  1
  O  O52  1  0.98472700  0.81103000  0.80798200  1
  O  O53  1  0.13264800  0.45762700  0.89662900  1
  O  O54  1  0.44460700  0.33237600  0.83448000  1
  O  O55  1  0.25986500  0.58571600  0.95850000  1
loop_
_geom_bond_atom_site_label_1
_geom_bond_atom_site_label_2
_geom_bond_distance
_geom_bond_site_symmetry_2
Li0 O4 1.980207 1_555
Li0 O55 1.980207 1_554
Li0 O42 1.994395 1_554
Li0 O3 1.994395 1_555
Li1 O16 1.983550 1_555
Li1 O14 1.986538 1_555
Li1 O29 1.993286 1_555
Li1 O28 1.997484 1_555
Li2 O48 1.983550 1_555
Li2 O49 1.986538 1_555
Li2 O35 1.993286 1_555
Li2 O33 1.997484 1_555
Mn0 O2 1.946924 1_555
Mn0 O0 1.957242 1_554
Mn0 O1 1.957299 1_555
Mn0 O6 1.958016 1_555
Mn0 O20 1.958111 1_555
Mn0 O3 1.981689 1_645
Mn1 O1 1.943952 1_555
Mn1 O5 1.952510 1_554
Mn1 O7 1.952595 1_555
Mn1 O2 1.953247 1_555
Mn1 O46 1.959617 1_554
Mn1 O4 1.969135 1_555
Mn2 O47 1.953477 1_555
Mn2 O9 1.960048 1_556
Mn2 O50 1.981809 1_565
Mn2 O5 1.989948 1_555
Mn2 O51 1.991341 1_555
Mn2 O4 2.035609 1_556
Mn3 O15 1.953477 1_555
Mn3 O53 1.960048 1_554
Mn3 O12 1.981809 1_455
Mn3 O8 1.989948 1_555
Mn3 O10 1.991341 1_555
Mn3 O55 2.035609 1_554
Mn4 O17 1.940024 1_555
Mn4 O11 1.946268 1_565
Mn4 O13 1.951556 1_555
Mn4 O24 1.957598 1_455
Mn4 O6 1.960779 1_465
Mn4 O3 1.985923 1_555
Mn5 O0 1.943952 1_555
Mn5 O8 1.952510 1_556
Mn5 O54 1.952595 1_555
Mn5 O46 1.953247 1_555
Mn5 O2 1.959617 1_556
Mn5 O55 1.969135 1_555
Mn6 O5 1.935713 1_554
Mn6 O7 1.945263 1_555
Mn6 O10 1.945521 1_655
Mn6 O9 1.950750 1_555
Mn6 O12 1.953880 1_555
Mn6 O16 1.986848 1_555
Mn7 O7 1.952509 1_555
Mn7 O9 1.953706 1_555
Mn7 O13 1.956653 1_555
Mn7 O4 1.957707 1_555
Mn7 O11 1.964006 1_565
Mn7 O14 1.970258 1_555
Mn8 O10 1.938330 1_555
Mn8 O19 1.941223 1_555
Mn8 O22 1.950250 1_455
Mn8 O15 1.952686 1_555
Mn8 O23 1.962080 1_555
Mn8 O16 1.976206 1_455
Mn9 O18 1.947606 1_555
Mn9 O25 1.953694 1_555
Mn9 O17 1.953851 1_555
Mn9 O13 1.954960 1_555
Mn9 O21 1.956103 1_555
Mn9 O14 1.979068 1_555
Mn10 O12 1.948368 1_555
Mn10 O24 1.957105 1_555
Mn10 O20 1.958473 1_565
Mn10 O15 1.959023 1_655
Mn10 O16 1.975015 1_555
Mn10 O3 1.983203 1_655
Mn11 O11 1.952473 1_555
Mn11 O27 1.962582 1_555
Mn11 O17 1.967002 1_545
Mn11 O19 1.967457 1_555
Mn11 O22 1.974097 1_455
Mn11 O14 2.004025 1_545
Mn12 O25 1.947606 1_555
Mn12 O18 1.953694 1_555
Mn12 O30 1.953851 1_555
Mn12 O34 1.954960 1_555
Mn12 O26 1.956103 1_555
Mn12 O49 1.979068 1_555
Mn13 O23 1.951066 1_555
Mn13 O32 1.957692 1_555
Mn13 O27 1.958545 1_555
Mn13 O19 1.962912 1_555
Mn13 O28 1.981360 1_545
Mn13 O35 1.998081 1_555
Mn14 O22 1.936493 1_455
Mn14 O27 1.943374 1_555
Mn14 O31 1.953976 1_455
Mn14 O23 1.955681 1_555
Mn14 O29 1.972257 1_455
Mn14 O33 1.983335 1_555
Mn15 O6 1.940778 1_555
Mn15 O20 1.950002 1_555
Mn15 O24 1.951502 1_545
Mn15 O32 1.956092 1_555
Mn15 O36 1.957861 1_555
Mn15 O28 1.981645 1_545
Mn16 O26 1.944978 1_555
Mn16 O31 1.951247 1_555
Mn16 O37 1.952565 1_555
Mn16 O21 1.954514 1_555
Mn16 O25 1.959316 1_555
Mn16 O29 1.978003 1_555
Mn17 O21 1.944978 1_555
Mn17 O36 1.951247 1_555
Mn17 O32 1.952565 1_555
Mn17 O26 1.954514 1_555
Mn17 O18 1.959316 1_555
Mn17 O35 1.978003 1_555
Mn18 O38 1.940778 1_555
Mn18 O45 1.950002 1_555
Mn18 O41 1.951502 1_655
Mn18 O37 1.956092 1_555
Mn18 O31 1.957861 1_555
Mn18 O33 1.981645 1_655
Mn19 O39 1.951066 1_555
Mn19 O37 1.957692 1_555
Mn19 O40 1.958545 1_555
Mn19 O43 1.962912 1_555
Mn19 O33 1.981360 1_655
Mn19 O29 1.998081 1_555
Mn20 O44 1.936493 1_565
Mn20 O40 1.943374 1_555
Mn20 O36 1.953976 1_565
Mn20 O39 1.955681 1_555
Mn20 O35 1.972257 1_565
Mn20 O28 1.983335 1_555
Mn21 O30 1.940024 1_555
Mn21 O52 1.946268 1_455
Mn21 O34 1.951556 1_555
Mn21 O41 1.957598 1_565
Mn21 O38 1.960779 1_465
Mn21 O42 1.985923 1_555
Mn22 O46 1.946924 1_555
Mn22 O1 1.957242 1_556
Mn22 O0 1.957299 1_555
Mn22 O38 1.958016 1_555
Mn22 O45 1.958111 1_555
Mn22 O42 1.981689 1_645
Mn23 O50 1.948368 1_555
Mn23 O41 1.957105 1_555
Mn23 O45 1.958473 1_455
Mn23 O47 1.959023 1_545
Mn23 O48 1.975015 1_555
Mn23 O42 1.983203 1_545
Mn24 O51 1.938330 1_555
Mn24 O43 1.941223 1_555
Mn24 O44 1.950250 1_565
Mn24 O47 1.952686 1_555
Mn24 O39 1.962080 1_555
Mn24 O48 1.976206 1_565
Mn25 O52 1.952473 1_555
Mn25 O40 1.962582 1_555
Mn25 O30 1.967002 1_655
Mn25 O43 1.967457 1_555
Mn25 O44 1.974097 1_565
Mn25 O49 2.004025 1_655
Mn26 O8 1.935713 1_556
Mn26 O54 1.945263 1_555
Mn26 O51 1.945521 1_545
Mn26 O53 1.950750 1_555
Mn26 O50 1.953880 1_555
Mn26 O48 1.986848 1_555
Mn27 O54 1.952509 1_555
Mn27 O53 1.953706 1_555
Mn27 O34 1.956653 1_555
Mn27 O55 1.957707 1_555
Mn27 O52 1.964006 1_455
Mn27 O49 1.970258 1_555
