# generated using pymatgen
data_KBaNdWO6
_symmetry_space_group_name_H-M   'P 1'
_cell_length_a   8.61329636
_cell_length_b   8.59603562
_cell_length_c   8.60820969
_cell_angle_alpha   90.00000000
_cell_angle_beta   90.00000000
_cell_angle_gamma   90.00000000
_symmetry_Int_Tables_number   1
_chemical_formula_structural   KBaNdWO6
_chemical_formula_sum   'K4 Ba4 Nd4 W4 O24'
_cell_volume   637.35358703
_cell_formula_units_Z   4
loop_
 _symmetry_equiv_pos_site_id
 _symmetry_equiv_pos_as_xyz
  1  'x, y, z'
loop_
 _atom_site_type_symbol
 _atom_site_label
 _atom_site_symmetry_multiplicity
 _atom_site_fract_x
 _atom_site_fract_y
 _atom_site_fract_z
 _atom_site_occupancy
  K  K0  1  0.50000000  0.00000000  0.50000000  1
  K  K1  1  0.50000000  0.50000000  0.00000000  1
  K  K2  1  -0.00000000  0.50000000  0.00000000  1
  K  K3  1  -0.00000000  0.00000000  0.50000000  1
  Ba  Ba0  1  0.00000000  0.50000000  0.50000000  1
  Ba  Ba1  1  0.50000000  0.00000000  0.00000000  1
  Ba  Ba2  1  -0.00000000  0.00000000  -0.00000000  1
  Ba  Ba3  1  0.50000000  0.50000000  0.50000000  1
  Nd  Nd0  1  0.75000000  0.75000000  0.75000000  1
  Nd  Nd1  1  0.25000000  0.25000000  0.75000000  1
  Nd  Nd2  1  0.25000000  0.75000000  0.25000000  1
  Nd  Nd3  1  0.75000000  0.25000000  0.25000000  1
  W  W0  1  0.25000000  0.25000000  0.25000000  1
  W  W1  1  0.75000000  0.75000000  0.25000000  1
  W  W2  1  0.75000000  0.25000000  0.75000000  1
  W  W3  1  0.25000000  0.75000000  0.75000000  1
  O  O0  1  0.02317064  0.23263756  0.26629631  1
  O  O1  1  0.97682936  0.76736244  0.26629631  1
  O  O2  1  0.97682936  0.23263756  0.73370369  1
  O  O3  1  0.02317064  0.76736244  0.73370369  1
  O  O4  1  0.26572735  0.02235679  0.22617610  1
  O  O5  1  0.26572735  0.97764321  0.77382390  1
  O  O6  1  0.73427265  0.97764321  0.22617610  1
  O  O7  1  0.73427265  0.02235679  0.77382390  1
  O  O8  1  0.23168868  0.26027446  0.02304236  1
  O  O9  1  0.76831132  0.26027446  0.97695764  1
  O  O10  1  0.23168868  0.73972554  0.97695764  1
  O  O11  1  0.76831132  0.73972554  0.02304236  1
  O  O12  1  0.47682936  0.26736244  0.23370369  1
  O  O13  1  0.52317064  0.73263756  0.23370369  1
  O  O14  1  0.52317064  0.26736244  0.76629631  1
  O  O15  1  0.47682936  0.73263756  0.76629631  1
  O  O16  1  0.23427265  0.47764321  0.27382390  1
  O  O17  1  0.23427265  0.52235679  0.72617610  1
  O  O18  1  0.76572735  0.52235679  0.27382390  1
  O  O19  1  0.76572735  0.47764321  0.72617610  1
  O  O20  1  0.26831132  0.23972554  0.47695764  1
  O  O21  1  0.73168868  0.23972554  0.52304236  1
  O  O22  1  0.26831132  0.76027446  0.52304236  1
  O  O23  1  0.73168868  0.76027446  0.47695764  1
loop_
_geom_bond_atom_site_label_1
_geom_bond_atom_site_label_2
_geom_bond_distance
_geom_bond_site_symmetry_2
K0 O20 2.875451 1_555
K0 O22 2.875451 1_545
K0 O21 2.875451 1_555
K0 O23 2.875451 1_545
K0 O7 3.108821 1_555
K0 O5 3.108821 1_545
K0 O4 3.108821 1_555
K0 O6 3.108821 1_545
K0 O15 3.252171 1_545
K0 O14 3.252171 1_555
K0 O13 3.252171 1_545
K0 O12 3.252171 1_555
K1 O12 2.843606 1_555
K1 O13 2.843606 1_555
K1 O15 2.843606 1_554
K1 O14 2.843606 1_554
K1 O11 3.102694 1_555
K1 O8 3.102694 1_555
K1 O9 3.102694 1_554
K1 O10 3.102694 1_554
K1 O17 3.291134 1_554
K1 O19 3.291134 1_554
K1 O18 3.291134 1_555
K1 O16 3.291134 1_555
K2 O11 2.875451 1_455
K2 O9 2.875451 1_454
K2 O8 2.875451 1_555
K2 O10 2.875451 1_554
K2 O19 3.108821 1_454
K2 O16 3.108821 1_555
K2 O17 3.108821 1_554
K2 O18 3.108821 1_455
K2 O2 3.252171 1_454
K2 O3 3.252171 1_554
K2 O0 3.252171 1_555
K2 O1 3.252171 1_455
K3 O1 2.843606 1_445
K3 O0 2.843606 1_555
K3 O2 2.843606 1_455
K3 O3 2.843606 1_545
K3 O21 3.102694 1_455
K3 O23 3.102694 1_445
K3 O20 3.102694 1_555
K3 O22 3.102694 1_545
K3 O5 3.291134 1_545
K3 O4 3.291134 1_555
K3 O7 3.291134 1_455
K3 O6 3.291134 1_445
Ba0 O19 2.810585 1_455
Ba0 O16 2.810585 1_555
Ba0 O17 2.810585 1_555
Ba0 O18 2.810585 1_455
Ba0 O0 3.060888 1_555
Ba0 O3 3.060888 1_555
Ba0 O1 3.060888 1_455
Ba0 O2 3.060888 1_455
Ba0 O22 3.222718 1_555
Ba0 O23 3.222718 1_455
Ba0 O20 3.222718 1_555
Ba0 O21 3.222718 1_455
Ba1 O7 2.810585 1_554
Ba1 O6 2.810585 1_545
Ba1 O5 2.810585 1_544
Ba1 O4 2.810585 1_555
Ba1 O13 3.060888 1_545
Ba1 O12 3.060888 1_555
Ba1 O15 3.060888 1_544
Ba1 O14 3.060888 1_554
Ba1 O11 3.222718 1_545
Ba1 O10 3.222718 1_544
Ba1 O9 3.222718 1_554
Ba1 O8 3.222718 1_555
Ba2 O9 3.004566 1_454
Ba2 O11 3.004566 1_445
Ba2 O10 3.004566 1_544
Ba2 O8 3.004566 1_555
Ba2 O5 3.011010 1_544
Ba2 O4 3.011010 1_555
Ba2 O6 3.011010 1_445
Ba2 O7 3.011010 1_454
Ba2 O0 3.048552 1_555
Ba2 O2 3.048552 1_454
Ba2 O3 3.048552 1_544
Ba2 O1 3.048552 1_445
Ba3 O22 3.004566 1_555
Ba3 O20 3.004566 1_555
Ba3 O23 3.004566 1_555
Ba3 O21 3.004566 1_555
Ba3 O18 3.011010 1_555
Ba3 O17 3.011010 1_555
Ba3 O19 3.011010 1_555
Ba3 O16 3.011010 1_555
Ba3 O13 3.048552 1_555
Ba3 O14 3.048552 1_555
Ba3 O15 3.048552 1_555
Ba3 O12 3.048552 1_555
Nd0 O7 2.354055 1_565
Nd0 O19 2.354055 1_555
Nd0 O23 2.357347 1_555
Nd0 O11 2.357347 1_556
Nd0 O15 2.361798 1_555
Nd0 O3 2.361798 1_655
Nd1 O5 2.354055 1_545
Nd1 O17 2.354055 1_555
Nd1 O20 2.357347 1_555
Nd1 O8 2.357347 1_556
Nd1 O14 2.361798 1_555
Nd1 O2 2.361798 1_455
Nd2 O4 2.354055 1_565
Nd2 O16 2.354055 1_555
Nd2 O22 2.357347 1_555
Nd2 O10 2.357347 1_554
Nd2 O1 2.361798 1_455
Nd2 O13 2.361798 1_555
Nd3 O6 2.354055 1_545
Nd3 O18 2.354055 1_555
Nd3 O21 2.357347 1_555
Nd3 O9 2.357347 1_554
Nd3 O12 2.361798 1_555
Nd3 O0 2.361798 1_655
O0 W0 1.964456 1_555
O1 W1 1.964456 1_555
O2 W2 1.964456 1_555
O3 W3 1.964456 1_555
O4 W0 1.972204 1_555
O5 W3 1.972204 1_555
O6 W1 1.972204 1_555
O7 W2 1.972204 1_555
O8 W0 1.962044 1_555
O9 W2 1.962044 1_555
O10 W3 1.962044 1_555
O11 W1 1.962044 1_555
O12 W0 1.964456 1_555
O13 W1 1.964456 1_555
O14 W2 1.964456 1_555
O15 W3 1.964456 1_555
O16 W0 1.972204 1_555
O17 W3 1.972204 1_555
O18 W1 1.972204 1_555
O19 W2 1.972204 1_555
O20 W0 1.962044 1_555
O21 W2 1.962044 1_555
O22 W3 1.962044 1_555
O23 W1 1.962044 1_555
