# generated using pymatgen
data_NdZrO14
_symmetry_space_group_name_H-M   'P 1'
_cell_length_a   7.70120178
_cell_length_b   7.70120178
_cell_length_c   7.70120178
_cell_angle_alpha   60.00000000
_cell_angle_beta   60.00000000
_cell_angle_gamma   60.00000000
_symmetry_Int_Tables_number   1
_chemical_formula_structural   NdZrO14
_chemical_formula_sum   'Nd2 Zr2 O28'
_cell_volume   322.96875496
_cell_formula_units_Z   2
loop_
 _symmetry_equiv_pos_site_id
 _symmetry_equiv_pos_as_xyz
  1  'x, y, z'
loop_
 _atom_site_type_symbol
 _atom_site_label
 _atom_site_symmetry_multiplicity
 _atom_site_fract_x
 _atom_site_fract_y
 _atom_site_fract_z
 _atom_site_occupancy
  Nd  Nd0  1  0.00000000  0.00000000  0.00000000  1
  Nd  Nd1  1  0.75000000  0.75000000  0.75000000  1
  Zr  Zr0  1  0.50000000  0.50000000  0.50000000  1
  Zr  Zr1  1  0.25000000  0.25000000  0.25000000  1
  O  O0  1  0.87500000  0.87500000  0.87500000  1
  O  O1  1  0.37500000  0.87500000  0.87500000  1
  O  O2  1  0.87500000  0.37500000  0.87500000  1
  O  O3  1  0.87500000  0.87500000  0.37500000  1
  O  O4  1  0.50620800  0.50620800  0.18281300  1
  O  O5  1  0.80477100  0.18281300  0.50620800  1
  O  O6  1  0.18281300  0.80477100  0.50620800  1
  O  O7  1  0.50620800  0.18281300  0.50620800  1
  O  O8  1  0.94522900  0.24379200  0.56718700  1
  O  O9  1  0.24379200  0.24379200  0.56718700  1
  O  O10  1  0.50620800  0.50620800  0.80477100  1
  O  O11  1  0.18281300  0.50620800  0.80477100  1
  O  O12  1  0.24379200  0.56718700  0.24379200  1
  O  O13  1  0.94522900  0.56718700  0.24379200  1
  O  O14  1  0.80477100  0.50620800  0.18281300  1
  O  O15  1  0.24379200  0.94522900  0.24379200  1
  O  O16  1  0.56718700  0.94522900  0.24379200  1
  O  O17  1  0.50620800  0.80477100  0.50620800  1
  O  O18  1  0.56718700  0.24379200  0.94522900  1
  O  O19  1  0.24379200  0.24379200  0.94522900  1
  O  O20  1  0.18281300  0.50620800  0.50620800  1
  O  O21  1  0.50620800  0.18281300  0.80477100  1
  O  O22  1  0.80477100  0.50620800  0.50620800  1
  O  O23  1  0.50620800  0.80477100  0.18281300  1
  O  O24  1  0.24379200  0.56718700  0.94522900  1
  O  O25  1  0.56718700  0.24379200  0.24379200  1
  O  O26  1  0.24379200  0.94522900  0.56718700  1
  O  O27  1  0.94522900  0.24379200  0.24379200  1
loop_
_geom_bond_atom_site_label_1
_geom_bond_atom_site_label_2
_geom_bond_distance
_geom_bond_site_symmetry_2
Nd0 O3 2.358002 1_445
Nd0 O0 2.358002 1_444
Nd0 O1 2.358002 1_544
Nd0 O2 2.358002 1_454
Nd1 O3 2.358002 1_555
Nd1 O0 2.358002 1_555
Nd1 O2 2.358002 1_555
Nd1 O1 2.358002 1_555
O4 Zr0 2.395866 1_555
O5 O8 1.687490 1_555
O5 Zr0 2.395866 1_555
O6 Zr0 2.395866 1_555
O7 O9 1.687490 1_555
O7 Zr0 2.395866 1_555
O8 Zr1 2.395866 1_655
O9 Zr1 2.395866 1_555
O10 O18 1.687490 1_555
O10 O24 1.687490 1_555
O10 Zr0 2.395866 1_555
O11 O19 1.687490 1_555
O11 O24 1.687490 1_555
O11 Zr0 2.395866 1_555
O12 O4 1.687490 1_555
O12 O20 1.687490 1_555
O12 Zr1 2.395866 1_555
O13 O14 1.687490 1_555
O13 O22 1.687490 1_555
O13 Zr1 2.395866 1_655
O14 O27 1.687490 1_555
O14 Zr0 2.395866 1_555
O15 O23 1.687490 1_555
O15 O6 1.687490 1_555
O15 Zr1 2.395866 1_565
O16 O17 1.687490 1_555
O16 O23 1.687490 1_555
O16 Zr1 2.395866 1_565
O17 O26 1.687490 1_555
O17 Zr0 2.395866 1_555
O18 O21 1.687490 1_555
O18 Zr1 2.395866 1_556
O19 O21 1.687490 1_555
O19 Zr1 2.395866 1_556
O20 O9 1.687490 1_555
O20 Zr0 2.395866 1_555
O21 Zr0 2.395866 1_555
O22 O8 1.687490 1_555
O22 Zr0 2.395866 1_555
O23 Zr0 2.395866 1_555
O24 Zr1 2.395866 1_556
O25 O4 1.687490 1_555
O25 O7 1.687490 1_555
O25 Zr1 2.395866 1_555
O26 O6 1.687490 1_555
O26 Zr1 2.395866 1_565
O27 O5 1.687490 1_555
O27 Zr1 2.395866 1_655
