# generated using pymatgen
data_NaLa2IrO6
_symmetry_space_group_name_H-M   'P 1'
_cell_length_a   6.02085200
_cell_length_b   5.63112800
_cell_length_c   9.82039196
_cell_angle_alpha   55.71531504
_cell_angle_beta   90.00000000
_cell_angle_gamma   90.00000000
_symmetry_Int_Tables_number   1
_chemical_formula_structural   NaLa2IrO6
_chemical_formula_sum   'Na2 La4 Ir2 O12'
_cell_volume   275.10156728
_cell_formula_units_Z   2
loop_
 _symmetry_equiv_pos_site_id
 _symmetry_equiv_pos_as_xyz
  1  'x, y, z'
loop_
 _atom_site_type_symbol
 _atom_site_label
 _atom_site_symmetry_multiplicity
 _atom_site_fract_x
 _atom_site_fract_y
 _atom_site_fract_z
 _atom_site_occupancy
  Na  Na0  1  0.50000000  0.00000000  0.50000000  1
  Na  Na1  1  0.00000000  0.00000000  0.00000000  1
  La  La0  1  0.06931500  0.77130100  0.74651800  1
  La  La1  1  0.56931500  0.22869900  0.75348200  1
  La  La2  1  0.43068500  0.77130100  0.24651800  1
  La  La3  1  0.93068500  0.22869900  0.25348200  1
  Ir  Ir0  1  0.50000000  0.50000000  0.00000000  1
  Ir  Ir1  1  0.00000000  0.50000000  0.50000000  1
  O  O0  1  0.72085000  0.72833600  0.43533400  1
  O  O1  1  0.22085000  0.27166400  0.06466600  1
  O  O2  1  0.27915000  0.27166400  0.56466600  1
  O  O3  1  0.77915000  0.72833600  0.93533400  1
  O  O4  1  0.04672300  0.61848200  0.26756000  1
  O  O5  1  0.54672300  0.38151800  0.23244000  1
  O  O6  1  0.95327700  0.38151800  0.73244000  1
  O  O7  1  0.45327700  0.61848200  0.76756000  1
  O  O8  1  0.32635700  0.84474700  0.94880300  1
  O  O9  1  0.82635700  0.15525300  0.55119700  1
  O  O10  1  0.67364300  0.15525300  0.05119700  1
  O  O11  1  0.17364300  0.84474700  0.44880300  1
loop_
_geom_bond_atom_site_label_1
_geom_bond_atom_site_label_2
_geom_bond_distance
_geom_bond_site_symmetry_2
Na0 O7 2.288882 1_545
Na0 O5 2.288882 1_555
Na0 O9 2.318041 1_555
Na0 O11 2.318041 1_545
Na0 O0 2.367717 1_545
Na0 O2 2.367717 1_555
Na1 O6 2.288882 1_454
Na1 O4 2.288882 1_545
Na1 O10 2.318041 1_455
Na1 O8 2.318041 1_544
Na1 O3 2.367717 1_444
Na1 O1 2.367717 1_555
La0 O6 2.380495 1_455
La0 O9 2.412762 1_465
La0 O7 2.434588 1_555
La0 O3 2.458353 1_455
La0 O2 2.656203 1_565
La0 O8 2.727274 1_555
La0 O11 2.784103 1_555
La0 O1 2.933677 1_556
La1 O7 2.380495 1_555
La1 O8 2.412762 1_545
La1 O6 2.434588 1_555
La1 O2 2.458353 1_555
La1 O3 2.656203 1_545
La1 O9 2.727274 1_555
La1 O10 2.784103 1_556
La1 O0 2.933677 1_555
La2 O5 2.380495 1_555
La2 O10 2.412762 1_565
La2 O4 2.434588 1_555
La2 O0 2.458353 1_555
La2 O1 2.656203 1_565
La2 O11 2.727274 1_555
La2 O8 2.784103 1_554
La2 O2 2.933677 1_555
La3 O4 2.380495 1_655
La3 O11 2.412762 1_645
La3 O5 2.434588 1_555
La3 O1 2.458353 1_655
La3 O0 2.656203 1_545
La3 O10 2.727274 1_555
La3 O9 2.784103 1_555
La3 O3 2.933677 1_554
Ir0 O1 1.990337 1_555
Ir0 O3 1.990337 1_554
Ir0 O8 2.003719 1_554
Ir0 O10 2.003719 1_555
Ir0 O7 2.004744 1_554
Ir0 O5 2.004744 1_555
Ir1 O2 1.990337 1_555
Ir1 O0 1.990337 1_455
Ir1 O9 2.003719 1_455
Ir1 O11 2.003719 1_555
Ir1 O4 2.004744 1_555
Ir1 O6 2.004744 1_455
