# generated using pymatgen
data_Nb2FeO6
_symmetry_space_group_name_H-M   'P 1'
_cell_length_a   5.83146300
_cell_length_b   5.33325100
_cell_length_c   14.95508342
_cell_angle_alpha   89.58176816
_cell_angle_beta   90.00000000
_cell_angle_gamma   90.00000000
_symmetry_Int_Tables_number   1
_chemical_formula_structural   Nb2FeO6
_chemical_formula_sum   'Nb8 Fe4 O24'
_cell_volume   465.10051192
_cell_formula_units_Z   4
loop_
 _symmetry_equiv_pos_site_id
 _symmetry_equiv_pos_as_xyz
  1  'x, y, z'
loop_
 _atom_site_type_symbol
 _atom_site_label
 _atom_site_symmetry_multiplicity
 _atom_site_fract_x
 _atom_site_fract_y
 _atom_site_fract_z
 _atom_site_occupancy
  Nb  Nb0  1  0.17154600  0.48407800  0.33475800  1
  Nb  Nb1  1  0.66893900  0.01035100  0.83515400  1
  Nb  Nb2  1  0.33106100  0.51035100  0.83515400  1
  Nb  Nb3  1  0.82845400  0.98407800  0.33475800  1
  Nb  Nb4  1  0.82845400  0.51592200  0.66524200  1
  Nb  Nb5  1  0.17154600  0.01592200  0.66524200  1
  Nb  Nb6  1  0.66893900  0.48964900  0.16484600  1
  Nb  Nb7  1  0.33106100  0.98964900  0.16484600  1
  Fe  Fe0  1  0.14293400  0.25000000  0.00000000  1
  Fe  Fe1  1  0.34996100  0.75000000  0.50000000  1
  Fe  Fe2  1  0.85706600  0.75000000  0.00000000  1
  Fe  Fe3  1  0.65003900  0.25000000  0.50000000  1
  O  O0  1  0.90762500  0.29559400  0.39791500  1
  O  O1  1  0.60908400  0.59143300  0.58247500  1
  O  O2  1  0.11401200  0.59066400  0.91846100  1
  O  O3  1  0.11401200  0.90933600  0.08153900  1
  O  O4  1  0.85785300  0.66066200  0.25871100  1
  O  O5  1  0.88598800  0.40933600  0.08153900  1
  O  O6  1  0.09237500  0.70440600  0.60208500  1
  O  O7  1  0.35959100  0.83682400  0.75914800  1
  O  O8  1  0.85785300  0.83933800  0.74128900  1
  O  O9  1  0.60908400  0.90856700  0.41752500  1
  O  O10  1  0.90762500  0.20440600  0.60208500  1
  O  O11  1  0.40161000  0.30586400  0.10162700  1
  O  O12  1  0.35959100  0.66317600  0.24085200  1
  O  O13  1  0.09237500  0.79559400  0.39791500  1
  O  O14  1  0.59839000  0.69413600  0.89837300  1
  O  O15  1  0.39091600  0.09143300  0.58247500  1
  O  O16  1  0.59839000  0.80586400  0.10162700  1
  O  O17  1  0.64040900  0.33682400  0.75914800  1
  O  O18  1  0.14214700  0.33933800  0.74128900  1
  O  O19  1  0.88598800  0.09066400  0.91846100  1
  O  O20  1  0.39091600  0.40856700  0.41752500  1
  O  O21  1  0.14214700  0.16066200  0.25871100  1
  O  O22  1  0.64040900  0.16317600  0.24085200  1
  O  O23  1  0.40161000  0.19413600  0.89837300  1
loop_
_geom_bond_atom_site_label_1
_geom_bond_atom_site_label_2
_geom_bond_distance
_geom_bond_site_symmetry_2
Nb0 O20 1.823047 1_555
Nb0 O13 1.971903 1_555
Nb0 O12 2.016809 1_555
Nb0 O0 2.063349 1_455
Nb0 O21 2.080047 1_555
Nb0 O4 2.347555 1_455
Nb1 O19 1.829060 1_555
Nb1 O14 1.970779 1_545
Nb1 O8 2.008655 1_545
Nb1 O23 2.073249 1_555
Nb1 O17 2.079054 1_555
Nb1 O7 2.327684 1_545
Nb2 O2 1.829060 1_555
Nb2 O23 1.970779 1_555
Nb2 O18 2.008655 1_555
Nb2 O14 2.073249 1_555
Nb2 O7 2.079054 1_555
Nb2 O17 2.327684 1_555
Nb3 O9 1.823047 1_555
Nb3 O0 1.971903 1_565
Nb3 O22 2.016809 1_565
Nb3 O13 2.063349 1_655
Nb3 O4 2.080047 1_555
Nb3 O21 2.347555 1_665
Nb4 O1 1.823047 1_555
Nb4 O10 1.971903 1_555
Nb4 O17 2.016809 1_555
Nb4 O6 2.063349 1_655
Nb4 O8 2.080047 1_555
Nb4 O18 2.347555 1_655
Nb5 O15 1.823047 1_555
Nb5 O6 1.971903 1_545
Nb5 O7 2.016809 1_545
Nb5 O10 2.063349 1_455
Nb5 O18 2.080047 1_555
Nb5 O8 2.347555 1_445
Nb6 O5 1.829060 1_555
Nb6 O16 1.970779 1_555
Nb6 O4 2.008655 1_555
Nb6 O11 2.073249 1_555
Nb6 O22 2.079054 1_555
Nb6 O12 2.327684 1_555
Nb7 O3 1.829060 1_555
Nb7 O11 1.970779 1_565
Nb7 O21 2.008655 1_565
Nb7 O16 2.073249 1_555
Nb7 O12 2.079054 1_555
Nb7 O22 2.327684 1_565
Fe0 O5 2.114086 1_455
Fe0 O19 2.114086 1_454
Fe0 O11 2.163502 1_555
Fe0 O23 2.163502 1_554
Fe0 O2 2.187241 1_554
Fe0 O3 2.187241 1_545
Fe1 O1 2.122402 1_555
Fe1 O9 2.122402 1_555
Fe1 O6 2.154253 1_555
Fe1 O13 2.154253 1_555
Fe1 O15 2.219686 1_565
Fe1 O20 2.219686 1_555
Fe2 O3 2.114086 1_655
Fe2 O2 2.114086 1_654
Fe2 O16 2.163502 1_555
Fe2 O14 2.163502 1_554
Fe2 O5 2.187241 1_555
Fe2 O19 2.187241 1_564
Fe3 O20 2.122402 1_555
Fe3 O15 2.122402 1_555
Fe3 O10 2.154253 1_555
Fe3 O0 2.154253 1_555
Fe3 O1 2.219686 1_555
Fe3 O9 2.219686 1_545
