# generated using pymatgen
data_Nb2FeS4
_symmetry_space_group_name_H-M   'P 1'
_cell_length_a   3.31599900
_cell_length_b   11.01331500
_cell_length_c   13.06339900
_cell_angle_alpha   90.00000000
_cell_angle_beta   90.00000000
_cell_angle_gamma   90.00000000
_symmetry_Int_Tables_number   1
_chemical_formula_structural   Nb2FeS4
_chemical_formula_sum   'Nb8 Fe4 S16'
_cell_volume   477.07718030
_cell_formula_units_Z   4
loop_
 _symmetry_equiv_pos_site_id
 _symmetry_equiv_pos_as_xyz
  1  'x, y, z'
loop_
 _atom_site_type_symbol
 _atom_site_label
 _atom_site_symmetry_multiplicity
 _atom_site_fract_x
 _atom_site_fract_y
 _atom_site_fract_z
 _atom_site_occupancy
  Nb  Nb0  1  0.25000000  0.04425800  0.58444400  1
  Nb  Nb1  1  0.25000000  0.54425800  0.91555600  1
  Nb  Nb2  1  0.75000000  0.95574200  0.41555600  1
  Nb  Nb3  1  0.75000000  0.45574200  0.08444400  1
  Nb  Nb4  1  0.25000000  0.11426300  0.09964200  1
  Nb  Nb5  1  0.25000000  0.61426300  0.40035800  1
  Nb  Nb6  1  0.75000000  0.88573700  0.90035800  1
  Nb  Nb7  1  0.75000000  0.38573700  0.59964200  1
  Fe  Fe0  1  0.25000000  0.22551100  0.33454300  1
  Fe  Fe1  1  0.25000000  0.72551100  0.16545700  1
  Fe  Fe2  1  0.75000000  0.77448900  0.66545700  1
  Fe  Fe3  1  0.75000000  0.27448900  0.83454300  1
  S  S0  1  0.25000000  0.32212600  0.98687300  1
  S  S1  1  0.25000000  0.82212600  0.51312700  1
  S  S2  1  0.75000000  0.67787400  0.01312700  1
  S  S3  1  0.75000000  0.17787400  0.48687300  1
  S  S4  1  0.25000000  0.24297300  0.69553600  1
  S  S5  1  0.25000000  0.74297300  0.80446400  1
  S  S6  1  0.75000000  0.75702700  0.30446400  1
  S  S7  1  0.75000000  0.25702700  0.19553600  1
  S  S8  1  0.25000000  0.05772000  0.91235800  1
  S  S9  1  0.25000000  0.55772000  0.58764200  1
  S  S10  1  0.75000000  0.94228000  0.08764200  1
  S  S11  1  0.75000000  0.44228000  0.41235800  1
  S  S12  1  0.25000000  0.02375000  0.28526000  1
  S  S13  1  0.25000000  0.52375000  0.21474000  1
  S  S14  1  0.75000000  0.97625000  0.71474000  1
  S  S15  1  0.75000000  0.47625000  0.78526000  1
loop_
_geom_bond_atom_site_label_1
_geom_bond_atom_site_label_2
_geom_bond_distance
_geom_bond_site_symmetry_2
Nb0 S14 2.491411 1_445
Nb0 S14 2.491411 1_545
Nb0 S3 2.557159 1_455
Nb0 S3 2.557159 1_555
Nb0 S1 2.617800 1_545
Nb0 S4 2.625962 1_555
Nb1 S15 2.491411 1_455
Nb1 S15 2.491411 1_555
Nb1 S2 2.557159 1_556
Nb1 S2 2.557159 1_456
Nb1 S0 2.617800 1_555
Nb1 S5 2.625962 1_555
Nb2 S12 2.491411 1_565
Nb2 S12 2.491411 1_665
Nb2 S1 2.557159 1_655
Nb2 S1 2.557159 1_555
Nb2 S3 2.617800 1_565
Nb2 S6 2.625962 1_555
Nb3 S13 2.491411 1_655
Nb3 S13 2.491411 1_555
Nb3 S0 2.557159 1_654
Nb3 S0 2.557159 1_554
Nb3 S2 2.617800 1_555
Nb3 S7 2.625962 1_555
Nb4 S10 2.522134 1_445
Nb4 S10 2.522134 1_545
Nb4 S8 2.524573 1_554
Nb4 S7 2.605833 1_455
Nb4 S7 2.605833 1_555
Nb4 S12 2.621711 1_555
Nb4 S0 2.722292 1_554
Nb5 S11 2.522134 1_455
Nb5 S11 2.522134 1_555
Nb5 S9 2.524573 1_555
Nb5 S6 2.605833 1_555
Nb5 S6 2.605833 1_455
Nb5 S13 2.621711 1_555
Nb5 S1 2.722292 1_555
Nb6 S8 2.522134 1_565
Nb6 S8 2.522134 1_665
Nb6 S10 2.524573 1_556
Nb6 S5 2.605833 1_555
Nb6 S5 2.605833 1_655
Nb6 S14 2.621711 1_555
Nb6 S2 2.722292 1_556
Nb7 S9 2.522134 1_655
Nb7 S9 2.522134 1_555
Nb7 S11 2.524573 1_555
Nb7 S4 2.605833 1_555
Nb7 S4 2.605833 1_655
Nb7 S15 2.621711 1_555
Nb7 S3 2.722292 1_555
Fe0 S12 2.313444 1_555
Fe0 S7 2.483333 1_455
Fe0 S7 2.483333 1_555
Fe0 S3 2.642745 1_555
Fe0 S3 2.642745 1_455
Fe0 S11 3.079239 1_555
Fe0 S11 3.079239 1_455
Fe1 S13 2.313444 1_555
Fe1 S6 2.483333 1_455
Fe1 S6 2.483333 1_555
Fe1 S2 2.642745 1_455
Fe1 S2 2.642745 1_555
Fe1 S10 3.079239 1_455
Fe1 S10 3.079239 1_555
Fe2 S14 2.313444 1_555
Fe2 S5 2.483333 1_555
Fe2 S5 2.483333 1_655
Fe2 S1 2.642745 1_555
Fe2 S1 2.642745 1_655
Fe2 S9 3.079239 1_655
Fe2 S9 3.079239 1_555
Fe3 S15 2.313444 1_555
Fe3 S4 2.483333 1_555
Fe3 S4 2.483333 1_655
Fe3 S0 2.642745 1_555
Fe3 S0 2.642745 1_655
Fe3 S8 3.079239 1_555
Fe3 S8 3.079239 1_655
