# generated using pymatgen
data_HfPt3
_symmetry_space_group_name_H-M   'P 1'
_cell_length_a   5.66295748
_cell_length_b   5.66295832
_cell_length_c   9.25236580
_cell_angle_alpha   90.00000000
_cell_angle_beta   90.00000000
_cell_angle_gamma   120.00000107
_symmetry_Int_Tables_number   1
_chemical_formula_structural   HfPt3
_chemical_formula_sum   'Hf4 Pt12'
_cell_volume   256.96270025
_cell_formula_units_Z   4
loop_
 _symmetry_equiv_pos_site_id
 _symmetry_equiv_pos_as_xyz
  1  'x, y, z'
loop_
 _atom_site_type_symbol
 _atom_site_label
 _atom_site_symmetry_multiplicity
 _atom_site_fract_x
 _atom_site_fract_y
 _atom_site_fract_z
 _atom_site_occupancy
  Hf  Hf0  1  -0.00000000  -0.00000000  0.00000000  1
  Hf  Hf1  1  -0.00000000  -0.00000000  0.50000000  1
  Hf  Hf2  1  0.33333300  0.66666700  0.25000000  1
  Hf  Hf3  1  0.66666700  0.33333300  0.75000000  1
  Pt  Pt0  1  0.50000000  0.00000000  0.00000000  1
  Pt  Pt1  1  0.50000000  0.50000000  0.50000000  1
  Pt  Pt2  1  0.00000000  0.50000000  0.50000000  1
  Pt  Pt3  1  -0.00000000  0.50000000  0.00000000  1
  Pt  Pt4  1  0.50000000  0.50000000  0.00000000  1
  Pt  Pt5  1  0.50000000  0.00000000  0.50000000  1
  Pt  Pt6  1  0.83061725  0.66123751  0.25000000  1
  Pt  Pt7  1  0.16938275  0.83061725  0.75000000  1
  Pt  Pt8  1  0.66123751  0.83061725  0.75000000  1
  Pt  Pt9  1  0.33876249  0.16938275  0.25000000  1
  Pt  Pt10  1  0.83061725  0.16938275  0.25000000  1
  Pt  Pt11  1  0.16938275  0.33876249  0.75000000  1
loop_
_geom_bond_atom_site_label_1
_geom_bond_atom_site_label_2
_geom_bond_distance
_geom_bond_site_symmetry_2
Hf0 Pt0 2.831479 1_455
Hf0 Pt0 2.831479 1_555
Hf0 Pt4 2.831479 1_445
Hf0 Pt4 2.831479 1_555
Hf0 Pt3 2.831479 1_555
Hf0 Pt3 2.831479 1_545
Hf0 Pt9 2.847908 1_555
Hf0 Pt8 2.847908 1_444
Hf0 Pt6 2.847908 1_445
Hf0 Pt11 2.847908 1_554
Hf0 Pt7 2.847917 1_544
Hf0 Pt10 2.847917 1_455
Hf1 Pt5 2.831479 1_555
Hf1 Pt5 2.831479 1_455
Hf1 Pt1 2.831479 1_445
Hf1 Pt1 2.831479 1_555
Hf1 Pt2 2.831479 1_555
Hf1 Pt2 2.831479 1_545
Hf1 Pt8 2.847908 1_445
Hf1 Pt9 2.847908 1_555
Hf1 Pt6 2.847908 1_445
Hf1 Pt11 2.847908 1_555
Hf1 Pt7 2.847917 1_545
Hf1 Pt10 2.847917 1_455
Hf2 Pt6 2.831598 1_555
Hf2 Pt9 2.831599 1_555
Hf2 Pt10 2.831604 1_455
Hf2 Pt10 2.831604 1_565
Hf2 Pt6 2.831610 1_455
Hf2 Pt9 2.831610 1_565
Hf2 Pt3 2.832457 1_555
Hf2 Pt2 2.832457 1_555
Hf2 Pt5 2.832457 1_565
Hf2 Pt0 2.832457 1_565
Hf2 Pt4 2.832460 1_555
Hf2 Pt1 2.832460 1_555
Hf3 Pt11 2.831598 1_555
Hf3 Pt8 2.831599 1_555
Hf3 Pt7 2.831604 1_655
Hf3 Pt7 2.831604 1_545
Hf3 Pt11 2.831610 1_655
Hf3 Pt8 2.831610 1_545
Hf3 Pt2 2.832457 1_655
Hf3 Pt3 2.832457 1_656
Hf3 Pt5 2.832457 1_555
Hf3 Pt0 2.832457 1_556
Hf3 Pt1 2.832460 1_555
Hf3 Pt4 2.832460 1_556
Pt0 Pt10 2.824885 1_555
Pt0 Pt7 2.824885 1_544
Pt0 Pt9 2.824893 1_555
Pt0 Pt8 2.824893 1_544
Pt0 Pt3 2.831479 1_545
Pt0 Pt3 2.831479 1_655
Pt0 Pt4 2.831479 1_545
Pt0 Pt4 2.831479 1_555
Pt1 Pt6 2.824885 1_555
Pt1 Pt11 2.824885 1_555
Pt1 Pt9 2.824885 1_555
Pt1 Pt8 2.824885 1_555
Pt1 Pt2 2.831479 1_555
Pt1 Pt2 2.831479 1_655
Pt1 Pt5 2.831479 1_555
Pt1 Pt5 2.831479 1_565
Pt2 Pt7 2.824885 1_555
Pt2 Pt6 2.824893 1_455
Pt2 Pt5 2.831479 1_455
Pt2 Pt5 2.831479 1_565
Pt3 Pt7 2.824885 1_554
Pt3 Pt6 2.824893 1_455
Pt3 Pt4 2.831479 1_455
Pt3 Pt4 2.831479 1_555
Pt4 Pt6 2.824885 1_555
Pt4 Pt9 2.824885 1_555
Pt4 Pt8 2.824885 1_554
Pt5 Pt7 2.824885 1_545
Pt5 Pt8 2.824893 1_545
Pt5 Pt9 2.824893 1_555
Pt6 Pt9 2.785353 1_555
Pt6 Pt9 2.877605 1_665
Pt7 Pt8 2.785353 1_555
Pt7 Pt8 2.877605 1_455
Pt10 Pt9 2.785353 1_555
Pt10 Pt6 2.785353 1_555
Pt10 Pt5 2.824885 1_555
Pt10 Pt2 2.824885 1_655
Pt10 Pt3 2.824885 1_655
Pt10 Pt9 2.877605 1_655
Pt10 Pt6 2.877605 1_545
Pt11 Pt8 2.785353 1_555
Pt11 Pt7 2.785353 1_555
Pt11 Pt4 2.824885 1_556
Pt11 Pt3 2.824893 1_556
Pt11 Pt2 2.824893 1_555
Pt11 Pt8 2.877605 1_445
Pt11 Pt7 2.877605 1_545
