# generated using pymatgen
data_K2Mg2(MoO4)3
_symmetry_space_group_name_H-M   'P 1'
_cell_length_a   10.92840087
_cell_length_b   10.92840087
_cell_length_c   10.92840087
_cell_angle_alpha   90.00000000
_cell_angle_beta   90.00000000
_cell_angle_gamma   90.00000000
_symmetry_Int_Tables_number   1
_chemical_formula_structural   K2Mg2(MoO4)3
_chemical_formula_sum   'K8 Mg8 Mo12 O48'
_cell_volume   1305.17832113
_cell_formula_units_Z   4
loop_
 _symmetry_equiv_pos_site_id
 _symmetry_equiv_pos_as_xyz
  1  'x, y, z'
loop_
 _atom_site_type_symbol
 _atom_site_label
 _atom_site_symmetry_multiplicity
 _atom_site_fract_x
 _atom_site_fract_y
 _atom_site_fract_z
 _atom_site_occupancy
  K  K0  1  0.05385618  0.05385618  0.05385618  1
  K  K1  1  0.44614382  0.94614382  0.55385618  1
  K  K2  1  0.94614382  0.55385618  0.44614382  1
  K  K3  1  0.55385618  0.44614382  0.94614382  1
  K  K4  1  0.81865735  0.81865735  0.81865735  1
  K  K5  1  0.68134265  0.18134265  0.31865735  1
  K  K6  1  0.18134265  0.31865735  0.68134265  1
  K  K7  1  0.31865735  0.68134265  0.18134265  1
  Mg  Mg0  1  0.33632352  0.33632352  0.33632352  1
  Mg  Mg1  1  0.16367648  0.66367648  0.83632352  1
  Mg  Mg2  1  0.66367648  0.83632352  0.16367648  1
  Mg  Mg3  1  0.83632352  0.16367648  0.66367648  1
  Mg  Mg4  1  0.60403957  0.60403957  0.60403957  1
  Mg  Mg5  1  0.89596043  0.39596043  0.10403957  1
  Mg  Mg6  1  0.39596043  0.10403957  0.89596043  1
  Mg  Mg7  1  0.10403957  0.89596043  0.39596043  1
  Mo  Mo0  1  0.02167271  0.21113862  0.37648235  1
  Mo  Mo1  1  0.47832729  0.78886138  0.87648235  1
  Mo  Mo2  1  0.97832729  0.71113862  0.12351765  1
  Mo  Mo3  1  0.37648235  0.02167271  0.21113862  1
  Mo  Mo4  1  0.52167271  0.28886138  0.62351765  1
  Mo  Mo5  1  0.87648235  0.47832729  0.78886138  1
  Mo  Mo6  1  0.12351765  0.97832729  0.71113862  1
  Mo  Mo7  1  0.62351765  0.52167271  0.28886138  1
  Mo  Mo8  1  0.21113862  0.37648235  0.02167271  1
  Mo  Mo9  1  0.71113862  0.12351765  0.97832729  1
  Mo  Mo10  1  0.28886138  0.62351765  0.52167271  1
  Mo  Mo11  1  0.78886138  0.87648235  0.47832729  1
  O  O0  1  0.01624312  0.05440188  0.32521106  1
  O  O1  1  0.48375688  0.94559812  0.82521106  1
  O  O2  1  0.98375688  0.55440188  0.17478894  1
  O  O3  1  0.32521106  0.01624312  0.05440188  1
  O  O4  1  0.51624312  0.44559812  0.67478894  1
  O  O5  1  0.82521106  0.48375688  0.94559812  1
  O  O6  1  0.17478894  0.98375688  0.55440188  1
  O  O7  1  0.67478894  0.51624312  0.44559812  1
  O  O8  1  0.05440188  0.32521106  0.01624312  1
  O  O9  1  0.55440188  0.17478894  0.98375688  1
  O  O10  1  0.44559812  0.67478894  0.51624312  1
  O  O11  1  0.94559812  0.82521106  0.48375688  1
  O  O12  1  0.26969519  0.48579312  0.43503609  1
  O  O13  1  0.23030481  0.51420688  0.93503609  1
  O  O14  1  0.73030481  0.98579312  0.06496391  1
  O  O15  1  0.43503609  0.26969519  0.48579312  1
  O  O16  1  0.76969519  0.01420688  0.56496391  1
  O  O17  1  0.93503609  0.23030481  0.51420688  1
  O  O18  1  0.06496391  0.73030481  0.98579312  1
  O  O19  1  0.56496391  0.76969519  0.01420688  1
  O  O20  1  0.48579312  0.43503609  0.26969519  1
  O  O21  1  0.98579312  0.06496391  0.73030481  1
  O  O22  1  0.01420688  0.56496391  0.76969519  1
  O  O23  1  0.51420688  0.93503609  0.23030481  1
  O  O24  1  0.05109237  0.80702408  0.23530217  1
  O  O25  1  0.44890763  0.19297592  0.73530217  1
  O  O26  1  0.94890763  0.30702408  0.26469783  1
  O  O27  1  0.23530217  0.05109237  0.80702408  1
  O  O28  1  0.55109237  0.69297592  0.76469783  1
  O  O29  1  0.73530217  0.44890763  0.19297592  1
  O  O30  1  0.26469783  0.94890763  0.30702408  1
  O  O31  1  0.76469783  0.55109237  0.69297592  1
  O  O32  1  0.80702408  0.23530217  0.05109237  1
  O  O33  1  0.30702408  0.26469783  0.94890763  1
  O  O34  1  0.69297592  0.76469783  0.55109237  1
  O  O35  1  0.19297592  0.73530217  0.44890763  1
  O  O36  1  0.17569736  0.25882708  0.40439888  1
  O  O37  1  0.32430264  0.74117292  0.90439888  1
  O  O38  1  0.82430264  0.75882708  0.09560112  1
  O  O39  1  0.40439888  0.17569736  0.25882708  1
  O  O40  1  0.67569736  0.24117292  0.59560112  1
  O  O41  1  0.90439888  0.32430264  0.74117292  1
  O  O42  1  0.09560112  0.82430264  0.75882708  1
  O  O43  1  0.59560112  0.67569736  0.24117292  1
  O  O44  1  0.25882708  0.40439888  0.17569736  1
  O  O45  1  0.75882708  0.09560112  0.82430264  1
  O  O46  1  0.24117292  0.59560112  0.67569736  1
  O  O47  1  0.74117292  0.90439888  0.32430264  1
loop_
_geom_bond_atom_site_label_1
_geom_bond_atom_site_label_2
_geom_bond_distance
_geom_bond_site_symmetry_2
K0 O3 2.993834 1_555
K0 O0 2.993834 1_555
K0 O8 2.993834 1_555
K0 O32 3.348023 1_455
K0 O27 3.348023 1_554
K0 O24 3.348023 1_545
K1 O1 2.993834 1_555
K1 O10 2.993834 1_555
K1 O6 2.993834 1_555
K1 O34 3.348023 1_555
K1 O30 3.348023 1_555
K1 O25 3.348023 1_565
K2 O7 2.993834 1_555
K2 O11 2.993834 1_555
K2 O2 2.993834 1_555
K2 O31 3.348023 1_555
K2 O26 3.348023 1_555
K2 O35 3.348023 1_655
K3 O4 2.993834 1_555
K3 O5 2.993834 1_555
K3 O9 2.993834 1_555
K3 O28 3.348023 1_555
K3 O33 3.348023 1_555
K3 O29 3.348023 1_556
K4 O38 3.096990 1_556
K4 O45 3.096990 1_565
K4 O42 3.096990 1_655
K4 O34 3.283952 1_555
K4 O31 3.283952 1_555
K4 O28 3.283952 1_555
K4 O14 3.393219 1_556
K4 O21 3.393219 1_565
K4 O18 3.393219 1_655
K5 O47 3.096990 1_545
K5 O39 3.096990 1_555
K5 O40 3.096990 1_555
K5 O32 3.283952 1_555
K5 O26 3.283952 1_555
K5 O29 3.283952 1_555
K5 O16 3.393219 1_555
K5 O23 3.393219 1_545
K5 O15 3.393219 1_555
K6 O41 3.096990 1_455
K6 O36 3.096990 1_555
K6 O46 3.096990 1_555
K6 O27 3.283952 1_555
K6 O33 3.283952 1_555
K6 O25 3.283952 1_555
K6 O22 3.393219 1_555
K6 O17 3.393219 1_455
K6 O12 3.393219 1_555
K7 O37 3.096990 1_554
K7 O43 3.096990 1_555
K7 O44 3.096990 1_555
K7 O24 3.283952 1_555
K7 O35 3.283952 1_555
K7 O30 3.283952 1_555
K7 O19 3.393219 1_555
K7 O13 3.393219 1_554
K7 O20 3.393219 1_555
Mg0 O39 2.086172 1_555
Mg0 O36 2.086172 1_555
Mg0 O44 2.086172 1_555
Mg0 O12 2.088573 1_555
Mg0 O15 2.088573 1_555
Mg0 O20 2.088573 1_555
Mg1 O46 2.086172 1_555
Mg1 O42 2.086172 1_555
Mg1 O37 2.086172 1_555
Mg1 O18 2.088573 1_555
Mg1 O22 2.088573 1_555
Mg1 O13 2.088573 1_555
Mg2 O43 2.086172 1_555
Mg2 O38 2.086172 1_555
Mg2 O47 2.086172 1_555
Mg2 O14 2.088573 1_555
Mg2 O23 2.088573 1_555
Mg2 O19 2.088573 1_555
Mg3 O45 2.086172 1_555
Mg3 O40 2.086172 1_555
Mg3 O41 2.086172 1_555
Mg3 O17 2.088573 1_555
Mg3 O16 2.088573 1_555
Mg3 O21 2.088573 1_555
Mg4 O34 2.088559 1_555
Mg4 O28 2.088559 1_555
Mg4 O31 2.088559 1_555
Mg4 O10 2.125212 1_555
Mg4 O7 2.125212 1_555
Mg4 O4 2.125212 1_555
Mg5 O32 2.088559 1_555
Mg5 O26 2.088559 1_555
Mg5 O29 2.088559 1_555
Mg5 O8 2.125212 1_655
Mg5 O5 2.125212 1_554
Mg5 O2 2.125212 1_555
Mg6 O25 2.088559 1_555
Mg6 O27 2.088559 1_555
Mg6 O33 2.088559 1_555
Mg6 O3 2.125212 1_556
Mg6 O1 2.125212 1_545
Mg6 O9 2.125212 1_555
Mg7 O24 2.088559 1_555
Mg7 O35 2.088559 1_555
Mg7 O30 2.088559 1_555
Mg7 O0 2.125212 1_565
Mg7 O6 2.125212 1_555
Mg7 O11 2.125212 1_455
Mo0 O36 1.788292 1_555
Mo0 O17 1.790434 1_455
Mo0 O26 1.795206 1_455
Mo0 O0 1.803174 1_555
Mo1 O37 1.788292 1_555
Mo1 O19 1.790434 1_556
Mo1 O28 1.795206 1_555
Mo1 O1 1.803174 1_555
Mo2 O38 1.788292 1_555
Mo2 O18 1.790434 1_654
Mo2 O24 1.795206 1_655
Mo2 O2 1.803174 1_555
Mo3 O39 1.788292 1_555
Mo3 O23 1.790434 1_545
Mo3 O30 1.795206 1_545
Mo3 O3 1.803174 1_555
Mo4 O40 1.788292 1_555
Mo4 O15 1.790434 1_555
Mo4 O25 1.795206 1_555
Mo4 O4 1.803174 1_555
Mo5 O41 1.788292 1_555
Mo5 O22 1.790434 1_655
Mo5 O31 1.795206 1_555
Mo5 O5 1.803174 1_555
Mo6 O42 1.788292 1_555
Mo6 O21 1.790434 1_465
Mo6 O27 1.795206 1_565
Mo6 O6 1.803174 1_555
Mo7 O43 1.788292 1_555
Mo7 O20 1.790434 1_555
Mo7 O29 1.795206 1_555
Mo7 O7 1.803174 1_555
Mo8 O44 1.788292 1_555
Mo8 O13 1.790434 1_554
Mo8 O33 1.795206 1_554
Mo8 O8 1.803174 1_555
Mo9 O45 1.788292 1_555
Mo9 O14 1.790434 1_546
Mo9 O32 1.795206 1_556
Mo9 O9 1.803174 1_555
Mo10 O46 1.788292 1_555
Mo10 O12 1.790434 1_555
Mo10 O35 1.795206 1_555
Mo10 O10 1.803174 1_555
Mo11 O47 1.788292 1_555
Mo11 O16 1.790434 1_565
Mo11 O34 1.795206 1_555
Mo11 O11 1.803174 1_555
