# generated using pymatgen
data_Li3V2(O2F)2
_symmetry_space_group_name_H-M   'P 1'
_cell_length_a   5.14260674
_cell_length_b   8.18222129
_cell_length_c   6.10428543
_cell_angle_alpha   89.97896664
_cell_angle_beta   90.04262768
_cell_angle_gamma   109.39256855
_symmetry_Int_Tables_number   1
_chemical_formula_structural   Li3V2(O2F)2
_chemical_formula_sum   'Li6 V4 O8 F4'
_cell_volume   242.28320029
_cell_formula_units_Z   2
loop_
 _symmetry_equiv_pos_site_id
 _symmetry_equiv_pos_as_xyz
  1  'x, y, z'
loop_
 _atom_site_type_symbol
 _atom_site_label
 _atom_site_symmetry_multiplicity
 _atom_site_fract_x
 _atom_site_fract_y
 _atom_site_fract_z
 _atom_site_occupancy
  Li  Li0  1  0.92965000  0.61833700  0.25015400  1
  Li  Li1  1  0.06494800  0.38132700  0.75005200  1
  Li  Li2  1  0.38641700  0.62020700  0.00088200  1
  Li  Li3  1  0.60679100  0.38109900  0.99949600  1
  Li  Li4  1  0.38674300  0.62030400  0.49980000  1
  Li  Li5  1  0.60688800  0.38121000  0.50062200  1
  V  V0  1  0.50420900  0.00182700  0.25012100  1
  V  V1  1  0.50209100  0.99860200  0.74979400  1
  V  V2  1  0.00280600  0.99960000  0.49988500  1
  V  V3  1  0.00282100  0.99950200  0.99979100  1
  O  O0  1  0.88330200  0.12229400  0.25000300  1
  O  O1  1  0.12244100  0.87737600  0.74952800  1
  O  O2  1  0.12075000  0.86428700  0.24949700  1
  O  O3  1  0.88514400  0.13437700  0.75034600  1
  O  O4  1  0.41510800  0.13531200  0.00294400  1
  O  O5  1  0.59008600  0.86476000  0.99666900  1
  O  O6  1  0.41494000  0.13569300  0.49657100  1
  O  O7  1  0.59007400  0.86461100  0.50340600  1
  F  F0  1  0.99580800  0.49934600  0.00013900  1
  F  F1  1  0.99577200  0.49937500  0.50003700  1
  F  F2  1  0.53538100  0.51826300  0.25003500  1
  F  F3  1  0.45783100  0.48228900  0.75022700  1
loop_
_geom_bond_atom_site_label_1
_geom_bond_atom_site_label_2
_geom_bond_distance
_geom_bond_site_symmetry_2
Li0 O2 1.924134 1_655
Li1 O3 1.922780 1_455
Li2 O5 1.926098 1_554
Li3 O4 1.923569 1_556
Li4 O7 1.923978 1_555
Li5 O6 1.921906 1_555
O0 V0 1.869793 1_555
O0 V2 2.029633 1_645
O0 V3 2.032901 1_644
O1 V1 1.873408 1_555
O1 V2 2.026565 1_555
O1 V3 2.030141 1_555
O2 V0 1.918711 1_565
O2 V3 2.087632 1_554
O2 V2 2.092462 1_555
O3 V1 1.913472 1_545
O3 V3 2.084124 1_645
O3 V2 2.089372 1_645
O4 V0 2.002390 1_555
O4 V3 2.041059 1_544
O4 V1 2.043006 1_544
O5 V1 2.000495 1_555
O5 V3 2.041314 1_655
O5 V0 2.043939 1_566
O6 V0 2.002464 1_555
O6 V2 2.040880 1_545
O6 V1 2.044499 1_545
O7 V1 2.000104 1_555
O7 V2 2.041743 1_655
O7 V0 2.042779 1_565
F0 Li0 1.901231 1_555
F0 Li1 1.902454 1_654
F0 Li3 1.911275 1_554
F0 Li2 1.921940 1_655
F1 Li0 1.899404 1_555
F1 Li1 1.901309 1_655
F1 Li5 1.910571 1_555
F1 Li4 1.923660 1_655
F2 Li0 1.918071 1_555
F2 Li5 2.001089 1_555
F2 Li3 2.002292 1_554
F2 Li2 2.004355 1_555
F2 Li4 2.008080 1_555
F3 Li1 1.912125 1_555
F3 Li3 2.001541 1_555
F3 Li5 2.004197 1_555
F3 Li4 2.004447 1_555
F3 Li2 2.006681 1_556
