# generated using pymatgen
data_Zn5H2(NO7)2
_symmetry_space_group_name_H-M   'P 1'
_cell_length_a   9.93577319
_cell_length_b   9.93577319
_cell_length_c   5.32777238
_cell_angle_alpha   86.32911279
_cell_angle_beta   86.32911279
_cell_angle_gamma   36.41867385
_symmetry_Int_Tables_number   1
_chemical_formula_structural   Zn5H2(NO7)2
_chemical_formula_sum   'Zn5 H2 N2 O14'
_cell_volume   311.53982661
_cell_formula_units_Z   1
loop_
 _symmetry_equiv_pos_site_id
 _symmetry_equiv_pos_as_xyz
  1  'x, y, z'
loop_
 _atom_site_type_symbol
 _atom_site_label
 _atom_site_symmetry_multiplicity
 _atom_site_fract_x
 _atom_site_fract_y
 _atom_site_fract_z
 _atom_site_occupancy
  Zn  Zn0  1  0.75695000  0.24305000  0.00000000  1
  Zn  Zn1  1  0.24305000  0.75695000  0.00000000  1
  Zn  Zn2  1  0.90787600  0.90787600  0.51408600  1
  Zn  Zn3  1  0.09212400  0.09212400  0.48591400  1
  Zn  Zn4  1  0.50000000  0.50000000  0.50000000  1
  H  H0  1  0.82010300  0.82010300  0.49143200  1
  H  H1  1  0.17989700  0.17989700  0.50856800  1
  N  N0  1  0.72132500  0.72132500  0.99808600  1
  N  N1  1  0.27867500  0.27867500  0.00191400  1
  O  O0  1  0.30915900  0.80276200  0.32158100  1
  O  O1  1  0.69084100  0.19723800  0.67841900  1
  O  O2  1  0.19723800  0.69084100  0.67841900  1
  O  O3  1  0.80276200  0.30915900  0.32158100  1
  O  O4  1  0.30663300  0.30663300  0.20830300  1
  O  O5  1  0.69336700  0.69336700  0.79169700  1
  O  O6  1  0.94392100  0.94392100  0.16499000  1
  O  O7  1  0.05607900  0.05607900  0.83501000  1
  O  O8  1  0.68490400  0.68490400  0.20282300  1
  O  O9  1  0.31509600  0.31509600  0.79717700  1
  O  O10  1  0.45057600  0.45057600  0.17649000  1
  O  O11  1  0.54942400  0.54942400  0.82351000  1
  O  O12  1  0.78818900  0.78818900  0.00178900  1
  O  O13  1  0.21181100  0.21181100  0.99821100  1
loop_
_geom_bond_atom_site_label_1
_geom_bond_atom_site_label_2
_geom_bond_distance
_geom_bond_site_symmetry_2
H0 Zn2 1.669322 1_555
H1 Zn3 1.669322 1_555
N0 O8 1.249556 1_556
N0 O5 1.251339 1_555
N0 O12 1.263635 1_556
N1 O9 1.249556 1_554
N1 O4 1.251339 1_555
N1 O13 1.263635 1_554
O0 Zn3 1.945548 1_565
O0 Zn4 2.057375 1_555
O0 Zn1 2.073454 1_555
O1 Zn2 1.945548 1_545
O1 Zn4 2.057375 1_555
O1 Zn0 2.073454 1_556
O2 Zn2 1.945548 1_455
O2 Zn4 2.057375 1_555
O2 Zn1 2.073454 1_556
O3 Zn3 1.945548 1_655
O3 Zn4 2.057375 1_555
O3 Zn0 2.073454 1_555
O6 Zn2 1.936904 1_555
O6 Zn1 2.011388 1_655
O6 Zn0 2.011388 1_565
O7 Zn3 1.936904 1_555
O7 Zn1 2.011388 1_546
O7 Zn0 2.011388 1_456
O10 Zn4 2.014425 1_555
O10 Zn0 2.045029 1_555
O10 Zn1 2.045029 1_555
O11 Zn4 2.014425 1_555
O11 Zn1 2.045029 1_556
O11 Zn0 2.045029 1_556
