# generated using pymatgen
data_Rb2Nd2Mg(WO4)4
_symmetry_space_group_name_H-M   'P 1'
_cell_length_a   7.88367939
_cell_length_b   7.88367976
_cell_length_c   7.53469329
_cell_angle_alpha   63.35665138
_cell_angle_beta   63.35664964
_cell_angle_gamma   93.82916728
_symmetry_Int_Tables_number   1
_chemical_formula_structural   Rb2Nd2Mg(WO4)4
_chemical_formula_sum   'Rb2 Nd2 Mg1 W4 O16'
_cell_volume   352.46874019
_cell_formula_units_Z   1
loop_
 _symmetry_equiv_pos_site_id
 _symmetry_equiv_pos_as_xyz
  1  'x, y, z'
loop_
 _atom_site_type_symbol
 _atom_site_label
 _atom_site_symmetry_multiplicity
 _atom_site_fract_x
 _atom_site_fract_y
 _atom_site_fract_z
 _atom_site_occupancy
  Rb  Rb0  1  0.74045900  0.25954100  0.75000000  1
  Rb  Rb1  1  0.21947200  0.78052800  0.25000000  1
  Nd  Nd0  1  0.25429400  0.74570600  0.75000000  1
  Nd  Nd1  1  0.77764500  0.22235500  0.25000000  1
  Mg  Mg0  1  0.98409000  0.01591000  0.75000000  1
  W  W0  1  0.69279500  0.70464500  0.78686600  1
  W  W1  1  0.72115000  0.69649600  0.27445600  1
  W  W2  1  0.30350400  0.27885000  0.22554400  1
  W  W3  1  0.29535500  0.30720500  0.71313400  1
  O  O0  1  0.57188600  0.36416200  0.47815300  1
  O  O1  1  0.20506300  0.02881600  0.82322600  1
  O  O2  1  0.08202800  0.38838600  0.86674100  1
  O  O3  1  0.37900500  0.06235600  0.37211800  1
  O  O4  1  0.75743900  0.64581900  0.54704600  1
  O  O5  1  0.35418100  0.24256100  0.95295400  1
  O  O6  1  0.61161400  0.91797200  0.63325900  1
  O  O7  1  0.42499900  0.62442300  0.50779900  1
  O  O8  1  0.01828300  0.19498800  0.35986600  1
  O  O9  1  0.80501200  0.98171700  0.14013400  1
  O  O10  1  0.37557700  0.57500100  0.99220100  1
  O  O11  1  0.93764400  0.62099500  0.12788200  1
  O  O12  1  0.19819800  0.32504900  0.50310700  1
  O  O13  1  0.67495100  0.80180200  0.99689300  1
  O  O14  1  0.97118400  0.79493700  0.67677400  1
  O  O15  1  0.63583800  0.42811400  0.02184700  1
loop_
_geom_bond_atom_site_label_1
_geom_bond_atom_site_label_2
_geom_bond_distance
_geom_bond_site_symmetry_2
Nd0 O7 2.364281 1_555
Nd0 O10 2.364281 1_555
Nd0 O11 2.468201 1_456
Nd0 O3 2.468201 1_565
Nd0 O14 2.542585 1_455
Nd0 O1 2.542585 1_565
Nd0 O6 2.597865 1_555
Nd0 O2 2.597865 1_555
Nd1 O8 2.373567 1_655
Nd1 O9 2.373567 1_545
Nd1 O2 2.405450 1_654
Nd1 O6 2.405450 1_545
Nd1 O0 2.510226 1_555
Nd1 O15 2.510226 1_555
Nd1 O3 2.854941 1_555
Nd1 O11 2.854941 1_555
Mg0 O1 2.058719 1_655
Mg0 O14 2.058719 1_545
Mg0 O13 2.194912 1_545
Mg0 O12 2.194912 1_655
Mg0 O9 2.494629 1_546
Mg0 O8 2.494629 1_655
Mg0 Rb0 2.805526 1_555
O0 W3 1.945128 1_555
O0 W1 2.228616 1_555
O0 Rb0 2.777505 1_555
O1 W3 1.908034 1_555
O1 Rb1 2.982732 1_546
O2 W3 1.907865 1_555
O2 Rb0 3.408392 1_455
O3 W2 1.876631 1_555
O3 Rb1 3.140577 1_545
O4 W0 1.922805 1_555
O4 W1 2.065482 1_555
O4 Rb0 2.686174 1_555
O4 Rb1 3.073257 1_655
O5 W3 1.922805 1_555
O5 W2 2.065482 1_556
O5 Rb0 2.686174 1_555
O5 Rb1 3.073257 1_546
O6 W0 1.907865 1_555
O6 Rb0 3.408393 1_565
O7 W1 2.027410 1_555
O7 W3 2.112524 1_555
O7 Rb1 2.976265 1_555
O8 W2 1.917769 1_555
O8 Rb0 3.068119 1_455
O9 W1 1.917769 1_555
O9 Rb0 3.068120 1_564
O10 W2 2.027410 1_556
O10 W0 2.112524 1_555
O10 Rb1 2.976265 1_556
O11 W1 1.876631 1_555
O11 Rb1 3.140577 1_655
O12 W3 2.003145 1_555
O12 W2 2.088539 1_555
O12 Rb0 3.101363 1_455
O12 Rb1 3.170202 1_555
O13 W0 2.003145 1_555
O13 W1 2.088539 1_556
O13 Rb0 3.101363 1_565
O13 Rb1 3.170202 1_556
O14 W0 1.908033 1_555
O14 Rb1 2.982731 1_655
O15 W0 1.945128 1_554
O15 W2 2.228615 1_555
O15 Rb0 2.777505 1_554
