# generated using pymatgen
data_Ti2Zn3(GeO4)3
_symmetry_space_group_name_H-M   'P 1'
_cell_length_a   10.60950227
_cell_length_b   10.60950171
_cell_length_c   10.60950185
_cell_angle_alpha   109.47122092
_cell_angle_beta   109.47121986
_cell_angle_gamma   109.47121989
_symmetry_Int_Tables_number   1
_chemical_formula_structural   Ti2Zn3(GeO4)3
_chemical_formula_sum   'Ti8 Zn12 Ge12 O48'
_cell_volume   919.31237418
_cell_formula_units_Z   4
loop_
 _symmetry_equiv_pos_site_id
 _symmetry_equiv_pos_as_xyz
  1  'x, y, z'
loop_
 _atom_site_type_symbol
 _atom_site_label
 _atom_site_symmetry_multiplicity
 _atom_site_fract_x
 _atom_site_fract_y
 _atom_site_fract_z
 _atom_site_occupancy
  Ti  Ti0  1  0.50000000  0.50000000  0.50000000  1
  Ti  Ti1  1  0.50000000  0.50000000  0.00000000  1
  Ti  Ti2  1  0.50000000  0.00000000  0.50000000  1
  Ti  Ti3  1  0.00000000  0.50000000  0.50000000  1
  Ti  Ti4  1  0.50000000  0.00000000  0.00000000  1
  Ti  Ti5  1  0.00000000  0.00000000  0.50000000  1
  Ti  Ti6  1  0.00000000  0.50000000  0.00000000  1
  Ti  Ti7  1  0.00000000  0.00000000  0.00000000  1
  Zn  Zn0  1  0.62500000  0.25000000  0.87500000  1
  Zn  Zn1  1  0.87500000  0.75000000  0.62500000  1
  Zn  Zn2  1  0.75000000  0.62500000  0.87500000  1
  Zn  Zn3  1  0.25000000  0.87500000  0.62500000  1
  Zn  Zn4  1  0.87500000  0.62500000  0.25000000  1
  Zn  Zn5  1  0.62500000  0.87500000  0.75000000  1
  Zn  Zn6  1  0.37500000  0.75000000  0.12500000  1
  Zn  Zn7  1  0.12500000  0.25000000  0.37500000  1
  Zn  Zn8  1  0.25000000  0.37500000  0.12500000  1
  Zn  Zn9  1  0.75000000  0.12500000  0.37500000  1
  Zn  Zn10  1  0.12500000  0.37500000  0.75000000  1
  Zn  Zn11  1  0.37500000  0.12500000  0.25000000  1
  Ge  Ge0  1  0.87500000  0.12500000  0.75000000  1
  Ge  Ge1  1  0.12500000  0.87500000  0.25000000  1
  Ge  Ge2  1  0.25000000  0.62500000  0.37500000  1
  Ge  Ge3  1  0.12500000  0.75000000  0.87500000  1
  Ge  Ge4  1  0.75000000  0.87500000  0.12500000  1
  Ge  Ge5  1  0.37500000  0.25000000  0.62500000  1
  Ge  Ge6  1  0.62500000  0.75000000  0.37500000  1
  Ge  Ge7  1  0.87500000  0.25000000  0.12500000  1
  Ge  Ge8  1  0.25000000  0.12500000  0.87500000  1
  Ge  Ge9  1  0.75000000  0.37500000  0.62500000  1
  Ge  Ge10  1  0.37500000  0.62500000  0.75000000  1
  Ge  Ge11  1  0.62500000  0.37500000  0.25000000  1
  O  O0  1  0.79488181  0.41956925  0.81805477  1
  O  O1  1  0.08043075  0.87531256  0.39848553  1
  O  O2  1  0.68194523  0.10151447  0.97682604  1
  O  O3  1  0.70511819  0.52317396  0.62468744  1
  O  O4  1  0.70511819  0.68194523  0.08043075  1
  O  O5  1  0.52317396  0.62468744  0.70511819  1
  O  O6  1  0.10151447  0.62468744  0.41956925  1
  O  O7  1  0.62468744  0.70511819  0.52317396  1
  O  O8  1  0.39848553  0.81805477  0.52317396  1
  O  O9  1  0.87531256  0.97682604  0.79488181  1
  O  O10  1  0.97682604  0.79488181  0.87531256  1
  O  O11  1  0.08043075  0.70511819  0.68194523  1
  O  O12  1  0.62468744  0.41956925  0.10151447  1
  O  O13  1  0.52317396  0.39848553  0.81805477  1
  O  O14  1  0.68194523  0.08043075  0.70511819  1
  O  O15  1  0.41956925  0.10151447  0.62468744  1
  O  O16  1  0.81805477  0.52317396  0.39848553  1
  O  O17  1  0.39848553  0.08043075  0.87531256  1
  O  O18  1  0.10151447  0.97682604  0.68194523  1
  O  O19  1  0.60151447  0.18194523  0.47682604  1
  O  O20  1  0.97682604  0.68194523  0.10151447  1
  O  O21  1  0.81805477  0.79488181  0.41956925  1
  O  O22  1  0.87531256  0.39848553  0.08043075  1
  O  O23  1  0.79488181  0.87531256  0.97682604  1
  O  O24  1  0.20511819  0.58043075  0.18194523  1
  O  O25  1  0.91956925  0.12468744  0.60151447  1
  O  O26  1  0.31805477  0.89848553  0.02317396  1
  O  O27  1  0.29488181  0.47682604  0.37531256  1
  O  O28  1  0.29488181  0.31805477  0.91956925  1
  O  O29  1  0.47682604  0.37531256  0.29488181  1
  O  O30  1  0.89848553  0.37531256  0.58043075  1
  O  O31  1  0.37531256  0.29488181  0.47682604  1
  O  O32  1  0.20511819  0.12468744  0.02317396  1
  O  O33  1  0.12468744  0.60151447  0.91956925  1
  O  O34  1  0.18194523  0.20511819  0.58043075  1
  O  O35  1  0.58043075  0.18194523  0.20511819  1
  O  O36  1  0.02317396  0.31805477  0.89848553  1
  O  O37  1  0.89848553  0.02317396  0.31805477  1
  O  O38  1  0.60151447  0.91956925  0.12468744  1
  O  O39  1  0.18194523  0.47682604  0.60151447  1
  O  O40  1  0.58043075  0.89848553  0.37531256  1
  O  O41  1  0.31805477  0.91956925  0.29488181  1
  O  O42  1  0.47682604  0.60151447  0.18194523  1
  O  O43  1  0.37531256  0.58043075  0.89848553  1
  O  O44  1  0.91956925  0.29488181  0.31805477  1
  O  O45  1  0.02317396  0.20511819  0.12468744  1
  O  O46  1  0.12468744  0.02317396  0.20511819  1
  O  O47  1  0.41956925  0.81805477  0.79488181  1
loop_
_geom_bond_atom_site_label_1
_geom_bond_atom_site_label_2
_geom_bond_distance
_geom_bond_site_symmetry_2
Ge0 O14 1.788724 1_555
Ge0 O25 1.788724 1_555
Ge0 O36 1.788726 1_655
Ge0 O9 1.788734 1_545
Ge1 O41 1.788724 1_555
Ge1 O1 1.788724 1_555
Ge1 O20 1.788726 1_455
Ge1 O46 1.788734 1_565
Ge2 O24 1.788724 1_555
Ge2 O6 1.788724 1_555
Ge2 O8 1.788726 1_555
Ge2 O27 1.788734 1_555
Ge3 O11 1.788724 1_555
Ge3 O33 1.788724 1_555
Ge3 O26 1.788726 1_556
Ge3 O10 1.788734 1_455
Ge4 O4 1.788724 1_555
Ge4 O38 1.788724 1_555
Ge4 O37 1.788726 1_565
Ge4 O23 1.788734 1_554
Ge5 O15 1.788724 1_555
Ge5 O34 1.788724 1_555
Ge5 O13 1.788726 1_555
Ge5 O31 1.788734 1_555
Ge6 O40 1.788724 1_555
Ge6 O21 1.788724 1_555
Ge6 O42 1.788726 1_555
Ge6 O7 1.788734 1_555
Ge7 O44 1.788724 1_555
Ge7 O22 1.788724 1_555
Ge7 O2 1.788726 1_554
Ge7 O45 1.788734 1_655
Ge8 O28 1.788724 1_555
Ge8 O17 1.788724 1_555
Ge8 O18 1.788726 1_545
Ge8 O32 1.788734 1_556
Ge9 O0 1.788724 1_555
Ge9 O30 1.788724 1_555
Ge9 O19 1.788726 1_555
Ge9 O3 1.788734 1_555
Ge10 O47 1.788724 1_555
Ge10 O43 1.788724 1_555
Ge10 O39 1.788726 1_555
Ge10 O5 1.788734 1_555
Ge11 O35 1.788724 1_555
Ge11 O12 1.788724 1_555
Ge11 O16 1.788726 1_555
Ge11 O29 1.788734 1_555
O0 Ti6 2.013345 1_656
O0 Zn2 2.312547 1_555
O0 Zn0 2.477690 1_555
O1 Ti5 2.013345 1_565
O1 Zn4 2.312547 1_455
O1 Zn3 2.477690 1_555
O2 Ti4 2.013351 1_556
O2 Zn0 2.312541 1_555
O2 Zn5 2.477683 1_545
O3 Ti0 2.013340 1_555
O3 Zn2 2.312547 1_555
O3 Zn1 2.477682 1_555
O4 Ti1 2.013345 1_555
O4 Zn2 2.312547 1_554
O4 Zn4 2.477690 1_555
O5 Ti0 2.013340 1_555
O5 Zn5 2.312547 1_555
O5 Zn2 2.477682 1_555
O6 Ti3 2.013345 1_555
O6 Zn3 2.312547 1_555
O6 Zn4 2.477690 1_455
O7 Ti0 2.013340 1_555
O7 Zn1 2.312547 1_555
O7 Zn5 2.477682 1_555
O8 Ti2 2.013351 1_565
O8 Zn3 2.312541 1_555
O8 Zn5 2.477684 1_555
O9 Ti7 2.013340 1_666
O9 Zn5 2.312547 1_555
O9 Zn1 2.477682 1_555
O10 Ti7 2.013340 1_666
O10 Zn1 2.312547 1_555
O10 Zn2 2.477682 1_555
O11 Ti3 2.013345 1_555
O11 Zn1 2.312547 1_455
O11 Zn3 2.477690 1_555
O12 Ti1 2.013345 1_555
O12 Zn4 2.312547 1_555
O12 Zn0 2.477689 1_554
O13 Ti1 2.013351 1_556
O13 Zn0 2.312541 1_555
O13 Zn2 2.477684 1_555
O14 Ti2 2.013345 1_555
O14 Zn5 2.312547 1_545
O14 Zn0 2.477690 1_555
O15 Ti2 2.013345 1_555
O15 Zn0 2.312547 1_555
O15 Zn3 2.477690 1_545
O16 Ti3 2.013351 1_655
O16 Zn4 2.312541 1_555
O16 Zn1 2.477683 1_555
O17 Ti4 2.013345 1_556
O17 Zn3 2.312547 1_545
O17 Zn0 2.477690 1_555
O18 Ti5 2.013351 1_565
O18 Zn3 2.312541 1_555
O18 Zn1 2.477684 1_455
O19 Ti2 2.013351 1_555
O19 Zn9 2.312541 1_555
O19 Zn11 2.477684 1_555
O20 Ti6 2.013351 1_655
O20 Zn4 2.312541 1_555
O20 Zn2 2.477684 1_554
O21 Ti5 2.013345 1_665
O21 Zn1 2.312547 1_555
O21 Zn4 2.477690 1_555
O22 Ti6 2.013345 1_655
O22 Zn0 2.312547 1_554
O22 Zn4 2.477689 1_555
O23 Ti7 2.013340 1_666
O23 Zn2 2.312547 1_555
O23 Zn5 2.477682 1_555
O24 Ti6 2.013345 1_555
O24 Zn8 2.312547 1_555
O24 Zn6 2.477690 1_555
O25 Ti5 2.013345 1_655
O25 Zn10 2.312547 1_655
O25 Zn9 2.477690 1_555
O26 Ti4 2.013351 1_565
O26 Zn6 2.312541 1_555
O26 Zn11 2.477683 1_565
O27 Ti0 2.013340 1_555
O27 Zn8 2.312547 1_555
O27 Zn7 2.477682 1_555
O28 Ti1 2.013345 1_556
O28 Zn8 2.312547 1_556
O28 Zn10 2.477690 1_555
O29 Ti0 2.013340 1_555
O29 Zn11 2.312547 1_555
O29 Zn8 2.477682 1_555
O30 Ti3 2.013345 1_655
O30 Zn9 2.312547 1_555
O30 Zn10 2.477690 1_655
O31 Ti0 2.013340 1_555
O31 Zn7 2.312547 1_555
O31 Zn11 2.477682 1_555
O32 Ti7 2.013340 1_555
O32 Zn8 2.312547 1_555
O32 Zn11 2.477682 1_555
O33 Ti6 2.013345 1_556
O33 Zn6 2.312547 1_556
O33 Zn10 2.477689 1_555
O34 Ti5 2.013345 1_555
O34 Zn7 2.312547 1_555
O34 Zn10 2.477690 1_555
O35 Ti4 2.013345 1_555
O35 Zn11 2.312547 1_555
O35 Zn9 2.477690 1_555
O36 Ti6 2.013351 1_556
O36 Zn10 2.312541 1_555
O36 Zn8 2.477684 1_556
O37 Ti5 2.013351 1_655
O37 Zn9 2.312541 1_555
O37 Zn7 2.477684 1_655
O38 Ti4 2.013345 1_565
O38 Zn9 2.312547 1_565
O38 Zn6 2.477690 1_555
O39 Ti3 2.013351 1_555
O39 Zn10 2.312541 1_555
O39 Zn7 2.477683 1_555
O40 Ti2 2.013345 1_565
O40 Zn6 2.312547 1_555
O40 Zn9 2.477690 1_565
O41 Ti2 2.013345 1_565
O41 Zn11 2.312547 1_565
O41 Zn6 2.477690 1_555
O42 Ti1 2.013351 1_555
O42 Zn6 2.312541 1_555
O42 Zn8 2.477684 1_555
O43 Ti1 2.013345 1_556
O43 Zn10 2.312547 1_555
O43 Zn6 2.477689 1_556
O44 Ti3 2.013345 1_655
O44 Zn7 2.312547 1_655
O44 Zn9 2.477690 1_555
O45 Ti7 2.013340 1_555
O45 Zn7 2.312547 1_555
O45 Zn8 2.477682 1_555
O46 Ti7 2.013340 1_555
O46 Zn11 2.312547 1_555
O46 Zn7 2.477682 1_555
O47 Ti4 2.013345 1_566
O47 Zn5 2.312547 1_555
O47 Zn3 2.477690 1_555
