# generated using pymatgen
data_CrTeN
_symmetry_space_group_name_H-M   'P 1'
_cell_length_a   3.33351000
_cell_length_b   3.33351000
_cell_length_c   9.55941300
_cell_angle_alpha   90.00000000
_cell_angle_beta   90.00000000
_cell_angle_gamma   90.00000000
_symmetry_Int_Tables_number   1
_chemical_formula_structural   CrTeN
_chemical_formula_sum   'Cr2 Te2 N2'
_cell_volume   106.22695916
_cell_formula_units_Z   2
loop_
 _symmetry_equiv_pos_site_id
 _symmetry_equiv_pos_as_xyz
  1  'x, y, z'
loop_
 _atom_site_type_symbol
 _atom_site_label
 _atom_site_symmetry_multiplicity
 _atom_site_fract_x
 _atom_site_fract_y
 _atom_site_fract_z
 _atom_site_occupancy
  Cr  Cr0  1  0.50000000  0.00000000  0.10623000  1
  Cr  Cr1  1  0.00000000  0.50000000  0.89377000  1
  Te  Te0  1  0.50000000  0.00000000  0.70244400  1
  Te  Te1  1  0.00000000  0.50000000  0.29755600  1
  N  N0  1  0.50000000  0.50000000  0.00000000  1
  N  N1  1  0.00000000  0.00000000  0.00000000  1
loop_
_geom_bond_atom_site_label_1
_geom_bond_atom_site_label_2
_geom_bond_distance
_geom_bond_site_symmetry_2
Cr0 N0 1.951744 1_555
Cr0 N1 1.951744 1_655
Cr0 N0 1.951744 1_545
Cr0 N1 1.951744 1_555
Cr0 Te1 2.983497 1_545
Cr0 Te1 2.983497 1_555
Cr0 Te1 2.983497 1_655
Cr0 Te1 2.983497 1_645
Cr1 N0 1.951744 1_556
Cr1 N1 1.951744 1_566
Cr1 N1 1.951744 1_556
Cr1 N0 1.951744 1_456
Cr1 Te0 2.983497 1_565
Cr1 Te0 2.983497 1_455
Cr1 Te0 2.983497 1_555
Cr1 Te0 2.983497 1_465
