# generated using pymatgen
data_HfCrAgS4
_symmetry_space_group_name_H-M   'P 1'
_cell_length_a   6.60730600
_cell_length_b   7.72748367
_cell_length_c   12.86098441
_cell_angle_alpha   98.20122876
_cell_angle_beta   94.25730791
_cell_angle_gamma   89.74811966
_symmetry_Int_Tables_number   1
_chemical_formula_structural   HfCrAgS4
_chemical_formula_sum   'Hf4 Cr4 Ag4 S16'
_cell_volume   648.13259298
_cell_formula_units_Z   4
loop_
 _symmetry_equiv_pos_site_id
 _symmetry_equiv_pos_as_xyz
  1  'x, y, z'
loop_
 _atom_site_type_symbol
 _atom_site_label
 _atom_site_symmetry_multiplicity
 _atom_site_fract_x
 _atom_site_fract_y
 _atom_site_fract_z
 _atom_site_occupancy
  Hf  Hf0  1  0.14539700  0.70536700  0.30598700  1
  Hf  Hf1  1  0.75882200  0.12564800  0.99979400  1
  Hf  Hf2  1  0.24100800  0.88430600  0.00019500  1
  Hf  Hf3  1  0.36571400  0.54937100  0.69669400  1
  Cr  Cr0  1  0.84602800  0.29410500  0.70285100  1
  Cr  Cr1  1  0.64102200  0.44598400  0.29588400  1
  Cr  Cr2  1  0.63449500  0.95355900  0.29654000  1
  Cr  Cr3  1  0.37509500  0.05451800  0.70133200  1
  Ag  Ag0  1  0.86595200  0.80089300  0.69647200  1
  Ag  Ag1  1  0.11998600  0.20176100  0.30685500  1
  Ag  Ag2  1  0.74840700  0.61543800  0.99967000  1
  Ag  Ag3  1  0.25629000  0.36418300  0.00005900  1
  S  S0  1  0.88238900  0.32994700  0.87782500  1
  S  S1  1  0.12602100  0.66614100  0.11821400  1
  S  S2  1  0.90735800  0.85928800  0.89721800  1
  S  S3  1  0.09033200  0.14125200  0.10623200  1
  S  S4  1  0.76545100  0.21518300  0.36085000  1
  S  S5  1  0.21657300  0.79362400  0.62448900  1
  S  S6  1  0.79620500  0.71436500  0.36067000  1
  S  S7  1  0.17083200  0.27675600  0.64125300  1
  S  S8  1  0.67610600  0.05810000  0.63473400  1
  S  S9  1  0.33399700  0.96398700  0.37490100  1
  S  S10  1  0.69463500  0.51520500  0.62757900  1
  S  S11  1  0.33457600  0.46989100  0.36910200  1
  S  S12  1  0.58540000  0.92679200  0.11424400  1
  S  S13  1  0.41887500  0.07460600  0.88440800  1
  S  S14  1  0.62174400  0.39177800  0.12008200  1
  S  S15  1  0.38129400  0.60795100  0.88586900  1
loop_
_geom_bond_atom_site_label_1
_geom_bond_atom_site_label_2
_geom_bond_distance
_geom_bond_site_symmetry_2
Hf0 S9 2.384302 1_555
Hf0 S1 2.384497 1_555
Hf0 S11 2.404816 1_555
Hf0 S6 2.459317 1_455
Hf1 S3 2.489231 1_656
Hf1 S2 2.517915 1_545
Hf1 S0 2.554912 1_555
Hf1 S14 2.593614 1_556
Hf1 S13 2.597843 1_555
Hf1 S12 2.598481 1_546
Hf2 S2 2.479623 1_454
Hf2 S3 2.490983 1_565
Hf2 S1 2.575992 1_555
Hf2 S13 2.580881 1_564
Hf2 S12 2.609748 1_555
Hf2 S15 2.621198 1_554
Hf3 S5 2.396613 1_555
Hf3 S15 2.404973 1_555
Hf3 S10 2.407861 1_555
Hf3 S7 2.462378 1_555
Cr0 S8 2.184057 1_555
Cr0 S0 2.222824 1_555
Cr0 S10 2.273759 1_555
Cr0 S7 2.338979 1_655
Cr1 S4 2.205719 1_555
Cr1 S14 2.234111 1_555
Cr1 S11 2.291452 1_555
Cr1 S6 2.333564 1_555
Cr2 S4 2.225328 1_565
Cr2 S9 2.288406 1_555
Cr2 S12 2.322507 1_555
Cr2 S6 2.350547 1_555
Cr3 S8 2.224897 1_555
Cr3 S5 2.331236 1_545
Cr3 S13 2.333799 1_555
Cr3 S7 2.360329 1_555
Ag0 S10 2.501013 1_555
Ag0 S8 2.536682 1_565
Ag0 S2 2.551068 1_555
Ag0 S5 2.555302 1_655
Ag1 S4 2.489825 1_455
Ag1 S11 2.515621 1_555
Ag1 S9 2.528550 1_545
Ag1 S3 2.548734 1_555
Ag2 S14 2.656030 1_556
Ag2 S0 2.703479 1_555
Ag2 S2 2.705762 1_555
Ag2 S15 2.734795 1_555
Ag2 S1 2.824249 1_656
Ag2 S12 2.884691 1_556
Ag3 S3 2.635273 1_555
Ag3 S15 2.714840 1_554
Ag3 S14 2.759719 1_555
Ag3 S13 2.764084 1_554
Ag3 S1 2.767593 1_555
Ag3 S0 2.820472 1_454
