# generated using pymatgen
data_YWO2
_symmetry_space_group_name_H-M   'P 1'
_cell_length_a   7.48930163
_cell_length_b   7.48930163
_cell_length_c   7.48930163
_cell_angle_alpha   130.02379694
_cell_angle_beta   130.02379694
_cell_angle_gamma   73.36872430
_symmetry_Int_Tables_number   1
_chemical_formula_structural   YWO2
_chemical_formula_sum   'Y4 W4 O8'
_cell_volume   240.45551115
_cell_formula_units_Z   4
loop_
 _symmetry_equiv_pos_site_id
 _symmetry_equiv_pos_as_xyz
  1  'x, y, z'
loop_
 _atom_site_type_symbol
 _atom_site_label
 _atom_site_symmetry_multiplicity
 _atom_site_fract_x
 _atom_site_fract_y
 _atom_site_fract_z
 _atom_site_occupancy
  Y  Y0  1  0.87500000  0.62500000  0.25000000  1
  Y  Y1  1  0.37500000  0.62500000  0.75000000  1
  Y  Y2  1  0.37500000  0.62500000  0.25000000  1
  Y  Y3  1  0.37500000  0.12500000  0.75000000  1
  W  W0  1  0.37500000  0.12500000  0.25000000  1
  W  W1  1  0.87500000  0.12500000  0.75000000  1
  W  W2  1  0.87500000  0.12500000  0.25000000  1
  W  W3  1  0.87500000  0.62500000  0.75000000  1
  O  O0  1  0.17745100  0.40602800  0.22857700  1
  O  O1  1  0.17745100  0.94887300  0.77142300  1
  O  O2  1  0.15602800  0.42745100  0.72857700  1
  O  O3  1  0.57254900  0.84397200  0.27142300  1
  O  O4  1  0.69887300  0.42745100  0.27142300  1
  O  O5  1  0.57254900  0.30112700  0.72857700  1
  O  O6  1  0.59397200  0.82254900  0.77142300  1
  O  O7  1  0.05112700  0.82254900  0.22857700  1
loop_
_geom_bond_atom_site_label_1
_geom_bond_atom_site_label_2
_geom_bond_distance
_geom_bond_site_symmetry_2
O0 W1 2.234053 1_454
O0 W0 2.234053 1_555
O0 Y2 2.376812 1_555
O0 Y1 2.418406 1_555
O0 Y0 2.418406 1_455
O1 W0 2.234051 1_566
O1 W1 2.234055 1_465
O1 Y3 2.376817 1_565
O1 Y1 2.418400 1_555
O1 Y0 2.418404 1_455
O2 W2 2.234053 1_455
O2 W3 2.234053 1_455
O2 Y1 2.376812 1_555
O2 Y3 2.418406 1_555
O2 Y2 2.418406 1_556
O3 W0 2.234053 1_565
O3 W1 2.234053 1_565
O3 Y2 2.376812 1_555
O3 Y1 2.418406 1_554
O3 Y0 2.418406 1_555
O4 W3 2.234051 1_555
O4 W2 2.234055 1_555
O4 Y0 2.376817 1_555
O4 Y2 2.418400 1_555
O4 Y3 2.418404 1_554
O5 W0 2.234051 1_555
O5 W1 2.234055 1_555
O5 Y3 2.376817 1_555
O5 Y1 2.418400 1_555
O5 Y0 2.418404 1_556
O6 W2 2.234053 1_566
O6 W3 2.234053 1_555
O6 Y1 2.376812 1_555
O6 Y3 2.418406 1_565
O6 Y2 2.418406 1_555
O7 W3 2.234051 1_454
O7 W2 2.234055 1_465
O7 Y0 2.376817 1_455
O7 Y2 2.418400 1_555
O7 Y3 2.418404 1_565
