# generated using pymatgen
data_Sm3(SiPd)2
_symmetry_space_group_name_H-M   'P 1'
_cell_length_a   5.71267800
_cell_length_b   8.07808300
_cell_length_c   13.14308100
_cell_angle_alpha   90.00000000
_cell_angle_beta   90.00000000
_cell_angle_gamma   90.00000000
_symmetry_Int_Tables_number   1
_chemical_formula_structural   Sm3(SiPd)2
_chemical_formula_sum   'Sm12 Si8 Pd8'
_cell_volume   606.52016006
_cell_formula_units_Z   4
loop_
 _symmetry_equiv_pos_site_id
 _symmetry_equiv_pos_as_xyz
  1  'x, y, z'
loop_
 _atom_site_type_symbol
 _atom_site_label
 _atom_site_symmetry_multiplicity
 _atom_site_fract_x
 _atom_site_fract_y
 _atom_site_fract_z
 _atom_site_occupancy
  Sm  Sm0  1  0.64299600  0.25121300  0.25000000  1
  Sm  Sm1  1  0.35700400  0.74878700  0.75000000  1
  Sm  Sm2  1  0.35700400  0.75121300  0.25000000  1
  Sm  Sm3  1  0.64299600  0.24878700  0.75000000  1
  Sm  Sm4  1  0.12973100  0.39146300  0.10411100  1
  Sm  Sm5  1  0.87026900  0.60853700  0.89588900  1
  Sm  Sm6  1  0.87026900  0.60853700  0.60411100  1
  Sm  Sm7  1  0.87026900  0.89146300  0.39588900  1
  Sm  Sm8  1  0.12973100  0.39146300  0.39588900  1
  Sm  Sm9  1  0.12973100  0.10853700  0.60411100  1
  Sm  Sm10  1  0.12973100  0.10853700  0.89588900  1
  Sm  Sm11  1  0.87026900  0.89146300  0.10411100  1
  Si  Si0  1  0.14803000  0.10279800  0.25000000  1
  Si  Si1  1  0.85197000  0.89720200  0.75000000  1
  Si  Si2  1  0.85197000  0.60279800  0.25000000  1
  Si  Si3  1  0.14803000  0.39720200  0.75000000  1
  Si  Si4  1  0.66922800  0.25000000  0.00000000  1
  Si  Si5  1  0.33077200  0.75000000  0.00000000  1
  Si  Si6  1  0.33077200  0.75000000  0.50000000  1
  Si  Si7  1  0.66922800  0.25000000  0.50000000  1
  Pd  Pd0  1  0.38257500  0.04019900  0.09184700  1
  Pd  Pd1  1  0.61742500  0.95980100  0.90815300  1
  Pd  Pd2  1  0.61742500  0.95980100  0.59184700  1
  Pd  Pd3  1  0.61742500  0.54019900  0.40815300  1
  Pd  Pd4  1  0.38257500  0.04019900  0.40815300  1
  Pd  Pd5  1  0.38257500  0.45980100  0.59184700  1
  Pd  Pd6  1  0.38257500  0.45980100  0.90815300  1
  Pd  Pd7  1  0.61742500  0.54019900  0.09184700  1
loop_
_geom_bond_atom_site_label_1
_geom_bond_atom_site_label_2
_geom_bond_distance
_geom_bond_site_symmetry_2
Si0 Sm11 3.018081 1_445
Si0 Sm7 3.018081 1_445
Si0 Sm4 3.020768 1_555
Si0 Sm8 3.020768 1_555
Si0 Sm0 3.071254 1_555
Si0 Sm2 3.080830 1_545
Si0 Sm0 3.124286 1_455
Si1 Sm9 3.018081 1_665
Si1 Sm10 3.018081 1_665
Si1 Sm5 3.020768 1_555
Si1 Sm6 3.020768 1_555
Si1 Sm1 3.071254 1_555
Si1 Sm3 3.080830 1_565
Si1 Sm1 3.124286 1_655
Si2 Sm8 3.018081 1_655
Si2 Sm4 3.018081 1_655
Si2 Sm7 3.020768 1_555
Si2 Sm11 3.020768 1_555
Si2 Sm2 3.071254 1_555
Si2 Sm0 3.080830 1_555
Si2 Sm2 3.124286 1_655
Si3 Sm5 3.018081 1_455
Si3 Sm6 3.018081 1_455
Si3 Sm10 3.020768 1_555
Si3 Sm9 3.020768 1_555
Si3 Sm3 3.071254 1_555
Si3 Sm1 3.080830 1_555
Si3 Sm3 3.124286 1_455
Si4 Sm10 3.177867 1_654
Si4 Sm4 3.177867 1_655
Si4 Sm3 3.289200 1_554
Si4 Sm0 3.289200 1_555
Si4 Sm5 3.402921 1_554
Si4 Sm11 3.402921 1_545
Si5 Sm5 3.177867 1_454
Si5 Sm11 3.177867 1_455
Si5 Sm1 3.289200 1_554
Si5 Sm2 3.289200 1_555
Si5 Sm4 3.402921 1_555
Si5 Sm10 3.402921 1_564
Si6 Sm6 3.177867 1_455
Si6 Sm7 3.177867 1_455
Si6 Sm2 3.289200 1_555
Si6 Sm1 3.289200 1_555
Si6 Sm8 3.402921 1_555
Si6 Sm9 3.402921 1_565
Si7 Sm8 3.177867 1_655
Si7 Sm9 3.177867 1_655
Si7 Sm3 3.289200 1_555
Si7 Sm0 3.289200 1_555
Si7 Sm6 3.402921 1_555
Si7 Sm7 3.402921 1_545
Pd0 Si0 2.524211 1_555
Pd0 Si4 2.647852 1_555
Pd0 Si5 2.653358 1_545
Pd0 Pd1 2.837362 1_544
Pd0 Sm10 3.004038 1_554
Pd0 Sm11 3.038355 1_545
Pd0 Sm0 3.072382 1_555
Pd0 Sm2 3.129163 1_545
Pd0 Sm11 3.167776 1_445
Pd0 Sm4 3.188095 1_555
Pd1 Si1 2.524211 1_555
Pd1 Si5 2.647852 1_556
Pd1 Si4 2.653358 1_566
Pd1 Sm11 3.004038 1_556
Pd1 Sm10 3.038355 1_565
Pd1 Sm1 3.072382 1_555
Pd1 Sm3 3.129163 1_565
Pd1 Sm10 3.167776 1_665
Pd1 Sm5 3.188095 1_555
Pd2 Si1 2.524211 1_555
Pd2 Si6 2.647852 1_555
Pd2 Si7 2.653358 1_565
Pd2 Pd4 2.837362 1_565
Pd2 Sm7 3.004038 1_555
Pd2 Sm9 3.038355 1_565
Pd2 Sm1 3.072382 1_555
Pd2 Sm3 3.129163 1_565
Pd2 Sm9 3.167776 1_665
Pd2 Sm6 3.188095 1_555
Pd3 Si2 2.524211 1_555
Pd3 Si6 2.647852 1_555
Pd3 Si7 2.653358 1_555
Pd3 Pd5 2.837362 1_555
Pd3 Sm6 3.004038 1_555
Pd3 Sm8 3.038355 1_555
Pd3 Sm2 3.072382 1_555
Pd3 Sm0 3.129163 1_555
Pd3 Sm8 3.167776 1_655
Pd3 Sm7 3.188095 1_555
Pd4 Si0 2.524211 1_555
Pd4 Si7 2.647852 1_555
Pd4 Si6 2.653358 1_545
Pd4 Sm9 3.004038 1_555
Pd4 Sm7 3.038355 1_545
Pd4 Sm0 3.072382 1_555
Pd4 Sm2 3.129163 1_545
Pd4 Sm7 3.167776 1_445
Pd4 Sm8 3.188095 1_555
Pd5 Si3 2.524211 1_555
Pd5 Si7 2.647852 1_555
Pd5 Si6 2.653358 1_555
Pd5 Sm8 3.004038 1_555
Pd5 Sm6 3.038355 1_555
Pd5 Sm3 3.072382 1_555
Pd5 Sm1 3.129163 1_555
Pd5 Sm6 3.167776 1_455
Pd5 Sm9 3.188095 1_555
Pd6 Si3 2.524211 1_555
Pd6 Si4 2.647852 1_556
Pd6 Si5 2.653358 1_556
Pd6 Pd7 2.837362 1_556
Pd6 Sm4 3.004038 1_556
Pd6 Sm5 3.038355 1_555
Pd6 Sm3 3.072382 1_555
Pd6 Sm1 3.129163 1_555
Pd6 Sm5 3.167776 1_455
Pd6 Sm10 3.188095 1_555
Pd7 Si2 2.524211 1_555
Pd7 Si5 2.647852 1_555
Pd7 Si4 2.653358 1_555
Pd7 Sm5 3.004038 1_554
Pd7 Sm4 3.038355 1_555
Pd7 Sm2 3.072382 1_555
Pd7 Sm0 3.129163 1_555
Pd7 Sm4 3.167776 1_655
Pd7 Sm11 3.188095 1_555
