# generated using pymatgen
data_TlMo3Br7
_symmetry_space_group_name_H-M   'P 1'
_cell_length_a   14.27111880
_cell_length_b   14.28159969
_cell_length_c   14.37965397
_cell_angle_alpha   90.00000000
_cell_angle_beta   90.00000000
_cell_angle_gamma   90.00000000
_symmetry_Int_Tables_number   1
_chemical_formula_structural   TlMo3Br7
_chemical_formula_sum   'Tl8 Mo24 Br56'
_cell_volume   2930.78062994
_cell_formula_units_Z   8
loop_
 _symmetry_equiv_pos_site_id
 _symmetry_equiv_pos_as_xyz
  1  'x, y, z'
loop_
 _atom_site_type_symbol
 _atom_site_label
 _atom_site_symmetry_multiplicity
 _atom_site_fract_x
 _atom_site_fract_y
 _atom_site_fract_z
 _atom_site_occupancy
  Tl  Tl0  1  0.99268200  0.50313618  0.99938759  1
  Tl  Tl1  1  0.99268200  0.99686382  0.50061241  1
  Tl  Tl2  1  0.50731800  0.50313618  0.50061241  1
  Tl  Tl3  1  0.50731800  0.99686382  0.99938759  1
  Tl  Tl4  1  0.75000000  0.25000000  0.25000000  1
  Tl  Tl5  1  0.25000000  0.75000000  0.25000000  1
  Tl  Tl6  1  0.25000000  0.25000000  0.75000000  1
  Tl  Tl7  1  0.25000000  0.75000000  0.75000000  1
  Mo  Mo0  1  0.62263950  0.46999324  0.95888611  1
  Mo  Mo1  1  0.62263950  0.03000676  0.54111389  1
  Mo  Mo2  1  0.87736050  0.46999324  0.54111389  1
  Mo  Mo3  1  0.87736050  0.03000676  0.95888611  1
  Mo  Mo4  1  0.95726656  0.62168586  0.46932633  1
  Mo  Mo5  1  0.54273344  0.62168586  0.03067367  1
  Mo  Mo6  1  0.54273344  0.87831414  0.46932633  1
  Mo  Mo7  1  0.95726656  0.87831414  0.03067367  1
  Mo  Mo8  1  0.47040388  0.95808084  0.61999608  1
  Mo  Mo9  1  0.02959612  0.54191916  0.61999608  1
  Mo  Mo10  1  0.47040388  0.54191916  0.88000392  1
  Mo  Mo11  1  0.02959612  0.95808084  0.88000392  1
  Mo  Mo12  1  0.38052812  0.53125763  0.04174394  1
  Mo  Mo13  1  0.38052812  0.96874237  0.45825606  1
  Mo  Mo14  1  0.11947188  0.53125763  0.45825606  1
  Mo  Mo15  1  0.11947188  0.96874237  0.04174394  1
  Mo  Mo16  1  0.04043366  0.37986091  0.53114064  1
  Mo  Mo17  1  0.45956634  0.37986091  0.96885936  1
  Mo  Mo18  1  0.45956634  0.12013909  0.53114064  1
  Mo  Mo19  1  0.04043366  0.12013909  0.96885936  1
  Mo  Mo20  1  0.53240744  0.04139635  0.38024061  1
  Mo  Mo21  1  0.96759256  0.45860365  0.38024061  1
  Mo  Mo22  1  0.53240744  0.45860365  0.11975939  1
  Mo  Mo23  1  0.96759256  0.04139635  0.11975939  1
  Br  Br0  1  0.63102478  0.63057471  0.87048969  1
  Br  Br1  1  0.63102478  0.86942529  0.62951031  1
  Br  Br2  1  0.86897522  0.63057471  0.62951031  1
  Br  Br3  1  0.86897522  0.86942529  0.87048969  1
  Br  Br4  1  0.37100611  0.37000871  0.12907618  1
  Br  Br5  1  0.37100611  0.12999129  0.37092382  1
  Br  Br6  1  0.12899389  0.37000871  0.37092382  1
  Br  Br7  1  0.12899389  0.12999129  0.12907618  1
  Br  Br8  1  0.69159281  0.54926951  0.10880170  1
  Br  Br9  1  0.69159281  0.95073049  0.39119830  1
  Br  Br10  1  0.80840719  0.54926951  0.39119830  1
  Br  Br11  1  0.80840719  0.95073049  0.10880170  1
  Br  Br12  1  0.10905848  0.69165025  0.54641425  1
  Br  Br13  1  0.39094152  0.69165025  0.95358575  1
  Br  Br14  1  0.39094152  0.80834975  0.54641425  1
  Br  Br15  1  0.10905848  0.80834975  0.95358575  1
  Br  Br16  1  0.54970131  0.10829012  0.68958341  1
  Br  Br17  1  0.95029869  0.39170988  0.68958341  1
  Br  Br18  1  0.54970131  0.39170988  0.81041659  1
  Br  Br19  1  0.95029869  0.10829012  0.81041659  1
  Br  Br20  1  0.30911048  0.45437549  0.89160986  1
  Br  Br21  1  0.30911048  0.04562451  0.60839014  1
  Br  Br22  1  0.19088952  0.45437549  0.60839014  1
  Br  Br23  1  0.19088952  0.04562451  0.89160986  1
  Br  Br24  1  0.88974236  0.30862408  0.45471235  1
  Br  Br25  1  0.61025764  0.30862408  0.04528765  1
  Br  Br26  1  0.61025764  0.19137592  0.45471235  1
  Br  Br27  1  0.88974236  0.19137592  0.04528765  1
  Br  Br28  1  0.45532839  0.89081253  0.30924482  1
  Br  Br29  1  0.04467161  0.60918747  0.30924482  1
  Br  Br30  1  0.45532839  0.60918747  0.19075518  1
  Br  Br31  1  0.04467161  0.89081253  0.19075518  1
  Br  Br32  1  0.79142731  0.42585532  0.90396820  1
  Br  Br33  1  0.79142731  0.07414468  0.59603180  1
  Br  Br34  1  0.70857269  0.42585532  0.59603180  1
  Br  Br35  1  0.70857269  0.07414468  0.90396820  1
  Br  Br36  1  0.90323097  0.79069959  0.42576291  1
  Br  Br37  1  0.59676903  0.79069959  0.07423709  1
  Br  Br38  1  0.59676903  0.70930041  0.42576291  1
  Br  Br39  1  0.90323097  0.70930041  0.07423709  1
  Br  Br40  1  0.42439026  0.90223583  0.79008672  1
  Br  Br41  1  0.07560974  0.59776417  0.79008672  1
  Br  Br42  1  0.42439026  0.59776417  0.70991328  1
  Br  Br43  1  0.07560974  0.90223583  0.70991328  1
  Br  Br44  1  0.20972311  0.57628291  0.09818264  1
  Br  Br45  1  0.20972311  0.92371709  0.40181736  1
  Br  Br46  1  0.29027689  0.57628291  0.40181736  1
  Br  Br47  1  0.29027689  0.92371709  0.09818264  1
  Br  Br48  1  0.09821170  0.20957898  0.57621799  1
  Br  Br49  1  0.40178830  0.20957898  0.92378201  1
  Br  Br50  1  0.40178830  0.29042102  0.57621799  1
  Br  Br51  1  0.09821170  0.29042102  0.92378201  1
  Br  Br52  1  0.57620357  0.09826795  0.21015951  1
  Br  Br53  1  0.92379643  0.40173205  0.21015951  1
  Br  Br54  1  0.57620357  0.40173205  0.28984049  1
  Br  Br55  1  0.92379643  0.09826795  0.28984049  1
loop_
_geom_bond_atom_site_label_1
_geom_bond_atom_site_label_2
_geom_bond_distance
_geom_bond_site_symmetry_2
Br0 Mo10 2.622251 1_555
Br0 Mo0 2.624794 1_555
Br0 Mo5 2.628567 1_556
Br1 Mo8 2.622251 1_555
Br1 Mo1 2.624794 1_565
Br1 Mo6 2.628567 1_555
Br2 Mo9 2.622251 1_655
Br2 Mo2 2.624794 1_555
Br2 Mo4 2.628567 1_555
Br3 Mo11 2.622251 1_655
Br3 Mo3 2.624794 1_565
Br3 Mo7 2.628567 1_556
Br4 Mo12 2.626563 1_555
Br4 Mo22 2.631430 1_555
Br4 Mo17 2.631522 1_554
Br5 Mo13 2.626563 1_545
Br5 Mo20 2.631430 1_555
Br5 Mo18 2.631522 1_555
Br6 Mo14 2.626563 1_555
Br6 Mo21 2.631430 1_455
Br6 Mo16 2.631522 1_555
Br7 Mo15 2.626563 1_545
Br7 Mo23 2.631430 1_455
Br7 Mo19 2.631522 1_554
Br8 Mo5 2.616256 1_555
Br8 Mo22 2.619606 1_555
Br8 Mo0 2.626287 1_554
Br9 Mo6 2.616256 1_555
Br9 Mo20 2.619606 1_565
Br9 Mo1 2.626287 1_565
Br10 Mo4 2.616256 1_555
Br10 Mo21 2.619606 1_555
Br10 Mo2 2.626287 1_555
Br11 Mo7 2.616256 1_555
Br11 Mo23 2.619606 1_565
Br11 Mo3 2.626287 1_564
Br12 Mo14 2.622260 1_555
Br12 Mo4 2.630546 1_455
Br12 Mo9 2.641644 1_555
Br13 Mo12 2.622260 1_556
Br13 Mo5 2.630546 1_556
Br13 Mo10 2.641644 1_555
Br14 Mo13 2.622260 1_555
Br14 Mo6 2.630546 1_555
Br14 Mo8 2.641644 1_555
Br15 Mo15 2.622260 1_556
Br15 Mo7 2.630546 1_456
Br15 Mo11 2.641644 1_555
Br16 Mo18 2.621862 1_555
Br16 Mo8 2.623729 1_545
Br16 Mo1 2.625150 1_555
Br17 Mo16 2.621862 1_655
Br17 Mo9 2.623729 1_655
Br17 Mo2 2.625150 1_555
Br18 Mo17 2.621862 1_555
Br18 Mo10 2.623729 1_555
Br18 Mo0 2.625150 1_555
Br19 Mo19 2.621862 1_655
Br19 Mo11 2.623729 1_645
Br19 Mo3 2.625150 1_555
Br20 Mo10 2.624779 1_555
Br20 Mo12 2.627763 1_556
Br20 Mo17 2.641358 1_555
Br21 Mo8 2.624779 1_545
Br21 Mo13 2.627763 1_545
Br21 Mo18 2.641358 1_555
Br22 Mo9 2.624779 1_555
Br22 Mo14 2.627763 1_555
Br22 Mo16 2.641358 1_555
Br23 Mo11 2.624779 1_545
Br23 Mo15 2.627763 1_546
Br23 Mo19 2.641358 1_555
Br24 Mo16 2.620625 1_655
Br24 Mo2 2.624132 1_555
Br24 Mo21 2.639898 1_555
Br25 Mo17 2.620625 1_554
Br25 Mo0 2.624132 1_554
Br25 Mo22 2.639898 1_555
Br26 Mo18 2.620625 1_555
Br26 Mo1 2.624132 1_555
Br26 Mo20 2.639898 1_555
Br27 Mo19 2.620625 1_654
Br27 Mo3 2.624132 1_554
Br27 Mo23 2.639898 1_555
Br28 Mo20 2.622446 1_565
Br28 Mo6 2.624235 1_555
Br28 Mo13 2.639981 1_555
Br29 Mo21 2.622446 1_455
Br29 Mo4 2.624235 1_455
Br29 Mo14 2.639981 1_555
Br30 Mo22 2.622446 1_555
Br30 Mo5 2.624235 1_555
Br30 Mo12 2.639981 1_555
Br31 Mo23 2.622446 1_465
Br31 Mo7 2.624235 1_455
Br31 Mo15 2.639981 1_555
Br32 Mo0 2.612136 1_555
Br32 Tl0 3.368965 1_555
Br33 Mo1 2.612136 1_555
Br33 Tl1 3.368965 1_545
Br34 Mo2 2.612136 1_555
Br34 Tl2 3.368965 1_555
Br35 Mo3 2.612136 1_555
Br35 Tl3 3.368965 1_545
Br36 Mo4 2.610258 1_555
Br36 Tl1 3.384862 1_555
Br37 Mo5 2.610258 1_555
Br37 Tl3 3.384862 1_554
Br38 Mo6 2.610258 1_555
Br38 Tl2 3.384862 1_555
Br39 Mo7 2.610258 1_555
Br39 Tl0 3.384862 1_554
Br40 Mo8 2.655082 1_555
Br40 Tl7 3.354570 1_555
Br41 Mo9 2.655082 1_555
Br41 Tl7 3.354570 1_555
Br42 Mo10 2.655082 1_555
Br42 Tl7 3.354570 1_555
Br43 Mo11 2.655082 1_555
Br43 Tl7 3.354570 1_555
Br44 Mo12 2.648382 1_555
Br44 Tl5 3.354309 1_555
Br45 Mo13 2.648382 1_555
Br45 Tl5 3.354309 1_555
Br46 Mo14 2.648382 1_555
Br46 Tl5 3.354309 1_555
Br47 Mo15 2.648382 1_555
Br47 Tl5 3.354309 1_555
Br48 Mo16 2.648430 1_555
Br48 Tl6 3.357119 1_555
Br49 Mo17 2.648430 1_555
Br49 Tl6 3.357119 1_555
Br50 Mo18 2.648430 1_555
Br50 Tl6 3.357119 1_555
Br51 Mo19 2.648430 1_555
Br51 Tl6 3.357119 1_555
Br52 Mo20 2.651760 1_555
Br52 Tl4 3.343012 1_555
Br53 Mo21 2.651760 1_555
Br53 Tl4 3.343012 1_555
Br54 Mo22 2.651760 1_555
Br54 Tl4 3.343012 1_555
Br55 Mo23 2.651760 1_555
Br55 Tl4 3.343012 1_555
