# generated using pymatgen
data_SnHgP14
_symmetry_space_group_name_H-M   'P 1'
_cell_length_a   9.83601125
_cell_length_b   11.01616965
_cell_length_c   13.18742127
_cell_angle_alpha   90.00000000
_cell_angle_beta   90.00000000
_cell_angle_gamma   90.00000000
_symmetry_Int_Tables_number   1
_chemical_formula_structural   SnHgP14
_chemical_formula_sum   'Sn4 Hg4 P56'
_cell_volume   1428.92525523
_cell_formula_units_Z   4
loop_
 _symmetry_equiv_pos_site_id
 _symmetry_equiv_pos_as_xyz
  1  'x, y, z'
loop_
 _atom_site_type_symbol
 _atom_site_label
 _atom_site_symmetry_multiplicity
 _atom_site_fract_x
 _atom_site_fract_y
 _atom_site_fract_z
 _atom_site_occupancy
  Sn  Sn0  1  0.25000000  0.89998851  0.16932809  1
  Sn  Sn1  1  0.75000000  0.10001149  0.83067191  1
  Sn  Sn2  1  0.75000000  0.39998851  0.33067191  1
  Sn  Sn3  1  0.25000000  0.60001149  0.66932809  1
  Hg  Hg0  1  0.25000000  0.00162326  0.81486553  1
  Hg  Hg1  1  0.75000000  0.99837674  0.18513447  1
  Hg  Hg2  1  0.75000000  0.50162326  0.68513447  1
  Hg  Hg3  1  0.25000000  0.49837674  0.31486553  1
  P  P0  1  0.25000000  0.83903556  0.97279225  1
  P  P1  1  0.75000000  0.16096444  0.02720775  1
  P  P2  1  0.75000000  0.33903556  0.52720775  1
  P  P3  1  0.25000000  0.66096444  0.47279225  1
  P  P4  1  0.25000000  0.39298474  0.91112411  1
  P  P5  1  0.75000000  0.60701526  0.08887589  1
  P  P6  1  0.75000000  0.89298474  0.58887589  1
  P  P7  1  0.25000000  0.10701526  0.41112411  1
  P  P8  1  0.07627434  0.15189919  0.02520640  1
  P  P9  1  0.57627434  0.84810081  0.97479360  1
  P  P10  1  0.92372566  0.65189919  0.47479360  1
  P  P11  1  0.42372566  0.34810081  0.52520640  1
  P  P12  1  0.92372566  0.84810081  0.97479360  1
  P  P13  1  0.42372566  0.15189919  0.02520640  1
  P  P14  1  0.07627434  0.34810081  0.52520640  1
  P  P15  1  0.57627434  0.65189919  0.47479360  1
  P  P16  1  0.58262833  0.28678430  0.06019249  1
  P  P17  1  0.08262833  0.71321570  0.93980751  1
  P  P18  1  0.41737167  0.78678430  0.43980751  1
  P  P19  1  0.91737167  0.21321570  0.56019249  1
  P  P20  1  0.41737167  0.71321570  0.93980751  1
  P  P21  1  0.91737167  0.28678430  0.06019249  1
  P  P22  1  0.58262833  0.21321570  0.56019249  1
  P  P23  1  0.08262833  0.78678430  0.43980751  1
  P  P24  1  0.07810680  0.58955455  0.07941839  1
  P  P25  1  0.57810680  0.41044545  0.92058161  1
  P  P26  1  0.92189320  0.08955455  0.42058161  1
  P  P27  1  0.42189320  0.91044545  0.57941839  1
  P  P28  1  0.92189320  0.41044545  0.92058161  1
  P  P29  1  0.42189320  0.58955455  0.07941839  1
  P  P30  1  0.07810680  0.91044545  0.57941839  1
  P  P31  1  0.57810680  0.08955455  0.42058161  1
  P  P32  1  0.07667487  0.17386054  0.32110668  1
  P  P33  1  0.57667487  0.82613946  0.67889332  1
  P  P34  1  0.92332513  0.67386054  0.17889332  1
  P  P35  1  0.42332513  0.32613946  0.82110668  1
  P  P36  1  0.92332513  0.82613946  0.67889332  1
  P  P37  1  0.42332513  0.17386054  0.32110668  1
  P  P38  1  0.07667487  0.32613946  0.82110668  1
  P  P39  1  0.57667487  0.67386054  0.17889332  1
  P  P40  1  0.04563725  0.36397008  0.36165217  1
  P  P41  1  0.54563725  0.63602992  0.63834783  1
  P  P42  1  0.95436275  0.86397008  0.13834783  1
  P  P43  1  0.45436275  0.13602992  0.86165217  1
  P  P44  1  0.95436275  0.63602992  0.63834783  1
  P  P45  1  0.45436275  0.36397008  0.36165217  1
  P  P46  1  0.04563725  0.13602992  0.86165217  1
  P  P47  1  0.54563725  0.86397008  0.13834783  1
  P  P48  1  0.25000000  0.27555843  0.04945033  1
  P  P49  1  0.75000000  0.72444157  0.95054967  1
  P  P50  1  0.75000000  0.77555843  0.45054967  1
  P  P51  1  0.25000000  0.22444157  0.54945033  1
  P  P52  1  0.25000000  0.65411976  0.17145009  1
  P  P53  1  0.75000000  0.34588024  0.82854991  1
  P  P54  1  0.75000000  0.15411976  0.32854991  1
  P  P55  1  0.25000000  0.84588024  0.67145009  1
loop_
_geom_bond_atom_site_label_1
_geom_bond_atom_site_label_2
_geom_bond_distance
_geom_bond_site_symmetry_2
Hg0 P55 2.553534 1_545
Hg0 P43 2.571684 1_555
Hg0 P46 2.571684 1_555
Hg0 P0 2.746895 1_545
Hg1 P54 2.553534 1_565
Hg1 P42 2.571684 1_555
Hg1 P47 2.571684 1_555
Hg1 P1 2.746895 1_565
Hg2 P53 2.553534 1_555
Hg2 P44 2.571684 1_555
Hg2 P41 2.571684 1_555
Hg2 P2 2.746895 1_555
Hg3 P52 2.553534 1_555
Hg3 P45 2.571684 1_555
Hg3 P40 2.571684 1_555
Hg3 P3 2.746895 1_555
P0 P17 2.195577 1_555
P0 P20 2.195577 1_555
P0 Sn0 2.677368 1_556
P1 P21 2.195577 1_555
P1 P16 2.195577 1_555
P1 Sn1 2.677368 1_554
P2 P22 2.195577 1_555
P2 Sn2 2.677368 1_555
P3 Sn3 2.677368 1_555
P4 P48 2.236281 1_556
P10 P44 2.184814 1_555
P10 P23 2.205377 1_655
P10 P50 2.208582 1_555
P11 P45 2.184814 1_555
P11 P22 2.205377 1_555
P11 P51 2.208582 1_555
P12 P42 2.184814 1_556
P12 P17 2.205377 1_655
P12 P49 2.208582 1_555
P13 P43 2.184814 1_554
P13 P16 2.205377 1_555
P13 P48 2.208582 1_555
P14 P40 2.184814 1_555
P14 P19 2.205377 1_455
P14 P51 2.208582 1_555
P15 P41 2.184814 1_555
P15 P18 2.205377 1_555
P15 P50 2.208582 1_555
P16 P25 2.290729 1_554
P17 P24 2.290729 1_556
P18 P3 2.195577 1_555
P18 P27 2.290729 1_555
P19 P2 2.195577 1_555
P19 P26 2.290729 1_555
P20 P9 2.205377 1_555
P20 P29 2.290729 1_556
P21 P8 2.205377 1_655
P21 P28 2.290729 1_554
P22 P31 2.290729 1_555
P23 P3 2.195577 1_555
P23 P30 2.290729 1_555
P24 P52 2.199427 1_555
P24 P34 2.213868 1_455
P25 P53 2.199427 1_555
P25 P35 2.213868 1_555
P26 P54 2.199427 1_555
P26 P32 2.213868 1_655
P27 P55 2.199427 1_555
P27 P33 2.213868 1_555
P28 P53 2.199427 1_555
P28 P38 2.213868 1_655
P29 P52 2.199427 1_555
P29 P39 2.213868 1_555
P30 P55 2.199427 1_555
P30 P36 2.213868 1_455
P31 P54 2.199427 1_555
P31 P37 2.213868 1_555
P32 P40 2.182910 1_555
P32 P7 2.204063 1_555
P33 P41 2.182910 1_555
P33 P6 2.204063 1_555
P34 P42 2.182910 1_555
P34 P5 2.204063 1_555
P35 P43 2.182910 1_555
P35 P4 2.204063 1_555
P36 P44 2.182910 1_555
P36 P6 2.204063 1_555
P37 P45 2.182910 1_555
P37 P7 2.204063 1_555
P38 P46 2.182910 1_555
P38 P4 2.204063 1_555
P39 P47 2.182910 1_555
P39 P5 2.204063 1_555
P40 Sn2 2.963137 1_455
P41 Sn3 2.963137 1_555
P42 Sn0 2.963137 1_655
P43 Sn1 2.963137 1_555
P44 Sn3 2.963137 1_655
P45 Sn2 2.963137 1_555
P46 P8 2.184814 1_556
P46 Sn1 2.963137 1_455
P47 P9 2.184814 1_554
P47 Sn0 2.963137 1_555
P48 P8 2.208582 1_555
P49 P9 2.208582 1_555
P49 P5 2.236281 1_556
P50 P6 2.236281 1_555
P51 P7 2.236281 1_555
P52 Sn0 2.708676 1_555
P53 Sn1 2.708676 1_555
P54 Sn2 2.708676 1_555
P55 Sn3 2.708676 1_555
