# generated using pymatgen
data_Si5H42(C7N)2
_symmetry_space_group_name_H-M   'P 1'
_cell_length_a   13.42896958
_cell_length_b   13.49175131
_cell_length_c   15.74814060
_cell_angle_alpha   90.00000000
_cell_angle_beta   90.00000000
_cell_angle_gamma   90.00000000
_symmetry_Int_Tables_number   1
_chemical_formula_structural   Si5H42(C7N)2
_chemical_formula_sum   'Si20 H168 C56 N8'
_cell_volume   2853.25312060
_cell_formula_units_Z   4
loop_
 _symmetry_equiv_pos_site_id
 _symmetry_equiv_pos_as_xyz
  1  'x, y, z'
loop_
 _atom_site_type_symbol
 _atom_site_label
 _atom_site_symmetry_multiplicity
 _atom_site_fract_x
 _atom_site_fract_y
 _atom_site_fract_z
 _atom_site_occupancy
  Si  Si0  1  0.21397873  0.14008169  0.86322315  1
  Si  Si1  1  0.71397873  0.35991831  0.63677685  1
  Si  Si2  1  0.78602127  0.35991831  0.36322315  1
  Si  Si3  1  0.28602127  0.14008169  0.13677685  1
  Si  Si4  1  0.78602127  0.85991831  0.13677685  1
  Si  Si5  1  0.28602127  0.64008169  0.36322315  1
  Si  Si6  1  0.21397873  0.64008169  0.63677685  1
  Si  Si7  1  0.71397873  0.85991831  0.86322315  1
  Si  Si8  1  0.04307104  0.27114460  0.91769129  1
  Si  Si9  1  0.54307104  0.22885540  0.58230871  1
  Si  Si10  1  0.95692896  0.22885540  0.41769129  1
  Si  Si11  1  0.45692896  0.27114460  0.08230871  1
  Si  Si12  1  0.95692896  0.72885540  0.08230871  1
  Si  Si13  1  0.45692896  0.77114460  0.41769129  1
  Si  Si14  1  0.04307104  0.77114460  0.58230871  1
  Si  Si15  1  0.54307104  0.72885540  0.91769129  1
  Si  Si16  1  0.25000000  0.30105616  0.00000000  1
  Si  Si17  1  0.75000000  0.19894384  0.50000000  1
  Si  Si18  1  0.75000000  0.69894384  0.00000000  1
  Si  Si19  1  0.25000000  0.80105616  0.50000000  1
  H  H0  1  0.36829805  0.44027545  0.96170623  1
  H  H1  1  0.86829805  0.05972455  0.53829377  1
  H  H2  1  0.63170195  0.05972455  0.46170623  1
  H  H3  1  0.13170195  0.44027545  0.03829377  1
  H  H4  1  0.63170195  0.55972455  0.03829377  1
  H  H5  1  0.13170195  0.94027545  0.46170623  1
  H  H6  1  0.36829805  0.94027545  0.53829377  1
  H  H7  1  0.86829805  0.55972455  0.96170623  1
  H  H8  1  0.35966581  0.35429392  0.87588423  1
  H  H9  1  0.85966581  0.14570608  0.62411577  1
  H  H10  1  0.64033419  0.14570608  0.37588423  1
  H  H11  1  0.14033419  0.35429392  0.12411577  1
  H  H12  1  0.64033419  0.64570608  0.12411577  1
  H  H13  1  0.14033419  0.85429392  0.37588423  1
  H  H14  1  0.35966581  0.85429392  0.62411577  1
  H  H15  1  0.85966581  0.64570608  0.87588423  1
  H  H16  1  0.25942250  0.43543688  0.89832228  1
  H  H17  1  0.75942250  0.06456312  0.60167772  1
  H  H18  1  0.74057750  0.06456312  0.39832228  1
  H  H19  1  0.24057750  0.43543688  0.10167772  1
  H  H20  1  0.74057750  0.56456312  0.10167772  1
  H  H21  1  0.24057750  0.93543688  0.39832228  1
  H  H22  1  0.25942250  0.93543688  0.60167772  1
  H  H23  1  0.75942250  0.56456312  0.89832228  1
  H  H24  1  0.96086074  0.10738999  0.89271178  1
  H  H25  1  0.46086074  0.39261001  0.60728822  1
  H  H26  1  0.03913926  0.39261001  0.39271178  1
  H  H27  1  0.53913926  0.10738999  0.10728822  1
  H  H28  1  0.03913926  0.89261001  0.10728822  1
  H  H29  1  0.53913926  0.60738999  0.39271178  1
  H  H30  1  0.96086074  0.60738999  0.60728822  1
  H  H31  1  0.46086074  0.89261001  0.89271178  1
  H  H32  1  0.89295200  0.20729003  0.84778995  1
  H  H33  1  0.39295200  0.29270997  0.65221005  1
  H  H34  1  0.10704800  0.29270997  0.34778995  1
  H  H35  1  0.60704800  0.20729003  0.15221005  1
  H  H36  1  0.10704800  0.79270997  0.15221005  1
  H  H37  1  0.60704800  0.70729003  0.34778995  1
  H  H38  1  0.89295200  0.70729003  0.65221005  1
  H  H39  1  0.39295200  0.79270997  0.84778995  1
  H  H40  1  0.99778870  0.15908335  0.79372141  1
  H  H41  1  0.49778870  0.34091665  0.70627859  1
  H  H42  1  0.00221130  0.34091665  0.29372141  1
  H  H43  1  0.50221130  0.15908335  0.20627859  1
  H  H44  1  0.00221130  0.84091665  0.20627859  1
  H  H45  1  0.50221130  0.65908335  0.29372141  1
  H  H46  1  0.99778870  0.65908335  0.70627859  1
  H  H47  1  0.49778870  0.84091665  0.79372141  1
  H  H48  1  0.37676303  0.09535071  0.93181276  1
  H  H49  1  0.87676303  0.40464929  0.56818724  1
  H  H50  1  0.62323697  0.40464929  0.43181276  1
  H  H51  1  0.12323697  0.09535071  0.06818724  1
  H  H52  1  0.62323697  0.90464929  0.06818724  1
  H  H53  1  0.12323697  0.59535071  0.43181276  1
  H  H54  1  0.37676303  0.59535071  0.56818724  1
  H  H55  1  0.87676303  0.90464929  0.93181276  1
  H  H56  1  0.37330611  0.07004411  0.82088458  1
  H  H57  1  0.87330611  0.42995589  0.67911542  1
  H  H58  1  0.62669389  0.42995589  0.32088458  1
  H  H59  1  0.12669389  0.07004411  0.17911542  1
  H  H60  1  0.62669389  0.92995589  0.17911542  1
  H  H61  1  0.12669389  0.57004411  0.32088458  1
  H  H62  1  0.37330611  0.57004411  0.67911542  1
  H  H63  1  0.87330611  0.92995589  0.82088458  1
  H  H64  1  0.39389237  0.19282535  0.85710504  1
  H  H65  1  0.89389237  0.30717465  0.64289496  1
  H  H66  1  0.60610763  0.30717465  0.35710504  1
  H  H67  1  0.10610763  0.19282535  0.14289496  1
  H  H68  1  0.60610763  0.80717465  0.14289496  1
  H  H69  1  0.10610763  0.69282535  0.35710504  1
  H  H70  1  0.39389237  0.69282535  0.64289496  1
  H  H71  1  0.89389237  0.80717465  0.85710504  1
  H  H72  1  0.07785519  0.45081281  0.88914149  1
  H  H73  1  0.57785519  0.04918719  0.61085851  1
  H  H74  1  0.92214481  0.04918719  0.38914149  1
  H  H75  1  0.42214481  0.45081281  0.11085851  1
  H  H76  1  0.92214481  0.54918719  0.11085851  1
  H  H77  1  0.42214481  0.95081281  0.38914149  1
  H  H78  1  0.07785519  0.95081281  0.61085851  1
  H  H79  1  0.57785519  0.54918719  0.88914149  1
  H  H80  1  0.07106139  0.38293036  0.79241996  1
  H  H81  1  0.57106139  0.11706964  0.70758004  1
  H  H82  1  0.92893861  0.11706964  0.29241996  1
  H  H83  1  0.42893861  0.38293036  0.20758004  1
  H  H84  1  0.92893861  0.61706964  0.20758004  1
  H  H85  1  0.42893861  0.88293036  0.29241996  1
  H  H86  1  0.07106139  0.88293036  0.70758004  1
  H  H87  1  0.57106139  0.61706964  0.79241996  1
  H  H88  1  0.96038940  0.41429475  0.84825019  1
  H  H89  1  0.46038940  0.08570525  0.65174981  1
  H  H90  1  0.03961060  0.08570525  0.34825019  1
  H  H91  1  0.53961060  0.41429475  0.15174981  1
  H  H92  1  0.03961060  0.58570525  0.15174981  1
  H  H93  1  0.53961060  0.91429475  0.34825019  1
  H  H94  1  0.96038940  0.91429475  0.65174981  1
  H  H95  1  0.46038940  0.58570525  0.84825019  1
  H  H96  1  0.99592536  0.34844285  0.05832508  1
  H  H97  1  0.49592536  0.15155715  0.44167492  1
  H  H98  1  0.00407464  0.15155715  0.55832508  1
  H  H99  1  0.50407464  0.34844285  0.94167492  1
  H  H100  1  0.00407464  0.65155715  0.94167492  1
  H  H101  1  0.50407464  0.84844285  0.55832508  1
  H  H102  1  0.99592536  0.84844285  0.44167492  1
  H  H103  1  0.49592536  0.65155715  0.05832508  1
  H  H104  1  0.89197739  0.31313707  0.99617186  1
  H  H105  1  0.39197739  0.18686293  0.50382814  1
  H  H106  1  0.10802261  0.18686293  0.49617186  1
  H  H107  1  0.60802261  0.31313707  0.00382814  1
  H  H108  1  0.10802261  0.68686293  0.00382814  1
  H  H109  1  0.60802261  0.81313707  0.49617186  1
  H  H110  1  0.89197739  0.81313707  0.50382814  1
  H  H111  1  0.39197739  0.68686293  0.99617186  1
  H  H112  1  0.95944986  0.22151384  0.05308204  1
  H  H113  1  0.45944986  0.27848616  0.44691796  1
  H  H114  1  0.04055014  0.27848616  0.55308204  1
  H  H115  1  0.54055014  0.22151384  0.94691796  1
  H  H116  1  0.04055014  0.77848616  0.94691796  1
  H  H117  1  0.54055014  0.72151384  0.55308204  1
  H  H118  1  0.95944986  0.72151384  0.44691796  1
  H  H119  1  0.45944986  0.77848616  0.05308204  1
  H  H120  1  0.18068708  0.98783987  0.94852144  1
  H  H121  1  0.68068708  0.51216013  0.55147856  1
  H  H122  1  0.81931292  0.51216013  0.44852144  1
  H  H123  1  0.31931292  0.98783987  0.05147856  1
  H  H124  1  0.81931292  0.01216013  0.05147856  1
  H  H125  1  0.31931292  0.48783987  0.44852144  1
  H  H126  1  0.18068708  0.48783987  0.55147856  1
  H  H127  1  0.68068708  0.01216013  0.94852144  1
  H  H128  1  0.08169629  0.00538908  0.87480723  1
  H  H129  1  0.58169629  0.49461092  0.62519277  1
  H  H130  1  0.91830371  0.49461092  0.37480723  1
  H  H131  1  0.41830371  0.00538908  0.12519277  1
  H  H132  1  0.91830371  0.99461092  0.12519277  1
  H  H133  1  0.41830371  0.50538908  0.37480723  1
  H  H134  1  0.08169629  0.50538908  0.62519277  1
  H  H135  1  0.58169629  0.99461092  0.87480723  1
  H  H136  1  0.19883194  0.96072497  0.83948530  1
  H  H137  1  0.69883194  0.53927503  0.66051470  1
  H  H138  1  0.80116806  0.53927503  0.33948530  1
  H  H139  1  0.30116806  0.96072497  0.16051470  1
  H  H140  1  0.80116806  0.03927503  0.16051470  1
  H  H141  1  0.30116806  0.46072497  0.33948530  1
  H  H142  1  0.19883194  0.46072497  0.66051470  1
  H  H143  1  0.69883194  0.03927503  0.83948530  1
  H  H144  1  0.11546985  0.16243073  0.72552094  1
  H  H145  1  0.61546985  0.33756927  0.77447906  1
  H  H146  1  0.88453015  0.33756927  0.22552094  1
  H  H147  1  0.38453015  0.16243073  0.27447906  1
  H  H148  1  0.88453015  0.83756927  0.27447906  1
  H  H149  1  0.38453015  0.66243073  0.22552094  1
  H  H150  1  0.11546985  0.66243073  0.77447906  1
  H  H151  1  0.61546985  0.83756927  0.72552094  1
  H  H152  1  0.21176493  0.25169131  0.73629486  1
  H  H153  1  0.71176493  0.24830869  0.76370514  1
  H  H154  1  0.78823507  0.24830869  0.23629486  1
  H  H155  1  0.28823507  0.25169131  0.26370514  1
  H  H156  1  0.78823507  0.74830869  0.26370514  1
  H  H157  1  0.28823507  0.75169131  0.23629486  1
  H  H158  1  0.21176493  0.75169131  0.76370514  1
  H  H159  1  0.71176493  0.74830869  0.73629486  1
  H  H160  1  0.24031812  0.12725100  0.70827543  1
  H  H161  1  0.74031812  0.37274900  0.79172457  1
  H  H162  1  0.75968188  0.37274900  0.20827543  1
  H  H163  1  0.25968188  0.12725100  0.29172457  1
  H  H164  1  0.75968188  0.87274900  0.29172457  1
  H  H165  1  0.25968188  0.62725100  0.20827543  1
  H  H166  1  0.24031812  0.62725100  0.79172457  1
  H  H167  1  0.74031812  0.87274900  0.70827543  1
  C  C0  1  0.31788795  0.38965630  0.92746330  1
  C  C1  1  0.81788795  0.11034370  0.57253670  1
  C  C2  1  0.68211205  0.11034370  0.42746330  1
  C  C3  1  0.18211205  0.38965630  0.07253670  1
  C  C4  1  0.68211205  0.61034370  0.07253670  1
  C  C5  1  0.18211205  0.88965630  0.42746330  1
  C  C6  1  0.31788795  0.88965630  0.57253670  1
  C  C7  1  0.81788795  0.61034370  0.92746330  1
  C  C8  1  0.96824634  0.17664977  0.85664321  1
  C  C9  1  0.46824634  0.32335023  0.64335679  1
  C  C10  1  0.03175366  0.32335023  0.35664321  1
  C  C11  1  0.53175366  0.17664977  0.14335679  1
  C  C12  1  0.03175366  0.82335023  0.14335679  1
  C  C13  1  0.53175366  0.67664977  0.35664321  1
  C  C14  1  0.96824634  0.67664977  0.64335679  1
  C  C15  1  0.46824634  0.82335023  0.85664321  1
  C  C16  1  0.35271626  0.12426157  0.87015870  1
  C  C17  1  0.85271626  0.37573843  0.62984130  1
  C  C18  1  0.64728374  0.37573843  0.37015870  1
  C  C19  1  0.14728374  0.12426157  0.12984130  1
  C  C20  1  0.64728374  0.87573843  0.12984130  1
  C  C21  1  0.14728374  0.62426157  0.37015870  1
  C  C22  1  0.35271626  0.62426157  0.62984130  1
  C  C23  1  0.85271626  0.87573843  0.87015870  1
  C  C24  1  0.03843154  0.39081314  0.85603010  1
  C  C25  1  0.53843154  0.10918686  0.64396990  1
  C  C26  1  0.96156846  0.10918686  0.35603010  1
  C  C27  1  0.46156846  0.39081314  0.14396990  1
  C  C28  1  0.96156846  0.60918686  0.14396990  1
  C  C29  1  0.46156846  0.89081314  0.35603010  1
  C  C30  1  0.03843154  0.89081314  0.64396990  1
  C  C31  1  0.53843154  0.60918686  0.85603010  1
  C  C32  1  0.96701666  0.29047460  0.01651485  1
  C  C33  1  0.46701666  0.20952540  0.48348515  1
  C  C34  1  0.03298334  0.20952540  0.51651485  1
  C  C35  1  0.53298334  0.29047460  0.98348515  1
  C  C36  1  0.03298334  0.70952540  0.98348515  1
  C  C37  1  0.53298334  0.79047460  0.51651485  1
  C  C38  1  0.96701666  0.79047460  0.48348515  1
  C  C39  1  0.46701666  0.70952540  0.01651485  1
  C  C40  1  0.16242911  0.01240187  0.88373758  1
  C  C41  1  0.66242911  0.48759813  0.61626242  1
  C  C42  1  0.83757089  0.48759813  0.38373758  1
  C  C43  1  0.33757089  0.01240187  0.11626242  1
  C  C44  1  0.83757089  0.98759813  0.11626242  1
  C  C45  1  0.33757089  0.51240187  0.38373758  1
  C  C46  1  0.16242911  0.51240187  0.61626242  1
  C  C47  1  0.66242911  0.98759813  0.88373758  1
  C  C48  1  0.19177976  0.17384095  0.74807746  1
  C  C49  1  0.69177976  0.32615905  0.75192254  1
  C  C50  1  0.80822024  0.32615905  0.24807746  1
  C  C51  1  0.30822024  0.17384095  0.25192254  1
  C  C52  1  0.80822024  0.82615905  0.25192254  1
  C  C53  1  0.30822024  0.67384095  0.24807746  1
  C  C54  1  0.19177976  0.67384095  0.75192254  1
  C  C55  1  0.69177976  0.82615905  0.74807746  1
  N  N0  1  0.16765243  0.23061789  0.93524986  1
  N  N1  1  0.66765243  0.26938211  0.56475014  1
  N  N2  1  0.83234757  0.26938211  0.43524986  1
  N  N3  1  0.33234757  0.23061789  0.06475014  1
  N  N4  1  0.83234757  0.76938211  0.06475014  1
  N  N5  1  0.33234757  0.73061789  0.43524986  1
  N  N6  1  0.16765243  0.73061789  0.56475014  1
  N  N7  1  0.66765243  0.76938211  0.93524986  1
loop_
_geom_bond_atom_site_label_1
_geom_bond_atom_site_label_2
_geom_bond_distance
_geom_bond_site_symmetry_2
C0 H8 1.096437 1_555
C0 H16 1.099336 1_555
C0 H0 1.102489 1_555
C0 Si16 1.888104 1_556
C1 H9 1.096437 1_555
C1 H17 1.099336 1_555
C1 H1 1.102489 1_555
C1 Si17 1.888104 1_555
C2 H10 1.096437 1_555
C2 H18 1.099336 1_555
C2 H2 1.102489 1_555
C2 Si17 1.888104 1_555
C3 H11 1.096437 1_555
C3 H19 1.099336 1_555
C3 H3 1.102489 1_555
C3 Si16 1.888104 1_555
C4 H12 1.096437 1_555
C4 H20 1.099336 1_555
C4 H4 1.102489 1_555
C4 Si18 1.888104 1_555
C5 H13 1.096437 1_555
C5 H21 1.099336 1_555
C5 H5 1.102489 1_555
C5 Si19 1.888104 1_555
C6 H14 1.096437 1_555
C6 H22 1.099336 1_555
C6 H6 1.102489 1_555
C6 Si19 1.888104 1_555
C7 H15 1.096437 1_555
C7 H23 1.099336 1_555
C7 H7 1.102489 1_555
C7 Si18 1.888104 1_556
C8 H40 1.093364 1_555
C8 H24 1.098019 1_555
C8 H32 1.101229 1_555
C8 Si8 1.886613 1_655
C9 H41 1.093364 1_555
C9 H25 1.098019 1_555
C9 H33 1.101229 1_555
C9 Si9 1.886613 1_555
C10 H42 1.093364 1_555
C10 H26 1.098019 1_555
C10 H34 1.101229 1_555
C10 Si10 1.886613 1_455
C11 H43 1.093364 1_555
C11 H27 1.098019 1_555
C11 H35 1.101229 1_555
C11 Si11 1.886613 1_555
C12 H44 1.093364 1_555
C12 H28 1.098019 1_555
C12 H36 1.101229 1_555
C12 Si12 1.886613 1_455
C13 H45 1.093364 1_555
C13 H29 1.098019 1_555
C13 H37 1.101229 1_555
C13 Si13 1.886613 1_555
C14 H46 1.093364 1_555
C14 H30 1.098019 1_555
C14 H38 1.101229 1_555
C14 Si14 1.886613 1_655
C15 H47 1.093364 1_555
C15 H31 1.098019 1_555
C15 H39 1.101229 1_555
C15 Si15 1.886613 1_555
C16 H48 1.095054 1_555
C16 H64 1.097144 1_555
C16 H56 1.101665 1_555
C16 Si0 1.878466 1_555
C17 H49 1.095054 1_555
C17 H65 1.097144 1_555
C17 H57 1.101665 1_555
C17 Si1 1.878466 1_555
C18 H50 1.095054 1_555
C18 H66 1.097144 1_555
C18 H58 1.101665 1_555
C18 Si2 1.878466 1_555
C19 H51 1.095054 1_555
C19 H67 1.097144 1_555
C19 H59 1.101665 1_555
C19 Si3 1.878466 1_555
C20 H52 1.095054 1_555
C20 H68 1.097144 1_555
C20 H60 1.101665 1_555
C20 Si4 1.878466 1_555
C21 H53 1.095054 1_555
C21 H69 1.097144 1_555
C21 H61 1.101665 1_555
C21 Si5 1.878466 1_555
C22 H54 1.095054 1_555
C22 H70 1.097144 1_555
C22 H62 1.101665 1_555
C22 Si6 1.878466 1_555
C23 H55 1.095054 1_555
C23 H71 1.097144 1_555
C23 H63 1.101665 1_555
C23 Si7 1.878466 1_555
C24 H80 1.098546 1_555
C24 H72 1.098853 1_555
C24 H88 1.101697 1_455
C24 Si8 1.885087 1_555
C25 H81 1.098546 1_555
C25 H73 1.098853 1_555
C25 H89 1.101697 1_555
C25 Si9 1.885087 1_555
C26 H82 1.098546 1_555
C26 H74 1.098853 1_555
C26 H90 1.101697 1_655
C26 Si10 1.885087 1_555
C27 H83 1.098546 1_555
C27 H75 1.098853 1_555
C27 H91 1.101697 1_555
C27 Si11 1.885087 1_555
C28 H84 1.098546 1_555
C28 H76 1.098853 1_555
C28 H92 1.101697 1_655
C28 Si12 1.885087 1_555
C29 H85 1.098546 1_555
C29 H77 1.098853 1_555
C29 H93 1.101697 1_555
C29 Si13 1.885087 1_555
C30 H86 1.098546 1_555
C30 H78 1.098853 1_555
C30 H94 1.101697 1_455
C30 Si14 1.885087 1_555
C31 H87 1.098546 1_555
C31 H79 1.098853 1_555
C31 H95 1.101697 1_555
C31 Si15 1.885087 1_555
C32 H96 1.093579 1_555
C32 H112 1.098905 1_555
C32 H104 1.100718 1_554
C32 Si8 1.879671 1_654
C33 H97 1.093579 1_555
C33 H113 1.098905 1_555
C33 H105 1.100718 1_555
C33 Si9 1.879671 1_555
C34 H98 1.093579 1_555
C34 H114 1.098905 1_555
C34 H106 1.100718 1_555
C34 Si10 1.879671 1_455
C35 H99 1.093579 1_555
C35 H115 1.098905 1_555
C35 H107 1.100718 1_556
C35 Si11 1.879671 1_556
C36 H100 1.093579 1_555
C36 H116 1.098905 1_555
C36 H108 1.100718 1_556
C36 Si12 1.879671 1_456
C37 H101 1.093579 1_555
C37 H117 1.098905 1_555
C37 H109 1.100718 1_555
C37 Si13 1.879671 1_555
C38 H102 1.093579 1_555
C38 H118 1.098905 1_555
C38 H110 1.100718 1_555
C38 Si14 1.879671 1_655
C39 H103 1.093579 1_555
C39 H119 1.098905 1_555
C39 H111 1.100718 1_554
C39 Si15 1.879671 1_554
C40 H128 1.097329 1_555
C40 H136 1.100336 1_545
C40 H120 1.100360 1_545
C40 Si0 1.884417 1_555
C41 H129 1.097329 1_555
C41 H137 1.100336 1_555
C41 H121 1.100360 1_555
C41 Si1 1.884417 1_555
C42 H130 1.097329 1_555
C42 H138 1.100336 1_555
C42 H122 1.100360 1_555
C42 Si2 1.884417 1_555
C43 H131 1.097329 1_555
C43 H139 1.100336 1_545
C43 H123 1.100360 1_545
C43 Si3 1.884417 1_555
C44 H132 1.097329 1_555
C44 H140 1.100336 1_565
C44 H124 1.100360 1_565
C44 Si4 1.884417 1_555
C45 H133 1.097329 1_555
C45 H141 1.100336 1_555
C45 H125 1.100360 1_555
C45 Si5 1.884417 1_555
C46 H134 1.097329 1_555
C46 H142 1.100336 1_555
C46 H126 1.100360 1_555
C46 Si6 1.884417 1_555
C47 H135 1.097329 1_555
C47 H143 1.100336 1_565
C47 H127 1.100360 1_565
C47 Si7 1.884417 1_555
C48 H144 1.095455 1_555
C48 H152 1.099849 1_555
C48 H160 1.101304 1_555
C48 Si0 1.893275 1_555
C49 H145 1.095455 1_555
C49 H153 1.099849 1_555
C49 H161 1.101304 1_555
C49 Si1 1.893275 1_555
C50 H146 1.095455 1_555
C50 H154 1.099849 1_555
C50 H162 1.101304 1_555
C50 Si2 1.893275 1_555
C51 H147 1.095455 1_555
C51 H155 1.099849 1_555
C51 H163 1.101304 1_555
C51 Si3 1.893275 1_555
C52 H148 1.095455 1_555
C52 H156 1.099849 1_555
C52 H164 1.101304 1_555
C52 Si4 1.893275 1_555
C53 H149 1.095455 1_555
C53 H157 1.099849 1_555
C53 H165 1.101304 1_555
C53 Si5 1.893275 1_555
C54 H150 1.095455 1_555
C54 H158 1.099849 1_555
C54 H166 1.101304 1_555
C54 Si6 1.893275 1_555
C55 H151 1.095455 1_555
C55 H159 1.099849 1_555
C55 H167 1.101304 1_555
C55 Si7 1.893275 1_555
N0 Si0 1.779234 1_555
N0 Si16 1.779270 1_556
N0 Si8 1.781671 1_555
N1 Si1 1.779234 1_555
N1 Si17 1.779270 1_555
N1 Si9 1.781671 1_555
N2 Si2 1.779234 1_555
N2 Si17 1.779270 1_555
N2 Si10 1.781671 1_555
N3 Si3 1.779234 1_555
N3 Si16 1.779270 1_555
N3 Si11 1.781671 1_555
N4 Si4 1.779234 1_555
N4 Si18 1.779270 1_555
N4 Si12 1.781671 1_555
N5 Si5 1.779234 1_555
N5 Si19 1.779270 1_555
N5 Si13 1.781671 1_555
N6 Si6 1.779234 1_555
N6 Si19 1.779270 1_555
N6 Si14 1.781671 1_555
N7 Si7 1.779234 1_555
N7 Si18 1.779270 1_556
N7 Si15 1.781671 1_555
