# generated using pymatgen
data_BaZnIn3
_symmetry_space_group_name_H-M   'P 1'
_cell_length_a   6.92884747
_cell_length_b   6.92884747
_cell_length_c   6.92884747
_cell_angle_alpha   139.74470724
_cell_angle_beta   139.74470724
_cell_angle_gamma   58.24113005
_symmetry_Int_Tables_number   1
_chemical_formula_structural   BaZnIn3
_chemical_formula_sum   'Ba1 Zn1 In3'
_cell_volume   137.64360885
_cell_formula_units_Z   1
loop_
 _symmetry_equiv_pos_site_id
 _symmetry_equiv_pos_as_xyz
  1  'x, y, z'
loop_
 _atom_site_type_symbol
 _atom_site_label
 _atom_site_symmetry_multiplicity
 _atom_site_fract_x
 _atom_site_fract_y
 _atom_site_fract_z
 _atom_site_occupancy
  Ba  Ba0  1  0.00389167  0.00389167  0.00000000  1
  Zn  Zn0  1  0.61734768  0.61734768  -0.00000000  1
  In  In0  1  0.74244786  0.24244786  0.50000000  1
  In  In1  1  0.24244786  0.74244786  0.50000000  1
  In  In2  1  0.39386492  0.39386492  0.00000000  1
loop_
_geom_bond_atom_site_label_1
_geom_bond_atom_site_label_2
_geom_bond_distance
_geom_bond_site_symmetry_2
Ba0 In2 3.625468 1_556
Ba0 In2 3.625468 1_444
Ba0 In2 3.625468 1_455
Ba0 In2 3.625468 1_545
Ba0 Zn0 3.640925 1_556
Ba0 Zn0 3.640925 1_455
Ba0 Zn0 3.640925 1_444
Ba0 Zn0 3.640925 1_545
Ba0 In0 3.745036 1_555
Ba0 In1 3.745036 1_544
Ba0 In1 3.745036 1_555
Ba0 In0 3.745036 1_454
Ba0 In1 3.962633 1_545
Ba0 In0 3.962633 1_455
Ba0 In0 3.962633 1_444
Ba0 In1 3.962633 1_444
In0 Zn0 2.824629 1_545
In0 Zn0 2.824629 1_556
In0 In2 3.007495 1_656
In0 In2 3.007495 1_555
In1 Zn0 2.824629 1_556
In1 Zn0 2.824629 1_455
In1 In2 3.007495 1_566
In1 In2 3.007495 1_555
In2 Zn0 2.705493 1_555
