# generated using pymatgen
data_YMg
_symmetry_space_group_name_H-M   'P 1'
_cell_length_a   17.59274560
_cell_length_b   17.59274560
_cell_length_c   10.90611400
_cell_angle_alpha   90.00000000
_cell_angle_beta   90.00000000
_cell_angle_gamma   156.30162240
_symmetry_Int_Tables_number   1
_chemical_formula_structural   YMg
_chemical_formula_sum   'Y24 Mg24'
_cell_volume   1356.68459413
_cell_formula_units_Z   24
loop_
 _symmetry_equiv_pos_site_id
 _symmetry_equiv_pos_as_xyz
  1  'x, y, z'
loop_
 _atom_site_type_symbol
 _atom_site_label
 _atom_site_symmetry_multiplicity
 _atom_site_fract_x
 _atom_site_fract_y
 _atom_site_fract_z
 _atom_site_occupancy
  Y  Y0_0  1  0.49535200  0.00464800  0.00000000  1
  Y  Y0_1  1  0.49535200  0.00464800  0.50000000  1
  Y  Y0_2  1  0.49535200  0.50464800  0.00000000  1
  Y  Y0_3  1  0.49535200  0.50464800  0.50000000  1
  Y  Y0_4  1  0.99535200  0.00464800  0.00000000  1
  Y  Y0_5  1  0.99535200  0.00464800  0.50000000  1
  Y  Y0_6  1  0.99535200  0.50464800  0.00000000  1
  Y  Y0_7  1  0.99535200  0.50464800  0.50000000  1
  Y  Y1_0  1  0.33555900  0.16444100  0.00000000  1
  Y  Y1_1  1  0.33555900  0.16444100  0.50000000  1
  Y  Y1_2  1  0.33555900  0.66444100  0.00000000  1
  Y  Y1_3  1  0.33555900  0.66444100  0.50000000  1
  Y  Y1_4  1  0.83555900  0.16444100  0.00000000  1
  Y  Y1_5  1  0.83555900  0.16444100  0.50000000  1
  Y  Y1_6  1  0.83555900  0.66444100  0.00000000  1
  Y  Y1_7  1  0.83555900  0.66444100  0.50000000  1
  Y  Y2_0  1  0.05606500  0.44393500  0.25000000  1
  Y  Y2_1  1  0.05606500  0.44393500  0.75000000  1
  Y  Y2_2  1  0.05606500  0.94393500  0.25000000  1
  Y  Y2_3  1  0.05606500  0.94393500  0.75000000  1
  Y  Y2_4  1  0.55606500  0.44393500  0.25000000  1
  Y  Y2_5  1  0.55606500  0.44393500  0.75000000  1
  Y  Y2_6  1  0.55606500  0.94393500  0.25000000  1
  Y  Y2_7  1  0.55606500  0.94393500  0.75000000  1
  Mg  Mg0_0  1  0.16641050  0.33358950  0.00000000  1
  Mg  Mg0_1  1  0.16641050  0.33358950  0.50000000  1
  Mg  Mg0_2  1  0.16641050  0.83358950  0.00000000  1
  Mg  Mg0_3  1  0.16641050  0.83358950  0.50000000  1
  Mg  Mg0_4  1  0.66641050  0.33358950  0.00000000  1
  Mg  Mg0_5  1  0.66641050  0.33358950  0.50000000  1
  Mg  Mg0_6  1  0.66641050  0.83358950  0.00000000  1
  Mg  Mg0_7  1  0.66641050  0.83358950  0.50000000  1
  Mg  Mg1_0  1  0.22156350  0.27843650  0.25000000  1
  Mg  Mg1_1  1  0.22156350  0.27843650  0.75000000  1
  Mg  Mg1_2  1  0.22156350  0.77843650  0.25000000  1
  Mg  Mg1_3  1  0.22156350  0.77843650  0.75000000  1
  Mg  Mg1_4  1  0.72156350  0.27843650  0.25000000  1
  Mg  Mg1_5  1  0.72156350  0.27843650  0.75000000  1
  Mg  Mg1_6  1  0.72156350  0.77843650  0.25000000  1
  Mg  Mg1_7  1  0.72156350  0.77843650  0.75000000  1
  Mg  Mg2_0  1  0.39171650  0.10828350  0.25000000  1
  Mg  Mg2_1  1  0.39171650  0.10828350  0.75000000  1
  Mg  Mg2_2  1  0.39171650  0.60828350  0.25000000  1
  Mg  Mg2_3  1  0.39171650  0.60828350  0.75000000  1
  Mg  Mg2_4  1  0.89171650  0.10828350  0.25000000  1
  Mg  Mg2_5  1  0.89171650  0.10828350  0.75000000  1
  Mg  Mg2_6  1  0.89171650  0.60828350  0.25000000  1
  Mg  Mg2_7  1  0.89171650  0.60828350  0.75000000  1
loop_
_geom_bond_atom_site_label_1
_geom_bond_atom_site_label_2
_geom_bond_distance
_geom_bond_site_symmetry_2
Y0_0 Y2_6 3.435836 1_545
Y0_0 Y2_7 3.435836 1_544
Y0_0 Y1_2 3.593298 1_545
Y0_0 Y1_4 3.593298 1_555
Y0_0 Y0_6 3.612430 1_445
Y0_0 Y0_6 3.612430 1_555
Y0_1 Y2_7 3.435836 1_545
Y0_1 Y2_6 3.435836 1_545
Y0_1 Y1_3 3.593298 1_545
Y0_1 Y1_5 3.593298 1_555
Y0_1 Y0_7 3.612430 1_555
Y0_1 Y0_7 3.612430 1_445
Y0_2 Y2_4 3.435836 1_555
Y0_2 Y2_5 3.435836 1_554
Y0_2 Y1_0 3.593298 1_555
Y0_2 Y1_6 3.593298 1_555
Y0_2 Y0_4 3.612430 1_455
Y0_2 Y0_4 3.612430 1_565
Y0_3 Y2_5 3.435836 1_555
Y0_3 Y2_4 3.435836 1_555
Y0_3 Y1_1 3.593298 1_555
Y0_3 Y1_7 3.593298 1_555
Y0_3 Y0_5 3.612430 1_455
Y0_3 Y0_5 3.612430 1_565
Y0_4 Y2_2 3.435836 1_645
Y0_4 Y2_3 3.435836 1_644
Y0_4 Y1_0 3.593298 1_655
Y0_4 Y1_6 3.593298 1_545
Y0_5 Y2_3 3.435836 1_645
Y0_5 Y2_2 3.435836 1_645
Y0_5 Y1_1 3.593298 1_655
Y0_5 Y1_7 3.593298 1_545
Y0_6 Y2_0 3.435836 1_655
Y0_6 Y2_1 3.435836 1_654
Y0_6 Y1_2 3.593298 1_655
Y0_6 Y1_4 3.593298 1_555
Y0_7 Y2_1 3.435836 1_655
Y0_7 Y2_0 3.435836 1_655
Y0_7 Y1_3 3.593298 1_655
Y0_7 Y1_5 3.593298 1_555
Y1_0 Y2_4 3.424604 1_555
Y1_0 Y2_2 3.424604 1_545
Y1_0 Y2_3 3.424604 1_544
Y1_0 Y2_5 3.424604 1_554
Y1_0 Y1_6 3.612430 1_445
Y1_0 Y1_6 3.612430 1_555
Y1_1 Y2_3 3.424604 1_545
Y1_1 Y2_5 3.424604 1_555
Y1_1 Y2_4 3.424604 1_555
Y1_1 Y2_2 3.424604 1_545
Y1_1 Y1_7 3.612430 1_555
Y1_1 Y1_7 3.612430 1_445
Y1_2 Y2_0 3.424604 1_555
Y1_2 Y2_6 3.424604 1_555
Y1_2 Y2_1 3.424604 1_554
Y1_2 Y2_7 3.424604 1_554
Y1_2 Y1_4 3.612430 1_455
Y1_2 Y1_4 3.612430 1_565
Y1_3 Y2_1 3.424604 1_555
Y1_3 Y2_7 3.424604 1_555
Y1_3 Y2_0 3.424604 1_555
Y1_3 Y2_6 3.424604 1_555
Y1_3 Y1_5 3.612430 1_455
Y1_3 Y1_5 3.612430 1_565
Y1_4 Y2_0 3.424604 1_655
Y1_4 Y2_1 3.424604 1_654
Y1_4 Y2_6 3.424604 1_545
Y1_4 Y2_7 3.424604 1_544
Y1_5 Y2_1 3.424604 1_655
Y1_5 Y2_0 3.424604 1_655
Y1_5 Y2_7 3.424604 1_545
Y1_5 Y2_6 3.424604 1_545
Y1_6 Y2_2 3.424604 1_655
Y1_6 Y2_4 3.424604 1_555
Y1_6 Y2_5 3.424604 1_554
Y1_6 Y2_3 3.424604 1_654
Y1_7 Y2_3 3.424604 1_655
Y1_7 Y2_5 3.424604 1_555
Y1_7 Y2_2 3.424604 1_655
Y1_7 Y2_4 3.424604 1_555
Y2_0 Y2_6 3.612430 1_555
Y2_0 Y2_6 3.612430 1_445
Y2_1 Y2_7 3.612430 1_445
Y2_1 Y2_7 3.612430 1_555
Y2_2 Y2_4 3.612430 1_455
Y2_2 Y2_4 3.612430 1_565
Y2_3 Y2_5 3.612430 1_455
Y2_3 Y2_5 3.612430 1_565
Mg0_0 Y0_2 3.263765 1_555
Mg0_0 Y0_4 3.263765 1_455
Mg0_0 Y1_2 3.318746 1_555
Mg0_0 Y1_4 3.318746 1_455
Mg0_0 Mg1_0 3.322807 1_555
Mg0_0 Mg1_1 3.322807 1_554
Mg0_0 Mg2_2 3.379272 1_555
Mg0_0 Mg2_4 3.379272 1_455
Mg0_0 Mg2_5 3.379272 1_454
Mg0_0 Mg2_3 3.379272 1_554
Mg0_1 Y0_3 3.263765 1_555
Mg0_1 Y0_5 3.263765 1_455
Mg0_1 Y1_5 3.318746 1_455
Mg0_1 Y1_3 3.318746 1_555
Mg0_1 Mg1_1 3.322807 1_555
Mg0_1 Mg1_0 3.322807 1_555
Mg0_1 Mg2_3 3.379272 1_555
Mg0_1 Mg2_5 3.379272 1_455
Mg0_1 Mg2_2 3.379272 1_555
Mg0_1 Mg2_4 3.379272 1_455
Mg0_2 Y0_0 3.263765 1_565
Mg0_2 Y0_6 3.263765 1_455
Mg0_2 Y1_6 3.318746 1_455
Mg0_2 Y1_0 3.318746 1_565
Mg0_2 Mg1_2 3.322807 1_555
Mg0_2 Mg1_3 3.322807 1_554
Mg0_2 Mg2_0 3.379272 1_565
Mg0_2 Mg2_6 3.379272 1_455
Mg0_2 Mg2_1 3.379272 1_564
Mg0_2 Mg2_7 3.379272 1_454
Mg0_3 Y0_1 3.263765 1_565
Mg0_3 Y0_7 3.263765 1_455
Mg0_3 Y1_7 3.318746 1_455
Mg0_3 Y1_1 3.318746 1_565
Mg0_3 Mg1_3 3.322807 1_555
Mg0_3 Mg1_2 3.322807 1_555
Mg0_3 Mg2_7 3.379272 1_455
Mg0_3 Mg2_1 3.379272 1_565
Mg0_3 Mg2_0 3.379272 1_565
Mg0_3 Mg2_6 3.379272 1_455
Mg0_4 Y0_6 3.263765 1_555
Mg0_4 Y0_0 3.263765 1_555
Mg0_4 Y1_6 3.318746 1_555
Mg0_4 Y1_0 3.318746 1_555
Mg0_4 Mg1_4 3.322807 1_555
Mg0_4 Mg1_5 3.322807 1_554
Mg0_4 Mg2_6 3.379272 1_555
Mg0_4 Mg2_0 3.379272 1_555
Mg0_4 Mg2_1 3.379272 1_554
Mg0_4 Mg2_7 3.379272 1_554
Mg0_5 Y0_7 3.263765 1_555
Mg0_5 Y0_1 3.263765 1_555
Mg0_5 Y1_7 3.318746 1_555
Mg0_5 Y1_1 3.318746 1_555
Mg0_5 Mg1_5 3.322807 1_555
Mg0_5 Mg1_4 3.322807 1_555
Mg0_5 Mg2_1 3.379272 1_555
Mg0_5 Mg2_7 3.379272 1_555
Mg0_5 Mg2_6 3.379272 1_555
Mg0_5 Mg2_0 3.379272 1_555
Mg0_6 Y0_4 3.263765 1_565
Mg0_6 Y0_2 3.263765 1_555
Mg0_6 Y1_2 3.318746 1_555
Mg0_6 Y1_4 3.318746 1_565
Mg0_6 Mg1_6 3.322807 1_555
Mg0_6 Mg1_7 3.322807 1_554
Mg0_6 Mg2_4 3.379272 1_565
Mg0_6 Mg2_2 3.379272 1_555
Mg0_6 Mg2_5 3.379272 1_564
Mg0_6 Mg2_3 3.379272 1_554
Mg0_7 Y0_5 3.263765 1_565
Mg0_7 Y0_3 3.263765 1_555
Mg0_7 Y1_3 3.318746 1_555
Mg0_7 Y1_5 3.318746 1_565
Mg0_7 Mg1_7 3.322807 1_555
Mg0_7 Mg1_6 3.322807 1_555
Mg0_7 Mg2_3 3.379272 1_555
Mg0_7 Mg2_5 3.379272 1_565
Mg0_7 Mg2_4 3.379272 1_565
Mg0_7 Mg2_2 3.379272 1_555
Mg1_0 Mg2_2 3.289781 1_555
Mg1_0 Mg2_4 3.289781 1_455
Mg1_0 Y0_2 3.371560 1_555
Mg1_0 Y0_4 3.371560 1_455
Mg1_0 Y0_3 3.371560 1_555
Mg1_0 Y0_5 3.371560 1_455
Mg1_0 Y2_2 3.424875 1_545
Mg1_0 Y2_4 3.424875 1_555
Mg1_1 Mg2_3 3.289781 1_555
Mg1_1 Mg2_5 3.289781 1_455
Mg1_1 Y0_5 3.371560 1_455
Mg1_1 Y0_3 3.371560 1_555
Mg1_1 Y0_4 3.371560 1_456
Mg1_1 Y0_2 3.371560 1_556
Mg1_1 Y2_3 3.424875 1_545
Mg1_1 Y2_5 3.424875 1_555
Mg1_2 Mg2_0 3.289781 1_565
Mg1_2 Mg2_6 3.289781 1_455
Mg1_2 Y0_0 3.371560 1_565
Mg1_2 Y0_1 3.371560 1_565
Mg1_2 Y0_6 3.371560 1_455
Mg1_2 Y0_7 3.371560 1_455
Mg1_2 Y2_6 3.424875 1_555
Mg1_2 Y2_0 3.424875 1_555
Mg1_3 Mg2_1 3.289781 1_565
Mg1_3 Mg2_7 3.289781 1_455
Mg1_3 Y0_7 3.371560 1_455
Mg1_3 Y0_1 3.371560 1_565
Mg1_3 Y0_0 3.371560 1_566
Mg1_3 Y0_6 3.371560 1_456
Mg1_3 Y2_7 3.424875 1_555
Mg1_3 Y2_1 3.424875 1_555
Mg1_4 Mg2_6 3.289781 1_555
Mg1_4 Mg2_0 3.289781 1_555
Mg1_4 Y0_6 3.371560 1_555
Mg1_4 Y0_0 3.371560 1_555
Mg1_4 Y0_7 3.371560 1_555
Mg1_4 Y0_1 3.371560 1_555
Mg1_4 Y2_6 3.424875 1_545
Mg1_4 Y2_0 3.424875 1_655
Mg1_5 Mg2_7 3.289781 1_555
Mg1_5 Mg2_1 3.289781 1_555
Mg1_5 Y0_1 3.371560 1_555
Mg1_5 Y0_7 3.371560 1_555
Mg1_5 Y0_0 3.371560 1_556
Mg1_5 Y0_6 3.371560 1_556
Mg1_5 Y2_7 3.424875 1_545
Mg1_5 Y2_1 3.424875 1_655
Mg1_6 Mg2_4 3.289781 1_565
Mg1_6 Mg2_2 3.289781 1_555
Mg1_6 Y0_3 3.371560 1_555
Mg1_6 Y0_4 3.371560 1_565
Mg1_6 Y0_5 3.371560 1_565
Mg1_6 Y0_2 3.371560 1_555
Mg1_6 Y2_4 3.424875 1_555
Mg1_6 Y2_2 3.424875 1_655
Mg1_7 Mg2_5 3.289781 1_565
Mg1_7 Mg2_3 3.289781 1_555
Mg1_7 Y0_5 3.371560 1_565
Mg1_7 Y0_3 3.371560 1_555
Mg1_7 Y0_4 3.371560 1_566
Mg1_7 Y0_2 3.371560 1_556
Mg1_7 Y2_5 3.424875 1_555
Mg1_7 Y2_3 3.424875 1_655
Mg2_0 Y1_0 3.342699 1_555
Mg2_0 Y1_1 3.342699 1_555
Mg2_0 Y2_2 3.458584 1_545
Mg2_0 Y2_4 3.458584 1_555
Mg2_1 Y1_1 3.342699 1_555
Mg2_1 Y1_0 3.342699 1_556
Mg2_1 Y2_5 3.458584 1_555
Mg2_1 Y2_3 3.458584 1_545
Mg2_2 Y1_2 3.342699 1_555
Mg2_2 Y1_3 3.342699 1_555
Mg2_2 Y2_0 3.458584 1_555
Mg2_2 Y2_6 3.458584 1_555
Mg2_3 Y1_3 3.342699 1_555
Mg2_3 Y1_2 3.342699 1_556
Mg2_3 Y2_1 3.458584 1_555
Mg2_3 Y2_7 3.458584 1_555
Mg2_4 Y1_4 3.342699 1_555
Mg2_4 Y1_5 3.342699 1_555
Mg2_4 Y2_0 3.458584 1_655
Mg2_4 Y2_6 3.458584 1_545
Mg2_5 Y1_5 3.342699 1_555
Mg2_5 Y1_4 3.342699 1_556
Mg2_5 Y2_1 3.458584 1_655
Mg2_5 Y2_7 3.458584 1_545
Mg2_6 Y1_6 3.342699 1_555
Mg2_6 Y1_7 3.342699 1_555
Mg2_6 Y2_2 3.458584 1_655
Mg2_6 Y2_4 3.458584 1_555
Mg2_7 Y1_7 3.342699 1_555
Mg2_7 Y1_6 3.342699 1_556
Mg2_7 Y2_3 3.458584 1_655
Mg2_7 Y2_5 3.458584 1_555
