# generated using pymatgen
data_NdTiCdSbO7
_symmetry_space_group_name_H-M   'P 1'
_cell_length_a   7.35338836
_cell_length_b   7.35338836
_cell_length_c   7.35338836
_cell_angle_alpha   120.81147670
_cell_angle_beta   118.39218125
_cell_angle_gamma   90.70366287
_symmetry_Int_Tables_number   1
_chemical_formula_structural   NdTiCdSbO7
_chemical_formula_sum   'Nd2 Ti2 Cd2 Sb2 O14'
_cell_volume   282.66986416
_cell_formula_units_Z   2
loop_
 _symmetry_equiv_pos_site_id
 _symmetry_equiv_pos_as_xyz
  1  'x, y, z'
loop_
 _atom_site_type_symbol
 _atom_site_label
 _atom_site_symmetry_multiplicity
 _atom_site_fract_x
 _atom_site_fract_y
 _atom_site_fract_z
 _atom_site_occupancy
  Nd  Nd0  1  0.50000000  0.00000000  0.50000000  1
  Nd  Nd1  1  0.00000000  0.00000000  0.00000000  1
  Ti  Ti0  1  0.00000000  0.50000000  0.00000000  1
  Ti  Ti1  1  0.00000000  0.00000000  0.50000000  1
  Cd  Cd0  1  0.50000000  0.00000000  0.00000000  1
  Cd  Cd1  1  0.50000000  0.50000000  0.50000000  1
  Sb  Sb0  1  0.00000000  0.50000000  0.50000000  1
  Sb  Sb1  1  0.50000000  0.50000000  0.00000000  1
  O  O0  1  0.92702500  0.17702500  0.75000000  1
  O  O1  1  0.32695400  0.57695400  0.75000000  1
  O  O2  1  0.93564200  0.57900600  0.76002400  1
  O  O3  1  0.31898100  0.17561800  0.73997600  1
  O  O4  1  0.93564200  0.17561800  0.35663700  1
  O  O5  1  0.31898100  0.57900600  0.14336300  1
  O  O6  1  0.07297500  0.82297500  0.25000000  1
  O  O7  1  0.67304600  0.42304600  0.25000000  1
  O  O8  1  0.06435800  0.42099400  0.23997600  1
  O  O9  1  0.68101900  0.82438200  0.26002400  1
  O  O10  1  0.06435800  0.82438200  0.64336300  1
  O  O11  1  0.68101900  0.42099400  0.85663700  1
  O  O12  1  0.61853400  0.86853400  0.75000000  1
  O  O13  1  0.38146600  0.13146600  0.25000000  1
loop_
_geom_bond_atom_site_label_1
_geom_bond_atom_site_label_2
_geom_bond_distance
_geom_bond_site_symmetry_2
Nd0 O13 2.321903 1_555
Nd0 O12 2.321903 1_545
Nd0 O11 2.548527 1_555
Nd0 O5 2.548527 1_545
Nd0 O9 2.548532 1_545
Nd0 O3 2.548532 1_555
Nd0 O0 2.625355 1_555
Nd0 O6 2.625355 1_545
Nd1 O13 2.321903 1_555
Nd1 O12 2.321903 1_444
Nd1 O2 2.548526 1_444
Nd1 O8 2.548526 1_555
Nd1 O4 2.548532 1_455
Nd1 O10 2.548532 1_544
Nd1 O0 2.625355 1_454
Nd1 O6 2.625355 1_545
Cd0 O12 2.190380 1_544
Cd0 O13 2.190380 1_555
Cd0 O7 2.548641 1_555
Cd0 O1 2.548641 1_544
Cd0 O9 2.691984 1_545
Cd0 O4 2.691984 1_555
Cd0 O10 2.691984 1_544
Cd0 O3 2.691984 1_554
Cd1 O12 2.190380 1_555
Cd1 O13 2.190380 1_555
Cd1 O7 2.548641 1_555
Cd1 O1 2.548641 1_555
Cd1 O2 2.691982 1_555
Cd1 O8 2.691982 1_555
Cd1 O11 2.691989 1_555
Cd1 O5 2.691989 1_555
O0 Ti0 1.966162 1_656
O0 Ti1 1.966162 1_655
O1 Sb0 2.043929 1_555
O1 Sb1 2.043929 1_556
O2 Ti0 1.984492 1_656
O2 Sb0 1.986650 1_655
O3 Ti1 1.984487 1_555
O3 Sb1 1.986651 1_556
O4 Ti1 1.984487 1_655
O4 Sb0 1.986651 1_655
O5 Ti0 1.984487 1_555
O5 Sb1 1.986651 1_555
O6 Ti0 1.966162 1_555
O6 Ti1 1.966162 1_565
O7 Sb1 2.043929 1_555
O7 Sb0 2.043929 1_655
O8 Ti0 1.984492 1_555
O8 Sb0 1.986650 1_555
O9 Ti1 1.984487 1_665
O9 Sb1 1.986651 1_555
O10 Ti1 1.984487 1_565
O10 Sb0 1.986651 1_555
O11 Ti0 1.984487 1_656
O11 Sb1 1.986651 1_556
