# generated using pymatgen
data_Li13Mn6(PO4)8
_symmetry_space_group_name_H-M   'P 1'
_cell_length_a   8.06687280
_cell_length_b   7.98274151
_cell_length_c   11.53602267
_cell_angle_alpha   105.52950801
_cell_angle_beta   75.59661959
_cell_angle_gamma   74.79025258
_symmetry_Int_Tables_number   1
_chemical_formula_structural   Li13Mn6(PO4)8
_chemical_formula_sum   'Li13 Mn6 P8 O32'
_cell_volume   648.75617638
_cell_formula_units_Z   1
loop_
 _symmetry_equiv_pos_site_id
 _symmetry_equiv_pos_as_xyz
  1  'x, y, z'
loop_
 _atom_site_type_symbol
 _atom_site_label
 _atom_site_symmetry_multiplicity
 _atom_site_fract_x
 _atom_site_fract_y
 _atom_site_fract_z
 _atom_site_occupancy
  Li  Li0  1  0.99498200  0.99841900  0.48611700  1
  Li  Li1  1  0.53300000  0.18803600  0.71155000  1
  Li  Li2  1  0.26245000  0.28643900  0.63140800  1
  Li  Li3  1  0.23891600  0.21159400  0.38084700  1
  Li  Li4  1  0.63242900  0.39517400  0.86121900  1
  Li  Li5  1  0.27073100  0.24358600  0.98582600  1
  Li  Li6  1  0.49589900  0.50213500  0.51316000  1
  Li  Li7  1  0.05721200  0.72808100  0.72195800  1
  Li  Li8  1  0.77842700  0.73934300  0.98013700  1
  Li  Li9  1  0.38280200  0.58264400  0.10906200  1
  Li  Li10  1  0.77185900  0.77631900  0.63377600  1
  Li  Li11  1  0.73809000  0.72671200  0.38045500  1
  Li  Li12  1  0.00198100  0.99326700  0.99201100  1
  Mn  Mn0  1  0.51784900  0.24956500  0.21062900  1
  Mn  Mn1  1  0.95202200  0.28385000  0.28070200  1
  Mn  Mn2  1  0.42616600  0.82497400  0.29782300  1
  Mn  Mn3  1  0.99756300  0.76042300  0.20482600  1
  Mn  Mn4  1  0.00430900  0.23479100  0.78794200  1
  Mn  Mn5  1  0.48208400  0.75406800  0.79102100  1
  P  P0  1  0.72152900  0.02771200  0.90006500  1
  P  P1  1  0.62597900  0.13314000  0.40926100  1
  P  P2  1  0.22040800  0.53114600  0.90249100  1
  P  P3  1  0.87758100  0.38027000  0.60434000  1
  P  P4  1  0.11879000  0.61618800  0.40024900  1
  P  P5  1  0.77467700  0.47431600  0.09580000  1
  P  P6  1  0.38293800  0.87258700  0.59724800  1
  P  P7  1  0.27508300  0.97562000  0.09796500  1
  O  O0  1  0.22446000  0.04362200  0.61064300  1
  O  O1  1  0.91745100  0.02923900  0.83973900  1
  O  O2  1  0.56947300  0.18984700  0.89717600  1
  O  O3  1  0.50441500  0.06654100  0.33371400  1
  O  O4  1  0.22566700  0.33455400  0.82399900  1
  O  O5  1  0.51044000  0.24983300  0.55080900  1
  O  O6  1  0.80645300  0.26054300  0.67990700  1
  O  O7  1  0.27612000  0.16894800  0.17698400  1
  O  O8  1  0.70469100  0.03114100  0.03895200  1
  O  O9  1  0.01505600  0.44251900  0.66341200  1
  O  O10  1  0.79302000  0.46832100  0.95585800  1
  O  O11  1  0.68646100  0.26968000  0.34617700  1
  O  O12  1  0.98156900  0.24994200  0.46098100  1
  O  O13  1  0.41310300  0.53795200  0.84238000  1
  O  O14  1  0.06362800  0.69310400  0.90603900  1
  O  O15  1  0.27916600  0.45041200  0.39114800  1
  O  O16  1  0.97891200  0.55137700  0.34217400  1
  O  O17  1  0.71625900  0.54681200  0.61470800  1
  O  O18  1  0.92703200  0.31129500  0.09673400  1
  O  O19  1  0.01307800  0.75637100  0.53846300  1
  O  O20  1  0.58053900  0.47098300  0.15996000  1
  O  O21  1  0.31549100  0.74302000  0.66274600  1
  O  O22  1  0.20131500  0.53060000  0.04167100  1
  O  O23  1  0.29166300  0.97608700  0.96028200  1
  O  O24  1  0.72064900  0.83399200  0.82403000  1
  O  O25  1  0.19143000  0.72336800  0.31316500  1
  O  O26  1  0.49334000  0.74933700  0.45340000  1
  O  O27  1  0.77757700  0.66788400  0.17268600  1
  O  O28  1  0.51665700  0.93400700  0.66208300  1
  O  O29  1  0.42453000  0.80817000  0.09701700  1
  O  O30  1  0.07567500  0.97583600  0.15636600  1
  O  O31  1  0.78949600  0.96326000  0.39309400  1
loop_
_geom_bond_atom_site_label_1
_geom_bond_atom_site_label_2
_geom_bond_distance
_geom_bond_site_symmetry_2
Li0 O12 2.083410 1_565
Li0 O19 2.154071 1_655
Li0 O31 2.223933 1_555
Li0 O25 2.359779 1_655
Li0 O6 2.413101 1_565
Li0 O0 2.648881 1_665
Li1 O28 2.003311 1_545
Li1 O5 2.079795 1_555
Li1 O2 2.229665 1_555
Li1 O4 2.294201 1_555
Li1 O6 2.390980 1_555
Li2 O5 1.890591 1_555
Li2 O9 1.937503 1_555
Li2 O0 2.002015 1_555
Li2 O4 2.080136 1_555
Li3 O12 1.954039 1_455
Li3 O15 1.994160 1_555
Li3 O3 2.001441 1_555
Li3 O7 2.214346 1_555
Li4 O13 1.934541 1_555
Li4 O2 1.952580 1_555
Li4 O10 1.992561 1_555
Li4 O6 2.011102 1_555
Li5 O23 2.030834 1_545
Li5 O22 2.082061 1_556
Li5 O2 2.243680 1_555
Li5 O4 2.251575 1_555
Li5 O7 2.440791 1_556
Li5 O18 2.587448 1_456
Li6 O21 2.073358 1_555
Li6 O5 2.151423 1_555
Li6 O11 2.152482 1_555
Li6 O26 2.254764 1_555
Li6 O17 2.409223 1_555
Li6 O15 2.549556 1_555
Li7 O21 2.070691 1_555
Li7 O14 2.225926 1_555
Li7 O1 2.227871 1_465
Li7 O19 2.290703 1_555
Li7 O9 2.337699 1_555
Li7 O24 2.478838 1_455
Li8 O10 2.073287 1_555
Li8 O8 2.113283 1_566
Li8 O14 2.137086 1_655
Li8 O24 2.234404 1_555
Li8 O27 2.435643 1_556
Li9 O22 1.905994 1_555
Li9 O20 1.919334 1_555
Li9 O29 1.949978 1_555
Li9 O25 2.248205 1_555
Li10 O19 1.923546 1_655
Li10 O17 1.967379 1_555
Li10 O28 2.003757 1_555
Li10 O24 2.026753 1_555
Li11 O26 1.882505 1_555
Li11 O16 1.934828 1_555
Li11 O31 2.013065 1_555
Li11 O27 2.237355 1_555
Li12 O1 2.096758 1_465
Li12 O30 2.150861 1_556
Li12 O14 2.197551 1_555
Li12 O23 2.234498 1_555
Li12 O8 2.240942 1_466
Li12 O18 2.336481 1_466
Mn0 O8 2.126303 1_555
Mn0 O20 2.143996 1_555
Mn0 O15 2.283009 1_555
Mn0 O7 2.295326 1_555
Mn0 O3 2.297801 1_555
Mn0 O11 2.314999 1_555
Mn1 O11 2.130830 1_555
Mn1 O16 2.149274 1_555
Mn1 O12 2.229222 1_555
Mn1 O18 2.243047 1_555
Mn1 O30 2.282726 1_645
Mn1 O7 2.388746 1_655
Mn2 O3 2.151663 1_565
Mn2 O26 2.184424 1_555
Mn2 O25 2.234029 1_555
Mn2 O29 2.287815 1_555
Mn2 O27 2.611901 1_555
Mn2 O20 2.612882 1_555
Mn3 O30 2.138831 1_655
Mn3 O22 2.153980 1_655
Mn3 O27 2.168154 1_555
Mn3 O25 2.241182 1_655
Mn3 O31 2.243512 1_555
Mn4 O1 2.111971 1_455
Mn4 O0 2.183039 1_555
Mn4 O10 2.211169 1_455
Mn4 O4 2.221296 1_555
Mn4 O6 2.257789 1_455
Mn4 O9 2.471862 1_555
Mn5 O13 2.126974 1_555
Mn5 O23 2.130642 1_555
Mn5 O21 2.232759 1_555
Mn5 O17 2.255981 1_555
Mn5 O24 2.265921 1_555
Mn5 O28 2.345502 1_555
O0 P6 1.547661 1_545
O1 P0 1.565193 1_555
O2 P0 1.546377 1_555
O3 P1 1.566674 1_555
O4 P2 1.571492 1_555
O5 P1 1.541297 1_555
O6 P3 1.577230 1_555
O7 P7 1.571631 1_545
O8 P0 1.566063 1_554
O9 P3 1.557234 1_455
O10 P5 1.570498 1_556
O11 P1 1.575691 1_555
O12 P3 1.565786 1_555
O13 P2 1.558315 1_555
O14 P2 1.536446 1_555
O15 P4 1.547810 1_555
O16 P4 1.576880 1_655
O17 P3 1.550787 1_555
O18 P5 1.542410 1_555
O19 P4 1.545686 1_555
O20 P5 1.567451 1_555
O21 P6 1.563951 1_555
O22 P2 1.575663 1_554
O23 P7 1.561535 1_556
O24 P0 1.563127 1_565
O25 P4 1.585902 1_555
O26 P6 1.563854 1_555
O27 P5 1.571722 1_555
O28 P6 1.563940 1_555
O29 P7 1.542842 1_555
O30 P7 1.581220 1_555
O31 P1 1.554781 1_565
