# generated using pymatgen
data_CoSi4Ni3
_symmetry_space_group_name_H-M   'P 1'
_cell_length_a   3.25824278
_cell_length_b   5.11720780
_cell_length_c   5.66185141
_cell_angle_alpha   89.85463180
_cell_angle_beta   90.00000000
_cell_angle_gamma   90.00000000
_symmetry_Int_Tables_number   1
_chemical_formula_structural   CoSi4Ni3
_chemical_formula_sum   'Co1 Si4 Ni3'
_cell_volume   94.40034129
_cell_formula_units_Z   1
loop_
 _symmetry_equiv_pos_site_id
 _symmetry_equiv_pos_as_xyz
  1  'x, y, z'
loop_
 _atom_site_type_symbol
 _atom_site_label
 _atom_site_symmetry_multiplicity
 _atom_site_fract_x
 _atom_site_fract_y
 _atom_site_fract_z
 _atom_site_occupancy
  Co  Co0  1  0.00000000  0.50711797  0.69153810  1
  Si  Si0  1  0.00000000  0.67688402  0.07328499  1
  Si  Si1  1  0.00000000  0.18387873  0.42487050  1
  Si  Si2  1  0.50000000  0.32520783  0.91814164  1
  Si  Si3  1  0.50000000  0.81118357  0.58227872  1
  Ni  Ni0  1  0.00000000  0.00846697  0.80970497  1
  Ni  Ni1  1  0.50000000  0.49310050  0.30794025  1
  Ni  Ni2  1  0.50000000  0.99415942  0.19224283  1
loop_
_geom_bond_atom_site_label_1
_geom_bond_atom_site_label_2
_geom_bond_distance
_geom_bond_site_symmetry_2
Co0 Si1 2.242377 1_555
Co0 Si2 2.271690 1_455
Co0 Si2 2.271690 1_555
Co0 Si0 2.331489 1_556
Co0 Si3 2.335137 1_455
Co0 Si3 2.335137 1_555
Co0 Ni0 2.636310 1_555
Co0 Ni0 2.652952 1_565
Co0 Ni1 2.716065 1_455
Co0 Ni1 2.716065 1_555
Si0 Si2 2.583061 1_554
Si0 Si2 2.583061 1_454
Si1 Si3 2.660252 1_445
Si1 Si3 2.660252 1_545
Ni0 Si0 2.256839 1_546
Ni0 Si3 2.310380 1_545
Ni0 Si3 2.310380 1_445
Ni0 Si1 2.354420 1_555
Ni0 Si2 2.379729 1_555
Ni0 Si2 2.379729 1_455
Ni0 Ni2 2.711014 1_546
Ni0 Ni2 2.711014 1_446
Ni1 Si3 2.252744 1_555
Ni1 Si0 2.301585 1_555
Ni1 Si0 2.301585 1_655
Ni1 Si1 2.364500 1_655
Ni1 Si1 2.364500 1_555
Ni1 Si2 2.370341 1_554
Ni1 Ni2 2.637489 1_545
Ni1 Ni2 2.644767 1_555
Ni2 Si2 2.294537 1_564
Ni2 Si1 2.310369 1_665
Ni2 Si1 2.310369 1_565
Ni2 Si3 2.396438 1_555
Ni2 Si0 2.397744 1_555
Ni2 Si0 2.397744 1_655
