# generated using pymatgen
data_TmGePd
_symmetry_space_group_name_H-M   'P 1'
_cell_length_a   5.62284935
_cell_length_b   5.62284935
_cell_length_c   6.92053709
_cell_angle_alpha   52.13753861
_cell_angle_beta   52.13753861
_cell_angle_gamma   45.62752981
_symmetry_Int_Tables_number   1
_chemical_formula_structural   TmGePd
_chemical_formula_sum   'Tm2 Ge2 Pd2'
_cell_volume   116.68822101
_cell_formula_units_Z   2
loop_
 _symmetry_equiv_pos_site_id
 _symmetry_equiv_pos_as_xyz
  1  'x, y, z'
loop_
 _atom_site_type_symbol
 _atom_site_label
 _atom_site_symmetry_multiplicity
 _atom_site_fract_x
 _atom_site_fract_y
 _atom_site_fract_z
 _atom_site_occupancy
  Tm  Tm0  1  0.54304900  0.54304900  0.21737500  1
  Tm  Tm1  1  0.45695100  0.45695100  0.78262500  1
  Ge  Ge0  1  0.84036700  0.84036700  0.21141800  1
  Ge  Ge1  1  0.15963300  0.15963300  0.78858200  1
  Pd  Pd0  1  0.17751100  0.17751100  0.37118400  1
  Pd  Pd1  1  0.82248900  0.82248900  0.62881600  1
loop_
_geom_bond_atom_site_label_1
_geom_bond_atom_site_label_2
_geom_bond_distance
_geom_bond_site_symmetry_2
Ge0 Pd0 2.517913 1_655
Ge0 Pd0 2.517913 1_565
Ge0 Ge1 2.572705 1_664
Ge0 Pd1 2.768674 1_555
Ge0 Tm0 3.047035 1_565
Ge0 Tm0 3.047035 1_655
Ge0 Tm0 3.054687 1_555
Ge0 Tm1 3.200595 1_654
Ge0 Tm1 3.200595 1_564
Ge0 Tm1 3.240382 1_555
Ge1 Pd1 2.517913 1_545
Ge1 Pd1 2.517913 1_455
Ge1 Pd0 2.768674 1_555
Ge1 Tm1 3.047035 1_455
Ge1 Tm1 3.047035 1_545
Ge1 Tm1 3.054687 1_555
Ge1 Tm0 3.200595 1_456
Ge1 Tm0 3.200595 1_546
Ge1 Tm0 3.240382 1_555
Pd0 Pd1 2.825646 1_445
Pd0 Tm1 3.044482 1_554
Pd0 Tm1 3.068969 1_545
Pd0 Tm1 3.068969 1_455
Pd0 Tm0 3.131261 1_455
Pd0 Tm0 3.131261 1_545
Pd0 Tm0 3.181106 1_555
Pd1 Tm0 3.044482 1_556
Pd1 Tm0 3.068969 1_565
Pd1 Tm0 3.068969 1_655
Pd1 Tm1 3.131261 1_565
Pd1 Tm1 3.131261 1_655
Pd1 Tm1 3.181106 1_555
