# generated using pymatgen
data_Ni5B2SbO10
_symmetry_space_group_name_H-M   'P 1'
_cell_length_a   3.14365600
_cell_length_b   5.46190100
_cell_length_c   10.81330180
_cell_angle_alpha   85.04789662
_cell_angle_beta   90.00000000
_cell_angle_gamma   90.00000000
_symmetry_Int_Tables_number   1
_chemical_formula_structural   Ni5B2SbO10
_chemical_formula_sum   'Ni5 B2 Sb1 O10'
_cell_volume   184.97498510
_cell_formula_units_Z   1
loop_
 _symmetry_equiv_pos_site_id
 _symmetry_equiv_pos_as_xyz
  1  'x, y, z'
loop_
 _atom_site_type_symbol
 _atom_site_label
 _atom_site_symmetry_multiplicity
 _atom_site_fract_x
 _atom_site_fract_y
 _atom_site_fract_z
 _atom_site_occupancy
  Ni  Ni0  1  0.50000000  0.71951000  0.21031400  1
  Ni  Ni1  1  0.50000000  0.28049000  0.78968600  1
  Ni  Ni2  1  0.00000000  0.50000000  0.00000000  1
  Ni  Ni3  1  0.50000000  0.00000000  0.50000000  1
  Ni  Ni4  1  0.00000000  0.00000000  0.00000000  1
  B  B0  1  0.00000000  0.79401000  0.74221700  1
  B  B1  1  0.00000000  0.20599000  0.25778300  1
  Sb  Sb0  1  0.00000000  0.50000000  0.50000000  1
  O  O0  1  0.50000000  0.74478300  0.02925000  1
  O  O1  1  0.50000000  0.25521700  0.97075000  1
  O  O2  1  0.50000000  0.69254100  0.40347600  1
  O  O3  1  0.50000000  0.30745900  0.59652400  1
  O  O4  1  0.00000000  0.82384400  0.60623100  1
  O  O5  1  0.00000000  0.17615600  0.39376900  1
  O  O6  1  0.00000000  0.99262600  0.20063800  1
  O  O7  1  0.00000000  0.00737400  0.79936200  1
  O  O8  1  0.00000000  0.44112300  0.20374600  1
  O  O9  1  0.00000000  0.55887700  0.79625400  1
loop_
_geom_bond_atom_site_label_1
_geom_bond_atom_site_label_2
_geom_bond_distance
_geom_bond_site_symmetry_2
Ni0 O0 1.950837 1_555
Ni0 O2 2.081184 1_555
Ni0 O6 2.163310 1_555
Ni0 O6 2.163310 1_655
Ni0 O8 2.192332 1_555
Ni0 O8 2.192332 1_655
Ni1 O1 1.950837 1_555
Ni1 O3 2.081184 1_555
Ni1 O7 2.163310 1_555
Ni1 O7 2.163310 1_655
Ni1 O9 2.192332 1_655
Ni1 O9 2.192332 1_555
Ni2 O0 2.105043 1_555
Ni2 O0 2.105043 1_455
Ni2 O1 2.105043 1_554
Ni2 O1 2.105043 1_454
Ni2 O8 2.198872 1_555
Ni2 O9 2.198872 1_554
Ni3 O3 2.052338 1_555
Ni3 O2 2.052338 1_545
Ni3 O5 2.127225 1_655
Ni3 O5 2.127225 1_555
Ni3 O4 2.127225 1_545
Ni3 O4 2.127225 1_645
Ni4 O1 2.106589 1_554
Ni4 O1 2.106589 1_454
Ni4 O0 2.106589 1_545
Ni4 O0 2.106589 1_445
Ni4 O6 2.166454 1_545
Ni4 O7 2.166454 1_554
B0 O9 1.364268 1_555
B0 O7 1.365376 1_565
B0 O4 1.465411 1_555
B1 O8 1.364268 1_555
B1 O6 1.365376 1_545
B1 O5 1.465411 1_555
O2 Sb0 2.115771 1_655
O2 Sb0 2.115771 1_555
O3 Sb0 2.115771 1_555
O3 Sb0 2.115771 1_655
O4 Sb0 2.190659 1_555
O5 Sb0 2.190659 1_555
