# generated using pymatgen
data_RbInBr3
_symmetry_space_group_name_H-M   'P 1'
_cell_length_a   8.09774036
_cell_length_b   8.09774036
_cell_length_c   8.09774036
_cell_angle_alpha   60.00000000
_cell_angle_beta   60.00000000
_cell_angle_gamma   60.00000000
_symmetry_Int_Tables_number   1
_chemical_formula_structural   RbInBr3
_chemical_formula_sum   'Rb2 In2 Br6'
_cell_volume   375.47112615
_cell_formula_units_Z   2
loop_
 _symmetry_equiv_pos_site_id
 _symmetry_equiv_pos_as_xyz
  1  'x, y, z'
loop_
 _atom_site_type_symbol
 _atom_site_label
 _atom_site_symmetry_multiplicity
 _atom_site_fract_x
 _atom_site_fract_y
 _atom_site_fract_z
 _atom_site_occupancy
  Rb  Rb0  1  0.75000000  0.75000000  0.75000000  1
  Rb  Rb1  1  0.25000000  0.25000000  0.25000000  1
  In  In0  1  0.50000000  0.50000000  0.50000000  1
  In  In1  1  -0.00000000  0.00000000  0.00000000  1
  Br  Br0  1  0.76404604  0.23595396  0.23595396  1
  Br  Br1  1  0.23595396  0.23595396  0.76404604  1
  Br  Br2  1  0.23595396  0.76404604  0.76404604  1
  Br  Br3  1  0.23595396  0.76404604  0.23595396  1
  Br  Br4  1  0.76404604  0.23595396  0.76404604  1
  Br  Br5  1  0.76404604  0.76404604  0.23595396  1
loop_
_geom_bond_atom_site_label_1
_geom_bond_atom_site_label_2
_geom_bond_distance
_geom_bond_site_symmetry_2
Br0 In1 2.702129 1_655
Br0 In0 3.023838 1_555
Br0 Rb0 4.052064 1_545
Br0 Rb1 4.052064 1_655
Br0 Rb0 4.052064 1_554
Br0 Rb1 4.052064 1_555
Br1 In1 2.702129 1_556
Br1 In0 3.023838 1_555
Br1 Rb1 4.052064 1_556
Br1 Rb0 4.052064 1_545
Br1 Rb0 4.052064 1_455
Br1 Rb1 4.052064 1_555
Br2 In1 2.702129 1_566
Br2 In0 3.023838 1_555
Br2 Rb1 4.052064 1_565
Br2 Rb1 4.052064 1_556
Br2 Rb0 4.052064 1_455
Br2 Rb0 4.052064 1_555
Br3 In1 2.702129 1_565
Br3 In0 3.023838 1_555
Br3 Rb1 4.052064 1_565
Br3 Rb0 4.052064 1_455
Br3 Rb0 4.052064 1_554
Br3 Rb1 4.052064 1_555
Br4 In1 2.702129 1_656
Br4 In0 3.023838 1_555
Br4 Rb0 4.052064 1_545
Br4 Rb1 4.052064 1_556
Br4 Rb1 4.052064 1_655
Br4 Rb0 4.052064 1_555
Br5 In1 2.702129 1_665
Br5 In0 3.023838 1_555
Br5 Rb1 4.052064 1_565
Br5 Rb1 4.052064 1_655
Br5 Rb0 4.052064 1_554
Br5 Rb0 4.052064 1_555
