# generated using pymatgen
data_LiMg6Ti
_symmetry_space_group_name_H-M   'P 1'
_cell_length_a   5.02629800
_cell_length_b   6.26739900
_cell_length_c   10.93954900
_cell_angle_alpha   90.00000000
_cell_angle_beta   90.00000000
_cell_angle_gamma   90.00000000
_symmetry_Int_Tables_number   1
_chemical_formula_structural   LiMg6Ti
_chemical_formula_sum   'Li2 Mg12 Ti2'
_cell_volume   344.61564943
_cell_formula_units_Z   2
loop_
 _symmetry_equiv_pos_site_id
 _symmetry_equiv_pos_as_xyz
  1  'x, y, z'
loop_
 _atom_site_type_symbol
 _atom_site_label
 _atom_site_symmetry_multiplicity
 _atom_site_fract_x
 _atom_site_fract_y
 _atom_site_fract_z
 _atom_site_occupancy
  Li  Li0  1  0.50000000  0.50000000  0.16923200  1
  Li  Li1  1  0.50000000  0.00000000  0.66923200  1
  Mg  Mg0  1  0.00000000  0.74387600  0.08343500  1
  Mg  Mg1  1  0.00000000  0.25612400  0.08343500  1
  Mg  Mg2  1  0.00000000  0.00000000  0.33530400  1
  Mg  Mg3  1  0.50000000  0.25825700  0.41353800  1
  Mg  Mg4  1  0.50000000  0.74174300  0.41353800  1
  Mg  Mg5  1  0.50000000  0.00000000  0.16720000  1
  Mg  Mg6  1  0.00000000  0.24387600  0.58343500  1
  Mg  Mg7  1  0.00000000  0.75612400  0.58343500  1
  Mg  Mg8  1  0.00000000  0.50000000  0.83530400  1
  Mg  Mg9  1  0.50000000  0.75825700  0.91353800  1
  Mg  Mg10  1  0.50000000  0.24174300  0.91353800  1
  Mg  Mg11  1  0.50000000  0.50000000  0.66720000  1
  Ti  Ti0  1  0.00000000  0.50000000  0.33431800  1
  Ti  Ti1  1  0.00000000  0.00000000  0.83431800  1
loop_
_geom_bond_atom_site_label_1
_geom_bond_atom_site_label_2
_geom_bond_distance
_geom_bond_site_symmetry_2
Li0 Mg3 3.072182 1_555
Li0 Mg4 3.072182 1_555
Li0 Mg0 3.087566 1_655
Li0 Mg1 3.087566 1_555
Li0 Mg1 3.087566 1_655
Li0 Mg0 3.087566 1_555
Li0 Ti0 3.094743 1_555
Li0 Ti0 3.094743 1_655
Li0 Mg5 3.133778 1_555
Li0 Mg5 3.133778 1_565
Li0 Mg9 3.231728 1_554
Li0 Mg10 3.231728 1_554
Li1 Mg10 3.072182 1_555
Li1 Mg9 3.072182 1_545
Li1 Mg7 3.087566 1_545
Li1 Mg6 3.087566 1_655
Li1 Mg6 3.087566 1_555
Li1 Mg7 3.087566 1_645
Li1 Ti1 3.094743 1_555
Li1 Ti1 3.094743 1_655
Li1 Mg11 3.133778 1_555
Li1 Mg11 3.133778 1_545
Li1 Mg4 3.231728 1_545
Li1 Mg3 3.231728 1_555
Mg0 Mg1 3.056936 1_555
Mg0 Mg8 3.115190 1_554
Mg0 Mg5 3.119677 1_565
Mg0 Mg5 3.119677 1_465
Mg0 Mg9 3.127047 1_554
Mg0 Mg9 3.127047 1_454
Mg0 Ti0 3.141457 1_555
Mg0 Ti1 3.162852 1_564
Mg0 Mg2 3.188829 1_565
Mg0 Mg1 3.210463 1_565
Mg1 Mg8 3.115190 1_554
Mg1 Mg5 3.119677 1_455
Mg1 Mg5 3.119677 1_555
Mg1 Mg10 3.127047 1_454
Mg1 Mg10 3.127047 1_554
Mg1 Ti0 3.141457 1_555
Mg1 Ti1 3.162852 1_554
Mg1 Mg2 3.188829 1_555
Mg2 Mg3 3.109381 1_455
Mg2 Mg4 3.109381 1_445
Mg2 Mg3 3.109381 1_555
Mg2 Mg4 3.109381 1_545
Mg2 Mg5 3.114125 1_455
Mg2 Mg5 3.114125 1_555
Mg2 Mg7 3.115190 1_545
Mg2 Mg6 3.115190 1_555
Mg2 Ti0 3.133718 1_545
Mg2 Ti0 3.133718 1_555
Mg3 Mg4 3.030200 1_555
Mg3 Ti0 3.059819 1_655
Mg3 Ti0 3.059819 1_555
Mg3 Mg6 3.127047 1_655
Mg3 Mg6 3.127047 1_555
Mg3 Mg5 3.143558 1_555
Mg3 Mg4 3.237199 1_545
Mg4 Ti0 3.059819 1_655
Mg4 Ti0 3.059819 1_555
Mg4 Mg7 3.127047 1_555
Mg4 Mg7 3.127047 1_655
Mg4 Mg5 3.143558 1_565
Mg5 Mg9 3.161624 1_544
Mg6 Mg7 3.056936 1_545
Mg6 Ti1 3.141457 1_555
Mg6 Ti0 3.162852 1_555
Mg6 Mg8 3.188829 1_555
Mg6 Mg7 3.210463 1_555
Mg7 Ti1 3.141457 1_565
Mg7 Ti0 3.162852 1_555
Mg7 Mg8 3.188829 1_555
Mg8 Mg9 3.109381 1_455
Mg8 Mg9 3.109381 1_555
Mg8 Ti1 3.133718 1_565
Mg8 Ti1 3.133718 1_555
Mg9 Ti1 3.059819 1_565
Mg9 Ti1 3.059819 1_665
Mg10 Mg9 3.030200 1_545
Mg10 Ti1 3.059819 1_555
Mg10 Ti1 3.059819 1_655
Mg10 Mg8 3.109381 1_555
Mg10 Mg8 3.109381 1_655
Mg10 Mg11 3.143558 1_555
Mg10 Mg5 3.161624 1_556
Mg10 Mg9 3.237199 1_555
Mg11 Mg8 3.114125 1_555
Mg11 Mg8 3.114125 1_655
Mg11 Mg6 3.119677 1_655
Mg11 Mg7 3.119677 1_555
Mg11 Mg7 3.119677 1_655
Mg11 Mg6 3.119677 1_555
Mg11 Mg9 3.143558 1_555
Mg11 Mg3 3.161624 1_555
Mg11 Mg4 3.161624 1_555
