# generated using pymatgen
data_Sr2MnBiPbO6
_symmetry_space_group_name_H-M   'P 1'
_cell_length_a   7.72827075
_cell_length_b   7.72846653
_cell_length_c   12.51192189
_cell_angle_alpha   80.92820364
_cell_angle_beta   80.92552675
_cell_angle_gamma   89.00779227
_symmetry_Int_Tables_number   1
_chemical_formula_structural   Sr2MnBiPbO6
_chemical_formula_sum   'Sr8 Mn4 Bi4 Pb4 O24'
_cell_volume   728.70238041
_cell_formula_units_Z   4
loop_
 _symmetry_equiv_pos_site_id
 _symmetry_equiv_pos_as_xyz
  1  'x, y, z'
loop_
 _atom_site_type_symbol
 _atom_site_label
 _atom_site_symmetry_multiplicity
 _atom_site_fract_x
 _atom_site_fract_y
 _atom_site_fract_z
 _atom_site_occupancy
  Sr  Sr0  1  0.28724300  0.79250800  0.34776000  1
  Sr  Sr1  1  0.78619600  0.29318100  0.34782400  1
  Sr  Sr2  1  0.70691500  0.21393200  0.65216500  1
  Sr  Sr3  1  0.20756600  0.71282700  0.65225700  1
  Sr  Sr4  1  0.70849900  0.71619000  0.65270000  1
  Sr  Sr5  1  0.20916600  0.21677500  0.65278200  1
  Sr  Sr6  1  0.78315000  0.79072400  0.34724800  1
  Sr  Sr7  1  0.28371700  0.29138500  0.34727400  1
  Mn  Mn0  1  0.49678200  0.00332800  0.50001400  1
  Mn  Mn1  1  0.99675600  0.50318800  0.50001000  1
  Mn  Mn2  1  0.99661400  0.00322300  0.50001400  1
  Mn  Mn3  1  0.49646600  0.50318100  0.49995900  1
  Bi  Bi0  1  0.43240100  0.40624900  0.86982800  1
  Bi  Bi1  1  0.93251100  0.90630300  0.86964300  1
  Bi  Bi2  1  0.09372000  0.06750500  0.13035700  1
  Bi  Bi3  1  0.59377800  0.56756800  0.13017400  1
  Pb  Pb0  1  0.60457200  0.08969500  0.12960400  1
  Pb  Pb1  1  0.10418500  0.58981000  0.12981600  1
  Pb  Pb2  1  0.41026900  0.89576900  0.87019400  1
  Pb  Pb3  1  0.91029100  0.39545400  0.87037800  1
  O  O0  1  0.74938200  0.00386000  0.49452200  1
  O  O1  1  0.24918500  0.50378900  0.49409100  1
  O  O2  1  0.49620700  0.75077600  0.50588600  1
  O  O3  1  0.99616800  0.25056800  0.50546900  1
  O  O4  1  0.24434700  0.00163300  0.50507000  1
  O  O5  1  0.74433200  0.50154200  0.50552300  1
  O  O6  1  0.49848000  0.25564800  0.49446200  1
  O  O7  1  0.99845500  0.75562500  0.49501000  1
  O  O8  1  0.53195100  0.03800500  0.31148200  1
  O  O9  1  0.03012500  0.53792300  0.31196400  1
  O  O10  1  0.46222100  0.96994000  0.68806200  1
  O  O11  1  0.96200400  0.46806500  0.68850800  1
  O  O12  1  0.93024000  0.94550200  0.69725000  1
  O  O13  1  0.43007000  0.44553000  0.69730200  1
  O  O14  1  0.55444100  0.56989500  0.30271400  1
  O  O15  1  0.05459700  0.06974800  0.30276000  1
  O  O16  1  0.86002400  0.92101900  0.13945900  1
  O  O17  1  0.35994600  0.42122000  0.13957000  1
  O  O18  1  0.57879800  0.64006500  0.86042600  1
  O  O19  1  0.07898200  0.13998300  0.86054400  1
  O  O20  1  0.66094800  0.24675000  0.85556600  1
  O  O21  1  0.16116700  0.74660100  0.85554700  1
  O  O22  1  0.25339100  0.83885000  0.14445600  1
  O  O23  1  0.75334400  0.33907000  0.14435700  1
loop_
_geom_bond_atom_site_label_1
_geom_bond_atom_site_label_2
_geom_bond_distance
_geom_bond_site_symmetry_2
Mn0 O6 1.940505 1_555
Mn0 O2 1.941667 1_545
Mn0 O4 1.942119 1_555
Mn0 O0 1.942562 1_555
Mn0 O10 2.299237 1_545
Mn0 O8 2.304566 1_555
Mn1 O1 1.940596 1_655
Mn1 O5 1.941309 1_555
Mn1 O7 1.942276 1_555
Mn1 O3 1.942826 1_555
Mn1 O9 2.299162 1_655
Mn1 O11 2.304136 1_555
Mn2 O0 1.922605 1_555
Mn2 O3 1.923465 1_555
Mn2 O7 1.924153 1_545
Mn2 O4 1.925303 1_655
Mn2 O12 2.411148 1_545
Mn2 O15 2.411488 1_655
Mn3 O1 1.923897 1_555
Mn3 O6 1.924801 1_555
Mn3 O2 1.926569 1_555
Mn3 O5 1.927533 1_555
Mn3 O14 2.411459 1_555
Mn3 O13 2.412429 1_555
Bi0 O18 2.126282 1_555
Bi0 O13 2.134854 1_555
Bi0 O20 2.136729 1_555
Bi1 O19 2.126316 1_665
Bi1 O12 2.133141 1_555
Bi1 O21 2.138219 1_655
Bi2 O16 2.126452 1_445
Bi2 O15 2.133225 1_555
Bi2 O22 2.138105 1_545
Bi3 O17 2.126170 1_555
Bi3 O14 2.135000 1_555
Bi3 O23 2.136709 1_555
O0 Sr6 2.639598 1_545
O0 Sr1 2.648157 1_555
O0 Sr4 2.720127 1_545
O0 Sr2 2.724184 1_555
O1 Sr7 2.630868 1_555
O1 Sr0 2.642377 1_555
O1 Sr5 2.720201 1_555
O1 Sr3 2.723807 1_555
O2 Sr4 2.630228 1_555
O2 Sr3 2.642087 1_555
O2 Sr6 2.719318 1_555
O2 Sr0 2.723033 1_555
O3 Sr5 2.639225 1_655
O3 Sr2 2.647635 1_555
O3 Sr7 2.719480 1_655
O3 Sr1 2.723689 1_555
O4 Sr3 2.648555 1_545
O4 Sr5 2.655021 1_555
O4 Sr0 2.715664 1_545
O4 Sr7 2.728573 1_555
O5 Sr2 2.638108 1_555
O5 Sr4 2.646920 1_555
O5 Sr1 2.715421 1_555
O5 Sr6 2.728874 1_555
O6 Sr1 2.638593 1_555
O6 Sr7 2.647723 1_555
O6 Sr2 2.715908 1_555
O6 Sr5 2.729820 1_555
O7 Sr0 2.648788 1_655
O7 Sr6 2.656475 1_555
O7 Sr3 2.714996 1_655
O7 Sr4 2.728827 1_555
O8 Pb0 2.229652 1_555
O8 Sr0 2.638992 1_545
O8 Sr6 2.738102 1_545
O8 Sr7 2.755181 1_555
O8 Sr1 2.942032 1_555
O9 Pb1 2.233973 1_555
O9 Sr1 2.630944 1_455
O9 Sr6 2.744491 1_455
O9 Sr7 2.746789 1_555
O9 Sr0 2.952008 1_555
O10 Pb2 2.233888 1_555
O10 Sr2 2.630998 1_565
O10 Sr5 2.745221 1_565
O10 Sr4 2.746442 1_555
O10 Sr3 2.952401 1_555
O11 Pb3 2.229562 1_555
O11 Sr3 2.639656 1_655
O11 Sr5 2.737896 1_655
O11 Sr4 2.755384 1_555
O11 Sr2 2.940952 1_555
O12 Sr4 2.665743 1_555
O12 Sr2 2.723019 1_565
O12 Sr3 2.819432 1_655
O12 Sr5 2.960070 1_665
O13 Sr5 2.658090 1_555
O13 Sr3 2.712492 1_555
O13 Sr2 2.811631 1_555
O13 Sr4 2.954002 1_555
O14 Sr6 2.657511 1_555
O14 Sr0 2.712450 1_555
O14 Sr1 2.811684 1_555
O14 Sr7 2.954811 1_555
O15 Sr7 2.663950 1_555
O15 Sr1 2.723309 1_455
O15 Sr0 2.818869 1_545
O15 Sr6 2.961531 1_445
O16 Pb0 2.355639 1_565
O16 Sr6 2.614206 1_555
O17 Pb1 2.357163 1_555
O17 Sr7 2.612047 1_555
O18 Pb2 2.356578 1_555
O18 Sr4 2.611971 1_555
O19 Pb3 2.355815 1_455
O19 Sr5 2.613631 1_555
O20 Pb3 2.307582 1_555
O20 Sr2 2.565635 1_555
O21 Pb2 2.307274 1_555
O21 Sr3 2.566081 1_555
O22 Pb1 2.307017 1_555
O22 Sr0 2.566443 1_555
O23 Pb0 2.307879 1_555
O23 Sr1 2.566554 1_555
