# generated using pymatgen
data_BHO2
_symmetry_space_group_name_H-M   'P 1'
_cell_length_a   8.89813934
_cell_length_b   6.70190667
_cell_length_c   7.00175413
_cell_angle_alpha   93.75559723
_cell_angle_beta   90.00000000
_cell_angle_gamma   90.00000000
_symmetry_Int_Tables_number   1
_chemical_formula_structural   BHO2
_chemical_formula_sum   'B12 H12 O24'
_cell_volume   416.64943449
_cell_formula_units_Z   12
loop_
 _symmetry_equiv_pos_site_id
 _symmetry_equiv_pos_as_xyz
  1  'x, y, z'
loop_
 _atom_site_type_symbol
 _atom_site_label
 _atom_site_symmetry_multiplicity
 _atom_site_fract_x
 _atom_site_fract_y
 _atom_site_fract_z
 _atom_site_occupancy
  B  B0  1  0.78629689  0.52660567  0.24149733  1
  B  B1  1  0.28629689  0.47339433  0.25850267  1
  B  B2  1  0.21370311  0.47339433  0.75850267  1
  B  B3  1  0.71370311  0.52660567  0.74149733  1
  B  B4  1  0.83694433  0.83557217  0.10094701  1
  B  B5  1  0.33694433  0.16442783  0.39905299  1
  B  B6  1  0.16305567  0.16442783  0.89905299  1
  B  B7  1  0.66305567  0.83557217  0.60094701  1
  B  B8  1  0.04183792  0.66992316  0.26796290  1
  B  B9  1  0.54183792  0.33007684  0.23203710  1
  B  B10  1  0.95816208  0.33007684  0.73203710  1
  B  B11  1  0.45816208  0.66992316  0.76796290  1
  H  H0  1  0.13825787  0.87072138  0.48820248  1
  H  H1  1  0.63825787  0.12927862  0.01179752  1
  H  H2  1  0.86174213  0.12927862  0.51179752  1
  H  H3  1  0.36174213  0.87072138  0.98820248  1
  H  H4  1  0.86988045  0.07231968  0.95445277  1
  H  H5  1  0.36988045  0.92768032  0.54554723  1
  H  H6  1  0.13011955  0.92768032  0.04554723  1
  H  H7  1  0.63011955  0.07231968  0.45445277  1
  H  H8  1  0.04844680  0.67967863  0.57515907  1
  H  H9  1  0.54844680  0.32032137  0.92484093  1
  H  H10  1  0.95155320  0.32032137  0.42484093  1
  H  H11  1  0.45155320  0.67967863  0.07515907  1
  O  O0  1  0.69048321  0.38401825  0.29291088  1
  O  O1  1  0.19048321  0.61598175  0.20708912  1
  O  O2  1  0.30951679  0.61598175  0.70708912  1
  O  O3  1  0.80951679  0.38401825  0.79291088  1
  O  O4  1  0.93635802  0.50613089  0.28477699  1
  O  O5  1  0.43635802  0.49386911  0.21522301  1
  O  O6  1  0.06364198  0.49386911  0.71522301  1
  O  O7  1  0.56364198  0.50613089  0.78477699  1
  O  O8  1  0.73686802  0.69123367  0.14994438  1
  O  O9  1  0.23686802  0.30876633  0.35005562  1
  O  O10  1  0.26313198  0.30876633  0.85005562  1
  O  O11  1  0.76313198  0.69123367  0.64994438  1
  O  O12  1  0.98594488  0.81979921  0.14434102  1
  O  O13  1  0.48594488  0.18020079  0.35565898  1
  O  O14  1  0.01405512  0.18020079  0.85565898  1
  O  O15  1  0.51405512  0.81979921  0.64434102  1
  O  O16  1  0.78592201  0.99209205  0.00311260  1
  O  O17  1  0.28592201  0.00790795  0.49688740  1
  O  O18  1  0.21407799  0.00790795  0.99688740  1
  O  O19  1  0.71407799  0.99209205  0.50311260  1
  O  O20  1  0.05095175  0.77611293  0.47154833  1
  O  O21  1  0.55095175  0.22388707  0.02845167  1
  O  O22  1  0.94904825  0.22388707  0.52845167  1
  O  O23  1  0.44904825  0.77611293  0.97154833  1
loop_
_geom_bond_atom_site_label_1
_geom_bond_atom_site_label_2
_geom_bond_distance
_geom_bond_site_symmetry_2
B0 O0 1.347110 1_555
B0 O4 1.378056 1_555
B0 O8 1.383596 1_555
B1 O1 1.347110 1_555
B1 O5 1.378056 1_555
B1 O9 1.383596 1_555
B2 O2 1.347110 1_555
B2 O6 1.378056 1_555
B2 O10 1.383596 1_555
B3 O3 1.347110 1_555
B3 O7 1.378056 1_555
B3 O11 1.383596 1_555
B4 O12 1.365839 1_555
B4 O16 1.367427 1_555
B4 O8 1.374736 1_555
B5 O13 1.365839 1_555
B5 O17 1.367427 1_555
B5 O9 1.374736 1_555
B6 O14 1.365839 1_555
B6 O18 1.367427 1_555
B6 O10 1.374736 1_555
B7 O15 1.365839 1_555
B7 O19 1.367427 1_555
B7 O11 1.374736 1_555
B8 O1 1.428852 1_555
B8 O4 1.454889 1_455
B8 O12 1.455812 1_455
B8 O20 1.553088 1_555
B9 O0 1.428852 1_555
B9 O5 1.454889 1_555
B9 O13 1.455812 1_555
B9 O21 1.553088 1_555
B10 O3 1.428852 1_555
B10 O6 1.454889 1_655
B10 O14 1.455812 1_655
B10 O22 1.553088 1_555
B11 O2 1.428852 1_555
B11 O7 1.454889 1_555
B11 O15 1.455812 1_555
B11 O23 1.553088 1_555
H0 O20 1.004716 1_555
H0 O17 1.602535 1_565
H1 O21 1.004716 1_555
H1 O16 1.602535 1_545
H2 O22 1.004716 1_555
H2 O19 1.602535 1_545
H3 O23 1.004716 1_555
H3 O18 1.602535 1_565
H4 O16 0.993627 1_546
H4 O14 1.646981 1_655
H5 O17 0.993627 1_565
H5 O15 1.646981 1_555
H6 O18 0.993627 1_564
H6 O12 1.646981 1_455
H7 O19 0.993627 1_545
H7 O13 1.646981 1_555
H8 O20 1.002946 1_555
H8 O6 1.640348 1_555
H9 O21 1.002946 1_556
H9 O7 1.640348 1_555
H10 O22 1.002946 1_555
H10 O4 1.640348 1_555
H11 O23 1.002946 1_554
H11 O5 1.640348 1_555
