# generated using pymatgen
data_CaLaVFeO6
_symmetry_space_group_name_H-M   'P 1'
_cell_length_a   5.53427778
_cell_length_b   7.70906586
_cell_length_c   5.59937283
_cell_angle_alpha   90.05883914
_cell_angle_beta   89.97941447
_cell_angle_gamma   89.75898730
_symmetry_Int_Tables_number   1
_chemical_formula_structural   CaLaVFeO6
_chemical_formula_sum   'Ca2 La2 V2 Fe2 O12'
_cell_volume   238.89001347
_cell_formula_units_Z   2
loop_
 _symmetry_equiv_pos_site_id
 _symmetry_equiv_pos_as_xyz
  1  'x, y, z'
loop_
 _atom_site_type_symbol
 _atom_site_label
 _atom_site_symmetry_multiplicity
 _atom_site_fract_x
 _atom_site_fract_y
 _atom_site_fract_z
 _atom_site_occupancy
  Ca  Ca0  1  0.51296000  0.25043300  0.54027400  1
  Ca  Ca1  1  0.01323100  0.75037900  0.95967300  1
  La  La0  1  0.98882200  0.24892100  0.03104500  1
  La  La1  1  0.48903300  0.74915600  0.46911900  1
  V  V0  1  0.49980400  0.99870700  0.99954600  1
  V  V1  1  0.99959100  0.49858600  0.50037500  1
  Fe  Fe0  1  0.99898600  0.00035300  0.50024000  1
  Fe  Fe1  1  0.49894700  0.50029600  0.99976300  1
  O  O0  1  0.58318300  0.75989700  0.01446500  1
  O  O1  1  0.08258200  0.25961600  0.48620700  1
  O  O2  1  0.21608500  0.95674200  0.21146100  1
  O  O3  1  0.71560000  0.45671600  0.28756700  1
  O  O4  1  0.21273700  0.54574400  0.21630100  1
  O  O5  1  0.71196500  0.04530100  0.28342500  1
  O  O6  1  0.92547200  0.74077900  0.51824200  1
  O  O7  1  0.42476600  0.24064700  0.98134400  1
  O  O8  1  0.28059800  0.54127300  0.71729200  1
  O  O9  1  0.78021300  0.04129800  0.78335000  1
  O  O10  1  0.28299800  0.95779300  0.71977600  1
  O  O11  1  0.78243100  0.45736000  0.78053500  1
loop_
_geom_bond_atom_site_label_1
_geom_bond_atom_site_label_2
_geom_bond_distance
_geom_bond_site_symmetry_2
Ca0 O5 2.400345 1_555
Ca0 O1 2.401859 1_555
Ca0 O3 2.409832 1_555
Ca0 O7 2.518580 1_555
Ca0 O11 2.568204 1_555
Ca0 O9 2.573968 1_555
Ca0 O8 2.762867 1_555
Ca0 O10 2.783391 1_545
Ca1 O0 2.400395 1_456
Ca1 O4 2.400774 1_556
Ca1 O2 2.406334 1_556
Ca1 O6 2.520245 1_455
Ca1 O8 2.569822 1_555
Ca1 O10 2.571591 1_555
Ca1 O9 2.765626 1_465
Ca1 O11 2.785828 1_455
La0 O9 2.414634 1_554
La0 O11 2.417563 1_554
La0 O7 2.429097 1_654
La0 O1 2.602384 1_655
La0 O5 2.613800 1_555
La0 O3 2.624686 1_555
La0 O2 2.767240 1_645
La0 O4 2.804916 1_655
La1 O10 2.415736 1_555
La1 O8 2.418454 1_555
La1 O6 2.431679 1_555
La1 O0 2.599842 1_555
La1 O4 2.611185 1_555
La1 O2 2.628723 1_555
La1 O3 2.767444 1_555
La1 O5 2.800544 1_565
Fe0 O9 2.018145 1_555
Fe0 O10 2.021676 1_645
Fe0 O5 2.028481 1_555
Fe0 O2 2.040911 1_645
Fe0 O6 2.046268 1_545
Fe0 O1 2.054992 1_655
Fe1 O8 2.015159 1_555
Fe1 O11 2.017723 1_555
Fe1 O4 2.023581 1_556
Fe1 O3 2.036327 1_556
Fe1 O7 2.047512 1_555
Fe1 O0 2.058342 1_556
O0 V0 1.897997 1_554
O1 V1 1.898324 1_455
O2 V0 1.995456 1_554
O3 V1 1.999773 1_555
O4 V1 2.014252 1_455
O5 V0 2.009487 1_544
O6 V1 1.912435 1_555
O7 V0 1.911927 1_545
O8 V1 2.001734 1_455
O9 V0 1.996320 1_545
O10 V0 1.999178 1_555
O11 V1 2.002287 1_555
