# generated using pymatgen
data_SrSmTi4O12
_symmetry_space_group_name_H-M   'P 1'
_cell_length_a   5.49750242
_cell_length_b   5.49750242
_cell_length_c   7.77464723
_cell_angle_alpha   90.00000000
_cell_angle_beta   90.00000000
_cell_angle_gamma   90.00000000
_symmetry_Int_Tables_number   1
_chemical_formula_structural   SrSmTi4O12
_chemical_formula_sum   'Sr1 Sm1 Ti4 O12'
_cell_volume   234.96953137
_cell_formula_units_Z   1
loop_
 _symmetry_equiv_pos_site_id
 _symmetry_equiv_pos_as_xyz
  1  'x, y, z'
loop_
 _atom_site_type_symbol
 _atom_site_label
 _atom_site_symmetry_multiplicity
 _atom_site_fract_x
 _atom_site_fract_y
 _atom_site_fract_z
 _atom_site_occupancy
  Sr  Sr0  1  -0.00000000  0.00000000  0.50000000  1
  Sm  Sm0  1  0.50000000  0.50000000  -0.00000000  1
  Ti  Ti0  1  0.00000000  0.50000000  0.74867740  1
  Ti  Ti1  1  -0.00000000  0.50000000  0.25132260  1
  Ti  Ti2  1  0.50000000  -0.00000000  0.74867740  1
  Ti  Ti3  1  0.50000000  0.00000000  0.25132260  1
  O  O0  1  0.25569563  0.25569563  0.76136081  1
  O  O1  1  0.25569563  0.25569563  0.23863919  1
  O  O2  1  0.74430437  0.74430437  0.76136081  1
  O  O3  1  0.74430437  0.74430437  0.23863919  1
  O  O4  1  0.74430437  0.25569563  0.76136081  1
  O  O5  1  0.74430437  0.25569563  0.23863919  1
  O  O6  1  0.25569563  0.74430437  0.76136081  1
  O  O7  1  0.25569563  0.74430437  0.23863919  1
  O  O8  1  0.00000000  0.50000000  0.50000000  1
  O  O9  1  0.00000000  0.50000000  0.00000000  1
  O  O10  1  0.50000000  -0.00000000  0.50000000  1
  O  O11  1  0.50000000  -0.00000000  0.00000000  1
loop_
_geom_bond_atom_site_label_1
_geom_bond_atom_site_label_2
_geom_bond_distance
_geom_bond_site_symmetry_2
O0 Ti0 1.946664 1_555
O0 Ti2 1.946664 1_555
O0 Sm0 2.655167 1_556
O0 Sr0 2.842691 1_555
O1 Ti1 1.946664 1_555
O1 Ti3 1.946664 1_555
O1 Sm0 2.655167 1_555
O1 Sr0 2.842691 1_555
O2 Ti0 1.946664 1_655
O2 Ti2 1.946664 1_565
O2 Sm0 2.655167 1_556
O2 Sr0 2.842691 1_665
O3 Ti3 1.946664 1_565
O3 Ti1 1.946664 1_655
O3 Sm0 2.655167 1_555
O3 Sr0 2.842691 1_665
O4 Ti0 1.946664 1_655
O4 Ti2 1.946664 1_555
O4 Sm0 2.655167 1_556
O4 Sr0 2.842691 1_655
O5 Ti1 1.946664 1_655
O5 Ti3 1.946664 1_555
O5 Sm0 2.655167 1_555
O5 Sr0 2.842691 1_655
O6 Ti2 1.946664 1_565
O6 Ti0 1.946664 1_555
O6 Sm0 2.655167 1_556
O6 Sr0 2.842691 1_565
O7 Ti3 1.946664 1_565
O7 Ti1 1.946664 1_555
O7 Sm0 2.655167 1_555
O7 Sr0 2.842691 1_565
O8 Ti0 1.933379 1_555
O8 Ti1 1.933379 1_555
O8 Sr0 2.748751 1_555
O8 Sr0 2.748751 1_565
O9 Ti1 1.953945 1_555
O9 Ti0 1.953945 1_554
O9 Sm0 2.748751 1_455
O9 Sm0 2.748751 1_555
O10 Ti2 1.933379 1_555
O10 Ti3 1.933379 1_555
O10 Sr0 2.748751 1_555
O10 Sr0 2.748751 1_655
O11 Ti3 1.953945 1_555
O11 Ti2 1.953945 1_554
O11 Sm0 2.748751 1_545
O11 Sm0 2.748751 1_555
