# generated using pymatgen
data_Ba2GdCu2HgO7
_symmetry_space_group_name_H-M   'P 1'
_cell_length_a   3.89915000
_cell_length_b   3.89915000
_cell_length_c   12.94380700
_cell_angle_alpha   90.00000000
_cell_angle_beta   90.00000000
_cell_angle_gamma   90.00000000
_symmetry_Int_Tables_number   1
_chemical_formula_structural   Ba2GdCu2HgO7
_chemical_formula_sum   'Ba2 Gd1 Cu2 Hg1 O7'
_cell_volume   196.78949638
_cell_formula_units_Z   1
loop_
 _symmetry_equiv_pos_site_id
 _symmetry_equiv_pos_as_xyz
  1  'x, y, z'
loop_
 _atom_site_type_symbol
 _atom_site_label
 _atom_site_symmetry_multiplicity
 _atom_site_fract_x
 _atom_site_fract_y
 _atom_site_fract_z
 _atom_site_occupancy
  Ba  Ba0  1  0.50000000  0.50000000  0.20258900  1
  Ba  Ba1  1  0.50000000  0.50000000  0.79741100  1
  Gd  Gd0  1  0.50000000  0.50000000  0.50000000  1
  Cu  Cu0  1  0.00000000  0.00000000  0.37143500  1
  Cu  Cu1  1  0.00000000  0.00000000  0.62856500  1
  Hg  Hg0  1  0.00000000  0.00000000  0.00000000  1
  O  O0  1  0.00000000  0.00000000  0.16394500  1
  O  O1  1  0.00000000  0.00000000  0.83605500  1
  O  O2  1  0.00000000  0.50000000  0.38664600  1
  O  O3  1  0.00000000  0.50000000  0.61335400  1
  O  O4  1  0.50000000  0.00000000  0.38664600  1
  O  O5  1  0.50000000  0.00000000  0.61335400  1
  O  O6  1  0.50000000  0.50000000  0.00000000  1
loop_
_geom_bond_atom_site_label_1
_geom_bond_atom_site_label_2
_geom_bond_distance
_geom_bond_site_symmetry_2
Ba0 O6 2.622273 1_555
Ba0 O0 2.802122 1_655
Ba0 O0 2.802122 1_555
Ba0 O0 2.802122 1_565
Ba0 O0 2.802122 1_665
Ba0 O2 3.078419 1_655
Ba0 O4 3.078419 1_565
Ba0 O2 3.078419 1_555
Ba0 O4 3.078419 1_555
Ba1 O6 2.622273 1_556
Ba1 O1 2.802122 1_555
Ba1 O1 2.802122 1_565
Ba1 O1 2.802122 1_665
Ba1 O1 2.802122 1_655
Ba1 O5 3.078419 1_555
Ba1 O5 3.078419 1_565
Ba1 O3 3.078419 1_555
Ba1 O3 3.078419 1_655
Gd0 O5 2.440003 1_565
Gd0 O3 2.440003 1_555
Gd0 O3 2.440003 1_655
Gd0 O5 2.440003 1_555
Gd0 O4 2.440003 1_555
Gd0 O2 2.440003 1_555
Gd0 O2 2.440003 1_655
Gd0 O4 2.440003 1_565
Cu0 O4 1.959492 1_555
Cu0 O2 1.959492 1_555
Cu0 O4 1.959492 1_455
Cu0 O2 1.959492 1_545
Cu0 O0 2.685711 1_555
Cu1 O3 1.959492 1_545
Cu1 O5 1.959492 1_455
Cu1 O3 1.959492 1_555
Cu1 O5 1.959492 1_555
Cu1 O1 2.685711 1_555
Hg0 O1 2.122072 1_554
Hg0 O0 2.122072 1_555
