# generated using pymatgen
data_Mg6CdW
_symmetry_space_group_name_H-M   'P 1'
_cell_length_a   4.94761800
_cell_length_b   6.17329000
_cell_length_c   10.65528600
_cell_angle_alpha   90.00000000
_cell_angle_beta   90.00000000
_cell_angle_gamma   90.00000000
_symmetry_Int_Tables_number   1
_chemical_formula_structural   Mg6CdW
_chemical_formula_sum   'Mg12 Cd2 W2'
_cell_volume   325.44526043
_cell_formula_units_Z   2
loop_
 _symmetry_equiv_pos_site_id
 _symmetry_equiv_pos_as_xyz
  1  'x, y, z'
loop_
 _atom_site_type_symbol
 _atom_site_label
 _atom_site_symmetry_multiplicity
 _atom_site_fract_x
 _atom_site_fract_y
 _atom_site_fract_z
 _atom_site_occupancy
  Mg  Mg0  1  0.00000000  0.25157900  0.08250100  1
  Mg  Mg1  1  0.00000000  0.74842100  0.08250100  1
  Mg  Mg2  1  0.00000000  0.50000000  0.83446700  1
  Mg  Mg3  1  0.50000000  0.23570800  0.91122900  1
  Mg  Mg4  1  0.50000000  0.76429200  0.91122900  1
  Mg  Mg5  1  0.50000000  0.50000000  0.66667500  1
  Mg  Mg6  1  0.00000000  0.75157900  0.58250100  1
  Mg  Mg7  1  0.00000000  0.24842100  0.58250100  1
  Mg  Mg8  1  0.00000000  0.00000000  0.33446700  1
  Mg  Mg9  1  0.50000000  0.73570800  0.41122900  1
  Mg  Mg10  1  0.50000000  0.26429200  0.41122900  1
  Mg  Mg11  1  0.50000000  0.00000000  0.16667500  1
  Cd  Cd0  1  0.50000000  0.50000000  0.17368200  1
  Cd  Cd1  1  0.50000000  0.00000000  0.67368200  1
  W  W0  1  0.00000000  0.50000000  0.33771600  1
  W  W1  1  0.00000000  0.00000000  0.83771600  1
loop_
_geom_bond_atom_site_label_1
_geom_bond_atom_site_label_2
_geom_bond_distance
_geom_bond_site_symmetry_2
Mg0 W1 3.035625 1_554
Mg0 Mg11 3.055517 1_555
Mg0 Mg11 3.055517 1_455
Mg0 Mg2 3.055590 1_554
Mg0 Mg1 3.067150 1_555
Mg0 Mg3 3.075676 1_554
Mg0 Mg3 3.075676 1_454
Mg0 Mg8 3.101615 1_555
Mg0 Mg1 3.106140 1_545
Mg0 W0 3.122007 1_555
Mg1 W1 3.035625 1_564
Mg1 Mg11 3.055517 1_565
Mg1 Mg11 3.055517 1_465
Mg1 Mg2 3.055590 1_554
Mg1 Mg4 3.075676 1_454
Mg1 Mg4 3.075676 1_554
Mg1 Mg8 3.101615 1_565
Mg1 W0 3.122007 1_555
Mg2 Mg5 3.052248 1_455
Mg2 Mg5 3.052248 1_555
Mg2 Mg4 3.074197 1_455
Mg2 Mg3 3.074197 1_555
Mg2 Mg4 3.074197 1_555
Mg2 Mg3 3.074197 1_455
Mg2 W1 3.086839 1_565
Mg2 W1 3.086839 1_555
Mg2 Mg7 3.101615 1_555
Mg2 Mg6 3.101615 1_555
Mg3 Mg4 2.910188 1_545
Mg3 W1 2.974994 1_555
Mg3 W1 2.974994 1_655
Mg3 Mg5 3.074429 1_555
Mg3 Mg4 3.263102 1_555
Mg4 W1 2.974994 1_565
Mg4 W1 2.974994 1_665
Mg4 Mg5 3.074429 1_555
Mg5 Mg6 3.055517 1_655
Mg5 Mg7 3.055517 1_655
Mg5 Mg6 3.055517 1_555
Mg5 Mg7 3.055517 1_555
Mg5 Mg9 3.086384 1_555
Mg6 W0 3.035625 1_555
Mg6 Mg8 3.055590 1_565
Mg6 Mg7 3.067150 1_565
Mg6 Mg9 3.075676 1_555
Mg6 Mg9 3.075676 1_455
Mg6 Mg7 3.106140 1_555
Mg6 W1 3.122007 1_565
Mg7 W0 3.035625 1_555
Mg7 Mg8 3.055590 1_555
Mg7 W1 3.122007 1_555
Mg8 Mg9 3.074197 1_545
Mg8 Mg9 3.074197 1_445
Mg8 W0 3.086839 1_545
Mg8 W0 3.086839 1_555
Mg9 W0 2.974994 1_655
Mg9 W0 2.974994 1_555
Mg10 Mg9 2.910188 1_555
Mg10 W0 2.974994 1_655
Mg10 W0 2.974994 1_555
Mg10 Mg8 3.074197 1_555
Mg10 Mg8 3.074197 1_655
Mg10 Mg11 3.074429 1_555
Mg10 Mg7 3.075676 1_555
Mg10 Mg7 3.075676 1_655
Mg10 Mg5 3.086384 1_555
Mg10 Mg9 3.263102 1_545
Mg11 Mg8 3.052248 1_655
Mg11 Mg8 3.052248 1_555
Mg11 Mg9 3.074429 1_545
Mg11 Mg4 3.086384 1_544
Mg11 Mg3 3.086384 1_554
Cd0 Mg10 2.919576 1_555
Cd0 Mg9 2.919576 1_555
Cd0 W0 3.028966 1_555
Cd0 W0 3.028966 1_655
Cd0 Mg0 3.068470 1_655
Cd0 Mg1 3.068470 1_655
Cd0 Mg1 3.068470 1_555
Cd0 Mg0 3.068470 1_555
Cd0 Mg11 3.087548 1_555
Cd0 Mg11 3.087548 1_565
Cd0 Mg3 3.237659 1_554
Cd0 Mg4 3.237659 1_554
Cd1 Mg3 2.919576 1_555
Cd1 Mg4 2.919576 1_545
Cd1 W1 3.028966 1_655
Cd1 W1 3.028966 1_555
Cd1 Mg6 3.068470 1_545
Cd1 Mg7 3.068470 1_655
Cd1 Mg6 3.068470 1_645
Cd1 Mg7 3.068470 1_555
Cd1 Mg5 3.087548 1_545
Cd1 Mg5 3.087548 1_555
Cd1 Mg9 3.237659 1_545
Cd1 Mg10 3.237659 1_555
