# generated using pymatgen
data_Sr3Al3N5
_symmetry_space_group_name_H-M   'P 1'
_cell_length_a   5.73061933
_cell_length_b   7.25154481
_cell_length_c   8.57413587
_cell_angle_alpha   108.89171291
_cell_angle_beta   102.68692379
_cell_angle_gamma   96.01320108
_symmetry_Int_Tables_number   1
_chemical_formula_structural   Sr3Al3N5
_chemical_formula_sum   'Sr6 Al6 N10'
_cell_volume   322.85655494
_cell_formula_units_Z   2
loop_
 _symmetry_equiv_pos_site_id
 _symmetry_equiv_pos_as_xyz
  1  'x, y, z'
loop_
 _atom_site_type_symbol
 _atom_site_label
 _atom_site_symmetry_multiplicity
 _atom_site_fract_x
 _atom_site_fract_y
 _atom_site_fract_z
 _atom_site_occupancy
  Sr  Sr0  1  0.81169309  0.42259380  0.60815014  1
  Sr  Sr1  1  0.18830691  0.57740620  0.39184986  1
  Sr  Sr2  1  0.66953549  0.85835372  0.87848412  1
  Sr  Sr3  1  0.33046451  0.14164628  0.12151588  1
  Sr  Sr4  1  0.66336094  0.65551233  0.20832525  1
  Sr  Sr5  1  0.33663906  0.34448767  0.79167475  1
  Al  Al0  1  0.91065613  0.31796326  0.97356114  1
  Al  Al1  1  0.08934387  0.68203674  0.02643886  1
  Al  Al2  1  0.70074200  0.96191692  0.57578680  1
  Al  Al3  1  0.29925800  0.03808308  0.42421320  1
  Al  Al4  1  0.11100373  0.88605053  0.70886206  1
  Al  Al5  1  0.88899627  0.11394947  0.29113794  1
  N  N0  1  0.94823778  0.10857300  0.78152410  1
  N  N1  1  0.05176222  0.89142700  0.21847590  1
  N  N2  1  0.82594110  0.72588340  0.53196046  1
  N  N3  1  0.17405890  0.27411660  0.46803954  1
  N  N4  1  0.77109891  0.51971235  0.91145035  1
  N  N5  1  0.22890109  0.48028765  0.08854965  1
  N  N6  1  0.37663798  0.94846375  0.61312747  1
  N  N7  1  0.62336202  0.05153625  0.38687253  1
  N  N8  1  0.21771422  0.78022341  0.87857359  1
  N  N9  1  0.78228578  0.21977659  0.12142641  1
loop_
_geom_bond_atom_site_label_1
_geom_bond_atom_site_label_2
_geom_bond_distance
_geom_bond_site_symmetry_2
Al0 N9 1.881477 1_556
Al0 N4 1.904241 1_555
Al0 N0 1.915294 1_555
Al0 N5 1.921604 1_656
Al1 N8 1.881477 1_554
Al1 N5 1.904241 1_555
Al1 N1 1.915294 1_555
Al1 N4 1.921604 1_454
Al2 N2 1.882760 1_555
Al2 N0 1.903822 1_565
Al2 N7 1.915514 1_565
Al2 N6 1.950668 1_555
Al3 N3 1.882760 1_555
Al3 N1 1.903822 1_545
Al3 N6 1.915514 1_545
Al3 N7 1.950668 1_555
Al4 N8 1.873728 1_555
Al4 N2 1.921335 1_455
Al4 N0 1.944626 1_465
Al4 N6 1.959831 1_555
Al5 N9 1.873728 1_555
Al5 N3 1.921335 1_655
Al5 N1 1.944626 1_645
Al5 N7 1.959831 1_555
N0 Sr5 2.628505 1_655
N0 Sr2 2.736272 1_545
N1 Sr4 2.628505 1_455
N1 Sr3 2.736272 1_565
N2 Sr0 2.487286 1_555
N2 Sr4 2.583853 1_555
N2 Sr1 2.764281 1_655
N3 Sr1 2.487286 1_555
N3 Sr5 2.583853 1_555
N3 Sr0 2.764281 1_455
N4 Sr5 2.497402 1_555
N4 Sr0 2.535146 1_555
N4 Sr4 2.650418 1_556
N4 Sr2 2.669390 1_555
N5 Sr4 2.497402 1_555
N5 Sr1 2.535146 1_555
N5 Sr5 2.650418 1_554
N5 Sr3 2.669390 1_555
N6 Sr1 2.681568 1_555
N6 Sr2 2.817078 1_555
N6 Sr5 2.844018 1_565
N7 Sr0 2.681568 1_555
N7 Sr3 2.817078 1_555
N7 Sr4 2.844018 1_545
N8 Sr2 2.592072 1_555
N8 Sr3 2.672864 1_566
N8 Sr5 3.186432 1_555
N9 Sr3 2.592072 1_555
N9 Sr2 2.672864 1_544
N9 Sr4 3.186432 1_555
