# generated using pymatgen
data_SiSnO4
_symmetry_space_group_name_H-M   'P 1'
_cell_length_a   10.11591457
_cell_length_b   10.11591457
_cell_length_c   10.11591457
_cell_angle_alpha   109.47122063
_cell_angle_beta   109.47122063
_cell_angle_gamma   109.47122063
_symmetry_Int_Tables_number   1
_chemical_formula_structural   SiSnO4
_chemical_formula_sum   'Si12 Sn12 O48'
_cell_volume   796.88117655
_cell_formula_units_Z   12
loop_
 _symmetry_equiv_pos_site_id
 _symmetry_equiv_pos_as_xyz
  1  'x, y, z'
loop_
 _atom_site_type_symbol
 _atom_site_label
 _atom_site_symmetry_multiplicity
 _atom_site_fract_x
 _atom_site_fract_y
 _atom_site_fract_z
 _atom_site_occupancy
  Si  Si0  1  0.12500000  0.87500000  0.25000000  1
  Si  Si1  1  0.25000000  0.12500000  0.87500000  1
  Si  Si2  1  0.75000000  0.37500000  0.62500000  1
  Si  Si3  1  0.62500000  0.37500000  0.25000000  1
  Si  Si4  1  0.62500000  0.75000000  0.37500000  1
  Si  Si5  1  0.37500000  0.62500000  0.75000000  1
  Si  Si6  1  0.12500000  0.75000000  0.87500000  1
  Si  Si7  1  0.75000000  0.87500000  0.12500000  1
  Si  Si8  1  0.87500000  0.25000000  0.12500000  1
  Si  Si9  1  0.37500000  0.25000000  0.62500000  1
  Si  Si10  1  0.25000000  0.62500000  0.37500000  1
  Si  Si11  1  0.87500000  0.12500000  0.75000000  1
  Sn  Sn0  1  0.87500000  0.62500000  0.25000000  1
  Sn  Sn1  1  0.62500000  0.25000000  0.87500000  1
  Sn  Sn2  1  0.87500000  0.75000000  0.62500000  1
  Sn  Sn3  1  0.75000000  0.62500000  0.87500000  1
  Sn  Sn4  1  0.25000000  0.87500000  0.62500000  1
  Sn  Sn5  1  0.62500000  0.87500000  0.75000000  1
  Sn  Sn6  1  0.12500000  0.37500000  0.75000000  1
  Sn  Sn7  1  0.37500000  0.75000000  0.12500000  1
  Sn  Sn8  1  0.12500000  0.25000000  0.37500000  1
  Sn  Sn9  1  0.25000000  0.37500000  0.12500000  1
  Sn  Sn10  1  0.75000000  0.12500000  0.37500000  1
  Sn  Sn11  1  0.37500000  0.12500000  0.25000000  1
  O  O0  1  0.47017700  0.36950400  0.27585200  1
  O  O1  1  0.30567400  0.89932600  0.02982300  1
  O  O2  1  0.60067400  0.90634800  0.13049600  1
  O  O3  1  0.59365200  0.19432600  0.22414800  1
  O  O4  1  0.13049600  0.02982300  0.22414800  1
  O  O5  1  0.19432600  0.22414800  0.59365200  1
  O  O6  1  0.19432600  0.47017700  0.60067400  1
  O  O7  1  0.22414800  0.59365200  0.19432600  1
  O  O8  1  0.36950400  0.59365200  0.89932600  1
  O  O9  1  0.90634800  0.27585200  0.30567400  1
  O  O10  1  0.27585200  0.30567400  0.90634800  1
  O  O11  1  0.22414800  0.13049600  0.02982300  1
  O  O12  1  0.47017700  0.60067400  0.19432600  1
  O  O13  1  0.89932600  0.36950400  0.59365200  1
  O  O14  1  0.02982300  0.22414800  0.13049600  1
  O  O15  1  0.60067400  0.19432600  0.47017700  1
  O  O16  1  0.59365200  0.89932600  0.36950400  1
  O  O17  1  0.02982300  0.30567400  0.89932600  1
  O  O18  1  0.90634800  0.13049600  0.60067400  1
  O  O19  1  0.63049600  0.40634800  0.10067400  1
  O  O20  1  0.36950400  0.27585200  0.47017700  1
  O  O21  1  0.27585200  0.47017700  0.36950400  1
  O  O22  1  0.89932600  0.02982300  0.30567400  1
  O  O23  1  0.30567400  0.90634800  0.27585200  1
  O  O24  1  0.52982300  0.63049600  0.72414800  1
  O  O25  1  0.69432600  0.10067400  0.97017700  1
  O  O26  1  0.39932600  0.09365200  0.86950400  1
  O  O27  1  0.40634800  0.80567400  0.77585200  1
  O  O28  1  0.86950400  0.97017700  0.77585200  1
  O  O29  1  0.80567400  0.77585200  0.40634800  1
  O  O30  1  0.80567400  0.52982300  0.39932600  1
  O  O31  1  0.77585200  0.40634800  0.80567400  1
  O  O32  1  0.69432600  0.09365200  0.72414800  1
  O  O33  1  0.10067400  0.97017700  0.69432600  1
  O  O34  1  0.72414800  0.52982300  0.63049600  1
  O  O35  1  0.63049600  0.72414800  0.52982300  1
  O  O36  1  0.86950400  0.39932600  0.09365200  1
  O  O37  1  0.09365200  0.86950400  0.39932600  1
  O  O38  1  0.97017700  0.69432600  0.10067400  1
  O  O39  1  0.40634800  0.10067400  0.63049600  1
  O  O40  1  0.39932600  0.80567400  0.52982300  1
  O  O41  1  0.97017700  0.77585200  0.86950400  1
  O  O42  1  0.10067400  0.63049600  0.40634800  1
  O  O43  1  0.52982300  0.39932600  0.80567400  1
  O  O44  1  0.77585200  0.86950400  0.97017700  1
  O  O45  1  0.72414800  0.69432600  0.09365200  1
  O  O46  1  0.09365200  0.72414800  0.69432600  1
  O  O47  1  0.13049600  0.60067400  0.90634800  1
loop_
_geom_bond_atom_site_label_1
_geom_bond_atom_site_label_2
_geom_bond_distance
_geom_bond_site_symmetry_2
O0 Si3 1.658037 1_555
O0 Sn11 2.219534 1_555
O0 Sn9 2.272844 1_555
O1 Si6 1.658030 1_554
O1 Sn7 2.219529 1_555
O1 Sn11 2.272847 1_565
O2 Si7 1.658027 1_555
O2 Sn10 2.219534 1_565
O2 Sn7 2.272852 1_555
O3 Si3 1.658027 1_555
O3 Sn11 2.219534 1_555
O3 Sn10 2.272852 1_555
O4 Si0 1.658037 1_545
O4 Sn11 2.219534 1_555
O4 Sn8 2.272844 1_555
O5 Si9 1.658027 1_555
O5 Sn8 2.219534 1_555
O5 Sn6 2.272852 1_555
O6 Si5 1.658030 1_555
O6 Sn6 2.219529 1_555
O6 Sn8 2.272847 1_555
O7 Si10 1.658027 1_555
O7 Sn9 2.219534 1_555
O7 Sn7 2.272852 1_555
O8 Si5 1.658027 1_555
O8 Sn6 2.219534 1_555
O8 Sn7 2.272852 1_556
O9 Si8 1.658027 1_555
O9 Sn8 2.219534 1_655
O9 Sn10 2.272852 1_555
O10 Si1 1.658027 1_555
O10 Sn9 2.219534 1_556
O10 Sn6 2.272852 1_555
O11 Si1 1.658037 1_554
O11 Sn9 2.219534 1_555
O11 Sn11 2.272844 1_555
O12 Si4 1.658030 1_555
O12 Sn7 2.219529 1_555
O12 Sn9 2.272847 1_555
O13 Si2 1.658027 1_555
O13 Sn10 2.219534 1_555
O13 Sn6 2.272852 1_655
O14 Si8 1.658037 1_455
O14 Sn8 2.219534 1_555
O14 Sn9 2.272844 1_555
O15 Si2 1.658030 1_555
O15 Sn10 2.219529 1_555
O15 Sn11 2.272847 1_555
O16 Si4 1.658027 1_555
O16 Sn7 2.219534 1_555
O16 Sn10 2.272852 1_565
O17 Si11 1.658030 1_455
O17 Sn6 2.219529 1_555
O17 Sn9 2.272847 1_556
O18 Si11 1.658027 1_555
O18 Sn6 2.219534 1_655
O18 Sn10 2.272852 1_555
O19 Si3 1.658027 1_555
O19 Sn0 2.219534 1_555
O19 Sn1 2.272852 1_554
O20 Si9 1.658037 1_555
O20 Sn8 2.219534 1_555
O20 Sn11 2.272844 1_555
O21 Si10 1.658037 1_555
O21 Sn9 2.219534 1_555
O21 Sn8 2.272844 1_555
O22 Si7 1.658030 1_545
O22 Sn10 2.219529 1_555
O22 Sn8 2.272847 1_655
O23 Si0 1.658027 1_555
O23 Sn11 2.219534 1_565
O23 Sn7 2.272852 1_555
O24 Si5 1.658037 1_555
O24 Sn5 2.219534 1_555
O24 Sn3 2.272844 1_555
O25 Si8 1.658030 1_556
O25 Sn1 2.219529 1_555
O25 Sn5 2.272847 1_545
O26 Si1 1.658027 1_555
O26 Sn4 2.219534 1_545
O26 Sn1 2.272852 1_555
O27 Si5 1.658027 1_555
O27 Sn5 2.219534 1_555
O27 Sn4 2.272852 1_555
O28 Si11 1.658037 1_565
O28 Sn5 2.219534 1_555
O28 Sn2 2.272844 1_555
O29 Si4 1.658027 1_555
O29 Sn2 2.219534 1_555
O29 Sn0 2.272852 1_555
O30 Si3 1.658030 1_555
O30 Sn0 2.219529 1_555
O30 Sn2 2.272847 1_555
O31 Si2 1.658027 1_555
O31 Sn3 2.219534 1_555
O31 Sn1 2.272852 1_555
O32 Si11 1.658027 1_555
O32 Sn5 2.219534 1_545
O32 Sn1 2.272852 1_555
O33 Si1 1.658030 1_565
O33 Sn4 2.219529 1_555
O33 Sn2 2.272847 1_455
O34 Si2 1.658037 1_555
O34 Sn3 2.219534 1_555
O34 Sn2 2.272844 1_555
O35 Si4 1.658037 1_555
O35 Sn2 2.219534 1_555
O35 Sn5 2.272844 1_555
O36 Si8 1.658027 1_555
O36 Sn1 2.219534 1_554
O36 Sn0 2.272852 1_555
O37 Si0 1.658027 1_555
O37 Sn0 2.219534 1_455
O37 Sn4 2.272852 1_555
O38 Si0 1.658030 1_655
O38 Sn0 2.219529 1_555
O38 Sn3 2.272847 1_554
O39 Si9 1.658027 1_555
O39 Sn1 2.219534 1_555
O39 Sn4 2.272852 1_545
O40 Si10 1.658030 1_555
O40 Sn4 2.219529 1_555
O40 Sn5 2.272847 1_555
O41 Si6 1.658037 1_655
O41 Sn2 2.219534 1_555
O41 Sn3 2.272844 1_555
O42 Si10 1.658027 1_555
O42 Sn4 2.219534 1_555
O42 Sn0 2.272852 1_455
O43 Si9 1.658030 1_555
O43 Sn1 2.219529 1_555
O43 Sn3 2.272847 1_555
O44 Si7 1.658037 1_556
O44 Sn3 2.219534 1_555
O44 Sn5 2.272844 1_555
O45 Si7 1.658027 1_555
O45 Sn3 2.219534 1_554
O45 Sn0 2.272852 1_555
O46 Si6 1.658027 1_555
O46 Sn2 2.219534 1_455
O46 Sn4 2.272852 1_555
O47 Si6 1.658027 1_555
O47 Sn7 2.219534 1_556
O47 Sn6 2.272852 1_555
