# generated using pymatgen
data_Sr11(GeN5)2
_symmetry_space_group_name_H-M   'P 1'
_cell_length_a   16.27689900
_cell_length_b   16.27689900
_cell_length_c   3.90283400
_cell_angle_alpha   90.00000000
_cell_angle_beta   90.00000000
_cell_angle_gamma   90.00000000
_symmetry_Int_Tables_number   1
_chemical_formula_structural   Sr11(GeN5)2
_chemical_formula_sum   'Sr22 Ge4 N20'
_cell_volume   1034.00685283
_cell_formula_units_Z   2
loop_
 _symmetry_equiv_pos_site_id
 _symmetry_equiv_pos_as_xyz
  1  'x, y, z'
loop_
 _atom_site_type_symbol
 _atom_site_label
 _atom_site_symmetry_multiplicity
 _atom_site_fract_x
 _atom_site_fract_y
 _atom_site_fract_z
 _atom_site_occupancy
  Sr  Sr0  1  0.50000000  0.50000000  0.50000000  1
  Sr  Sr1  1  0.00000000  0.00000000  0.00000000  1
  Sr  Sr2  1  0.00637600  0.77752700  0.50000000  1
  Sr  Sr3  1  0.99362400  0.22247300  0.50000000  1
  Sr  Sr4  1  0.49362400  0.27752700  0.00000000  1
  Sr  Sr5  1  0.50637600  0.72247300  0.00000000  1
  Sr  Sr6  1  0.77752700  0.00637600  0.50000000  1
  Sr  Sr7  1  0.22247300  0.99362400  0.50000000  1
  Sr  Sr8  1  0.27752700  0.49362400  0.00000000  1
  Sr  Sr9  1  0.72247300  0.50637600  0.00000000  1
  Sr  Sr10  1  0.70747300  0.70747300  0.50000000  1
  Sr  Sr11  1  0.29252700  0.29252700  0.50000000  1
  Sr  Sr12  1  0.79252700  0.20747300  0.00000000  1
  Sr  Sr13  1  0.20747300  0.79252700  0.00000000  1
  Sr  Sr14  1  0.39386300  0.87920800  0.50000000  1
  Sr  Sr15  1  0.60613700  0.12079200  0.50000000  1
  Sr  Sr16  1  0.10613700  0.37920800  0.00000000  1
  Sr  Sr17  1  0.89386300  0.62079200  0.00000000  1
  Sr  Sr18  1  0.87920800  0.39386300  0.50000000  1
  Sr  Sr19  1  0.12079200  0.60613700  0.50000000  1
  Sr  Sr20  1  0.37920800  0.10613700  0.00000000  1
  Sr  Sr21  1  0.62079200  0.89386300  0.00000000  1
  Ge  Ge0  1  0.35276900  0.64723100  0.50000000  1
  Ge  Ge1  1  0.64723100  0.35276900  0.50000000  1
  Ge  Ge2  1  0.14723100  0.14723100  0.00000000  1
  Ge  Ge3  1  0.85276900  0.85276900  0.00000000  1
  N  N0  1  0.07473900  0.92526100  0.50000000  1
  N  N1  1  0.92526100  0.07473900  0.50000000  1
  N  N2  1  0.42526100  0.42526100  0.00000000  1
  N  N3  1  0.57473900  0.57473900  0.00000000  1
  N  N4  1  0.45393600  0.17773300  0.50000000  1
  N  N5  1  0.54606400  0.82226700  0.50000000  1
  N  N6  1  0.04606400  0.67773300  0.00000000  1
  N  N7  1  0.95393600  0.32226700  0.00000000  1
  N  N8  1  0.17773300  0.45393600  0.50000000  1
  N  N9  1  0.82226700  0.54606400  0.50000000  1
  N  N10  1  0.67773300  0.04606400  0.00000000  1
  N  N11  1  0.32226700  0.95393600  0.00000000  1
  N  N12  1  0.86919700  0.13080300  0.50000000  1
  N  N13  1  0.13080300  0.86919700  0.50000000  1
  N  N14  1  0.63080300  0.63080300  0.00000000  1
  N  N15  1  0.36919700  0.36919700  0.00000000  1
  N  N16  1  0.72505000  0.27495000  0.50000000  1
  N  N17  1  0.27495000  0.72505000  0.50000000  1
  N  N18  1  0.77495000  0.77495000  0.00000000  1
  N  N19  1  0.22505000  0.22505000  0.00000000  1
loop_
_geom_bond_atom_site_label_1
_geom_bond_atom_site_label_2
_geom_bond_distance
_geom_bond_site_symmetry_2
Ge0 N17 1.791316 1_555
Ge0 Sr0 3.389112 1_555
Ge0 Sr5 3.399877 1_555
Ge0 Sr5 3.399877 1_556
Ge0 Sr8 3.399877 1_556
Ge0 Sr8 3.399877 1_555
Ge1 N16 1.791316 1_555
Ge1 Sr0 3.389112 1_555
Ge1 Sr9 3.399877 1_555
Ge1 Sr9 3.399877 1_556
Ge1 Sr4 3.399877 1_556
Ge1 Sr4 3.399877 1_555
Ge2 N19 1.791316 1_555
Ge2 Sr1 3.389112 1_555
Ge2 Sr7 3.399877 1_545
Ge2 Sr7 3.399877 1_544
Ge2 Sr3 3.399877 1_455
Ge2 Sr3 3.399877 1_454
Ge3 N18 1.791316 1_555
Ge3 Sr1 3.389112 1_665
Ge3 Sr2 3.399877 1_655
Ge3 Sr6 3.399877 1_565
Ge3 Sr2 3.399877 1_654
Ge3 Sr6 3.399877 1_564
N0 N13 1.290538 1_555
N0 Sr1 2.601512 1_565
N0 Sr1 2.601512 1_566
N0 Sr7 2.649629 1_555
N0 Sr2 2.649629 1_555
N1 N12 1.290538 1_555
N1 Sr1 2.601512 1_655
N1 Sr1 2.601512 1_656
N1 Sr3 2.649629 1_555
N1 Sr6 2.649629 1_555
N2 Sr0 2.601512 1_555
N2 Sr0 2.601512 1_554
N2 Sr4 2.649629 1_555
N2 Sr8 2.649629 1_555
N3 Sr0 2.601512 1_554
N3 Sr0 2.601512 1_555
N3 Sr9 2.649629 1_555
N3 Sr5 2.649629 1_555
N4 Sr20 2.577902 1_555
N4 Sr20 2.577902 1_556
N4 Sr4 2.619888 1_555
N4 Sr4 2.619888 1_556
N4 Sr15 2.645055 1_555
N4 Sr11 3.223916 1_555
N5 Sr21 2.577902 1_556
N5 Sr21 2.577902 1_555
N5 Sr5 2.619888 1_555
N5 Sr5 2.619888 1_556
N5 Sr14 2.645055 1_555
N5 Sr10 3.223916 1_555
N6 Sr19 2.577902 1_555
N6 Sr19 2.577902 1_554
N6 Sr2 2.619888 1_555
N6 Sr2 2.619888 1_554
N6 Sr17 2.645055 1_455
N6 Sr13 3.223916 1_555
N7 Sr18 2.577902 1_554
N7 Sr18 2.577902 1_555
N7 Sr3 2.619888 1_554
N7 Sr3 2.619888 1_555
N7 Sr16 2.645055 1_655
N7 Sr12 3.223916 1_555
N8 Sr16 2.577902 1_555
N8 Sr16 2.577902 1_556
N8 Sr8 2.619888 1_555
N8 Sr8 2.619888 1_556
N8 Sr19 2.645055 1_555
N8 Sr11 3.223916 1_555
N9 Sr17 2.577902 1_556
N9 Sr17 2.577902 1_555
N9 Sr9 2.619888 1_555
N9 Sr9 2.619888 1_556
N9 Sr18 2.645055 1_555
N9 Sr10 3.223916 1_555
N10 Sr15 2.577902 1_555
N10 Sr15 2.577902 1_554
N10 Sr6 2.619888 1_554
N10 Sr6 2.619888 1_555
N10 Sr21 2.645055 1_545
N10 Sr12 3.223916 1_555
N11 Sr14 2.577902 1_554
N11 Sr14 2.577902 1_555
N11 Sr7 2.619888 1_555
N11 Sr7 2.619888 1_554
N11 Sr20 2.645055 1_565
N11 Sr13 3.223916 1_555
N12 Sr3 2.515582 1_555
N12 Sr6 2.515582 1_555
N12 Sr12 2.631119 1_555
N12 Sr12 2.631119 1_556
N13 Sr7 2.515582 1_555
N13 Sr2 2.515582 1_555
N13 Sr13 2.631119 1_555
N13 Sr13 2.631119 1_556
N14 N3 1.290538 1_555
N14 Sr9 2.515582 1_555
N14 Sr5 2.515582 1_555
N14 Sr10 2.631119 1_554
N14 Sr10 2.631119 1_555
N15 N2 1.290538 1_555
N15 Sr4 2.515582 1_555
N15 Sr8 2.515582 1_555
N15 Sr11 2.631119 1_555
N15 Sr11 2.631119 1_554
N16 Sr12 2.494118 1_555
N16 Sr12 2.494118 1_556
N16 Sr18 3.168983 1_555
N16 Sr15 3.168983 1_555
N17 Sr13 2.494118 1_555
N17 Sr13 2.494118 1_556
N17 Sr14 3.168983 1_555
N17 Sr19 3.168983 1_555
N18 Sr10 2.494118 1_554
N18 Sr10 2.494118 1_555
N18 Sr21 3.168983 1_555
N18 Sr17 3.168983 1_555
N19 Sr11 2.494118 1_555
N19 Sr11 2.494118 1_554
N19 Sr16 3.168983 1_555
N19 Sr20 3.168983 1_555
