# generated using pymatgen
data_Yb2ZnAg
_symmetry_space_group_name_H-M   'P 1'
_cell_length_a   4.96713915
_cell_length_b   4.96713915
_cell_length_c   4.96713915
_cell_angle_alpha   60.00000000
_cell_angle_beta   60.00000000
_cell_angle_gamma   60.00000000
_symmetry_Int_Tables_number   1
_chemical_formula_structural   Yb2ZnAg
_chemical_formula_sum   'Yb2 Zn1 Ag1'
_cell_volume   86.65706618
_cell_formula_units_Z   1
loop_
 _symmetry_equiv_pos_site_id
 _symmetry_equiv_pos_as_xyz
  1  'x, y, z'
loop_
 _atom_site_type_symbol
 _atom_site_label
 _atom_site_symmetry_multiplicity
 _atom_site_fract_x
 _atom_site_fract_y
 _atom_site_fract_z
 _atom_site_occupancy
  Yb  Yb0  1  0.25000000  0.25000000  0.25000000  1
  Yb  Yb1  1  0.75000000  0.75000000  0.75000000  1
  Zn  Zn0  1  0.00000000  0.00000000  0.00000000  1
  Ag  Ag0  1  0.50000000  0.50000000  0.50000000  1
loop_
_geom_bond_atom_site_label_1
_geom_bond_atom_site_label_2
_geom_bond_distance
_geom_bond_site_symmetry_2
Yb0 Zn0 3.041739 1_555
Yb0 Zn0 3.041739 1_556
Yb0 Zn0 3.041739 1_565
Yb0 Zn0 3.041739 1_655
Yb1 Zn0 3.041739 1_656
Yb1 Zn0 3.041739 1_566
Yb1 Zn0 3.041739 1_665
Yb1 Zn0 3.041739 1_666
Ag0 Yb1 3.041739 1_555
Ag0 Yb0 3.041739 1_655
Ag0 Yb0 3.041739 1_565
Ag0 Yb1 3.041739 1_455
Ag0 Yb0 3.041739 1_555
Ag0 Yb0 3.041739 1_556
Ag0 Yb1 3.041739 1_554
Ag0 Yb1 3.041739 1_545
