# generated using pymatgen
data_Nd2Fe14Si3
_symmetry_space_group_name_H-M   'P 1'
_cell_length_a   6.40389138
_cell_length_b   6.40389138
_cell_length_c   6.46292625
_cell_angle_alpha   82.93669157
_cell_angle_beta   82.93669157
_cell_angle_gamma   81.33137268
_symmetry_Int_Tables_number   1
_chemical_formula_structural   Nd2Fe14Si3
_chemical_formula_sum   'Nd2 Fe14 Si3'
_cell_volume   258.54991602
_cell_formula_units_Z   1
loop_
 _symmetry_equiv_pos_site_id
 _symmetry_equiv_pos_as_xyz
  1  'x, y, z'
loop_
 _atom_site_type_symbol
 _atom_site_label
 _atom_site_symmetry_multiplicity
 _atom_site_fract_x
 _atom_site_fract_y
 _atom_site_fract_z
 _atom_site_occupancy
  Nd  Nd0  1  0.34769900  0.34769900  0.34170500  1
  Nd  Nd1  1  0.65230100  0.65230100  0.65829500  1
  Fe  Fe0  1  0.72127800  0.27872200  0.00000000  1
  Fe  Fe1  1  0.29123500  0.00184300  0.70419600  1
  Fe  Fe2  1  0.99815700  0.70876500  0.29580400  1
  Fe  Fe3  1  0.70876500  0.99815700  0.29580400  1
  Fe  Fe4  1  0.00184300  0.29123500  0.70419600  1
  Fe  Fe5  1  0.27872200  0.72127800  0.00000000  1
  Fe  Fe6  1  0.65701800  0.65701800  0.16222000  1
  Fe  Fe7  1  0.66563800  0.14956900  0.66567600  1
  Fe  Fe8  1  0.14956900  0.66563800  0.66567600  1
  Fe  Fe9  1  0.34298200  0.34298200  0.83778000  1
  Fe  Fe10  1  0.33436200  0.85043100  0.33432400  1
  Fe  Fe11  1  0.85043100  0.33436200  0.33432400  1
  Fe  Fe12  1  0.00000000  0.50000000  0.00000000  1
  Fe  Fe13  1  0.50000000  0.00000000  0.00000000  1
  Si  Si0  1  0.11122800  0.11122800  0.07440500  1
  Si  Si1  1  0.88877200  0.88877200  0.92559500  1
  Si  Si2  1  0.00000000  0.00000000  0.50000000  1
loop_
_geom_bond_atom_site_label_1
_geom_bond_atom_site_label_2
_geom_bond_distance
_geom_bond_site_symmetry_2
Nd0 Si0 3.090118 1_555
Nd0 Si2 3.366959 1_555
Nd1 Si1 3.090118 1_555
Nd1 Si2 3.366959 1_665
Fe0 Fe12 2.440556 1_655
Fe0 Fe13 2.440556 1_555
Fe0 Fe4 2.459753 1_654
Fe0 Fe3 2.459753 1_545
Fe0 Fe7 2.489452 1_554
Fe0 Fe11 2.489452 1_555
Fe0 Si1 2.641741 1_544
Fe0 Si0 2.641741 1_655
Fe0 Fe6 2.712078 1_555
Fe0 Fe9 2.712078 1_554
Fe0 Nd1 3.068814 1_554
Fe0 Nd0 3.068814 1_555
Fe1 Fe4 2.415300 1_555
Fe1 Si2 2.415760 1_555
Fe1 Fe5 2.459753 1_546
Fe1 Fe13 2.461818 1_556
Fe1 Fe8 2.509315 1_545
Fe1 Fe9 2.525898 1_555
Fe1 Si0 2.652296 1_556
Fe1 Fe10 2.656628 1_545
Fe1 Fe7 2.680411 1_555
Fe1 Si1 2.935158 1_445
Fe1 Nd1 2.979833 1_545
Fe1 Nd0 3.046584 1_555
Fe2 Fe3 2.415300 1_555
Fe2 Si2 2.415760 1_665
Fe2 Fe5 2.459753 1_655
Fe2 Fe6 2.525898 1_555
Fe2 Si1 2.652296 1_554
Fe2 Fe8 2.656628 1_655
Fe2 Si0 2.935158 1_665
Fe2 Nd0 2.979833 1_655
Fe2 Nd1 3.046584 1_555
Fe3 Si2 2.415760 1_665
Fe3 Fe6 2.525898 1_555
Fe3 Si1 2.652296 1_554
Fe3 Fe7 2.656628 1_565
Fe3 Si0 2.935158 1_665
Fe3 Nd0 2.979833 1_565
Fe3 Nd1 3.046584 1_555
Fe4 Si2 2.415760 1_555
Fe4 Fe7 2.509315 1_455
Fe4 Fe9 2.525898 1_555
Fe4 Si0 2.652296 1_556
Fe4 Fe8 2.680411 1_555
Fe4 Si1 2.935158 1_445
Fe4 Nd1 2.979833 1_455
Fe4 Nd0 3.046584 1_555
Fe5 Fe8 2.489452 1_554
Fe5 Si1 2.641741 1_454
Fe5 Si0 2.641741 1_565
Fe5 Fe9 2.712078 1_554
Fe5 Fe6 2.712078 1_555
Fe5 Nd1 3.068814 1_554
Fe5 Nd0 3.068814 1_555
Fe6 Si1 2.508305 1_554
Fe6 Nd0 3.040669 1_555
Fe6 Nd1 3.198987 1_555
Fe6 Nd1 3.264572 1_554
Fe7 Si2 2.391422 1_655
Fe7 Fe9 2.458223 1_555
Fe7 Si1 2.614183 1_545
Fe7 Nd0 3.123413 1_555
Fe7 Nd1 3.202299 1_555
Fe7 Nd1 3.204784 1_545
Fe8 Si2 2.391422 1_565
Fe8 Fe9 2.458223 1_555
Fe8 Si1 2.614183 1_455
Fe8 Nd0 3.123413 1_555
Fe8 Nd1 3.202299 1_555
Fe8 Nd1 3.204784 1_455
Fe9 Si0 2.508305 1_556
Fe9 Nd1 3.040669 1_555
Fe9 Nd0 3.198987 1_555
Fe9 Nd0 3.264572 1_556
Fe10 Si2 2.391422 1_565
Fe10 Fe13 2.438210 1_565
Fe10 Fe6 2.458223 1_555
Fe10 Fe5 2.489452 1_555
Fe10 Fe2 2.509315 1_455
Fe10 Fe8 2.561742 1_555
Fe10 Si0 2.614183 1_565
Fe10 Fe3 2.680411 1_555
Fe10 Nd1 3.123413 1_555
Fe10 Nd0 3.202299 1_555
Fe10 Nd0 3.204784 1_565
Fe11 Si2 2.391422 1_655
Fe11 Fe12 2.438210 1_655
Fe11 Fe6 2.458223 1_555
Fe11 Fe3 2.509315 1_545
Fe11 Fe7 2.561742 1_555
Fe11 Si0 2.614183 1_655
Fe11 Fe4 2.656628 1_655
Fe11 Fe2 2.680411 1_555
Fe11 Nd1 3.123413 1_555
Fe11 Nd0 3.202299 1_555
Fe11 Nd0 3.204784 1_655
Fe12 Fe8 2.438210 1_554
Fe12 Fe5 2.440556 1_555
Fe12 Fe9 2.441662 1_554
Fe12 Fe6 2.441662 1_455
Fe12 Fe4 2.461818 1_554
Fe12 Fe2 2.461818 1_455
Fe12 Si0 2.488417 1_555
Fe12 Si1 2.488417 1_454
Fe12 Nd0 3.288037 1_555
Fe12 Nd1 3.288037 1_454
Fe13 Fe7 2.438210 1_554
Fe13 Fe5 2.440556 1_545
Fe13 Fe6 2.441662 1_545
Fe13 Fe9 2.441662 1_554
Fe13 Fe3 2.461818 1_545
Fe13 Si0 2.488417 1_555
Fe13 Si1 2.488417 1_544
Fe13 Nd0 3.288037 1_555
Fe13 Nd1 3.288037 1_544
Si0 Si1 2.503895 1_444
Si0 Si2 2.787423 1_555
Si1 Si2 2.787423 1_665
