# generated using pymatgen
data_Tb3Os
_symmetry_space_group_name_H-M   'P 1'
_cell_length_a   6.37249566
_cell_length_b   7.38185027
_cell_length_c   9.08991664
_cell_angle_alpha   90.00000000
_cell_angle_beta   90.00000000
_cell_angle_gamma   90.00000000
_symmetry_Int_Tables_number   1
_chemical_formula_structural   Tb3Os
_chemical_formula_sum   'Tb12 Os4'
_cell_volume   427.59703075
_cell_formula_units_Z   4
loop_
 _symmetry_equiv_pos_site_id
 _symmetry_equiv_pos_as_xyz
  1  'x, y, z'
loop_
 _atom_site_type_symbol
 _atom_site_label
 _atom_site_symmetry_multiplicity
 _atom_site_fract_x
 _atom_site_fract_y
 _atom_site_fract_z
 _atom_site_occupancy
  Tb  Tb0  1  0.32992029  0.67324829  0.06395590  1
  Tb  Tb1  1  0.17007971  0.17324829  0.43604410  1
  Tb  Tb2  1  0.67007971  0.32675171  0.56395590  1
  Tb  Tb3  1  0.82992029  0.82675171  0.93604410  1
  Tb  Tb4  1  0.67007971  0.32675171  0.93604410  1
  Tb  Tb5  1  0.82992029  0.82675171  0.56395590  1
  Tb  Tb6  1  0.32992029  0.67324829  0.43604410  1
  Tb  Tb7  1  0.17007971  0.17324829  0.06395590  1
  Tb  Tb8  1  0.87100479  0.54245383  0.25000000  1
  Tb  Tb9  1  0.62899521  0.04245383  0.25000000  1
  Tb  Tb10  1  0.12899521  0.45754617  0.75000000  1
  Tb  Tb11  1  0.37100479  0.95754617  0.75000000  1
  Os  Os0  1  0.03572593  0.88489764  0.25000000  1
  Os  Os1  1  0.46427407  0.38489764  0.25000000  1
  Os  Os2  1  0.96427407  0.11510236  0.75000000  1
  Os  Os3  1  0.53572593  0.61510236  0.75000000  1
loop_
_geom_bond_atom_site_label_1
_geom_bond_atom_site_label_2
_geom_bond_distance
_geom_bond_site_symmetry_2
Tb0 Tb6 3.382251 1_555
Tb0 Tb10 3.509862 1_554
Tb0 Tb8 3.513465 1_455
Tb0 Tb4 3.548651 1_554
Tb0 Tb11 3.552072 1_554
Tb0 Tb3 3.576041 1_554
Tb0 Tb3 3.576041 1_454
Tb0 Tb9 3.730965 1_565
Tb0 Tb7 3.828895 1_555
Tb0 Tb7 3.828895 1_565
Tb0 Tb8 3.959951 1_555
Tb1 Tb7 3.382251 1_555
Tb1 Tb11 3.509862 1_545
Tb1 Tb9 3.513465 1_555
Tb1 Tb5 3.548651 1_445
Tb1 Tb10 3.552072 1_555
Tb1 Tb2 3.576041 1_455
Tb1 Tb2 3.576041 1_555
Tb1 Tb8 3.730965 1_455
Tb1 Tb6 3.828895 1_545
Tb1 Tb6 3.828895 1_555
Tb1 Tb9 3.959951 1_455
Tb2 Tb4 3.382251 1_555
Tb2 Tb8 3.509862 1_555
Tb2 Tb6 3.548651 1_555
Tb2 Tb9 3.552072 1_555
Tb2 Tb5 3.828895 1_555
Tb2 Tb5 3.828895 1_545
Tb3 Tb5 3.382251 1_555
Tb3 Tb9 3.509862 1_566
Tb3 Tb7 3.548651 1_666
Tb3 Tb8 3.552072 1_556
Tb3 Tb4 3.828895 1_565
Tb3 Tb4 3.828895 1_555
Tb4 Tb8 3.509862 1_556
Tb4 Tb9 3.552072 1_556
Tb4 Tb7 3.576041 1_556
Tb4 Tb7 3.576041 1_656
Tb5 Tb9 3.509862 1_565
Tb5 Tb8 3.552072 1_555
Tb5 Tb6 3.576041 1_655
Tb5 Tb6 3.576041 1_555
Tb6 Tb8 3.513465 1_455
Tb6 Tb9 3.730965 1_565
Tb6 Tb8 3.959951 1_555
Tb7 Tb9 3.513465 1_555
Tb7 Tb8 3.730965 1_455
Tb7 Tb9 3.959951 1_455
Tb10 Tb6 3.509862 1_555
Tb10 Tb4 3.513465 1_455
Tb10 Tb2 3.513465 1_455
Tb10 Tb7 3.552072 1_556
Tb10 Tb3 3.730965 1_455
Tb10 Tb5 3.730965 1_455
Tb10 Tb4 3.959951 1_555
Tb10 Tb2 3.959951 1_555
Tb11 Tb7 3.509862 1_566
Tb11 Tb3 3.513465 1_555
Tb11 Tb5 3.513465 1_555
Tb11 Tb6 3.552072 1_555
Tb11 Tb4 3.730965 1_565
Tb11 Tb2 3.730965 1_565
Tb11 Tb3 3.959951 1_455
Tb11 Tb5 3.959951 1_455
Os0 Tb8 2.737144 1_455
Os0 Tb9 2.840879 1_465
Os0 Tb7 2.850211 1_565
Os0 Tb1 2.850211 1_565
Os0 Tb0 2.969105 1_555
Os0 Tb6 2.969105 1_555
Os0 Tb5 3.169955 1_455
Os0 Tb3 3.169955 1_454
Os1 Tb9 2.737144 1_555
Os1 Tb8 2.840879 1_555
Os1 Tb6 2.850211 1_555
Os1 Tb0 2.850211 1_555
Os1 Tb7 2.969105 1_555
Os1 Tb1 2.969105 1_555
Os1 Tb2 3.169955 1_555
Os1 Tb4 3.169955 1_554
Os2 Tb10 2.737144 1_655
Os2 Tb11 2.840879 1_645
Os2 Tb3 2.850211 1_545
Os2 Tb5 2.850211 1_545
Os2 Tb4 2.969105 1_555
Os2 Tb2 2.969105 1_555
Os2 Tb1 3.169955 1_655
Os2 Tb7 3.169955 1_656
Os3 Tb11 2.737144 1_555
Os3 Tb10 2.840879 1_555
Os3 Tb4 2.850211 1_555
Os3 Tb2 2.850211 1_555
Os3 Tb3 2.969105 1_555
Os3 Tb5 2.969105 1_555
Os3 Tb6 3.169955 1_555
Os3 Tb0 3.169955 1_556
