# generated using pymatgen
data_K3Sn2S3ClO3
_symmetry_space_group_name_H-M   'P 1'
_cell_length_a   7.22850300
_cell_length_b   9.36953000
_cell_length_c   9.63495317
_cell_angle_alpha   61.23694408
_cell_angle_beta   90.00000000
_cell_angle_gamma   90.00000000
_symmetry_Int_Tables_number   1
_chemical_formula_structural   K3Sn2S3ClO3
_chemical_formula_sum   'K6 Sn4 S6 Cl2 O6'
_cell_volume   572.03912414
_cell_formula_units_Z   2
loop_
 _symmetry_equiv_pos_site_id
 _symmetry_equiv_pos_as_xyz
  1  'x, y, z'
loop_
 _atom_site_type_symbol
 _atom_site_label
 _atom_site_symmetry_multiplicity
 _atom_site_fract_x
 _atom_site_fract_y
 _atom_site_fract_z
 _atom_site_occupancy
  K  K0  1  0.04929900  0.66016200  0.66584600  1
  K  K1  1  0.54929900  0.33983800  0.33415400  1
  K  K2  1  0.27392500  0.97891100  0.75448400  1
  K  K3  1  0.27311400  0.75419700  0.26924200  1
  K  K4  1  0.77392500  0.02108900  0.24551600  1
  K  K5  1  0.77311400  0.24580300  0.73075800  1
  Sn  Sn0  1  0.54505200  0.64670000  0.67173700  1
  Sn  Sn1  1  0.04505200  0.35330000  0.32826300  1
  Sn  Sn2  1  0.26570000  0.26551100  0.00152800  1
  Sn  Sn3  1  0.76570000  0.73448900  0.99847200  1
  S  S0  1  0.21792900  0.38073100  0.54926300  1
  S  S1  1  0.23227900  0.53832600  0.05757700  1
  S  S2  1  0.19871100  0.08283600  0.36488000  1
  S  S3  1  0.71792900  0.61926900  0.45073700  1
  S  S4  1  0.73227900  0.46167400  0.94242300  1
  S  S5  1  0.69871100  0.91716400  0.63512000  1
  Cl  Cl0  1  0.54058000  0.99729400  0.99432800  1
  Cl  Cl1  1  0.04058000  0.00270600  0.00567200  1
  O  O0  1  0.41217800  0.28396200  0.60803800  1
  O  O1  1  0.42124600  0.61477600  0.08651400  1
  O  O2  1  0.38248700  0.12606400  0.24122700  1
  O  O3  1  0.91217800  0.71603800  0.39196200  1
  O  O4  1  0.92124600  0.38522400  0.91348600  1
  O  O5  1  0.88248700  0.87393600  0.75877300  1
loop_
_geom_bond_atom_site_label_1
_geom_bond_atom_site_label_2
_geom_bond_distance
_geom_bond_site_symmetry_2
K0 O3 2.624986 1_455
K0 O4 2.696402 1_455
K0 O5 2.827249 1_455
K0 Sn0 3.585260 1_555
K1 O0 2.624986 1_555
K1 O1 2.696402 1_555
K1 O2 2.827249 1_555
K1 Sn1 3.585260 1_655
K2 O0 2.697720 1_565
K2 O5 2.989335 1_455
K2 S5 3.424335 1_555
K2 S2 3.437615 1_565
K3 O3 2.815330 1_455
K3 O1 2.857613 1_555
K3 S0 3.255313 1_555
K3 S3 3.587070 1_555
K4 O3 2.697720 1_545
K4 O2 2.989335 1_555
K4 S2 3.424335 1_655
K4 S5 3.437615 1_545
K5 O0 2.815330 1_555
K5 O4 2.857613 1_555
K5 S3 3.255313 1_555
K5 S0 3.587070 1_655
S0 Sn1 2.586187 1_555
S1 Sn1 2.699573 1_555
S1 Sn2 2.865720 1_555
S2 Sn1 2.630501 1_555
S3 Sn0 2.586187 1_555
S4 Sn0 2.699573 1_555
S4 Sn3 2.865720 1_555
S5 Sn0 2.630501 1_555
Cl0 Sn3 2.935683 1_555
Cl0 K5 3.000886 1_565
Cl0 K4 3.044889 1_566
Cl0 K2 3.077049 1_555
Cl0 K3 3.183675 1_556
Cl1 Sn2 2.935683 1_555
Cl1 K3 3.000886 1_545
Cl1 K2 3.044889 1_544
Cl1 K4 3.077049 1_455
Cl1 K5 3.183675 1_454
O0 S0 1.618705 1_555
O1 S1 1.627523 1_555
O1 Sn3 2.694725 1_554
O2 S2 1.698170 1_555
O2 Sn2 2.202167 1_555
O3 S3 1.618705 1_555
O4 S4 1.627523 1_555
O4 Sn2 2.694725 1_656
O5 S5 1.698170 1_555
O5 Sn3 2.202167 1_555
