# generated using pymatgen
data_Sr3Co2(ClO2)2
_symmetry_space_group_name_H-M   'P 1'
_cell_length_a   4.22010704
_cell_length_b   11.68436621
_cell_length_c   7.85242915
_cell_angle_alpha   99.59253563
_cell_angle_beta   90.00905881
_cell_angle_gamma   79.60684143
_symmetry_Int_Tables_number   1
_chemical_formula_structural   Sr3Co2(ClO2)2
_chemical_formula_sum   'Sr6 Co4 Cl4 O8'
_cell_volume   375.34123437
_cell_formula_units_Z   2
loop_
 _symmetry_equiv_pos_site_id
 _symmetry_equiv_pos_as_xyz
  1  'x, y, z'
loop_
 _atom_site_type_symbol
 _atom_site_label
 _atom_site_symmetry_multiplicity
 _atom_site_fract_x
 _atom_site_fract_y
 _atom_site_fract_z
 _atom_site_occupancy
  Sr  Sr0  1  0.99959500  0.00002100  0.49995300  1
  Sr  Sr1  1  0.00032600  0.00002000  0.00004800  1
  Sr  Sr2  1  0.14832200  0.70336900  0.42064700  1
  Sr  Sr3  1  0.14981000  0.70015600  0.93037600  1
  Sr  Sr4  1  0.85154000  0.29661200  0.57931200  1
  Sr  Sr5  1  0.85036500  0.29987500  0.06970500  1
  Co  Co0  1  0.41615000  0.16767800  0.29210200  1
  Co  Co1  1  0.58377200  0.83230600  0.70790300  1
  Co  Co2  1  0.42576200  0.14848500  0.78767200  1
  Co  Co3  1  0.57416100  0.85157400  0.21241800  1
  Cl  Cl0  1  0.30423600  0.39159700  0.35149900  1
  Cl  Cl1  1  0.29376800  0.41270300  0.84719200  1
  Cl  Cl2  1  0.69583100  0.60843400  0.64852200  1
  Cl  Cl3  1  0.70639500  0.58720900  0.15274100  1
  O  O0  1  0.07916500  0.84180200  0.71073200  1
  O  O1  1  0.07785000  0.84435200  0.21067000  1
  O  O2  1  0.57499800  0.85005200  0.45661300  1
  O  O3  1  0.57628500  0.84765000  0.96719500  1
  O  O4  1  0.92086000  0.15819800  0.28925200  1
  O  O5  1  0.92217500  0.15562700  0.78933800  1
  O  O6  1  0.42490700  0.14988500  0.54327000  1
  O  O7  1  0.42372500  0.15239600  0.03283900  1
loop_
_geom_bond_atom_site_label_1
_geom_bond_atom_site_label_2
_geom_bond_distance
_geom_bond_site_symmetry_2
Co0 O7 2.013548 1_555
Co0 O6 2.017011 1_555
Co0 O4 2.112685 1_555
Co0 O4 2.112890 1_455
Co1 O3 2.013715 1_555
Co1 O2 2.017820 1_555
Co1 O0 2.112226 1_555
Co1 O0 2.113366 1_655
Co2 O7 1.918054 1_556
Co2 O6 1.921940 1_555
Co2 O5 2.111519 1_555
Co2 O5 2.111689 1_455
Co3 O3 1.918472 1_554
Co3 O2 1.920564 1_555
Co3 O1 2.111292 1_555
Co3 O1 2.111985 1_655
Cl0 Co0 2.536420 1_555
Cl0 Sr4 3.082530 1_555
Cl0 Sr4 3.083723 1_455
Cl0 Sr5 3.108463 1_455
Cl0 Sr5 3.110743 1_555
Cl0 Sr2 3.531890 1_555
Cl1 Co2 2.993055 1_555
Cl1 Sr4 3.115118 1_555
Cl1 Sr4 3.115889 1_455
Cl1 Sr5 3.154540 1_456
Cl1 Sr5 3.155532 1_556
Cl1 Sr3 3.257205 1_555
Cl2 Co1 2.535887 1_555
Cl2 Sr2 3.083111 1_655
Cl2 Sr2 3.083246 1_555
Cl2 Sr3 3.109081 1_655
Cl2 Sr3 3.110742 1_555
Cl2 Sr4 3.532449 1_555
Cl3 Co3 2.994705 1_555
Cl3 Sr2 3.115499 1_655
Cl3 Sr2 3.116252 1_555
Cl3 Sr3 3.154708 1_654
Cl3 Sr3 3.155297 1_554
Cl3 Sr5 3.255831 1_555
O0 Sr2 2.547963 1_555
O0 Sr3 2.564360 1_555
O0 Sr0 2.658096 1_465
O0 Sr1 2.658591 1_566
O1 Sr2 2.499797 1_555
O1 Sr3 2.520903 1_554
O1 Sr1 2.634093 1_565
O1 Sr0 2.642719 1_465
O2 Sr2 2.685408 1_555
O2 Sr2 2.685864 1_655
O2 Sr0 2.707578 1_565
O2 Sr0 2.710921 1_465
O3 Sr3 2.690880 1_655
O3 Sr3 2.691775 1_555
O3 Sr1 2.725777 1_566
O3 Sr1 2.726677 1_666
O4 Sr4 2.547705 1_555
O4 Sr5 2.564033 1_555
O4 Sr0 2.657262 1_555
O4 Sr1 2.657695 1_655
O5 Sr4 2.500111 1_555
O5 Sr5 2.521644 1_556
O5 Sr1 2.634056 1_656
O5 Sr0 2.642930 1_555
O6 Sr4 2.685647 1_555
O6 Sr4 2.686241 1_455
O6 Sr0 2.707997 1_555
O6 Sr0 2.709010 1_455
O7 Sr5 2.690254 1_455
O7 Sr5 2.692191 1_555
O7 Sr1 2.724640 1_555
O7 Sr1 2.727914 1_655
