# generated using pymatgen
data_Yb(CuS)3
_symmetry_space_group_name_H-M   'P 1'
_cell_length_a   7.48720269
_cell_length_b   7.48720269
_cell_length_c   7.48720317
_cell_angle_alpha   51.87501864
_cell_angle_beta   51.87501864
_cell_angle_gamma   51.87501729
_symmetry_Int_Tables_number   1
_chemical_formula_structural   Yb(CuS)3
_chemical_formula_sum   'Yb2 Cu6 S6'
_cell_volume   240.07277689
_cell_formula_units_Z   2
loop_
 _symmetry_equiv_pos_site_id
 _symmetry_equiv_pos_as_xyz
  1  'x, y, z'
loop_
 _atom_site_type_symbol
 _atom_site_label
 _atom_site_symmetry_multiplicity
 _atom_site_fract_x
 _atom_site_fract_y
 _atom_site_fract_z
 _atom_site_occupancy
  Yb  Yb0  1  0.66654200  0.66654200  0.66654200  1
  Yb  Yb1  1  0.33345800  0.33345800  0.33345800  1
  Cu  Cu0  1  0.87771600  0.54104200  0.21558000  1
  Cu  Cu1  1  0.54104200  0.21558000  0.87771600  1
  Cu  Cu2  1  0.21558000  0.87771600  0.54104200  1
  Cu  Cu3  1  0.78442000  0.12228400  0.45895800  1
  Cu  Cu4  1  0.45895800  0.78442000  0.12228400  1
  Cu  Cu5  1  0.12228400  0.45895800  0.78442000  1
  S  S0  1  0.08642100  0.75580900  0.41895400  1
  S  S1  1  0.41895400  0.08642100  0.75580900  1
  S  S2  1  0.75580900  0.41895400  0.08642100  1
  S  S3  1  0.24419100  0.58104600  0.91357900  1
  S  S4  1  0.58104600  0.91357900  0.24419100  1
  S  S5  1  0.91357900  0.24419100  0.58104600  1
loop_
_geom_bond_atom_site_label_1
_geom_bond_atom_site_label_2
_geom_bond_distance
_geom_bond_site_symmetry_2
Cu0 S5 2.271634 1_555
Cu0 S3 2.291081 1_654
Cu0 S4 2.293451 1_555
Cu0 S2 2.411514 1_555
Cu1 S3 2.271634 1_555
Cu1 S4 2.291081 1_546
Cu1 S5 2.293451 1_555
Cu1 S1 2.411514 1_555
Cu2 S4 2.271634 1_555
Cu2 S5 2.291081 1_465
Cu2 S3 2.293451 1_555
Cu2 S0 2.411514 1_555
Cu3 S1 2.271634 1_555
Cu3 S0 2.291081 1_645
Cu3 S2 2.293451 1_555
Cu3 S5 2.411514 1_555
Cu4 S2 2.271634 1_555
Cu4 S1 2.291081 1_564
Cu4 S0 2.293451 1_555
Cu4 S4 2.411514 1_555
Cu5 S0 2.271634 1_555
Cu5 S2 2.291081 1_456
Cu5 S1 2.293451 1_555
Cu5 S3 2.411514 1_555
S0 Yb0 2.763128 1_455
S0 Yb1 2.765145 1_555
S1 Yb0 2.763128 1_545
S1 Yb1 2.765146 1_555
S2 Yb0 2.763128 1_554
S2 Yb1 2.765145 1_555
S3 Yb1 2.763128 1_556
S3 Yb0 2.765145 1_555
S4 Yb1 2.763128 1_565
S4 Yb0 2.765146 1_555
S5 Yb1 2.763128 1_655
S5 Yb0 2.765145 1_555
