# generated using pymatgen
data_PrNiSb
_symmetry_space_group_name_H-M   'P 1'
_cell_length_a   4.34546743
_cell_length_b   4.34546743
_cell_length_c   4.25972392
_cell_angle_alpha   90.00000000
_cell_angle_beta   90.00000000
_cell_angle_gamma   120.00000691
_symmetry_Int_Tables_number   1
_chemical_formula_structural   PrNiSb
_chemical_formula_sum   'Pr1 Ni1 Sb1'
_cell_volume   69.66025392
_cell_formula_units_Z   1
loop_
 _symmetry_equiv_pos_site_id
 _symmetry_equiv_pos_as_xyz
  1  'x, y, z'
loop_
 _atom_site_type_symbol
 _atom_site_label
 _atom_site_symmetry_multiplicity
 _atom_site_fract_x
 _atom_site_fract_y
 _atom_site_fract_z
 _atom_site_occupancy
  Pr  Pr0  1  0.66666700  0.33333300  0.00000000  1
  Ni  Ni0  1  0.00000000  -0.00000000  0.50000000  1
  Sb  Sb0  1  0.33333300  0.66666700  0.50000000  1
loop_
_geom_bond_atom_site_label_1
_geom_bond_atom_site_label_2
_geom_bond_distance
_geom_bond_site_symmetry_2
Pr0 Sb0 3.290997 1_545
Pr0 Sb0 3.290997 1_544
Pr0 Sb0 3.290997 1_655
Pr0 Sb0 3.290997 1_654
Pr0 Sb0 3.291003 1_554
Pr0 Sb0 3.291003 1_555
Ni0 Sb0 2.508854 1_545
Ni0 Sb0 2.508858 1_555
Ni0 Sb0 2.508858 1_445
Ni0 Pr0 3.290997 1_456
Ni0 Pr0 3.290997 1_455
Ni0 Pr0 3.291000 1_445
Ni0 Pr0 3.291000 1_446
Ni0 Pr0 3.291000 1_555
Ni0 Pr0 3.291000 1_556
