# generated using pymatgen
data_Pr2USe5
_symmetry_space_group_name_H-M   'P 1'
_cell_length_a   7.91985868
_cell_length_b   8.50514810
_cell_length_c   12.51757957
_cell_angle_alpha   89.99750525
_cell_angle_beta   90.00181243
_cell_angle_gamma   90.00192166
_symmetry_Int_Tables_number   1
_chemical_formula_structural   Pr2USe5
_chemical_formula_sum   'Pr8 U4 Se20'
_cell_volume   843.17878801
_cell_formula_units_Z   4
loop_
 _symmetry_equiv_pos_site_id
 _symmetry_equiv_pos_as_xyz
  1  'x, y, z'
loop_
 _atom_site_type_symbol
 _atom_site_label
 _atom_site_symmetry_multiplicity
 _atom_site_fract_x
 _atom_site_fract_y
 _atom_site_fract_z
 _atom_site_occupancy
  Pr  Pr0  1  0.52331770  0.49942498  0.32283882  1
  Pr  Pr1  1  0.97594974  0.00101376  0.82182862  1
  Pr  Pr2  1  0.47669674  0.99944776  0.67709889  1
  Pr  Pr3  1  0.02403088  0.50098509  0.17818052  1
  Pr  Pr4  1  0.47596020  0.50103802  0.67807434  1
  Pr  Pr5  1  0.02331783  0.99944721  0.17720373  1
  Pr  Pr6  1  0.52402762  0.00096870  0.32188371  1
  Pr  Pr7  1  0.97670685  0.49949099  0.82284272  1
  U  U0  1  0.07190234  0.74991491  0.49164154  1
  U  U1  1  0.42815242  0.74999182  0.99167981  1
  U  U2  1  0.92808785  0.24994781  0.50839679  1
  U  U3  1  0.57183642  0.24998780  0.00828932  1
  Se  Se0  1  0.83621338  0.95684980  0.59483530  1
  Se  Se1  1  0.66293643  0.54111712  0.09584004  1
  Se  Se2  1  0.16380404  0.45687214  0.40516991  1
  Se  Se3  1  0.33707052  0.04110383  0.90412751  1
  Se  Se4  1  0.16294795  0.04112518  0.40420260  1
  Se  Se5  1  0.33618045  0.45701892  0.90504676  1
  Se  Se6  1  0.83705836  0.54114820  0.59585126  1
  Se  Se7  1  0.66374719  0.95697507  0.09492538  1
  Se  Se8  1  0.83003645  0.75135608  0.31555240  1
  Se  Se9  1  0.66999953  0.75140177  0.81552646  1
  Se  Se10  1  0.16997599  0.25136590  0.68444126  1
  Se  Se11  1  0.33004460  0.25136562  0.18444092  1
  Se  Se12  1  0.45522449  0.74986465  0.49910721  1
  Se  Se13  1  0.04485218  0.75001927  0.99916823  1
  Se  Se14  1  0.54476584  0.24989576  0.50087335  1
  Se  Se15  1  0.95519095  0.24983372  0.00091664  1
  Se  Se16  1  0.19551788  0.75027292  0.71388580  1
  Se  Se17  1  0.30445891  0.75020884  0.21392826  1
  Se  Se18  1  0.80445153  0.25024065  0.28614556  1
  Se  Se19  1  0.69553874  0.25030470  0.78605735  1
loop_
_geom_bond_atom_site_label_1
_geom_bond_atom_site_label_2
_geom_bond_distance
_geom_bond_site_symmetry_2
Pr0 Se2 3.049636 1_555
Pr0 Se17 3.067955 1_555
Pr0 Se1 3.069611 1_555
Pr0 Se14 3.082047 1_555
Pr0 Se18 3.108144 1_555
Pr0 Se12 3.113976 1_555
Pr0 Se11 3.129756 1_555
Pr0 Se8 3.240377 1_555
Pr1 Se3 3.058932 1_655
Pr1 Se16 3.065651 1_645
Pr1 Se0 3.072347 1_545
Pr1 Se15 3.087303 1_556
Pr1 Se19 3.102930 1_555
Pr1 Se13 3.127667 1_645
Pr1 Se10 3.138847 1_655
Pr1 Se9 3.222465 1_545
Pr2 Se0 3.049451 1_555
Pr2 Se19 3.068581 1_565
Pr2 Se3 3.069980 1_565
Pr2 Se12 3.082111 1_555
Pr2 Se16 3.108388 1_555
Pr2 Se14 3.113455 1_565
Pr2 Se9 3.129968 1_555
Pr2 Se10 3.240449 1_565
Pr3 Se1 3.058963 1_455
Pr3 Se18 3.065682 1_455
Pr3 Se2 3.072333 1_555
Pr3 Se13 3.087750 1_554
Pr3 Se17 3.102519 1_555
Pr3 Se15 3.127926 1_455
Pr3 Se8 3.138898 1_455
Pr3 Se11 3.222975 1_555
Pr4 Se6 3.058515 1_555
Pr4 Se19 3.065745 1_555
Pr4 Se5 3.072113 1_555
Pr4 Se12 3.086093 1_555
Pr4 Se16 3.102902 1_555
Pr4 Se14 3.127317 1_555
Pr4 Se9 3.139457 1_555
Pr4 Se10 3.223024 1_555
Pr5 Se7 3.049703 1_455
Pr5 Se18 3.068351 1_465
Pr5 Se4 3.069595 1_565
Pr5 Se13 3.081642 1_554
Pr5 Se17 3.108508 1_555
Pr5 Se15 3.113723 1_465
Pr5 Se8 3.129581 1_455
Pr5 Se11 3.240337 1_565
Pr6 Se4 3.058857 1_555
Pr6 Se17 3.065706 1_545
Pr6 Se7 3.071791 1_545
Pr6 Se14 3.087010 1_555
Pr6 Se18 3.102752 1_555
Pr6 Se12 3.127135 1_545
Pr6 Se11 3.139335 1_555
Pr6 Se8 3.222938 1_545
Pr7 Se5 3.048683 1_655
Pr7 Se16 3.067956 1_655
Pr7 Se6 3.069521 1_555
Pr7 Se15 3.083183 1_556
Pr7 Se19 3.108397 1_555
Pr7 Se13 3.115020 1_655
Pr7 Se10 3.130265 1_655
Pr7 Se9 3.240309 1_555
Se0 U2 2.813206 1_565
Se0 U0 2.872469 1_655
Se1 U3 2.802273 1_555
Se1 U1 2.883299 1_554
Se2 U0 2.813132 1_555
Se2 U2 2.872595 1_455
Se3 U1 2.802073 1_545
Se3 U3 2.883258 1_556
Se4 U0 2.802158 1_545
Se4 U2 2.883731 1_455
Se5 U1 2.813467 1_555
Se5 U3 2.872953 1_556
Se6 U2 2.802253 1_555
Se6 U0 2.883297 1_655
Se7 U3 2.813616 1_565
Se7 U1 2.872398 1_554
Se8 U0 2.920228 1_655
Se9 U1 2.920827 1_555
Se10 U2 2.919921 1_455
Se11 U3 2.920523 1_555
Se12 U0 3.037292 1_555
Se13 U1 3.037134 1_555
Se14 U2 3.037314 1_555
Se15 U3 3.037519 1_555
Se16 U0 2.949172 1_555
Se17 U1 2.949484 1_554
Se18 U2 2.949308 1_555
Se19 U3 2.949313 1_556
