# generated using pymatgen
data_YbGa2Ag
_symmetry_space_group_name_H-M   'P 1'
_cell_length_a   4.36401700
_cell_length_b   6.98688300
_cell_length_c   10.43753800
_cell_angle_alpha   90.00000000
_cell_angle_beta   90.00000000
_cell_angle_gamma   90.00000000
_symmetry_Int_Tables_number   1
_chemical_formula_structural   YbGa2Ag
_chemical_formula_sum   'Yb4 Ga8 Ag4'
_cell_volume   318.24967888
_cell_formula_units_Z   4
loop_
 _symmetry_equiv_pos_site_id
 _symmetry_equiv_pos_as_xyz
  1  'x, y, z'
loop_
 _atom_site_type_symbol
 _atom_site_label
 _atom_site_symmetry_multiplicity
 _atom_site_fract_x
 _atom_site_fract_y
 _atom_site_fract_z
 _atom_site_occupancy
  Yb  Yb0  1  0.25000000  0.77617700  0.82799800  1
  Yb  Yb1  1  0.75000000  0.22382300  0.17200200  1
  Yb  Yb2  1  0.75000000  0.72382300  0.32799800  1
  Yb  Yb3  1  0.25000000  0.27617700  0.67200200  1
  Ga  Ga0  1  0.25000000  0.70366500  0.53595300  1
  Ga  Ga1  1  0.75000000  0.29633500  0.46404700  1
  Ga  Ga2  1  0.75000000  0.79633500  0.03595300  1
  Ga  Ga3  1  0.25000000  0.20366500  0.96404700  1
  Ga  Ga4  1  0.25000000  0.92614500  0.14989700  1
  Ga  Ga5  1  0.75000000  0.07385500  0.85010300  1
  Ga  Ga6  1  0.75000000  0.57385500  0.64989700  1
  Ga  Ga7  1  0.25000000  0.42614500  0.35010300  1
  Ag  Ag0  1  0.25000000  0.54004900  0.09902800  1
  Ag  Ag1  1  0.75000000  0.45995100  0.90097200  1
  Ag  Ag2  1  0.75000000  0.95995100  0.59902800  1
  Ag  Ag3  1  0.25000000  0.04004900  0.40097200  1
loop_
_geom_bond_atom_site_label_1
_geom_bond_atom_site_label_2
_geom_bond_distance
_geom_bond_site_symmetry_2
Ga0 Ga6 2.645406 1_455
Ga0 Ga6 2.645406 1_555
Ga0 Ga7 2.742737 1_555
Ga0 Yb2 3.080947 1_455
Ga0 Yb2 3.080947 1_555
Ga0 Yb0 3.090047 1_555
Ga0 Yb3 3.307185 1_555
Ga1 Ga7 2.645406 1_655
Ga1 Ga7 2.645406 1_555
Ga1 Ga6 2.742737 1_555
Ga1 Yb3 3.080947 1_555
Ga1 Yb3 3.080947 1_655
Ga1 Yb1 3.090047 1_555
Ga1 Yb2 3.307185 1_555
Ga2 Ga4 2.645406 1_655
Ga2 Ga4 2.645406 1_555
Ga2 Ga5 2.742737 1_564
Ga2 Yb0 3.080947 1_554
Ga2 Yb0 3.080947 1_654
Ga2 Yb2 3.090047 1_555
Ga2 Yb1 3.307185 1_565
Ga3 Ga5 2.645406 1_555
Ga3 Ga5 2.645406 1_455
Ga3 Ga4 2.742737 1_546
Ga3 Yb1 3.080947 1_456
Ga3 Yb1 3.080947 1_556
Ga3 Yb3 3.090047 1_555
Ga3 Yb0 3.307185 1_545
Ga4 Yb1 3.023265 1_465
Ga4 Yb1 3.023265 1_565
Ga4 Yb2 3.196102 1_455
Ga4 Yb2 3.196102 1_555
Ga4 Yb0 3.519429 1_554
Ga5 Yb0 3.023265 1_645
Ga5 Yb0 3.023265 1_545
Ga5 Yb3 3.196102 1_655
Ga5 Yb3 3.196102 1_555
Ga5 Yb1 3.519429 1_556
Ga6 Yb3 3.023265 1_655
Ga6 Yb3 3.023265 1_555
Ga6 Yb0 3.196102 1_555
Ga6 Yb0 3.196102 1_655
Ga6 Yb2 3.519429 1_555
Ga7 Yb2 3.023265 1_555
Ga7 Yb2 3.023265 1_455
Ga7 Yb1 3.196102 1_455
Ga7 Yb1 3.196102 1_555
Ga7 Yb3 3.519429 1_555
Ag0 Ga7 2.738781 1_555
Ag0 Ga3 2.740202 1_554
Ag0 Ga4 2.749362 1_555
Ag0 Ga2 2.898444 1_455
Ag0 Ga2 2.898444 1_555
Ag0 Ag1 3.057407 1_554
Ag0 Ag1 3.057407 1_454
Ag0 Yb1 3.197327 1_455
Ag0 Yb1 3.197327 1_555
Ag0 Yb0 3.274818 1_554
Ag0 Yb2 3.481577 1_455
Ag0 Yb2 3.481577 1_555
Ag1 Ga6 2.738781 1_555
Ag1 Ga2 2.740202 1_556
Ag1 Ga5 2.749362 1_555
Ag1 Ga3 2.898444 1_555
Ag1 Ga3 2.898444 1_655
Ag1 Yb0 3.197327 1_555
Ag1 Yb0 3.197327 1_655
Ag1 Yb1 3.274818 1_556
Ag1 Yb3 3.481577 1_555
Ag1 Yb3 3.481577 1_655
Ag2 Ga5 2.738781 1_565
Ag2 Ga1 2.740202 1_565
Ag2 Ga6 2.749362 1_555
Ag2 Ga0 2.898444 1_555
Ag2 Ga0 2.898444 1_655
Ag2 Ag3 3.057407 1_565
Ag2 Ag3 3.057407 1_665
Ag2 Yb3 3.197327 1_565
Ag2 Yb3 3.197327 1_665
Ag2 Yb2 3.274818 1_555
Ag2 Yb0 3.481577 1_655
Ag2 Yb0 3.481577 1_555
Ag3 Ga4 2.738781 1_545
Ag3 Ga0 2.740202 1_545
Ag3 Ga7 2.749362 1_555
Ag3 Ga1 2.898444 1_555
Ag3 Ga1 2.898444 1_455
Ag3 Yb2 3.197327 1_445
Ag3 Yb2 3.197327 1_545
Ag3 Yb3 3.274818 1_555
Ag3 Yb1 3.481577 1_555
Ag3 Yb1 3.481577 1_455
