# generated using pymatgen
data_K2Mn5Si12O31
_symmetry_space_group_name_H-M   'P 1'
_cell_length_a   10.57549583
_cell_length_b   10.57549583
_cell_length_c   14.44427100
_cell_angle_alpha   90.00000000
_cell_angle_beta   90.00000000
_cell_angle_gamma   119.99999895
_symmetry_Int_Tables_number   1
_chemical_formula_structural   K2Mn5Si12O31
_chemical_formula_sum   'K4 Mn10 Si24 O62'
_cell_volume   1399.03229927
_cell_formula_units_Z   2
loop_
 _symmetry_equiv_pos_site_id
 _symmetry_equiv_pos_as_xyz
  1  'x, y, z'
loop_
 _atom_site_type_symbol
 _atom_site_label
 _atom_site_symmetry_multiplicity
 _atom_site_fract_x
 _atom_site_fract_y
 _atom_site_fract_z
 _atom_site_occupancy
  K  K0  1  0.00000000  0.00000000  0.00000000  1
  K  K1  1  0.00000000  0.00000000  0.50000000  1
  K  K2  1  0.33333300  0.66666700  0.75000000  1
  K  K3  1  0.66666700  0.33333300  0.25000000  1
  Mn  Mn0  1  0.33333300  0.66666700  0.00569800  1
  Mn  Mn1  1  0.33333300  0.66666700  0.49430200  1
  Mn  Mn2  1  0.66666700  0.33333300  0.50569900  1
  Mn  Mn3  1  0.66666700  0.33333300  0.99430100  1
  Mn  Mn4  1  0.49979200  0.49979200  0.00000000  1
  Mn  Mn5  1  0.50020800  0.00000000  0.00000000  1
  Mn  Mn6  1  0.00000000  0.50020800  0.00000000  1
  Mn  Mn7  1  0.49979200  0.49979200  0.50000000  1
  Mn  Mn8  1  0.50020800  0.00000000  0.50000000  1
  Mn  Mn9  1  0.00000000  0.50020800  0.50000000  1
  Si  Si0  1  0.11011900  0.77137500  0.86221800  1
  Si  Si1  1  0.22862500  0.33874400  0.86221800  1
  Si  Si2  1  0.66125600  0.88988100  0.86221800  1
  Si  Si3  1  0.11011900  0.77137500  0.63778200  1
  Si  Si4  1  0.22862500  0.33874400  0.63778200  1
  Si  Si5  1  0.66125600  0.88988100  0.63778200  1
  Si  Si6  1  0.77137500  0.11011900  0.36221800  1
  Si  Si7  1  0.33874400  0.22862500  0.36221800  1
  Si  Si8  1  0.88988100  0.66125600  0.36221800  1
  Si  Si9  1  0.77137500  0.11011900  0.13778200  1
  Si  Si10  1  0.33874400  0.22862500  0.13778200  1
  Si  Si11  1  0.88988100  0.66125600  0.13778200  1
  Si  Si12  1  0.88866000  0.23021000  0.63825900  1
  Si  Si13  1  0.76979000  0.65845000  0.63825900  1
  Si  Si14  1  0.34155000  0.11134000  0.63825900  1
  Si  Si15  1  0.88866000  0.23021000  0.86174100  1
  Si  Si16  1  0.76979000  0.65845000  0.86174100  1
  Si  Si17  1  0.34155000  0.11134000  0.86174100  1
  Si  Si18  1  0.23021000  0.88866000  0.13825900  1
  Si  Si19  1  0.65845000  0.76979000  0.13825900  1
  Si  Si20  1  0.11134000  0.34155000  0.13825900  1
  Si  Si21  1  0.23021000  0.88866000  0.36174100  1
  Si  Si22  1  0.65845000  0.76979000  0.36174100  1
  Si  Si23  1  0.11134000  0.34155000  0.36174100  1
  O  O0  1  0.12273500  0.75566900  0.75000000  1
  O  O1  1  0.24433100  0.36706700  0.75000000  1
  O  O2  1  0.63293300  0.87726500  0.75000000  1
  O  O3  1  0.75566900  0.12273500  0.25000000  1
  O  O4  1  0.36706700  0.24433100  0.25000000  1
  O  O5  1  0.87726500  0.63293300  0.25000000  1
  O  O6  1  0.88004800  0.24433300  0.75000000  1
  O  O7  1  0.75566700  0.63571400  0.75000000  1
  O  O8  1  0.36428600  0.11995200  0.75000000  1
  O  O9  1  0.24433300  0.88004800  0.25000000  1
  O  O10  1  0.63571400  0.75566700  0.25000000  1
  O  O11  1  0.11995200  0.36428600  0.25000000  1
  O  O12  1  0.15605800  0.66568600  0.91495000  1
  O  O13  1  0.33431400  0.49037200  0.91495000  1
  O  O14  1  0.50962800  0.84394200  0.91495000  1
  O  O15  1  0.15605800  0.66568600  0.58505000  1
  O  O16  1  0.33431400  0.49037200  0.58505000  1
  O  O17  1  0.50962800  0.84394200  0.58505000  1
  O  O18  1  0.66568600  0.15605800  0.41495000  1
  O  O19  1  0.49037200  0.33431400  0.41495000  1
  O  O20  1  0.84394200  0.50962800  0.41495000  1
  O  O21  1  0.66568600  0.15605800  0.08505000  1
  O  O22  1  0.49037200  0.33431400  0.08505000  1
  O  O23  1  0.84394200  0.50962800  0.08505000  1
  O  O24  1  0.84684200  0.33454900  0.58140000  1
  O  O25  1  0.66545100  0.51229300  0.58140000  1
  O  O26  1  0.48770700  0.15315800  0.58140000  1
  O  O27  1  0.84684200  0.33454900  0.91860000  1
  O  O28  1  0.66545100  0.51229300  0.91860000  1
  O  O29  1  0.48770700  0.15315800  0.91860000  1
  O  O30  1  0.33454900  0.84684200  0.08140000  1
  O  O31  1  0.51229300  0.66545100  0.08140000  1
  O  O32  1  0.15315800  0.48770700  0.08140000  1
  O  O33  1  0.33454900  0.84684200  0.41860000  1
  O  O34  1  0.51229300  0.66545100  0.41860000  1
  O  O35  1  0.15315800  0.48770700  0.41860000  1
  O  O36  1  0.21303000  0.94379100  0.88997800  1
  O  O37  1  0.05620900  0.26923900  0.88997800  1
  O  O38  1  0.73076100  0.78697000  0.88997800  1
  O  O39  1  0.21303000  0.94379100  0.61002200  1
  O  O40  1  0.05620900  0.26923900  0.61002200  1
  O  O41  1  0.73076100  0.78697000  0.61002200  1
  O  O42  1  0.94379100  0.21303000  0.38997800  1
  O  O43  1  0.26923900  0.05620900  0.38997800  1
  O  O44  1  0.78697000  0.73076100  0.38997800  1
  O  O45  1  0.94379100  0.21303000  0.11002200  1
  O  O46  1  0.26923900  0.05620900  0.11002200  1
  O  O47  1  0.78697000  0.73076100  0.11002200  1
  O  O48  1  0.78670700  0.05650800  0.60957400  1
  O  O49  1  0.94349200  0.73019900  0.60957400  1
  O  O50  1  0.26980100  0.21329300  0.60957400  1
  O  O51  1  0.78670700  0.05650800  0.89042600  1
  O  O52  1  0.94349200  0.73019900  0.89042600  1
  O  O53  1  0.26980100  0.21329300  0.89042600  1
  O  O54  1  0.05650800  0.78670700  0.10957400  1
  O  O55  1  0.73019900  0.94349200  0.10957400  1
  O  O56  1  0.21329300  0.26980100  0.10957400  1
  O  O57  1  0.05650800  0.78670700  0.39042600  1
  O  O58  1  0.73019900  0.94349200  0.39042600  1
  O  O59  1  0.21329300  0.26980100  0.39042600  1
  O  O60  1  0.66666700  0.33333300  0.75000000  1
  O  O61  1  0.33333300  0.66666700  0.25000000  1
loop_
_geom_bond_atom_site_label_1
_geom_bond_atom_site_label_2
_geom_bond_distance
_geom_bond_site_symmetry_2
K0 O45 3.048546 1_455
K0 O36 3.048546 1_544
K0 O46 3.048546 1_555
K0 O37 3.048546 1_554
K0 O47 3.048546 1_445
K0 O38 3.048546 1_444
K0 O54 3.049295 1_545
K0 O51 3.049295 1_454
K0 O55 3.049295 1_445
K0 O52 3.049295 1_444
K0 O56 3.049295 1_555
K0 O53 3.049295 1_554
K1 O39 3.048546 1_545
K1 O42 3.048546 1_455
K1 O40 3.048546 1_555
K1 O43 3.048546 1_555
K1 O41 3.048546 1_445
K1 O44 3.048546 1_445
K1 O48 3.049295 1_455
K1 O57 3.049295 1_545
K1 O49 3.049295 1_445
K1 O58 3.049295 1_445
K1 O50 3.049295 1_555
K1 O59 3.049295 1_555
K2 O0 2.818256 1_555
K2 O1 2.818256 1_555
K2 O2 2.818256 1_555
K2 O15 3.028551 1_555
K2 O12 3.028551 1_555
K2 O17 3.028555 1_555
K2 O14 3.028555 1_555
K2 O16 3.028558 1_555
K2 O13 3.028558 1_555
K3 O3 2.818256 1_555
K3 O4 2.818256 1_555
K3 O5 2.818256 1_555
K3 O21 3.028551 1_555
K3 O18 3.028551 1_555
K3 O23 3.028555 1_555
K3 O20 3.028555 1_555
K3 O22 3.028558 1_555
K3 O19 3.028558 1_555
Mn0 O30 2.191351 1_555
Mn0 O32 2.191355 1_555
Mn0 O31 2.191360 1_555
Mn0 O12 2.283329 1_554
Mn0 O14 2.283333 1_554
Mn0 O13 2.283338 1_554
Mn1 O33 2.191351 1_555
Mn1 O35 2.191355 1_555
Mn1 O34 2.191360 1_555
Mn1 O15 2.283329 1_555
Mn1 O17 2.283333 1_555
Mn1 O16 2.283338 1_555
Mn2 O24 2.191344 1_555
Mn2 O26 2.191348 1_555
Mn2 O25 2.191353 1_555
Mn2 O18 2.283337 1_555
Mn2 O20 2.283342 1_555
Mn2 O19 2.283346 1_555
Mn3 O27 2.191344 1_555
Mn3 O29 2.191348 1_555
Mn3 O28 2.191353 1_555
Mn3 O21 2.283337 1_556
Mn3 O23 2.283342 1_556
Mn3 O22 2.283346 1_556
Mn4 O28 2.058526 1_554
Mn4 O31 2.058526 1_555
Mn4 O13 2.099358 1_554
Mn4 O22 2.099358 1_555
Mn5 O29 2.058526 1_554
Mn5 O30 2.058526 1_545
Mn5 O14 2.099358 1_544
Mn5 O21 2.099358 1_555
Mn6 O32 2.058526 1_555
Mn6 O27 2.058526 1_454
Mn6 O23 2.099358 1_455
Mn6 O12 2.099358 1_554
Mn7 O34 2.058526 1_555
Mn7 O25 2.058526 1_555
Mn7 O19 2.099358 1_555
Mn7 O16 2.099358 1_555
Mn8 O26 2.058526 1_555
Mn8 O33 2.058526 1_545
Mn8 O17 2.099358 1_545
Mn8 O18 2.099358 1_555
Mn9 O35 2.058526 1_555
Mn9 O24 2.058526 1_455
Mn9 O20 2.099358 1_455
Mn9 O15 2.099358 1_555
O0 Si0 1.641612 1_555
O0 Si3 1.641612 1_555
O1 Si1 1.641614 1_555
O1 Si4 1.641614 1_555
O2 Si2 1.641614 1_555
O2 Si5 1.641614 1_555
O3 Si6 1.641612 1_555
O3 Si9 1.641612 1_555
O4 Si7 1.641614 1_555
O4 Si10 1.641614 1_555
O5 Si8 1.641614 1_555
O5 Si11 1.641614 1_555
O6 Si12 1.627654 1_555
O6 Si15 1.627654 1_555
O7 Si13 1.627655 1_555
O7 Si16 1.627655 1_555
O8 Si14 1.627655 1_555
O8 Si17 1.627655 1_555
O9 Si21 1.627654 1_555
O9 Si18 1.627654 1_555
O10 Si22 1.627655 1_555
O10 Si19 1.627655 1_555
O11 Si23 1.627655 1_555
O11 Si20 1.627655 1_555
O12 Si0 1.615078 1_555
O13 Si1 1.615078 1_555
O14 Si2 1.615078 1_555
O15 Si3 1.615078 1_555
O16 Si4 1.615078 1_555
O17 Si5 1.615078 1_555
O18 Si6 1.615078 1_555
O19 Si7 1.615078 1_555
O20 Si8 1.615078 1_555
O21 Si9 1.615078 1_555
O22 Si10 1.615078 1_555
O23 Si11 1.615078 1_555
O24 Si12 1.604885 1_555
O25 Si13 1.604885 1_555
O26 Si14 1.604885 1_555
O27 Si15 1.604885 1_555
O28 Si16 1.604885 1_555
O29 Si17 1.604885 1_555
O30 Si18 1.604885 1_555
O31 Si19 1.604885 1_555
O32 Si20 1.604885 1_555
O33 Si21 1.604885 1_555
O34 Si22 1.604885 1_555
O35 Si23 1.604885 1_555
O36 Si0 1.638759 1_555
O36 Si17 1.656815 1_565
O37 Si1 1.638759 1_555
O37 Si15 1.656815 1_455
O38 Si2 1.638759 1_555
O38 Si16 1.656815 1_555
O39 Si3 1.638759 1_555
O39 Si14 1.656815 1_565
O40 Si4 1.638759 1_555
O40 Si12 1.656815 1_455
O41 Si5 1.638759 1_555
O41 Si13 1.656815 1_555
O42 Si6 1.638759 1_555
O42 Si23 1.656815 1_655
O43 Si7 1.638759 1_555
O43 Si21 1.656815 1_545
O44 Si8 1.638759 1_555
O44 Si22 1.656815 1_555
O45 Si9 1.638759 1_555
O45 Si20 1.656815 1_655
O46 Si10 1.638759 1_555
O46 Si18 1.656815 1_545
O47 Si11 1.638759 1_555
O47 Si19 1.656815 1_555
O48 Si5 1.641191 1_545
O48 Si12 1.651686 1_555
O49 Si3 1.641191 1_655
O49 Si13 1.651686 1_555
O50 Si4 1.641191 1_555
O50 Si14 1.651686 1_555
O51 Si2 1.641191 1_545
O51 Si15 1.651686 1_555
O52 Si0 1.641191 1_655
O52 Si16 1.651686 1_555
O53 Si1 1.641191 1_555
O53 Si17 1.651686 1_555
O54 Si11 1.641191 1_455
O54 Si18 1.651686 1_555
O55 Si9 1.641191 1_565
O55 Si19 1.651686 1_555
O56 Si10 1.641191 1_555
O56 Si20 1.651686 1_555
O57 Si8 1.641191 1_455
O57 Si21 1.651686 1_555
O58 Si6 1.641191 1_565
O58 Si22 1.651686 1_555
O59 Si7 1.641191 1_555
O59 Si23 1.651686 1_555
