# generated using pymatgen
data_RbSm2CuS4
_symmetry_space_group_name_H-M   'P 1'
_cell_length_a   7.29533667
_cell_length_b   7.29533667
_cell_length_c   13.97038100
_cell_angle_alpha   90.00000000
_cell_angle_beta   90.00000000
_cell_angle_gamma   147.74542029
_symmetry_Int_Tables_number   1
_chemical_formula_structural   RbSm2CuS4
_chemical_formula_sum   'Rb2 Sm4 Cu2 S8'
_cell_volume   396.80905681
_cell_formula_units_Z   2
loop_
 _symmetry_equiv_pos_site_id
 _symmetry_equiv_pos_as_xyz
  1  'x, y, z'
loop_
 _atom_site_type_symbol
 _atom_site_label
 _atom_site_symmetry_multiplicity
 _atom_site_fract_x
 _atom_site_fract_y
 _atom_site_fract_z
 _atom_site_occupancy
  Rb  Rb0  1  0.10643400  0.89356600  0.25000000  1
  Rb  Rb1  1  0.89356600  0.10643400  0.75000000  1
  Sm  Sm0  1  0.63437600  0.36562400  0.93824600  1
  Sm  Sm1  1  0.36562400  0.63437600  0.43824600  1
  Sm  Sm2  1  0.63437600  0.36562400  0.56175400  1
  Sm  Sm3  1  0.36562400  0.63437600  0.06175400  1
  Cu  Cu0  1  0.16475900  0.83524100  0.75000000  1
  Cu  Cu1  1  0.83524100  0.16475900  0.25000000  1
  S  S0  1  0.00000000  0.00000000  0.50000000  1
  S  S1  1  0.00000000  0.00000000  0.00000000  1
  S  S2  1  0.42447300  0.57552700  0.25000000  1
  S  S3  1  0.57552700  0.42447300  0.75000000  1
  S  S4  1  0.74008400  0.25991600  0.38874500  1
  S  S5  1  0.25991600  0.74008400  0.88874500  1
  S  S6  1  0.25991600  0.74008400  0.61125500  1
  S  S7  1  0.74008400  0.25991600  0.11125500  1
loop_
_geom_bond_atom_site_label_1
_geom_bond_atom_site_label_2
_geom_bond_distance
_geom_bond_site_symmetry_2
Rb0 S2 3.257496 1_455
Rb0 S2 3.257496 1_565
Rb0 S4 3.372361 1_565
Rb0 S7 3.372361 1_565
Rb0 S7 3.372361 1_455
Rb0 S4 3.372361 1_455
Rb0 S0 3.797865 1_565
Rb0 S1 3.797865 1_565
Rb1 S3 3.257496 1_545
Rb1 S3 3.257496 1_655
Rb1 S5 3.372361 1_655
Rb1 S6 3.372361 1_655
Rb1 S6 3.372361 1_545
Rb1 S5 3.372361 1_545
Rb1 S0 3.797865 1_655
Rb1 S1 3.797865 1_656
Cu0 S6 2.352875 1_555
Cu0 S5 2.352875 1_555
Cu0 S3 2.381337 1_565
Cu0 S3 2.381337 1_455
Cu1 S4 2.352875 1_555
Cu1 S7 2.352875 1_555
Cu1 S2 2.381337 1_655
Cu1 S2 2.381337 1_545
S0 Sm1 2.897975 1_555
S0 Sm2 2.897975 1_555
S0 Sm1 2.897975 1_445
S0 Sm2 2.897975 1_445
S1 Sm0 2.897975 1_554
S1 Sm3 2.897975 1_555
S1 Sm3 2.897975 1_445
S1 Sm0 2.897975 1_444
S2 Sm3 2.756192 1_555
S2 Sm1 2.756192 1_555
S3 Sm0 2.756192 1_555
S3 Sm2 2.756192 1_555
S4 Sm1 2.771462 1_655
S4 Sm1 2.771462 1_545
S4 Sm2 2.834995 1_555
S5 Sm0 2.771462 1_565
S5 Sm0 2.771462 1_455
S5 Sm3 2.834995 1_556
S6 Sm2 2.771462 1_565
S6 Sm2 2.771462 1_455
S6 Sm1 2.834995 1_555
S7 Sm3 2.771462 1_655
S7 Sm3 2.771462 1_545
S7 Sm0 2.834995 1_554
