# generated using pymatgen
data_MgSi2
_symmetry_space_group_name_H-M   'P 1'
_cell_length_a   3.65185300
_cell_length_b   5.45001003
_cell_length_c   11.64717569
_cell_angle_alpha   84.08075143
_cell_angle_beta   83.64177366
_cell_angle_gamma   70.66594190
_symmetry_Int_Tables_number   1
_chemical_formula_structural   MgSi2
_chemical_formula_sum   'Mg4 Si8'
_cell_volume   216.84435598
_cell_formula_units_Z   4
loop_
 _symmetry_equiv_pos_site_id
 _symmetry_equiv_pos_as_xyz
  1  'x, y, z'
loop_
 _atom_site_type_symbol
 _atom_site_label
 _atom_site_symmetry_multiplicity
 _atom_site_fract_x
 _atom_site_fract_y
 _atom_site_fract_z
 _atom_site_occupancy
  Mg  Mg0  1  0.49145300  0.61860500  0.09110200  1
  Mg  Mg1  1  0.28071300  0.17983600  0.93446500  1
  Mg  Mg2  1  0.71291500  0.78132800  0.57293500  1
  Mg  Mg3  1  0.51457900  0.32180600  0.42664800  1
  Si  Si0  1  0.61209300  0.65918000  0.85802400  1
  Si  Si1  1  0.14204000  0.23888200  0.22355900  1
  Si  Si2  1  0.87125900  0.67992000  0.28442300  1
  Si  Si3  1  0.35413700  0.44705400  0.71912300  1
  Si  Si4  1  0.76931700  0.05722200  0.11984500  1
  Si  Si5  1  0.01397300  0.90990700  0.76925800  1
  Si  Si6  1  0.00067900  0.23663300  0.61428800  1
  Si  Si7  1  0.23685300  0.86970500  0.38640900  1
loop_
_geom_bond_atom_site_label_1
_geom_bond_atom_site_label_2
_geom_bond_distance
_geom_bond_site_symmetry_2
Mg0 Si0 2.699701 1_554
Mg0 Si2 2.873870 1_555
Mg0 Si4 2.882849 1_555
Mg0 Si4 2.928518 1_465
Mg0 Si4 2.950001 1_565
Mg0 Si2 2.972487 1_455
Mg0 Si1 2.990833 1_555
Mg0 Si1 3.034007 1_655
Mg1 Si3 2.799956 1_555
Mg1 Si4 2.838741 1_556
Mg1 Si4 2.869122 1_456
Mg1 Si0 2.884038 1_545
Mg1 Si5 2.960309 1_545
Mg1 Si0 3.058991 1_455
Mg1 Si5 3.141864 1_645
Mg2 Si6 2.810767 1_655
Mg2 Si7 2.835564 1_555
Mg2 Si7 2.843654 1_655
Mg2 Si5 2.885446 1_655
Mg2 Si3 2.895048 1_555
Mg2 Si6 2.974887 1_565
Mg2 Si3 3.019924 1_655
Mg2 Si6 3.094998 1_665
Mg2 Si5 3.176161 1_555
Mg3 Si6 2.823632 1_555
Mg3 Si7 2.824202 1_555
Mg3 Si6 2.871831 1_655
Mg3 Si2 2.964539 1_555
Mg3 Si7 2.984779 1_645
Mg3 Si1 2.998439 1_555
Mg3 Si2 3.038351 1_455
Mg3 Si7 3.052461 1_545
Mg3 Si1 3.063367 1_655
Si0 Si5 2.406332 1_655
Si0 Si5 2.437113 1_555
Si0 Si3 2.507121 1_555
Si1 Si4 2.407327 1_455
Si1 Si4 2.412236 1_555
Si1 Si2 2.424930 1_455
Si1 Si7 2.581238 1_545
Si2 Si7 2.404652 1_655
Si2 Si7 2.430095 1_555
Si2 Si4 2.622887 1_565
Si3 Si6 2.467836 1_555
Si3 Si6 2.497624 1_655
Si3 Si5 2.513091 1_555
Si5 Si6 2.393796 1_565
