# generated using pymatgen
data_Pb4SBr6
_symmetry_space_group_name_H-M   'P 1'
_cell_length_a   4.32026049
_cell_length_b   9.90634865
_cell_length_c   9.85528538
_cell_angle_alpha   62.18622498
_cell_angle_beta   77.38082310
_cell_angle_gamma   77.49320985
_symmetry_Int_Tables_number   1
_chemical_formula_structural   Pb4SBr6
_chemical_formula_sum   'Pb4 S1 Br6'
_cell_volume   360.82113899
_cell_formula_units_Z   1
loop_
 _symmetry_equiv_pos_site_id
 _symmetry_equiv_pos_as_xyz
  1  'x, y, z'
loop_
 _atom_site_type_symbol
 _atom_site_label
 _atom_site_symmetry_multiplicity
 _atom_site_fract_x
 _atom_site_fract_y
 _atom_site_fract_z
 _atom_site_occupancy
  Pb  Pb0  1  0.99665000  0.98073800  0.02017100  1
  Pb  Pb1  1  0.25117600  0.53447400  0.97197800  1
  Pb  Pb2  1  0.49652300  0.55421600  0.44676700  1
  Pb  Pb3  1  0.74921100  0.02926200  0.46939800  1
  S  S0  1  0.99882800  0.71518700  0.28186200  1
  Br  Br0  1  0.36211700  0.09643700  0.17466600  1
  Br  Br1  1  0.63148000  0.82785000  0.90171300  1
  Br  Br2  1  0.12032200  0.16858900  0.58823600  1
  Br  Br3  1  0.87458500  0.41506400  0.83226900  1
  Br  Br4  1  0.30853800  0.76934700  0.60878800  1
  Br  Br5  1  0.68918200  0.39051600  0.23244700  1
loop_
_geom_bond_atom_site_label_1
_geom_bond_atom_site_label_2
_geom_bond_distance
_geom_bond_site_symmetry_2
Pb0 S0 2.690795 1_555
Pb2 S0 2.725932 1_455
Pb2 S0 2.726297 1_555
Br0 Pb0 3.096399 1_445
Br0 Pb0 3.096916 1_545
Br0 Pb3 3.389705 1_455
Br0 Pb3 3.393132 1_555
Br1 Pb0 3.103348 1_456
Br1 Pb0 3.104093 1_556
Br1 Pb1 3.364284 1_555
Br1 Pb1 3.414040 1_655
Br2 Pb3 3.022357 1_455
Br2 Pb3 3.025317 1_555
Br3 Pb1 3.011416 1_555
Br3 Pb1 3.045387 1_655
Br4 Pb2 3.100075 1_555
Br4 Pb3 3.132222 1_465
Br4 Pb3 3.133825 1_565
Br4 Pb1 3.221351 1_555
Br5 Pb2 3.102839 1_555
Br5 Pb1 3.121127 1_554
Br5 Pb1 3.142987 1_654
Br5 Pb3 3.223585 1_555
