# generated using pymatgen
data_Ti(NbS2)4
_symmetry_space_group_name_H-M   'P 1'
_cell_length_a   6.70046495
_cell_length_b   6.70070398
_cell_length_c   12.30227069
_cell_angle_alpha   90.00059300
_cell_angle_beta   89.99976796
_cell_angle_gamma   119.98953832
_symmetry_Int_Tables_number   1
_chemical_formula_structural   Ti(NbS2)4
_chemical_formula_sum   'Ti2 Nb8 S16'
_cell_volume   478.39546663
_cell_formula_units_Z   2
loop_
 _symmetry_equiv_pos_site_id
 _symmetry_equiv_pos_as_xyz
  1  'x, y, z'
loop_
 _atom_site_type_symbol
 _atom_site_label
 _atom_site_symmetry_multiplicity
 _atom_site_fract_x
 _atom_site_fract_y
 _atom_site_fract_z
 _atom_site_occupancy
  Ti  Ti0  1  -0.00000008  -0.00000049  0.49999879  1
  Ti  Ti1  1  0.00000018  -0.00000051  0.00000141  1
  Nb  Nb0  1  -0.00003046  0.00006323  0.25030992  1
  Nb  Nb1  1  0.00002635  -0.00006712  0.74969071  1
  Nb  Nb2  1  0.50559094  0.49440880  0.25028829  1
  Nb  Nb3  1  0.50557908  0.01114893  0.25013418  1
  Nb  Nb4  1  0.98884658  0.49442520  0.25016008  1
  Nb  Nb5  1  0.49440789  0.50559029  0.74971173  1
  Nb  Nb6  1  0.49442268  0.98885460  0.74986736  1
  Nb  Nb7  1  0.01115276  0.50557632  0.74983829  1
  S  S0  1  0.33337029  0.66660074  0.87956686  1
  S  S1  1  0.66662994  0.33339948  0.12043389  1
  S  S2  1  0.66672868  0.33323159  0.37985193  1
  S  S3  1  0.33327290  0.66676968  0.62014763  1
  S  S4  1  0.16672978  0.83326755  0.37875828  1
  S  S5  1  0.16671471  0.33341323  0.37889059  1
  S  S6  1  0.66657930  0.83327677  0.37886553  1
  S  S7  1  0.83327021  0.16673107  0.62124098  1
  S  S8  1  0.83328472  0.66658612  0.62110849  1
  S  S9  1  0.33341920  0.16672141  0.62113228  1
  S  S10  1  0.83354820  0.16650530  0.87834607  1
  S  S11  1  0.83303617  0.66628536  0.87825834  1
  S  S12  1  0.33358305  0.16691969  0.87827394  1
  S  S13  1  0.16645578  0.83349919  0.12165602  1
  S  S14  1  0.16696381  0.33371321  0.12174291  1
  S  S15  1  0.66641731  0.83308035  0.12172749  1
loop_
_geom_bond_atom_site_label_1
_geom_bond_atom_site_label_2
_geom_bond_distance
_geom_bond_site_symmetry_2
Nb0 S13 2.497947 1_545
Nb0 S4 2.498638 1_545
Nb0 S6 2.498930 1_445
Nb0 S5 2.498985 1_555
Nb0 S15 2.499864 1_445
Nb0 S14 2.500250 1_555
Nb1 S10 2.497960 1_455
Nb1 S7 2.498642 1_455
Nb1 S9 2.498964 1_555
Nb1 S8 2.498982 1_445
Nb1 S12 2.499890 1_555
Nb1 S11 2.500244 1_445
Nb2 S2 2.457337 1_555
Nb2 S1 2.458463 1_555
Nb2 S14 2.523104 1_555
Nb2 S15 2.523477 1_555
Nb2 S6 2.524458 1_555
Nb2 S5 2.524645 1_555
Nb3 S2 2.457771 1_555
Nb3 S1 2.458396 1_555
Nb3 S15 2.523086 1_545
Nb3 S4 2.524712 1_545
Nb3 S13 2.524768 1_545
Nb3 S6 2.525427 1_545
Nb4 S2 2.457682 1_555
Nb4 S1 2.458389 1_555
Nb4 S14 2.522827 1_655
Nb4 S4 2.524521 1_655
Nb4 S13 2.524809 1_655
Nb4 S5 2.525450 1_655
Nb5 S3 2.457339 1_555
Nb5 S0 2.458467 1_555
Nb5 S11 2.523119 1_555
Nb5 S12 2.523484 1_555
Nb5 S9 2.524479 1_555
Nb5 S8 2.524655 1_555
Nb6 S3 2.457797 1_555
Nb6 S0 2.458404 1_555
Nb6 S12 2.523076 1_565
Nb6 S7 2.524721 1_565
Nb6 S10 2.524782 1_565
Nb6 S9 2.525446 1_565
Nb7 S3 2.457683 1_555
Nb7 S0 2.458412 1_555
Nb7 S11 2.522833 1_455
Nb7 S7 2.524527 1_455
Nb7 S10 2.524824 1_455
Nb7 S8 2.525435 1_455
S4 Ti0 2.443072 1_565
S5 Ti0 2.442148 1_555
S6 Ti0 2.442301 1_665
S7 Ti0 2.443082 1_655
S8 Ti0 2.442158 1_665
S9 Ti0 2.442296 1_555
S10 Ti1 2.443898 1_656
S11 Ti1 2.448278 1_666
S12 Ti1 2.447516 1_556
S13 Ti1 2.443884 1_565
S14 Ti1 2.448264 1_555
S15 Ti1 2.447505 1_665
