# generated using pymatgen
data_Rb2Be2Ni(O3F4)2
_symmetry_space_group_name_H-M   'P 1'
_cell_length_a   5.99075163
_cell_length_b   8.44004706
_cell_length_c   11.66376500
_cell_angle_alpha   90.00000000
_cell_angle_beta   90.00000000
_cell_angle_gamma   102.80661849
_symmetry_Int_Tables_number   1
_chemical_formula_structural   Rb2Be2Ni(O3F4)2
_chemical_formula_sum   'Rb4 Be4 Ni2 O12 F16'
_cell_volume   575.07525529
_cell_formula_units_Z   2
loop_
 _symmetry_equiv_pos_site_id
 _symmetry_equiv_pos_as_xyz
  1  'x, y, z'
loop_
 _atom_site_type_symbol
 _atom_site_label
 _atom_site_symmetry_multiplicity
 _atom_site_fract_x
 _atom_site_fract_y
 _atom_site_fract_z
 _atom_site_occupancy
  Rb  Rb0  1  0.84682100  0.61192800  0.14480400  1
  Rb  Rb1  1  0.15317900  0.38807200  0.85519600  1
  Rb  Rb2  1  0.15317900  0.88807200  0.64480400  1
  Rb  Rb3  1  0.84682100  0.11192800  0.35519600  1
  Be  Be0  1  0.74167400  0.61221100  0.84532500  1
  Be  Be1  1  0.25832600  0.38778900  0.15467500  1
  Be  Be2  1  0.25832600  0.88778900  0.34532500  1
  Be  Be3  1  0.74167400  0.11221100  0.65467500  1
  Ni  Ni0  1  0.50000000  0.00000000  0.00000000  1
  Ni  Ni1  1  0.50000000  0.50000000  0.50000000  1
  O  O0  1  0.33668500  0.85881400  0.89611100  1
  O  O1  1  0.66331500  0.14118600  0.10388900  1
  O  O2  1  0.66331500  0.64118600  0.39611100  1
  O  O3  1  0.33668500  0.35881400  0.60388900  1
  O  O4  1  0.41079600  0.61729100  0.61570500  1
  O  O5  1  0.58920400  0.38270900  0.38429500  1
  O  O6  1  0.58920400  0.88270900  0.11570500  1
  O  O7  1  0.41079600  0.11729100  0.88429500  1
  O  O8  1  0.78082600  0.99926000  0.93128800  1
  O  O9  1  0.21917400  0.00074000  0.06871200  1
  O  O10  1  0.21917400  0.50074000  0.43128800  1
  O  O11  1  0.78082600  0.49926000  0.56871200  1
  F  F0  1  0.51403200  0.64835200  0.80027800  1
  F  F1  1  0.48596800  0.35164800  0.19972200  1
  F  F2  1  0.48596800  0.85164800  0.30027800  1
  F  F3  1  0.51403200  0.14835200  0.69972200  1
  F  F4  1  0.71736100  0.96587900  0.57655000  1
  F  F5  1  0.28263900  0.03412100  0.42345000  1
  F  F6  1  0.28263900  0.53412100  0.07655000  1
  F  F7  1  0.71736100  0.46587900  0.92345000  1
  F  F8  1  0.87085600  0.76670700  0.92011100  1
  F  F9  1  0.12914400  0.23329300  0.07988900  1
  F  F10  1  0.12914400  0.73329300  0.42011100  1
  F  F11  1  0.87085600  0.26670700  0.57988900  1
  F  F12  1  0.89808800  0.59456800  0.73980400  1
  F  F13  1  0.10191200  0.40543200  0.26019600  1
  F  F14  1  0.10191200  0.90543200  0.23980400  1
  F  F15  1  0.89808800  0.09456800  0.76019600  1
loop_
_geom_bond_atom_site_label_1
_geom_bond_atom_site_label_2
_geom_bond_distance
_geom_bond_site_symmetry_2
Be0 F7 1.515637 1_555
Be0 F0 1.553489 1_555
Be0 F12 1.573808 1_555
Be0 F8 1.616393 1_555
Be1 F6 1.515637 1_555
Be1 F1 1.553489 1_555
Be1 F13 1.573808 1_555
Be1 F9 1.616393 1_555
Be2 F5 1.515637 1_565
Be2 F2 1.553489 1_555
Be2 F14 1.573808 1_555
Be2 F10 1.616393 1_555
Be3 F4 1.515637 1_545
Be3 F3 1.553489 1_555
Be3 F15 1.573808 1_555
Be3 F11 1.616393 1_555
Ni0 O7 1.822470 1_554
Ni0 O6 1.822470 1_545
Ni0 O1 1.824454 1_555
Ni0 O0 1.824454 1_544
Ni0 O8 1.864761 1_544
Ni0 O9 1.864761 1_555
Ni1 O5 1.822470 1_555
Ni1 O4 1.822470 1_555
Ni1 O3 1.824454 1_555
Ni1 O2 1.824454 1_555
Ni1 O11 1.864761 1_555
Ni1 O10 1.864761 1_555
O0 Rb2 3.159387 1_555
O1 Rb3 3.159387 1_555
O2 Rb0 3.159387 1_555
O3 Rb1 3.159387 1_555
O4 Rb2 3.046925 1_555
O5 Rb3 3.046925 1_555
O6 Rb0 3.046925 1_555
O7 Rb1 3.046925 1_555
F0 Rb1 2.793584 1_555
F1 Rb0 2.793584 1_555
F2 Rb3 2.793584 1_565
F3 Rb2 2.793584 1_545
F4 Rb3 2.891873 1_565
F4 Rb2 2.939694 1_655
F5 Rb2 2.891873 1_545
F5 Rb3 2.939694 1_455
F6 Rb1 2.891873 1_554
F6 Rb0 2.939694 1_455
F7 Rb0 2.891873 1_556
F7 Rb1 2.939694 1_655
F8 Rb0 2.917583 1_556
F9 Rb1 2.917583 1_554
F10 Rb2 2.917583 1_555
F11 Rb3 2.917583 1_555
F12 Rb2 2.832201 1_655
F12 Rb1 2.892236 1_655
F13 Rb3 2.832201 1_455
F13 Rb0 2.892236 1_455
F14 Rb0 2.832201 1_455
F14 Rb3 2.892236 1_465
F15 Rb1 2.832201 1_655
F15 Rb2 2.892236 1_645
