# generated using pymatgen
data_KMg14Mn
_symmetry_space_group_name_H-M   'P 1'
_cell_length_a   6.46806343
_cell_length_b   6.46806289
_cell_length_c   10.19791529
_cell_angle_alpha   90.00000000
_cell_angle_beta   90.00000000
_cell_angle_gamma   120.00000280
_symmetry_Int_Tables_number   1
_chemical_formula_structural   KMg14Mn
_chemical_formula_sum   'K1 Mg14 Mn1'
_cell_volume   369.47965032
_cell_formula_units_Z   1
loop_
 _symmetry_equiv_pos_site_id
 _symmetry_equiv_pos_as_xyz
  1  'x, y, z'
loop_
 _atom_site_type_symbol
 _atom_site_label
 _atom_site_symmetry_multiplicity
 _atom_site_fract_x
 _atom_site_fract_y
 _atom_site_fract_z
 _atom_site_occupancy
  K  K0  1  0.16666700  0.33333300  0.62500000  1
  Mg  Mg0  1  0.15817465  0.82908683  0.12500000  1
  Mg  Mg1  1  0.17652825  0.83826362  0.62500000  1
  Mg  Mg2  1  0.67091317  0.34182535  0.12500000  1
  Mg  Mg3  1  0.66173638  0.32347175  0.62500000  1
  Mg  Mg4  1  0.67091317  0.82908683  0.12500000  1
  Mg  Mg5  1  0.66173638  0.83826362  0.62500000  1
  Mg  Mg6  1  0.32956985  0.17043015  0.34967904  1
  Mg  Mg7  1  0.32956985  0.17043015  0.90032096  1
  Mg  Mg8  1  0.32956985  0.65914069  0.34967904  1
  Mg  Mg9  1  0.32956985  0.65914069  0.90032096  1
  Mg  Mg10  1  0.84085931  0.17043015  0.34967904  1
  Mg  Mg11  1  0.84085931  0.17043015  0.90032096  1
  Mg  Mg12  1  0.83333300  0.66666700  0.38195158  1
  Mg  Mg13  1  0.83333300  0.66666700  0.86804842  1
  Mn  Mn0  1  0.16666700  0.33333300  0.12500000  1
loop_
_geom_bond_atom_site_label_1
_geom_bond_atom_site_label_2
_geom_bond_distance
_geom_bond_site_symmetry_2
K0 Mg1 3.234503 1_555
K0 Mg5 3.234503 1_555
K0 Mg5 3.234503 1_445
K0 Mg1 3.234503 1_545
K0 Mg3 3.234503 1_455
K0 Mg3 3.234503 1_555
K0 Mg7 3.348703 1_555
K0 Mg6 3.348703 1_555
K0 Mg9 3.348709 1_555
K0 Mg8 3.348709 1_555
K0 Mg11 3.348709 1_455
K0 Mg10 3.348709 1_455
Mg0 Mg8 2.984247 1_555
Mg0 Mg9 2.984247 1_554
Mg0 Mg6 2.984254 1_565
Mg0 Mg7 2.984254 1_564
Mg0 Mg2 3.151638 1_455
Mg0 Mg4 3.151638 1_455
Mg0 Mg13 3.190187 1_454
Mg0 Mg12 3.190187 1_455
Mg0 Mn0 3.234381 1_565
Mg0 Mn0 3.234381 1_555
Mg0 Mg2 3.316425 1_565
Mg0 Mg4 3.316425 1_555
Mg1 Mg12 3.136727 1_455
Mg1 Mg13 3.136727 1_455
Mg1 Mg3 3.138357 1_565
Mg1 Mg5 3.138357 1_555
Mg1 Mg3 3.329706 1_455
Mg1 Mg5 3.329706 1_455
Mg1 Mg9 3.369304 1_555
Mg1 Mg8 3.369304 1_555
Mg1 Mg7 3.369310 1_565
Mg1 Mg6 3.369310 1_565
Mg2 Mg6 2.984254 1_555
Mg2 Mg7 2.984254 1_554
Mg2 Mg4 3.151638 1_555
Mg2 Mn0 3.234382 1_555
Mg2 Mn0 3.234382 1_655
Mg2 Mg4 3.316425 1_545
Mg3 Mg5 3.138357 1_545
Mg3 Mg5 3.329706 1_555
Mg3 Mg7 3.369310 1_555
Mg3 Mg6 3.369310 1_555
Mg4 Mg8 2.984254 1_555
Mg4 Mg9 2.984254 1_554
Mg4 Mn0 3.234381 1_665
Mg4 Mn0 3.234381 1_555
Mg5 Mg9 3.369310 1_555
Mg5 Mg8 3.369310 1_555
Mg6 Mn0 2.929249 1_555
Mg6 Mg8 3.161011 1_555
Mg6 Mg8 3.307052 1_545
Mg7 Mn0 2.929249 1_556
Mg7 Mg9 3.161011 1_555
Mg7 Mg9 3.307052 1_545
Mg8 Mn0 2.929256 1_555
Mg9 Mn0 2.929256 1_556
Mg10 Mn0 2.929256 1_655
Mg10 Mg2 2.984247 1_555
Mg10 Mg4 2.984254 1_545
Mg10 Mg8 3.161011 1_655
Mg10 Mg6 3.161011 1_655
Mg10 Mg12 3.251008 1_545
Mg10 Mg12 3.251008 1_555
Mg10 Mg8 3.307052 1_545
Mg10 Mg6 3.307053 1_555
Mg10 Mg3 3.369304 1_555
Mg10 Mg5 3.369310 1_545
Mg11 Mn0 2.929256 1_656
Mg11 Mg2 2.984247 1_556
Mg11 Mg4 2.984254 1_546
Mg11 Mg9 3.161011 1_655
Mg11 Mg7 3.161011 1_655
Mg11 Mg13 3.251008 1_545
Mg11 Mg13 3.251008 1_555
Mg11 Mg9 3.307052 1_545
Mg11 Mg7 3.307053 1_555
Mg11 Mg3 3.369304 1_555
Mg11 Mg5 3.369310 1_545
Mg12 Mg5 3.136720 1_555
Mg12 Mg3 3.136727 1_555
Mg12 Mg4 3.190181 1_555
Mg12 Mg2 3.190187 1_555
Mg12 Mg6 3.251008 1_665
Mg12 Mg6 3.251008 1_555
Mg12 Mg8 3.251008 1_555
Mg12 Mg8 3.251008 1_655
Mg13 Mg5 3.136720 1_555
Mg13 Mg3 3.136727 1_555
Mg13 Mg4 3.190181 1_556
Mg13 Mg2 3.190187 1_556
Mg13 Mg7 3.251008 1_665
Mg13 Mg7 3.251008 1_555
Mg13 Mg9 3.251008 1_555
Mg13 Mg9 3.251008 1_655
