# generated using pymatgen
data_K2BaNa2Ti4Si8(WO7)4
_symmetry_space_group_name_H-M   'P 1'
_cell_length_a   10.12324886
_cell_length_b   10.12324886
_cell_length_c   8.05776788
_cell_angle_alpha   70.28569830
_cell_angle_beta   70.28569830
_cell_angle_gamma   90.07214182
_symmetry_Int_Tables_number   1
_chemical_formula_structural   K2BaNa2Ti4Si8(WO7)4
_chemical_formula_sum   'K2 Ba1 Na2 Ti4 Si8 W4 O28'
_cell_volume   725.60348739
_cell_formula_units_Z   1
loop_
 _symmetry_equiv_pos_site_id
 _symmetry_equiv_pos_as_xyz
  1  'x, y, z'
loop_
 _atom_site_type_symbol
 _atom_site_label
 _atom_site_symmetry_multiplicity
 _atom_site_fract_x
 _atom_site_fract_y
 _atom_site_fract_z
 _atom_site_occupancy
  K  K0  1  0.20869000  0.20869000  0.96673700  1
  K  K1  1  0.01829300  0.01829300  0.61980400  1
  Ba  Ba0  1  0.55971200  0.55971200  0.57684600  1
  Na  Na0  1  0.75564500  0.25474700  0.25330300  1
  Na  Na1  1  0.25474700  0.75564500  0.25330300  1
  Ti  Ti0  1  0.85872800  0.39528300  0.77087200  1
  Ti  Ti1  1  0.39528300  0.85872800  0.77087200  1
  Ti  Ti2  1  0.13959800  0.62664900  0.76886400  1
  Ti  Ti3  1  0.62664900  0.13959800  0.76886400  1
  Si  Si0  1  0.94539800  0.72772900  0.48878600  1
  Si  Si1  1  0.72772900  0.94539800  0.48878600  1
  Si  Si2  1  0.20204200  0.40952100  0.53592900  1
  Si  Si3  1  0.40952100  0.20204200  0.53592900  1
  Si  Si4  1  0.04836600  0.82728600  0.03903700  1
  Si  Si5  1  0.82728600  0.04836600  0.03903700  1
  Si  Si6  1  0.31589100  0.52945600  0.08949100  1
  Si  Si7  1  0.52945600  0.31589100  0.08949100  1
  W  W0  1  0.94791100  0.43724200  0.32642100  1
  W  W1  1  0.43724200  0.94791100  0.32642100  1
  W  W2  1  0.80536500  0.58868000  0.02472500  1
  W  W3  1  0.58868000  0.80536500  0.02472500  1
  O  O0  1  0.29167400  0.50170500  0.31189800  1
  O  O1  1  0.50170500  0.29167400  0.31189800  1
  O  O2  1  0.87598200  0.87598200  0.48591100  1
  O  O3  1  0.24594800  0.24594800  0.58279600  1
  O  O4  1  0.24460700  0.48085100  0.66551400  1
  O  O5  1  0.48085100  0.24460700  0.66551400  1
  O  O6  1  0.08438700  0.73378100  0.54425800  1
  O  O7  1  0.73378100  0.08438700  0.54425800  1
  O  O8  1  0.96576900  0.49843300  0.86194300  1
  O  O9  1  0.49843300  0.96576900  0.86194300  1
  O  O10  1  0.68274400  0.41685600  0.98328200  1
  O  O11  1  0.41685600  0.68274400  0.98328200  1
  O  O12  1  0.03657500  0.39467400  0.55747000  1
  O  O13  1  0.39467400  0.03657500  0.55747000  1
  O  O14  1  0.40662900  0.40662900  0.02274100  1
  O  O15  1  0.97387200  0.97387200  0.01561000  1
  O  O16  1  0.16545500  0.52348900  0.05811800  1
  O  O17  1  0.52348900  0.16545500  0.05811800  1
  O  O18  1  0.87796800  0.21684800  0.95087900  1
  O  O19  1  0.21684800  0.87796800  0.95087900  1
  O  O20  1  0.75653700  0.31780000  0.65123900  1
  O  O21  1  0.31780000  0.75653700  0.65123900  1
  O  O22  1  0.00806100  0.73485700  0.26483800  1
  O  O23  1  0.73485700  0.00806100  0.26483800  1
  O  O24  1  0.99833500  0.73926800  0.92957400  1
  O  O25  1  0.73926800  0.99833500  0.92957400  1
  O  O26  1  0.82703900  0.58902600  0.60158700  1
  O  O27  1  0.58902600  0.82703900  0.60158700  1
loop_
_geom_bond_atom_site_label_1
_geom_bond_atom_site_label_2
_geom_bond_distance
_geom_bond_site_symmetry_2
K0 O3 2.877623 1_555
K0 O4 2.916289 1_555
K0 O5 2.916289 1_555
K0 O14 3.073103 1_556
K0 O15 3.190474 1_446
K1 O2 2.721567 1_445
K1 O15 2.939467 1_446
K1 O25 3.025122 1_445
K1 O24 3.025122 1_445
K1 O3 3.125809 1_555
K1 O6 3.166485 1_545
K1 O7 3.166485 1_455
Ba0 O26 2.802373 1_555
Ba0 O27 2.802373 1_555
Ba0 O5 3.065020 1_555
Ba0 O4 3.065020 1_555
Ba0 O20 3.186598 1_555
Ba0 O21 3.186598 1_555
Ba0 O14 3.192680 1_556
Na0 O7 2.332553 1_555
Na0 O23 2.473486 1_555
Na0 O18 2.492992 1_554
Na0 O1 2.504752 1_555
Na0 O10 2.578591 1_554
Na0 W0 3.007890 1_555
Na1 O6 2.332553 1_555
Na1 O22 2.473486 1_555
Na1 O19 2.492992 1_554
Na1 O0 2.504752 1_555
Na1 O11 2.578591 1_554
Na1 W1 3.007890 1_555
O0 Si2 1.645949 1_555
O0 Si6 1.647549 1_555
O1 Si3 1.645949 1_555
O1 Si7 1.647549 1_555
O2 Si0 1.654368 1_555
O2 Si1 1.654368 1_555
O3 Si2 1.665938 1_555
O3 Si3 1.665938 1_555
O4 Si2 1.615183 1_555
O4 Ti2 2.058619 1_555
O5 Si3 1.615183 1_555
O5 Ti3 2.058619 1_555
O6 Si0 1.620435 1_455
O6 Ti2 2.030711 1_555
O7 Si1 1.620435 1_545
O7 Ti3 2.030711 1_555
O8 Ti2 1.947017 1_655
O8 Ti0 1.963080 1_555
O8 W2 2.137079 1_556
O9 Ti3 1.947017 1_565
O9 Ti1 1.963080 1_555
O9 W3 2.137079 1_556
O10 Si7 1.641642 1_556
O10 Ti0 2.084933 1_555
O10 W2 2.311726 1_556
O11 Si6 1.641642 1_556
O11 Ti1 2.084933 1_555
O11 W3 2.311726 1_556
O12 Si2 1.626090 1_555
O12 Ti0 2.028991 1_455
O12 W0 2.245995 1_455
O13 Si3 1.626090 1_555
O13 Ti1 2.028991 1_545
O13 W1 2.245995 1_545
O14 Si6 1.673280 1_555
O14 Si7 1.673280 1_555
O15 Si5 1.648103 1_565
O15 Si4 1.648103 1_655
O16 Si6 1.629904 1_555
O16 Ti2 2.315516 1_554
O16 W0 2.407424 1_455
O17 Si7 1.629904 1_555
O17 Ti3 2.315516 1_554
O17 W1 2.407424 1_545
O18 Si5 1.615974 1_556
O18 Ti0 1.956652 1_555
O19 Si4 1.615974 1_556
O19 Ti1 1.956652 1_555
O20 Ti0 1.948224 1_555
O20 Ti3 1.970101 1_555
O20 W0 2.550224 1_555
O21 Ti1 1.948224 1_555
O21 Ti2 1.970101 1_555
O21 W1 2.550224 1_555
O22 Si4 1.643781 1_555
O22 Si0 1.674412 1_455
O22 W0 2.911537 1_455
O23 Si5 1.643781 1_555
O23 Si1 1.674412 1_545
O23 W1 2.911537 1_545
O24 Si4 1.630612 1_656
O24 Ti2 2.184600 1_655
O24 W2 2.218410 1_556
O25 Si5 1.630612 1_566
O25 Ti3 2.184600 1_565
O25 W3 2.218410 1_556
O26 Si0 1.622754 1_555
O26 Ti0 2.074164 1_555
O27 Si1 1.622754 1_555
O27 Ti1 2.074164 1_555
