# generated using pymatgen
data_Ce2Al3Ge4
_symmetry_space_group_name_H-M   'P 1'
_cell_length_a   8.10898815
_cell_length_b   8.10898815
_cell_length_c   7.99726531
_cell_angle_alpha   90.00000000
_cell_angle_beta   90.00000000
_cell_angle_gamma   136.46420768
_symmetry_Int_Tables_number   1
_chemical_formula_structural   Ce2Al3Ge4
_chemical_formula_sum   'Ce4 Al6 Ge8'
_cell_volume   362.22027222
_cell_formula_units_Z   2
loop_
 _symmetry_equiv_pos_site_id
 _symmetry_equiv_pos_as_xyz
  1  'x, y, z'
loop_
 _atom_site_type_symbol
 _atom_site_label
 _atom_site_symmetry_multiplicity
 _atom_site_fract_x
 _atom_site_fract_y
 _atom_site_fract_z
 _atom_site_occupancy
  Ce  Ce0  1  0.38626109  0.61373891  0.91958432  1
  Ce  Ce1  1  0.61373891  0.38626109  0.08041568  1
  Ce  Ce2  1  0.88626109  0.11373891  0.58041568  1
  Ce  Ce3  1  0.11373891  0.88626109  0.41958432  1
  Al  Al0  1  0.50000000  0.50000000  0.50000000  1
  Al  Al1  1  0.00000000  -0.00000000  -0.00000000  1
  Al  Al2  1  0.03416116  0.46583884  0.25000000  1
  Al  Al3  1  0.46583884  0.03416116  0.75000000  1
  Al  Al4  1  0.53416116  0.96583884  0.25000000  1
  Al  Al5  1  0.96583884  0.53416116  0.75000000  1
  Ge  Ge0  1  0.31353815  0.68646185  0.55403755  1
  Ge  Ge1  1  0.68646185  0.31353815  0.44596245  1
  Ge  Ge2  1  0.81353815  0.18646185  0.94596245  1
  Ge  Ge3  1  0.70175932  0.79824068  0.25000000  1
  Ge  Ge4  1  0.20175932  0.29824068  0.25000000  1
  Ge  Ge5  1  0.29824068  0.20175932  0.75000000  1
  Ge  Ge6  1  0.79824068  0.70175932  0.75000000  1
  Ge  Ge7  1  0.18646185  0.81353815  0.05403755  1
loop_
_geom_bond_atom_site_label_1
_geom_bond_atom_site_label_2
_geom_bond_distance
_geom_bond_site_symmetry_2
Ce0 Ge0 3.121833 1_555
Ce0 Ge5 3.170499 1_555
Ce0 Ge6 3.170499 1_555
Ce0 Ge7 3.195616 1_556
Ce0 Ge3 3.196309 1_556
Ce0 Ge4 3.196309 1_556
Ce0 Ge2 3.207408 1_565
Ce0 Ge2 3.207408 1_455
Ce1 Ge1 3.121833 1_555
Ce1 Ge4 3.170499 1_555
Ce1 Ge3 3.170499 1_555
Ce1 Ge2 3.195616 1_554
Ce1 Ge6 3.196309 1_554
Ce1 Ge5 3.196309 1_554
Ce1 Ge7 3.207408 1_655
Ce1 Ge7 3.207408 1_545
Ce2 Ge2 3.121833 1_555
Ce2 Ge5 3.170499 1_655
Ce2 Ge6 3.170499 1_545
Ce2 Ge1 3.195616 1_555
Ce2 Ge3 3.196309 1_545
Ce2 Ge4 3.196309 1_655
Ce2 Ge0 3.207408 1_545
Ce2 Ge0 3.207408 1_655
Ce3 Ge7 3.121833 1_555
Ce3 Ge4 3.170499 1_565
Ce3 Ge3 3.170499 1_455
Ce3 Ge0 3.195616 1_555
Ce3 Ge6 3.196309 1_455
Ce3 Ge5 3.196309 1_565
Ce3 Ge1 3.207408 1_455
Ce3 Ge1 3.207408 1_565
Al0 Ge6 2.604994 1_555
Al0 Ge5 2.604994 1_555
Al0 Ge4 2.604994 1_555
Al0 Ge3 2.604994 1_555
Al0 Ge1 2.841456 1_555
Al0 Ge0 2.841456 1_555
Al1 Ge4 2.604994 1_555
Al1 Ge5 2.604994 1_554
Al1 Ge3 2.604994 1_445
Al1 Ge6 2.604994 1_444
Al1 Ge7 2.841456 1_545
Al1 Ge2 2.841456 1_454
Al2 Ge4 2.524285 1_555
Al2 Ge7 2.623381 1_555
Al2 Ge1 2.623381 1_455
Al2 Ge2 2.892858 1_454
Al2 Ge0 2.892858 1_555
Al3 Ge5 2.524285 1_555
Al3 Ge0 2.623381 1_545
Al3 Ge2 2.623381 1_555
Al3 Ge1 2.892858 1_555
Al3 Ge7 2.892858 1_546
Al4 Ge3 2.524285 1_555
Al4 Ge7 2.623381 1_555
Al4 Ge1 2.623381 1_565
Al4 Ge2 2.892858 1_564
Al4 Ge0 2.892858 1_555
Al5 Ge6 2.524285 1_555
Al5 Ge2 2.623381 1_555
Al5 Ge0 2.623381 1_655
Al5 Ge1 2.892858 1_555
Al5 Ge7 2.892858 1_656
