# generated using pymatgen
data_Gd2Ti12(CuO4)9
_symmetry_space_group_name_H-M   'P 1'
_cell_length_a   6.44420588
_cell_length_b   10.51308119
_cell_length_c   10.51308119
_cell_angle_alpha   60.00000000
_cell_angle_beta   90.00000000
_cell_angle_gamma   90.00000000
_symmetry_Int_Tables_number   1
_chemical_formula_structural   Gd2Ti12(CuO4)9
_chemical_formula_sum   'Gd2 Ti12 Cu9 O36'
_cell_volume   616.82231262
_cell_formula_units_Z   1
loop_
 _symmetry_equiv_pos_site_id
 _symmetry_equiv_pos_as_xyz
  1  'x, y, z'
loop_
 _atom_site_type_symbol
 _atom_site_label
 _atom_site_symmetry_multiplicity
 _atom_site_fract_x
 _atom_site_fract_y
 _atom_site_fract_z
 _atom_site_occupancy
  Gd  Gd0  1  0.00385300  0.00000000  0.00000000  1
  Gd  Gd1  1  0.66281400  0.33333300  0.33333300  1
  Ti  Ti0  1  0.83333300  0.16666700  0.16666700  1
  Ti  Ti1  1  0.49670600  0.50636200  0.50841100  1
  Ti  Ti2  1  0.16996100  0.82697100  0.82492200  1
  Ti  Ti3  1  0.83333300  0.66666700  0.66666700  1
  Ti  Ti4  1  0.49282600  0.00000000  0.00000000  1
  Ti  Ti5  1  0.17384100  0.33333300  0.33333300  1
  Ti  Ti6  1  0.83333300  0.16666700  0.66666700  1
  Ti  Ti7  1  0.49670600  0.50841100  0.98522800  1
  Ti  Ti8  1  0.16996100  0.82492200  0.34810500  1
  Ti  Ti9  1  0.16996100  0.34810500  0.82697100  1
  Ti  Ti10  1  0.83333300  0.66666700  0.16666700  1
  Ti  Ti11  1  0.49670600  0.98522800  0.50636200  1
  Cu  Cu0  1  0.99673700  0.49919100  0.49867600  1
  Cu  Cu1  1  0.66993000  0.83414200  0.83465700  1
  Cu  Cu2  1  0.33333300  0.16666700  0.16666700  1
  Cu  Cu3  1  0.66993000  0.33120000  0.83414200  1
  Cu  Cu4  1  0.33333300  0.66666700  0.16666700  1
  Cu  Cu5  1  0.99673700  0.00213300  0.49919100  1
  Cu  Cu6  1  0.33333300  0.16666700  0.66666700  1
  Cu  Cu7  1  0.99673700  0.49867600  0.00213300  1
  Cu  Cu8  1  0.66993000  0.83465700  0.33120000  1
  O  O0  1  0.24535600  0.44277900  0.62281200  1
  O  O1  1  0.91860500  0.78348800  0.95918600  1
  O  O2  1  0.58371700  0.11639600  0.29228900  1
  O  O3  1  0.34898900  0.35028400  0.17527900  1
  O  O4  1  0.00445400  0.68333400  0.50282300  1
  O  O5  1  0.68524600  0.01675700  0.84221900  1
  O  O6  1  0.98142000  0.31657700  0.49111500  1
  O  O7  1  0.66221300  0.64999900  0.83051000  1
  O  O8  1  0.31767800  0.98304900  0.15805400  1
  O  O9  1  0.08294900  0.21693800  0.04104500  1
  O  O10  1  0.74806200  0.54984500  0.37414700  1
  O  O11  1  0.42131100  0.89055400  0.71052100  1
  O  O12  1  0.42131100  0.39892400  0.89055400  1
  O  O13  1  0.08294900  0.74201900  0.21693800  1
  O  O14  1  0.74806200  0.07600900  0.54984500  1
  O  O15  1  0.66221300  0.51949100  0.64999900  1
  O  O16  1  0.31767800  0.85889600  0.98304900  1
  O  O17  1  0.98142000  0.19230900  0.31657700  1
  O  O18  1  0.68524600  0.14102500  0.01675700  1
  O  O19  1  0.34898900  0.47443800  0.35028400  1
  O  O20  1  0.00445400  0.81384200  0.68333400  1
  O  O21  1  0.91860500  0.25732400  0.78348800  1
  O  O22  1  0.58371700  0.59131500  0.11639600  1
  O  O23  1  0.24535600  0.93440900  0.44277900  1
  O  O24  1  0.00445400  0.50282300  0.81384200  1
  O  O25  1  0.68524600  0.84221900  0.14102500  1
  O  O26  1  0.34898900  0.17527900  0.47443800  1
  O  O27  1  0.58371700  0.29228900  0.59131500  1
  O  O28  1  0.24535600  0.62281200  0.93440900  1
  O  O29  1  0.91860500  0.95918600  0.25732400  1
  O  O30  1  0.74806200  0.37414700  0.07600900  1
  O  O31  1  0.42131100  0.71052100  0.39892400  1
  O  O32  1  0.08294900  0.04104500  0.74201900  1
  O  O33  1  0.31767800  0.15805400  0.85889600  1
  O  O34  1  0.98142000  0.49111500  0.19230900  1
  O  O35  1  0.66221300  0.83051000  0.51949100  1
loop_
_geom_bond_atom_site_label_1
_geom_bond_atom_site_label_2
_geom_bond_distance
_geom_bond_site_symmetry_2
Gd0 O8 2.566434 1_545
Gd0 O33 2.566437 1_554
Gd0 O16 2.566440 1_544
Gd0 O32 2.575184 1_554
Gd0 O13 2.575191 1_545
Gd0 O9 2.575204 1_555
Gd0 O29 2.577518 1_445
Gd0 O21 2.577525 1_454
Gd0 O1 2.577538 1_444
Gd0 O5 2.589559 1_454
Gd0 O25 2.589562 1_445
Gd0 O18 2.589566 1_455
Gd1 O3 2.566434 1_555
Gd1 O26 2.566439 1_555
Gd1 O19 2.566447 1_555
Gd1 O2 2.575189 1_555
Gd1 O22 2.575195 1_555
Gd1 O27 2.575199 1_555
Gd1 O30 2.577518 1_555
Gd1 O14 2.577525 1_555
Gd1 O10 2.577538 1_555
Gd1 O17 2.589550 1_555
Gd1 O34 2.589558 1_555
Gd1 O6 2.589563 1_555
Cu0 O4 1.958705 1_655
Cu0 O0 1.961580 1_655
Cu0 O6 1.963272 1_555
Cu0 O10 1.966829 1_555
Cu1 O7 1.958705 1_555
Cu1 O11 1.961580 1_555
Cu1 O5 1.963288 1_565
Cu1 O1 1.966829 1_555
Cu2 O3 1.979777 1_555
Cu2 O8 1.979793 1_545
Cu2 O9 1.982166 1_555
Cu2 O2 1.982166 1_555
Cu3 O15 1.958710 1_555
Cu3 O12 1.961580 1_555
Cu3 O18 1.963277 1_556
Cu3 O21 1.966835 1_555
Cu4 O19 1.979777 1_555
Cu4 O16 1.979782 1_554
Cu4 O22 1.982172 1_555
Cu4 O13 1.982172 1_555
Cu5 O20 1.958710 1_645
Cu5 O23 1.961580 1_645
Cu5 O17 1.963278 1_555
Cu5 O14 1.966835 1_555
Cu6 O33 1.979772 1_555
Cu6 O26 1.979777 1_555
Cu6 O32 1.982167 1_555
Cu6 O27 1.982167 1_555
Cu7 O24 1.958715 1_654
Cu7 O28 1.961580 1_654
Cu7 O34 1.963283 1_555
Cu7 O30 1.966830 1_555
Cu8 O35 1.958715 1_555
Cu8 O31 1.961580 1_555
Cu8 O25 1.963267 1_555
Cu8 O29 1.966830 1_555
O0 Ti9 1.922812 1_555
O0 Ti1 1.926908 1_555
O1 Ti10 1.972133 1_556
O1 Ti2 2.044466 1_655
O2 Ti0 1.978139 1_555
O2 Ti11 2.043906 1_545
O3 Ti5 1.941806 1_555
O3 Ti7 2.083340 1_554
O4 Ti8 1.891504 1_555
O4 Ti3 1.977863 1_455
O5 Ti6 1.972828 1_555
O5 Ti4 2.006963 1_556
O6 Ti6 1.972828 1_555
O6 Ti5 2.006978 1_655
O7 Ti7 1.891504 1_555
O7 Ti3 1.977847 1_555
O8 Ti4 1.941806 1_565
O8 Ti8 2.083340 1_555
O9 Ti0 1.978139 1_455
O9 Ti9 2.043915 1_554
O10 Ti10 1.972124 1_555
O10 Ti1 2.044466 1_555
O11 Ti11 1.922812 1_555
O11 Ti2 1.926908 1_555
O12 Ti7 1.922830 1_555
O12 Ti9 1.926913 1_555
O13 Ti10 1.978145 1_455
O13 Ti8 2.043883 1_555
O14 Ti6 1.972124 1_555
O14 Ti11 2.044466 1_545
O15 Ti1 1.891499 1_555
O15 Ti3 1.977855 1_555
O16 Ti4 1.941815 1_566
O16 Ti2 2.083346 1_555
O17 Ti0 1.972828 1_555
O17 Ti5 2.006962 1_655
O18 Ti0 1.972828 1_555
O18 Ti4 2.006971 1_555
O19 Ti5 1.941824 1_555
O19 Ti1 2.083340 1_555
O20 Ti2 1.891499 1_555
O20 Ti3 1.977845 1_455
O21 Ti6 1.972108 1_555
O21 Ti9 2.044466 1_655
O22 Ti10 1.978145 1_555
O22 Ti7 2.043898 1_554
O23 Ti8 1.922830 1_555
O23 Ti11 1.926913 1_555
O24 Ti9 1.891508 1_555
O24 Ti3 1.977855 1_455
O25 Ti10 1.972828 1_555
O25 Ti4 2.006966 1_565
O26 Ti5 1.941814 1_555
O26 Ti11 2.083340 1_545
O27 Ti6 1.978140 1_555
O27 Ti1 2.043908 1_555
O28 Ti2 1.922812 1_555
O28 Ti7 1.926908 1_555
O29 Ti0 1.972135 1_565
O29 Ti8 2.044466 1_655
O30 Ti0 1.972124 1_555
O30 Ti7 2.044466 1_554
O31 Ti1 1.922812 1_555
O31 Ti8 1.926908 1_555
O32 Ti6 1.978140 1_455
O32 Ti2 2.043920 1_545
O33 Ti4 1.941810 1_556
O33 Ti9 2.083336 1_555
O34 Ti10 1.972828 1_555
O34 Ti5 2.006971 1_655
O35 Ti11 1.891508 1_555
O35 Ti3 1.977850 1_555
