# generated using pymatgen
data_CuAg64Hg3(As4S15)4
_symmetry_space_group_name_H-M   'P 1'
_cell_length_a   15.22970445
_cell_length_b   15.22640711
_cell_length_c   15.98364104
_cell_angle_alpha   90.52567510
_cell_angle_beta   90.74519006
_cell_angle_gamma   60.13851233
_symmetry_Int_Tables_number   1
_chemical_formula_structural   CuAg64Hg3(As4S15)4
_chemical_formula_sum   'Cu1 Ag64 Hg3 As16 S60'
_cell_volume   3214.11119907
_cell_formula_units_Z   1
loop_
 _symmetry_equiv_pos_site_id
 _symmetry_equiv_pos_as_xyz
  1  'x, y, z'
loop_
 _atom_site_type_symbol
 _atom_site_label
 _atom_site_symmetry_multiplicity
 _atom_site_fract_x
 _atom_site_fract_y
 _atom_site_fract_z
 _atom_site_occupancy
  Cu  Cu0  1  0.01888472  0.23124339  0.49809188  1
  Ag  Ag0  1  0.65819648  0.48934651  0.50171775  1
  Ag  Ag1  1  0.51183215  0.34310791  0.49796806  1
  Ag  Ag2  1  0.92364821  0.41419383  0.90969675  1
  Ag  Ag3  1  0.58299917  0.07789858  0.08924348  1
  Ag  Ag4  1  0.95643520  0.60605586  0.91619560  1
  Ag  Ag5  1  0.39398200  0.04373012  0.08386688  1
  Ag  Ag6  1  0.48612363  0.74640515  0.30513650  1
  Ag  Ag7  1  0.25328670  0.51427942  0.69488875  1
  Ag  Ag8  1  0.10972062  0.38032098  0.50400028  1
  Ag  Ag9  1  0.61302006  0.88541858  0.49960230  1
  Ag  Ag10  1  0.56147842  0.70922886  0.69597336  1
  Ag  Ag11  1  0.29077561  0.43804906  0.30475535  1
  Ag  Ag12  1  0.75421329  0.71654044  0.69706119  1
  Ag  Ag13  1  0.28164047  0.24656871  0.30295628  1
  Ag  Ag14  1  0.61352712  0.53818873  0.08567457  1
  Ag  Ag15  1  0.46161278  0.38741841  0.91457711  1
  Ag  Ag16  1  0.10914411  0.04343641  0.08825038  1
  Ag  Ag17  1  0.95898829  0.88989674  0.91298240  1
  Ag  Ag18  1  0.43074849  0.92414385  0.91612939  1
  Ag  Ag19  1  0.07570345  0.56856674  0.08370953  1
  Ag  Ag20  1  0.25654640  0.00406511  0.71356362  1
  Ag  Ag21  1  0.99953677  0.74110619  0.28409324  1
  Ag  Ag22  1  0.79111477  0.24430510  0.30388542  1
  Ag  Ag23  1  0.75866530  0.21097184  0.69871769  1
  Ag  Ag24  1  0.23733053  0.76463879  0.50099517  1
  Ag  Ag25  1  0.80484471  0.69133647  0.49972649  1
  Ag  Ag26  1  0.30107175  0.19669291  0.49836673  1
  Ag  Ag27  1  0.59093976  0.35434889  0.08385933  1
  Ag  Ag28  1  0.64514669  0.41015264  0.91658448  1
  Ag  Ag29  1  0.72751367  0.27546178  0.49976382  1
  Ag  Ag30  1  0.92272826  0.09026328  0.49587445  1
  Ag  Ag31  1  0.28954137  0.74427752  0.30775119  1
  Ag  Ag32  1  0.25570641  0.71037253  0.69262892  1
  Ag  Ag33  1  0.28281592  0.95235003  0.28965021  1
  Ag  Ag34  1  0.04816733  0.71565934  0.71012314  1
  Ag  Ag35  1  0.42978103  0.57042418  0.50004404  1
  Ag  Ag36  1  0.42898495  0.67050084  0.90414894  1
  Ag  Ag37  1  0.32957918  0.57086755  0.09553558  1
  Ag  Ag38  1  0.25103836  0.21205725  0.69219779  1
  Ag  Ag39  1  0.78552184  0.74669535  0.30406712  1
  Ag  Ag40  1  0.06148577  0.20776856  0.68612591  1
  Ag  Ag41  1  0.79424961  0.93542961  0.30787054  1
  Ag  Ag42  1  0.79082186  0.44287426  0.29691773  1
  Ag  Ag43  1  0.55262278  0.21285800  0.70757379  1
  Ag  Ag44  1  0.11566430  0.28693831  0.09779775  1
  Ag  Ag45  1  0.71262197  0.88373892  0.90279981  1
  Ag  Ag46  1  0.38053312  0.98041929  0.50073604  1
  Ag  Ag47  1  0.02254970  0.61271655  0.49977733  1
  Ag  Ag48  1  0.44056441  0.11595957  0.91611551  1
  Ag  Ag49  1  0.88452111  0.55739638  0.08404439  1
  Ag  Ag50  1  0.98612993  0.24576836  0.31323930  1
  Ag  Ag51  1  0.75196707  0.01736967  0.69275677  1
  Ag  Ag52  1  0.14735264  0.99237860  0.50366776  1
  Ag  Ag53  1  0.01580614  0.85508184  0.49873955  1
  Ag  Ag54  1  0.59495326  0.80830109  0.09346824  1
  Ag  Ag55  1  0.19196613  0.40385508  0.90610388  1
  Ag  Ag56  1  0.93099246  0.16625978  0.90307180  1
  Ag  Ag57  1  0.83440558  0.07018825  0.09620587  1
  Ag  Ag58  1  0.88861761  0.46755121  0.49586108  1
  Ag  Ag59  1  0.52186409  0.11258280  0.50157127  1
  Ag  Ag60  1  0.75888744  0.50431758  0.71009121  1
  Ag  Ag61  1  0.49463708  0.24278870  0.29057029  1
  Ag  Ag62  1  0.08878888  0.85228297  0.08485157  1
  Ag  Ag63  1  0.14804374  0.91189377  0.91493746  1
  Hg  Hg0  1  0.77159049  0.98083272  0.50094833  1
  Hg  Hg1  1  0.51679469  0.73449273  0.49957736  1
  Hg  Hg2  1  0.26453902  0.48179074  0.50079065  1
  As  As0  1  0.86202813  0.30662337  0.07773459  1
  As  As1  1  0.69350467  0.13905080  0.92490891  1
  As  As2  1  0.51100529  0.98794660  0.28888882  1
  As  As3  1  0.01174271  0.48875548  0.71164597  1
  As  As4  1  0.17569279  0.16237831  0.92242560  1
  As  As5  1  0.83804707  0.82345169  0.07531707  1
  As  As6  1  0.52896046  0.47191369  0.28939958  1
  As  As7  1  0.52898716  0.47081945  0.71067425  1
  As  As8  1  0.67992990  0.65546647  0.92560806  1
  As  As9  1  0.34388899  0.32067101  0.07464409  1
  As  As10  1  0.35620601  0.80326233  0.07591924  1
  As  As11  1  0.19718430  0.64344697  0.92405786  1
  As  As12  1  0.01357208  0.48764181  0.28821973  1
  As  As13  1  0.51178739  0.98693914  0.71140399  1
  As  As14  1  0.02524637  0.97505442  0.71153754  1
  As  As15  1  0.02621828  0.97347305  0.28774063  1
  S  S0  1  0.29031822  0.96205897  0.13294242  1
  S  S1  1  0.03790993  0.70989443  0.86718599  1
  S  S2  1  0.87378001  0.05640405  0.35440796  1
  S  S3  1  0.94342349  0.12692266  0.64438076  1
  S  S4  1  0.26384691  0.74923845  0.14931889  1
  S  S5  1  0.25025970  0.73667889  0.85069480  1
  S  S6  1  0.24975390  0.00023406  0.87123561  1
  S  S7  1  0.00021120  0.74989359  0.12727737  1
  S  S8  1  0.55743461  0.95551736  0.99808826  1
  S  S9  1  0.04463775  0.44190107  0.00162115  1
  S  S10  1  0.17653736  0.90524883  0.64373584  1
  S  S11  1  0.09521416  0.82262410  0.35632688  1
  S  S12  1  0.00735892  0.22338133  0.15570148  1
  S  S13  1  0.77665910  0.99327168  0.84833861  1
  S  S14  1  0.60798397  0.54788490  0.35372035  1
  S  S15  1  0.45223314  0.39268236  0.64575262  1
  S  S16  1  0.68415741  0.64189239  0.56669715  1
  S  S17  1  0.35838379  0.31464568  0.43428641  1
  S  S18  1  0.98636580  0.01442037  0.99999110  1
  S  S19  1  0.43101371  0.91333171  0.64603651  1
  S  S20  1  0.08739260  0.56818250  0.35365872  1
  S  S21  1  0.26705434  0.21992727  0.85267316  1
  S  S22  1  0.78031092  0.73215206  0.14501235  1
  S  S23  1  0.03192845  0.23600222  0.84195665  1
  S  S24  1  0.76390816  0.96804103  0.15404972  1
  S  S25  1  0.59473310  0.83484045  0.35445427  1
  S  S26  1  0.16471590  0.40536694  0.64618418  1
  S  S27  1  0.79136934  0.46347005  0.13792814  1
  S  S28  1  0.53596905  0.20903908  0.86502097  1
  S  S29  1  0.17236309  0.15140174  0.55589697  1
  S  S30  1  0.85880750  0.81255966  0.43546738  1
  S  S31  1  0.93362549  0.41341549  0.64482889  1
  S  S32  1  0.58616058  0.06667517  0.35557727  1
  S  S33  1  0.76729351  0.25009991  0.14460300  1
  S  S34  1  0.74956775  0.23350301  0.85711969  1
  S  S35  1  0.37657423  0.55337241  0.35560864  1
  S  S36  1  0.44654116  0.62366365  0.64462042  1
  S  S37  1  0.86227092  0.55759013  0.35633951  1
  S  S38  1  0.44164378  0.13828142  0.64362274  1
  S  S39  1  0.60019197  0.32064427  0.35761623  1
  S  S40  1  0.67970041  0.40038898  0.64242865  1
  S  S41  1  0.36007779  0.05741055  0.35669613  1
  S  S42  1  0.94260002  0.63960943  0.64272688  1
  S  S43  1  0.34918576  0.82391449  0.43342085  1
  S  S44  1  0.17773506  0.65017237  0.56617004  1
  S  S45  1  0.53253703  0.74190805  0.85046317  1
  S  S46  1  0.25815267  0.46745866  0.14990059  1
  S  S47  1  0.74284944  0.49852945  0.86643801  1
  S  S48  1  0.50136264  0.25746764  0.13386071  1
  S  S49  1  0.48251868  0.51759813  0.00017751  1
  S  S50  1  0.77741416  0.70573145  0.85523204  1
  S  S51  1  0.29446866  0.22237475  0.14492381  1
  S  S52  1  0.10620361  0.04663335  0.35452543  1
  S  S53  1  0.95271628  0.89358357  0.64552570  1
  S  S54  1  0.66392021  0.90431317  0.64443435  1
  S  S55  1  0.09527562  0.33615723  0.35594212  1
  S  S56  1  0.86547889  0.31005465  0.44114805  1
  S  S57  1  0.67881980  0.14894210  0.56567282  1
  S  S58  1  0.50582724  0.72226049  0.14842291  1
  S  S59  1  0.27730269  0.49426038  0.85151886  1
loop_
_geom_bond_atom_site_label_1
_geom_bond_atom_site_label_2
_geom_bond_distance
_geom_bond_site_symmetry_2
Cu0 S56 2.213530 1_455
Cu0 S29 2.220336 1_555
Ag0 S14 2.507570 1_555
Ag0 S40 2.568124 1_555
Ag0 S16 2.736721 1_555
Ag0 S56 3.131247 1_555
Ag1 S15 2.512790 1_555
Ag1 S39 2.562522 1_555
Ag1 S17 2.761139 1_555
Ag1 S57 2.979810 1_555
Ag2 S47 2.480850 1_555
Ag2 S9 2.534642 1_656
Ag2 S23 2.605820 1_655
Ag3 S48 2.476345 1_555
Ag3 S8 2.530744 1_544
Ag3 S24 2.613474 1_545
Ag4 S50 2.554178 1_555
Ag4 S9 2.566644 1_656
Ag4 S1 2.579693 1_655
Ag5 S51 2.555953 1_555
Ag5 S8 2.570229 1_544
Ag5 S0 2.580584 1_545
Ag6 S58 2.528298 1_555
Ag6 S25 2.708356 1_555
Ag6 S43 2.749988 1_555
Ag6 S14 2.757458 1_555
Ag7 S59 2.524572 1_555
Ag7 S26 2.711506 1_555
Ag7 S44 2.735676 1_555
Ag7 S15 2.770197 1_555
Ag8 S55 2.491090 1_555
Ag8 S26 2.502876 1_555
Ag9 S54 2.491154 1_555
Ag9 S25 2.493395 1_555
Ag10 S45 2.515298 1_555
Ag10 S16 2.639238 1_555
Ag10 S36 2.765736 1_555
Ag10 S19 2.845761 1_555
Ag11 S46 2.518036 1_555
Ag11 S17 2.639429 1_555
Ag11 S35 2.771745 1_555
Ag11 S20 2.837996 1_555
Ag12 S50 2.543610 1_555
Ag12 S54 2.621431 1_555
Ag12 S42 2.656575 1_555
Ag12 S16 2.806840 1_555
Ag13 S51 2.545253 1_555
Ag13 S55 2.611458 1_555
Ag13 S41 2.655725 1_555
Ag13 S17 2.819499 1_555
Ag14 S27 2.493567 1_555
Ag14 S49 2.547706 1_555
Ag14 S58 2.639127 1_555
Ag15 S28 2.491556 1_555
Ag15 S49 2.543565 1_556
Ag15 S59 2.636428 1_555
Ag16 S0 2.493859 1_545
Ag16 S18 2.534629 1_454
Ag16 S12 2.613851 1_555
Ag17 S1 2.489579 1_655
Ag17 S18 2.535097 1_565
Ag17 S13 2.618896 1_555
Ag18 S6 2.497806 1_565
Ag18 S8 2.550971 1_555
Ag18 S45 2.628624 1_555
Ag19 S7 2.500838 1_555
Ag19 S9 2.551706 1_555
Ag19 S46 2.627522 1_555
Ag20 S6 2.526037 1_555
Ag20 S19 2.554497 1_545
Ag20 S10 2.598819 1_545
Ag21 S7 2.511710 1_655
Ag21 S20 2.542859 1_655
Ag21 S11 2.593819 1_655
Ag21 S30 3.065263 1_555
Ag22 S33 2.563064 1_555
Ag22 S2 2.617599 1_555
Ag22 S39 2.687815 1_555
Ag22 S56 2.850000 1_555
Ag23 S34 2.548129 1_555
Ag23 S3 2.601322 1_555
Ag23 S40 2.671988 1_555
Ag23 S57 2.816477 1_555
Ag24 S43 2.545585 1_555
Ag24 S44 2.565134 1_555
Ag24 S10 2.938999 1_555
Ag24 S11 2.969056 1_555
Ag25 S16 2.556350 1_555
Ag25 S30 2.589329 1_555
Ag25 S37 2.890948 1_555
Ag25 S42 2.917007 1_555
Ag26 S29 2.562840 1_555
Ag26 S17 2.579650 1_555
Ag26 S41 2.915436 1_555
Ag26 S38 2.962639 1_555
Ag27 S33 2.528027 1_555
Ag27 S49 2.571102 1_555
Ag27 S48 2.594215 1_555
Ag28 S34 2.529816 1_555
Ag28 S49 2.570425 1_556
Ag28 S47 2.590769 1_555
Ag29 S56 2.594703 1_555
Ag29 S57 2.617467 1_555
Ag29 S40 2.816493 1_555
Ag29 S39 2.825085 1_555
Ag30 S3 2.485288 1_555
Ag30 S2 2.500360 1_555
Ag30 S56 3.139028 1_555
Ag31 S4 2.553391 1_555
Ag31 S35 2.639919 1_555
Ag31 S11 2.704043 1_555
Ag31 S43 2.708303 1_555
Ag32 S5 2.550325 1_555
Ag32 S36 2.645217 1_555
Ag32 S44 2.706171 1_555
Ag32 S10 2.706380 1_555
Ag33 S0 2.517895 1_555
Ag33 S52 2.563391 1_565
Ag33 S41 2.627199 1_565
Ag33 S43 2.860145 1_555
Ag34 S1 2.522360 1_555
Ag34 S53 2.570852 1_455
Ag34 S42 2.621490 1_455
Ag34 S44 2.880771 1_555
Ag35 S35 2.490690 1_555
Ag35 S36 2.493731 1_555
Ag36 S45 2.483038 1_555
Ag36 S5 2.525530 1_555
Ag36 S49 2.565879 1_556
Ag37 S46 2.484533 1_555
Ag37 S4 2.527764 1_555
Ag37 S49 2.567995 1_555
Ag38 S21 2.580731 1_555
Ag38 S38 2.662086 1_555
Ag38 S26 2.663478 1_555
Ag38 S29 2.834086 1_555
Ag39 S22 2.553510 1_555
Ag39 S37 2.649988 1_555
Ag39 S25 2.655255 1_555
Ag39 S30 2.770843 1_555
Ag40 S23 2.531413 1_555
Ag40 S29 2.556617 1_555
Ag40 S3 2.711344 1_455
Ag40 S31 2.822234 1_455
Ag41 S24 2.503847 1_555
Ag41 S30 2.610050 1_555
Ag41 S2 2.754361 1_565
Ag41 S32 2.889065 1_565
Ag42 S27 2.563992 1_555
Ag42 S14 2.596180 1_555
Ag42 S37 2.640555 1_555
Ag42 S56 2.902556 1_555
Ag43 S28 2.536702 1_555
Ag43 S15 2.579273 1_555
Ag43 S38 2.652535 1_555
Ag43 S57 2.827635 1_555
Ag44 S12 2.481839 1_555
Ag44 S51 2.498740 1_555
Ag44 S9 2.565595 1_555
Ag45 S13 2.481706 1_555
Ag45 S50 2.493287 1_555
Ag45 S8 2.567284 1_555
Ag45 As5 3.202862 1_556
Ag46 S19 2.498651 1_555
Ag46 S41 2.537525 1_565
Ag46 S43 2.852505 1_555
Ag46 S29 3.068845 1_565
Ag47 S20 2.500746 1_555
Ag47 S42 2.535647 1_455
Ag47 S44 2.881510 1_555
Ag47 S30 2.994807 1_455
Ag48 S21 2.512217 1_555
Ag48 S8 2.553594 1_545
Ag48 S28 2.624788 1_555
Ag49 S22 2.517168 1_555
Ag49 S9 2.558379 1_655
Ag49 S27 2.621941 1_555
Ag50 S12 2.541037 1_655
Ag50 S56 2.604642 1_555
Ag50 S55 2.711934 1_655
Ag50 S52 2.730758 1_655
Ag51 S13 2.512978 1_545
Ag51 S57 2.678423 1_555
Ag51 S54 2.757777 1_545
Ag51 S53 2.786641 1_545
Ag52 S52 2.497920 1_565
Ag52 S10 2.532045 1_555
Ag52 S29 2.752819 1_565
Ag52 S43 3.078026 1_555
Ag53 S53 2.498783 1_455
Ag53 S11 2.518730 1_555
Ag53 S30 2.936965 1_455
Ag53 S44 3.050972 1_555
Ag54 S58 2.480576 1_555
Ag54 S8 2.537695 1_554
Ag54 S22 2.586455 1_555
Ag55 S59 2.485607 1_555
Ag55 S9 2.545474 1_556
Ag55 S21 2.583125 1_555
Ag56 S23 2.475610 1_655
Ag56 S34 2.523104 1_555
Ag56 S18 2.558583 1_555
Ag57 S24 2.478247 1_545
Ag57 S33 2.518117 1_555
Ag57 S18 2.560031 1_554
Ag58 S31 2.499922 1_555
Ag58 S37 2.549268 1_555
Ag58 S56 2.726704 1_555
Ag58 S16 3.135297 1_555
Ag59 S32 2.498133 1_555
Ag59 S38 2.526006 1_555
Ag59 S57 2.883388 1_555
Ag59 S17 3.030590 1_555
Ag60 S47 2.520662 1_555
Ag60 S31 2.542372 1_555
Ag60 S40 2.638815 1_555
Ag60 S16 2.929606 1_555
Ag61 S48 2.524710 1_555
Ag61 S32 2.550430 1_555
Ag61 S39 2.639623 1_555
Ag61 S17 2.932031 1_555
Ag62 S4 2.534596 1_555
Ag62 S18 2.557220 1_464
Ag62 S7 2.616821 1_555
Ag63 S5 2.539875 1_555
Ag63 S18 2.562904 1_465
Ag63 S6 2.610924 1_565
Hg0 S57 2.450835 1_565
Hg0 S30 2.454077 1_555
Hg1 S43 2.446045 1_555
Hg1 S16 2.452265 1_555
Hg2 S17 2.453048 1_555
Hg2 S44 2.454504 1_555
As0 S27 2.283152 1_555
As0 S12 2.285175 1_655
As0 S33 2.293072 1_555
As1 S13 2.284710 1_545
As1 S28 2.284976 1_555
As1 S34 2.290591 1_555
As2 S32 2.279134 1_565
As2 S41 2.280261 1_565
As2 S25 2.282288 1_555
As3 S31 2.274966 1_455
As3 S42 2.281668 1_455
As3 S26 2.286471 1_555
As4 S23 2.283386 1_555
As4 S21 2.284571 1_555
As4 S6 2.291487 1_555
As5 S24 2.283900 1_555
As5 S22 2.284261 1_555
As5 S7 2.291911 1_655
As6 S14 2.275044 1_555
As6 S39 2.279906 1_555
As6 S35 2.284238 1_555
As7 S15 2.278030 1_555
As7 S40 2.280543 1_555
As7 S36 2.282130 1_555
As8 S47 2.285760 1_555
As8 S45 2.287054 1_555
As8 S50 2.290428 1_555
As9 S46 2.287501 1_555
As9 S48 2.287588 1_555
As9 S51 2.289778 1_555
As10 S58 2.283736 1_555
As10 S4 2.290067 1_555
As10 S0 2.291540 1_555
As11 S59 2.285070 1_555
As11 S5 2.289432 1_555
As11 S1 2.291196 1_555
As12 S20 2.276126 1_555
As12 S55 2.278810 1_555
As12 S37 2.286829 1_455
As13 S19 2.275763 1_555
As13 S38 2.278046 1_565
As13 S54 2.287769 1_555
As14 S53 2.276508 1_455
As14 S3 2.278935 1_465
As14 S10 2.284336 1_555
As15 S52 2.271554 1_565
As15 S11 2.279132 1_555
As15 S2 2.289136 1_465
