# generated using pymatgen
data_Li7Mn2(CoO4)3
_symmetry_space_group_name_H-M   'P 1'
_cell_length_a   14.70288323
_cell_length_b   14.70288323
_cell_length_c   5.14788316
_cell_angle_alpha   80.39484690
_cell_angle_beta   80.39484690
_cell_angle_gamma   11.32164056
_symmetry_Int_Tables_number   1
_chemical_formula_structural   Li7Mn2(CoO4)3
_chemical_formula_sum   'Li7 Mn2 Co3 O12'
_cell_volume   215.37632764
_cell_formula_units_Z   1
loop_
 _symmetry_equiv_pos_site_id
 _symmetry_equiv_pos_as_xyz
  1  'x, y, z'
loop_
 _atom_site_type_symbol
 _atom_site_label
 _atom_site_symmetry_multiplicity
 _atom_site_fract_x
 _atom_site_fract_y
 _atom_site_fract_z
 _atom_site_occupancy
  Li  Li0  1  0.57903700  0.57903700  0.57775900  1
  Li  Li1  1  0.42096300  0.42096300  0.42224100  1
  Li  Li2  1  0.25069300  0.25069300  0.24055900  1
  Li  Li3  1  0.07702300  0.07702300  0.08225700  1
  Li  Li4  1  0.92297700  0.92297700  0.91774300  1
  Li  Li5  1  0.74930700  0.74930700  0.75944100  1
  Li  Li6  1  0.50000000  0.50000000  0.00000000  1
  Mn  Mn0  1  0.16561800  0.16561800  0.66468800  1
  Mn  Mn1  1  0.83438200  0.83438200  0.33531200  1
  Co  Co0  1  0.00000000  0.00000000  0.50000000  1
  Co  Co1  1  0.66559700  0.66559700  0.16411700  1
  Co  Co2  1  0.33440300  0.33440300  0.83588300  1
  O  O0  1  0.62798000  0.62798000  0.84349000  1
  O  O1  1  0.46340700  0.46340700  0.68563900  1
  O  O2  1  0.29624000  0.29624000  0.51221000  1
  O  O3  1  0.12959400  0.12959400  0.38260100  1
  O  O4  1  0.96315600  0.96315600  0.24692200  1
  O  O5  1  0.79577900  0.79577900  0.05639800  1
  O  O6  1  0.53659300  0.53659300  0.31436100  1
  O  O7  1  0.37202000  0.37202000  0.15651000  1
  O  O8  1  0.20422100  0.20422100  0.94360200  1
  O  O9  1  0.03684400  0.03684400  0.75307800  1
  O  O10  1  0.87040600  0.87040600  0.61739900  1
  O  O11  1  0.70376000  0.70376000  0.48779000  1
loop_
_geom_bond_atom_site_label_1
_geom_bond_atom_site_label_2
_geom_bond_distance
_geom_bond_site_symmetry_2
Li0 O6 1.986438 1_555
Li0 O9 2.017072 1_655
Li0 O9 2.017072 1_565
Li0 O0 2.139968 1_555
Li0 O3 2.191549 1_655
Li0 O3 2.191549 1_565
Li1 O1 1.986438 1_555
Li1 O4 2.017072 1_455
Li1 O4 2.017072 1_545
Li1 O7 2.139968 1_555
Li1 O10 2.191549 1_455
Li1 O10 2.191549 1_545
Li2 O5 2.079246 1_545
Li2 O5 2.079246 1_455
Li2 O2 2.087350 1_555
Li2 O8 2.209828 1_554
Li2 O11 2.241229 1_455
Li2 O11 2.241229 1_545
Li3 O6 2.111065 1_545
Li3 O6 2.111065 1_455
Li3 O9 2.218574 1_554
Li3 O0 2.285373 1_544
Li3 O0 2.285373 1_454
Li3 O3 2.356840 1_555
Li4 O1 2.111065 1_655
Li4 O1 2.111065 1_565
Li4 O4 2.218574 1_556
Li4 O7 2.285373 1_566
Li4 O7 2.285373 1_656
Li4 O10 2.356840 1_555
Li5 O8 2.079246 1_655
Li5 O8 2.079246 1_565
Li5 O11 2.087350 1_555
Li5 O5 2.209828 1_556
Li5 O2 2.241229 1_655
Li5 O2 2.241229 1_565
Li6 O6 2.084850 1_555
Li6 O1 2.084850 1_554
Li6 O9 2.102828 1_654
Li6 O9 2.102828 1_564
Li6 O4 2.102828 1_455
Li6 O4 2.102828 1_545
Mn0 O3 1.932179 1_555
Mn0 O0 1.955406 1_455
Mn0 O0 1.955406 1_545
Mn0 O11 1.958950 1_455
Mn0 O11 1.958950 1_545
Mn0 O8 1.970155 1_555
Mn1 O10 1.932179 1_555
Mn1 O7 1.955406 1_655
Mn1 O7 1.955406 1_565
Mn1 O2 1.958950 1_655
Mn1 O2 1.958950 1_565
Mn1 O5 1.970155 1_555
Co0 O9 1.825037 1_555
Co0 O4 1.825037 1_445
Co0 O6 1.954488 1_455
Co0 O6 1.954488 1_545
Co0 O1 1.954488 1_455
Co0 O1 1.954488 1_545
Co1 O3 2.020123 1_565
Co1 O3 2.020123 1_655
Co1 O8 2.058913 1_654
Co1 O8 2.058913 1_564
Co1 O0 2.131966 1_554
Co1 O11 2.155791 1_555
Co2 O10 2.020123 1_545
Co2 O10 2.020123 1_455
Co2 O5 2.058913 1_546
Co2 O5 2.058913 1_456
Co2 O7 2.131966 1_556
Co2 O2 2.155791 1_555
