# generated using pymatgen
data_Tb4Ge6Ir7
_symmetry_space_group_name_H-M   'P 1'
_cell_length_a   7.25154791
_cell_length_b   7.25154791
_cell_length_c   7.25154791
_cell_angle_alpha   109.47122063
_cell_angle_beta   109.47122063
_cell_angle_gamma   109.47122063
_symmetry_Int_Tables_number   1
_chemical_formula_structural   Tb4Ge6Ir7
_chemical_formula_sum   'Tb4 Ge6 Ir7'
_cell_volume   293.54201550
_cell_formula_units_Z   1
loop_
 _symmetry_equiv_pos_site_id
 _symmetry_equiv_pos_as_xyz
  1  'x, y, z'
loop_
 _atom_site_type_symbol
 _atom_site_label
 _atom_site_symmetry_multiplicity
 _atom_site_fract_x
 _atom_site_fract_y
 _atom_site_fract_z
 _atom_site_occupancy
  Tb  Tb0  1  -0.00000000  -0.00000000  0.50000000  1
  Tb  Tb1  1  -0.00000000  0.50000000  -0.00000000  1
  Tb  Tb2  1  0.50000000  -0.00000000  -0.00000000  1
  Tb  Tb3  1  0.50000000  0.50000000  0.50000000  1
  Ge  Ge0  1  0.67982272  0.67982272  -0.00000000  1
  Ge  Ge1  1  0.32017728  0.00000000  0.32017728  1
  Ge  Ge2  1  0.00000000  0.32017728  0.32017728  1
  Ge  Ge3  1  0.32017728  0.32017728  0.00000000  1
  Ge  Ge4  1  0.67982272  -0.00000000  0.67982272  1
  Ge  Ge5  1  -0.00000000  0.67982272  0.67982272  1
  Ir  Ir0  1  0.75000000  0.25000000  0.50000000  1
  Ir  Ir1  1  0.75000000  0.50000000  0.25000000  1
  Ir  Ir2  1  0.50000000  0.25000000  0.75000000  1
  Ir  Ir3  1  0.25000000  0.50000000  0.75000000  1
  Ir  Ir4  1  0.25000000  0.75000000  0.50000000  1
  Ir  Ir5  1  0.50000000  0.75000000  0.25000000  1
  Ir  Ir6  1  -0.00000000  -0.00000000  -0.00000000  1
loop_
_geom_bond_atom_site_label_1
_geom_bond_atom_site_label_2
_geom_bond_distance
_geom_bond_site_symmetry_2
Ge0 Ir2 2.578619 1_554
Ge0 Ir3 2.578619 1_554
Ge0 Ir5 2.578619 1_555
Ge0 Ir1 2.578619 1_555
Ge0 Ir6 2.680962 1_665
Ge0 Tb3 3.018187 1_554
Ge0 Tb0 3.018187 1_665
Ge0 Tb2 3.018187 1_565
Ge0 Tb1 3.018187 1_655
Ge1 Ir2 2.578619 1_555
Ge1 Ir4 2.578619 1_545
Ge1 Ir5 2.578619 1_545
Ge1 Ir0 2.578619 1_555
Ge1 Ir6 2.680962 1_555
Ge1 Tb1 3.018187 1_545
Ge1 Tb0 3.018187 1_555
Ge1 Tb3 3.018187 1_555
Ge1 Tb2 3.018187 1_555
Ge2 Ir3 2.578619 1_555
Ge2 Ir1 2.578619 1_455
Ge2 Ir4 2.578619 1_555
Ge2 Ir0 2.578619 1_455
Ge2 Ir6 2.680962 1_555
Ge2 Tb0 3.018187 1_555
Ge2 Tb3 3.018187 1_555
Ge2 Tb1 3.018187 1_555
Ge2 Tb2 3.018187 1_455
Ge3 Ir2 2.578619 1_554
Ge3 Ir3 2.578619 1_554
Ge3 Ir5 2.578619 1_555
Ge3 Ir1 2.578619 1_555
Ge3 Ir6 2.680962 1_555
Ge3 Tb0 3.018187 1_554
Ge3 Tb3 3.018187 1_555
Ge3 Tb1 3.018187 1_555
Ge3 Tb2 3.018187 1_555
Ge4 Ir0 2.578619 1_555
Ge4 Ir5 2.578619 1_545
Ge4 Ir2 2.578619 1_555
Ge4 Ir4 2.578619 1_545
Ge4 Ir6 2.680962 1_656
Ge4 Tb2 3.018187 1_556
Ge4 Tb3 3.018187 1_545
Ge4 Tb0 3.018187 1_655
Ge4 Tb1 3.018187 1_656
Ge5 Ir3 2.578619 1_555
Ge5 Ir1 2.578619 1_455
Ge5 Ir4 2.578619 1_555
Ge5 Ir0 2.578619 1_455
Ge5 Ir6 2.680962 1_566
Ge5 Tb1 3.018187 1_556
Ge5 Tb3 3.018187 1_455
Ge5 Tb2 3.018187 1_566
Ge5 Tb0 3.018187 1_565
Ir0 Tb0 2.960432 1_655
Ir0 Tb1 2.960432 1_656
Ir0 Tb2 2.960432 1_555
Ir0 Tb3 2.960432 1_555
Ir1 Tb1 2.960432 1_655
Ir1 Tb3 2.960432 1_555
Ir1 Tb0 2.960432 1_665
Ir1 Tb2 2.960432 1_555
Ir2 Tb2 2.960432 1_556
Ir2 Tb3 2.960432 1_555
Ir2 Tb0 2.960432 1_555
Ir2 Tb1 2.960432 1_656
Ir3 Tb1 2.960432 1_556
Ir3 Tb3 2.960432 1_555
Ir3 Tb0 2.960432 1_555
Ir3 Tb2 2.960432 1_566
Ir4 Tb0 2.960432 1_565
Ir4 Tb2 2.960432 1_566
Ir4 Tb1 2.960432 1_555
Ir4 Tb3 2.960432 1_555
Ir5 Tb2 2.960432 1_565
Ir5 Tb3 2.960432 1_555
Ir5 Tb1 2.960432 1_555
Ir5 Tb0 2.960432 1_665
