# generated using pymatgen
data_NdNiAs
_symmetry_space_group_name_H-M   'P 1'
_cell_length_a   4.09563293
_cell_length_b   4.09563293
_cell_length_c   4.06656939
_cell_angle_alpha   90.00000000
_cell_angle_beta   90.00000000
_cell_angle_gamma   119.99998958
_symmetry_Int_Tables_number   1
_chemical_formula_structural   NdNiAs
_chemical_formula_sum   'Nd1 Ni1 As1'
_cell_volume   59.07461746
_cell_formula_units_Z   1
loop_
 _symmetry_equiv_pos_site_id
 _symmetry_equiv_pos_as_xyz
  1  'x, y, z'
loop_
 _atom_site_type_symbol
 _atom_site_label
 _atom_site_symmetry_multiplicity
 _atom_site_fract_x
 _atom_site_fract_y
 _atom_site_fract_z
 _atom_site_occupancy
  Nd  Nd0  1  0.66666700  0.33333300  0.50000000  1
  Ni  Ni0  1  0.33333300  0.66666700  -0.00000000  1
  As  As0  1  -0.00000000  0.00000000  0.00000000  1
loop_
_geom_bond_atom_site_label_1
_geom_bond_atom_site_label_2
_geom_bond_distance
_geom_bond_site_symmetry_2
Nd0 Ni0 3.118596 1_545
Nd0 Ni0 3.118596 1_546
Nd0 Ni0 3.118596 1_655
Nd0 Ni0 3.118596 1_656
Nd0 Ni0 3.118601 1_555
Nd0 Ni0 3.118601 1_556
As0 Ni0 2.364612 1_545
As0 Ni0 2.364616 1_445
As0 Ni0 2.364616 1_555
As0 Nd0 3.118596 1_455
As0 Nd0 3.118596 1_454
As0 Nd0 3.118598 1_445
As0 Nd0 3.118598 1_444
As0 Nd0 3.118598 1_555
As0 Nd0 3.118598 1_554
