# generated using pymatgen
data_BaGaB4H3O10
_symmetry_space_group_name_H-M   'P 1'
_cell_length_a   7.13192216
_cell_length_b   7.15932866
_cell_length_c   18.77698894
_cell_angle_alpha   83.26819248
_cell_angle_beta   79.05239472
_cell_angle_gamma   60.12654693
_symmetry_Int_Tables_number   1
_chemical_formula_structural   BaGaB4H3O10
_chemical_formula_sum   'Ba4 Ga4 B16 H12 O40'
_cell_volume   815.93951695
_cell_formula_units_Z   4
loop_
 _symmetry_equiv_pos_site_id
 _symmetry_equiv_pos_as_xyz
  1  'x, y, z'
loop_
 _atom_site_type_symbol
 _atom_site_label
 _atom_site_symmetry_multiplicity
 _atom_site_fract_x
 _atom_site_fract_y
 _atom_site_fract_z
 _atom_site_occupancy
  Ba  Ba0  1  0.96535835  0.81307426  0.60331378  1
  Ba  Ba1  1  0.38174639  0.68692574  0.89668622  1
  Ba  Ba2  1  0.03464165  0.18692574  0.39668622  1
  Ba  Ba3  1  0.61825361  0.31307426  0.10331378  1
  Ga  Ga0  1  0.32498876  0.15170854  0.55805600  1
  Ga  Ga1  1  0.03475231  0.34829146  0.94194400  1
  Ga  Ga2  1  0.67501124  0.84829146  0.44194400  1
  Ga  Ga3  1  0.96524769  0.65170854  0.05805600  1
  B  B0  1  0.58818697  0.70396747  0.60395691  1
  B  B1  1  0.89611135  0.79603253  0.89604309  1
  B  B2  1  0.41181303  0.29603253  0.39604309  1
  B  B3  1  0.10388865  0.20396747  0.10395691  1
  B  B4  1  0.85776731  0.32411421  0.57229886  1
  B  B5  1  0.75417939  0.17588579  0.92770114  1
  B  B6  1  0.14223269  0.67588579  0.42770114  1
  B  B7  1  0.24582061  0.82411421  0.07229886  1
  B  B8  1  0.47377471  0.44498539  0.57812222  1
  B  B9  1  0.49688233  0.05501461  0.92187778  1
  B  B10  1  0.52622529  0.55501461  0.42187778  1
  B  B11  1  0.50311767  0.94498539  0.07812222  1
  B  B12  1  0.38998808  0.96606487  0.70613451  1
  B  B13  1  0.06218746  0.53393513  0.79386549  1
  B  B14  1  0.61001192  0.03393513  0.29386549  1
  B  B15  1  0.93781254  0.46606487  0.20613451  1
  H  H0  1  0.23939407  0.12138599  0.79979384  1
  H  H1  1  0.16057391  0.37861401  0.70020616  1
  H  H2  1  0.76060593  0.87861401  0.20020616  1
  H  H3  1  0.83942609  0.62138599  0.29979384  1
  H  H4  1  0.01367155  0.09983190  0.70767779  1
  H  H5  1  0.82118123  0.40016810  0.79232221  1
  H  H6  1  -0.01367155  0.90016810  0.29232221  1
  H  H7  1  0.17881877  0.59983190  0.20767779  1
  H  H8  1  0.96166162  0.93357983  0.75925358  1
  H  H9  1  0.65449403  0.56642017  0.74074642  1
  H  H10  1  0.03833838  0.06642017  0.24074642  1
  H  H11  1  0.34550597  0.43357983  0.25925358  1
  O  O0  1  0.42392424  0.64433501  0.59730593  1
  O  O1  1  0.66556518  0.85566499  0.90269407  1
  O  O2  1  0.57607576  0.35566499  0.40269407  1
  O  O3  1  0.33443482  0.14433501  0.09730593  1
  O  O4  1  0.31426267  0.41594818  0.56161322  1
  O  O5  1  0.29182507  0.08405182  0.93838678  1
  O  O6  1  0.68573733  0.58405182  0.43838678  1
  O  O7  1  0.70817493  0.91594818  0.06161322  1
  O  O8  1  0.68922448  0.27716095  0.57244999  1
  O  O9  1  0.53883641  0.22283905  0.92755001  1
  O  O10  1  0.31077552  0.72283905  0.42755001  1
  O  O11  1  0.46116359  0.77716095  0.07244999  1
  O  O12  1  0.06144428  0.16318457  0.54920987  1
  O  O13  1  0.77383872  0.33681543  0.95079013  1
  O  O14  1  0.93855572  0.83681543  0.45079013  1
  O  O15  1  0.22616128  0.66318457  0.04920987  1
  O  O16  1  0.81228614  0.52038370  0.59134900  1
  O  O17  1  0.92401884  0.97961630  0.90865100  1
  O  O18  1  0.18771386  0.47961630  0.40865100  1
  O  O19  1  0.07598116  0.02038370  0.09134900  1
  O  O20  1  0.55930268  0.77472968  0.67784641  1
  O  O21  1  0.01187978  0.72527032  0.82215359  1
  O  O22  1  0.44069732  0.22527032  0.32215359  1
  O  O23  1  0.98812022  0.27472968  0.17784641  1
  O  O24  1  0.57801982  0.87613873  0.55143696  1
  O  O25  1  0.00559551  0.62386127  0.94856304  1
  O  O26  1  0.42198018  0.12386127  0.44856304  1
  O  O27  1  0.99440449  0.37613873  0.05143696  1
  O  O28  1  0.26819019  0.13646535  0.66435817  1
  O  O29  1  0.06901471  0.36353465  0.83564183  1
  O  O30  1  0.73180981  0.86353465  0.33564183  1
  O  O31  1  0.93098529  0.63646535  0.16435817  1
  O  O32  1  0.34694588  0.97561322  0.78074641  1
  O  O33  1  0.10330550  0.52438678  0.71925359  1
  O  O34  1  0.65305412  0.02438678  0.21925359  1
  O  O35  1  0.89669450  0.47561322  0.28074641  1
  O  O36  1  0.92585482  0.02830382  0.71569765  1
  O  O37  1  0.66985629  0.47169618  0.78430235  1
  O  O38  1  0.07414518  0.97169618  0.28430235  1
  O  O39  1  0.33014371  0.52830382  0.21569765  1
loop_
_geom_bond_atom_site_label_1
_geom_bond_atom_site_label_2
_geom_bond_distance
_geom_bond_site_symmetry_2
Ba0 O36 2.647805 1_565
Ba0 O4 2.760930 1_655
Ba0 O33 2.777045 1_655
Ba0 O16 2.848799 1_555
Ba0 O0 2.850273 1_655
Ba0 O14 2.886000 1_555
Ba0 O24 2.908678 1_555
Ba0 O12 2.938398 1_665
Ba0 O8 2.952522 1_565
Ba0 O20 3.095648 1_555
Ba1 O37 2.647805 1_555
Ba1 O5 2.760933 1_565
Ba1 O32 2.777045 1_555
Ba1 O17 2.848799 1_455
Ba1 O1 2.850273 1_555
Ba1 O15 2.886000 1_556
Ba1 O25 2.908678 1_555
Ba1 O13 2.938398 1_555
Ba1 O9 2.952521 1_555
Ba1 O21 3.095642 1_555
Ba2 O38 2.647805 1_545
Ba2 O6 2.760930 1_455
Ba2 O35 2.777045 1_455
Ba2 O18 2.848799 1_555
Ba2 O2 2.850273 1_455
Ba2 O12 2.886000 1_555
Ba2 O26 2.908678 1_555
Ba2 O14 2.938398 1_445
Ba2 O10 2.952522 1_545
Ba2 O22 3.095648 1_555
Ba3 O39 2.647805 1_555
Ba3 O7 2.760933 1_545
Ba3 O34 2.777045 1_555
Ba3 O19 2.848799 1_655
Ba3 O3 2.850273 1_555
Ba3 O13 2.886000 1_554
Ba3 O27 2.908678 1_555
Ba3 O15 2.938398 1_555
Ba3 O11 2.952521 1_555
Ba3 O23 3.095642 1_555
Ga0 O4 1.863507 1_555
Ga0 O12 1.878484 1_555
Ga0 O24 1.894724 1_545
Ga0 O28 1.961126 1_555
Ga0 O26 2.040517 1_555
Ga1 O5 1.863514 1_555
Ga1 O13 1.878477 1_455
Ga1 O25 1.894727 1_555
Ga1 O29 1.961126 1_555
Ga1 O27 2.040518 1_456
Ga2 O6 1.863507 1_555
Ga2 O14 1.878484 1_555
Ga2 O26 1.894724 1_565
Ga2 O30 1.961126 1_555
Ga2 O24 2.040517 1_555
Ga3 O7 1.863514 1_555
Ga3 O15 1.878477 1_655
Ga3 O27 1.894727 1_555
Ga3 O31 1.961126 1_555
Ga3 O25 2.040518 1_654
B0 O0 1.461712 1_555
B0 O24 1.466389 1_555
B0 O16 1.474646 1_555
B0 O20 1.475228 1_555
B1 O1 1.461712 1_555
B1 O25 1.466389 1_655
B1 O17 1.474646 1_555
B1 O21 1.475230 1_655
B2 O2 1.461712 1_555
B2 O26 1.466389 1_555
B2 O18 1.474646 1_555
B2 O22 1.475228 1_555
B3 O3 1.461712 1_555
B3 O27 1.466389 1_455
B3 O19 1.474646 1_555
B3 O23 1.475230 1_455
B4 O16 1.351799 1_555
B4 O12 1.355053 1_655
B4 O8 1.399606 1_555
B5 O17 1.351801 1_545
B5 O13 1.355057 1_555
B5 O9 1.399592 1_555
B6 O18 1.351799 1_555
B6 O14 1.355053 1_455
B6 O10 1.399606 1_555
B7 O19 1.351801 1_565
B7 O15 1.355057 1_555
B7 O11 1.399592 1_555
B8 O4 1.348389 1_555
B8 O0 1.363632 1_555
B8 O8 1.394534 1_555
B9 O5 1.348382 1_555
B9 O1 1.363632 1_545
B9 O9 1.394538 1_555
B10 O6 1.348389 1_555
B10 O2 1.363632 1_555
B10 O10 1.394534 1_555
B11 O7 1.348382 1_555
B11 O3 1.363632 1_565
B11 O11 1.394538 1_555
B12 O28 1.355351 1_565
B12 O20 1.376915 1_555
B12 O32 1.378358 1_555
B13 O29 1.355349 1_555
B13 O21 1.376918 1_555
B13 O33 1.378358 1_555
B14 O30 1.355351 1_545
B14 O22 1.376915 1_555
B14 O34 1.378358 1_555
B15 O31 1.355349 1_555
B15 O23 1.376918 1_555
B15 O35 1.378358 1_555
H0 O32 0.995645 1_545
H0 O29 1.673163 1_555
H1 O33 0.995645 1_555
H1 O28 1.673164 1_555
H2 O34 0.995645 1_565
H2 O31 1.673163 1_555
H3 O35 0.995645 1_555
H3 O30 1.673164 1_555
H4 O36 0.970961 1_455
H5 O37 0.970961 1_555
H6 O38 0.970961 1_555
H7 O39 0.970961 1_555
H8 O36 0.985277 1_565
H9 O37 0.985277 1_555
H10 O38 0.985277 1_545
H11 O39 0.985277 1_555
