# generated using pymatgen
data_Nd4CuNiO8
_symmetry_space_group_name_H-M   'P 1'
_cell_length_a   3.82960067
_cell_length_b   3.82960067
_cell_length_c   12.63634100
_cell_angle_alpha   90.00000000
_cell_angle_beta   90.00000000
_cell_angle_gamma   90.65403284
_symmetry_Int_Tables_number   1
_chemical_formula_structural   Nd4CuNiO8
_chemical_formula_sum   'Nd4 Cu1 Ni1 O8'
_cell_volume   185.31049818
_cell_formula_units_Z   1
loop_
 _symmetry_equiv_pos_site_id
 _symmetry_equiv_pos_as_xyz
  1  'x, y, z'
loop_
 _atom_site_type_symbol
 _atom_site_label
 _atom_site_symmetry_multiplicity
 _atom_site_fract_x
 _atom_site_fract_y
 _atom_site_fract_z
 _atom_site_occupancy
  Nd  Nd0  1  0.50088300  0.49911700  0.86075100  1
  Nd  Nd1  1  0.00968700  0.99031300  0.36610000  1
  Nd  Nd2  1  0.00968700  0.99031300  0.63390000  1
  Nd  Nd3  1  0.50088300  0.49911700  0.13924900  1
  Cu  Cu0  1  0.00962200  0.99037800  0.00000000  1
  Ni  Ni0  1  0.51826900  0.48173100  0.50000000  1
  O  O0  1  0.01853500  0.49352100  0.50000000  1
  O  O1  1  0.51113200  0.99689800  0.00000000  1
  O  O2  1  0.50647900  0.98146500  0.50000000  1
  O  O3  1  0.00310200  0.48886800  0.00000000  1
  O  O4  1  0.54678900  0.45321100  0.67717800  1
  O  O5  1  0.05957100  0.94042900  0.18715300  1
  O  O6  1  0.05957100  0.94042900  0.81284700  1
  O  O7  1  0.54678900  0.45321100  0.32282200  1
loop_
_geom_bond_atom_site_label_1
_geom_bond_atom_site_label_2
_geom_bond_distance
_geom_bond_site_symmetry_2
Nd0 O4 2.333128 1_555
Nd0 O6 2.478742 1_555
Nd0 O1 2.594226 1_556
Nd0 O3 2.594226 1_556
Nd0 O3 2.607398 1_656
Nd0 O1 2.607398 1_546
Nd0 O6 2.778097 1_655
Nd0 O6 2.778097 1_545
Nd0 O6 3.102628 1_645
Nd1 O5 2.277500 1_555
Nd1 O0 2.546580 1_555
Nd1 O2 2.546580 1_555
Nd1 O0 2.564410 1_565
Nd1 O2 2.564410 1_455
Nd1 O7 2.579893 1_465
Nd1 O7 2.754837 1_565
Nd1 O7 2.754837 1_455
Nd1 O7 2.976108 1_555
Nd2 O6 2.277500 1_555
Nd2 O0 2.546580 1_555
Nd2 O2 2.546580 1_555
Nd2 O0 2.564410 1_565
Nd2 O2 2.564410 1_455
Nd2 O4 2.579893 1_465
Nd2 O4 2.754837 1_565
Nd2 O4 2.754837 1_455
Nd2 O4 2.976108 1_555
Nd3 O7 2.333128 1_555
Nd3 O5 2.478742 1_555
Nd3 O1 2.594226 1_555
Nd3 O3 2.594226 1_555
Nd3 O3 2.607398 1_655
Nd3 O1 2.607398 1_545
Nd3 O5 2.778097 1_655
Nd3 O5 2.778097 1_545
Nd3 O5 3.102628 1_645
Cu0 O3 1.909466 1_565
Cu0 O1 1.909466 1_455
Cu0 O1 1.920460 1_555
Cu0 O3 1.920460 1_555
Cu0 O5 2.380526 1_555
Cu0 O6 2.380526 1_554
Ni0 O0 1.914829 1_555
Ni0 O2 1.914829 1_555
Ni0 O0 1.915836 1_655
Ni0 O2 1.915836 1_545
Ni0 O4 2.244264 1_555
Ni0 O7 2.244264 1_555
