# generated using pymatgen
data_CrPSe3
_symmetry_space_group_name_H-M   'P 1'
_cell_length_a   6.34682277
_cell_length_b   6.34682277
_cell_length_c   7.01182292
_cell_angle_alpha   81.34023461
_cell_angle_beta   81.34023461
_cell_angle_gamma   119.91643135
_symmetry_Int_Tables_number   1
_chemical_formula_structural   CrPSe3
_chemical_formula_sum   'Cr2 P2 Se6'
_cell_volume   233.48128345
_cell_formula_units_Z   2
loop_
 _symmetry_equiv_pos_site_id
 _symmetry_equiv_pos_as_xyz
  1  'x, y, z'
loop_
 _atom_site_type_symbol
 _atom_site_label
 _atom_site_symmetry_multiplicity
 _atom_site_fract_x
 _atom_site_fract_y
 _atom_site_fract_z
 _atom_site_occupancy
  Cr  Cr0  1  0.66729600  0.33270400  0.00000000  1
  Cr  Cr1  1  0.33270400  0.66729600  0.00000000  1
  P  P0  1  0.05667100  0.05667100  0.83170000  1
  P  P1  1  0.94332900  0.94332900  0.16830000  1
  Se  Se0  1  0.71163200  0.71163200  0.77058500  1
  Se  Se1  1  0.28836800  0.28836800  0.22941500  1
  Se  Se2  1  0.07620500  0.44033300  0.77122800  1
  Se  Se3  1  0.44033300  0.07620500  0.77122800  1
  Se  Se4  1  0.92379500  0.55966700  0.22877200  1
  Se  Se5  1  0.55966700  0.92379500  0.22877200  1
loop_
_geom_bond_atom_site_label_1
_geom_bond_atom_site_label_2
_geom_bond_distance
_geom_bond_site_symmetry_2
Cr0 Se5 2.534415 1_545
Cr0 Se2 2.534415 1_654
Cr0 Se4 2.538012 1_555
Cr0 Se3 2.538012 1_554
Cr0 Se1 2.544496 1_555
Cr0 Se0 2.544496 1_554
Cr1 Se4 2.534415 1_455
Cr1 Se3 2.534415 1_564
Cr1 Se2 2.538012 1_554
Cr1 Se5 2.538012 1_555
Cr1 Se0 2.544496 1_554
Cr1 Se1 2.544496 1_555
P0 P1 2.250932 1_446
P0 Se3 2.344499 1_555
P0 Se2 2.344499 1_555
P0 Se0 2.357247 1_445
P1 Se4 2.344499 1_555
P1 Se5 2.344499 1_555
P1 Se1 2.357247 1_665
