# generated using pymatgen
data_SrMnO3
_symmetry_space_group_name_H-M   'P 1'
_cell_length_a   5.52551667
_cell_length_b   5.52551667
_cell_length_c   9.29245000
_cell_angle_alpha   90.00000000
_cell_angle_beta   90.00000000
_cell_angle_gamma   120.00000804
_symmetry_Int_Tables_number   1
_chemical_formula_structural   SrMnO3
_chemical_formula_sum   'Sr4 Mn4 O12'
_cell_volume   245.70082607
_cell_formula_units_Z   4
loop_
 _symmetry_equiv_pos_site_id
 _symmetry_equiv_pos_as_xyz
  1  'x, y, z'
loop_
 _atom_site_type_symbol
 _atom_site_label
 _atom_site_symmetry_multiplicity
 _atom_site_fract_x
 _atom_site_fract_y
 _atom_site_fract_z
 _atom_site_occupancy
  Sr  Sr0  1  0.33333300  0.66666700  0.24760700  1
  Sr  Sr1  1  0.66666700  0.33333300  0.74760700  1
  Sr  Sr2  1  0.00000000  0.00000000  0.48951000  1
  Sr  Sr3  1  0.00000000  0.00000000  0.98951000  1
  Mn  Mn0  1  0.33333300  0.66666700  0.88712000  1
  Mn  Mn1  1  0.66666700  0.33333300  0.11297800  1
  Mn  Mn2  1  0.66666700  0.33333300  0.38712000  1
  Mn  Mn3  1  0.33333300  0.66666700  0.61297800  1
  O  O0  1  0.49971900  0.50028100  0.49984100  1
  O  O1  1  0.49971900  0.99943700  0.49984100  1
  O  O2  1  0.00056300  0.50028100  0.49984100  1
  O  O3  1  0.50028100  0.49971900  0.99984100  1
  O  O4  1  0.50028100  0.00056300  0.99984100  1
  O  O5  1  0.99943700  0.49971900  0.99984100  1
  O  O6  1  0.18102100  0.36204200  0.75042500  1
  O  O7  1  0.63795800  0.81897900  0.75042500  1
  O  O8  1  0.18102100  0.81897900  0.75042500  1
  O  O9  1  0.81897900  0.63795800  0.25042500  1
  O  O10  1  0.36204200  0.18102100  0.25042500  1
  O  O11  1  0.81897900  0.18102100  0.25042500  1
loop_
_geom_bond_atom_site_label_1
_geom_bond_atom_site_label_2
_geom_bond_distance
_geom_bond_site_symmetry_2
Mn0 O5 1.910506 1_455
Mn0 O4 1.910506 1_565
Mn0 O3 1.910507 1_555
Mn0 O8 1.933487 1_555
Mn0 O6 1.933491 1_555
Mn0 O7 1.933491 1_555
Mn1 O5 1.908130 1_554
Mn1 O4 1.908130 1_554
Mn1 O3 1.908138 1_554
Mn1 O11 1.938085 1_555
Mn1 O10 1.938089 1_555
Mn1 O9 1.938089 1_555
Mn2 O1 1.910506 1_545
Mn2 O2 1.910506 1_655
Mn2 O0 1.910507 1_555
Mn2 O11 1.933487 1_555
Mn2 O10 1.933491 1_555
Mn2 O9 1.933491 1_555
Mn3 O1 1.908130 1_555
Mn3 O2 1.908130 1_555
Mn3 O0 1.908138 1_555
Mn3 O8 1.938085 1_555
Mn3 O7 1.938089 1_555
Mn3 O6 1.938089 1_555
O0 Sr2 2.764427 1_555
O0 Sr2 2.764427 1_665
O0 Sr1 2.802446 1_555
O0 Sr0 2.833629 1_555
O1 Sr2 2.764424 1_665
O1 Sr2 2.764430 1_565
O1 Sr1 2.802446 1_565
O1 Sr0 2.833623 1_555
O2 Sr2 2.764424 1_555
O2 Sr2 2.764430 1_565
O2 Sr1 2.802446 1_455
O2 Sr0 2.833623 1_555
O3 Sr3 2.764427 1_665
O3 Sr3 2.764427 1_555
O3 Sr0 2.802446 1_556
O3 Sr1 2.833629 1_555
O4 Sr3 2.764424 1_555
O4 Sr3 2.764430 1_655
O4 Sr0 2.802446 1_546
O4 Sr1 2.833623 1_555
O5 Sr3 2.764424 1_665
O5 Sr3 2.764430 1_655
O5 Sr0 2.802446 1_656
O5 Sr1 2.833623 1_555
O6 Sr1 2.766293 1_455
O6 Sr1 2.766299 1_555
O6 Sr3 2.817320 1_555
O6 Sr2 2.979899 1_555
O7 Sr1 2.766293 1_565
O7 Sr1 2.766299 1_555
O7 Sr3 2.817320 1_665
O7 Sr2 2.979899 1_665
O8 Sr1 2.766295 1_455
O8 Sr1 2.766295 1_565
O8 Sr3 2.817320 1_565
O8 Sr2 2.979899 1_565
O9 Sr0 2.766293 1_655
O9 Sr0 2.766299 1_555
O9 Sr2 2.817320 1_665
O9 Sr3 2.979899 1_664
O10 Sr0 2.766293 1_545
O10 Sr0 2.766299 1_555
O10 Sr2 2.817320 1_555
O10 Sr3 2.979899 1_554
O11 Sr0 2.766295 1_655
O11 Sr0 2.766295 1_545
O11 Sr2 2.817320 1_655
O11 Sr3 2.979899 1_654
