# generated using pymatgen
data_Ca2Mg3Si
_symmetry_space_group_name_H-M   'P 1'
_cell_length_a   6.05656735
_cell_length_b   6.05656735
_cell_length_c   9.46163300
_cell_angle_alpha   90.00000000
_cell_angle_beta   90.00000000
_cell_angle_gamma   119.99999293
_symmetry_Int_Tables_number   1
_chemical_formula_structural   Ca2Mg3Si
_chemical_formula_sum   'Ca4 Mg6 Si2'
_cell_volume   300.57292908
_cell_formula_units_Z   2
loop_
 _symmetry_equiv_pos_site_id
 _symmetry_equiv_pos_as_xyz
  1  'x, y, z'
loop_
 _atom_site_type_symbol
 _atom_site_label
 _atom_site_symmetry_multiplicity
 _atom_site_fract_x
 _atom_site_fract_y
 _atom_site_fract_z
 _atom_site_occupancy
  Ca  Ca0  1  0.33333300  0.66666700  0.94111100  1
  Ca  Ca1  1  0.66666700  0.33333300  0.05888900  1
  Ca  Ca2  1  0.66666700  0.33333300  0.44111100  1
  Ca  Ca3  1  0.33333300  0.66666700  0.55888900  1
  Mg  Mg0  1  0.16507800  0.83492200  0.25000000  1
  Mg  Mg1  1  0.16507800  0.33015600  0.25000000  1
  Mg  Mg2  1  0.66984400  0.83492200  0.25000000  1
  Mg  Mg3  1  0.83492200  0.16507800  0.75000000  1
  Mg  Mg4  1  0.83492200  0.66984400  0.75000000  1
  Mg  Mg5  1  0.33015600  0.16507800  0.75000000  1
  Si  Si0  1  0.00000000  0.00000000  0.50000000  1
  Si  Si1  1  0.00000000  0.00000000  0.00000000  1
loop_
_geom_bond_atom_site_label_1
_geom_bond_atom_site_label_2
_geom_bond_distance
_geom_bond_site_symmetry_2
Ca0 Mg0 3.414225 1_556
Ca0 Mg2 3.414228 1_556
Ca0 Mg1 3.414228 1_556
Ca0 Mg5 3.527099 1_565
Ca0 Mg4 3.527099 1_455
Ca0 Mg3 3.527102 1_565
Ca0 Mg3 3.527102 1_455
Ca0 Mg4 3.527104 1_555
Ca0 Mg5 3.527104 1_555
Ca0 Si1 3.540871 1_566
Ca0 Si1 3.540876 1_556
Ca0 Si1 3.540876 1_666
Ca0 Ca3 3.616444 1_555
Ca0 Ca1 3.670033 1_456
Ca0 Ca1 3.670033 1_566
Ca0 Ca1 3.670042 1_556
Ca1 Mg3 3.414225 1_554
Ca1 Mg4 3.414228 1_554
Ca1 Mg5 3.414228 1_554
Ca1 Mg1 3.527099 1_655
Ca1 Mg2 3.527099 1_545
Ca1 Mg0 3.527102 1_655
Ca1 Mg0 3.527102 1_545
Ca1 Mg2 3.527104 1_555
Ca1 Mg1 3.527104 1_555
Ca1 Si1 3.540871 1_655
Ca1 Si1 3.540876 1_665
Ca1 Si1 3.540876 1_555
Ca1 Ca2 3.616444 1_555
Ca2 Mg3 3.414225 1_555
Ca2 Mg5 3.414228 1_555
Ca2 Mg4 3.414228 1_555
Ca2 Mg1 3.527099 1_655
Ca2 Mg2 3.527099 1_545
Ca2 Mg0 3.527102 1_655
Ca2 Mg0 3.527102 1_545
Ca2 Mg2 3.527104 1_555
Ca2 Mg1 3.527104 1_555
Ca2 Si0 3.540871 1_655
Ca2 Si0 3.540876 1_665
Ca2 Si0 3.540876 1_555
Ca2 Ca3 3.670033 1_545
Ca2 Ca3 3.670033 1_655
Ca2 Ca3 3.670042 1_555
Ca3 Mg0 3.414225 1_555
Ca3 Mg1 3.414228 1_555
Ca3 Mg2 3.414228 1_555
Ca3 Mg5 3.527099 1_565
Ca3 Mg4 3.527099 1_455
Ca3 Mg3 3.527102 1_565
Ca3 Mg3 3.527102 1_455
Ca3 Mg4 3.527104 1_555
Ca3 Mg5 3.527104 1_555
Ca3 Si0 3.540871 1_565
Ca3 Si0 3.540876 1_665
Ca3 Si0 3.540876 1_555
Mg0 Si0 2.931551 1_565
Mg0 Si1 2.931551 1_565
Mg0 Mg2 2.999418 1_455
Mg0 Mg1 2.999418 1_565
Mg0 Mg1 3.057149 1_555
Mg0 Mg2 3.057149 1_555
Mg1 Si1 2.931551 1_555
Mg1 Si0 2.931551 1_555
Mg1 Mg2 2.999418 1_445
Mg1 Mg2 3.057150 1_555
Mg2 Si1 2.931551 1_665
Mg2 Si0 2.931551 1_665
Mg3 Si0 2.931551 1_655
Mg3 Si1 2.931551 1_656
Mg3 Mg4 2.999418 1_545
Mg3 Mg5 2.999418 1_655
Mg3 Mg5 3.057149 1_555
Mg3 Mg4 3.057149 1_555
Mg4 Si1 2.931551 1_666
Mg4 Si0 2.931551 1_665
Mg4 Mg5 2.999418 1_665
Mg4 Mg5 3.057150 1_555
Mg5 Si0 2.931551 1_555
Mg5 Si1 2.931551 1_556
