# generated using pymatgen
data_K2RbYbV2O8
_symmetry_space_group_name_H-M   'P 1'
_cell_length_a   6.04182034
_cell_length_b   6.04182034
_cell_length_c   7.90732600
_cell_angle_alpha   90.00000000
_cell_angle_beta   90.00000000
_cell_angle_gamma   120.00000374
_symmetry_Int_Tables_number   1
_chemical_formula_structural   K2RbYbV2O8
_chemical_formula_sum   'K2 Rb1 Yb1 V2 O8'
_cell_volume   249.97459505
_cell_formula_units_Z   1
loop_
 _symmetry_equiv_pos_site_id
 _symmetry_equiv_pos_as_xyz
  1  'x, y, z'
loop_
 _atom_site_type_symbol
 _atom_site_label
 _atom_site_symmetry_multiplicity
 _atom_site_fract_x
 _atom_site_fract_y
 _atom_site_fract_z
 _atom_site_occupancy
  K  K0  1  0.33333300  0.66666700  0.69845600  1
  K  K1  1  0.66666700  0.33333300  0.30154400  1
  Rb  Rb0  1  0.00000000  0.00000000  0.00000000  1
  Yb  Yb0  1  0.00000000  0.00000000  0.50000000  1
  V  V0  1  0.33333300  0.66666700  0.25140500  1
  V  V1  1  0.66666700  0.33333300  0.74859500  1
  O  O0  1  0.33333300  0.66666700  0.03378700  1
  O  O1  1  0.66666700  0.33333300  0.96621300  1
  O  O2  1  0.17628900  0.82371100  0.32657000  1
  O  O3  1  0.82371100  0.17628900  0.67343000  1
  O  O4  1  0.17628900  0.35257800  0.32657000  1
  O  O5  1  0.82371100  0.64742200  0.67343000  1
  O  O6  1  0.64742200  0.82371100  0.32657000  1
  O  O7  1  0.35257800  0.17628900  0.67343000  1
loop_
_geom_bond_atom_site_label_1
_geom_bond_atom_site_label_2
_geom_bond_distance
_geom_bond_site_symmetry_2
K0 O0 2.651572 1_556
K0 O7 3.029056 1_565
K0 O5 3.029056 1_455
K0 O3 3.029059 1_565
K0 O3 3.029059 1_455
K0 O7 3.029062 1_555
K0 O5 3.029062 1_555
K1 O1 2.651572 1_554
K1 O4 3.029056 1_655
K1 O6 3.029056 1_545
K1 O2 3.029059 1_655
K1 O2 3.029059 1_545
K1 O6 3.029062 1_555
K1 O4 3.029062 1_555
O0 V0 1.720776 1_555
O0 Rb0 3.498459 1_565
O0 Rb0 3.498464 1_555
O0 Rb0 3.498464 1_665
O1 V1 1.720776 1_555
O1 Rb0 3.498459 1_656
O1 Rb0 3.498464 1_666
O1 Rb0 3.498464 1_556
O2 V0 1.747599 1_555
O2 Yb0 2.298696 1_565
O2 Rb0 3.173579 1_565
O3 V1 1.747599 1_555
O3 Yb0 2.298696 1_655
O3 Rb0 3.173579 1_656
O4 V0 1.747604 1_555
O4 Yb0 2.298696 1_555
O4 Rb0 3.173579 1_555
O5 V1 1.747604 1_555
O5 Yb0 2.298696 1_665
O5 Rb0 3.173579 1_666
O6 V0 1.747604 1_555
O6 Yb0 2.298696 1_665
O6 Rb0 3.173579 1_665
O7 V1 1.747604 1_555
O7 Yb0 2.298696 1_555
O7 Rb0 3.173579 1_556
