# generated using pymatgen
data_RbMg14Cu
_symmetry_space_group_name_H-M   'P 1'
_cell_length_a   6.49306142
_cell_length_b   6.49306088
_cell_length_c   10.58647805
_cell_angle_alpha   90.00000000
_cell_angle_beta   90.00000000
_cell_angle_gamma   120.00000277
_symmetry_Int_Tables_number   1
_chemical_formula_structural   RbMg14Cu
_chemical_formula_sum   'Rb1 Mg14 Cu1'
_cell_volume   386.52813087
_cell_formula_units_Z   1
loop_
 _symmetry_equiv_pos_site_id
 _symmetry_equiv_pos_as_xyz
  1  'x, y, z'
loop_
 _atom_site_type_symbol
 _atom_site_label
 _atom_site_symmetry_multiplicity
 _atom_site_fract_x
 _atom_site_fract_y
 _atom_site_fract_z
 _atom_site_occupancy
  Rb  Rb0  1  0.16666700  0.33333300  0.62500000  1
  Mg  Mg0  1  0.15667910  0.82833905  0.12500000  1
  Mg  Mg1  1  0.17435019  0.83717460  0.62500000  1
  Mg  Mg2  1  0.67166095  0.34332090  0.12500000  1
  Mg  Mg3  1  0.66282540  0.32564981  0.62500000  1
  Mg  Mg4  1  0.67166095  0.82833905  0.12500000  1
  Mg  Mg5  1  0.66282540  0.83717460  0.62500000  1
  Mg  Mg6  1  0.33362553  0.16637447  0.34631654  1
  Mg  Mg7  1  0.33362553  0.16637447  0.90368346  1
  Mg  Mg8  1  0.33362553  0.66725206  0.34631654  1
  Mg  Mg9  1  0.33362553  0.66725206  0.90368346  1
  Mg  Mg10  1  0.83274794  0.16637447  0.34631654  1
  Mg  Mg11  1  0.83274794  0.16637447  0.90368346  1
  Mg  Mg12  1  0.83333300  0.66666700  0.38117114  1
  Mg  Mg13  1  0.83333300  0.66666700  0.86882886  1
  Cu  Cu0  1  0.16666700  0.33333300  0.12500000  1
loop_
_geom_bond_atom_site_label_1
_geom_bond_atom_site_label_2
_geom_bond_distance
_geom_bond_site_symmetry_2
Mg0 Mg8 3.017486 1_555
Mg0 Mg9 3.017486 1_554
Mg0 Mg6 3.017493 1_565
Mg0 Mg7 3.017493 1_564
Mg0 Mg2 3.149252 1_455
Mg0 Mg4 3.149253 1_455
Mg0 Mg13 3.265060 1_454
Mg0 Mg12 3.265060 1_455
Mg0 Mg2 3.343809 1_565
Mg0 Mg4 3.343809 1_555
Mg1 Mg12 3.215620 1_455
Mg1 Mg13 3.215620 1_455
Mg1 Rb0 3.246818 1_565
Mg1 Rb0 3.246818 1_555
Mg2 Mg7 3.017493 1_554
Mg2 Mg6 3.017493 1_555
Mg2 Mg4 3.149252 1_555
Mg2 Mg4 3.343809 1_545
Mg3 Rb0 3.246818 1_555
Mg3 Rb0 3.246818 1_655
Mg4 Mg8 3.017493 1_555
Mg4 Mg9 3.017493 1_554
Mg5 Rb0 3.246818 1_555
Mg5 Rb0 3.246818 1_665
Mg6 Rb0 3.497108 1_555
Mg7 Rb0 3.497108 1_555
Mg8 Rb0 3.497114 1_555
Mg9 Rb0 3.497114 1_555
Mg10 Mg2 3.017486 1_555
Mg10 Mg4 3.017493 1_545
Mg10 Mg12 3.267434 1_555
Mg10 Mg12 3.267434 1_545
Mg10 Rb0 3.497114 1_655
Mg11 Mg2 3.017486 1_556
Mg11 Mg4 3.017493 1_546
Mg11 Mg13 3.267434 1_555
Mg11 Mg13 3.267434 1_545
Mg11 Rb0 3.497114 1_655
Mg12 Mg5 3.215614 1_555
Mg12 Mg3 3.215620 1_555
Mg12 Mg4 3.265054 1_555
Mg12 Mg2 3.265060 1_555
Mg12 Mg6 3.267434 1_555
Mg12 Mg6 3.267434 1_665
Mg12 Mg8 3.267434 1_555
Mg12 Mg8 3.267434 1_655
Mg13 Mg5 3.215614 1_555
Mg13 Mg3 3.215620 1_555
Mg13 Mg4 3.265054 1_556
Mg13 Mg2 3.265060 1_556
Mg13 Mg7 3.267434 1_555
Mg13 Mg7 3.267434 1_665
Mg13 Mg9 3.267434 1_555
Mg13 Mg9 3.267434 1_655
Cu0 Mg7 3.002517 1_554
Cu0 Mg6 3.002517 1_555
Cu0 Mg8 3.002524 1_555
Cu0 Mg9 3.002524 1_554
Cu0 Mg11 3.002524 1_454
Cu0 Mg10 3.002524 1_455
Cu0 Mg4 3.247016 1_445
Cu0 Mg0 3.247016 1_545
Cu0 Mg0 3.247016 1_555
Cu0 Mg4 3.247016 1_555
Cu0 Mg2 3.247016 1_455
Cu0 Mg2 3.247016 1_555
