# generated using pymatgen
data_Lu2Mo4O15
_symmetry_space_group_name_H-M   'P 1'
_cell_length_a   9.58823700
_cell_length_b   6.84117100
_cell_length_c   10.58698576
_cell_angle_alpha   75.10406695
_cell_angle_beta   90.00000000
_cell_angle_gamma   90.00000000
_symmetry_Int_Tables_number   1
_chemical_formula_structural   Lu2Mo4O15
_chemical_formula_sum   'Lu4 Mo8 O30'
_cell_volume   671.11339641
_cell_formula_units_Z   2
loop_
 _symmetry_equiv_pos_site_id
 _symmetry_equiv_pos_as_xyz
  1  'x, y, z'
loop_
 _atom_site_type_symbol
 _atom_site_label
 _atom_site_symmetry_multiplicity
 _atom_site_fract_x
 _atom_site_fract_y
 _atom_site_fract_z
 _atom_site_occupancy
  Lu  Lu0  1  0.52293200  0.70966700  0.22459500  1
  Lu  Lu1  1  0.47706800  0.29033300  0.77540500  1
  Lu  Lu2  1  0.02293200  0.29033300  0.27540500  1
  Lu  Lu3  1  0.97706800  0.70966700  0.72459500  1
  Mo  Mo0  1  0.74289000  0.41922600  0.01055800  1
  Mo  Mo1  1  0.25711000  0.58077400  0.98944200  1
  Mo  Mo2  1  0.24289000  0.58077400  0.48944200  1
  Mo  Mo3  1  0.75711000  0.41922600  0.51055800  1
  Mo  Mo4  1  0.90373900  0.87781700  0.15735100  1
  Mo  Mo5  1  0.09626100  0.12218300  0.84264900  1
  Mo  Mo6  1  0.40373900  0.12218300  0.34264900  1
  Mo  Mo7  1  0.59626100  0.87781700  0.65735100  1
  O  O0  1  0.71896000  0.88461000  0.14858800  1
  O  O1  1  0.28104000  0.11539000  0.85141200  1
  O  O2  1  0.21896000  0.11539000  0.35141200  1
  O  O3  1  0.78104000  0.88461000  0.64858800  1
  O  O4  1  0.62517100  0.52596100  0.10447800  1
  O  O5  1  0.37482900  0.47403900  0.89552200  1
  O  O6  1  0.12517100  0.47403900  0.39552200  1
  O  O7  1  0.87482900  0.52596100  0.60447800  1
  O  O8  1  0.35112000  0.72119300  0.08303800  1
  O  O9  1  0.64888000  0.27880700  0.91696200  1
  O  O10  1  0.85112000  0.27880700  0.41696200  1
  O  O11  1  0.14888000  0.72119300  0.58303800  1
  O  O12  1  0.00000000  0.00000000  0.00000000  1
  O  O13  1  0.50000000  0.00000000  0.50000000  1
  O  O14  1  0.66523500  0.61714100  0.39707700  1
  O  O15  1  0.33476500  0.38285900  0.60292300  1
  O  O16  1  0.16523500  0.38285900  0.10292300  1
  O  O17  1  0.83476500  0.61714100  0.89707700  1
  O  O18  1  0.97303200  0.95145500  0.29396400  1
  O  O19  1  0.02696800  0.04854500  0.70603600  1
  O  O20  1  0.47303200  0.04854500  0.20603600  1
  O  O21  1  0.52696800  0.95145500  0.79396400  1
  O  O22  1  0.94492300  0.61730000  0.18482500  1
  O  O23  1  0.05507700  0.38270000  0.81517500  1
  O  O24  1  0.44492300  0.38270000  0.31517500  1
  O  O25  1  0.55507700  0.61730000  0.68482500  1
  O  O26  1  0.86605000  0.25626100  0.11954200  1
  O  O27  1  0.13395000  0.74373900  0.88045900  1
  O  O28  1  0.36605000  0.74373900  0.38045800  1
  O  O29  1  0.63395000  0.25626100  0.61954100  1
loop_
_geom_bond_atom_site_label_1
_geom_bond_atom_site_label_2
_geom_bond_distance
_geom_bond_site_symmetry_2
Lu0 O8 2.214789 1_555
Lu0 O4 2.231428 1_555
Lu0 O14 2.236649 1_555
Lu0 O0 2.262190 1_555
Lu0 O28 2.288593 1_555
Lu0 O24 2.319415 1_555
Lu0 O20 2.325500 1_565
Lu1 O9 2.214789 1_555
Lu1 O5 2.231428 1_555
Lu1 O15 2.236649 1_555
Lu1 O1 2.262190 1_555
Lu1 O29 2.288601 1_555
Lu1 O25 2.319415 1_555
Lu1 O21 2.325500 1_545
Lu2 O10 2.214789 1_455
Lu2 O6 2.231428 1_555
Lu2 O16 2.236649 1_555
Lu2 O2 2.262190 1_555
Lu2 O26 2.288593 1_455
Lu2 O22 2.319415 1_455
Lu2 O18 2.325500 1_445
Lu3 O11 2.214789 1_655
Lu3 O7 2.231428 1_555
Lu3 O17 2.236649 1_555
Lu3 O3 2.262190 1_555
Lu3 O27 2.288601 1_655
Lu3 O23 2.319415 1_655
Lu3 O19 2.325500 1_665
Mo0 O4 1.780213 1_555
Mo0 O9 1.790695 1_554
Mo0 O17 1.793416 1_554
Mo0 O26 1.818616 1_555
Mo1 O5 1.780213 1_555
Mo1 O8 1.790695 1_556
Mo1 O16 1.793416 1_556
Mo1 O27 1.818611 1_555
Mo2 O6 1.780213 1_555
Mo2 O11 1.790695 1_555
Mo2 O15 1.793416 1_555
Mo2 O28 1.818616 1_555
Mo3 O7 1.780213 1_555
Mo3 O10 1.790695 1_555
Mo3 O14 1.793416 1_555
Mo3 O29 1.818611 1_555
Mo4 O0 1.774116 1_555
Mo4 O22 1.774936 1_555
Mo4 O18 1.778103 1_555
Mo4 O12 1.899946 1_665
Mo4 O26 2.541836 1_565
Mo5 O1 1.774116 1_555
Mo5 O23 1.774936 1_555
Mo5 O19 1.778103 1_555
Mo5 O12 1.899946 1_556
Mo5 O27 2.541835 1_545
Mo6 O2 1.774116 1_555
Mo6 O24 1.774936 1_555
Mo6 O20 1.778103 1_555
Mo6 O13 1.899946 1_555
Mo6 O28 2.541836 1_545
Mo7 O3 1.774116 1_555
Mo7 O25 1.774936 1_555
Mo7 O21 1.778103 1_555
Mo7 O13 1.899946 1_565
Mo7 O29 2.541835 1_565
