# generated using pymatgen
data_SrCaTi2O6
_symmetry_space_group_name_H-M   'P 1'
_cell_length_a   5.52465300
_cell_length_b   5.52903200
_cell_length_c   7.81389500
_cell_angle_alpha   90.00000000
_cell_angle_beta   90.00000000
_cell_angle_gamma   90.00000000
_symmetry_Int_Tables_number   1
_chemical_formula_structural   SrCaTi2O6
_chemical_formula_sum   'Sr2 Ca2 Ti4 O12'
_cell_volume   238.68310560
_cell_formula_units_Z   2
loop_
 _symmetry_equiv_pos_site_id
 _symmetry_equiv_pos_as_xyz
  1  'x, y, z'
loop_
 _atom_site_type_symbol
 _atom_site_label
 _atom_site_symmetry_multiplicity
 _atom_site_fract_x
 _atom_site_fract_y
 _atom_site_fract_z
 _atom_site_occupancy
  Sr  Sr0  1  0.25435900  0.98527800  0.50000000  1
  Sr  Sr1  1  0.74564100  0.48527800  0.50000000  1
  Ca  Ca0  1  0.24840800  0.01740200  0.00000000  1
  Ca  Ca1  1  0.75159200  0.51740200  0.00000000  1
  Ti  Ti0  1  0.25137000  0.49869200  0.75486200  1
  Ti  Ti1  1  0.74863000  0.99869200  0.24513800  1
  Ti  Ti2  1  0.25137000  0.49869200  0.24513800  1
  Ti  Ti3  1  0.74863000  0.99869200  0.75486200  1
  O  O0  1  0.02515000  0.77639200  0.78580200  1
  O  O1  1  0.97485000  0.27639200  0.21419800  1
  O  O2  1  0.47654600  0.22690500  0.27008200  1
  O  O3  1  0.52345400  0.72690500  0.72991800  1
  O  O4  1  0.47654600  0.22690500  0.72991800  1
  O  O5  1  0.52345400  0.72690500  0.27008200  1
  O  O6  1  0.02515000  0.77639200  0.21419800  1
  O  O7  1  0.97485000  0.27639200  0.78580200  1
  O  O8  1  0.31398700  0.49010100  0.00000000  1
  O  O9  1  0.68601300  0.99010100  0.00000000  1
  O  O10  1  0.20684200  0.50324000  0.50000000  1
  O  O11  1  0.79315800  0.00324000  0.50000000  1
loop_
_geom_bond_atom_site_label_1
_geom_bond_atom_site_label_2
_geom_bond_distance
_geom_bond_site_symmetry_2
Ca0 O9 2.422324 1_545
Ca0 O0 2.469487 1_544
Ca0 O6 2.469487 1_545
Ca0 O8 2.638560 1_555
Ca0 O7 2.671316 1_454
Ca0 O1 2.671316 1_455
Ca0 O2 2.717369 1_555
Ca0 O4 2.717369 1_554
Ca0 O8 2.937889 1_545
Ca1 O8 2.422324 1_555
Ca1 O7 2.469487 1_554
Ca1 O1 2.469487 1_555
Ca1 O9 2.638560 1_555
Ca1 O6 2.671316 1_655
Ca1 O0 2.671316 1_654
Ca1 O5 2.717369 1_555
Ca1 O3 2.717369 1_554
Ca1 O9 2.937889 1_545
O0 Ti3 1.975587 1_455
O0 Ti0 1.994469 1_555
O0 Sr0 2.815084 1_555
O0 Sr1 3.156354 1_455
O1 Ti2 1.975587 1_655
O1 Ti1 1.994469 1_545
O1 Sr1 2.815084 1_555
O1 Sr0 3.156354 1_645
O2 Ti2 1.960545 1_555
O2 Ti1 1.972217 1_545
O2 Sr0 2.553268 1_545
O2 Sr1 2.734688 1_555
O3 Ti3 1.960545 1_555
O3 Ti0 1.972217 1_555
O3 Sr1 2.553268 1_555
O3 Sr0 2.734688 1_555
O4 Ti0 1.960545 1_555
O4 Ti3 1.972217 1_545
O4 Sr0 2.553268 1_545
O4 Sr1 2.734688 1_555
O5 Ti1 1.960545 1_555
O5 Ti2 1.972217 1_555
O5 Sr1 2.553268 1_555
O5 Sr0 2.734688 1_555
O6 Ti1 1.975587 1_455
O6 Ti2 1.994469 1_555
O6 Sr0 2.815084 1_555
O6 Sr1 3.156354 1_455
O7 Ti0 1.975587 1_655
O7 Ti3 1.994469 1_545
O7 Sr1 2.815084 1_555
O7 Sr0 3.156354 1_645
O8 Ti2 1.947050 1_555
O8 Ti0 1.947050 1_554
O9 Ti1 1.947050 1_555
O9 Ti3 1.947050 1_554
O10 Ti0 2.006759 1_555
O10 Ti2 2.006759 1_555
O10 Sr1 2.549910 1_455
O10 Sr0 2.678101 1_555
O10 Sr0 2.875835 1_545
O10 Sr1 2.978334 1_555
O11 Ti3 2.006759 1_545
O11 Ti1 2.006759 1_545
O11 Sr0 2.549910 1_645
O11 Sr1 2.678101 1_555
O11 Sr1 2.875835 1_545
O11 Sr0 2.978334 1_545
