# generated using pymatgen
data_SrLa2Mn3O9
_symmetry_space_group_name_H-M   'P 1'
_cell_length_a   5.53825257
_cell_length_b   5.54590180
_cell_length_c   6.78781306
_cell_angle_alpha   90.04105545
_cell_angle_beta   90.06662693
_cell_angle_gamma   120.01075484
_symmetry_Int_Tables_number   1
_chemical_formula_structural   SrLa2Mn3O9
_chemical_formula_sum   'Sr1 La2 Mn3 O9'
_cell_volume   180.53340779
_cell_formula_units_Z   1
loop_
 _symmetry_equiv_pos_site_id
 _symmetry_equiv_pos_as_xyz
  1  'x, y, z'
loop_
 _atom_site_type_symbol
 _atom_site_label
 _atom_site_symmetry_multiplicity
 _atom_site_fract_x
 _atom_site_fract_y
 _atom_site_fract_z
 _atom_site_occupancy
  Sr  Sr0  1  0.99999900  0.99999800  0.99999800  1
  La  La0  1  0.66668900  0.33335100  0.33288800  1
  La  La1  1  0.33331000  0.66664700  0.66711400  1
  Mn  Mn0  1  0.66660800  0.33328700  0.83510700  1
  Mn  Mn1  1  0.33339000  0.66671500  0.16489300  1
  Mn  Mn2  1  0.00000200  0.00000000  0.50000700  1
  O  O0  1  0.83035900  0.66074700  0.65909200  1
  O  O1  1  0.16966100  0.33929100  0.34088500  1
  O  O2  1  0.83047500  0.16947800  0.65889200  1
  O  O3  1  0.16951800  0.83054800  0.34112300  1
  O  O4  1  0.33867200  0.16932700  0.65863400  1
  O  O5  1  0.66137000  0.83069800  0.34138400  1
  O  O6  1  0.50001000  0.49997600  0.99998200  1
  O  O7  1  0.99996000  0.49997500  0.99997700  1
  O  O8  1  0.49997700  0.99996000  0.00002300  1
loop_
_geom_bond_atom_site_label_1
_geom_bond_atom_site_label_2
_geom_bond_distance
_geom_bond_site_symmetry_2
La0 O0 2.713736 1_555
La0 O2 2.714472 1_555
La0 O4 2.715843 1_555
La0 O8 2.767234 1_545
La0 O6 2.768353 1_554
La0 O1 2.769724 1_655
La0 O1 2.769884 1_555
La0 O7 2.770130 1_554
La0 O3 2.771210 1_655
La0 O3 2.771362 1_545
La0 O5 2.773648 1_555
La0 O5 2.773690 1_545
La1 O1 2.713763 1_555
La1 O3 2.714495 1_555
La1 O5 2.715874 1_555
La1 O8 2.767261 1_556
La1 O6 2.768329 1_555
La1 O0 2.769720 1_455
La1 O0 2.769891 1_555
La1 O7 2.770083 1_455
La1 O2 2.771148 1_455
La1 O2 2.771423 1_565
La1 O4 2.773617 1_555
La1 O4 2.773720 1_565
Mn0 O7 1.949837 1_555
Mn0 O6 1.952566 1_555
Mn0 O8 1.954713 1_546
Mn0 O4 1.975258 1_555
Mn0 O2 1.976191 1_555
Mn0 O0 1.976385 1_555
Mn1 O7 1.950322 1_454
Mn1 O6 1.952989 1_554
Mn1 O8 1.954211 1_555
Mn1 O5 1.975499 1_555
Mn1 O1 1.976153 1_555
Mn1 O3 1.976364 1_555
Mn2 O5 1.946921 1_445
Mn2 O4 1.947088 1_555
Mn2 O3 1.952207 1_545
Mn2 O2 1.952359 1_455
Mn2 O0 1.955935 1_445
Mn2 O1 1.956226 1_555
O0 Sr0 2.828012 1_555
O1 Sr0 2.828023 1_444
O2 Sr0 2.829600 1_545
O3 Sr0 2.829609 1_454
O4 Sr0 2.832003 1_445
O5 Sr0 2.832004 1_554
O6 Sr0 2.770560 1_445
O6 Sr0 2.770621 1_555
O7 Sr0 2.772931 1_545
O7 Sr0 2.772970 1_555
O8 Sr0 2.769110 1_454
O8 Sr0 2.769143 1_554
