# generated using pymatgen
data_NaSbTe2
_symmetry_space_group_name_H-M   'P 1'
_cell_length_a   7.97781327
_cell_length_b   7.97781327
_cell_length_c   7.97781327
_cell_angle_alpha   32.02335759
_cell_angle_beta   32.02335759
_cell_angle_gamma   32.02335970
_symmetry_Int_Tables_number   1
_chemical_formula_structural   NaSbTe2
_chemical_formula_sum   'Na1 Sb1 Te2'
_cell_volume   126.85507391
_cell_formula_units_Z   1
loop_
 _symmetry_equiv_pos_site_id
 _symmetry_equiv_pos_as_xyz
  1  'x, y, z'
loop_
 _atom_site_type_symbol
 _atom_site_label
 _atom_site_symmetry_multiplicity
 _atom_site_fract_x
 _atom_site_fract_y
 _atom_site_fract_z
 _atom_site_occupancy
  Na  Na0  1  -0.00000000  -0.00000000  -0.00000000  1
  Sb  Sb0  1  0.50000000  0.50000000  0.50000000  1
  Te  Te0  1  0.24406329  0.24406329  0.24406329  1
  Te  Te1  1  0.75593671  0.75593671  0.75593671  1
loop_
_geom_bond_atom_site_label_1
_geom_bond_atom_site_label_2
_geom_bond_distance
_geom_bond_site_symmetry_2
Na0 Te1 3.249348 1_445
Na0 Te0 3.249348 1_554
Na0 Te1 3.249348 1_544
Na0 Te1 3.249348 1_454
Na0 Te0 3.249348 1_545
Na0 Te0 3.249348 1_455
Sb0 Te0 3.088644 1_556
Sb0 Te1 3.088644 1_554
Sb0 Te0 3.088644 1_655
Sb0 Te0 3.088644 1_565
Sb0 Te1 3.088644 1_455
Sb0 Te1 3.088644 1_545
