# generated using pymatgen
data_ZrSn
_symmetry_space_group_name_H-M   'P 1'
_cell_length_a   5.35037100
_cell_length_b   6.71973100
_cell_length_c   15.69152900
_cell_angle_alpha   90.00000000
_cell_angle_beta   90.00000000
_cell_angle_gamma   90.00000000
_symmetry_Int_Tables_number   1
_chemical_formula_structural   ZrSn
_chemical_formula_sum   'Zr12 Sn12'
_cell_volume   564.15838744
_cell_formula_units_Z   12
loop_
 _symmetry_equiv_pos_site_id
 _symmetry_equiv_pos_as_xyz
  1  'x, y, z'
loop_
 _atom_site_type_symbol
 _atom_site_label
 _atom_site_symmetry_multiplicity
 _atom_site_fract_x
 _atom_site_fract_y
 _atom_site_fract_z
 _atom_site_occupancy
  Zr  Zr0  1  0.25000000  0.87705000  0.84803900  1
  Zr  Zr1  1  0.25000000  0.37169200  0.84098400  1
  Zr  Zr2  1  0.75000000  0.62467500  0.82666500  1
  Zr  Zr3  1  0.25000000  0.62467500  0.67333500  1
  Zr  Zr4  1  0.75000000  0.87705000  0.65196100  1
  Zr  Zr5  1  0.75000000  0.37169200  0.65901600  1
  Zr  Zr6  1  0.25000000  0.62830800  0.34098400  1
  Zr  Zr7  1  0.25000000  0.12295000  0.34803900  1
  Zr  Zr8  1  0.75000000  0.37532500  0.32666500  1
  Zr  Zr9  1  0.25000000  0.37532500  0.17333500  1
  Zr  Zr10  1  0.75000000  0.62830800  0.15901600  1
  Zr  Zr11  1  0.75000000  0.12295000  0.15196100  1
  Sn  Sn0  1  0.75000000  0.86965000  0.98955200  1
  Sn  Sn1  1  0.75000000  0.37670200  0.98996200  1
  Sn  Sn2  1  0.75000000  0.11565000  0.81469600  1
  Sn  Sn3  1  0.25000000  0.11565000  0.68530400  1
  Sn  Sn4  1  0.25000000  0.86965000  0.51044800  1
  Sn  Sn5  1  0.25000000  0.37670200  0.51003800  1
  Sn  Sn6  1  0.75000000  0.62329800  0.48996200  1
  Sn  Sn7  1  0.75000000  0.13035000  0.48955200  1
  Sn  Sn8  1  0.75000000  0.88435000  0.31469600  1
  Sn  Sn9  1  0.25000000  0.88435000  0.18530400  1
  Sn  Sn10  1  0.25000000  0.62329800  0.01003800  1
  Sn  Sn11  1  0.25000000  0.13035000  0.01044800  1
loop_
_geom_bond_atom_site_label_1
_geom_bond_atom_site_label_2
_geom_bond_distance
_geom_bond_site_symmetry_2
Sn0 Zr2 3.040185 1_555
Sn0 Zr11 3.064596 1_566
Sn0 Zr10 3.114668 1_556
Sn0 Sn2 3.203248 1_565
Sn1 Zr2 3.056531 1_555
Sn1 Zr11 3.060939 1_556
Sn1 Zr10 3.145704 1_556
Sn1 Sn2 3.262019 1_555
Sn2 Zr5 2.987940 1_555
Sn2 Zr4 3.015184 1_545
Sn2 Zr0 3.162439 1_645
Sn2 Zr0 3.162439 1_545
Sn2 Zr1 3.207337 1_655
Sn2 Zr1 3.207337 1_555
Sn2 Zr2 3.304561 1_545
Sn2 Sn3 3.358418 1_655
Sn2 Sn3 3.358418 1_555
Sn2 Zr2 3.425663 1_555
Sn3 Zr1 2.987940 1_555
Sn3 Zr0 3.015184 1_545
Sn3 Zr4 3.162439 1_445
Sn3 Zr4 3.162439 1_545
Sn3 Sn4 3.203248 1_545
Sn3 Zr5 3.207337 1_555
Sn3 Zr5 3.207337 1_455
Sn3 Sn5 3.262019 1_555
Sn3 Zr3 3.304561 1_545
Sn3 Zr3 3.425663 1_555
Sn4 Zr3 3.040185 1_555
Sn4 Zr7 3.064596 1_565
Sn4 Zr6 3.114668 1_555
Sn5 Zr3 3.056531 1_555
Sn5 Zr7 3.060939 1_555
Sn5 Zr6 3.145704 1_555
Sn6 Zr8 3.056531 1_555
Sn6 Zr4 3.060939 1_555
Sn6 Zr5 3.145704 1_555
Sn6 Sn8 3.262019 1_555
Sn7 Zr8 3.040185 1_555
Sn7 Zr4 3.064596 1_545
Sn7 Zr5 3.114668 1_555
Sn7 Sn8 3.203248 1_545
Sn8 Zr10 2.987940 1_555
Sn8 Zr11 3.015184 1_565
Sn8 Zr7 3.162439 1_565
Sn8 Zr7 3.162439 1_665
Sn8 Zr6 3.207337 1_655
Sn8 Zr6 3.207337 1_555
Sn8 Zr8 3.304561 1_565
Sn8 Sn9 3.358418 1_555
Sn8 Sn9 3.358418 1_655
Sn8 Zr8 3.425663 1_555
Sn9 Zr6 2.987940 1_555
Sn9 Zr7 3.015184 1_565
Sn9 Zr11 3.162439 1_565
Sn9 Zr11 3.162439 1_465
Sn9 Zr10 3.207337 1_555
Sn9 Zr10 3.207337 1_455
Sn9 Zr9 3.304561 1_565
Sn9 Zr9 3.425663 1_555
Sn10 Zr9 3.056531 1_555
Sn10 Zr0 3.060939 1_554
Sn10 Zr1 3.145704 1_554
Sn10 Sn9 3.262019 1_555
Sn11 Zr9 3.040185 1_555
Sn11 Zr0 3.064596 1_544
Sn11 Zr1 3.114668 1_554
Sn11 Sn9 3.203248 1_545
