# generated using pymatgen
data_Yb3Ga8Ir3
_symmetry_space_group_name_H-M   'P 1'
_cell_length_a   8.23305520
_cell_length_b   8.23305520
_cell_length_c   8.23305520
_cell_angle_alpha   150.15993659
_cell_angle_beta   107.63795939
_cell_angle_gamma   80.18781463
_symmetry_Int_Tables_number   1
_chemical_formula_structural   Yb3Ga8Ir3
_chemical_formula_sum   'Yb3 Ga8 Ir3'
_cell_volume   259.55384134
_cell_formula_units_Z   1
loop_
 _symmetry_equiv_pos_site_id
 _symmetry_equiv_pos_as_xyz
  1  'x, y, z'
loop_
 _atom_site_type_symbol
 _atom_site_label
 _atom_site_symmetry_multiplicity
 _atom_site_fract_x
 _atom_site_fract_y
 _atom_site_fract_z
 _atom_site_occupancy
  Yb  Yb0  1  0.50000000  0.50000000  0.00000000  1
  Yb  Yb1  1  0.17376600  0.17376600  0.00000000  1
  Yb  Yb2  1  0.82623400  0.82623400  0.00000000  1
  Ga  Ga0  1  0.08899100  0.37801700  0.71097500  1
  Ga  Ga1  1  0.91100900  0.62198300  0.28902500  1
  Ga  Ga2  1  0.66704200  0.37801700  0.28902500  1
  Ga  Ga3  1  0.33295800  0.62198300  0.71097500  1
  Ga  Ga4  1  0.80419200  0.16885000  0.63534100  1
  Ga  Ga5  1  0.19580800  0.83115000  0.36465900  1
  Ga  Ga6  1  0.53350900  0.16885000  0.36465900  1
  Ga  Ga7  1  0.46649100  0.83115000  0.63534100  1
  Ir  Ir0  1  0.00000000  0.50000000  0.50000000  1
  Ir  Ir1  1  0.77826100  0.00000000  0.77826100  1
  Ir  Ir2  1  0.22173900  0.00000000  0.22173900  1
loop_
_geom_bond_atom_site_label_1
_geom_bond_atom_site_label_2
_geom_bond_distance
_geom_bond_site_symmetry_2
Ga0 Ir0 2.562568 1_555
Ga0 Ir2 2.620184 1_566
Ga0 Ir2 2.620187 1_555
Ga0 Ga5 2.659638 1_556
Ga0 Ga5 2.659638 1_545
Ga0 Ga4 2.735392 1_455
Ga0 Yb2 3.020700 1_456
Ga0 Yb2 3.020703 1_445
Ga0 Yb0 3.202227 1_556
Ga1 Ir0 2.562568 1_655
Ga1 Ir1 2.620184 1_554
Ga1 Ir1 2.620187 1_565
Ga1 Ga4 2.659638 1_554
Ga1 Ga4 2.659638 1_565
Ga1 Ga5 2.735392 1_655
Ga1 Yb1 3.020700 1_655
Ga1 Yb1 3.020703 1_666
Ga1 Yb0 3.202227 1_555
Ga2 Ir0 2.562568 1_655
Ga2 Ir1 2.620182 1_565
Ga2 Ir1 2.620182 1_554
Ga2 Ga7 2.659638 1_544
Ga2 Ga7 2.659638 1_555
Ga2 Ga6 2.735407 1_555
Ga2 Yb2 3.020707 1_545
Ga2 Yb2 3.020707 1_556
Ga2 Yb0 3.202220 1_555
Ga3 Ir0 2.562568 1_555
Ga3 Ir2 2.620182 1_566
Ga3 Ir2 2.620182 1_555
Ga3 Ga6 2.659638 1_566
Ga3 Ga6 2.659638 1_555
Ga3 Ga7 2.735407 1_555
Ga3 Yb1 3.020707 1_555
Ga3 Yb1 3.020707 1_566
Ga3 Yb0 3.202220 1_556
Ga4 Ir1 2.540431 1_555
Ga4 Yb2 3.186595 1_545
Ga4 Yb2 3.186598 1_556
Ga4 Yb0 3.278408 1_545
Ga4 Yb0 3.278411 1_556
Ga5 Ir2 2.540431 1_565
Ga5 Yb1 3.186595 1_566
Ga5 Yb1 3.186598 1_555
Ga5 Yb0 3.278408 1_566
Ga5 Yb0 3.278411 1_555
Ga6 Ir2 2.540428 1_555
Ga6 Yb2 3.186598 1_556
Ga6 Yb2 3.186598 1_545
Ga6 Yb0 3.278403 1_545
Ga6 Yb0 3.278403 1_556
Ga7 Ir1 2.540428 1_565
Ga7 Yb1 3.186598 1_555
Ga7 Yb1 3.186598 1_566
Ga7 Yb0 3.278403 1_566
Ga7 Yb0 3.278403 1_555
Ir0 Yb2 3.047030 1_445
Ir0 Yb1 3.047030 1_555
Ir0 Yb2 3.047030 1_456
Ir0 Yb1 3.047030 1_566
Ir1 Yb2 3.071945 1_546
Ir1 Yb1 3.071945 1_656
Ir1 Yb0 3.436521 1_556
Ir1 Yb0 3.436521 1_545
Ir2 Yb1 3.071945 1_555
Ir2 Yb2 3.071945 1_445
Ir2 Yb0 3.436521 1_556
Ir2 Yb0 3.436521 1_545
