# generated using pymatgen
data_SrCaSmNbO6
_symmetry_space_group_name_H-M   'P 1'
_cell_length_a   8.38971010
_cell_length_b   8.38044541
_cell_length_c   8.39151701
_cell_angle_alpha   90.00000000
_cell_angle_beta   90.00000000
_cell_angle_gamma   90.00000000
_symmetry_Int_Tables_number   1
_chemical_formula_structural   SrCaSmNbO6
_chemical_formula_sum   'Sr4 Ca4 Sm4 Nb4 O24'
_cell_volume   590.00342814
_cell_formula_units_Z   4
loop_
 _symmetry_equiv_pos_site_id
 _symmetry_equiv_pos_as_xyz
  1  'x, y, z'
loop_
 _atom_site_type_symbol
 _atom_site_label
 _atom_site_symmetry_multiplicity
 _atom_site_fract_x
 _atom_site_fract_y
 _atom_site_fract_z
 _atom_site_occupancy
  Sr  Sr0  1  -0.00000000  0.50000000  0.50000000  1
  Sr  Sr1  1  0.50000000  -0.00000000  -0.00000000  1
  Sr  Sr2  1  -0.00000000  0.50000000  -0.00000000  1
  Sr  Sr3  1  -0.00000000  -0.00000000  0.50000000  1
  Ca  Ca0  1  0.50000000  -0.00000000  0.50000000  1
  Ca  Ca1  1  0.50000000  0.50000000  -0.00000000  1
  Ca  Ca2  1  -0.00000000  -0.00000000  -0.00000000  1
  Ca  Ca3  1  0.50000000  0.50000000  0.50000000  1
  Sm  Sm0  1  0.25301163  0.25023786  0.25083597  1
  Sm  Sm1  1  0.74698837  0.74976214  0.25083597  1
  Sm  Sm2  1  0.74698837  0.25023786  0.74916403  1
  Sm  Sm3  1  0.25301163  0.74976214  0.74916403  1
  Nb  Nb0  1  0.74720129  0.74951767  0.75097708  1
  Nb  Nb1  1  0.25279871  0.25048233  0.75097708  1
  Nb  Nb2  1  0.25279871  0.74951767  0.24902292  1
  Nb  Nb3  1  0.74720129  0.25048233  0.24902292  1
  O  O0  1  0.98300586  0.20756108  0.28577219  1
  O  O1  1  0.01699414  0.79243892  0.28577219  1
  O  O2  1  0.01699414  0.20756108  0.71422781  1
  O  O3  1  0.98300586  0.79243892  0.71422781  1
  O  O4  1  0.28605830  0.98350529  0.20422316  1
  O  O5  1  0.28605830  0.01649471  0.79577684  1
  O  O6  1  0.71394170  0.01649471  0.20422316  1
  O  O7  1  0.71394170  0.98350529  0.79577684  1
  O  O8  1  0.20387694  0.28276405  0.98401256  1
  O  O9  1  0.79612306  0.28276405  0.01598744  1
  O  O10  1  0.20387694  0.71723595  0.01598744  1
  O  O11  1  0.79612306  0.71723595  0.98401256  1
  O  O12  1  0.51692540  0.30544630  0.20387916  1
  O  O13  1  0.48307460  0.69455370  0.20387916  1
  O  O14  1  0.48307460  0.30544630  0.79612084  1
  O  O15  1  0.51692540  0.69455370  0.79612084  1
  O  O16  1  0.21546749  0.51731085  0.29967836  1
  O  O17  1  0.21546749  0.48268915  0.70032164  1
  O  O18  1  0.78453251  0.48268915  0.29967836  1
  O  O19  1  0.78453251  0.51731085  0.70032164  1
  O  O20  1  0.30748632  0.20672649  0.51811560  1
  O  O21  1  0.69251368  0.20672649  0.48188440  1
  O  O22  1  0.30748632  0.79327351  0.48188440  1
  O  O23  1  0.69251368  0.79327351  0.51811560  1
loop_
_geom_bond_atom_site_label_1
_geom_bond_atom_site_label_2
_geom_bond_distance
_geom_bond_site_symmetry_2
Ca0 O23 2.373433 1_545
Ca0 O22 2.373433 1_545
Ca0 O21 2.373433 1_555
Ca0 O20 2.373433 1_555
Ca1 O15 2.367604 1_554
Ca1 O13 2.367604 1_555
Ca1 O12 2.367604 1_555
Ca1 O14 2.367604 1_554
Ca2 O11 2.925598 1_444
Ca2 O10 2.925598 1_545
Ca2 O8 2.925598 1_554
Ca2 O9 2.925598 1_455
Ca2 O5 2.952247 1_554
Ca2 O7 2.952247 1_444
Ca2 O6 2.952247 1_455
Ca2 O4 2.952247 1_545
Ca2 O1 2.965928 1_545
Ca2 O3 2.965928 1_444
Ca2 O2 2.965928 1_554
Ca2 O0 2.965928 1_455
Ca3 O18 2.923231 1_555
Ca3 O19 2.923231 1_555
Ca3 O16 2.923231 1_555
Ca3 O17 2.923231 1_555
Ca3 O22 2.944888 1_555
Ca3 O20 2.944888 1_555
Ca3 O23 2.944888 1_555
Ca3 O21 2.944888 1_555
Ca3 O15 2.975443 1_555
Ca3 O13 2.975443 1_555
Ca3 O12 2.975443 1_555
Ca3 O14 2.975443 1_555
Nb0 O7 2.016036 1_555
Nb0 O19 2.016354 1_555
Nb0 O11 2.016361 1_555
Nb0 O15 2.021906 1_555
Nb0 O3 2.034276 1_555
Nb0 O23 2.040424 1_555
Nb1 O5 2.016036 1_555
Nb1 O17 2.016354 1_555
Nb1 O8 2.016361 1_555
Nb1 O14 2.021906 1_555
Nb1 O2 2.034276 1_555
Nb1 O20 2.040424 1_555
Nb2 O4 2.016036 1_555
Nb2 O16 2.016354 1_555
Nb2 O10 2.016361 1_555
Nb2 O13 2.021906 1_555
Nb2 O1 2.034276 1_555
Nb2 O22 2.040424 1_555
Nb3 O6 2.016036 1_555
Nb3 O18 2.016354 1_555
Nb3 O9 2.016361 1_555
Nb3 O12 2.021906 1_555
Nb3 O0 2.034276 1_555
Nb3 O21 2.040424 1_555
O0 Sm0 2.311993 1_655
O0 Sr3 2.505542 1_655
O0 Sr0 3.042746 1_655
O1 Sm1 2.311993 1_455
O1 Sr3 2.505542 1_565
O1 Sr0 3.042746 1_555
O2 Sm2 2.311993 1_455
O2 Sr3 2.505542 1_555
O2 Sr0 3.042746 1_555
O3 Sm3 2.311993 1_655
O3 Sr3 2.505542 1_665
O3 Sr0 3.042746 1_655
O4 Sm0 2.286177 1_565
O4 Sr1 2.485502 1_565
O5 Sm3 2.286177 1_545
O5 Sr1 2.485502 1_556
O6 Sm1 2.286177 1_545
O6 Sr1 2.485502 1_555
O7 Sm2 2.286177 1_565
O7 Sr1 2.485502 1_566
O8 Sm0 2.292944 1_556
O8 Sr2 2.501608 1_556
O9 Sm2 2.292944 1_554
O9 Sr2 2.501608 1_655
O10 Sm3 2.292944 1_554
O10 Sr2 2.501608 1_555
O11 Sm1 2.292944 1_556
O11 Sr2 2.501608 1_656
O12 Sm0 2.296048 1_555
O13 Sm1 2.296048 1_555
O14 Sm2 2.296048 1_555
O15 Sm3 2.296048 1_555
O16 Sm0 2.297107 1_555
O16 Sr0 2.472778 1_555
O16 Sr2 3.100461 1_555
O17 Sm3 2.297107 1_555
O17 Sr0 2.472778 1_555
O17 Sr2 3.100461 1_556
O18 Sm1 2.297107 1_555
O18 Sr0 2.472778 1_655
O18 Sr2 3.100461 1_655
O19 Sm2 2.297107 1_555
O19 Sr0 2.472778 1_655
O19 Sr2 3.100461 1_656
O20 Sm0 2.317835 1_555
O21 Sm2 2.317835 1_555
O22 Sm3 2.317835 1_555
O23 Sm1 2.317835 1_555
