# generated using pymatgen
data_Ba10Cu5Hg5O21
_symmetry_space_group_name_H-M   'P 1'
_cell_length_a   8.66748000
_cell_length_b   8.67736230
_cell_length_c   10.48068658
_cell_angle_alpha   99.50530534
_cell_angle_beta   109.29105829
_cell_angle_gamma   90.05706890
_symmetry_Int_Tables_number   1
_chemical_formula_structural   Ba10Cu5Hg5O21
_chemical_formula_sum   'Ba10 Cu5 Hg5 O21'
_cell_volume   732.47989799
_cell_formula_units_Z   1
loop_
 _symmetry_equiv_pos_site_id
 _symmetry_equiv_pos_as_xyz
  1  'x, y, z'
loop_
 _atom_site_type_symbol
 _atom_site_label
 _atom_site_symmetry_multiplicity
 _atom_site_fract_x
 _atom_site_fract_y
 _atom_site_fract_z
 _atom_site_occupancy
  Ba  Ba0  1  0.38826500  0.44467100  0.72197300  1
  Ba  Ba1  1  0.58060800  0.04119400  0.70428900  1
  Ba  Ba2  1  0.98098300  0.24140400  0.70443600  1
  Ba  Ba3  1  0.18392000  0.84112600  0.70433700  1
  Ba  Ba4  1  0.78163200  0.63917100  0.70312300  1
  Ba  Ba5  1  0.21836800  0.36082900  0.29687700  1
  Ba  Ba6  1  0.41939200  0.95880600  0.29571100  1
  Ba  Ba7  1  0.81608000  0.15887400  0.29566300  1
  Ba  Ba8  1  0.01901700  0.75859600  0.29556400  1
  Ba  Ba9  1  0.61173500  0.55532900  0.27802700  1
  Cu  Cu0  1  0.40206800  0.69553800  0.50023000  1
  Cu  Cu1  1  0.59793200  0.30446200  0.49977000  1
  Cu  Cu2  1  0.00000000  0.50000000  0.50000000  1
  Cu  Cu3  1  0.20160400  0.10334800  0.50170900  1
  Cu  Cu4  1  0.79839600  0.89665200  0.49829100  1
  Hg  Hg0  1  0.21082000  0.59648800  0.99996600  1
  Hg  Hg1  1  0.40322200  0.21107700  0.00000700  1
  Hg  Hg2  1  0.78918000  0.40351200  0.00003400  1
  Hg  Hg3  1  0.00000000  0.00000000  0.00000000  1
  Hg  Hg4  1  0.59677800  0.78892300  0.99999300  1
  O  O0  1  0.51869000  0.76255700  0.79045000  1
  O  O1  1  0.72096400  0.35636800  0.79054900  1
  O  O2  1  0.11118400  0.56040600  0.79053300  1
  O  O3  1  0.31394700  0.15352300  0.79053400  1
  O  O4  1  0.91760700  0.95837900  0.79396900  1
  O  O5  1  0.27903600  0.64363200  0.20945100  1
  O  O6  1  0.48131000  0.23744300  0.20955000  1
  O  O7  1  0.88881600  0.43959400  0.20946700  1
  O  O8  1  0.08239300  0.04162100  0.20603100  1
  O  O9  1  0.68605300  0.84647700  0.20946600  1
  O  O10  1  0.19548700  0.60338700  0.49924000  1
  O  O11  1  0.40267600  0.19613300  0.49906600  1
  O  O12  1  0.80451300  0.39661300  0.50076000  1
  O  O13  1  0.00000000  0.00000000  0.50000000  1
  O  O14  1  0.59732400  0.80386700  0.50093400  1
  O  O15  1  0.50000000  0.50000000  0.50000000  1
  O  O16  1  0.70094400  0.09897600  0.50042600  1
  O  O17  1  0.09773200  0.29778600  0.49921200  1
  O  O18  1  0.29905600  0.90102400  0.49957400  1
  O  O19  1  0.90226800  0.70221400  0.50078800  1
  O  O20  1  0.50000000  0.50000000  0.00000000  1
loop_
_geom_bond_atom_site_label_1
_geom_bond_atom_site_label_2
_geom_bond_distance
_geom_bond_site_symmetry_2
Ba0 O20 2.707717 1_556
Ba0 O2 2.863429 1_555
Ba0 O0 2.864564 1_555
Ba0 O3 2.866377 1_555
Ba0 O1 2.869855 1_555
Ba0 O15 2.904710 1_555
Ba0 O17 2.922806 1_555
Ba0 O10 2.937226 1_555
Ba0 O11 2.941759 1_555
Ba1 O14 2.749443 1_545
Ba1 O11 2.753140 1_555
Ba1 O18 2.776821 1_545
Ba1 O16 2.780229 1_555
Ba1 O0 2.826330 1_545
Ba1 O3 2.864092 1_555
Ba1 O1 2.868260 1_555
Ba1 O4 2.888764 1_545
Ba2 O12 2.739798 1_555
Ba2 O17 2.770260 1_655
Ba2 O16 2.771788 1_555
Ba2 O13 2.785259 1_655
Ba2 O1 2.817800 1_555
Ba2 O3 2.869760 1_655
Ba2 O2 2.871605 1_655
Ba2 O4 2.883193 1_545
Ba3 O10 2.750384 1_555
Ba3 O18 2.766588 1_555
Ba3 O19 2.769002 1_455
Ba3 O13 2.784237 1_565
Ba3 O3 2.819040 1_565
Ba3 O0 2.859295 1_555
Ba3 O2 2.871808 1_555
Ba3 O4 2.892661 1_455
Ba4 O15 2.767770 1_555
Ba4 O19 2.781478 1_555
Ba4 O12 2.787827 1_555
Ba4 O14 2.802306 1_555
Ba4 O2 2.819048 1_655
Ba4 O1 2.862962 1_555
Ba4 O0 2.870100 1_555
Ba4 O4 2.889434 1_555
Ba5 O15 2.767770 1_555
Ba5 O17 2.781478 1_555
Ba5 O10 2.787827 1_555
Ba5 O11 2.802306 1_555
Ba5 O7 2.819048 1_455
Ba5 O5 2.862962 1_555
Ba5 O6 2.870100 1_555
Ba5 O8 2.889434 1_555
Ba6 O11 2.749443 1_565
Ba6 O14 2.753140 1_555
Ba6 O16 2.776821 1_565
Ba6 O18 2.780229 1_555
Ba6 O6 2.826330 1_565
Ba6 O9 2.864092 1_555
Ba6 O5 2.868260 1_555
Ba6 O8 2.888764 1_565
Ba7 O12 2.750384 1_555
Ba7 O16 2.766588 1_555
Ba7 O17 2.769002 1_655
Ba7 O13 2.784237 1_655
Ba7 O9 2.819040 1_545
Ba7 O6 2.859295 1_555
Ba7 O7 2.871808 1_555
Ba7 O8 2.892661 1_655
Ba8 O10 2.739798 1_555
Ba8 O19 2.770260 1_455
Ba8 O18 2.771788 1_555
Ba8 O13 2.785259 1_565
Ba8 O5 2.817800 1_555
Ba8 O9 2.869760 1_455
Ba8 O7 2.871605 1_455
Ba8 O8 2.883193 1_565
Ba9 O20 2.707717 1_555
Ba9 O7 2.863429 1_555
Ba9 O6 2.864564 1_555
Ba9 O9 2.866377 1_555
Ba9 O5 2.869855 1_555
Ba9 O15 2.904710 1_555
Ba9 O19 2.922806 1_555
Ba9 O12 2.937226 1_555
Ba9 O14 2.941759 1_555
Cu0 O15 1.897986 1_555
Cu0 O14 1.932383 1_555
Cu0 O10 1.956442 1_555
Cu0 O18 1.994934 1_555
Cu1 O15 1.897986 1_555
Cu1 O11 1.932383 1_555
Cu1 O12 1.956442 1_555
Cu1 O16 1.994934 1_555
Cu2 O10 1.919393 1_555
Cu2 O12 1.919393 1_455
Cu2 O17 1.949190 1_555
Cu2 O19 1.949190 1_455
Cu3 O17 1.913101 1_555
Cu3 O11 1.929450 1_555
Cu3 O18 1.949023 1_545
Cu3 O13 1.956743 1_555
Cu4 O19 1.913101 1_555
Cu4 O14 1.929450 1_555
Cu4 O16 1.949023 1_565
Cu4 O13 1.956743 1_665
Hg0 O2 2.044958 1_555
Hg0 O5 2.045119 1_556
Hg0 O20 2.643302 1_556
Hg1 O3 2.045163 1_554
Hg1 O6 2.045764 1_555
Hg1 O20 2.642921 1_555
Hg2 O7 2.044958 1_555
Hg2 O1 2.045119 1_554
Hg2 O20 2.643302 1_555
Hg3 O8 2.006544 1_555
Hg3 O4 2.006544 1_444
Hg4 O9 2.045163 1_556
Hg4 O0 2.045764 1_555
Hg4 O20 2.642921 1_556
