# generated using pymatgen
data_KSNO
_symmetry_space_group_name_H-M   'P 1'
_cell_length_a   6.37848500
_cell_length_b   7.26311700
_cell_length_c   7.91078100
_cell_angle_alpha   90.00000000
_cell_angle_beta   90.00000000
_cell_angle_gamma   90.00000000
_symmetry_Int_Tables_number   1
_chemical_formula_structural   KSNO
_chemical_formula_sum   'K4 S4 N4 O4'
_cell_volume   366.48815317
_cell_formula_units_Z   4
loop_
 _symmetry_equiv_pos_site_id
 _symmetry_equiv_pos_as_xyz
  1  'x, y, z'
loop_
 _atom_site_type_symbol
 _atom_site_label
 _atom_site_symmetry_multiplicity
 _atom_site_fract_x
 _atom_site_fract_y
 _atom_site_fract_z
 _atom_site_occupancy
  K  K0  1  0.24833300  0.35562000  0.63130800  1
  K  K1  1  0.25166700  0.14438000  0.13130800  1
  K  K2  1  0.74833300  0.64438000  0.36869200  1
  K  K3  1  0.75166700  0.85562000  0.86869200  1
  S  S0  1  0.24736800  0.84287400  0.61969700  1
  S  S1  1  0.25263200  0.65712600  0.11969700  1
  S  S2  1  0.74736800  0.15712600  0.38030300  1
  S  S3  1  0.75263200  0.34287400  0.88030300  1
  N  N0  1  0.04822900  0.73917300  0.61285200  1
  N  N1  1  0.45177100  0.76082700  0.11285200  1
  N  N2  1  0.54822900  0.26082700  0.38714800  1
  N  N3  1  0.95177100  0.23917300  0.88714800  1
  O  O0  1  0.95518500  0.25962100  0.38592600  1
  O  O1  1  0.54481500  0.24037900  0.88592600  1
  O  O2  1  0.45518500  0.74037900  0.61407400  1
  O  O3  1  0.04481500  0.75962100  0.11407400  1
loop_
_geom_bond_atom_site_label_1
_geom_bond_atom_site_label_2
_geom_bond_distance
_geom_bond_site_symmetry_2
K0 O0 2.783986 1_455
K0 N2 2.804250 1_555
K0 O1 2.886863 1_555
K0 N3 2.896495 1_455
K0 N0 3.067742 1_555
K0 O2 3.093367 1_555
K1 O1 2.783986 1_554
K1 N3 2.804250 1_454
K1 O0 2.886863 1_455
K1 N2 2.896495 1_555
K1 N1 3.067742 1_545
K1 O3 3.093367 1_545
K2 O2 2.783986 1_555
K2 N0 2.804250 1_655
K2 O3 2.886863 1_655
K2 N1 2.896495 1_555
K2 N2 3.067742 1_555
K2 O0 3.093367 1_555
K3 O3 2.783986 1_656
K3 N1 2.804250 1_556
K3 O2 2.886863 1_555
K3 N0 2.896495 1_655
K3 N3 3.067742 1_565
K3 O1 3.093367 1_565
N0 S0 1.477719 1_555
N1 S1 1.477719 1_555
N2 S2 1.477719 1_555
N3 S3 1.477719 1_555
O0 S2 1.520941 1_555
O1 S3 1.520941 1_555
O2 S0 1.520941 1_555
O3 S1 1.520941 1_555
