# generated using pymatgen
data_TiCo3O8
_symmetry_space_group_name_H-M   'P 1'
_cell_length_a   5.75227545
_cell_length_b   8.30423929
_cell_length_c   5.99078783
_cell_angle_alpha   93.31507514
_cell_angle_beta   89.99587200
_cell_angle_gamma   90.00365380
_symmetry_Int_Tables_number   1
_chemical_formula_structural   TiCo3O8
_chemical_formula_sum   'Ti2 Co6 O16'
_cell_volume   285.69071446
_cell_formula_units_Z   2
loop_
 _symmetry_equiv_pos_site_id
 _symmetry_equiv_pos_as_xyz
  1  'x, y, z'
loop_
 _atom_site_type_symbol
 _atom_site_label
 _atom_site_symmetry_multiplicity
 _atom_site_fract_x
 _atom_site_fract_y
 _atom_site_fract_z
 _atom_site_occupancy
  Ti  Ti0  1  0.00001900  0.98680600  0.02856800  1
  Ti  Ti1  1  0.50004200  0.48701300  0.52813200  1
  Co  Co0  1  0.74912100  0.75365700  0.74415100  1
  Co  Co1  1  0.00001800  0.50238900  0.49206100  1
  Co  Co2  1  0.25087900  0.75364300  0.74414900  1
  Co  Co3  1  0.24911400  0.25363600  0.24415800  1
  Co  Co4  1  0.50000300  0.00232500  0.99222600  1
  Co  Co5  1  0.75087400  0.25362300  0.24416000  1
  O  O0  1  0.99994300  0.27262100  0.45505900  1
  O  O1  1  0.49993700  0.77254600  0.95508200  1
  O  O2  1  0.50004500  0.23324000  0.03353600  1
  O  O3  1  0.00005800  0.73333600  0.53348800  1
  O  O4  1  0.26320900  0.02384700  0.21547600  1
  O  O5  1  0.76319000  0.52389400  0.71521500  1
  O  O6  1  0.49994600  0.26124000  0.45279300  1
  O  O7  1  0.99995300  0.76110500  0.95279100  1
  O  O8  1  0.73667800  0.02385100  0.21546200  1
  O  O9  1  0.23673600  0.52389700  0.71519900  1
  O  O10  1  0.75695000  0.47739200  0.28754800  1
  O  O11  1  0.25688700  0.97736600  0.78781300  1
  O  O12  1  0.00004400  0.23382300  0.04380600  1
  O  O13  1  0.50005000  0.73401500  0.54376800  1
  O  O14  1  0.24313100  0.47737800  0.28754600  1
  O  O15  1  0.74317100  0.97735800  0.78781400  1
loop_
_geom_bond_atom_site_label_1
_geom_bond_atom_site_label_2
_geom_bond_distance
_geom_bond_site_symmetry_2
Co0 O15 1.861270 1_555
Co0 O13 1.870284 1_555
Co0 O5 1.907578 1_555
Co0 O7 1.907684 1_555
Co0 O1 1.911231 1_555
Co0 O3 1.918313 1_655
Co1 O10 1.862776 1_455
Co1 O14 1.862874 1_555
Co1 O0 1.908106 1_455
Co1 O9 1.909350 1_555
Co1 O5 1.909745 1_455
Co1 O3 1.919545 1_555
Co2 O11 1.861454 1_555
Co2 O13 1.870595 1_555
Co2 O9 1.907449 1_555
Co2 O7 1.907970 1_455
Co2 O1 1.910822 1_555
Co2 O3 1.917918 1_555
Co3 O14 1.861475 1_555
Co3 O12 1.870233 1_555
Co3 O6 1.907658 1_555
Co3 O4 1.907750 1_555
Co3 O0 1.911093 1_455
Co3 O2 1.918158 1_555
Co4 O11 1.862570 1_545
Co4 O15 1.862683 1_545
Co4 O1 1.908247 1_545
Co4 O8 1.909589 1_556
Co4 O4 1.910013 1_556
Co4 O2 1.919231 1_556
Co5 O10 1.861703 1_555
Co5 O12 1.870560 1_655
Co5 O8 1.907628 1_555
Co5 O6 1.907937 1_555
Co5 O0 1.910771 1_555
Co5 O2 1.917840 1_555
O4 Ti0 1.897570 1_545
O5 Ti1 1.897817 1_555
O6 Ti1 1.902890 1_555
O7 Ti0 1.902784 1_656
O8 Ti0 1.898121 1_645
O9 Ti1 1.898392 1_555
O10 Ti1 2.062521 1_555
O11 Ti0 2.063073 1_556
O12 Ti0 2.048038 1_545
O13 Ti1 2.047883 1_555
O14 Ti1 2.062683 1_555
O15 Ti0 2.063128 1_656
