# generated using pymatgen
data_Li4TiNi3O8
_symmetry_space_group_name_H-M   'P 1'
_cell_length_a   5.87056275
_cell_length_b   10.12995792
_cell_length_c   5.89255746
_cell_angle_alpha   106.66528906
_cell_angle_beta   119.57931175
_cell_angle_gamma   89.47286267
_symmetry_Int_Tables_number   1
_chemical_formula_structural   Li4TiNi3O8
_chemical_formula_sum   'Li8 Ti2 Ni6 O16'
_cell_volume   288.24382994
_cell_formula_units_Z   2
loop_
 _symmetry_equiv_pos_site_id
 _symmetry_equiv_pos_as_xyz
  1  'x, y, z'
loop_
 _atom_site_type_symbol
 _atom_site_label
 _atom_site_symmetry_multiplicity
 _atom_site_fract_x
 _atom_site_fract_y
 _atom_site_fract_z
 _atom_site_occupancy
  Li  Li0  1  0.26350700  0.74993000  0.49927300  1
  Li  Li1  1  0.73330200  0.25003600  0.49832500  1
  Li  Li2  1  0.00037800  0.00390700  0.49881500  1
  Li  Li3  1  0.49899100  0.49723500  0.50185800  1
  Li  Li4  1  0.49424800  0.99520900  0.48408300  1
  Li  Li5  1  0.01036300  0.50298800  0.51485000  1
  Li  Li6  1  0.75612600  0.74902400  0.49995800  1
  Li  Li7  1  0.25120100  0.25070000  0.50528500  1
  Ti  Ti0  1  0.52654800  0.50093700  0.02862900  1
  Ti  Ti1  1  0.97486500  0.99897600  0.97232000  1
  Ni  Ni0  1  0.75409100  0.75051300  0.99814800  1
  Ni  Ni1  1  0.24463100  0.25029600  0.00305700  1
  Ni  Ni2  1  0.00985300  0.49949100  0.00645700  1
  Ni  Ni3  1  0.25599800  0.74923600  0.00176100  1
  Ni  Ni4  1  0.74321600  0.25033400  0.99790400  1
  Ni  Ni5  1  0.48911200  0.00000200  0.99297500  1
  O  O0  1  0.91601900  0.62486500  0.79302800  1
  O  O1  1  0.37366800  0.13009600  0.78497300  1
  O  O2  1  0.11184800  0.37201200  0.21586100  1
  O  O3  1  0.59590600  0.87423000  0.20692400  1
  O  O4  1  0.64439400  0.87770400  0.75034700  1
  O  O5  1  0.14089000  0.37807100  0.78909100  1
  O  O6  1  0.33639300  0.12968600  0.22405900  1
  O  O7  1  0.87893300  0.61448400  0.23508700  1
  O  O8  1  0.84792600  0.10764200  0.21853700  1
  O  O9  1  0.39783800  0.62068100  0.24984400  1
  O  O10  1  0.13775800  0.88705000  0.76387500  1
  O  O11  1  0.61094300  0.38401500  0.76344500  1
  O  O12  1  0.37949100  0.62636400  0.78334600  1
  O  O13  1  0.86741700  0.11953300  0.75292000  1
  O  O14  1  0.62558900  0.38068100  0.24777100  1
  O  O15  1  0.12855800  0.87407000  0.21719600  1
loop_
_geom_bond_atom_site_label_1
_geom_bond_atom_site_label_2
_geom_bond_distance
_geom_bond_site_symmetry_2
Li0 O9 2.125539 1_555
Li0 O4 2.133753 1_555
Li0 O7 2.182921 1_455
Li0 O10 2.186479 1_555
Li0 O15 2.202790 1_555
Li0 O12 2.212072 1_555
Li1 O14 2.124779 1_555
Li1 O13 2.137862 1_555
Li1 O11 2.161571 1_555
Li1 O6 2.175297 1_555
Li1 O8 2.228220 1_555
Li1 O5 2.253494 1_655
Li2 O8 2.037574 1_455
Li2 O10 2.071346 1_545
Li2 O13 2.086694 1_455
Li2 O1 2.108745 1_555
Li2 O15 2.238895 1_545
Li2 O3 2.247569 1_445
Li3 O11 2.030588 1_555
Li3 O14 2.063139 1_555
Li3 O9 2.074241 1_555
Li3 O2 2.158735 1_555
Li3 O12 2.200431 1_555
Li3 O0 2.290843 1_555
Li4 O15 2.048487 1_555
Li4 O3 2.079932 1_555
Li4 O4 2.083751 1_555
Li4 O13 2.091676 1_565
Li4 O6 2.198698 1_565
Li4 O1 2.311589 1_565
Li5 O0 2.059343 1_455
Li5 O12 2.071692 1_555
Li5 O7 2.093978 1_455
Li5 O14 2.130187 1_455
Li5 O5 2.175392 1_555
Li5 O2 2.213655 1_555
Li6 O4 2.035417 1_555
Li6 O9 2.043860 1_555
Li6 O7 2.164712 1_555
Li6 O10 2.182557 1_655
Li6 O0 2.251435 1_555
Li6 O3 2.259574 1_555
Li7 O6 2.034889 1_555
Li7 O11 2.073749 1_555
Li7 O1 2.166688 1_555
Li7 O5 2.167276 1_555
Li7 O2 2.212267 1_555
Li7 O8 2.295512 1_455
Ni0 O3 2.041715 1_556
Ni0 O0 2.052878 1_555
Ni0 O4 2.083837 1_555
Ni0 O15 2.094744 1_656
Ni0 O12 2.099920 1_555
Ni0 O7 2.111851 1_556
Ni1 O6 1.920080 1_555
Ni1 O1 1.937646 1_554
Ni1 O2 1.939287 1_555
Ni1 O5 1.949187 1_554
Ni1 O13 2.131365 1_454
Ni1 O14 2.145607 1_555
Ni2 O0 1.928052 1_454
Ni2 O2 1.928467 1_555
Ni2 O5 1.948566 1_554
Ni2 O7 1.966795 1_455
Ni2 O9 2.137401 1_555
Ni2 O11 2.163795 1_454
Ni3 O12 1.927956 1_554
Ni3 O15 1.941613 1_555
Ni3 O0 1.953842 1_454
Ni3 O3 1.957924 1_555
Ni3 O9 2.096762 1_555
Ni3 O10 2.130652 1_554
Ni4 O1 2.061336 1_555
Ni4 O2 2.061348 1_656
Ni4 O14 2.063993 1_556
Ni4 O13 2.072557 1_555
Ni4 O11 2.083288 1_555
Ni4 O8 2.104753 1_556
Ni5 O3 1.931821 1_546
Ni5 O1 1.946332 1_555
Ni5 O10 1.947968 1_545
Ni5 O8 1.959487 1_556
Ni5 O6 2.131038 1_556
Ni5 O4 2.158672 1_545
O4 Ti1 1.897579 1_555
O5 Ti0 2.134604 1_556
O6 Ti1 2.067629 1_444
O7 Ti0 1.959366 1_555
O8 Ti1 2.002073 1_544
O9 Ti0 1.946818 1_555
O10 Ti1 2.012343 1_455
O11 Ti0 1.944750 1_556
O12 Ti0 2.061529 1_556
O13 Ti1 1.909712 1_545
O14 Ti0 1.907221 1_555
O15 Ti1 2.058636 1_454
