# generated using pymatgen
data_Li5GeAs3
_symmetry_space_group_name_H-M   'P 1'
_cell_length_a   7.39579122
_cell_length_b   7.39579122
_cell_length_c   8.67338108
_cell_angle_alpha   73.04044451
_cell_angle_beta   73.04044451
_cell_angle_gamma   48.48248214
_symmetry_Int_Tables_number   1
_chemical_formula_structural   Li5GeAs3
_chemical_formula_sum   'Li10 Ge2 As6'
_cell_volume   336.55232534
_cell_formula_units_Z   2
loop_
 _symmetry_equiv_pos_site_id
 _symmetry_equiv_pos_as_xyz
  1  'x, y, z'
loop_
 _atom_site_type_symbol
 _atom_site_label
 _atom_site_symmetry_multiplicity
 _atom_site_fract_x
 _atom_site_fract_y
 _atom_site_fract_z
 _atom_site_occupancy
  Li  Li0  1  0.58527000  0.08105100  0.08503600  1
  Li  Li1  1  0.25234900  0.74765100  0.75000000  1
  Li  Li2  1  0.58896400  0.08265800  0.57944200  1
  Li  Li3  1  0.91894900  0.41473000  0.41496400  1
  Li  Li4  1  0.41103600  0.91734200  0.42055800  1
  Li  Li5  1  0.74765100  0.25234900  0.25000000  1
  Li  Li6  1  0.08265800  0.58896400  0.07944200  1
  Li  Li7  1  0.91734200  0.41103600  0.92055800  1
  Li  Li8  1  0.41473000  0.91894900  0.91496400  1
  Li  Li9  1  0.08105100  0.58527000  0.58503600  1
  Ge  Ge0  1  0.23496100  0.76503900  0.25000000  1
  Ge  Ge1  1  0.76503900  0.23496100  0.75000000  1
  As  As0  1  0.14634100  0.17563000  0.67200100  1
  As  As1  1  0.85365900  0.82437000  0.32799900  1
  As  As2  1  0.17563000  0.14634100  0.17200100  1
  As  As3  1  0.50000000  0.50000000  0.00000000  1
  As  As4  1  0.82437000  0.85365900  0.82799900  1
  As  As5  1  0.50000000  0.50000000  0.50000000  1
loop_
_geom_bond_atom_site_label_1
_geom_bond_atom_site_label_2
_geom_bond_distance
_geom_bond_site_symmetry_2
Ge0 Li5 2.959492 1_465
Ge0 Li4 3.032064 1_555
Ge0 Li6 3.032064 1_555
Ge0 Li9 3.054543 1_555
Ge0 Li8 3.054543 1_554
Ge0 Li5 3.113628 1_555
Ge1 Li1 2.959492 1_645
Ge1 Li7 3.032064 1_555
Ge1 Li2 3.032064 1_555
Ge1 Li0 3.054543 1_556
Ge1 Li3 3.054543 1_555
Ge1 Li1 3.113628 1_555
As0 Ge1 2.454082 1_455
As0 Li7 2.587993 1_455
As0 Li1 2.619439 1_545
As0 Li3 2.621127 1_455
As0 Li9 2.630703 1_555
As0 Li8 2.663752 1_545
As0 Li4 2.686949 1_545
As0 Li2 2.763741 1_555
As1 Ge0 2.454082 1_655
As1 Li6 2.587993 1_655
As1 Li5 2.619439 1_565
As1 Li9 2.621127 1_655
As1 Li3 2.630703 1_555
As1 Li0 2.663752 1_565
As1 Li2 2.686949 1_565
As1 Li4 2.763741 1_555
As2 Ge0 2.454082 1_545
As2 Li4 2.587993 1_545
As2 Li5 2.619439 1_455
As2 Li8 2.621127 1_544
As2 Li0 2.630703 1_555
As2 Li3 2.663752 1_455
As2 Li7 2.686949 1_454
As2 Li6 2.763741 1_555
As3 Li7 2.601171 1_554
As3 Li6 2.601171 1_555
As3 Li8 2.624853 1_554
As3 Li0 2.624853 1_555
As3 Li5 2.638898 1_555
As3 Li1 2.638898 1_554
As3 Ge0 2.700477 1_555
As3 Ge1 2.700477 1_554
As4 Ge1 2.454082 1_565
As4 Li2 2.587993 1_565
As4 Li1 2.619439 1_655
As4 Li0 2.621127 1_566
As4 Li8 2.630703 1_555
As4 Li9 2.663752 1_655
As4 Li6 2.686949 1_656
As4 Li7 2.763741 1_555
As5 Li4 2.601171 1_555
As5 Li2 2.601171 1_555
As5 Li3 2.624853 1_555
As5 Li9 2.624853 1_555
As5 Li1 2.638898 1_555
As5 Li5 2.638898 1_555
As5 Ge1 2.700477 1_555
As5 Ge0 2.700477 1_555
