# generated using pymatgen
data_V18P9C2
_symmetry_space_group_name_H-M   'P 1'
_cell_length_a   3.19136200
_cell_length_b   13.05851200
_cell_length_c   17.07361800
_cell_angle_alpha   90.00000000
_cell_angle_beta   90.00000000
_cell_angle_gamma   90.00000000
_symmetry_Int_Tables_number   1
_chemical_formula_structural   V18P9C2
_chemical_formula_sum   'V36 P18 C4'
_cell_volume   711.53345140
_cell_formula_units_Z   2
loop_
 _symmetry_equiv_pos_site_id
 _symmetry_equiv_pos_as_xyz
  1  'x, y, z'
loop_
 _atom_site_type_symbol
 _atom_site_label
 _atom_site_symmetry_multiplicity
 _atom_site_fract_x
 _atom_site_fract_y
 _atom_site_fract_z
 _atom_site_occupancy
  V  V0  1  0.50000000  0.00000000  0.50000000  1
  V  V1  1  0.50000000  0.00000000  0.00000000  1
  V  V2  1  0.00000000  0.50000000  0.50000000  1
  V  V3  1  0.00000000  0.50000000  0.00000000  1
  V  V4  1  0.00000000  0.56235500  0.25000000  1
  V  V5  1  0.00000000  0.43764500  0.75000000  1
  V  V6  1  0.50000000  0.40010800  0.25000000  1
  V  V7  1  0.50000000  0.59989200  0.75000000  1
  V  V8  1  0.50000000  0.09804800  0.25000000  1
  V  V9  1  0.50000000  0.90195200  0.75000000  1
  V  V10  1  0.50000000  0.89377500  0.25000000  1
  V  V11  1  0.50000000  0.10622500  0.75000000  1
  V  V12  1  0.00000000  0.00347800  0.36685800  1
  V  V13  1  0.00000000  0.99652200  0.63314200  1
  V  V14  1  0.00000000  0.00347800  0.13314200  1
  V  V15  1  0.00000000  0.99652200  0.86685800  1
  V  V16  1  0.00000000  0.16104500  0.49889100  1
  V  V17  1  0.00000000  0.83895500  0.50110800  1
  V  V18  1  0.00000000  0.16104500  0.00110900  1
  V  V19  1  0.00000000  0.83895500  0.99889200  1
  V  V20  1  0.00000000  0.75933200  0.33808500  1
  V  V21  1  0.00000000  0.24066800  0.66191500  1
  V  V22  1  0.00000000  0.75933200  0.16191500  1
  V  V23  1  0.00000000  0.24066800  0.83808500  1
  V  V24  1  0.00000000  0.24463700  0.33023200  1
  V  V25  1  0.00000000  0.75536300  0.66976800  1
  V  V26  1  0.00000000  0.24463700  0.16976800  1
  V  V27  1  0.00000000  0.75536300  0.83023200  1
  V  V28  1  0.50000000  0.34622500  0.44205000  1
  V  V29  1  0.50000000  0.65377500  0.55795000  1
  V  V30  1  0.50000000  0.34622500  0.05795000  1
  V  V31  1  0.50000000  0.65377500  0.94205000  1
  V  V32  1  0.50000000  0.57195700  0.37806900  1
  V  V33  1  0.50000000  0.42804300  0.62193100  1
  V  V34  1  0.50000000  0.57195700  0.12193100  1
  V  V35  1  0.50000000  0.42804300  0.87806900  1
  P  P0  1  0.00000000  0.43316800  0.35763800  1
  P  P1  1  0.00000000  0.56683200  0.64236200  1
  P  P2  1  0.00000000  0.43316800  0.14236200  1
  P  P3  1  0.00000000  0.56683200  0.85763800  1
  P  P4  1  0.00000000  0.67100500  0.45381600  1
  P  P5  1  0.00000000  0.32899500  0.54618400  1
  P  P6  1  0.00000000  0.67100500  0.04618400  1
  P  P7  1  0.00000000  0.32899500  0.95381600  1
  P  P8  1  0.50000000  0.13931200  0.39851000  1
  P  P9  1  0.50000000  0.86068800  0.60149000  1
  P  P10  1  0.50000000  0.13931200  0.10149000  1
  P  P11  1  0.50000000  0.86068800  0.89851000  1
  P  P12  1  0.50000000  0.87053500  0.39641700  1
  P  P13  1  0.50000000  0.12946500  0.60358300  1
  P  P14  1  0.50000000  0.87053500  0.10358300  1
  P  P15  1  0.50000000  0.12946500  0.89641700  1
  P  P16  1  0.50000000  0.69205800  0.25000000  1
  P  P17  1  0.50000000  0.30794200  0.75000000  1
  C  C0  1  0.00000000  0.99600900  0.25000000  1
  C  C1  1  0.00000000  0.00399100  0.75000000  1
  C  C2  1  0.50000000  0.25017600  0.25000000  1
  C  C3  1  0.50000000  0.74982400  0.75000000  1
loop_
_geom_bond_atom_site_label_1
_geom_bond_atom_site_label_2
_geom_bond_distance
_geom_bond_site_symmetry_2
P0 V28 2.431526 1_455
P0 V28 2.431526 1_555
P0 V32 2.439794 1_455
P0 V32 2.439794 1_555
P0 V6 2.471836 1_455
P0 V6 2.471836 1_555
P0 V4 2.494661 1_555
P0 V24 2.506007 1_555
P0 V2 2.582564 1_555
P1 V29 2.431526 1_455
P1 V29 2.431526 1_555
P1 V33 2.439794 1_455
P1 V33 2.439794 1_555
P1 V7 2.471836 1_455
P1 V7 2.471836 1_555
P1 V5 2.494661 1_555
P1 V25 2.506007 1_555
P1 V2 2.582564 1_555
P2 V30 2.431526 1_555
P2 V30 2.431526 1_455
P2 V34 2.439794 1_455
P2 V34 2.439794 1_555
P2 V6 2.471836 1_455
P2 V6 2.471836 1_555
P2 V4 2.494661 1_555
P2 V26 2.506007 1_555
P2 V3 2.582564 1_555
P3 V31 2.431526 1_555
P3 V31 2.431526 1_455
P3 V35 2.439794 1_455
P3 V35 2.439794 1_555
P3 V7 2.471836 1_455
P3 V7 2.471836 1_555
P3 V5 2.494661 1_555
P3 V27 2.506007 1_555
P3 V3 2.582564 1_556
P4 V20 2.287956 1_555
P4 V17 2.337091 1_555
P4 V2 2.368202 1_555
P4 V29 2.399564 1_455
P4 V29 2.399564 1_555
P4 V32 2.427281 1_455
P4 V32 2.427281 1_555
P5 V21 2.287956 1_555
P5 V16 2.337097 1_555
P5 V2 2.368202 1_555
P5 V28 2.399564 1_455
P5 V28 2.399564 1_555
P5 V33 2.427281 1_455
P5 V33 2.427281 1_555
P6 V22 2.287956 1_555
P6 V19 2.337091 1_554
P6 V3 2.368202 1_555
P6 V31 2.399564 1_554
P6 V31 2.399564 1_454
P6 V34 2.427281 1_555
P6 V34 2.427281 1_455
P7 V23 2.287956 1_555
P7 V18 2.337097 1_556
P7 V3 2.368202 1_556
P7 V30 2.399564 1_556
P7 V30 2.399564 1_456
P7 V35 2.427281 1_555
P7 V35 2.427281 1_455
P8 V16 2.358830 1_655
P8 V16 2.358830 1_555
P8 V24 2.407669 1_555
P8 V24 2.407669 1_655
P8 V12 2.446339 1_655
P8 V12 2.446339 1_555
P8 V0 2.512393 1_555
P8 V8 2.592226 1_555
P8 V28 2.802373 1_555
P9 V17 2.358843 1_555
P9 V17 2.358843 1_655
P9 V25 2.407669 1_555
P9 V25 2.407669 1_655
P9 V13 2.446339 1_655
P9 V13 2.446339 1_555
P9 V0 2.512393 1_565
P9 V9 2.592226 1_555
P9 V29 2.802373 1_555
P10 V18 2.358830 1_655
P10 V18 2.358830 1_555
P10 V26 2.407669 1_655
P10 V26 2.407669 1_555
P10 V14 2.446339 1_655
P10 V14 2.446339 1_555
P10 V1 2.512393 1_555
P10 V8 2.592226 1_555
P10 V30 2.802373 1_555
P11 V19 2.358843 1_655
P11 V19 2.358843 1_555
P11 V27 2.407669 1_555
P11 V27 2.407669 1_655
P11 V15 2.446339 1_555
P11 V15 2.446339 1_655
P11 V1 2.512393 1_566
P11 V9 2.592226 1_555
P11 V31 2.802373 1_555
P12 V20 2.376303 1_655
P12 V20 2.376303 1_555
P12 V12 2.411374 1_565
P12 V12 2.411374 1_665
P12 V17 2.431307 1_655
P12 V17 2.431307 1_555
P12 V0 2.446614 1_565
P12 V10 2.518222 1_555
P13 V21 2.376303 1_655
P13 V21 2.376303 1_555
P13 V13 2.411374 1_545
P13 V13 2.411374 1_645
P13 V16 2.431320 1_655
P13 V16 2.431320 1_555
P13 V0 2.446614 1_555
P13 V11 2.518222 1_555
P14 V22 2.376303 1_655
P14 V22 2.376303 1_555
P14 V14 2.411374 1_565
P14 V14 2.411374 1_665
P14 V19 2.431307 1_654
P14 V19 2.431307 1_554
P14 V1 2.446614 1_565
P14 V10 2.518222 1_555
P15 V23 2.376303 1_655
P15 V23 2.376303 1_555
P15 V15 2.411374 1_545
P15 V15 2.411374 1_645
P15 V18 2.431320 1_656
P15 V18 2.431320 1_556
P15 V1 2.446614 1_556
P15 V11 2.518222 1_555
P16 V4 2.326997 1_555
P16 V4 2.326997 1_655
P16 V20 2.362152 1_655
P16 V20 2.362152 1_555
P16 V22 2.362152 1_655
P16 V22 2.362152 1_555
P16 V10 2.634124 1_555
P16 V32 2.690895 1_555
P16 V34 2.690895 1_555
P17 V5 2.326997 1_655
P17 V5 2.326997 1_555
P17 V21 2.362152 1_555
P17 V23 2.362152 1_655
P17 V21 2.362152 1_655
P17 V23 2.362152 1_555
P17 V11 2.634124 1_555
P17 V33 2.690895 1_555
P17 V35 2.690895 1_555
C0 V14 1.997571 1_565
C0 V12 1.997571 1_565
C0 V8 2.078868 1_565
C0 V8 2.078868 1_465
C0 V10 2.080502 1_555
C0 V10 2.080502 1_455
C1 V15 1.997571 1_545
C1 V13 1.997571 1_545
C1 V9 2.078868 1_445
C1 V9 2.078868 1_545
C1 V11 2.080502 1_555
C1 V11 2.080502 1_455
C2 V6 1.957889 1_555
C2 V8 1.986565 1_555
C2 V26 2.104262 1_655
C2 V26 2.104262 1_555
C2 V24 2.104262 1_655
C2 V24 2.104262 1_555
C3 V7 1.957889 1_555
C3 V9 1.986565 1_555
C3 V27 2.104262 1_655
C3 V27 2.104262 1_555
C3 V25 2.104262 1_655
C3 V25 2.104262 1_555
