# generated using pymatgen
data_Sm4Tm4MgO12
_symmetry_space_group_name_H-M   'P 1'
_cell_length_a   5.75672452
_cell_length_b   7.87560800
_cell_length_c   6.26473540
_cell_angle_alpha   90.00000000
_cell_angle_beta   89.20619072
_cell_angle_gamma   90.00000000
_symmetry_Int_Tables_number   1
_chemical_formula_structural   Sm4Tm4MgO12
_chemical_formula_sum   'Sm4 Tm4 Mg1 O12'
_cell_volume   284.00147076
_cell_formula_units_Z   1
loop_
 _symmetry_equiv_pos_site_id
 _symmetry_equiv_pos_as_xyz
  1  'x, y, z'
loop_
 _atom_site_type_symbol
 _atom_site_label
 _atom_site_symmetry_multiplicity
 _atom_site_fract_x
 _atom_site_fract_y
 _atom_site_fract_z
 _atom_site_occupancy
  Sm  Sm0  1  0.00484900  0.25000000  0.10175300  1
  Sm  Sm1  1  0.44316700  0.75000000  0.44574300  1
  Sm  Sm2  1  0.46684700  0.25000000  0.37633100  1
  Sm  Sm3  1  0.95081700  0.75000000  0.06125400  1
  Tm  Tm0  1  0.97325200  0.98317800  0.55407600  1
  Tm  Tm1  1  0.97325200  0.51682200  0.55407600  1
  Tm  Tm2  1  0.46654000  0.95635700  0.96193500  1
  Tm  Tm3  1  0.46654000  0.54364300  0.96193500  1
  Mg  Mg0  1  0.62736200  0.25000000  0.76978700  1
  O  O0  1  0.12828300  0.75000000  0.70686100  1
  O  O1  1  0.18569000  0.51714900  0.23840400  1
  O  O2  1  0.18569000  0.98285100  0.23840400  1
  O  O3  1  0.36946500  0.43585200  0.64521300  1
  O  O4  1  0.36946500  0.06414800  0.64521300  1
  O  O5  1  0.41423400  0.25000000  0.02617000  1
  O  O6  1  0.64620300  0.75000000  0.77469000  1
  O  O7  1  0.69981100  0.94514200  0.28637200  1
  O  O8  1  0.69981100  0.55485800  0.28637200  1
  O  O9  1  0.83443300  0.06335500  0.87266700  1
  O  O10  1  0.83443300  0.43664500  0.87266700  1
  O  O11  1  0.85360500  0.25000000  0.47424500  1
loop_
_geom_bond_atom_site_label_1
_geom_bond_atom_site_label_2
_geom_bond_distance
_geom_bond_site_symmetry_2
Mg0 O9 2.004596 1_555
Mg0 O10 2.004596 1_555
Mg0 O5 2.007614 1_556
Mg0 O3 2.233324 1_555
Mg0 O4 2.233324 1_555
Mg0 O11 2.248889 1_555
O0 Tm1 2.260256 1_455
O0 Tm0 2.260256 1_455
O0 Sm1 2.424804 1_555
O0 Sm3 2.431061 1_456
O1 Tm1 2.310736 1_455
O1 Tm3 2.362150 1_554
O1 Sm0 2.503600 1_555
O1 Sm3 2.542515 1_455
O1 Sm1 2.701947 1_555
O1 Sm2 2.798520 1_555
O2 Tm0 2.310736 1_455
O2 Tm2 2.362150 1_554
O2 Sm0 2.503600 1_565
O2 Sm3 2.542515 1_455
O2 Sm1 2.701947 1_555
O2 Sm2 2.798520 1_565
O3 Tm3 2.236214 1_555
O3 Sm2 2.295207 1_555
O3 Tm1 2.443597 1_455
O3 Sm1 2.801445 1_555
O4 Tm2 2.236214 1_545
O4 Sm2 2.295207 1_555
O4 Tm0 2.443597 1_445
O4 Sm1 2.801445 1_545
O5 Sm2 2.218629 1_555
O5 Tm3 2.365892 1_554
O5 Tm2 2.365892 1_544
O5 Sm0 2.397374 1_555
O6 Tm2 2.247967 1_555
O6 Tm3 2.247967 1_555
O6 Sm1 2.383200 1_555
O6 Sm3 2.526892 1_556
O7 Tm0 2.335251 1_555
O7 Sm1 2.345358 1_555
O7 Tm2 2.453131 1_554
O7 Sm3 2.526338 1_555
O7 Sm2 2.803527 1_565
O8 Tm1 2.335251 1_555
O8 Sm1 2.345358 1_555
O8 Tm3 2.453131 1_554
O8 Sm3 2.526338 1_555
O8 Sm2 2.803527 1_555
O9 Tm0 2.230857 1_545
O9 Sm0 2.285142 1_656
O9 Tm2 2.339948 1_545
O9 Sm3 2.820811 1_546
O10 Tm1 2.230857 1_555
O10 Sm0 2.285142 1_656
O10 Tm3 2.339948 1_555
O10 Sm3 2.820811 1_556
O11 Tm0 2.269338 1_545
O11 Tm1 2.269338 1_555
O11 Sm2 2.317591 1_555
O11 Sm0 2.479373 1_655
