# generated using pymatgen
data_Be3Si3(SnO6)2
_symmetry_space_group_name_H-M   'P 1'
_cell_length_a   8.18828300
_cell_length_b   8.25742028
_cell_length_c   14.25503794
_cell_angle_alpha   89.23031481
_cell_angle_beta   90.00000000
_cell_angle_gamma   90.00000000
_symmetry_Int_Tables_number   1
_chemical_formula_structural   Be3Si3(SnO6)2
_chemical_formula_sum   'Be12 Si12 Sn8 O48'
_cell_volume   963.75451041
_cell_formula_units_Z   4
loop_
 _symmetry_equiv_pos_site_id
 _symmetry_equiv_pos_as_xyz
  1  'x, y, z'
loop_
 _atom_site_type_symbol
 _atom_site_label
 _atom_site_symmetry_multiplicity
 _atom_site_fract_x
 _atom_site_fract_y
 _atom_site_fract_z
 _atom_site_occupancy
  Be  Be0  1  0.86916300  0.92142100  0.75581600  1
  Be  Be1  1  0.65027700  0.92917100  0.40623000  1
  Be  Be2  1  0.15027800  0.57082900  0.09377000  1
  Be  Be3  1  0.34972200  0.07082800  0.59377000  1
  Be  Be4  1  0.84972200  0.42917100  0.90623000  1
  Be  Be5  1  0.09054900  0.63388800  0.37673600  1
  Be  Be6  1  0.59054900  0.86611200  0.12326400  1
  Be  Be7  1  0.90945100  0.36611100  0.62326400  1
  Be  Be8  1  0.40945000  0.13388800  0.87673600  1
  Be  Be9  1  0.63083700  0.42142100  0.25581600  1
  Be  Be10  1  0.13083700  0.07857800  0.24418400  1
  Be  Be11  1  0.36916400  0.57857900  0.74418400  1
  Si  Si0  1  0.23986800  0.92548400  0.75478700  1
  Si  Si1  1  0.73986800  0.57451600  0.74521300  1
  Si  Si2  1  0.76013200  0.07451500  0.24521300  1
  Si  Si3  1  0.26013300  0.42548400  0.25478700  1
  Si  Si4  1  0.77193500  0.09801100  0.91327400  1
  Si  Si5  1  0.27193500  0.40199000  0.58672600  1
  Si  Si6  1  0.22806500  0.90198900  0.08672600  1
  Si  Si7  1  0.72806400  0.59801100  0.41327400  1
  Si  Si8  1  0.22054300  0.43852500  0.89996500  1
  Si  Si9  1  0.72054400  0.06147400  0.60003500  1
  Si  Si10  1  0.77945700  0.56147500  0.10003500  1
  Si  Si11  1  0.27945600  0.93852500  0.39996500  1
  Sn  Sn0  1  0.48391100  0.23152800  0.08040700  1
  Sn  Sn1  1  0.01608900  0.73152900  0.58040700  1
  Sn  Sn2  1  0.51609000  0.76847200  0.91959300  1
  Sn  Sn3  1  0.98391100  0.26847100  0.41959300  1
  Sn  Sn4  1  0.53998700  0.24872500  0.41894600  1
  Sn  Sn5  1  0.03998800  0.25127300  0.08105400  1
  Sn  Sn6  1  0.46001300  0.75127500  0.58105400  1
  Sn  Sn7  1  0.96001200  0.74872700  0.91894600  1
  O  O0  1  0.12673400  0.74532400  0.03539900  1
  O  O1  1  0.06112700  0.88228600  0.80430600  1
  O  O2  1  0.56112700  0.61771400  0.69569400  1
  O  O3  1  0.93887300  0.11771400  0.19569400  1
  O  O4  1  0.43887200  0.38228500  0.30430600  1
  O  O5  1  0.57595300  0.13748200  0.93627600  1
  O  O6  1  0.07595300  0.36251800  0.56372500  1
  O  O7  1  0.42404700  0.86251800  0.06372400  1
  O  O8  1  0.92404600  0.63748200  0.43627500  1
  O  O9  1  0.03402100  0.51155200  0.87327700  1
  O  O10  1  0.53402100  0.98844800  0.62672300  1
  O  O11  1  0.96597900  0.48844900  0.12672300  1
  O  O12  1  0.15527700  0.08153000  0.35947200  1
  O  O13  1  0.65527600  0.41847100  0.14052800  1
  O  O14  1  0.84472400  0.91847000  0.64052800  1
  O  O15  1  0.34472400  0.58153000  0.85947200  1
  O  O16  1  0.62673500  0.75467600  0.46460100  1
  O  O17  1  0.46598000  0.01155200  0.37327700  1
  O  O18  1  0.37326600  0.24532400  0.53539900  1
  O  O19  1  0.87326600  0.25467500  0.96460100  1
  O  O20  1  0.70224100  0.07216200  0.48241000  1
  O  O21  1  0.62801000  0.04138600  0.15973900  1
  O  O22  1  0.87199000  0.54138500  0.65973900  1
  O  O23  1  0.37198900  0.95861400  0.84026100  1
  O  O24  1  0.72816100  0.43305300  0.82241700  1
  O  O25  1  0.22816100  0.06694600  0.67758300  1
  O  O26  1  0.27183900  0.56694700  0.17758300  1
  O  O27  1  0.77183800  0.93305300  0.32241700  1
  O  O28  1  0.79818500  0.07217800  0.80395400  1
  O  O29  1  0.29818500  0.42782300  0.69604600  1
  O  O30  1  0.20181400  0.92782200  0.19604600  1
  O  O31  1  0.70181500  0.57217800  0.30395400  1
  O  O32  1  0.28161600  0.26337100  0.87119900  1
  O  O33  1  0.78161500  0.23662900  0.62880200  1
  O  O34  1  0.71838500  0.73662800  0.12880100  1
  O  O35  1  0.21838500  0.76337200  0.37119800  1
  O  O36  1  0.79641700  0.74442400  0.79986200  1
  O  O37  1  0.29641600  0.75557600  0.70013800  1
  O  O38  1  0.20358300  0.25557500  0.20013800  1
  O  O39  1  0.70358400  0.24442500  0.29986200  1
  O  O40  1  0.83001000  0.93424600  0.97252300  1
  O  O41  1  0.33000900  0.56575400  0.52747700  1
  O  O42  1  0.16999000  0.06575400  0.02747700  1
  O  O43  1  0.66999100  0.43424500  0.47252300  1
  O  O44  1  0.79776000  0.57216100  0.98241000  1
  O  O45  1  0.29776000  0.92783800  0.51759000  1
  O  O46  1  0.20224000  0.42783900  0.01759000  1
  O  O47  1  0.12801000  0.45861400  0.34026100  1
loop_
_geom_bond_atom_site_label_1
_geom_bond_atom_site_label_2
_geom_bond_distance
_geom_bond_site_symmetry_2
Be0 O28 1.543146 1_565
Be0 O14 1.656078 1_555
Be0 O36 1.691298 1_555
Be0 O1 1.745552 1_655
Be1 O27 1.555062 1_555
Be1 O16 1.665364 1_555
Be1 O20 1.670006 1_565
Be1 O17 1.718177 1_565
Be2 O26 1.555062 1_555
Be2 O0 1.665366 1_555
Be2 O46 1.669996 1_555
Be2 O11 1.718188 1_455
Be3 O25 1.555062 1_555
Be3 O18 1.665373 1_555
Be3 O45 1.669996 1_545
Be3 O10 1.718188 1_545
Be4 O24 1.555062 1_555
Be4 O19 1.665373 1_555
Be4 O44 1.669996 1_555
Be4 O9 1.718192 1_655
Be5 O35 1.497619 1_555
Be5 O47 1.574601 1_555
Be5 O8 1.606452 1_455
Be6 O34 1.497618 1_555
Be6 O21 1.574601 1_565
Be6 O7 1.606453 1_555
Be7 O33 1.497607 1_555
Be7 O22 1.574601 1_555
Be7 O6 1.606445 1_655
Be8 O32 1.497601 1_555
Be8 O23 1.574601 1_545
Be8 O5 1.606460 1_555
Be9 O31 1.543146 1_555
Be9 O13 1.656077 1_555
Be9 O39 1.691293 1_555
Be9 O4 1.745561 1_555
Be10 O30 1.543136 1_545
Be10 O12 1.656079 1_555
Be10 O38 1.691298 1_555
Be10 O3 1.745553 1_455
Be11 O29 1.543142 1_555
Be11 O15 1.656079 1_555
Be11 O37 1.691303 1_555
Be11 O2 1.745545 1_555
O0 Si6 1.709603 1_555
O0 Sn7 2.149176 1_454
O1 Si0 1.661575 1_555
O1 Sn7 2.126965 1_455
O2 Si1 1.661575 1_555
O2 Sn6 2.126970 1_555
O3 Si2 1.661577 1_555
O3 Sn5 2.126965 1_655
O4 Si3 1.661563 1_555
O4 Sn4 2.126969 1_555
O5 Si4 1.670885 1_555
O5 Sn0 2.331374 1_556
O6 Si5 1.670884 1_555
O6 Sn3 2.331389 1_455
O7 Si6 1.670885 1_555
O7 Sn2 2.331376 1_554
O8 Si7 1.670882 1_555
O8 Sn1 2.331392 1_655
O9 Si8 1.683694 1_555
O9 Sn7 2.158902 1_455
O10 Si9 1.683699 1_565
O10 Sn6 2.158884 1_555
O11 Si10 1.683691 1_555
O11 Sn5 2.158909 1_655
O12 Si11 1.656261 1_545
O12 Sn3 2.263150 1_455
O13 Si10 1.656266 1_555
O13 Sn0 2.263156 1_555
O14 Si9 1.656261 1_565
O14 Sn1 2.263145 1_655
O15 Si8 1.656271 1_555
O15 Sn2 2.263155 1_555
O16 Si7 1.709595 1_555
O16 Sn6 2.149176 1_555
O17 Si11 1.683709 1_545
O17 Sn4 2.158882 1_555
O18 Si5 1.709609 1_555
O18 Sn4 2.149170 1_555
O19 Si4 1.709597 1_555
O19 Sn5 2.149176 1_656
O20 Si9 1.684566 1_555
O20 Sn4 2.161891 1_555
O21 Si2 1.654926 1_555
O21 Sn0 2.255785 1_555
O22 Si1 1.654928 1_555
O22 Sn1 2.255796 1_655
O23 Si0 1.654922 1_555
O23 Sn2 2.255794 1_555
O24 Si1 1.596983 1_555
O25 Si0 1.596977 1_545
O26 Si3 1.596983 1_555
O27 Si2 1.596977 1_565
O28 Si4 1.590321 1_555
O29 Si5 1.590321 1_555
O30 Si6 1.590323 1_555
O31 Si7 1.590320 1_555
O32 Si8 1.589342 1_555
O33 Si9 1.589348 1_555
O34 Si10 1.589332 1_555
O35 Si11 1.589333 1_555
O36 Si1 1.679006 1_555
O36 Sn7 2.163094 1_555
O37 Si0 1.679004 1_555
O37 Sn6 2.163104 1_555
O38 Si3 1.679015 1_555
O38 Sn5 2.163094 1_555
O39 Si2 1.679018 1_555
O39 Sn4 2.163103 1_555
O40 Si4 1.654522 1_565
O40 Sn7 2.023518 1_555
O41 Si5 1.654513 1_555
O41 Sn6 2.023539 1_555
O42 Si6 1.654522 1_545
O42 Sn5 2.023518 1_555
O43 Si7 1.654524 1_555
O43 Sn4 2.023533 1_555
O44 Si10 1.684565 1_556
O44 Sn7 2.161898 1_555
O45 Si11 1.684566 1_555
O45 Sn6 2.161886 1_555
O46 Si8 1.684565 1_554
O46 Sn5 2.161898 1_555
O47 Si3 1.654932 1_555
O47 Sn3 2.255791 1_455
