# generated using pymatgen
data_Mg2Tl2(MoO4)3
_symmetry_space_group_name_H-M   'P 1'
_cell_length_a   10.99952200
_cell_length_b   10.99952200
_cell_length_c   10.99952200
_cell_angle_alpha   90.00000000
_cell_angle_beta   90.00000000
_cell_angle_gamma   90.00000000
_symmetry_Int_Tables_number   1
_chemical_formula_structural   Mg2Tl2(MoO4)3
_chemical_formula_sum   'Mg8 Tl8 Mo12 O48'
_cell_volume   1330.82649354
_cell_formula_units_Z   4
loop_
 _symmetry_equiv_pos_site_id
 _symmetry_equiv_pos_as_xyz
  1  'x, y, z'
loop_
 _atom_site_type_symbol
 _atom_site_label
 _atom_site_symmetry_multiplicity
 _atom_site_fract_x
 _atom_site_fract_y
 _atom_site_fract_z
 _atom_site_occupancy
  Mg  Mg0  1  0.11432900  0.61432900  0.88567100  1
  Mg  Mg1  1  0.38567100  0.38567100  0.38567100  1
  Mg  Mg2  1  0.88567100  0.11432900  0.61432900  1
  Mg  Mg3  1  0.61432900  0.88567100  0.11432900  1
  Mg  Mg4  1  0.66109500  0.66109500  0.66109500  1
  Mg  Mg5  1  0.83890500  0.33890500  0.16109500  1
  Mg  Mg6  1  0.33890500  0.16109500  0.83890500  1
  Mg  Mg7  1  0.16109500  0.83890500  0.33890500  1
  Tl  Tl0  1  0.16594700  0.16594700  0.16594700  1
  Tl  Tl1  1  0.33405300  0.83405300  0.66594700  1
  Tl  Tl2  1  0.66594700  0.33405300  0.83405300  1
  Tl  Tl3  1  0.83405300  0.66594700  0.33405300  1
  Tl  Tl4  1  0.94019700  0.94019700  0.94019700  1
  Tl  Tl5  1  0.55980300  0.05980300  0.44019700  1
  Tl  Tl6  1  0.44019700  0.55980300  0.05980300  1
  Tl  Tl7  1  0.05980300  0.44019700  0.55980300  1
  Mo  Mo0  1  0.62216000  0.97246600  0.79706700  1
  Mo  Mo1  1  0.12216000  0.52753400  0.20293300  1
  Mo  Mo2  1  0.29706700  0.87784000  0.02753400  1
  Mo  Mo3  1  0.87784000  0.02753400  0.29706700  1
  Mo  Mo4  1  0.79706700  0.62216000  0.97246600  1
  Mo  Mo5  1  0.70293300  0.37784000  0.47246600  1
  Mo  Mo6  1  0.20293300  0.12216000  0.52753400  1
  Mo  Mo7  1  0.37784000  0.47246600  0.70293300  1
  Mo  Mo8  1  0.02753400  0.29706700  0.87784000  1
  Mo  Mo9  1  0.52753400  0.20293300  0.12216000  1
  Mo  Mo10  1  0.97246600  0.79706700  0.62216000  1
  Mo  Mo11  1  0.47246600  0.70293300  0.37784000  1
  O  O0  1  0.95454400  0.28049900  0.02235600  1
  O  O1  1  0.45454400  0.21950100  0.97764400  1
  O  O2  1  0.04545600  0.78049900  0.47764400  1
  O  O3  1  0.21950100  0.97764400  0.45454400  1
  O  O4  1  0.47764400  0.04545600  0.78049900  1
  O  O5  1  0.97764400  0.45454400  0.21950100  1
  O  O6  1  0.28049900  0.02235600  0.95454400  1
  O  O7  1  0.02235600  0.95454400  0.28049900  1
  O  O8  1  0.78049900  0.47764400  0.04545600  1
  O  O9  1  0.71950100  0.52235600  0.54545600  1
  O  O10  1  0.52235600  0.54545600  0.71950100  1
  O  O11  1  0.54545600  0.71950100  0.52235600  1
  O  O12  1  0.18026700  0.24512000  0.89737900  1
  O  O13  1  0.68026700  0.25488000  0.10262100  1
  O  O14  1  0.81973300  0.74512000  0.60262100  1
  O  O15  1  0.25488000  0.10262100  0.68026700  1
  O  O16  1  0.60262100  0.81973300  0.74512000  1
  O  O17  1  0.10262100  0.68026700  0.25488000  1
  O  O18  1  0.72926300  0.05435700  0.70531500  1
  O  O19  1  0.24512000  0.89737900  0.18026700  1
  O  O20  1  0.74512000  0.60262100  0.81973300  1
  O  O21  1  0.75488000  0.39737900  0.31973300  1
  O  O22  1  0.39737900  0.31973300  0.75488000  1
  O  O23  1  0.31973300  0.75488000  0.39737900  1
  O  O24  1  0.94564300  0.20531500  0.77073700  1
  O  O25  1  0.44564300  0.29468500  0.22926300  1
  O  O26  1  0.05435700  0.70531500  0.72926300  1
  O  O27  1  0.29468500  0.22926300  0.44564300  1
  O  O28  1  0.47284000  0.54755500  0.32388700  1
  O  O29  1  0.32388700  0.47284000  0.54755500  1
  O  O30  1  0.54755500  0.32388700  0.47284000  1
  O  O31  1  0.95244500  0.67611300  0.97284000  1
  O  O32  1  0.82388700  0.02716000  0.45244500  1
  O  O33  1  0.45244500  0.82388700  0.02716000  1
  O  O34  1  0.17611300  0.52716000  0.04755500  1
  O  O35  1  0.67611300  0.97284000  0.95244500  1
  O  O36  1  0.04755500  0.17611300  0.52716000  1
  O  O37  1  0.97284000  0.95244500  0.67611300  1
  O  O38  1  0.52716000  0.04755500  0.17611300  1
  O  O39  1  0.02716000  0.45244500  0.82388700  1
  O  O40  1  0.55435700  0.79468500  0.27073700  1
  O  O41  1  0.27073700  0.55435700  0.79468500  1
  O  O42  1  0.79468500  0.27073700  0.55435700  1
  O  O43  1  0.70531500  0.72926300  0.05435700  1
  O  O44  1  0.77073700  0.94564300  0.20531500  1
  O  O45  1  0.20531500  0.77073700  0.94564300  1
  O  O46  1  0.22926300  0.44564300  0.29468500  1
  O  O47  1  0.89737900  0.18026700  0.24512000  1
loop_
_geom_bond_atom_site_label_1
_geom_bond_atom_site_label_2
_geom_bond_distance
_geom_bond_site_symmetry_2
Mg0 O26 2.096803 1_555
Mg0 O45 2.096803 1_555
Mg0 O41 2.096803 1_555
Mg0 O34 2.133514 1_556
Mg0 O31 2.133514 1_455
Mg0 O39 2.133514 1_555
Mg1 O46 2.096803 1_555
Mg1 O27 2.096803 1_555
Mg1 O25 2.096803 1_555
Mg1 O30 2.133514 1_555
Mg1 O29 2.133514 1_555
Mg1 O28 2.133514 1_555
Mg2 O18 2.096803 1_555
Mg2 O24 2.096803 1_555
Mg2 O42 2.096803 1_555
Mg2 O36 2.133514 1_655
Mg2 O37 2.133514 1_545
Mg2 O32 2.133514 1_555
Mg3 O43 2.096803 1_555
Mg3 O40 2.096803 1_555
Mg3 O44 2.096803 1_555
Mg3 O38 2.133514 1_565
Mg3 O35 2.133514 1_554
Mg3 O33 2.133514 1_555
Mg4 O16 2.076709 1_555
Mg4 O14 2.076709 1_555
Mg4 O20 2.076709 1_555
Mg4 O10 2.087944 1_555
Mg4 O11 2.087944 1_555
Mg4 O9 2.087944 1_555
Mg5 O21 2.076709 1_555
Mg5 O13 2.076709 1_555
Mg5 O47 2.076709 1_555
Mg5 O5 2.087944 1_555
Mg5 O8 2.087944 1_555
Mg5 O0 2.087944 1_555
Mg6 O22 2.076709 1_555
Mg6 O15 2.076709 1_555
Mg6 O12 2.076709 1_555
Mg6 O1 2.087944 1_555
Mg6 O4 2.087944 1_555
Mg6 O6 2.087944 1_555
Mg7 O23 2.076709 1_555
Mg7 O17 2.076709 1_555
Mg7 O19 2.076709 1_555
Mg7 O3 2.087944 1_555
Mg7 O2 2.087944 1_555
Mg7 O7 2.087944 1_555
Mo0 O16 1.787469 1_555
Mo0 O4 1.790150 1_565
Mo0 O18 1.793820 1_565
Mo0 O35 1.809192 1_555
Mo1 O17 1.787469 1_555
Mo1 O5 1.790150 1_455
Mo1 O46 1.793820 1_555
Mo1 O34 1.809192 1_555
Mo2 O19 1.787469 1_555
Mo2 O6 1.790150 1_564
Mo2 O45 1.793820 1_554
Mo2 O33 1.809192 1_555
Mo3 O47 1.787469 1_555
Mo3 O7 1.790150 1_645
Mo3 O44 1.793820 1_545
Mo3 O32 1.809192 1_555
Mo4 O20 1.787469 1_555
Mo4 O8 1.790150 1_556
Mo4 O43 1.793820 1_556
Mo4 O31 1.809192 1_555
Mo5 O21 1.787469 1_555
Mo5 O9 1.790150 1_555
Mo5 O42 1.793820 1_555
Mo5 O30 1.809192 1_555
Mo6 O15 1.787469 1_555
Mo6 O3 1.790150 1_545
Mo6 O27 1.793820 1_555
Mo6 O36 1.809192 1_555
Mo7 O22 1.787469 1_555
Mo7 O10 1.790150 1_555
Mo7 O41 1.793820 1_555
Mo7 O29 1.809192 1_555
Mo8 O12 1.787469 1_555
Mo8 O0 1.790150 1_456
Mo8 O24 1.793820 1_455
Mo8 O39 1.809192 1_555
Mo9 O13 1.787469 1_555
Mo9 O1 1.790150 1_554
Mo9 O25 1.793820 1_555
Mo9 O38 1.809192 1_555
Mo10 O14 1.787469 1_555
Mo10 O2 1.790150 1_655
Mo10 O26 1.793820 1_655
Mo10 O37 1.809192 1_555
Mo11 O23 1.787469 1_555
Mo11 O11 1.790150 1_555
Mo11 O40 1.793820 1_555
Mo11 O28 1.809192 1_555
