# generated using pymatgen
data_Ta2SiNi3
_symmetry_space_group_name_H-M   'P 1'
_cell_length_a   4.85295584
_cell_length_b   4.85295584
_cell_length_c   7.66935000
_cell_angle_alpha   90.00000000
_cell_angle_beta   90.00000000
_cell_angle_gamma   119.99999788
_symmetry_Int_Tables_number   1
_chemical_formula_structural   Ta2SiNi3
_chemical_formula_sum   'Ta4 Si2 Ni6'
_cell_volume   156.42345654
_cell_formula_units_Z   2
loop_
 _symmetry_equiv_pos_site_id
 _symmetry_equiv_pos_as_xyz
  1  'x, y, z'
loop_
 _atom_site_type_symbol
 _atom_site_label
 _atom_site_symmetry_multiplicity
 _atom_site_fract_x
 _atom_site_fract_y
 _atom_site_fract_z
 _atom_site_occupancy
  Ta  Ta0  1  0.33333300  0.66666700  0.94238300  1
  Ta  Ta1  1  0.66666700  0.33333300  0.05761700  1
  Ta  Ta2  1  0.66666700  0.33333300  0.44238300  1
  Ta  Ta3  1  0.33333300  0.66666700  0.55761700  1
  Si  Si0  1  0.00000000  0.00000000  0.00000000  1
  Si  Si1  1  0.00000000  0.00000000  0.50000000  1
  Ni  Ni0  1  0.83152600  0.16847400  0.75000000  1
  Ni  Ni1  1  0.83152600  0.66305100  0.75000000  1
  Ni  Ni2  1  0.33694900  0.16847400  0.75000000  1
  Ni  Ni3  1  0.16847400  0.83152600  0.25000000  1
  Ni  Ni4  1  0.16847400  0.33694900  0.25000000  1
  Ni  Ni5  1  0.66305100  0.83152600  0.25000000  1
loop_
_geom_bond_atom_site_label_1
_geom_bond_atom_site_label_2
_geom_bond_distance
_geom_bond_site_symmetry_2
Ta0 Ta1 2.937929 1_456
Ta0 Ta1 2.937929 1_566
Ta0 Ta1 2.937937 1_556
Ta0 Ta3 2.950905 1_555
Ta1 Ta2 2.950905 1_555
Ta2 Ta3 2.937929 1_545
Ta2 Ta3 2.937929 1_655
Ta2 Ta3 2.937937 1_555
Si0 Ta0 2.836484 1_544
Si0 Ta1 2.836484 1_455
Si0 Ta0 2.836488 1_554
Si0 Ta1 2.836488 1_445
Si0 Ta0 2.836488 1_444
Si0 Ta1 2.836488 1_555
Si1 Ta3 2.836484 1_545
Si1 Ta2 2.836484 1_455
Si1 Ta2 2.836488 1_445
Si1 Ta3 2.836488 1_555
Si1 Ta2 2.836488 1_555
Si1 Ta3 2.836488 1_445
Ni0 Si0 2.383606 1_656
Ni0 Si1 2.383606 1_655
Ni0 Ni2 2.400160 1_555
Ni0 Ni1 2.400160 1_555
Ni0 Ni2 2.452796 1_655
Ni0 Ni1 2.452796 1_545
Ni0 Ta2 2.736090 1_555
Ni0 Ta1 2.736090 1_556
Ni0 Ta3 2.839892 1_655
Ni0 Ta0 2.839892 1_655
Ni0 Ta0 2.839892 1_545
Ni0 Ta3 2.839892 1_545
Ni1 Si0 2.383608 1_666
Ni1 Si1 2.383608 1_665
Ni1 Ni2 2.400160 1_555
Ni1 Ni2 2.452796 1_665
Ni1 Ta1 2.736090 1_556
Ni1 Ta2 2.736090 1_555
Ni1 Ta3 2.839888 1_655
Ni1 Ta0 2.839888 1_655
Ni1 Ta0 2.839896 1_555
Ni1 Ta3 2.839896 1_555
Ni2 Si1 2.383608 1_555
Ni2 Si0 2.383608 1_556
Ni2 Ta2 2.736090 1_555
Ni2 Ta1 2.736090 1_556
Ni2 Ta3 2.839888 1_545
Ni2 Ta0 2.839888 1_545
Ni2 Ta0 2.839896 1_555
Ni2 Ta3 2.839896 1_555
Ni3 Si0 2.383606 1_565
Ni3 Si1 2.383606 1_565
Ni3 Ni4 2.400160 1_555
Ni3 Ni5 2.400160 1_555
Ni3 Ni4 2.452796 1_565
Ni3 Ni5 2.452796 1_455
Ni3 Ta3 2.736090 1_555
Ni3 Ta0 2.736090 1_554
Ni3 Ta2 2.839892 1_455
Ni3 Ta1 2.839892 1_455
Ni3 Ta1 2.839892 1_565
Ni3 Ta2 2.839892 1_565
Ni4 Si0 2.383608 1_555
Ni4 Si1 2.383608 1_555
Ni4 Ni5 2.400160 1_555
Ni4 Ni5 2.452796 1_445
Ni4 Ta3 2.736090 1_555
Ni4 Ta0 2.736090 1_554
Ni4 Ta1 2.839888 1_455
Ni4 Ta2 2.839888 1_455
Ni4 Ta1 2.839896 1_555
Ni4 Ta2 2.839896 1_555
Ni5 Si1 2.383608 1_665
Ni5 Si0 2.383608 1_665
Ni5 Ta3 2.736090 1_555
Ni5 Ta0 2.736090 1_554
Ni5 Ta1 2.839888 1_565
Ni5 Ta2 2.839888 1_565
Ni5 Ta1 2.839896 1_555
Ni5 Ta2 2.839896 1_555
