# generated using pymatgen
data_Ca2AlAgO5
_symmetry_space_group_name_H-M   'P 1'
_cell_length_a   5.41654711
_cell_length_b   5.67019819
_cell_length_c   8.87922308
_cell_angle_alpha   108.60652070
_cell_angle_beta   110.07905233
_cell_angle_gamma   89.98427330
_symmetry_Int_Tables_number   1
_chemical_formula_structural   Ca2AlAgO5
_chemical_formula_sum   'Ca4 Al2 Ag2 O10'
_cell_volume   240.90821265
_cell_formula_units_Z   2
loop_
 _symmetry_equiv_pos_site_id
 _symmetry_equiv_pos_as_xyz
  1  'x, y, z'
loop_
 _atom_site_type_symbol
 _atom_site_label
 _atom_site_symmetry_multiplicity
 _atom_site_fract_x
 _atom_site_fract_y
 _atom_site_fract_z
 _atom_site_occupancy
  Ca  Ca0  1  0.12353200  0.64512300  0.24194300  1
  Ca  Ca1  1  0.42128700  0.90277900  0.75533500  1
  Ca  Ca2  1  0.92161600  0.35688100  0.75566300  1
  Ca  Ca3  1  0.62281000  0.10118500  0.24150900  1
  Al  Al0  1  0.27413600  0.31716900  0.50039000  1
  Al  Al1  1  0.77407900  0.68737600  0.50025600  1
  Ag  Ag0  1  0.51328500  0.50375500  0.00048700  1
  Ag  Ag1  1  0.01287500  0.00178100  0.00040500  1
  O  O0  1  0.59793500  0.41078000  0.50075400  1
  O  O1  1  0.09803100  0.59440100  0.50086500  1
  O  O2  1  0.59483200  0.75338300  0.31512000  1
  O  O3  1  0.29532900  0.24907100  0.68381300  1
  O  O4  1  0.09493600  0.06618100  0.31502100  1
  O  O5  1  0.79545500  0.93912700  0.68375100  1
  O  O6  1  0.27381100  0.76442500  0.93419500  1
  O  O7  1  0.26595700  0.31570200  0.07017500  1
  O  O8  1  0.76703500  0.26053800  0.07105300  1
  O  O9  1  0.77272200  0.67521200  0.93314200  1
loop_
_geom_bond_atom_site_label_1
_geom_bond_atom_site_label_2
_geom_bond_distance
_geom_bond_site_symmetry_2
Ca0 O4 2.285897 1_565
Ca0 O7 2.323664 1_555
Ca0 O2 2.433783 1_555
Ca0 O1 2.455061 1_555
Ca0 O8 2.581742 1_455
Ca0 O9 2.806915 1_454
Ca1 O3 2.285121 1_565
Ca1 O6 2.332847 1_555
Ca1 O5 2.349962 1_555
Ca1 O1 2.447975 1_555
Ca1 O9 2.648817 1_555
Ca1 O8 2.872169 1_566
Ca2 O5 2.285117 1_545
Ca2 O9 2.334214 1_555
Ca2 O3 2.348488 1_655
Ca2 O0 2.450831 1_555
Ca2 O6 2.660936 1_655
Ca2 O7 2.858575 1_656
Ca3 O2 2.286940 1_545
Ca3 O8 2.324297 1_555
Ca3 O4 2.437509 1_655
Ca3 O0 2.456160 1_555
Ca3 O7 2.586603 1_555
Ca3 O6 2.792973 1_544
Al0 O4 1.756592 1_555
Al0 O3 1.757184 1_555
Al0 O0 1.831214 1_555
Al0 O1 1.838117 1_555
Al1 O2 1.755433 1_555
Al1 O5 1.758435 1_555
Al1 O1 1.830772 1_655
Al1 O0 1.837985 1_555
Ag0 O8 2.035346 1_555
Ag0 O9 2.055766 1_554
Ag0 O6 2.059979 1_554
Ag0 O7 2.074990 1_555
Ag0 O3 2.552637 1_554
Ag0 O2 2.575457 1_555
Ag1 O7 2.036146 1_555
Ag1 O6 2.054057 1_544
Ag1 O9 2.059070 1_444
Ag1 O8 2.074733 1_455
Ag1 O5 2.551018 1_444
Ag1 O4 2.575141 1_555
