# generated using pymatgen
data_Na2W2O5
_symmetry_space_group_name_H-M   'P 1'
_cell_length_a   8.84796517
_cell_length_b   8.84796517
_cell_length_c   8.84796517
_cell_angle_alpha   142.55069951
_cell_angle_beta   142.44816276
_cell_angle_gamma   54.07724933
_symmetry_Int_Tables_number   1
_chemical_formula_structural   Na2W2O5
_chemical_formula_sum   'Na4 W4 O10'
_cell_volume   254.99522318
_cell_formula_units_Z   2
loop_
 _symmetry_equiv_pos_site_id
 _symmetry_equiv_pos_as_xyz
  1  'x, y, z'
loop_
 _atom_site_type_symbol
 _atom_site_label
 _atom_site_symmetry_multiplicity
 _atom_site_fract_x
 _atom_site_fract_y
 _atom_site_fract_z
 _atom_site_occupancy
  Na  Na0  1  0.63018100  0.61266700  0.02699800  1
  Na  Na1  1  0.36981900  0.39681700  0.98248600  1
  Na  Na2  1  0.08566900  0.11266700  0.98248600  1
  Na  Na3  1  0.91433100  0.89681700  0.02699800  1
  W  W0  1  0.50000000  0.00191500  0.50191500  1
  W  W1  1  0.00000000  0.50191500  0.50191500  1
  W  W2  1  0.60106200  0.27569300  0.37675500  1
  W  W3  1  0.39893800  0.77569300  0.67463200  1
  O  O0  1  0.77508400  0.77743800  0.50289400  1
  O  O1  1  0.22491600  0.72781000  0.00235300  1
  O  O2  1  0.77454300  0.27743800  0.00235300  1
  O  O3  1  0.22545700  0.22781000  0.50289400  1
  O  O4  1  0.53968700  0.13412500  0.40918200  1
  O  O5  1  0.46031300  0.86949500  0.59443800  1
  O  O6  1  0.22494300  0.63412500  0.59443800  1
  O  O7  1  0.77505700  0.36949500  0.40918200  1
  O  O8  1  0.70919400  0.61017400  0.81936800  1
  O  O9  1  0.29080600  0.11017400  0.90098000  1
loop_
_geom_bond_atom_site_label_1
_geom_bond_atom_site_label_2
_geom_bond_distance
_geom_bond_site_symmetry_2
Na0 O0 2.320688 1_555
Na0 O2 2.333656 1_555
Na0 O8 2.412090 1_554
Na0 O6 2.477122 1_554
Na1 O1 2.320693 1_556
Na1 O3 2.333664 1_555
Na1 O9 2.412090 1_555
Na1 O7 2.477122 1_556
Na2 O2 2.320692 1_456
Na2 O0 2.333659 1_445
Na2 O9 2.412090 1_555
Na2 O4 2.477122 1_556
Na3 O3 2.320693 1_665
Na3 O1 2.333664 1_655
Na3 O8 2.412090 1_554
Na3 O5 2.477122 1_554
O0 W0 2.047062 1_565
O0 W1 2.050508 1_655
O1 W0 2.047064 1_565
O1 W1 2.050503 1_554
O2 W1 2.047066 1_655
O2 W0 2.050504 1_554
O3 W1 2.047064 1_555
O3 W0 2.050503 1_555
O4 W2 1.887330 1_555
O4 W0 2.151217 1_555
O5 W3 1.887339 1_555
O5 W0 2.151217 1_565
O6 W3 1.887323 1_555
O6 W1 2.151217 1_555
O7 W2 1.887330 1_555
O7 W1 2.151217 1_655
O8 W2 1.997429 1_555
O8 W3 2.001723 1_555
O9 W3 1.997427 1_545
O9 W2 2.001724 1_556
