# generated using pymatgen
data_Ba5GaRu2O11
_symmetry_space_group_name_H-M   'P 1'
_cell_length_a   5.91770000
_cell_length_b   11.23289100
_cell_length_c   19.02670100
_cell_angle_alpha   90.00000000
_cell_angle_beta   90.00000000
_cell_angle_gamma   90.00000000
_symmetry_Int_Tables_number   1
_chemical_formula_structural   Ba5GaRu2O11
_chemical_formula_sum   'Ba20 Ga4 Ru8 O44'
_cell_volume   1264.75959469
_cell_formula_units_Z   4
loop_
 _symmetry_equiv_pos_site_id
 _symmetry_equiv_pos_as_xyz
  1  'x, y, z'
loop_
 _atom_site_type_symbol
 _atom_site_label
 _atom_site_symmetry_multiplicity
 _atom_site_fract_x
 _atom_site_fract_y
 _atom_site_fract_z
 _atom_site_occupancy
  Ba  Ba0  1  0.25000000  0.60671000  0.52654500  1
  Ba  Ba1  1  0.75000000  0.39329000  0.47345500  1
  Ba  Ba2  1  0.75000000  0.10671000  0.97345500  1
  Ba  Ba3  1  0.25000000  0.89329000  0.02654500  1
  Ba  Ba4  1  0.25000000  0.80861600  0.36200500  1
  Ba  Ba5  1  0.75000000  0.19138400  0.63799500  1
  Ba  Ba6  1  0.75000000  0.30861600  0.13799500  1
  Ba  Ba7  1  0.25000000  0.69138400  0.86200500  1
  Ba  Ba8  1  0.25000000  0.13130900  0.24995300  1
  Ba  Ba9  1  0.75000000  0.86869100  0.75004700  1
  Ba  Ba10  1  0.75000000  0.63130900  0.25004700  1
  Ba  Ba11  1  0.25000000  0.36869100  0.74995300  1
  Ba  Ba12  1  0.25000000  0.45254000  0.33072000  1
  Ba  Ba13  1  0.75000000  0.54746000  0.66928000  1
  Ba  Ba14  1  0.75000000  0.95254000  0.16928000  1
  Ba  Ba15  1  0.25000000  0.04746000  0.83072000  1
  Ba  Ba16  1  0.25000000  0.52878500  0.06758500  1
  Ba  Ba17  1  0.75000000  0.47121500  0.93241500  1
  Ba  Ba18  1  0.75000000  0.02878500  0.43241500  1
  Ba  Ba19  1  0.25000000  0.97121500  0.56758500  1
  Ga  Ga0  1  0.25000000  0.76165500  0.18840300  1
  Ga  Ga1  1  0.75000000  0.23834500  0.81159700  1
  Ga  Ga2  1  0.75000000  0.26165500  0.31159700  1
  Ga  Ga3  1  0.25000000  0.73834500  0.68840300  1
  Ru  Ru0  1  0.25000000  0.20454600  0.44085800  1
  Ru  Ru1  1  0.75000000  0.79545400  0.55914200  1
  Ru  Ru2  1  0.75000000  0.70454600  0.05914200  1
  Ru  Ru3  1  0.25000000  0.29545400  0.94085800  1
  Ru  Ru4  1  0.25000000  0.20932200  0.06423500  1
  Ru  Ru5  1  0.75000000  0.79067800  0.93576500  1
  Ru  Ru6  1  0.75000000  0.70932200  0.43576500  1
  Ru  Ru7  1  0.25000000  0.29067800  0.56423500  1
  O  O0  1  0.25000000  0.04293100  0.41032400  1
  O  O1  1  0.75000000  0.95706900  0.58967600  1
  O  O2  1  0.75000000  0.54293100  0.08967600  1
  O  O3  1  0.25000000  0.45706900  0.91032400  1
  O  O4  1  0.25000000  0.30820400  0.14885100  1
  O  O5  1  0.75000000  0.69179600  0.85114900  1
  O  O6  1  0.75000000  0.80820400  0.35114900  1
  O  O7  1  0.25000000  0.19179600  0.64885100  1
  O  O8  1  0.25000000  0.63859500  0.25149600  1
  O  O9  1  0.75000000  0.36140500  0.74850400  1
  O  O10  1  0.75000000  0.13859500  0.24850400  1
  O  O11  1  0.25000000  0.86140500  0.75149600  1
  O  O12  1  0.01600600  0.10600700  0.09865900  1
  O  O13  1  0.98399400  0.89399300  0.90134100  1
  O  O14  1  0.98399400  0.60600700  0.40134100  1
  O  O15  1  0.51600600  0.89399300  0.90134100  1
  O  O16  1  0.01600600  0.39399300  0.59865900  1
  O  O17  1  0.48399400  0.10600700  0.09865900  1
  O  O18  1  0.48399400  0.39399300  0.59865900  1
  O  O19  1  0.51600600  0.60600700  0.40134100  1
  O  O20  1  0.01442700  0.32441900  0.01716500  1
  O  O21  1  0.98557300  0.67558100  0.98283500  1
  O  O22  1  0.98557300  0.82441900  0.48283500  1
  O  O23  1  0.51442700  0.67558100  0.98283500  1
  O  O24  1  0.01442700  0.17558100  0.51716500  1
  O  O25  1  0.48557300  0.32441900  0.01716500  1
  O  O26  1  0.48557300  0.17558100  0.51716500  1
  O  O27  1  0.51442700  0.82441900  0.48283500  1
  O  O28  1  0.25000000  0.38284600  0.46978800  1
  O  O29  1  0.75000000  0.61715400  0.53021200  1
  O  O30  1  0.75000000  0.88284600  0.03021200  1
  O  O31  1  0.25000000  0.11715400  0.96978800  1
  O  O32  1  0.25000000  0.91006200  0.22935000  1
  O  O33  1  0.75000000  0.08993800  0.77065000  1
  O  O34  1  0.75000000  0.41006200  0.27065000  1
  O  O35  1  0.25000000  0.58993800  0.72935000  1
  O  O36  1  0.49098400  0.24760400  0.36735900  1
  O  O37  1  0.50901600  0.75239600  0.63264100  1
  O  O38  1  0.50901600  0.74760400  0.13264100  1
  O  O39  1  0.99098400  0.75239600  0.63264100  1
  O  O40  1  0.49098400  0.25239600  0.86735900  1
  O  O41  1  0.00901600  0.24760400  0.36735900  1
  O  O42  1  0.00901600  0.25239600  0.86735900  1
  O  O43  1  0.99098400  0.74760400  0.13264100  1
loop_
_geom_bond_atom_site_label_1
_geom_bond_atom_site_label_2
_geom_bond_distance
_geom_bond_site_symmetry_2
Ba0 O28 2.736712 1_555
Ba0 O19 2.855339 1_555
Ba0 O14 2.855339 1_455
Ba0 O29 2.961997 1_555
Ba0 O29 2.961997 1_455
Ba0 O37 3.017025 1_555
Ba0 O39 3.017025 1_455
Ba0 O27 3.020054 1_555
Ba0 O22 3.020054 1_455
Ba0 O18 3.083733 1_555
Ba0 O16 3.083733 1_555
Ba1 O29 2.736712 1_555
Ba1 O16 2.855339 1_655
Ba1 O18 2.855339 1_555
Ba1 O28 2.961997 1_655
Ba1 O28 2.961997 1_555
Ba1 O41 3.017025 1_655
Ba1 O36 3.017025 1_555
Ba1 O24 3.020054 1_655
Ba1 O26 3.020054 1_555
Ba1 O14 3.083733 1_555
Ba1 O19 3.083733 1_555
Ba2 O30 2.736712 1_546
Ba2 O12 2.855339 1_656
Ba2 O17 2.855339 1_556
Ba2 O31 2.961997 1_555
Ba2 O31 2.961997 1_655
Ba2 O42 3.017025 1_655
Ba2 O40 3.017025 1_555
Ba2 O20 3.020054 1_656
Ba2 O25 3.020054 1_556
Ba2 O13 3.083733 1_545
Ba2 O15 3.083733 1_545
Ba3 O31 2.736712 1_564
Ba3 O15 2.855339 1_554
Ba3 O13 2.855339 1_454
Ba3 O30 2.961997 1_455
Ba3 O30 2.961997 1_555
Ba3 O43 3.017025 1_455
Ba3 O38 3.017025 1_555
Ba3 O23 3.020054 1_554
Ba3 O21 3.020054 1_454
Ba3 O17 3.083733 1_565
Ba3 O12 3.083733 1_565
Ba4 O32 2.769304 1_555
Ba4 O27 2.786663 1_555
Ba4 O22 2.786663 1_455
Ba4 O0 2.787977 1_565
Ba4 O8 2.840503 1_555
Ba4 O19 2.866659 1_555
Ba4 O14 2.866659 1_455
Ba4 O6 2.966054 1_555
Ba4 O6 2.966054 1_455
Ba5 O33 2.769304 1_555
Ba5 O24 2.786663 1_655
Ba5 O26 2.786663 1_555
Ba5 O1 2.787977 1_545
Ba5 O9 2.840503 1_555
Ba5 O16 2.866659 1_655
Ba5 O18 2.866659 1_555
Ba5 O7 2.966054 1_655
Ba5 O7 2.966054 1_555
Ba6 O34 2.769304 1_555
Ba6 O20 2.786663 1_655
Ba6 O25 2.786663 1_555
Ba6 O2 2.787977 1_555
Ba6 O10 2.840503 1_555
Ba6 O17 2.866659 1_555
Ba6 O12 2.866659 1_655
Ba6 O4 2.966054 1_555
Ba6 O4 2.966054 1_655
Ba7 O35 2.769304 1_555
Ba7 O23 2.786663 1_555
Ba7 O21 2.786663 1_455
Ba7 O3 2.787977 1_555
Ba7 O11 2.840503 1_555
Ba7 O15 2.866659 1_555
Ba7 O13 2.866659 1_455
Ba7 O5 2.966054 1_555
Ba7 O5 2.966054 1_455
Ba8 O32 2.515970 1_545
Ba8 O4 2.765632 1_555
Ba8 O41 2.954700 1_555
Ba8 O36 2.954700 1_555
Ba8 O10 2.960110 1_455
Ba8 O10 2.960110 1_555
Ba8 O17 3.206973 1_555
Ba8 O12 3.206973 1_555
Ba8 O0 3.208762 1_555
Ba9 O33 2.515970 1_565
Ba9 O5 2.765632 1_555
Ba9 O39 2.954700 1_555
Ba9 O37 2.954700 1_555
Ba9 O11 2.960110 1_555
Ba9 O11 2.960110 1_655
Ba9 O13 3.206973 1_555
Ba9 O15 3.206973 1_555
Ba9 O1 3.208762 1_555
Ba10 O34 2.515970 1_555
Ba10 O6 2.765632 1_555
Ba10 O38 2.954700 1_555
Ba10 O43 2.954700 1_555
Ba10 O8 2.960110 1_655
Ba10 O8 2.960110 1_555
Ba10 O14 3.206973 1_555
Ba10 O19 3.206973 1_555
Ba10 O2 3.208762 1_555
Ba11 O35 2.515970 1_555
Ba11 O7 2.765632 1_555
Ba11 O40 2.954700 1_555
Ba11 O42 2.954700 1_555
Ba11 O9 2.960110 1_455
Ba11 O9 2.960110 1_555
Ba11 O18 3.206973 1_555
Ba11 O16 3.206973 1_555
Ba11 O3 3.208762 1_555
Ba12 O8 2.576820 1_555
Ba12 O19 2.693543 1_555
Ba12 O14 2.693543 1_455
Ba12 O28 2.759388 1_555
Ba12 O36 2.796242 1_555
Ba12 O41 2.796242 1_555
Ba12 O34 3.207610 1_455
Ba12 O34 3.207610 1_555
Ba13 O9 2.576820 1_555
Ba13 O16 2.693543 1_655
Ba13 O18 2.693543 1_555
Ba13 O29 2.759388 1_555
Ba13 O39 2.796242 1_555
Ba13 O37 2.796242 1_555
Ba13 O35 3.207610 1_555
Ba13 O35 3.207610 1_655
Ba14 O10 2.576820 1_565
Ba14 O17 2.693543 1_565
Ba14 O12 2.693543 1_665
Ba14 O30 2.759388 1_555
Ba14 O43 2.796242 1_555
Ba14 O38 2.796242 1_555
Ba14 O32 3.207610 1_555
Ba14 O32 3.207610 1_655
Ba15 O11 2.576820 1_545
Ba15 O15 2.693543 1_545
Ba15 O13 2.693543 1_445
Ba15 O31 2.759388 1_555
Ba15 O40 2.796242 1_555
Ba15 O42 2.796242 1_555
Ba15 O33 3.207610 1_455
Ba15 O33 3.207610 1_555
Ba16 O23 2.787079 1_554
Ba16 O21 2.787079 1_454
Ba16 O25 2.851940 1_555
Ba16 O20 2.851940 1_555
Ba16 O4 2.920636 1_555
Ba16 O2 2.992776 1_455
Ba16 O2 2.992776 1_555
Ba16 O3 3.098704 1_554
Ba16 O38 3.150108 1_555
Ba16 O43 3.150108 1_455
Ba17 O20 2.787079 1_656
Ba17 O25 2.787079 1_556
Ba17 O21 2.851940 1_555
Ba17 O23 2.851940 1_555
Ba17 O5 2.920636 1_555
Ba17 O3 2.992776 1_555
Ba17 O3 2.992776 1_655
Ba17 O2 3.098704 1_556
Ba17 O42 3.150108 1_655
Ba17 O40 3.150108 1_555
Ba18 O24 2.787079 1_655
Ba18 O26 2.787079 1_555
Ba18 O22 2.851940 1_545
Ba18 O27 2.851940 1_545
Ba18 O6 2.920636 1_545
Ba18 O0 2.992776 1_655
Ba18 O0 2.992776 1_555
Ba18 O1 3.098704 1_545
Ba18 O41 3.150108 1_655
Ba18 O36 3.150108 1_555
Ba19 O27 2.787079 1_555
Ba19 O22 2.787079 1_455
Ba19 O26 2.851940 1_565
Ba19 O24 2.851940 1_565
Ba19 O7 2.920636 1_565
Ba19 O1 2.992776 1_555
Ba19 O1 2.992776 1_455
Ba19 O0 3.098704 1_565
Ba19 O37 3.150108 1_555
Ba19 O39 3.150108 1_455
Ga0 O8 1.830817 1_555
Ga0 O32 1.840108 1_555
Ga0 O43 1.870822 1_455
Ga0 O38 1.870822 1_555
Ga1 O9 1.830817 1_555
Ga1 O33 1.840108 1_555
Ga1 O42 1.870822 1_655
Ga1 O40 1.870822 1_555
Ga2 O10 1.830817 1_555
Ga2 O34 1.840108 1_555
Ga2 O41 1.870822 1_655
Ga2 O36 1.870822 1_555
Ga3 O11 1.830817 1_555
Ga3 O35 1.840108 1_555
Ga3 O39 1.870822 1_455
Ga3 O37 1.870822 1_555
O0 Ru0 1.906097 1_555
O1 Ru1 1.906097 1_555
O2 Ru2 1.906097 1_555
O3 Ru3 1.906097 1_555
O4 Ru4 1.955941 1_555
O5 Ru5 1.955941 1_555
O6 Ru6 1.955941 1_555
O7 Ru7 1.955941 1_555
O12 Ru4 1.921776 1_555
O13 Ru5 1.921776 1_555
O14 Ru6 1.921776 1_555
O15 Ru5 1.921776 1_555
O16 Ru7 1.921776 1_555
O17 Ru4 1.921776 1_555
O18 Ru7 1.921776 1_555
O19 Ru6 1.921776 1_555
O20 Ru3 2.038912 1_554
O20 Ru4 2.101659 1_555
O21 Ru2 2.038912 1_556
O21 Ru5 2.101659 1_555
O22 Ru1 2.038912 1_555
O22 Ru6 2.101659 1_555
O23 Ru2 2.038912 1_556
O23 Ru5 2.101659 1_555
O24 Ru0 2.038912 1_555
O24 Ru7 2.101659 1_555
O25 Ru3 2.038912 1_554
O25 Ru4 2.101659 1_555
O26 Ru0 2.038912 1_555
O26 Ru7 2.101659 1_555
O27 Ru1 2.038912 1_555
O27 Ru6 2.101659 1_555
O28 Ru7 2.073918 1_555
O28 Ru0 2.077088 1_555
O29 Ru6 2.073918 1_555
O29 Ru1 2.077088 1_555
O30 Ru5 2.073918 1_554
O30 Ru2 2.077088 1_555
O31 Ru4 2.073918 1_556
O31 Ru3 2.077088 1_555
O36 Ru0 2.055056 1_555
O37 Ru1 2.055056 1_555
O38 Ru2 2.055056 1_555
O39 Ru1 2.055056 1_555
O40 Ru3 2.055056 1_555
O41 Ru0 2.055056 1_555
O42 Ru3 2.055056 1_555
O43 Ru2 2.055056 1_555
