# generated using pymatgen
data_BaEuYBiO6
_symmetry_space_group_name_H-M   'P 1'
_cell_length_a   6.07930600
_cell_length_b   6.18155836
_cell_length_c   8.66015028
_cell_angle_alpha   90.04047776
_cell_angle_beta   89.91834220
_cell_angle_gamma   89.83536934
_symmetry_Int_Tables_number   1
_chemical_formula_structural   BaEuYBiO6
_chemical_formula_sum   'Ba2 Eu2 Y2 Bi2 O12'
_cell_volume   325.44309584
_cell_formula_units_Z   2
loop_
 _symmetry_equiv_pos_site_id
 _symmetry_equiv_pos_as_xyz
  1  'x, y, z'
loop_
 _atom_site_type_symbol
 _atom_site_label
 _atom_site_symmetry_multiplicity
 _atom_site_fract_x
 _atom_site_fract_y
 _atom_site_fract_z
 _atom_site_occupancy
  Ba  Ba0  1  0.98983440  0.03673720  0.25007034  1
  Ba  Ba1  1  0.01016560  0.96326280  0.74992966  1
  Eu  Eu0  1  0.50952066  0.54579716  0.25051346  1
  Eu  Eu1  1  0.49047934  0.45420284  0.74948654  1
  Y  Y0  1  0.50000000  0.00000000  0.00000000  1
  Y  Y1  1  -0.00000000  0.50000000  0.50000000  1
  Bi  Bi0  1  -0.00000000  0.50000000  0.00000000  1
  Bi  Bi1  1  0.50000000  0.00000000  0.50000000  1
  O  O0  1  0.21125940  0.22098606  0.95402657  1
  O  O1  1  0.30754464  0.70219855  0.54858283  1
  O  O2  1  0.78874060  0.77901394  0.04597343  1
  O  O3  1  0.69245536  0.29780145  0.45141717  1
  O  O4  1  0.29584380  0.69391706  0.95025772  1
  O  O5  1  0.22065434  0.21385183  0.54561408  1
  O  O6  1  0.70415620  0.30608294  0.04974228  1
  O  O7  1  0.77934566  0.78614817  0.45438592  1
  O  O8  1  0.42819866  0.96210497  0.25405527  1
  O  O9  1  0.10344088  0.48813757  0.24492922  1
  O  O10  1  0.57180134  0.03789503  0.74594473  1
  O  O11  1  0.89655912  0.51186243  0.75507078  1
loop_
_geom_bond_atom_site_label_1
_geom_bond_atom_site_label_2
_geom_bond_distance
_geom_bond_site_symmetry_2
Ba0 O2 2.677698 1_545
Ba0 O7 2.678906 1_545
Ba0 O8 2.703555 1_645
Ba0 O9 2.876845 1_655
Ba0 O6 2.965500 1_555
Ba0 O3 2.980502 1_555
Ba0 O0 3.112121 1_654
Ba0 O5 3.119877 1_655
Ba1 O0 2.677698 1_565
Ba1 O5 2.678906 1_565
Ba1 O10 2.703555 1_465
Ba1 O11 2.876845 1_455
Ba1 O4 2.965500 1_555
Ba1 O1 2.980502 1_555
Ba1 O2 3.112121 1_456
Ba1 O7 3.119877 1_455
Eu0 O9 2.495826 1_555
Eu0 O6 2.568922 1_555
Eu0 O3 2.571668 1_555
Eu0 O8 2.619243 1_555
Eu0 O7 2.834424 1_555
Eu0 O2 2.847190 1_555
Eu0 O1 3.014340 1_555
Eu0 O4 3.048487 1_554
Eu1 O11 2.495826 1_555
Eu1 O4 2.568922 1_555
Eu1 O1 2.571668 1_555
Eu1 O10 2.619243 1_555
Eu1 O5 2.834424 1_555
Eu1 O0 2.847190 1_555
Eu1 O3 3.014340 1_555
Eu1 O6 3.048487 1_556
Bi0 O0 2.183470 1_554
Bi0 O2 2.183470 1_455
Bi0 O6 2.206371 1_455
Bi0 O4 2.206371 1_554
Bi0 O11 2.214441 1_454
Bi0 O9 2.214441 1_555
Bi1 O5 2.184488 1_555
Bi1 O7 2.184488 1_545
Bi1 O8 2.187348 1_545
Bi1 O10 2.187348 1_555
Bi1 O3 2.224141 1_555
Bi1 O1 2.224141 1_545
O0 Y0 2.257162 1_556
O1 Y1 2.291249 1_555
O2 Y0 2.257162 1_565
O3 Y1 2.291249 1_655
O4 Y0 2.306461 1_566
O5 Y1 2.252361 1_555
O6 Y0 2.306461 1_555
O7 Y1 2.252361 1_655
O8 Y0 2.254923 1_565
O9 Y1 2.296920 1_555
O10 Y0 2.254923 1_556
O11 Y1 2.296920 1_655
