# generated using pymatgen
data_GdCO4
_symmetry_space_group_name_H-M   'P 1'
_cell_length_a   4.93805400
_cell_length_b   7.28336600
_cell_length_c   8.36488000
_cell_angle_alpha   90.00000000
_cell_angle_beta   90.00000000
_cell_angle_gamma   90.00000000
_symmetry_Int_Tables_number   1
_chemical_formula_structural   GdCO4
_chemical_formula_sum   'Gd4 C4 O16'
_cell_volume   300.84838493
_cell_formula_units_Z   4
loop_
 _symmetry_equiv_pos_site_id
 _symmetry_equiv_pos_as_xyz
  1  'x, y, z'
loop_
 _atom_site_type_symbol
 _atom_site_label
 _atom_site_symmetry_multiplicity
 _atom_site_fract_x
 _atom_site_fract_y
 _atom_site_fract_z
 _atom_site_occupancy
  Gd  Gd0  1  0.00212100  0.89217500  0.33119600  1
  Gd  Gd1  1  0.49787900  0.10782500  0.83119600  1
  Gd  Gd2  1  0.99787900  0.39217500  0.16880400  1
  Gd  Gd3  1  0.50212100  0.60782500  0.66880400  1
  C  C0  1  0.00277500  0.94946800  0.67889100  1
  C  C1  1  0.49722500  0.05053200  0.17889100  1
  C  C2  1  0.99722500  0.44946800  0.82110900  1
  C  C3  1  0.50277500  0.55053200  0.32110900  1
  O  O0  1  0.97983000  0.69943400  0.12177900  1
  O  O1  1  0.52017000  0.30056600  0.62177900  1
  O  O2  1  0.02017000  0.19943400  0.37822100  1
  O  O3  1  0.47983000  0.80056600  0.87822100  1
  O  O4  1  0.50822400  0.94850500  0.30299300  1
  O  O5  1  0.99177600  0.05149500  0.80299300  1
  O  O6  1  0.49177600  0.44850500  0.19700700  1
  O  O7  1  0.00822400  0.55149500  0.69700700  1
  O  O8  1  0.73789300  0.59730200  0.37899000  1
  O  O9  1  0.76210700  0.40269800  0.87899000  1
  O  O10  1  0.26210700  0.09730200  0.12101000  1
  O  O11  1  0.23789300  0.90269800  0.62101000  1
  O  O12  1  0.28642500  0.59954100  0.39647000  1
  O  O13  1  0.21357500  0.40045900  0.89647000  1
  O  O14  1  0.71357500  0.09954100  0.10353000  1
  O  O15  1  0.78642500  0.90045900  0.60353000  1
loop_
_geom_bond_atom_site_label_1
_geom_bond_atom_site_label_2
_geom_bond_distance
_geom_bond_site_symmetry_2
Gd0 O0 2.247532 1_455
Gd0 O2 2.273935 1_565
Gd0 O4 2.484384 1_455
Gd0 O15 2.515470 1_455
Gd0 O4 2.543580 1_555
Gd0 O8 2.544551 1_455
Gd0 O12 2.609939 1_555
Gd0 O10 2.640357 1_565
Gd0 O11 2.690427 1_555
Gd0 O14 2.817450 1_465
Gd1 O1 2.247532 1_555
Gd1 O3 2.273935 1_545
Gd1 O5 2.484384 1_555
Gd1 O14 2.515470 1_556
Gd1 O5 2.543580 1_455
Gd1 O9 2.544551 1_555
Gd1 O13 2.609939 1_555
Gd1 O11 2.640357 1_545
Gd1 O10 2.690427 1_556
Gd1 O15 2.817450 1_545
Gd2 O2 2.247532 1_655
Gd2 O0 2.273935 1_555
Gd2 O6 2.484384 1_655
Gd2 O13 2.515470 1_654
Gd2 O6 2.543580 1_555
Gd2 O10 2.544551 1_655
Gd2 O14 2.609939 1_555
Gd2 O8 2.640357 1_555
Gd2 O9 2.690427 1_554
Gd2 O12 2.817450 1_655
Gd3 O3 2.247532 1_555
Gd3 O1 2.273935 1_555
Gd3 O7 2.484384 1_555
Gd3 O12 2.515470 1_555
Gd3 O7 2.543580 1_655
Gd3 O11 2.544551 1_555
Gd3 O15 2.609939 1_555
Gd3 O9 2.640357 1_555
Gd3 O8 2.690427 1_555
Gd3 O13 2.817450 1_555
C0 O5 1.277809 1_465
C0 O15 1.290801 1_455
C0 O11 1.303241 1_555
C1 O4 1.277809 1_545
C1 O14 1.290801 1_555
C1 O10 1.303241 1_555
C2 O7 1.277809 1_655
C2 O13 1.290801 1_655
C2 O9 1.303241 1_555
C3 O6 1.277809 1_555
C3 O12 1.290801 1_555
C3 O8 1.303241 1_555
