# generated using pymatgen
data_BeCo2B
_symmetry_space_group_name_H-M   'P 1'
_cell_length_a   8.57753708
_cell_length_b   8.57753708
_cell_length_c   8.57753708
_cell_angle_alpha   124.06081229
_cell_angle_beta   118.67588016
_cell_angle_gamma   87.71175979
_symmetry_Int_Tables_number   1
_chemical_formula_structural   BeCo2B
_chemical_formula_sum   'Be1 Co2 B1'
_cell_volume   435.36877181
_cell_formula_units_Z   1
loop_
 _symmetry_equiv_pos_site_id
 _symmetry_equiv_pos_as_xyz
  1  'x, y, z'
loop_
 _atom_site_type_symbol
 _atom_site_label
 _atom_site_symmetry_multiplicity
 _atom_site_fract_x
 _atom_site_fract_y
 _atom_site_fract_z
 _atom_site_occupancy
  Be  Be0  1  0.00000000  0.00000000  0.00000000  1
  Co  Co0  1  0.00000000  0.27387400  0.27387400  1
  Co  Co1  1  0.00000000  0.72612600  0.72612600  1
  B  B0  1  0.00000000  0.50000000  0.50000000  1
loop_
_geom_bond_atom_site_label_1
_geom_bond_atom_site_label_2
_geom_bond_distance
_geom_bond_site_symmetry_2
Be0 Co0 2.203530 1_555
Be0 Co1 2.203530 1_544
B0 Co1 1.819360 1_555
B0 Co0 1.819360 1_555
