# generated using pymatgen
data_TiCr2Fe3(PO4)6
_symmetry_space_group_name_H-M   'P 1'
_cell_length_a   8.53349606
_cell_length_b   8.53349606
_cell_length_c   8.53349534
_cell_angle_alpha   60.82547238
_cell_angle_beta   60.82547238
_cell_angle_gamma   60.82547039
_symmetry_Int_Tables_number   1
_chemical_formula_structural   TiCr2Fe3(PO4)6
_chemical_formula_sum   'Ti1 Cr2 Fe3 P6 O24'
_cell_volume   447.58571640
_cell_formula_units_Z   1
loop_
 _symmetry_equiv_pos_site_id
 _symmetry_equiv_pos_as_xyz
  1  'x, y, z'
loop_
 _atom_site_type_symbol
 _atom_site_label
 _atom_site_symmetry_multiplicity
 _atom_site_fract_x
 _atom_site_fract_y
 _atom_site_fract_z
 _atom_site_occupancy
  Ti  Ti0  1  0.14554500  0.14554500  0.14554500  1
  Cr  Cr0  1  0.99905400  0.99905400  0.99905400  1
  Cr  Cr1  1  0.49918100  0.49918100  0.49918100  1
  Fe  Fe0  1  0.85349800  0.85349800  0.85349800  1
  Fe  Fe1  1  0.64620000  0.64620000  0.64620000  1
  Fe  Fe2  1  0.35401100  0.35401100  0.35401100  1
  P  P0  1  0.74968900  0.45460800  0.04663800  1
  P  P1  1  0.45460800  0.04663800  0.74968900  1
  P  P2  1  0.04663800  0.74968900  0.45460800  1
  P  P3  1  0.95340100  0.25061600  0.54722000  1
  P  P4  1  0.54722000  0.95340100  0.25061600  1
  P  P5  1  0.25061600  0.54722000  0.95340100  1
  O  O0  1  0.88994000  0.68506400  0.49177300  1
  O  O1  1  0.68506400  0.49177300  0.88994000  1
  O  O2  1  0.93896700  0.09024700  0.74285100  1
  O  O3  1  0.49177300  0.88994000  0.68506400  1
  O  O4  1  0.00446300  0.18198300  0.38409800  1
  O  O5  1  0.75549900  0.40932200  0.55439400  1
  O  O6  1  0.74285100  0.93896700  0.09024700  1
  O  O7  1  0.55439400  0.75549900  0.40932200  1
  O  O8  1  0.81825600  0.60947800  0.00578100  1
  O  O9  1  0.40932200  0.55439400  0.75549900  1
  O  O10  1  0.91150400  0.25519300  0.06303700  1
  O  O11  1  0.60947800  0.00578100  0.81825600  1
  O  O12  1  0.38409800  0.00446300  0.18198300  1
  O  O13  1  0.09024700  0.74285100  0.93896700  1
  O  O14  1  0.59071200  0.43861100  0.24616000  1
  O  O15  1  0.18198300  0.38409800  0.00446300  1
  O  O16  1  0.43861100  0.24616000  0.59071200  1
  O  O17  1  0.25519300  0.06303700  0.91150400  1
  O  O18  1  0.24616000  0.59071200  0.43861100  1
  O  O19  1  0.00578100  0.81825600  0.60947800  1
  O  O20  1  0.50505700  0.10885600  0.31909200  1
  O  O21  1  0.06303700  0.91150400  0.25519300  1
  O  O22  1  0.31909200  0.50505700  0.10885600  1
  O  O23  1  0.10885600  0.31909200  0.50505700  1
loop_
_geom_bond_atom_site_label_1
_geom_bond_atom_site_label_2
_geom_bond_distance
_geom_bond_site_symmetry_2
Cr0 O2 2.166476 1_565
Cr0 O13 2.166477 1_655
Cr0 O6 2.166477 1_556
Cr0 O21 2.192618 1_656
Cr0 O10 2.192618 1_566
Cr0 O17 2.192619 1_665
Cr1 O14 2.142293 1_555
Cr1 O18 2.142293 1_555
Cr1 O16 2.142293 1_555
Cr1 O9 2.147443 1_555
Cr1 O5 2.147443 1_555
Cr1 O7 2.147444 1_555
Fe0 O19 1.925261 1_655
Fe0 O11 1.925261 1_565
Fe0 O8 1.925261 1_556
Fe0 O6 2.100113 1_556
Fe0 O13 2.100113 1_655
Fe0 O2 2.100113 1_565
Fe1 O1 1.935702 1_555
Fe1 O3 1.935703 1_555
Fe1 O0 1.935703 1_555
Fe1 O7 2.136155 1_555
Fe1 O5 2.136155 1_555
Fe1 O9 2.136155 1_555
Fe2 O22 1.931611 1_555
Fe2 O20 1.931611 1_555
Fe2 O23 1.931612 1_555
Fe2 O16 2.099919 1_555
Fe2 O18 2.099919 1_555
Fe2 O14 2.099919 1_555
O0 P2 1.525693 1_655
O1 P0 1.525692 1_556
O2 P3 1.552880 1_555
O3 P1 1.525692 1_565
O4 P3 1.557317 1_455
O4 Ti0 1.884914 1_555
O5 P3 1.562093 1_555
O6 P4 1.552880 1_555
O7 P4 1.562093 1_555
O8 P0 1.521935 1_555
O9 P5 1.562093 1_555
O10 P0 1.577160 1_555
O10 Ti0 2.065610 1_655
O11 P1 1.521934 1_555
O12 P4 1.557317 1_545
O12 Ti0 1.884914 1_555
O13 P5 1.552880 1_555
O14 P0 1.568438 1_555
O15 P5 1.557317 1_554
O15 Ti0 1.884914 1_555
O16 P1 1.568438 1_555
O17 P1 1.577160 1_555
O17 Ti0 2.065610 1_556
O18 P2 1.568438 1_555
O19 P2 1.521934 1_555
O20 P4 1.521887 1_545
O21 P2 1.577160 1_555
O21 Ti0 2.065610 1_565
O22 P5 1.521887 1_554
O23 P3 1.521887 1_455
