# generated using pymatgen
data_Zn2IrAu
_symmetry_space_group_name_H-M   'P 1'
_cell_length_a   10.52062717
_cell_length_b   10.52062717
_cell_length_c   10.52062717
_cell_angle_alpha   124.28878221
_cell_angle_beta   118.62848298
_cell_angle_gamma   87.56462228
_symmetry_Int_Tables_number   1
_chemical_formula_structural   Zn2IrAu
_chemical_formula_sum   'Zn2 Ir1 Au1'
_cell_volume   801.86524271
_cell_formula_units_Z   1
loop_
 _symmetry_equiv_pos_site_id
 _symmetry_equiv_pos_as_xyz
  1  'x, y, z'
loop_
 _atom_site_type_symbol
 _atom_site_label
 _atom_site_symmetry_multiplicity
 _atom_site_fract_x
 _atom_site_fract_y
 _atom_site_fract_z
 _atom_site_occupancy
  Zn  Zn0  1  0.00000000  0.24687800  0.24687800  1
  Zn  Zn1  1  0.00000000  0.75312200  0.75312200  1
  Ir  Ir0  1  0.00000000  0.00000000  0.00000000  1
  Au  Au0  1  0.00000000  0.50000000  0.50000000  1
loop_
_geom_bond_atom_site_label_1
_geom_bond_atom_site_label_2
_geom_bond_distance
_geom_bond_site_symmetry_2
Ir0 Zn0 2.427161 1_555
Ir0 Zn1 2.427161 1_544
Au0 Zn1 2.488549 1_555
Au0 Zn0 2.488549 1_555
