# generated using pymatgen
data_RbLiMnS2
_symmetry_space_group_name_H-M   'P 1'
_cell_length_a   7.06631592
_cell_length_b   7.06631592
_cell_length_c   7.06631592
_cell_angle_alpha   147.66859447
_cell_angle_beta   147.66859447
_cell_angle_gamma   46.37482857
_symmetry_Int_Tables_number   1
_chemical_formula_structural   RbLiMnS2
_chemical_formula_sum   'Rb1 Li1 Mn1 S2'
_cell_volume   100.56539425
_cell_formula_units_Z   1
loop_
 _symmetry_equiv_pos_site_id
 _symmetry_equiv_pos_as_xyz
  1  'x, y, z'
loop_
 _atom_site_type_symbol
 _atom_site_label
 _atom_site_symmetry_multiplicity
 _atom_site_fract_x
 _atom_site_fract_y
 _atom_site_fract_z
 _atom_site_occupancy
  Rb  Rb0  1  0.00000000  0.00000000  0.00000000  1
  Li  Li0  1  0.25000000  0.75000000  0.50000000  1
  Mn  Mn0  1  0.75000000  0.25000000  0.50000000  1
  S  S0  1  0.66245800  0.66245800  0.00000000  1
  S  S1  1  0.33754200  0.33754200  0.00000000  1
loop_
_geom_bond_atom_site_label_1
_geom_bond_atom_site_label_2
_geom_bond_distance
_geom_bond_site_symmetry_2
Rb0 S0 3.492182 1_556
Rb0 S1 3.492182 1_455
Rb0 S0 3.492182 1_444
Rb0 S0 3.492182 1_545
Rb0 S1 3.492182 1_444
Rb0 S1 3.492182 1_545
Rb0 S0 3.492182 1_455
Rb0 S1 3.492182 1_556
Li0 S0 2.272429 1_455
Li0 S0 2.272429 1_556
Li0 S1 2.272429 1_566
Li0 S1 2.272429 1_555
Mn0 S1 2.272429 1_656
Mn0 S0 2.272429 1_556
Mn0 S1 2.272429 1_555
Mn0 S0 2.272429 1_545
