# generated using pymatgen
data_KSrBi2O5
_symmetry_space_group_name_H-M   'P 1'
_cell_length_a   4.42830996
_cell_length_b   4.42830996
_cell_length_c   7.87414400
_cell_angle_alpha   90.00000000
_cell_angle_beta   90.00000000
_cell_angle_gamma   90.00000000
_symmetry_Int_Tables_number   1
_chemical_formula_structural   KSrBi2O5
_chemical_formula_sum   'K1 Sr1 Bi2 O5'
_cell_volume   154.41140539
_cell_formula_units_Z   1
loop_
 _symmetry_equiv_pos_site_id
 _symmetry_equiv_pos_as_xyz
  1  'x, y, z'
loop_
 _atom_site_type_symbol
 _atom_site_label
 _atom_site_symmetry_multiplicity
 _atom_site_fract_x
 _atom_site_fract_y
 _atom_site_fract_z
 _atom_site_occupancy
  K  K0  1  0.50000000  0.50000000  0.25000000  1
  Sr  Sr0  1  0.50000000  0.50000000  0.75000000  1
  Bi  Bi0  1  0.00000000  0.00000000  0.01649800  1
  Bi  Bi1  1  0.00000000  0.00000000  0.48350200  1
  O  O0  1  0.00000000  0.50000000  0.99362900  1
  O  O1  1  0.00000000  0.50000000  0.50637100  1
  O  O2  1  0.50000000  0.00000000  0.50637100  1
  O  O3  1  0.50000000  0.00000000  0.99362900  1
  O  O4  1  0.00000000  0.00000000  0.75000000  1
loop_
_geom_bond_atom_site_label_1
_geom_bond_atom_site_label_2
_geom_bond_distance
_geom_bond_site_symmetry_2
K0 O1 2.996271 1_555
K0 O0 2.996271 1_654
K0 O3 2.996271 1_564
K0 O1 2.996271 1_655
K0 O2 2.996271 1_565
K0 O2 2.996271 1_555
K0 O0 2.996271 1_554
K0 O3 2.996271 1_554
Bi0 O4 2.098444 1_554
Bi0 O0 2.221465 1_544
Bi0 O3 2.221465 1_454
Bi0 O0 2.221465 1_554
Bi0 O3 2.221465 1_554
Bi1 O4 2.098444 1_555
Bi1 O2 2.221465 1_455
Bi1 O1 2.221465 1_555
Bi1 O1 2.221465 1_545
Bi1 O2 2.221465 1_555
O0 Sr0 2.929612 1_455
O0 Sr0 2.929612 1_555
O1 Sr0 2.929612 1_455
O1 Sr0 2.929612 1_555
O2 Sr0 2.929612 1_545
O2 Sr0 2.929612 1_555
O3 Sr0 2.929612 1_545
O3 Sr0 2.929612 1_555
O4 Sr0 3.131288 1_445
O4 Sr0 3.131288 1_545
O4 Sr0 3.131288 1_455
O4 Sr0 3.131288 1_555
