# generated using pymatgen
data_MgFe10(O4F)4
_symmetry_space_group_name_H-M   'P 1'
_cell_length_a   4.94567566
_cell_length_b   12.92353064
_cell_length_c   5.59821104
_cell_angle_alpha   104.56806942
_cell_angle_beta   91.55119153
_cell_angle_gamma   88.87736572
_symmetry_Int_Tables_number   1
_chemical_formula_structural   MgFe10(O4F)4
_chemical_formula_sum   'Mg1 Fe10 O16 F4'
_cell_volume   346.15197055
_cell_formula_units_Z   1
loop_
 _symmetry_equiv_pos_site_id
 _symmetry_equiv_pos_as_xyz
  1  'x, y, z'
loop_
 _atom_site_type_symbol
 _atom_site_label
 _atom_site_symmetry_multiplicity
 _atom_site_fract_x
 _atom_site_fract_y
 _atom_site_fract_z
 _atom_site_occupancy
  Mg  Mg0  1  0.49627900  0.30460000  0.59581200  1
  Fe  Fe0  1  0.50492500  0.99590300  0.51052700  1
  Fe  Fe1  1  0.51391400  0.42887000  0.24075900  1
  Fe  Fe2  1  0.42058500  0.19161700  0.94022900  1
  Fe  Fe3  1  0.52373600  0.60829000  0.68114100  1
  Fe  Fe4  1  0.53060200  0.80427300  0.09976600  1
  Fe  Fe5  1  0.98794800  0.40258400  0.77743400  1
  Fe  Fe6  1  0.00422700  0.80467600  0.62022700  1
  Fe  Fe7  1  0.00888800  0.18847400  0.42808300  1
  Fe  Fe8  1  0.98650100  0.60566300  0.20837400  1
  Fe  Fe9  1  0.02083000  0.99122400  0.02906600  1
  O  O0  1  0.83320200  0.25406900  0.72106400  1
  O  O1  1  0.83027000  0.86546000  0.94118600  1
  O  O2  1  0.83163300  0.66540800  0.52767900  1
  O  O3  1  0.83073800  0.05606700  0.34222400  1
  O  O4  1  0.83187400  0.46423800  0.10003600  1
  O  O5  1  0.65363400  0.45305100  0.59779100  1
  O  O6  1  0.68601500  0.66363800  0.01824000  1
  O  O7  1  0.69267600  0.85697300  0.42754800  1
  O  O8  1  0.33628700  0.34143800  0.94240100  1
  O  O9  1  0.33218000  0.74663200  0.78987800  1
  O  O10  1  0.34577400  0.14552300  0.58873900  1
  O  O11  1  0.33368500  0.93549600  0.19198400  1
  O  O12  1  0.31597700  0.55663400  0.37012500  1
  O  O13  1  0.15141100  0.13530100  0.10235800  1
  O  O14  1  0.17792700  0.94651800  0.70799000  1
  O  O15  1  0.14404400  0.32839800  0.45397600  1
  F  F0  1  0.66630400  0.06099000  0.85734100  1
  F  F1  1  0.64159600  0.25904300  0.24557200  1
  F  F2  1  0.18178300  0.54585000  0.86430100  1
  F  F3  1  0.18455800  0.74726800  0.28052900  1
loop_
_geom_bond_atom_site_label_1
_geom_bond_atom_site_label_2
_geom_bond_distance
_geom_bond_site_symmetry_2
Mg0 O15 1.945955 1_555
Mg0 O0 1.954271 1_555
Mg0 O8 2.054533 1_555
Mg0 O5 2.081776 1_555
Mg0 O10 2.190777 1_555
Fe0 O11 1.936633 1_555
Fe0 O7 1.959630 1_555
Fe0 O10 2.020705 1_565
Fe0 O3 2.142105 1_565
Fe0 O14 2.176444 1_555
Fe1 O4 1.891763 1_555
Fe1 O12 1.892782 1_555
Fe1 O8 1.961714 1_554
Fe1 O5 2.046847 1_555
Fe2 O13 1.887168 1_556
Fe2 O10 1.934736 1_555
Fe2 O8 1.969694 1_555
Fe3 O12 1.969333 1_555
Fe3 O9 1.970253 1_555
Fe3 O6 1.994630 1_556
Fe3 O2 2.008894 1_555
Fe3 O5 2.037210 1_555
Fe4 O11 1.900791 1_555
Fe4 O6 1.910327 1_555
Fe4 O7 1.945923 1_555
Fe4 O9 1.952917 1_554
Fe4 O1 2.019956 1_554
Fe5 O4 1.954424 1_556
Fe5 O15 1.991846 1_655
Fe5 O0 2.027055 1_555
Fe5 O5 2.090028 1_555
Fe5 O8 2.161695 1_655
Fe6 O2 1.950285 1_455
Fe6 O14 1.981267 1_555
Fe6 O1 1.983152 1_455
Fe6 O7 2.056794 1_455
Fe6 O9 2.079123 1_555
Fe7 O0 1.874189 1_455
Fe7 O3 1.886213 1_455
Fe7 O15 1.909992 1_555
Fe7 O13 1.927272 1_555
Fe7 O10 2.006681 1_555
Fe8 O2 1.932545 1_555
Fe8 O4 1.940412 1_555
Fe8 O12 2.011205 1_655
Fe8 O6 2.043224 1_555
Fe9 O1 1.845145 1_454
Fe9 O13 1.923759 1_565
Fe9 O14 1.924547 1_554
Fe9 O11 1.988711 1_555
Fe9 O3 1.994705 1_465
F0 Fe2 2.024377 1_555
F0 Fe0 2.057903 1_545
F0 Fe9 2.257048 1_646
F1 Fe2 2.015657 1_554
F1 Mg0 2.046106 1_555
F1 Fe1 2.278376 1_555
F1 Fe7 2.340673 1_655
F2 Fe5 2.043260 1_455
F2 Fe8 2.136107 1_456
F2 Fe3 2.264124 1_555
F3 Fe8 2.036815 1_455
F3 Fe6 2.078087 1_555
F3 Fe4 2.239184 1_555
