# generated using pymatgen
data_B
_symmetry_space_group_name_H-M   'P 1'
_cell_length_a   10.11640528
_cell_length_b   10.11640569
_cell_length_c   10.11640528
_cell_angle_alpha   65.53338970
_cell_angle_beta   65.53338359
_cell_angle_gamma   65.53338965
_symmetry_Int_Tables_number   1
_chemical_formula_structural   B
_chemical_formula_sum   B105
_cell_volume   820.12931093
_cell_formula_units_Z   105
loop_
 _symmetry_equiv_pos_site_id
 _symmetry_equiv_pos_as_xyz
  1  'x, y, z'
loop_
 _atom_site_type_symbol
 _atom_site_label
 _atom_site_symmetry_multiplicity
 _atom_site_fract_x
 _atom_site_fract_y
 _atom_site_fract_z
 _atom_site_occupancy
  B  B0  1  0.41910890  0.90447150  0.63551629  1
  B  B1  1  0.90447150  0.63551629  0.41910890  1
  B  B2  1  0.63551629  0.41910890  0.90447150  1
  B  B3  1  0.90447064  0.41910880  0.63551835  1
  B  B4  1  0.41910880  0.63551835  0.90447064  1
  B  B5  1  0.63551835  0.90447064  0.41910880  1
  B  B6  1  0.58089110  0.09552850  0.36448371  1
  B  B7  1  0.09552850  0.36448371  0.58089110  1
  B  B8  1  0.36448371  0.58089110  0.09552850  1
  B  B9  1  0.09552936  0.58089120  0.36448165  1
  B  B10  1  0.58089120  0.36448165  0.09552936  1
  B  B11  1  0.36448165  0.09552936  0.58089120  1
  B  B12  1  0.60653087  0.60653087  0.60653087  1
  B  B13  1  0.39346913  0.39346913  0.39346913  1
  B  B14  1  0.10646312  0.49313675  0.10645183  1
  B  B15  1  0.49313675  0.10645183  0.10646312  1
  B  B16  1  0.10645183  0.10646312  0.49313675  1
  B  B17  1  0.89353688  0.50686325  0.89354817  1
  B  B18  1  0.50686325  0.89354817  0.89353688  1
  B  B19  1  0.89354817  0.89353688  0.50686325  1
  B  B20  1  0.63909153  0.00399349  0.82341244  1
  B  B21  1  0.00399349  0.82341244  0.63909153  1
  B  B22  1  0.82341244  0.63909153  0.00399349  1
  B  B23  1  0.00399368  0.63907921  0.82341684  1
  B  B24  1  0.63907921  0.82341684  0.00399268  1
  B  B25  1  0.82341684  0.00399368  0.63907921  1
  B  B26  1  0.36090747  0.99600651  0.17658756  1
  B  B27  1  0.99600651  0.17658756  0.36090847  1
  B  B28  1  0.17658756  0.36090747  0.99600651  1
  B  B29  1  0.99600632  0.36092079  0.17658316  1
  B  B30  1  0.36092079  0.17658316  0.99600732  1
  B  B31  1  0.17658316  0.99600632  0.36092079  1
  B  B32  1  0.79912988  0.31430329  0.79913235  1
  B  B33  1  0.31430329  0.79913235  0.79912988  1
  B  B34  1  0.79913235  0.79912988  0.31430329  1
  B  B35  1  0.20087012  0.68569671  0.20086765  1
  B  B36  1  0.68569671  0.20086765  0.20087012  1
  B  B37  1  0.20086765  0.20087012  0.68569671  1
  B  B38  1  0.50949875  0.78550839  0.50949847  1
  B  B39  1  0.78550839  0.50949847  0.50949875  1
  B  B40  1  0.50949847  0.50949875  0.78550839  1
  B  B41  1  0.49050125  0.21449161  0.49050153  1
  B  B42  1  0.21449161  0.49050153  0.49050125  1
  B  B43  1  0.49050153  0.49050125  0.21449161  1
  B  B44  1  0.61234967  0.78353506  0.61234902  1
  B  B45  1  0.78353506  0.61234902  0.61234967  1
  B  B46  1  0.61234902  0.61234967  0.78353506  1
  B  B47  1  0.38765033  0.21646494  0.38765098  1
  B  B48  1  0.21646494  0.38765098  0.38765033  1
  B  B49  1  0.38765098  0.38765033  0.21646494  1
  B  B50  1  0.54628019  0.17859103  0.88710357  1
  B  B51  1  0.17859103  0.88710357  0.54628019  1
  B  B52  1  0.88710357  0.54628019  0.17859203  1
  B  B53  1  0.17859913  0.54627027  0.88710596  1
  B  B54  1  0.54627027  0.88710596  0.17859913  1
  B  B55  1  0.88710596  0.17859913  0.54627027  1
  B  B56  1  0.45371981  0.82140897  0.11289643  1
  B  B57  1  0.82140897  0.11289643  0.45371981  1
  B  B58  1  0.11289643  0.45371981  0.82140797  1
  B  B59  1  0.82140087  0.45372973  0.11289404  1
  B  B60  1  0.45372973  0.11289404  0.82140087  1
  B  B61  1  0.11289404  0.82140087  0.45372973  1
  B  B62  1  0.89908317  0.16465533  0.89909130  1
  B  B63  1  0.16465533  0.89909130  0.89908317  1
  B  B64  1  0.89909130  0.89908317  0.16465533  1
  B  B65  1  0.10091683  0.83534467  0.10090870  1
  B  B66  1  0.83534467  0.10090870  0.10091683  1
  B  B67  1  0.10090870  0.10091683  0.83534467  1
  B  B68  1  0.20292492  0.50478723  0.20292292  1
  B  B69  1  0.50478723  0.20292292  0.20292492  1
  B  B70  1  0.20292292  0.20292492  0.50478723  1
  B  B71  1  0.79707508  0.49521277  0.79707708  1
  B  B72  1  0.49521277  0.79707708  0.79707508  1
  B  B73  1  0.79707708  0.79707508  0.49521277  1
  B  B74  1  0.32453172  0.80069858  0.62153018  1
  B  B75  1  0.80069858  0.62153018  0.32453172  1
  B  B76  1  0.62153018  0.32453172  0.80069858  1
  B  B77  1  0.80069729  0.32453188  0.62153127  1
  B  B78  1  0.32453188  0.62153127  0.80069729  1
  B  B79  1  0.62153127  0.80069729  0.32453188  1
  B  B80  1  0.67546828  0.19930142  0.37846982  1
  B  B81  1  0.19930142  0.37846982  0.67546828  1
  B  B82  1  0.37846982  0.67546828  0.19930142  1
  B  B83  1  0.19930271  0.67546812  0.37846873  1
  B  B84  1  0.67546812  0.37846873  0.19930271  1
  B  B85  1  0.37846873  0.19930271  0.67546812  1
  B  B86  1  0.00061758  0.16230225  0.00062808  1
  B  B87  1  0.16230225  0.00062808  0.00061758  1
  B  B88  1  0.00062808  0.00061758  0.16230225  1
  B  B89  1  0.99938242  0.83769775  0.99937192  1
  B  B90  1  0.83769775  0.99937192  0.99938242  1
  B  B91  1  0.99937192  0.99938242  0.83769775  1
  B  B92  1  0.00359431  0.33600489  0.00359844  1
  B  B93  1  0.33600489  0.00359844  0.00359431  1
  B  B94  1  0.00359844  0.00359431  0.33600489  1
  B  B95  1  0.99640569  0.66399511  0.99640156  1
  B  B96  1  0.66399511  0.99640156  0.99640569  1
  B  B97  1  0.99640156  0.99640569  0.66399511  1
  B  B98  1  0.50000000  0.50000000  0.50000000  1
  B  B99  1  0.82001784  0.97964330  0.81998435  1
  B  B100  1  0.97964330  0.81998435  0.82001784  1
  B  B101  1  0.81998435  0.82001784  0.97964330  1
  B  B102  1  0.17998216  0.02035670  0.18001565  1
  B  B103  1  0.02035670  0.18001565  0.17998216  1
  B  B104  1  0.18001565  0.17998216  0.02035670  1
loop_
_geom_bond_atom_site_label_1
_geom_bond_atom_site_label_2
_geom_bond_distance
_geom_bond_site_symmetry_2
B0 B11 1.682271 1_565
B0 B33 1.737987 1_555
B0 B74 1.762022 1_555
B0 B44 1.802849 1_555
B0 B38 1.817538 1_555
B0 B72 1.822896 1_555
B1 B9 1.682271 1_655
B1 B34 1.737987 1_555
B1 B75 1.762022 1_555
B1 B45 1.802849 1_555
B1 B39 1.817538 1_555
B1 B73 1.822896 1_555
B2 B32 1.737987 1_555
B2 B76 1.762022 1_555
B2 B46 1.802849 1_555
B2 B40 1.817538 1_555
B2 B71 1.822896 1_555
B3 B7 1.682271 1_655
B3 B32 1.737996 1_555
B3 B77 1.762029 1_555
B3 B45 1.802842 1_555
B3 B39 1.817545 1_555
B3 B71 1.822897 1_555
B4 B8 1.682271 1_556
B4 B78 1.762029 1_555
B4 B46 1.802842 1_555
B4 B40 1.817545 1_555
B4 B72 1.822897 1_555
B5 B6 1.682271 1_565
B5 B79 1.762029 1_555
B5 B73 1.822897 1_555
B6 B80 1.762022 1_555
B6 B69 1.822896 1_555
B7 B81 1.762022 1_555
B7 B70 1.822896 1_555
B8 B82 1.762022 1_555
B10 B2 1.682271 1_554
B10 B36 1.737996 1_555
B10 B84 1.762029 1_555
B10 B49 1.802842 1_555
B10 B43 1.817545 1_555
B10 B69 1.822897 1_555
B11 B37 1.737996 1_555
B11 B85 1.762029 1_555
B11 B47 1.802842 1_555
B11 B41 1.817545 1_555
B11 B70 1.822897 1_555
B12 B39 1.749055 1_555
B12 B40 1.749055 1_555
B12 B38 1.749055 1_555
B12 B45 1.841420 1_555
B12 B46 1.841420 1_555
B12 B44 1.841420 1_555
B13 B42 1.749055 1_555
B13 B43 1.749055 1_555
B13 B41 1.749055 1_555
B13 B48 1.841420 1_555
B13 B49 1.841420 1_555
B13 B47 1.841420 1_555
B14 B68 1.702365 1_555
B14 B95 1.818079 1_454
B14 B29 1.826562 1_455
B14 B28 1.826598 1_554
B14 B53 1.934166 1_554
B14 B52 1.934284 1_455
B15 B69 1.702365 1_555
B15 B96 1.818078 1_544
B15 B30 1.826555 1_554
B15 B26 1.826597 1_545
B15 B54 1.934166 1_545
B15 B50 1.934284 1_554
B16 B70 1.702365 1_555
B16 B97 1.818078 1_445
B16 B31 1.826562 1_545
B16 B27 1.826589 1_455
B16 B55 1.934166 1_455
B16 B51 1.934284 1_545
B17 B71 1.702365 1_555
B17 B92 1.818079 1_656
B17 B23 1.826562 1_655
B17 B22 1.826589 1_556
B17 B59 1.934166 1_556
B17 B58 1.934284 1_655
B18 B72 1.702365 1_555
B18 B93 1.818078 1_566
B18 B24 1.826555 1_556
B18 B20 1.826589 1_565
B18 B60 1.934166 1_565
B18 B56 1.934284 1_556
B19 B73 1.702365 1_555
B19 B94 1.818078 1_665
B19 B25 1.826562 1_565
B19 B21 1.826589 1_655
B19 B61 1.934166 1_655
B19 B57 1.934284 1_565
B20 B99 1.730028 1_545
B20 B60 1.741350 1_555
B20 B96 1.835746 1_545
B20 B50 1.866659 1_555
B20 B24 1.977405 1_546
B20 B25 2.018478 1_555
B21 B61 1.741350 1_555
B21 B97 1.835746 1_455
B21 B51 1.866659 1_555
B21 B25 1.977410 1_465
B21 B23 2.018478 1_555
B22 B59 1.741350 1_555
B22 B95 1.835746 1_554
B22 B52 1.866668 1_555
B22 B23 1.977410 1_654
B22 B24 2.018478 1_555
B23 B58 1.741329 1_555
B23 B95 1.835741 1_455
B23 B53 1.866719 1_555
B24 B56 1.741329 1_555
B24 B96 1.835745 1_554
B24 B54 1.866728 1_555
B25 B99 1.729921 1_545
B25 B57 1.741327 1_555
B25 B97 1.835741 1_545
B25 B55 1.866719 1_555
B26 B54 1.741358 1_555
B26 B93 1.835741 1_565
B26 B56 1.866658 1_555
B26 B30 1.977405 1_564
B26 B31 2.018472 1_555
B27 B55 1.741350 1_555
B27 B94 1.835746 1_655
B27 B57 1.866659 1_555
B27 B31 1.977410 1_645
B27 B29 2.018478 1_555
B28 B53 1.741359 1_555
B28 B92 1.835741 1_556
B28 B58 1.866667 1_555
B28 B29 1.977410 1_456
B28 B30 2.018472 1_555
B29 B52 1.741329 1_555
B29 B92 1.835741 1_655
B29 B59 1.866719 1_555
B30 B50 1.741329 1_555
B30 B93 1.835745 1_556
B30 B60 1.866728 1_555
B31 B51 1.741327 1_555
B31 B94 1.835741 1_565
B31 B61 1.866719 1_555
B32 B62 1.627213 1_555
B32 B76 1.750076 1_555
B32 B77 1.750085 1_555
B32 B71 1.813188 1_555
B33 B63 1.627213 1_555
B33 B4 1.737996 1_555
B33 B74 1.750076 1_555
B33 B78 1.750085 1_555
B33 B72 1.813188 1_555
B34 B64 1.627213 1_555
B34 B5 1.737996 1_555
B34 B75 1.750076 1_555
B34 B79 1.750085 1_555
B34 B73 1.813188 1_555
B35 B65 1.627213 1_555
B35 B8 1.737987 1_555
B35 B9 1.737996 1_555
B35 B82 1.750076 1_555
B35 B83 1.750085 1_555
B35 B68 1.813188 1_555
B36 B66 1.627213 1_555
B36 B6 1.737987 1_555
B36 B80 1.750076 1_555
B36 B84 1.750085 1_555
B36 B69 1.813188 1_555
B37 B67 1.627213 1_555
B37 B7 1.737987 1_555
B37 B81 1.750076 1_555
B37 B85 1.750085 1_555
B37 B70 1.813188 1_555
B38 B79 1.720152 1_555
B38 B74 1.720153 1_555
B38 B44 1.740094 1_555
B38 B5 1.817545 1_555
B39 B77 1.720153 1_555
B39 B75 1.720153 1_555
B39 B45 1.740094 1_555
B40 B78 1.720153 1_555
B40 B76 1.720153 1_555
B40 B46 1.740094 1_555
B41 B85 1.720152 1_555
B41 B80 1.720153 1_555
B41 B47 1.740094 1_555
B41 B6 1.817538 1_555
B42 B83 1.720153 1_555
B42 B81 1.720153 1_555
B42 B48 1.740094 1_555
B42 B7 1.817538 1_555
B42 B9 1.817545 1_555
B43 B84 1.720153 1_555
B43 B82 1.720153 1_555
B43 B49 1.740094 1_555
B43 B8 1.817538 1_555
B44 B72 1.777231 1_555
B44 B73 1.777236 1_555
B44 B5 1.802842 1_555
B44 B45 1.874551 1_555
B44 B46 1.874551 1_555
B45 B73 1.777231 1_555
B45 B71 1.777236 1_555
B45 B46 1.874550 1_555
B46 B71 1.777231 1_555
B46 B72 1.777236 1_555
B47 B69 1.777231 1_555
B47 B70 1.777236 1_555
B47 B6 1.802849 1_555
B47 B48 1.874551 1_555
B47 B49 1.874551 1_555
B48 B70 1.777231 1_555
B48 B68 1.777236 1_555
B48 B9 1.802842 1_555
B48 B7 1.802849 1_555
B48 B49 1.874550 1_555
B49 B68 1.777231 1_555
B49 B69 1.777236 1_555
B49 B8 1.802849 1_555
B50 B76 1.683487 1_555
B50 B60 1.776785 1_555
B50 B96 1.903249 1_545
B51 B74 1.683487 1_555
B51 B61 1.776785 1_555
B51 B97 1.903249 1_455
B52 B75 1.683479 1_555
B52 B59 1.776793 1_555
B52 B95 1.903254 1_554
B53 B78 1.683485 1_555
B53 B58 1.776793 1_555
B53 B95 1.903286 1_455
B54 B79 1.683485 1_555
B54 B56 1.776785 1_555
B54 B96 1.903286 1_554
B55 B77 1.683485 1_555
B55 B57 1.776785 1_555
B55 B97 1.903286 1_545
B56 B82 1.683487 1_555
B56 B93 1.903249 1_565
B57 B80 1.683487 1_555
B57 B94 1.903249 1_655
B58 B81 1.683479 1_555
B58 B92 1.903254 1_556
B59 B84 1.683485 1_555
B59 B92 1.903286 1_655
B60 B85 1.683485 1_555
B60 B93 1.903286 1_556
B61 B83 1.683485 1_555
B61 B94 1.903286 1_565
B62 B86 1.715865 1_656
B62 B91 1.773037 1_545
B62 B90 1.773087 1_545
B62 B67 1.778668 1_655
B62 B66 1.778668 1_556
B63 B87 1.715865 1_566
B63 B89 1.773037 1_455
B63 B91 1.773087 1_455
B63 B65 1.778668 1_556
B63 B67 1.778668 1_565
B64 B88 1.715865 1_665
B64 B90 1.773037 1_554
B64 B89 1.773087 1_554
B64 B65 1.778668 1_655
B64 B66 1.778668 1_565
B65 B89 1.715865 1_454
B65 B88 1.773037 1_565
B65 B87 1.773087 1_565
B66 B90 1.715865 1_544
B66 B86 1.773037 1_655
B66 B88 1.773087 1_655
B67 B91 1.715865 1_445
B67 B87 1.773037 1_556
B67 B86 1.773087 1_556
B68 B8 1.822896 1_555
B68 B9 1.822897 1_555
B74 B78 1.961951 1_555
B75 B79 1.961951 1_555
B76 B77 1.961951 1_555
B80 B84 1.961951 1_555
B81 B85 1.961951 1_555
B82 B83 1.961951 1_555
B83 B9 1.762029 1_555
B86 B87 1.770453 1_555
B86 B88 1.770453 1_555
B86 B92 1.782708 1_555
B87 B88 1.770453 1_555
B87 B93 1.782707 1_555
B88 B94 1.782707 1_555
B89 B90 1.770453 1_555
B89 B91 1.770453 1_555
B89 B95 1.782708 1_555
B90 B91 1.770453 1_555
B90 B96 1.782707 1_555
B90 B99 1.990987 1_555
B91 B97 1.782707 1_555
B91 B99 1.990774 1_555
B96 B99 1.844165 1_555
B97 B99 1.843782 1_555
B100 B23 1.729921 1_655
B100 B21 1.730028 1_655
B100 B101 1.748145 1_555
B100 B99 1.748145 1_555
B100 B95 1.843782 1_555
B100 B97 1.844166 1_555
B100 B89 1.990774 1_555
B100 B91 1.990987 1_555
B101 B24 1.729924 1_556
B101 B22 1.730028 1_556
B101 B99 1.748145 1_555
B101 B96 1.843782 1_555
B101 B95 1.844166 1_555
B101 B90 1.990774 1_555
B101 B89 1.990987 1_555
B102 B31 1.729921 1_545
B102 B26 1.730018 1_545
B102 B103 1.748145 1_555
B102 B104 1.748145 1_555
B102 B94 1.843782 1_555
B102 B93 1.844165 1_555
B102 B88 1.990774 1_555
B102 B87 1.990987 1_555
B103 B29 1.729921 1_455
B103 B27 1.730028 1_455
B103 B104 1.748145 1_555
B103 B92 1.843782 1_555
B103 B94 1.844166 1_555
B103 B86 1.990774 1_555
B103 B88 1.990987 1_555
B104 B30 1.729924 1_554
B104 B28 1.730018 1_554
B104 B93 1.843782 1_555
B104 B92 1.844166 1_555
B104 B87 1.990774 1_555
B104 B86 1.990987 1_555
