# generated using pymatgen
data_Na2Zr(MoO4)3
_symmetry_space_group_name_H-M   'P 1'
_cell_length_a   10.15289870
_cell_length_b   10.15289870
_cell_length_c   5.16865960
_cell_angle_alpha   80.67072520
_cell_angle_beta   80.67072520
_cell_angle_gamma   68.40703347
_symmetry_Int_Tables_number   1
_chemical_formula_structural   Na2Zr(MoO4)3
_chemical_formula_sum   'Na4 Zr2 Mo6 O24'
_cell_volume   485.79223182
_cell_formula_units_Z   2
loop_
 _symmetry_equiv_pos_site_id
 _symmetry_equiv_pos_as_xyz
  1  'x, y, z'
loop_
 _atom_site_type_symbol
 _atom_site_label
 _atom_site_symmetry_multiplicity
 _atom_site_fract_x
 _atom_site_fract_y
 _atom_site_fract_z
 _atom_site_occupancy
  Na  Na0  1  0.03071200  0.28645300  0.12612900  1
  Na  Na1  1  0.71354700  0.96928800  0.37387100  1
  Na  Na2  1  0.96928800  0.71354700  0.87387100  1
  Na  Na3  1  0.28645300  0.03071200  0.62612900  1
  Zr  Zr0  1  0.62408000  0.37592000  0.25000000  1
  Zr  Zr1  1  0.37592000  0.62408000  0.75000000  1
  Mo  Mo0  1  0.54999600  0.76625000  0.13479400  1
  Mo  Mo1  1  0.23375000  0.45000400  0.36520600  1
  Mo  Mo2  1  0.45000400  0.23375000  0.86520600  1
  Mo  Mo3  1  0.76625000  0.54999600  0.63479400  1
  Mo  Mo4  1  0.14043600  0.85956400  0.25000000  1
  Mo  Mo5  1  0.85956400  0.14043600  0.75000000  1
  O  O0  1  0.41918100  0.79056800  0.90585300  1
  O  O1  1  0.20943200  0.58081900  0.59414700  1
  O  O2  1  0.58081900  0.20943200  0.09414700  1
  O  O3  1  0.79056800  0.41918100  0.40585300  1
  O  O4  1  0.50049100  0.92801300  0.26355400  1
  O  O5  1  0.07198700  0.49950900  0.23644600  1
  O  O6  1  0.49950900  0.07198700  0.73644600  1
  O  O7  1  0.92801300  0.50049100  0.76355400  1
  O  O8  1  0.52652200  0.61010400  0.38422700  1
  O  O9  1  0.38989600  0.47347800  0.11577300  1
  O  O10  1  0.47347800  0.38989600  0.61577300  1
  O  O11  1  0.61010400  0.52652200  0.88422700  1
  O  O12  1  0.02482400  0.13177000  0.56958900  1
  O  O13  1  0.86823000  0.97517600  0.93041100  1
  O  O14  1  0.97517600  0.86823000  0.43041100  1
  O  O15  1  0.13177000  0.02482400  0.06958900  1
  O  O16  1  0.81549200  0.27546700  0.98285100  1
  O  O17  1  0.72453300  0.18450800  0.51714900  1
  O  O18  1  0.71213800  0.73717300  0.92105500  1
  O  O19  1  0.27546700  0.81549200  0.48285100  1
  O  O20  1  0.73717300  0.71213800  0.42105500  1
  O  O21  1  0.28786200  0.26282700  0.07894500  1
  O  O22  1  0.26282700  0.28786200  0.57894500  1
  O  O23  1  0.18450800  0.72453300  0.01714900  1
loop_
_geom_bond_atom_site_label_1
_geom_bond_atom_site_label_2
_geom_bond_distance
_geom_bond_site_symmetry_2
Na0 O16 2.463000 1_454
Na0 O21 2.506985 1_555
Na0 O5 2.514843 1_555
Na0 O15 2.518435 1_555
Na0 O12 2.565400 1_555
Na0 O3 2.630859 1_455
Na0 O7 2.639510 1_454
Na1 O17 2.463000 1_565
Na1 O20 2.506985 1_555
Na1 O4 2.514843 1_555
Na1 O14 2.518435 1_555
Na1 O13 2.565400 1_554
Na1 O2 2.630859 1_565
Na1 O6 2.639510 1_565
Na2 O23 2.463000 1_656
Na2 O18 2.506985 1_555
Na2 O7 2.514843 1_555
Na2 O13 2.518435 1_555
Na2 O14 2.565400 1_555
Na2 O1 2.630859 1_655
Na2 O5 2.639510 1_656
Na3 O19 2.463000 1_545
Na3 O22 2.506985 1_555
Na3 O6 2.514843 1_555
Na3 O12 2.518435 1_555
Na3 O15 2.565400 1_556
Na3 O0 2.630859 1_545
Na3 O4 2.639510 1_545
Mo0 O4 1.741048 1_555
Mo0 O18 1.782143 1_554
Mo0 O0 1.843544 1_554
Mo0 O8 1.935983 1_555
Mo0 O20 2.445836 1_555
Mo1 O5 1.741048 1_555
Mo1 O22 1.782143 1_555
Mo1 O1 1.843544 1_555
Mo1 O9 1.935983 1_555
Mo1 O21 2.445836 1_555
Mo2 O6 1.741048 1_555
Mo2 O21 1.782143 1_556
Mo2 O2 1.843544 1_556
Mo2 O10 1.935983 1_555
Mo2 O22 2.445836 1_555
Mo3 O7 1.741048 1_555
Mo3 O20 1.782143 1_555
Mo3 O3 1.843544 1_555
Mo3 O11 1.935983 1_555
Mo3 O18 2.445836 1_555
Mo4 O15 1.761587 1_565
Mo4 O14 1.761587 1_455
Mo4 O19 1.853931 1_555
Mo4 O23 1.853931 1_555
Mo5 O12 1.761587 1_655
Mo5 O13 1.761587 1_545
Mo5 O16 1.853931 1_555
Mo5 O17 1.853931 1_555
O0 Zr1 2.191278 1_555
O1 Zr1 2.191278 1_555
O2 Zr0 2.191278 1_555
O3 Zr0 2.191278 1_555
O8 Zr1 2.218643 1_555
O8 Zr0 2.386264 1_555
O9 Zr1 2.218643 1_554
O9 Zr0 2.386264 1_555
O10 Zr0 2.218643 1_555
O10 Zr1 2.386264 1_555
O11 Zr0 2.218643 1_556
O11 Zr1 2.386264 1_555
O16 Zr0 2.202564 1_556
O17 Zr0 2.202564 1_555
O19 Zr1 2.202564 1_555
O23 Zr1 2.202564 1_554
