# generated using pymatgen
data_Zr2CoMo3
_symmetry_space_group_name_H-M   'P 1'
_cell_length_a   5.25560024
_cell_length_b   5.25524800
_cell_length_c   8.74718900
_cell_angle_alpha   90.00000000
_cell_angle_beta   90.00000000
_cell_angle_gamma   60.00221705
_symmetry_Int_Tables_number   1
_chemical_formula_structural   Zr2CoMo3
_chemical_formula_sum   'Zr4 Co2 Mo6'
_cell_volume   209.23020642
_cell_formula_units_Z   2
loop_
 _symmetry_equiv_pos_site_id
 _symmetry_equiv_pos_as_xyz
  1  'x, y, z'
loop_
 _atom_site_type_symbol
 _atom_site_label
 _atom_site_symmetry_multiplicity
 _atom_site_fract_x
 _atom_site_fract_y
 _atom_site_fract_z
 _atom_site_occupancy
  Zr  Zr0  1  0.33334100  0.33332900  0.55934300  1
  Zr  Zr1  1  0.66665900  0.66667100  0.44065700  1
  Zr  Zr2  1  0.66665900  0.66667100  0.05934300  1
  Zr  Zr3  1  0.33334100  0.33332900  0.94065700  1
  Co  Co0  1  0.00000000  0.00000000  0.50000000  1
  Co  Co1  1  0.00000000  0.00000000  0.00000000  1
  Mo  Mo0  1  0.83163500  0.33674800  0.75000000  1
  Mo  Mo1  1  0.33674200  0.83162900  0.75000000  1
  Mo  Mo2  1  0.83163500  0.83161700  0.75000000  1
  Mo  Mo3  1  0.16836500  0.66325200  0.25000000  1
  Mo  Mo4  1  0.66325800  0.16837100  0.25000000  1
  Mo  Mo5  1  0.16836500  0.16838300  0.25000000  1
loop_
_geom_bond_atom_site_label_1
_geom_bond_atom_site_label_2
_geom_bond_distance
_geom_bond_site_symmetry_2
Zr0 Zr1 3.206843 1_545
Zr0 Zr1 3.206852 1_555
Zr0 Zr1 3.207139 1_455
Zr0 Zr3 3.335426 1_555
Zr1 Zr2 3.335426 1_555
Zr2 Zr3 3.206843 1_564
Zr2 Zr3 3.206852 1_554
Zr2 Zr3 3.207139 1_654
Co0 Mo3 2.670403 1_545
Co0 Mo5 2.670403 1_555
Co0 Mo0 2.670403 1_455
Co0 Mo2 2.670403 1_445
Co0 Mo4 2.670446 1_455
Co0 Mo1 2.670446 1_545
Co0 Zr0 3.078283 1_555
Co0 Zr1 3.078283 1_445
Co0 Zr0 3.078288 1_545
Co0 Zr1 3.078288 1_455
Co0 Zr0 3.078435 1_455
Co0 Zr1 3.078435 1_545
Co1 Mo3 2.670403 1_545
Co1 Mo5 2.670403 1_555
Co1 Mo0 2.670403 1_454
Co1 Mo2 2.670403 1_444
Co1 Mo4 2.670446 1_455
Co1 Mo1 2.670446 1_544
Co1 Zr2 3.078283 1_445
Co1 Zr3 3.078283 1_554
Co1 Zr3 3.078288 1_544
Co1 Zr2 3.078288 1_455
Co1 Zr2 3.078435 1_545
Co1 Zr3 3.078435 1_454
Mo0 Mo2 2.600659 1_555
Mo0 Mo1 2.600928 1_555
Mo0 Mo2 2.654589 1_545
Mo0 Mo1 2.654672 1_645
Mo0 Zr2 3.094594 1_556
Mo0 Zr1 3.094594 1_555
Mo0 Zr3 3.112355 1_655
Mo0 Zr0 3.112355 1_655
Mo0 Zr3 3.112384 1_555
Mo0 Zr0 3.112384 1_555
Mo1 Mo2 2.600928 1_555
Mo1 Mo2 2.654672 1_455
Mo1 Zr2 3.094630 1_556
Mo1 Zr1 3.094630 1_555
Mo1 Zr3 3.112218 1_565
Mo1 Zr0 3.112218 1_565
Mo1 Zr3 3.112222 1_555
Mo1 Zr0 3.112222 1_555
Mo2 Zr2 3.094592 1_556
Mo2 Zr1 3.094592 1_555
Mo2 Zr3 3.112357 1_655
Mo2 Zr0 3.112357 1_655
Mo2 Zr3 3.112381 1_565
Mo2 Zr0 3.112381 1_565
Mo3 Mo5 2.600659 1_555
Mo3 Mo4 2.600928 1_555
Mo3 Mo5 2.654589 1_565
Mo3 Mo4 2.654672 1_465
Mo3 Zr0 3.094594 1_555
Mo3 Zr3 3.094594 1_554
Mo3 Zr1 3.112355 1_455
Mo3 Zr2 3.112355 1_455
Mo3 Zr1 3.112384 1_555
Mo3 Zr2 3.112384 1_555
Mo4 Mo5 2.600928 1_555
Mo4 Mo5 2.654672 1_655
Mo4 Zr0 3.094630 1_555
Mo4 Zr3 3.094630 1_554
Mo4 Zr1 3.112218 1_545
Mo4 Zr2 3.112218 1_545
Mo4 Zr1 3.112222 1_555
Mo4 Zr2 3.112222 1_555
Mo5 Zr0 3.094592 1_555
Mo5 Zr3 3.094592 1_554
Mo5 Zr1 3.112357 1_455
Mo5 Zr2 3.112357 1_455
Mo5 Zr1 3.112381 1_545
Mo5 Zr2 3.112381 1_545
