# generated using pymatgen
data_Li3V(H6O5)2
_symmetry_space_group_name_H-M   'P 1'
_cell_length_a   6.33824112
_cell_length_b   6.33824112
_cell_length_c   6.33824152
_cell_angle_alpha   100.46943771
_cell_angle_beta   100.46943771
_cell_angle_gamma   100.46944330
_symmetry_Int_Tables_number   1
_chemical_formula_structural   Li3V(H6O5)2
_chemical_formula_sum   'Li3 V1 H12 O10'
_cell_volume   240.07302894
_cell_formula_units_Z   1
loop_
 _symmetry_equiv_pos_site_id
 _symmetry_equiv_pos_as_xyz
  1  'x, y, z'
loop_
 _atom_site_type_symbol
 _atom_site_label
 _atom_site_symmetry_multiplicity
 _atom_site_fract_x
 _atom_site_fract_y
 _atom_site_fract_z
 _atom_site_occupancy
  Li  Li0  1  0.95924900  0.81458200  0.55062600  1
  Li  Li1  1  0.81458200  0.55062600  0.95924900  1
  Li  Li2  1  0.55062600  0.95924900  0.81458200  1
  V  V0  1  0.33992900  0.33992900  0.33992900  1
  H  H0  1  0.55920700  0.78971000  0.43664000  1
  H  H1  1  0.78971000  0.43664000  0.55920700  1
  H  H2  1  0.43664000  0.55920700  0.78971000  1
  H  H3  1  0.65627300  0.04653300  0.48119500  1
  H  H4  1  0.04653300  0.48119500  0.65627300  1
  H  H5  1  0.48119500  0.65627300  0.04653300  1
  H  H6  1  0.05445200  0.89768500  0.20304300  1
  H  H7  1  0.89768500  0.20304300  0.05445200  1
  H  H8  1  0.20304300  0.05445200  0.89768500  1
  H  H9  1  0.14982000  0.69110300  0.25226400  1
  H  H10  1  0.69110300  0.25226400  0.14982000  1
  H  H11  1  0.25226400  0.14982000  0.69110300  1
  O  O0  1  0.26291400  0.37278300  0.59325600  1
  O  O1  1  0.37278300  0.59325600  0.26291400  1
  O  O2  1  0.59325600  0.26291400  0.37278300  1
  O  O3  1  0.14068500  0.14068500  0.14068500  1
  O  O4  1  0.67387400  0.91438000  0.54348600  1
  O  O5  1  0.91438000  0.54348600  0.67387400  1
  O  O6  1  0.54348600  0.67387400  0.91438000  1
  O  O7  1  0.01005100  0.74907000  0.23811900  1
  O  O8  1  0.74907000  0.23811900  0.01005100  1
  O  O9  1  0.23811900  0.01005100  0.74907000  1
loop_
_geom_bond_atom_site_label_1
_geom_bond_atom_site_label_2
_geom_bond_distance
_geom_bond_site_symmetry_2
Li0 O5 2.008614 1_555
Li0 O4 2.017495 1_555
Li0 O9 2.017687 1_665
Li0 O7 2.044731 1_655
Li1 O6 2.008614 1_555
Li1 O5 2.017495 1_555
Li1 O7 2.017687 1_656
Li1 O8 2.044730 1_556
Li2 O4 2.008614 1_555
Li2 O6 2.017495 1_555
Li2 O8 2.017687 1_566
Li2 O9 2.044730 1_565
H0 O4 1.014483 1_555
H0 O1 1.628886 1_555
H1 O5 1.014483 1_555
H1 O2 1.628886 1_555
H2 O6 1.014483 1_555
H2 O0 1.628886 1_555
H3 O4 1.004025 1_545
H3 O2 1.718856 1_555
H4 O5 1.004025 1_455
H4 O0 1.718856 1_555
H5 O6 1.004025 1_554
H5 O1 1.718856 1_555
H6 O7 1.009166 1_555
H6 O3 1.679567 1_565
H7 O8 1.009166 1_555
H7 O3 1.679568 1_655
H8 O9 1.009166 1_555
H8 O3 1.679568 1_556
H9 O7 1.014506 1_555
H9 O1 1.638705 1_555
H10 O8 1.014506 1_555
H10 O2 1.638705 1_555
H11 O9 1.014506 1_555
H11 O0 1.638705 1_555
O0 V0 1.749291 1_555
O1 V0 1.749291 1_555
O2 V0 1.749291 1_555
O3 V0 1.745181 1_555
