# generated using pymatgen
data_Nd12InNi6
_symmetry_space_group_name_H-M   'P 1'
_cell_length_a   8.68491920
_cell_length_b   8.68492047
_cell_length_c   8.68491428
_cell_angle_alpha   109.47144185
_cell_angle_beta   109.46937748
_cell_angle_gamma   109.47009841
_symmetry_Int_Tables_number   1
_chemical_formula_structural   Nd12InNi6
_chemical_formula_sum   'Nd12 In1 Ni6'
_cell_volume   504.30117629
_cell_formula_units_Z   1
loop_
 _symmetry_equiv_pos_site_id
 _symmetry_equiv_pos_as_xyz
  1  'x, y, z'
loop_
 _atom_site_type_symbol
 _atom_site_label
 _atom_site_symmetry_multiplicity
 _atom_site_fract_x
 _atom_site_fract_y
 _atom_site_fract_z
 _atom_site_occupancy
  Nd  Nd0  1  0.81354435  0.69290435  0.50645511  1
  Nd  Nd1  1  0.18645593  0.30709430  0.49355229  1
  Nd  Nd2  1  0.18645338  0.69290386  0.87936290  1
  Nd  Nd3  1  0.81354338  0.30709029  0.12063573  1
  Nd  Nd4  1  0.69289876  0.50645322  0.81355067  1
  Nd  Nd5  1  0.30709528  0.49353651  0.18643965  1
  Nd  Nd6  1  0.69290389  0.87934896  0.18644137  1
  Nd  Nd7  1  0.30709928  0.12065732  0.81355526  1
  Nd  Nd8  1  0.50648600  0.81357260  0.69291572  1
  Nd  Nd9  1  0.49352263  0.18643172  0.30709296  1
  Nd  Nd10  1  0.12066123  0.81357452  0.30708889  1
  Nd  Nd11  1  0.87934193  0.18643227  0.69291073  1
  In  In0  1  0.00000097  0.00000089  0.00000075  1
  Ni  Ni0  1  0.87997765  0.37997729  0.50000379  1
  Ni  Ni1  1  0.12001559  0.62001203  0.50000511  1
  Ni  Ni2  1  0.37998004  0.49999870  0.87997514  1
  Ni  Ni3  1  0.62000985  0.50000056  0.12000791  1
  Ni  Ni4  1  0.50000170  0.88002564  0.38002426  1
  Ni  Ni5  1  0.50000717  0.11998595  0.61998277  1
loop_
_geom_bond_atom_site_label_1
_geom_bond_atom_site_label_2
_geom_bond_distance
_geom_bond_site_symmetry_2
Nd0 Ni3 2.740453 1_555
Nd0 Ni1 2.947451 1_655
Nd0 Ni0 2.947460 1_555
Nd1 Ni2 2.740280 1_555
Nd1 Ni1 2.947409 1_555
Nd1 Ni0 2.947473 1_455
Nd2 Ni2 2.740253 1_555
Nd2 Ni1 2.947442 1_555
Nd2 Ni0 2.947587 1_455
Nd3 Ni3 2.740338 1_555
Nd3 Ni0 2.947546 1_555
Nd3 Ni1 2.947615 1_655
Nd4 Ni5 2.740586 1_555
Nd4 Ni3 2.947316 1_556
Nd4 Ni2 2.947338 1_555
Nd5 Ni4 2.740741 1_555
Nd5 Ni3 2.947317 1_555
Nd5 Ni2 2.947380 1_554
Nd6 Ni4 2.740618 1_555
Nd6 Ni3 2.947365 1_555
Nd6 Ni2 2.947520 1_554
Nd7 Ni5 2.740584 1_555
Nd7 Ni2 2.947360 1_555
Nd7 Ni3 2.947434 1_556
Nd8 Ni1 2.740642 1_555
Nd8 Ni4 2.947192 1_555
Nd8 Ni5 2.947213 1_565
Nd9 Ni0 2.740533 1_555
Nd9 Ni4 2.947145 1_545
Nd9 Ni5 2.947145 1_555
Nd10 Ni1 2.740607 1_555
Nd10 Ni4 2.947197 1_555
Nd10 Ni5 2.947348 1_565
Nd11 Ni0 2.740418 1_555
Nd11 Ni5 2.947173 1_555
Nd11 Ni4 2.947297 1_545
In0 Nd10 3.602710 1_545
In0 Nd11 3.602756 1_454
In0 Nd8 3.602817 1_444
In0 Nd6 3.602817 1_445
In0 Nd3 3.602834 1_455
In0 Nd2 3.602856 1_544
In0 Nd7 3.602867 1_554
In0 Nd9 3.602871 1_555
In0 Nd5 3.602918 1_555
In0 Nd0 3.602940 1_444
In0 Nd1 3.602978 1_555
In0 Nd4 3.602996 1_444
Ni0 Ni1 2.407227 1_655
Ni2 Ni3 2.407194 1_556
Ni4 Ni5 2.406394 1_565
