# generated using pymatgen
data_Fe2O2F5
_symmetry_space_group_name_H-M   'P 1'
_cell_length_a   7.40497846
_cell_length_b   7.40497846
_cell_length_c   7.40497846
_cell_angle_alpha   128.01582058
_cell_angle_beta   119.48805891
_cell_angle_gamma   83.79297796
_symmetry_Int_Tables_number   1
_chemical_formula_structural   Fe2O2F5
_chemical_formula_sum   'Fe4 O4 F10'
_cell_volume   266.95763830
_cell_formula_units_Z   2
loop_
 _symmetry_equiv_pos_site_id
 _symmetry_equiv_pos_as_xyz
  1  'x, y, z'
loop_
 _atom_site_type_symbol
 _atom_site_label
 _atom_site_symmetry_multiplicity
 _atom_site_fract_x
 _atom_site_fract_y
 _atom_site_fract_z
 _atom_site_occupancy
  Fe  Fe0  1  0.50000000  0.50000000  0.00000000  1
  Fe  Fe1  1  0.00000000  0.00000000  0.00000000  1
  Fe  Fe2  1  0.50000000  0.50000000  0.50000000  1
  Fe  Fe3  1  0.00000000  0.50000000  0.00000000  1
  O  O0  1  0.55125700  0.84373100  0.29247400  1
  O  O1  1  0.44874300  0.15626900  0.70752600  1
  O  O2  1  0.05125700  0.75878300  0.70752600  1
  O  O3  1  0.94874300  0.24121700  0.29247400  1
  F  F0  1  0.43714600  0.57372700  0.76265900  1
  F  F1  1  0.18893200  0.42627300  0.86341900  1
  F  F2  1  0.93714600  0.17448700  0.86341900  1
  F  F3  1  0.68893200  0.82551300  0.76265900  1
  F  F4  1  0.56285400  0.42627300  0.23734100  1
  F  F5  1  0.81106800  0.57372700  0.13658100  1
  F  F6  1  0.06285400  0.82551300  0.13658100  1
  F  F7  1  0.31106800  0.17448700  0.23734100  1
  F  F8  1  0.75000000  0.40439600  0.65439600  1
  F  F9  1  0.25000000  0.59560400  0.34560400  1
loop_
_geom_bond_atom_site_label_1
_geom_bond_atom_site_label_2
_geom_bond_distance
_geom_bond_site_symmetry_2
Fe0 O1 1.980592 1_554
Fe0 O0 1.980592 1_555
Fe1 O3 1.980592 1_455
Fe1 O2 1.980592 1_544
F0 Fe2 1.956007 1_555
F0 Fe0 1.981194 1_556
F1 Fe3 1.956007 1_556
F1 Fe0 1.981194 1_556
F2 Fe3 1.956007 1_656
F2 Fe1 1.981194 1_656
F3 Fe2 1.956007 1_555
F3 Fe1 1.981194 1_666
F4 Fe2 1.956007 1_555
F4 Fe0 1.981194 1_555
F5 Fe3 1.956007 1_655
F5 Fe0 1.981194 1_555
F6 Fe3 1.956007 1_555
F6 Fe1 1.981194 1_565
F7 Fe2 1.956007 1_555
F7 Fe1 1.981194 1_555
F8 Fe2 1.966040 1_555
F8 Fe3 1.966040 1_656
F9 Fe2 1.966040 1_555
F9 Fe3 1.966040 1_555
