# generated using pymatgen
data_Li9Mn2Co5O16
_symmetry_space_group_name_H-M   'P 1'
_cell_length_a   2.89138900
_cell_length_b   5.16393200
_cell_length_c   19.41773965
_cell_angle_alpha   83.38544097
_cell_angle_beta   90.00000000
_cell_angle_gamma   90.00000000
_symmetry_Int_Tables_number   1
_chemical_formula_structural   Li9Mn2Co5O16
_chemical_formula_sum   'Li9 Mn2 Co5 O16'
_cell_volume   287.99515350
_cell_formula_units_Z   1
loop_
 _symmetry_equiv_pos_site_id
 _symmetry_equiv_pos_as_xyz
  1  'x, y, z'
loop_
 _atom_site_type_symbol
 _atom_site_label
 _atom_site_symmetry_multiplicity
 _atom_site_fract_x
 _atom_site_fract_y
 _atom_site_fract_z
 _atom_site_occupancy
  Li  Li0  1  0.50000000  0.50977800  0.99347800  1
  Li  Li1  1  0.00000000  0.61675900  0.12514100  1
  Li  Li2  1  0.50000000  0.74561900  0.25038400  1
  Li  Li3  1  0.00000000  0.87890100  0.37408800  1
  Li  Li4  1  0.50000000  0.00257800  0.50293600  1
  Li  Li5  1  0.00000000  0.39010100  0.87544700  1
  Li  Li6  1  0.50000000  0.24811700  0.74982300  1
  Li  Li7  1  0.00000000  0.12506200  0.62779400  1
  Li  Li8  1  0.50000000  0.86120000  0.87424400  1
  Mn  Mn0  1  0.00000000  0.98399100  0.99505600  1
  Mn  Mn1  1  0.50000000  0.37127400  0.37678500  1
  Co  Co0  1  0.50000000  0.12034900  0.12286400  1
  Co  Co1  1  0.00000000  0.24522900  0.24841800  1
  Co  Co2  1  0.00000000  0.51410600  0.50325800  1
  Co  Co3  1  0.50000000  0.64619400  0.62747100  1
  Co  Co4  1  0.00000000  0.75399800  0.75599800  1
  O  O0  1  0.50000000  0.17162800  0.94379300  1
  O  O1  1  0.00000000  0.26481400  0.06382100  1
  O  O2  1  0.50000000  0.42728800  0.18975000  1
  O  O3  1  0.00000000  0.53643900  0.31695000  1
  O  O4  1  0.50000000  0.67393300  0.44672800  1
  O  O5  1  0.00000000  0.01583000  0.80323400  1
  O  O6  1  0.50000000  0.92862800  0.68927000  1
  O  O7  1  0.00000000  0.81148500  0.56811200  1
  O  O8  1  0.50000000  0.82238300  0.05503900  1
  O  O9  1  0.00000000  0.96634300  0.18105400  1
  O  O10  1  0.50000000  0.06360200  0.30584400  1
  O  O11  1  0.00000000  0.20185400  0.43425000  1
  O  O12  1  0.50000000  0.35034500  0.55975400  1
  O  O13  1  0.00000000  0.71391100  0.94175500  1
  O  O14  1  0.50000000  0.55697300  0.80842500  1
  O  O15  1  0.00000000  0.48128700  0.68903500  1
loop_
_geom_bond_atom_site_label_1
_geom_bond_atom_site_label_2
_geom_bond_distance
_geom_bond_site_symmetry_2
Li0 O13 1.991488 1_555
Li0 O13 1.991488 1_655
Li0 O0 2.089988 1_555
Li0 O8 2.116447 1_556
Li0 O1 2.271086 1_556
Li0 O1 2.271086 1_656
Li1 O2 2.082898 1_555
Li1 O2 2.082898 1_455
Li1 O8 2.176569 1_555
Li1 O8 2.176569 1_455
Li1 O9 2.211138 1_555
Li1 O1 2.284581 1_555
Li2 O10 2.064805 1_565
Li2 O2 2.129390 1_555
Li2 O3 2.146137 1_555
Li2 O3 2.146137 1_655
Li2 O9 2.201823 1_655
Li2 O9 2.201823 1_555
Li3 O10 2.112952 1_565
Li3 O10 2.112952 1_465
Li3 O11 2.143547 1_565
Li3 O3 2.193264 1_555
Li3 O4 2.203613 1_555
Li3 O4 2.203613 1_455
Li4 O7 2.092307 1_645
Li4 O7 2.092307 1_545
Li4 O4 2.120872 1_545
Li4 O11 2.147466 1_655
Li4 O11 2.147466 1_555
Li4 O12 2.213308 1_555
Li5 O14 2.065892 1_555
Li5 O14 2.065892 1_455
Li5 O0 2.186127 1_455
Li5 O0 2.186127 1_555
Li5 O13 2.224818 1_555
Li5 O5 2.515137 1_555
Li6 O14 2.063180 1_555
Li6 O5 2.077952 1_555
Li6 O5 2.077952 1_655
Li6 O6 2.133382 1_545
Li6 O15 2.146081 1_555
Li6 O15 2.146081 1_655
Li7 O6 2.065188 1_545
Li7 O6 2.065188 1_445
Li7 O7 2.097010 1_545
Li7 O12 2.198827 1_555
Li7 O12 2.198827 1_455
Li7 O15 2.302585 1_555
Li8 O13 2.038949 1_555
Li8 O13 2.038949 1_655
Li8 O5 2.091703 1_565
Li8 O5 2.091703 1_665
Li8 O14 2.136365 1_555
Li8 O0 2.211843 1_565
Mn0 O13 1.829988 1_555
Mn0 O0 1.948725 1_565
Mn0 O0 1.948725 1_465
Mn0 O8 1.979685 1_456
Mn0 O8 1.979685 1_556
Mn0 O1 2.081333 1_566
Mn1 O11 1.968663 1_555
Mn1 O11 1.968663 1_655
Mn1 O3 1.984716 1_555
Mn1 O3 1.984716 1_655
Mn1 O4 2.185459 1_555
Mn1 O10 2.219465 1_555
Co0 O1 1.940088 1_655
Co0 O1 1.940088 1_555
Co0 O9 1.947356 1_545
Co0 O9 1.947356 1_645
Co0 O8 2.137495 1_545
Co0 O2 2.161789 1_555
Co1 O10 1.993032 1_455
Co1 O10 1.993032 1_555
Co1 O2 2.006224 1_555
Co1 O2 2.006224 1_455
Co1 O9 2.054027 1_545
Co1 O3 2.119732 1_555
Co2 O4 1.940982 1_455
Co2 O4 1.940982 1_555
Co2 O12 1.948050 1_455
Co2 O12 1.948050 1_555
Co2 O7 2.095140 1_555
Co2 O11 2.212081 1_555
Co3 O7 1.980015 1_555
Co3 O7 1.980015 1_655
Co3 O6 1.992568 1_555
Co3 O15 2.002433 1_555
Co3 O15 2.002433 1_655
Co3 O12 2.127390 1_555
Co4 O5 1.719046 1_565
Co4 O14 1.980636 1_555
Co4 O14 1.980636 1_455
Co4 O15 2.023797 1_555
Co4 O6 2.076754 1_455
Co4 O6 2.076754 1_555
