# generated using pymatgen
data_LaTa7O19
_symmetry_space_group_name_H-M   'P 1'
_cell_length_a   6.25040787
_cell_length_b   6.25040800
_cell_length_c   20.04416137
_cell_angle_alpha   89.99992227
_cell_angle_beta   89.99994067
_cell_angle_gamma   119.99979362
_symmetry_Int_Tables_number   1
_chemical_formula_structural   LaTa7O19
_chemical_formula_sum   'La2 Ta14 O38'
_cell_volume   678.16621505
_cell_formula_units_Z   2
loop_
 _symmetry_equiv_pos_site_id
 _symmetry_equiv_pos_as_xyz
  1  'x, y, z'
loop_
 _atom_site_type_symbol
 _atom_site_label
 _atom_site_symmetry_multiplicity
 _atom_site_fract_x
 _atom_site_fract_y
 _atom_site_fract_z
 _atom_site_occupancy
  La  La0  1  -0.00000102  0.00000062  0.99997254  1
  La  La1  1  0.00000033  -0.00000040  0.50002990  1
  Ta  Ta0  1  0.02643409  0.69147872  0.65627195  1
  Ta  Ta1  1  0.30851512  0.33494780  0.65627207  1
  Ta  Ta2  1  0.02642792  0.69148037  0.84373830  1
  Ta  Ta3  1  0.30851699  0.33495021  0.84373864  1
  Ta  Ta4  1  0.66504541  0.97356911  0.84373808  1
  Ta  Ta5  1  0.30850489  0.97357275  0.15623661  1
  Ta  Ta6  1  0.66506537  0.69149192  0.15623624  1
  Ta  Ta7  1  0.66506415  0.69149089  0.34375222  1
  Ta  Ta8  1  0.30851891  0.97358181  0.34375249  1
  Ta  Ta9  1  0.02642458  0.33493006  0.15623692  1
  Ta  Ta10  1  0.33333405  0.66666668  0.50000687  1
  Ta  Ta11  1  0.33333348  0.66666740  -0.00000883  1
  Ta  Ta12  1  0.02643000  0.33494369  0.34375231  1
  Ta  Ta13  1  0.66504874  0.97356074  0.65627167  1
  O  O0  1  0.61176470  0.90244144  0.55737013  1
  O  O1  1  0.09754150  0.38817113  0.44266157  1
  O  O2  1  0.09756033  0.70932323  0.55737110  1
  O  O3  1  0.29067773  0.38823605  0.55737088  1
  O  O4  1  0.09754963  0.70931834  0.94262908  1
  O  O5  1  0.29067949  0.38823088  0.94262971  1
  O  O6  1  0.61176728  0.90244862  0.94262914  1
  O  O7  1  0.29063153  0.90245453  0.05733757  1
  O  O8  1  0.61182087  0.70936482  0.05733765  1
  O  O9  1  0.61182982  0.70937146  0.44266143  1
  O  O10  1  0.29062982  0.90245940  0.44266118  1
  O  O11  1  0.09754439  0.38817866  0.05733798  1
  O  O12  1  0.04209836  0.75205467  0.75000074  1
  O  O13  1  0.24794364  0.29004699  0.75000130  1
  O  O14  1  0.70995593  0.95790147  0.75000082  1
  O  O15  1  0.70982977  0.75187586  0.24999902  1
  O  O16  1  0.42032430  0.33298240  0.15364892  1
  O  O17  1  0.91265640  0.57967114  0.34634287  1
  O  O18  1  0.66701537  0.08734458  0.34634419  1
  O  O19  1  0.66701296  0.08734022  0.15364888  1
  O  O20  1  0.91265717  0.57967160  0.15364890  1
  O  O21  1  0.66701839  0.57963422  0.84629986  1
  O  O22  1  0.91261424  0.33297928  0.84630003  1
  O  O23  1  0.42036555  0.08738771  0.84630084  1
  O  O24  1  0.91261074  0.33297761  0.65370726  1
  O  O25  1  0.42037530  0.08739347  0.65370700  1
  O  O26  1  0.42033066  0.33298961  0.34634271  1
  O  O27  1  0.66702048  0.57963051  0.65370688  1
  O  O28  1  0.33333110  0.66666437  0.16800523  1
  O  O29  1  0.33333515  0.66666930  0.33199219  1
  O  O30  1  0.33333313  0.66666884  0.83192133  1
  O  O31  1  0.33333508  0.66666656  0.66808659  1
  O  O32  1  0.99999820  0.99999804  0.13263920  1
  O  O33  1  0.00000202  0.00000155  0.36736074  1
  O  O34  1  -0.00000191  0.00000006  0.86736530  1
  O  O35  1  0.00000198  -0.00000138  0.63263598  1
  O  O36  1  0.04204427  0.29017263  0.25000016  1
  O  O37  1  0.24812764  0.95795576  0.24999968  1
loop_
_geom_bond_atom_site_label_1
_geom_bond_atom_site_label_2
_geom_bond_distance
_geom_bond_site_symmetry_2
La0 O7 2.470092 1_546
La0 O11 2.470098 1_556
La0 O8 2.470100 1_446
La0 O5 2.470160 1_555
La0 O6 2.470170 1_445
La0 O4 2.470176 1_545
La0 O34 2.658001 1_555
La0 O32 2.659192 1_446
La1 O10 2.470086 1_545
La1 O1 2.470093 1_555
La1 O9 2.470095 1_445
La1 O0 2.470149 1_445
La1 O2 2.470157 1_545
La1 O3 2.470167 1_555
La1 O35 2.657978 1_555
La1 O33 2.659242 1_555
O0 Ta10 1.989425 1_555
O0 Ta13 2.022470 1_555
O1 Ta10 1.989456 1_555
O1 Ta12 2.022595 1_555
O2 Ta10 1.989426 1_555
O2 Ta0 2.022459 1_555
O3 Ta10 1.989426 1_555
O3 Ta1 2.022468 1_555
O4 Ta11 1.989436 1_556
O4 Ta2 2.022260 1_555
O5 Ta11 1.989434 1_556
O5 Ta3 2.022261 1_555
O6 Ta11 1.989429 1_556
O6 Ta4 2.022261 1_555
O7 Ta11 1.989432 1_555
O7 Ta5 2.022406 1_555
O8 Ta11 1.989434 1_555
O8 Ta6 2.022395 1_555
O9 Ta10 1.989448 1_555
O9 Ta7 2.022598 1_555
O10 Ta10 1.989457 1_555
O10 Ta8 2.022594 1_555
O11 Ta11 1.989441 1_555
O11 Ta9 2.022405 1_555
O12 Ta0 1.909305 1_555
O12 Ta2 1.909473 1_555
O13 Ta1 1.909305 1_555
O13 Ta3 1.909469 1_555
O14 Ta13 1.909303 1_555
O14 Ta4 1.909472 1_555
O15 Ta7 1.909593 1_555
O15 Ta6 1.909782 1_555
O16 Ta6 1.983997 1_555
O16 Ta5 1.991900 1_545
O16 Ta9 2.468688 1_555
O17 Ta12 1.983934 1_655
O17 Ta7 1.991911 1_555
O17 Ta8 2.468779 1_655
O18 Ta8 1.983926 1_545
O18 Ta12 1.991940 1_655
O18 Ta7 2.468719 1_545
O19 Ta5 1.983986 1_545
O19 Ta9 1.991912 1_655
O19 Ta6 2.468694 1_545
O20 Ta9 1.983988 1_655
O20 Ta6 1.991909 1_555
O20 Ta5 2.468702 1_655
O21 Ta3 1.983872 1_555
O21 Ta2 1.991850 1_655
O21 Ta4 2.468977 1_555
O22 Ta2 1.983872 1_655
O22 Ta4 1.991864 1_545
O22 Ta3 2.468951 1_655
O23 Ta4 1.983846 1_545
O23 Ta3 1.991853 1_555
O23 Ta2 2.468992 1_545
O24 Ta0 1.983861 1_655
O24 Ta13 1.991887 1_545
O24 Ta1 2.468965 1_655
O25 Ta13 1.983875 1_545
O25 Ta1 1.991859 1_555
O25 Ta0 2.469027 1_545
O26 Ta7 1.983950 1_555
O26 Ta8 1.991901 1_545
O26 Ta12 2.468715 1_555
O27 Ta1 1.983890 1_555
O27 Ta0 1.991874 1_655
O27 Ta13 2.468945 1_555
O28 Ta6 2.014264 1_555
O28 Ta5 2.014268 1_555
O28 Ta9 2.014269 1_555
O29 Ta12 2.014215 1_555
O29 Ta7 2.014228 1_555
O29 Ta8 2.014240 1_555
O30 Ta4 2.014290 1_555
O30 Ta2 2.014312 1_555
O30 Ta3 2.014312 1_555
O31 Ta13 2.014272 1_555
O31 Ta0 2.014283 1_555
O31 Ta1 2.014297 1_555
O32 Ta5 2.070702 1_655
O32 Ta9 2.070702 1_665
O32 Ta6 2.070707 1_555
O33 Ta7 2.070791 1_445
O33 Ta8 2.070794 1_545
O33 Ta12 2.070807 1_555
O34 Ta2 2.070932 1_545
O34 Ta3 2.070935 1_555
O34 Ta4 2.070950 1_445
O35 Ta1 2.070962 1_555
O35 Ta13 2.070973 1_445
O35 Ta0 2.070981 1_545
O36 Ta12 1.909575 1_555
O36 Ta9 1.909782 1_555
O37 Ta8 1.909591 1_555
O37 Ta5 1.909780 1_555
