# generated using pymatgen
data_Ca3Zn
_symmetry_space_group_name_H-M   'P 1'
_cell_length_a   5.07950600
_cell_length_b   5.07950600
_cell_length_c   5.07950600
_cell_angle_alpha   90.00000000
_cell_angle_beta   90.00000000
_cell_angle_gamma   90.00000000
_symmetry_Int_Tables_number   1
_chemical_formula_structural   Ca3Zn
_chemical_formula_sum   'Ca3 Zn1'
_cell_volume   131.05827063
_cell_formula_units_Z   1
loop_
 _symmetry_equiv_pos_site_id
 _symmetry_equiv_pos_as_xyz
  1  'x, y, z'
loop_
 _atom_site_type_symbol
 _atom_site_label
 _atom_site_symmetry_multiplicity
 _atom_site_fract_x
 _atom_site_fract_y
 _atom_site_fract_z
 _atom_site_occupancy
  Ca  Ca0  1  0.50000000  0.50000000  0.00000000  1
  Ca  Ca1  1  0.50000000  0.00000000  0.50000000  1
  Ca  Ca2  1  0.00000000  0.50000000  0.50000000  1
  Zn  Zn0  1  0.00000000  0.00000000  0.00000000  1
loop_
_geom_bond_atom_site_label_1
_geom_bond_atom_site_label_2
_geom_bond_distance
_geom_bond_site_symmetry_2
Ca0 Ca1 3.591753 1_564
Ca0 Ca1 3.591753 1_554
Ca0 Zn0 3.591753 1_655
Ca0 Ca2 3.591753 1_554
Ca0 Ca2 3.591753 1_655
Ca0 Zn0 3.591753 1_665
Ca0 Ca2 3.591753 1_654
Ca0 Ca1 3.591753 1_555
Ca0 Ca1 3.591753 1_565
Ca0 Zn0 3.591753 1_565
Ca0 Zn0 3.591753 1_555
Ca0 Ca2 3.591753 1_555
Ca1 Zn0 3.591753 1_556
Ca1 Ca2 3.591753 1_545
Ca1 Zn0 3.591753 1_655
Ca1 Ca2 3.591753 1_655
Ca1 Ca2 3.591753 1_645
Ca1 Zn0 3.591753 1_656
Ca1 Zn0 3.591753 1_555
Ca1 Ca2 3.591753 1_555
Ca2 Zn0 3.591753 1_556
Ca2 Zn0 3.591753 1_566
Ca2 Zn0 3.591753 1_565
Ca2 Zn0 3.591753 1_555
