# generated using pymatgen
data_La2CeSi2S8I
_symmetry_space_group_name_H-M   'P 1'
_cell_length_a   9.00120894
_cell_length_b   9.00120894
_cell_length_c   11.02533450
_cell_angle_alpha   82.74616158
_cell_angle_beta   82.74616158
_cell_angle_gamma   52.68758675
_symmetry_Int_Tables_number   1
_chemical_formula_structural   La2CeSi2S8I
_chemical_formula_sum   'La4 Ce2 Si4 S16 I2'
_cell_volume   703.38522948
_cell_formula_units_Z   2
loop_
 _symmetry_equiv_pos_site_id
 _symmetry_equiv_pos_as_xyz
  1  'x, y, z'
loop_
 _atom_site_type_symbol
 _atom_site_label
 _atom_site_symmetry_multiplicity
 _atom_site_fract_x
 _atom_site_fract_y
 _atom_site_fract_z
 _atom_site_occupancy
  La  La0  1  0.92407800  0.67945100  0.68066700  1
  La  La1  1  0.32054900  0.07592200  0.81933300  1
  La  La2  1  0.07592200  0.32054900  0.31933300  1
  La  La3  1  0.67945100  0.92407800  0.18066700  1
  Ce  Ce0  1  0.59366200  0.40633800  0.75000000  1
  Ce  Ce1  1  0.40633800  0.59366200  0.25000000  1
  Si  Si0  1  0.30336400  0.37836300  0.02937500  1
  Si  Si1  1  0.62163700  0.69663600  0.47062500  1
  Si  Si2  1  0.69663600  0.62163700  0.97062500  1
  Si  Si3  1  0.37836300  0.30336400  0.52937500  1
  S  S0  1  0.11389500  0.60007100  0.14621300  1
  S  S1  1  0.39992900  0.88610500  0.35378700  1
  S  S2  1  0.88610500  0.39992900  0.85378700  1
  S  S3  1  0.60007100  0.11389500  0.64621300  1
  S  S4  1  0.58349400  0.27935400  0.04307900  1
  S  S5  1  0.72064600  0.41650600  0.45692100  1
  S  S6  1  0.41650600  0.72064600  0.95692100  1
  S  S7  1  0.27935400  0.58349400  0.54307900  1
  S  S8  1  0.25095500  0.44904900  0.83919000  1
  S  S9  1  0.55095100  0.74904500  0.66081000  1
  S  S10  1  0.74904500  0.55095100  0.16081000  1
  S  S11  1  0.44904900  0.25095500  0.33919000  1
  S  S12  1  0.28563000  0.15240700  0.08523500  1
  S  S13  1  0.84759300  0.71437000  0.41476500  1
  S  S14  1  0.71437000  0.84759300  0.91476500  1
  S  S15  1  0.15240700  0.28563000  0.58523500  1
  I  I0  1  0.98814600  0.01185400  0.25000000  1
  I  I1  1  0.01185400  0.98814600  0.75000000  1
loop_
_geom_bond_atom_site_label_1
_geom_bond_atom_site_label_2
_geom_bond_distance
_geom_bond_site_symmetry_2
La0 S14 2.967834 1_555
La0 S8 2.999749 1_655
La0 S7 3.005173 1_655
La0 S13 3.030189 1_555
La0 S9 3.053018 1_555
La0 S15 3.075795 1_655
La0 S2 3.123381 1_555
La0 S3 3.165513 1_565
La1 S15 2.967834 1_555
La1 S9 2.999749 1_545
La1 S6 3.005173 1_545
La1 S12 3.030189 1_556
La1 S8 3.053018 1_555
La1 S14 3.075795 1_545
La1 S3 3.123381 1_555
La1 S2 3.165513 1_455
La2 S12 2.967834 1_555
La2 S10 2.999749 1_455
La2 S5 3.005173 1_455
La2 S15 3.030189 1_555
La2 S11 3.053018 1_555
La2 S13 3.075795 1_455
La2 S0 3.123381 1_555
La2 S1 3.165513 1_545
La3 S13 2.967834 1_555
La3 S11 2.999749 1_565
La3 S4 3.005173 1_565
La3 S14 3.030189 1_554
La3 S10 3.053018 1_555
La3 S12 3.075795 1_565
La3 S1 3.123381 1_555
La3 S0 3.165513 1_655
Ce0 S9 2.919302 1_555
Ce0 S8 2.919302 1_555
Ce0 S2 2.966788 1_555
Ce0 S3 2.966788 1_555
Ce0 S5 3.297810 1_555
Ce0 S4 3.297810 1_556
Ce0 S6 3.315648 1_555
Ce0 S7 3.315648 1_555
Ce0 I1 3.340805 1_645
Ce1 S10 2.919302 1_555
Ce1 S11 2.919302 1_555
Ce1 S1 2.966788 1_555
Ce1 S0 2.966788 1_555
Ce1 S6 3.297810 1_554
Ce1 S7 3.297810 1_555
Ce1 S4 3.315648 1_555
Ce1 S5 3.315648 1_555
Ce1 I0 3.340805 1_465
S0 Si0 2.125758 1_555
S1 Si1 2.125758 1_555
S2 Si2 2.125758 1_555
S3 Si3 2.125758 1_555
S4 Si0 2.124379 1_555
S5 Si1 2.124379 1_555
S6 Si2 2.124379 1_555
S7 Si3 2.124379 1_555
S8 Si0 2.138497 1_556
S9 Si1 2.138497 1_555
S10 Si2 2.138497 1_554
S11 Si3 2.138497 1_555
S12 Si0 2.143335 1_555
S13 Si1 2.143335 1_555
S14 Si2 2.143335 1_555
S15 Si3 2.143335 1_555
I0 La3 3.504247 1_545
I0 La2 3.504247 1_655
I1 La0 3.504247 1_455
I1 La1 3.504247 1_565
