# generated using pymatgen
data_Ni9Te5(PbO5)6
_symmetry_space_group_name_H-M   'P 1'
_cell_length_a   10.43912933
_cell_length_b   10.43912933
_cell_length_c   13.71275300
_cell_angle_alpha   90.00000000
_cell_angle_beta   90.00000000
_cell_angle_gamma   119.99999576
_symmetry_Int_Tables_number   1
_chemical_formula_structural   Ni9Te5(PbO5)6
_chemical_formula_sum   'Ni18 Te10 Pb12 O60'
_cell_volume   1294.14774469
_cell_formula_units_Z   2
loop_
 _symmetry_equiv_pos_site_id
 _symmetry_equiv_pos_as_xyz
  1  'x, y, z'
loop_
 _atom_site_type_symbol
 _atom_site_label
 _atom_site_symmetry_multiplicity
 _atom_site_fract_x
 _atom_site_fract_y
 _atom_site_fract_z
 _atom_site_occupancy
  Ni  Ni0  1  0.66666700  0.33333300  0.11166200  1
  Ni  Ni1  1  0.33333300  0.66666700  0.88833800  1
  Ni  Ni2  1  0.33333300  0.66666700  0.61166200  1
  Ni  Ni3  1  0.66666700  0.33333300  0.38833800  1
  Ni  Ni4  1  0.16855100  0.33710300  0.25000000  1
  Ni  Ni5  1  0.66289700  0.83144900  0.25000000  1
  Ni  Ni6  1  0.16855100  0.83144900  0.25000000  1
  Ni  Ni7  1  0.33710300  0.16855100  0.75000000  1
  Ni  Ni8  1  0.83144900  0.66289700  0.75000000  1
  Ni  Ni9  1  0.83144900  0.16855100  0.75000000  1
  Ni  Ni10  1  0.49709200  0.99418300  0.25000000  1
  Ni  Ni11  1  0.00581700  0.50290800  0.25000000  1
  Ni  Ni12  1  0.49709200  0.50290800  0.25000000  1
  Ni  Ni13  1  0.99418300  0.49709200  0.75000000  1
  Ni  Ni14  1  0.50290800  0.00581700  0.75000000  1
  Ni  Ni15  1  0.50290800  0.49709200  0.75000000  1
  Ni  Ni16  1  0.00000000  0.00000000  0.25000000  1
  Ni  Ni17  1  0.00000000  0.00000000  0.75000000  1
  Te  Te0  1  0.66666700  0.33333300  0.90125400  1
  Te  Te1  1  0.33333300  0.66666700  0.09874600  1
  Te  Te2  1  0.33333300  0.66666700  0.40125400  1
  Te  Te3  1  0.66666700  0.33333300  0.59874600  1
  Te  Te4  1  0.33491300  0.16745600  0.25000000  1
  Te  Te5  1  0.83254400  0.16745600  0.25000000  1
  Te  Te6  1  0.83254400  0.66508700  0.25000000  1
  Te  Te7  1  0.16745600  0.33491300  0.75000000  1
  Te  Te8  1  0.16745600  0.83254400  0.75000000  1
  Te  Te9  1  0.66508700  0.83254400  0.75000000  1
  Pb  Pb0  1  0.73644100  0.73644100  0.00000000  1
  Pb  Pb1  1  0.26355900  0.00000000  0.00000000  1
  Pb  Pb2  1  0.00000000  0.26355900  0.00000000  1
  Pb  Pb3  1  0.26355900  0.26355900  0.50000000  1
  Pb  Pb4  1  0.73644100  0.00000000  0.50000000  1
  Pb  Pb5  1  0.00000000  0.73644100  0.50000000  1
  Pb  Pb6  1  0.00000000  0.61294600  0.00000000  1
  Pb  Pb7  1  0.38705400  0.38705400  0.00000000  1
  Pb  Pb8  1  0.61294600  0.00000000  0.00000000  1
  Pb  Pb9  1  0.00000000  0.38705400  0.50000000  1
  Pb  Pb10  1  0.61294600  0.61294600  0.50000000  1
  Pb  Pb11  1  0.38705400  0.00000000  0.50000000  1
  O  O0  1  0.33535500  0.32744900  0.32812500  1
  O  O1  1  0.67255100  0.00790700  0.32812500  1
  O  O2  1  0.99209300  0.66464500  0.32812500  1
  O  O3  1  0.32744900  0.33535500  0.67187500  1
  O  O4  1  0.00790700  0.67255100  0.67187500  1
  O  O5  1  0.66464500  0.99209300  0.67187500  1
  O  O6  1  0.66464500  0.67255100  0.82812500  1
  O  O7  1  0.32744900  0.99209300  0.82812500  1
  O  O8  1  0.00790700  0.33535500  0.82812500  1
  O  O9  1  0.67255100  0.66464500  0.17187500  1
  O  O10  1  0.99209300  0.32744900  0.17187500  1
  O  O11  1  0.33535500  0.00790700  0.17187500  1
  O  O12  1  0.17832100  0.16721600  0.17092800  1
  O  O13  1  0.83278400  0.01110500  0.17092800  1
  O  O14  1  0.98889500  0.82167900  0.17092800  1
  O  O15  1  0.16721600  0.17832100  0.82907200  1
  O  O16  1  0.01110500  0.83278400  0.82907200  1
  O  O17  1  0.82167900  0.98889500  0.82907200  1
  O  O18  1  0.82167900  0.83278400  0.67092800  1
  O  O19  1  0.16721600  0.98889500  0.67092800  1
  O  O20  1  0.01110500  0.17832100  0.67092800  1
  O  O21  1  0.83278400  0.82167900  0.32907200  1
  O  O22  1  0.98889500  0.16721600  0.32907200  1
  O  O23  1  0.17832100  0.01110500  0.32907200  1
  O  O24  1  0.48422000  0.15695900  0.33065900  1
  O  O25  1  0.84304100  0.32726000  0.33065900  1
  O  O26  1  0.67274000  0.51578000  0.33065900  1
  O  O27  1  0.15695900  0.48422000  0.66934100  1
  O  O28  1  0.32726000  0.84304100  0.66934100  1
  O  O29  1  0.51578000  0.67274000  0.66934100  1
  O  O30  1  0.51578000  0.84304100  0.83065900  1
  O  O31  1  0.15695900  0.67274000  0.83065900  1
  O  O32  1  0.32726000  0.48422000  0.83065900  1
  O  O33  1  0.84304100  0.51578000  0.16934100  1
  O  O34  1  0.67274000  0.15695900  0.16934100  1
  O  O35  1  0.48422000  0.32726000  0.16934100  1
  O  O36  1  0.17008700  0.50065700  0.33669600  1
  O  O37  1  0.49934300  0.66943000  0.33669600  1
  O  O38  1  0.33057000  0.82991300  0.33669600  1
  O  O39  1  0.50065700  0.17008700  0.66330400  1
  O  O40  1  0.66943000  0.49934300  0.66330400  1
  O  O41  1  0.82991300  0.33057000  0.66330400  1
  O  O42  1  0.82991300  0.49934300  0.83669600  1
  O  O43  1  0.50065700  0.33057000  0.83669600  1
  O  O44  1  0.66943000  0.17008700  0.83669600  1
  O  O45  1  0.49934300  0.82991300  0.16330400  1
  O  O46  1  0.33057000  0.50065700  0.16330400  1
  O  O47  1  0.17008700  0.66943000  0.16330400  1
  O  O48  1  0.65371100  0.47396200  0.99738000  1
  O  O49  1  0.52603800  0.17974900  0.99738000  1
  O  O50  1  0.82025100  0.34628900  0.99738000  1
  O  O51  1  0.47396200  0.65371100  0.00262000  1
  O  O52  1  0.17974900  0.52603800  0.00262000  1
  O  O53  1  0.34628900  0.82025100  0.00262000  1
  O  O54  1  0.34628900  0.52603800  0.49738000  1
  O  O55  1  0.47396200  0.82025100  0.49738000  1
  O  O56  1  0.17974900  0.65371100  0.49738000  1
  O  O57  1  0.52603800  0.34628900  0.50262000  1
  O  O58  1  0.82025100  0.47396200  0.50262000  1
  O  O59  1  0.65371100  0.17974900  0.50262000  1
loop_
_geom_bond_atom_site_label_1
_geom_bond_atom_site_label_2
_geom_bond_distance
_geom_bond_site_symmetry_2
Ni0 O34 2.033792 1_555
Ni0 O35 2.033792 1_555
Ni0 O33 2.033793 1_555
Ni0 O50 2.197233 1_554
Ni0 O49 2.197237 1_554
Ni0 O48 2.197241 1_554
Ni1 O31 2.033792 1_555
Ni1 O32 2.033792 1_555
Ni1 O30 2.033793 1_555
Ni1 O53 2.197233 1_556
Ni1 O52 2.197237 1_556
Ni1 O51 2.197241 1_556
Ni2 O28 2.033792 1_555
Ni2 O29 2.033792 1_555
Ni2 O27 2.033793 1_555
Ni2 O56 2.197233 1_555
Ni2 O55 2.197237 1_555
Ni2 O54 2.197241 1_555
Ni3 O25 2.033792 1_555
Ni3 O26 2.033792 1_555
Ni3 O24 2.033793 1_555
Ni3 O59 2.197233 1_555
Ni3 O58 2.197237 1_555
Ni3 O57 2.197241 1_555
Ni4 O36 2.073959 1_555
Ni4 O46 2.073963 1_555
Ni4 O0 2.089361 1_555
Ni4 O10 2.089361 1_455
Ni4 O22 2.124184 1_455
Ni4 O12 2.124189 1_555
Ni5 O45 2.073959 1_555
Ni5 O37 2.073963 1_555
Ni5 O9 2.089361 1_555
Ni5 O1 2.089361 1_565
Ni5 O13 2.124184 1_565
Ni5 O21 2.124189 1_555
Ni6 O38 2.073968 1_555
Ni6 O47 2.073968 1_555
Ni6 O2 2.089361 1_455
Ni6 O11 2.089361 1_565
Ni6 O23 2.124180 1_565
Ni6 O14 2.124180 1_455
Ni7 O39 2.073959 1_555
Ni7 O43 2.073963 1_555
Ni7 O3 2.089361 1_555
Ni7 O7 2.089361 1_545
Ni7 O19 2.124184 1_545
Ni7 O15 2.124189 1_555
Ni8 O42 2.073959 1_555
Ni8 O40 2.073963 1_555
Ni8 O6 2.089361 1_555
Ni8 O4 2.089361 1_655
Ni8 O16 2.124184 1_655
Ni8 O18 2.124189 1_555
Ni9 O41 2.073968 1_555
Ni9 O44 2.073968 1_555
Ni9 O5 2.089361 1_545
Ni9 O8 2.089361 1_655
Ni9 O20 2.124180 1_655
Ni9 O17 2.124180 1_545
Ni10 O1 2.064151 1_565
Ni10 O11 2.064168 1_565
Ni10 O24 2.087382 1_565
Ni10 O34 2.087382 1_565
Ni10 O45 2.096390 1_555
Ni10 O38 2.096395 1_555
Ni11 O10 2.064151 1_455
Ni11 O2 2.064168 1_455
Ni11 O33 2.087382 1_455
Ni11 O25 2.087382 1_455
Ni11 O36 2.096390 1_555
Ni11 O47 2.096395 1_555
Ni12 O9 2.064158 1_555
Ni12 O0 2.064158 1_555
Ni12 O26 2.087382 1_555
Ni12 O35 2.087382 1_555
Ni12 O37 2.096399 1_555
Ni12 O46 2.096399 1_555
Ni13 O4 2.064151 1_655
Ni13 O8 2.064168 1_655
Ni13 O27 2.087382 1_655
Ni13 O31 2.087382 1_655
Ni13 O42 2.096390 1_555
Ni13 O41 2.096395 1_555
Ni14 O7 2.064151 1_545
Ni14 O5 2.064168 1_545
Ni14 O30 2.087382 1_545
Ni14 O28 2.087382 1_545
Ni14 O39 2.096390 1_555
Ni14 O44 2.096395 1_555
Ni15 O6 2.064158 1_555
Ni15 O3 2.064158 1_555
Ni15 O29 2.087382 1_555
Ni15 O32 2.087382 1_555
Ni15 O40 2.096399 1_555
Ni15 O43 2.096399 1_555
Ni16 O22 2.106793 1_455
Ni16 O13 2.106793 1_455
Ni16 O14 2.106793 1_445
Ni16 O23 2.106793 1_555
Ni16 O21 2.106793 1_445
Ni16 O12 2.106793 1_555
Ni17 O19 2.106793 1_545
Ni17 O16 2.106793 1_545
Ni17 O17 2.106793 1_445
Ni17 O20 2.106793 1_555
Ni17 O18 2.106793 1_445
Ni17 O15 2.106793 1_555
O0 Te4 1.982308 1_555
O0 Pb3 2.462025 1_555
O1 Te5 1.982299 1_555
O1 Pb4 2.462027 1_555
O2 Te6 1.982290 1_555
O2 Pb5 2.462024 1_655
O3 Te7 1.982308 1_555
O3 Pb3 2.462025 1_555
O4 Te8 1.982299 1_555
O4 Pb5 2.462027 1_555
O5 Te9 1.982290 1_555
O5 Pb4 2.462024 1_565
O6 Te9 1.982308 1_555
O6 Pb0 2.462025 1_556
O7 Te8 1.982299 1_555
O7 Pb1 2.462027 1_566
O8 Te7 1.982290 1_555
O8 Pb2 2.462024 1_556
O9 Te6 1.982308 1_555
O9 Pb0 2.462025 1_555
O10 Te5 1.982299 1_555
O10 Pb2 2.462027 1_655
O11 Te4 1.982290 1_555
O11 Pb1 2.462024 1_555
O12 Te4 1.960561 1_555
O13 Te5 1.960552 1_555
O14 Te6 1.960556 1_555
O15 Te7 1.960561 1_555
O16 Te8 1.960552 1_555
O17 Te9 1.960556 1_555
O18 Te9 1.960561 1_555
O19 Te8 1.960552 1_555
O20 Te7 1.960556 1_555
O21 Te6 1.960561 1_555
O22 Te5 1.960552 1_555
O23 Te4 1.960556 1_555
O24 Te4 1.958445 1_555
O24 Pb11 2.728350 1_555
O25 Te5 1.958445 1_555
O25 Pb9 2.728350 1_655
O26 Te6 1.958445 1_555
O26 Pb10 2.728355 1_555
O27 Te7 1.958445 1_555
O27 Pb9 2.728350 1_555
O28 Te8 1.958445 1_555
O28 Pb11 2.728350 1_565
O29 Te9 1.958445 1_555
O29 Pb10 2.728355 1_555
O30 Te9 1.958445 1_555
O30 Pb8 2.728350 1_566
O31 Te8 1.958445 1_555
O31 Pb6 2.728350 1_556
O32 Te7 1.958445 1_555
O32 Pb7 2.728355 1_556
O33 Te6 1.958445 1_555
O33 Pb6 2.728350 1_655
O34 Te5 1.958445 1_555
O34 Pb8 2.728350 1_555
O35 Te4 1.958445 1_555
O35 Pb7 2.728355 1_555
O36 Te2 1.933344 1_555
O36 Pb9 2.732768 1_555
O37 Te2 1.933348 1_555
O37 Pb10 2.732768 1_555
O38 Te2 1.933339 1_555
O38 Pb11 2.732768 1_565
O39 Te3 1.933344 1_555
O39 Pb11 2.732768 1_555
O40 Te3 1.933348 1_555
O40 Pb10 2.732768 1_555
O41 Te3 1.933339 1_555
O41 Pb9 2.732768 1_655
O42 Te0 1.933344 1_555
O42 Pb6 2.732768 1_656
O43 Te0 1.933348 1_555
O43 Pb7 2.732768 1_556
O44 Te0 1.933339 1_555
O44 Pb8 2.732768 1_556
O45 Te1 1.933344 1_555
O45 Pb8 2.732768 1_565
O46 Te1 1.933348 1_555
O46 Pb7 2.732768 1_555
O47 Te1 1.933339 1_555
O47 Pb6 2.732768 1_555
O48 Te0 2.027196 1_555
O48 Pb0 2.426653 1_556
O48 Pb7 2.459211 1_556
O49 Te0 2.027192 1_555
O49 Pb1 2.426653 1_556
O49 Pb8 2.459211 1_556
O50 Te0 2.027188 1_555
O50 Pb2 2.426653 1_656
O50 Pb6 2.459211 1_656
O51 Te1 2.027196 1_555
O51 Pb0 2.426653 1_555
O51 Pb7 2.459211 1_555
O52 Te1 2.027192 1_555
O52 Pb2 2.426653 1_555
O52 Pb6 2.459211 1_555
O53 Te1 2.027188 1_555
O53 Pb1 2.426653 1_565
O53 Pb8 2.459211 1_565
O54 Te2 2.027196 1_555
O54 Pb3 2.426653 1_555
O54 Pb10 2.459211 1_555
O55 Te2 2.027192 1_555
O55 Pb4 2.426653 1_565
O55 Pb11 2.459211 1_565
O56 Te2 2.027188 1_555
O56 Pb5 2.426653 1_555
O56 Pb9 2.459211 1_555
O57 Te3 2.027196 1_555
O57 Pb3 2.426653 1_555
O57 Pb10 2.459211 1_555
O58 Te3 2.027192 1_555
O58 Pb5 2.426653 1_655
O58 Pb9 2.459211 1_655
O59 Te3 2.027188 1_555
O59 Pb4 2.426653 1_555
O59 Pb11 2.459211 1_555
