# generated using pymatgen
data_CaGa4O7
_symmetry_space_group_name_H-M   'P 1'
_cell_length_a   8.00182482
_cell_length_b   8.00182482
_cell_length_c   5.63098102
_cell_angle_alpha   77.96720346
_cell_angle_beta   77.96720346
_cell_angle_gamma   69.71728895
_symmetry_Int_Tables_number   1
_chemical_formula_structural   CaGa4O7
_chemical_formula_sum   'Ca2 Ga8 O14'
_cell_volume   327.09452240
_cell_formula_units_Z   2
loop_
 _symmetry_equiv_pos_site_id
 _symmetry_equiv_pos_as_xyz
  1  'x, y, z'
loop_
 _atom_site_type_symbol
 _atom_site_label
 _atom_site_symmetry_multiplicity
 _atom_site_fract_x
 _atom_site_fract_y
 _atom_site_fract_z
 _atom_site_occupancy
  Ca  Ca0  1  0.70772404  0.29227596  0.25000000  1
  Ca  Ca1  1  0.29227596  0.70772404  0.75000000  1
  Ga  Ga0  1  0.25492607  0.42528871  0.31459466  1
  Ga  Ga1  1  0.57471129  0.74507393  0.18540534  1
  Ga  Ga2  1  0.94257065  0.81518229  0.24439190  1
  Ga  Ga3  1  0.18481771  0.05742935  0.25560810  1
  Ga  Ga4  1  0.05742935  0.18481771  0.75560810  1
  Ga  Ga5  1  0.81518229  0.94257065  0.74439190  1
  Ga  Ga6  1  0.42528871  0.25492607  0.81459466  1
  Ga  Ga7  1  0.74507393  0.57471129  0.68540534  1
  O  O0  1  0.03580603  0.96419397  0.75000000  1
  O  O1  1  0.96419397  0.03580603  0.25000000  1
  O  O2  1  0.13706822  0.63627696  0.13587472  1
  O  O3  1  0.36372304  0.86293178  0.36412528  1
  O  O4  1  0.86293178  0.36372304  0.86412528  1
  O  O5  1  0.63627696  0.13706822  0.63587472  1
  O  O6  1  0.68073468  0.54778619  0.40443674  1
  O  O7  1  0.45221381  0.31926532  0.09556326  1
  O  O8  1  0.31926532  0.45221381  0.59556326  1
  O  O9  1  0.54778619  0.68073468  0.90443674  1
  O  O10  1  0.74552478  0.86864517  0.07963460  1
  O  O11  1  0.13135483  0.25447522  0.42036540  1
  O  O12  1  0.25447522  0.13135483  0.92036540  1
  O  O13  1  0.86864517  0.74552478  0.57963460  1
loop_
_geom_bond_atom_site_label_1
_geom_bond_atom_site_label_2
_geom_bond_distance
_geom_bond_site_symmetry_2
Ca0 O7 2.310837 1_555
Ca0 O6 2.310837 1_555
Ca0 O5 2.332326 1_555
Ca0 O4 2.332326 1_554
Ca0 O1 2.345917 1_555
Ca1 O8 2.310837 1_555
Ca1 O9 2.310837 1_555
Ca1 O2 2.332326 1_556
Ca1 O3 2.332326 1_555
Ca1 O0 2.345917 1_555
Ga0 O2 1.826455 1_555
Ga0 O8 1.836638 1_555
Ga0 O7 1.851760 1_555
Ga0 O11 1.884856 1_555
Ga1 O3 1.826455 1_555
Ga1 O9 1.836638 1_554
Ga1 O6 1.851760 1_555
Ga1 O10 1.884856 1_555
Ga2 O2 1.807896 1_655
Ga2 O1 1.839795 1_565
Ga2 O10 1.872582 1_555
Ga2 O13 1.883740 1_555
Ga3 O3 1.807896 1_545
Ga3 O1 1.839795 1_455
Ga3 O11 1.872582 1_555
Ga3 O12 1.883740 1_554
Ga4 O4 1.807896 1_455
Ga4 O0 1.839795 1_545
Ga4 O12 1.872582 1_555
Ga4 O11 1.883740 1_555
Ga5 O5 1.807896 1_565
Ga5 O0 1.839795 1_655
Ga5 O13 1.872582 1_555
Ga5 O10 1.883740 1_556
Ga6 O5 1.826455 1_555
Ga6 O7 1.836638 1_556
Ga6 O8 1.851760 1_555
Ga6 O12 1.884856 1_555
Ga7 O4 1.826455 1_555
Ga7 O6 1.836638 1_555
Ga7 O9 1.851760 1_555
Ga7 O13 1.884856 1_555
