# generated using pymatgen
data_Li9Mn2Co5O16
_symmetry_space_group_name_H-M   'P 1'
_cell_length_a   2.88809300
_cell_length_b   5.21283700
_cell_length_c   19.45150321
_cell_angle_alpha   83.84580688
_cell_angle_beta   90.00000000
_cell_angle_gamma   90.00000000
_symmetry_Int_Tables_number   1
_chemical_formula_structural   Li9Mn2Co5O16
_chemical_formula_sum   'Li9 Mn2 Co5 O16'
_cell_volume   291.15778381
_cell_formula_units_Z   1
loop_
 _symmetry_equiv_pos_site_id
 _symmetry_equiv_pos_as_xyz
  1  'x, y, z'
loop_
 _atom_site_type_symbol
 _atom_site_label
 _atom_site_symmetry_multiplicity
 _atom_site_fract_x
 _atom_site_fract_y
 _atom_site_fract_z
 _atom_site_occupancy
  Li  Li0  1  0.50000000  0.75531600  0.74747900  1
  Li  Li1  1  0.00000000  0.87301400  0.87791700  1
  Li  Li2  1  0.50000000  0.00000000  0.00000000  1
  Li  Li3  1  0.00000000  0.12698600  0.12208300  1
  Li  Li4  1  0.50000000  0.24468400  0.25252100  1
  Li  Li5  1  0.00000000  0.61272700  0.61803400  1
  Li  Li6  1  0.50000000  0.50000000  0.50000000  1
  Li  Li7  1  0.00000000  0.38727300  0.38196600  1
  Li  Li8  1  0.00000000  0.00000000  0.50000000  1
  Mn  Mn0  1  0.00000000  0.25273000  0.74954900  1
  Mn  Mn1  1  0.00000000  0.74727000  0.25045100  1
  Co  Co0  1  0.50000000  0.37296900  0.87863400  1
  Co  Co1  1  0.00000000  0.50000000  0.00000000  1
  Co  Co2  1  0.50000000  0.62703100  0.12136600  1
  Co  Co3  1  0.50000000  0.90141800  0.38420500  1
  Co  Co4  1  0.50000000  0.09858200  0.61579500  1
  O  O0  1  0.50000000  0.42414800  0.69717300  1
  O  O1  1  0.00000000  0.52822100  0.81269300  1
  O  O2  1  0.50000000  0.66478900  0.93714600  1
  O  O3  1  0.00000000  0.81104100  0.06661500  1
  O  O4  1  0.50000000  0.91769700  0.19433200  1
  O  O5  1  0.00000000  0.29834500  0.56860900  1
  O  O6  1  0.50000000  0.17744400  0.43083400  1
  O  O7  1  0.00000000  0.01618700  0.31087700  1
  O  O8  1  0.50000000  0.08230300  0.80566800  1
  O  O9  1  0.00000000  0.18895900  0.93338500  1
  O  O10  1  0.50000000  0.33521100  0.06285400  1
  O  O11  1  0.00000000  0.47177900  0.18730700  1
  O  O12  1  0.50000000  0.57585200  0.30282700  1
  O  O13  1  0.00000000  0.98381300  0.68912300  1
  O  O14  1  0.50000000  0.82255600  0.56916600  1
  O  O15  1  0.00000000  0.70165500  0.43139100  1
loop_
_geom_bond_atom_site_label_1
_geom_bond_atom_site_label_2
_geom_bond_distance
_geom_bond_site_symmetry_2
Li0 O0 2.073621 1_555
Li0 O13 2.121937 1_655
Li0 O13 2.121937 1_555
Li0 O8 2.144807 1_565
Li0 O1 2.184907 1_555
Li0 O1 2.184907 1_655
Li1 O9 2.063398 1_565
Li1 O2 2.079098 1_555
Li1 O2 2.079098 1_455
Li1 O8 2.218514 1_565
Li1 O8 2.218514 1_465
Li1 O1 2.308462 1_555
Li2 O9 2.112075 1_654
Li2 O9 2.112075 1_554
Li2 O3 2.112075 1_545
Li2 O3 2.112075 1_645
Li2 O2 2.237460 1_544
Li2 O10 2.237460 1_555
Li3 O3 2.063398 1_545
Li3 O10 2.079098 1_455
Li3 O10 2.079098 1_555
Li3 O4 2.218514 1_445
Li3 O4 2.218514 1_545
Li3 O11 2.308462 1_555
Li4 O12 2.073621 1_555
Li4 O7 2.121937 1_655
Li4 O7 2.121937 1_555
Li4 O4 2.144807 1_545
Li4 O11 2.184907 1_655
Li4 O11 2.184907 1_555
Li5 O5 1.986913 1_555
Li5 O14 1.990555 1_555
Li5 O14 1.990555 1_455
Li5 O0 2.257617 1_455
Li5 O0 2.257617 1_555
Li5 O13 2.495509 1_555
Li6 O15 2.161137 1_555
Li6 O15 2.161137 1_655
Li6 O5 2.161137 1_555
Li6 O5 2.161137 1_655
Li6 O14 2.263249 1_555
Li6 O6 2.263249 1_555
Li7 O15 1.986913 1_555
Li7 O6 1.990555 1_455
Li7 O6 1.990555 1_555
Li7 O12 2.257617 1_455
Li7 O12 2.257617 1_555
Li7 O7 2.495509 1_555
Li8 O14 2.117570 1_445
Li8 O14 2.117570 1_545
Li8 O6 2.117570 1_455
Li8 O6 2.117570 1_555
Li8 O15 2.155168 1_545
Li8 O5 2.155168 1_555
Mn0 O13 1.923509 1_545
Mn0 O0 1.930412 1_455
Mn0 O0 1.930412 1_555
Mn0 O8 1.964229 1_555
Mn0 O8 1.964229 1_455
Mn0 O1 1.987242 1_555
Mn1 O7 1.923509 1_565
Mn1 O12 1.930412 1_555
Mn1 O12 1.930412 1_455
Mn1 O4 1.964229 1_555
Mn1 O4 1.964229 1_455
Mn1 O11 1.987242 1_555
Co0 O9 1.980034 1_555
Co0 O9 1.980034 1_655
Co0 O2 1.995163 1_555
Co0 O1 2.040311 1_655
Co0 O1 2.040311 1_555
Co0 O8 2.184333 1_555
Co1 O2 2.023058 1_454
Co1 O2 2.023058 1_554
Co1 O10 2.023058 1_455
Co1 O10 2.023058 1_555
Co1 O9 2.181380 1_554
Co1 O3 2.181380 1_555
Co2 O3 1.980034 1_655
Co2 O3 1.980034 1_555
Co2 O10 1.995163 1_555
Co2 O11 2.040311 1_655
Co2 O11 2.040311 1_555
Co2 O4 2.184333 1_555
Co3 O6 1.781249 1_565
Co3 O15 1.951190 1_655
Co3 O15 1.951190 1_555
Co3 O7 2.072361 1_665
Co3 O7 2.072361 1_565
Co3 O12 2.441693 1_555
Co4 O14 1.781249 1_545
Co4 O5 1.951190 1_555
Co4 O5 1.951190 1_655
Co4 O13 2.072361 1_545
Co4 O13 2.072361 1_645
Co4 O0 2.441693 1_555
