# generated using pymatgen
data_UCoNi
_symmetry_space_group_name_H-M   'P 1'
_cell_length_a   4.91932768
_cell_length_b   4.91932768
_cell_length_c   4.91932768
_cell_angle_alpha   120.79820220
_cell_angle_beta   119.35282580
_cell_angle_gamma   89.87382369
_symmetry_Int_Tables_number   1
_chemical_formula_structural   UCoNi
_chemical_formula_sum   'U2 Co2 Ni2'
_cell_volume   84.06563883
_cell_formula_units_Z   2
loop_
 _symmetry_equiv_pos_site_id
 _symmetry_equiv_pos_as_xyz
  1  'x, y, z'
loop_
 _atom_site_type_symbol
 _atom_site_label
 _atom_site_symmetry_multiplicity
 _atom_site_fract_x
 _atom_site_fract_y
 _atom_site_fract_z
 _atom_site_occupancy
  U  U0  1  0.12330200  0.87330200  0.25000000  1
  U  U1  1  0.87669800  0.12669800  0.75000000  1
  Co  Co0  1  0.00000000  0.50000000  0.50000000  1
  Co  Co1  1  0.50000000  0.50000000  0.00000000  1
  Ni  Ni0  1  0.50000000  0.00000000  0.00000000  1
  Ni  Ni1  1  0.50000000  0.50000000  0.50000000  1
loop_
_geom_bond_atom_site_label_1
_geom_bond_atom_site_label_2
_geom_bond_distance
_geom_bond_site_symmetry_2
Co0 Ni1 2.459664 1_555
Co0 Ni0 2.459664 1_566
Co0 Ni1 2.459664 1_455
Co0 Ni0 2.459664 1_455
Co0 Co1 2.483685 1_556
Co0 Co1 2.483685 1_455
Co0 U1 2.867990 1_465
Co0 U1 2.867990 1_454
Co0 U0 2.867990 1_556
Co0 U0 2.867990 1_545
Co0 U0 2.881270 1_555
Co0 U1 2.881270 1_455
Co1 Ni1 2.459664 1_555
Co1 Ni0 2.459664 1_555
Co1 Ni1 2.459664 1_554
Co1 Ni0 2.459664 1_565
Co1 U0 2.867990 1_555
Co1 U1 2.867990 1_554
Co1 U1 2.867990 1_565
Co1 U0 2.867990 1_544
Co1 U0 2.881270 1_655
Co1 U1 2.881270 1_454
Ni0 Ni1 2.429929 1_544
Ni0 Ni1 2.429929 1_555
Ni0 U1 2.891233 1_554
Ni0 U0 2.891233 1_545
Ni0 U0 2.895218 1_544
Ni0 U1 2.895218 1_555
Ni0 U1 2.895218 1_454
Ni0 U0 2.895218 1_645
Ni1 U1 2.891233 1_565
Ni1 U0 2.891233 1_545
Ni1 U0 2.895218 1_555
Ni1 U1 2.895218 1_555
Ni1 U0 2.895218 1_656
Ni1 U1 2.895218 1_454
