# generated using pymatgen
data_Li2Cr3(CuO6)2
_symmetry_space_group_name_H-M   'P 1'
_cell_length_a   8.82681300
_cell_length_b   8.94833900
_cell_length_c   13.49263700
_cell_angle_alpha   90.00000000
_cell_angle_beta   90.00000000
_cell_angle_gamma   90.00000000
_symmetry_Int_Tables_number   1
_chemical_formula_structural   Li2Cr3(CuO6)2
_chemical_formula_sum   'Li8 Cr12 Cu8 O48'
_cell_volume   1065.72018381
_cell_formula_units_Z   4
loop_
 _symmetry_equiv_pos_site_id
 _symmetry_equiv_pos_as_xyz
  1  'x, y, z'
loop_
 _atom_site_type_symbol
 _atom_site_label
 _atom_site_symmetry_multiplicity
 _atom_site_fract_x
 _atom_site_fract_y
 _atom_site_fract_z
 _atom_site_occupancy
  Li  Li0  1  0.27029100  0.22845100  0.19087100  1
  Li  Li1  1  0.77029100  0.77154900  0.19087100  1
  Li  Li2  1  0.77029100  0.27154900  0.30912900  1
  Li  Li3  1  0.27029100  0.72845100  0.30912900  1
  Li  Li4  1  0.72970900  0.27154900  0.69087100  1
  Li  Li5  1  0.22970900  0.72845100  0.69087100  1
  Li  Li6  1  0.22970900  0.22845100  0.80912900  1
  Li  Li7  1  0.72970900  0.77154900  0.80912900  1
  Cr  Cr0  1  0.25000000  0.46328900  0.00000000  1
  Cr  Cr1  1  0.75000000  0.53671100  0.00000000  1
  Cr  Cr2  1  0.60881000  0.09664600  0.14177200  1
  Cr  Cr3  1  0.10881000  0.90335400  0.14177200  1
  Cr  Cr4  1  0.10881000  0.40335400  0.35822800  1
  Cr  Cr5  1  0.60881000  0.59664600  0.35822800  1
  Cr  Cr6  1  0.75000000  0.03671100  0.50000000  1
  Cr  Cr7  1  0.25000000  0.96328900  0.50000000  1
  Cr  Cr8  1  0.39119000  0.40335400  0.64177200  1
  Cr  Cr9  1  0.89119000  0.59664600  0.64177200  1
  Cr  Cr10  1  0.89119000  0.09664600  0.85822800  1
  Cr  Cr11  1  0.39119000  0.90335400  0.85822800  1
  Cu  Cu0  1  0.96606600  0.25133500  0.11171500  1
  Cu  Cu1  1  0.46606600  0.74866500  0.11171500  1
  Cu  Cu2  1  0.46606600  0.24866500  0.38828500  1
  Cu  Cu3  1  0.96606600  0.75133500  0.38828500  1
  Cu  Cu4  1  0.03393400  0.24866500  0.61171500  1
  Cu  Cu5  1  0.53393400  0.75133500  0.61171500  1
  Cu  Cu6  1  0.53393400  0.25133500  0.88828500  1
  Cu  Cu7  1  0.03393400  0.74866500  0.88828500  1
  O  O0  1  0.57265400  0.13634500  0.02632100  1
  O  O1  1  0.07265400  0.86365500  0.02632100  1
  O  O2  1  0.37204300  0.56758900  0.06188800  1
  O  O3  1  0.87204300  0.43241100  0.06188800  1
  O  O4  1  0.16311400  0.35339000  0.08496900  1
  O  O5  1  0.66311400  0.64661000  0.08496900  1
  O  O6  1  0.10464000  0.09222000  0.15835000  1
  O  O7  1  0.60464000  0.90778000  0.15835000  1
  O  O8  1  0.77943900  0.16920000  0.17556100  1
  O  O9  1  0.27943900  0.83080000  0.17556100  1
  O  O10  1  0.47691100  0.17001800  0.21326200  1
  O  O11  1  0.97691100  0.82998200  0.21326200  1
  O  O12  1  0.97691100  0.32998200  0.28673800  1
  O  O13  1  0.47691100  0.67001800  0.28673800  1
  O  O14  1  0.77943900  0.66920000  0.32443900  1
  O  O15  1  0.27943900  0.33080000  0.32443900  1
  O  O16  1  0.60464000  0.40778000  0.34165000  1
  O  O17  1  0.10464000  0.59222000  0.34165000  1
  O  O18  1  0.66311400  0.14661000  0.41503100  1
  O  O19  1  0.16311400  0.85339000  0.41503100  1
  O  O20  1  0.37204300  0.06758900  0.43811200  1
  O  O21  1  0.87204300  0.93241100  0.43811200  1
  O  O22  1  0.57265400  0.63634500  0.47367900  1
  O  O23  1  0.07265400  0.36365500  0.47367900  1
  O  O24  1  0.42734600  0.36365500  0.52632100  1
  O  O25  1  0.92734600  0.63634500  0.52632100  1
  O  O26  1  0.12795700  0.06758900  0.56188800  1
  O  O27  1  0.62795700  0.93241100  0.56188800  1
  O  O28  1  0.83688600  0.14661000  0.58496900  1
  O  O29  1  0.33688600  0.85339000  0.58496900  1
  O  O30  1  0.89536000  0.40778000  0.65835000  1
  O  O31  1  0.39536000  0.59222000  0.65835000  1
  O  O32  1  0.22056100  0.33080000  0.67556100  1
  O  O33  1  0.72056100  0.66920000  0.67556100  1
  O  O34  1  0.52308900  0.32998200  0.71326200  1
  O  O35  1  0.02308900  0.67001800  0.71326200  1
  O  O36  1  0.02308900  0.17001800  0.78673800  1
  O  O37  1  0.52308900  0.82998200  0.78673800  1
  O  O38  1  0.72056100  0.16920000  0.82443900  1
  O  O39  1  0.22056100  0.83080000  0.82443900  1
  O  O40  1  0.39536000  0.09222000  0.84165000  1
  O  O41  1  0.89536000  0.90778000  0.84165000  1
  O  O42  1  0.33688600  0.35339000  0.91503100  1
  O  O43  1  0.83688600  0.64661000  0.91503100  1
  O  O44  1  0.62795700  0.43241100  0.93811200  1
  O  O45  1  0.12795700  0.56758900  0.93811200  1
  O  O46  1  0.92734600  0.13634500  0.97367900  1
  O  O47  1  0.42734600  0.86365500  0.97367900  1
loop_
_geom_bond_atom_site_label_1
_geom_bond_atom_site_label_2
_geom_bond_distance
_geom_bond_site_symmetry_2
Li0 O10 1.921173 1_555
Li0 O6 1.953598 1_555
Li0 O15 2.023160 1_555
Li0 O4 2.046128 1_555
Li1 O11 1.921173 1_555
Li1 O7 1.953598 1_555
Li1 O14 2.023160 1_555
Li1 O5 2.046128 1_555
Li2 O12 1.921173 1_555
Li2 O16 1.953598 1_555
Li2 O8 2.023160 1_555
Li2 O18 2.046128 1_555
Li3 O13 1.921173 1_555
Li3 O17 1.953598 1_555
Li3 O9 2.023160 1_555
Li3 O19 2.046128 1_555
Li4 O34 1.921173 1_555
Li4 O30 1.953598 1_555
Li4 O38 2.023160 1_555
Li4 O28 2.046128 1_555
Li5 O35 1.921173 1_555
Li5 O31 1.953598 1_555
Li5 O39 2.023160 1_555
Li5 O29 2.046128 1_555
Li6 O36 1.921173 1_555
Li6 O40 1.953598 1_555
Li6 O32 2.023160 1_555
Li6 O42 2.046128 1_555
Li7 O37 1.921173 1_555
Li7 O41 1.953598 1_555
Li7 O33 2.023160 1_555
Li7 O43 2.046128 1_555
Cr0 O2 1.651914 1_555
Cr0 O45 1.651914 1_554
Cr0 O4 1.694001 1_555
Cr0 O42 1.694001 1_554
Cr1 O3 1.651914 1_555
Cr1 O44 1.651914 1_554
Cr1 O5 1.694001 1_555
Cr1 O43 1.694001 1_554
Cr2 O0 1.629293 1_555
Cr2 O10 1.648324 1_555
Cr2 O8 1.702271 1_555
Cr2 O7 1.705172 1_545
Cr3 O1 1.629293 1_555
Cr3 O11 1.648324 1_455
Cr3 O9 1.702271 1_555
Cr3 O6 1.705172 1_565
Cr4 O23 1.629293 1_555
Cr4 O12 1.648324 1_455
Cr4 O15 1.702271 1_555
Cr4 O17 1.705172 1_555
Cr5 O22 1.629293 1_555
Cr5 O13 1.648324 1_555
Cr5 O14 1.702271 1_555
Cr5 O16 1.705172 1_555
Cr6 O27 1.651914 1_545
Cr6 O21 1.651914 1_545
Cr6 O28 1.694001 1_555
Cr6 O18 1.694001 1_555
Cr7 O26 1.651914 1_565
Cr7 O20 1.651914 1_565
Cr7 O29 1.694001 1_555
Cr7 O19 1.694001 1_555
Cr8 O24 1.629293 1_555
Cr8 O34 1.648324 1_555
Cr8 O32 1.702271 1_555
Cr8 O31 1.705172 1_555
Cr9 O25 1.629293 1_555
Cr9 O35 1.648324 1_655
Cr9 O33 1.702271 1_555
Cr9 O30 1.705172 1_555
Cr10 O46 1.629293 1_555
Cr10 O36 1.648324 1_655
Cr10 O38 1.702271 1_555
Cr10 O41 1.705172 1_545
Cr11 O47 1.629293 1_555
Cr11 O37 1.648324 1_555
Cr11 O39 1.702271 1_555
Cr11 O40 1.705172 1_565
Cu0 O3 1.940676 1_555
Cu0 O6 1.979726 1_655
Cu0 O4 1.997346 1_655
Cu0 O8 1.998987 1_555
Cu0 O46 2.155083 1_554
Cu0 O12 2.466014 1_555
Cu1 O2 1.940676 1_555
Cu1 O7 1.979726 1_555
Cu1 O5 1.997346 1_555
Cu1 O9 1.998987 1_555
Cu1 O47 2.155083 1_554
Cu1 O13 2.466014 1_555
Cu2 O20 1.940676 1_555
Cu2 O16 1.979726 1_555
Cu2 O18 1.997346 1_555
Cu2 O15 1.998987 1_555
Cu2 O24 2.155083 1_555
Cu2 O10 2.466014 1_555
Cu3 O21 1.940676 1_555
Cu3 O17 1.979726 1_655
Cu3 O19 1.997346 1_655
Cu3 O14 1.998987 1_555
Cu3 O25 2.155083 1_555
Cu3 O11 2.466014 1_555
Cu4 O26 1.940676 1_555
Cu4 O30 1.979726 1_455
Cu4 O28 1.997346 1_455
Cu4 O32 1.998987 1_555
Cu4 O23 2.155083 1_555
Cu4 O36 2.466014 1_555
Cu5 O27 1.940676 1_555
Cu5 O31 1.979726 1_555
Cu5 O29 1.997346 1_555
Cu5 O33 1.998987 1_555
Cu5 O22 2.155083 1_555
Cu5 O37 2.466014 1_555
Cu6 O44 1.940676 1_555
Cu6 O40 1.979726 1_555
Cu6 O42 1.997346 1_555
Cu6 O38 1.998987 1_555
Cu6 O0 2.155083 1_556
Cu6 O34 2.466014 1_555
Cu7 O45 1.940676 1_555
Cu7 O41 1.979726 1_455
Cu7 O43 1.997346 1_455
Cu7 O39 1.998987 1_555
Cu7 O1 2.155083 1_556
Cu7 O35 2.466014 1_555
