# generated using pymatgen
data_Mg6AlCu
_symmetry_space_group_name_H-M   'P 1'
_cell_length_a   4.89082400
_cell_length_b   6.12051100
_cell_length_c   10.57107100
_cell_angle_alpha   90.00000000
_cell_angle_beta   90.00000000
_cell_angle_gamma   90.00000000
_symmetry_Int_Tables_number   1
_chemical_formula_structural   Mg6AlCu
_chemical_formula_sum   'Mg12 Al2 Cu2'
_cell_volume   316.43805558
_cell_formula_units_Z   2
loop_
 _symmetry_equiv_pos_site_id
 _symmetry_equiv_pos_as_xyz
  1  'x, y, z'
loop_
 _atom_site_type_symbol
 _atom_site_label
 _atom_site_symmetry_multiplicity
 _atom_site_fract_x
 _atom_site_fract_y
 _atom_site_fract_z
 _atom_site_occupancy
  Mg  Mg0  1  0.00000000  0.25842900  0.08753900  1
  Mg  Mg1  1  0.00000000  0.74157100  0.08753900  1
  Mg  Mg2  1  0.00000000  0.50000000  0.83258300  1
  Mg  Mg3  1  0.50000000  0.24675000  0.91411800  1
  Mg  Mg4  1  0.50000000  0.75325000  0.91411800  1
  Mg  Mg5  1  0.50000000  0.50000000  0.66712200  1
  Mg  Mg6  1  0.00000000  0.75842900  0.58753900  1
  Mg  Mg7  1  0.00000000  0.24157100  0.58753900  1
  Mg  Mg8  1  0.00000000  0.00000000  0.33258300  1
  Mg  Mg9  1  0.50000000  0.74675000  0.41411800  1
  Mg  Mg10  1  0.50000000  0.25325000  0.41411800  1
  Mg  Mg11  1  0.50000000  0.00000000  0.16712200  1
  Al  Al0  1  0.00000000  0.50000000  0.32852000  1
  Al  Al1  1  0.00000000  0.00000000  0.82852000  1
  Cu  Cu0  1  0.50000000  0.50000000  0.16846000  1
  Cu  Cu1  1  0.50000000  0.00000000  0.66846000  1
loop_
_geom_bond_atom_site_label_1
_geom_bond_atom_site_label_2
_geom_bond_distance
_geom_bond_site_symmetry_2
Mg0 Mg1 2.957076 1_555
Mg0 Mg11 3.031438 1_455
Mg0 Mg11 3.031438 1_555
Mg0 Mg8 3.035109 1_555
Mg0 Mg3 3.057113 1_554
Mg0 Mg3 3.057113 1_454
Mg0 Mg2 3.074077 1_554
Mg0 Mg1 3.163435 1_545
Mg1 Mg11 3.031438 1_565
Mg1 Mg11 3.031438 1_465
Mg1 Mg8 3.035109 1_565
Mg1 Mg4 3.057113 1_554
Mg1 Mg4 3.057113 1_454
Mg1 Mg2 3.074077 1_554
Mg2 Mg5 3.006558 1_455
Mg2 Mg5 3.006558 1_555
Mg2 Mg3 3.020843 1_455
Mg2 Mg3 3.020843 1_555
Mg2 Mg4 3.020843 1_455
Mg2 Mg4 3.020843 1_555
Mg2 Mg6 3.035109 1_555
Mg2 Mg7 3.035109 1_555
Mg3 Mg4 3.020472 1_545
Mg3 Mg5 3.036436 1_555
Mg3 Mg4 3.100039 1_555
Mg4 Mg5 3.036436 1_555
Mg5 Mg6 3.031438 1_555
Mg5 Mg6 3.031438 1_655
Mg5 Mg7 3.031438 1_555
Mg5 Mg7 3.031438 1_655
Mg5 Mg9 3.071463 1_555
Mg6 Mg7 2.957076 1_565
Mg6 Mg9 3.057113 1_455
Mg6 Mg9 3.057113 1_555
Mg6 Mg8 3.074077 1_565
Mg6 Mg7 3.163435 1_555
Mg7 Mg8 3.074077 1_555
Mg8 Mg9 3.020843 1_545
Mg8 Mg9 3.020843 1_445
Mg10 Mg9 3.020472 1_555
Mg10 Mg8 3.020843 1_555
Mg10 Mg8 3.020843 1_655
Mg10 Mg11 3.036436 1_555
Mg10 Mg7 3.057113 1_655
Mg10 Mg7 3.057113 1_555
Mg10 Mg5 3.071463 1_555
Mg10 Mg9 3.100039 1_545
Mg11 Mg8 3.006558 1_555
Mg11 Mg8 3.006558 1_655
Mg11 Mg9 3.036436 1_545
Mg11 Mg4 3.071463 1_544
Mg11 Mg3 3.071463 1_554
Al0 Mg1 2.945413 1_555
Al0 Mg0 2.945413 1_555
Al0 Cu0 2.973705 1_555
Al0 Cu0 2.973705 1_455
Al0 Mg9 3.013242 1_455
Al0 Mg10 3.013242 1_455
Al0 Mg9 3.013242 1_555
Al0 Mg10 3.013242 1_555
Al0 Mg8 3.060557 1_565
Al0 Mg8 3.060557 1_555
Al0 Mg6 3.162130 1_555
Al0 Mg7 3.162130 1_555
Al1 Mg7 2.945413 1_555
Al1 Mg6 2.945413 1_545
Al1 Cu1 2.973705 1_555
Al1 Cu1 2.973705 1_455
Al1 Mg4 3.013242 1_445
Al1 Mg4 3.013242 1_545
Al1 Mg3 3.013242 1_455
Al1 Mg3 3.013242 1_555
Al1 Mg2 3.060557 1_545
Al1 Mg2 3.060557 1_555
Al1 Mg0 3.162130 1_556
Al1 Mg1 3.162130 1_546
Cu0 Mg1 2.982928 1_655
Cu0 Mg1 2.982928 1_555
Cu0 Mg0 2.982928 1_555
Cu0 Mg0 2.982928 1_655
Cu0 Mg9 3.004087 1_555
Cu0 Mg10 3.004087 1_555
Cu0 Mg11 3.060288 1_555
Cu0 Mg11 3.060288 1_565
Cu0 Mg3 3.103465 1_554
Cu0 Mg4 3.103465 1_554
Cu1 Mg7 2.982928 1_555
Cu1 Mg7 2.982928 1_655
Cu1 Mg6 2.982928 1_645
Cu1 Mg6 2.982928 1_545
Cu1 Mg3 3.004087 1_555
Cu1 Mg4 3.004087 1_545
Cu1 Mg5 3.060288 1_545
Cu1 Mg5 3.060288 1_555
Cu1 Mg9 3.103465 1_545
Cu1 Mg10 3.103465 1_555
