# generated using pymatgen
data_MgCd3
_symmetry_space_group_name_H-M   'P 1'
_cell_length_a   11.86418867
_cell_length_b   11.86418867
_cell_length_c   11.86418867
_cell_angle_alpha   148.97117096
_cell_angle_beta   126.97788050
_cell_angle_gamma   62.71514157
_symmetry_Int_Tables_number   1
_chemical_formula_structural   MgCd3
_chemical_formula_sum   'Mg8 Cd24'
_cell_volume   681.06379154
_cell_formula_units_Z   8
loop_
 _symmetry_equiv_pos_site_id
 _symmetry_equiv_pos_as_xyz
  1  'x, y, z'
loop_
 _atom_site_type_symbol
 _atom_site_label
 _atom_site_symmetry_multiplicity
 _atom_site_fract_x
 _atom_site_fract_y
 _atom_site_fract_z
 _atom_site_occupancy
  Mg  Mg0_0  1  0.16718094  0.00000000  0.16718093  1
  Mg  Mg0_1  1  0.16718093  0.00000000  0.66718093  1
  Mg  Mg0_2  1  0.16718094  0.50000000  0.16718094  1
  Mg  Mg0_3  1  0.16718093  0.50000000  0.66718093  1
  Mg  Mg0_4  1  0.66718094  0.00000000  0.16718094  1
  Mg  Mg0_5  1  0.66718093  0.00000000  0.66718093  1
  Mg  Mg0_6  1  0.66718093  0.50000000  0.16718093  1
  Mg  Mg0_7  1  0.66718093  0.50000000  0.66718093  1
  Cd  Cd0_0  1  0.41562517  0.25000000  0.16562516  1
  Cd  Cd0_1  1  0.41562517  0.25000000  0.66562517  1
  Cd  Cd0_2  1  0.41562517  0.75000000  0.16562517  1
  Cd  Cd0_3  1  0.41562517  0.75000000  0.66562517  1
  Cd  Cd0_4  1  0.91562517  0.25000000  0.16562517  1
  Cd  Cd0_5  1  0.91562517  0.25000000  0.66562517  1
  Cd  Cd0_6  1  0.91562517  0.75000000  0.16562516  1
  Cd  Cd0_7  1  0.91562517  0.75000000  0.66562517  1
  Cd  Cd1_0  1  0.12594463  0.12568143  0.00026320  1
  Cd  Cd1_1  1  0.12594463  0.12568143  0.50026320  1
  Cd  Cd1_2  1  0.12594463  0.62568143  0.00026320  1
  Cd  Cd1_3  1  0.12594463  0.62568143  0.50026320  1
  Cd  Cd1_4  1  0.62594463  0.12568143  0.00026320  1
  Cd  Cd1_5  1  0.62594462  0.12568143  0.50026320  1
  Cd  Cd1_6  1  0.62594463  0.62568143  0.00026320  1
  Cd  Cd1_7  1  0.62594463  0.62568143  0.50026320  1
  Cd  Cd2_0  1  0.37458178  0.37431857  0.00026320  1
  Cd  Cd2_1  1  0.37458178  0.37431857  0.50026320  1
  Cd  Cd2_2  1  0.37458177  0.87431857  0.00026320  1
  Cd  Cd2_3  1  0.37458177  0.87431857  0.50026320  1
  Cd  Cd2_4  1  0.87458178  0.37431857  0.00026320  1
  Cd  Cd2_5  1  0.87458177  0.37431857  0.50026320  1
  Cd  Cd2_6  1  0.87458178  0.87431857  0.00026320  1
  Cd  Cd2_7  1  0.87458178  0.87431857  0.50026320  1
loop_
_geom_bond_atom_site_label_1
_geom_bond_atom_site_label_2
_geom_bond_distance
_geom_bond_site_symmetry_2
Mg0_0 Mg0_3 3.173443 1_544
Mg0_0 Mg0_3 3.173443 1_555
Mg0_1 Mg0_2 3.173443 1_545
Mg0_1 Mg0_2 3.173443 1_556
Mg0_4 Mg0_7 3.173443 1_544
Mg0_4 Mg0_7 3.173443 1_555
Mg0_5 Mg0_6 3.173443 1_545
Mg0_5 Mg0_6 3.173443 1_556
Cd0_0 Cd2_0 3.068061 1_555
Cd0_0 Cd1_0 3.068061 1_555
Cd0_0 Mg0_2 3.072805 1_555
Cd0_0 Mg0_1 3.072805 1_554
Cd0_0 Mg0_7 3.101074 1_555
Cd0_0 Mg0_4 3.101074 1_555
Cd0_0 Cd1_4 3.131550 1_555
Cd0_0 Cd1_7 3.131550 1_555
Cd0_0 Cd2_1 3.131550 1_555
Cd0_0 Cd2_2 3.131550 1_545
Cd0_0 Cd0_3 3.173443 1_544
Cd0_0 Cd0_3 3.173443 1_555
Cd0_1 Cd2_1 3.068061 1_555
Cd0_1 Cd1_1 3.068061 1_555
Cd0_1 Mg0_0 3.072805 1_555
Cd0_1 Mg0_3 3.072805 1_555
Cd0_1 Mg0_6 3.101074 1_556
Cd0_1 Mg0_5 3.101074 1_555
Cd0_1 Cd1_6 3.131550 1_556
Cd0_1 Cd1_5 3.131550 1_555
Cd0_1 Cd2_0 3.131550 1_556
Cd0_1 Cd2_3 3.131550 1_545
Cd0_1 Cd0_2 3.173443 1_545
Cd0_1 Cd0_2 3.173443 1_556
Cd0_2 Cd2_2 3.068061 1_555
Cd0_2 Cd1_2 3.068061 1_555
Cd0_2 Mg0_0 3.072805 1_565
Cd0_2 Mg0_3 3.072805 1_554
Cd0_2 Mg0_5 3.101074 1_565
Cd0_2 Mg0_6 3.101074 1_555
Cd0_2 Cd1_5 3.131550 1_565
Cd0_2 Cd2_0 3.131550 1_555
Cd0_2 Cd1_6 3.131550 1_555
Cd0_2 Cd2_3 3.131550 1_555
Cd0_3 Cd2_3 3.068061 1_555
Cd0_3 Cd1_3 3.068061 1_555
Cd0_3 Mg0_2 3.072805 1_555
Cd0_3 Mg0_1 3.072805 1_565
Cd0_3 Mg0_7 3.101074 1_555
Cd0_3 Mg0_4 3.101074 1_566
Cd0_3 Cd1_7 3.131550 1_555
Cd0_3 Cd1_4 3.131550 1_566
Cd0_3 Cd2_1 3.131550 1_555
Cd0_3 Cd2_2 3.131550 1_556
Cd0_4 Cd2_4 3.068061 1_555
Cd0_4 Cd1_4 3.068061 1_555
Cd0_4 Mg0_5 3.072805 1_554
Cd0_4 Mg0_6 3.072805 1_555
Cd0_4 Mg0_3 3.101074 1_655
Cd0_4 Mg0_0 3.101074 1_655
Cd0_4 Cd2_6 3.131550 1_545
Cd0_4 Cd2_5 3.131550 1_555
Cd0_4 Cd1_0 3.131550 1_655
Cd0_4 Cd1_3 3.131550 1_655
Cd0_4 Cd0_7 3.173443 1_544
Cd0_4 Cd0_7 3.173443 1_555
Cd0_5 Cd2_5 3.068061 1_555
Cd0_5 Cd1_5 3.068061 1_555
Cd0_5 Mg0_4 3.072805 1_555
Cd0_5 Mg0_7 3.072805 1_555
Cd0_5 Mg0_1 3.101074 1_655
Cd0_5 Mg0_2 3.101074 1_656
Cd0_5 Cd1_1 3.131550 1_655
Cd0_5 Cd1_2 3.131550 1_656
Cd0_5 Cd2_4 3.131550 1_556
Cd0_5 Cd2_7 3.131550 1_545
Cd0_5 Cd0_6 3.173443 1_556
Cd0_5 Cd0_6 3.173443 1_545
Cd0_6 Cd2_6 3.068061 1_555
Cd0_6 Cd1_6 3.068061 1_555
Cd0_6 Mg0_4 3.072805 1_565
Cd0_6 Mg0_7 3.072805 1_554
Cd0_6 Mg0_1 3.101074 1_665
Cd0_6 Mg0_2 3.101074 1_655
Cd0_6 Cd1_2 3.131550 1_655
Cd0_6 Cd1_1 3.131550 1_665
Cd0_6 Cd2_4 3.131550 1_555
Cd0_6 Cd2_7 3.131550 1_555
Cd0_7 Cd2_7 3.068061 1_555
Cd0_7 Cd1_7 3.068061 1_555
Cd0_7 Mg0_6 3.072805 1_555
Cd0_7 Mg0_5 3.072805 1_565
Cd0_7 Mg0_3 3.101074 1_655
Cd0_7 Mg0_0 3.101074 1_666
Cd0_7 Cd2_5 3.131550 1_555
Cd0_7 Cd1_3 3.131550 1_655
Cd0_7 Cd2_6 3.131550 1_556
Cd0_7 Cd1_0 3.131550 1_666
Cd1_0 Cd2_4 3.087051 1_455
Cd1_0 Cd2_7 3.087051 1_444
Cd1_0 Cd2_2 3.087051 1_545
Cd1_0 Cd2_1 3.087051 1_555
Cd1_0 Mg0_0 3.100142 1_555
Cd1_0 Mg0_2 3.104424 1_555
Cd1_0 Mg0_1 3.104424 1_554
Cd1_0 Cd1_3 3.173443 1_555
Cd1_0 Cd1_3 3.173443 1_544
Cd1_1 Cd2_3 3.087051 1_545
Cd1_1 Cd2_6 3.087051 1_445
Cd1_1 Cd2_5 3.087051 1_455
Cd1_1 Cd2_0 3.087051 1_556
Cd1_1 Mg0_1 3.100142 1_555
Cd1_1 Mg0_0 3.104424 1_555
Cd1_1 Mg0_3 3.104424 1_555
Cd1_1 Cd1_2 3.173443 1_545
Cd1_1 Cd1_2 3.173443 1_556
Cd1_2 Cd2_3 3.087051 1_555
Cd1_2 Cd2_6 3.087051 1_455
Cd1_2 Cd2_0 3.087051 1_555
Cd1_2 Cd2_5 3.087051 1_454
Cd1_2 Mg0_2 3.100142 1_555
Cd1_2 Mg0_3 3.104424 1_554
Cd1_2 Mg0_0 3.104424 1_565
Cd1_3 Cd2_7 3.087051 1_455
Cd1_3 Cd2_2 3.087051 1_556
Cd1_3 Cd2_4 3.087051 1_455
Cd1_3 Cd2_1 3.087051 1_555
Cd1_3 Mg0_3 3.100142 1_555
Cd1_3 Mg0_2 3.104424 1_555
Cd1_3 Mg0_1 3.104424 1_565
Cd1_4 Cd2_5 3.087051 1_555
Cd1_4 Cd2_0 3.087051 1_555
Cd1_4 Cd2_6 3.087051 1_545
Cd1_4 Cd2_3 3.087051 1_544
Cd1_4 Mg0_4 3.100142 1_555
Cd1_4 Mg0_5 3.104424 1_554
Cd1_4 Mg0_6 3.104424 1_555
Cd1_4 Cd1_7 3.173443 1_544
Cd1_4 Cd1_7 3.173443 1_555
Cd1_5 Cd2_2 3.087051 1_545
Cd1_5 Cd2_1 3.087051 1_555
Cd1_5 Cd2_4 3.087051 1_556
Cd1_5 Cd2_7 3.087051 1_545
Cd1_5 Mg0_5 3.100142 1_555
Cd1_5 Mg0_7 3.104424 1_555
Cd1_5 Mg0_4 3.104424 1_555
Cd1_5 Cd1_6 3.173443 1_545
Cd1_5 Cd1_6 3.173443 1_556
Cd1_6 Cd2_2 3.087051 1_555
Cd1_6 Cd2_1 3.087051 1_554
Cd1_6 Cd2_7 3.087051 1_555
Cd1_6 Cd2_4 3.087051 1_555
Cd1_6 Mg0_6 3.100142 1_555
Cd1_6 Mg0_4 3.104424 1_565
Cd1_6 Mg0_7 3.104424 1_554
Cd1_7 Cd2_5 3.087051 1_555
Cd1_7 Cd2_0 3.087051 1_555
Cd1_7 Cd2_6 3.087051 1_556
Cd1_7 Cd2_3 3.087051 1_555
Cd1_7 Mg0_7 3.100142 1_555
Cd1_7 Mg0_6 3.104424 1_555
Cd1_7 Mg0_5 3.104424 1_565
Cd2_0 Mg0_6 3.100142 1_555
Cd2_0 Mg0_2 3.104424 1_555
Cd2_0 Mg0_1 3.104424 1_554
Cd2_0 Cd2_3 3.173443 1_544
Cd2_0 Cd2_3 3.173443 1_555
Cd2_1 Mg0_7 3.100142 1_555
Cd2_1 Mg0_0 3.104424 1_555
Cd2_1 Mg0_3 3.104424 1_555
Cd2_1 Cd2_2 3.173443 1_556
Cd2_1 Cd2_2 3.173443 1_545
Cd2_2 Mg0_4 3.100142 1_565
Cd2_2 Mg0_3 3.104424 1_554
Cd2_2 Mg0_0 3.104424 1_565
Cd2_3 Mg0_5 3.100142 1_565
Cd2_3 Mg0_2 3.104424 1_555
Cd2_3 Mg0_1 3.104424 1_565
Cd2_4 Mg0_2 3.100142 1_655
Cd2_4 Mg0_6 3.104424 1_555
Cd2_4 Mg0_5 3.104424 1_554
Cd2_4 Cd2_7 3.173443 1_544
Cd2_4 Cd2_7 3.173443 1_555
Cd2_5 Mg0_3 3.100142 1_655
Cd2_5 Mg0_4 3.104424 1_555
Cd2_5 Mg0_7 3.104424 1_555
Cd2_5 Cd2_6 3.173443 1_545
Cd2_5 Cd2_6 3.173443 1_556
Cd2_6 Mg0_0 3.100142 1_665
Cd2_6 Mg0_4 3.104424 1_565
Cd2_6 Mg0_7 3.104424 1_554
Cd2_7 Mg0_1 3.100142 1_665
Cd2_7 Mg0_6 3.104424 1_555
Cd2_7 Mg0_5 3.104424 1_565
