# generated using pymatgen
data_Bi8Se9
_symmetry_space_group_name_H-M   'P 1'
_cell_length_a   4.20604969
_cell_length_b   4.20604969
_cell_length_c   34.32393858
_cell_angle_alpha   86.52853567
_cell_angle_beta   86.52853567
_cell_angle_gamma   60.00181731
_symmetry_Int_Tables_number   1
_chemical_formula_structural   Bi8Se9
_chemical_formula_sum   'Bi8 Se9'
_cell_volume   524.59037987
_cell_formula_units_Z   1
loop_
 _symmetry_equiv_pos_site_id
 _symmetry_equiv_pos_as_xyz
  1  'x, y, z'
loop_
 _atom_site_type_symbol
 _atom_site_label
 _atom_site_symmetry_multiplicity
 _atom_site_fract_x
 _atom_site_fract_y
 _atom_site_fract_z
 _atom_site_occupancy
  Bi  Bi0  1  0.17540471  0.17540471  0.47398226  1
  Bi  Bi1  1  0.82459529  0.82459529  0.52601774  1
  Bi  Bi2  1  0.11635296  0.11635296  0.65244134  1
  Bi  Bi3  1  0.88364704  0.88364704  0.34755866  1
  Bi  Bi4  1  0.35117124  0.35117124  0.94393659  1
  Bi  Bi5  1  0.64882876  0.64882876  0.05606341  1
  Bi  Bi6  1  0.41165393  0.41165393  0.76390992  1
  Bi  Bi7  1  0.58834607  0.58834607  0.23609008  1
  Se  Se0  1  -0.00000000  -0.00000000  0.00000000  1
  Se  Se1  1  0.06344071  0.06344071  0.80807778  1
  Se  Se2  1  0.93655929  0.93655929  0.19192222  1
  Se  Se3  1  0.23556054  0.23556054  0.29279768  1
  Se  Se4  1  0.76443946  0.76443946  0.70720232  1
  Se  Se5  1  0.30108946  0.30108946  0.10074326  1
  Se  Se6  1  0.69891054  0.69891054  0.89925674  1
  Se  Se7  1  0.46458535  0.46458535  0.60702662  1
  Se  Se8  1  0.53541465  0.53541465  0.39297338  1
loop_
_geom_bond_atom_site_label_1
_geom_bond_atom_site_label_2
_geom_bond_distance
_geom_bond_site_symmetry_2
Bi0 Bi1 3.010928 1_455
Bi0 Bi1 3.010928 1_545
Bi0 Bi1 3.013817 1_445
Bi2 Se7 2.883170 1_555
Bi2 Se7 2.883796 1_545
Bi2 Se7 2.883796 1_455
Bi2 Se4 3.066480 1_455
Bi2 Se4 3.066480 1_545
Bi2 Se4 3.071098 1_445
Bi3 Se8 2.883170 1_555
Bi3 Se8 2.883796 1_565
Bi3 Se8 2.883796 1_655
Bi3 Se3 3.066480 1_565
Bi3 Se3 3.066480 1_655
Bi3 Se3 3.071098 1_665
Bi4 Se6 2.868130 1_555
Bi4 Se6 2.871081 1_545
Bi4 Se6 2.871081 1_455
Bi4 Se0 3.091833 1_556
Bi4 Se0 3.097297 1_656
Bi4 Se0 3.097297 1_566
Bi5 Se5 2.868130 1_555
Bi5 Se5 2.871081 1_565
Bi5 Se5 2.871081 1_655
Bi5 Se0 3.091833 1_665
Bi5 Se0 3.097297 1_565
Bi5 Se0 3.097297 1_655
Bi6 Se1 2.859791 1_565
Bi6 Se1 2.859791 1_655
Bi6 Se1 2.862792 1_555
Bi6 Se4 3.107028 1_545
Bi6 Se4 3.107028 1_455
Bi6 Se4 3.113553 1_555
Bi7 Se2 2.859791 1_455
Bi7 Se2 2.859791 1_545
Bi7 Se2 2.862792 1_555
Bi7 Se3 3.107028 1_565
Bi7 Se3 3.107028 1_655
Bi7 Se3 3.113553 1_555
