# generated using pymatgen
data_VSi7N10
_symmetry_space_group_name_H-M   'P 1'
_cell_length_a   6.74115483
_cell_length_b   6.90182500
_cell_length_c   9.71967172
_cell_angle_alpha   90.00000000
_cell_angle_beta   105.42565947
_cell_angle_gamma   90.00000000
_symmetry_Int_Tables_number   1
_chemical_formula_structural   VSi7N10
_chemical_formula_sum   'V2 Si14 N20'
_cell_volume   435.92947544
_cell_formula_units_Z   2
loop_
 _symmetry_equiv_pos_site_id
 _symmetry_equiv_pos_as_xyz
  1  'x, y, z'
loop_
 _atom_site_type_symbol
 _atom_site_label
 _atom_site_symmetry_multiplicity
 _atom_site_fract_x
 _atom_site_fract_y
 _atom_site_fract_z
 _atom_site_occupancy
  V  V0  1  0.99666900  0.91771500  0.70170400  1
  V  V1  1  0.99666900  0.08228500  0.20170400  1
  Si  Si0  1  0.53875300  0.97911600  0.82175200  1
  Si  Si1  1  0.53875300  0.02088400  0.32175200  1
  Si  Si2  1  0.34998200  0.02217800  0.01801400  1
  Si  Si3  1  0.34998200  0.97782200  0.51801400  1
  Si  Si4  1  0.11228200  0.39850000  0.07236300  1
  Si  Si5  1  0.11228200  0.60150000  0.57236300  1
  Si  Si6  1  0.65976300  0.36027300  0.99034400  1
  Si  Si7  1  0.65976300  0.63972700  0.49034400  1
  Si  Si8  1  0.84348300  0.61856200  0.81018500  1
  Si  Si9  1  0.84348300  0.38143800  0.31018500  1
  Si  Si10  1  0.29726700  0.61816300  0.88074400  1
  Si  Si11  1  0.29726700  0.38183700  0.38074400  1
  Si  Si12  1  0.48455300  0.36734600  0.68532200  1
  Si  Si13  1  0.48455300  0.63265400  0.18532200  1
  N  N0  1  0.74337200  0.84286500  0.81406800  1
  N  N1  1  0.74337200  0.15713500  0.31406800  1
  N  N2  1  0.55582900  0.13289300  0.96857600  1
  N  N3  1  0.55582900  0.86710700  0.46857600  1
  N  N4  1  0.30743200  0.87076400  0.86051800  1
  N  N5  1  0.30743200  0.12923600  0.36051800  1
  N  N6  1  0.15621700  0.16072500  0.04219100  1
  N  N7  1  0.15621700  0.83927500  0.54219100  1
  N  N8  1  0.28788900  0.50352900  0.72201000  1
  N  N9  1  0.28788900  0.49647100  0.22201000  1
  N  N10  1  0.44599300  0.12089900  0.66874100  1
  N  N11  1  0.44599300  0.87910100  0.16874100  1
  N  N12  1  0.88578100  0.36984000  0.13232100  1
  N  N13  1  0.88578100  0.63016000  0.63232100  1
  N  N14  1  0.07701400  0.56826300  0.93453100  1
  N  N15  1  0.07701400  0.43173700  0.43453100  1
  N  N16  1  0.70040900  0.41499300  0.82446400  1
  N  N17  1  0.70040900  0.58500700  0.32446400  1
  N  N18  1  0.49961100  0.54103400  0.02145200  1
  N  N19  1  0.49961100  0.45896600  0.52145200  1
loop_
_geom_bond_atom_site_label_1
_geom_bond_atom_site_label_2
_geom_bond_distance
_geom_bond_site_symmetry_2
N0 Si0 1.687411 1_555
N0 Si8 1.693230 1_555
N0 V0 2.316745 1_555
N1 Si1 1.687411 1_555
N1 Si9 1.693230 1_555
N1 V1 2.316745 1_555
N2 Si6 1.708688 1_555
N2 Si0 1.757518 1_545
N2 Si2 1.759285 1_556
N3 Si7 1.708688 1_555
N3 Si1 1.757518 1_565
N3 Si3 1.759285 1_555
N4 Si10 1.757834 1_555
N4 Si2 1.812225 1_566
N4 Si0 1.856185 1_555
N4 V0 2.270708 1_455
N5 Si11 1.757834 1_555
N5 Si3 1.812225 1_545
N5 Si1 1.856185 1_555
N5 V1 2.270708 1_455
N6 Si2 1.684945 1_555
N6 Si4 1.706773 1_555
N6 V1 2.177324 1_455
N7 Si3 1.684945 1_555
N7 Si5 1.706773 1_555
N7 V0 2.177324 1_455
N8 Si10 1.720013 1_555
N8 Si12 1.737723 1_555
N8 Si5 1.748780 1_555
N9 Si11 1.720013 1_555
N9 Si13 1.737723 1_555
N9 Si4 1.748780 1_555
N10 Si12 1.721753 1_555
N10 Si3 1.742383 1_545
N10 Si0 1.750910 1_545
N11 Si13 1.721753 1_555
N11 Si2 1.742383 1_565
N11 Si1 1.750910 1_565
N12 Si6 1.763971 1_554
N12 Si4 1.784229 1_655
N12 Si9 1.827190 1_555
N12 V1 2.164311 1_555
N13 Si7 1.763971 1_555
N13 Si5 1.784229 1_655
N13 Si8 1.827190 1_555
N13 V0 2.164311 1_555
N14 Si10 1.734752 1_555
N14 Si8 1.745676 1_455
N14 Si4 1.747757 1_556
N15 Si11 1.734752 1_555
N15 Si9 1.745676 1_455
N15 Si5 1.747757 1_555
N16 Si8 1.730526 1_555
N16 Si12 1.734258 1_555
N16 Si6 1.747063 1_555
N17 Si9 1.730526 1_555
N17 Si13 1.734258 1_555
N17 Si7 1.747063 1_555
N18 Si6 1.728320 1_554
N18 Si10 1.738386 1_554
N18 Si13 1.741570 1_555
N19 Si7 1.728320 1_555
N19 Si11 1.738386 1_555
N19 Si12 1.741570 1_555
