# generated using pymatgen
data_CaLaFeBiO6
_symmetry_space_group_name_H-M   'P 1'
_cell_length_a   5.85188255
_cell_length_b   5.63422990
_cell_length_c   8.11457217
_cell_angle_alpha   89.37889341
_cell_angle_beta   90.00042517
_cell_angle_gamma   90.00003355
_symmetry_Int_Tables_number   1
_chemical_formula_structural   CaLaFeBiO6
_chemical_formula_sum   'Ca2 La2 Fe2 Bi2 O12'
_cell_volume   267.52863501
_cell_formula_units_Z   2
loop_
 _symmetry_equiv_pos_site_id
 _symmetry_equiv_pos_as_xyz
  1  'x, y, z'
loop_
 _atom_site_type_symbol
 _atom_site_label
 _atom_site_symmetry_multiplicity
 _atom_site_fract_x
 _atom_site_fract_y
 _atom_site_fract_z
 _atom_site_occupancy
  Ca  Ca0  1  0.55746133  0.51812239  0.24975138  1
  Ca  Ca1  1  0.94253480  0.01812531  0.74975125  1
  La  La0  1  0.05345652  0.98537196  0.24962786  1
  La  La1  1  0.44655455  0.48538003  0.74961742  1
  Fe  Fe0  1  0.50118766  0.99859868  0.00086920  1
  Fe  Fe1  1  0.99881171  0.49859960  0.50087149  1
  Bi  Bi0  1  0.50272002  -0.00012272  0.49860402  1
  Bi  Bi1  1  0.99727836  0.49989380  0.99860231  1
  O  O0  1  0.03909582  0.61105472  0.73464970  1
  O  O1  1  0.21269459  0.18199586  0.94093832  1
  O  O2  1  0.18715848  0.21267384  0.55410575  1
  O  O3  1  0.31284490  0.71267531  0.05410206  1
  O  O4  1  0.28730268  0.68198548  0.44094353  1
  O  O5  1  0.46090477  0.11104956  0.23465979  1
  O  O6  1  0.54422588  0.89520015  0.76489631  1
  O  O7  1  0.71718027  0.31322385  0.56080526  1
  O  O8  1  0.68913537  0.28386379  0.94575957  1
  O  O9  1  0.81085692  0.78387023  0.44575546  1
  O  O10  1  0.78282234  0.81323392  0.06079674  1
  O  O11  1  0.95577202  0.39520225  0.26489256  1
loop_
_geom_bond_atom_site_label_1
_geom_bond_atom_site_label_2
_geom_bond_distance
_geom_bond_site_symmetry_2
Ca0 O5 2.366577 1_555
Ca0 O3 2.394452 1_555
Ca0 O4 2.406201 1_555
Ca0 O11 2.434303 1_555
Ca0 O10 2.607600 1_555
Ca0 O9 2.649892 1_555
Ca0 O8 2.913987 1_554
Ca0 O7 2.917884 1_555
Ca1 O0 2.366577 1_645
Ca1 O2 2.394459 1_655
Ca1 O1 2.406179 1_655
Ca1 O6 2.434304 1_545
Ca1 O7 2.607483 1_555
Ca1 O8 2.649909 1_555
Ca1 O9 2.914001 1_545
Ca1 O10 2.917809 1_546
La0 O11 2.383308 1_465
La0 O9 2.407919 1_455
La0 O10 2.414308 1_455
La0 O5 2.489852 1_565
La0 O4 2.673392 1_555
La0 O3 2.689777 1_555
La0 O1 2.882693 1_564
La0 O2 2.902628 1_565
La1 O6 2.383240 1_555
La1 O8 2.407956 1_555
La1 O7 2.414234 1_555
La1 O0 2.489905 1_555
La1 O1 2.673461 1_555
La1 O2 2.689751 1_555
La1 O4 2.882559 1_555
La1 O3 2.902680 1_556
Fe0 O8 1.994321 1_564
Fe0 O3 1.995357 1_555
Fe0 O10 2.008086 1_555
Fe0 O5 2.020416 1_565
Fe0 O6 2.023251 1_554
Fe0 O1 2.035540 1_564
Fe1 O9 1.994378 1_555
Fe1 O2 1.995381 1_655
Fe1 O7 2.008120 1_555
Fe1 O0 2.020326 1_655
Fe1 O11 2.023293 1_555
Fe1 O4 2.035497 1_655
Bi0 O9 2.219880 1_545
Bi0 O7 2.228442 1_555
Bi0 O5 2.238394 1_555
Bi0 O4 2.243688 1_545
Bi0 O6 2.246877 1_545
Bi0 O2 2.249903 1_555
Bi1 O8 2.219965 1_555
Bi1 O10 2.228392 1_556
Bi1 O0 2.238446 1_655
Bi1 O1 2.243723 1_655
Bi1 O11 2.246885 1_556
Bi1 O3 2.249872 1_656
