# generated using pymatgen
data_K2NdN5O17
_symmetry_space_group_name_H-M   'P 1'
_cell_length_a   12.37905590
_cell_length_b   12.15060978
_cell_length_c   8.33997856
_cell_angle_alpha   71.60642799
_cell_angle_beta   68.65410782
_cell_angle_gamma   39.73946420
_symmetry_Int_Tables_number   1
_chemical_formula_structural   K2NdN5O17
_chemical_formula_sum   'K4 Nd2 N10 O34'
_cell_volume   745.60762910
_cell_formula_units_Z   2
loop_
 _symmetry_equiv_pos_site_id
 _symmetry_equiv_pos_as_xyz
  1  'x, y, z'
loop_
 _atom_site_type_symbol
 _atom_site_label
 _atom_site_symmetry_multiplicity
 _atom_site_fract_x
 _atom_site_fract_y
 _atom_site_fract_z
 _atom_site_occupancy
  K  K0  1  0.57417600  0.71985700  0.89274000  1
  K  K1  1  0.89274000  0.81322700  0.57417600  1
  K  K2  1  0.43677300  0.35726000  0.53014300  1
  K  K3  1  0.53014300  0.67582400  0.43677300  1
  Nd  Nd0  1  0.24729300  0.25270700  0.24729300  1
  Nd  Nd1  1  0.99729300  0.00270700  0.99729300  1
  N  N0  1  0.04281800  0.43892900  0.58350300  1
  N  N1  1  0.58350300  0.93475000  0.04281800  1
  N  N2  1  0.31525000  0.66649700  0.81107100  1
  N  N3  1  0.81107100  0.20718200  0.31525000  1
  N  N4  1  0.91242600  0.43607000  0.17313300  1
  N  N5  1  0.17313300  0.47837100  0.91242600  1
  N  N6  1  0.77162900  0.07686700  0.81393000  1
  N  N7  1  0.81393000  0.33757400  0.77162900  1
  N  N8  1  0.50373100  0.99626900  0.50373100  1
  N  N9  1  0.25373100  0.74626900  0.25373100  1
  O  O0  1  0.10931300  0.29219900  0.58013700  1
  O  O1  1  0.58013700  0.01835100  0.10931300  1
  O  O2  1  0.23164900  0.66986300  0.95780100  1
  O  O3  1  0.95780100  0.14068700  0.23164900  1
  O  O4  1  0.08841900  0.49296400  0.44615900  1
  O  O5  1  0.44615900  0.97245800  0.08841900  1
  O  O6  1  0.27754200  0.80384100  0.75703600  1
  O  O7  1  0.75703600  0.16158100  0.27754200  1
  O  O8  1  0.93862700  0.52876200  0.70933200  1
  O  O9  1  0.70933200  0.82327900  0.93862700  1
  O  O10  1  0.42672100  0.54066800  0.72123800  1
  O  O11  1  0.72123800  0.31137300  0.42672100  1
  O  O12  1  0.91062000  0.47007800  0.30487900  1
  O  O13  1  0.30487900  0.31442300  0.91062000  1
  O  O14  1  0.93557700  0.94512100  0.77992200  1
  O  O15  1  0.77992200  0.33938000  0.93557700  1
  O  O16  1  0.05988900  0.31447600  0.08316800  1
  O  O17  1  0.08316800  0.54246600  0.05988900  1
  O  O18  1  0.70753400  0.16683200  0.93552400  1
  O  O19  1  0.93552400  0.19011100  0.70753400  1
  O  O20  1  0.77593700  0.51840500  0.13518700  1
  O  O21  1  0.13518700  0.57047000  0.77593700  1
  O  O22  1  0.67953000  0.11481300  0.73159500  1
  O  O23  1  0.73159500  0.47406300  0.67953000  1
  O  O24  1  0.45353500  0.13781100  0.44699600  1
  O  O25  1  0.44699600  0.96165700  0.45353500  1
  O  O26  1  0.28834300  0.80300400  0.11218900  1
  O  O27  1  0.11218900  0.79646500  0.28834300  1
  O  O28  1  0.60559500  0.89440500  0.60559500  1
  O  O29  1  0.35559500  0.64440500  0.35559500  1
  O  O30  1  0.17816500  0.08639800  0.37472100  1
  O  O31  1  0.37472100  0.36071700  0.17816500  1
  O  O32  1  0.88928300  0.87527900  0.16360200  1
  O  O33  1  0.16360200  0.07183500  0.88928300  1
loop_
_geom_bond_atom_site_label_1
_geom_bond_atom_site_label_2
_geom_bond_distance
_geom_bond_site_symmetry_2
K0 O20 2.732940 1_556
K0 O23 2.785159 1_555
K0 O28 2.787395 1_555
K0 O26 2.800894 1_556
K0 O5 2.897056 1_556
K0 O9 2.920267 1_555
K0 O8 3.031881 1_555
K0 O15 3.081993 1_555
K0 O33 3.274608 1_565
K1 O21 2.732940 1_655
K1 O22 2.785168 1_565
K1 O28 2.787395 1_555
K1 O27 2.800899 1_655
K1 O4 2.897056 1_655
K1 O8 2.920267 1_555
K1 O9 3.031881 1_555
K1 O14 3.081993 1_555
K1 O32 3.274609 1_555
K2 O22 2.732946 1_555
K2 O21 2.785163 1_555
K2 O29 2.787395 1_555
K2 O24 2.800904 1_555
K2 O7 2.897056 1_555
K2 O11 2.920267 1_555
K2 O10 3.031881 1_555
K2 O13 3.081993 1_555
K2 O31 3.274601 1_555
K3 O23 2.732946 1_555
K3 O20 2.785165 1_555
K3 O29 2.787395 1_555
K3 O25 2.800892 1_555
K3 O6 2.897056 1_555
K3 O10 2.920267 1_555
K3 O11 3.031881 1_555
K3 O12 3.081993 1_555
K3 O30 3.274606 1_565
Nd0 O30 2.566565 1_555
Nd0 O31 2.566576 1_555
Nd0 O17 2.608521 1_555
Nd0 O16 2.608528 1_555
Nd0 O1 2.642310 1_555
Nd0 O0 2.642310 1_555
Nd0 O12 2.643987 1_455
Nd0 O13 2.643987 1_554
Nd0 O4 2.644240 1_555
Nd0 O5 2.644240 1_545
Nd0 O24 2.718058 1_555
Nd0 O25 2.718063 1_545
Nd1 O33 2.566564 1_655
Nd1 O32 2.566574 1_546
Nd1 O18 2.608517 1_555
Nd1 O19 2.608521 1_555
Nd1 O2 2.642310 1_645
Nd1 O3 2.642310 1_556
Nd1 O15 2.643987 1_555
Nd1 O14 2.643987 1_545
Nd1 O6 2.644240 1_645
Nd1 O7 2.644240 1_556
Nd1 O27 2.718065 1_646
Nd1 O26 2.718068 1_646
N0 O8 1.236380 1_455
N0 O0 1.270720 1_555
N0 O4 1.298627 1_555
N1 O9 1.236380 1_554
N1 O1 1.270720 1_565
N1 O5 1.298627 1_555
N2 O10 1.236380 1_555
N2 O2 1.270720 1_555
N2 O6 1.298627 1_555
N3 O11 1.236380 1_555
N3 O3 1.270720 1_555
N3 O7 1.298627 1_555
N4 O20 1.243243 1_555
N4 O16 1.277805 1_655
N4 O12 1.277873 1_555
N5 O21 1.243239 1_555
N5 O17 1.277802 1_556
N5 O13 1.277873 1_555
N6 O22 1.243232 1_555
N6 O18 1.277809 1_555
N6 O14 1.277873 1_545
N7 O23 1.243238 1_555
N7 O19 1.277802 1_555
N7 O15 1.277873 1_555
N8 O28 1.248895 1_555
N8 O24 1.274661 1_565
N8 O25 1.274671 1_555
N9 O29 1.248895 1_555
N9 O27 1.274660 1_555
N9 O26 1.274666 1_555
