# generated using pymatgen
data_Mg2Sn
_symmetry_space_group_name_H-M   'P 1'
_cell_length_a   12.08283553
_cell_length_b   12.08283553
_cell_length_c   15.59654736
_cell_angle_alpha   71.76120282
_cell_angle_beta   71.76120282
_cell_angle_gamma   31.99790016
_symmetry_Int_Tables_number   1
_chemical_formula_structural   Mg2Sn
_chemical_formula_sum   'Mg32 Sn16'
_cell_volume   1140.82009251
_cell_formula_units_Z   16
loop_
 _symmetry_equiv_pos_site_id
 _symmetry_equiv_pos_as_xyz
  1  'x, y, z'
loop_
 _atom_site_type_symbol
 _atom_site_label
 _atom_site_symmetry_multiplicity
 _atom_site_fract_x
 _atom_site_fract_y
 _atom_site_fract_z
 _atom_site_occupancy
  Mg  Mg0_0  1  0.06903850  0.06903850  0.48505350  1
  Mg  Mg0_1  1  0.06903850  0.06903850  0.98505350  1
  Mg  Mg0_2  1  0.06903850  0.56903850  0.48505350  1
  Mg  Mg0_3  1  0.06903850  0.56903850  0.98505350  1
  Mg  Mg0_4  1  0.56903850  0.06903850  0.48505350  1
  Mg  Mg0_5  1  0.56903850  0.06903850  0.98505350  1
  Mg  Mg0_6  1  0.56903850  0.56903850  0.48505350  1
  Mg  Mg0_7  1  0.56903850  0.56903850  0.98505350  1
  Mg  Mg1_0  1  0.26502500  0.26502500  0.34690950  1
  Mg  Mg1_1  1  0.26502500  0.26502500  0.84690950  1
  Mg  Mg1_2  1  0.26502500  0.76502500  0.34690950  1
  Mg  Mg1_3  1  0.26502500  0.76502500  0.84690950  1
  Mg  Mg1_4  1  0.76502500  0.26502500  0.34690950  1
  Mg  Mg1_5  1  0.76502500  0.26502500  0.84690950  1
  Mg  Mg1_6  1  0.76502500  0.76502500  0.34690950  1
  Mg  Mg1_7  1  0.76502500  0.76502500  0.84690950  1
  Mg  Mg2_0  1  0.23497500  0.23497500  0.15309050  1
  Mg  Mg2_1  1  0.23497500  0.23497500  0.65309050  1
  Mg  Mg2_2  1  0.23497500  0.73497500  0.15309050  1
  Mg  Mg2_3  1  0.23497500  0.73497500  0.65309050  1
  Mg  Mg2_4  1  0.73497500  0.23497500  0.15309050  1
  Mg  Mg2_5  1  0.73497500  0.23497500  0.65309050  1
  Mg  Mg2_6  1  0.73497500  0.73497500  0.15309050  1
  Mg  Mg2_7  1  0.73497500  0.73497500  0.65309050  1
  Mg  Mg3_0  1  0.43096150  0.43096150  0.01494650  1
  Mg  Mg3_1  1  0.43096150  0.43096150  0.51494650  1
  Mg  Mg3_2  1  0.43096150  0.93096150  0.01494650  1
  Mg  Mg3_3  1  0.43096150  0.93096150  0.51494650  1
  Mg  Mg3_4  1  0.93096150  0.43096150  0.01494650  1
  Mg  Mg3_5  1  0.93096150  0.43096150  0.51494650  1
  Mg  Mg3_6  1  0.93096150  0.93096150  0.01494650  1
  Mg  Mg3_7  1  0.93096150  0.93096150  0.51494650  1
  Sn  Sn0_0  1  0.40446200  0.40446200  0.32463500  1
  Sn  Sn0_1  1  0.40446200  0.40446200  0.82463500  1
  Sn  Sn0_2  1  0.40446200  0.90446200  0.32463500  1
  Sn  Sn0_3  1  0.40446200  0.90446200  0.82463500  1
  Sn  Sn0_4  1  0.90446200  0.40446200  0.32463500  1
  Sn  Sn0_5  1  0.90446200  0.40446200  0.82463500  1
  Sn  Sn0_6  1  0.90446200  0.90446200  0.32463500  1
  Sn  Sn0_7  1  0.90446200  0.90446200  0.82463500  1
  Sn  Sn1_0  1  0.09553800  0.09553800  0.17536500  1
  Sn  Sn1_1  1  0.09553800  0.09553800  0.67536500  1
  Sn  Sn1_2  1  0.09553800  0.59553800  0.17536500  1
  Sn  Sn1_3  1  0.09553800  0.59553800  0.67536500  1
  Sn  Sn1_4  1  0.59553800  0.09553800  0.17536500  1
  Sn  Sn1_5  1  0.59553800  0.09553800  0.67536500  1
  Sn  Sn1_6  1  0.59553800  0.59553800  0.17536500  1
  Sn  Sn1_7  1  0.59553800  0.59553800  0.67536500  1
loop_
_geom_bond_atom_site_label_1
_geom_bond_atom_site_label_2
_geom_bond_distance
_geom_bond_site_symmetry_2
Mg0_0 Mg3_7 3.087316 1_445
Mg0_0 Sn0_2 3.120456 1_545
Mg0_0 Sn0_4 3.120456 1_455
Mg0_0 Mg2_3 3.181500 1_545
Mg0_0 Mg2_5 3.181500 1_455
Mg0_0 Sn1_1 3.221639 1_555
Mg0_0 Mg3_3 3.246386 1_545
Mg0_0 Mg3_5 3.246386 1_455
Mg0_0 Mg1_4 3.278647 1_455
Mg0_0 Mg1_2 3.278647 1_545
Mg0_0 Mg0_6 3.330268 1_455
Mg0_0 Mg0_6 3.330268 1_545
Mg0_1 Mg3_6 3.087316 1_446
Mg0_1 Sn0_3 3.120456 1_545
Mg0_1 Sn0_5 3.120456 1_455
Mg0_1 Mg2_4 3.181500 1_456
Mg0_1 Mg2_2 3.181500 1_546
Mg0_1 Sn1_0 3.221639 1_556
Mg0_1 Mg3_2 3.246386 1_546
Mg0_1 Mg3_4 3.246386 1_456
Mg0_1 Mg1_5 3.278647 1_455
Mg0_1 Mg1_3 3.278647 1_545
Mg0_1 Mg0_7 3.330268 1_455
Mg0_1 Mg0_7 3.330268 1_545
Mg0_2 Mg3_5 3.087316 1_455
Mg0_2 Sn0_6 3.120456 1_455
Mg0_2 Sn0_0 3.120456 1_555
Mg0_2 Mg2_1 3.181500 1_555
Mg0_2 Mg2_7 3.181500 1_455
Mg0_2 Sn1_3 3.221639 1_555
Mg0_2 Mg3_1 3.246386 1_555
Mg0_2 Mg3_7 3.246386 1_455
Mg0_2 Mg1_0 3.278647 1_555
Mg0_2 Mg1_6 3.278647 1_455
Mg0_2 Mg0_4 3.330268 1_465
Mg0_2 Mg0_4 3.330268 1_555
Mg0_3 Mg3_4 3.087316 1_456
Mg0_3 Sn0_7 3.120456 1_455
Mg0_3 Sn0_1 3.120456 1_555
Mg0_3 Mg2_0 3.181500 1_556
Mg0_3 Mg2_6 3.181500 1_456
Mg0_3 Sn1_2 3.221639 1_556
Mg0_3 Mg3_0 3.246386 1_556
Mg0_3 Mg3_6 3.246386 1_456
Mg0_3 Mg1_7 3.278647 1_455
Mg0_3 Mg1_1 3.278647 1_555
Mg0_3 Mg0_5 3.330268 1_555
Mg0_3 Mg0_5 3.330268 1_465
Mg0_4 Mg3_3 3.087316 1_545
Mg0_4 Sn0_6 3.120456 1_545
Mg0_4 Sn0_0 3.120456 1_555
Mg0_4 Mg2_1 3.181500 1_555
Mg0_4 Mg2_7 3.181500 1_545
Mg0_4 Sn1_5 3.221639 1_555
Mg0_4 Mg3_1 3.246386 1_555
Mg0_4 Mg3_7 3.246386 1_545
Mg0_4 Mg1_0 3.278647 1_555
Mg0_4 Mg1_6 3.278647 1_545
Mg0_5 Mg3_2 3.087316 1_546
Mg0_5 Sn0_1 3.120456 1_555
Mg0_5 Sn0_7 3.120456 1_545
Mg0_5 Mg2_0 3.181500 1_556
Mg0_5 Mg2_6 3.181500 1_546
Mg0_5 Sn1_4 3.221639 1_556
Mg0_5 Mg3_0 3.246386 1_556
Mg0_5 Mg3_6 3.246386 1_546
Mg0_5 Mg1_7 3.278647 1_545
Mg0_5 Mg1_1 3.278647 1_555
Mg0_6 Mg3_1 3.087316 1_555
Mg0_6 Sn0_2 3.120456 1_555
Mg0_6 Sn0_4 3.120456 1_555
Mg0_6 Mg2_5 3.181500 1_555
Mg0_6 Mg2_3 3.181500 1_555
Mg0_6 Sn1_7 3.221639 1_555
Mg0_6 Mg3_3 3.246386 1_555
Mg0_6 Mg3_5 3.246386 1_555
Mg0_6 Mg1_4 3.278647 1_555
Mg0_6 Mg1_2 3.278647 1_555
Mg0_7 Mg3_0 3.087316 1_556
Mg0_7 Sn0_5 3.120456 1_555
Mg0_7 Sn0_3 3.120456 1_555
Mg0_7 Mg2_4 3.181500 1_556
Mg0_7 Mg2_2 3.181500 1_556
Mg0_7 Sn1_6 3.221639 1_556
Mg0_7 Mg3_2 3.246386 1_556
Mg0_7 Mg3_4 3.246386 1_556
Mg0_7 Mg1_5 3.278647 1_555
Mg0_7 Mg1_3 3.278647 1_555
Mg1_0 Sn0_0 3.143173 1_555
Mg1_0 Sn0_4 3.173445 1_455
Mg1_0 Sn0_2 3.173445 1_545
Mg1_0 Mg3_5 3.181500 1_455
Mg1_0 Mg3_3 3.181500 1_545
Mg1_0 Sn1_2 3.189121 1_555
Mg1_0 Sn1_4 3.189121 1_555
Mg1_1 Sn0_1 3.143173 1_555
Mg1_1 Sn0_5 3.173445 1_455
Mg1_1 Sn0_3 3.173445 1_545
Mg1_1 Mg3_4 3.181500 1_456
Mg1_1 Mg3_2 3.181500 1_546
Mg1_1 Sn1_5 3.189121 1_555
Mg1_1 Sn1_3 3.189121 1_555
Mg1_2 Sn0_2 3.143173 1_555
Mg1_2 Sn0_0 3.173445 1_555
Mg1_2 Sn0_6 3.173445 1_455
Mg1_2 Mg3_7 3.181500 1_455
Mg1_2 Mg3_1 3.181500 1_555
Mg1_2 Sn1_6 3.189121 1_555
Mg1_2 Sn1_0 3.189121 1_565
Mg1_3 Sn0_3 3.143173 1_555
Mg1_3 Sn0_1 3.173445 1_555
Mg1_3 Sn0_7 3.173445 1_455
Mg1_3 Mg3_6 3.181500 1_456
Mg1_3 Mg3_0 3.181500 1_556
Mg1_3 Sn1_1 3.189121 1_565
Mg1_3 Sn1_7 3.189121 1_555
Mg1_4 Sn0_4 3.143173 1_555
Mg1_4 Sn0_0 3.173445 1_555
Mg1_4 Sn0_6 3.173445 1_545
Mg1_4 Mg3_7 3.181500 1_545
Mg1_4 Mg3_1 3.181500 1_555
Mg1_4 Sn1_0 3.189121 1_655
Mg1_4 Sn1_6 3.189121 1_555
Mg1_5 Sn0_5 3.143173 1_555
Mg1_5 Sn0_1 3.173445 1_555
Mg1_5 Sn0_7 3.173445 1_545
Mg1_5 Mg3_6 3.181500 1_546
Mg1_5 Mg3_0 3.181500 1_556
Mg1_5 Sn1_1 3.189121 1_655
Mg1_5 Sn1_7 3.189121 1_555
Mg1_6 Sn0_6 3.143173 1_555
Mg1_6 Sn0_4 3.173445 1_555
Mg1_6 Sn0_2 3.173445 1_555
Mg1_6 Mg3_5 3.181500 1_555
Mg1_6 Mg3_3 3.181500 1_555
Mg1_6 Sn1_2 3.189121 1_655
Mg1_6 Sn1_4 3.189121 1_565
Mg1_7 Sn0_7 3.143173 1_555
Mg1_7 Sn0_5 3.173445 1_555
Mg1_7 Sn0_3 3.173445 1_555
Mg1_7 Mg3_4 3.181500 1_556
Mg1_7 Mg3_2 3.181500 1_556
Mg1_7 Sn1_3 3.189121 1_655
Mg1_7 Sn1_5 3.189121 1_565
Mg2_0 Sn1_0 3.143173 1_555
Mg2_0 Sn1_2 3.173445 1_555
Mg2_0 Sn1_4 3.173445 1_555
Mg2_0 Sn0_4 3.189121 1_455
Mg2_0 Sn0_2 3.189121 1_545
Mg2_0 Mg3_4 3.278647 1_455
Mg2_0 Mg3_2 3.278647 1_545
Mg2_1 Sn1_1 3.143173 1_555
Mg2_1 Sn1_3 3.173445 1_555
Mg2_1 Sn1_5 3.173445 1_555
Mg2_1 Sn0_3 3.189121 1_545
Mg2_1 Sn0_5 3.189121 1_455
Mg2_1 Mg3_5 3.278647 1_455
Mg2_1 Mg3_3 3.278647 1_545
Mg2_2 Sn1_2 3.143173 1_555
Mg2_2 Sn1_6 3.173445 1_555
Mg2_2 Sn1_0 3.173445 1_565
Mg2_2 Sn0_0 3.189121 1_555
Mg2_2 Sn0_6 3.189121 1_455
Mg2_2 Mg3_6 3.278647 1_455
Mg2_2 Mg3_0 3.278647 1_555
Mg2_3 Sn1_3 3.143173 1_555
Mg2_3 Sn1_1 3.173445 1_565
Mg2_3 Sn1_7 3.173445 1_555
Mg2_3 Sn0_1 3.189121 1_555
Mg2_3 Sn0_7 3.189121 1_455
Mg2_3 Mg3_7 3.278647 1_455
Mg2_3 Mg3_1 3.278647 1_555
Mg2_4 Sn1_4 3.143173 1_555
Mg2_4 Sn1_6 3.173445 1_555
Mg2_4 Sn1_0 3.173445 1_655
Mg2_4 Sn0_0 3.189121 1_555
Mg2_4 Sn0_6 3.189121 1_545
Mg2_4 Mg3_6 3.278647 1_545
Mg2_4 Mg3_0 3.278647 1_555
Mg2_5 Sn1_5 3.143173 1_555
Mg2_5 Sn1_1 3.173445 1_655
Mg2_5 Sn1_7 3.173445 1_555
Mg2_5 Sn0_1 3.189121 1_555
Mg2_5 Sn0_7 3.189121 1_545
Mg2_5 Mg3_7 3.278647 1_545
Mg2_5 Mg3_1 3.278647 1_555
Mg2_6 Sn1_6 3.143173 1_555
Mg2_6 Sn1_2 3.173445 1_655
Mg2_6 Sn1_4 3.173445 1_565
Mg2_6 Sn0_4 3.189121 1_555
Mg2_6 Sn0_2 3.189121 1_555
Mg2_6 Mg3_4 3.278647 1_555
Mg2_6 Mg3_2 3.278647 1_555
Mg2_7 Sn1_7 3.143173 1_555
Mg2_7 Sn1_5 3.173445 1_565
Mg2_7 Sn1_3 3.173445 1_655
Mg2_7 Sn0_3 3.189121 1_555
Mg2_7 Sn0_5 3.189121 1_555
Mg2_7 Mg3_5 3.278647 1_555
Mg2_7 Mg3_3 3.278647 1_555
Mg3_0 Sn1_4 3.120456 1_555
Mg3_0 Sn1_2 3.120456 1_555
Mg3_0 Sn0_1 3.221639 1_554
Mg3_0 Mg3_6 3.330268 1_455
Mg3_0 Mg3_6 3.330268 1_545
Mg3_1 Sn1_5 3.120456 1_555
Mg3_1 Sn1_3 3.120456 1_555
Mg3_1 Sn0_0 3.221639 1_555
Mg3_1 Mg3_7 3.330268 1_455
Mg3_1 Mg3_7 3.330268 1_545
Mg3_2 Sn1_6 3.120456 1_555
Mg3_2 Sn1_0 3.120456 1_565
Mg3_2 Sn0_3 3.221639 1_554
Mg3_2 Mg3_4 3.330268 1_555
Mg3_2 Mg3_4 3.330268 1_465
Mg3_3 Sn1_7 3.120456 1_555
Mg3_3 Sn1_1 3.120456 1_565
Mg3_3 Sn0_2 3.221639 1_555
Mg3_3 Mg3_5 3.330268 1_555
Mg3_3 Mg3_5 3.330268 1_465
Mg3_4 Sn1_6 3.120456 1_555
Mg3_4 Sn1_0 3.120456 1_655
Mg3_4 Sn0_5 3.221639 1_554
Mg3_5 Sn1_7 3.120456 1_555
Mg3_5 Sn1_1 3.120456 1_655
Mg3_5 Sn0_4 3.221639 1_555
Mg3_6 Sn1_4 3.120456 1_565
Mg3_6 Sn1_2 3.120456 1_655
Mg3_6 Sn0_7 3.221639 1_554
Mg3_7 Sn1_3 3.120456 1_655
Mg3_7 Sn1_5 3.120456 1_565
Mg3_7 Sn0_6 3.221639 1_555
