# generated using pymatgen
data_YWBrO4
_symmetry_space_group_name_H-M   'P 1'
_cell_length_a   7.03587900
_cell_length_b   7.34871046
_cell_length_c   11.07794689
_cell_angle_alpha   103.77082340
_cell_angle_beta   107.98850478
_cell_angle_gamma   94.28925751
_symmetry_Int_Tables_number   1
_chemical_formula_structural   YWBrO4
_chemical_formula_sum   'Y4 W4 Br4 O16'
_cell_volume   522.26021207
_cell_formula_units_Z   4
loop_
 _symmetry_equiv_pos_site_id
 _symmetry_equiv_pos_as_xyz
  1  'x, y, z'
loop_
 _atom_site_type_symbol
 _atom_site_label
 _atom_site_symmetry_multiplicity
 _atom_site_fract_x
 _atom_site_fract_y
 _atom_site_fract_z
 _atom_site_occupancy
  Y  Y0  1  0.66013800  0.11032900  0.73078300  1
  Y  Y1  1  0.33986200  0.88967100  0.26921700  1
  Y  Y2  1  0.37999800  0.66006200  0.76759500  1
  Y  Y3  1  0.62000200  0.33993800  0.23240500  1
  W  W0  1  0.72817000  0.81459800  0.13347500  1
  W  W1  1  0.27183000  0.18540200  0.86652500  1
  W  W2  1  0.76851500  0.58857100  0.62608600  1
  W  W3  1  0.23148500  0.41142900  0.37391400  1
  Br  Br0  1  0.26402200  0.00519900  0.51982300  1
  Br  Br1  1  0.73597800  0.99480100  0.48017700  1
  Br  Br2  1  0.19037100  0.72062300  0.98198600  1
  Br  Br3  1  0.80962900  0.27937700  0.01801400  1
  O  O0  1  0.65647200  0.73031600  0.95659800  1
  O  O1  1  0.34352800  0.26968400  0.04340200  1
  O  O2  1  0.99922100  0.87838000  0.20518800  1
  O  O3  1  0.00077900  0.12162000  0.79481200  1
  O  O4  1  0.63666400  0.63491100  0.19920400  1
  O  O5  1  0.36333600  0.36508900  0.80079600  1
  O  O6  1  0.40225200  0.98627400  0.81629700  1
  O  O7  1  0.59774800  0.01372600  0.18370300  1
  O  O8  1  0.03773300  0.65005300  0.66965100  1
  O  O9  1  0.96226700  0.34994700  0.33034900  1
  O  O10  1  0.72192700  0.40096500  0.69837200  1
  O  O11  1  0.27807300  0.59903500  0.30162800  1
  O  O12  1  0.66543700  0.50216400  0.44714200  1
  O  O13  1  0.33456300  0.49783600  0.55285800  1
  O  O14  1  0.65489300  0.78617500  0.70263200  1
  O  O15  1  0.34510700  0.21382500  0.29736800  1
loop_
_geom_bond_atom_site_label_1
_geom_bond_atom_site_label_2
_geom_bond_distance
_geom_bond_site_symmetry_2
Br0 Y1 2.928044 1_545
Br0 Y0 2.936217 1_555
Br1 Y0 2.928044 1_565
Br1 Y1 2.936217 1_555
Br2 Y1 2.937649 1_556
Br2 Y2 3.026813 1_555
Br3 Y0 2.937649 1_554
Br3 Y3 3.026813 1_555
O0 W0 1.800679 1_556
O0 Y2 2.292134 1_555
O1 W1 1.800679 1_554
O1 Y3 2.292134 1_555
O2 W0 1.800284 1_555
O2 Y1 2.268576 1_655
O3 W1 1.800284 1_555
O3 Y0 2.268576 1_455
O4 W0 1.818919 1_555
O4 Y3 2.283856 1_555
O4 Y1 3.059620 1_555
O5 W1 1.818919 1_555
O5 Y2 2.283856 1_555
O5 Y0 3.059620 1_555
O6 W1 1.849756 1_565
O6 Y2 2.310473 1_555
O6 Y0 2.499227 1_565
O7 W0 1.849756 1_545
O7 Y3 2.310473 1_555
O7 Y1 2.499227 1_545
O8 W2 1.796812 1_455
O8 Y2 2.302923 1_555
O9 W3 1.796812 1_655
O9 Y3 2.302923 1_555
O10 W2 1.808182 1_555
O10 Y0 2.280824 1_555
O11 W3 1.808182 1_555
O11 Y1 2.280824 1_555
O12 W2 1.817331 1_555
O12 Y3 2.303364 1_555
O13 W3 1.817331 1_555
O13 Y2 2.303364 1_555
O14 W2 1.863589 1_555
O14 Y0 2.323609 1_565
O14 Y2 2.454947 1_555
O15 W3 1.863589 1_555
O15 Y1 2.323609 1_545
O15 Y3 2.454947 1_555
