# generated using pymatgen
data_Mg5Si9
_symmetry_space_group_name_H-M   'P 1'
_cell_length_a   5.78516800
_cell_length_b   7.20712876
_cell_length_c   13.12115101
_cell_angle_alpha   100.92872730
_cell_angle_beta   87.08597631
_cell_angle_gamma   111.22556738
_symmetry_Int_Tables_number   1
_chemical_formula_structural   Mg5Si9
_chemical_formula_sum   'Mg10 Si18'
_cell_volume   500.62303088
_cell_formula_units_Z   2
loop_
 _symmetry_equiv_pos_site_id
 _symmetry_equiv_pos_as_xyz
  1  'x, y, z'
loop_
 _atom_site_type_symbol
 _atom_site_label
 _atom_site_symmetry_multiplicity
 _atom_site_fract_x
 _atom_site_fract_y
 _atom_site_fract_z
 _atom_site_occupancy
  Mg  Mg0  1  0.00582000  0.71806200  0.29971000  1
  Mg  Mg1  1  0.09045800  0.27362300  0.56420800  1
  Mg  Mg2  1  0.50351000  0.56673400  0.46140600  1
  Mg  Mg3  1  0.58651900  0.28958600  0.59217200  1
  Mg  Mg4  1  0.70948600  0.99272800  0.39287500  1
  Mg  Mg5  1  0.13325200  0.84214700  0.55337600  1
  Mg  Mg6  1  0.99853500  0.68116900  0.93414900  1
  Mg  Mg7  1  0.09276400  0.42823300  0.10402000  1
  Mg  Mg8  1  0.42011400  0.94845100  0.81990200  1
  Mg  Mg9  1  0.35716200  0.12196800  0.06488000  1
  Si  Si0  1  0.37255700  0.37826800  0.92938000  1
  Si  Si1  1  0.70818200  0.56585500  0.11636600  1
  Si  Si2  1  0.88426800  0.88839400  0.76188500  1
  Si  Si3  1  0.12647400  0.29036700  0.28958000  1
  Si  Si4  1  0.44769200  0.62376900  0.67844100  1
  Si  Si5  1  0.65302700  0.27699900  0.26236500  1
  Si  Si6  1  0.85101900  0.26912300  0.75885400  1
  Si  Si7  1  0.43232600  0.88207400  0.18414000  1
  Si  Si8  1  0.02126300  0.60480900  0.71553100  1
  Si  Si9  1  0.91690500  0.44552600  0.43463900  1
  Si  Si10  1  0.89400000  0.97722600  0.15931000  1
  Si  Si11  1  0.87186100  0.02040400  0.96810500  1
  Si  Si12  1  0.24269200  0.22355400  0.75272300  1
  Si  Si13  1  0.46905900  0.61003900  0.26574500  1
  Si  Si14  1  0.74143800  0.29633700  0.93999300  1
  Si  Si15  1  0.49532000  0.73775700  0.99857200  1
  Si  Si16  1  0.29513100  0.10969900  0.39046300  1
  Si  Si17  1  0.67908400  0.93707900  0.60740200  1
loop_
_geom_bond_atom_site_label_1
_geom_bond_atom_site_label_2
_geom_bond_distance
_geom_bond_site_symmetry_2
Mg0 Si16 2.773759 1_565
Mg0 Si9 2.784148 1_455
Mg0 Si7 2.823515 1_555
Mg0 Si1 2.829912 1_455
Mg0 Si13 2.950588 1_455
Mg0 Si13 3.040463 1_555
Mg0 Si5 3.053484 1_455
Mg0 Si10 3.098674 1_455
Mg0 Mg4 3.111040 1_455
Mg1 Si9 2.703008 1_455
Mg1 Si16 2.777079 1_555
Mg1 Si12 2.795402 1_555
Mg1 Si4 2.826730 1_555
Mg1 Si17 2.841218 1_445
Mg1 Si6 2.842852 1_455
Mg1 Si8 2.934944 1_555
Mg1 Mg4 3.091470 1_445
Mg2 Si13 2.670025 1_555
Mg2 Si9 2.813719 1_555
Mg2 Si4 2.818097 1_555
Mg2 Si17 2.849844 1_555
Mg2 Si16 3.040701 1_555
Mg2 Si3 3.075626 1_555
Mg2 Mg4 3.153319 1_555
Mg2 Si9 3.203332 1_455
Mg3 Si6 2.787901 1_555
Mg3 Si12 2.808822 1_555
Mg3 Si17 2.823056 1_545
Mg3 Si4 2.828721 1_555
Mg3 Si9 2.848266 1_555
Mg3 Si8 2.998178 1_655
Mg3 Si16 3.016185 1_555
Mg3 Mg4 3.273112 1_545
Mg4 Si16 2.817608 1_565
Mg4 Si13 2.835114 1_555
Mg4 Si17 2.905474 1_555
Mg4 Si9 2.990508 1_565
Mg4 Si5 3.018003 1_565
Mg4 Si3 3.046466 1_665
Mg4 Si7 3.066043 1_555
Mg4 Si16 3.181460 1_665
Mg4 Si10 3.188708 1_555
Mg5 Si9 2.843213 1_455
Mg5 Si8 2.882702 1_555
Mg5 Si17 2.966889 1_455
Mg5 Si16 3.035865 1_565
Mg5 Si2 3.045013 1_455
Mg5 Si17 3.069400 1_555
Mg6 Si14 2.644359 1_555
Mg6 Si11 2.750316 1_565
Mg6 Si8 2.822060 1_655
Mg6 Si15 2.899696 1_655
Mg6 Si1 2.926242 1_556
Mg6 Mg8 3.037689 1_655
Mg6 Si15 3.136021 1_555
Mg6 Si2 3.150125 1_555
Mg7 Si1 2.731370 1_455
Mg7 Si0 2.780759 1_554
Mg7 Si14 2.817216 1_454
Mg7 Si3 2.838884 1_555
Mg7 Si13 2.882512 1_555
Mg7 Si11 2.996201 1_454
Mg7 Si15 3.065172 1_554
Mg7 Si7 3.149043 1_555
Mg7 Si5 3.207795 1_455
Mg8 Si4 2.745852 1_555
Mg8 Si14 2.765835 1_565
Mg8 Si12 2.826633 1_565
Mg8 Si8 2.868944 1_555
Mg8 Si2 2.913073 1_555
Mg8 Si6 2.919682 1_565
Mg8 Si2 3.085456 1_455
Mg8 Si17 3.098890 1_555
Mg8 Si15 3.150087 1_555
Mg8 Si11 3.167558 1_565
Mg8 Si0 3.259578 1_565
Mg8 Mg9 3.273439 1_566
Mg9 Si7 2.695634 1_545
Mg9 Si14 2.755760 1_554
Mg9 Si0 2.773276 1_554
Mg9 Si10 2.816308 1_445
Mg9 Si11 2.924467 1_454
Mg9 Si5 2.976733 1_555
Mg9 Si1 3.070945 1_555
Mg9 Si15 3.111562 1_544
Si0 Si12 2.402308 1_555
Si0 Si15 2.425411 1_555
Si0 Si14 2.428171 1_555
Si1 Si13 2.379796 1_555
Si1 Si10 2.717272 1_555
Si1 Si15 2.732127 1_554
Si1 Si14 2.772466 1_554
Si2 Si8 2.414088 1_655
Si2 Si4 2.686385 1_555
Si2 Si6 2.827055 1_565
Si3 Si9 2.506611 1_455
Si3 Si5 2.744828 1_455
Si4 Si8 2.449587 1_555
Si5 Si9 2.623450 1_555
Si5 Si7 2.679386 1_545
Si6 Si8 2.426011 1_655
Si10 Si7 2.525855 1_555
Si10 Si3 2.529242 1_665
Si10 Si11 2.600967 1_564
Si11 Si14 2.460315 1_555
Si11 Si15 2.462083 1_545
Si11 Si2 2.699165 1_545
Si12 Si6 2.399770 1_455
Si12 Si2 2.570391 1_445
Si13 Si7 2.481211 1_555
Si13 Si3 2.497546 1_555
Si14 Si6 2.418550 1_555
Si15 Si7 2.523327 1_556
Si16 Si3 2.470715 1_555
Si16 Si5 2.678203 1_555
Si17 Si4 2.498431 1_555
Si17 Si2 2.541014 1_555
Si17 Si6 2.709151 1_565
