# generated using pymatgen
data_Na3Pd
_symmetry_space_group_name_H-M   'P 1'
_cell_length_a   5.05616004
_cell_length_b   5.05616004
_cell_length_c   5.05616004
_cell_angle_alpha   60.00000000
_cell_angle_beta   60.00000000
_cell_angle_gamma   60.00000000
_symmetry_Int_Tables_number   1
_chemical_formula_structural   Na3Pd
_chemical_formula_sum   'Na3 Pd1'
_cell_volume   91.40026139
_cell_formula_units_Z   1
loop_
 _symmetry_equiv_pos_site_id
 _symmetry_equiv_pos_as_xyz
  1  'x, y, z'
loop_
 _atom_site_type_symbol
 _atom_site_label
 _atom_site_symmetry_multiplicity
 _atom_site_fract_x
 _atom_site_fract_y
 _atom_site_fract_z
 _atom_site_occupancy
  Na  Na0  1  -0.00000000  0.00000000  0.00000000  1
  Na  Na1  1  0.50000000  0.50000000  0.50000000  1
  Na  Na2  1  0.25000100  0.25000100  0.25000100  1
  Pd  Pd0  1  0.75000000  0.75000000  0.75000000  1
loop_
_geom_bond_atom_site_label_1
_geom_bond_atom_site_label_2
_geom_bond_distance
_geom_bond_site_symmetry_2
Na0 Na2 3.096249 1_455
Na0 Na2 3.096249 1_554
Na0 Na2 3.096249 1_545
Na0 Pd0 3.096253 1_444
Na0 Pd0 3.096253 1_454
Na0 Pd0 3.096253 1_445
Na0 Pd0 3.096253 1_544
Na0 Na2 3.096265 1_555
Na1 Na2 3.096241 1_555
Na1 Pd0 3.096253 1_455
Na1 Pd0 3.096253 1_555
Na1 Pd0 3.096253 1_545
Na1 Pd0 3.096253 1_554
Na1 Na2 3.096257 1_655
Na1 Na2 3.096257 1_565
Na1 Na2 3.096257 1_556
Na2 Pd0 3.575238 1_545
Na2 Pd0 3.575238 1_554
Na2 Pd0 3.575238 1_455
Na2 Pd0 3.575252 1_544
Na2 Pd0 3.575252 1_454
Na2 Pd0 3.575252 1_445
