# generated using pymatgen
data_LuAlAu
_symmetry_space_group_name_H-M   'P 1'
_cell_length_a   7.09261601
_cell_length_b   7.09261462
_cell_length_c   4.07113303
_cell_angle_alpha   90.00000000
_cell_angle_beta   90.00000000
_cell_angle_gamma   119.99999988
_symmetry_Int_Tables_number   1
_chemical_formula_structural   LuAlAu
_chemical_formula_sum   'Lu3 Al3 Au3'
_cell_volume   177.36124849
_cell_formula_units_Z   3
loop_
 _symmetry_equiv_pos_site_id
 _symmetry_equiv_pos_as_xyz
  1  'x, y, z'
loop_
 _atom_site_type_symbol
 _atom_site_label
 _atom_site_symmetry_multiplicity
 _atom_site_fract_x
 _atom_site_fract_y
 _atom_site_fract_z
 _atom_site_occupancy
  Lu  Lu0  1  0.41458892  0.41458892  0.50000000  1
  Lu  Lu1  1  0.58541108  -0.00000000  0.50000000  1
  Lu  Lu2  1  0.00000000  0.58541108  0.50000000  1
  Al  Al0  1  0.75882990  0.75882990  -0.00000000  1
  Al  Al1  1  0.24117010  -0.00000000  0.00000000  1
  Al  Al2  1  0.00000000  0.24117010  0.00000000  1
  Au  Au0  1  0.66666700  0.33333300  -0.00000000  1
  Au  Au1  1  0.33333300  0.66666700  -0.00000000  1
  Au  Au2  1  -0.00000000  0.00000000  0.50000000  1
loop_
_geom_bond_atom_site_label_1
_geom_bond_atom_site_label_2
_geom_bond_distance
_geom_bond_site_symmetry_2
Al0 Au2 2.658840 1_664
Al0 Au2 2.658840 1_665
Al0 Au0 2.749947 1_555
Al0 Au1 2.749947 1_555
Al0 Al2 2.962719 1_665
Al0 Al1 2.962720 1_665
Al0 Lu0 3.178803 1_555
Al0 Lu0 3.178803 1_554
Al0 Lu1 3.268983 1_565
Al0 Lu1 3.268983 1_564
Al0 Lu2 3.268983 1_654
Al0 Lu2 3.268983 1_655
Al1 Au2 2.658841 1_554
Al1 Au2 2.658841 1_555
Al1 Au1 2.749940 1_545
Al1 Au0 2.749945 1_555
Al1 Al2 2.962719 1_555
Al1 Lu1 3.178803 1_554
Al1 Lu1 3.178803 1_555
Al1 Lu0 3.268983 1_554
Al1 Lu0 3.268983 1_555
Al1 Lu2 3.268983 1_545
Al1 Lu2 3.268983 1_544
Al2 Au2 2.658840 1_554
Al2 Au2 2.658840 1_555
Al2 Au0 2.749940 1_455
Al2 Au1 2.749945 1_555
Al2 Lu2 3.178803 1_555
Al2 Lu2 3.178803 1_554
Al2 Lu1 3.268983 1_455
Al2 Lu1 3.268983 1_454
Al2 Lu0 3.268983 1_554
Al2 Lu0 3.268983 1_555
Au0 Lu1 2.950016 1_554
Au0 Lu1 2.950016 1_555
Au0 Lu2 2.950018 1_655
Au0 Lu2 2.950018 1_654
Au0 Lu0 2.950021 1_554
Au0 Lu0 2.950021 1_555
Au1 Lu2 2.950017 1_555
Au1 Lu2 2.950017 1_554
Au1 Lu1 2.950018 1_565
Au1 Lu1 2.950018 1_564
Au1 Lu0 2.950021 1_555
Au1 Lu0 2.950021 1_554
Au2 Lu2 2.940519 1_545
Au2 Lu0 2.940520 1_555
Au2 Lu1 2.940520 1_455
