# generated using pymatgen
data_BaCaTbSnO6
_symmetry_space_group_name_H-M   'P 1'
_cell_length_a   5.95270154
_cell_length_b   6.03348028
_cell_length_c   8.46873686
_cell_angle_alpha   90.29739869
_cell_angle_beta   89.61208940
_cell_angle_gamma   90.05190515
_symmetry_Int_Tables_number   1
_chemical_formula_structural   BaCaTbSnO6
_chemical_formula_sum   'Ba2 Ca2 Tb2 Sn2 O12'
_cell_volume   304.14779747
_cell_formula_units_Z   2
loop_
 _symmetry_equiv_pos_site_id
 _symmetry_equiv_pos_as_xyz
  1  'x, y, z'
loop_
 _atom_site_type_symbol
 _atom_site_label
 _atom_site_symmetry_multiplicity
 _atom_site_fract_x
 _atom_site_fract_y
 _atom_site_fract_z
 _atom_site_occupancy
  Ba  Ba0  1  0.99409542  0.03202958  0.25045618  1
  Ba  Ba1  1  0.00590458  0.96797042  0.74954382  1
  Ca  Ca0  1  0.50985848  0.53946242  0.25405574  1
  Ca  Ca1  1  0.49014152  0.46053758  0.74594426  1
  Tb  Tb0  1  0.50000000  0.00000000  -0.00000000  1
  Tb  Tb1  1  0.00000000  0.50000000  0.50000000  1
  Sn  Sn0  1  0.00000000  0.50000000  -0.00000000  1
  Sn  Sn1  1  0.50000000  0.00000000  0.50000000  1
  O  O0  1  0.20463297  0.22665014  0.96342258  1
  O  O1  1  0.30861074  0.71355488  0.55721890  1
  O  O2  1  0.79536703  0.77334986  0.03657742  1
  O  O3  1  0.69138926  0.28644512  0.44278110  1
  O  O4  1  0.28224399  0.69636958  0.93912702  1
  O  O5  1  0.22280021  0.20545597  0.52943767  1
  O  O6  1  0.71775601  0.30363042  0.06087298  1
  O  O7  1  0.77719979  0.79454403  0.47056233  1
  O  O8  1  0.43614735  0.93610512  0.26046505  1
  O  O9  1  0.10826139  0.49745983  0.23819040  1
  O  O10  1  0.56385265  0.06389488  0.73953495  1
  O  O11  1  0.89173861  0.50254017  0.76180960  1
loop_
_geom_bond_atom_site_label_1
_geom_bond_atom_site_label_2
_geom_bond_distance
_geom_bond_site_symmetry_2
Ba0 O2 2.666907 1_545
Ba0 O7 2.680754 1_545
Ba0 O8 2.696798 1_645
Ba0 O6 2.834948 1_555
Ba0 O3 2.862746 1_555
Ba0 O9 2.890855 1_655
Ba0 O5 2.923287 1_655
Ba0 O0 2.973899 1_654
Ba1 O0 2.666907 1_565
Ba1 O5 2.680754 1_565
Ba1 O10 2.696798 1_465
Ba1 O4 2.834948 1_555
Ba1 O1 2.862746 1_555
Ba1 O11 2.890855 1_455
Ba1 O7 2.923287 1_455
Ba1 O2 2.973899 1_456
Ca0 O9 2.408336 1_555
Ca0 O8 2.433681 1_555
Ca0 O3 2.470684 1_555
Ca0 O6 2.486824 1_555
Ca0 O2 2.872660 1_555
Ca0 O7 2.875555 1_555
Ca0 O1 3.010425 1_555
Ca1 O11 2.408336 1_555
Ca1 O10 2.433681 1_555
Ca1 O1 2.470684 1_555
Ca1 O4 2.486824 1_555
Ca1 O0 2.872660 1_555
Ca1 O5 2.875555 1_555
Ca1 O3 3.010425 1_555
O0 Sn0 2.071961 1_556
O0 Tb0 2.252440 1_556
O1 Sn1 2.125397 1_565
O1 Tb1 2.295885 1_555
O2 Sn0 2.071961 1_655
O2 Tb0 2.252440 1_565
O3 Sn1 2.125397 1_555
O3 Tb1 2.295885 1_655
O4 Sn0 2.117376 1_556
O4 Tb0 2.301513 1_566
O5 Sn1 2.077622 1_555
O5 Tb1 2.234423 1_555
O6 Sn0 2.117376 1_655
O6 Tb0 2.301513 1_555
O7 Sn1 2.077622 1_565
O7 Tb1 2.234423 1_655
O8 Sn1 2.100047 1_565
O8 Tb0 2.270660 1_565
O9 Sn0 2.121903 1_555
O9 Tb1 2.304740 1_555
O10 Sn1 2.100047 1_555
O10 Tb0 2.270660 1_556
O11 Sn0 2.121903 1_656
O11 Tb1 2.304740 1_655
