# generated using pymatgen
data_MgCr2O4
_symmetry_space_group_name_H-M   'P 1'
_cell_length_a   5.91151836
_cell_length_b   5.91151723
_cell_length_c   5.91151792
_cell_angle_alpha   59.99997225
_cell_angle_beta   59.99998138
_cell_angle_gamma   59.99996484
_symmetry_Int_Tables_number   1
_chemical_formula_structural   MgCr2O4
_chemical_formula_sum   'Mg2 Cr4 O8'
_cell_volume   146.07696859
_cell_formula_units_Z   2
loop_
 _symmetry_equiv_pos_site_id
 _symmetry_equiv_pos_as_xyz
  1  'x, y, z'
loop_
 _atom_site_type_symbol
 _atom_site_label
 _atom_site_symmetry_multiplicity
 _atom_site_fract_x
 _atom_site_fract_y
 _atom_site_fract_z
 _atom_site_occupancy
  Mg  Mg0  1  0.12500000  0.12500000  0.12500000  1
  Mg  Mg1  1  0.87500000  0.87500000  0.87500000  1
  Cr  Cr0  1  0.50000000  0.50000000  -0.00000000  1
  Cr  Cr1  1  0.50000000  0.50000000  0.50000000  1
  Cr  Cr2  1  -0.00000000  0.50000000  0.50000000  1
  Cr  Cr3  1  0.50000000  0.00000000  0.50000000  1
  O  O0  1  0.73856739  0.73856739  0.73856739  1
  O  O1  1  0.26143261  0.26143261  0.71570316  1
  O  O2  1  0.26143261  0.71570316  0.26143261  1
  O  O3  1  0.71570316  0.26143261  0.26143261  1
  O  O4  1  0.73856739  0.28429684  0.73856739  1
  O  O5  1  0.28429684  0.73856739  0.73856739  1
  O  O6  1  0.26143261  0.26143261  0.26143261  1
  O  O7  1  0.73856739  0.73856739  0.28429684  1
loop_
_geom_bond_atom_site_label_1
_geom_bond_atom_site_label_2
_geom_bond_distance
_geom_bond_site_symmetry_2
Mg0 O2 1.975566 1_545
Mg0 O3 1.975567 1_455
Mg0 O1 1.975567 1_554
Mg0 O6 1.975572 1_555
Mg1 O4 1.975566 1_565
Mg1 O5 1.975567 1_655
Mg1 O7 1.975567 1_556
Mg1 O0 1.975572 1_555
Cr0 O0 1.999034 1_554
Cr0 O6 1.999034 1_555
Cr0 O5 1.999037 1_554
Cr0 O3 1.999037 1_555
Cr0 O4 1.999037 1_554
Cr0 O2 1.999037 1_555
Cr1 O2 1.999033 1_555
Cr1 O4 1.999033 1_555
Cr1 O3 1.999033 1_555
Cr1 O5 1.999033 1_555
Cr1 O1 1.999033 1_555
Cr1 O7 1.999033 1_555
Cr2 O6 1.999033 1_555
Cr2 O0 1.999033 1_455
Cr2 O7 1.999037 1_455
Cr2 O1 1.999037 1_555
Cr2 O4 1.999038 1_455
Cr2 O2 1.999038 1_555
Cr3 O6 1.999033 1_555
Cr3 O0 1.999033 1_545
Cr3 O7 1.999037 1_545
Cr3 O1 1.999037 1_555
Cr3 O5 1.999038 1_545
Cr3 O3 1.999038 1_555
