# generated using pymatgen
data_Lu2Ga8Co
_symmetry_space_group_name_H-M   'P 1'
_cell_length_a   4.14574364
_cell_length_b   4.14574364
_cell_length_c   10.87223199
_cell_angle_alpha   90.00000000
_cell_angle_beta   90.00000000
_cell_angle_gamma   90.00000000
_symmetry_Int_Tables_number   1
_chemical_formula_structural   Lu2Ga8Co
_chemical_formula_sum   'Lu2 Ga8 Co1'
_cell_volume   186.86312051
_cell_formula_units_Z   1
loop_
 _symmetry_equiv_pos_site_id
 _symmetry_equiv_pos_as_xyz
  1  'x, y, z'
loop_
 _atom_site_type_symbol
 _atom_site_label
 _atom_site_symmetry_multiplicity
 _atom_site_fract_x
 _atom_site_fract_y
 _atom_site_fract_z
 _atom_site_occupancy
  Lu  Lu0  1  0.00000000  0.00000000  0.69368942  1
  Lu  Lu1  1  -0.00000000  -0.00000000  0.30631058  1
  Ga  Ga0  1  0.50000000  0.00000000  0.88273251  1
  Ga  Ga1  1  0.00000000  0.50000000  0.88273251  1
  Ga  Ga2  1  0.50000000  -0.00000000  0.11726749  1
  Ga  Ga3  1  -0.00000000  0.50000000  0.11726749  1
  Ga  Ga4  1  0.50000000  0.00000000  0.50000000  1
  Ga  Ga5  1  0.00000000  0.50000000  0.50000000  1
  Ga  Ga6  1  0.50000000  0.50000000  0.69485226  1
  Ga  Ga7  1  0.50000000  0.50000000  0.30514774  1
  Co  Co0  1  -0.00000000  0.00000000  0.00000000  1
loop_
_geom_bond_atom_site_label_1
_geom_bond_atom_site_label_2
_geom_bond_distance
_geom_bond_site_symmetry_2
Ga0 Ga2 2.549919 1_556
Ga0 Ga6 2.910211 1_555
Ga0 Ga6 2.910211 1_545
Ga0 Lu0 2.919099 1_555
Ga0 Lu0 2.919099 1_655
Ga0 Ga1 2.931483 1_555
Ga0 Ga1 2.931483 1_545
Ga0 Ga1 2.931483 1_645
Ga0 Ga1 2.931483 1_655
Ga1 Ga3 2.549919 1_556
Ga1 Ga6 2.910211 1_555
Ga1 Ga6 2.910211 1_455
Ga1 Lu0 2.919099 1_555
Ga1 Lu0 2.919099 1_565
Ga2 Ga7 2.910211 1_545
Ga2 Ga7 2.910211 1_555
Ga2 Lu1 2.919099 1_655
Ga2 Lu1 2.919099 1_555
Ga2 Ga3 2.931483 1_645
Ga2 Ga3 2.931483 1_655
Ga2 Ga3 2.931483 1_545
Ga2 Ga3 2.931483 1_555
Ga3 Ga7 2.910211 1_555
Ga3 Ga7 2.910211 1_455
Ga3 Lu1 2.919099 1_555
Ga3 Lu1 2.919099 1_565
Ga4 Ga5 2.931483 1_545
Ga4 Ga5 2.931483 1_645
Ga4 Ga5 2.931483 1_555
Ga4 Ga5 2.931483 1_655
Ga4 Lu0 2.954885 1_555
Ga4 Lu0 2.954885 1_655
Ga4 Lu1 2.954885 1_655
Ga4 Lu1 2.954885 1_555
Ga4 Ga7 2.963908 1_545
Ga4 Ga7 2.963908 1_555
Ga4 Ga6 2.963908 1_555
Ga4 Ga6 2.963908 1_545
Ga5 Lu0 2.954885 1_555
Ga5 Lu1 2.954885 1_565
Ga5 Lu0 2.954885 1_565
Ga5 Lu1 2.954885 1_555
Ga5 Ga7 2.963908 1_555
Ga5 Ga7 2.963908 1_455
Ga5 Ga6 2.963908 1_555
Ga5 Ga6 2.963908 1_455
Ga6 Lu0 2.931511 1_555
Ga6 Lu0 2.931511 1_655
Ga6 Lu0 2.931511 1_565
Ga6 Lu0 2.931511 1_665
Ga7 Lu1 2.931511 1_565
Ga7 Lu1 2.931511 1_555
Ga7 Lu1 2.931511 1_655
Ga7 Lu1 2.931511 1_665
Co0 Ga3 2.433582 1_545
Co0 Ga3 2.433582 1_555
Co0 Ga2 2.433582 1_555
Co0 Ga2 2.433582 1_455
Co0 Ga0 2.433582 1_454
Co0 Ga1 2.433582 1_554
Co0 Ga1 2.433582 1_544
Co0 Ga0 2.433582 1_554
