# generated using pymatgen
data_Zr5Ge3
_symmetry_space_group_name_H-M   'P 1'
_cell_length_a   8.07722771
_cell_length_b   8.07722876
_cell_length_c   5.61993419
_cell_angle_alpha   90.00000000
_cell_angle_beta   90.00000000
_cell_angle_gamma   119.99999574
_symmetry_Int_Tables_number   1
_chemical_formula_structural   Zr5Ge3
_chemical_formula_sum   'Zr10 Ge6'
_cell_volume   317.53133542
_cell_formula_units_Z   2
loop_
 _symmetry_equiv_pos_site_id
 _symmetry_equiv_pos_as_xyz
  1  'x, y, z'
loop_
 _atom_site_type_symbol
 _atom_site_label
 _atom_site_symmetry_multiplicity
 _atom_site_fract_x
 _atom_site_fract_y
 _atom_site_fract_z
 _atom_site_occupancy
  Zr  Zr0  1  0.00000000  0.74588944  0.75000000  1
  Zr  Zr1  1  -0.00000000  0.25411056  0.25000000  1
  Zr  Zr2  1  0.74588944  0.74588944  0.25000000  1
  Zr  Zr3  1  0.74588944  0.00000000  0.75000000  1
  Zr  Zr4  1  0.25411056  0.25411056  0.75000000  1
  Zr  Zr5  1  0.25411056  0.00000000  0.25000000  1
  Zr  Zr6  1  0.33333300  0.66666700  0.50000000  1
  Zr  Zr7  1  0.66666700  0.33333300  0.00000000  1
  Zr  Zr8  1  0.66666700  0.33333300  0.50000000  1
  Zr  Zr9  1  0.33333300  0.66666700  0.00000000  1
  Ge  Ge0  1  0.38805351  0.00000000  0.75000000  1
  Ge  Ge1  1  0.38805351  0.38805351  0.25000000  1
  Ge  Ge2  1  0.00000000  0.61194649  0.25000000  1
  Ge  Ge3  1  -0.00000000  0.38805351  0.75000000  1
  Ge  Ge4  1  0.61194649  0.61194649  0.75000000  1
  Ge  Ge5  1  0.61194649  0.00000000  0.25000000  1
loop_
_geom_bond_atom_site_label_1
_geom_bond_atom_site_label_2
_geom_bond_distance
_geom_bond_site_symmetry_2
Ge0 Zr0 2.757510 1_545
Ge0 Zr4 2.757510 1_555
Ge0 Zr9 2.868514 1_546
Ge0 Zr6 2.868514 1_545
Ge0 Zr8 2.868516 1_555
Ge0 Zr7 2.868516 1_556
Ge0 Zr3 2.890322 1_555
Ge0 Zr5 3.011046 1_556
Ge0 Zr5 3.011046 1_555
Ge1 Zr1 2.757509 1_555
Ge1 Zr5 2.757510 1_555
Ge1 Zr8 2.868521 1_555
Ge1 Zr7 2.868521 1_555
Ge1 Zr9 2.868521 1_555
Ge1 Zr6 2.868521 1_555
Ge1 Zr2 2.890323 1_555
Ge1 Zr4 3.011046 1_555
Ge1 Zr4 3.011046 1_554
Ge2 Zr2 2.757509 1_455
Ge2 Zr5 2.757510 1_565
Ge2 Zr6 2.868514 1_555
Ge2 Zr9 2.868514 1_555
Ge2 Zr7 2.868516 1_455
Ge2 Zr8 2.868516 1_455
Ge2 Zr1 2.890323 1_555
Ge2 Zr0 3.011046 1_555
Ge2 Zr0 3.011046 1_554
Ge3 Zr4 2.757509 1_555
Ge3 Zr3 2.757510 1_455
Ge3 Zr8 2.868514 1_455
Ge3 Zr7 2.868514 1_456
Ge3 Zr9 2.868516 1_556
Ge3 Zr6 2.868516 1_555
Ge3 Zr0 2.890323 1_555
Ge3 Zr1 3.011046 1_555
Ge3 Zr1 3.011046 1_556
Ge4 Zr0 2.757509 1_655
Ge4 Zr3 2.757510 1_565
Ge4 Zr9 2.868521 1_556
Ge4 Zr6 2.868521 1_555
Ge4 Zr7 2.868521 1_556
Ge4 Zr8 2.868521 1_555
Ge4 Zr4 2.890323 1_555
Ge4 Zr2 3.011046 1_556
Ge4 Zr2 3.011046 1_555
Ge5 Zr1 2.757510 1_655
Ge5 Zr2 2.757510 1_545
Ge5 Zr7 2.868514 1_555
Ge5 Zr8 2.868514 1_555
Ge5 Zr6 2.868516 1_545
Ge5 Zr9 2.868516 1_545
Ge5 Zr5 2.890322 1_555
Ge5 Zr3 3.011046 1_554
Ge5 Zr3 3.011046 1_555
