# generated using pymatgen
data_NaNb2H7O9
_symmetry_space_group_name_H-M   'P 1'
_cell_length_a   6.48859200
_cell_length_b   10.13773900
_cell_length_c   12.88467762
_cell_angle_alpha   79.95698236
_cell_angle_beta   90.00000000
_cell_angle_gamma   90.00000000
_symmetry_Int_Tables_number   1
_chemical_formula_structural   NaNb2H7O9
_chemical_formula_sum   'Na4 Nb8 H28 O36'
_cell_volume   834.56269470
_cell_formula_units_Z   4
loop_
 _symmetry_equiv_pos_site_id
 _symmetry_equiv_pos_as_xyz
  1  'x, y, z'
loop_
 _atom_site_type_symbol
 _atom_site_label
 _atom_site_symmetry_multiplicity
 _atom_site_fract_x
 _atom_site_fract_y
 _atom_site_fract_z
 _atom_site_occupancy
  Na  Na0  1  0.25093700  0.46796700  0.34076300  1
  Na  Na1  1  0.75093700  0.53203300  0.15923700  1
  Na  Na2  1  0.74906300  0.53203300  0.65923700  1
  Na  Na3  1  0.24906300  0.46796700  0.84076300  1
  Nb  Nb0  1  0.28000900  0.83270700  0.40525000  1
  Nb  Nb1  1  0.78000900  0.16729300  0.09475000  1
  Nb  Nb2  1  0.71999100  0.16729300  0.59475000  1
  Nb  Nb3  1  0.21999100  0.83270700  0.90525000  1
  Nb  Nb4  1  0.18190100  0.99975500  0.60803700  1
  Nb  Nb5  1  0.68190100  0.00024500  0.89196300  1
  Nb  Nb6  1  0.81809900  0.00024500  0.39196300  1
  Nb  Nb7  1  0.31809900  0.99975500  0.10803700  1
  H  H0  1  0.78809800  0.87180300  0.61182900  1
  H  H1  1  0.28809800  0.12819700  0.88817100  1
  H  H2  1  0.21190200  0.12819700  0.38817100  1
  H  H3  1  0.71190200  0.87180300  0.11182900  1
  H  H4  1  0.50768300  0.22387700  0.36343700  1
  H  H5  1  0.00768300  0.77612300  0.13656300  1
  H  H6  1  0.49231700  0.77612300  0.63656300  1
  H  H7  1  0.99231700  0.22387700  0.86343700  1
  H  H8  1  0.41259100  0.22361300  0.25124200  1
  H  H9  1  0.91259100  0.77638700  0.24875800  1
  H  H10  1  0.58740900  0.77638700  0.74875800  1
  H  H11  1  0.08740900  0.22361300  0.75124200  1
  H  H12  1  0.38383400  0.38090600  0.55713800  1
  H  H13  1  0.88383400  0.61909400  0.94286200  1
  H  H14  1  0.61616600  0.61909400  0.44286200  1
  H  H15  1  0.11616600  0.38090600  0.05713800  1
  H  H16  1  0.16358400  0.31434300  0.55915000  1
  H  H17  1  0.66358400  0.68565700  0.94085000  1
  H  H18  1  0.83641600  0.68565700  0.44085000  1
  H  H19  1  0.33641600  0.31434300  0.05915000  1
  H  H20  1  0.33952100  0.65244600  0.13530800  1
  H  H21  1  0.83952100  0.34755400  0.36469200  1
  H  H22  1  0.66047900  0.34755400  0.86469200  1
  H  H23  1  0.16047900  0.65244600  0.63530800  1
  H  H24  1  0.33843800  0.50335500  0.11538800  1
  H  H25  1  0.83843800  0.49664500  0.38461200  1
  H  H26  1  0.66156200  0.49664500  0.88461200  1
  H  H27  1  0.16156200  0.50335500  0.61538800  1
  O  O0  1  0.25309000  0.82451500  0.56032900  1
  O  O1  1  0.75309000  0.17548500  0.93967100  1
  O  O2  1  0.74691000  0.17548500  0.43967100  1
  O  O3  1  0.24691000  0.82451500  0.06032900  1
  O  O4  1  0.02568500  0.17123300  0.61795300  1
  O  O5  1  0.52568500  0.82876700  0.88204700  1
  O  O6  1  0.97431500  0.82876700  0.38204700  1
  O  O7  1  0.47431500  0.17123300  0.11795300  1
  O  O8  1  0.19161900  0.92672300  0.74980500  1
  O  O9  1  0.69161900  0.07327700  0.75019500  1
  O  O10  1  0.80838100  0.07327700  0.25019500  1
  O  O11  1  0.30838100  0.92672300  0.24980500  1
  O  O12  1  0.43866700  0.08287300  0.58533300  1
  O  O13  1  0.93866700  0.91712700  0.91466700  1
  O  O14  1  0.56133300  0.91712700  0.41466700  1
  O  O15  1  0.06133300  0.08287300  0.08533300  1
  O  O16  1  0.35836800  0.66518100  0.39668800  1
  O  O17  1  0.85836800  0.33481900  0.10331200  1
  O  O18  1  0.64163200  0.33481900  0.60331200  1
  O  O19  1  0.14163200  0.66518100  0.89668800  1
  O  O20  1  0.86265300  0.95005500  0.57065500  1
  O  O21  1  0.36265300  0.04994500  0.92934500  1
  O  O22  1  0.13734700  0.04994500  0.42934500  1
  O  O23  1  0.63734700  0.95005500  0.07065500  1
  O  O24  1  0.38213100  0.24915300  0.32049400  1
  O  O25  1  0.88213100  0.75084700  0.17950600  1
  O  O26  1  0.61786900  0.75084700  0.67950600  1
  O  O27  1  0.11786900  0.24915300  0.82049400  1
  O  O28  1  0.23977700  0.39938900  0.53340000  1
  O  O29  1  0.73977700  0.60061100  0.96660000  1
  O  O30  1  0.76022300  0.60061100  0.46660000  1
  O  O31  1  0.26022300  0.39938900  0.03340000  1
  O  O32  1  0.38193900  0.56097300  0.16755400  1
  O  O33  1  0.88193900  0.43902700  0.33244600  1
  O  O34  1  0.61806100  0.43902700  0.83244600  1
  O  O35  1  0.11806100  0.56097300  0.66755400  1
loop_
_geom_bond_atom_site_label_1
_geom_bond_atom_site_label_2
_geom_bond_distance
_geom_bond_site_symmetry_2
Na0 O16 2.346236 1_555
Na0 O33 2.416835 1_455
Na0 O32 2.420393 1_555
Na0 O24 2.432215 1_555
Na0 O28 2.459144 1_555
Na1 O17 2.346236 1_555
Na1 O32 2.416835 1_555
Na1 O33 2.420393 1_555
Na1 O25 2.432215 1_555
Na1 O29 2.459144 1_554
Na2 O18 2.346236 1_555
Na2 O35 2.416835 1_655
Na2 O34 2.420393 1_555
Na2 O26 2.432215 1_555
Na2 O30 2.459144 1_555
Na3 O19 2.346236 1_555
Na3 O34 2.416835 1_555
Na3 O35 2.420393 1_555
Na3 O27 2.432215 1_555
Na3 O31 2.459144 1_556
Nb0 O16 1.794538 1_555
Nb0 O0 1.993014 1_555
Nb0 O6 2.007363 1_455
Nb0 O14 2.028658 1_555
Nb0 O11 2.070739 1_555
Nb0 O22 2.458019 1_565
Nb1 O17 1.794538 1_555
Nb1 O1 1.993014 1_554
Nb1 O7 2.007363 1_555
Nb1 O15 2.028658 1_655
Nb1 O10 2.070739 1_555
Nb1 O23 2.458019 1_545
Nb2 O18 1.794538 1_555
Nb2 O2 1.993014 1_555
Nb2 O4 2.007363 1_655
Nb2 O12 2.028658 1_555
Nb2 O9 2.070739 1_555
Nb2 O20 2.458019 1_545
Nb3 O19 1.794538 1_555
Nb3 O3 1.993014 1_556
Nb3 O5 2.007363 1_555
Nb3 O13 2.028658 1_455
Nb3 O8 2.070739 1_555
Nb3 O21 2.458019 1_565
Nb4 O8 1.848526 1_555
Nb4 O12 1.866909 1_565
Nb4 O0 2.031794 1_555
Nb4 O4 2.035497 1_565
Nb4 O20 2.204877 1_455
Nb4 O22 2.287985 1_565
Nb5 O9 1.848526 1_555
Nb5 O13 1.866909 1_545
Nb5 O1 2.031794 1_555
Nb5 O5 2.035497 1_545
Nb5 O21 2.204877 1_555
Nb5 O23 2.287985 1_546
Nb6 O10 1.848526 1_555
Nb6 O14 1.866909 1_545
Nb6 O2 2.031794 1_555
Nb6 O6 2.035497 1_545
Nb6 O22 2.204877 1_655
Nb6 O20 2.287985 1_545
Nb7 O11 1.848526 1_555
Nb7 O15 1.866909 1_565
Nb7 O3 2.031794 1_555
Nb7 O7 2.035497 1_565
Nb7 O23 2.204877 1_555
Nb7 O21 2.287985 1_564
H0 O20 0.999001 1_555
H1 O21 0.999001 1_555
H2 O22 0.999001 1_555
H3 O23 0.999001 1_555
H4 O24 0.992987 1_555
H5 O25 0.992987 1_455
H6 O26 0.992987 1_555
H7 O27 0.992987 1_655
H8 O24 0.991393 1_555
H9 O25 0.991393 1_555
H10 O26 0.991393 1_555
H11 O27 0.991393 1_555
H12 O28 0.991153 1_555
H13 O29 0.991153 1_555
H14 O30 0.991153 1_555
H15 O31 0.991153 1_555
H16 O28 0.999035 1_555
H17 O29 0.999035 1_555
H18 O30 0.999035 1_555
H19 O31 0.999035 1_555
H20 O32 0.986883 1_555
H21 O33 0.986883 1_555
H22 O34 0.986883 1_555
H23 O35 0.986883 1_555
H24 O32 1.004774 1_555
H25 O33 1.004774 1_555
H26 O34 1.004774 1_555
H27 O35 1.004774 1_555
