# generated using pymatgen
data_KNaTi4(BiO6)2
_symmetry_space_group_name_H-M   'P 1'
_cell_length_a   5.67150754
_cell_length_b   5.67150754
_cell_length_c   9.66100319
_cell_angle_alpha   73.45881781
_cell_angle_beta   73.45881781
_cell_angle_gamma   58.92589157
_symmetry_Int_Tables_number   1
_chemical_formula_structural   KNaTi4(BiO6)2
_chemical_formula_sum   'K1 Na1 Ti4 Bi2 O12'
_cell_volume   251.53064871
_cell_formula_units_Z   1
loop_
 _symmetry_equiv_pos_site_id
 _symmetry_equiv_pos_as_xyz
  1  'x, y, z'
loop_
 _atom_site_type_symbol
 _atom_site_label
 _atom_site_symmetry_multiplicity
 _atom_site_fract_x
 _atom_site_fract_y
 _atom_site_fract_z
 _atom_site_occupancy
  K  K0  1  0.86522700  0.86522700  0.37807400  1
  Na  Na0  1  0.36103400  0.36103400  0.87979700  1
  Ti  Ti0  1  0.49446300  0.49446300  0.50213600  1
  Ti  Ti1  1  0.22836500  0.22836500  0.25647300  1
  Ti  Ti2  1  0.72810500  0.72810500  0.75828700  1
  Ti  Ti3  1  0.99562000  0.99562000  0.00073200  1
  Bi  Bi0  1  0.56753800  0.56753800  0.14227900  1
  Bi  Bi1  1  0.06684500  0.06684500  0.64564400  1
  O  O0  1  0.13371200  0.13371200  0.12068000  1
  O  O1  1  0.39486600  0.39486600  0.36227800  1
  O  O2  1  0.63039400  0.63039400  0.62457600  1
  O  O3  1  0.89464500  0.89464500  0.86299400  1
  O  O4  1  0.88481500  0.38266800  0.87293000  1
  O  O5  1  0.15501600  0.63439600  0.11909900  1
  O  O6  1  0.38065300  0.88177200  0.37273500  1
  O  O7  1  0.65162300  0.13704600  0.62346100  1
  O  O8  1  0.38266800  0.88481500  0.87293000  1
  O  O9  1  0.63439600  0.15501600  0.11909900  1
  O  O10  1  0.88177200  0.38065300  0.37273500  1
  O  O11  1  0.13704600  0.65162300  0.62346100  1
loop_
_geom_bond_atom_site_label_1
_geom_bond_atom_site_label_2
_geom_bond_distance
_geom_bond_site_symmetry_2
K0 O6 2.715912 1_555
K0 O10 2.715912 1_555
K0 O2 2.727286 1_555
K0 O1 2.803850 1_655
K0 O1 2.803850 1_565
K0 O5 2.824431 1_655
K0 O9 2.824431 1_565
K0 O7 2.825269 1_565
K0 O11 2.825269 1_655
K0 O6 2.958270 1_655
K0 O10 2.958270 1_565
K0 O0 2.983674 1_665
Na0 O0 2.653138 1_556
Na0 O8 2.658855 1_545
Na0 O4 2.658855 1_455
Na0 O9 2.783263 1_556
Na0 O5 2.783263 1_556
Na0 O11 2.787280 1_555
Na0 O7 2.787280 1_555
Na0 O3 2.807689 1_545
Na0 O3 2.807689 1_455
Na0 O2 2.977703 1_555
Na0 O8 3.017199 1_555
Na0 O4 3.017199 1_555
Bi0 O5 2.236503 1_555
Bi0 O9 2.236503 1_555
Bi0 O1 2.248358 1_555
Bi1 O3 2.228463 1_445
Bi1 O11 2.240774 1_545
Bi1 O7 2.240774 1_455
O0 Ti1 1.843080 1_555
O0 Ti3 2.058249 1_445
O1 Ti0 1.913728 1_555
O1 Ti1 2.201836 1_555
O2 Ti2 1.848017 1_555
O2 Ti0 2.059119 1_555
O3 Ti3 1.906057 1_556
O3 Ti2 2.194680 1_555
O4 Ti2 1.839124 1_555
O4 Ti3 2.052448 1_546
O5 Ti3 1.914380 1_455
O5 Ti1 2.196040 1_555
O6 Ti1 1.847745 1_565
O6 Ti0 2.058357 1_555
O7 Ti0 1.911613 1_555
O7 Ti2 2.197043 1_545
O8 Ti2 1.839124 1_555
O8 Ti3 2.052448 1_456
O9 Ti3 1.914380 1_545
O9 Ti1 2.196040 1_555
O10 Ti1 1.847745 1_655
O10 Ti0 2.058357 1_555
O11 Ti0 1.911613 1_555
O11 Ti2 2.197043 1_455
