# generated using pymatgen
data_Mg30CrFeO32
_symmetry_space_group_name_H-M   'P 1'
_cell_length_a   8.54517400
_cell_length_b   8.54517400
_cell_length_c   8.51342500
_cell_angle_alpha   90.00000000
_cell_angle_beta   90.00000000
_cell_angle_gamma   90.00000000
_symmetry_Int_Tables_number   1
_chemical_formula_structural   Mg30CrFeO32
_chemical_formula_sum   'Mg30 Cr1 Fe1 O32'
_cell_volume   621.65028235
_cell_formula_units_Z   1
loop_
 _symmetry_equiv_pos_site_id
 _symmetry_equiv_pos_as_xyz
  1  'x, y, z'
loop_
 _atom_site_type_symbol
 _atom_site_label
 _atom_site_symmetry_multiplicity
 _atom_site_fract_x
 _atom_site_fract_y
 _atom_site_fract_z
 _atom_site_occupancy
  Mg  Mg0  1  0.50000000  0.00000000  0.00000000  1
  Mg  Mg1  1  0.50000000  0.00000000  0.50000000  1
  Mg  Mg2  1  0.00000000  0.50000000  0.00000000  1
  Mg  Mg3  1  0.00000000  0.50000000  0.50000000  1
  Mg  Mg4  1  0.50000000  0.50000000  0.00000000  1
  Mg  Mg5  1  0.50000000  0.50000000  0.50000000  1
  Mg  Mg6  1  0.25148600  0.00000000  0.25075200  1
  Mg  Mg7  1  0.25148600  0.00000000  0.74924800  1
  Mg  Mg8  1  0.74851400  0.00000000  0.25075200  1
  Mg  Mg9  1  0.74851400  0.00000000  0.74924800  1
  Mg  Mg10  1  0.24998500  0.50000000  0.25035300  1
  Mg  Mg11  1  0.24998500  0.50000000  0.74964700  1
  Mg  Mg12  1  0.75001500  0.50000000  0.25035300  1
  Mg  Mg13  1  0.75001500  0.50000000  0.74964700  1
  Mg  Mg14  1  0.00000000  0.25148600  0.25075200  1
  Mg  Mg15  1  0.00000000  0.25148600  0.74924800  1
  Mg  Mg16  1  0.50000000  0.24998500  0.25035300  1
  Mg  Mg17  1  0.50000000  0.24998500  0.74964700  1
  Mg  Mg18  1  0.00000000  0.74851400  0.25075200  1
  Mg  Mg19  1  0.00000000  0.74851400  0.74924800  1
  Mg  Mg20  1  0.50000000  0.75001500  0.25035300  1
  Mg  Mg21  1  0.50000000  0.75001500  0.74964700  1
  Mg  Mg22  1  0.25075800  0.25075800  0.00000000  1
  Mg  Mg23  1  0.25040600  0.25040600  0.50000000  1
  Mg  Mg24  1  0.74924200  0.25075800  0.00000000  1
  Mg  Mg25  1  0.74959400  0.25040600  0.50000000  1
  Mg  Mg26  1  0.25075800  0.74924200  0.00000000  1
  Mg  Mg27  1  0.25040600  0.74959400  0.50000000  1
  Mg  Mg28  1  0.74924200  0.74924200  0.00000000  1
  Mg  Mg29  1  0.74959400  0.74959400  0.50000000  1
  Cr  Cr0  1  0.00000000  0.00000000  0.50000000  1
  Fe  Fe0  1  0.00000000  0.00000000  0.00000000  1
  O  O0  1  0.00000000  0.25219900  0.00000000  1
  O  O1  1  0.00000000  0.25998800  0.50000000  1
  O  O2  1  0.50000000  0.25030500  0.00000000  1
  O  O3  1  0.50000000  0.25137600  0.50000000  1
  O  O4  1  0.00000000  0.74780100  0.00000000  1
  O  O5  1  0.00000000  0.74001200  0.50000000  1
  O  O6  1  0.50000000  0.74969500  0.00000000  1
  O  O7  1  0.50000000  0.74862400  0.50000000  1
  O  O8  1  0.24949700  0.24949700  0.24946300  1
  O  O9  1  0.24949700  0.24949700  0.75053700  1
  O  O10  1  0.75050300  0.24949700  0.24946300  1
  O  O11  1  0.75050300  0.24949700  0.75053700  1
  O  O12  1  0.24949700  0.75050300  0.24946300  1
  O  O13  1  0.24949700  0.75050300  0.75053700  1
  O  O14  1  0.75050300  0.75050300  0.24946300  1
  O  O15  1  0.75050300  0.75050300  0.75053700  1
  O  O16  1  0.00000000  0.00000000  0.25574800  1
  O  O17  1  0.00000000  0.00000000  0.74425200  1
  O  O18  1  0.50000000  0.00000000  0.24829900  1
  O  O19  1  0.50000000  0.00000000  0.75170100  1
  O  O20  1  0.00000000  0.50000000  0.24829900  1
  O  O21  1  0.00000000  0.50000000  0.75170100  1
  O  O22  1  0.50000000  0.50000000  0.24945300  1
  O  O23  1  0.50000000  0.50000000  0.75054700  1
  O  O24  1  0.25219900  0.00000000  0.00000000  1
  O  O25  1  0.25998800  0.00000000  0.50000000  1
  O  O26  1  0.74780100  0.00000000  0.00000000  1
  O  O27  1  0.74001200  0.00000000  0.50000000  1
  O  O28  1  0.25030500  0.50000000  0.00000000  1
  O  O29  1  0.25137600  0.50000000  0.50000000  1
  O  O30  1  0.74969500  0.50000000  0.00000000  1
  O  O31  1  0.74862400  0.50000000  0.50000000  1
loop_
_geom_bond_atom_site_label_1
_geom_bond_atom_site_label_2
_geom_bond_distance
_geom_bond_site_symmetry_2
Mg0 O18 2.113875 1_555
Mg0 O19 2.113875 1_554
Mg0 O26 2.117503 1_555
Mg0 O24 2.117503 1_555
Mg0 O6 2.138900 1_545
Mg0 O2 2.138900 1_555
Mg1 O27 2.050944 1_555
Mg1 O25 2.050944 1_555
Mg1 O19 2.142838 1_555
Mg1 O18 2.142838 1_555
Mg1 O3 2.148052 1_555
Mg1 O7 2.148052 1_545
Mg2 O20 2.113875 1_555
Mg2 O21 2.113875 1_554
Mg2 O4 2.117503 1_555
Mg2 O0 2.117503 1_555
Mg2 O30 2.138900 1_455
Mg2 O28 2.138900 1_555
Mg3 O1 2.050944 1_555
Mg3 O5 2.050944 1_555
Mg3 O21 2.142838 1_555
Mg3 O20 2.142838 1_555
Mg3 O29 2.148052 1_555
Mg3 O31 2.148052 1_455
Mg4 O22 2.123699 1_555
Mg4 O23 2.123699 1_554
Mg4 O30 2.133687 1_555
Mg4 O2 2.133687 1_555
Mg4 O28 2.133687 1_555
Mg4 O6 2.133687 1_555
Mg5 O7 2.124535 1_555
Mg5 O31 2.124535 1_555
Mg5 O3 2.124535 1_555
Mg5 O29 2.124535 1_555
Mg5 O23 2.133013 1_555
Mg5 O22 2.133013 1_555
Mg6 O25 2.123197 1_555
Mg6 O18 2.123698 1_555
Mg6 O8 2.132091 1_555
Mg6 O12 2.132091 1_545
Mg6 O24 2.134767 1_555
Mg6 O16 2.149412 1_555
Mg7 O25 2.123197 1_555
Mg7 O19 2.123698 1_555
Mg7 O9 2.132091 1_555
Mg7 O13 2.132091 1_545
Mg7 O24 2.134767 1_556
Mg7 O17 2.149412 1_555
Mg8 O27 2.123197 1_555
Mg8 O18 2.123698 1_555
Mg8 O10 2.132091 1_555
Mg8 O14 2.132091 1_545
Mg8 O26 2.134767 1_555
Mg8 O16 2.149412 1_655
Mg9 O27 2.123197 1_555
Mg9 O19 2.123698 1_555
Mg9 O11 2.132091 1_555
Mg9 O15 2.132091 1_545
Mg9 O26 2.134767 1_556
Mg9 O17 2.149412 1_655
Mg10 O29 2.125384 1_555
Mg10 O28 2.131363 1_555
Mg10 O20 2.136237 1_555
Mg10 O22 2.136435 1_555
Mg10 O12 2.140609 1_555
Mg10 O8 2.140609 1_555
Mg11 O29 2.125384 1_555
Mg11 O28 2.131363 1_556
Mg11 O21 2.136237 1_555
Mg11 O23 2.136435 1_555
Mg11 O13 2.140609 1_555
Mg11 O9 2.140609 1_555
Mg12 O31 2.125384 1_555
Mg12 O30 2.131363 1_555
Mg12 O20 2.136237 1_655
Mg12 O22 2.136435 1_555
Mg12 O14 2.140609 1_555
Mg12 O10 2.140609 1_555
Mg13 O31 2.125384 1_555
Mg13 O30 2.131363 1_556
Mg13 O21 2.136237 1_655
Mg13 O23 2.136435 1_555
Mg13 O15 2.140609 1_555
Mg13 O11 2.140609 1_555
Mg14 O1 2.123197 1_555
Mg14 O20 2.123698 1_555
Mg14 O8 2.132091 1_555
Mg14 O10 2.132091 1_455
Mg14 O0 2.134767 1_555
Mg14 O16 2.149412 1_555
Mg15 O1 2.123197 1_555
Mg15 O21 2.123698 1_555
Mg15 O9 2.132091 1_555
Mg15 O11 2.132091 1_455
Mg15 O0 2.134767 1_556
Mg15 O17 2.149412 1_555
Mg16 O3 2.125384 1_555
Mg16 O2 2.131363 1_555
Mg16 O18 2.136237 1_555
Mg16 O22 2.136435 1_555
Mg16 O10 2.140609 1_555
Mg16 O8 2.140609 1_555
Mg17 O3 2.125384 1_555
Mg17 O2 2.131363 1_556
Mg17 O19 2.136237 1_555
Mg17 O23 2.136435 1_555
Mg17 O11 2.140609 1_555
Mg17 O9 2.140609 1_555
Mg18 O5 2.123197 1_555
Mg18 O20 2.123698 1_555
Mg18 O12 2.132091 1_555
Mg18 O14 2.132091 1_455
Mg18 O4 2.134767 1_555
Mg18 O16 2.149412 1_565
Mg19 O5 2.123197 1_555
Mg19 O21 2.123698 1_555
Mg19 O13 2.132091 1_555
Mg19 O15 2.132091 1_455
Mg19 O4 2.134767 1_556
Mg19 O17 2.149412 1_565
Mg20 O7 2.125384 1_555
Mg20 O6 2.131363 1_555
Mg20 O18 2.136237 1_565
Mg20 O22 2.136435 1_555
Mg20 O14 2.140609 1_555
Mg20 O12 2.140609 1_555
Mg21 O7 2.125384 1_555
Mg21 O6 2.131363 1_556
Mg21 O19 2.136237 1_565
Mg21 O23 2.136435 1_555
Mg21 O15 2.140609 1_555
Mg21 O13 2.140609 1_555
Mg22 O8 2.123839 1_555
Mg22 O9 2.123839 1_554
Mg22 O2 2.129820 1_555
Mg22 O28 2.129820 1_555
Mg22 O0 2.142806 1_555
Mg22 O24 2.142806 1_555
Mg23 O29 2.132840 1_555
Mg23 O3 2.132840 1_555
Mg23 O8 2.132956 1_555
Mg23 O9 2.132956 1_555
Mg23 O25 2.141329 1_555
Mg23 O1 2.141329 1_555
Mg24 O10 2.123839 1_555
Mg24 O11 2.123839 1_554
Mg24 O2 2.129820 1_555
Mg24 O30 2.129820 1_555
Mg24 O26 2.142806 1_555
Mg24 O0 2.142806 1_655
Mg25 O3 2.132840 1_555
Mg25 O31 2.132840 1_555
Mg25 O11 2.132956 1_555
Mg25 O10 2.132956 1_555
Mg25 O27 2.141329 1_555
Mg25 O1 2.141329 1_655
Mg26 O12 2.123839 1_555
Mg26 O13 2.123839 1_554
Mg26 O28 2.129820 1_555
Mg26 O6 2.129820 1_555
Mg26 O4 2.142806 1_555
Mg26 O24 2.142806 1_565
Mg27 O29 2.132840 1_555
Mg27 O7 2.132840 1_555
Mg27 O12 2.132956 1_555
Mg27 O13 2.132956 1_555
Mg27 O5 2.141329 1_555
Mg27 O25 2.141329 1_565
Mg28 O14 2.123839 1_555
Mg28 O15 2.123839 1_554
Mg28 O6 2.129820 1_555
Mg28 O30 2.129820 1_555
Mg28 O26 2.142806 1_565
Mg28 O4 2.142806 1_655
Mg29 O7 2.132840 1_555
Mg29 O31 2.132840 1_555
Mg29 O14 2.132956 1_555
Mg29 O15 2.132956 1_555
Mg29 O5 2.141329 1_655
Mg29 O27 2.141329 1_565
Cr0 O17 2.079421 1_555
Cr0 O16 2.079421 1_555
Cr0 O5 2.221643 1_545
Cr0 O1 2.221643 1_555
Cr0 O27 2.221643 1_455
Cr0 O25 2.221643 1_555
Fe0 O0 2.155084 1_555
Fe0 O24 2.155084 1_555
Fe0 O26 2.155084 1_455
Fe0 O4 2.155084 1_545
Fe0 O16 2.177291 1_555
Fe0 O17 2.177291 1_554
