# generated using pymatgen
data_YCu3(WO4)6
_symmetry_space_group_name_H-M   'P 1'
_cell_length_a   5.99314600
_cell_length_b   9.52559700
_cell_length_c   17.49995646
_cell_angle_alpha   60.29693606
_cell_angle_beta   90.00000000
_cell_angle_gamma   90.00000000
_symmetry_Int_Tables_number   1
_chemical_formula_structural   YCu3(WO4)6
_chemical_formula_sum   'Y2 Cu6 W12 O48'
_cell_volume   867.77346065
_cell_formula_units_Z   2
loop_
 _symmetry_equiv_pos_site_id
 _symmetry_equiv_pos_as_xyz
  1  'x, y, z'
loop_
 _atom_site_type_symbol
 _atom_site_label
 _atom_site_symmetry_multiplicity
 _atom_site_fract_x
 _atom_site_fract_y
 _atom_site_fract_z
 _atom_site_occupancy
  Y  Y0  1  0.33998800  0.50000000  0.25000000  1
  Y  Y1  1  0.66001200  0.50000000  0.75000000  1
  Cu  Cu0  1  0.70711300  0.33329400  0.41474200  1
  Cu  Cu1  1  0.70711300  0.66670600  0.08525800  1
  Cu  Cu2  1  0.69497400  0.00000000  0.75000000  1
  Cu  Cu3  1  0.29288700  0.66670600  0.58525800  1
  Cu  Cu4  1  0.30502600  0.00000000  0.25000000  1
  Cu  Cu5  1  0.29288700  0.33329400  0.91474200  1
  W  W0  1  0.82575200  0.91770400  0.58397000  1
  W  W1  1  0.82566700  0.23476500  0.25244700  1
  W  W2  1  0.83363200  0.57887800  0.92350000  1
  W  W3  1  0.83363200  0.42112200  0.57650000  1
  W  W4  1  0.82566700  0.76523500  0.24755300  1
  W  W5  1  0.82575200  0.08229600  0.91603000  1
  W  W6  1  0.17424800  0.08229600  0.41603000  1
  W  W7  1  0.16636800  0.42112200  0.07650000  1
  W  W8  1  0.17433300  0.76523500  0.74755300  1
  W  W9  1  0.16636800  0.57887800  0.42350000  1
  W  W10  1  0.17424800  0.91770400  0.08397000  1
  W  W11  1  0.17433300  0.23476500  0.75244700  1
  O  O0  1  0.67286100  0.33525800  0.51923100  1
  O  O1  1  0.65828200  0.66594100  0.19225300  1
  O  O2  1  0.66542900  0.00407400  0.85430500  1
  O  O3  1  0.66542900  0.99592600  0.64569500  1
  O  O4  1  0.65828200  0.33405900  0.30774700  1
  O  O5  1  0.67286100  0.66474200  0.98076900  1
  O  O6  1  0.32713900  0.66474200  0.48076900  1
  O  O7  1  0.33457100  0.99592600  0.14569500  1
  O  O8  1  0.34171800  0.33405900  0.80774700  1
  O  O9  1  0.33457100  0.00407400  0.35430500  1
  O  O10  1  0.32713900  0.33525800  0.01923100  1
  O  O11  1  0.34171800  0.66594100  0.69225300  1
  O  O12  1  0.09934900  0.87397200  0.52377700  1
  O  O13  1  0.09494000  0.20700200  0.18830500  1
  O  O14  1  0.09492200  0.54041000  0.85442800  1
  O  O15  1  0.09492200  0.45959000  0.64557200  1
  O  O16  1  0.09494000  0.79299800  0.31169500  1
  O  O17  1  0.09934900  0.12602800  0.97622300  1
  O  O18  1  0.90065100  0.12602800  0.47622300  1
  O  O19  1  0.90507800  0.45959000  0.14557200  1
  O  O20  1  0.90506000  0.79299800  0.81169500  1
  O  O21  1  0.90507800  0.54041000  0.35442800  1
  O  O22  1  0.90065100  0.87397200  0.02377700  1
  O  O23  1  0.90506000  0.20700200  0.68830500  1
  O  O24  1  0.38614200  0.51840600  0.37180700  1
  O  O25  1  0.39730300  0.84552900  0.04595800  1
  O  O26  1  0.40142600  0.17952200  0.70799300  1
  O  O27  1  0.39730300  0.15447100  0.45404200  1
  O  O28  1  0.38614200  0.48159400  0.12819300  1
  O  O29  1  0.40142600  0.82047800  0.79200700  1
  O  O30  1  0.61385800  0.48159400  0.62819300  1
  O  O31  1  0.59857400  0.82047800  0.29200700  1
  O  O32  1  0.60269700  0.15447100  0.95404200  1
  O  O33  1  0.60269700  0.84552900  0.54595800  1
  O  O34  1  0.59857400  0.17952200  0.20799300  1
  O  O35  1  0.61385800  0.51840600  0.87180700  1
  O  O36  1  0.11057200  0.37408400  0.51871000  1
  O  O37  1  0.10690800  0.70613900  0.18398700  1
  O  O38  1  0.10793700  0.04047800  0.85046000  1
  O  O39  1  0.88942800  0.62591600  0.48129000  1
  O  O40  1  0.89206300  0.95952200  0.14954000  1
  O  O41  1  0.89309200  0.29386100  0.81601300  1
  O  O42  1  0.10793700  0.95952200  0.64954000  1
  O  O43  1  0.10690800  0.29386100  0.31601300  1
  O  O44  1  0.11057200  0.62591600  0.98129000  1
  O  O45  1  0.89206300  0.04047800  0.35046000  1
  O  O46  1  0.88942800  0.37408400  0.01871000  1
  O  O47  1  0.89309200  0.70613900  0.68398700  1
loop_
_geom_bond_atom_site_label_1
_geom_bond_atom_site_label_2
_geom_bond_distance
_geom_bond_site_symmetry_2
Cu0 O0 1.849323 1_555
Cu0 O4 1.891583 1_555
Cu0 O18 2.072640 1_555
Cu0 O21 2.085754 1_555
Cu0 O27 2.379296 1_555
Cu0 O24 2.461940 1_555
Cu1 O5 1.849323 1_554
Cu1 O1 1.891583 1_555
Cu1 O22 2.072640 1_555
Cu1 O19 2.085754 1_555
Cu1 O25 2.379296 1_555
Cu1 O28 2.461940 1_555
Cu2 O2 1.853348 1_555
Cu2 O3 1.853348 1_545
Cu2 O20 2.128203 1_545
Cu2 O23 2.128203 1_555
Cu2 O29 2.305200 1_545
Cu2 O26 2.305200 1_555
Cu3 O6 1.849323 1_555
Cu3 O11 1.891583 1_555
Cu3 O12 2.072640 1_555
Cu3 O15 2.085754 1_555
Cu3 O33 2.379296 1_555
Cu3 O30 2.461940 1_555
Cu4 O9 1.853348 1_555
Cu4 O7 1.853348 1_545
Cu4 O13 2.128203 1_555
Cu4 O16 2.128203 1_545
Cu4 O31 2.305200 1_545
Cu4 O34 2.305200 1_555
Cu5 O10 1.849323 1_556
Cu5 O8 1.891583 1_555
Cu5 O17 2.072640 1_555
Cu5 O14 2.085754 1_555
Cu5 O32 2.379296 1_555
Cu5 O35 2.461940 1_555
O0 W3 1.847729 1_555
O1 W4 1.935090 1_555
O1 Y0 2.361283 1_555
O2 W5 1.855485 1_555
O3 W0 1.855485 1_555
O4 W1 1.935090 1_555
O4 Y0 2.361283 1_555
O5 W2 1.847729 1_555
O6 W9 1.847729 1_555
O7 W10 1.855485 1_555
O8 W11 1.935090 1_555
O8 Y1 2.361283 1_555
O9 W6 1.855485 1_555
O10 W7 1.847729 1_555
O11 W8 1.935090 1_555
O11 Y1 2.361283 1_555
O12 W6 1.996658 1_565
O12 W0 2.099198 1_455
O13 W7 2.053463 1_555
O13 W1 2.056311 1_455
O14 W8 2.083637 1_555
O14 W2 2.118137 1_455
O15 W11 2.083637 1_555
O15 W3 2.118137 1_455
O16 W9 2.053463 1_555
O16 W4 2.056311 1_455
O17 W10 1.996658 1_546
O17 W5 2.099198 1_455
O18 W0 1.996658 1_545
O18 W6 2.099198 1_655
O19 W1 2.083637 1_555
O19 W7 2.118137 1_655
O20 W2 2.053463 1_555
O20 W8 2.056311 1_655
O21 W4 2.083637 1_555
O21 W9 2.118137 1_655
O22 W5 1.996658 1_564
O22 W10 2.099198 1_655
O23 W3 2.053463 1_555
O23 W11 2.056311 1_655
O24 W9 1.844294 1_555
O24 Y0 2.240852 1_555
O25 W10 1.776355 1_555
O26 W11 1.772039 1_555
O27 W6 1.776355 1_555
O28 W7 1.844294 1_555
O28 Y0 2.240852 1_555
O29 W8 1.772039 1_555
O30 W3 1.844294 1_555
O30 Y1 2.240852 1_555
O31 W4 1.772039 1_555
O32 W5 1.776355 1_555
O33 W0 1.776355 1_555
O34 W1 1.772039 1_555
O35 W2 1.844294 1_555
O35 Y1 2.240852 1_555
O36 W9 1.863434 1_555
O36 W3 2.104125 1_455
O37 W10 1.947342 1_555
O37 Y0 2.212133 1_555
O37 W4 2.239613 1_455
O38 W11 1.838367 1_555
O38 W5 2.188246 1_455
O39 W3 1.863434 1_555
O39 W9 2.104125 1_655
O40 W4 1.838367 1_555
O40 W10 2.188246 1_655
O41 W5 1.947342 1_555
O41 Y1 2.212133 1_555
O41 W11 2.239613 1_655
O42 W8 1.838367 1_555
O42 W0 2.188246 1_455
O43 W6 1.947342 1_555
O43 Y0 2.212133 1_555
O43 W1 2.239613 1_455
O44 W7 1.863434 1_556
O44 W2 2.104125 1_455
O45 W1 1.838367 1_555
O45 W6 2.188246 1_655
O46 W2 1.863434 1_554
O46 W7 2.104125 1_655
O47 W0 1.947342 1_555
O47 Y1 2.212133 1_555
O47 W8 2.239613 1_655
