# generated using pymatgen
data_LiGa3
_symmetry_space_group_name_H-M   'P 1'
_cell_length_a   4.94933631
_cell_length_b   4.94933631
_cell_length_c   4.94933631
_cell_angle_alpha   132.60442757
_cell_angle_beta   132.60442757
_cell_angle_gamma   69.27605822
_symmetry_Int_Tables_number   1
_chemical_formula_structural   LiGa3
_chemical_formula_sum   'Li1 Ga3'
_cell_volume   64.45201311
_cell_formula_units_Z   1
loop_
 _symmetry_equiv_pos_site_id
 _symmetry_equiv_pos_as_xyz
  1  'x, y, z'
loop_
 _atom_site_type_symbol
 _atom_site_label
 _atom_site_symmetry_multiplicity
 _atom_site_fract_x
 _atom_site_fract_y
 _atom_site_fract_z
 _atom_site_occupancy
  Li  Li0  1  -0.00000000  0.00000000  0.00000000  1
  Ga  Ga0  1  0.75000000  0.25000000  0.50000000  1
  Ga  Ga1  1  0.25000000  0.75000000  0.50000000  1
  Ga  Ga2  1  0.50000000  0.50000000  0.00000000  1
loop_
_geom_bond_atom_site_label_1
_geom_bond_atom_site_label_2
_geom_bond_distance
_geom_bond_site_symmetry_2
Ga0 Ga1 2.813153 1_656
Ga0 Ga1 2.813153 1_544
Ga0 Ga1 2.813153 1_645
Ga0 Ga1 2.813153 1_555
Ga0 Li0 2.846479 1_555
Ga0 Li0 2.846479 1_666
Ga0 Li0 2.846479 1_655
Ga0 Li0 2.846479 1_656
Ga0 Ga2 2.846479 1_656
Ga0 Ga2 2.846479 1_555
Ga0 Ga2 2.846479 1_545
Ga0 Ga2 2.846479 1_556
Ga1 Li0 2.846479 1_555
Ga1 Li0 2.846479 1_566
Ga1 Li0 2.846479 1_565
Ga1 Li0 2.846479 1_666
Ga1 Ga2 2.846479 1_455
Ga1 Ga2 2.846479 1_555
Ga1 Ga2 2.846479 1_566
Ga1 Ga2 2.846479 1_556
Ga2 Li0 2.813153 1_565
Ga2 Li0 2.813153 1_554
Ga2 Li0 2.813153 1_666
Ga2 Li0 2.813153 1_655
