# generated using pymatgen
data_Li6Mn3CoO10
_symmetry_space_group_name_H-M   'P 1'
_cell_length_a   2.94226800
_cell_length_b   5.08571155
_cell_length_c   12.10148061
_cell_angle_alpha   95.66508958
_cell_angle_beta   94.25453661
_cell_angle_gamma   90.88051998
_symmetry_Int_Tables_number   1
_chemical_formula_structural   Li6Mn3CoO10
_chemical_formula_sum   'Li6 Mn3 Co1 O10'
_cell_volume   179.65286184
_cell_formula_units_Z   1
loop_
 _symmetry_equiv_pos_site_id
 _symmetry_equiv_pos_as_xyz
  1  'x, y, z'
loop_
 _atom_site_type_symbol
 _atom_site_label
 _atom_site_symmetry_multiplicity
 _atom_site_fract_x
 _atom_site_fract_y
 _atom_site_fract_z
 _atom_site_occupancy
  Li  Li0  1  0.89898800  0.30669100  0.79891900  1
  Li  Li1  1  0.29945900  0.09448400  0.60054600  1
  Li  Li2  1  0.69454200  0.90455400  0.39347700  1
  Li  Li3  1  0.10016300  0.69950900  0.20027500  1
  Li  Li4  1  0.50658300  0.49552400  0.00632000  1
  Li  Li5  1  0.59983900  0.20054900  0.20079600  1
  Mn  Mn0  1  0.01195100  0.01093000  0.00731500  1
  Mn  Mn1  1  0.19049800  0.39240300  0.39454000  1
  Mn  Mn2  1  0.40753100  0.79626200  0.79884300  1
  Co  Co0  1  0.78596900  0.60089800  0.59808600  1
  O  O0  1  0.47875700  0.12436200  0.90798100  1
  O  O1  1  0.82050900  0.93165800  0.69775800  1
  O  O2  1  0.20773200  0.72408800  0.50326800  1
  O  O3  1  0.66710500  0.53291400  0.31293600  1
  O  O4  1  0.04023700  0.32853900  0.09149700  1
  O  O5  1  0.37459200  0.46160200  0.69614400  1
  O  O6  1  0.72416400  0.28194500  0.49317000  1
  O  O7  1  0.16230700  0.07206800  0.31130500  1
  O  O8  1  0.53481200  0.86905900  0.08833000  1
  O  O9  1  0.99426400  0.67196100  0.89849200  1
loop_
_geom_bond_atom_site_label_1
_geom_bond_atom_site_label_2
_geom_bond_distance
_geom_bond_site_symmetry_2
Li0 O9 2.115042 1_555
Li0 O5 2.119955 1_555
Li0 O5 2.131557 1_655
Li0 O0 2.139862 1_555
Li0 O1 2.161794 1_545
Li0 O0 2.338332 1_655
Li1 O1 2.093732 1_545
Li1 O5 2.096680 1_555
Li1 O1 2.111384 1_445
Li1 O2 2.122856 1_545
Li1 O6 2.146568 1_555
Li1 O6 2.330311 1_455
Li2 O7 1.985717 1_665
Li2 O7 2.035709 1_565
Li2 O3 2.036844 1_555
Li2 O6 2.160766 1_565
Li2 O2 2.207537 1_655
Li2 O2 2.267572 1_555
Li3 O3 2.157022 1_455
Li3 O8 2.160554 1_555
Li3 O4 2.188238 1_555
Li3 O7 2.208857 1_565
Li3 O8 2.299140 1_455
Li3 O3 2.300695 1_555
Li4 O4 2.003308 1_555
Li4 O8 2.052163 1_555
Li4 O4 2.054929 1_655
Li4 O0 2.126814 1_554
Li4 O9 2.181960 1_454
Li4 O9 2.244142 1_554
Li5 O8 2.056583 1_545
Li5 O3 2.057896 1_555
Li5 O4 2.061686 1_655
Li5 O7 2.067541 1_555
Li5 O4 2.182642 1_555
Li5 O7 2.198080 1_655
Mn0 O4 1.819956 1_555
Mn0 O8 1.940455 1_445
Mn0 O8 1.948954 1_545
Mn0 O0 2.005431 1_554
Mn0 O0 2.030728 1_454
Mn0 O9 2.060990 1_444
Mn1 O7 1.826202 1_555
Mn1 O3 1.940701 1_555
Mn1 O3 1.950603 1_455
Mn1 O6 1.993603 1_455
Mn1 O6 2.021653 1_555
Mn1 O2 2.031890 1_555
Mn2 O9 1.917492 1_455
Mn2 O1 1.951444 1_555
Mn2 O5 2.002542 1_555
Mn2 O0 2.021298 1_565
Mn2 O9 2.170065 1_555
Mn2 O1 2.200695 1_455
Co0 O2 1.891656 1_655
Co0 O5 1.930734 1_555
Co0 O6 1.956106 1_555
Co0 O1 1.967437 1_555
Co0 O2 2.118650 1_555
Co0 O5 2.192752 1_655
