# generated using pymatgen
data_FeO
_symmetry_space_group_name_H-M   'P 1'
_cell_length_a   5.31915444
_cell_length_b   5.31915444
_cell_length_c   10.50193800
_cell_angle_alpha   90.00000000
_cell_angle_beta   90.00000000
_cell_angle_gamma   120.00000549
_symmetry_Int_Tables_number   1
_chemical_formula_structural   FeO
_chemical_formula_sum   'Fe12 O12'
_cell_volume   257.32694147
_cell_formula_units_Z   12
loop_
 _symmetry_equiv_pos_site_id
 _symmetry_equiv_pos_as_xyz
  1  'x, y, z'
loop_
 _atom_site_type_symbol
 _atom_site_label
 _atom_site_symmetry_multiplicity
 _atom_site_fract_x
 _atom_site_fract_y
 _atom_site_fract_z
 _atom_site_occupancy
  Fe  Fe0  1  0.31617300  0.98745300  0.62582800  1
  Fe  Fe1  1  0.32736400  0.99749700  0.87523100  1
  Fe  Fe2  1  0.01254700  0.32871900  0.62582800  1
  Fe  Fe3  1  0.00250300  0.32986700  0.87523100  1
  Fe  Fe4  1  0.67128100  0.68382700  0.62582800  1
  Fe  Fe5  1  0.67013300  0.67263600  0.87523100  1
  Fe  Fe6  1  0.32871900  0.01254700  0.12582800  1
  Fe  Fe7  1  0.32986700  0.00250300  0.37523100  1
  Fe  Fe8  1  0.68382700  0.67128100  0.12582800  1
  Fe  Fe9  1  0.67263600  0.67013300  0.37523100  1
  Fe  Fe10  1  0.99749700  0.32736400  0.37523100  1
  Fe  Fe11  1  0.98745300  0.31617300  0.12582800  1
  O  O0  1  0.98468000  0.66617800  0.24881100  1
  O  O1  1  0.33333300  0.66666700  0.01044300  1
  O  O2  1  0.00000000  0.00000000  0.99227900  1
  O  O3  1  0.00000000  0.00000000  0.49227900  1
  O  O4  1  0.33333300  0.66666700  0.49106200  1
  O  O5  1  0.33382200  0.31850200  0.24881100  1
  O  O6  1  0.68149800  0.01532000  0.24881100  1
  O  O7  1  0.31850200  0.33382200  0.74881100  1
  O  O8  1  0.66666700  0.33333300  0.51044300  1
  O  O9  1  0.66666700  0.33333300  0.99106200  1
  O  O10  1  0.01532000  0.68149800  0.74881100  1
  O  O11  1  0.66617800  0.98468000  0.74881100  1
loop_
_geom_bond_atom_site_label_1
_geom_bond_atom_site_label_2
_geom_bond_distance
_geom_bond_site_symmetry_2
Fe0 O10 2.067172 1_555
Fe0 O8 2.213359 1_565
Fe0 O3 2.216332 1_565
Fe0 O7 2.244963 1_565
Fe0 O4 2.253588 1_555
Fe0 O11 2.271970 1_555
Fe1 O10 2.133775 1_555
Fe1 O2 2.136936 1_565
Fe1 O9 2.168900 1_565
Fe1 O7 2.247134 1_565
Fe1 O11 2.266742 1_555
Fe1 O1 2.273745 1_556
Fe2 O7 2.067170 1_555
Fe2 O8 2.213359 1_455
Fe2 O3 2.216328 1_555
Fe2 O11 2.244960 1_445
Fe2 O4 2.253592 1_555
Fe2 O10 2.271974 1_555
Fe3 O7 2.133776 1_555
Fe3 O2 2.136936 1_555
Fe3 O9 2.168898 1_455
Fe3 O11 2.247134 1_445
Fe3 O10 2.266742 1_555
Fe3 O1 2.273747 1_556
Fe4 O11 2.067174 1_555
Fe4 O8 2.213359 1_555
Fe4 O3 2.216330 1_665
Fe4 O10 2.244958 1_655
Fe4 O4 2.253596 1_555
Fe4 O7 2.271972 1_555
Fe5 O11 2.133776 1_555
Fe5 O2 2.136935 1_665
Fe5 O9 2.168902 1_555
Fe5 O10 2.247134 1_655
Fe5 O7 2.266742 1_555
Fe5 O1 2.273749 1_556
Fe6 O5 2.067170 1_555
Fe6 O1 2.213359 1_545
Fe6 O2 2.216328 1_554
Fe6 O0 2.244960 1_445
Fe6 O9 2.253592 1_554
Fe6 O6 2.271974 1_555
Fe7 O5 2.133776 1_555
Fe7 O3 2.136936 1_555
Fe7 O4 2.168898 1_545
Fe7 O0 2.247134 1_445
Fe7 O6 2.266742 1_555
Fe7 O8 2.273747 1_555
Fe8 O0 2.067174 1_555
Fe8 O1 2.213359 1_555
Fe8 O2 2.216330 1_664
Fe8 O6 2.244958 1_565
Fe8 O9 2.253596 1_554
Fe8 O5 2.271972 1_555
Fe9 O0 2.133776 1_555
Fe9 O3 2.136935 1_665
Fe9 O4 2.168902 1_555
Fe9 O6 2.247134 1_565
Fe9 O5 2.266742 1_555
Fe9 O8 2.273749 1_555
Fe10 O6 2.133775 1_555
Fe10 O3 2.136936 1_655
Fe10 O4 2.168900 1_655
Fe10 O5 2.247134 1_655
Fe10 O0 2.266742 1_555
Fe10 O8 2.273745 1_555
Fe11 O6 2.067172 1_555
Fe11 O1 2.213359 1_655
Fe11 O2 2.216332 1_654
Fe11 O5 2.244963 1_655
Fe11 O9 2.253588 1_554
Fe11 O0 2.271970 1_555
