# generated using pymatgen
data_CaCr4O6
_symmetry_space_group_name_H-M   'P 1'
_cell_length_a   5.40260288
_cell_length_b   5.40260288
_cell_length_c   15.14440200
_cell_angle_alpha   90.00000000
_cell_angle_beta   90.00000000
_cell_angle_gamma   146.60652753
_symmetry_Int_Tables_number   1
_chemical_formula_structural   CaCr4O6
_chemical_formula_sum   'Ca2 Cr8 O12'
_cell_volume   243.29058559
_cell_formula_units_Z   2
loop_
 _symmetry_equiv_pos_site_id
 _symmetry_equiv_pos_as_xyz
  1  'x, y, z'
loop_
 _atom_site_type_symbol
 _atom_site_label
 _atom_site_symmetry_multiplicity
 _atom_site_fract_x
 _atom_site_fract_y
 _atom_site_fract_z
 _atom_site_occupancy
  Ca  Ca0  1  0.33682500  0.66317500  0.75000000  1
  Ca  Ca1  1  0.66317500  0.33682500  0.25000000  1
  Cr  Cr0  1  0.13685900  0.86314100  0.04325200  1
  Cr  Cr1  1  0.58942500  0.41057500  0.63306800  1
  Cr  Cr2  1  0.86314100  0.13685900  0.95674800  1
  Cr  Cr3  1  0.41057500  0.58942500  0.36693200  1
  Cr  Cr4  1  0.13685900  0.86314100  0.45674800  1
  Cr  Cr5  1  0.86314100  0.13685900  0.54325100  1
  Cr  Cr6  1  0.41057500  0.58942500  0.13306800  1
  Cr  Cr7  1  0.58942500  0.41057500  0.86693200  1
  O  O0  1  0.50000000  0.50000000  0.50000000  1
  O  O1  1  0.50000000  0.50000000  0.00000000  1
  O  O2  1  0.96296400  0.03703600  0.84302400  1
  O  O3  1  0.03703600  0.96296400  0.15697600  1
  O  O4  1  0.03703600  0.96296400  0.34302400  1
  O  O5  1  0.96296400  0.03703600  0.65697600  1
  O  O6  1  0.21130100  0.78869900  0.91440300  1
  O  O7  1  0.78869900  0.21130100  0.08559700  1
  O  O8  1  0.78869900  0.21130100  0.41440300  1
  O  O9  1  0.21130100  0.78869900  0.58559700  1
  O  O10  1  0.67394900  0.32605100  0.75000000  1
  O  O11  1  0.32605100  0.67394900  0.25000000  1
loop_
_geom_bond_atom_site_label_1
_geom_bond_atom_site_label_2
_geom_bond_distance
_geom_bond_site_symmetry_2
Ca0 O10 2.291493 1_455
Ca0 O10 2.291493 1_565
Ca0 O2 2.469481 1_565
Ca0 O5 2.469481 1_565
Ca0 O5 2.469481 1_455
Ca0 O2 2.469481 1_455
Ca0 O6 2.808339 1_555
Ca0 O9 2.808339 1_555
Ca1 O11 2.291493 1_545
Ca1 O11 2.291493 1_655
Ca1 O4 2.469481 1_655
Ca1 O3 2.469481 1_655
Ca1 O4 2.469481 1_545
Ca1 O3 2.469481 1_545
Ca1 O8 2.808339 1_555
Ca1 O7 2.808339 1_555
Cr0 O3 2.008387 1_555
Cr0 O6 2.097933 1_554
Cr0 O1 2.201066 1_455
Cr0 O1 2.201066 1_565
Cr0 O7 2.300035 1_455
Cr0 O7 2.300035 1_565
Cr1 O10 1.975152 1_555
Cr1 O5 2.062389 1_455
Cr1 O5 2.062389 1_565
Cr1 O9 2.125378 1_655
Cr1 O9 2.125378 1_545
Cr1 O0 2.217601 1_555
Cr2 O2 2.008387 1_555
Cr2 O7 2.097933 1_556
Cr2 O1 2.201066 1_546
Cr2 O1 2.201066 1_656
Cr2 O6 2.300035 1_545
Cr2 O6 2.300035 1_655
Cr3 O11 1.975152 1_555
Cr3 O4 2.062389 1_545
Cr3 O4 2.062389 1_655
Cr3 O8 2.125378 1_565
Cr3 O8 2.125378 1_455
Cr3 O0 2.217601 1_555
Cr4 O4 2.008387 1_555
Cr4 O9 2.097933 1_555
Cr4 O0 2.201066 1_455
Cr4 O0 2.201066 1_565
Cr4 O8 2.300035 1_455
Cr4 O8 2.300035 1_565
Cr5 O5 2.008400 1_555
Cr5 O8 2.097919 1_555
Cr5 O0 2.201062 1_545
Cr5 O0 2.201062 1_655
Cr5 O9 2.300039 1_545
Cr5 O9 2.300039 1_655
Cr6 O11 1.975152 1_555
Cr6 O3 2.062389 1_655
Cr6 O3 2.062389 1_545
Cr6 O7 2.125378 1_455
Cr6 O7 2.125378 1_565
Cr6 O1 2.217601 1_555
Cr7 O10 1.975152 1_555
Cr7 O2 2.062389 1_455
Cr7 O2 2.062389 1_565
Cr7 O6 2.125378 1_655
Cr7 O6 2.125378 1_545
Cr7 O1 2.217601 1_556
