# generated using pymatgen
data_Tb3Ga8Au3
_symmetry_space_group_name_H-M   'P 1'
_cell_length_a   8.23993727
_cell_length_b   8.23993727
_cell_length_c   8.23993727
_cell_angle_alpha   149.73536768
_cell_angle_beta   109.14745199
_cell_angle_gamma   78.94756823
_symmetry_Int_Tables_number   1
_chemical_formula_structural   Tb3Ga8Au3
_chemical_formula_sum   'Tb3 Ga8 Au3'
_cell_volume   261.39246750
_cell_formula_units_Z   1
loop_
 _symmetry_equiv_pos_site_id
 _symmetry_equiv_pos_as_xyz
  1  'x, y, z'
loop_
 _atom_site_type_symbol
 _atom_site_label
 _atom_site_symmetry_multiplicity
 _atom_site_fract_x
 _atom_site_fract_y
 _atom_site_fract_z
 _atom_site_occupancy
  Tb  Tb0  1  0.50000000  0.50000000  0.00000000  1
  Tb  Tb1  1  0.19330608  0.19330608  0.00000000  1
  Tb  Tb2  1  0.80669392  0.80669392  0.00000000  1
  Ga  Ga0  1  0.07861317  0.35872068  0.71989250  1
  Ga  Ga1  1  0.92138683  0.64127932  0.28010750  1
  Ga  Ga2  1  0.63882818  0.35872068  0.28010750  1
  Ga  Ga3  1  0.36117182  0.64127932  0.71989250  1
  Ga  Ga4  1  0.79157549  0.16240721  0.62916928  1
  Ga  Ga5  1  0.20842451  0.83759279  0.37083072  1
  Ga  Ga6  1  0.53323793  0.16240721  0.37083072  1
  Ga  Ga7  1  0.46676207  0.83759279  0.62916928  1
  Au  Au0  1  0.00000000  0.50000000  0.50000000  1
  Au  Au1  1  0.79144030  0.00000000  0.79144030  1
  Au  Au2  1  0.20855970  -0.00000000  0.20855970  1
loop_
_geom_bond_atom_site_label_1
_geom_bond_atom_site_label_2
_geom_bond_distance
_geom_bond_site_symmetry_2
Ga0 Ga5 2.603481 1_556
Ga0 Ga5 2.603485 1_545
Ga0 Ga4 2.643428 1_455
Ga0 Tb2 3.078518 1_456
Ga0 Tb2 3.078518 1_445
Ga0 Tb0 3.223312 1_556
Ga0 Tb1 3.404056 1_556
Ga1 Ga4 2.603481 1_554
Ga1 Ga4 2.603485 1_565
Ga1 Ga5 2.643428 1_655
Ga1 Tb1 3.078518 1_655
Ga1 Tb1 3.078518 1_666
Ga1 Tb0 3.223312 1_555
Ga1 Tb2 3.404056 1_555
Ga2 Ga7 2.603481 1_555
Ga2 Ga7 2.603481 1_544
Ga2 Ga6 2.643420 1_555
Ga2 Tb2 3.078518 1_545
Ga2 Tb2 3.078518 1_556
Ga2 Tb0 3.223312 1_555
Ga2 Tb1 3.404056 1_555
Ga3 Ga6 2.603481 1_555
Ga3 Ga6 2.603481 1_566
Ga3 Ga7 2.643420 1_555
Ga3 Tb1 3.078518 1_555
Ga3 Tb1 3.078518 1_566
Ga3 Tb0 3.223312 1_556
Ga3 Tb2 3.404056 1_556
Ga4 Ga6 2.467811 1_555
Ga4 Tb2 3.085197 1_556
Ga4 Tb2 3.085200 1_545
Ga4 Tb0 3.227651 1_556
Ga4 Tb0 3.227654 1_545
Ga5 Ga7 2.467811 1_555
Ga5 Tb1 3.085197 1_555
Ga5 Tb1 3.085200 1_566
Ga5 Tb0 3.227651 1_555
Ga5 Tb0 3.227654 1_566
Ga6 Tb2 3.085197 1_545
Ga6 Tb2 3.085197 1_556
Ga6 Tb0 3.227658 1_556
Ga6 Tb0 3.227658 1_545
Ga7 Tb1 3.085197 1_566
Ga7 Tb1 3.085197 1_555
Ga7 Tb0 3.227658 1_566
Ga7 Tb0 3.227658 1_555
Au0 Ga2 2.764479 1_455
Au0 Ga3 2.764479 1_555
Au0 Ga0 2.764479 1_555
Au0 Ga1 2.764479 1_455
Au0 Au2 2.931921 1_566
Au0 Au2 2.931921 1_555
Au0 Au1 2.931921 1_465
Au0 Au1 2.931921 1_454
Au0 Tb1 3.267093 1_566
Au0 Tb2 3.267093 1_445
Au0 Tb2 3.267093 1_456
Au0 Tb1 3.267093 1_555
Au1 Ga4 2.582863 1_555
Au1 Ga7 2.582865 1_545
Au1 Ga2 2.805112 1_556
Au1 Ga2 2.805112 1_545
Au1 Ga1 2.805112 1_556
Au1 Ga1 2.805112 1_545
Au1 Tb1 3.164841 1_656
Au1 Tb2 3.164841 1_546
Au2 Ga5 2.582863 1_545
Au2 Ga6 2.582865 1_555
Au2 Ga3 2.805112 1_555
Au2 Ga3 2.805112 1_544
Au2 Ga0 2.805112 1_544
Au2 Ga0 2.805112 1_555
Au2 Tb2 3.164841 1_445
Au2 Tb1 3.164841 1_555
