# generated using pymatgen
data_MgCd
_symmetry_space_group_name_H-M   'P 1'
_cell_length_a   5.35393545
_cell_length_b   5.35393545
_cell_length_c   5.86613044
_cell_angle_alpha   65.03532229
_cell_angle_beta   65.03532229
_cell_angle_gamma   59.75153101
_symmetry_Int_Tables_number   1
_chemical_formula_structural   MgCd
_chemical_formula_sum   'Mg3 Cd3'
_cell_volume   126.88809799
_cell_formula_units_Z   3
loop_
 _symmetry_equiv_pos_site_id
 _symmetry_equiv_pos_as_xyz
  1  'x, y, z'
loop_
 _atom_site_type_symbol
 _atom_site_label
 _atom_site_symmetry_multiplicity
 _atom_site_fract_x
 _atom_site_fract_y
 _atom_site_fract_z
 _atom_site_occupancy
  Mg  Mg0  1  0.66988945  0.99596169  0.00258186  1
  Mg  Mg1  1  0.00403831  0.33011055  0.99741814  1
  Mg  Mg2  1  0.49240786  0.50759214  0.50000000  1
  Cd  Cd0  1  0.34054592  0.65945408  -0.00000000  1
  Cd  Cd1  1  0.16184338  0.16872492  0.50518883  1
  Cd  Cd2  1  0.83127508  0.83815662  0.49481117  1
loop_
_geom_bond_atom_site_label_1
_geom_bond_atom_site_label_2
_geom_bond_distance
_geom_bond_site_symmetry_2
Mg0 Mg1 3.087076 1_564
Mg0 Mg1 3.087076 1_654
Mg0 Mg1 3.087900 1_664
Mg0 Mg2 3.158538 1_555
Mg0 Mg2 3.166018 1_564
Mg1 Mg2 3.158538 1_555
Mg1 Mg2 3.166018 1_456
Cd0 Mg2 3.042857 1_555
Cd0 Mg2 3.042857 1_554
Cd0 Mg1 3.065067 1_654
Cd0 Mg0 3.065067 1_545
Cd0 Mg0 3.098137 1_455
Cd0 Mg1 3.098137 1_564
Cd0 Mg0 3.098632 1_555
Cd0 Mg1 3.098632 1_554
Cd0 Cd2 3.132143 1_455
Cd0 Cd1 3.132143 1_564
Cd0 Cd2 3.188639 1_554
Cd0 Cd1 3.188639 1_555
Cd1 Mg1 3.018142 1_555
Cd1 Mg2 3.065340 1_545
Cd1 Cd2 3.081831 1_455
Cd1 Cd2 3.081831 1_545
Cd1 Mg1 3.090155 1_554
Cd1 Mg2 3.093173 1_555
Cd1 Cd2 3.099373 1_445
Cd1 Mg2 3.103630 1_455
Cd1 Mg0 3.153517 1_545
Cd1 Mg0 3.161580 1_446
Cd2 Mg0 3.018142 1_555
Cd2 Mg2 3.065340 1_655
Cd2 Mg0 3.090155 1_556
Cd2 Mg2 3.093173 1_555
Cd2 Mg2 3.103630 1_565
Cd2 Mg1 3.153517 1_655
Cd2 Mg1 3.161580 1_664
