# generated using pymatgen
data_La3SiAgS7
_symmetry_space_group_name_H-M   'P 1'
_cell_length_a   10.49348338
_cell_length_b   10.49348338
_cell_length_c   5.83684700
_cell_angle_alpha   90.00000000
_cell_angle_beta   90.00000000
_cell_angle_gamma   119.99999608
_symmetry_Int_Tables_number   1
_chemical_formula_structural   La3SiAgS7
_chemical_formula_sum   'La6 Si2 Ag2 S14'
_cell_volume   556.60655436
_cell_formula_units_Z   2
loop_
 _symmetry_equiv_pos_site_id
 _symmetry_equiv_pos_as_xyz
  1  'x, y, z'
loop_
 _atom_site_type_symbol
 _atom_site_label
 _atom_site_symmetry_multiplicity
 _atom_site_fract_x
 _atom_site_fract_y
 _atom_site_fract_z
 _atom_site_occupancy
  La  La0  1  0.87857100  0.64071200  0.61676600  1
  La  La1  1  0.23785900  0.87857100  0.11676600  1
  La  La2  1  0.64071200  0.76214100  0.11676600  1
  La  La3  1  0.35928800  0.23785900  0.61676600  1
  La  La4  1  0.76214100  0.12142900  0.61676600  1
  La  La5  1  0.12142900  0.35928800  0.11676600  1
  Si  Si0  1  0.66666700  0.33333300  0.20522300  1
  Si  Si1  1  0.33333300  0.66666700  0.70522300  1
  Ag  Ag0  1  0.00000000  0.00000000  0.57127700  1
  Ag  Ag1  1  0.00000000  0.00000000  0.07127700  1
  S  S0  1  0.66666700  0.33333300  0.84268300  1
  S  S1  1  0.33333300  0.66666700  0.34268300  1
  S  S2  1  0.47458500  0.88141400  0.84798200  1
  S  S3  1  0.59317100  0.47458500  0.34798200  1
  S  S4  1  0.88141400  0.40682900  0.34798200  1
  S  S5  1  0.11858600  0.59317100  0.84798200  1
  S  S6  1  0.26522200  0.17729200  0.10322500  1
  S  S7  1  0.08793000  0.26522200  0.60322500  1
  S  S8  1  0.17729200  0.91207000  0.60322500  1
  S  S9  1  0.82270800  0.08793000  0.10322500  1
  S  S10  1  0.91207000  0.73477800  0.10322500  1
  S  S11  1  0.73477800  0.82270800  0.60322500  1
  S  S12  1  0.52541500  0.11858600  0.34798200  1
  S  S13  1  0.40682900  0.52541500  0.84798200  1
loop_
_geom_bond_atom_site_label_1
_geom_bond_atom_site_label_2
_geom_bond_distance
_geom_bond_site_symmetry_2
La0 S4 2.925531 1_555
La0 S11 2.968477 1_555
La0 S10 2.968675 1_556
La0 S8 3.002417 1_655
La0 S3 3.041139 1_555
La0 S5 3.109660 1_655
La0 S10 3.120206 1_555
La0 S0 3.148771 1_555
La1 S2 2.925531 1_554
La1 S10 2.968478 1_455
La1 S8 2.968675 1_555
La1 S6 3.002416 1_565
La1 S5 3.041139 1_554
La1 S12 3.109660 1_565
La1 S8 3.120206 1_554
La1 S1 3.148764 1_555
La2 S13 2.925531 1_554
La2 S9 2.968478 1_565
La2 S11 2.968675 1_555
La2 S10 3.002416 1_555
La2 S2 3.041139 1_554
La2 S3 3.109660 1_555
La2 S11 3.120206 1_554
La2 S1 3.148773 1_555
La3 S3 2.925531 1_555
La3 S8 2.968478 1_545
La3 S6 2.968675 1_556
La3 S7 3.002416 1_555
La3 S12 3.041139 1_555
La3 S13 3.109660 1_555
La3 S6 3.120206 1_555
La3 S0 3.148773 1_555
La4 S12 2.925531 1_555
La4 S7 2.968478 1_655
La4 S9 2.968675 1_556
La4 S11 3.002416 1_545
La4 S4 3.041139 1_555
La4 S2 3.109660 1_545
La4 S9 3.120206 1_555
La4 S0 3.148764 1_555
La5 S5 2.925531 1_554
La5 S6 2.968477 1_555
La5 S7 2.968675 1_555
La5 S9 3.002417 1_455
La5 S13 3.041139 1_554
La5 S4 3.109660 1_455
La5 S7 3.120206 1_554
La5 S1 3.148771 1_555
Ag0 S8 2.462488 1_545
Ag0 S7 2.462488 1_555
Ag0 S11 2.462488 1_445
Ag1 S9 2.462488 1_455
Ag1 S10 2.462488 1_445
Ag1 S6 2.462488 1_555
S0 Si0 2.116091 1_556
S1 Si1 2.116091 1_555
S2 Si1 2.151562 1_555
S3 Si0 2.151569 1_555
S4 Si0 2.151560 1_555
S5 Si1 2.151560 1_555
S12 Si0 2.151562 1_555
S13 Si1 2.151569 1_555
