# generated using pymatgen
data_Li7ReN4
_symmetry_space_group_name_H-M   'P 1'
_cell_length_a   9.84369762
_cell_length_b   9.84369762
_cell_length_c   9.84369762
_cell_angle_alpha   90.00000000
_cell_angle_beta   90.00000000
_cell_angle_gamma   90.00000000
_symmetry_Int_Tables_number   1
_chemical_formula_structural   Li7ReN4
_chemical_formula_sum   'Li56 Re8 N32'
_cell_volume   953.83838048
_cell_formula_units_Z   8
loop_
 _symmetry_equiv_pos_site_id
 _symmetry_equiv_pos_as_xyz
  1  'x, y, z'
loop_
 _atom_site_type_symbol
 _atom_site_label
 _atom_site_symmetry_multiplicity
 _atom_site_fract_x
 _atom_site_fract_y
 _atom_site_fract_z
 _atom_site_occupancy
  Li  Li0  1  0.00000000  0.00000000  0.50000000  1
  Li  Li1  1  0.00000000  0.50000000  -0.00000000  1
  Li  Li2  1  0.50000000  0.00000000  -0.00000000  1
  Li  Li3  1  0.50000000  -0.00000000  0.50000000  1
  Li  Li4  1  0.50000000  0.50000000  -0.00000000  1
  Li  Li5  1  -0.00000000  0.50000000  0.50000000  1
  Li  Li6  1  0.00000000  0.50000000  0.25000000  1
  Li  Li7  1  0.50000000  0.75000000  -0.00000000  1
  Li  Li8  1  0.25000000  -0.00000000  0.50000000  1
  Li  Li9  1  0.50000000  0.25000000  -0.00000000  1
  Li  Li10  1  0.75000000  -0.00000000  0.50000000  1
  Li  Li11  1  -0.00000000  0.50000000  0.75000000  1
  Li  Li12  1  0.26840394  0.73159606  0.26840394  1
  Li  Li13  1  0.73159606  0.26840394  0.26840394  1
  Li  Li14  1  0.26840394  0.26840394  0.73159606  1
  Li  Li15  1  0.73159606  0.73159606  0.73159606  1
  Li  Li16  1  0.76840394  0.76840394  0.23159606  1
  Li  Li17  1  0.23159606  0.76840394  0.76840394  1
  Li  Li18  1  0.76840394  0.23159606  0.76840394  1
  Li  Li19  1  0.23159606  0.23159606  0.23159606  1
  Li  Li20  1  0.50000000  0.50000000  0.23394997  1
  Li  Li21  1  0.50000000  0.76605003  0.50000000  1
  Li  Li22  1  0.23394997  0.50000000  0.50000000  1
  Li  Li23  1  0.50000000  0.23394997  0.50000000  1
  Li  Li24  1  0.76605003  0.50000000  0.50000000  1
  Li  Li25  1  0.50000000  0.50000000  0.76605003  1
  Li  Li26  1  -0.00000000  0.73394997  -0.00000000  1
  Li  Li27  1  -0.00000000  -0.00000000  0.26605003  1
  Li  Li28  1  0.73394997  0.00000000  -0.00000000  1
  Li  Li29  1  0.00000000  0.00000000  0.73394997  1
  Li  Li30  1  0.26605003  0.00000000  -0.00000000  1
  Li  Li31  1  -0.00000000  0.26605003  -0.00000000  1
  Li  Li32  1  0.52029706  0.73484811  0.24750190  1
  Li  Li33  1  0.26515189  0.75249810  0.52029706  1
  Li  Li34  1  0.24750190  0.47970294  0.26515189  1
  Li  Li35  1  0.47970294  0.26515189  0.24750190  1
  Li  Li36  1  0.73484811  0.24750190  0.52029706  1
  Li  Li37  1  0.75249810  0.52029706  0.26515189  1
  Li  Li38  1  0.52029706  0.26515189  0.75249810  1
  Li  Li39  1  0.26515189  0.24750190  0.47970294  1
  Li  Li40  1  0.24750190  0.52029706  0.73484811  1
  Li  Li41  1  0.47970294  0.73484811  0.75249810  1
  Li  Li42  1  0.73484811  0.75249810  0.47970294  1
  Li  Li43  1  0.75249810  0.47970294  0.73484811  1
  Li  Li44  1  0.02029706  0.74750190  0.23484811  1
  Li  Li45  1  0.76515189  0.02029706  0.25249810  1
  Li  Li46  1  0.74750190  0.76515189  0.97970294  1
  Li  Li47  1  0.97970294  0.74750190  0.76515189  1
  Li  Li48  1  0.23484811  0.02029706  0.74750190  1
  Li  Li49  1  0.25249810  0.76515189  0.02029706  1
  Li  Li50  1  0.02029706  0.25249810  0.76515189  1
  Li  Li51  1  0.76515189  0.97970294  0.74750190  1
  Li  Li52  1  0.74750190  0.23484811  0.02029706  1
  Li  Li53  1  0.97970294  0.25249810  0.23484811  1
  Li  Li54  1  0.23484811  0.97970294  0.25249810  1
  Li  Li55  1  0.25249810  0.23484811  0.97970294  1
  Re  Re0  1  0.50000000  0.50000000  0.50000000  1
  Re  Re1  1  0.00000000  0.00000000  -0.00000000  1
  Re  Re2  1  0.50000000  0.00000000  0.25000000  1
  Re  Re3  1  0.00000000  0.75000000  0.50000000  1
  Re  Re4  1  0.25000000  0.50000000  -0.00000000  1
  Re  Re5  1  0.00000000  0.25000000  0.50000000  1
  Re  Re6  1  0.75000000  0.50000000  -0.00000000  1
  Re  Re7  1  0.50000000  -0.00000000  0.75000000  1
  N  N0  1  0.38604065  0.61395935  0.38604065  1
  N  N1  1  0.61395935  0.38604065  0.38604065  1
  N  N2  1  0.38604065  0.38604065  0.61395935  1
  N  N3  1  0.61395935  0.61395935  0.61395935  1
  N  N4  1  0.88604065  0.88604065  0.11395935  1
  N  N5  1  0.11395935  0.88604065  0.88604065  1
  N  N6  1  0.88604065  0.11395935  0.88604065  1
  N  N7  1  0.11395935  0.11395935  0.11395935  1
  N  N8  1  0.38811859  0.87886054  0.13894094  1
  N  N9  1  0.12113946  0.86105906  0.38811859  1
  N  N10  1  0.13894094  0.61188141  0.12113946  1
  N  N11  1  0.61188141  0.12113946  0.13894094  1
  N  N12  1  0.87886054  0.13894094  0.38811859  1
  N  N13  1  0.86105906  0.38811859  0.12113946  1
  N  N14  1  0.38811859  0.12113946  0.86105906  1
  N  N15  1  0.12113946  0.13894094  0.61188141  1
  N  N16  1  0.13894094  0.38811859  0.87886054  1
  N  N17  1  0.61188141  0.87886054  0.86105906  1
  N  N18  1  0.87886054  0.86105906  0.61188141  1
  N  N19  1  0.86105906  0.61188141  0.87886054  1
  N  N20  1  0.88811859  0.63894094  0.37886054  1
  N  N21  1  0.62113946  0.88811859  0.36105906  1
  N  N22  1  0.63894094  0.62113946  0.11188141  1
  N  N23  1  0.11188141  0.63894094  0.62113946  1
  N  N24  1  0.37886054  0.88811859  0.63894094  1
  N  N25  1  0.36105906  0.62113946  0.88811859  1
  N  N26  1  0.88811859  0.36105906  0.62113946  1
  N  N27  1  0.62113946  0.11188141  0.63894094  1
  N  N28  1  0.63894094  0.37886054  0.88811859  1
  N  N29  1  0.11188141  0.36105906  0.37886054  1
  N  N30  1  0.37886054  0.11188141  0.36105906  1
  N  N31  1  0.36105906  0.37886054  0.11188141  1
loop_
_geom_bond_atom_site_label_1
_geom_bond_atom_site_label_2
_geom_bond_distance
_geom_bond_site_symmetry_2
Li0 N18 2.122608 1_445
Li0 N15 2.122608 1_555
Li0 N12 2.122608 1_455
Li0 N9 2.122608 1_545
Li1 N19 2.122608 1_454
Li1 N10 2.122608 1_555
Li1 N13 2.122608 1_455
Li1 N16 2.122608 1_554
Li2 N11 2.122608 1_555
Li2 N17 2.122608 1_544
Li2 N8 2.122608 1_545
Li2 N14 2.122608 1_554
Li3 N21 2.122608 1_545
Li3 N24 2.122608 1_545
Li3 N30 2.122608 1_555
Li3 N27 2.122608 1_555
Li4 N25 2.122608 1_554
Li4 N28 2.122608 1_554
Li4 N31 2.122608 1_555
Li4 N22 2.122608 1_555
Li5 N26 2.122608 1_455
Li5 N20 2.122608 1_455
Li5 N23 2.122608 1_555
Li5 N29 2.122608 1_555
Li6 N20 2.166219 1_455
Li6 N10 2.166219 1_555
Li6 N29 2.166219 1_555
Li6 N13 2.166219 1_455
Li7 N22 2.166219 1_555
Li7 N17 2.166219 1_554
Li7 N8 2.166219 1_555
Li7 N25 2.166219 1_554
Li8 N9 2.166219 1_545
Li8 N24 2.166219 1_545
Li8 N15 2.166219 1_555
Li8 N30 2.166219 1_555
Li9 N28 2.166219 1_554
Li9 N11 2.166219 1_555
Li9 N31 2.166219 1_555
Li9 N14 2.166219 1_554
Li10 N21 2.166219 1_545
Li10 N18 2.166219 1_545
Li10 N27 2.166219 1_555
Li10 N12 2.166219 1_555
Li11 N16 2.166219 1_555
Li11 N23 2.166219 1_555
Li11 N19 2.166219 1_455
Li11 N26 2.166219 1_455
Li12 N0 2.005681 1_555
Li12 N9 2.261462 1_555
Li12 N8 2.261462 1_555
Li12 N10 2.261462 1_555
Li13 N1 2.005681 1_555
Li13 N12 2.261462 1_555
Li13 N13 2.261462 1_555
Li13 N11 2.261462 1_555
Li14 N2 2.005681 1_555
Li14 N15 2.261462 1_555
Li14 N16 2.261462 1_555
Li14 N14 2.261462 1_555
Li15 N3 2.005681 1_555
Li15 N19 2.261462 1_555
Li15 N18 2.261462 1_555
Li15 N17 2.261462 1_555
Li16 N4 2.005681 1_555
Li16 N22 2.261462 1_555
Li16 N21 2.261462 1_555
Li16 N20 2.261462 1_555
Li17 N5 2.005681 1_555
Li17 N23 2.261462 1_555
Li17 N24 2.261462 1_555
Li17 N25 2.261462 1_555
Li18 N6 2.005681 1_555
Li18 N27 2.261462 1_555
Li18 N26 2.261462 1_555
Li18 N28 2.261462 1_555
Li19 N7 2.005681 1_555
Li19 N29 2.261462 1_555
Li19 N30 2.261462 1_555
Li19 N31 2.261462 1_555
Li20 N31 2.176327 1_555
Li20 N22 2.176327 1_555
Li20 N0 2.181330 1_555
Li20 N1 2.181330 1_555
Li21 N21 2.176327 1_555
Li21 N24 2.176327 1_555
Li21 N0 2.181330 1_555
Li21 N3 2.181330 1_555
Li22 N29 2.176327 1_555
Li22 N23 2.176327 1_555
Li22 N0 2.181330 1_555
Li22 N2 2.181330 1_555
Li23 N27 2.176327 1_555
Li23 N30 2.176327 1_555
Li23 N1 2.181330 1_555
Li23 N2 2.181330 1_555
Li24 N20 2.176327 1_555
Li24 N26 2.176327 1_555
Li24 N3 2.181330 1_555
Li24 N1 2.181330 1_555
Li25 N25 2.176327 1_555
Li25 N28 2.176327 1_555
Li25 N3 2.181330 1_555
Li25 N2 2.181330 1_555
Li26 N10 2.176327 1_555
Li26 N19 2.176327 1_454
Li26 N5 2.181330 1_554
Li26 N4 2.181330 1_455
Li27 N12 2.176327 1_455
Li27 N9 2.176327 1_545
Li27 N4 2.181330 1_445
Li27 N7 2.181330 1_555
Li28 N17 2.176327 1_544
Li28 N11 2.176327 1_555
Li28 N4 2.181330 1_545
Li28 N6 2.181330 1_554
Li29 N18 2.176327 1_445
Li29 N15 2.176327 1_555
Li29 N6 2.181330 1_455
Li29 N5 2.181330 1_545
Li30 N14 2.176327 1_554
Li30 N8 2.176327 1_545
Li30 N7 2.181330 1_555
Li30 N5 2.181330 1_544
Li31 N13 2.176327 1_455
Li31 N16 2.176327 1_554
Li31 N7 2.181330 1_555
Li31 N6 2.181330 1_454
Li32 N22 2.097399 1_555
Li32 N21 2.123965 1_555
Li32 N8 2.201034 1_555
Li32 N0 2.241076 1_555
Li33 N24 2.097399 1_555
Li33 N23 2.123965 1_555
Li33 N9 2.201034 1_555
Li33 N0 2.241076 1_555
Li34 N29 2.097399 1_555
Li34 N31 2.123965 1_555
Li34 N10 2.201034 1_555
Li34 N0 2.241076 1_555
Li35 N31 2.097399 1_555
Li35 N30 2.123965 1_555
Li35 N11 2.201034 1_555
Li35 N1 2.241076 1_555
Li36 N27 2.097399 1_555
Li36 N26 2.123965 1_555
Li36 N12 2.201034 1_555
Li36 N1 2.241076 1_555
Li37 N20 2.097399 1_555
Li37 N22 2.123965 1_555
Li37 N13 2.201034 1_555
Li37 N1 2.241076 1_555
Li38 N28 2.097399 1_555
Li38 N27 2.123965 1_555
Li38 N14 2.201034 1_555
Li38 N2 2.241076 1_555
Li39 N30 2.097399 1_555
Li39 N29 2.123965 1_555
Li39 N15 2.201034 1_555
Li39 N2 2.241076 1_555
Li40 N23 2.097399 1_555
Li40 N25 2.123965 1_555
Li40 N16 2.201034 1_555
Li40 N2 2.241076 1_555
Li41 N25 2.097399 1_555
Li41 N24 2.123965 1_555
Li41 N17 2.201034 1_555
Li41 N3 2.241076 1_555
Li42 N21 2.097399 1_555
Li42 N20 2.123965 1_555
Li42 N18 2.201034 1_555
Li42 N3 2.241076 1_555
Li43 N26 2.097399 1_555
Li43 N28 2.123965 1_555
Li43 N19 2.201034 1_555
Li43 N3 2.241076 1_555
Li44 N10 2.097399 1_555
Li44 N9 2.123965 1_555
Li44 N20 2.201034 1_455
Li44 N4 2.241076 1_455
Li45 N12 2.097399 1_555
Li45 N11 2.123965 1_555
Li45 N21 2.201034 1_545
Li45 N4 2.241076 1_545
Li46 N17 2.097399 1_555
Li46 N19 2.123965 1_555
Li46 N22 2.201034 1_556
Li46 N4 2.241076 1_556
Li47 N19 2.097399 1_555
Li47 N18 2.123965 1_555
Li47 N23 2.201034 1_655
Li47 N5 2.241076 1_655
Li48 N15 2.097399 1_555
Li48 N14 2.123965 1_555
Li48 N24 2.201034 1_545
Li48 N5 2.241076 1_545
Li49 N8 2.097399 1_555
Li49 N10 2.123965 1_555
Li49 N25 2.201034 1_554
Li49 N5 2.241076 1_554
Li50 N16 2.097399 1_555
Li50 N15 2.123965 1_555
Li50 N26 2.201034 1_455
Li50 N6 2.241076 1_455
Li51 N18 2.097399 1_555
Li51 N17 2.123965 1_555
Li51 N27 2.201034 1_565
Li51 N6 2.241076 1_565
Li52 N11 2.097399 1_555
Li52 N13 2.123965 1_555
Li52 N28 2.201034 1_554
Li52 N6 2.241076 1_554
Li53 N13 2.097399 1_555
Li53 N12 2.123965 1_555
Li53 N29 2.201034 1_655
Li53 N7 2.241076 1_655
Li54 N9 2.097399 1_555
Li54 N8 2.123965 1_555
Li54 N30 2.201034 1_565
Li54 N7 2.241076 1_565
Li55 N14 2.097399 1_555
Li55 N16 2.123965 1_555
Li55 N31 2.201034 1_556
Li55 N7 2.241076 1_556
N0 Re0 1.942982 1_555
N1 Re0 1.942982 1_555
N2 Re0 1.942982 1_555
N3 Re0 1.942982 1_555
N4 Re1 1.942982 1_665
N5 Re1 1.942982 1_566
N6 Re1 1.942982 1_656
N7 Re1 1.942982 1_555
N8 Re2 1.957048 1_565
N9 Re3 1.957048 1_555
N10 Re4 1.957048 1_555
N11 Re2 1.957048 1_555
N12 Re5 1.957048 1_655
N13 Re6 1.957048 1_555
N14 Re7 1.957048 1_555
N15 Re5 1.957048 1_555
N16 Re4 1.957048 1_556
N17 Re7 1.957048 1_565
N18 Re3 1.957048 1_655
N19 Re6 1.957048 1_556
N20 Re3 1.957048 1_655
N21 Re2 1.957048 1_565
N22 Re6 1.957048 1_555
N23 Re3 1.957048 1_555
N24 Re7 1.957048 1_565
N25 Re4 1.957048 1_556
N26 Re5 1.957048 1_655
N27 Re7 1.957048 1_555
N28 Re6 1.957048 1_556
N29 Re5 1.957048 1_555
N30 Re2 1.957048 1_555
N31 Re4 1.957048 1_555
