# generated using pymatgen
data_CaTmMn2O6
_symmetry_space_group_name_H-M   'P 1'
_cell_length_a   5.31266800
_cell_length_b   5.55191600
_cell_length_c   7.54314900
_cell_angle_alpha   90.00000000
_cell_angle_beta   90.00000000
_cell_angle_gamma   90.00000000
_symmetry_Int_Tables_number   1
_chemical_formula_structural   CaTmMn2O6
_chemical_formula_sum   'Ca2 Tm2 Mn4 O12'
_cell_volume   222.48884928
_cell_formula_units_Z   2
loop_
 _symmetry_equiv_pos_site_id
 _symmetry_equiv_pos_as_xyz
  1  'x, y, z'
loop_
 _atom_site_type_symbol
 _atom_site_label
 _atom_site_symmetry_multiplicity
 _atom_site_fract_x
 _atom_site_fract_y
 _atom_site_fract_z
 _atom_site_occupancy
  Ca  Ca0  1  0.51139100  0.19467900  0.50000000  1
  Ca  Ca1  1  0.01139100  0.80532100  0.00000000  1
  Tm  Tm0  1  0.98101300  0.68034800  0.50000000  1
  Tm  Tm1  1  0.48101300  0.31965200  0.00000000  1
  Mn  Mn0  1  0.49939100  0.75485400  0.74977400  1
  Mn  Mn1  1  0.99939100  0.24514600  0.24977400  1
  Mn  Mn2  1  0.49939100  0.75485400  0.25022600  1
  Mn  Mn3  1  0.99939100  0.24514600  0.75022600  1
  O  O0  1  0.38904700  0.77833200  0.50000000  1
  O  O1  1  0.08720800  0.28662800  0.50000000  1
  O  O2  1  0.58720800  0.71337200  0.00000000  1
  O  O3  1  0.88904700  0.22166800  0.00000000  1
  O  O4  1  0.70712400  0.45955700  0.70146200  1
  O  O5  1  0.80915500  0.94219300  0.30298000  1
  O  O6  1  0.30915500  0.05780700  0.19702000  1
  O  O7  1  0.20712400  0.54044300  0.79853800  1
  O  O8  1  0.30915500  0.05780700  0.80298000  1
  O  O9  1  0.20712400  0.54044300  0.20146200  1
  O  O10  1  0.70712400  0.45955700  0.29853800  1
  O  O11  1  0.80915500  0.94219300  0.69702000  1
loop_
_geom_bond_atom_site_label_1
_geom_bond_atom_site_label_2
_geom_bond_distance
_geom_bond_site_symmetry_2
Ca0 O1 2.310641 1_555
Ca0 O10 2.356541 1_555
Ca0 O4 2.356541 1_555
Ca0 O0 2.401168 1_545
Ca0 O5 2.583817 1_545
Ca0 O11 2.583817 1_545
Ca0 O8 2.637228 1_555
Ca0 O6 2.637228 1_555
Ca1 O2 2.310641 1_455
Ca1 O9 2.356541 1_555
Ca1 O7 2.356541 1_554
Ca1 O3 2.401168 1_465
Ca1 O8 2.583817 1_564
Ca1 O6 2.583817 1_565
Ca1 O5 2.637228 1_455
Ca1 O11 2.637228 1_454
Mn0 O2 1.957889 1_556
Mn0 O0 1.977476 1_555
Mn0 O11 1.987053 1_555
Mn0 O7 1.990795 1_555
Mn0 O8 2.002881 1_565
Mn0 O4 2.009631 1_555
Mn1 O1 1.957889 1_655
Mn1 O3 1.977476 1_555
Mn1 O6 1.987053 1_655
Mn1 O10 1.990795 1_555
Mn1 O5 2.002881 1_545
Mn1 O9 2.009631 1_655
Mn2 O2 1.957889 1_555
Mn2 O0 1.977476 1_555
Mn2 O5 1.987053 1_555
Mn2 O9 1.990795 1_555
Mn2 O6 2.002881 1_565
Mn2 O10 2.009631 1_555
Mn3 O1 1.957889 1_655
Mn3 O3 1.977476 1_556
Mn3 O8 1.987053 1_655
Mn3 O4 1.990795 1_555
Mn3 O11 2.002881 1_545
Mn3 O7 2.009631 1_655
O0 Tm0 2.234966 1_455
O1 Tm0 2.257534 1_455
O2 Tm1 2.257534 1_555
O3 Tm1 2.234966 1_555
O4 Tm0 2.435003 1_555
O4 Tm1 2.667857 1_556
O5 Tm0 2.270600 1_555
O6 Tm1 2.270600 1_555
O7 Tm1 2.435003 1_556
O7 Tm0 2.667857 1_455
O8 Tm1 2.270600 1_556
O9 Tm1 2.435003 1_555
O9 Tm0 2.667857 1_455
O10 Tm0 2.435003 1_555
O10 Tm1 2.667857 1_555
O11 Tm0 2.270600 1_555
