# generated using pymatgen
data_Mg6CrSb
_symmetry_space_group_name_H-M   'P 1'
_cell_length_a   5.16435400
_cell_length_b   6.21764800
_cell_length_c   10.87764300
_cell_angle_alpha   90.00000000
_cell_angle_beta   90.00000000
_cell_angle_gamma   90.00000000
_symmetry_Int_Tables_number   1
_chemical_formula_structural   Mg6CrSb
_chemical_formula_sum   'Mg12 Cr2 Sb2'
_cell_volume   349.28258869
_cell_formula_units_Z   2
loop_
 _symmetry_equiv_pos_site_id
 _symmetry_equiv_pos_as_xyz
  1  'x, y, z'
loop_
 _atom_site_type_symbol
 _atom_site_label
 _atom_site_symmetry_multiplicity
 _atom_site_fract_x
 _atom_site_fract_y
 _atom_site_fract_z
 _atom_site_occupancy
  Mg  Mg0  1  0.50000000  0.24934700  0.41648800  1
  Mg  Mg1  1  0.50000000  0.75065300  0.41648800  1
  Mg  Mg2  1  0.00000000  0.75802100  0.08304500  1
  Mg  Mg3  1  0.00000000  0.24197900  0.08304500  1
  Mg  Mg4  1  0.00000000  0.00000000  0.33065800  1
  Mg  Mg5  1  0.00000000  0.50000000  0.33560100  1
  Mg  Mg6  1  0.50000000  0.74934700  0.91648800  1
  Mg  Mg7  1  0.50000000  0.25065300  0.91648800  1
  Mg  Mg8  1  0.00000000  0.25802100  0.58304500  1
  Mg  Mg9  1  0.00000000  0.74197900  0.58304500  1
  Mg  Mg10  1  0.00000000  0.50000000  0.83065800  1
  Mg  Mg11  1  0.00000000  0.00000000  0.83560100  1
  Cr  Cr0  1  0.50000000  0.00000000  0.16705800  1
  Cr  Cr1  1  0.50000000  0.50000000  0.66705800  1
  Sb  Sb0  1  0.50000000  0.50000000  0.16761200  1
  Sb  Sb1  1  0.50000000  0.00000000  0.66761200  1
loop_
_geom_bond_atom_site_label_1
_geom_bond_atom_site_label_2
_geom_bond_distance
_geom_bond_site_symmetry_2
Mg0 Mg1 3.100704 1_545
Mg0 Mg1 3.116944 1_555
Mg0 Sb0 3.123729 1_555
Mg0 Sb1 3.140929 1_555
Mg0 Mg5 3.141755 1_655
Mg0 Mg5 3.141755 1_555
Mg0 Mg4 3.153235 1_655
Mg0 Mg4 3.153235 1_555
Mg0 Mg8 3.154834 1_655
Mg0 Mg8 3.154834 1_555
Mg1 Sb0 3.123729 1_555
Mg1 Sb1 3.140929 1_565
Mg1 Mg5 3.141755 1_655
Mg1 Mg5 3.141755 1_555
Mg1 Mg4 3.153235 1_565
Mg1 Mg4 3.153235 1_665
Mg1 Mg9 3.154834 1_555
Mg1 Mg9 3.154834 1_655
Mg2 Mg3 3.009080 1_565
Mg2 Mg4 3.085173 1_565
Mg2 Mg6 3.154834 1_454
Mg2 Mg6 3.154834 1_554
Mg2 Sb0 3.176092 1_455
Mg2 Sb0 3.176092 1_555
Mg2 Mg5 3.181338 1_555
Mg2 Mg3 3.208568 1_555
Mg3 Mg4 3.085173 1_555
Mg3 Mg7 3.154834 1_554
Mg3 Mg7 3.154834 1_454
Mg3 Sb0 3.176092 1_455
Mg3 Sb0 3.176092 1_555
Mg3 Mg5 3.181338 1_555
Mg4 Mg5 3.109289 1_545
Mg4 Mg5 3.109289 1_555
Mg4 Mg9 3.179751 1_545
Mg4 Mg8 3.179751 1_555
Mg5 Mg9 3.083568 1_555
Mg5 Mg8 3.083568 1_555
Mg5 Sb0 3.163345 1_455
Mg5 Sb0 3.163345 1_555
Mg6 Mg7 3.100704 1_555
Mg6 Mg7 3.116944 1_565
Mg6 Sb1 3.123729 1_565
Mg6 Sb0 3.140929 1_556
Mg7 Sb1 3.123729 1_555
Mg7 Sb0 3.140929 1_556
Mg8 Mg9 3.009080 1_555
Mg8 Sb1 3.176092 1_455
Mg8 Sb1 3.176092 1_555
Mg8 Mg9 3.208568 1_545
Mg9 Sb1 3.176092 1_465
Mg9 Sb1 3.176092 1_565
Mg10 Mg8 3.085173 1_555
Mg10 Mg9 3.085173 1_555
Mg10 Mg11 3.109289 1_565
Mg10 Mg11 3.109289 1_555
Mg10 Mg6 3.153235 1_455
Mg10 Mg6 3.153235 1_555
Mg10 Mg7 3.153235 1_455
Mg10 Mg7 3.153235 1_555
Mg10 Mg2 3.179751 1_556
Mg10 Mg3 3.179751 1_556
Mg11 Mg3 3.083568 1_556
Mg11 Mg2 3.083568 1_546
Mg11 Mg7 3.141755 1_455
Mg11 Mg6 3.141755 1_545
Mg11 Mg7 3.141755 1_555
Mg11 Mg6 3.141755 1_445
Mg11 Sb1 3.163345 1_455
Mg11 Sb1 3.163345 1_555
Mg11 Mg9 3.181338 1_545
Mg11 Mg8 3.181338 1_555
Cr0 Sb0 3.108830 1_545
Cr0 Sb0 3.108830 1_555
Cr0 Mg1 3.124916 1_545
Cr0 Mg0 3.124916 1_555
Cr0 Mg3 3.125128 1_655
Cr0 Mg3 3.125128 1_555
Cr0 Mg2 3.125128 1_545
Cr0 Mg2 3.125128 1_645
Cr0 Mg4 3.136009 1_655
Cr0 Mg4 3.136009 1_555
Cr0 Mg7 3.139712 1_554
Cr0 Mg6 3.139712 1_544
Cr1 Sb1 3.108830 1_565
Cr1 Sb1 3.108830 1_555
Cr1 Mg6 3.124916 1_555
Cr1 Mg7 3.124916 1_555
Cr1 Mg8 3.125128 1_555
Cr1 Mg8 3.125128 1_655
Cr1 Mg9 3.125128 1_655
Cr1 Mg9 3.125128 1_555
Cr1 Mg10 3.136009 1_555
Cr1 Mg10 3.136009 1_655
Cr1 Mg0 3.139712 1_555
Cr1 Mg1 3.139712 1_555
