# generated using pymatgen
data_MgVO2
_symmetry_space_group_name_H-M   'P 1'
_cell_length_a   8.53076651
_cell_length_b   8.53076651
_cell_length_c   11.17020088
_cell_angle_alpha   49.18452994
_cell_angle_beta   49.18452994
_cell_angle_gamma   20.33800397
_symmetry_Int_Tables_number   1
_chemical_formula_structural   MgVO2
_chemical_formula_sum   'Mg4 V4 O8'
_cell_volume   211.24242849
_cell_formula_units_Z   4
loop_
 _symmetry_equiv_pos_site_id
 _symmetry_equiv_pos_as_xyz
  1  'x, y, z'
loop_
 _atom_site_type_symbol
 _atom_site_label
 _atom_site_symmetry_multiplicity
 _atom_site_fract_x
 _atom_site_fract_y
 _atom_site_fract_z
 _atom_site_occupancy
  Mg  Mg0  1  0.64534200  0.64534200  0.27852800  1
  Mg  Mg1  1  0.35465800  0.35465800  0.72147200  1
  Mg  Mg2  1  0.93056900  0.93056900  0.36393000  1
  Mg  Mg3  1  0.06943100  0.06943100  0.63607000  1
  V  V0  1  0.36912900  0.36912900  0.96832600  1
  V  V1  1  0.76146300  0.76146300  0.35958300  1
  V  V2  1  0.23853700  0.23853700  0.64041700  1
  V  V3  1  0.63087100  0.63087100  0.03167400  1
  O  O0  1  0.19415100  0.19415100  0.87694400  1
  O  O1  1  0.65001500  0.65001500  0.63376300  1
  O  O2  1  0.34998500  0.34998500  0.36623700  1
  O  O3  1  0.80584900  0.80584900  0.12305600  1
  O  O4  1  0.91392500  0.91392500  0.79092100  1
  O  O5  1  0.14385200  0.14385200  0.40604400  1
  O  O6  1  0.08607500  0.08607500  0.20907900  1
  O  O7  1  0.85614800  0.85614800  0.59395600  1
loop_
_geom_bond_atom_site_label_1
_geom_bond_atom_site_label_2
_geom_bond_distance
_geom_bond_site_symmetry_2
Mg0 O3 2.016066 1_555
Mg0 O5 2.061689 1_565
Mg0 O5 2.061689 1_655
Mg0 O6 2.210497 1_565
Mg0 O6 2.210497 1_655
Mg1 O0 2.016066 1_555
Mg1 O7 2.061689 1_545
Mg1 O7 2.061689 1_455
Mg1 O4 2.210497 1_455
Mg1 O4 2.210497 1_545
Mg2 O6 1.952572 1_665
Mg2 O7 1.974606 1_555
Mg2 O2 2.013493 1_565
Mg2 O2 2.013493 1_655
Mg3 O4 1.952572 1_445
Mg3 O5 1.974606 1_555
Mg3 O1 2.013493 1_545
Mg3 O1 2.013493 1_455
O0 V3 1.986355 1_456
O0 V3 1.986355 1_546
O0 V2 2.218222 1_555
O1 V2 2.151896 1_655
O1 V2 2.151896 1_565
O1 V1 2.295621 1_555
O2 V1 2.151896 1_545
O2 V1 2.151896 1_455
O2 V2 2.295621 1_555
O3 V0 1.986355 1_654
O3 V0 1.986355 1_564
O3 V1 2.218222 1_555
O4 V0 2.186637 1_655
O4 V0 2.186637 1_565
O5 V1 2.253313 1_545
O5 V1 2.253313 1_455
O6 V3 2.186637 1_455
O6 V3 2.186637 1_545
O7 V2 2.253313 1_655
O7 V2 2.253313 1_565
