# generated using pymatgen
data_Cs2TeS3
_symmetry_space_group_name_H-M   'P 1'
_cell_length_a   13.04306200
_cell_length_b   10.28482400
_cell_length_c   17.64484534
_cell_angle_alpha   55.49756279
_cell_angle_beta   90.00000000
_cell_angle_gamma   90.00000000
_symmetry_Int_Tables_number   1
_chemical_formula_structural   Cs2TeS3
_chemical_formula_sum   'Cs16 Te8 S24'
_cell_volume   1950.63178572
_cell_formula_units_Z   8
loop_
 _symmetry_equiv_pos_site_id
 _symmetry_equiv_pos_as_xyz
  1  'x, y, z'
loop_
 _atom_site_type_symbol
 _atom_site_label
 _atom_site_symmetry_multiplicity
 _atom_site_fract_x
 _atom_site_fract_y
 _atom_site_fract_z
 _atom_site_occupancy
  Cs  Cs0  1  0.91238500  0.69694600  0.87669200  1
  Cs  Cs1  1  0.58761500  0.69694600  0.37669200  1
  Cs  Cs2  1  0.08761500  0.30305400  0.12330800  1
  Cs  Cs3  1  0.41238500  0.30305400  0.62330800  1
  Cs  Cs4  1  0.72757000  0.87762500  0.08402200  1
  Cs  Cs5  1  0.77243000  0.87762500  0.58402200  1
  Cs  Cs6  1  0.27243000  0.12237500  0.91597800  1
  Cs  Cs7  1  0.22757000  0.12237500  0.41597800  1
  Cs  Cs8  1  0.85093900  0.38069100  0.59880700  1
  Cs  Cs9  1  0.64906100  0.38069100  0.09880700  1
  Cs  Cs10  1  0.14906100  0.61930900  0.40119300  1
  Cs  Cs11  1  0.35093900  0.61930900  0.90119300  1
  Cs  Cs12  1  0.63386500  0.33163000  0.84855500  1
  Cs  Cs13  1  0.86613500  0.33163000  0.34855500  1
  Cs  Cs14  1  0.36613500  0.66837000  0.15144500  1
  Cs  Cs15  1  0.13386500  0.66837000  0.65144500  1
  Te  Te0  1  0.96424600  0.29463600  0.88526900  1
  Te  Te1  1  0.53575400  0.29463600  0.38526900  1
  Te  Te2  1  0.03575400  0.70536400  0.11473100  1
  Te  Te3  1  0.46424600  0.70536400  0.61473100  1
  Te  Te4  1  0.60965300  0.94949100  0.80447700  1
  Te  Te5  1  0.89034700  0.94949100  0.30447700  1
  Te  Te6  1  0.39034700  0.05050900  0.19552300  1
  Te  Te7  1  0.10965300  0.05050900  0.69552300  1
  S  S0  1  0.88198500  0.50279100  0.75096700  1
  S  S1  1  0.61801500  0.50279100  0.25096700  1
  S  S2  1  0.11801500  0.49720900  0.24903300  1
  S  S3  1  0.38198500  0.49720900  0.74903300  1
  S  S4  1  0.88887600  0.57837700  0.10618600  1
  S  S5  1  0.61112400  0.57837700  0.60618600  1
  S  S6  1  0.11112400  0.42162300  0.89381400  1
  S  S7  1  0.38887600  0.42162300  0.39381400  1
  S  S8  1  0.64201700  0.25083400  0.50661600  1
  S  S9  1  0.85798300  0.25083400  0.00661600  1
  S  S10  1  0.35798300  0.74916600  0.49338400  1
  S  S11  1  0.14201700  0.74916600  0.99338400  1
  S  S12  1  0.64019600  0.69798000  0.83364300  1
  S  S13  1  0.85980400  0.69798000  0.33364300  1
  S  S14  1  0.35980400  0.30202000  0.16635700  1
  S  S15  1  0.14019600  0.30202000  0.66635700  1
  S  S16  1  0.51000000  0.90041900  0.93039600  1
  S  S17  1  0.99000000  0.90041900  0.43039600  1
  S  S18  1  0.49000000  0.09958100  0.06960400  1
  S  S19  1  0.01000000  0.09958100  0.56960400  1
  S  S20  1  0.76840900  0.03681800  0.82487000  1
  S  S21  1  0.73159100  0.03681800  0.32487000  1
  S  S22  1  0.23159100  0.96318200  0.17513000  1
  S  S23  1  0.26840900  0.96318200  0.67513000  1
loop_
_geom_bond_atom_site_label_1
_geom_bond_atom_site_label_2
_geom_bond_distance
_geom_bond_site_symmetry_2
Cs0 S4 3.519145 1_556
Cs0 S20 3.600035 1_565
Cs0 S12 3.629285 1_555
Cs0 S6 3.722857 1_655
Cs0 S0 3.752915 1_555
Cs0 S11 3.840757 1_655
Cs0 S9 3.859320 1_556
Cs0 Te7 4.110121 1_665
Cs1 S5 3.519145 1_555
Cs1 S21 3.600035 1_565
Cs1 S13 3.629285 1_555
Cs1 S7 3.722857 1_555
Cs1 S1 3.752915 1_555
Cs1 S10 3.840757 1_555
Cs1 S8 3.859320 1_555
Cs1 Te6 4.110121 1_565
Cs2 S6 3.519145 1_554
Cs2 S22 3.600035 1_545
Cs2 S14 3.629285 1_555
Cs2 S4 3.722857 1_455
Cs2 S2 3.752915 1_555
Cs2 S9 3.840757 1_455
Cs2 S11 3.859320 1_554
Cs2 Te5 4.110121 1_445
Cs3 S7 3.519145 1_555
Cs3 S23 3.600035 1_545
Cs3 S15 3.629285 1_555
Cs3 S5 3.722857 1_555
Cs3 S3 3.752915 1_555
Cs3 S8 3.840757 1_555
Cs3 S10 3.859320 1_555
Cs3 Te4 4.110121 1_545
Cs4 S4 3.562048 1_555
Cs4 S1 3.565929 1_555
Cs4 S9 3.681420 1_565
Cs4 S18 3.770869 1_565
Cs4 S16 3.838745 1_554
Cs4 S20 3.923308 1_564
Cs4 S13 4.070501 1_555
Cs5 S5 3.562048 1_555
Cs5 S0 3.565929 1_555
Cs5 S8 3.681420 1_565
Cs5 S19 3.770869 1_665
Cs5 S17 3.838745 1_555
Cs5 S21 3.923308 1_565
Cs5 S12 4.070501 1_555
Cs6 S6 3.562048 1_555
Cs6 S3 3.565929 1_555
Cs6 S11 3.681420 1_545
Cs6 S16 3.770869 1_545
Cs6 S18 3.838745 1_556
Cs6 S22 3.923308 1_546
Cs6 S15 4.070501 1_555
Cs7 S7 3.562048 1_555
Cs7 S2 3.565929 1_555
Cs7 S10 3.681420 1_545
Cs7 S17 3.770869 1_445
Cs7 S19 3.838745 1_555
Cs7 S23 3.923308 1_545
Cs7 S14 4.070501 1_555
Cs8 S0 3.573359 1_555
Cs8 S20 3.687253 1_555
Cs8 S5 3.772865 1_555
Cs8 S8 3.783731 1_555
Cs8 S19 3.823118 1_655
Cs8 S15 3.900868 1_655
Cs8 S13 3.905928 1_555
Cs9 S1 3.573359 1_555
Cs9 S21 3.687253 1_555
Cs9 S4 3.772865 1_555
Cs9 S9 3.783731 1_555
Cs9 S18 3.823118 1_555
Cs9 S14 3.900868 1_555
Cs9 S12 3.905928 1_554
Cs10 S2 3.573359 1_555
Cs10 S22 3.687253 1_555
Cs10 S7 3.772865 1_555
Cs10 S10 3.783731 1_555
Cs10 S17 3.823118 1_455
Cs10 S13 3.900868 1_455
Cs10 S15 3.905928 1_555
Cs11 S3 3.573359 1_555
Cs11 S23 3.687253 1_555
Cs11 S6 3.772865 1_555
Cs11 S11 3.783731 1_555
Cs11 S16 3.823118 1_555
Cs11 S12 3.900868 1_555
Cs11 S14 3.905928 1_556
Cs12 S5 3.538664 1_555
Cs12 S0 3.619830 1_555
Cs12 S12 3.626234 1_555
Cs12 S3 3.659100 1_555
Cs12 S20 3.726034 1_555
Cs12 S18 3.726153 1_556
Cs12 S9 3.793194 1_556
Cs12 S16 4.136261 1_545
Cs13 S4 3.538664 1_555
Cs13 S1 3.619830 1_555
Cs13 S13 3.626234 1_555
Cs13 S2 3.659100 1_655
Cs13 S21 3.726034 1_555
Cs13 S19 3.726153 1_655
Cs13 S8 3.793194 1_555
Cs13 S17 4.136261 1_545
Cs14 S7 3.538664 1_555
Cs14 S2 3.619830 1_555
Cs14 S14 3.626234 1_555
Cs14 S1 3.659100 1_555
Cs14 S22 3.726034 1_555
Cs14 S16 3.726153 1_554
Cs14 S11 3.793194 1_554
Cs14 S18 4.136261 1_565
Cs15 S6 3.538664 1_555
Cs15 S3 3.619830 1_555
Cs15 S15 3.626234 1_555
Cs15 S0 3.659100 1_455
Cs15 S23 3.726034 1_555
Cs15 S17 3.726153 1_455
Cs15 S10 3.793194 1_555
Cs15 S19 4.136261 1_565
S0 Te0 2.366995 1_555
S1 Te1 2.366995 1_555
S2 Te2 2.366995 1_555
S3 Te3 2.366995 1_555
S4 Te2 2.370994 1_655
S5 Te3 2.370994 1_555
S6 Te0 2.370994 1_455
S7 Te1 2.370994 1_555
S8 Te1 2.369745 1_555
S9 Te0 2.369745 1_554
S10 Te3 2.369745 1_555
S11 Te2 2.369745 1_556
S12 Te4 2.367845 1_555
S13 Te5 2.367845 1_555
S14 Te6 2.367845 1_555
S15 Te7 2.367845 1_555
S16 Te4 2.368604 1_555
S17 Te5 2.368604 1_555
S18 Te6 2.368604 1_555
S19 Te7 2.368604 1_555
S20 Te4 2.364300 1_545
S21 Te5 2.364300 1_545
S22 Te6 2.364300 1_565
S23 Te7 2.364300 1_565
