# generated using pymatgen
data_Na4NiP2O7F2
_symmetry_space_group_name_H-M   'P 1'
_cell_length_a   7.15737300
_cell_length_b   9.25416671
_cell_length_c   14.46434914
_cell_angle_alpha   79.73464619
_cell_angle_beta   75.67491355
_cell_angle_gamma   67.24827818
_symmetry_Int_Tables_number   1
_chemical_formula_structural   Na4NiP2O7F2
_chemical_formula_sum   'Na16 Ni4 P8 O28 F8'
_cell_volume   852.37806488
_cell_formula_units_Z   4
loop_
 _symmetry_equiv_pos_site_id
 _symmetry_equiv_pos_as_xyz
  1  'x, y, z'
loop_
 _atom_site_type_symbol
 _atom_site_label
 _atom_site_symmetry_multiplicity
 _atom_site_fract_x
 _atom_site_fract_y
 _atom_site_fract_z
 _atom_site_occupancy
  Na  Na0  1  0.73356600  0.64965000  0.88321500  1
  Na  Na1  1  0.73356600  0.14965000  0.38321500  1
  Na  Na2  1  0.23356500  0.64965000  0.88321500  1
  Na  Na3  1  0.23356400  0.14965000  0.38321500  1
  Na  Na4  1  0.26643500  0.35034900  0.11678500  1
  Na  Na5  1  0.26643400  0.85035000  0.61678500  1
  Na  Na6  1  0.76643500  0.35035000  0.11678500  1
  Na  Na7  1  0.76643600  0.85035000  0.61678500  1
  Na  Na8  1  0.86120700  0.68389400  0.09365900  1
  Na  Na9  1  0.86120900  0.18389400  0.59366000  1
  Na  Na10  1  0.36122200  0.48245500  0.29511100  1
  Na  Na11  1  0.36122600  0.98245500  0.79511100  1
  Na  Na12  1  0.13879300  0.31610600  0.90634100  1
  Na  Na13  1  0.13878900  0.81610700  0.40634100  1
  Na  Na14  1  0.63877700  0.51754400  0.70488900  1
  Na  Na15  1  0.63877300  0.01754400  0.20488900  1
  Ni  Ni0  1  0.00000100  0.49999800  0.49999900  1
  Ni  Ni1  1  0.49999800  0.00000200  0.00000100  1
  Ni  Ni2  1  0.00000000  0.00000000  0.00000100  1
  Ni  Ni3  1  0.49999900  0.50000100  0.50000100  1
  P  P0  1  0.15286300  0.50569300  0.68855800  1
  P  P1  1  0.15287000  0.00569400  0.18855900  1
  P  P2  1  0.65287500  0.28568900  0.90857000  1
  P  P3  1  0.65288400  0.78568900  0.40857000  1
  P  P4  1  0.84713700  0.49430700  0.31144200  1
  P  P5  1  0.84713000  0.99430600  0.81144100  1
  P  P6  1  0.34712500  0.71431100  0.09143000  1
  P  P7  1  0.34711600  0.21431100  0.59143000  1
  O  O0  1  0.25000100  0.31090400  0.68910200  1
  O  O1  1  0.24999500  0.81090400  0.18910200  1
  O  O2  1  0.75000000  0.68909600  0.31089800  1
  O  O3  1  0.75000500  0.18909600  0.81089800  1
  O  O4  1  0.41447300  0.54170100  0.12934600  1
  O  O5  1  0.41447200  0.04170100  0.62934500  1
  O  O6  1  0.91446800  0.46486700  0.20618300  1
  O  O7  1  0.91447400  0.96486700  0.70618300  1
  O  O8  1  0.58552700  0.45829900  0.87065400  1
  O  O9  1  0.58552800  0.95829900  0.37065500  1
  O  O10  1  0.08553200  0.53513200  0.79381600  1
  O  O11  1  0.08552700  0.03513300  0.29381700  1
  O  O12  1  0.97077200  0.56462300  0.63570900  1
  O  O13  1  0.97077700  0.06463400  0.13570900  1
  O  O14  1  0.82888300  0.23588700  0.96446000  1
  O  O15  1  0.82889700  0.73588400  0.46445700  1
  O  O16  1  0.47077700  0.23588800  0.96445600  1
  O  O17  1  0.47078500  0.73589100  0.46446000  1
  O  O18  1  0.32887300  0.56462700  0.63571400  1
  O  O19  1  0.32888700  0.06461900  0.13571300  1
  O  O20  1  0.02922800  0.43537700  0.36429100  1
  O  O21  1  0.02922300  0.93536600  0.86429100  1
  O  O22  1  0.17111700  0.76411200  0.03554000  1
  O  O23  1  0.17110300  0.26411600  0.53554300  1
  O  O24  1  0.52922300  0.76411300  0.03554400  1
  O  O25  1  0.52921500  0.26410900  0.53554000  1
  O  O26  1  0.67112700  0.43537300  0.36428600  1
  O  O27  1  0.67111300  0.93538100  0.86428600  1
  F  F0  1  0.25001100  0.55806800  0.44193300  1
  F  F1  1  0.24999900  0.05806700  0.94193300  1
  F  F2  1  0.74998900  0.44193200  0.55806700  1
  F  F3  1  0.75000100  0.94193300  0.05806700  1
  F  F4  1  0.00000000  0.50000000  0.00000000  1
  F  F5  1  0.00000000  0.00000000  0.50000000  1
  F  F6  1  0.50000500  0.25000000  0.25000000  1
  F  F7  1  0.49999500  0.75000000  0.74999900  1
loop_
_geom_bond_atom_site_label_1
_geom_bond_atom_site_label_2
_geom_bond_distance
_geom_bond_site_symmetry_2
Na0 O8 2.439796 1_555
Na0 O10 2.439842 1_655
Na0 O24 2.480869 1_556
Na0 O27 2.480905 1_555
Na1 O9 2.439786 1_545
Na1 O11 2.439810 1_655
Na1 O25 2.480820 1_555
Na1 O26 2.480853 1_555
Na2 O8 2.439779 1_555
Na2 O10 2.439819 1_555
Na2 O21 2.480747 1_555
Na2 O22 2.480833 1_556
Na3 O9 2.439790 1_545
Na3 O11 2.439823 1_555
Na3 O20 2.480822 1_555
Na3 O23 2.480873 1_555
Na4 O4 2.439799 1_555
Na4 O6 2.439842 1_455
Na4 O16 2.480861 1_554
Na4 O19 2.480898 1_555
Na5 O5 2.439786 1_565
Na5 O7 2.439804 1_455
Na5 O17 2.480820 1_555
Na5 O18 2.480853 1_555
Na6 O4 2.439779 1_555
Na6 O6 2.439802 1_555
Na6 O13 2.480747 1_555
Na6 O14 2.480837 1_554
Na7 O5 2.439790 1_565
Na7 O7 2.439828 1_555
Na7 O12 2.480822 1_555
Na7 O15 2.480873 1_555
Na8 O6 2.331589 1_555
Na8 O24 2.511039 1_555
Na8 O22 2.511257 1_655
Na9 O7 2.331581 1_545
Na9 O25 2.511146 1_555
Na9 O23 2.511172 1_655
Na10 O4 2.331444 1_555
Na10 O20 2.511212 1_555
Na10 O26 2.511240 1_555
Na11 O5 2.331458 1_565
Na11 O27 2.511139 1_555
Na11 O21 2.511318 1_555
Na12 O10 2.331591 1_555
Na12 O16 2.511040 1_555
Na12 O14 2.511263 1_455
Na13 O11 2.331583 1_565
Na13 O17 2.511151 1_555
Na13 O15 2.511164 1_455
Na14 O8 2.331443 1_555
Na14 O12 2.511222 1_555
Na14 O18 2.511231 1_555
Na15 O9 2.331457 1_545
Na15 O19 2.511139 1_555
Na15 O13 2.511329 1_555
Ni0 O20 2.091146 1_555
Ni0 O23 2.091159 1_555
Ni0 O15 2.091185 1_455
Ni0 O12 2.091186 1_455
Ni1 O19 2.091185 1_555
Ni1 O27 2.091237 1_544
Ni1 O16 2.091249 1_554
Ni1 O24 2.091266 1_545
Ni2 O13 2.091203 1_455
Ni2 O14 2.091212 1_454
Ni2 O22 2.091213 1_545
Ni2 O21 2.091231 1_544
Ni3 O18 2.091242 1_555
Ni3 O26 2.091275 1_555
Ni3 O17 2.091292 1_555
Ni3 O25 2.091304 1_555
O0 P0 1.661661 1_555
O0 P7 1.661823 1_555
O1 P1 1.661671 1_565
O1 P6 1.661823 1_555
O2 P4 1.661661 1_555
O2 P3 1.661823 1_555
O3 P5 1.661671 1_545
O3 P2 1.661823 1_555
O4 P6 1.519117 1_555
O5 P7 1.519114 1_555
O6 P4 1.519109 1_555
O7 P5 1.519093 1_555
O8 P2 1.519117 1_555
O9 P3 1.519114 1_555
O10 P0 1.519093 1_555
O11 P1 1.519093 1_555
O12 P0 1.541103 1_655
O13 P1 1.541118 1_655
O14 P2 1.541106 1_555
O15 P3 1.541103 1_555
O16 P2 1.541107 1_555
O17 P3 1.541113 1_555
O18 P0 1.541121 1_555
O19 P1 1.541121 1_555
O20 P4 1.541103 1_455
O21 P5 1.541118 1_455
O22 P6 1.541107 1_555
O23 P7 1.541103 1_555
O24 P6 1.541112 1_555
O25 P7 1.541113 1_555
O26 P4 1.541121 1_555
O27 P5 1.541118 1_555
F0 Ni3 2.008676 1_555
F0 Ni0 2.008834 1_555
F0 Na13 2.212531 1_555
F0 Na10 2.212597 1_555
F1 Ni1 2.008749 1_556
F1 Ni2 2.008753 1_556
F1 Na12 2.212531 1_555
F1 Na11 2.212594 1_545
F2 Ni3 2.008669 1_555
F2 Ni0 2.008831 1_655
F2 Na9 2.212524 1_555
F2 Na14 2.212594 1_555
F3 Ni2 2.008749 1_665
F3 Ni1 2.008752 1_565
F3 Na8 2.212531 1_555
F3 Na15 2.212591 1_565
F4 Na8 2.136892 1_455
F4 Na12 2.136892 1_554
F4 Na0 2.669354 1_454
F4 Na4 2.669360 1_555
F4 Na2 2.669366 1_554
F4 Na6 2.669366 1_455
F5 Na13 2.136886 1_545
F5 Na9 2.136902 1_455
F5 Na1 2.669354 1_455
F5 Na5 2.669354 1_545
F5 Na7 2.669361 1_445
F5 Na3 2.669361 1_555
F6 Na10 2.137003 1_555
F6 Na15 2.137011 1_555
F6 Na1 2.669303 1_555
F6 Na6 2.669333 1_555
F6 Na4 2.669346 1_555
F6 Na3 2.669386 1_555
F7 Na14 2.137006 1_555
F7 Na11 2.137009 1_555
F7 Na5 2.669291 1_555
F7 Na2 2.669340 1_555
F7 Na0 2.669362 1_555
F7 Na7 2.669379 1_555
