# generated using pymatgen
data_Rb2LiPu(Cl2O)2
_symmetry_space_group_name_H-M   'P 1'
_cell_length_a   5.17498323
_cell_length_b   7.99720035
_cell_length_c   7.99720035
_cell_angle_alpha   58.91683002
_cell_angle_beta   94.98078800
_cell_angle_gamma   94.98078800
_symmetry_Int_Tables_number   1
_chemical_formula_structural   Rb2LiPu(Cl2O)2
_chemical_formula_sum   'Rb2 Li1 Pu1 Cl4 O2'
_cell_volume   282.03384718
_cell_formula_units_Z   1
loop_
 _symmetry_equiv_pos_site_id
 _symmetry_equiv_pos_as_xyz
  1  'x, y, z'
loop_
 _atom_site_type_symbol
 _atom_site_label
 _atom_site_symmetry_multiplicity
 _atom_site_fract_x
 _atom_site_fract_y
 _atom_site_fract_z
 _atom_site_occupancy
  Rb  Rb0  1  0.78029000  0.78412600  0.78412600  1
  Rb  Rb1  1  0.21971000  0.21587400  0.21587400  1
  Li  Li0  1  0.50000000  0.00000000  0.00000000  1
  Pu  Pu0  1  0.50000000  0.50000000  0.50000000  1
  Cl  Cl0  1  0.72357000  0.88719400  0.32018600  1
  Cl  Cl1  1  0.72357000  0.32018600  0.88719400  1
  Cl  Cl2  1  0.27643000  0.11280600  0.67981400  1
  Cl  Cl3  1  0.27643000  0.67981400  0.11280600  1
  O  O0  1  0.71574400  0.40551600  0.40551600  1
  O  O1  1  0.28425600  0.59448400  0.59448400  1
loop_
_geom_bond_atom_site_label_1
_geom_bond_atom_site_label_2
_geom_bond_distance
_geom_bond_site_symmetry_2
Li0 Rb0 3.465816 1_544
Li0 Rb1 3.465816 1_555
Cl0 Li0 2.447581 1_565
Cl0 Pu0 2.839654 1_555
Cl0 Rb1 3.336625 1_665
Cl0 Rb0 3.350589 1_555
Cl0 Rb1 3.598914 1_565
Cl1 Li0 2.447581 1_556
Cl1 Pu0 2.839654 1_555
Cl1 Rb1 3.336625 1_656
Cl1 Rb0 3.350589 1_555
Cl1 Rb1 3.598914 1_556
Cl2 Li0 2.447581 1_556
Cl2 Pu0 2.839654 1_555
Cl2 Rb0 3.336625 1_445
Cl2 Rb1 3.350589 1_555
Cl2 Rb0 3.598914 1_545
Cl3 Li0 2.447581 1_565
Cl3 Pu0 2.839654 1_555
Cl3 Rb0 3.336625 1_454
Cl3 Rb1 3.350589 1_555
Cl3 Rb0 3.598914 1_554
O0 Pu0 1.808564 1_555
O0 Rb1 3.494636 1_555
O1 Pu0 1.808564 1_555
O1 Rb0 3.494636 1_555
