# generated using pymatgen
data_Cs2YbCl5
_symmetry_space_group_name_H-M   'P 1'
_cell_length_a   7.30530100
_cell_length_b   9.93933300
_cell_length_c   15.53897800
_cell_angle_alpha   90.00000000
_cell_angle_beta   90.00000000
_cell_angle_gamma   90.00000000
_symmetry_Int_Tables_number   1
_chemical_formula_structural   Cs2YbCl5
_chemical_formula_sum   'Cs8 Yb4 Cl20'
_cell_volume   1128.28238475
_cell_formula_units_Z   4
loop_
 _symmetry_equiv_pos_site_id
 _symmetry_equiv_pos_as_xyz
  1  'x, y, z'
loop_
 _atom_site_type_symbol
 _atom_site_label
 _atom_site_symmetry_multiplicity
 _atom_site_fract_x
 _atom_site_fract_y
 _atom_site_fract_z
 _atom_site_occupancy
  Cs  Cs0  1  0.25000000  0.66534100  0.91615500  1
  Cs  Cs1  1  0.75000000  0.33465900  0.08384500  1
  Cs  Cs2  1  0.75000000  0.83465900  0.41615500  1
  Cs  Cs3  1  0.25000000  0.16534100  0.58384500  1
  Cs  Cs4  1  0.25000000  0.97481100  0.21096400  1
  Cs  Cs5  1  0.75000000  0.02518900  0.78903600  1
  Cs  Cs6  1  0.75000000  0.52518900  0.71096400  1
  Cs  Cs7  1  0.25000000  0.47481100  0.28903600  1
  Yb  Yb0  1  0.25000000  0.67511800  0.56249900  1
  Yb  Yb1  1  0.75000000  0.32488200  0.43750100  1
  Yb  Yb2  1  0.75000000  0.82488200  0.06249900  1
  Yb  Yb3  1  0.25000000  0.17511800  0.93750100  1
  Cl  Cl0  1  0.25000000  0.50703700  0.69980600  1
  Cl  Cl1  1  0.75000000  0.49296300  0.30019400  1
  Cl  Cl2  1  0.75000000  0.99296300  0.19980600  1
  Cl  Cl3  1  0.25000000  0.00703700  0.80019400  1
  Cl  Cl4  1  0.51121100  0.83982600  0.62460700  1
  Cl  Cl5  1  0.48878900  0.16017400  0.37539300  1
  Cl  Cl6  1  0.48878900  0.66017400  0.12460700  1
  Cl  Cl7  1  0.01121100  0.16017400  0.37539300  1
  Cl  Cl8  1  0.51121100  0.33982600  0.87539300  1
  Cl  Cl9  1  0.98878900  0.83982600  0.62460700  1
  Cl  Cl10  1  0.98878900  0.33982600  0.87539300  1
  Cl  Cl11  1  0.01121100  0.66017400  0.12460700  1
  Cl  Cl12  1  0.25000000  0.78321200  0.40537000  1
  Cl  Cl13  1  0.75000000  0.21678800  0.59463000  1
  Cl  Cl14  1  0.75000000  0.71678800  0.90537000  1
  Cl  Cl15  1  0.25000000  0.28321200  0.09463000  1
  Cl  Cl16  1  0.00000000  0.50000000  0.50000000  1
  Cl  Cl17  1  0.00000000  0.00000000  0.00000000  1
  Cl  Cl18  1  0.50000000  0.50000000  0.50000000  1
  Cl  Cl19  1  0.50000000  0.00000000  0.00000000  1
loop_
_geom_bond_atom_site_label_1
_geom_bond_atom_site_label_2
_geom_bond_distance
_geom_bond_site_symmetry_2
Cl0 Yb0 2.709842 1_555
Cl0 Cs6 3.661211 1_555
Cl0 Cs6 3.661211 1_455
Cl0 Cs0 3.711830 1_555
Cl0 Cs3 3.844643 1_555
Cl1 Yb1 2.709842 1_555
Cl1 Cs7 3.661211 1_655
Cl1 Cs7 3.661211 1_555
Cl1 Cs1 3.711830 1_555
Cl1 Cs2 3.844643 1_555
Cl2 Yb2 2.709842 1_555
Cl2 Cs4 3.661211 1_555
Cl2 Cs4 3.661211 1_655
Cl2 Cs2 3.711830 1_555
Cl2 Cs1 3.844643 1_565
Cl3 Yb3 2.709842 1_555
Cl3 Cs5 3.661211 1_555
Cl3 Cs5 3.661211 1_455
Cl3 Cs3 3.711830 1_555
Cl3 Cs0 3.844643 1_545
Cl4 Yb0 2.693100 1_555
Cl4 Cs5 3.600795 1_565
Cl4 Cs2 3.679352 1_555
Cl4 Cs3 3.809245 1_565
Cl4 Cs6 3.824082 1_555
Cl5 Yb1 2.693100 1_555
Cl5 Cs4 3.600795 1_545
Cl5 Cs3 3.679352 1_555
Cl5 Cs2 3.809245 1_545
Cl5 Cs7 3.824082 1_555
Cl6 Yb2 2.693100 1_555
Cl6 Cs7 3.600795 1_555
Cl6 Cs0 3.679352 1_554
Cl6 Cs1 3.809245 1_555
Cl6 Cs4 3.824082 1_555
Cl7 Yb1 2.693100 1_455
Cl7 Cs4 3.600795 1_545
Cl7 Cs3 3.679352 1_555
Cl7 Cs2 3.809245 1_445
Cl7 Cs7 3.824082 1_555
Cl8 Yb3 2.693100 1_555
Cl8 Cs6 3.600795 1_555
Cl8 Cs1 3.679352 1_556
Cl8 Cs0 3.809245 1_555
Cl8 Cs5 3.824082 1_555
Cl9 Yb0 2.693100 1_655
Cl9 Cs5 3.600795 1_565
Cl9 Cs2 3.679352 1_555
Cl9 Cs3 3.809245 1_665
Cl9 Cs6 3.824082 1_555
Cl10 Yb3 2.693100 1_655
Cl10 Cs6 3.600795 1_555
Cl10 Cs1 3.679352 1_556
Cl10 Cs0 3.809245 1_655
Cl10 Cs5 3.824082 1_555
Cl11 Yb2 2.693100 1_455
Cl11 Cs7 3.600795 1_555
Cl11 Cs0 3.679352 1_554
Cl11 Cs1 3.809245 1_455
Cl11 Cs4 3.824082 1_555
Cl12 Yb0 2.667550 1_555
Cl12 Cs7 3.558635 1_555
Cl12 Cs4 3.571032 1_555
Cl12 Cs2 3.692075 1_555
Cl12 Cs2 3.692075 1_455
Cl13 Yb1 2.667550 1_555
Cl13 Cs6 3.558635 1_555
Cl13 Cs5 3.571032 1_555
Cl13 Cs3 3.692075 1_555
Cl13 Cs3 3.692075 1_655
Cl14 Yb2 2.667550 1_556
Cl14 Cs5 3.558635 1_565
Cl14 Cs6 3.571032 1_555
Cl14 Cs0 3.692075 1_555
Cl14 Cs0 3.692075 1_655
Cl15 Yb3 2.667550 1_554
Cl15 Cs4 3.558635 1_545
Cl15 Cs7 3.571032 1_555
Cl15 Cs1 3.692075 1_555
Cl15 Cs1 3.692075 1_455
Cl16 Yb0 2.703363 1_555
Cl16 Yb1 2.703363 1_455
Cl16 Cs7 3.760919 1_555
Cl16 Cs6 3.760919 1_455
Cl16 Cs3 4.012120 1_555
Cl16 Cs2 4.012120 1_455
Cl17 Yb3 2.703363 1_554
Cl17 Yb2 2.703363 1_445
Cl17 Cs4 3.760919 1_545
Cl17 Cs5 3.760919 1_454
Cl17 Cs0 4.012120 1_544
Cl17 Cs1 4.012120 1_455
Cl18 Yb0 2.703363 1_555
Cl18 Yb1 2.703363 1_555
Cl18 Cs7 3.760919 1_555
Cl18 Cs6 3.760919 1_555
Cl18 Cs3 4.012120 1_555
Cl18 Cs2 4.012120 1_555
Cl19 Yb3 2.703363 1_554
Cl19 Yb2 2.703363 1_545
Cl19 Cs5 3.760919 1_554
Cl19 Cs4 3.760919 1_545
Cl19 Cs1 4.012120 1_555
Cl19 Cs0 4.012120 1_544
