# generated using pymatgen
data_Te4Mo3W(SeS)2
_symmetry_space_group_name_H-M   'P 1'
_cell_length_a   3.39800555
_cell_length_b   3.39800555
_cell_length_c   38.69759000
_cell_angle_alpha   90.00000000
_cell_angle_beta   90.00000000
_cell_angle_gamma   119.99999126
_symmetry_Int_Tables_number   1
_chemical_formula_structural   Te4Mo3W(SeS)2
_chemical_formula_sum   'Te4 Mo3 W1 Se2 S2'
_cell_volume   386.95704416
_cell_formula_units_Z   1
loop_
 _symmetry_equiv_pos_site_id
 _symmetry_equiv_pos_as_xyz
  1  'x, y, z'
loop_
 _atom_site_type_symbol
 _atom_site_label
 _atom_site_symmetry_multiplicity
 _atom_site_fract_x
 _atom_site_fract_y
 _atom_site_fract_z
 _atom_site_occupancy
  Te  Te0  1  0.00000000  0.00000000  0.70598100  1
  Te  Te1  1  0.33333300  0.66666700  0.04550800  1
  Te  Te2  1  0.33333300  0.66666700  0.14238000  1
  Te  Te3  1  0.00000000  0.00000000  0.60912000  1
  Mo  Mo0  1  0.00000000  0.00000000  0.09391100  1
  Mo  Mo1  1  0.33333300  0.66666700  0.28178300  1
  Mo  Mo2  1  0.33333300  0.66666700  0.65758000  1
  W  W0  1  0.00000000  0.00000000  0.46963800  1
  Se  Se0  1  0.33333300  0.66666700  0.42681700  1
  Se  Se1  1  0.33333300  0.66666700  0.51245400  1
  S  S0  1  0.00000000  0.00000000  0.32059500  1
  S  S1  1  0.00000000  0.00000000  0.24298000  1
loop_
_geom_bond_atom_site_label_1
_geom_bond_atom_site_label_2
_geom_bond_distance
_geom_bond_site_symmetry_2
Mo0 Te1 2.712422 1_545
Mo0 Te1 2.712424 1_445
Mo0 Te1 2.712424 1_555
Mo0 Te2 2.714186 1_545
Mo0 Te2 2.714189 1_555
Mo0 Te2 2.714189 1_445
Mo1 S1 2.470538 1_565
Mo1 S1 2.470540 1_555
Mo1 S1 2.470540 1_665
Mo1 S0 2.470749 1_565
Mo1 S0 2.470752 1_665
Mo1 S0 2.470752 1_555
Mo2 Te0 2.712368 1_565
Mo2 Te0 2.712371 1_665
Mo2 Te0 2.712371 1_555
Mo2 Te3 2.713946 1_565
Mo2 Te3 2.713948 1_665
Mo2 Te3 2.713948 1_555
Se0 W0 2.568012 1_565
Se0 W0 2.568014 1_665
Se0 W0 2.568014 1_555
Se1 W0 2.567887 1_565
Se1 W0 2.567890 1_665
Se1 W0 2.567890 1_555
