# generated using pymatgen
data_Nd3GdAl4O12
_symmetry_space_group_name_H-M   'P 1'
_cell_length_a   7.54896800
_cell_length_b   5.32420400
_cell_length_c   5.36188040
_cell_angle_alpha   89.91148980
_cell_angle_beta   90.00000000
_cell_angle_gamma   90.00000000
_symmetry_Int_Tables_number   1
_chemical_formula_structural   Nd3GdAl4O12
_chemical_formula_sum   'Nd3 Gd1 Al4 O12'
_cell_volume   215.50575680
_cell_formula_units_Z   1
loop_
 _symmetry_equiv_pos_site_id
 _symmetry_equiv_pos_as_xyz
  1  'x, y, z'
loop_
 _atom_site_type_symbol
 _atom_site_label
 _atom_site_symmetry_multiplicity
 _atom_site_fract_x
 _atom_site_fract_y
 _atom_site_fract_z
 _atom_site_occupancy
  Nd  Nd0  1  0.00000000  0.51214600  0.49322800  1
  Nd  Nd1  1  0.00000000  0.01192900  0.00578200  1
  Nd  Nd2  1  0.50000000  0.48815600  0.50545400  1
  Gd  Gd0  1  0.50000000  0.98626800  0.99270400  1
  Al  Al0  1  0.25093400  0.00009400  0.49948500  1
  Al  Al1  1  0.74885200  0.49994100  0.00049000  1
  Al  Al2  1  0.74906600  0.00009400  0.49948500  1
  Al  Al3  1  0.25114800  0.49994100  0.00049000  1
  O  O0  1  0.21559500  0.76176600  0.23934000  1
  O  O1  1  0.78488300  0.26275500  0.26213900  1
  O  O2  1  0.71193500  0.23522800  0.76379200  1
  O  O3  1  0.28703000  0.73998800  0.74079100  1
  O  O4  1  0.28806500  0.23522800  0.76379200  1
  O  O5  1  0.71297000  0.73998800  0.74079100  1
  O  O6  1  0.78440500  0.76176600  0.23934000  1
  O  O7  1  0.21511700  0.26275500  0.26213900  1
  O  O8  1  0.00000000  0.99791200  0.56479000  1
  O  O9  1  0.00000000  0.49754500  0.93439200  1
  O  O10  1  0.50000000  0.00223500  0.42648400  1
  O  O11  1  0.50000000  0.50426700  0.06509200  1
loop_
_geom_bond_atom_site_label_1
_geom_bond_atom_site_label_2
_geom_bond_distance
_geom_bond_site_symmetry_2
Nd0 O9 2.366626 1_555
Nd0 O7 2.437323 1_555
Nd0 O1 2.437323 1_455
Nd0 O6 2.502545 1_455
Nd0 O0 2.502545 1_555
Nd0 O8 2.615212 1_555
Nd0 O8 2.764057 1_545
Nd0 O3 2.816641 1_555
Nd0 O5 2.816641 1_455
Nd0 O9 2.997540 1_554
Nd0 O4 3.000105 1_555
Nd0 O2 3.000105 1_455
Nd1 O8 2.365839 1_544
Nd1 O0 2.446621 1_545
Nd1 O6 2.446621 1_445
Nd1 O1 2.513083 1_455
Nd1 O7 2.513083 1_555
Nd1 O9 2.613116 1_554
Nd1 O9 2.765892 1_544
Nd1 O2 2.796625 1_454
Nd1 O4 2.796625 1_554
Nd1 O3 2.969248 1_544
Nd1 O5 2.969248 1_444
Nd1 O8 2.998148 1_545
Nd2 O11 2.362594 1_555
Nd2 O5 2.445395 1_555
Nd2 O3 2.445395 1_555
Nd2 O4 2.507198 1_555
Nd2 O2 2.507198 1_555
Nd2 O10 2.622209 1_555
Nd2 O10 2.768974 1_565
Nd2 O1 2.787838 1_555
Nd2 O7 2.787838 1_555
Nd2 O0 2.959921 1_555
Nd2 O6 2.959921 1_555
Nd2 O11 3.002070 1_556
Gd0 O10 2.327561 1_566
Gd0 O4 2.412077 1_565
Gd0 O2 2.412077 1_565
Gd0 O5 2.476694 1_555
Gd0 O3 2.476694 1_555
Gd0 O11 2.594865 1_556
Gd0 O11 2.785704 1_566
Gd0 O6 2.789647 1_556
Gd0 O0 2.789647 1_556
Gd0 O7 2.980877 1_566
Gd0 O1 2.980877 1_566
Gd0 O10 3.037063 1_565
Al0 O0 1.905889 1_545
Al0 O7 1.908629 1_555
Al0 O4 1.913038 1_555
Al0 O3 1.913270 1_545
Al0 O10 1.920533 1_555
Al0 O8 1.926416 1_545
Al1 O1 1.905637 1_555
Al1 O5 1.907956 1_554
Al1 O11 1.910389 1_555
Al1 O6 1.913365 1_555
Al1 O2 1.918409 1_554
Al1 O9 1.928795 1_654
Al2 O6 1.905889 1_545
Al2 O1 1.908629 1_555
Al2 O2 1.913038 1_555
Al2 O5 1.913270 1_545
Al2 O10 1.920533 1_555
Al2 O8 1.926416 1_645
Al3 O7 1.905637 1_555
Al3 O3 1.907956 1_554
Al3 O11 1.910389 1_555
Al3 O0 1.913365 1_555
Al3 O4 1.918409 1_554
Al3 O9 1.928795 1_554
