# generated using pymatgen
data_Gd2Fe17N2
_symmetry_space_group_name_H-M   'P 1'
_cell_length_a   6.41290716
_cell_length_b   6.41290716
_cell_length_c   6.46982187
_cell_angle_alpha   83.26772387
_cell_angle_beta   83.26772387
_cell_angle_gamma   83.11595956
_symmetry_Int_Tables_number   1
_chemical_formula_structural   Gd2Fe17N2
_chemical_formula_sum   'Gd2 Fe17 N2'
_cell_volume   260.89382745
_cell_formula_units_Z   1
loop_
 _symmetry_equiv_pos_site_id
 _symmetry_equiv_pos_as_xyz
  1  'x, y, z'
loop_
 _atom_site_type_symbol
 _atom_site_label
 _atom_site_symmetry_multiplicity
 _atom_site_fract_x
 _atom_site_fract_y
 _atom_site_fract_z
 _atom_site_occupancy
  Gd  Gd0  1  0.34286900  0.34286900  0.34022700  1
  Gd  Gd1  1  0.65713100  0.65713100  0.65977300  1
  Fe  Fe0  1  0.71238000  0.28762000  0.00000000  1
  Fe  Fe1  1  0.28198800  0.00099300  0.71558300  1
  Fe  Fe2  1  0.99900700  0.71801200  0.28441700  1
  Fe  Fe3  1  0.71801200  0.99900700  0.28441700  1
  Fe  Fe4  1  0.00099300  0.28198800  0.71558300  1
  Fe  Fe5  1  0.28762000  0.71238000  0.00000000  1
  Fe  Fe6  1  0.00000000  0.00000000  0.50000000  1
  Fe  Fe7  1  0.00000000  0.50000000  0.00000000  1
  Fe  Fe8  1  0.50000000  0.00000000  0.00000000  1
  Fe  Fe9  1  0.65497800  0.65497800  0.14534000  1
  Fe  Fe10  1  0.65377700  0.14820400  0.65988400  1
  Fe  Fe11  1  0.14820400  0.65377700  0.65988400  1
  Fe  Fe12  1  0.34502200  0.34502200  0.85466000  1
  Fe  Fe13  1  0.34622300  0.85179600  0.34011600  1
  Fe  Fe14  1  0.85179600  0.34622300  0.34011600  1
  Fe  Fe15  1  0.09335900  0.09335900  0.09146400  1
  Fe  Fe16  1  0.90664100  0.90664100  0.90853600  1
  N  N0  1  0.50000000  0.00000000  0.50000000  1
  N  N1  1  0.00000000  0.50000000  0.50000000  1
loop_
_geom_bond_atom_site_label_1
_geom_bond_atom_site_label_2
_geom_bond_distance
_geom_bond_site_symmetry_2
Gd0 N0 2.469571 1_555
Gd0 N1 2.469571 1_555
Gd1 N0 2.469571 1_565
Gd1 N1 2.469571 1_655
Fe0 Fe8 2.420597 1_555
Fe0 Fe7 2.420597 1_655
Fe0 Fe3 2.452355 1_545
Fe0 Fe4 2.452355 1_654
Fe0 Fe10 2.553126 1_554
Fe0 Fe14 2.553126 1_555
Fe0 Fe9 2.607682 1_555
Fe0 Fe12 2.607682 1_554
Fe0 Fe15 2.703291 1_655
Fe0 Fe16 2.703291 1_544
Fe0 Gd1 3.056906 1_554
Fe0 Gd0 3.056906 1_555
Fe1 N0 1.855495 1_555
Fe1 Fe6 2.410779 1_555
Fe1 Fe8 2.437021 1_556
Fe1 Fe5 2.452355 1_546
Fe1 Fe12 2.570018 1_555
Fe1 Fe16 2.680674 1_445
Fe1 Fe15 2.684109 1_556
Fe2 N1 1.855495 1_655
Fe2 Fe6 2.410779 1_665
Fe2 Fe7 2.437021 1_655
Fe2 Fe5 2.452355 1_655
Fe2 Fe9 2.570018 1_555
Fe3 N0 1.855495 1_565
Fe3 Fe6 2.410779 1_665
Fe3 Fe8 2.437021 1_565
Fe3 Fe9 2.570018 1_555
Fe4 N1 1.855495 1_555
Fe4 Fe6 2.410779 1_555
Fe4 Fe7 2.437021 1_556
Fe5 Fe8 2.420597 1_565
Fe5 Fe7 2.420597 1_555
Fe5 Fe9 2.607682 1_555
Fe5 Gd1 3.056906 1_554
Fe5 Gd0 3.056906 1_555
Fe6 Gd0 3.291053 1_555
Fe6 Gd1 3.291053 1_445
Fe7 Fe9 2.443706 1_455
Fe7 Gd1 3.283134 1_454
Fe7 Gd0 3.283134 1_555
Fe8 Fe9 2.443706 1_545
Fe8 Gd1 3.283134 1_544
Fe8 Gd0 3.283134 1_555
Fe9 Gd0 3.062511 1_555
Fe9 Gd1 3.138361 1_554
Fe9 Gd1 3.331590 1_555
Fe10 N0 1.907928 1_555
Fe10 Fe8 2.437931 1_556
Fe10 Fe6 2.467629 1_655
Fe10 Fe12 2.508065 1_555
Fe10 Fe16 2.653773 1_545
Fe11 N1 1.907928 1_555
Fe11 Fe7 2.437931 1_556
Fe11 Fe6 2.467629 1_565
Fe11 Fe12 2.508065 1_555
Fe11 Fe5 2.553126 1_556
Fe11 Fe16 2.653773 1_455
Fe12 Fe7 2.443706 1_556
Fe12 Fe8 2.443706 1_556
Fe12 Fe4 2.570018 1_555
Fe12 Fe5 2.607682 1_556
Fe12 Fe15 2.649809 1_556
Fe12 Gd1 3.062511 1_555
Fe12 Gd0 3.138361 1_556
Fe12 Gd0 3.331590 1_555
Fe13 N0 1.907928 1_565
Fe13 Fe8 2.437931 1_565
Fe13 Fe6 2.467629 1_565
Fe13 Fe9 2.508065 1_555
Fe13 Fe5 2.553126 1_555
Fe13 Fe15 2.653773 1_565
Fe14 N1 1.907928 1_655
Fe14 Fe7 2.437931 1_655
Fe14 Fe6 2.467629 1_655
Fe14 Fe9 2.508065 1_555
Fe14 Fe15 2.653773 1_655
Fe15 Fe16 2.297062 1_444
Fe15 Fe7 2.618392 1_555
Fe15 Fe8 2.618392 1_555
Fe15 Fe6 2.654625 1_555
Fe15 Fe3 2.680674 1_445
Fe15 Fe2 2.680674 1_445
Fe15 Fe4 2.684109 1_554
Fe15 Fe5 2.703291 1_545
Fe15 Gd0 3.087429 1_555
Fe16 Fe7 2.618392 1_656
Fe16 Fe8 2.618392 1_566
Fe16 Fe9 2.649809 1_556
Fe16 Fe6 2.654625 1_665
Fe16 Fe4 2.680674 1_665
Fe16 Fe3 2.684109 1_556
Fe16 Fe2 2.684109 1_556
Fe16 Fe5 2.703291 1_656
Fe16 Gd1 3.087429 1_555
