# generated using pymatgen
data_Ta11Al4
_symmetry_space_group_name_H-M   'P 1'
_cell_length_a   5.18449414
_cell_length_b   9.97849838
_cell_length_c   10.05857797
_cell_angle_alpha   89.47835973
_cell_angle_beta   90.00000000
_cell_angle_gamma   90.00000000
_symmetry_Int_Tables_number   1
_chemical_formula_structural   Ta11Al4
_chemical_formula_sum   'Ta22 Al8'
_cell_volume   520.34353877
_cell_formula_units_Z   2
loop_
 _symmetry_equiv_pos_site_id
 _symmetry_equiv_pos_as_xyz
  1  'x, y, z'
loop_
 _atom_site_type_symbol
 _atom_site_label
 _atom_site_symmetry_multiplicity
 _atom_site_fract_x
 _atom_site_fract_y
 _atom_site_fract_z
 _atom_site_occupancy
  Ta  Ta0  1  0.24980993  0.31878775  0.68441265  1
  Ta  Ta1  1  0.24980993  0.68121225  0.31558735  1
  Ta  Ta2  1  0.74606632  0.81818596  0.82103594  1
  Ta  Ta3  1  0.74606632  0.18181404  0.17896406  1
  Ta  Ta4  1  0.75019007  0.68121225  0.31558735  1
  Ta  Ta5  1  0.75019007  0.31878775  0.68441265  1
  Ta  Ta6  1  0.25393368  0.18181404  0.17896406  1
  Ta  Ta7  1  0.25393368  0.81818596  0.82103594  1
  Ta  Ta8  1  0.50000000  0.10336081  0.89682347  1
  Ta  Ta9  1  0.50000000  0.89663919  0.10317653  1
  Ta  Ta10  1  -0.00000000  0.60278146  0.60230420  1
  Ta  Ta11  1  -0.00000000  0.39721854  0.39769580  1
  Ta  Ta12  1  0.50000000  0.03602476  0.62977651  1
  Ta  Ta13  1  0.50000000  0.96397524  0.37022349  1
  Ta  Ta14  1  -0.00000000  0.53626923  0.87352957  1
  Ta  Ta15  1  -0.00000000  0.46373077  0.12647043  1
  Ta  Ta16  1  0.50000000  0.62833861  0.03599067  1
  Ta  Ta17  1  0.50000000  0.37166139  0.96400933  1
  Ta  Ta18  1  -0.00000000  0.87106817  0.53703033  1
  Ta  Ta19  1  -0.00000000  0.12893183  0.46296967  1
  Ta  Ta20  1  0.50000000  0.75842089  0.56590824  1
  Ta  Ta21  1  0.50000000  0.24157911  0.43409176  1
  Al  Al0  1  -0.00000000  0.26262198  0.93462180  1
  Al  Al1  1  -0.00000000  0.73737802  0.06537820  1
  Al  Al2  1  0.50000000  0.56629751  0.76395340  1
  Al  Al3  1  0.50000000  0.43370249  0.23604660  1
  Al  Al4  1  -0.00000000  0.93275453  0.26015659  1
  Al  Al5  1  -0.00000000  0.06724547  0.73984341  1
  Al  Al6  1  0.50000000  0.50000000  0.50000000  1
  Al  Al7  1  -0.00000000  -0.00000000  0.00000000  1
loop_
_geom_bond_atom_site_label_1
_geom_bond_atom_site_label_2
_geom_bond_distance
_geom_bond_site_symmetry_2
Ta0 Ta5 2.590276 1_455
Ta0 Ta5 2.594218 1_555
Ta0 Ta21 2.941267 1_555
Ta0 Ta17 3.145974 1_555
Ta0 Ta12 3.158146 1_555
Ta0 Ta14 3.174995 1_555
Ta0 Ta19 3.210075 1_555
Ta0 Ta10 3.216748 1_555
Ta0 Ta11 3.250543 1_555
Ta0 Ta8 3.284000 1_555
Ta1 Ta4 2.590276 1_455
Ta1 Ta4 2.594218 1_555
Ta1 Ta20 2.941267 1_555
Ta1 Ta16 3.145974 1_555
Ta1 Ta13 3.158146 1_555
Ta1 Ta15 3.174995 1_555
Ta1 Ta18 3.210075 1_555
Ta1 Ta11 3.216748 1_555
Ta1 Ta10 3.250543 1_555
Ta1 Ta9 3.284000 1_555
Ta2 Ta7 2.551459 1_555
Ta2 Ta7 2.633035 1_655
Ta2 Ta20 2.931979 1_555
Ta2 Ta9 3.214755 1_556
Ta2 Ta8 3.216464 1_565
Ta3 Ta6 2.551459 1_555
Ta3 Ta6 2.633035 1_655
Ta3 Ta8 3.214755 1_554
Ta3 Ta9 3.216464 1_545
Ta4 Ta9 3.284000 1_555
Ta5 Ta8 3.284000 1_555
Ta6 Ta8 3.214755 1_554
Ta6 Ta9 3.216464 1_545
Ta7 Ta9 3.214755 1_556
Ta7 Ta8 3.216464 1_565
Ta8 Ta9 2.912946 1_546
Ta10 Ta18 2.750623 1_555
Ta10 Ta14 2.801834 1_555
Ta10 Ta11 2.918900 1_555
Ta10 Ta20 3.042264 1_455
Ta10 Ta20 3.042264 1_555
Ta10 Ta5 3.216748 1_455
Ta10 Ta4 3.250543 1_455
Ta10 Ta7 3.358553 1_555
Ta10 Ta2 3.358553 1_455
Ta11 Ta19 2.750623 1_555
Ta11 Ta15 2.801834 1_555
Ta11 Ta21 3.042264 1_555
Ta11 Ta21 3.042264 1_455
Ta11 Ta4 3.216748 1_455
Ta11 Ta5 3.250543 1_455
Ta11 Ta3 3.358553 1_455
Ta11 Ta6 3.358553 1_555
Ta12 Ta13 2.714221 1_545
Ta12 Ta8 2.774803 1_555
Ta12 Ta21 2.829813 1_555
Ta12 Ta20 2.849280 1_545
Ta12 Ta5 3.158146 1_555
Ta12 Ta7 3.158691 1_545
Ta12 Ta2 3.158691 1_545
Ta12 Ta18 3.213624 1_645
Ta12 Ta18 3.213624 1_545
Ta12 Ta19 3.219632 1_655
Ta12 Ta19 3.219632 1_555
Ta13 Ta9 2.774803 1_555
Ta13 Ta20 2.829813 1_555
Ta13 Ta21 2.849280 1_565
Ta13 Ta4 3.158146 1_555
Ta13 Ta6 3.158691 1_565
Ta13 Ta3 3.158691 1_565
Ta13 Ta19 3.213624 1_565
Ta13 Ta19 3.213624 1_665
Ta13 Ta18 3.219632 1_555
Ta13 Ta18 3.219632 1_655
Ta14 Ta15 2.638839 1_556
Ta14 Ta2 3.146193 1_455
Ta14 Ta7 3.146193 1_555
Ta14 Ta5 3.174995 1_455
Ta15 Ta6 3.146193 1_555
Ta15 Ta3 3.146193 1_455
Ta15 Ta4 3.174995 1_455
Ta16 Ta17 2.667959 1_554
Ta16 Ta9 2.767172 1_555
Ta16 Ta7 3.133124 1_554
Ta16 Ta2 3.133124 1_554
Ta16 Ta4 3.145974 1_555
Ta17 Ta8 2.767172 1_555
Ta17 Ta6 3.133124 1_556
Ta17 Ta3 3.133124 1_556
Ta17 Ta5 3.145974 1_555
Ta18 Ta19 2.672236 1_565
Ta18 Ta20 2.839307 1_555
Ta18 Ta20 2.839307 1_455
Ta18 Ta2 3.185108 1_455
Ta18 Ta7 3.185108 1_555
Ta18 Ta4 3.210075 1_455
Ta19 Ta21 2.839307 1_455
Ta19 Ta21 2.839307 1_555
Ta19 Ta3 3.185108 1_455
Ta19 Ta6 3.185108 1_555
Ta19 Ta5 3.210075 1_455
Ta20 Ta7 2.931979 1_555
Ta20 Ta4 2.941267 1_555
Ta21 Ta6 2.931979 1_555
Ta21 Ta3 2.931979 1_555
Ta21 Ta5 2.941267 1_555
Al0 Al7 2.696011 1_556
Al0 Al5 2.776471 1_555
Al0 Ta14 2.793416 1_555
Al0 Ta15 2.796685 1_556
Al0 Ta17 2.827867 1_455
Al0 Ta17 2.827867 1_555
Al0 Ta0 2.880942 1_555
Al0 Ta5 2.880942 1_455
Al0 Ta3 2.896167 1_456
Al0 Ta6 2.896167 1_556
Al0 Ta8 3.066075 1_555
Al0 Ta8 3.066075 1_455
Al1 Al7 2.696011 1_565
Al1 Al4 2.776471 1_555
Al1 Ta15 2.793416 1_555
Al1 Ta14 2.796685 1_554
Al1 Ta16 2.827867 1_555
Al1 Ta16 2.827867 1_455
Al1 Ta4 2.880942 1_455
Al1 Ta1 2.880942 1_555
Al1 Ta2 2.896167 1_454
Al1 Ta7 2.896167 1_554
Al1 Ta9 3.066075 1_455
Al1 Ta9 3.066075 1_555
Al2 Al6 2.742012 1_555
Al2 Ta20 2.752094 1_555
Al2 Ta17 2.783909 1_555
Al2 Ta16 2.810958 1_556
Al2 Ta14 2.831663 1_655
Al2 Ta14 2.831663 1_555
Al2 Ta7 2.881138 1_555
Al2 Ta2 2.881138 1_555
Al2 Ta5 2.908328 1_555
Al2 Ta0 2.908328 1_555
Al2 Ta10 3.079814 1_555
Al2 Ta10 3.079814 1_655
Al3 Al6 2.742012 1_555
Al3 Ta21 2.752094 1_555
Al3 Ta16 2.783909 1_555
Al3 Ta17 2.810958 1_554
Al3 Ta15 2.831663 1_655
Al3 Ta15 2.831663 1_555
Al3 Ta6 2.881138 1_555
Al3 Ta3 2.881138 1_555
Al3 Ta1 2.908328 1_555
Al3 Ta4 2.908328 1_555
Al3 Ta11 3.079814 1_655
Al3 Ta11 3.079814 1_555
Al4 Al7 2.695543 1_565
Al4 Ta13 2.837038 1_455
Al4 Ta13 2.837038 1_555
Al4 Ta19 2.840137 1_565
Al4 Ta18 2.846692 1_555
Al4 Ta4 2.874533 1_455
Al4 Ta1 2.874533 1_555
Al4 Ta3 2.922268 1_465
Al4 Ta6 2.922268 1_565
Al4 Ta9 3.058301 1_555
Al4 Ta9 3.058301 1_455
Al5 Al7 2.695543 1_556
Al5 Ta12 2.837038 1_555
Al5 Ta12 2.837038 1_455
Al5 Ta18 2.840137 1_545
Al5 Ta19 2.846692 1_555
Al5 Ta5 2.874533 1_455
Al5 Ta0 2.874533 1_555
Al5 Ta2 2.922268 1_445
Al5 Ta7 2.922268 1_545
Al5 Ta8 3.058301 1_455
Al5 Ta8 3.058301 1_555
Al6 Ta21 2.668346 1_555
Al6 Ta20 2.668346 1_555
Al6 Ta4 2.886496 1_555
Al6 Ta1 2.886496 1_555
Al6 Ta0 2.886496 1_555
Al6 Ta5 2.886496 1_555
Al6 Ta10 2.974851 1_655
Al6 Ta11 2.974851 1_655
Al6 Ta11 2.974851 1_555
Al6 Ta10 2.974851 1_555
Al7 Ta2 2.885232 1_444
Al7 Ta7 2.885232 1_544
Al7 Ta3 2.885232 1_455
Al7 Ta6 2.885232 1_555
Al7 Ta8 2.973392 1_554
Al7 Ta9 2.973392 1_545
Al7 Ta8 2.973392 1_454
Al7 Ta9 2.973392 1_445
