# generated using pymatgen
data_NaTc12Br25
_symmetry_space_group_name_H-M   'P 1'
_cell_length_a   9.69633037
_cell_length_b   10.73674151
_cell_length_c   11.49135082
_cell_angle_alpha   84.23471255
_cell_angle_beta   74.88162850
_cell_angle_gamma   87.31600963
_symmetry_Int_Tables_number   1
_chemical_formula_structural   NaTc12Br25
_chemical_formula_sum   'Na1 Tc12 Br25'
_cell_volume   1148.81695424
_cell_formula_units_Z   1
loop_
 _symmetry_equiv_pos_site_id
 _symmetry_equiv_pos_as_xyz
  1  'x, y, z'
loop_
 _atom_site_type_symbol
 _atom_site_label
 _atom_site_symmetry_multiplicity
 _atom_site_fract_x
 _atom_site_fract_y
 _atom_site_fract_z
 _atom_site_occupancy
  Na  Na0  1  0.50000000  -0.00000000  -0.00000000  1
  Tc  Tc0  1  0.82580006  0.25094699  0.12328291  1
  Tc  Tc1  1  0.17419994  0.74905301  0.87671709  1
  Tc  Tc2  1  0.75371030  0.11872714  0.27856201  1
  Tc  Tc3  1  0.24628970  0.88127286  0.72143799  1
  Tc  Tc4  1  0.06673413  0.27163660  0.19211042  1
  Tc  Tc5  1  0.93326587  0.72836340  0.80788958  1
  Tc  Tc6  1  0.84488874  0.42748849  0.26534136  1
  Tc  Tc7  1  0.15511126  0.57251151  0.73465864  1
  Tc  Tc8  1  0.76978006  0.29715251  0.42339660  1
  Tc  Tc9  1  0.23021994  0.70284749  0.57660340  1
  Tc  Tc10  1  0.99185488  0.14215977  0.35043824  1
  Tc  Tc11  1  0.00814512  0.85784023  0.64956176  1
  Br  Br0  1  0.94328616  0.95367667  0.26084128  1
  Br  Br1  1  0.05671384  0.04632333  0.73915872  1
  Br  Br2  1  0.97186341  0.27653188  0.51833248  1
  Br  Br3  1  0.02813659  0.72346812  0.48166752  1
  Br  Br4  1  0.64453688  0.42418525  0.16596585  1
  Br  Br5  1  0.35546312  0.57581475  0.83403415  1
  Br  Br6  1  0.09204820  0.46917274  0.27898881  1
  Br  Br7  1  0.90795180  0.53082726  0.72101119  1
  Br  Br8  1  0.00000000  0.50000000  -0.00000000  1
  Br  Br9  1  0.59595682  0.96169221  0.23167131  1
  Br  Br10  1  0.40404318  0.03830779  0.76832869  1
  Br  Br11  1  0.20340611  0.02918614  0.40662541  1
  Br  Br12  1  0.79659389  0.97081386  0.59337459  1
  Br  Br13  1  0.53971841  0.21674227  0.40790677  1
  Br  Br14  1  0.46028159  0.78325773  0.59209323  1
  Br  Br15  1  0.05899143  0.15611051  0.01858371  1
  Br  Br16  1  0.94100857  0.84388949  0.98141629  1
  Br  Br17  1  0.77279337  0.64505157  0.31286628  1
  Br  Br18  1  0.22720663  0.35494843  0.68713372  1
  Br  Br19  1  0.72750578  0.20360501  0.94932956  1
  Br  Br20  1  0.27249422  0.79639499  0.05067044  1
  Br  Br21  1  0.33367290  0.25353467  0.12017401  1
  Br  Br22  1  0.66632710  0.74646533  0.87982599  1
  Br  Br23  1  0.63601419  0.41205358  0.59470374  1
  Br  Br24  1  0.36398581  0.58794642  0.40529626  1
loop_
_geom_bond_atom_site_label_1
_geom_bond_atom_site_label_2
_geom_bond_distance
_geom_bond_site_symmetry_2
Br0 Tc2 2.476476 1_565
Br0 Tc10 2.477491 1_565
Br1 Tc3 2.476476 1_545
Br1 Tc11 2.477491 1_545
Br2 Tc8 2.470747 1_555
Br2 Tc10 2.485816 1_555
Br3 Tc9 2.470747 1_555
Br3 Tc11 2.485816 1_555
Br4 Tc0 2.493348 1_555
Br4 Tc6 2.500225 1_555
Br5 Tc1 2.493348 1_555
Br5 Tc7 2.500225 1_555
Br6 Tc4 2.481355 1_555
Br6 Tc6 2.505774 1_455
Br7 Tc5 2.481355 1_555
Br7 Tc7 2.505774 1_655
Br8 Tc7 3.066913 1_554
Br8 Tc6 3.066913 1_455
Br8 Tc0 3.228643 1_455
Br8 Tc1 3.228643 1_554
Br8 Tc4 3.288318 1_555
Br8 Tc5 3.288318 1_454
Br9 Tc2 2.515324 1_565
Br9 Na0 3.026303 1_565
Br10 Tc3 2.515324 1_545
Br10 Na0 3.026303 1_556
Br11 Tc10 2.529107 1_455
Br12 Tc11 2.529107 1_655
Br13 Tc2 2.474483 1_555
Br13 Tc8 2.484286 1_555
Br14 Tc3 2.474483 1_555
Br14 Tc9 2.484286 1_555
Br15 Tc4 2.470659 1_555
Br15 Tc0 2.491660 1_455
Br16 Tc5 2.470659 1_555
Br16 Tc1 2.491660 1_655
Br17 Tc6 2.479450 1_555
Br18 Tc7 2.479450 1_555
Br19 Tc0 2.530988 1_556
Br19 Na0 3.083841 1_556
Br20 Tc1 2.530988 1_554
Br20 Na0 3.083841 1_565
Br21 Tc4 2.507913 1_555
Br21 Na0 3.331729 1_555
Br22 Tc5 2.507913 1_555
Br22 Na0 3.331729 1_566
Br23 Tc8 2.466903 1_555
Br24 Tc9 2.466903 1_555
