# generated using pymatgen
data_LiMg14Si
_symmetry_space_group_name_H-M   'P 1'
_cell_length_a   6.25036448
_cell_length_b   6.25036399
_cell_length_c   10.37982643
_cell_angle_alpha   90.00000000
_cell_angle_beta   90.00000000
_cell_angle_gamma   120.00000258
_symmetry_Int_Tables_number   1
_chemical_formula_structural   LiMg14Si
_chemical_formula_sum   'Li1 Mg14 Si1'
_cell_volume   351.18128568
_cell_formula_units_Z   1
loop_
 _symmetry_equiv_pos_site_id
 _symmetry_equiv_pos_as_xyz
  1  'x, y, z'
loop_
 _atom_site_type_symbol
 _atom_site_label
 _atom_site_symmetry_multiplicity
 _atom_site_fract_x
 _atom_site_fract_y
 _atom_site_fract_z
 _atom_site_occupancy
  Li  Li0  1  0.16666700  0.33333300  0.12500000  1
  Mg  Mg0  1  0.16854743  0.83427322  0.12500000  1
  Mg  Mg1  1  0.16509646  0.83254773  0.62500000  1
  Mg  Mg2  1  0.66572678  0.33145257  0.12500000  1
  Mg  Mg3  1  0.66745227  0.33490354  0.62500000  1
  Mg  Mg4  1  0.66572678  0.83427322  0.12500000  1
  Mg  Mg5  1  0.66745227  0.83254773  0.62500000  1
  Mg  Mg6  1  0.33124630  0.16875370  0.37670943  1
  Mg  Mg7  1  0.33124630  0.16875370  0.87329057  1
  Mg  Mg8  1  0.33124630  0.66249360  0.37670943  1
  Mg  Mg9  1  0.33124630  0.66249360  0.87329057  1
  Mg  Mg10  1  0.83750640  0.16875370  0.37670943  1
  Mg  Mg11  1  0.83750640  0.16875370  0.87329057  1
  Mg  Mg12  1  0.83333300  0.66666700  0.37278205  1
  Mg  Mg13  1  0.83333300  0.66666700  0.87721795  1
  Si  Si0  1  0.16666700  0.33333300  0.62500000  1
loop_
_geom_bond_atom_site_label_1
_geom_bond_atom_site_label_2
_geom_bond_distance
_geom_bond_site_symmetry_2
Li0 Mg0 3.125199 1_545
Li0 Mg4 3.125199 1_555
Li0 Mg4 3.125199 1_445
Li0 Mg0 3.125199 1_555
Li0 Mg2 3.125199 1_555
Li0 Mg2 3.125199 1_455
Li0 Mg7 3.162397 1_554
Li0 Mg6 3.162397 1_555
Li0 Mg9 3.162403 1_554
Li0 Mg8 3.162403 1_555
Li0 Mg10 3.162403 1_455
Li0 Mg11 3.162403 1_454
Mg0 Mg2 3.107552 1_565
Mg0 Mg4 3.107552 1_555
Mg0 Mg2 3.142812 1_455
Mg0 Mg4 3.142812 1_455
Mg0 Mg12 3.147584 1_455
Mg0 Mg13 3.147584 1_454
Mg0 Mg9 3.178837 1_554
Mg0 Mg8 3.178837 1_555
Mg0 Mg6 3.178843 1_565
Mg0 Mg7 3.178843 1_564
Mg1 Mg3 3.110457 1_455
Mg1 Mg5 3.110458 1_455
Mg1 Si0 3.125194 1_565
Mg1 Si0 3.125194 1_555
Mg1 Mg3 3.139907 1_565
Mg1 Mg5 3.139907 1_555
Mg1 Mg8 3.155009 1_555
Mg1 Mg9 3.155009 1_555
Mg1 Mg6 3.155015 1_565
Mg1 Mg7 3.155015 1_565
Mg1 Mg13 3.174714 1_455
Mg1 Mg12 3.174714 1_455
Mg2 Mg4 3.107552 1_545
Mg2 Mg4 3.142812 1_555
Mg2 Mg6 3.178843 1_555
Mg2 Mg7 3.178843 1_554
Mg3 Mg5 3.110457 1_555
Mg3 Si0 3.125194 1_555
Mg3 Si0 3.125194 1_655
Mg3 Mg5 3.139907 1_545
Mg3 Mg6 3.155015 1_555
Mg3 Mg7 3.155015 1_555
Mg4 Mg8 3.178843 1_555
Mg4 Mg9 3.178843 1_554
Mg5 Si0 3.125194 1_665
Mg5 Si0 3.125194 1_555
Mg5 Mg9 3.155015 1_555
Mg5 Mg8 3.155015 1_555
Mg6 Mg8 3.086054 1_555
Mg6 Si0 3.133142 1_555
Mg6 Mg8 3.164310 1_545
Mg7 Mg9 3.086054 1_555
Mg7 Si0 3.133142 1_555
Mg7 Mg9 3.164310 1_545
Mg8 Si0 3.133148 1_555
Mg9 Si0 3.133148 1_555
Mg10 Mg8 3.086054 1_655
Mg10 Mg6 3.086054 1_655
Mg10 Mg12 3.125530 1_545
Mg10 Mg12 3.125530 1_555
Mg10 Si0 3.133148 1_655
Mg10 Mg3 3.155009 1_555
Mg10 Mg5 3.155015 1_545
Mg10 Mg8 3.164310 1_545
Mg10 Mg6 3.164310 1_555
Mg10 Mg2 3.178837 1_555
Mg10 Mg4 3.178843 1_545
Mg11 Mg9 3.086054 1_655
Mg11 Mg7 3.086054 1_655
Mg11 Mg13 3.125530 1_545
Mg11 Mg13 3.125530 1_555
Mg11 Si0 3.133148 1_655
Mg11 Mg3 3.155009 1_555
Mg11 Mg5 3.155015 1_545
Mg11 Mg9 3.164310 1_545
Mg11 Mg7 3.164310 1_555
Mg11 Mg2 3.178837 1_556
Mg11 Mg4 3.178843 1_546
Mg12 Mg6 3.125530 1_665
Mg12 Mg6 3.125530 1_555
Mg12 Mg8 3.125530 1_655
Mg12 Mg8 3.125530 1_555
Mg12 Mg4 3.147578 1_555
Mg12 Mg2 3.147584 1_555
Mg12 Mg5 3.174707 1_555
Mg12 Mg3 3.174714 1_555
Mg13 Mg7 3.125530 1_665
Mg13 Mg7 3.125530 1_555
Mg13 Mg9 3.125530 1_555
Mg13 Mg9 3.125530 1_655
Mg13 Mg4 3.147578 1_556
Mg13 Mg2 3.147584 1_556
Mg13 Mg5 3.174707 1_555
Mg13 Mg3 3.174714 1_555
