# generated using pymatgen
data_Li4MnCo2O7
_symmetry_space_group_name_H-M   'P 1'
_cell_length_a   6.59123740
_cell_length_b   6.59123740
_cell_length_c   14.47169114
_cell_angle_alpha   69.26648416
_cell_angle_beta   69.26648416
_cell_angle_gamma   25.42495912
_symmetry_Int_Tables_number   1
_chemical_formula_structural   Li4MnCo2O7
_chemical_formula_sum   'Li8 Mn2 Co4 O14'
_cell_volume   251.52171580
_cell_formula_units_Z   2
loop_
 _symmetry_equiv_pos_site_id
 _symmetry_equiv_pos_as_xyz
  1  'x, y, z'
loop_
 _atom_site_type_symbol
 _atom_site_label
 _atom_site_symmetry_multiplicity
 _atom_site_fract_x
 _atom_site_fract_y
 _atom_site_fract_z
 _atom_site_occupancy
  Li  Li0  1  0.27955200  0.27955200  0.07412400  1
  Li  Li1  1  0.86240300  0.86240300  0.21132000  1
  Li  Li2  1  0.43110000  0.43110000  0.35340500  1
  Li  Li3  1  0.71045100  0.71045100  0.93505300  1
  Li  Li4  1  0.14512300  0.14512300  0.78458700  1
  Li  Li5  1  0.99996800  0.99996800  0.49693400  1
  Li  Li6  1  0.56844900  0.56844900  0.64861100  1
  Li  Li7  1  0.57356300  0.57356300  0.13964100  1
  Mn  Mn0  1  0.00461500  0.00461500  0.00355300  1
  Mn  Mn1  1  0.71463000  0.71463000  0.42663300  1
  Co  Co0  1  0.13251200  0.13251200  0.27543400  1
  Co  Co1  1  0.28521300  0.28521300  0.57422000  1
  Co  Co2  1  0.85726800  0.85726800  0.71417700  1
  Co  Co3  1  0.42764900  0.42764900  0.85849100  1
  O  O0  1  0.43632800  0.43632800  0.09379100  1
  O  O1  1  0.00370000  0.00370000  0.25485100  1
  O  O2  1  0.58699800  0.58699800  0.38863500  1
  O  O3  1  0.87006900  0.87006900  0.95825500  1
  O  O4  1  0.29399900  0.29399900  0.81550700  1
  O  O5  1  0.15177600  0.15177600  0.52279900  1
  O  O6  1  0.71802000  0.71802000  0.67579200  1
  O  O7  1  0.13239500  0.13239500  0.03155700  1
  O  O8  1  0.71270900  0.71270900  0.18732100  1
  O  O9  1  0.27802600  0.27802600  0.33494100  1
  O  O10  1  0.56191700  0.56191700  0.90411000  1
  O  O11  1  0.99363200  0.99363200  0.75700600  1
  O  O12  1  0.84427900  0.84427900  0.46862900  1
  O  O13  1  0.42365700  0.42365700  0.61062400  1
loop_
_geom_bond_atom_site_label_1
_geom_bond_atom_site_label_2
_geom_bond_distance
_geom_bond_site_symmetry_2
Li0 O8 2.122303 1_545
Li0 O8 2.122303 1_455
Li0 O0 2.135855 1_555
Li0 O7 2.192383 1_555
Li0 O3 2.203120 1_454
Li0 O3 2.203120 1_544
Li1 O8 2.076383 1_555
Li1 O1 2.128171 1_665
Li1 O0 2.174122 1_655
Li1 O0 2.174122 1_565
Li1 O9 2.252270 1_655
Li1 O9 2.252270 1_565
Li2 O1 2.010751 1_565
Li2 O1 2.010751 1_655
Li2 O9 2.080356 1_555
Li2 O12 2.186218 1_545
Li2 O12 2.186218 1_455
Li2 O2 2.240715 1_555
Li3 O7 2.011040 1_566
Li3 O7 2.011040 1_656
Li3 O10 2.114148 1_555
Li3 O3 2.196833 1_555
Li3 O4 2.214048 1_565
Li3 O4 2.214048 1_655
Li4 O6 2.095277 1_545
Li4 O6 2.095277 1_455
Li4 O4 2.118280 1_555
Li4 O11 2.125720 1_445
Li4 O10 2.212963 1_455
Li4 O10 2.212963 1_545
Li5 O5 2.116924 1_665
Li5 O2 2.130618 1_565
Li5 O2 2.130618 1_655
Li5 O13 2.145199 1_655
Li5 O13 2.145199 1_565
Li5 O12 2.184323 1_555
Li6 O11 2.096358 1_545
Li6 O11 2.096358 1_455
Li6 O6 2.098399 1_555
Li6 O13 2.124130 1_555
Li6 O5 2.269566 1_565
Li6 O5 2.269566 1_655
Li7 O7 2.064911 1_655
Li7 O7 2.064911 1_565
Li7 O0 2.098699 1_555
Li7 O8 2.138680 1_555
Li7 O1 2.145591 1_655
Li7 O1 2.145591 1_565
Mn0 O7 1.829639 1_555
Mn0 O0 1.935963 1_545
Mn0 O0 1.935963 1_455
Mn0 O10 1.986992 1_454
Mn0 O10 1.986992 1_544
Mn0 O3 2.060695 1_444
Mn1 O2 1.910814 1_555
Mn1 O9 1.934946 1_655
Mn1 O9 1.934946 1_565
Mn1 O5 1.969124 1_655
Mn1 O5 1.969124 1_565
Mn1 O12 1.970880 1_555
Co0 O1 1.786235 1_555
Co0 O8 1.959302 1_545
Co0 O8 1.959302 1_455
Co0 O2 2.105748 1_545
Co0 O2 2.105748 1_455
Co0 O9 2.326516 1_555
Co1 O6 2.022179 1_455
Co1 O6 2.022179 1_545
Co1 O13 2.031692 1_555
Co1 O12 2.042873 1_545
Co1 O12 2.042873 1_455
Co1 O5 2.103550 1_555
Co2 O4 2.012504 1_655
Co2 O4 2.012504 1_565
Co2 O13 2.037109 1_655
Co2 O13 2.037109 1_565
Co2 O6 2.058382 1_555
Co2 O11 2.061064 1_555
Co3 O3 1.990120 1_455
Co3 O3 1.990120 1_545
Co3 O11 2.018969 1_545
Co3 O11 2.018969 1_455
Co3 O4 2.028962 1_555
Co3 O10 2.060179 1_555
