# generated using pymatgen
data_MnO2
_symmetry_space_group_name_H-M   'P 1'
_cell_length_a   5.81891633
_cell_length_b   5.81775162
_cell_length_c   17.51616830
_cell_angle_alpha   59.97740292
_cell_angle_beta   60.23883184
_cell_angle_gamma   59.96994106
_symmetry_Int_Tables_number   1
_chemical_formula_structural   MnO2
_chemical_formula_sum   'Mn12 O24'
_cell_volume   419.88038733
_cell_formula_units_Z   12
loop_
 _symmetry_equiv_pos_site_id
 _symmetry_equiv_pos_as_xyz
  1  'x, y, z'
loop_
 _atom_site_type_symbol
 _atom_site_label
 _atom_site_symmetry_multiplicity
 _atom_site_fract_x
 _atom_site_fract_y
 _atom_site_fract_z
 _atom_site_occupancy
  Mn  Mn0  1  0.49418800  0.49421200  0.16808900  1
  Mn  Mn1  1  0.00191900  0.50115000  0.49887700  1
  Mn  Mn2  1  0.50171500  0.50007400  0.33231600  1
  Mn  Mn3  1  0.49404600  0.00911900  0.16744900  1
  Mn  Mn4  1  0.50085300  0.50094900  0.49898300  1
  Mn  Mn5  1  0.00486900  0.49423400  0.16878900  1
  Mn  Mn6  1  0.50241700  0.50485100  0.66384400  1
  Mn  Mn7  1  0.50089500  0.00225700  0.49884700  1
  Mn  Mn8  1  0.50226000  0.50213200  0.83107300  1
  Mn  Mn9  1  0.50201800  0.00512600  0.83014400  1
  Mn  Mn10  1  0.00158600  0.50236900  0.83102700  1
  Mn  Mn11  1  0.88157600  0.87245000  0.95512300  1
  O  O0  1  0.23825800  0.23818500  0.10412000  1
  O  O1  1  0.23843500  0.71210700  0.10343100  1
  O  O2  1  0.26105900  0.26040600  0.23929200  1
  O  O3  1  0.71073100  0.23772800  0.10430300  1
  O  O4  1  0.26380900  0.26458500  0.42204100  1
  O  O5  1  0.29767200  0.73162000  0.24598000  1
  O  O6  1  0.73628200  0.74051800  0.09473200  1
  O  O7  1  0.73295300  0.29610600  0.24608200  1
  O  O8  1  0.26506100  0.70515300  0.42162100  1
  O  O9  1  0.26676900  0.26582600  0.56726000  1
  O  O10  1  0.70591000  0.26387000  0.42235200  1
  O  O11  1  0.73286500  0.73145500  0.24610500  1
  O  O12  1  0.26722900  0.26869600  0.75253700  1
  O  O13  1  0.29603900  0.73680900  0.57725500  1
  O  O14  1  0.73479000  0.73616600  0.43128500  1
  O  O15  1  0.73538300  0.29714400  0.57793500  1
  O  O16  1  0.26744500  0.26609500  0.89967900  1
  O  O17  1  0.26655400  0.70723000  0.75310600  1
  O  O18  1  0.70667500  0.26748700  0.75315300  1
  O  O19  1  0.73657200  0.73635900  0.57736100  1
  O  O20  1  0.28214800  0.75455800  0.90236500  1
  O  O21  1  0.75783400  0.28224000  0.90109300  1
  O  O22  1  0.73401700  0.73638200  0.76466200  1
  O  O23  1  0.75556700  0.75275100  0.90258700  1
loop_
_geom_bond_atom_site_label_1
_geom_bond_atom_site_label_2
_geom_bond_distance
_geom_bond_site_symmetry_2
Mn0 O3 1.857779 1_555
Mn0 O1 1.858164 1_555
Mn0 O2 1.927581 1_555
Mn0 O7 1.957287 1_555
Mn0 O5 1.957737 1_555
Mn0 O6 2.017381 1_555
Mn1 O8 1.933671 1_555
Mn1 O4 1.935454 1_555
Mn1 O9 1.940105 1_555
Mn1 O14 1.940944 1_455
Mn1 O15 1.948656 1_455
Mn1 O19 1.951111 1_455
Mn2 O5 1.911665 1_555
Mn2 O11 1.913941 1_555
Mn2 O7 1.917794 1_555
Mn2 O10 1.960805 1_555
Mn2 O4 1.961409 1_555
Mn2 O8 1.962491 1_555
Mn3 O0 1.842913 1_555
Mn3 O3 1.844975 1_555
Mn3 O2 1.929323 1_555
Mn3 O11 1.966116 1_545
Mn3 O5 1.966717 1_545
Mn3 O6 2.013901 1_545
Mn4 O8 1.932232 1_555
Mn4 O10 1.934730 1_555
Mn4 O9 1.940978 1_555
Mn4 O14 1.941632 1_555
Mn4 O15 1.947826 1_555
Mn4 O13 1.951029 1_555
Mn5 O0 1.866258 1_555
Mn5 O1 1.868664 1_555
Mn5 O2 1.927372 1_555
Mn5 O11 1.949314 1_455
Mn5 O7 1.949944 1_455
Mn5 O6 2.022307 1_455
Mn6 O13 1.923972 1_555
Mn6 O19 1.926470 1_555
Mn6 O15 1.927991 1_555
Mn6 O18 1.951456 1_555
Mn6 O17 1.951640 1_555
Mn6 O12 1.951753 1_555
Mn7 O4 1.929503 1_555
Mn7 O10 1.929949 1_555
Mn7 O9 1.941742 1_555
Mn7 O14 1.942866 1_545
Mn7 O19 1.945551 1_545
Mn7 O13 1.946000 1_545
Mn8 O21 1.920665 1_555
Mn8 O20 1.929026 1_555
Mn8 O22 1.929975 1_555
Mn8 O17 1.939296 1_555
Mn8 O18 1.941312 1_555
Mn8 O16 1.947649 1_555
Mn9 O12 1.930490 1_555
Mn9 O22 1.930607 1_545
Mn9 O18 1.931778 1_555
Mn9 O23 1.941319 1_545
Mn9 O20 1.943397 1_545
Mn9 O16 1.943567 1_555
Mn10 O21 1.917086 1_455
Mn10 O23 1.923764 1_455
Mn10 O22 1.928847 1_455
Mn10 O17 1.944952 1_555
Mn10 O12 1.945475 1_555
Mn10 O16 1.947594 1_555
Mn11 O20 1.911320 1_655
Mn11 O23 1.921356 1_555
Mn11 O21 1.948945 1_565
Mn11 O6 2.000674 1_556
