# generated using pymatgen
data_Zn(CoO2)2
_symmetry_space_group_name_H-M   'P 1'
_cell_length_a   4.79493772
_cell_length_b   4.79493772
_cell_length_c   9.42026103
_cell_angle_alpha   90.00000000
_cell_angle_beta   90.00000000
_cell_angle_gamma   146.03702661
_symmetry_Int_Tables_number   1
_chemical_formula_structural   Zn(CoO2)2
_chemical_formula_sum   'Zn2 Co4 O8'
_cell_volume   120.99687363
_cell_formula_units_Z   2
loop_
 _symmetry_equiv_pos_site_id
 _symmetry_equiv_pos_as_xyz
  1  'x, y, z'
loop_
 _atom_site_type_symbol
 _atom_site_label
 _atom_site_symmetry_multiplicity
 _atom_site_fract_x
 _atom_site_fract_y
 _atom_site_fract_z
 _atom_site_occupancy
  Zn  Zn0  1  0.60800978  0.39199022  0.75000000  1
  Zn  Zn1  1  0.39199022  0.60800978  0.25000000  1
  Co  Co0  1  0.13491686  0.86508314  0.06914815  1
  Co  Co1  1  0.86508314  0.13491686  0.93085185  1
  Co  Co2  1  0.13491686  0.86508314  0.43085185  1
  Co  Co3  1  0.86508314  0.13491686  0.56914815  1
  O  O0  1  0.76788352  0.23211648  0.39058709  1
  O  O1  1  0.23211648  0.76788352  0.60941291  1
  O  O2  1  0.23211648  0.76788352  0.89058709  1
  O  O3  1  0.76788352  0.23211648  0.10941291  1
  O  O4  1  0.04419890  0.95580110  0.25000000  1
  O  O5  1  0.95580110  0.04419890  0.75000000  1
  O  O6  1  0.50000000  0.50000000  -0.00000000  1
  O  O7  1  0.50000000  0.50000000  0.50000000  1
loop_
_geom_bond_atom_site_label_1
_geom_bond_atom_site_label_2
_geom_bond_distance
_geom_bond_site_symmetry_2
Co0 O3 1.895343 1_455
Co0 O3 1.895343 1_565
Co0 O4 1.895994 1_555
Co0 O2 1.903730 1_554
Co0 O6 1.979069 1_455
Co0 O6 1.979069 1_565
Co1 O2 1.895343 1_545
Co1 O2 1.895343 1_655
Co1 O5 1.895994 1_555
Co1 O3 1.903730 1_556
Co1 O6 1.979069 1_656
Co1 O6 1.979069 1_546
Co2 O0 1.895343 1_455
Co2 O0 1.895343 1_565
Co2 O4 1.895994 1_555
Co2 O1 1.903730 1_555
Co2 O7 1.979069 1_565
Co2 O7 1.979069 1_455
Co3 O1 1.895343 1_545
Co3 O1 1.895343 1_655
Co3 O5 1.895994 1_555
Co3 O0 1.903730 1_555
Co3 O7 1.979069 1_545
Co3 O7 1.979069 1_655
O0 Zn1 2.238482 1_545
O0 Zn1 2.238482 1_655
O1 Zn0 2.238482 1_565
O1 Zn0 2.238482 1_455
O2 Zn0 2.238482 1_565
O2 Zn0 2.238482 1_455
O3 Zn1 2.238482 1_545
O3 Zn1 2.238482 1_655
O4 Zn1 1.977386 1_455
O4 Zn1 1.977386 1_565
O5 Zn0 1.977386 1_545
O5 Zn0 1.977386 1_655
