# generated using pymatgen
data_Rb2Mo9S11
_symmetry_space_group_name_H-M   'P 1'
_cell_length_a   13.24924775
_cell_length_b   13.24924775
_cell_length_c   13.24924823
_cell_angle_alpha   41.99949996
_cell_angle_beta   41.99949996
_cell_angle_gamma   41.99950205
_symmetry_Int_Tables_number   1
_chemical_formula_structural   Rb2Mo9S11
_chemical_formula_sum   'Rb4 Mo18 S22'
_cell_volume   941.95253246
_cell_formula_units_Z   2
loop_
 _symmetry_equiv_pos_site_id
 _symmetry_equiv_pos_as_xyz
  1  'x, y, z'
loop_
 _atom_site_type_symbol
 _atom_site_label
 _atom_site_symmetry_multiplicity
 _atom_site_fract_x
 _atom_site_fract_y
 _atom_site_fract_z
 _atom_site_occupancy
  Rb  Rb0  1  0.94867800  0.94867800  0.94867800  1
  Rb  Rb1  1  0.05132200  0.05132200  0.05132200  1
  Rb  Rb2  1  0.55132200  0.55132200  0.55132200  1
  Rb  Rb3  1  0.44867800  0.44867800  0.44867800  1
  Mo  Mo0  1  0.52918400  0.85391700  0.67789900  1
  Mo  Mo1  1  0.67789900  0.52918400  0.85391700  1
  Mo  Mo2  1  0.85391700  0.67789900  0.52918400  1
  Mo  Mo3  1  0.97081600  0.82210100  0.64608300  1
  Mo  Mo4  1  0.64608300  0.97081600  0.82210100  1
  Mo  Mo5  1  0.82210100  0.64608300  0.97081600  1
  Mo  Mo6  1  0.47081600  0.14608300  0.32210100  1
  Mo  Mo7  1  0.32210100  0.47081600  0.14608300  1
  Mo  Mo8  1  0.14608300  0.32210100  0.47081600  1
  Mo  Mo9  1  0.02918400  0.17789900  0.35391700  1
  Mo  Mo10  1  0.35391700  0.02918400  0.17789900  1
  Mo  Mo11  1  0.17789900  0.35391700  0.02918400  1
  Mo  Mo12  1  0.91626500  0.58373500  0.75000000  1
  Mo  Mo13  1  0.75000000  0.91626500  0.58373500  1
  Mo  Mo14  1  0.58373500  0.75000000  0.91626500  1
  Mo  Mo15  1  0.08373500  0.41626500  0.25000000  1
  Mo  Mo16  1  0.25000000  0.08373500  0.41626500  1
  Mo  Mo17  1  0.41626500  0.25000000  0.08373500  1
  S  S0  1  0.44970200  0.05029800  0.75000000  1
  S  S1  1  0.28939100  0.01797900  0.61704600  1
  S  S2  1  0.05029800  0.75000000  0.44970200  1
  S  S3  1  0.01797900  0.61704600  0.28939100  1
  S  S4  1  0.86370900  0.86370900  0.86370900  1
  S  S5  1  0.63629100  0.63629100  0.63629100  1
  S  S6  1  0.13629100  0.13629100  0.13629100  1
  S  S7  1  0.36370900  0.36370900  0.36370900  1
  S  S8  1  0.11704600  0.51797900  0.78939100  1
  S  S9  1  0.78939100  0.11704600  0.51797900  1
  S  S10  1  0.51797900  0.78939100  0.11704600  1
  S  S11  1  0.38295400  0.71060900  0.98202100  1
  S  S12  1  0.98202100  0.38295400  0.71060900  1
  S  S13  1  0.71060900  0.98202100  0.38295400  1
  S  S14  1  0.88295400  0.48202100  0.21060900  1
  S  S15  1  0.21060900  0.88295400  0.48202100  1
  S  S16  1  0.48202100  0.21060900  0.88295400  1
  S  S17  1  0.61704600  0.28939100  0.01797900  1
  S  S18  1  0.25000000  0.55029800  0.94970200  1
  S  S19  1  0.55029800  0.94970200  0.25000000  1
  S  S20  1  0.94970200  0.25000000  0.55029800  1
  S  S21  1  0.75000000  0.44970200  0.05029800  1
loop_
_geom_bond_atom_site_label_1
_geom_bond_atom_site_label_2
_geom_bond_distance
_geom_bond_site_symmetry_2
Rb0 S4 3.074604 1_555
Rb0 S1 3.348260 1_665
Rb0 S3 3.348260 1_656
Rb0 S17 3.348260 1_566
Rb0 S19 3.528837 1_556
Rb0 S20 3.528837 1_565
Rb0 S18 3.528838 1_655
Rb1 S6 3.074604 1_555
Rb1 S13 3.348260 1_445
Rb1 S12 3.348260 1_454
Rb1 S11 3.348260 1_544
Rb1 S0 3.528837 1_554
Rb1 S2 3.528837 1_545
Rb1 S21 3.528838 1_455
Rb2 S5 3.074604 1_555
Rb2 S16 3.348260 1_555
Rb2 S14 3.348260 1_555
Rb2 S15 3.348260 1_555
Rb2 S19 3.528837 1_555
Rb2 S18 3.528837 1_555
Rb2 S20 3.528838 1_555
Rb3 S7 3.074604 1_555
Rb3 S10 3.348260 1_555
Rb3 S8 3.348260 1_555
Rb3 S9 3.348260 1_555
Rb3 S0 3.528837 1_555
Rb3 S21 3.528837 1_555
Rb3 S2 3.528838 1_555
Mo0 S5 2.397870 1_555
Mo0 S11 2.467397 1_555
Mo0 S13 2.484766 1_555
Mo0 S1 2.531168 1_565
Mo0 S0 2.630217 1_565
Mo1 S5 2.397870 1_555
Mo1 S12 2.467398 1_555
Mo1 S11 2.484766 1_555
Mo1 S17 2.531168 1_556
Mo1 S21 2.630217 1_556
Mo2 S5 2.397870 1_555
Mo2 S13 2.467398 1_555
Mo2 S12 2.484766 1_555
Mo2 S3 2.531169 1_655
Mo2 S2 2.630217 1_655
Mo3 S4 2.397870 1_555
Mo3 S8 2.467398 1_655
Mo3 S9 2.484766 1_565
Mo3 S15 2.531168 1_655
Mo3 S2 2.630217 1_655
Mo4 S4 2.397870 1_555
Mo4 S9 2.467397 1_565
Mo4 S10 2.484766 1_556
Mo4 S16 2.531168 1_565
Mo4 S0 2.630217 1_565
Mo5 S4 2.397870 1_555
Mo5 S10 2.467398 1_556
Mo5 S8 2.484766 1_655
Mo5 S14 2.531169 1_556
Mo5 S21 2.630217 1_556
Mo6 S7 2.397870 1_555
Mo6 S17 2.467397 1_555
Mo6 S1 2.484766 1_555
Mo6 S13 2.531168 1_545
Mo6 S19 2.630217 1_545
Mo7 S7 2.397870 1_555
Mo7 S3 2.467398 1_555
Mo7 S17 2.484766 1_555
Mo7 S11 2.531168 1_554
Mo7 S18 2.630217 1_554
Mo8 S7 2.397870 1_555
Mo8 S1 2.467398 1_555
Mo8 S3 2.484766 1_555
Mo8 S12 2.531169 1_455
Mo8 S20 2.630217 1_455
Mo9 S6 2.397870 1_555
Mo9 S14 2.467398 1_455
Mo9 S15 2.484766 1_545
Mo9 S9 2.531168 1_455
Mo9 S20 2.630217 1_455
Mo10 S6 2.397870 1_555
Mo10 S15 2.467397 1_545
Mo10 S16 2.484766 1_554
Mo10 S10 2.531168 1_545
Mo10 S19 2.630217 1_545
Mo11 S6 2.397870 1_555
Mo11 S16 2.467398 1_554
Mo11 S14 2.484766 1_455
Mo11 S8 2.531169 1_554
Mo11 S18 2.630217 1_554
Mo12 S8 2.459898 1_655
Mo12 S12 2.459898 1_555
Mo12 S21 2.474348 1_556
Mo12 S2 2.474348 1_655
Mo13 S9 2.459898 1_565
Mo13 S13 2.459898 1_555
Mo13 S0 2.474348 1_565
Mo13 S2 2.474348 1_655
Mo14 S11 2.459898 1_555
Mo14 S10 2.459898 1_556
Mo14 S0 2.474348 1_565
Mo14 S21 2.474348 1_556
Mo15 S14 2.459898 1_455
Mo15 S3 2.459898 1_555
Mo15 S20 2.474348 1_455
Mo15 S18 2.474348 1_554
Mo16 S15 2.459898 1_545
Mo16 S1 2.459898 1_555
Mo16 S19 2.474348 1_545
Mo16 S20 2.474348 1_455
Mo17 S17 2.459898 1_555
Mo17 S16 2.459898 1_554
Mo17 S19 2.474348 1_545
Mo17 S18 2.474348 1_554
