# generated using pymatgen
data_CaMnO3
_symmetry_space_group_name_H-M   'P 1'
_cell_length_a   5.33344400
_cell_length_b   5.39895300
_cell_length_c   7.57146500
_cell_angle_alpha   90.00000000
_cell_angle_beta   90.00000000
_cell_angle_gamma   90.00000000
_symmetry_Int_Tables_number   1
_chemical_formula_structural   CaMnO3
_chemical_formula_sum   'Ca4 Mn4 O12'
_cell_volume   218.02043677
_cell_formula_units_Z   4
loop_
 _symmetry_equiv_pos_site_id
 _symmetry_equiv_pos_as_xyz
  1  'x, y, z'
loop_
 _atom_site_type_symbol
 _atom_site_label
 _atom_site_symmetry_multiplicity
 _atom_site_fract_x
 _atom_site_fract_y
 _atom_site_fract_z
 _atom_site_occupancy
  Ca  Ca0  1  0.50824500  0.54378700  0.25000000  1
  Ca  Ca1  1  0.99175500  0.04378700  0.25000000  1
  Ca  Ca2  1  0.49175500  0.45621300  0.75000000  1
  Ca  Ca3  1  0.00824500  0.95621300  0.75000000  1
  Mn  Mn0  1  0.00000000  0.50000000  0.00000000  1
  Mn  Mn1  1  0.50000000  0.00000000  0.50000000  1
  Mn  Mn2  1  0.00000000  0.50000000  0.50000000  1
  Mn  Mn3  1  0.50000000  0.00000000  0.00000000  1
  O  O0  1  0.42225300  0.98152900  0.25000000  1
  O  O1  1  0.07774700  0.48152900  0.25000000  1
  O  O2  1  0.57774700  0.01847100  0.75000000  1
  O  O3  1  0.92225300  0.51847100  0.75000000  1
  O  O4  1  0.79401500  0.79201500  0.04008500  1
  O  O5  1  0.70598500  0.29201500  0.45991500  1
  O  O6  1  0.20598500  0.20798500  0.54008500  1
  O  O7  1  0.29401500  0.70798500  0.95991500  1
  O  O8  1  0.20598500  0.20798500  0.95991500  1
  O  O9  1  0.29401500  0.70798500  0.54008500  1
  O  O10  1  0.79401500  0.79201500  0.45991500  1
  O  O11  1  0.70598500  0.29201500  0.04008500  1
loop_
_geom_bond_atom_site_label_1
_geom_bond_atom_site_label_2
_geom_bond_distance
_geom_bond_site_symmetry_2
Ca0 O1 2.320510 1_555
Ca0 O5 2.342231 1_555
Ca0 O11 2.342231 1_555
Ca0 O0 2.407439 1_555
Ca0 O10 2.577816 1_555
Ca0 O4 2.577816 1_555
Ca0 O9 2.629717 1_555
Ca0 O7 2.629717 1_554
Ca1 O0 2.320510 1_645
Ca1 O10 2.342231 1_545
Ca1 O4 2.342231 1_545
Ca1 O1 2.407439 1_655
Ca1 O5 2.577816 1_555
Ca1 O11 2.577816 1_555
Ca1 O6 2.629717 1_655
Ca1 O8 2.629717 1_654
Ca2 O3 2.320510 1_555
Ca2 O7 2.342231 1_555
Ca2 O9 2.342231 1_555
Ca2 O2 2.407439 1_555
Ca2 O8 2.577816 1_555
Ca2 O6 2.577816 1_555
Ca2 O11 2.629717 1_556
Ca2 O5 2.629717 1_555
Ca3 O2 2.320510 1_465
Ca3 O8 2.342231 1_565
Ca3 O6 2.342231 1_565
Ca3 O3 2.407439 1_455
Ca3 O7 2.577816 1_555
Ca3 O9 2.577816 1_555
Ca3 O4 2.629717 1_456
Ca3 O10 2.629717 1_455
Mn0 O1 1.940317 1_555
Mn0 O3 1.940317 1_454
Mn0 O4 1.945417 1_455
Mn0 O8 1.945417 1_554
Mn0 O7 1.952434 1_554
Mn0 O11 1.952434 1_455
Mn1 O2 1.940317 1_555
Mn1 O0 1.940317 1_545
Mn1 O5 1.945417 1_555
Mn1 O9 1.945417 1_545
Mn1 O6 1.952434 1_555
Mn1 O10 1.952434 1_545
Mn2 O3 1.940317 1_455
Mn2 O1 1.940317 1_555
Mn2 O6 1.945417 1_555
Mn2 O10 1.945417 1_455
Mn2 O9 1.952434 1_555
Mn2 O5 1.952434 1_455
Mn3 O2 1.940317 1_554
Mn3 O0 1.940317 1_545
Mn3 O11 1.945417 1_555
Mn3 O7 1.945417 1_544
Mn3 O4 1.952434 1_545
Mn3 O8 1.952434 1_554
