# generated using pymatgen
data_RbMg14BO16
_symmetry_space_group_name_H-M   'P 1'
_cell_length_a   8.96612925
_cell_length_b   8.19860255
_cell_length_c   4.54643519
_cell_angle_alpha   90.00000000
_cell_angle_beta   90.00000000
_cell_angle_gamma   90.00000000
_symmetry_Int_Tables_number   1
_chemical_formula_structural   RbMg14BO16
_chemical_formula_sum   'Rb1 Mg14 B1 O16'
_cell_volume   334.20722388
_cell_formula_units_Z   1
loop_
 _symmetry_equiv_pos_site_id
 _symmetry_equiv_pos_as_xyz
  1  'x, y, z'
loop_
 _atom_site_type_symbol
 _atom_site_label
 _atom_site_symmetry_multiplicity
 _atom_site_fract_x
 _atom_site_fract_y
 _atom_site_fract_z
 _atom_site_occupancy
  Rb  Rb0  1  0.00000000  0.00000000  -0.00000000  1
  Mg  Mg0  1  0.50000000  0.00000000  -0.00000000  1
  Mg  Mg1  1  0.50000000  0.50000000  -0.00000000  1
  Mg  Mg2  1  0.00000000  0.25902369  0.50000000  1
  Mg  Mg3  1  0.00000000  0.74097631  0.50000000  1
  Mg  Mg4  1  0.50000000  0.25119120  0.50000000  1
  Mg  Mg5  1  0.50000000  0.74880880  0.50000000  1
  Mg  Mg6  1  0.25565573  0.00000000  0.50000000  1
  Mg  Mg7  1  0.24637042  0.50000000  0.50000000  1
  Mg  Mg8  1  0.74434427  0.00000000  0.50000000  1
  Mg  Mg9  1  0.75362958  0.50000000  0.50000000  1
  Mg  Mg10  1  0.26802234  0.25462875  -0.00000000  1
  Mg  Mg11  1  0.26802234  0.74537125  -0.00000000  1
  Mg  Mg12  1  0.73197766  0.25462875  0.00000000  1
  Mg  Mg13  1  0.73197766  0.74537125  0.00000000  1
  B  B0  1  0.00000000  0.50000000  -0.00000000  1
  O  O0  1  0.27846829  0.00000000  -0.00000000  1
  O  O1  1  0.26937734  0.50000000  -0.00000000  1
  O  O2  1  0.72153171  0.00000000  -0.00000000  1
  O  O3  1  0.73062266  0.50000000  -0.00000000  1
  O  O4  1  0.24537343  0.24962822  0.50000000  1
  O  O5  1  0.24537343  0.75037178  0.50000000  1
  O  O6  1  0.75462657  0.24962822  0.50000000  1
  O  O7  1  0.75462657  0.75037178  0.50000000  1
  O  O8  1  0.00000000  0.00000000  0.50000000  1
  O  O9  1  0.00000000  0.50000000  0.50000000  1
  O  O10  1  0.50000000  0.00000000  0.50000000  1
  O  O11  1  0.50000000  0.50000000  0.50000000  1
  O  O12  1  0.00000000  0.33515536  -0.00000000  1
  O  O13  1  0.00000000  0.66484464  -0.00000000  1
  O  O14  1  0.50000000  0.25182212  -0.00000000  1
  O  O15  1  0.50000000  0.74817788  0.00000000  1
loop_
_geom_bond_atom_site_label_1
_geom_bond_atom_site_label_2
_geom_bond_distance
_geom_bond_site_symmetry_2
Mg0 O0 1.986282 1_555
Mg0 O2 1.986282 1_555
Mg0 O14 2.064589 1_555
Mg0 O15 2.064589 1_545
Mg0 O10 2.273218 1_555
Mg0 O10 2.273218 1_554
Mg1 O15 2.034712 1_555
Mg1 O14 2.034712 1_555
Mg1 O1 2.067793 1_555
Mg1 O3 2.067793 1_555
Mg1 O11 2.273218 1_554
Mg1 O11 2.273218 1_555
Mg2 O9 1.975669 1_555
Mg2 O8 2.123632 1_555
Mg2 O4 2.201398 1_555
Mg2 O6 2.201398 1_455
Mg2 O12 2.357352 1_555
Mg2 O12 2.357352 1_556
Mg3 O9 1.975669 1_555
Mg3 O8 2.123632 1_565
Mg3 O5 2.201398 1_555
Mg3 O7 2.201398 1_455
Mg3 O13 2.357352 1_555
Mg3 O13 2.357352 1_556
Mg4 O11 2.039884 1_555
Mg4 O10 2.059417 1_555
Mg4 O14 2.273223 1_555
Mg4 O14 2.273223 1_556
Mg4 O6 2.283051 1_555
Mg4 O4 2.283051 1_555
Mg5 O11 2.039884 1_555
Mg5 O10 2.059417 1_565
Mg5 O15 2.273223 1_556
Mg5 O15 2.273223 1_555
Mg5 O5 2.283051 1_555
Mg5 O7 2.283051 1_555
Mg6 O5 2.048678 1_545
Mg6 O4 2.048678 1_555
Mg6 O10 2.190822 1_555
Mg6 O0 2.282401 1_556
Mg6 O0 2.282401 1_555
Mg6 O8 2.292242 1_555
Mg7 O4 2.052718 1_555
Mg7 O5 2.052718 1_555
Mg7 O9 2.208989 1_555
Mg7 O11 2.274076 1_555
Mg7 O1 2.282558 1_556
Mg7 O1 2.282558 1_555
Mg8 O7 2.048678 1_545
Mg8 O6 2.048678 1_555
Mg8 O10 2.190822 1_555
Mg8 O2 2.282401 1_555
Mg8 O2 2.282401 1_556
Mg8 O8 2.292242 1_655
Mg9 O6 2.052718 1_555
Mg9 O7 2.052718 1_555
Mg9 O9 2.208989 1_655
Mg9 O11 2.274076 1_555
Mg9 O3 2.282558 1_556
Mg9 O3 2.282558 1_555
Mg10 O1 2.011738 1_555
Mg10 O14 2.080069 1_555
Mg10 O0 2.089700 1_555
Mg10 O4 2.282638 1_554
Mg10 O4 2.282638 1_555
Mg10 O12 2.492162 1_555
Mg11 O1 2.011738 1_555
Mg11 O15 2.080069 1_555
Mg11 O0 2.089700 1_565
Mg11 O5 2.282638 1_554
Mg11 O5 2.282638 1_555
Mg11 O13 2.492162 1_555
Mg12 O3 2.011738 1_555
Mg12 O14 2.080069 1_555
Mg12 O2 2.089700 1_555
Mg12 O6 2.282638 1_555
Mg12 O6 2.282638 1_554
Mg12 O12 2.492162 1_655
Mg13 O3 2.011738 1_555
Mg13 O15 2.080069 1_555
Mg13 O2 2.089700 1_565
Mg13 O7 2.282638 1_555
Mg13 O7 2.282638 1_554
Mg13 O13 2.492162 1_655
B0 O13 1.351496 1_555
B0 O12 1.351496 1_555
O0 Rb0 2.496783 1_555
O2 Rb0 2.496783 1_655
O8 Rb0 2.273218 1_555
O8 Rb0 2.273218 1_556
O12 Rb0 2.747806 1_555
O13 Rb0 2.747806 1_565
