# generated using pymatgen
data_La(Ga5Mo)8
_symmetry_space_group_name_H-M   'P 1'
_cell_length_a   9.67622909
_cell_length_b   9.67622909
_cell_length_c   9.67622948
_cell_angle_alpha   94.29959699
_cell_angle_beta   94.29959699
_cell_angle_gamma   94.29959454
_symmetry_Int_Tables_number   1
_chemical_formula_structural   La(Ga5Mo)8
_chemical_formula_sum   'La1 Ga40 Mo8'
_cell_volume   897.92362132
_cell_formula_units_Z   1
loop_
 _symmetry_equiv_pos_site_id
 _symmetry_equiv_pos_as_xyz
  1  'x, y, z'
loop_
 _atom_site_type_symbol
 _atom_site_label
 _atom_site_symmetry_multiplicity
 _atom_site_fract_x
 _atom_site_fract_y
 _atom_site_fract_z
 _atom_site_occupancy
  La  La0  1  0.00000000  0.00000000  0.00000000  1
  Ga  Ga0  1  0.50000000  0.50000000  0.50000000  1
  Ga  Ga1  1  0.00000000  0.50000000  0.50000000  1
  Ga  Ga2  1  0.50000000  0.00000000  0.50000000  1
  Ga  Ga3  1  0.50000000  0.50000000  0.00000000  1
  Ga  Ga4  1  0.26894700  0.63732300  0.61132000  1
  Ga  Ga5  1  0.61132000  0.26894700  0.63732300  1
  Ga  Ga6  1  0.63732300  0.61132000  0.26894700  1
  Ga  Ga7  1  0.73105300  0.36267700  0.38868000  1
  Ga  Ga8  1  0.38868000  0.73105300  0.36267700  1
  Ga  Ga9  1  0.36267700  0.38868000  0.73105300  1
  Ga  Ga10  1  0.67421200  0.77699300  0.53230600  1
  Ga  Ga11  1  0.53230600  0.67421200  0.77699300  1
  Ga  Ga12  1  0.77699300  0.53230600  0.67421200  1
  Ga  Ga13  1  0.32578800  0.22300700  0.46769400  1
  Ga  Ga14  1  0.46769400  0.32578800  0.22300700  1
  Ga  Ga15  1  0.22300700  0.46769400  0.32578800  1
  Ga  Ga16  1  0.77859200  0.07316800  0.44357600  1
  Ga  Ga17  1  0.44357600  0.77859200  0.07316800  1
  Ga  Ga18  1  0.07316800  0.44357600  0.77859200  1
  Ga  Ga19  1  0.22140800  0.92683200  0.55642400  1
  Ga  Ga20  1  0.55642400  0.22140800  0.92683200  1
  Ga  Ga21  1  0.92683200  0.55642400  0.22140800  1
  Ga  Ga22  1  0.96615800  0.78620400  0.59692800  1
  Ga  Ga23  1  0.59692800  0.96615800  0.78620400  1
  Ga  Ga24  1  0.78620400  0.59692800  0.96615800  1
  Ga  Ga25  1  0.03384200  0.21379600  0.40307200  1
  Ga  Ga26  1  0.40307200  0.03384200  0.21379600  1
  Ga  Ga27  1  0.21379600  0.40307200  0.03384200  1
  Ga  Ga28  1  0.04334200  0.71177000  0.85877800  1
  Ga  Ga29  1  0.85877800  0.04334200  0.71177000  1
  Ga  Ga30  1  0.71177000  0.85877800  0.04334200  1
  Ga  Ga31  1  0.95665800  0.28823000  0.14122200  1
  Ga  Ga32  1  0.14122200  0.95665800  0.28823000  1
  Ga  Ga33  1  0.28823000  0.14122200  0.95665800  1
  Ga  Ga34  1  0.12191500  0.17230900  0.68741700  1
  Ga  Ga35  1  0.68741700  0.12191500  0.17230900  1
  Ga  Ga36  1  0.17230900  0.68741700  0.12191500  1
  Ga  Ga37  1  0.87808500  0.82769100  0.31258300  1
  Ga  Ga38  1  0.31258300  0.87808500  0.82769100  1
  Ga  Ga39  1  0.82769100  0.31258300  0.87808500  1
  Mo  Mo0  1  0.78941000  0.78941000  0.78941000  1
  Mo  Mo1  1  0.21059000  0.21059000  0.21059000  1
  Mo  Mo2  1  0.29133300  0.61044200  0.88641400  1
  Mo  Mo3  1  0.88641400  0.29133300  0.61044200  1
  Mo  Mo4  1  0.61044200  0.88641400  0.29133300  1
  Mo  Mo5  1  0.70866700  0.38955800  0.11358600  1
  Mo  Mo6  1  0.11358600  0.70866700  0.38955800  1
  Mo  Mo7  1  0.38955800  0.11358600  0.70866700  1
loop_
_geom_bond_atom_site_label_1
_geom_bond_atom_site_label_2
_geom_bond_distance
_geom_bond_site_symmetry_2
Ga0 Ga4 2.918266 1_555
Ga0 Ga7 2.918266 1_555
Ga0 Ga5 2.918266 1_555
Ga0 Ga8 2.918266 1_555
Ga0 Ga6 2.918266 1_555
Ga0 Ga9 2.918266 1_555
Ga0 Ga12 3.039897 1_555
Ga0 Ga15 3.039897 1_555
Ga0 Ga10 3.039897 1_555
Ga0 Ga13 3.039897 1_555
Ga0 Ga11 3.039897 1_555
Ga0 Ga14 3.039897 1_555
Ga1 Mo6 2.567827 1_555
Ga1 Mo3 2.567827 1_455
Ga1 Ga21 2.838787 1_455
Ga1 Ga18 2.838787 1_555
Ga1 Ga15 2.857149 1_555
Ga1 Ga12 2.857149 1_455
Ga1 Ga22 2.906698 1_455
Ga1 Ga25 2.906698 1_555
Ga1 Ga4 2.923168 1_555
Ga1 Ga7 2.923168 1_455
Ga2 Mo7 2.567827 1_555
Ga2 Mo4 2.567827 1_545
Ga2 Ga23 2.906698 1_545
Ga2 Ga26 2.906698 1_555
Ga2 Ga5 2.923168 1_555
Ga2 Ga8 2.923168 1_545
Ga3 Mo5 2.567827 1_555
Ga3 Mo2 2.567827 1_554
Ga3 Ga6 2.923168 1_555
Ga3 Ga9 2.923168 1_554
Ga4 Mo2 2.688113 1_555
Ga4 Mo6 2.689812 1_555
Ga4 Ga9 2.922482 1_555
Ga4 Ga8 2.922482 1_555
Ga5 Mo3 2.688113 1_555
Ga5 Mo7 2.689812 1_555
Ga5 Ga9 2.922482 1_555
Ga5 Ga7 2.922482 1_555
Ga6 Mo4 2.688113 1_555
Ga6 Mo5 2.689812 1_555
Ga6 Ga8 2.922482 1_555
Ga6 Ga7 2.922482 1_555
Ga7 Mo5 2.688113 1_555
Ga7 Mo3 2.689812 1_555
Ga8 Mo6 2.688113 1_555
Ga8 Mo4 2.689812 1_555
Ga9 Mo7 2.688113 1_555
Ga9 Mo2 2.689812 1_555
Ga10 Mo0 2.639200 1_555
Ga10 Mo4 2.681613 1_555
Ga10 Ga22 2.840463 1_555
Ga10 Ga2 2.857149 1_565
Ga10 Ga6 2.890764 1_555
Ga10 Ga12 3.019284 1_555
Ga10 Ga11 3.019284 1_555
Ga10 Ga37 3.048396 1_555
Ga10 Ga8 3.090571 1_555
Ga10 Ga23 3.122787 1_555
Ga10 Ga16 3.167861 1_565
Ga11 Mo0 2.639200 1_555
Ga11 Mo2 2.681613 1_555
Ga11 Ga23 2.840464 1_555
Ga11 Ga3 2.857149 1_556
Ga11 Ga4 2.890764 1_555
Ga11 Ga12 3.019284 1_555
Ga11 Ga38 3.048396 1_555
Ga11 Ga9 3.090571 1_555
Ga11 Ga24 3.122787 1_555
Ga11 Ga17 3.167861 1_556
Ga12 Mo0 2.639200 1_555
Ga12 Mo3 2.681613 1_555
Ga12 Ga24 2.840464 1_555
Ga12 Ga5 2.890764 1_555
Ga12 Ga39 3.048396 1_555
Ga12 Ga7 3.090571 1_555
Ga12 Ga22 3.122787 1_555
Ga12 Ga18 3.167861 1_655
Ga13 Mo1 2.639200 1_555
Ga13 Mo7 2.681613 1_555
Ga13 Ga25 2.840463 1_555
Ga13 Ga2 2.857149 1_555
Ga13 Ga9 2.890764 1_555
Ga13 Ga15 3.019284 1_555
Ga13 Ga14 3.019284 1_555
Ga13 Ga34 3.048396 1_555
Ga13 Ga5 3.090571 1_555
Ga13 Ga26 3.122787 1_555
Ga13 Ga19 3.167861 1_545
Ga14 Mo1 2.639200 1_555
Ga14 Mo5 2.681613 1_555
Ga14 Ga26 2.840464 1_555
Ga14 Ga3 2.857149 1_555
Ga14 Ga7 2.890764 1_555
Ga14 Ga15 3.019284 1_555
Ga14 Ga35 3.048396 1_555
Ga14 Ga6 3.090571 1_555
Ga14 Ga27 3.122787 1_555
Ga14 Ga20 3.167861 1_554
Ga15 Mo1 2.639200 1_555
Ga15 Mo6 2.681613 1_555
Ga15 Ga27 2.840464 1_555
Ga15 Ga8 2.890764 1_555
Ga15 Ga36 3.048396 1_555
Ga15 Ga4 3.090571 1_555
Ga15 Ga25 3.122787 1_555
Ga15 Ga21 3.167861 1_455
Ga16 Mo4 2.623652 1_545
Ga16 Mo3 2.656691 1_555
Ga16 Ga29 2.695153 1_555
Ga16 Ga35 2.791313 1_555
Ga16 Ga25 2.797609 1_655
Ga16 Ga2 2.838787 1_555
Ga16 Ga37 2.872255 1_545
Ga16 Ga7 2.953143 1_555
Ga16 Ga5 3.178895 1_555
Ga17 Mo2 2.623652 1_554
Ga17 Mo4 2.656691 1_555
Ga17 Ga30 2.695153 1_555
Ga17 Ga36 2.791313 1_555
Ga17 Ga26 2.797608 1_565
Ga17 Ga3 2.838787 1_555
Ga17 Ga38 2.872255 1_554
Ga17 Ga8 2.953143 1_555
Ga17 Ga6 3.178895 1_555
Ga18 Mo3 2.623652 1_455
Ga18 Mo2 2.656691 1_555
Ga18 Ga28 2.695153 1_555
Ga18 Ga34 2.791313 1_555
Ga18 Ga27 2.797609 1_556
Ga18 Ga39 2.872255 1_455
Ga18 Ga9 2.953143 1_555
Ga18 Ga4 3.178895 1_555
Ga19 Mo7 2.623652 1_565
Ga19 Mo6 2.656691 1_555
Ga19 Ga32 2.695153 1_555
Ga19 Ga38 2.791313 1_555
Ga19 Ga22 2.797609 1_455
Ga19 Ga2 2.838787 1_565
Ga19 Ga34 2.872255 1_565
Ga19 Ga4 2.953143 1_555
Ga19 Ga8 3.178895 1_555
Ga20 Mo5 2.623652 1_556
Ga20 Mo7 2.656691 1_555
Ga20 Ga33 2.695153 1_555
Ga20 Ga39 2.791313 1_555
Ga20 Ga23 2.797608 1_545
Ga20 Ga3 2.838787 1_556
Ga20 Ga35 2.872255 1_556
Ga20 Ga5 2.953143 1_555
Ga20 Ga9 3.178895 1_555
Ga21 Mo6 2.623652 1_655
Ga21 Mo5 2.656691 1_555
Ga21 Ga31 2.695153 1_555
Ga21 Ga37 2.791313 1_555
Ga21 Ga24 2.797609 1_554
Ga21 Ga36 2.872255 1_655
Ga21 Ga6 2.953143 1_555
Ga21 Ga7 3.178895 1_555
Ga22 Mo0 2.621403 1_555
Ga22 Mo6 2.643515 1_655
Ga22 Ga28 2.750785 1_655
Ga22 Ga37 2.884941 1_555
Ga22 Ga29 2.941326 1_565
Ga23 Mo0 2.621403 1_555
Ga23 Mo7 2.643515 1_565
Ga23 Ga29 2.750785 1_565
Ga23 Ga38 2.884941 1_555
Ga23 Ga30 2.941326 1_556
Ga24 Mo0 2.621403 1_555
Ga24 Mo5 2.643515 1_556
Ga24 Ga30 2.750785 1_556
Ga24 Ga39 2.884941 1_555
Ga24 Ga3 2.906698 1_556
Ga24 Ga28 2.941326 1_655
Ga25 Mo1 2.621403 1_555
Ga25 Mo3 2.643515 1_455
Ga25 Ga31 2.750785 1_455
Ga25 Ga34 2.884941 1_555
Ga25 Ga32 2.941326 1_545
Ga26 Mo1 2.621403 1_555
Ga26 Mo4 2.643515 1_545
Ga26 Ga32 2.750785 1_545
Ga26 Ga35 2.884941 1_555
Ga26 Ga33 2.941326 1_554
Ga27 Mo1 2.621403 1_555
Ga27 Mo2 2.643515 1_554
Ga27 Ga33 2.750785 1_554
Ga27 Ga36 2.884941 1_555
Ga27 Ga3 2.906698 1_555
Ga27 Ga31 2.941326 1_455
Ga28 Mo2 2.662119 1_555
Ga28 Mo0 2.675331 1_455
Ga28 Ga36 2.784501 1_556
Ga28 Ga38 3.004836 1_555
Ga28 La0 3.084066 1_566
Ga29 Mo3 2.662119 1_555
Ga29 Mo0 2.675331 1_545
Ga29 Ga34 2.784501 1_655
Ga29 Ga39 3.004835 1_555
Ga29 La0 3.084066 1_656
Ga30 Mo4 2.662119 1_555
Ga30 Mo0 2.675331 1_554
Ga30 Ga35 2.784501 1_565
Ga30 Ga37 3.004836 1_555
Ga30 La0 3.084066 1_665
Ga31 Mo5 2.662119 1_555
Ga31 Mo1 2.675331 1_655
Ga31 Ga39 2.784501 1_554
Ga31 Ga35 3.004836 1_555
Ga31 La0 3.084066 1_655
Ga32 Mo6 2.662119 1_555
Ga32 Mo1 2.675331 1_565
Ga32 Ga37 2.784501 1_455
Ga32 Ga36 3.004835 1_555
Ga32 La0 3.084066 1_565
Ga33 Mo7 2.662119 1_555
Ga33 Mo1 2.675331 1_556
Ga33 Ga38 2.784501 1_545
Ga33 Ga34 3.004836 1_555
Ga33 La0 3.084066 1_556
Ga34 Mo7 2.688942 1_555
Ga34 Mo3 2.709537 1_455
Ga34 Ga9 2.996269 1_555
Ga35 Mo5 2.688942 1_555
Ga35 Mo4 2.709537 1_545
Ga35 Ga7 2.996269 1_555
Ga36 Mo6 2.688942 1_555
Ga36 Mo2 2.709537 1_554
Ga36 Ga8 2.996269 1_555
Ga37 Mo4 2.688942 1_555
Ga37 Mo6 2.709537 1_655
Ga37 Ga6 2.996269 1_555
Ga38 Mo2 2.688942 1_555
Ga38 Mo7 2.709537 1_565
Ga38 Ga4 2.996269 1_555
Ga39 Mo3 2.688942 1_555
Ga39 Mo5 2.709537 1_556
Ga39 Ga5 2.996269 1_555
