# generated using pymatgen
data_Er(AlFe)6
_symmetry_space_group_name_H-M   'P 1'
_cell_length_a   6.54899905
_cell_length_b   6.54899905
_cell_length_c   6.54899905
_cell_angle_alpha   135.53269800
_cell_angle_beta   98.44070170
_cell_angle_gamma   98.02261281
_symmetry_Int_Tables_number   1
_chemical_formula_structural   Er(AlFe)6
_chemical_formula_sum   'Er1 Al6 Fe6'
_cell_volume   182.12789905
_cell_formula_units_Z   1
loop_
 _symmetry_equiv_pos_site_id
 _symmetry_equiv_pos_as_xyz
  1  'x, y, z'
loop_
 _atom_site_type_symbol
 _atom_site_label
 _atom_site_symmetry_multiplicity
 _atom_site_fract_x
 _atom_site_fract_y
 _atom_site_fract_z
 _atom_site_occupancy
  Er  Er0  1  -0.00000000  -0.00000000  -0.00000000  1
  Al  Al0  1  0.34669069  0.34669069  0.00000000  1
  Al  Al1  1  0.65330931  0.65330931  0.00000000  1
  Al  Al2  1  0.66255797  0.00000000  0.66255797  1
  Al  Al3  1  0.33744203  -0.00000000  0.33744203  1
  Al  Al4  1  0.80593692  0.30593692  0.50000000  1
  Al  Al5  1  0.19406308  0.69406308  0.50000000  1
  Fe  Fe0  1  0.50000000  -0.00000000  -0.00000000  1
  Fe  Fe1  1  0.50000000  0.50000000  0.50000000  1
  Fe  Fe2  1  -0.00000000  -0.00000000  0.50000000  1
  Fe  Fe3  1  -0.00000000  0.50000000  -0.00000000  1
  Fe  Fe4  1  0.23912899  0.50000000  0.73912899  1
  Fe  Fe5  1  0.76087101  0.50000000  0.26087101  1
loop_
_geom_bond_atom_site_label_1
_geom_bond_atom_site_label_2
_geom_bond_distance
_geom_bond_site_symmetry_2
Er0 Fe4 3.213370 1_555
Er0 Fe5 3.213370 1_455
Er0 Fe4 3.213370 1_544
Er0 Fe5 3.213370 1_444
Er0 Fe1 3.274500 1_444
Er0 Fe2 3.274500 1_554
Er0 Fe0 3.274500 1_455
Er0 Fe1 3.274500 1_555
Er0 Fe3 3.274500 1_545
Er0 Fe3 3.274500 1_555
Er0 Fe0 3.274500 1_555
Er0 Fe2 3.274500 1_555
Al0 Fe4 2.591416 1_554
Al0 Fe5 2.591416 1_555
Al0 Fe2 2.607572 1_554
Al0 Fe3 2.607572 1_555
Al0 Fe1 2.607572 1_555
Al0 Fe0 2.607572 1_555
Al0 Al1 2.634194 1_555
Al0 Al5 2.803575 1_544
Al0 Al5 2.803575 1_555
Al0 Er0 2.978458 1_555
Al1 Fe4 2.591416 1_554
Al1 Fe5 2.591416 1_555
Al1 Fe1 2.607572 1_554
Al1 Fe2 2.607572 1_665
Al1 Fe3 2.607572 1_655
Al1 Fe0 2.607572 1_565
Al1 Al4 2.803575 1_554
Al1 Al4 2.803575 1_565
Al1 Er0 2.978458 1_665
Al2 Fe0 2.589926 1_556
Al2 Fe3 2.589926 1_656
Al2 Fe1 2.589926 1_545
Al2 Fe2 2.589926 1_655
Al2 Fe5 2.616882 1_545
Al2 Fe5 2.616882 1_556
Al2 Al3 2.781360 1_555
Al2 Er0 2.886810 1_656
Al3 Fe1 2.589926 1_555
Al3 Fe0 2.589926 1_555
Al3 Fe3 2.589926 1_545
Al3 Fe2 2.589926 1_555
Al3 Fe4 2.616882 1_555
Al3 Fe4 2.616882 1_544
Al3 Er0 2.886810 1_555
Al4 Fe1 2.518003 1_555
Al4 Fe0 2.518003 1_555
Al4 Fe3 2.518003 1_656
Al4 Fe2 2.518003 1_655
Al4 Fe5 2.639068 1_555
Al4 Fe4 2.639068 1_655
Al4 Er0 2.986686 1_655
Al4 Er0 2.986686 1_666
Al5 Fe2 2.518003 1_565
Al5 Fe0 2.518003 1_566
Al5 Fe1 2.518003 1_555
Al5 Fe3 2.518003 1_555
Al5 Fe5 2.639068 1_455
Al5 Fe4 2.639068 1_555
Al5 Er0 2.986686 1_566
Al5 Er0 2.986686 1_555
Fe0 Fe1 2.478040 1_544
Fe0 Fe1 2.478040 1_555
Fe0 Fe5 2.481283 1_555
Fe0 Fe4 2.481283 1_544
Fe1 Fe4 2.481283 1_555
Fe1 Fe5 2.481283 1_555
Fe2 Fe3 2.478040 1_545
Fe2 Fe3 2.478040 1_556
Fe2 Fe5 2.481283 1_445
Fe2 Fe4 2.481283 1_555
Fe3 Fe4 2.481283 1_554
Fe3 Fe5 2.481283 1_455
