# generated using pymatgen
data_LiMg30BO31
_symmetry_space_group_name_H-M   'P 1'
_cell_length_a   8.46505800
_cell_length_b   8.46505800
_cell_length_c   8.54560400
_cell_angle_alpha   90.00000000
_cell_angle_beta   90.00000000
_cell_angle_gamma   90.00000000
_symmetry_Int_Tables_number   1
_chemical_formula_structural   LiMg30BO31
_chemical_formula_sum   'Li1 Mg30 B1 O31'
_cell_volume   612.35411428
_cell_formula_units_Z   1
loop_
 _symmetry_equiv_pos_site_id
 _symmetry_equiv_pos_as_xyz
  1  'x, y, z'
loop_
 _atom_site_type_symbol
 _atom_site_label
 _atom_site_symmetry_multiplicity
 _atom_site_fract_x
 _atom_site_fract_y
 _atom_site_fract_z
 _atom_site_occupancy
  Li  Li0  1  0.00000000  0.00000000  0.99140400  1
  Mg  Mg0  1  0.00000000  0.50000000  0.00117000  1
  Mg  Mg1  1  0.50000000  0.00000000  0.00117000  1
  Mg  Mg2  1  0.00000000  0.00000000  0.49998600  1
  Mg  Mg3  1  0.00000000  0.50000000  0.49914800  1
  Mg  Mg4  1  0.50000000  0.00000000  0.49914800  1
  Mg  Mg5  1  0.50000000  0.50000000  0.49851200  1
  Mg  Mg6  1  0.24965500  0.24965500  0.00005700  1
  Mg  Mg7  1  0.24965500  0.75034500  0.00005700  1
  Mg  Mg8  1  0.75034500  0.24965500  0.00005700  1
  Mg  Mg9  1  0.75034500  0.75034500  0.00005700  1
  Mg  Mg10  1  0.24929400  0.24929400  0.50048700  1
  Mg  Mg11  1  0.24929400  0.75070600  0.50048700  1
  Mg  Mg12  1  0.75070600  0.24929400  0.50048700  1
  Mg  Mg13  1  0.75070600  0.75070600  0.50048700  1
  Mg  Mg14  1  0.00000000  0.24902300  0.24718000  1
  Mg  Mg15  1  0.00000000  0.75097700  0.24718000  1
  Mg  Mg16  1  0.50000000  0.25871800  0.24778500  1
  Mg  Mg17  1  0.50000000  0.74128200  0.24778500  1
  Mg  Mg18  1  0.00000000  0.24653700  0.75322300  1
  Mg  Mg19  1  0.00000000  0.75346300  0.75322300  1
  Mg  Mg20  1  0.50000000  0.24496700  0.75083800  1
  Mg  Mg21  1  0.50000000  0.75503300  0.75083800  1
  Mg  Mg22  1  0.24902300  0.00000000  0.24718000  1
  Mg  Mg23  1  0.25871800  0.50000000  0.24778500  1
  Mg  Mg24  1  0.75097700  0.00000000  0.24718000  1
  Mg  Mg25  1  0.74128200  0.50000000  0.24778500  1
  Mg  Mg26  1  0.24653700  0.00000000  0.75322300  1
  Mg  Mg27  1  0.24496700  0.50000000  0.75083800  1
  Mg  Mg28  1  0.75346300  0.00000000  0.75322300  1
  Mg  Mg29  1  0.75503300  0.50000000  0.75083800  1
  B  B0  1  0.50000000  0.50000000  0.95215300  1
  O  O0  1  0.00000000  0.50000000  0.24624500  1
  O  O1  1  0.50000000  0.00000000  0.24624500  1
  O  O2  1  0.50000000  0.50000000  0.26842200  1
  O  O3  1  0.00000000  0.00000000  0.74527600  1
  O  O4  1  0.00000000  0.50000000  0.75537900  1
  O  O5  1  0.50000000  0.00000000  0.75537900  1
  O  O6  1  0.50000000  0.50000000  0.78053200  1
  O  O7  1  0.25204800  0.25204800  0.24905300  1
  O  O8  1  0.25204800  0.74795200  0.24905300  1
  O  O9  1  0.74795200  0.25204800  0.24905300  1
  O  O10  1  0.74795200  0.74795200  0.24905300  1
  O  O11  1  0.25071100  0.25071100  0.75119600  1
  O  O12  1  0.25071100  0.74928900  0.75119600  1
  O  O13  1  0.74928900  0.25071100  0.75119600  1
  O  O14  1  0.74928900  0.74928900  0.75119600  1
  O  O15  1  0.00000000  0.26167200  0.99981100  1
  O  O16  1  0.00000000  0.73832800  0.99981100  1
  O  O17  1  0.50000000  0.28592000  0.99520400  1
  O  O18  1  0.50000000  0.71408000  0.99520400  1
  O  O19  1  0.00000000  0.25315400  0.50131100  1
  O  O20  1  0.00000000  0.74684600  0.50131100  1
  O  O21  1  0.50000000  0.25156600  0.50631400  1
  O  O22  1  0.50000000  0.74843400  0.50631400  1
  O  O23  1  0.26167200  0.00000000  0.99981100  1
  O  O24  1  0.28592000  0.50000000  0.99520400  1
  O  O25  1  0.73832800  0.00000000  0.99981100  1
  O  O26  1  0.71408000  0.50000000  0.99520400  1
  O  O27  1  0.25315400  0.00000000  0.50131100  1
  O  O28  1  0.25156600  0.50000000  0.50631400  1
  O  O29  1  0.74684600  0.00000000  0.50131100  1
  O  O30  1  0.74843400  0.50000000  0.50631400  1
loop_
_geom_bond_atom_site_label_1
_geom_bond_atom_site_label_2
_geom_bond_distance
_geom_bond_site_symmetry_2
Li0 O3 2.103312 1_555
Li0 O23 2.216233 1_555
Li0 O25 2.216233 1_455
Li0 O16 2.216233 1_545
Li0 O15 2.216233 1_555
Mg0 O15 2.017494 1_554
Mg0 O16 2.017494 1_554
Mg0 O0 2.094314 1_555
Mg0 O4 2.100433 1_554
Mg0 O26 2.420866 1_454
Mg0 O24 2.420866 1_554
Mg1 O23 2.017494 1_554
Mg1 O25 2.017494 1_554
Mg1 O1 2.094314 1_555
Mg1 O5 2.100433 1_554
Mg1 O18 2.420866 1_544
Mg1 O17 2.420866 1_554
Mg2 O3 2.096151 1_555
Mg2 O29 2.142993 1_455
Mg2 O19 2.142993 1_555
Mg2 O20 2.142993 1_545
Mg2 O27 2.142993 1_555
Mg3 O19 2.089647 1_555
Mg3 O20 2.089647 1_555
Mg3 O30 2.130401 1_455
Mg3 O28 2.130401 1_555
Mg3 O0 2.161209 1_555
Mg3 O4 2.189649 1_555
Mg4 O27 2.089647 1_555
Mg4 O29 2.089647 1_555
Mg4 O22 2.130401 1_545
Mg4 O21 2.130401 1_555
Mg4 O1 2.161209 1_555
Mg4 O5 2.189649 1_555
Mg5 O2 1.966258 1_555
Mg5 O21 2.104065 1_555
Mg5 O28 2.104065 1_555
Mg5 O22 2.104065 1_555
Mg5 O30 2.104065 1_555
Mg5 O6 2.410031 1_555
Mg6 O15 2.115792 1_554
Mg6 O23 2.115792 1_554
Mg6 O11 2.126705 1_554
Mg6 O7 2.128014 1_555
Mg6 O17 2.141706 1_554
Mg6 O24 2.141706 1_554
Mg7 O23 2.115792 1_564
Mg7 O16 2.115792 1_554
Mg7 O12 2.126705 1_554
Mg7 O8 2.128014 1_555
Mg7 O18 2.141706 1_554
Mg7 O24 2.141706 1_554
Mg8 O15 2.115792 1_654
Mg8 O25 2.115792 1_554
Mg8 O13 2.126705 1_554
Mg8 O9 2.128014 1_555
Mg8 O26 2.141706 1_554
Mg8 O17 2.141706 1_554
Mg9 O25 2.115792 1_564
Mg9 O16 2.115792 1_654
Mg9 O14 2.126705 1_554
Mg9 O10 2.128014 1_555
Mg9 O18 2.141706 1_554
Mg9 O26 2.141706 1_554
Mg10 O27 2.110553 1_555
Mg10 O19 2.110553 1_555
Mg10 O21 2.122912 1_555
Mg10 O28 2.122912 1_555
Mg10 O11 2.142527 1_555
Mg10 O7 2.148908 1_555
Mg11 O20 2.110553 1_555
Mg11 O27 2.110553 1_565
Mg11 O22 2.122912 1_555
Mg11 O28 2.122912 1_555
Mg11 O12 2.142527 1_555
Mg11 O8 2.148908 1_555
Mg12 O29 2.110553 1_555
Mg12 O19 2.110553 1_655
Mg12 O21 2.122912 1_555
Mg12 O30 2.122912 1_555
Mg12 O13 2.142527 1_555
Mg12 O9 2.148908 1_555
Mg13 O29 2.110553 1_565
Mg13 O20 2.110553 1_655
Mg13 O22 2.122912 1_555
Mg13 O30 2.122912 1_555
Mg13 O14 2.142527 1_555
Mg13 O10 2.148908 1_555
Mg14 O15 2.116628 1_554
Mg14 O0 2.124550 1_555
Mg14 O7 2.133815 1_555
Mg14 O9 2.133815 1_455
Mg14 O19 2.171984 1_555
Mg15 O16 2.116628 1_554
Mg15 O0 2.124550 1_555
Mg15 O8 2.133815 1_555
Mg15 O10 2.133815 1_455
Mg15 O20 2.171984 1_555
Mg16 O2 2.050066 1_555
Mg16 O9 2.099715 1_555
Mg16 O7 2.099715 1_555
Mg16 O17 2.170705 1_554
Mg16 O1 2.190102 1_555
Mg16 O21 2.210116 1_555
Mg17 O2 2.050066 1_555
Mg17 O10 2.099715 1_555
Mg17 O8 2.099715 1_555
Mg17 O18 2.170705 1_554
Mg17 O1 2.190102 1_565
Mg17 O22 2.210116 1_555
Mg18 O3 2.088055 1_555
Mg18 O15 2.111135 1_555
Mg18 O11 2.122648 1_555
Mg18 O13 2.122648 1_455
Mg18 O4 2.145658 1_555
Mg18 O19 2.153469 1_555
Mg19 O3 2.088055 1_565
Mg19 O16 2.111135 1_555
Mg19 O14 2.122648 1_455
Mg19 O12 2.122648 1_555
Mg19 O4 2.145658 1_555
Mg19 O20 2.153469 1_555
Mg20 O5 2.074023 1_555
Mg20 O21 2.090352 1_555
Mg20 O13 2.110808 1_555
Mg20 O11 2.110808 1_555
Mg20 O17 2.116835 1_555
Mg20 O6 2.173731 1_555
Mg21 O5 2.074023 1_565
Mg21 O22 2.090352 1_555
Mg21 O12 2.110808 1_555
Mg21 O14 2.110808 1_555
Mg21 O18 2.116835 1_555
Mg21 O6 2.173731 1_555
Mg22 O23 2.116628 1_554
Mg22 O1 2.124550 1_555
Mg22 O7 2.133815 1_555
Mg22 O8 2.133815 1_545
Mg22 O27 2.171984 1_555
Mg23 O2 2.050066 1_555
Mg23 O8 2.099715 1_555
Mg23 O7 2.099715 1_555
Mg23 O24 2.170705 1_554
Mg23 O0 2.190102 1_555
Mg23 O28 2.210116 1_555
Mg24 O25 2.116628 1_554
Mg24 O1 2.124550 1_555
Mg24 O9 2.133815 1_555
Mg24 O10 2.133815 1_545
Mg24 O29 2.171984 1_555
Mg25 O2 2.050066 1_555
Mg25 O10 2.099715 1_555
Mg25 O9 2.099715 1_555
Mg25 O26 2.170705 1_554
Mg25 O0 2.190102 1_655
Mg25 O30 2.210116 1_555
Mg26 O3 2.088055 1_555
Mg26 O23 2.111135 1_555
Mg26 O12 2.122648 1_545
Mg26 O11 2.122648 1_555
Mg26 O5 2.145658 1_555
Mg26 O27 2.153469 1_555
Mg27 O4 2.074023 1_555
Mg27 O28 2.090352 1_555
Mg27 O12 2.110808 1_555
Mg27 O11 2.110808 1_555
Mg27 O24 2.116835 1_555
Mg27 O6 2.173731 1_555
Mg28 O3 2.088055 1_655
Mg28 O25 2.111135 1_555
Mg28 O13 2.122648 1_555
Mg28 O14 2.122648 1_545
Mg28 O5 2.145658 1_555
Mg28 O29 2.153469 1_555
Mg29 O4 2.074023 1_655
Mg29 O30 2.090352 1_555
Mg29 O13 2.110808 1_555
Mg29 O14 2.110808 1_555
Mg29 O26 2.116835 1_555
Mg29 O6 2.173731 1_555
B0 O6 1.466605 1_555
B0 O17 1.849166 1_555
B0 O24 1.849166 1_555
B0 O18 1.849166 1_555
B0 O26 1.849166 1_555
