# generated using pymatgen
data_Y4MgCo
_symmetry_space_group_name_H-M   'P 1'
_cell_length_a   9.63051421
_cell_length_b   9.63050654
_cell_length_c   9.63051740
_cell_angle_alpha   59.99685684
_cell_angle_beta   59.99694012
_cell_angle_gamma   59.99686055
_symmetry_Int_Tables_number   1
_chemical_formula_structural   Y4MgCo
_chemical_formula_sum   'Y16 Mg4 Co4'
_cell_volume   631.54247339
_cell_formula_units_Z   4
loop_
 _symmetry_equiv_pos_site_id
 _symmetry_equiv_pos_as_xyz
  1  'x, y, z'
loop_
 _atom_site_type_symbol
 _atom_site_label
 _atom_site_symmetry_multiplicity
 _atom_site_fract_x
 _atom_site_fract_y
 _atom_site_fract_z
 _atom_site_occupancy
  Y  Y0  1  0.34374145  0.34372404  0.34373887  1
  Y  Y1  1  0.34374429  0.34372655  0.96878957  1
  Y  Y2  1  0.34372636  0.96882660  0.34372427  1
  Y  Y3  1  0.96878390  0.34372915  0.34374418  1
  Y  Y4  1  0.81333297  0.18670891  0.18660593  1
  Y  Y5  1  0.18667998  0.81334583  0.81326608  1
  Y  Y6  1  0.18668784  0.81334121  0.18670428  1
  Y  Y7  1  0.81333818  0.18670055  0.81335196  1
  Y  Y8  1  0.18660403  0.18672350  0.81333348  1
  Y  Y9  1  0.81326511  0.81335865  0.18668222  1
  Y  Y10  1  0.93814064  0.56186324  0.56189200  1
  Y  Y11  1  0.56187247  0.93806178  0.93819868  1
  Y  Y12  1  0.56187625  0.93806496  0.56187037  1
  Y  Y13  1  0.93813688  0.56185993  0.93811408  1
  Y  Y14  1  0.56189304  0.56185830  0.93813099  1
  Y  Y15  1  0.93820882  0.93804825  0.56187143  1
  Mg  Mg0  1  0.57845386  0.57846160  0.57845544  1
  Mg  Mg1  1  0.57845410  0.57846115  0.26462884  1
  Mg  Mg2  1  0.57844286  0.26466744  0.57844445  1
  Mg  Mg3  1  0.26462181  0.57846329  0.57845708  1
  Co  Co0  1  0.14038610  0.14039184  0.14038633  1
  Co  Co1  1  0.14038495  0.14039145  0.57883739  1
  Co  Co2  1  0.14038838  0.57883284  0.14038923  1
  Co  Co3  1  0.57883772  0.14039094  0.14038488  1
loop_
_geom_bond_atom_site_label_1
_geom_bond_atom_site_label_2
_geom_bond_distance
_geom_bond_site_symmetry_2
Y0 Y10 3.476371 1_455
Y0 Y14 3.476385 1_554
Y0 Y12 3.476570 1_545
Y1 Y13 3.476429 1_455
Y1 Y11 3.476623 1_545
Y1 Y14 3.476640 1_555
Y10 Y3 3.476730 1_555
Y10 Y8 3.611307 1_655
Y10 Y7 3.611728 1_555
Y10 Y6 3.612044 1_655
Y10 Y9 3.612458 1_555
Y10 Y15 3.623082 1_555
Y10 Y12 3.623144 1_555
Y10 Y13 3.623179 1_555
Y10 Y14 3.623249 1_555
Y11 Y2 3.476049 1_556
Y11 Y9 3.611429 1_556
Y11 Y6 3.611515 1_556
Y11 Y7 3.612799 1_565
Y11 Y8 3.612878 1_565
Y11 Y13 3.623145 1_555
Y11 Y14 3.623257 1_555
Y11 Y15 3.624102 1_555
Y11 Y12 3.624203 1_555
Y12 Y2 3.476254 1_555
Y12 Y9 3.611473 1_555
Y12 Y5 3.611599 1_555
Y12 Y4 3.612652 1_565
Y12 Y8 3.612778 1_565
Y12 Y14 3.623150 1_555
Y12 Y15 3.624201 1_555
Y13 Y3 3.476524 1_556
Y13 Y8 3.611415 1_655
Y13 Y4 3.611643 1_556
Y13 Y5 3.612191 1_655
Y13 Y9 3.612419 1_556
Y13 Y15 3.622976 1_555
Y13 Y14 3.623348 1_555
Y14 Y4 3.611386 1_556
Y14 Y7 3.611576 1_555
Y14 Y6 3.612250 1_556
Y14 Y5 3.612432 1_555
Y15 Y2 3.476026 1_655
Y15 Y3 3.476705 1_565
Y15 Y6 3.611311 1_655
Y15 Y5 3.611349 1_655
Y15 Y4 3.612907 1_565
Y15 Y7 3.612950 1_565
Mg0 Mg2 3.022103 1_555
Mg0 Mg1 3.022314 1_555
Mg0 Mg3 3.022348 1_555
Mg0 Y12 3.311170 1_555
Mg0 Y14 3.311862 1_555
Mg0 Y10 3.311979 1_555
Mg0 Y3 3.530482 1_555
Mg0 Y1 3.530502 1_555
Mg0 Y2 3.530681 1_555
Mg0 Y5 3.537435 1_555
Mg0 Y9 3.537487 1_555
Mg0 Y7 3.537729 1_555
Mg1 Mg2 3.021956 1_555
Mg1 Mg3 3.022208 1_555
Mg1 Y11 3.310970 1_554
Mg1 Y14 3.311760 1_554
Mg1 Y13 3.311776 1_554
Mg1 Y3 3.530544 1_555
Mg1 Y0 3.530725 1_555
Mg1 Y2 3.530754 1_555
Mg1 Y6 3.537445 1_555
Mg1 Y9 3.537621 1_555
Mg1 Y4 3.537732 1_555
Mg2 Mg3 3.021992 1_555
Mg2 Y11 3.312542 1_545
Mg2 Y12 3.312640 1_545
Mg2 Y15 3.312662 1_545
Mg2 Y3 3.530419 1_555
Mg2 Y1 3.530443 1_555
Mg2 Y0 3.530592 1_555
Mg2 Y8 3.538124 1_555
Mg2 Y4 3.538182 1_555
Mg2 Y7 3.538313 1_555
Mg3 Y15 3.310813 1_455
Mg3 Y13 3.311511 1_455
Mg3 Y10 3.311605 1_455
Mg3 Y1 3.530597 1_555
Mg3 Y0 3.530750 1_555
Mg3 Y2 3.530774 1_555
Mg3 Y6 3.537374 1_555
Mg3 Y5 3.537502 1_555
Mg3 Y8 3.537608 1_555
Co0 Y6 2.776225 1_545
Co0 Y8 2.776470 1_554
Co0 Y4 2.776512 1_455
Co0 Y2 2.786206 1_545
Co0 Y1 2.786281 1_554
Co0 Y3 2.786293 1_455
Co0 Y13 3.470436 1_454
Co0 Y11 3.470540 1_544
Co0 Y15 3.470541 1_445
Co1 Y5 2.776103 1_545
Co1 Y7 2.776386 1_455
Co1 Y8 2.776493 1_555
Co1 Y2 2.786186 1_545
Co1 Y0 2.786220 1_555
Co1 Y3 2.786263 1_455
Co1 Y10 3.470522 1_455
Co1 Y12 3.470634 1_545
Co1 Y15 3.470758 1_445
Co2 Y5 2.776854 1_554
Co2 Y9 2.776895 1_455
Co2 Y6 2.777002 1_555
Co2 Y0 2.786313 1_555
Co2 Y1 2.786352 1_554
Co2 Y3 2.786362 1_455
Co2 Y10 3.470727 1_455
Co2 Y14 3.470729 1_554
Co2 Y13 3.470861 1_454
Co3 Y9 2.776016 1_545
Co3 Y7 2.776255 1_554
Co3 Y4 2.776409 1_555
Co3 Y2 2.786169 1_545
Co3 Y0 2.786206 1_555
Co3 Y1 2.786229 1_554
Co3 Y14 3.470487 1_554
Co3 Y12 3.470600 1_545
Co3 Y11 3.470722 1_544
