# generated using pymatgen
data_SiNiW
_symmetry_space_group_name_H-M   'P 1'
_cell_length_a   4.70346618
_cell_length_b   4.70346618
_cell_length_c   7.63336800
_cell_angle_alpha   90.00000000
_cell_angle_beta   90.00000000
_cell_angle_gamma   118.06647442
_symmetry_Int_Tables_number   1
_chemical_formula_structural   SiNiW
_chemical_formula_sum   'Si4 Ni4 W4'
_cell_volume   149.01119310
_cell_formula_units_Z   4
loop_
 _symmetry_equiv_pos_site_id
 _symmetry_equiv_pos_as_xyz
  1  'x, y, z'
loop_
 _atom_site_type_symbol
 _atom_site_label
 _atom_site_symmetry_multiplicity
 _atom_site_fract_x
 _atom_site_fract_y
 _atom_site_fract_z
 _atom_site_occupancy
  Si  Si0  1  0.35059700  0.15937300  0.00000000  1
  Si  Si1  1  0.84062700  0.64940300  0.00000000  1
  Si  Si2  1  0.99079800  0.00920200  0.26965600  1
  Si  Si3  1  0.99079800  0.00920200  0.73034400  1
  Ni  Ni0  1  0.16688000  0.83312000  0.50000000  1
  Ni  Ni1  1  0.65357400  0.83168800  0.50000000  1
  Ni  Ni2  1  0.16831200  0.34642600  0.50000000  1
  Ni  Ni3  1  0.84936100  0.15063900  0.00000000  1
  W  W0  1  0.33520100  0.66479900  0.81234000  1
  W  W1  1  0.65937600  0.34062400  0.69229300  1
  W  W2  1  0.65937600  0.34062400  0.30770700  1
  W  W3  1  0.33520100  0.66479900  0.18766000  1
loop_
_geom_bond_atom_site_label_1
_geom_bond_atom_site_label_2
_geom_bond_distance
_geom_bond_site_symmetry_2
Si0 Si1 2.371868 1_555
Si0 Si1 2.468382 1_445
Si0 Si2 2.544591 1_455
Si0 Si3 2.544591 1_454
Si0 W2 2.681049 1_555
Si0 W1 2.681049 1_554
Si0 W0 2.703699 1_544
Si0 W3 2.703699 1_545
Si0 W0 2.805452 1_554
Si0 W3 2.805452 1_555
Si1 Si3 2.544591 1_564
Si1 Si2 2.544591 1_565
Si1 W2 2.681049 1_555
Si1 W1 2.681049 1_554
Si1 W0 2.703699 1_654
Si1 W3 2.703699 1_655
Si1 W0 2.805452 1_554
Si1 W3 2.805452 1_555
Si2 W2 2.689024 1_555
Si2 W2 2.791119 1_655
Si2 W2 2.791119 1_545
Si2 W3 2.797133 1_655
Si2 W3 2.797133 1_545
Si2 W3 2.847635 1_645
Si3 W1 2.689024 1_555
Si3 W1 2.791119 1_545
Si3 W1 2.791119 1_655
Si3 W0 2.797133 1_655
Si3 W0 2.797133 1_545
Si3 W0 2.847635 1_645
Ni0 Si2 2.260281 1_465
Ni0 Si3 2.260281 1_465
Ni0 Ni1 2.292325 1_555
Ni0 Ni2 2.292325 1_555
Ni0 Ni1 2.411156 1_455
Ni0 Ni2 2.411156 1_565
Ni0 W3 2.743681 1_555
Ni0 W0 2.743681 1_555
Ni0 W1 2.831119 1_565
Ni0 W1 2.831119 1_455
Ni0 W2 2.831119 1_565
Ni0 W2 2.831119 1_455
Ni1 Si3 2.249079 1_565
Ni1 Si2 2.249079 1_565
Ni1 Ni2 2.348789 1_555
Ni1 Ni2 2.491461 1_665
Ni1 W3 2.727067 1_555
Ni1 W0 2.727067 1_555
Ni1 W1 2.747608 1_555
Ni1 W2 2.747608 1_555
Ni1 W1 2.797131 1_565
Ni1 W2 2.797131 1_565
Ni2 Si3 2.249079 1_455
Ni2 Si2 2.249079 1_455
Ni2 W3 2.727067 1_555
Ni2 W0 2.727067 1_555
Ni2 W1 2.747608 1_555
Ni2 W2 2.747608 1_555
Ni2 W1 2.797131 1_455
Ni2 W2 2.797131 1_455
Ni3 Si1 2.338500 1_545
Ni3 Si0 2.338500 1_655
Ni3 Si2 2.353397 1_555
Ni3 Si3 2.353397 1_554
Ni3 Si0 2.365525 1_555
Ni3 Si1 2.365525 1_555
Ni3 W2 2.804538 1_555
Ni3 W1 2.804538 1_554
Ni3 W0 2.814612 1_654
Ni3 W3 2.814612 1_655
Ni3 W0 2.814612 1_544
Ni3 W3 2.814612 1_545
W0 W1 2.770756 1_555
W0 W3 2.864956 1_556
W0 W1 2.950948 1_455
W0 W1 2.950948 1_565
W1 W2 2.935686 1_555
W2 W3 2.770756 1_555
W2 W3 2.950948 1_655
W2 W3 2.950948 1_545
