# generated using pymatgen
data_La4MgGa2(FeO6)2
_symmetry_space_group_name_H-M   'P 1'
_cell_length_a   6.24728710
_cell_length_b   5.65851141
_cell_length_c   8.45020648
_cell_angle_alpha   93.38692649
_cell_angle_beta   93.44995663
_cell_angle_gamma   90.95336055
_symmetry_Int_Tables_number   1
_chemical_formula_structural   La4MgGa2(FeO6)2
_chemical_formula_sum   'La4 Mg1 Ga2 Fe2 O12'
_cell_volume   297.59441809
_cell_formula_units_Z   1
loop_
 _symmetry_equiv_pos_site_id
 _symmetry_equiv_pos_as_xyz
  1  'x, y, z'
loop_
 _atom_site_type_symbol
 _atom_site_label
 _atom_site_symmetry_multiplicity
 _atom_site_fract_x
 _atom_site_fract_y
 _atom_site_fract_z
 _atom_site_occupancy
  La  La0  1  0.39373400  0.42836300  0.77551800  1
  La  La1  1  0.86481000  0.01033000  0.78686600  1
  La  La2  1  0.58886900  0.53485100  0.21857400  1
  La  La3  1  0.09204900  0.98063200  0.24705400  1
  Mg  Mg0  1  0.26770900  0.88293900  0.61936300  1
  Ga  Ga0  1  0.02540100  0.48696700  0.05302000  1
  Ga  Ga1  1  0.59617700  0.01825400  0.42533000  1
  Fe  Fe0  1  0.95742700  0.46622600  0.51153100  1
  Fe  Fe1  1  0.46799100  0.99485400  0.00218700  1
  O  O0  1  0.50311900  0.85148600  0.77950700  1
  O  O1  1  0.06354300  0.66642300  0.70525100  1
  O  O2  1  0.48244100  0.13428500  0.23409100  1
  O  O3  1  0.97250800  0.38068700  0.26622200  1
  O  O4  1  0.66008700  0.26493600  0.57589200  1
  O  O5  1  0.14737500  0.20998100  0.96414500  1
  O  O6  1  0.29221600  0.67800000  0.06358000  1
  O  O7  1  0.82464800  0.81351100  0.40548400  1
  O  O8  1  0.37110600  0.78247700  0.41762200  1
  O  O9  1  0.84676800  0.75637500  0.05330500  1
  O  O10  1  0.66669300  0.29263200  0.95709800  1
  O  O11  1  0.14151900  0.18721900  0.60502800  1
loop_
_geom_bond_atom_site_label_1
_geom_bond_atom_site_label_2
_geom_bond_distance
_geom_bond_site_symmetry_2
La0 O10 2.391659 1_555
La0 O11 2.417256 1_555
La0 O0 2.476647 1_555
La0 O1 2.542016 1_555
La0 O4 2.583465 1_555
La0 O5 2.626990 1_555
La0 O6 2.851696 1_556
La1 O0 2.413790 1_545
La1 O1 2.414303 1_645
La1 O5 2.460078 1_655
La1 O10 2.482223 1_555
La1 O11 2.606736 1_655
La1 O4 2.641968 1_555
La1 O9 2.748494 1_546
La2 O2 2.364791 1_555
La2 O6 2.385230 1_555
La2 O7 2.549316 1_555
La2 O9 2.554982 1_555
La2 O3 2.581126 1_555
La2 O8 2.589127 1_555
La2 O10 2.605872 1_554
La3 O3 2.394965 1_465
La3 O7 2.417316 1_455
La3 O9 2.454932 1_455
La3 O8 2.515458 1_555
La3 O2 2.586304 1_565
La3 O6 2.625041 1_555
La3 O5 2.823109 1_564
La3 O11 3.173328 1_565
Mg0 O11 1.912846 1_565
Mg0 O8 1.917507 1_555
Mg0 O1 1.954249 1_555
Mg0 O0 1.955373 1_555
Ga0 O5 1.889637 1_554
Ga0 O9 1.904165 1_455
Ga0 O6 1.966123 1_555
Ga0 O3 1.977290 1_455
Ga0 O10 2.546009 1_454
Ga1 O4 1.853913 1_555
Ga1 O7 1.862384 1_545
Ga1 O2 1.884177 1_555
Ga1 O8 1.917693 1_545
Fe0 O1 2.006922 1_655
Fe0 O3 2.108694 1_555
Fe0 O11 2.130217 1_655
Fe0 O4 2.273334 1_555
Fe0 O7 2.350670 1_555
Fe1 O0 2.030346 1_554
Fe1 O2 2.065056 1_565
Fe1 O10 2.142067 1_564
Fe1 O6 2.191464 1_555
Fe1 O5 2.376334 1_564
Fe1 O9 2.767524 1_555
