# generated using pymatgen
data_Eu2ScNbO7
_symmetry_space_group_name_H-M   'P 1'
_cell_length_a   7.50184545
_cell_length_b   7.50184545
_cell_length_c   7.50184545
_cell_angle_alpha   120.59116073
_cell_angle_beta   119.52904235
_cell_angle_gamma   89.89839814
_symmetry_Int_Tables_number   1
_chemical_formula_structural   Eu2ScNbO7
_chemical_formula_sum   'Eu4 Sc2 Nb2 O14'
_cell_volume   298.22713104
_cell_formula_units_Z   2
loop_
 _symmetry_equiv_pos_site_id
 _symmetry_equiv_pos_as_xyz
  1  'x, y, z'
loop_
 _atom_site_type_symbol
 _atom_site_label
 _atom_site_symmetry_multiplicity
 _atom_site_fract_x
 _atom_site_fract_y
 _atom_site_fract_z
 _atom_site_occupancy
  Eu  Eu0  1  0.50000000  0.50000000  0.50000000  1
  Eu  Eu1  1  0.50000000  0.00000000  0.00000000  1
  Eu  Eu2  1  0.50000000  0.50000000  0.00000000  1
  Eu  Eu3  1  0.00000000  0.50000000  0.50000000  1
  Sc  Sc0  1  0.00000000  0.00000000  0.50000000  1
  Sc  Sc1  1  0.00000000  0.50000000  0.00000000  1
  Nb  Nb0  1  0.00000000  0.00000000  0.00000000  1
  Nb  Nb1  1  0.50000000  0.00000000  0.50000000  1
  O  O0  1  0.37821000  0.62821000  0.75000000  1
  O  O1  1  0.62179000  0.37179000  0.25000000  1
  O  O2  1  0.31809000  0.06809000  0.25000000  1
  O  O3  1  0.90240600  0.65240600  0.25000000  1
  O  O4  1  0.33655400  0.67751600  0.26370800  1
  O  O5  1  0.91380800  0.07284600  0.23629200  1
  O  O6  1  0.33655400  0.07284600  0.65903900  1
  O  O7  1  0.91380800  0.67751600  0.84096100  1
  O  O8  1  0.68191000  0.93191000  0.75000000  1
  O  O9  1  0.09759400  0.34759400  0.75000000  1
  O  O10  1  0.66344600  0.32248400  0.73629200  1
  O  O11  1  0.08619200  0.92715400  0.76370800  1
  O  O12  1  0.66344600  0.92715400  0.34096100  1
  O  O13  1  0.08619200  0.32248400  0.15903900  1
loop_
_geom_bond_atom_site_label_1
_geom_bond_atom_site_label_2
_geom_bond_distance
_geom_bond_site_symmetry_2
Eu0 O1 2.264323 1_555
Eu0 O0 2.264323 1_555
Eu0 O13 2.583300 1_555
Eu0 O7 2.583300 1_555
Eu0 O10 2.583301 1_555
Eu0 O4 2.583301 1_555
Eu0 O8 2.680651 1_555
Eu0 O2 2.680651 1_555
Eu1 O0 2.264323 1_544
Eu1 O1 2.264323 1_555
Eu1 O6 2.583295 1_554
Eu1 O12 2.583295 1_545
Eu1 O5 2.583301 1_555
Eu1 O11 2.583301 1_544
Eu1 O2 2.680651 1_555
Eu1 O8 2.680651 1_544
Eu2 O0 2.328303 1_554
Eu2 O1 2.328303 1_555
Eu2 O3 2.487283 1_555
Eu2 O9 2.487283 1_554
Eu2 O12 2.625709 1_555
Eu2 O6 2.625709 1_554
Eu2 O4 2.625710 1_555
Eu2 O10 2.625710 1_554
Eu3 O0 2.328303 1_555
Eu3 O1 2.328303 1_455
Eu3 O9 2.487283 1_555
Eu3 O3 2.487283 1_455
Eu3 O13 2.625704 1_555
Eu3 O7 2.625704 1_455
Eu3 O5 2.625710 1_455
Eu3 O11 2.625710 1_555
Nb0 O7 2.000383 1_444
Nb0 O13 2.000383 1_555
Nb0 O11 2.000385 1_544
Nb0 O5 2.000385 1_455
Nb0 O8 2.022452 1_444
Nb0 O2 2.022452 1_555
Nb1 O10 2.000385 1_555
Nb1 O4 2.000385 1_545
Nb1 O12 2.000390 1_545
Nb1 O6 2.000390 1_555
Nb1 O2 2.022452 1_555
Nb1 O8 2.022452 1_545
O3 Sc0 2.128058 1_665
O3 Sc1 2.128058 1_655
O4 Sc1 2.113903 1_555
O5 Sc0 2.113903 1_655
O6 Sc0 2.113902 1_555
O7 Sc1 2.113908 1_656
O9 Sc1 2.128058 1_556
O9 Sc0 2.128058 1_555
O10 Sc1 2.113903 1_656
O11 Sc0 2.113903 1_565
O12 Sc0 2.113902 1_665
O13 Sc1 2.113908 1_555
