# generated using pymatgen
data_FeIr3
_symmetry_space_group_name_H-M   'P 1'
_cell_length_a   5.40657226
_cell_length_b   5.40657226
_cell_length_c   4.30886100
_cell_angle_alpha   90.00000000
_cell_angle_beta   90.00000000
_cell_angle_gamma   120.00000319
_symmetry_Int_Tables_number   1
_chemical_formula_structural   FeIr3
_chemical_formula_sum   'Fe2 Ir6'
_cell_volume   109.07798981
_cell_formula_units_Z   2
loop_
 _symmetry_equiv_pos_site_id
 _symmetry_equiv_pos_as_xyz
  1  'x, y, z'
loop_
 _atom_site_type_symbol
 _atom_site_label
 _atom_site_symmetry_multiplicity
 _atom_site_fract_x
 _atom_site_fract_y
 _atom_site_fract_z
 _atom_site_occupancy
  Fe  Fe0  1  0.33333300  0.66666700  0.75000000  1
  Fe  Fe1  1  0.66666700  0.33333300  0.25000000  1
  Ir  Ir0  1  0.16992500  0.33985000  0.25000000  1
  Ir  Ir1  1  0.66015000  0.83007500  0.25000000  1
  Ir  Ir2  1  0.16992500  0.83007500  0.25000000  1
  Ir  Ir3  1  0.83007500  0.66015000  0.75000000  1
  Ir  Ir4  1  0.33985000  0.16992500  0.75000000  1
  Ir  Ir5  1  0.83007500  0.16992500  0.75000000  1
loop_
_geom_bond_atom_site_label_1
_geom_bond_atom_site_label_2
_geom_bond_distance
_geom_bond_site_symmetry_2
Fe0 Ir2 2.642568 1_555
Fe0 Ir2 2.642568 1_556
Fe0 Ir0 2.642571 1_555
Fe0 Ir0 2.642571 1_556
Fe0 Ir1 2.642571 1_556
Fe0 Ir1 2.642571 1_555
Fe0 Ir3 2.703456 1_455
Fe0 Ir4 2.703456 1_565
Fe0 Ir5 2.703458 1_455
Fe0 Ir5 2.703458 1_565
Fe0 Ir4 2.703461 1_555
Fe0 Ir3 2.703461 1_555
Fe1 Ir5 2.642568 1_555
Fe1 Ir5 2.642568 1_554
Fe1 Ir4 2.642571 1_555
Fe1 Ir4 2.642571 1_554
Fe1 Ir3 2.642571 1_554
Fe1 Ir3 2.642571 1_555
Fe1 Ir1 2.703456 1_545
Fe1 Ir0 2.703456 1_655
Fe1 Ir2 2.703458 1_545
Fe1 Ir2 2.703458 1_655
Fe1 Ir0 2.703461 1_555
Fe1 Ir1 2.703461 1_555
Ir0 Ir1 2.650437 1_555
Ir0 Ir2 2.650437 1_555
Ir0 Ir5 2.678370 1_455
Ir0 Ir5 2.678370 1_454
Ir0 Ir4 2.678370 1_555
Ir0 Ir4 2.678370 1_554
Ir0 Ir1 2.756135 1_445
Ir0 Ir2 2.756135 1_545
Ir1 Ir2 2.650437 1_555
Ir1 Ir5 2.678370 1_564
Ir1 Ir5 2.678370 1_565
Ir1 Ir3 2.678370 1_554
Ir1 Ir3 2.678370 1_555
Ir1 Ir2 2.756135 1_655
Ir2 Ir3 2.678370 1_455
Ir2 Ir3 2.678370 1_454
Ir2 Ir4 2.678370 1_564
Ir2 Ir4 2.678370 1_565
Ir3 Ir4 2.650437 1_555
Ir3 Ir5 2.650437 1_555
Ir3 Ir4 2.756135 1_665
Ir3 Ir5 2.756135 1_565
Ir4 Ir5 2.650437 1_555
Ir4 Ir5 2.756135 1_455
