# generated using pymatgen
data_IrC2
_symmetry_space_group_name_H-M   'P 1'
_cell_length_a   5.16608365
_cell_length_b   5.16608365
_cell_length_c   9.40934600
_cell_angle_alpha   90.00000000
_cell_angle_beta   90.00000000
_cell_angle_gamma   104.96959037
_symmetry_Int_Tables_number   1
_chemical_formula_structural   IrC2
_chemical_formula_sum   'Ir8 C16'
_cell_volume   242.59831632
_cell_formula_units_Z   8
loop_
 _symmetry_equiv_pos_site_id
 _symmetry_equiv_pos_as_xyz
  1  'x, y, z'
loop_
 _atom_site_type_symbol
 _atom_site_label
 _atom_site_symmetry_multiplicity
 _atom_site_fract_x
 _atom_site_fract_y
 _atom_site_fract_z
 _atom_site_occupancy
  Ir  Ir0  1  0.74427800  0.25572200  0.50000000  1
  Ir  Ir1  1  0.24427800  0.75572200  0.00000000  1
  Ir  Ir2  1  0.25572200  0.74427800  0.50000000  1
  Ir  Ir3  1  0.75572200  0.24427800  0.00000000  1
  Ir  Ir4  1  0.30371000  0.30371000  0.70611200  1
  Ir  Ir5  1  0.69629000  0.69629000  0.29388800  1
  Ir  Ir6  1  0.19629000  0.19629000  0.20611200  1
  Ir  Ir7  1  0.80371000  0.80371000  0.79388800  1
  C  C0  1  0.67182200  0.83695100  0.51567800  1
  C  C1  1  0.16304900  0.32817800  0.48432200  1
  C  C2  1  0.66304900  0.82817800  0.01567800  1
  C  C3  1  0.17182200  0.33695100  0.98432200  1
  C  C4  1  0.32817800  0.16304900  0.48432200  1
  C  C5  1  0.83695100  0.67182200  0.51567800  1
  C  C6  1  0.33695100  0.17182200  0.98432200  1
  C  C7  1  0.82817800  0.66304900  0.01567800  1
  C  C8  1  0.62094800  0.27349100  0.21652100  1
  C  C9  1  0.72650900  0.37905200  0.78347900  1
  C  C10  1  0.22650900  0.87905200  0.71652100  1
  C  C11  1  0.12094800  0.77349100  0.28347900  1
  C  C12  1  0.37905200  0.72650900  0.78347900  1
  C  C13  1  0.27349100  0.62094800  0.21652100  1
  C  C14  1  0.77349100  0.12094800  0.28347900  1
  C  C15  1  0.87905200  0.22650900  0.71652100  1
loop_
_geom_bond_atom_site_label_1
_geom_bond_atom_site_label_2
_geom_bond_distance
_geom_bond_site_symmetry_2
C0 C5 1.353297 1_555
C0 Ir2 2.083294 1_555
C0 Ir0 2.103295 1_565
C0 Ir5 2.224100 1_555
C1 C4 1.353297 1_555
C1 Ir2 2.083294 1_555
C1 Ir0 2.103295 1_455
C1 Ir4 2.224100 1_555
C2 C7 1.353297 1_555
C2 Ir3 2.083294 1_565
C2 Ir1 2.103295 1_555
C2 Ir7 2.224100 1_554
C3 C6 1.353297 1_555
C3 Ir3 2.083294 1_456
C3 Ir1 2.103295 1_556
C3 Ir6 2.224100 1_556
C4 Ir0 2.083294 1_555
C4 Ir2 2.103295 1_545
C4 Ir4 2.224100 1_555
C5 Ir0 2.083294 1_555
C5 Ir2 2.103295 1_655
C5 Ir5 2.224100 1_555
C6 Ir1 2.083294 1_546
C6 Ir3 2.103295 1_556
C6 Ir6 2.224100 1_556
C7 Ir1 2.083294 1_655
C7 Ir3 2.103295 1_555
C7 Ir7 2.224100 1_554
C8 Ir6 2.128258 1_555
C8 Ir3 2.170831 1_555
C8 Ir5 2.238981 1_555
C9 Ir7 2.128258 1_555
C9 Ir3 2.170831 1_556
C9 Ir4 2.238981 1_555
C10 C12 1.399933 1_555
C10 Ir4 2.128258 1_565
C10 Ir2 2.170831 1_555
C10 Ir7 2.238981 1_455
C11 C13 1.399933 1_555
C11 Ir5 2.128258 1_455
C11 Ir2 2.170831 1_555
C11 Ir6 2.238981 1_565
C12 Ir7 2.128258 1_555
C12 Ir1 2.170831 1_556
C12 Ir4 2.238981 1_555
C13 Ir6 2.128258 1_555
C13 Ir1 2.170831 1_555
C13 Ir5 2.238981 1_555
C14 C8 1.399933 1_555
C14 Ir5 2.128258 1_545
C14 Ir0 2.170831 1_555
C14 Ir6 2.238981 1_655
C15 C9 1.399933 1_555
C15 Ir4 2.128258 1_655
C15 Ir0 2.170831 1_555
C15 Ir7 2.238981 1_545
