# generated using pymatgen
data_Er6Ge11
_symmetry_space_group_name_H-M   'P 1'
_cell_length_a   4.03854967
_cell_length_b   4.10829500
_cell_length_c   43.68352084
_cell_angle_alpha   92.69523669
_cell_angle_beta   90.12274960
_cell_angle_gamma   90.00000000
_symmetry_Int_Tables_number   1
_chemical_formula_structural   Er6Ge11
_chemical_formula_sum   'Er12 Ge22'
_cell_volume   723.97404659
_cell_formula_units_Z   2
loop_
 _symmetry_equiv_pos_site_id
 _symmetry_equiv_pos_as_xyz
  1  'x, y, z'
loop_
 _atom_site_type_symbol
 _atom_site_label
 _atom_site_symmetry_multiplicity
 _atom_site_fract_x
 _atom_site_fract_y
 _atom_site_fract_z
 _atom_site_occupancy
  Er  Er0  1  0.25519300  0.64645300  0.29290500  1
  Er  Er1  1  0.25497500  0.31320600  0.62641400  1
  Er  Er2  1  0.27794100  0.97967700  0.95935400  1
  Er  Er3  1  0.77793000  0.02035800  0.04071600  1
  Er  Er4  1  0.73762700  0.68789100  0.37578100  1
  Er  Er5  1  0.73825800  0.35460100  0.70920300  1
  Er  Er6  1  0.73827400  0.60931000  0.21862000  1
  Er  Er7  1  0.73772900  0.27605100  0.55210200  1
  Er  Er8  1  0.74210100  0.94191400  0.88382800  1
  Er  Er9  1  0.24131700  0.05821900  0.11643900  1
  Er  Er10  1  0.24326900  0.72402800  0.44805700  1
  Er  Er11  1  0.24421200  0.39057700  0.78115300  1
  Ge  Ge0  1  0.74109100  0.55392200  0.10784400  1
  Ge  Ge1  1  0.74341300  0.21679500  0.43358800  1
  Ge  Ge2  1  0.74494200  0.88289200  0.76578500  1
  Ge  Ge3  1  0.23885400  0.11649000  0.23297900  1
  Ge  Ge4  1  0.23753800  0.78268700  0.56537500  1
  Ge  Ge5  1  0.24093000  0.44593000  0.89186000  1
  Ge  Ge6  1  0.24779600  0.53447700  0.06895500  1
  Ge  Ge7  1  0.23945300  0.19674000  0.39348100  1
  Ge  Ge8  1  0.24074900  0.86309100  0.72618100  1
  Ge  Ge9  1  0.74851500  0.13553300  0.27106700  1
  Ge  Ge10  1  0.74553200  0.80203400  0.60406800  1
  Ge  Ge11  1  0.74909800  0.46547300  0.93094500  1
  Ge  Ge12  1  0.24358600  0.58350200  0.16700500  1
  Ge  Ge13  1  0.23604600  0.25004000  0.50008000  1
  Ge  Ge14  1  0.24175700  0.91652300  0.83304500  1
  Ge  Ge15  1  0.74474300  0.08349900  0.16700000  1
  Ge  Ge16  1  0.75011700  0.75006800  0.50013500  1
  Ge  Ge17  1  0.74998900  0.41651100  0.83302100  1
  Ge  Ge18  1  0.86425500  0.16395600  0.32791300  1
  Ge  Ge19  1  0.86563600  0.83061000  0.66121800  1
  Ge  Ge20  1  0.80281300  0.49290300  0.98580800  1
  Ge  Ge21  1  0.30432200  0.50710500  0.01420900  1
loop_
_geom_bond_atom_site_label_1
_geom_bond_atom_site_label_2
_geom_bond_distance
_geom_bond_site_symmetry_2
Er0 Ge18 3.009325 1_465
Er0 Ge18 3.009330 1_455
Er0 Ge9 3.017442 1_565
Er0 Ge9 3.017448 1_555
Er0 Ge9 3.050621 1_465
Er0 Ge9 3.050626 1_455
Er0 Ge3 3.325770 1_555
Er0 Ge3 3.325770 1_565
Er0 Ge18 3.547837 1_565
Er0 Ge18 3.547842 1_555
Er1 Ge19 3.001408 1_445
Er1 Ge19 3.001419 1_455
Er1 Ge10 3.017195 1_545
Er1 Ge10 3.017201 1_555
Er1 Ge10 3.065062 1_445
Er1 Ge10 3.065067 1_455
Er1 Ge4 3.364168 1_545
Er1 Ge4 3.364171 1_555
Er1 Ge19 3.548504 1_545
Er1 Ge19 3.548513 1_555
Er2 Ge20 3.040292 1_465
Er2 Ge20 3.040297 1_455
Er2 Ge11 3.063810 1_555
Er2 Ge11 3.063813 1_565
Er2 Ge21 3.155810 1_556
Er2 Ge21 3.155812 1_566
Er2 Ge20 3.167759 1_565
Er2 Ge20 3.167764 1_555
Er2 Ge11 3.210344 1_455
Er2 Ge11 3.210347 1_465
Er3 Ge21 3.034175 1_545
Er3 Ge21 3.034178 1_555
Er3 Ge6 3.054281 1_655
Er3 Ge6 3.054284 1_645
Er3 Ge20 3.157701 1_554
Er3 Ge20 3.157706 1_544
Er3 Ge21 3.176028 1_645
Er3 Ge21 3.176031 1_655
Er3 Ge6 3.214490 1_555
Er3 Ge6 3.214493 1_545
Er3 Ge0 3.580979 1_555
Er3 Ge0 3.580979 1_545
Er4 Ge18 2.974626 1_565
Er4 Ge18 2.974632 1_555
Er4 Ge7 2.978326 1_565
Er4 Ge7 2.978332 1_555
Er4 Ge7 2.986070 1_665
Er4 Ge7 2.986075 1_655
Er4 Ge1 3.253061 1_555
Er4 Ge1 3.253064 1_565
Er5 Ge8 2.968447 1_545
Er5 Ge8 2.968452 1_555
Er5 Ge19 2.978740 1_545
Er5 Ge19 2.978749 1_555
Er5 Ge8 2.979949 1_645
Er5 Ge8 2.979955 1_655
Er5 Ge2 3.211816 1_555
Er5 Ge2 3.211816 1_545
Er6 Ge3 2.947122 1_555
Er6 Ge3 2.947124 1_565
Er6 Ge3 2.948490 1_655
Er6 Ge3 2.948492 1_665
Er6 Ge12 3.007413 1_555
Er6 Ge12 3.042504 1_655
Er6 Ge15 3.048601 1_565
Er6 Ge15 3.048606 1_555
Er6 Ge9 3.075421 1_565
Er6 Ge9 3.075423 1_555
Er7 Ge4 2.936715 1_655
Er7 Ge4 2.936718 1_645
Er7 Ge4 2.939482 1_555
Er7 Ge4 2.939485 1_545
Er7 Ge13 3.036860 1_655
Er7 Ge13 3.039423 1_555
Er7 Ge10 3.059735 1_555
Er7 Ge10 3.059735 1_545
Er7 Ge16 3.060142 1_545
Er7 Ge16 3.060145 1_555
Er8 Ge5 2.897882 1_665
Er8 Ge5 2.897882 1_655
Er8 Ge5 2.905511 1_565
Er8 Ge5 2.905511 1_555
Er8 Ge11 2.906378 1_555
Er8 Ge11 2.906381 1_565
Er8 Ge14 2.995698 1_555
Er8 Ge14 3.000229 1_655
Er8 Ge17 3.022549 1_555
Er8 Ge17 3.022552 1_565
Er9 Ge0 2.904687 1_545
Er9 Ge0 2.904690 1_555
Er9 Ge0 2.904837 1_445
Er9 Ge0 2.904840 1_455
Er9 Ge6 2.917793 1_545
Er9 Ge6 2.917793 1_555
Er9 Ge15 2.984670 1_455
Er9 Ge15 2.996964 1_555
Er9 Ge12 3.014627 1_555
Er9 Ge12 3.014627 1_545
Er10 Ge1 2.947501 1_455
Er10 Ge1 2.947510 1_465
Er10 Ge1 2.950152 1_555
Er10 Ge1 2.950161 1_565
Er10 Ge16 3.024883 1_455
Er10 Ge16 3.055148 1_555
Er10 Ge13 3.061650 1_555
Er10 Ge13 3.061653 1_565
Er10 Ge7 3.144969 1_555
Er10 Ge7 3.144969 1_565
Er11 Ge2 2.954482 1_455
Er11 Ge2 2.954488 1_445
Er11 Ge2 2.960472 1_555
Er11 Ge2 2.960477 1_545
Er11 Ge17 3.020855 1_455
Er11 Ge17 3.045456 1_555
Er11 Ge14 3.057262 1_555
Er11 Ge14 3.057262 1_545
Er11 Ge8 3.158069 1_545
Er11 Ge8 3.158070 1_555
Ge0 Ge6 2.614176 1_555
Ge0 Ge6 2.661208 1_655
Ge1 Ge7 2.662883 1_655
Ge1 Ge7 2.681381 1_555
Ge2 Ge8 2.647761 1_655
Ge2 Ge8 2.667860 1_555
Ge3 Ge9 2.587993 1_455
Ge3 Ge9 2.642737 1_555
Ge10 Ge19 2.539464 1_555
Ge10 Ge4 2.610199 1_655
Ge10 Ge4 2.654176 1_555
Ge11 Ge20 2.403303 1_555
Ge11 Ge5 2.620790 1_655
Ge11 Ge5 2.665602 1_555
Ge12 Ge15 2.877175 1_465
Ge12 Ge15 2.877178 1_455
Ge12 Ge15 2.883727 1_565
Ge12 Ge15 2.883729 1_555
Ge13 Ge16 2.840905 1_445
Ge13 Ge16 2.840908 1_455
Ge13 Ge16 2.920564 1_545
Ge13 Ge16 2.920567 1_555
Ge14 Ge17 2.857241 1_455
Ge14 Ge17 2.857241 1_465
Ge14 Ge17 2.903855 1_555
Ge14 Ge17 2.903855 1_565
Ge18 Ge9 2.523157 1_555
Ge20 Ge21 2.366310 1_556
Ge20 Ge21 2.372167 1_656
Ge21 Ge6 2.400223 1_555
