# generated using pymatgen
data_Ni4Ru
_symmetry_space_group_name_H-M   'P 1'
_cell_length_a   20.47406327
_cell_length_b   20.47406327
_cell_length_c   20.47406320
_cell_angle_alpha   14.35648828
_cell_angle_beta   14.35648828
_cell_angle_gamma   14.35649146
_symmetry_Int_Tables_number   1
_chemical_formula_structural   Ni4Ru
_chemical_formula_sum   'Ni32 Ru8'
_cell_volume   459.35884948
_cell_formula_units_Z   8
loop_
 _symmetry_equiv_pos_site_id
 _symmetry_equiv_pos_as_xyz
  1  'x, y, z'
loop_
 _atom_site_type_symbol
 _atom_site_label
 _atom_site_symmetry_multiplicity
 _atom_site_fract_x
 _atom_site_fract_y
 _atom_site_fract_z
 _atom_site_occupancy
  Ni  Ni0_0  1  0.29919850  0.29919850  0.29919850  1
  Ni  Ni0_1  1  0.29919850  0.29919850  0.79919850  1
  Ni  Ni0_2  1  0.29919850  0.79919850  0.29919850  1
  Ni  Ni0_3  1  0.29919850  0.79919850  0.79919850  1
  Ni  Ni0_4  1  0.79919850  0.29919850  0.29919850  1
  Ni  Ni0_5  1  0.79919850  0.29919850  0.79919850  1
  Ni  Ni0_6  1  0.79919850  0.79919850  0.29919850  1
  Ni  Ni0_7  1  0.79919850  0.79919850  0.79919850  1
  Ni  Ni1_0  1  0.09974350  0.09974350  0.09974350  1
  Ni  Ni1_1  1  0.09974350  0.09974350  0.59974350  1
  Ni  Ni1_2  1  0.09974350  0.59974350  0.09974350  1
  Ni  Ni1_3  1  0.09974350  0.59974350  0.59974350  1
  Ni  Ni1_4  1  0.59974350  0.09974350  0.09974350  1
  Ni  Ni1_5  1  0.59974350  0.09974350  0.59974350  1
  Ni  Ni1_6  1  0.59974350  0.59974350  0.09974350  1
  Ni  Ni1_7  1  0.59974350  0.59974350  0.59974350  1
  Ni  Ni2_0  1  0.40025650  0.40025650  0.40025650  1
  Ni  Ni2_1  1  0.40025650  0.40025650  0.90025650  1
  Ni  Ni2_2  1  0.40025650  0.90025650  0.40025650  1
  Ni  Ni2_3  1  0.40025650  0.90025650  0.90025650  1
  Ni  Ni2_4  1  0.90025650  0.40025650  0.40025650  1
  Ni  Ni2_5  1  0.90025650  0.40025650  0.90025650  1
  Ni  Ni2_6  1  0.90025650  0.90025650  0.40025650  1
  Ni  Ni2_7  1  0.90025650  0.90025650  0.90025650  1
  Ni  Ni3_0  1  0.20080150  0.20080150  0.20080150  1
  Ni  Ni3_1  1  0.20080150  0.20080150  0.70080150  1
  Ni  Ni3_2  1  0.20080150  0.70080150  0.20080150  1
  Ni  Ni3_3  1  0.20080150  0.70080150  0.70080150  1
  Ni  Ni3_4  1  0.70080150  0.20080150  0.20080150  1
  Ni  Ni3_5  1  0.70080150  0.20080150  0.70080150  1
  Ni  Ni3_6  1  0.70080150  0.70080150  0.20080150  1
  Ni  Ni3_7  1  0.70080150  0.70080150  0.70080150  1
  Ru  Ru0_0  1  0.00000000  0.00000000  0.00000000  1
  Ru  Ru0_1  1  0.00000000  0.00000000  0.50000000  1
  Ru  Ru0_2  1  0.00000000  0.50000000  0.00000000  1
  Ru  Ru0_3  1  0.00000000  0.50000000  0.50000000  1
  Ru  Ru0_4  1  0.50000000  0.00000000  0.00000000  1
  Ru  Ru0_5  1  0.50000000  0.00000000  0.50000000  1
  Ru  Ru0_6  1  0.50000000  0.50000000  0.00000000  1
  Ru  Ru0_7  1  0.50000000  0.50000000  0.50000000  1
loop_
_geom_bond_atom_site_label_1
_geom_bond_atom_site_label_2
_geom_bond_distance
_geom_bond_site_symmetry_2
Ni0_0 Ni1_1 2.480570 1_555
Ni0_0 Ni1_4 2.480570 1_555
Ni0_0 Ni1_2 2.480570 1_555
Ni0_0 Ru0_6 2.546785 1_555
Ni0_0 Ru0_3 2.546785 1_555
Ni0_0 Ru0_5 2.546785 1_555
Ni0_0 Ni0_5 2.558367 1_554
Ni0_0 Ni0_3 2.558367 1_554
Ni0_0 Ni0_5 2.558367 1_455
Ni0_0 Ni0_3 2.558367 1_545
Ni0_0 Ni0_6 2.558368 1_545
Ni0_0 Ni0_6 2.558368 1_455
Ni0_1 Ni1_0 2.480570 1_556
Ni0_1 Ni1_5 2.480570 1_555
Ni0_1 Ni1_3 2.480570 1_555
Ni0_1 Ru0_7 2.546785 1_555
Ni0_1 Ru0_4 2.546785 1_556
Ni0_1 Ru0_2 2.546785 1_556
Ni0_1 Ni0_4 2.558367 1_555
Ni0_1 Ni0_2 2.558367 1_555
Ni0_1 Ni0_2 2.558367 1_546
Ni0_1 Ni0_4 2.558367 1_456
Ni0_1 Ni0_7 2.558368 1_545
Ni0_1 Ni0_7 2.558368 1_455
Ni0_2 Ni1_3 2.480570 1_555
Ni0_2 Ni1_0 2.480570 1_565
Ni0_2 Ni1_6 2.480570 1_555
Ni0_2 Ru0_4 2.546785 1_565
Ni0_2 Ru0_7 2.546785 1_555
Ni0_2 Ru0_1 2.546785 1_565
Ni0_2 Ni0_7 2.558367 1_455
Ni0_2 Ni0_7 2.558367 1_554
Ni0_2 Ni0_4 2.558368 1_465
Ni0_2 Ni0_4 2.558368 1_555
Ni0_3 Ni1_2 2.480570 1_556
Ni0_3 Ni1_7 2.480570 1_555
Ni0_3 Ni1_1 2.480570 1_565
Ni0_3 Ru0_5 2.546785 1_565
Ni0_3 Ru0_6 2.546785 1_556
Ni0_3 Ru0_0 2.546785 1_566
Ni0_3 Ni0_6 2.558367 1_456
Ni0_3 Ni0_6 2.558367 1_555
Ni0_3 Ni0_5 2.558368 1_555
Ni0_3 Ni0_5 2.558368 1_465
Ni0_4 Ni1_5 2.480570 1_555
Ni0_4 Ni1_6 2.480570 1_555
Ni0_4 Ni1_0 2.480570 1_655
Ni0_4 Ru0_2 2.546785 1_655
Ni0_4 Ru0_1 2.546785 1_655
Ni0_4 Ru0_7 2.546785 1_555
Ni0_4 Ni0_7 2.558367 1_545
Ni0_4 Ni0_7 2.558367 1_554
Ni0_5 Ni1_4 2.480570 1_556
Ni0_5 Ni1_1 2.480570 1_655
Ni0_5 Ni1_7 2.480570 1_555
Ni0_5 Ru0_3 2.546785 1_655
Ni0_5 Ru0_6 2.546785 1_556
Ni0_5 Ru0_0 2.546785 1_656
Ni0_5 Ni0_6 2.558367 1_555
Ni0_5 Ni0_6 2.558367 1_546
Ni0_6 Ni1_7 2.480570 1_555
Ni0_6 Ni1_4 2.480570 1_565
Ni0_6 Ni1_2 2.480570 1_655
Ni0_6 Ru0_0 2.546785 1_665
Ni0_6 Ru0_5 2.546785 1_565
Ni0_6 Ru0_3 2.546785 1_655
Ni0_7 Ni1_6 2.480570 1_556
Ni0_7 Ni1_3 2.480570 1_655
Ni0_7 Ni1_5 2.480570 1_565
Ni0_7 Ru0_1 2.546785 1_665
Ni0_7 Ru0_2 2.546785 1_656
Ni0_7 Ru0_4 2.546785 1_566
Ni1_0 Ni2_6 2.482133 1_445
Ni1_0 Ni2_5 2.482133 1_454
Ni1_0 Ni2_3 2.482133 1_544
Ni1_0 Ni1_3 2.558367 1_554
Ni1_0 Ni1_5 2.558367 1_455
Ni1_0 Ni1_3 2.558367 1_545
Ni1_0 Ni1_5 2.558367 1_554
Ni1_0 Ni1_6 2.558368 1_455
Ni1_0 Ni1_6 2.558368 1_545
Ni1_1 Ni2_7 2.482133 1_445
Ni1_1 Ni2_4 2.482133 1_455
Ni1_1 Ni2_2 2.482133 1_545
Ni1_1 Ni1_2 2.558367 1_555
Ni1_1 Ni1_4 2.558367 1_456
Ni1_1 Ni1_2 2.558367 1_546
Ni1_1 Ni1_4 2.558367 1_555
Ni1_1 Ni1_7 2.558368 1_545
Ni1_1 Ni1_7 2.558368 1_455
Ni1_2 Ni2_4 2.482133 1_455
Ni1_2 Ni2_1 2.482133 1_554
Ni1_2 Ni2_7 2.482133 1_454
Ni1_2 Ni1_7 2.558367 1_455
Ni1_2 Ni1_7 2.558367 1_554
Ni1_2 Ni1_4 2.558368 1_465
Ni1_2 Ni1_4 2.558368 1_555
Ni1_3 Ni2_5 2.482133 1_455
Ni1_3 Ni2_6 2.482133 1_455
Ni1_3 Ni2_0 2.482133 1_555
Ni1_3 Ni1_6 2.558367 1_456
Ni1_3 Ni1_6 2.558367 1_555
Ni1_3 Ni1_5 2.558368 1_555
Ni1_3 Ni1_5 2.558368 1_465
Ni1_4 Ni2_2 2.482133 1_545
Ni1_4 Ni2_1 2.482133 1_554
Ni1_4 Ni2_7 2.482133 1_544
Ni1_4 Ni1_7 2.558367 1_554
Ni1_4 Ni1_7 2.558367 1_545
Ni1_5 Ni2_3 2.482133 1_545
Ni1_5 Ni2_6 2.482133 1_545
Ni1_5 Ni2_0 2.482133 1_555
Ni1_5 Ni1_6 2.558367 1_555
Ni1_5 Ni1_6 2.558367 1_546
Ni1_6 Ni2_0 2.482133 1_555
Ni1_6 Ni2_5 2.482133 1_554
Ni1_6 Ni2_3 2.482133 1_554
Ni1_7 Ni2_1 2.482133 1_555
Ni1_7 Ni2_4 2.482133 1_555
Ni1_7 Ni2_2 2.482133 1_555
Ni2_0 Ni3_1 2.480570 1_555
Ni2_0 Ni3_4 2.480570 1_555
Ni2_0 Ni3_2 2.480570 1_555
Ni2_0 Ni2_5 2.558367 1_554
Ni2_0 Ni2_3 2.558367 1_545
Ni2_0 Ni2_3 2.558367 1_554
Ni2_0 Ni2_5 2.558367 1_455
Ni2_0 Ni2_6 2.558368 1_455
Ni2_0 Ni2_6 2.558368 1_545
Ni2_1 Ni3_0 2.480570 1_556
Ni2_1 Ni3_5 2.480570 1_555
Ni2_1 Ni3_3 2.480570 1_555
Ni2_1 Ni2_4 2.558367 1_555
Ni2_1 Ni2_4 2.558367 1_456
Ni2_1 Ni2_2 2.558367 1_546
Ni2_1 Ni2_2 2.558367 1_555
Ni2_1 Ni2_7 2.558368 1_545
Ni2_1 Ni2_7 2.558368 1_455
Ni2_2 Ni3_3 2.480570 1_555
Ni2_2 Ni3_6 2.480570 1_555
Ni2_2 Ni3_0 2.480570 1_565
Ni2_2 Ni2_7 2.558367 1_554
Ni2_2 Ni2_7 2.558367 1_455
Ni2_2 Ni2_4 2.558368 1_465
Ni2_2 Ni2_4 2.558368 1_555
Ni2_3 Ni3_2 2.480570 1_556
Ni2_3 Ni3_7 2.480570 1_555
Ni2_3 Ni3_1 2.480570 1_565
Ni2_3 Ni2_6 2.558367 1_456
Ni2_3 Ni2_6 2.558367 1_555
Ni2_3 Ni2_5 2.558368 1_555
Ni2_3 Ni2_5 2.558368 1_465
Ni2_4 Ni3_5 2.480570 1_555
Ni2_4 Ni3_6 2.480570 1_555
Ni2_4 Ni3_0 2.480570 1_655
Ni2_4 Ni2_7 2.558367 1_545
Ni2_4 Ni2_7 2.558367 1_554
Ni2_5 Ni3_4 2.480570 1_556
Ni2_5 Ni3_7 2.480570 1_555
Ni2_5 Ni3_1 2.480570 1_655
Ni2_5 Ni2_6 2.558367 1_546
Ni2_5 Ni2_6 2.558367 1_555
Ni2_6 Ni3_7 2.480570 1_555
Ni2_6 Ni3_2 2.480570 1_655
Ni2_6 Ni3_4 2.480570 1_565
Ni2_7 Ni3_6 2.480570 1_556
Ni2_7 Ni3_3 2.480570 1_655
Ni2_7 Ni3_5 2.480570 1_565
Ni3_0 Ru0_1 2.546785 1_555
Ni3_0 Ru0_2 2.546785 1_555
Ni3_0 Ru0_4 2.546785 1_555
Ni3_0 Ni3_5 2.558367 1_554
Ni3_0 Ni3_3 2.558367 1_554
Ni3_0 Ni3_5 2.558367 1_455
Ni3_0 Ni3_3 2.558367 1_545
Ni3_0 Ni3_6 2.558368 1_455
Ni3_0 Ni3_6 2.558368 1_545
Ni3_1 Ru0_0 2.546785 1_556
Ni3_1 Ru0_5 2.546785 1_555
Ni3_1 Ru0_3 2.546785 1_555
Ni3_1 Ni3_2 2.558367 1_555
Ni3_1 Ni3_4 2.558367 1_555
Ni3_1 Ni3_2 2.558367 1_546
Ni3_1 Ni3_4 2.558367 1_456
Ni3_1 Ni3_7 2.558368 1_545
Ni3_1 Ni3_7 2.558368 1_455
Ni3_2 Ru0_3 2.546785 1_555
Ni3_2 Ru0_0 2.546785 1_565
Ni3_2 Ru0_6 2.546785 1_555
Ni3_2 Ni3_7 2.558367 1_455
Ni3_2 Ni3_7 2.558367 1_554
Ni3_2 Ni3_4 2.558368 1_555
Ni3_2 Ni3_4 2.558368 1_465
Ni3_3 Ru0_2 2.546785 1_556
Ni3_3 Ru0_1 2.546785 1_565
Ni3_3 Ru0_7 2.546785 1_555
Ni3_3 Ni3_6 2.558367 1_456
Ni3_3 Ni3_6 2.558367 1_555
Ni3_3 Ni3_5 2.558368 1_465
Ni3_3 Ni3_5 2.558368 1_555
Ni3_4 Ru0_5 2.546785 1_555
Ni3_4 Ru0_6 2.546785 1_555
Ni3_4 Ru0_0 2.546785 1_655
Ni3_4 Ni3_7 2.558367 1_545
Ni3_4 Ni3_7 2.558367 1_554
Ni3_5 Ru0_4 2.546785 1_556
Ni3_5 Ru0_7 2.546785 1_555
Ni3_5 Ru0_1 2.546785 1_655
Ni3_5 Ni3_6 2.558367 1_546
Ni3_5 Ni3_6 2.558367 1_555
Ni3_6 Ru0_7 2.546785 1_555
Ni3_6 Ru0_4 2.546785 1_565
Ni3_6 Ru0_2 2.546785 1_655
Ni3_7 Ru0_6 2.546785 1_556
Ni3_7 Ru0_5 2.546785 1_565
Ni3_7 Ru0_3 2.546785 1_655
Ru0_0 Ru0_3 2.558367 1_545
Ru0_0 Ru0_5 2.558367 1_554
Ru0_0 Ru0_5 2.558367 1_455
Ru0_0 Ru0_3 2.558367 1_554
Ru0_0 Ru0_6 2.558368 1_455
Ru0_0 Ru0_6 2.558368 1_545
Ru0_1 Ru0_2 2.558367 1_555
Ru0_1 Ru0_4 2.558367 1_555
Ru0_1 Ru0_4 2.558367 1_456
Ru0_1 Ru0_2 2.558367 1_546
Ru0_1 Ru0_7 2.558368 1_545
Ru0_1 Ru0_7 2.558368 1_455
Ru0_2 Ru0_7 2.558367 1_455
Ru0_2 Ru0_7 2.558367 1_554
Ru0_2 Ru0_4 2.558368 1_465
Ru0_2 Ru0_4 2.558368 1_555
Ru0_3 Ru0_6 2.558367 1_456
Ru0_3 Ru0_6 2.558367 1_555
Ru0_3 Ru0_5 2.558368 1_555
Ru0_3 Ru0_5 2.558368 1_465
Ru0_4 Ru0_7 2.558367 1_554
Ru0_4 Ru0_7 2.558367 1_545
Ru0_5 Ru0_6 2.558367 1_546
Ru0_5 Ru0_6 2.558367 1_555
