# generated using pymatgen
data_Li3MnV3O8
_symmetry_space_group_name_H-M   'P 1'
_cell_length_a   5.97992987
_cell_length_b   10.32472529
_cell_length_c   5.96497007
_cell_angle_alpha   90.13652822
_cell_angle_beta   60.00952160
_cell_angle_gamma   107.05957667
_symmetry_Int_Tables_number   1
_chemical_formula_structural   Li3MnV3O8
_chemical_formula_sum   'Li6 Mn2 V6 O16'
_cell_volume   300.27537570
_cell_formula_units_Z   2
loop_
 _symmetry_equiv_pos_site_id
 _symmetry_equiv_pos_as_xyz
  1  'x, y, z'
loop_
 _atom_site_type_symbol
 _atom_site_label
 _atom_site_symmetry_multiplicity
 _atom_site_fract_x
 _atom_site_fract_y
 _atom_site_fract_z
 _atom_site_occupancy
  Li  Li0  1  0.50416300  0.25246700  0.74537100  1
  Li  Li1  1  0.49578600  0.74754200  0.25467900  1
  Li  Li2  1  0.00201600  0.25157100  0.74718500  1
  Li  Li3  1  0.99796200  0.74847300  0.25277200  1
  Li  Li4  1  0.00053700  0.24815700  0.24632000  1
  Li  Li5  1  0.99950300  0.75182500  0.75357400  1
  Mn  Mn0  1  0.50480700  0.25081400  0.24343800  1
  Mn  Mn1  1  0.49522900  0.74920200  0.75655100  1
  V  V0  1  0.50000900  0.00007300  0.00008400  1
  V  V1  1  0.49995300  0.49994800  0.99998000  1
  V  V2  1  0.99988400  0.49993200  0.00006200  1
  V  V3  1  0.49990400  0.49993400  0.50017600  1
  V  V4  1  0.50007800  0.00004400  0.49995400  1
  V  V5  1  0.00004000  0.00005300  0.49997400  1
  O  O0  1  0.74723800  0.11421800  0.62139700  1
  O  O1  1  0.73839400  0.61479000  0.13206000  1
  O  O2  1  0.26151900  0.38515700  0.86798800  1
  O  O3  1  0.25280700  0.88579400  0.37854300  1
  O  O4  1  0.27334300  0.12874300  0.58299200  1
  O  O5  1  0.26632400  0.62669500  0.09538200  1
  O  O6  1  0.27342800  0.12867100  0.13668400  1
  O  O7  1  0.26473300  0.62891300  0.64691500  1
  O  O8  1  0.71940800  0.12836700  0.13720400  1
  O  O9  1  0.71397700  0.62882900  0.63900900  1
  O  O10  1  0.28601400  0.37112900  0.36101800  1
  O  O11  1  0.28075100  0.87167500  0.86270300  1
  O  O12  1  0.73523700  0.37104000  0.35315000  1
  O  O13  1  0.72661300  0.87137700  0.86323700  1
  O  O14  1  0.73363900  0.37327000  0.90460900  1
  O  O15  1  0.72669400  0.87127100  0.41699100  1
loop_
_geom_bond_atom_site_label_1
_geom_bond_atom_site_label_2
_geom_bond_distance
_geom_bond_site_symmetry_2
Li0 O2 2.148907 1_555
Li0 O14 2.152702 1_555
Li0 O12 2.161245 1_555
Li0 O6 2.178438 1_556
Li0 O4 2.184322 1_555
Li0 O0 2.198833 1_555
Li1 O1 2.149292 1_555
Li1 O5 2.153090 1_555
Li1 O7 2.161543 1_555
Li1 O13 2.179142 1_554
Li1 O15 2.184399 1_555
Li1 O3 2.198464 1_555
Li2 O10 2.141643 1_555
Li2 O2 2.164953 1_555
Li2 O14 2.169601 1_455
Li2 O8 2.169971 1_456
Li2 O0 2.182971 1_455
Li2 O4 2.193797 1_555
Li3 O9 2.142228 1_555
Li3 O1 2.165276 1_555
Li3 O5 2.170175 1_655
Li3 O11 2.170245 1_654
Li3 O3 2.183026 1_655
Li3 O15 2.193321 1_555
Li4 O0 2.147125 1_455
Li4 O8 2.156298 1_455
Li4 O12 2.167745 1_455
Li4 O6 2.173258 1_555
Li4 O2 2.174465 1_554
Li4 O10 2.210470 1_555
Li5 O3 2.147071 1_655
Li5 O11 2.157107 1_655
Li5 O7 2.167742 1_655
Li5 O13 2.173778 1_555
Li5 O1 2.175256 1_556
Li5 O9 2.210228 1_555
Mn0 O12 1.939569 1_555
Mn0 O6 1.939973 1_555
Mn0 O10 1.943944 1_555
Mn0 O8 1.944688 1_555
Mn0 O14 1.946301 1_554
Mn0 O4 1.947468 1_555
Mn1 O7 1.939809 1_555
Mn1 O13 1.939862 1_555
Mn1 O9 1.944256 1_555
Mn1 O11 1.944411 1_555
Mn1 O5 1.946541 1_556
Mn1 O15 1.947483 1_555
O0 V4 2.035407 1_555
O0 V5 2.036211 1_655
O0 V0 2.080596 1_556
O1 V3 2.037446 1_555
O1 V1 2.046053 1_554
O1 V2 2.079445 1_555
O2 V3 2.035820 1_555
O2 V1 2.045442 1_555
O2 V2 2.079402 1_456
O3 V4 2.036044 1_565
O3 V5 2.036829 1_565
O3 V0 2.080100 1_565
O4 V5 2.052689 1_555
O4 V4 2.057161 1_555
O5 V2 2.062379 1_455
O5 V1 2.064591 1_554
O6 V0 2.051669 1_555
O6 V5 2.080943 1_555
O7 V2 2.039547 1_456
O7 V3 2.092810 1_555
O8 V0 2.047643 1_555
O8 V4 2.077143 1_555
O9 V3 2.037306 1_555
O9 V1 2.074688 1_555
O10 V3 2.037566 1_555
O10 V1 2.074730 1_554
O11 V0 2.048704 1_566
O11 V4 2.077356 1_565
O12 V2 2.038844 1_555
O12 V3 2.092847 1_555
O13 V0 2.052705 1_566
O13 V5 2.081102 1_665
O14 V2 2.061634 1_556
O14 V1 2.064258 1_555
O15 V5 2.053136 1_665
O15 V4 2.057324 1_565
