# generated using pymatgen
data_K2NaAsBr6
_symmetry_space_group_name_H-M   'P 1'
_cell_length_a   7.84941702
_cell_length_b   7.84941702
_cell_length_c   7.84941702
_cell_angle_alpha   60.00000000
_cell_angle_beta   60.00000000
_cell_angle_gamma   60.00000000
_symmetry_Int_Tables_number   1
_chemical_formula_structural   K2NaAsBr6
_chemical_formula_sum   'K2 Na1 As1 Br6'
_cell_volume   341.97724515
_cell_formula_units_Z   1
loop_
 _symmetry_equiv_pos_site_id
 _symmetry_equiv_pos_as_xyz
  1  'x, y, z'
loop_
 _atom_site_type_symbol
 _atom_site_label
 _atom_site_symmetry_multiplicity
 _atom_site_fract_x
 _atom_site_fract_y
 _atom_site_fract_z
 _atom_site_occupancy
  K  K0  1  0.75000000  0.75000000  0.75000000  1
  K  K1  1  0.25000000  0.25000000  0.25000000  1
  Na  Na0  1  0.50000000  0.50000000  0.50000000  1
  As  As0  1  0.00000000  0.00000000  0.00000000  1
  Br  Br0  1  0.76048500  0.23951500  0.23951500  1
  Br  Br1  1  0.23951500  0.23951500  0.76048500  1
  Br  Br2  1  0.23951500  0.76048500  0.76048500  1
  Br  Br3  1  0.23951500  0.76048500  0.23951500  1
  Br  Br4  1  0.76048500  0.23951500  0.76048500  1
  Br  Br5  1  0.76048500  0.76048500  0.23951500  1
loop_
_geom_bond_atom_site_label_1
_geom_bond_atom_site_label_2
_geom_bond_distance
_geom_bond_site_symmetry_2
As0 Br0 2.658797 1_455
As0 Br3 2.658797 1_545
As0 Br1 2.658797 1_554
As0 Br2 2.658797 1_544
As0 Br4 2.658797 1_454
As0 Br5 2.658797 1_445
Br0 Na0 2.891579 1_555
Br0 K1 3.926434 1_555
Br0 K0 3.926434 1_545
Br0 K0 3.926434 1_554
Br0 K1 3.926434 1_655
Br1 Na0 2.891579 1_555
Br1 K1 3.926434 1_555
Br1 K0 3.926434 1_455
Br1 K0 3.926434 1_545
Br1 K1 3.926434 1_556
Br2 Na0 2.891579 1_555
Br2 K0 3.926434 1_455
Br2 K1 3.926434 1_556
Br2 K1 3.926434 1_565
Br2 K0 3.926434 1_555
Br3 Na0 2.891579 1_555
Br3 K1 3.926434 1_555
Br3 K0 3.926434 1_455
Br3 K0 3.926434 1_554
Br3 K1 3.926434 1_565
Br4 Na0 2.891579 1_555
Br4 K0 3.926434 1_545
Br4 K1 3.926434 1_655
Br4 K1 3.926434 1_556
Br4 K0 3.926434 1_555
Br5 Na0 2.891579 1_555
Br5 K0 3.926434 1_554
Br5 K1 3.926434 1_655
Br5 K1 3.926434 1_565
Br5 K0 3.926434 1_555
