# generated using pymatgen
data_CaSm4Tm4O12
_symmetry_space_group_name_H-M   'P 1'
_cell_length_a   6.12358163
_cell_length_b   9.42614042
_cell_length_c   5.86346485
_cell_angle_alpha   80.98486001
_cell_angle_beta   82.58034027
_cell_angle_gamma   82.55543895
_symmetry_Int_Tables_number   1
_chemical_formula_structural   CaSm4Tm4O12
_chemical_formula_sum   'Ca1 Sm4 Tm4 O12'
_cell_volume   329.39777137
_cell_formula_units_Z   1
loop_
 _symmetry_equiv_pos_site_id
 _symmetry_equiv_pos_as_xyz
  1  'x, y, z'
loop_
 _atom_site_type_symbol
 _atom_site_label
 _atom_site_symmetry_multiplicity
 _atom_site_fract_x
 _atom_site_fract_y
 _atom_site_fract_z
 _atom_site_occupancy
  Ca  Ca0  1  0.29859500  0.11800300  0.38490600  1
  Sm  Sm0  1  0.97241300  0.16969700  0.96533400  1
  Sm  Sm1  1  0.43752600  0.72755100  0.48436400  1
  Sm  Sm2  1  0.61172100  0.30112300  0.56978200  1
  Sm  Sm3  1  0.94794900  0.74182900  0.02618100  1
  Tm  Tm0  1  0.89582400  0.94241400  0.48183100  1
  Tm  Tm1  1  0.05375000  0.51669700  0.52546000  1
  Tm  Tm2  1  0.45800700  0.94959700  0.91714800  1
  Tm  Tm3  1  0.53385700  0.51114400  0.01695900  1
  O  O0  1  0.03966100  0.72502000  0.62457000  1
  O  O1  1  0.24448300  0.61899600  0.20899900  1
  O  O2  1  0.16367100  0.94424200  0.17191900  1
  O  O3  1  0.37480300  0.49727300  0.69490000  1
  O  O4  1  0.31173000  0.17073200  0.75913300  1
  O  O5  1  0.47108600  0.31046500  0.23632900  1
  O  O6  1  0.60851000  0.73649100  0.83028600  1
  O  O7  1  0.67676400  0.88931400  0.23885900  1
  O  O8  1  0.76668200  0.56268400  0.28946500  1
  O  O9  1  0.75804200  0.05294200  0.77873300  1
  O  O10  1  0.83625700  0.39440500  0.79549900  1
  O  O11  1  0.93450400  0.18188400  0.35351100  1
loop_
_geom_bond_atom_site_label_1
_geom_bond_atom_site_label_2
_geom_bond_distance
_geom_bond_site_symmetry_2
Ca0 O5 2.220240 1_555
Ca0 O11 2.256257 1_455
Ca0 O4 2.337958 1_555
Ca0 O2 2.486592 1_545
O0 Tm1 2.121786 1_555
O0 Tm0 2.204686 1_455
O0 Sm3 2.374458 1_456
O0 Sm1 2.470601 1_555
O1 Tm3 2.195007 1_555
O1 Tm1 2.215505 1_555
O1 Sm3 2.314286 1_455
O1 Sm1 2.524978 1_555
O2 Tm2 2.187984 1_554
O2 Tm0 2.284798 1_455
O2 Sm0 2.503990 1_464
O2 Sm3 2.751587 1_455
O2 Sm1 3.012259 1_555
O3 Tm3 2.262106 1_556
O3 Tm1 2.289080 1_555
O3 Sm2 2.348757 1_555
O3 Sm1 2.374219 1_555
O4 Tm2 2.265166 1_545
O4 Sm0 2.265397 1_455
O4 Sm2 2.397629 1_555
O5 Tm3 2.163029 1_555
O5 Sm2 2.221134 1_555
O6 Tm2 2.205353 1_555
O6 Tm3 2.304954 1_556
O6 Sm1 2.417087 1_555
O6 Sm3 2.510819 1_556
O7 Tm0 2.229497 1_555
O7 Sm3 2.378166 1_555
O7 Tm2 2.407300 1_554
O7 Sm1 2.426876 1_555
O8 Tm1 2.331441 1_655
O8 Sm3 2.386002 1_555
O8 Tm3 2.415138 1_555
O8 Sm1 2.633194 1_555
O8 Sm2 2.934989 1_555
O9 Tm0 2.188431 1_545
O9 Tm2 2.194123 1_545
O9 Sm0 2.292214 1_555
O9 Sm2 2.572693 1_555
O10 Tm1 2.211524 1_655
O10 Sm0 2.295445 1_555
O10 Sm2 2.358658 1_555
O10 Tm3 2.371673 1_556
O11 Sm0 2.277304 1_554
O11 Tm0 2.297341 1_545
O11 Sm2 2.449875 1_555
