# generated using pymatgen
data_Ba2EuCrO6
_symmetry_space_group_name_H-M   'P 1'
_cell_length_a   8.42381569
_cell_length_b   8.42381569
_cell_length_c   8.42381569
_cell_angle_alpha   90.00000000
_cell_angle_beta   90.00000000
_cell_angle_gamma   90.00000000
_symmetry_Int_Tables_number   1
_chemical_formula_structural   Ba2EuCrO6
_chemical_formula_sum   'Ba8 Eu4 Cr4 O24'
_cell_volume   597.75961188
_cell_formula_units_Z   4
loop_
 _symmetry_equiv_pos_site_id
 _symmetry_equiv_pos_as_xyz
  1  'x, y, z'
loop_
 _atom_site_type_symbol
 _atom_site_label
 _atom_site_symmetry_multiplicity
 _atom_site_fract_x
 _atom_site_fract_y
 _atom_site_fract_z
 _atom_site_occupancy
  Ba  Ba0  1  0.50000000  0.50000000  0.50000000  1
  Ba  Ba1  1  0.00000000  -0.00000000  -0.00000000  1
  Ba  Ba2  1  0.00000000  -0.00000000  0.50000000  1
  Ba  Ba3  1  0.00000000  0.50000000  -0.00000000  1
  Ba  Ba4  1  0.50000000  -0.00000000  -0.00000000  1
  Ba  Ba5  1  0.50000000  0.50000000  -0.00000000  1
  Ba  Ba6  1  0.50000000  -0.00000000  0.50000000  1
  Ba  Ba7  1  0.00000000  0.50000000  0.50000000  1
  Eu  Eu0  1  0.25000000  0.25000000  0.25000000  1
  Eu  Eu1  1  0.25000000  0.75000000  0.75000000  1
  Eu  Eu2  1  0.75000000  0.25000000  0.75000000  1
  Eu  Eu3  1  0.75000000  0.75000000  0.25000000  1
  Cr  Cr0  1  0.75000000  0.75000000  0.75000000  1
  Cr  Cr1  1  0.75000000  0.25000000  0.25000000  1
  Cr  Cr2  1  0.25000000  0.75000000  0.25000000  1
  Cr  Cr3  1  0.25000000  0.25000000  0.75000000  1
  O  O0  1  0.23853600  0.25965271  0.52171836  1
  O  O1  1  0.23853600  0.74034729  0.47828164  1
  O  O2  1  0.76146400  0.25965271  0.47828164  1
  O  O3  1  0.76146400  0.74034729  0.52171836  1
  O  O4  1  0.25965271  0.52171836  0.23853600  1
  O  O5  1  0.74034729  0.47828164  0.23853600  1
  O  O6  1  0.25965271  0.47828164  0.76146400  1
  O  O7  1  0.74034729  0.52171836  0.76146400  1
  O  O8  1  0.52171836  0.23853600  0.25965271  1
  O  O9  1  0.47828164  0.23853600  0.74034729  1
  O  O10  1  0.47828164  0.76146400  0.25965271  1
  O  O11  1  0.52171836  0.76146400  0.74034729  1
  O  O12  1  0.26146400  0.24034729  0.97828164  1
  O  O13  1  0.26146400  0.75965271  0.02171836  1
  O  O14  1  0.73853600  0.24034729  0.02171836  1
  O  O15  1  0.73853600  0.75965271  0.97828164  1
  O  O16  1  0.24034729  0.97828164  0.26146400  1
  O  O17  1  0.75965271  0.02171836  0.26146400  1
  O  O18  1  0.24034729  0.02171836  0.73853600  1
  O  O19  1  0.75965271  0.97828164  0.73853600  1
  O  O20  1  0.97828164  0.26146400  0.24034729  1
  O  O21  1  0.02171836  0.26146400  0.75965271  1
  O  O22  1  0.02171836  0.73853600  0.24034729  1
  O  O23  1  0.97828164  0.73853600  0.75965271  1
loop_
_geom_bond_atom_site_label_1
_geom_bond_atom_site_label_2
_geom_bond_distance
_geom_bond_site_symmetry_2
Ba0 O5 2.997292 1_555
Ba0 O6 2.997292 1_555
Ba0 O3 2.997292 1_555
Ba0 O4 2.997292 1_555
Ba0 O2 2.997292 1_555
Ba0 O1 2.997292 1_555
Ba0 O11 2.997292 1_555
Ba0 O8 2.997292 1_555
Ba0 O7 2.997292 1_555
Ba0 O9 2.997292 1_555
Ba0 O10 2.997292 1_555
Ba0 O0 2.997292 1_555
Ba1 O21 2.997292 1_554
Ba1 O12 2.997292 1_554
Ba1 O13 2.997292 1_545
Ba1 O17 2.997292 1_455
Ba1 O20 2.997292 1_455
Ba1 O16 2.997292 1_545
Ba1 O18 2.997292 1_554
Ba1 O14 2.997292 1_455
Ba1 O22 2.997292 1_545
Ba1 O23 2.997292 1_444
Ba1 O15 2.997292 1_444
Ba1 O19 2.997292 1_444
Ba2 O18 2.858367 1_555
Ba2 O19 2.858367 1_445
Ba2 O17 2.858367 1_455
Ba2 O16 2.858367 1_545
Ba2 O0 2.975773 1_555
Ba2 O2 2.975773 1_455
Ba2 O3 2.975773 1_445
Ba2 O1 2.975773 1_545
Ba2 O21 3.109457 1_555
Ba2 O20 3.109457 1_455
Ba2 O22 3.109457 1_545
Ba2 O23 3.109457 1_445
Ba3 O22 2.858367 1_555
Ba3 O23 2.858367 1_454
Ba3 O21 2.858367 1_554
Ba3 O20 2.858367 1_455
Ba3 O6 2.975773 1_554
Ba3 O7 2.975773 1_454
Ba3 O4 2.975773 1_555
Ba3 O5 2.975773 1_455
Ba3 O12 3.109457 1_554
Ba3 O13 3.109457 1_555
Ba3 O14 3.109457 1_455
Ba3 O15 3.109457 1_454
Ba4 O14 2.858367 1_555
Ba4 O15 2.858367 1_544
Ba4 O13 2.858367 1_545
Ba4 O12 2.858367 1_554
Ba4 O9 2.975773 1_554
Ba4 O10 2.975773 1_545
Ba4 O11 2.975773 1_544
Ba4 O8 2.975773 1_555
Ba4 O17 3.109457 1_555
Ba4 O16 3.109457 1_545
Ba4 O18 3.109457 1_554
Ba4 O19 3.109457 1_544
Ba5 O4 2.858367 1_555
Ba5 O5 2.858367 1_555
Ba5 O6 2.858367 1_554
Ba5 O7 2.858367 1_554
Ba5 O14 2.975773 1_555
Ba5 O15 2.975773 1_554
Ba5 O12 2.975773 1_554
Ba5 O13 2.975773 1_555
Ba5 O10 3.109457 1_555
Ba5 O11 3.109457 1_554
Ba5 O8 3.109457 1_555
Ba5 O9 3.109457 1_554
Ba6 O10 2.858367 1_545
Ba6 O9 2.858367 1_555
Ba6 O11 2.858367 1_545
Ba6 O8 2.858367 1_555
Ba6 O19 2.975773 1_545
Ba6 O18 2.975773 1_555
Ba6 O17 2.975773 1_555
Ba6 O16 2.975773 1_545
Ba6 O1 3.109457 1_545
Ba6 O0 3.109457 1_555
Ba6 O2 3.109457 1_555
Ba6 O3 3.109457 1_545
Ba7 O1 2.858367 1_555
Ba7 O3 2.858367 1_455
Ba7 O0 2.858367 1_555
Ba7 O2 2.858367 1_455
Ba7 O22 2.975773 1_555
Ba7 O21 2.975773 1_555
Ba7 O23 2.975773 1_455
Ba7 O20 2.975773 1_455
Ba7 O5 3.109457 1_455
Ba7 O6 3.109457 1_555
Ba7 O7 3.109457 1_455
Ba7 O4 3.109457 1_555
Eu0 O12 2.292384 1_554
Eu0 O0 2.292384 1_555
Eu0 O4 2.292384 1_555
Eu0 O16 2.292384 1_545
Eu0 O20 2.292384 1_455
Eu0 O8 2.292384 1_555
Eu1 O18 2.292384 1_565
Eu1 O13 2.292384 1_556
Eu1 O1 2.292384 1_555
Eu1 O6 2.292384 1_555
Eu1 O23 2.292384 1_455
Eu1 O11 2.292384 1_555
Eu2 O14 2.292384 1_556
Eu2 O21 2.292384 1_655
Eu2 O9 2.292384 1_555
Eu2 O2 2.292384 1_555
Eu2 O7 2.292384 1_555
Eu2 O19 2.292384 1_545
Eu3 O22 2.292384 1_655
Eu3 O17 2.292384 1_565
Eu3 O10 2.292384 1_555
Eu3 O5 2.292384 1_555
Eu3 O15 2.292384 1_554
Eu3 O3 2.292384 1_555
Cr0 O11 1.927142 1_555
Cr0 O15 1.927142 1_555
Cr0 O7 1.927142 1_555
Cr0 O19 1.927142 1_555
Cr0 O3 1.927142 1_555
Cr0 O23 1.927142 1_555
Cr1 O8 1.927142 1_555
Cr1 O20 1.927142 1_555
Cr1 O2 1.927142 1_555
Cr1 O17 1.927142 1_555
Cr1 O5 1.927142 1_555
Cr1 O14 1.927142 1_555
Cr2 O16 1.927142 1_555
Cr2 O4 1.927142 1_555
Cr2 O13 1.927142 1_555
Cr2 O10 1.927142 1_555
Cr2 O1 1.927142 1_555
Cr2 O22 1.927142 1_555
Cr3 O12 1.927142 1_555
Cr3 O0 1.927142 1_555
Cr3 O9 1.927142 1_555
Cr3 O21 1.927142 1_555
Cr3 O18 1.927142 1_555
Cr3 O6 1.927142 1_555
