# generated using pymatgen
data_Na2MgCrF7
_symmetry_space_group_name_H-M   'P 1'
_cell_length_a   7.37778442
_cell_length_b   7.37778442
_cell_length_c   7.37778442
_cell_angle_alpha   120.96101928
_cell_angle_beta   118.83058053
_cell_angle_gamma   90.19044543
_symmetry_Int_Tables_number   1
_chemical_formula_structural   Na2MgCrF7
_chemical_formula_sum   'Na4 Mg2 Cr2 F14'
_cell_volume   284.28688528
_cell_formula_units_Z   2
loop_
 _symmetry_equiv_pos_site_id
 _symmetry_equiv_pos_as_xyz
  1  'x, y, z'
loop_
 _atom_site_type_symbol
 _atom_site_label
 _atom_site_symmetry_multiplicity
 _atom_site_fract_x
 _atom_site_fract_y
 _atom_site_fract_z
 _atom_site_occupancy
  Na  Na0  1  0.00000000  0.00000000  0.00000000  1
  Na  Na1  1  0.50000000  0.50000000  0.00000000  1
  Na  Na2  1  0.50000000  0.00000000  0.00000000  1
  Na  Na3  1  0.50000000  0.50000000  0.50000000  1
  Mg  Mg0  1  0.00000000  0.00000000  0.50000000  1
  Mg  Mg1  1  0.00000000  0.50000000  0.00000000  1
  Cr  Cr0  1  0.50000000  0.00000000  0.50000000  1
  Cr  Cr1  1  0.00000000  0.50000000  0.50000000  1
  F  F0  1  0.36223800  0.09167300  0.27056500  1
  F  F1  1  0.67889200  0.40832700  0.27056500  1
  F  F2  1  0.68316300  0.31228300  0.76366700  1
  F  F3  1  0.95138400  0.18771700  0.37087900  1
  F  F4  1  0.95138400  0.58050400  0.76366700  1
  F  F5  1  0.68316300  0.91949600  0.37087900  1
  F  F6  1  0.31683700  0.08050400  0.62912100  1
  F  F7  1  0.04861600  0.41949600  0.23633300  1
  F  F8  1  0.04861600  0.81228300  0.62912100  1
  F  F9  1  0.31683700  0.68771700  0.23633300  1
  F  F10  1  0.89844100  0.75000000  0.14844100  1
  F  F11  1  0.63776200  0.90832700  0.72943500  1
  F  F12  1  0.32110800  0.59167300  0.72943500  1
  F  F13  1  0.10155900  0.25000000  0.85155900  1
loop_
_geom_bond_atom_site_label_1
_geom_bond_atom_site_label_2
_geom_bond_distance
_geom_bond_site_symmetry_2
Cr0 F9 1.936770 1_545
Cr0 F2 1.936770 1_555
Cr0 F6 1.936775 1_555
Cr0 F5 1.936775 1_545
Cr0 F0 1.969526 1_555
Cr0 F11 1.969526 1_545
Cr1 F3 1.936768 1_455
Cr1 F8 1.936768 1_555
Cr1 F4 1.936770 1_455
Cr1 F7 1.936770 1_555
Cr1 F12 1.969526 1_555
Cr1 F1 1.969526 1_455
F0 Na0 2.244598 1_555
F0 Na2 2.459131 1_555
F0 Na3 2.459131 1_555
F1 Na1 2.244598 1_555
F1 Na3 2.459131 1_555
F1 Na2 2.459131 1_555
F2 Mg1 1.996348 1_656
F2 Na1 2.566051 1_556
F2 Na3 2.788803 1_555
F3 Mg0 1.996354 1_655
F3 Na0 2.566044 1_655
F3 Na2 2.788802 1_555
F4 Mg1 1.996348 1_656
F4 Na0 2.566051 1_666
F4 Na3 2.788803 1_555
F5 Mg0 1.996346 1_665
F5 Na1 2.566049 1_555
F5 Na2 2.788797 1_565
F6 Mg0 1.996346 1_555
F6 Na1 2.566049 1_556
F6 Na2 2.788797 1_556
F7 Mg1 1.996348 1_555
F7 Na0 2.566051 1_555
F7 Na3 2.788803 1_555
F8 Mg0 1.996354 1_565
F8 Na0 2.566044 1_566
F8 Na2 2.788802 1_566
F9 Mg1 1.996348 1_555
F9 Na1 2.566051 1_555
F9 Na3 2.788803 1_555
F10 Mg0 1.971044 1_665
F10 Mg1 1.971044 1_655
F10 Na1 2.832558 1_555
F10 Na0 2.832558 1_665
F11 Na0 2.244598 1_666
F11 Na2 2.459131 1_566
F11 Na3 2.459131 1_555
F12 Na1 2.244598 1_556
F12 Na3 2.459131 1_555
F12 Na2 2.459131 1_566
F13 Mg0 1.971044 1_555
F13 Mg1 1.971044 1_556
F13 Na1 2.832558 1_556
F13 Na0 2.832558 1_556
