# generated using pymatgen
data_Rb4TiO4
_symmetry_space_group_name_H-M   'P 1'
_cell_length_a   6.67393886
_cell_length_b   6.71095014
_cell_length_c   9.94985463
_cell_angle_alpha   71.73693974
_cell_angle_beta   79.08337314
_cell_angle_gamma   66.13852456
_symmetry_Int_Tables_number   1
_chemical_formula_structural   Rb4TiO4
_chemical_formula_sum   'Rb8 Ti2 O8'
_cell_volume   386.01212574
_cell_formula_units_Z   2
loop_
 _symmetry_equiv_pos_site_id
 _symmetry_equiv_pos_as_xyz
  1  'x, y, z'
loop_
 _atom_site_type_symbol
 _atom_site_label
 _atom_site_symmetry_multiplicity
 _atom_site_fract_x
 _atom_site_fract_y
 _atom_site_fract_z
 _atom_site_occupancy
  Rb  Rb0  1  0.24029822  0.76684757  0.03266456  1
  Rb  Rb1  1  0.27999567  0.50869943  0.43848108  1
  Rb  Rb2  1  0.25359673  0.40867570  0.84171139  1
  Rb  Rb3  1  0.21415149  0.96794298  0.62404211  1
  Rb  Rb4  1  0.78584851  0.03205702  0.37595789  1
  Rb  Rb5  1  0.74640327  0.59132430  0.15828861  1
  Rb  Rb6  1  0.72000433  0.49130057  0.56151892  1
  Rb  Rb7  1  0.75970178  0.23315243  0.96733544  1
  Ti  Ti0  1  0.26890669  0.15890670  0.24843620  1
  Ti  Ti1  1  0.73109331  0.84109330  0.75156380  1
  O  O0  1  0.12755848  0.16554781  0.10452319  1
  O  O1  1  0.05029309  0.29516577  0.37040740  1
  O  O2  1  0.44613960  0.32610514  0.18818777  1
  O  O3  1  0.56547328  0.13013343  0.65482615  1
  O  O4  1  0.43452672  0.86986657  0.34517385  1
  O  O5  1  0.55386040  0.67389486  0.81181223  1
  O  O6  1  0.94970691  0.70483423  0.62959260  1
  O  O7  1  0.87244152  0.83445219  0.89547681  1
loop_
_geom_bond_atom_site_label_1
_geom_bond_atom_site_label_2
_geom_bond_distance
_geom_bond_site_symmetry_2
O0 Ti0 1.838446 1_555
O0 Rb0 2.757343 1_545
O0 Rb2 2.794782 1_554
O0 Rb7 2.841888 1_454
O0 Rb5 3.079547 1_455
O0 Rb4 3.331830 1_455
O1 Ti0 1.839347 1_555
O1 Rb1 2.764315 1_555
O1 Rb6 2.800192 1_455
O1 Rb3 2.831238 1_545
O1 Rb5 2.872091 1_455
O1 Rb4 2.942585 1_455
O2 Ti0 1.844216 1_555
O2 Rb7 2.767400 1_554
O2 Rb0 2.771176 1_555
O2 Rb4 2.863338 1_555
O2 Rb1 2.949665 1_555
O2 Rb5 3.098429 1_555
O3 Ti1 1.846325 1_545
O3 Rb6 2.837189 1_555
O3 Rb2 2.974731 1_555
O3 Rb1 2.987926 1_555
O3 Rb4 3.018454 1_555
O3 Rb3 3.053181 1_545
O4 Ti0 1.846325 1_565
O4 Rb1 2.837189 1_555
O4 Rb5 2.974731 1_555
O4 Rb6 2.987926 1_555
O4 Rb3 3.018454 1_555
O4 Rb4 3.053181 1_565
O5 Ti1 1.844216 1_555
O5 Rb0 2.767400 1_556
O5 Rb7 2.771176 1_555
O5 Rb3 2.863338 1_555
O5 Rb6 2.949665 1_555
O5 Rb2 3.098429 1_555
O6 Ti1 1.839347 1_555
O6 Rb6 2.764315 1_555
O6 Rb1 2.800192 1_655
O6 Rb4 2.831238 1_565
O6 Rb2 2.872091 1_655
O6 Rb3 2.942585 1_655
O7 Ti1 1.838446 1_555
O7 Rb7 2.757343 1_565
O7 Rb5 2.794782 1_556
O7 Rb0 2.841888 1_656
O7 Rb2 3.079547 1_655
O7 Rb3 3.331830 1_655
