# generated using pymatgen
data_Sr2MgTi6N2O11
_symmetry_space_group_name_H-M   'P 1'
_cell_length_a   3.83910523
_cell_length_b   7.99176529
_cell_length_c   10.73110331
_cell_angle_alpha   71.41884288
_cell_angle_beta   89.99901330
_cell_angle_gamma   76.11096735
_symmetry_Int_Tables_number   1
_chemical_formula_structural   Sr2MgTi6N2O11
_chemical_formula_sum   'Sr2 Mg1 Ti6 N2 O11'
_cell_volume   301.90851481
_cell_formula_units_Z   1
loop_
 _symmetry_equiv_pos_site_id
 _symmetry_equiv_pos_as_xyz
  1  'x, y, z'
loop_
 _atom_site_type_symbol
 _atom_site_label
 _atom_site_symmetry_multiplicity
 _atom_site_fract_x
 _atom_site_fract_y
 _atom_site_fract_z
 _atom_site_occupancy
  Sr  Sr0  1  0.50179100  0.99387500  0.83382000  1
  Sr  Sr1  1  0.44591500  0.10476000  0.25318100  1
  Mg  Mg0  1  0.65322600  0.69065600  0.59305700  1
  Ti  Ti0  1  0.10701000  0.78287900  0.10397600  1
  Ti  Ti1  1  0.18982700  0.61710400  0.38558600  1
  Ti  Ti2  1  0.20183200  0.59372100  0.80641700  1
  Ti  Ti3  1  0.75682800  0.48312400  0.19922600  1
  Ti  Ti4  1  0.85255900  0.29144600  0.52333800  1
  Ti  Ti5  1  0.85064200  0.29609500  0.94104400  1
  N  N0  1  0.23546900  0.52565200  0.24355900  1
  N  N1  1  0.83493900  0.32710300  0.10272700  1
  O  O0  1  0.06440800  0.86757000  0.26195900  1
  O  O1  1  0.13616100  0.72481400  0.61402700  1
  O  O2  1  0.12820900  0.74084900  0.90251900  1
  O  O3  1  0.62061700  0.75566500  0.08469100  1
  O  O4  1  0.69560700  0.60557700  0.43709500  1
  O  O5  1  0.72385500  0.54982200  0.78670700  1
  O  O6  1  0.31521000  0.36629100  0.52858800  1
  O  O7  1  0.33833700  0.32073000  0.88814200  1
  O  O8  1  0.88546900  0.22499600  0.37543100  1
  O  O9  1  0.94384700  0.10936600  0.67225300  1
  O  O10  1  0.97556900  0.04625000  0.98163800  1
loop_
_geom_bond_atom_site_label_1
_geom_bond_atom_site_label_2
_geom_bond_distance
_geom_bond_site_symmetry_2
Mg0 O1 1.960773 1_555
Mg0 O1 1.960806 1_655
Mg0 O4 1.990468 1_555
Mg0 O5 2.005404 1_555
N0 Ti1 1.880469 1_555
N0 Ti3 2.030111 1_455
N0 Ti3 2.030881 1_555
N0 Ti0 2.064876 1_555
N1 Ti5 1.828177 1_554
N1 Ti3 1.833124 1_555
N1 Sr1 2.727056 1_655
N1 Sr1 2.727701 1_555
O0 Ti1 1.960481 1_555
O0 Ti0 2.009256 1_555
O0 Sr1 2.639220 1_465
O0 Sr1 2.639377 1_565
O1 Ti2 1.979476 1_555
O2 Ti2 1.771774 1_555
O2 Ti0 2.289697 1_556
O2 Sr0 2.670454 1_455
O2 Sr0 2.670526 1_555
O3 Ti0 1.949528 1_655
O3 Ti0 1.949585 1_555
O3 Ti3 2.067679 1_555
O3 Sr0 2.719691 1_554
O4 Ti1 1.991338 1_655
O4 Ti1 1.991505 1_555
O4 Ti4 2.305455 1_555
O5 Ti2 1.972670 1_655
O5 Ti2 1.973314 1_555
O5 Ti5 2.116024 1_555
O6 Ti4 2.011404 1_555
O6 Ti4 2.011775 1_455
O6 Ti1 2.044727 1_555
O7 Ti5 1.993045 1_555
O7 Ti5 1.993062 1_455
O7 Ti2 2.008795 1_555
O7 Sr0 2.782153 1_545
O8 Ti4 1.822677 1_555
O8 Ti3 2.258295 1_555
O8 Sr1 2.659677 1_555
O8 Sr1 2.661668 1_655
O9 Ti4 1.751340 1_555
O9 Sr0 2.543645 1_545
O9 Sr0 2.545048 1_645
O10 Ti5 1.841888 1_555
O10 Ti0 2.034071 1_646
O10 Sr0 2.605468 1_545
O10 Sr0 2.605715 1_645
