# generated using pymatgen
data_Sm8(Ga16Cu)3
_symmetry_space_group_name_H-M   'P 1'
_cell_length_a   6.04402239
_cell_length_b   6.04402239
_cell_length_c   30.16381908
_cell_angle_alpha   90.00000000
_cell_angle_beta   90.00000000
_cell_angle_gamma   90.00000000
_symmetry_Int_Tables_number   1
_chemical_formula_structural   Sm8(Ga16Cu)3
_chemical_formula_sum   'Sm8 Ga48 Cu3'
_cell_volume   1101.89054437
_cell_formula_units_Z   1
loop_
 _symmetry_equiv_pos_site_id
 _symmetry_equiv_pos_as_xyz
  1  'x, y, z'
loop_
 _atom_site_type_symbol
 _atom_site_label
 _atom_site_symmetry_multiplicity
 _atom_site_fract_x
 _atom_site_fract_y
 _atom_site_fract_z
 _atom_site_occupancy
  Sm  Sm0  1  0.75000000  0.25000000  0.12428973  1
  Sm  Sm1  1  0.75000000  0.25000000  0.62299355  1
  Sm  Sm2  1  0.25000000  0.75000000  0.12180046  1
  Sm  Sm3  1  0.25000000  0.75000000  0.62289003  1
  Sm  Sm4  1  0.25000000  0.75000000  0.37710997  1
  Sm  Sm5  1  0.25000000  0.75000000  0.87819954  1
  Sm  Sm6  1  0.75000000  0.25000000  0.37700645  1
  Sm  Sm7  1  0.75000000  0.25000000  0.87571027  1
  Ga  Ga0  1  0.50056153  0.00056153  0.45696938  1
  Ga  Ga1  1  0.51285082  0.01285082  0.95868500  1
  Ga  Ga2  1  0.00034654  0.99965346  0.45695373  1
  Ga  Ga3  1  0.99037873  0.00962127  0.95830733  1
  Ga  Ga4  1  0.49965346  0.50034654  0.45695373  1
  Ga  Ga5  1  0.50962127  0.49037873  0.95830733  1
  Ga  Ga6  1  0.99943847  0.49943847  0.45696938  1
  Ga  Ga7  1  0.98714918  0.48714918  0.95868500  1
  Ga  Ga8  1  0.50962127  0.00962127  0.04169267  1
  Ga  Ga9  1  0.49965346  0.99965346  0.54304627  1
  Ga  Ga10  1  0.98714918  0.01285082  0.04131500  1
  Ga  Ga11  1  0.99943847  0.00056153  0.54303062  1
  Ga  Ga12  1  0.51285082  0.48714918  0.04131500  1
  Ga  Ga13  1  0.50056153  0.49943847  0.54303062  1
  Ga  Ga14  1  0.99037873  0.49037873  0.04169267  1
  Ga  Ga15  1  0.00034654  0.50034654  0.54304627  1
  Ga  Ga16  1  0.57654947  0.07654947  0.21422105  1
  Ga  Ga17  1  0.57940599  0.07940599  0.71433024  1
  Ga  Ga18  1  0.07816265  0.92183735  0.21385497  1
  Ga  Ga19  1  0.08003896  0.91996104  0.71416400  1
  Ga  Ga20  1  0.42183735  0.57816265  0.21385497  1
  Ga  Ga21  1  0.41996104  0.58003896  0.71416400  1
  Ga  Ga22  1  0.92345053  0.42345053  0.21422105  1
  Ga  Ga23  1  0.92059401  0.42059401  0.71433024  1
  Ga  Ga24  1  0.41996104  0.91996104  0.28583600  1
  Ga  Ga25  1  0.42183735  0.92183735  0.78614503  1
  Ga  Ga26  1  0.92059401  0.07940599  0.28566976  1
  Ga  Ga27  1  0.92345053  0.07654947  0.78577895  1
  Ga  Ga28  1  0.57940599  0.42059401  0.28566976  1
  Ga  Ga29  1  0.57654947  0.42345053  0.78577895  1
  Ga  Ga30  1  0.08003896  0.58003896  0.28583600  1
  Ga  Ga31  1  0.07816265  0.57816265  0.78614503  1
  Ga  Ga32  1  0.25000000  0.25000000  0.08932164  1
  Ga  Ga33  1  0.25000000  0.25000000  0.59050916  1
  Ga  Ga34  1  0.75000000  0.75000000  0.08932164  1
  Ga  Ga35  1  0.75000000  0.75000000  0.59050916  1
  Ga  Ga36  1  0.75000000  0.75000000  0.40949084  1
  Ga  Ga37  1  0.75000000  0.75000000  0.91067836  1
  Ga  Ga38  1  0.25000000  0.25000000  0.40949084  1
  Ga  Ga39  1  0.25000000  0.25000000  0.91067836  1
  Ga  Ga40  1  0.25000000  0.25000000  0.16998044  1
  Ga  Ga41  1  0.25000000  0.25000000  0.67090276  1
  Ga  Ga42  1  0.75000000  0.75000000  0.16998044  1
  Ga  Ga43  1  0.75000000  0.75000000  0.67090276  1
  Ga  Ga44  1  0.75000000  0.75000000  0.32909724  1
  Ga  Ga45  1  0.75000000  0.75000000  0.83001956  1
  Ga  Ga46  1  0.25000000  0.25000000  0.32909724  1
  Ga  Ga47  1  0.25000000  0.25000000  0.83001956  1
  Cu  Cu0  1  0.75000000  0.25000000  0.50000000  1
  Cu  Cu1  1  0.25000000  0.75000000  0.00000000  1
  Cu  Cu2  1  0.25000000  0.75000000  0.50000000  1
loop_
_geom_bond_atom_site_label_1
_geom_bond_atom_site_label_2
_geom_bond_distance
_geom_bond_site_symmetry_2
Ga0 Ga36 2.572413 1_545
Ga0 Ga38 2.572413 1_555
Ga0 Ga9 2.596419 1_545
Ga0 Ga2 3.020717 1_645
Ga0 Ga4 3.020717 1_555
Ga0 Ga4 3.023316 1_545
Ga0 Ga2 3.023316 1_545
Ga0 Sm6 3.219234 1_555
Ga0 Sm4 3.223266 1_545
Ga1 Ga8 2.503981 1_556
Ga1 Ga37 2.583647 1_545
Ga1 Ga39 2.583647 1_555
Ga1 Ga3 2.886278 1_555
Ga1 Ga5 2.886278 1_555
Ga1 Sm7 3.220727 1_555
Ga1 Sm5 3.307831 1_545
Ga2 Ga36 2.572147 1_455
Ga2 Ga38 2.572147 1_565
Ga2 Ga6 3.020717 1_465
Ga2 Ga6 3.023316 1_455
Ga2 Sm4 3.217760 1_555
Ga2 Sm6 3.224027 1_465
Ga3 Ga37 2.576250 1_545
Ga3 Ga39 2.576250 1_655
Ga3 Ga7 2.886278 1_555
Ga3 Sm7 3.229374 1_555
Ga3 Sm5 3.280745 1_645
Ga4 Ga6 3.020717 1_555
Ga4 Ga6 3.023316 1_455
Ga4 Sm4 3.217760 1_555
Ga4 Sm6 3.224027 1_555
Ga5 Ga7 2.886278 1_555
Ga5 Sm7 3.229374 1_555
Ga5 Sm5 3.280745 1_555
Ga6 Sm6 3.219234 1_555
Ga6 Sm4 3.223266 1_655
Ga7 Sm7 3.220727 1_555
Ga7 Sm5 3.307831 1_655
Ga8 Sm0 3.229374 1_555
Ga8 Sm2 3.280745 1_545
Ga9 Sm3 3.217760 1_555
Ga9 Sm1 3.224027 1_565
Ga10 Ga3 2.503981 1_554
Ga10 Ga32 2.583647 1_655
Ga10 Ga34 2.583647 1_545
Ga10 Ga14 2.886278 1_555
Ga10 Ga8 2.886278 1_555
Ga10 Sm0 3.220727 1_555
Ga10 Sm2 3.307831 1_645
Ga11 Ga35 2.572413 1_545
Ga11 Ga33 2.572413 1_655
Ga11 Ga2 2.596419 1_645
Ga11 Ga15 3.020717 1_655
Ga11 Ga9 3.020717 1_545
Ga11 Ga15 3.023316 1_645
Ga11 Ga9 3.023316 1_645
Ga11 Sm1 3.219234 1_555
Ga11 Sm3 3.223266 1_645
Ga12 Ga5 2.503981 1_554
Ga12 Ga34 2.583647 1_555
Ga12 Ga32 2.583647 1_555
Ga12 Ga14 2.886278 1_555
Ga12 Ga8 2.886278 1_555
Ga12 Sm0 3.220727 1_555
Ga12 Sm2 3.307831 1_555
Ga13 Ga35 2.572413 1_555
Ga13 Ga33 2.572413 1_555
Ga13 Ga4 2.596419 1_555
Ga13 Ga15 3.020717 1_655
Ga13 Ga9 3.020717 1_545
Ga13 Ga9 3.023316 1_555
Ga13 Ga15 3.023316 1_555
Ga13 Sm1 3.219234 1_555
Ga13 Sm3 3.223266 1_555
Ga14 Ga7 2.503981 1_554
Ga14 Ga32 2.576250 1_655
Ga14 Ga34 2.576250 1_555
Ga14 Sm0 3.229374 1_555
Ga14 Sm2 3.280745 1_655
Ga15 Ga33 2.572147 1_555
Ga15 Ga35 2.572147 1_455
Ga15 Ga6 2.596419 1_455
Ga15 Sm3 3.217760 1_555
Ga15 Sm1 3.224027 1_455
Ga16 Ga24 2.541223 1_545
Ga16 Ga42 2.602921 1_545
Ga16 Ga40 2.602921 1_555
Ga16 Ga22 2.965150 1_555
Ga16 Ga28 2.994828 1_555
Ga16 Ga26 2.994828 1_555
Ga16 Sm0 3.091378 1_555
Ga17 Ga25 2.550763 1_545
Ga17 Ga43 2.596706 1_545
Ga17 Ga41 2.596706 1_555
Ga17 Ga23 2.916318 1_555
Ga17 Ga27 2.994828 1_555
Ga17 Ga29 2.994828 1_555
Ga17 Sm1 3.117146 1_555
Ga18 Ga26 2.550763 1_465
Ga18 Ga40 2.600785 1_565
Ga18 Ga42 2.600785 1_455
Ga18 Ga20 2.937573 1_555
Ga18 Ga30 2.997002 1_555
Ga18 Ga24 2.997002 1_555
Ga18 Sm2 3.141255 1_555
Ga19 Ga27 2.541223 1_465
Ga19 Ga43 2.595601 1_455
Ga19 Ga41 2.595601 1_565
Ga19 Ga21 2.905497 1_555
Ga19 Ga25 2.997002 1_555
Ga19 Ga31 2.997002 1_555
Ga19 Sm3 3.112946 1_555
Ga20 Ga28 2.550763 1_555
Ga20 Ga40 2.600785 1_555
Ga20 Ga42 2.600785 1_555
Ga20 Ga30 2.997002 1_555
Ga20 Ga24 2.997002 1_555
Ga20 Sm2 3.141255 1_555
Ga21 Ga29 2.541223 1_555
Ga21 Ga41 2.595601 1_555
Ga21 Ga43 2.595601 1_555
Ga21 Ga31 2.997002 1_555
Ga21 Ga25 2.997002 1_555
Ga21 Sm3 3.112946 1_555
Ga22 Ga30 2.541223 1_655
Ga22 Ga42 2.602921 1_555
Ga22 Ga40 2.602921 1_655
Ga22 Ga28 2.994828 1_555
Ga22 Ga26 2.994828 1_555
Ga22 Sm0 3.091378 1_555
Ga23 Ga31 2.550763 1_655
Ga23 Ga41 2.596706 1_655
Ga23 Ga43 2.596706 1_555
Ga23 Ga27 2.994828 1_555
Ga23 Ga29 2.994828 1_555
Ga23 Sm1 3.117146 1_555
Ga24 Ga44 2.595601 1_555
Ga24 Ga46 2.595601 1_565
Ga24 Ga30 2.905497 1_555
Ga24 Sm4 3.112946 1_555
Ga25 Ga47 2.600785 1_565
Ga25 Ga45 2.600785 1_555
Ga25 Ga31 2.937573 1_555
Ga25 Sm5 3.141255 1_555
Ga26 Ga46 2.596706 1_655
Ga26 Ga44 2.596706 1_545
Ga26 Ga28 2.916318 1_555
Ga26 Sm6 3.117146 1_555
Ga27 Ga45 2.602921 1_545
Ga27 Ga47 2.602921 1_655
Ga27 Ga29 2.965150 1_555
Ga27 Sm7 3.091378 1_555
Ga28 Ga44 2.596706 1_555
Ga28 Ga46 2.596706 1_555
Ga28 Sm6 3.117146 1_555
Ga29 Ga45 2.602921 1_555
Ga29 Ga47 2.602921 1_555
Ga29 Sm7 3.091378 1_555
Ga30 Ga46 2.595601 1_555
Ga30 Ga44 2.595601 1_455
Ga30 Sm4 3.112946 1_555
Ga31 Ga47 2.600785 1_555
Ga31 Ga45 2.600785 1_455
Ga31 Sm5 3.141255 1_555
Ga32 Ga40 2.432977 1_555
Ga32 Ga8 2.576250 1_555
Ga32 Sm2 3.176844 1_555
Ga32 Sm2 3.176844 1_545
Ga32 Sm0 3.200796 1_455
Ga32 Sm0 3.200796 1_555
Ga33 Ga41 2.424978 1_555
Ga33 Ga9 2.572147 1_545
Ga33 Sm3 3.175934 1_545
Ga33 Sm3 3.175934 1_555
Ga33 Sm1 3.176895 1_555
Ga33 Sm1 3.176895 1_455
Ga34 Ga42 2.432977 1_555
Ga34 Ga8 2.576250 1_565
Ga34 Sm2 3.176844 1_555
Ga34 Sm2 3.176844 1_655
Ga34 Sm0 3.200796 1_555
Ga34 Sm0 3.200796 1_565
Ga35 Ga43 2.424978 1_555
Ga35 Ga9 2.572147 1_555
Ga35 Sm3 3.175934 1_555
Ga35 Sm3 3.175934 1_655
Ga35 Sm1 3.176895 1_555
Ga35 Sm1 3.176895 1_565
Ga36 Ga44 2.424978 1_555
Ga36 Ga4 2.572147 1_555
Ga36 Ga6 2.572413 1_555
Ga36 Sm4 3.175934 1_555
Ga36 Sm4 3.175934 1_655
Ga36 Sm6 3.176895 1_555
Ga36 Sm6 3.176895 1_565
Ga37 Ga45 2.432977 1_555
Ga37 Ga5 2.576250 1_555
Ga37 Ga7 2.583647 1_555
Ga37 Sm5 3.176844 1_555
Ga37 Sm5 3.176844 1_655
Ga37 Sm7 3.200796 1_555
Ga37 Sm7 3.200796 1_565
Ga38 Ga46 2.424978 1_555
Ga38 Ga4 2.572147 1_555
Ga38 Ga6 2.572413 1_455
Ga38 Sm4 3.175934 1_545
Ga38 Sm4 3.175934 1_555
Ga38 Sm6 3.176895 1_455
Ga38 Sm6 3.176895 1_555
Ga39 Ga47 2.432977 1_555
Ga39 Ga5 2.576250 1_555
Ga39 Ga7 2.583647 1_455
Ga39 Sm5 3.176844 1_555
Ga39 Sm5 3.176844 1_545
Ga39 Sm7 3.200796 1_455
Ga39 Sm7 3.200796 1_555
Ga40 Sm0 3.321446 1_555
Ga40 Sm0 3.321446 1_455
Ga40 Sm2 3.353298 1_555
Ga40 Sm2 3.353298 1_545
Ga41 Sm1 3.349767 1_555
Ga41 Sm1 3.349767 1_455
Ga41 Sm3 3.351115 1_545
Ga41 Sm3 3.351115 1_555
Ga42 Sm0 3.321446 1_555
Ga42 Sm0 3.321446 1_565
Ga42 Sm2 3.353298 1_555
Ga42 Sm2 3.353298 1_655
Ga43 Sm1 3.349767 1_565
Ga43 Sm1 3.349767 1_555
Ga43 Sm3 3.351115 1_555
Ga43 Sm3 3.351115 1_655
Ga44 Sm6 3.349767 1_565
Ga44 Sm6 3.349767 1_555
Ga44 Sm4 3.351115 1_655
Ga44 Sm4 3.351115 1_555
Ga45 Sm7 3.321446 1_555
Ga45 Sm7 3.321446 1_565
Ga45 Sm5 3.353298 1_655
Ga45 Sm5 3.353298 1_555
Ga46 Sm6 3.349767 1_455
Ga46 Sm6 3.349767 1_555
Ga46 Sm4 3.351115 1_545
Ga46 Sm4 3.351115 1_555
Ga47 Sm7 3.321446 1_555
Ga47 Sm7 3.321446 1_455
Ga47 Sm5 3.353298 1_555
Ga47 Sm5 3.353298 1_545
Cu0 Ga0 2.496098 1_555
Cu0 Ga6 2.496098 1_555
Cu0 Ga11 2.496098 1_555
Cu0 Ga13 2.496098 1_555
Cu0 Ga4 2.502976 1_555
Cu0 Ga2 2.502976 1_645
Cu0 Ga15 2.502976 1_655
Cu0 Ga9 2.502976 1_545
Cu1 Ga5 2.550704 1_554
Cu1 Ga3 2.550704 1_464
Cu1 Ga8 2.550704 1_565
Cu1 Ga14 2.550704 1_455
Cu1 Ga7 2.569211 1_454
Cu1 Ga10 2.569211 1_465
Cu1 Ga1 2.569211 1_564
Cu1 Ga12 2.569211 1_555
Cu2 Ga2 2.497913 1_555
Cu2 Ga4 2.497913 1_555
Cu2 Ga15 2.497913 1_555
Cu2 Ga9 2.497913 1_555
Cu2 Ga0 2.504303 1_565
Cu2 Ga6 2.504303 1_455
Cu2 Ga11 2.504303 1_465
Cu2 Ga13 2.504303 1_555
