# generated using pymatgen
data_Ba2NaSr2(SbO4)3
_symmetry_space_group_name_H-M   'P 1'
_cell_length_a   8.31711200
_cell_length_b   8.31711200
_cell_length_c   8.34405700
_cell_angle_alpha   90.00000000
_cell_angle_beta   90.00000000
_cell_angle_gamma   90.00000000
_symmetry_Int_Tables_number   1
_chemical_formula_structural   Ba2NaSr2(SbO4)3
_chemical_formula_sum   'Ba4 Na2 Sr4 Sb6 O24'
_cell_volume   577.19473620
_cell_formula_units_Z   2
loop_
 _symmetry_equiv_pos_site_id
 _symmetry_equiv_pos_as_xyz
  1  'x, y, z'
loop_
 _atom_site_type_symbol
 _atom_site_label
 _atom_site_symmetry_multiplicity
 _atom_site_fract_x
 _atom_site_fract_y
 _atom_site_fract_z
 _atom_site_occupancy
  Ba  Ba0  1  0.24931300  0.25068700  0.25000000  1
  Ba  Ba1  1  0.75068700  0.74931300  0.25000000  1
  Ba  Ba2  1  0.74931300  0.24931300  0.75000000  1
  Ba  Ba3  1  0.25068700  0.75068700  0.75000000  1
  Na  Na0  1  0.50000000  0.50000000  0.50000000  1
  Na  Na1  1  0.00000000  0.00000000  0.00000000  1
  Sr  Sr0  1  0.24860500  0.74860500  0.25000000  1
  Sr  Sr1  1  0.75139500  0.25139500  0.25000000  1
  Sr  Sr2  1  0.25139500  0.24860500  0.75000000  1
  Sr  Sr3  1  0.74860500  0.75139500  0.75000000  1
  Sb  Sb0  1  0.50000000  0.50000000  0.00000000  1
  Sb  Sb1  1  0.00000000  0.00000000  0.50000000  1
  Sb  Sb2  1  0.50000000  0.00000000  0.49956200  1
  Sb  Sb3  1  0.00000000  0.50000000  0.99956200  1
  Sb  Sb4  1  0.00000000  0.50000000  0.50043800  1
  Sb  Sb5  1  0.50000000  0.00000000  0.00043800  1
  O  O0  1  0.50000000  0.50000000  0.22941400  1
  O  O1  1  0.00000000  0.00000000  0.72941400  1
  O  O2  1  0.50000000  0.50000000  0.77058600  1
  O  O3  1  0.00000000  0.00000000  0.27058600  1
  O  O4  1  0.23006800  0.48749000  0.50200400  1
  O  O5  1  0.76993200  0.51251000  0.50200400  1
  O  O6  1  0.73006800  0.01251000  0.00200400  1
  O  O7  1  0.26993200  0.98749000  0.00200400  1
  O  O8  1  0.48749000  0.76993200  0.49799600  1
  O  O9  1  0.51251000  0.23006800  0.49799600  1
  O  O10  1  0.01251000  0.26993200  0.99799600  1
  O  O11  1  0.98749000  0.73006800  0.99799600  1
  O  O12  1  0.24999100  0.01442200  0.50439300  1
  O  O13  1  0.75000900  0.98557800  0.50439300  1
  O  O14  1  0.74999100  0.48557800  0.00439300  1
  O  O15  1  0.25000900  0.51442200  0.00439300  1
  O  O16  1  0.01442200  0.75000900  0.49560700  1
  O  O17  1  0.98557800  0.24999100  0.49560700  1
  O  O18  1  0.48557800  0.25000900  0.99560700  1
  O  O19  1  0.51442200  0.74999100  0.99560700  1
  O  O20  1  0.50000000  0.00000000  0.25000000  1
  O  O21  1  0.00000000  0.50000000  0.75000000  1
  O  O22  1  0.00000000  0.50000000  0.25000000  1
  O  O23  1  0.50000000  0.00000000  0.75000000  1
loop_
_geom_bond_atom_site_label_1
_geom_bond_atom_site_label_2
_geom_bond_distance
_geom_bond_site_symmetry_2
Ba0 O10 2.885501 1_554
Ba0 O4 2.885501 1_555
Ba0 O18 2.892603 1_554
Ba0 O12 2.892603 1_555
Ba0 O22 2.932463 1_555
Ba0 O3 2.945567 1_555
Ba0 O0 2.945567 1_555
Ba0 O20 2.948624 1_555
Ba0 O17 3.001901 1_455
Ba0 O15 3.001901 1_555
Ba0 O9 3.017163 1_555
Ba0 O7 3.017163 1_545
Ba1 O5 2.885501 1_555
Ba1 O11 2.885501 1_554
Ba1 O13 2.892603 1_555
Ba1 O19 2.892603 1_554
Ba1 O22 2.932463 1_655
Ba1 O3 2.945567 1_665
Ba1 O0 2.945567 1_555
Ba1 O20 2.948624 1_565
Ba1 O16 3.001901 1_655
Ba1 O14 3.001901 1_555
Ba1 O8 3.017163 1_555
Ba1 O6 3.017163 1_565
Ba2 O6 2.885501 1_556
Ba2 O9 2.885501 1_555
Ba2 O14 2.892603 1_556
Ba2 O17 2.892603 1_555
Ba2 O23 2.932463 1_555
Ba2 O1 2.945567 1_655
Ba2 O2 2.945567 1_555
Ba2 O21 2.948624 1_655
Ba2 O13 3.001901 1_545
Ba2 O18 3.001901 1_555
Ba2 O10 3.017163 1_655
Ba2 O5 3.017163 1_555
Ba3 O7 2.885501 1_556
Ba3 O8 2.885501 1_555
Ba3 O15 2.892603 1_556
Ba3 O16 2.892603 1_555
Ba3 O23 2.932463 1_565
Ba3 O2 2.945567 1_555
Ba3 O1 2.945567 1_565
Ba3 O21 2.948624 1_555
Ba3 O19 3.001901 1_555
Ba3 O12 3.001901 1_565
Ba3 O4 3.017163 1_555
Ba3 O11 3.017163 1_455
Na0 O8 2.247527 1_555
Na0 O5 2.247527 1_555
Na0 O9 2.247527 1_555
Na0 O4 2.247527 1_555
Na0 O2 2.257785 1_555
Na0 O0 2.257785 1_555
Na1 O7 2.247527 1_545
Na1 O10 2.247527 1_554
Na1 O6 2.247527 1_455
Na1 O11 2.247527 1_444
Na1 O1 2.257785 1_554
Na1 O3 2.257785 1_555
O0 Sb0 1.914243 1_555
O0 Sr1 2.945602 1_555
O0 Sr0 2.945602 1_555
O1 Sb1 1.914243 1_555
O1 Sr2 2.945602 1_555
O1 Sr3 2.945602 1_445
O2 Sb0 1.914243 1_556
O2 Sr3 2.945602 1_555
O2 Sr2 2.945602 1_555
O3 Sb1 1.914243 1_555
O3 Sr0 2.945602 1_545
O3 Sr1 2.945602 1_455
O4 Sb4 1.916373 1_555
O4 Sr2 2.874186 1_555
O4 Sr0 3.026821 1_555
O5 Sb4 1.916373 1_655
O5 Sr3 2.874186 1_555
O5 Sr1 3.026821 1_555
O6 Sb5 1.916373 1_555
O6 Sr1 2.874186 1_555
O6 Sr3 3.026821 1_544
O7 Sb5 1.916373 1_565
O7 Sr0 2.874186 1_555
O7 Sr2 3.026821 1_564
O8 Sb2 1.916373 1_565
O8 Sr0 2.874186 1_555
O8 Sr3 3.026821 1_555
O9 Sb2 1.916373 1_555
O9 Sr1 2.874186 1_555
O9 Sr2 3.026821 1_555
O10 Sb3 1.916373 1_555
O10 Sr2 2.874186 1_555
O10 Sr1 3.026821 1_456
O11 Sb3 1.916373 1_655
O11 Sr3 2.874186 1_555
O11 Sr0 3.026821 1_656
O12 Sb1 2.082983 1_555
O12 Sb2 2.083200 1_555
O12 Sr2 2.827304 1_555
O12 Sr0 3.064903 1_545
O13 Sb1 2.082983 1_665
O13 Sb2 2.083200 1_565
O13 Sr3 2.827304 1_555
O13 Sr1 3.064903 1_565
O14 Sb0 2.082983 1_555
O14 Sb3 2.083200 1_654
O14 Sr1 2.827304 1_555
O14 Sr3 3.064903 1_554
O15 Sb0 2.082983 1_555
O15 Sb3 2.083200 1_554
O15 Sr0 2.827304 1_555
O15 Sr2 3.064903 1_554
O16 Sb1 2.082983 1_565
O16 Sb4 2.083200 1_555
O16 Sr0 2.827304 1_555
O16 Sr3 3.064903 1_455
O17 Sb1 2.082983 1_655
O17 Sb4 2.083200 1_655
O17 Sr1 2.827304 1_555
O17 Sr2 3.064903 1_655
O18 Sb0 2.082983 1_556
O18 Sb5 2.083200 1_556
O18 Sr2 2.827304 1_555
O18 Sr1 3.064903 1_556
O19 Sb0 2.082983 1_556
O19 Sb5 2.083200 1_566
O19 Sr3 2.827304 1_555
O19 Sr0 3.064903 1_556
O20 Sb2 2.082360 1_555
O20 Sb5 2.082360 1_555
O20 Sr1 2.956951 1_555
O20 Sr0 2.956951 1_545
O21 Sb3 2.082360 1_555
O21 Sb4 2.082360 1_555
O21 Sr3 2.956951 1_455
O21 Sr2 2.956951 1_555
O22 Sb4 2.089669 1_555
O22 Sb3 2.089669 1_554
O22 Sr0 2.924135 1_555
O22 Sr1 2.924135 1_455
O23 Sb5 2.089669 1_556
O23 Sb2 2.089669 1_555
O23 Sr2 2.924135 1_555
O23 Sr3 2.924135 1_545
