# generated using pymatgen
data_ZrMo2
_symmetry_space_group_name_H-M   'P 1'
_cell_length_a   14.53811333
_cell_length_b   14.10343757
_cell_length_c   5.79223542
_cell_angle_alpha   82.57967698
_cell_angle_beta   74.14931641
_cell_angle_gamma   23.27100662
_symmetry_Int_Tables_number   1
_chemical_formula_structural   ZrMo2
_chemical_formula_sum   'Zr8 Mo16'
_cell_volume   427.57460290
_cell_formula_units_Z   8
loop_
 _symmetry_equiv_pos_site_id
 _symmetry_equiv_pos_as_xyz
  1  'x, y, z'
loop_
 _atom_site_type_symbol
 _atom_site_label
 _atom_site_symmetry_multiplicity
 _atom_site_fract_x
 _atom_site_fract_y
 _atom_site_fract_z
 _atom_site_occupancy
  Zr  Zr0_0  1  0.00000000  0.00000000  0.00000000  1
  Zr  Zr0_1  1  0.00000000  0.00000000  0.50000000  1
  Zr  Zr0_2  1  0.00000000  0.50000000  0.00000000  1
  Zr  Zr0_3  1  0.00000000  0.50000000  0.50000000  1
  Zr  Zr0_4  1  0.50000000  0.00000000  0.00000000  1
  Zr  Zr0_5  1  0.50000000  0.00000000  0.50000000  1
  Zr  Zr0_6  1  0.50000000  0.50000000  0.00000000  1
  Zr  Zr0_7  1  0.50000000  0.50000000  0.50000000  1
  Mo  Mo0_0  1  0.16219750  0.16219750  0.33780250  1
  Mo  Mo0_1  1  0.16219750  0.16219750  0.83780250  1
  Mo  Mo0_2  1  0.16219750  0.66219750  0.33780250  1
  Mo  Mo0_3  1  0.16219750  0.66219750  0.83780250  1
  Mo  Mo0_4  1  0.66219750  0.16219750  0.33780250  1
  Mo  Mo0_5  1  0.66219750  0.16219750  0.83780250  1
  Mo  Mo0_6  1  0.66219750  0.66219750  0.33780250  1
  Mo  Mo0_7  1  0.66219750  0.66219750  0.83780250  1
  Mo  Mo1_0  1  0.33780250  0.33780250  0.16219750  1
  Mo  Mo1_1  1  0.33780250  0.33780250  0.66219750  1
  Mo  Mo1_2  1  0.33780250  0.83780250  0.16219750  1
  Mo  Mo1_3  1  0.33780250  0.83780250  0.66219750  1
  Mo  Mo1_4  1  0.83780250  0.33780250  0.16219750  1
  Mo  Mo1_5  1  0.83780250  0.33780250  0.66219750  1
  Mo  Mo1_6  1  0.83780250  0.83780250  0.16219750  1
  Mo  Mo1_7  1  0.83780250  0.83780250  0.66219750  1
loop_
_geom_bond_atom_site_label_1
_geom_bond_atom_site_label_2
_geom_bond_distance
_geom_bond_site_symmetry_2
Zr0_0 Zr0_6 2.896118 1_455
Zr0_0 Zr0_1 2.896118 1_555
Zr0_0 Zr0_6 2.896118 1_545
Zr0_0 Zr0_1 2.896118 1_554
Zr0_1 Zr0_7 2.896118 1_545
Zr0_1 Zr0_7 2.896118 1_455
Zr0_2 Zr0_4 2.896118 1_465
Zr0_2 Zr0_3 2.896118 1_554
Zr0_2 Zr0_3 2.896118 1_555
Zr0_2 Zr0_4 2.896118 1_555
Zr0_3 Zr0_5 2.896118 1_555
Zr0_3 Zr0_5 2.896118 1_465
Zr0_4 Zr0_5 2.896118 1_555
Zr0_4 Zr0_5 2.896118 1_554
Zr0_6 Zr0_7 2.896118 1_555
Zr0_6 Zr0_7 2.896118 1_554
Mo0_0 Mo1_2 2.609110 1_545
Mo0_0 Mo1_5 2.609110 1_455
Mo0_0 Mo0_1 2.896118 1_554
Mo0_0 Mo0_6 2.896118 1_545
Mo0_0 Mo0_1 2.896118 1_555
Mo0_0 Mo0_6 2.896118 1_455
Mo0_0 Zr0_4 2.906184 1_555
Mo0_0 Zr0_3 2.906184 1_555
Mo0_1 Mo1_3 2.609110 1_545
Mo0_1 Mo1_4 2.609110 1_456
Mo0_1 Mo0_7 2.896118 1_455
Mo0_1 Mo0_7 2.896118 1_545
Mo0_1 Zr0_5 2.906184 1_555
Mo0_1 Zr0_2 2.906184 1_556
Mo0_2 Mo1_0 2.609110 1_555
Mo0_2 Mo1_7 2.609110 1_455
Mo0_2 Mo0_3 2.896118 1_554
Mo0_2 Mo0_4 2.896118 1_555
Mo0_2 Mo0_3 2.896118 1_555
Mo0_2 Mo0_4 2.896118 1_465
Mo0_2 Zr0_6 2.906184 1_555
Mo0_2 Zr0_1 2.906184 1_565
Mo0_3 Mo1_1 2.609110 1_555
Mo0_3 Mo1_6 2.609110 1_456
Mo0_3 Mo0_5 2.896118 1_555
Mo0_3 Mo0_5 2.896118 1_465
Mo0_3 Zr0_0 2.906184 1_566
Mo0_3 Zr0_7 2.906184 1_555
Mo0_4 Mo1_6 2.609110 1_545
Mo0_4 Mo1_1 2.609110 1_555
Mo0_4 Mo0_5 2.896118 1_554
Mo0_4 Mo0_5 2.896118 1_555
Mo0_4 Zr0_7 2.906184 1_555
Mo0_4 Zr0_0 2.906184 1_655
Mo0_5 Mo1_0 2.609110 1_556
Mo0_5 Mo1_7 2.609110 1_545
Mo0_5 Zr0_1 2.906184 1_655
Mo0_5 Zr0_6 2.906184 1_556
Mo0_6 Mo1_3 2.609110 1_555
Mo0_6 Mo1_4 2.609110 1_555
Mo0_6 Mo0_7 2.896118 1_554
Mo0_6 Mo0_7 2.896118 1_555
Mo0_6 Zr0_2 2.906184 1_655
Mo0_6 Zr0_5 2.906184 1_565
Mo0_7 Mo1_2 2.609110 1_556
Mo0_7 Mo1_5 2.609110 1_555
Mo0_7 Zr0_3 2.906184 1_655
Mo0_7 Zr0_4 2.906184 1_566
Mo1_0 Mo1_1 2.896118 1_555
Mo1_0 Mo1_6 2.896118 1_455
Mo1_0 Mo1_6 2.896118 1_545
Mo1_0 Mo1_1 2.896118 1_554
Mo1_0 Zr0_3 2.906184 1_555
Mo1_0 Zr0_4 2.906184 1_555
Mo1_1 Mo1_7 2.896118 1_545
Mo1_1 Mo1_7 2.896118 1_455
Mo1_1 Zr0_5 2.906184 1_555
Mo1_1 Zr0_2 2.906184 1_556
Mo1_2 Mo1_4 2.896118 1_555
Mo1_2 Mo1_3 2.896118 1_554
Mo1_2 Mo1_4 2.896118 1_465
Mo1_2 Mo1_3 2.896118 1_555
Mo1_2 Zr0_6 2.906184 1_555
Mo1_2 Zr0_1 2.906184 1_565
Mo1_3 Mo1_5 2.896118 1_465
Mo1_3 Mo1_5 2.896118 1_555
Mo1_3 Zr0_0 2.906184 1_566
Mo1_3 Zr0_7 2.906184 1_555
Mo1_4 Mo1_5 2.896118 1_554
Mo1_4 Mo1_5 2.896118 1_555
Mo1_4 Zr0_7 2.906184 1_555
Mo1_4 Zr0_0 2.906184 1_655
Mo1_5 Zr0_1 2.906184 1_655
Mo1_5 Zr0_6 2.906184 1_556
Mo1_6 Mo1_7 2.896118 1_555
Mo1_6 Mo1_7 2.896118 1_554
Mo1_6 Zr0_2 2.906184 1_655
Mo1_6 Zr0_5 2.906184 1_565
Mo1_7 Zr0_3 2.906184 1_655
Mo1_7 Zr0_4 2.906184 1_566
