# generated using pymatgen
data_GeRh3
_symmetry_space_group_name_H-M   'P 1'
_cell_length_a   5.51668444
_cell_length_b   5.51668444
_cell_length_c   4.35976600
_cell_angle_alpha   90.00000000
_cell_angle_beta   90.00000000
_cell_angle_gamma   120.00000531
_symmetry_Int_Tables_number   1
_chemical_formula_structural   GeRh3
_chemical_formula_sum   'Ge2 Rh6'
_cell_volume   114.90794934
_cell_formula_units_Z   2
loop_
 _symmetry_equiv_pos_site_id
 _symmetry_equiv_pos_as_xyz
  1  'x, y, z'
loop_
 _atom_site_type_symbol
 _atom_site_label
 _atom_site_symmetry_multiplicity
 _atom_site_fract_x
 _atom_site_fract_y
 _atom_site_fract_z
 _atom_site_occupancy
  Ge  Ge0  1  0.33333300  0.66666700  0.75000000  1
  Ge  Ge1  1  0.66666700  0.33333300  0.25000000  1
  Rh  Rh0  1  0.16662900  0.33325800  0.25000000  1
  Rh  Rh1  1  0.66674200  0.83337100  0.25000000  1
  Rh  Rh2  1  0.16662900  0.83337100  0.25000000  1
  Rh  Rh3  1  0.83337100  0.66674200  0.75000000  1
  Rh  Rh4  1  0.33325800  0.16662900  0.75000000  1
  Rh  Rh5  1  0.83337100  0.16662900  0.75000000  1
loop_
_geom_bond_atom_site_label_1
_geom_bond_atom_site_label_2
_geom_bond_distance
_geom_bond_site_symmetry_2
Ge0 Rh2 2.699848 1_556
Ge0 Rh2 2.699848 1_555
Ge0 Rh0 2.699850 1_555
Ge0 Rh0 2.699850 1_556
Ge0 Rh1 2.699850 1_555
Ge0 Rh1 2.699850 1_556
Ge0 Rh4 2.758339 1_565
Ge0 Rh3 2.758339 1_455
Ge0 Rh5 2.758342 1_565
Ge0 Rh5 2.758342 1_455
Ge0 Rh3 2.758345 1_555
Ge0 Rh4 2.758345 1_555
Ge1 Rh5 2.699848 1_555
Ge1 Rh5 2.699848 1_554
Ge1 Rh4 2.699850 1_554
Ge1 Rh3 2.699850 1_555
Ge1 Rh4 2.699850 1_555
Ge1 Rh3 2.699850 1_554
Ge1 Rh0 2.758339 1_655
Ge1 Rh1 2.758339 1_545
Ge1 Rh2 2.758342 1_655
Ge1 Rh2 2.758342 1_545
Ge1 Rh0 2.758345 1_555
Ge1 Rh1 2.758345 1_555
Rh0 Rh5 2.699425 1_454
Rh0 Rh5 2.699425 1_455
Rh0 Rh4 2.699425 1_554
Rh0 Rh4 2.699425 1_555
Rh0 Rh1 2.757719 1_445
Rh0 Rh2 2.757719 1_545
Rh0 Rh1 2.758965 1_555
Rh0 Rh2 2.758966 1_555
Rh1 Rh5 2.699425 1_565
Rh1 Rh5 2.699425 1_564
Rh1 Rh3 2.699425 1_554
Rh1 Rh3 2.699425 1_555
Rh1 Rh2 2.757719 1_655
Rh1 Rh2 2.758966 1_555
Rh2 Rh4 2.699425 1_565
Rh2 Rh4 2.699425 1_564
Rh2 Rh3 2.699425 1_455
Rh2 Rh3 2.699425 1_454
Rh3 Rh4 2.757719 1_665
Rh3 Rh5 2.757719 1_565
Rh3 Rh4 2.758965 1_555
Rh3 Rh5 2.758966 1_555
Rh4 Rh5 2.757719 1_455
Rh4 Rh5 2.758966 1_555
