# generated using pymatgen
data_CaBiAsO6
_symmetry_space_group_name_H-M   'P 1'
_cell_length_a   5.17835200
_cell_length_b   7.14398400
_cell_length_c   7.55027430
_cell_angle_alpha   76.53412168
_cell_angle_beta   90.00000000
_cell_angle_gamma   90.00000000
_symmetry_Int_Tables_number   1
_chemical_formula_structural   CaBiAsO6
_chemical_formula_sum   'Ca2 Bi2 As2 O12'
_cell_volume   271.63660847
_cell_formula_units_Z   2
loop_
 _symmetry_equiv_pos_site_id
 _symmetry_equiv_pos_as_xyz
  1  'x, y, z'
loop_
 _atom_site_type_symbol
 _atom_site_label
 _atom_site_symmetry_multiplicity
 _atom_site_fract_x
 _atom_site_fract_y
 _atom_site_fract_z
 _atom_site_occupancy
  Ca  Ca0  1  0.76759100  0.24583500  0.92610400  1
  Ca  Ca1  1  0.26759100  0.75416500  0.07389600  1
  Bi  Bi0  1  0.22019200  0.58908300  0.59068700  1
  Bi  Bi1  1  0.72019200  0.41091700  0.40931300  1
  As  As0  1  0.80587300  0.78039800  0.78439700  1
  As  As1  1  0.30587300  0.21960200  0.21560300  1
  O  O0  1  0.52839600  0.40207400  0.67847900  1
  O  O1  1  0.98326800  0.56954500  0.87728000  1
  O  O2  1  0.45777300  0.16467500  0.42919900  1
  O  O3  1  0.49233000  0.67607300  0.37117800  1
  O  O4  1  0.97399900  0.23332700  0.22550200  1
  O  O5  1  0.02839600  0.59792600  0.32152100  1
  O  O6  1  0.47399900  0.76667300  0.77449800  1
  O  O7  1  0.99233000  0.32392700  0.62882200  1
  O  O8  1  0.38255200  0.07228400  0.07602800  1
  O  O9  1  0.48326800  0.43045500  0.12272000  1
  O  O10  1  0.88255200  0.92771600  0.92397200  1
  O  O11  1  0.95777300  0.83532500  0.57080100  1
loop_
_geom_bond_atom_site_label_1
_geom_bond_atom_site_label_2
_geom_bond_distance
_geom_bond_site_symmetry_2
Ca0 O0 2.302974 1_555
Ca0 O10 2.352991 1_545
Ca0 O7 2.473959 1_555
Ca0 O8 2.477990 1_556
Ca0 O4 2.483221 1_556
Ca0 O1 2.516791 1_555
Ca0 O9 2.650081 1_556
Ca1 O5 2.302974 1_555
Ca1 O8 2.352991 1_565
Ca1 O3 2.473959 1_555
Ca1 O10 2.477990 1_454
Ca1 O6 2.483221 1_554
Ca1 O9 2.516791 1_555
Ca1 O1 2.650081 1_454
Bi0 O0 2.087818 1_555
Bi0 O3 2.153893 1_555
Bi0 O7 2.193040 1_455
Bi0 O11 2.200168 1_455
Bi0 O5 2.249615 1_555
Bi0 O1 2.462989 1_455
Bi0 O6 2.466389 1_555
Bi1 O5 2.087818 1_655
Bi1 O7 2.153893 1_555
Bi1 O3 2.193040 1_555
Bi1 O2 2.200168 1_555
Bi1 O0 2.249615 1_555
Bi1 O9 2.462989 1_555
Bi1 O4 2.466389 1_555
As0 O10 1.700701 1_555
As0 O6 1.723967 1_555
As0 O11 1.754652 1_555
As0 O1 1.764286 1_555
As1 O8 1.700701 1_555
As1 O4 1.723967 1_455
As1 O2 1.754652 1_555
As1 O9 1.764286 1_555
