# generated using pymatgen
data_LiEuF2
_symmetry_space_group_name_H-M   'P 1'
_cell_length_a   7.50104886
_cell_length_b   7.50104886
_cell_length_c   7.50104886
_cell_angle_alpha   124.41005049
_cell_angle_beta   124.41005049
_cell_angle_gamma   82.51749444
_symmetry_Int_Tables_number   1
_chemical_formula_structural   LiEuF2
_chemical_formula_sum   'Li4 Eu4 F8'
_cell_volume   275.95662963
_cell_formula_units_Z   4
loop_
 _symmetry_equiv_pos_site_id
 _symmetry_equiv_pos_as_xyz
  1  'x, y, z'
loop_
 _atom_site_type_symbol
 _atom_site_label
 _atom_site_symmetry_multiplicity
 _atom_site_fract_x
 _atom_site_fract_y
 _atom_site_fract_z
 _atom_site_occupancy
  Li  Li0  1  0.87500000  0.62500000  0.25000000  1
  Li  Li1  1  0.37500000  0.62500000  0.75000000  1
  Li  Li2  1  0.37500000  0.62500000  0.25000000  1
  Li  Li3  1  0.37500000  0.12500000  0.75000000  1
  Eu  Eu0  1  0.37500000  0.12500000  0.25000000  1
  Eu  Eu1  1  0.87500000  0.12500000  0.75000000  1
  Eu  Eu2  1  0.87500000  0.12500000  0.25000000  1
  Eu  Eu3  1  0.87500000  0.62500000  0.75000000  1
  F  F0  1  0.21199500  0.42224300  0.21024800  1
  F  F1  1  0.21199500  0.00174700  0.78975200  1
  F  F2  1  0.17224300  0.46199500  0.71024800  1
  F  F3  1  0.53800500  0.82775700  0.28975200  1
  F  F4  1  0.75174700  0.46199500  0.28975200  1
  F  F5  1  0.53800500  0.24825300  0.71024800  1
  F  F6  1  0.57775700  0.78800500  0.78975200  1
  F  F7  1  0.99825300  0.78800500  0.21024800  1
loop_
_geom_bond_atom_site_label_1
_geom_bond_atom_site_label_2
_geom_bond_distance
_geom_bond_site_symmetry_2
Eu0 F1 2.486868 1_554
Eu0 F0 2.486868 1_555
Eu0 F5 2.486868 1_555
Eu0 F3 2.486868 1_545
Eu1 F0 2.486868 1_656
Eu1 F3 2.486868 1_545
Eu1 F5 2.486868 1_555
Eu1 F1 2.486868 1_655
Eu2 F2 2.486868 1_655
Eu2 F7 2.486868 1_545
Eu2 F6 2.486868 1_544
Eu2 F4 2.486868 1_555
Eu3 F2 2.486868 1_655
Eu3 F4 2.486868 1_555
Eu3 F6 2.486868 1_555
Eu3 F7 2.486868 1_556
F0 Li2 1.859231 1_555
F1 Li3 1.859231 1_555
F2 Li1 1.859231 1_555
F3 Li2 1.859231 1_555
F4 Li0 1.859231 1_555
F5 Li3 1.859231 1_555
F6 Li1 1.859231 1_555
F7 Li0 1.859231 1_555
