# generated using pymatgen
data_NaBiS2
_symmetry_space_group_name_H-M   'P 1'
_cell_length_a   7.13608117
_cell_length_b   7.13608117
_cell_length_c   7.13608148
_cell_angle_alpha   32.87033160
_cell_angle_beta   32.87033160
_cell_angle_gamma   32.87032573
_symmetry_Int_Tables_number   1
_chemical_formula_structural   NaBiS2
_chemical_formula_sum   'Na1 Bi1 S2'
_cell_volume   95.23997071
_cell_formula_units_Z   1
loop_
 _symmetry_equiv_pos_site_id
 _symmetry_equiv_pos_as_xyz
  1  'x, y, z'
loop_
 _atom_site_type_symbol
 _atom_site_label
 _atom_site_symmetry_multiplicity
 _atom_site_fract_x
 _atom_site_fract_y
 _atom_site_fract_z
 _atom_site_occupancy
  Na  Na0  1  0.50000000  0.50000000  0.50000000  1
  Bi  Bi0  1  0.00000000  0.00000000  -0.00000000  1
  S  S0  1  0.25352331  0.25352331  0.25352331  1
  S  S1  1  0.74647669  0.74647669  0.74647669  1
loop_
_geom_bond_atom_site_label_1
_geom_bond_atom_site_label_2
_geom_bond_distance
_geom_bond_site_symmetry_2
Na0 S1 2.919543 1_455
Na0 S1 2.919543 1_545
Na0 S0 2.919543 1_565
Na0 S0 2.919543 1_655
Na0 S1 2.919543 1_554
Na0 S0 2.919543 1_556
Bi0 S0 2.836004 1_455
Bi0 S0 2.836004 1_545
Bi0 S1 2.836004 1_454
Bi0 S1 2.836004 1_544
Bi0 S0 2.836005 1_554
Bi0 S1 2.836005 1_445
