# generated using pymatgen
data_H10C3N3Cl
_symmetry_space_group_name_H-M   'P 1'
_cell_length_a   7.71655500
_cell_length_b   8.84043461
_cell_length_c   12.56234050
_cell_angle_alpha   82.29673803
_cell_angle_beta   72.11361371
_cell_angle_gamma   64.12333861
_symmetry_Int_Tables_number   1
_chemical_formula_structural   H10C3N3Cl
_chemical_formula_sum   'H40 C12 N12 Cl4'
_cell_volume   733.78317093
_cell_formula_units_Z   4
loop_
 _symmetry_equiv_pos_site_id
 _symmetry_equiv_pos_as_xyz
  1  'x, y, z'
loop_
 _atom_site_type_symbol
 _atom_site_label
 _atom_site_symmetry_multiplicity
 _atom_site_fract_x
 _atom_site_fract_y
 _atom_site_fract_z
 _atom_site_occupancy
  H  H0  1  0.57565100  0.73659000  0.10223300  1
  H  H1  1  0.41447500  0.26341000  0.89776700  1
  H  H2  1  0.68775900  0.73659000  0.89776700  1
  H  H3  1  0.32211600  0.26341000  0.10223300  1
  H  H4  1  0.17434900  0.76341000  0.39776700  1
  H  H5  1  0.33552500  0.23659000  0.60223300  1
  H  H6  1  0.06224100  0.76341000  0.60223300  1
  H  H7  1  0.42788400  0.23659000  0.39776700  1
  H  H8  1  0.55611000  0.55432700  0.16320400  1
  H  H9  1  0.27364100  0.44567300  0.83679600  1
  H  H10  1  0.88956300  0.55432700  0.83679600  1
  H  H11  1  0.28068600  0.44567300  0.16320400  1
  H  H12  1  0.19389000  0.94567300  0.33679600  1
  H  H13  1  0.47635900  0.05432700  0.66320400  1
  H  H14  1  0.86043700  0.94567300  0.66320400  1
  H  H15  1  0.46931400  0.05432700  0.33679600  1
  H  H16  1  0.06869500  0.20320300  0.87244800  1
  H  H17  1  0.14434600  0.79679700  0.12755200  1
  H  H18  1  0.72810200  0.20320300  0.12755200  1
  H  H19  1  0.05885700  0.79679700  0.87244800  1
  H  H20  1  0.68130500  0.29679700  0.62755200  1
  H  H21  1  0.60565400  0.70320300  0.37244800  1
  H  H22  1  0.02189800  0.29679700  0.37244800  1
  H  H23  1  0.69114300  0.70320300  0.62755200  1
  H  H24  1  0.85053600  0.33557800  0.82914300  1
  H  H25  1  0.01525700  0.66442200  0.17085700  1
  H  H26  1  0.81388600  0.33557800  0.17085700  1
  H  H27  1  0.32032100  0.66442200  0.82914300  1
  H  H28  1  0.89946400  0.16442200  0.67085700  1
  H  H29  1  0.73474300  0.83557800  0.32914300  1
  H  H30  1  0.93611400  0.16442200  0.32914300  1
  H  H31  1  0.42967900  0.83557800  0.67085700  1
  H  H32  1  0.85328400  0.15614600  0.91229900  1
  H  H33  1  0.92172900  0.84385400  0.08770100  1
  H  H34  1  0.99057000  0.15614600  0.08770100  1
  H  H35  1  0.23441800  0.84385400  0.91229900  1
  H  H36  1  0.89671600  0.34385400  0.58770100  1
  H  H37  1  0.82827100  0.65614600  0.41229900  1
  H  H38  1  0.75943000  0.34385400  0.41229900  1
  H  H39  1  0.51558200  0.65614600  0.58770100  1
  C  C0  1  0.90382200  0.25773300  0.89777100  1
  C  C1  1  0.05932500  0.74226700  0.10222900  1
  C  C2  1  0.83844600  0.25773300  0.10222900  1
  C  C3  1  0.19840800  0.74226700  0.89777100  1
  C  C4  1  0.84617800  0.24226700  0.60222900  1
  C  C5  1  0.69067500  0.75773300  0.39777100  1
  C  C6  1  0.91155400  0.24226700  0.39777100  1
  C  C7  1  0.55159200  0.75773300  0.60222900  1
  C  C8  1  0.73711700  0.52576700  0.00000000  1
  C  C9  1  0.26288300  0.47423300  0.00000000  1
  C  C10  1  0.01288300  0.97423300  0.50000000  1
  C  C11  1  0.48711700  0.02576700  0.50000000  1
  N  N0  1  0.82189600  0.35620800  0.00000000  1
  N  N1  1  0.17810400  0.64379200  0.00000000  1
  N  N2  1  0.92810400  0.14379200  0.50000000  1
  N  N3  1  0.57189600  0.85620800  0.50000000  1
  N  N4  1  0.62518100  0.60918900  0.09651700  1
  N  N5  1  0.33088600  0.39081100  0.90348300  1
  N  N6  1  0.76563000  0.60918900  0.90348300  1
  N  N7  1  0.27830200  0.39081100  0.09651700  1
  N  N8  1  0.12481900  0.89081100  0.40348300  1
  N  N9  1  0.41911400  0.10918900  0.59651700  1
  N  N10  1  0.98437000  0.89081100  0.59651700  1
  N  N11  1  0.47169800  0.10918900  0.40348300  1
  Cl  Cl0  1  0.59540600  0.00000000  0.80918800  1
  Cl  Cl1  1  0.40459400  0.00000000  0.19081200  1
  Cl  Cl2  1  0.15459400  0.50000000  0.69081200  1
  Cl  Cl3  1  0.34540600  0.50000000  0.30918800  1
loop_
_geom_bond_atom_site_label_1
_geom_bond_atom_site_label_2
_geom_bond_distance
_geom_bond_site_symmetry_2
H0 N4 1.024121 1_555
H1 N5 1.024123 1_555
H2 N6 1.024121 1_555
H3 N7 1.024121 1_555
H4 N8 1.024121 1_555
H5 N9 1.024123 1_555
H6 N10 1.024121 1_455
H7 N11 1.024121 1_555
H8 N4 1.031292 1_555
H9 N5 1.031289 1_555
H10 N6 1.031292 1_555
H11 N7 1.031292 1_555
H12 N8 1.031292 1_555
H13 N9 1.031289 1_555
H14 N10 1.031292 1_555
H15 N11 1.031292 1_555
C0 H24 1.094365 1_555
C0 H16 1.099716 1_655
C0 H32 1.099988 1_555
C0 N0 1.458569 1_556
C1 H25 1.094362 1_555
C1 H17 1.099723 1_555
C1 H33 1.099983 1_455
C1 N1 1.458570 1_555
C2 H26 1.094362 1_555
C2 H18 1.099723 1_555
C2 H34 1.099983 1_555
C2 N0 1.458570 1_555
C3 H27 1.094362 1_555
C3 H19 1.099723 1_555
C3 H35 1.099988 1_555
C3 N1 1.458570 1_556
C4 H28 1.094365 1_555
C4 H20 1.099716 1_555
C4 H36 1.099988 1_555
C4 N2 1.458569 1_555
C5 H29 1.094362 1_555
C5 H21 1.099723 1_555
C5 H37 1.099983 1_555
C5 N3 1.458570 1_555
C6 H30 1.094362 1_555
C6 H22 1.099723 1_655
C6 H38 1.099983 1_555
C6 N2 1.458570 1_555
C7 H31 1.094362 1_555
C7 H23 1.099723 1_555
C7 H39 1.099988 1_555
C7 N3 1.458570 1_555
C8 N6 1.341809 1_554
C8 N4 1.341810 1_555
C8 N0 1.348681 1_555
C9 N7 1.341810 1_555
C9 N5 1.341810 1_554
C9 N1 1.348681 1_555
C10 N10 1.341809 1_455
C10 N8 1.341810 1_555
C10 N2 1.348681 1_465
C11 N11 1.341810 1_555
C11 N9 1.341810 1_555
C11 N3 1.348681 1_545
