# generated using pymatgen
data_NbCr3(CuS4)2
_symmetry_space_group_name_H-M   'P 1'
_cell_length_a   5.72192000
_cell_length_b   7.08179100
_cell_length_c   12.08322900
_cell_angle_alpha   90.00000000
_cell_angle_beta   90.00000000
_cell_angle_gamma   90.00000000
_symmetry_Int_Tables_number   1
_chemical_formula_structural   NbCr3(CuS4)2
_chemical_formula_sum   'Nb2 Cr6 Cu4 S16'
_cell_volume   489.62985776
_cell_formula_units_Z   2
loop_
 _symmetry_equiv_pos_site_id
 _symmetry_equiv_pos_as_xyz
  1  'x, y, z'
loop_
 _atom_site_type_symbol
 _atom_site_label
 _atom_site_symmetry_multiplicity
 _atom_site_fract_x
 _atom_site_fract_y
 _atom_site_fract_z
 _atom_site_occupancy
  Nb  Nb0  1  0.77275100  0.50000000  0.75579300  1
  Nb  Nb1  1  0.22724900  0.50000000  0.25579300  1
  Cr  Cr0  1  0.25468000  0.75349800  0.00012900  1
  Cr  Cr1  1  0.74532000  0.75349800  0.50012900  1
  Cr  Cr2  1  0.74532000  0.24650200  0.50012900  1
  Cr  Cr3  1  0.25468000  0.24650200  0.00012900  1
  Cr  Cr4  1  0.73233600  0.00000000  0.24307900  1
  Cr  Cr5  1  0.26766400  0.00000000  0.74307900  1
  Cu  Cu0  1  0.85353900  0.50000000  0.10070600  1
  Cu  Cu1  1  0.66261100  0.00000000  0.91032400  1
  Cu  Cu2  1  0.33738900  0.00000000  0.41032400  1
  Cu  Cu3  1  0.14646100  0.50000000  0.60070600  1
  S  S0  1  0.01216000  0.76428900  0.16847400  1
  S  S1  1  0.48267000  0.74599200  0.83105700  1
  S  S2  1  0.51733000  0.74599200  0.33105700  1
  S  S3  1  0.98784000  0.76428900  0.66847400  1
  S  S4  1  0.98784000  0.23571100  0.66847400  1
  S  S5  1  0.51733000  0.25400800  0.33105700  1
  S  S6  1  0.48267000  0.25400800  0.83105700  1
  S  S7  1  0.01216000  0.23571100  0.16847400  1
  S  S8  1  0.49140800  0.00000000  0.07937100  1
  S  S9  1  0.01306200  0.50000000  0.91892500  1
  S  S10  1  0.98693800  0.50000000  0.41892500  1
  S  S11  1  0.50859200  0.00000000  0.57937100  1
  S  S12  1  0.46655000  0.50000000  0.08182100  1
  S  S13  1  0.05040800  0.00000000  0.91066000  1
  S  S14  1  0.94959200  0.00000000  0.41066000  1
  S  S15  1  0.53345000  0.50000000  0.58182100  1
loop_
_geom_bond_atom_site_label_1
_geom_bond_atom_site_label_2
_geom_bond_distance
_geom_bond_site_symmetry_2
Nb0 S9 2.403375 1_655
Nb0 S3 2.476073 1_555
Nb0 S4 2.476073 1_555
Nb0 S15 2.508761 1_555
Nb0 S1 2.572325 1_555
Nb0 S6 2.572325 1_555
Nb1 S10 2.403375 1_455
Nb1 S0 2.476073 1_555
Nb1 S7 2.476073 1_555
Nb1 S12 2.508761 1_555
Nb1 S5 2.572325 1_555
Nb1 S2 2.572325 1_555
Cr0 S13 2.362682 1_564
Cr0 S12 2.380518 1_555
Cr0 S8 2.408104 1_565
Cr0 S1 2.424508 1_554
Cr0 S0 2.463588 1_555
Cr0 S9 2.469198 1_554
Cr1 S14 2.362682 1_565
Cr1 S15 2.380518 1_555
Cr1 S11 2.408104 1_565
Cr1 S2 2.424508 1_555
Cr1 S3 2.463588 1_555
Cr1 S10 2.469198 1_555
Cr2 S14 2.362682 1_555
Cr2 S15 2.380518 1_555
Cr2 S11 2.408104 1_555
Cr2 S5 2.424508 1_555
Cr2 S4 2.463588 1_555
Cr2 S10 2.469198 1_555
Cr3 S13 2.362682 1_554
Cr3 S12 2.380518 1_555
Cr3 S8 2.408104 1_555
Cr3 S6 2.424508 1_554
Cr3 S7 2.463588 1_555
Cr3 S9 2.469198 1_554
Cr4 S14 2.376058 1_555
Cr4 S8 2.411104 1_555
Cr4 S2 2.424747 1_545
Cr4 S5 2.424747 1_555
Cr4 S7 2.482475 1_655
Cr4 S0 2.482475 1_645
Cr5 S13 2.376058 1_555
Cr5 S11 2.411104 1_555
Cr5 S1 2.424747 1_545
Cr5 S6 2.424747 1_555
Cr5 S4 2.482475 1_455
Cr5 S3 2.482475 1_445
Cu0 S12 2.226047 1_555
Cu0 S0 2.235470 1_655
Cu0 S7 2.235470 1_655
Cu0 S9 2.378609 1_654
Cu1 S13 2.218947 1_655
Cu1 S8 2.265389 1_556
Cu1 S6 2.283259 1_555
Cu1 S1 2.283259 1_545
Cu2 S14 2.218947 1_455
Cu2 S11 2.265389 1_555
Cu2 S2 2.283259 1_545
Cu2 S5 2.283259 1_555
Cu3 S15 2.226047 1_555
Cu3 S3 2.235470 1_455
Cu3 S4 2.235470 1_455
Cu3 S10 2.378609 1_455
