# generated using pymatgen
data_CeSm3
_symmetry_space_group_name_H-M   'P 1'
_cell_length_a   7.20243503
_cell_length_b   7.20243503
_cell_length_c   5.85908900
_cell_angle_alpha   90.00000000
_cell_angle_beta   90.00000000
_cell_angle_gamma   120.00000944
_symmetry_Int_Tables_number   1
_chemical_formula_structural   CeSm3
_chemical_formula_sum   'Ce2 Sm6'
_cell_volume   263.22030252
_cell_formula_units_Z   2
loop_
 _symmetry_equiv_pos_site_id
 _symmetry_equiv_pos_as_xyz
  1  'x, y, z'
loop_
 _atom_site_type_symbol
 _atom_site_label
 _atom_site_symmetry_multiplicity
 _atom_site_fract_x
 _atom_site_fract_y
 _atom_site_fract_z
 _atom_site_occupancy
  Ce  Ce0  1  0.33333300  0.66666700  0.75000000  1
  Ce  Ce1  1  0.66666700  0.33333300  0.25000000  1
  Sm  Sm0  1  0.16641000  0.33282000  0.25000000  1
  Sm  Sm1  1  0.66718000  0.83359000  0.25000000  1
  Sm  Sm2  1  0.16641000  0.83359000  0.25000000  1
  Sm  Sm3  1  0.83359000  0.66718000  0.75000000  1
  Sm  Sm4  1  0.33282000  0.16641000  0.75000000  1
  Sm  Sm5  1  0.83359000  0.16641000  0.75000000  1
loop_
_geom_bond_atom_site_label_1
_geom_bond_atom_site_label_2
_geom_bond_distance
_geom_bond_site_symmetry_2
Ce0 Sm2 3.594226 1_556
Ce0 Sm2 3.594226 1_555
Ce0 Sm0 3.594230 1_556
Ce0 Sm0 3.594230 1_555
Ce0 Sm1 3.594230 1_556
Ce0 Sm1 3.594230 1_555
Ce0 Sm4 3.601215 1_565
Ce0 Sm3 3.601215 1_455
Ce0 Sm5 3.601218 1_565
Ce0 Sm5 3.601218 1_455
Ce0 Sm3 3.601223 1_555
Ce0 Sm4 3.601223 1_555
Ce1 Sm5 3.594226 1_554
Ce1 Sm5 3.594226 1_555
Ce1 Sm3 3.594230 1_555
Ce1 Sm4 3.594230 1_555
Ce1 Sm4 3.594230 1_554
Ce1 Sm3 3.594230 1_554
Ce1 Sm0 3.601215 1_655
Ce1 Sm1 3.601215 1_545
Ce1 Sm2 3.601218 1_655
Ce1 Sm2 3.601218 1_545
Ce1 Sm0 3.601223 1_555
Ce1 Sm1 3.601223 1_555
Sm0 Sm5 3.590522 1_455
Sm0 Sm5 3.590522 1_454
Sm0 Sm4 3.590522 1_555
Sm0 Sm4 3.590522 1_554
Sm0 Sm1 3.595671 1_445
Sm0 Sm2 3.595672 1_545
Sm0 Sm1 3.606763 1_555
Sm0 Sm2 3.606763 1_555
Sm1 Sm5 3.590522 1_565
Sm1 Sm5 3.590522 1_564
Sm1 Sm3 3.590522 1_555
Sm1 Sm3 3.590522 1_554
Sm1 Sm2 3.595672 1_655
Sm1 Sm2 3.606763 1_555
Sm2 Sm4 3.590522 1_564
Sm2 Sm4 3.590522 1_565
Sm2 Sm3 3.590522 1_454
Sm2 Sm3 3.590522 1_455
Sm3 Sm4 3.595671 1_665
Sm3 Sm5 3.595672 1_565
Sm3 Sm4 3.606763 1_555
Sm3 Sm5 3.606763 1_555
Sm4 Sm5 3.595672 1_455
Sm4 Sm5 3.606763 1_555
