# generated using pymatgen
data_SmMo5O8
_symmetry_space_group_name_H-M   'P 1'
_cell_length_a   9.27803800
_cell_length_b   8.38617400
_cell_length_c   10.74734034
_cell_angle_alpha   70.79993100
_cell_angle_beta   90.00000000
_cell_angle_gamma   90.00000000
_symmetry_Int_Tables_number   1
_chemical_formula_structural   SmMo5O8
_chemical_formula_sum   'Sm4 Mo20 O32'
_cell_volume   789.70692722
_cell_formula_units_Z   4
loop_
 _symmetry_equiv_pos_site_id
 _symmetry_equiv_pos_as_xyz
  1  'x, y, z'
loop_
 _atom_site_type_symbol
 _atom_site_label
 _atom_site_symmetry_multiplicity
 _atom_site_fract_x
 _atom_site_fract_y
 _atom_site_fract_z
 _atom_site_occupancy
  Sm  Sm0  1  0.01488200  0.69462800  0.03838300  1
  Sm  Sm1  1  0.51488200  0.30537200  0.46161700  1
  Sm  Sm2  1  0.98511800  0.30537200  0.96161700  1
  Sm  Sm3  1  0.48511800  0.69462800  0.53838300  1
  Mo  Mo0  1  0.35412700  0.99053900  0.07812900  1
  Mo  Mo1  1  0.85412700  0.00946100  0.42187100  1
  Mo  Mo2  1  0.64587300  0.00946100  0.92187100  1
  Mo  Mo3  1  0.14587300  0.99053900  0.57812900  1
  Mo  Mo4  1  0.36056700  0.20326400  0.77209300  1
  Mo  Mo5  1  0.86056700  0.79673600  0.72790700  1
  Mo  Mo6  1  0.63943300  0.79673600  0.22790700  1
  Mo  Mo7  1  0.13943300  0.20326400  0.27209300  1
  Mo  Mo8  1  0.37520700  0.80174100  0.86361100  1
  Mo  Mo9  1  0.87520700  0.19825900  0.63638900  1
  Mo  Mo10  1  0.62479300  0.19825900  0.13638900  1
  Mo  Mo11  1  0.12479300  0.80174100  0.36361100  1
  Mo  Mo12  1  0.36093400  0.59793400  0.18856000  1
  Mo  Mo13  1  0.86093400  0.40206600  0.31144000  1
  Mo  Mo14  1  0.63906600  0.40206600  0.81144000  1
  Mo  Mo15  1  0.13906600  0.59793400  0.68856000  1
  Mo  Mo16  1  0.35179600  0.39063200  0.98201600  1
  Mo  Mo17  1  0.85179600  0.60936800  0.51798400  1
  Mo  Mo18  1  0.64820400  0.60936800  0.01798400  1
  Mo  Mo19  1  0.14820400  0.39063200  0.48201600  1
  O  O0  1  0.50202000  0.58040200  0.86571200  1
  O  O1  1  0.00202000  0.41959800  0.63428800  1
  O  O2  1  0.49798000  0.41959800  0.13428800  1
  O  O3  1  0.99798000  0.58040200  0.36571200  1
  O  O4  1  0.28212100  0.37506900  0.32658700  1
  O  O5  1  0.78212100  0.62493100  0.17341300  1
  O  O6  1  0.71787900  0.62493100  0.67341300  1
  O  O7  1  0.21787900  0.37506900  0.82658700  1
  O  O8  1  0.29374100  0.79205000  0.68210600  1
  O  O9  1  0.79374100  0.20795000  0.81789400  1
  O  O10  1  0.70625900  0.20795000  0.31789400  1
  O  O11  1  0.20625900  0.79205000  0.18210600  1
  O  O12  1  0.28955300  0.19007900  0.58974900  1
  O  O13  1  0.78955300  0.80992100  0.91025100  1
  O  O14  1  0.71044700  0.80992100  0.41025100  1
  O  O15  1  0.21044700  0.19007900  0.08974900  1
  O  O16  1  0.25083200  0.60388100  0.50953300  1
  O  O17  1  0.75083200  0.39611900  0.99046700  1
  O  O18  1  0.74916800  0.39611900  0.49046700  1
  O  O19  1  0.24916800  0.60388100  0.00953300  1
  O  O20  1  0.51128400  0.01243000  0.76856400  1
  O  O21  1  0.01128400  0.98757000  0.73143600  1
  O  O22  1  0.48871600  0.98757000  0.23143600  1
  O  O23  1  0.98871600  0.01243000  0.26856400  1
  O  O24  1  0.99928100  0.59441100  0.85397500  1
  O  O25  1  0.49928100  0.40558900  0.64602500  1
  O  O26  1  0.00071900  0.40558900  0.14602500  1
  O  O27  1  0.50071900  0.59441100  0.35397500  1
  O  O28  1  0.25280500  0.99043700  0.90650900  1
  O  O29  1  0.75280500  0.00956300  0.59349100  1
  O  O30  1  0.74719500  0.00956300  0.09349100  1
  O  O31  1  0.24719500  0.99043700  0.40650900  1
loop_
_geom_bond_atom_site_label_1
_geom_bond_atom_site_label_2
_geom_bond_distance
_geom_bond_site_symmetry_2
Mo0 O22 2.060987 1_555
Mo0 O28 2.070458 1_554
Mo0 O11 2.162924 1_555
Mo0 O15 2.174928 1_565
Mo1 O23 2.060987 1_555
Mo1 O29 2.070458 1_555
Mo1 O10 2.162924 1_555
Mo1 O14 2.174928 1_545
Mo2 O20 2.060987 1_555
Mo2 O30 2.070458 1_556
Mo2 O9 2.162924 1_555
Mo2 O13 2.174928 1_545
Mo3 O21 2.060987 1_555
Mo3 O31 2.070458 1_555
Mo3 O8 2.162924 1_555
Mo3 O12 2.174928 1_565
Mo4 O12 2.104599 1_555
Mo4 O20 2.134934 1_555
Mo4 O28 2.139206 1_545
Mo4 O7 2.174051 1_555
Mo4 O25 2.204298 1_555
Mo5 O13 2.104599 1_555
Mo5 O21 2.134934 1_655
Mo5 O29 2.139206 1_565
Mo5 O6 2.174051 1_555
Mo5 O24 2.204298 1_555
Mo6 O14 2.104599 1_555
Mo6 O22 2.134934 1_555
Mo6 O30 2.139206 1_565
Mo6 O5 2.174051 1_555
Mo6 O27 2.204298 1_555
Mo7 O15 2.104599 1_555
Mo7 O23 2.134934 1_455
Mo7 O31 2.139206 1_545
Mo7 O4 2.174051 1_555
Mo7 O26 2.204298 1_555
Mo8 O28 2.118072 1_555
Mo8 O8 2.118347 1_555
Mo8 O20 2.138262 1_565
Mo8 O0 2.191507 1_555
Mo8 O19 2.206498 1_556
Mo9 O29 2.118072 1_555
Mo9 O9 2.118347 1_555
Mo9 O21 2.138262 1_645
Mo9 O1 2.191507 1_655
Mo9 O18 2.206498 1_555
Mo10 O30 2.118072 1_555
Mo10 O10 2.118347 1_555
Mo10 O22 2.138262 1_545
Mo10 O2 2.191507 1_555
Mo10 O17 2.206498 1_554
Mo11 O31 2.118072 1_555
Mo11 O11 2.118347 1_555
Mo11 O23 2.138262 1_465
Mo11 O3 2.191507 1_455
Mo11 O16 2.206498 1_555
Mo12 O4 2.098756 1_555
Mo12 O11 2.154072 1_555
Mo12 O19 2.171796 1_555
Mo12 O2 2.183443 1_555
Mo12 O27 2.192904 1_555
Mo13 O5 2.098756 1_555
Mo13 O10 2.154072 1_555
Mo13 O18 2.171796 1_555
Mo13 O3 2.183443 1_555
Mo13 O26 2.192904 1_655
Mo14 O6 2.098756 1_555
Mo14 O9 2.154072 1_555
Mo14 O17 2.171796 1_555
Mo14 O0 2.183443 1_555
Mo14 O25 2.192904 1_555
Mo15 O7 2.098756 1_555
Mo15 O8 2.154072 1_555
Mo15 O16 2.171796 1_555
Mo15 O1 2.183443 1_555
Mo15 O24 2.192904 1_455
Mo16 O7 2.120048 1_555
Mo16 O19 2.130763 1_556
Mo16 O15 2.146704 1_556
Mo16 O0 2.174703 1_555
Mo16 O2 2.199597 1_556
Mo17 O6 2.120048 1_555
Mo17 O18 2.130763 1_555
Mo17 O14 2.146704 1_555
Mo17 O1 2.174703 1_655
Mo17 O3 2.199597 1_555
Mo18 O5 2.120048 1_555
Mo18 O17 2.130763 1_554
Mo18 O13 2.146704 1_554
Mo18 O2 2.174703 1_555
Mo18 O0 2.199597 1_554
Mo19 O4 2.120048 1_555
Mo19 O16 2.130763 1_555
Mo19 O12 2.146704 1_555
Mo19 O3 2.174703 1_455
Mo19 O1 2.199597 1_555
O4 Sm1 2.559974 1_555
O5 Sm0 2.559974 1_655
O6 Sm3 2.559974 1_555
O7 Sm2 2.559974 1_455
O8 Sm3 2.652585 1_555
O9 Sm2 2.652585 1_555
O10 Sm1 2.652585 1_555
O11 Sm0 2.652585 1_555
O12 Sm1 2.515172 1_555
O13 Sm0 2.515172 1_656
O14 Sm3 2.515172 1_555
O15 Sm2 2.515172 1_454
O16 Sm3 2.357016 1_555
O17 Sm2 2.357016 1_555
O18 Sm1 2.357016 1_555
O19 Sm0 2.357016 1_555
O24 Sm2 2.320916 1_555
O24 Sm0 2.398074 1_656
O25 Sm3 2.320916 1_555
O25 Sm1 2.398074 1_555
O26 Sm0 2.320916 1_555
O26 Sm2 2.398074 1_454
O27 Sm1 2.320916 1_555
O27 Sm3 2.398074 1_555
