# generated using pymatgen
data_YMg30MnO32
_symmetry_space_group_name_H-M   'P 1'
_cell_length_a   8.63244600
_cell_length_b   8.63244600
_cell_length_c   8.62647400
_cell_angle_alpha   90.00000000
_cell_angle_beta   90.00000000
_cell_angle_gamma   90.00000000
_symmetry_Int_Tables_number   1
_chemical_formula_structural   YMg30MnO32
_chemical_formula_sum   'Y1 Mg30 Mn1 O32'
_cell_volume   642.83728520
_cell_formula_units_Z   1
loop_
 _symmetry_equiv_pos_site_id
 _symmetry_equiv_pos_as_xyz
  1  'x, y, z'
loop_
 _atom_site_type_symbol
 _atom_site_label
 _atom_site_symmetry_multiplicity
 _atom_site_fract_x
 _atom_site_fract_y
 _atom_site_fract_z
 _atom_site_occupancy
  Y  Y0  1  0.50000000  0.50000000  0.00000000  1
  Mg  Mg0  1  0.50000000  0.00000000  0.00000000  1
  Mg  Mg1  1  0.00000000  0.50000000  0.00000000  1
  Mg  Mg2  1  0.00000000  0.00000000  0.50000000  1
  Mg  Mg3  1  0.50000000  0.00000000  0.50000000  1
  Mg  Mg4  1  0.00000000  0.50000000  0.50000000  1
  Mg  Mg5  1  0.50000000  0.50000000  0.50000000  1
  Mg  Mg6  1  0.24416700  0.24416700  0.00000000  1
  Mg  Mg7  1  0.75583300  0.24416700  0.00000000  1
  Mg  Mg8  1  0.24416700  0.75583300  0.00000000  1
  Mg  Mg9  1  0.75583300  0.75583300  0.00000000  1
  Mg  Mg10  1  0.24893600  0.24893600  0.50000000  1
  Mg  Mg11  1  0.75106400  0.24893600  0.50000000  1
  Mg  Mg12  1  0.24893600  0.75106400  0.50000000  1
  Mg  Mg13  1  0.75106400  0.75106400  0.50000000  1
  Mg  Mg14  1  0.24995900  0.00000000  0.25195100  1
  Mg  Mg15  1  0.75004100  0.00000000  0.25195100  1
  Mg  Mg16  1  0.24337900  0.50000000  0.25645200  1
  Mg  Mg17  1  0.75662100  0.50000000  0.25645200  1
  Mg  Mg18  1  0.24995900  0.00000000  0.74804900  1
  Mg  Mg19  1  0.75004100  0.00000000  0.74804900  1
  Mg  Mg20  1  0.24337900  0.50000000  0.74354800  1
  Mg  Mg21  1  0.75662100  0.50000000  0.74354800  1
  Mg  Mg22  1  0.00000000  0.24995900  0.25195100  1
  Mg  Mg23  1  0.50000000  0.24337900  0.25645200  1
  Mg  Mg24  1  0.00000000  0.75004100  0.25195100  1
  Mg  Mg25  1  0.50000000  0.75662100  0.25645200  1
  Mg  Mg26  1  0.00000000  0.24995900  0.74804900  1
  Mg  Mg27  1  0.50000000  0.24337900  0.74354800  1
  Mg  Mg28  1  0.00000000  0.75004100  0.74804900  1
  Mg  Mg29  1  0.50000000  0.75662100  0.74354800  1
  Mn  Mn0  1  0.00000000  0.00000000  0.00000000  1
  O  O0  1  0.00000000  0.00000000  0.25627300  1
  O  O1  1  0.50000000  0.00000000  0.25244900  1
  O  O2  1  0.00000000  0.50000000  0.25244900  1
  O  O3  1  0.50000000  0.50000000  0.25896600  1
  O  O4  1  0.00000000  0.00000000  0.74372700  1
  O  O5  1  0.50000000  0.00000000  0.74755100  1
  O  O6  1  0.00000000  0.50000000  0.74755100  1
  O  O7  1  0.50000000  0.50000000  0.74103400  1
  O  O8  1  0.25023600  0.25023600  0.24925800  1
  O  O9  1  0.74976400  0.25023600  0.24925800  1
  O  O10  1  0.25023600  0.74976400  0.24925800  1
  O  O11  1  0.74976400  0.74976400  0.24925800  1
  O  O12  1  0.25023600  0.25023600  0.75074200  1
  O  O13  1  0.74976400  0.25023600  0.75074200  1
  O  O14  1  0.25023600  0.74976400  0.75074200  1
  O  O15  1  0.74976400  0.74976400  0.75074200  1
  O  O16  1  0.25619100  0.00000000  0.00000000  1
  O  O17  1  0.74380900  0.00000000  0.00000000  1
  O  O18  1  0.24171700  0.50000000  0.00000000  1
  O  O19  1  0.75828300  0.50000000  0.00000000  1
  O  O20  1  0.25081400  0.00000000  0.50000000  1
  O  O21  1  0.74918600  0.00000000  0.50000000  1
  O  O22  1  0.24910800  0.50000000  0.50000000  1
  O  O23  1  0.75089200  0.50000000  0.50000000  1
  O  O24  1  0.00000000  0.25619100  0.00000000  1
  O  O25  1  0.50000000  0.24171700  0.00000000  1
  O  O26  1  0.00000000  0.74380900  0.00000000  1
  O  O27  1  0.50000000  0.75828300  0.00000000  1
  O  O28  1  0.00000000  0.25081400  0.50000000  1
  O  O29  1  0.50000000  0.24910800  0.50000000  1
  O  O30  1  0.00000000  0.74918600  0.50000000  1
  O  O31  1  0.50000000  0.75089200  0.50000000  1
loop_
_geom_bond_atom_site_label_1
_geom_bond_atom_site_label_2
_geom_bond_distance
_geom_bond_site_symmetry_2
Mg0 O25 2.086609 1_555
Mg0 O27 2.086609 1_545
Mg0 O16 2.104668 1_555
Mg0 O17 2.104668 1_555
Mg0 O1 2.177745 1_555
Mg0 O5 2.177745 1_554
Mg1 O19 2.086609 1_455
Mg1 O18 2.086609 1_555
Mg1 O24 2.104668 1_555
Mg1 O26 2.104668 1_555
Mg1 O2 2.177745 1_555
Mg1 O6 2.177745 1_554
Mg2 O0 2.102505 1_555
Mg2 O4 2.102505 1_555
Mg2 O30 2.165138 1_545
Mg2 O21 2.165138 1_455
Mg2 O20 2.165138 1_555
Mg2 O28 2.165138 1_555
Mg3 O5 2.135492 1_555
Mg3 O1 2.135492 1_555
Mg3 O31 2.150411 1_545
Mg3 O29 2.150411 1_555
Mg3 O21 2.151085 1_555
Mg3 O20 2.151085 1_555
Mg4 O6 2.135492 1_555
Mg4 O2 2.135492 1_555
Mg4 O23 2.150411 1_455
Mg4 O22 2.150411 1_555
Mg4 O30 2.151085 1_555
Mg4 O28 2.151085 1_555
Mg5 O7 2.079274 1_555
Mg5 O3 2.079274 1_555
Mg5 O31 2.165812 1_555
Mg5 O22 2.165812 1_555
Mg5 O23 2.165812 1_555
Mg5 O29 2.165812 1_555
Mg6 O24 2.110313 1_555
Mg6 O16 2.110313 1_555
Mg6 O12 2.151494 1_554
Mg6 O8 2.151494 1_555
Mg6 O25 2.208566 1_555
Mg6 O18 2.208566 1_555
Mg7 O17 2.110313 1_555
Mg7 O24 2.110313 1_655
Mg7 O9 2.151494 1_555
Mg7 O13 2.151494 1_554
Mg7 O19 2.208566 1_555
Mg7 O25 2.208566 1_555
Mg8 O26 2.110313 1_555
Mg8 O16 2.110313 1_565
Mg8 O10 2.151494 1_555
Mg8 O14 2.151494 1_554
Mg8 O27 2.208566 1_555
Mg8 O18 2.208566 1_555
Mg9 O17 2.110313 1_565
Mg9 O26 2.110313 1_655
Mg9 O15 2.151494 1_554
Mg9 O11 2.151494 1_555
Mg9 O19 2.208566 1_555
Mg9 O27 2.208566 1_555
Mg10 O20 2.148988 1_555
Mg10 O28 2.148988 1_555
Mg10 O8 2.163078 1_555
Mg10 O12 2.163078 1_555
Mg10 O22 2.167297 1_555
Mg10 O29 2.167297 1_555
Mg11 O21 2.148988 1_555
Mg11 O28 2.148988 1_655
Mg11 O9 2.163078 1_555
Mg11 O13 2.163078 1_555
Mg11 O29 2.167297 1_555
Mg11 O23 2.167297 1_555
Mg12 O30 2.148988 1_555
Mg12 O20 2.148988 1_565
Mg12 O14 2.163078 1_555
Mg12 O10 2.163078 1_555
Mg12 O22 2.167297 1_555
Mg12 O31 2.167297 1_555
Mg13 O21 2.148988 1_565
Mg13 O30 2.148988 1_655
Mg13 O11 2.163078 1_555
Mg13 O15 2.163078 1_555
Mg13 O31 2.167297 1_555
Mg13 O23 2.167297 1_555
Mg14 O20 2.139801 1_555
Mg14 O0 2.158080 1_555
Mg14 O1 2.158470 1_555
Mg14 O8 2.160275 1_555
Mg14 O10 2.160275 1_545
Mg14 O16 2.174114 1_555
Mg15 O21 2.139801 1_555
Mg15 O0 2.158080 1_655
Mg15 O1 2.158470 1_555
Mg15 O9 2.160275 1_555
Mg15 O11 2.160275 1_545
Mg15 O17 2.174114 1_555
Mg16 O2 2.101240 1_555
Mg16 O22 2.101542 1_555
Mg16 O8 2.157779 1_555
Mg16 O10 2.157779 1_555
Mg16 O18 2.212323 1_555
Mg16 O3 2.215373 1_555
Mg17 O2 2.101240 1_655
Mg17 O23 2.101542 1_555
Mg17 O11 2.157779 1_555
Mg17 O9 2.157779 1_555
Mg17 O19 2.212323 1_555
Mg17 O3 2.215373 1_555
Mg18 O20 2.139801 1_555
Mg18 O4 2.158080 1_555
Mg18 O5 2.158470 1_555
Mg18 O14 2.160275 1_545
Mg18 O12 2.160275 1_555
Mg18 O16 2.174114 1_556
Mg19 O21 2.139801 1_555
Mg19 O4 2.158080 1_655
Mg19 O5 2.158470 1_555
Mg19 O15 2.160275 1_545
Mg19 O13 2.160275 1_555
Mg19 O17 2.174114 1_556
Mg20 O6 2.101240 1_555
Mg20 O22 2.101542 1_555
Mg20 O14 2.157779 1_555
Mg20 O12 2.157779 1_555
Mg20 O18 2.212323 1_556
Mg20 O7 2.215373 1_555
Mg21 O6 2.101240 1_655
Mg21 O23 2.101542 1_555
Mg21 O15 2.157779 1_555
Mg21 O13 2.157779 1_555
Mg21 O19 2.212323 1_556
Mg21 O7 2.215373 1_555
Mg22 O28 2.139801 1_555
Mg22 O0 2.158080 1_555
Mg22 O2 2.158470 1_555
Mg22 O8 2.160275 1_555
Mg22 O9 2.160275 1_455
Mg22 O24 2.174114 1_555
Mg23 O1 2.101240 1_555
Mg23 O29 2.101542 1_555
Mg23 O9 2.157779 1_555
Mg23 O8 2.157779 1_555
Mg23 O25 2.212323 1_555
Mg23 O3 2.215373 1_555
Mg24 O30 2.139801 1_555
Mg24 O0 2.158080 1_565
Mg24 O2 2.158470 1_555
Mg24 O10 2.160275 1_555
Mg24 O11 2.160275 1_455
Mg24 O26 2.174114 1_555
Mg25 O1 2.101240 1_565
Mg25 O31 2.101542 1_555
Mg25 O10 2.157779 1_555
Mg25 O11 2.157779 1_555
Mg25 O27 2.212323 1_555
Mg25 O3 2.215373 1_555
Mg26 O28 2.139801 1_555
Mg26 O4 2.158080 1_555
Mg26 O6 2.158470 1_555
Mg26 O13 2.160275 1_455
Mg26 O12 2.160275 1_555
Mg26 O24 2.174114 1_556
Mg27 O5 2.101240 1_555
Mg27 O29 2.101542 1_555
Mg27 O13 2.157779 1_555
Mg27 O12 2.157779 1_555
Mg27 O25 2.212323 1_556
Mg27 O7 2.215373 1_555
Mg28 O30 2.139801 1_555
Mg28 O4 2.158080 1_565
Mg28 O6 2.158470 1_555
Mg28 O15 2.160275 1_455
Mg28 O14 2.160275 1_555
Mg28 O26 2.174114 1_556
Mg29 O5 2.101240 1_565
Mg29 O31 2.101542 1_555
Mg29 O15 2.157779 1_555
Mg29 O14 2.157779 1_555
Mg29 O27 2.212323 1_556
Mg29 O7 2.215373 1_555
Mn0 O0 2.210732 1_555
Mn0 O4 2.210732 1_554
Mn0 O17 2.211555 1_455
Mn0 O26 2.211555 1_545
Mn0 O24 2.211555 1_555
Mn0 O16 2.211555 1_555
O3 Y0 2.233963 1_555
O7 Y0 2.233963 1_556
O18 Y0 2.229614 1_555
O19 Y0 2.229614 1_555
O25 Y0 2.229614 1_555
O27 Y0 2.229614 1_555
