# generated using pymatgen
data_Rh2Se3
_symmetry_space_group_name_H-M   'P 1'
_cell_length_a   6.33474731
_cell_length_b   6.46889082
_cell_length_c   8.95870130
_cell_angle_alpha   90.00000000
_cell_angle_beta   90.00000000
_cell_angle_gamma   90.00000000
_symmetry_Int_Tables_number   1
_chemical_formula_structural   Rh2Se3
_chemical_formula_sum   'Rh8 Se12'
_cell_volume   367.11672778
_cell_formula_units_Z   4
loop_
 _symmetry_equiv_pos_site_id
 _symmetry_equiv_pos_as_xyz
  1  'x, y, z'
loop_
 _atom_site_type_symbol
 _atom_site_label
 _atom_site_symmetry_multiplicity
 _atom_site_fract_x
 _atom_site_fract_y
 _atom_site_fract_z
 _atom_site_occupancy
  Rh  Rh0  1  0.74806921  0.53317755  0.10666006  1
  Rh  Rh1  1  0.75193079  0.03317755  0.39333994  1
  Rh  Rh2  1  0.75193079  0.46682245  0.60666006  1
  Rh  Rh3  1  0.74806921  0.96682245  0.89333994  1
  Rh  Rh4  1  0.25193079  0.46682245  0.89333994  1
  Rh  Rh5  1  0.24806921  0.96682245  0.60666006  1
  Rh  Rh6  1  0.24806921  0.53317755  0.39333994  1
  Rh  Rh7  1  0.25193079  0.03317755  0.10666006  1
  Se  Se0  1  0.60973183  0.89456363  0.15123514  1
  Se  Se1  1  0.89026817  0.39456363  0.34876486  1
  Se  Se2  1  0.89026817  0.10543637  0.65123514  1
  Se  Se3  1  0.60973183  0.60543637  0.84876486  1
  Se  Se4  1  0.39026817  0.10543637  0.84876486  1
  Se  Se5  1  0.10973183  0.60543637  0.65123514  1
  Se  Se6  1  0.10973183  0.89456363  0.34876486  1
  Se  Se7  1  0.39026817  0.39456363  0.15123514  1
  Se  Se8  1  0.04665710  0.75000000  0.00000000  1
  Se  Se9  1  0.45334290  0.25000000  0.50000000  1
  Se  Se10  1  0.95334290  0.25000000  0.00000000  1
  Se  Se11  1  0.54665710  0.75000000  0.50000000  1
loop_
_geom_bond_atom_site_label_1
_geom_bond_atom_site_label_2
_geom_bond_distance
_geom_bond_site_symmetry_2
Rh0 Se10 2.441236 1_555
Rh0 Se7 2.469996 1_555
Rh0 Se1 2.513918 1_555
Rh0 Se3 2.514842 1_554
Rh0 Se0 2.528356 1_555
Rh0 Se8 2.541265 1_655
Rh1 Se11 2.441236 1_545
Rh1 Se6 2.469996 1_645
Rh1 Se0 2.513918 1_545
Rh1 Se2 2.514842 1_555
Rh1 Se1 2.528356 1_555
Rh1 Se9 2.541265 1_555
Rh2 Se11 2.441236 1_555
Rh2 Se5 2.469996 1_655
Rh2 Se3 2.513918 1_555
Rh2 Se1 2.514842 1_555
Rh2 Se2 2.528356 1_555
Rh2 Se9 2.541265 1_555
Rh3 Se10 2.441236 1_566
Rh3 Se4 2.469996 1_565
Rh3 Se2 2.513918 1_565
Rh3 Se0 2.514842 1_556
Rh3 Se3 2.528356 1_555
Rh3 Se8 2.541265 1_656
Rh4 Se8 2.441236 1_556
Rh4 Se3 2.469996 1_555
Rh4 Se5 2.513918 1_555
Rh4 Se7 2.514842 1_556
Rh4 Se4 2.528356 1_555
Rh4 Se10 2.541265 1_456
Rh5 Se9 2.441236 1_565
Rh5 Se2 2.469996 1_465
Rh5 Se4 2.513918 1_565
Rh5 Se6 2.514842 1_555
Rh5 Se5 2.528356 1_555
Rh5 Se11 2.541265 1_555
Rh6 Se9 2.441236 1_555
Rh6 Se1 2.469996 1_455
Rh6 Se7 2.513918 1_555
Rh6 Se5 2.514842 1_555
Rh6 Se6 2.528356 1_555
Rh6 Se11 2.541265 1_555
Rh7 Se8 2.441236 1_545
Rh7 Se0 2.469996 1_545
Rh7 Se6 2.513918 1_545
Rh7 Se4 2.514842 1_554
Rh7 Se7 2.528356 1_555
Rh7 Se10 2.541265 1_455
