# generated using pymatgen
data_CeN2Cl5
_symmetry_space_group_name_H-M   'P 1'
_cell_length_a   8.46523800
_cell_length_b   10.08499300
_cell_length_c   11.63737900
_cell_angle_alpha   90.00000000
_cell_angle_beta   90.00000000
_cell_angle_gamma   90.00000000
_symmetry_Int_Tables_number   1
_chemical_formula_structural   CeN2Cl5
_chemical_formula_sum   'Ce4 N8 Cl20'
_cell_volume   993.50476027
_cell_formula_units_Z   4
loop_
 _symmetry_equiv_pos_site_id
 _symmetry_equiv_pos_as_xyz
  1  'x, y, z'
loop_
 _atom_site_type_symbol
 _atom_site_label
 _atom_site_symmetry_multiplicity
 _atom_site_fract_x
 _atom_site_fract_y
 _atom_site_fract_z
 _atom_site_occupancy
  Ce  Ce0  1  0.25000000  0.47599300  0.01208100  1
  Ce  Ce1  1  0.75000000  0.52400700  0.98791900  1
  Ce  Ce2  1  0.75000000  0.97599300  0.48791900  1
  Ce  Ce3  1  0.25000000  0.02400700  0.51208100  1
  N  N0  1  0.58562600  0.51648700  0.40520900  1
  N  N1  1  0.41437400  0.48351300  0.59479100  1
  N  N2  1  0.41437400  0.01648700  0.09479100  1
  N  N3  1  0.08562600  0.48351300  0.59479100  1
  N  N4  1  0.58562600  0.98351300  0.90520900  1
  N  N5  1  0.91437400  0.51648700  0.40520900  1
  N  N6  1  0.91437400  0.98351300  0.90520900  1
  N  N7  1  0.08562600  0.01648700  0.09479100  1
  Cl  Cl0  1  0.25000000  0.60100300  0.19820700  1
  Cl  Cl1  1  0.75000000  0.39899700  0.80179300  1
  Cl  Cl2  1  0.75000000  0.10100300  0.30179300  1
  Cl  Cl3  1  0.25000000  0.89899700  0.69820700  1
  Cl  Cl4  1  0.52946500  0.36042300  0.08254000  1
  Cl  Cl5  1  0.47053500  0.63957700  0.91746000  1
  Cl  Cl6  1  0.47053500  0.86042300  0.41746000  1
  Cl  Cl7  1  0.02946500  0.63957700  0.91746000  1
  Cl  Cl8  1  0.52946500  0.13957700  0.58254000  1
  Cl  Cl9  1  0.97053500  0.36042300  0.08254000  1
  Cl  Cl10  1  0.97053500  0.13957700  0.58254000  1
  Cl  Cl11  1  0.02946500  0.86042300  0.41746000  1
  Cl  Cl12  1  0.25000000  0.01340700  0.04009700  1
  Cl  Cl13  1  0.75000000  0.98659300  0.95990300  1
  Cl  Cl14  1  0.75000000  0.51340700  0.45990300  1
  Cl  Cl15  1  0.25000000  0.48659300  0.54009700  1
  Cl  Cl16  1  0.25000000  0.19228200  0.35057800  1
  Cl  Cl17  1  0.75000000  0.80771800  0.64942200  1
  Cl  Cl18  1  0.75000000  0.69228200  0.14942200  1
  Cl  Cl19  1  0.25000000  0.30771800  0.85057800  1
loop_
_geom_bond_atom_site_label_1
_geom_bond_atom_site_label_2
_geom_bond_distance
_geom_bond_site_symmetry_2
Ce0 Cl0 2.506205 1_555
Ce0 Cl19 2.532272 1_554
Ce0 Cl5 2.723859 1_554
Ce0 Cl7 2.723859 1_554
Ce0 Cl9 2.761791 1_455
Ce0 Cl4 2.761791 1_555
Ce1 Cl1 2.506205 1_555
Ce1 Cl18 2.532272 1_556
Ce1 Cl9 2.723859 1_556
Ce1 Cl4 2.723859 1_556
Ce1 Cl5 2.761791 1_555
Ce1 Cl7 2.761791 1_655
Ce2 Cl2 2.506205 1_565
Ce2 Cl17 2.532272 1_555
Ce2 Cl10 2.723859 1_565
Ce2 Cl8 2.723859 1_565
Ce2 Cl6 2.761791 1_555
Ce2 Cl11 2.761791 1_655
Ce3 Cl3 2.506205 1_545
Ce3 Cl16 2.532272 1_555
Ce3 Cl6 2.723859 1_545
Ce3 Cl11 2.723859 1_545
Ce3 Cl10 2.761791 1_455
Ce3 Cl8 2.761791 1_555
Cl12 N7 1.530446 1_555
Cl12 N2 1.530446 1_555
Cl13 N6 1.530446 1_555
Cl13 N4 1.530446 1_555
Cl14 N0 1.530446 1_555
Cl14 N5 1.530446 1_555
Cl15 N1 1.530446 1_555
Cl15 N3 1.530446 1_555
