# generated using pymatgen
data_CsBaMg14
_symmetry_space_group_name_H-M   'P 1'
_cell_length_a   6.77166365
_cell_length_b   6.69438327
_cell_length_c   11.09250035
_cell_angle_alpha   90.00000000
_cell_angle_beta   90.00000000
_cell_angle_gamma   119.62320209
_symmetry_Int_Tables_number   1
_chemical_formula_structural   CsBaMg14
_chemical_formula_sum   'Cs1 Ba1 Mg14'
_cell_volume   437.12183653
_cell_formula_units_Z   1
loop_
 _symmetry_equiv_pos_site_id
 _symmetry_equiv_pos_as_xyz
  1  'x, y, z'
loop_
 _atom_site_type_symbol
 _atom_site_label
 _atom_site_symmetry_multiplicity
 _atom_site_fract_x
 _atom_site_fract_y
 _atom_site_fract_z
 _atom_site_occupancy
  Cs  Cs0  1  0.17306015  0.33652958  0.12500000  1
  Ba  Ba0  1  0.18095625  0.84047763  0.12500000  1
  Mg  Mg0  1  0.15893875  0.32946887  0.62500000  1
  Mg  Mg1  1  0.15784686  0.82892293  0.62500000  1
  Mg  Mg2  1  0.67306887  0.34003222  0.12500000  1
  Mg  Mg3  1  0.67099816  0.33593865  0.62500000  1
  Mg  Mg4  1  0.67306887  0.83303565  0.12500000  1
  Mg  Mg5  1  0.67099816  0.83505851  0.62500000  1
  Mg  Mg6  1  0.34145496  0.16868608  0.40530917  1
  Mg  Mg7  1  0.34145496  0.16868608  0.84469083  1
  Mg  Mg8  1  0.34145496  0.67276988  0.40530917  1
  Mg  Mg9  1  0.34145496  0.67276988  0.84469083  1
  Mg  Mg10  1  0.81615217  0.15807659  0.38956982  1
  Mg  Mg11  1  0.81615217  0.15807659  0.86043018  1
  Mg  Mg12  1  0.82146987  0.66073543  0.38498463  1
  Mg  Mg13  1  0.82146987  0.66073543  0.86501537  1
loop_
_geom_bond_atom_site_label_1
_geom_bond_atom_site_label_2
_geom_bond_distance
_geom_bond_site_symmetry_2
Cs0 Mg4 3.374362 1_555
Cs0 Mg2 3.374362 1_555
Cs0 Mg4 3.397424 1_445
Cs0 Mg2 3.397424 1_455
Cs0 Mg10 3.609260 1_455
Cs0 Mg11 3.609260 1_454
Cs0 Mg7 3.673879 1_554
Cs0 Mg6 3.673879 1_555
Cs0 Mg9 3.673885 1_554
Cs0 Mg8 3.673885 1_555
Ba0 Cs0 3.347514 1_555
Ba0 Cs0 3.347514 1_565
Ba0 Mg2 3.357326 1_565
Ba0 Mg4 3.357326 1_555
Ba0 Mg2 3.414891 1_455
Ba0 Mg4 3.414892 1_455
Ba0 Mg12 3.576985 1_455
Ba0 Mg13 3.576985 1_454
Ba0 Mg8 3.649094 1_555
Ba0 Mg9 3.649094 1_554
Ba0 Mg7 3.649100 1_564
Ba0 Mg6 3.649100 1_565
Mg0 Mg6 3.152737 1_555
Mg0 Mg7 3.152737 1_555
Mg0 Mg8 3.152744 1_555
Mg0 Mg9 3.152744 1_555
Mg0 Mg10 3.300250 1_455
Mg0 Mg11 3.300250 1_455
Mg0 Mg5 3.325791 1_445
Mg0 Mg3 3.325791 1_455
Mg0 Mg1 3.347198 1_545
Mg0 Mg1 3.347198 1_555
Mg0 Mg5 3.446291 1_555
Mg0 Mg3 3.446291 1_555
Mg1 Mg8 3.140397 1_555
Mg1 Mg9 3.140397 1_555
Mg1 Mg6 3.140404 1_565
Mg1 Mg7 3.140404 1_565
Mg1 Mg3 3.317270 1_455
Mg1 Mg5 3.317270 1_455
Mg1 Mg12 3.317988 1_455
Mg1 Mg13 3.317988 1_455
Mg1 Mg3 3.454770 1_565
Mg1 Mg5 3.454770 1_555
Mg2 Mg4 3.300354 1_555
Mg2 Mg4 3.394029 1_545
Mg3 Mg6 3.114802 1_555
Mg3 Mg7 3.114802 1_555
Mg3 Mg5 3.341300 1_555
Mg3 Mg5 3.353084 1_545
Mg5 Mg8 3.114802 1_555
Mg5 Mg9 3.114802 1_555
Mg6 Mg8 3.319853 1_545
Mg6 Mg8 3.374530 1_555
Mg7 Mg9 3.319853 1_545
Mg7 Mg9 3.374530 1_555
Mg10 Mg3 3.218828 1_555
Mg10 Mg5 3.218835 1_545
Mg10 Mg8 3.254869 1_545
Mg10 Mg6 3.254869 1_555
Mg10 Mg12 3.347724 1_555
Mg10 Mg12 3.347724 1_545
Mg10 Mg2 3.493130 1_555
Mg10 Mg4 3.493137 1_545
Mg10 Mg8 3.526932 1_655
Mg10 Mg6 3.526932 1_655
Mg11 Mg3 3.218828 1_555
Mg11 Mg5 3.218835 1_545
Mg11 Mg9 3.254869 1_545
Mg11 Mg7 3.254869 1_555
Mg11 Mg13 3.347724 1_555
Mg11 Mg13 3.347724 1_545
Mg11 Mg2 3.493130 1_556
Mg11 Mg4 3.493137 1_546
Mg11 Mg9 3.526932 1_655
Mg11 Mg7 3.526932 1_655
Mg12 Mg5 3.265554 1_555
Mg12 Mg3 3.265560 1_555
Mg12 Mg6 3.298779 1_555
Mg12 Mg8 3.298780 1_555
Mg12 Mg4 3.435543 1_555
Mg12 Mg2 3.435549 1_555
Mg12 Mg6 3.489337 1_665
Mg12 Mg8 3.489337 1_655
Mg13 Mg5 3.265554 1_555
Mg13 Mg3 3.265560 1_555
Mg13 Mg7 3.298779 1_555
Mg13 Mg9 3.298780 1_555
Mg13 Mg4 3.435543 1_556
Mg13 Mg2 3.435549 1_556
Mg13 Mg7 3.489337 1_665
Mg13 Mg9 3.489337 1_655
