# generated using pymatgen
data_In(HO)3
_symmetry_space_group_name_H-M   'P 1'
_cell_length_a   7.00369600
_cell_length_b   7.00850575
_cell_length_c   7.02440696
_cell_angle_alpha   111.20759141
_cell_angle_beta   106.90121468
_cell_angle_gamma   109.97601513
_symmetry_Int_Tables_number   1
_chemical_formula_structural   In(HO)3
_chemical_formula_sum   'In4 H12 O12'
_cell_volume   266.19809265
_cell_formula_units_Z   4
loop_
 _symmetry_equiv_pos_site_id
 _symmetry_equiv_pos_as_xyz
  1  'x, y, z'
loop_
 _atom_site_type_symbol
 _atom_site_label
 _atom_site_symmetry_multiplicity
 _atom_site_fract_x
 _atom_site_fract_y
 _atom_site_fract_z
 _atom_site_occupancy
  In  In0  1  0.50030300  0.51152200  0.49607500  1
  In  In1  1  0.52288700  0.00270000  0.00929600  1
  In  In2  1  0.99567800  0.99778800  0.50215000  1
  In  In3  1  0.99137700  0.47935000  0.99640200  1
  H  H0  1  0.36498200  0.82165900  0.46083600  1
  H  H1  1  0.54030400  0.70601100  0.84491700  1
  H  H2  1  0.83357400  0.55913900  0.60857400  1
  H  H3  1  0.18110100  0.89984800  0.73618400  1
  H  H4  1  0.71199900  0.03674000  0.33342100  1
  H  H5  1  0.03094900  0.28948300  0.67716400  1
  H  H6  1  0.05883500  0.71622000  0.22677500  1
  H  H7  1  0.68437400  0.63278600  0.04877100  1
  H  H8  1  0.44575700  0.27750500  0.17827400  1
  H  H9  1  0.31860900  0.34961200  0.96163300  1
  H  H10  1  0.67206700  0.18135300  0.51051500  1
  H  H11  1  0.38369600  0.07720000  0.71423800  1
  O  O0  1  0.50700500  0.83276800  0.33791400  1
  O  O1  1  0.32469300  0.47814300  0.84347200  1
  O  O2  1  0.66992900  0.82642800  0.84353300  1
  O  O3  1  0.83943100  0.30994200  0.84581800  1
  O  O4  1  0.83840500  0.67859000  0.48371900  1
  O  O5  1  0.13777500  0.80241300  0.66813700  1
  O  O6  1  0.82547600  0.16330500  0.34587900  1
  O  O7  1  0.16212600  0.26929600  0.56723200  1
  O  O8  1  0.18420700  0.74498600  0.07705200  1
  O  O9  1  0.32402100  0.15799000  0.17119700  1
  O  O10  1  0.67418000  0.50736100  0.17365500  1
  O  O11  1  0.54378100  0.19886200  0.65092500  1
loop_
_geom_bond_atom_site_label_1
_geom_bond_atom_site_label_2
_geom_bond_distance
_geom_bond_site_symmetry_2
In0 O2 2.205593 1_555
In0 O9 2.247678 1_555
In0 O4 2.298781 1_555
In0 O7 2.701217 1_555
In1 O2 2.113847 1_544
In1 O6 2.208951 1_555
In1 O9 2.340716 1_555
In1 O8 2.732470 1_545
In2 O7 1.653473 1_665
In2 O4 2.063629 1_555
In3 O3 1.111126 1_555
In3 O8 1.638598 1_656
H0 O0 1.495367 1_555
H1 O2 1.011982 1_555
H1 In1 2.046934 1_566
H1 In0 2.205526 1_555
H2 O4 1.414320 1_555
H2 In0 2.094873 1_555
H3 O5 0.569913 1_555
H3 In1 2.253998 1_566
H4 O6 0.920786 1_555
H4 O0 1.662086 1_545
H4 In1 2.152362 1_555
H5 O7 1.372095 1_555
H6 O8 1.577072 1_555
H6 In3 1.635170 1_454
H7 O10 1.448723 1_555
H8 O9 0.942491 1_555
H8 In0 2.060687 1_555
H8 In1 2.199953 1_555
H9 O1 1.427402 1_555
H10 O11 1.515956 1_555
H11 O11 1.446717 1_555
H11 In1 2.339784 1_556
