# generated using pymatgen
data_Ta2V3Cu
_symmetry_space_group_name_H-M   'P 1'
_cell_length_a   4.94796578
_cell_length_b   4.94796578
_cell_length_c   8.38891200
_cell_angle_alpha   90.00000000
_cell_angle_beta   90.00000000
_cell_angle_gamma   119.99999707
_symmetry_Int_Tables_number   1
_chemical_formula_structural   Ta2V3Cu
_chemical_formula_sum   'Ta4 V6 Cu2'
_cell_volume   177.86465656
_cell_formula_units_Z   2
loop_
 _symmetry_equiv_pos_site_id
 _symmetry_equiv_pos_as_xyz
  1  'x, y, z'
loop_
 _atom_site_type_symbol
 _atom_site_label
 _atom_site_symmetry_multiplicity
 _atom_site_fract_x
 _atom_site_fract_y
 _atom_site_fract_z
 _atom_site_occupancy
  Ta  Ta0  1  0.33333300  0.66666700  0.44101100  1
  Ta  Ta1  1  0.66666700  0.33333300  0.55898900  1
  Ta  Ta2  1  0.66666700  0.33333300  0.94101100  1
  Ta  Ta3  1  0.33333300  0.66666700  0.05898900  1
  V  V0  1  0.82612500  0.17387500  0.25000000  1
  V  V1  1  0.82612500  0.65225100  0.25000000  1
  V  V2  1  0.34774900  0.17387500  0.25000000  1
  V  V3  1  0.17387500  0.82612500  0.75000000  1
  V  V4  1  0.17387500  0.34774900  0.75000000  1
  V  V5  1  0.65225100  0.82612500  0.75000000  1
  Cu  Cu0  1  0.00000000  0.00000000  0.50000000  1
  Cu  Cu1  1  0.00000000  0.00000000  0.00000000  1
loop_
_geom_bond_atom_site_label_1
_geom_bond_atom_site_label_2
_geom_bond_distance
_geom_bond_site_symmetry_2
Ta0 V3 2.930259 1_555
Ta0 V5 2.930263 1_555
Ta0 V4 2.930263 1_555
Ta0 V2 2.948222 1_555
Ta0 V1 2.948222 1_555
Ta0 V2 2.948222 1_565
Ta0 V1 2.948222 1_455
Ta0 V0 2.948222 1_455
Ta0 V0 2.948222 1_565
Ta0 Ta1 3.023292 1_455
Ta0 Ta1 3.023292 1_565
Ta0 Ta1 3.023300 1_555
Ta0 Ta3 3.204749 1_555
Ta1 V0 2.930259 1_555
Ta1 V2 2.930263 1_555
Ta1 V1 2.930263 1_555
Ta1 V5 2.948222 1_555
Ta1 V4 2.948222 1_555
Ta1 V4 2.948222 1_655
Ta1 V5 2.948222 1_545
Ta1 V3 2.948222 1_545
Ta1 V3 2.948222 1_655
Ta1 Ta2 3.204749 1_555
Ta2 V0 2.930259 1_556
Ta2 V2 2.930263 1_556
Ta2 V1 2.930263 1_556
Ta2 V5 2.948222 1_555
Ta2 V4 2.948222 1_555
Ta2 V4 2.948222 1_655
Ta2 V5 2.948222 1_545
Ta2 V3 2.948222 1_545
Ta2 V3 2.948222 1_655
Ta2 Ta3 3.023292 1_546
Ta2 Ta3 3.023292 1_656
Ta2 Ta3 3.023300 1_556
Ta3 V3 2.930259 1_554
Ta3 V5 2.930263 1_554
Ta3 V4 2.930263 1_554
Ta3 V2 2.948222 1_555
Ta3 V1 2.948222 1_555
Ta3 V2 2.948222 1_565
Ta3 V1 2.948222 1_455
Ta3 V0 2.948222 1_455
Ta3 V0 2.948222 1_565
V0 V1 2.366988 1_555
V0 V2 2.366988 1_555
V0 V2 2.580978 1_655
V0 V1 2.580978 1_545
V1 V2 2.366988 1_555
V1 V2 2.580978 1_665
V3 V4 2.366988 1_555
V3 V5 2.366988 1_555
V3 V4 2.580978 1_565
V3 V5 2.580978 1_455
V4 V5 2.366988 1_555
V4 V5 2.580978 1_445
Cu0 V1 2.572711 1_445
Cu0 V5 2.572711 1_445
Cu0 V4 2.572711 1_555
Cu0 V2 2.572711 1_555
Cu0 V3 2.572714 1_545
Cu0 V0 2.572714 1_455
Cu0 Ta0 2.899250 1_545
Cu0 Ta1 2.899250 1_455
Cu0 Ta1 2.899255 1_555
Cu0 Ta0 2.899255 1_445
Cu0 Ta1 2.899255 1_445
Cu0 Ta0 2.899255 1_555
Cu1 V1 2.572711 1_445
Cu1 V5 2.572711 1_444
Cu1 V4 2.572711 1_554
Cu1 V2 2.572711 1_555
Cu1 V3 2.572714 1_544
Cu1 V0 2.572714 1_455
Cu1 Ta2 2.899250 1_454
Cu1 Ta3 2.899250 1_545
Cu1 Ta3 2.899255 1_445
Cu1 Ta2 2.899255 1_444
Cu1 Ta3 2.899255 1_555
Cu1 Ta2 2.899255 1_554
