# generated using pymatgen
data_Er3Tl5
_symmetry_space_group_name_H-M   'P 1'
_cell_length_a   6.48365435
_cell_length_b   6.48365435
_cell_length_c   10.60243600
_cell_angle_alpha   90.00000000
_cell_angle_beta   90.00000000
_cell_angle_gamma   104.69586260
_symmetry_Int_Tables_number   1
_chemical_formula_structural   Er3Tl5
_chemical_formula_sum   'Er6 Tl10'
_cell_volume   431.12211651
_cell_formula_units_Z   2
loop_
 _symmetry_equiv_pos_site_id
 _symmetry_equiv_pos_as_xyz
  1  'x, y, z'
loop_
 _atom_site_type_symbol
 _atom_site_label
 _atom_site_symmetry_multiplicity
 _atom_site_fract_x
 _atom_site_fract_y
 _atom_site_fract_z
 _atom_site_occupancy
  Er  Er0  1  0.61713800  0.61713800  0.25000000  1
  Er  Er1  1  0.38286200  0.38286200  0.75000000  1
  Er  Er2  1  0.79497700  0.20502300  0.50000000  1
  Er  Er3  1  0.79497700  0.20502300  0.00000000  1
  Er  Er4  1  0.20502300  0.79497700  0.50000000  1
  Er  Er5  1  0.20502300  0.79497700  0.00000000  1
  Tl  Tl0  1  0.00203200  0.00203200  0.25000000  1
  Tl  Tl1  1  0.99796800  0.99796800  0.75000000  1
  Tl  Tl2  1  0.30212000  0.30212000  0.04321700  1
  Tl  Tl3  1  0.69788000  0.69788000  0.95678300  1
  Tl  Tl4  1  0.30212000  0.30212000  0.45678300  1
  Tl  Tl5  1  0.69788000  0.69788000  0.54321700  1
  Tl  Tl6  1  0.06155900  0.51601200  0.25000000  1
  Tl  Tl7  1  0.48398800  0.93844100  0.75000000  1
  Tl  Tl8  1  0.93844100  0.48398800  0.75000000  1
  Tl  Tl9  1  0.51601200  0.06155900  0.25000000  1
loop_
_geom_bond_atom_site_label_1
_geom_bond_atom_site_label_2
_geom_bond_distance
_geom_bond_site_symmetry_2
Er0 Tl0 3.048851 1_665
Er0 Tl6 3.113094 1_655
Er0 Tl9 3.113094 1_565
Er0 Tl3 3.173923 1_554
Er0 Tl5 3.173923 1_555
Er0 Tl4 3.321652 1_555
Er0 Tl2 3.321652 1_555
Er0 Tl6 3.493892 1_555
Er0 Tl9 3.493892 1_555
Er1 Tl1 3.048851 1_445
Er1 Tl8 3.113094 1_455
Er1 Tl7 3.113094 1_545
Er1 Tl4 3.173923 1_555
Er1 Tl2 3.173923 1_556
Er1 Tl5 3.321652 1_555
Er1 Tl3 3.321652 1_555
Er1 Tl7 3.493892 1_555
Er1 Tl8 3.493892 1_555
Er2 Tl8 3.210728 1_555
Er2 Tl9 3.210728 1_555
Er2 Tl4 3.219916 1_655
Er2 Tl5 3.219916 1_545
Er2 Tl1 3.384761 1_545
Er2 Tl0 3.384761 1_655
Er2 Tl4 3.440681 1_555
Er2 Tl5 3.440681 1_555
Er2 Tl6 3.508643 1_655
Er2 Tl7 3.508643 1_545
Er3 Tl8 3.210728 1_554
Er3 Tl9 3.210728 1_555
Er3 Tl2 3.219916 1_655
Er3 Tl3 3.219916 1_544
Er3 Tl0 3.384761 1_655
Er3 Tl1 3.384761 1_544
Er3 Tl3 3.440681 1_554
Er3 Tl2 3.440681 1_555
Er3 Tl6 3.508643 1_655
Er3 Tl7 3.508643 1_544
Er4 Tl7 3.210728 1_555
Er4 Tl6 3.210728 1_555
Er4 Tl4 3.219916 1_565
Er4 Tl5 3.219916 1_455
Er4 Tl1 3.384761 1_455
Er4 Tl0 3.384761 1_565
Er4 Tl4 3.440681 1_555
Er4 Tl5 3.440681 1_555
Er4 Tl9 3.508643 1_565
Er4 Tl8 3.508643 1_455
Er5 Tl7 3.210728 1_554
Er5 Tl6 3.210728 1_555
Er5 Tl2 3.219916 1_565
Er5 Tl3 3.219916 1_454
Er5 Tl0 3.384761 1_565
Er5 Tl1 3.384761 1_454
Er5 Tl2 3.440681 1_555
Er5 Tl3 3.440681 1_554
Er5 Tl9 3.508643 1_565
Er5 Tl8 3.508643 1_454
Tl0 Tl4 3.233750 1_555
Tl0 Tl2 3.233750 1_555
Tl0 Tl6 3.256030 1_555
Tl0 Tl9 3.256030 1_555
Tl0 Tl9 3.270475 1_455
Tl0 Tl6 3.270475 1_545
Tl1 Tl5 3.233750 1_555
Tl1 Tl3 3.233750 1_555
Tl1 Tl8 3.256030 1_555
Tl1 Tl7 3.256030 1_555
Tl1 Tl7 3.270475 1_655
Tl1 Tl8 3.270475 1_565
Tl2 Tl9 3.203127 1_555
Tl2 Tl6 3.203127 1_555
Tl2 Tl3 3.266122 1_554
Tl3 Tl7 3.203127 1_555
Tl3 Tl8 3.203127 1_555
Tl4 Tl9 3.203127 1_555
Tl4 Tl6 3.203127 1_555
Tl4 Tl5 3.266122 1_555
Tl5 Tl7 3.203127 1_555
Tl5 Tl8 3.203127 1_555
