# generated using pymatgen
data_Ba2CaMoN4
_symmetry_space_group_name_H-M   'P 1'
_cell_length_a   9.97644800
_cell_length_b   10.48523800
_cell_length_c   12.04876000
_cell_angle_alpha   90.00000000
_cell_angle_beta   90.00000000
_cell_angle_gamma   90.00000000
_symmetry_Int_Tables_number   1
_chemical_formula_structural   Ba2CaMoN4
_chemical_formula_sum   'Ba16 Ca8 Mo8 N32'
_cell_volume   1260.36574094
_cell_formula_units_Z   8
loop_
 _symmetry_equiv_pos_site_id
 _symmetry_equiv_pos_as_xyz
  1  'x, y, z'
loop_
 _atom_site_type_symbol
 _atom_site_label
 _atom_site_symmetry_multiplicity
 _atom_site_fract_x
 _atom_site_fract_y
 _atom_site_fract_z
 _atom_site_occupancy
  Ba  Ba0  1  0.62309200  0.96680900  0.85484300  1
  Ba  Ba1  1  0.37690800  0.03319100  0.14515700  1
  Ba  Ba2  1  0.87690800  0.46680900  0.14515700  1
  Ba  Ba3  1  0.37690800  0.53319100  0.35484300  1
  Ba  Ba4  1  0.12309200  0.53319100  0.85484300  1
  Ba  Ba5  1  0.62309200  0.46680900  0.64515700  1
  Ba  Ba6  1  0.12309200  0.03319100  0.64515700  1
  Ba  Ba7  1  0.87690800  0.96680900  0.35484300  1
  Ba  Ba8  1  0.80683400  0.76577000  0.61672100  1
  Ba  Ba9  1  0.19316600  0.23423000  0.38327900  1
  Ba  Ba10  1  0.69316600  0.26577000  0.38327900  1
  Ba  Ba11  1  0.19316600  0.73423000  0.11672100  1
  Ba  Ba12  1  0.30683400  0.73423000  0.61672100  1
  Ba  Ba13  1  0.80683400  0.26577000  0.88327900  1
  Ba  Ba14  1  0.30683400  0.23423000  0.88327900  1
  Ba  Ba15  1  0.69316600  0.76577000  0.11672100  1
  Ca  Ca0  1  0.96818200  0.88157900  0.89761200  1
  Ca  Ca1  1  0.03181800  0.11842100  0.10238800  1
  Ca  Ca2  1  0.53181800  0.38157900  0.10238800  1
  Ca  Ca3  1  0.03181800  0.61842100  0.39761200  1
  Ca  Ca4  1  0.46818100  0.61842100  0.89761200  1
  Ca  Ca5  1  0.96818200  0.38157900  0.60238800  1
  Ca  Ca6  1  0.46818100  0.11842100  0.60238800  1
  Ca  Ca7  1  0.53181800  0.88157900  0.39761200  1
  Mo  Mo0  1  0.78711100  0.59456800  0.88032200  1
  Mo  Mo1  1  0.21288900  0.40543200  0.11967800  1
  Mo  Mo2  1  0.71288900  0.09456800  0.11967800  1
  Mo  Mo3  1  0.21288900  0.90543200  0.38032200  1
  Mo  Mo4  1  0.28711100  0.90543200  0.88032200  1
  Mo  Mo5  1  0.78711100  0.09456800  0.61967800  1
  Mo  Mo6  1  0.28711100  0.40543200  0.61967800  1
  Mo  Mo7  1  0.71288900  0.59456800  0.38032200  1
  N  N0  1  0.91896000  0.67003000  0.97284400  1
  N  N1  1  0.08104000  0.32997000  0.02715600  1
  N  N2  1  0.58104000  0.17003000  0.02715600  1
  N  N3  1  0.08104000  0.82997000  0.47284400  1
  N  N4  1  0.41896000  0.82997000  0.97284400  1
  N  N5  1  0.91896000  0.17003000  0.52715600  1
  N  N6  1  0.41896000  0.32997000  0.52715600  1
  N  N7  1  0.58104000  0.67003000  0.47284400  1
  N  N8  1  0.67612600  0.71318200  0.80905700  1
  N  N9  1  0.32387400  0.28681800  0.19094300  1
  N  N10  1  0.82387400  0.21318100  0.19094300  1
  N  N11  1  0.32387400  0.78681800  0.30905700  1
  N  N12  1  0.17612600  0.78681800  0.80905700  1
  N  N13  1  0.67612600  0.21318100  0.69094300  1
  N  N14  1  0.17612600  0.28681800  0.69094300  1
  N  N15  1  0.82387400  0.71318200  0.30905700  1
  N  N16  1  0.67266400  0.99282200  0.53153500  1
  N  N17  1  0.32733600  0.00717800  0.46846500  1
  N  N18  1  0.82733600  0.49282200  0.46846500  1
  N  N19  1  0.32733600  0.50717800  0.03153500  1
  N  N20  1  0.17266400  0.50717800  0.53153500  1
  N  N21  1  0.67266400  0.49282200  0.96846500  1
  N  N22  1  0.17266400  0.00717800  0.96846500  1
  N  N23  1  0.82733600  0.99282200  0.03153500  1
  N  N24  1  0.87210400  0.98901800  0.72610500  1
  N  N25  1  0.12789600  0.01098200  0.27389500  1
  N  N26  1  0.62789600  0.48901800  0.27389500  1
  N  N27  1  0.12789600  0.51098200  0.22610500  1
  N  N28  1  0.37210400  0.51098200  0.72610500  1
  N  N29  1  0.87210400  0.48901800  0.77389500  1
  N  N30  1  0.37210400  0.01098200  0.77389500  1
  N  N31  1  0.62789600  0.98901800  0.22610500  1
loop_
_geom_bond_atom_site_label_1
_geom_bond_atom_site_label_2
_geom_bond_distance
_geom_bond_site_symmetry_2
Ba0 N30 2.726836 1_565
Ba0 N8 2.767012 1_555
Ba0 N4 2.868348 1_555
Ba0 N24 2.937987 1_555
Ba0 N23 2.959498 1_556
Ba0 N2 3.004469 1_566
Ba0 N13 3.294392 1_565
Ba1 N31 2.726836 1_545
Ba1 N9 2.767012 1_555
Ba1 N2 2.868348 1_555
Ba1 N25 2.937987 1_555
Ba1 N22 2.959498 1_554
Ba1 N4 3.004469 1_544
Ba1 N11 3.294400 1_545
Ba2 N27 2.726836 1_655
Ba2 N10 2.767022 1_555
Ba2 N1 2.868348 1_655
Ba2 N26 2.937987 1_555
Ba2 N21 2.959498 1_554
Ba2 N0 3.004469 1_554
Ba2 N15 3.294400 1_555
Ba3 N26 2.726836 1_555
Ba3 N11 2.767012 1_555
Ba3 N7 2.868348 1_555
Ba3 N27 2.937987 1_555
Ba3 N20 2.959498 1_555
Ba3 N6 3.004469 1_555
Ba3 N9 3.294400 1_555
Ba4 N29 2.726836 1_455
Ba4 N12 2.767012 1_555
Ba4 N0 2.868348 1_455
Ba4 N28 2.937987 1_555
Ba4 N19 2.959498 1_556
Ba4 N1 3.004469 1_556
Ba4 N14 3.294400 1_555
Ba5 N28 2.726836 1_555
Ba5 N13 2.767022 1_555
Ba5 N6 2.868348 1_555
Ba5 N29 2.937987 1_555
Ba5 N18 2.959498 1_555
Ba5 N7 3.004469 1_555
Ba5 N8 3.294400 1_555
Ba6 N24 2.726836 1_445
Ba6 N14 2.767012 1_555
Ba6 N5 2.868348 1_455
Ba6 N30 2.937987 1_555
Ba6 N17 2.959498 1_555
Ba6 N3 3.004469 1_545
Ba6 N12 3.294400 1_545
Ba7 N25 2.726836 1_665
Ba7 N15 2.767012 1_555
Ba7 N3 2.868348 1_655
Ba7 N31 2.937987 1_555
Ba7 N16 2.959498 1_555
Ba7 N5 3.004469 1_565
Ba7 N10 3.294392 1_565
Ba8 N8 2.715668 1_555
Ba8 N24 2.764121 1_555
Ba8 N16 2.917681 1_555
Ba8 N7 3.014497 1_555
Ba8 N3 3.307841 1_655
Ba8 N18 3.379840 1_555
Ba8 N29 3.525736 1_555
Ba9 N9 2.715668 1_555
Ba9 N25 2.764121 1_555
Ba9 N17 2.917681 1_555
Ba9 N6 3.014497 1_555
Ba9 N5 3.307841 1_455
Ba9 N20 3.379840 1_555
Ba9 N27 3.525736 1_555
Ba10 N10 2.715670 1_555
Ba10 N26 2.764121 1_555
Ba10 N18 2.917681 1_555
Ba10 N5 3.014497 1_555
Ba10 N6 3.307841 1_555
Ba10 N16 3.379840 1_545
Ba10 N31 3.525736 1_545
Ba11 N11 2.715668 1_555
Ba11 N27 2.764121 1_555
Ba11 N19 2.917681 1_555
Ba11 N4 3.014497 1_554
Ba11 N0 3.307841 1_454
Ba11 N22 3.379840 1_564
Ba11 N25 3.525736 1_565
Ba12 N12 2.715668 1_555
Ba12 N28 2.764121 1_555
Ba12 N20 2.917681 1_555
Ba12 N3 3.014497 1_555
Ba12 N7 3.307841 1_555
Ba12 N17 3.379840 1_565
Ba12 N30 3.525736 1_565
Ba13 N13 2.715670 1_555
Ba13 N29 2.764121 1_555
Ba13 N21 2.917681 1_555
Ba13 N2 3.014497 1_556
Ba13 N1 3.307841 1_656
Ba13 N23 3.379840 1_546
Ba13 N24 3.525736 1_545
Ba14 N14 2.715668 1_555
Ba14 N30 2.764121 1_555
Ba14 N22 2.917681 1_555
Ba14 N1 3.014497 1_556
Ba14 N2 3.307841 1_556
Ba14 N19 3.379840 1_556
Ba14 N28 3.525736 1_555
Ba15 N15 2.715668 1_555
Ba15 N31 2.764121 1_555
Ba15 N23 2.917681 1_555
Ba15 N0 3.014497 1_554
Ba15 N4 3.307841 1_554
Ba15 N21 3.379840 1_554
Ba15 N26 3.525736 1_555
Ca0 N23 2.436937 1_556
Ca0 N0 2.446007 1_555
Ca0 N12 2.535625 1_655
Ca0 N24 2.541262 1_555
Ca0 N22 2.573854 1_665
Ca1 N22 2.436937 1_554
Ca1 N1 2.446007 1_555
Ca1 N10 2.535621 1_455
Ca1 N25 2.541262 1_555
Ca1 N23 2.573854 1_445
Ca2 N21 2.436937 1_554
Ca2 N2 2.446007 1_555
Ca2 N9 2.535625 1_555
Ca2 N26 2.541262 1_555
Ca2 N19 2.573854 1_555
Ca3 N20 2.436937 1_555
Ca3 N3 2.446007 1_555
Ca3 N15 2.535625 1_455
Ca3 N27 2.541262 1_555
Ca3 N18 2.573854 1_455
Ca4 N19 2.436931 1_556
Ca4 N4 2.446005 1_555
Ca4 N8 2.535633 1_555
Ca4 N28 2.541258 1_555
Ca4 N21 2.573862 1_555
Ca5 N18 2.436937 1_555
Ca5 N5 2.446007 1_555
Ca5 N14 2.535625 1_655
Ca5 N29 2.541262 1_555
Ca5 N20 2.573854 1_655
Ca6 N17 2.436931 1_555
Ca6 N6 2.446005 1_555
Ca6 N13 2.535629 1_555
Ca6 N30 2.541258 1_555
Ca6 N16 2.573862 1_545
Ca7 N16 2.436937 1_555
Ca7 N7 2.446007 1_555
Ca7 N11 2.535625 1_555
Ca7 N31 2.541262 1_555
Ca7 N17 2.573854 1_565
Mo0 N8 1.873510 1_555
Mo0 N21 1.889352 1_555
Mo0 N29 1.894237 1_555
Mo0 N0 1.897108 1_555
Mo1 N9 1.873510 1_555
Mo1 N19 1.889352 1_555
Mo1 N27 1.894237 1_555
Mo1 N1 1.897108 1_555
Mo2 N10 1.873503 1_555
Mo2 N23 1.889352 1_545
Mo2 N31 1.894237 1_545
Mo2 N2 1.897108 1_555
Mo3 N11 1.873510 1_555
Mo3 N17 1.889352 1_565
Mo3 N25 1.894237 1_565
Mo3 N3 1.897108 1_555
Mo4 N12 1.873510 1_555
Mo4 N22 1.889352 1_565
Mo4 N30 1.894237 1_565
Mo4 N4 1.897108 1_555
Mo5 N13 1.873503 1_555
Mo5 N16 1.889352 1_545
Mo5 N24 1.894237 1_545
Mo5 N5 1.897108 1_555
Mo6 N14 1.873510 1_555
Mo6 N20 1.889352 1_555
Mo6 N28 1.894237 1_555
Mo6 N6 1.897108 1_555
Mo7 N15 1.873510 1_555
Mo7 N18 1.889352 1_555
Mo7 N26 1.894237 1_555
Mo7 N7 1.897108 1_555
