# generated using pymatgen
data_CeU2S5
_symmetry_space_group_name_H-M   'P 1'
_cell_length_a   7.51898267
_cell_length_b   8.12378839
_cell_length_c   11.90493940
_cell_angle_alpha   90.00000000
_cell_angle_beta   90.00000000
_cell_angle_gamma   90.00000000
_symmetry_Int_Tables_number   1
_chemical_formula_structural   CeU2S5
_chemical_formula_sum   'Ce4 U8 S20'
_cell_volume   727.18493853
_cell_formula_units_Z   4
loop_
 _symmetry_equiv_pos_site_id
 _symmetry_equiv_pos_as_xyz
  1  'x, y, z'
loop_
 _atom_site_type_symbol
 _atom_site_label
 _atom_site_symmetry_multiplicity
 _atom_site_fract_x
 _atom_site_fract_y
 _atom_site_fract_z
 _atom_site_occupancy
  Ce  Ce0  1  0.47473350  -0.00036351  0.82340176  1
  Ce  Ce1  1  0.52526650  0.49963649  0.17659824  1
  Ce  Ce2  1  0.97473350  0.49963649  0.67659824  1
  Ce  Ce3  1  0.02526650  -0.00036351  0.32340176  1
  U  U0  1  0.57242120  0.24867280  0.49084823  1
  U  U1  1  0.92757880  0.24867280  0.99084823  1
  U  U2  1  0.42757880  0.74867280  0.50915177  1
  U  U3  1  0.07242120  0.74867280  0.00915177  1
  U  U4  1  0.01903618  0.49915395  0.32225043  1
  U  U5  1  0.98096382  0.99915395  0.67774957  1
  U  U6  1  0.51903618  0.99915395  0.17774957  1
  U  U7  1  0.48096382  0.49915395  0.82225043  1
  S  S0  1  0.95744699  0.24982054  0.49873298  1
  S  S1  1  0.54255301  0.24982054  -0.00126702  1
  S  S2  1  0.04255301  0.74982054  0.50126702  1
  S  S3  1  0.45744699  0.74982054  0.00126702  1
  S  S4  1  0.33383180  0.04284357  0.59492356  1
  S  S5  1  0.15801524  0.45991049  0.09909939  1
  S  S6  1  0.66616820  0.54284357  0.40507644  1
  S  S7  1  0.84198476  0.95991049  0.90090061  1
  S  S8  1  0.65801524  0.95991049  0.40090061  1
  S  S9  1  0.83383180  0.54284357  0.90507644  1
  S  S10  1  0.34198476  0.45991049  0.59909939  1
  S  S11  1  0.16616820  0.04284357  0.09492356  1
  S  S12  1  0.69791852  0.25011514  0.71486155  1
  S  S13  1  0.80208148  0.25011514  0.21486155  1
  S  S14  1  0.30208148  0.75011514  0.28513845  1
  S  S15  1  0.19791852  0.75011514  0.78513845  1
  S  S16  1  0.33100324  0.24983202  0.31319881  1
  S  S17  1  0.16899676  0.24983202  0.81319881  1
  S  S18  1  0.66899676  0.74983202  0.68680119  1
  S  S19  1  0.83100324  0.74983202  0.18680119  1
loop_
_geom_bond_atom_site_label_1
_geom_bond_atom_site_label_2
_geom_bond_distance
_geom_bond_site_symmetry_2
Ce0 S7 2.929243 1_545
Ce0 S3 2.935859 1_546
Ce0 S12 2.937064 1_555
Ce0 S4 2.940088 1_555
Ce0 S15 2.940843 1_545
Ce0 S1 2.957652 1_556
Ce0 S18 2.982688 1_545
Ce0 S17 3.070923 1_555
Ce1 S5 2.929243 1_555
Ce1 S1 2.935859 1_555
Ce1 S14 2.937064 1_555
Ce1 S6 2.940088 1_555
Ce1 S13 2.940843 1_555
Ce1 S3 2.957652 1_555
Ce1 S16 2.982688 1_555
Ce1 S19 3.070923 1_555
Ce2 S10 2.929243 1_655
Ce2 S0 2.935859 1_555
Ce2 S15 2.937064 1_655
Ce2 S9 2.940088 1_555
Ce2 S12 2.940843 1_555
Ce2 S2 2.957652 1_655
Ce2 S17 2.982688 1_655
Ce2 S18 3.070923 1_555
Ce3 S8 2.929243 1_445
Ce3 S2 2.935859 1_545
Ce3 S13 2.937064 1_455
Ce3 S11 2.940088 1_555
Ce3 S14 2.940843 1_545
Ce3 S0 2.957652 1_455
Ce3 S19 2.982688 1_445
Ce3 S16 3.070923 1_555
S0 U0 2.896539 1_555
S0 U5 2.952960 1_545
S0 U4 2.954909 1_655
S1 U1 2.896539 1_554
S1 U6 2.952960 1_545
S1 U7 2.954909 1_554
S2 U2 2.896539 1_555
S2 U4 2.952960 1_555
S2 U5 2.954909 1_455
S3 U3 2.896539 1_555
S3 U7 2.952960 1_554
S3 U6 2.954909 1_555
S4 U2 2.692689 1_545
S4 U0 2.747611 1_555
S4 U5 2.852676 1_445
S5 U3 2.657788 1_555
S5 U1 2.758207 1_454
S5 U4 2.872480 1_555
S6 U0 2.692689 1_555
S6 U2 2.747611 1_555
S6 U4 2.852676 1_655
S7 U1 2.657788 1_565
S7 U3 2.758207 1_656
S7 U5 2.872480 1_555
S8 U0 2.657788 1_565
S8 U2 2.758207 1_555
S8 U6 2.872480 1_555
S9 U1 2.692689 1_555
S9 U3 2.747611 1_656
S9 U7 2.852676 1_555
S10 U2 2.657788 1_555
S10 U0 2.758207 1_555
S10 U7 2.872480 1_555
S11 U3 2.692689 1_545
S11 U1 2.747611 1_454
S11 U6 2.852676 1_545
S12 U0 2.828906 1_555
S12 U7 2.896311 1_555
S12 U5 2.980103 1_545
S13 U1 2.828906 1_554
S13 U4 2.896311 1_655
S13 U6 2.980103 1_545
S14 U2 2.828906 1_555
S14 U6 2.896311 1_555
S14 U4 2.980103 1_555
S15 U3 2.828906 1_556
S15 U5 2.896311 1_455
S15 U7 2.980103 1_555
S16 U0 2.787100 1_555
S16 U6 2.957403 1_545
S16 U4 3.101001 1_555
S17 U1 2.787100 1_455
S17 U5 2.957403 1_445
S17 U7 3.101001 1_555
S18 U2 2.787100 1_555
S18 U7 2.957403 1_555
S18 U5 3.101001 1_555
S19 U3 2.787100 1_655
S19 U4 2.957403 1_655
S19 U6 3.101001 1_555
