# generated using pymatgen
data_MnOF
_symmetry_space_group_name_H-M   'P 1'
_cell_length_a   5.73607000
_cell_length_b   6.91641029
_cell_length_c   6.95159093
_cell_angle_alpha   95.63297546
_cell_angle_beta   92.05847303
_cell_angle_gamma   92.79457536
_symmetry_Int_Tables_number   1
_chemical_formula_structural   MnOF
_chemical_formula_sum   'Mn8 O8 F8'
_cell_volume   273.90243391
_cell_formula_units_Z   8
loop_
 _symmetry_equiv_pos_site_id
 _symmetry_equiv_pos_as_xyz
  1  'x, y, z'
loop_
 _atom_site_type_symbol
 _atom_site_label
 _atom_site_symmetry_multiplicity
 _atom_site_fract_x
 _atom_site_fract_y
 _atom_site_fract_z
 _atom_site_occupancy
  Mn  Mn0  1  0.34308100  0.86890000  0.62805700  1
  Mn  Mn1  1  0.65818900  0.62470500  0.87361700  1
  Mn  Mn2  1  0.14932100  0.86738800  0.10972500  1
  Mn  Mn3  1  0.15153600  0.38855900  0.63640300  1
  Mn  Mn4  1  0.89409900  0.12814500  0.85775900  1
  Mn  Mn5  1  0.79624600  0.63190500  0.35658700  1
  Mn  Mn6  1  0.64245200  0.11988400  0.38029500  1
  Mn  Mn7  1  0.35290400  0.34297900  0.12854800  1
  O  O0  1  0.11403400  0.92949800  0.83962900  1
  O  O1  1  0.38523100  0.60119100  0.69122100  1
  O  O2  1  0.59172500  0.85385900  0.44087100  1
  O  O3  1  0.12552300  0.32803300  0.90570300  1
  O  O4  1  0.89561800  0.18330800  0.59907900  1
  O  O5  1  0.88116900  0.68048100  0.08445900  1
  O  O6  1  0.60075100  0.38667500  0.32250800  1
  O  O7  1  0.38260500  0.07796100  0.17743400  1
  F  F0  1  0.63830200  0.92363500  0.83933300  1
  F  F1  1  0.64614100  0.32635100  0.90913200  1
  F  F2  1  0.87754800  0.59485500  0.65107900  1
  F  F3  1  0.09785200  0.83229800  0.39019000  1
  F  F4  1  0.11156900  0.43203700  0.36096800  1
  F  F5  1  0.37561200  0.15058900  0.59385400  1
  F  F6  1  0.39773400  0.63081500  0.08530000  1
  F  F7  1  0.89075500  0.09594700  0.13824600  1
loop_
_geom_bond_atom_site_label_1
_geom_bond_atom_site_label_2
_geom_bond_distance
_geom_bond_site_symmetry_2
Mn0 O2 1.964542 1_555
Mn0 O1 1.968566 1_555
Mn0 O0 2.033827 1_555
Mn1 O5 1.907666 1_556
Mn1 O1 1.969171 1_555
Mn2 O7 1.939953 1_565
Mn2 O5 1.951919 1_455
Mn2 O0 1.972408 1_554
Mn3 O1 1.940618 1_555
Mn3 O3 1.967220 1_555
Mn3 O4 1.983590 1_455
Mn4 O3 1.866381 1_655
Mn4 O4 1.874776 1_555
Mn4 O0 1.908281 1_645
Mn5 O6 1.976605 1_555
Mn5 O5 2.025782 1_555
Mn5 O2 2.030908 1_555
Mn6 O2 1.938056 1_545
Mn6 O6 1.950676 1_555
Mn6 O7 2.005227 1_555
Mn6 O4 2.064612 1_555
Mn7 O7 1.911251 1_555
Mn7 O6 1.915952 1_555
Mn7 O3 1.980373 1_554
F0 Mn4 1.979541 1_565
F0 Mn1 2.112401 1_555
F0 Mn0 2.194927 1_555
F1 Mn4 2.039679 1_555
F1 Mn1 2.100298 1_555
F1 Mn7 2.310344 1_556
F2 Mn1 2.030146 1_555
F2 Mn5 2.126072 1_555
F2 Mn3 2.172054 1_655
F3 Mn2 2.018554 1_555
F3 Mn0 2.119670 1_555
F3 Mn5 2.154571 1_455
F4 Mn3 1.974164 1_555
F4 Mn7 2.225902 1_555
F4 Mn5 2.330544 1_455
F5 Mn0 1.986406 1_545
F5 Mn3 2.141618 1_555
F5 Mn6 2.173679 1_555
F6 Mn7 2.047656 1_555
F6 Mn1 2.133326 1_554
F6 Mn2 2.219609 1_555
F7 Mn4 1.984770 1_554
F7 Mn2 2.219510 1_645
F7 Mn6 2.242252 1_555
