# generated using pymatgen
data_Eu3SbO7
_symmetry_space_group_name_H-M   'P 1'
_cell_length_a   6.54327492
_cell_length_b   6.54327492
_cell_length_c   7.64526015
_cell_angle_alpha   90.00000000
_cell_angle_beta   90.00000000
_cell_angle_gamma   110.44798122
_symmetry_Int_Tables_number   1
_chemical_formula_structural   Eu3SbO7
_chemical_formula_sum   'Eu6 Sb2 O14'
_cell_volume   306.70259248
_cell_formula_units_Z   2
loop_
 _symmetry_equiv_pos_site_id
 _symmetry_equiv_pos_as_xyz
  1  'x, y, z'
loop_
 _atom_site_type_symbol
 _atom_site_label
 _atom_site_symmetry_multiplicity
 _atom_site_fract_x
 _atom_site_fract_y
 _atom_site_fract_z
 _atom_site_occupancy
  Eu  Eu0  1  0.00199858  0.47086166  0.74939948  1
  Eu  Eu1  1  0.99800142  0.52913834  0.24939948  1
  Eu  Eu2  1  0.52913834  0.99800142  0.75060052  1
  Eu  Eu3  1  0.47086166  0.00199858  0.25060052  1
  Eu  Eu4  1  0.50034885  0.50034885  0.50000000  1
  Eu  Eu5  1  0.49965115  0.49965115  -0.00000000  1
  Sb  Sb0  1  0.99958093  0.99958093  0.50000000  1
  Sb  Sb1  1  0.00041907  0.00041907  -0.00000000  1
  O  O0  1  0.63604322  0.36395678  0.75000000  1
  O  O1  1  0.36395678  0.63604322  0.25000000  1
  O  O2  1  0.93863394  0.06136606  0.75000000  1
  O  O3  1  0.06136606  0.93863394  0.25000000  1
  O  O4  1  0.92760487  0.68160795  0.52735827  1
  O  O5  1  0.07239513  0.31839205  0.02735827  1
  O  O6  1  0.31839205  0.07239513  0.97264173  1
  O  O7  1  0.68160795  0.92760487  0.47264173  1
  O  O8  1  0.37183223  0.62816777  0.75000000  1
  O  O9  1  0.62816777  0.37183223  0.25000000  1
  O  O10  1  0.92921359  0.68291242  0.97135263  1
  O  O11  1  0.07078641  0.31708758  0.47135263  1
  O  O12  1  0.31708758  0.07078641  0.52864737  1
  O  O13  1  0.68291242  0.92921359  0.02864737  1
loop_
_geom_bond_atom_site_label_1
_geom_bond_atom_site_label_2
_geom_bond_distance
_geom_bond_site_symmetry_2
Eu0 O0 2.247852 1_455
Eu0 O8 2.274892 1_555
Eu0 O4 2.342914 1_455
Eu0 O10 2.343744 1_455
Eu0 O5 2.458552 1_556
Eu0 O11 2.459717 1_555
Eu0 O2 2.564198 1_455
Eu1 O1 2.247852 1_655
Eu1 O9 2.274892 1_555
Eu1 O5 2.342914 1_655
Eu1 O11 2.343744 1_655
Eu1 O4 2.458552 1_555
Eu1 O10 2.459717 1_554
Eu1 O3 2.564198 1_655
Eu2 O0 2.247852 1_565
Eu2 O8 2.274892 1_555
Eu2 O6 2.342914 1_565
Eu2 O12 2.343744 1_565
Eu2 O7 2.458552 1_555
Eu2 O13 2.459717 1_556
Eu2 O2 2.564198 1_565
Eu3 O1 2.247852 1_545
Eu3 O9 2.274892 1_555
Eu3 O7 2.342914 1_545
Eu3 O13 2.343744 1_545
Eu3 O6 2.458552 1_554
Eu3 O12 2.459717 1_555
Eu3 O3 2.564198 1_545
Eu4 O9 2.356092 1_555
Eu4 O8 2.356092 1_555
Eu4 O1 2.406572 1_555
Eu4 O0 2.406572 1_555
Eu4 O7 2.636162 1_555
Eu4 O4 2.636162 1_555
Eu4 O12 2.651639 1_555
Eu4 O11 2.651639 1_555
Eu5 O9 2.356092 1_555
Eu5 O8 2.356092 1_554
Eu5 O1 2.406572 1_555
Eu5 O0 2.406572 1_554
Eu5 O6 2.636162 1_554
Eu5 O5 2.636162 1_555
Eu5 O13 2.651639 1_555
Eu5 O10 2.651639 1_554
O2 Sb1 2.021942 1_656
O2 Sb0 2.021942 1_545
O3 Sb1 2.021942 1_565
O3 Sb0 2.021942 1_455
O4 Sb0 1.977305 1_555
O5 Sb1 1.977305 1_555
O6 Sb1 1.977305 1_556
O7 Sb0 1.977305 1_555
O10 Sb1 1.976073 1_666
O11 Sb0 1.976073 1_445
O12 Sb0 1.976073 1_445
O13 Sb1 1.976073 1_665
