# generated using pymatgen
data_Nd(Mo3Se4)2
_symmetry_space_group_name_H-M   'P 1'
_cell_length_a   6.81665834
_cell_length_b   6.81665834
_cell_length_c   6.81665845
_cell_angle_alpha   88.97763487
_cell_angle_beta   88.97763487
_cell_angle_gamma   88.97763573
_symmetry_Int_Tables_number   1
_chemical_formula_structural   Nd(Mo3Se4)2
_chemical_formula_sum   'Nd1 Mo6 Se8'
_cell_volume   316.59901885
_cell_formula_units_Z   1
loop_
 _symmetry_equiv_pos_site_id
 _symmetry_equiv_pos_as_xyz
  1  'x, y, z'
loop_
 _atom_site_type_symbol
 _atom_site_label
 _atom_site_symmetry_multiplicity
 _atom_site_fract_x
 _atom_site_fract_y
 _atom_site_fract_z
 _atom_site_occupancy
  Nd  Nd0  1  0.00000000  0.00000000  0.00000000  1
  Mo  Mo0  1  0.76454800  0.57687300  0.43999600  1
  Mo  Mo1  1  0.43999600  0.76454800  0.57687300  1
  Mo  Mo2  1  0.57687300  0.43999600  0.76454800  1
  Mo  Mo3  1  0.23545200  0.42312700  0.56000400  1
  Mo  Mo4  1  0.56000400  0.23545200  0.42312700  1
  Mo  Mo5  1  0.42312700  0.56000400  0.23545200  1
  Se  Se0  1  0.75990200  0.75990200  0.75990200  1
  Se  Se1  1  0.24009800  0.24009800  0.24009800  1
  Se  Se2  1  0.24520800  0.62551900  0.87703500  1
  Se  Se3  1  0.87703500  0.24520800  0.62551900  1
  Se  Se4  1  0.62551900  0.87703500  0.24520800  1
  Se  Se5  1  0.75479200  0.37448100  0.12296500  1
  Se  Se6  1  0.12296500  0.75479200  0.37448100  1
  Se  Se7  1  0.37448100  0.12296500  0.75479200  1
loop_
_geom_bond_atom_site_label_1
_geom_bond_atom_site_label_2
_geom_bond_distance
_geom_bond_site_symmetry_2
Nd0 Se1 2.884926 1_555
Nd0 Se0 2.884926 1_444
Nd0 Se7 3.144348 1_554
Nd0 Se4 3.144348 1_445
Nd0 Se5 3.144348 1_455
Nd0 Se2 3.144348 1_544
Nd0 Se6 3.144348 1_545
Nd0 Se3 3.144348 1_454
Mo0 Se0 2.531057 1_555
Mo0 Se5 2.587072 1_555
Mo0 Se4 2.593552 1_555
Mo0 Se3 2.677579 1_555
Mo0 Se6 2.772561 1_655
Mo1 Se0 2.531057 1_555
Mo1 Se6 2.587072 1_555
Mo1 Se2 2.593552 1_555
Mo1 Se4 2.677579 1_555
Mo1 Se7 2.772561 1_565
Mo2 Se0 2.531057 1_555
Mo2 Se7 2.587072 1_555
Mo2 Se3 2.593552 1_555
Mo2 Se2 2.677579 1_555
Mo2 Se5 2.772561 1_556
Mo3 Se1 2.531057 1_555
Mo3 Se2 2.587072 1_555
Mo3 Se7 2.593552 1_555
Mo3 Se6 2.677579 1_555
Mo3 Se3 2.772561 1_455
Mo4 Se1 2.531057 1_555
Mo4 Se3 2.587072 1_555
Mo4 Se5 2.593552 1_555
Mo4 Se7 2.677579 1_555
Mo4 Se4 2.772561 1_545
Mo5 Se1 2.531057 1_555
Mo5 Se4 2.587072 1_555
Mo5 Se6 2.593552 1_555
Mo5 Se5 2.677579 1_555
Mo5 Se2 2.772561 1_554
