# generated using pymatgen
data_InAsH2O5
_symmetry_space_group_name_H-M   'P 1'
_cell_length_a   5.60899700
_cell_length_b   5.75965929
_cell_length_c   6.83233295
_cell_angle_alpha   98.16151520
_cell_angle_beta   94.41162424
_cell_angle_gamma   107.46034796
_symmetry_Int_Tables_number   1
_chemical_formula_structural   InAsH2O5
_chemical_formula_sum   'In2 As2 H4 O10'
_cell_volume   206.74603040
_cell_formula_units_Z   2
loop_
 _symmetry_equiv_pos_site_id
 _symmetry_equiv_pos_as_xyz
  1  'x, y, z'
loop_
 _atom_site_type_symbol
 _atom_site_label
 _atom_site_symmetry_multiplicity
 _atom_site_fract_x
 _atom_site_fract_y
 _atom_site_fract_z
 _atom_site_occupancy
  In  In0  1  0.63206300  0.72861300  0.21868100  1
  In  In1  1  0.36793700  0.27138700  0.78131900  1
  As  As0  1  0.73836000  0.87874400  0.74083700  1
  As  As1  1  0.26164000  0.12125600  0.25916300  1
  H  H0  1  0.88422400  0.36170200  0.26236600  1
  H  H1  1  0.11577600  0.63829800  0.73763400  1
  H  H2  1  0.07035800  0.62146800  0.22098800  1
  H  H3  1  0.92964200  0.37853200  0.77901200  1
  O  O0  1  0.64411700  0.65043000  0.88943000  1
  O  O1  1  0.35588300  0.34957000  0.11057000  1
  O  O2  1  0.68944500  0.14643600  0.85196500  1
  O  O3  1  0.31055500  0.85356400  0.14803500  1
  O  O4  1  0.55362900  0.76196500  0.51904500  1
  O  O5  1  0.44637100  0.23803500  0.48095500  1
  O  O6  1  0.05682900  0.92909800  0.73809300  1
  O  O7  1  0.94317100  0.07090200  0.26190700  1
  O  O8  1  0.91298400  0.54331900  0.27701800  1
  O  O9  1  0.08701600  0.45668100  0.72298200  1
loop_
_geom_bond_atom_site_label_1
_geom_bond_atom_site_label_2
_geom_bond_distance
_geom_bond_site_symmetry_2
In0 O4 2.125934 1_555
In0 O7 2.170231 1_565
In0 O3 2.178638 1_555
In0 O8 2.194063 1_555
In0 O0 2.240957 1_554
In0 O1 2.246803 1_555
In1 O5 2.125934 1_555
In1 O6 2.170231 1_545
In1 O2 2.178638 1_555
In1 O9 2.194063 1_555
In1 O1 2.240957 1_556
In1 O0 2.246803 1_555
As0 O4 1.695040 1_555
As0 O6 1.723692 1_655
As0 O2 1.726982 1_565
As0 O0 1.756094 1_555
As1 O5 1.695040 1_555
As1 O7 1.723692 1_455
As1 O3 1.726982 1_545
As1 O1 1.756094 1_555
H0 O8 0.998394 1_555
H1 O9 0.998394 1_555
H2 O8 0.995393 1_455
H2 O3 1.749943 1_555
H3 O9 0.995393 1_655
H3 O2 1.749943 1_555
