# generated using pymatgen
data_Li2MnVP2(HO5)2
_symmetry_space_group_name_H-M   'P 1'
_cell_length_a   5.41805800
_cell_length_b   7.36922537
_cell_length_c   14.30211483
_cell_angle_alpha   92.80170590
_cell_angle_beta   94.51886708
_cell_angle_gamma   105.43095508
_symmetry_Int_Tables_number   1
_chemical_formula_structural   Li2MnVP2(HO5)2
_chemical_formula_sum   'Li6 Mn3 V3 P6 H6 O30'
_cell_volume   547.29163668
_cell_formula_units_Z   3
loop_
 _symmetry_equiv_pos_site_id
 _symmetry_equiv_pos_as_xyz
  1  'x, y, z'
loop_
 _atom_site_type_symbol
 _atom_site_label
 _atom_site_symmetry_multiplicity
 _atom_site_fract_x
 _atom_site_fract_y
 _atom_site_fract_z
 _atom_site_occupancy
  Li  Li0  1  0.84918900  0.42269600  0.24948700  1
  Li  Li1  1  0.81585900  0.24335700  0.41695900  1
  Li  Li2  1  0.51992800  0.09354300  0.91521600  1
  Li  Li3  1  0.48211000  0.90621100  0.08467800  1
  Li  Li4  1  0.18321800  0.75668000  0.58288300  1
  Li  Li5  1  0.15034600  0.57728500  0.75069400  1
  Mn  Mn0  1  0.66641200  0.16656000  0.66674500  1
  Mn  Mn1  1  0.66710800  0.66667600  0.66634700  1
  Mn  Mn2  1  0.33258400  0.33288600  0.33406200  1
  V  V0  1  0.99998800  0.50017400  0.00003400  1
  V  V1  1  0.00097200  0.00067600  0.99952300  1
  V  V2  1  0.33364800  0.83341300  0.33326900  1
  P  P0  1  0.80732400  0.67201600  0.44048400  1
  P  P1  1  0.85966200  0.99432200  0.22574600  1
  P  P2  1  0.46856600  0.33795800  0.10791700  1
  P  P3  1  0.53119900  0.66275100  0.89232100  1
  P  P4  1  0.14242800  0.00876200  0.77254300  1
  P  P5  1  0.19066700  0.32421200  0.56101900  1
  H  H0  1  0.93669700  0.21773000  0.87811100  1
  H  H1  1  0.72492500  0.45677900  0.78638800  1
  H  H2  1  0.39068100  0.11728600  0.45292100  1
  H  H3  1  0.60830600  0.87631500  0.54670900  1
  H  H4  1  0.27702500  0.54957900  0.21446400  1
  H  H5  1  0.06250900  0.78258800  0.12131500  1
  O  O0  1  0.86468700  0.05162400  0.12335200  1
  O  O1  1  0.94011700  0.17228700  0.29516300  1
  O  O2  1  0.96565000  0.14170700  0.75804700  1
  O  O3  1  0.89962800  0.21746900  0.56623100  1
  O  O4  1  0.89858900  0.22058500  0.94481400  1
  O  O5  1  0.75584600  0.44180100  0.10057800  1
  O  O6  1  0.72593100  0.49437200  0.37093700  1
  O  O7  1  0.80134500  0.61329300  0.54309100  1
  O  O8  1  0.77342200  0.45866400  0.72078800  1
  O  O9  1  0.37752700  0.15870900  0.03749600  1
  O  O10  1  0.46417900  0.27765900  0.21030800  1
  O  O11  1  0.43702300  0.11748300  0.38693500  1
  O  O12  1  0.70368200  0.52844000  0.90844000  1
  O  O13  1  0.62915100  0.80375800  0.42382300  1
  O  O14  1  0.43337900  0.11649100  0.76747100  1
  O  O15  1  0.57255600  0.88398700  0.23141200  1
  O  O16  1  0.36687500  0.19091900  0.57503800  1
  O  O17  1  0.29563400  0.47218800  0.09241300  1
  O  O18  1  0.56010800  0.87443400  0.61224500  1
  O  O19  1  0.53507000  0.72278000  0.78997400  1
  O  O20  1  0.62304400  0.84235900  0.96249000  1
  O  O21  1  0.22948500  0.54897800  0.28033600  1
  O  O22  1  0.19433800  0.38189000  0.45783700  1
  O  O23  1  0.27339500  0.50110000  0.63040800  1
  O  O24  1  0.24412500  0.55872800  0.89992500  1
  O  O25  1  0.10218000  0.78008100  0.05486600  1
  O  O26  1  0.09411800  0.78228200  0.43472600  1
  O  O27  1  0.03812600  0.86255000  0.24253500  1
  O  O28  1  0.06060300  0.83156000  0.70325200  1
  O  O29  1  0.13883300  0.95136700  0.87523500  1
loop_
_geom_bond_atom_site_label_1
_geom_bond_atom_site_label_2
_geom_bond_distance
_geom_bond_site_symmetry_2
Li0 O6 2.005722 1_555
Li0 O21 2.025444 1_655
Li0 O10 2.092503 1_555
Li0 O1 2.150717 1_555
Li0 O5 2.169967 1_555
Li1 O1 2.011254 1_555
Li1 O11 2.016629 1_555
Li1 O22 2.056151 1_655
Li1 O6 2.154173 1_555
Li1 O3 2.175642 1_555
Li2 O4 2.016693 1_555
Li2 O9 2.052337 1_556
Li2 O29 2.071771 1_545
Li2 O14 2.152797 1_555
Li2 O20 2.192883 1_545
Li3 O25 2.021845 1_555
Li3 O20 2.044378 1_554
Li3 O0 2.080914 1_565
Li3 O15 2.141348 1_555
Li3 O9 2.205055 1_565
Li4 O18 1.996360 1_555
Li4 O28 1.997981 1_555
Li4 O7 2.076888 1_455
Li4 O26 2.164484 1_555
Li4 O23 2.193291 1_555
Li5 O8 1.998364 1_455
Li5 O23 2.001185 1_555
Li5 O19 2.092227 1_555
Li5 O24 2.174123 1_555
Li5 O28 2.182918 1_555
Mn0 O3 1.972473 1_555
Mn0 O14 1.973890 1_555
Mn0 O2 2.053061 1_555
Mn0 O16 2.056451 1_555
Mn0 O8 2.160963 1_555
Mn0 O18 2.163100 1_545
Mn1 O18 1.948404 1_555
Mn1 O8 1.950300 1_555
Mn1 O7 2.019346 1_555
Mn1 O19 2.023423 1_555
Mn1 O28 2.163737 1_655
Mn1 O23 2.164301 1_555
Mn2 O11 1.984848 1_555
Mn2 O21 1.990891 1_555
Mn2 O10 2.022260 1_555
Mn2 O22 2.028693 1_555
Mn2 O1 2.154481 1_455
Mn2 O6 2.155952 1_555
H0 O4 0.992252 1_555
H1 O8 0.993815 1_555
H2 O11 0.995474 1_555
H3 O18 0.992389 1_555
H4 O21 0.995978 1_555
H5 O25 0.991116 1_555
O0 P1 1.544114 1_545
O0 V1 2.027630 1_654
O1 P1 1.547878 1_545
O2 P4 1.551799 1_655
O3 P5 1.573214 1_655
O4 V1 2.019927 1_655
O4 V0 2.083460 1_556
O5 P2 1.555330 1_555
O5 V0 2.014943 1_555
O6 P0 1.547241 1_555
O7 P0 1.550476 1_555
O9 P2 1.564439 1_555
O9 V1 2.076726 1_554
O10 P2 1.551124 1_555
O11 V2 2.106249 1_545
O12 P3 1.544895 1_555
O12 V0 2.051832 1_556
O13 P0 1.554449 1_555
O13 V2 2.043421 1_555
O14 P4 1.574226 1_555
O15 P1 1.562263 1_555
O15 V2 2.007507 1_555
O16 P5 1.550690 1_555
O17 P2 1.545129 1_555
O17 V0 2.054980 1_455
O19 P3 1.549832 1_555
O20 P3 1.564472 1_555
O20 V1 2.081320 1_665
O21 V2 2.105509 1_555
O22 P5 1.555716 1_555
O23 P5 1.541910 1_555
O24 P3 1.555309 1_555
O24 V0 2.010201 1_456
O25 V1 2.025235 1_564
O25 V0 2.083737 1_455
O26 P0 1.560882 1_455
O26 V2 2.005427 1_555
O27 P1 1.556095 1_455
O27 V2 2.043668 1_555
O28 P4 1.542740 1_565
O29 P4 1.548303 1_565
O29 V1 2.034763 1_565
