# generated using pymatgen
data_Cs6Mo4C10S2O27
_symmetry_space_group_name_H-M   'P 1'
_cell_length_a   12.41240968
_cell_length_b   12.41240968
_cell_length_c   13.22368600
_cell_angle_alpha   90.00000000
_cell_angle_beta   90.00000000
_cell_angle_gamma   110.89709025
_symmetry_Int_Tables_number   1
_chemical_formula_structural   Cs6Mo4C10S2O27
_chemical_formula_sum   'Cs12 Mo8 C20 S4 O54'
_cell_volume   1903.33439437
_cell_formula_units_Z   2
loop_
 _symmetry_equiv_pos_site_id
 _symmetry_equiv_pos_as_xyz
  1  'x, y, z'
loop_
 _atom_site_type_symbol
 _atom_site_label
 _atom_site_symmetry_multiplicity
 _atom_site_fract_x
 _atom_site_fract_y
 _atom_site_fract_z
 _atom_site_occupancy
  Cs  Cs0  1  0.33176500  0.06357400  0.32003500  1
  Cs  Cs1  1  0.93642600  0.66823500  0.32003500  1
  Cs  Cs2  1  0.66823500  0.93642600  0.82003500  1
  Cs  Cs3  1  0.06357400  0.33176500  0.82003500  1
  Cs  Cs4  1  0.68294700  0.94473400  0.35325900  1
  Cs  Cs5  1  0.05526500  0.31705300  0.35325900  1
  Cs  Cs6  1  0.31705300  0.05526500  0.85325900  1
  Cs  Cs7  1  0.94473500  0.68294700  0.85325900  1
  Cs  Cs8  1  0.64516000  0.35484000  0.05898300  1
  Cs  Cs9  1  0.35484000  0.64516000  0.55898300  1
  Cs  Cs10  1  0.48209200  0.51790800  0.29707900  1
  Cs  Cs11  1  0.51790800  0.48209200  0.79707900  1
  Mo  Mo0  1  0.86010000  0.94826100  0.09050800  1
  Mo  Mo1  1  0.05173900  0.13990000  0.09050800  1
  Mo  Mo2  1  0.13990000  0.05173900  0.59050800  1
  Mo  Mo3  1  0.94826100  0.86010000  0.59050800  1
  Mo  Mo4  1  0.41330800  0.78315500  0.11802800  1
  Mo  Mo5  1  0.21684500  0.58669200  0.11802800  1
  Mo  Mo6  1  0.58669200  0.21684500  0.61802800  1
  Mo  Mo7  1  0.78315500  0.41330800  0.61802800  1
  C  C0  1  0.74015100  0.69798500  0.13533600  1
  C  C1  1  0.30201500  0.25984900  0.13533600  1
  C  C2  1  0.25984900  0.30201500  0.63533600  1
  C  C3  1  0.69798500  0.74015100  0.63533600  1
  C  C4  1  0.73276700  0.70661000  0.01846500  1
  C  C5  1  0.29339000  0.26723300  0.01846500  1
  C  C6  1  0.26723300  0.29339000  0.51846500  1
  C  C7  1  0.70661000  0.73276700  0.51846500  1
  C  C8  1  0.09803400  0.90196600  0.07902000  1
  C  C9  1  0.90196600  0.09803400  0.57902000  1
  C  C10  1  0.17363900  0.82636100  0.09355300  1
  C  C11  1  0.82636100  0.17363900  0.59355300  1
  C  C12  1  0.52854900  0.01570400  0.03096300  1
  C  C13  1  0.98429600  0.47145100  0.03096300  1
  C  C14  1  0.47145100  0.98429600  0.53096300  1
  C  C15  1  0.01570400  0.52854900  0.53096300  1
  C  C16  1  0.53408000  0.03429400  0.14699400  1
  C  C17  1  0.96570600  0.46592000  0.14699400  1
  C  C18  1  0.46592000  0.96570600  0.64699400  1
  C  C19  1  0.03429400  0.53408000  0.64699400  1
  S  S0  1  0.97093200  0.02906800  0.23421500  1
  S  S1  1  0.02906800  0.97093200  0.73421500  1
  S  S2  1  0.29809300  0.70190700  0.26102900  1
  S  S3  1  0.70190700  0.29809300  0.76102900  1
  O  O0  1  0.95591100  0.04408900  0.98142400  1
  O  O1  1  0.04408900  0.95591100  0.48142400  1
  O  O2  1  0.74592300  0.99649600  0.09892800  1
  O  O3  1  0.00350400  0.25407700  0.09892800  1
  O  O4  1  0.25407700  0.00350400  0.59892800  1
  O  O5  1  0.99649600  0.74592300  0.59892800  1
  O  O6  1  0.31469300  0.68530700  0.01462300  1
  O  O7  1  0.68530700  0.31469300  0.51462300  1
  O  O8  1  0.52199500  0.72766400  0.13099200  1
  O  O9  1  0.27233600  0.47800500  0.13099200  1
  O  O10  1  0.47800500  0.27233600  0.63099200  1
  O  O11  1  0.72766400  0.52199500  0.63099200  1
  O  O12  1  0.77907400  0.81103500  0.98256300  1
  O  O13  1  0.18896500  0.22092600  0.98256300  1
  O  O14  1  0.22092600  0.18896500  0.48256300  1
  O  O15  1  0.81103500  0.77907400  0.48256300  1
  O  O16  1  0.78665100  0.79602500  0.18170100  1
  O  O17  1  0.20397500  0.21334900  0.18170100  1
  O  O18  1  0.21334900  0.20397500  0.68170100  1
  O  O19  1  0.79602500  0.78665100  0.68170100  1
  O  O20  1  0.68916500  0.61869400  0.96613500  1
  O  O21  1  0.38130600  0.31083500  0.96613500  1
  O  O22  1  0.31083500  0.38130600  0.46613500  1
  O  O23  1  0.61869400  0.68916500  0.46613500  1
  O  O24  1  0.70675100  0.60274100  0.17846900  1
  O  O25  1  0.39725900  0.29324900  0.17846900  1
  O  O26  1  0.29324900  0.39725900  0.67846900  1
  O  O27  1  0.60274100  0.70675100  0.67846900  1
  O  O28  1  0.98975000  0.84921600  0.07568400  1
  O  O29  1  0.15078400  0.01025000  0.07568400  1
  O  O30  1  0.01025000  0.15078400  0.57568400  1
  O  O31  1  0.84921600  0.98975000  0.57568400  1
  O  O32  1  0.28157500  0.87957600  0.10069200  1
  O  O33  1  0.12042400  0.71842500  0.10069200  1
  O  O34  1  0.71842500  0.12042400  0.60069200  1
  O  O35  1  0.87957600  0.28157500  0.60069200  1
  O  O36  1  0.48704500  0.90738700  0.00364000  1
  O  O37  1  0.09261300  0.51295500  0.00364000  1
  O  O38  1  0.51295500  0.09261300  0.50364000  1
  O  O39  1  0.90738700  0.48704500  0.50364000  1
  O  O40  1  0.49114100  0.93814000  0.19911800  1
  O  O41  1  0.06186000  0.50885900  0.19911800  1
  O  O42  1  0.50885900  0.06186000  0.69911800  1
  O  O43  1  0.93814000  0.49114100  0.69911800  1
  O  O44  1  0.55969900  0.09802600  0.97133300  1
  O  O45  1  0.90197400  0.44030100  0.97133300  1
  O  O46  1  0.44030100  0.90197400  0.47133300  1
  O  O47  1  0.09802600  0.55969900  0.47133300  1
  O  O48  1  0.57237600  0.13100600  0.18540600  1
  O  O49  1  0.86899400  0.42762400  0.18540600  1
  O  O50  1  0.42762400  0.86899400  0.68540600  1
  O  O51  1  0.13100600  0.57237600  0.68540600  1
  O  O52  1  0.79320200  0.20679800  0.35361700  1
  O  O53  1  0.20679800  0.79320200  0.85361700  1
loop_
_geom_bond_atom_site_label_1
_geom_bond_atom_site_label_2
_geom_bond_distance
_geom_bond_site_symmetry_2
Cs0 O14 3.234478 1_555
Cs0 O38 3.241067 1_555
Cs0 O25 3.261783 1_555
Cs0 O48 3.317573 1_555
Cs0 O40 3.330376 1_545
Cs0 O17 3.379649 1_555
Cs0 O46 3.430591 1_545
Cs0 O32 3.605849 1_545
Cs1 O15 3.234478 1_555
Cs1 O39 3.241067 1_555
Cs1 O24 3.261783 1_555
Cs1 O49 3.317573 1_555
Cs1 O41 3.330376 1_655
Cs1 O16 3.379649 1_555
Cs1 O47 3.430591 1_655
Cs1 O33 3.605849 1_655
Cs2 O12 3.234478 1_555
Cs2 O36 3.241067 1_556
Cs2 O27 3.261783 1_555
Cs2 O50 3.317573 1_555
Cs2 O42 3.330376 1_565
Cs2 O19 3.379649 1_555
Cs2 O44 3.430591 1_565
Cs2 O34 3.605849 1_565
Cs3 O13 3.234478 1_555
Cs3 O37 3.241067 1_556
Cs3 O26 3.261783 1_555
Cs3 O51 3.317573 1_555
Cs3 O43 3.330376 1_455
Cs3 O18 3.379649 1_555
Cs3 O45 3.430591 1_455
Cs3 O35 3.605849 1_455
Cs4 O52 3.046014 1_565
Cs4 O40 3.112956 1_555
Cs4 O46 3.263478 1_555
Cs4 O23 3.335000 1_555
Cs4 O16 3.450465 1_555
Cs4 O2 3.460725 1_555
Cs4 O15 3.465788 1_555
Cs4 O31 3.521356 1_555
Cs4 S0 3.698945 1_565
Cs5 O52 3.046003 1_455
Cs5 O41 3.112953 1_555
Cs5 O47 3.263476 1_555
Cs5 O22 3.335011 1_555
Cs5 O17 3.450473 1_555
Cs5 O3 3.460723 1_555
Cs5 O14 3.465797 1_555
Cs5 O30 3.521357 1_555
Cs5 S0 3.698946 1_455
Cs6 O53 3.046003 1_545
Cs6 O42 3.112953 1_555
Cs6 O44 3.263476 1_555
Cs6 O21 3.335011 1_555
Cs6 O18 3.450473 1_555
Cs6 O4 3.460723 1_555
Cs6 O13 3.465797 1_555
Cs6 O29 3.521357 1_556
Cs6 S1 3.698946 1_545
Cs7 O53 3.046003 1_655
Cs7 O43 3.112953 1_555
Cs7 O45 3.263476 1_555
Cs7 O20 3.335011 1_555
Cs7 O19 3.450473 1_555
Cs7 O5 3.460723 1_555
Cs7 O12 3.465797 1_555
Cs7 O28 3.521357 1_556
Cs7 S1 3.698946 1_655
Cs8 O49 3.088606 1_555
Cs8 O48 3.088606 1_555
Cs8 O45 3.196518 1_554
Cs8 O44 3.196518 1_554
Cs8 O24 3.297132 1_555
Cs8 O25 3.297132 1_555
Cs8 O21 3.354954 1_554
Cs8 O20 3.354954 1_554
Cs9 O50 3.088606 1_555
Cs9 O51 3.088606 1_555
Cs9 O46 3.196518 1_555
Cs9 O47 3.196518 1_555
Cs9 O27 3.297132 1_555
Cs9 O26 3.297132 1_555
Cs9 O22 3.354954 1_555
Cs9 O23 3.354954 1_555
Cs10 O25 3.041415 1_555
Cs10 O24 3.041415 1_555
Cs10 O22 3.133690 1_555
Cs10 O23 3.133690 1_555
Cs10 O9 3.305701 1_555
Cs10 O8 3.305701 1_555
Cs10 S2 3.792154 1_555
Cs11 O26 3.041415 1_555
Cs11 O27 3.041415 1_555
Cs11 O21 3.133690 1_555
Cs11 O20 3.133690 1_555
Cs11 O10 3.305701 1_555
Cs11 O11 3.305701 1_555
Cs11 S3 3.792154 1_555
Mo0 O2 1.727614 1_555
Mo0 O0 1.975039 1_564
Mo0 O16 2.151060 1_555
Mo0 O12 2.174449 1_554
Mo0 S0 2.350636 1_565
Mo0 O28 2.356041 1_555
Mo1 O3 1.727614 1_555
Mo1 O0 1.975039 1_454
Mo1 O17 2.151060 1_555
Mo1 O13 2.174449 1_554
Mo1 S0 2.350636 1_455
Mo1 O29 2.356041 1_555
Mo2 O4 1.727614 1_555
Mo2 O1 1.975039 1_545
Mo2 O18 2.151060 1_555
Mo2 O14 2.174449 1_555
Mo2 S1 2.350636 1_545
Mo2 O30 2.356041 1_555
Mo3 O5 1.727614 1_555
Mo3 O1 1.975039 1_655
Mo3 O19 2.151060 1_555
Mo3 O15 2.174449 1_555
Mo3 S1 2.350636 1_655
Mo3 O31 2.356041 1_555
Mo4 O8 1.728197 1_555
Mo4 O6 1.944892 1_555
Mo4 O40 2.111427 1_555
Mo4 O36 2.120552 1_555
Mo4 O32 2.356820 1_555
Mo4 S2 2.368383 1_555
Mo5 O9 1.728197 1_555
Mo5 O6 1.944892 1_555
Mo5 O41 2.111427 1_555
Mo5 O37 2.120552 1_555
Mo5 O33 2.356820 1_555
Mo5 S2 2.368383 1_555
Mo6 O10 1.728197 1_555
Mo6 O7 1.944892 1_555
Mo6 O42 2.111427 1_555
Mo6 O38 2.120552 1_555
Mo6 O34 2.356820 1_555
Mo6 S3 2.368383 1_555
Mo7 O11 1.728197 1_555
Mo7 O7 1.944892 1_555
Mo7 O43 2.111427 1_555
Mo7 O39 2.120552 1_555
Mo7 O35 2.356820 1_555
Mo7 S3 2.368383 1_555
C0 O24 1.243052 1_555
C0 O16 1.299562 1_555
C1 O25 1.243052 1_555
C1 O17 1.299562 1_555
C2 O26 1.243052 1_555
C2 O18 1.299562 1_555
C3 O27 1.243052 1_555
C3 O19 1.299562 1_555
C4 O20 1.241479 1_554
C4 O12 1.305502 1_554
C5 O21 1.241479 1_554
C5 O13 1.305502 1_554
C6 O22 1.241479 1_555
C6 O14 1.305502 1_555
C7 O23 1.241479 1_555
C7 O15 1.305502 1_555
C8 O28 1.268607 1_455
C8 O29 1.268607 1_565
C9 O31 1.268607 1_545
C9 O30 1.268607 1_655
C10 O32 1.268396 1_555
C10 O33 1.268396 1_555
C11 O35 1.268396 1_555
C11 O34 1.268396 1_555
C12 O44 1.238359 1_554
C12 O36 1.307458 1_545
C13 O45 1.238359 1_554
C13 O37 1.307458 1_655
C14 O46 1.238359 1_555
C14 O38 1.307458 1_565
C15 O47 1.238359 1_555
C15 O39 1.307458 1_455
C16 O48 1.232041 1_555
C16 O40 1.315226 1_545
C17 O49 1.232041 1_555
C17 O41 1.315226 1_655
C18 O50 1.232041 1_555
C18 O42 1.315226 1_565
C19 O51 1.232041 1_555
C19 O43 1.315226 1_455
