# generated using pymatgen
data_ThSiRh
_symmetry_space_group_name_H-M   'P 1'
_cell_length_a   7.76844245
_cell_length_b   7.76844245
_cell_length_c   7.76844245
_cell_angle_alpha   148.85823329
_cell_angle_beta   148.85823329
_cell_angle_gamma   44.62002136
_symmetry_Int_Tables_number   1
_chemical_formula_structural   ThSiRh
_chemical_formula_sum   'Th2 Si2 Rh2'
_cell_volume   125.00692182
_cell_formula_units_Z   2
loop_
 _symmetry_equiv_pos_site_id
 _symmetry_equiv_pos_as_xyz
  1  'x, y, z'
loop_
 _atom_site_type_symbol
 _atom_site_label
 _atom_site_symmetry_multiplicity
 _atom_site_fract_x
 _atom_site_fract_y
 _atom_site_fract_z
 _atom_site_occupancy
  Th  Th0  1  0.57843952  0.57843952  0.00000000  1
  Th  Th1  1  0.32843952  0.82843952  0.50000000  1
  Si  Si0  1  0.00009995  0.00009995  0.00000000  1
  Si  Si1  1  0.75009995  0.25009995  0.50000000  1
  Rh  Rh0  1  0.16846053  0.16846053  -0.00000000  1
  Rh  Rh1  1  0.91846053  0.41846053  0.50000000  1
loop_
_geom_bond_atom_site_label_1
_geom_bond_atom_site_label_2
_geom_bond_distance
_geom_bond_site_symmetry_2
Si0 Th0 3.156707 1_455
Si0 Th0 3.156707 1_556
Si0 Th0 3.156707 1_545
Si0 Th0 3.156707 1_444
Si0 Th1 3.230570 1_444
Si0 Th1 3.230570 1_545
Si1 Th1 3.156707 1_645
Si1 Th1 3.156707 1_544
Si1 Th1 3.156707 1_656
Si1 Th1 3.156707 1_555
Si1 Th0 3.230570 1_545
Si1 Th0 3.230570 1_556
Rh0 Si1 2.392792 1_555
Rh0 Si1 2.392792 1_454
Rh0 Si0 2.419989 1_555
Rh0 Th1 3.104219 1_544
Rh0 Th1 3.104219 1_555
Rh0 Th0 3.220424 1_545
Rh0 Th0 3.220424 1_556
Rh0 Th0 3.220424 1_444
Rh0 Th0 3.220424 1_455
Rh1 Si0 2.392792 1_655
Rh1 Si0 2.392792 1_666
Rh1 Si1 2.419989 1_555
Rh1 Th0 3.104219 1_656
Rh1 Th0 3.104219 1_555
Rh1 Th1 3.220424 1_656
Rh1 Th1 3.220424 1_544
Rh1 Th1 3.220424 1_555
Rh1 Th1 3.220424 1_645
