# generated using pymatgen
data_NaVS2
_symmetry_space_group_name_H-M   'P 1'
_cell_length_a   3.57162016
_cell_length_b   3.57162016
_cell_length_c   6.97969342
_cell_angle_alpha   75.17556990
_cell_angle_beta   75.17556990
_cell_angle_gamma   59.99999698
_symmetry_Int_Tables_number   1
_chemical_formula_structural   NaVS2
_chemical_formula_sum   'Na1 V1 S2'
_cell_volume   73.66568539
_cell_formula_units_Z   1
loop_
 _symmetry_equiv_pos_site_id
 _symmetry_equiv_pos_as_xyz
  1  'x, y, z'
loop_
 _atom_site_type_symbol
 _atom_site_label
 _atom_site_symmetry_multiplicity
 _atom_site_fract_x
 _atom_site_fract_y
 _atom_site_fract_z
 _atom_site_occupancy
  Na  Na0  1  0.16621200  0.16621200  0.50136400  1
  V  V0  1  0.99775700  0.99775700  0.00672900  1
  S  S0  1  0.59772500  0.59772500  0.20682500  1
  S  S1  1  0.39830600  0.39830600  0.80508200  1
loop_
_geom_bond_atom_site_label_1
_geom_bond_atom_site_label_2
_geom_bond_distance
_geom_bond_site_symmetry_2
Na0 S0 2.847727 1_545
Na0 S0 2.847727 1_455
Na0 S0 2.847727 1_555
Na0 S1 2.890280 1_455
Na0 S1 2.890280 1_545
Na0 S1 2.890280 1_555
S0 V0 2.456099 1_545
S0 V0 2.456099 1_455
S0 V0 2.456099 1_555
S1 V0 2.461733 1_456
S1 V0 2.461733 1_546
S1 V0 2.461733 1_446
