# generated using pymatgen
data_Sr2AlGaCo2O7
_symmetry_space_group_name_H-M   'P 1'
_cell_length_a   5.40979800
_cell_length_b   5.62386864
_cell_length_c   11.81593052
_cell_angle_alpha   103.53606342
_cell_angle_beta   103.14661847
_cell_angle_gamma   90.22828235
_symmetry_Int_Tables_number   1
_chemical_formula_structural   Sr2AlGaCo2O7
_chemical_formula_sum   'Sr4 Al2 Ga2 Co4 O14'
_cell_volume   339.72004029
_cell_formula_units_Z   2
loop_
 _symmetry_equiv_pos_site_id
 _symmetry_equiv_pos_as_xyz
  1  'x, y, z'
loop_
 _atom_site_type_symbol
 _atom_site_label
 _atom_site_symmetry_multiplicity
 _atom_site_fract_x
 _atom_site_fract_y
 _atom_site_fract_z
 _atom_site_occupancy
  Sr  Sr0  1  0.14934400  0.17067600  0.29879800  1
  Sr  Sr1  1  0.85080700  0.82695200  0.70060100  1
  Sr  Sr2  1  0.64994900  0.62511000  0.29981000  1
  Sr  Sr3  1  0.34896600  0.37142600  0.69944100  1
  Al  Al0  1  0.50823100  0.49871800  0.00328300  1
  Al  Al1  1  0.00566400  0.00437400  0.00188600  1
  Ga  Ga0  1  0.21595100  0.82017900  0.50039700  1
  Ga  Ga1  1  0.71592600  0.17608700  0.49748600  1
  Co  Co0  1  0.43933100  0.94355900  0.86948100  1
  Co  Co1  1  0.06805300  0.56804500  0.12675700  1
  Co  Co2  1  0.94679100  0.44128800  0.88490400  1
  Co  Co3  1  0.57099500  0.05670600  0.13463900  1
  O  O0  1  0.87341600  0.22817600  0.10660000  1
  O  O1  1  0.86748800  0.87222900  0.49984900  1
  O  O2  1  0.37592800  0.37520400  0.10722900  1
  O  O3  1  0.85240600  0.37330200  0.64760200  1
  O  O4  1  0.62570100  0.28351100  0.88610000  1
  O  O5  1  0.12002800  0.10676800  0.88525500  1
  O  O6  1  0.36737800  0.12372800  0.49962700  1
  O  O7  1  0.26469000  0.61160600  0.89551900  1
  O  O8  1  0.76729300  0.77840700  0.89575900  1
  O  O9  1  0.35297600  0.78500000  0.65617600  1
  O  O10  1  0.19928900  0.62767000  0.34727100  1
  O  O11  1  0.69643000  0.21223500  0.34269500  1
  O  O12  1  0.72892100  0.72580500  0.11728200  1
  O  O13  1  0.22871800  0.89056900  0.11534300  1
loop_
_geom_bond_atom_site_label_1
_geom_bond_atom_site_label_2
_geom_bond_distance
_geom_bond_site_symmetry_2
Al0 O2 1.816203 1_555
Al0 O12 1.822587 1_555
Al0 O7 1.839080 1_554
Al0 O4 1.846015 1_554
Al1 O0 1.818722 1_455
Al1 O13 1.826159 1_545
Al1 O8 1.831866 1_444
Al1 O5 1.835766 1_554
Ga0 O10 1.860637 1_555
Ga0 O9 1.878212 1_555
Ga0 O6 1.893391 1_565
Ga0 O1 1.907647 1_455
Ga1 O3 1.843450 1_555
Ga1 O11 1.866592 1_555
Ga1 O1 1.901665 1_545
Ga1 O6 1.914027 1_555
Co0 O5 1.984946 1_565
Co0 O8 2.001104 1_555
Co0 O4 2.104535 1_565
Co0 O7 2.204417 1_555
Co0 O9 2.403082 1_555
Co1 O2 2.018788 1_555
Co1 O12 2.032638 1_455
Co1 O13 2.053996 1_555
Co1 O0 2.115555 1_455
Co1 O10 2.480555 1_555
Co2 O7 1.929591 1_655
Co2 O4 1.951811 1_555
Co2 O5 2.105595 1_655
Co2 O8 2.123997 1_555
Co2 O3 2.667271 1_555
Co3 O13 2.011968 1_545
Co3 O0 2.024809 1_555
Co3 O12 2.036859 1_545
Co3 O2 2.134951 1_555
Co3 O11 2.344991 1_555
O0 Sr0 2.509138 1_655
O1 Sr1 2.465692 1_555
O1 Sr2 2.467215 1_555
O2 Sr2 2.510507 1_555
O3 Sr1 2.481119 1_555
O3 Sr3 2.616528 1_655
O3 Sr3 2.924799 1_555
O4 Sr3 2.522802 1_555
O5 Sr1 2.507396 1_445
O6 Sr3 2.468439 1_555
O6 Sr0 2.472766 1_555
O7 Sr3 2.533887 1_555
O8 Sr1 2.522657 1_555
O9 Sr3 2.496558 1_555
O9 Sr1 2.622639 1_555
O9 Sr1 2.882207 1_455
O9 Sr3 3.217901 1_565
O10 Sr0 2.498265 1_555
O10 Sr2 2.622379 1_555
O10 Sr2 2.895544 1_455
O10 Sr0 3.237539 1_565
O11 Sr2 2.491776 1_555
O11 Sr0 2.617809 1_655
O11 Sr0 2.884870 1_555
O11 Sr2 3.220997 1_545
O12 Sr2 2.478643 1_555
O13 Sr0 2.488997 1_565
