# generated using pymatgen
data_LaNd(CoO3)2
_symmetry_space_group_name_H-M   'P 1'
_cell_length_a   5.45967800
_cell_length_b   5.49601000
_cell_length_c   7.78899800
_cell_angle_alpha   90.00000000
_cell_angle_beta   90.00000000
_cell_angle_gamma   90.00000000
_symmetry_Int_Tables_number   1
_chemical_formula_structural   LaNd(CoO3)2
_chemical_formula_sum   'La2 Nd2 Co4 O12'
_cell_volume   233.72013919
_cell_formula_units_Z   2
loop_
 _symmetry_equiv_pos_site_id
 _symmetry_equiv_pos_as_xyz
  1  'x, y, z'
loop_
 _atom_site_type_symbol
 _atom_site_label
 _atom_site_symmetry_multiplicity
 _atom_site_fract_x
 _atom_site_fract_y
 _atom_site_fract_z
 _atom_site_occupancy
  La  La0  1  0.24640000  0.47171500  0.50000000  1
  La  La1  1  0.75360000  0.97171500  0.50000000  1
  Nd  Nd0  1  0.25712500  0.53929800  0.00000000  1
  Nd  Nd1  1  0.74287500  0.03929800  0.00000000  1
  Co  Co0  1  0.75090800  0.50014400  0.75211600  1
  Co  Co1  1  0.24909200  0.00014400  0.24788400  1
  Co  Co2  1  0.75090800  0.50014400  0.24788400  1
  Co  Co3  1  0.24909200  0.00014400  0.75211600  1
  O  O0  1  0.53636300  0.78625200  0.21119500  1
  O  O1  1  0.46363700  0.28625200  0.78880500  1
  O  O2  1  0.96046300  0.21015400  0.71939600  1
  O  O3  1  0.03953700  0.71015400  0.28060400  1
  O  O4  1  0.96046300  0.21015400  0.28060400  1
  O  O5  1  0.03953700  0.71015400  0.71939600  1
  O  O6  1  0.53636300  0.78625200  0.78880500  1
  O  O7  1  0.46363700  0.28625200  0.21119500  1
  O  O8  1  0.17915900  0.98679200  0.00000000  1
  O  O9  1  0.82084100  0.48679200  0.00000000  1
  O  O10  1  0.31119100  0.00909300  0.50000000  1
  O  O11  1  0.68880900  0.50909300  0.50000000  1
loop_
_geom_bond_atom_site_label_1
_geom_bond_atom_site_label_2
_geom_bond_distance
_geom_bond_site_symmetry_2
La0 O11 2.424131 1_555
La0 O3 2.431692 1_555
La0 O5 2.431692 1_555
La0 O10 2.567064 1_555
La0 O2 2.724681 1_455
La0 O4 2.724681 1_455
La0 O7 2.739698 1_555
La0 O1 2.739698 1_555
La1 O10 2.424131 1_565
La1 O4 2.431692 1_565
La1 O2 2.431692 1_565
La1 O11 2.567064 1_555
La1 O5 2.724681 1_655
La1 O3 2.724681 1_655
La1 O0 2.739698 1_555
La1 O6 2.739698 1_555
Nd0 O9 2.399387 1_455
Nd0 O7 2.431340 1_555
Nd0 O1 2.431340 1_554
Nd0 O8 2.495996 1_555
Nd0 O6 2.621531 1_554
Nd0 O0 2.621531 1_555
Nd0 O5 2.658942 1_554
Nd0 O3 2.658942 1_555
Nd1 O8 2.399387 1_645
Nd1 O0 2.431340 1_545
Nd1 O6 2.431340 1_544
Nd1 O9 2.495996 1_555
Nd1 O1 2.621531 1_554
Nd1 O7 2.621531 1_555
Nd1 O2 2.658942 1_554
Nd1 O4 2.658942 1_555
Co0 O9 1.969525 1_556
Co0 O5 1.969868 1_655
Co0 O2 1.978404 1_555
Co0 O1 1.980780 1_555
Co0 O6 1.981495 1_555
Co0 O11 1.993391 1_555
Co1 O8 1.969525 1_545
Co1 O4 1.969868 1_455
Co1 O3 1.978404 1_545
Co1 O0 1.980780 1_545
Co1 O7 1.981495 1_555
Co1 O10 1.993391 1_555
Co2 O9 1.969525 1_555
Co2 O3 1.969868 1_655
Co2 O4 1.978404 1_555
Co2 O7 1.980780 1_555
Co2 O0 1.981495 1_555
Co2 O11 1.993391 1_555
Co3 O8 1.969525 1_546
Co3 O2 1.969868 1_455
Co3 O5 1.978404 1_545
Co3 O6 1.980780 1_545
Co3 O1 1.981495 1_555
Co3 O10 1.993391 1_555
