# generated using pymatgen
data_Al4Ni3Pt
_symmetry_space_group_name_H-M   'P 1'
_cell_length_a   2.91769600
_cell_length_b   2.91769600
_cell_length_c   11.90718600
_cell_angle_alpha   90.00000000
_cell_angle_beta   90.00000000
_cell_angle_gamma   90.00000000
_symmetry_Int_Tables_number   1
_chemical_formula_structural   Al4Ni3Pt
_chemical_formula_sum   'Al4 Ni3 Pt1'
_cell_volume   101.36527844
_cell_formula_units_Z   1
loop_
 _symmetry_equiv_pos_site_id
 _symmetry_equiv_pos_as_xyz
  1  'x, y, z'
loop_
 _atom_site_type_symbol
 _atom_site_label
 _atom_site_symmetry_multiplicity
 _atom_site_fract_x
 _atom_site_fract_y
 _atom_site_fract_z
 _atom_site_occupancy
  Al  Al0  1  0.00000000  0.00000000  0.85752400  1
  Al  Al1  1  0.00000000  0.00000000  0.14247600  1
  Al  Al2  1  0.00000000  0.00000000  0.38097900  1
  Al  Al3  1  0.00000000  0.00000000  0.61902100  1
  Ni  Ni0  1  0.50000000  0.50000000  0.26272500  1
  Ni  Ni1  1  0.50000000  0.50000000  0.50000000  1
  Ni  Ni2  1  0.50000000  0.50000000  0.73727500  1
  Pt  Pt0  1  0.50000000  0.50000000  0.00000000  1
loop_
_geom_bond_atom_site_label_1
_geom_bond_atom_site_label_2
_geom_bond_distance
_geom_bond_site_symmetry_2
Al0 Ni2 2.511295 1_555
Al0 Ni2 2.511295 1_445
Al0 Ni2 2.511295 1_455
Al0 Ni2 2.511295 1_545
Al0 Pt0 2.671057 1_446
Al0 Pt0 2.671057 1_546
Al0 Pt0 2.671057 1_556
Al0 Pt0 2.671057 1_456
Al1 Ni0 2.511295 1_455
Al1 Ni0 2.511295 1_555
Al1 Ni0 2.511295 1_545
Al1 Ni0 2.511295 1_445
Al1 Pt0 2.671057 1_555
Al1 Pt0 2.671057 1_445
Al1 Pt0 2.671057 1_545
Al1 Pt0 2.671057 1_455
Al2 Ni0 2.497828 1_555
Al2 Ni0 2.497828 1_455
Al2 Ni0 2.497828 1_545
Al2 Ni0 2.497828 1_445
Al2 Ni1 2.502987 1_455
Al2 Ni1 2.502987 1_545
Al2 Ni1 2.502987 1_445
Al2 Ni1 2.502987 1_555
Al3 Ni2 2.497828 1_545
Al3 Ni2 2.497828 1_455
Al3 Ni2 2.497828 1_445
Al3 Ni2 2.497828 1_555
Al3 Ni1 2.502987 1_445
Al3 Ni1 2.502987 1_555
Al3 Ni1 2.502987 1_545
Al3 Ni1 2.502987 1_455
