# generated using pymatgen
data_Cu3Ni(CO5)2
_symmetry_space_group_name_H-M   'P 1'
_cell_length_a   8.95936400
_cell_length_b   3.03280200
_cell_length_c   12.35641585
_cell_angle_alpha   83.55921040
_cell_angle_beta   90.00000000
_cell_angle_gamma   90.00000000
_symmetry_Int_Tables_number   1
_chemical_formula_structural   Cu3Ni(CO5)2
_chemical_formula_sum   'Cu6 Ni2 C4 O20'
_cell_volume   333.62910958
_cell_formula_units_Z   2
loop_
 _symmetry_equiv_pos_site_id
 _symmetry_equiv_pos_as_xyz
  1  'x, y, z'
loop_
 _atom_site_type_symbol
 _atom_site_label
 _atom_site_symmetry_multiplicity
 _atom_site_fract_x
 _atom_site_fract_y
 _atom_site_fract_z
 _atom_site_occupancy
  Cu  Cu0  1  0.49826800  0.98397500  0.03339700  1
  Cu  Cu1  1  0.99826800  0.01602500  0.96660300  1
  Cu  Cu2  1  0.49882100  0.52083500  0.46495100  1
  Cu  Cu3  1  0.99882100  0.47916500  0.53504900  1
  Cu  Cu4  1  0.26803600  0.54783800  0.86748200  1
  Cu  Cu5  1  0.76803600  0.45216200  0.13251800  1
  Ni  Ni0  1  0.73318900  0.96240000  0.63082100  1
  Ni  Ni1  1  0.23318900  0.03760000  0.36917900  1
  C  C0  1  0.22475300  0.26630400  0.12183600  1
  C  C1  1  0.72475300  0.73369600  0.87816400  1
  C  C2  1  0.77502000  0.23913200  0.38281600  1
  C  C3  1  0.27502000  0.76086800  0.61718400  1
  O  O0  1  0.15271400  0.36534200  0.02818800  1
  O  O1  1  0.65271400  0.63465800  0.97181200  1
  O  O2  1  0.84313100  0.12767800  0.47803500  1
  O  O3  1  0.34313100  0.87232200  0.52196500  1
  O  O4  1  0.15701600  0.13737800  0.20783100  1
  O  O5  1  0.65701600  0.86262200  0.79216900  1
  O  O6  1  0.84793100  0.36193600  0.29891800  1
  O  O7  1  0.34793100  0.63806400  0.70108200  1
  O  O8  1  0.37001900  0.33118100  0.11677600  1
  O  O9  1  0.87001900  0.66881900  0.88322400  1
  O  O10  1  0.62947600  0.18894800  0.38297200  1
  O  O11  1  0.12947600  0.81105200  0.61702800  1
  O  O12  1  0.13544500  0.05339600  0.84693000  1
  O  O13  1  0.63544500  0.94660400  0.15307000  1
  O  O14  1  0.86897700  0.44998800  0.65489700  1
  O  O15  1  0.36897700  0.55001200  0.34510300  1
  O  O16  1  0.39181900  0.03567300  0.90319600  1
  O  O17  1  0.89181900  0.96432700  0.09680400  1
  O  O18  1  0.60538500  0.47517100  0.59341600  1
  O  O19  1  0.10538500  0.52482900  0.40658400  1
loop_
_geom_bond_atom_site_label_1
_geom_bond_atom_site_label_2
_geom_bond_distance
_geom_bond_site_symmetry_2
Cu0 O16 1.861682 1_564
Cu0 O13 1.916343 1_555
Cu0 O8 1.932339 1_565
Cu0 O1 1.948595 1_554
Cu0 O8 2.417372 1_555
Cu0 O1 2.459914 1_564
Cu1 O17 1.861682 1_546
Cu1 O12 1.916343 1_655
Cu1 O9 1.932339 1_545
Cu1 O0 1.948595 1_656
Cu1 O9 2.417372 1_555
Cu1 O0 2.459914 1_646
Cu2 O18 1.844216 1_555
Cu2 O15 1.877441 1_555
Cu2 O10 1.907422 1_555
Cu2 O3 1.935671 1_555
Cu2 O3 2.449385 1_545
Cu2 O10 2.457964 1_565
Cu3 O19 1.844216 1_655
Cu3 O14 1.877441 1_555
Cu3 O11 1.907422 1_655
Cu3 O2 1.935671 1_555
Cu3 O2 2.449385 1_565
Cu3 O11 2.457964 1_645
Cu4 O16 1.919271 1_555
Cu4 O12 1.933699 1_565
Cu4 O16 1.939093 1_565
Cu4 O12 1.951855 1_555
Cu4 O7 2.165320 1_555
Cu4 O0 2.251774 1_556
Cu5 O17 1.919271 1_555
Cu5 O13 1.933699 1_545
Cu5 O17 1.939093 1_545
Cu5 O13 1.951855 1_555
Cu5 O6 2.165320 1_555
Cu5 O1 2.251774 1_554
Ni0 O18 1.944717 1_565
Ni0 O14 1.963155 1_565
Ni0 O18 1.965064 1_555
Ni0 O14 1.969743 1_555
Ni0 O5 2.096841 1_555
Ni0 O2 2.138531 1_565
Ni1 O19 1.944717 1_545
Ni1 O15 1.963155 1_545
Ni1 O19 1.965064 1_555
Ni1 O15 1.969743 1_555
Ni1 O4 2.096841 1_555
Ni1 O3 2.138531 1_545
C0 O4 1.247828 1_555
C0 O8 1.316716 1_555
C0 O0 1.329593 1_555
C1 O5 1.247828 1_555
C1 O9 1.316716 1_555
C1 O1 1.329593 1_555
C2 O6 1.246398 1_555
C2 O10 1.312810 1_555
C2 O2 1.334811 1_555
C3 O7 1.246398 1_555
C3 O11 1.312810 1_555
C3 O3 1.334811 1_555
