# generated using pymatgen
data_GaP2C3N2O8F
_symmetry_space_group_name_H-M   'P 1'
_cell_length_a   9.52358851
_cell_length_b   9.52358851
_cell_length_c   7.32230800
_cell_angle_alpha   90.00000000
_cell_angle_beta   90.00000000
_cell_angle_gamma   112.93483557
_symmetry_Int_Tables_number   1
_chemical_formula_structural   GaP2C3N2O8F
_chemical_formula_sum   'Ga2 P4 C6 N4 O16 F2'
_cell_volume   611.62418955
_cell_formula_units_Z   2
loop_
 _symmetry_equiv_pos_site_id
 _symmetry_equiv_pos_as_xyz
  1  'x, y, z'
loop_
 _atom_site_type_symbol
 _atom_site_label
 _atom_site_symmetry_multiplicity
 _atom_site_fract_x
 _atom_site_fract_y
 _atom_site_fract_z
 _atom_site_occupancy
  Ga  Ga0  1  0.00000000  0.00000000  0.00000000  1
  Ga  Ga1  1  0.00000000  0.00000000  0.50000000  1
  P  P0  1  0.73029000  0.00009800  0.75000000  1
  P  P1  1  0.00009800  0.73029000  0.25000000  1
  P  P2  1  0.26971000  0.99990200  0.25000000  1
  P  P3  1  0.99990200  0.26971000  0.75000000  1
  C  C0  1  0.60032800  0.39967200  0.75000000  1
  C  C1  1  0.39967200  0.60032800  0.25000000  1
  C  C2  1  0.48655200  0.26632300  0.75000000  1
  C  C3  1  0.26632300  0.48655200  0.25000000  1
  C  C4  1  0.51344800  0.73367700  0.25000000  1
  C  C5  1  0.73367700  0.51344800  0.75000000  1
  N  N0  1  0.38385100  0.14293400  0.75000000  1
  N  N1  1  0.14293400  0.38385100  0.25000000  1
  N  N2  1  0.61614900  0.85706600  0.25000000  1
  N  N3  1  0.85706600  0.61614900  0.75000000  1
  O  O0  1  0.78560300  0.94367400  0.57771900  1
  O  O1  1  0.94367400  0.78560300  0.42228100  1
  O  O2  1  0.78560300  0.94367400  0.92228100  1
  O  O3  1  0.94367400  0.78560300  0.07771900  1
  O  O4  1  0.21439700  0.05632600  0.42228100  1
  O  O5  1  0.05632600  0.21439700  0.57771900  1
  O  O6  1  0.21439700  0.05632600  0.07771900  1
  O  O7  1  0.05632600  0.21439700  0.92228100  1
  O  O8  1  0.55952100  0.95516000  0.75000000  1
  O  O9  1  0.95516000  0.55952100  0.25000000  1
  O  O10  1  0.44047900  0.04484000  0.25000000  1
  O  O11  1  0.04484000  0.44047900  0.75000000  1
  O  O12  1  0.81414200  0.18585800  0.75000000  1
  O  O13  1  0.18585800  0.81414200  0.25000000  1
  O  O14  1  0.21844400  0.78155600  0.75000000  1
  O  O15  1  0.78155600  0.21844400  0.25000000  1
  F  F0  1  0.04768500  0.95231500  0.75000000  1
  F  F1  1  0.95231500  0.04768500  0.25000000  1
loop_
_geom_bond_atom_site_label_1
_geom_bond_atom_site_label_2
_geom_bond_distance
_geom_bond_site_symmetry_2
Ga0 O6 1.981676 1_555
Ga0 O7 1.981676 1_554
Ga0 O3 1.981676 1_445
Ga0 O2 1.981676 1_444
Ga1 O5 1.981676 1_555
Ga1 O4 1.981676 1_555
Ga1 O0 1.981676 1_445
Ga1 O1 1.981676 1_445
C0 C2 1.309361 1_555
C0 C5 1.309361 1_555
C1 C3 1.309361 1_555
C1 C4 1.309361 1_555
C2 N0 1.200730 1_555
C3 N1 1.200730 1_555
C4 N2 1.200730 1_555
C5 N3 1.200730 1_555
O0 P0 1.542152 1_565
O1 P1 1.542152 1_655
O2 P0 1.542152 1_565
O3 P1 1.542152 1_655
O4 P2 1.542152 1_545
O5 P3 1.542152 1_455
O6 P2 1.542152 1_545
O7 P3 1.542152 1_455
O8 P0 1.511841 1_565
O9 P1 1.511841 1_655
O10 P2 1.511841 1_545
O11 P3 1.511841 1_455
O12 P0 1.632906 1_555
O12 P3 1.632906 1_555
O13 P1 1.632906 1_555
O13 P2 1.632906 1_555
F0 Ga0 1.980964 1_566
F0 Ga1 1.980964 1_565
F1 Ga0 1.980964 1_655
F1 Ga1 1.980964 1_655
