# generated using pymatgen
data_LaCoSi2
_symmetry_space_group_name_H-M   'P 1'
_cell_length_a   8.54361158
_cell_length_b   8.54361158
_cell_length_c   4.08407977
_cell_angle_alpha   90.00000000
_cell_angle_beta   90.00000000
_cell_angle_gamma   151.32383374
_symmetry_Int_Tables_number   1
_chemical_formula_structural   LaCoSi2
_chemical_formula_sum   'La2 Co2 Si4'
_cell_volume   143.05086045
_cell_formula_units_Z   2
loop_
 _symmetry_equiv_pos_site_id
 _symmetry_equiv_pos_as_xyz
  1  'x, y, z'
loop_
 _atom_site_type_symbol
 _atom_site_label
 _atom_site_symmetry_multiplicity
 _atom_site_fract_x
 _atom_site_fract_y
 _atom_site_fract_z
 _atom_site_occupancy
  La  La0  1  0.60858004  0.39141996  0.25000000  1
  La  La1  1  0.39141996  0.60858004  0.75000000  1
  Co  Co0  1  0.81844467  0.18155533  0.25000000  1
  Co  Co1  1  0.18155533  0.81844467  0.75000000  1
  Si  Si0  1  0.95628885  0.04371115  0.25000000  1
  Si  Si1  1  0.04371115  0.95628885  0.75000000  1
  Si  Si2  1  0.24957054  0.75042946  0.25000000  1
  Si  Si3  1  0.75042946  0.24957054  0.75000000  1
loop_
_geom_bond_atom_site_label_1
_geom_bond_atom_site_label_2
_geom_bond_distance
_geom_bond_site_symmetry_2
La0 Si3 3.111994 1_554
La0 Si3 3.111994 1_555
La0 Si1 3.130441 1_654
La0 Si1 3.130441 1_655
La0 Si1 3.130441 1_544
La0 Si1 3.130441 1_545
La0 Si2 3.150312 1_545
La0 Si2 3.150312 1_655
La0 Si0 3.291322 1_455
La0 Si0 3.291322 1_565
La1 Si2 3.111994 1_555
La1 Si2 3.111994 1_556
La1 Si0 3.130441 1_455
La1 Si0 3.130441 1_566
La1 Si0 3.130441 1_456
La1 Si0 3.130441 1_565
La1 Si3 3.150312 1_455
La1 Si3 3.150312 1_565
La1 Si1 3.291322 1_545
La1 Si1 3.291322 1_655
Co0 Si0 2.282008 1_555
Co0 Si3 2.331905 1_554
Co0 Si3 2.331905 1_555
Co0 Si2 2.403444 1_655
Co0 Si2 2.403444 1_545
Co0 La1 3.178979 1_655
Co0 La1 3.178979 1_654
Co0 La1 3.178979 1_544
Co0 La1 3.178979 1_545
Co1 Si1 2.282008 1_555
Co1 Si2 2.331905 1_556
Co1 Si2 2.331905 1_555
Co1 Si3 2.403444 1_565
Co1 Si3 2.403444 1_455
Co1 La0 3.178979 1_565
Co1 La0 3.178979 1_566
Co1 La0 3.178979 1_455
Co1 La0 3.178979 1_456
Si0 Si1 2.502904 1_644
Si0 Si1 2.502904 1_645
