# generated using pymatgen
data_SrMg6Cd
_symmetry_space_group_name_H-M   'P 1'
_cell_length_a   5.24693300
_cell_length_b   6.68283500
_cell_length_c   11.87726500
_cell_angle_alpha   90.00000000
_cell_angle_beta   90.00000000
_cell_angle_gamma   90.00000000
_symmetry_Int_Tables_number   1
_chemical_formula_structural   SrMg6Cd
_chemical_formula_sum   'Sr2 Mg12 Cd2'
_cell_volume   416.46902234
_cell_formula_units_Z   2
loop_
 _symmetry_equiv_pos_site_id
 _symmetry_equiv_pos_as_xyz
  1  'x, y, z'
loop_
 _atom_site_type_symbol
 _atom_site_label
 _atom_site_symmetry_multiplicity
 _atom_site_fract_x
 _atom_site_fract_y
 _atom_site_fract_z
 _atom_site_occupancy
  Sr  Sr0  1  0.50000000  0.00000000  0.16873300  1
  Sr  Sr1  1  0.50000000  0.50000000  0.66873300  1
  Mg  Mg0  1  0.50000000  0.24369900  0.41892200  1
  Mg  Mg1  1  0.50000000  0.75630100  0.41892200  1
  Mg  Mg2  1  0.00000000  0.73643400  0.07933500  1
  Mg  Mg3  1  0.00000000  0.26356600  0.07933500  1
  Mg  Mg4  1  0.00000000  0.00000000  0.34188900  1
  Mg  Mg5  1  0.00000000  0.50000000  0.33225100  1
  Mg  Mg6  1  0.50000000  0.74369900  0.91892200  1
  Mg  Mg7  1  0.50000000  0.25630100  0.91892200  1
  Mg  Mg8  1  0.00000000  0.23643400  0.57933500  1
  Mg  Mg9  1  0.00000000  0.76356600  0.57933500  1
  Mg  Mg10  1  0.00000000  0.50000000  0.84188900  1
  Mg  Mg11  1  0.00000000  0.00000000  0.83225100  1
  Cd  Cd0  1  0.50000000  0.50000000  0.16061000  1
  Cd  Cd1  1  0.50000000  0.00000000  0.66061000  1
loop_
_geom_bond_atom_site_label_1
_geom_bond_atom_site_label_2
_geom_bond_distance
_geom_bond_site_symmetry_2
Mg0 Mg4 3.220564 1_655
Mg0 Mg4 3.220564 1_555
Mg0 Mg8 3.242681 1_555
Mg0 Mg8 3.242681 1_655
Mg0 Mg1 3.257200 1_545
Mg0 Mg5 3.297880 1_655
Mg0 Mg5 3.297880 1_555
Mg0 Sr0 3.388586 1_555
Mg0 Mg1 3.425635 1_555
Mg0 Sr1 3.425968 1_555
Mg1 Mg4 3.220564 1_665
Mg1 Mg4 3.220564 1_565
Mg1 Mg9 3.242681 1_555
Mg1 Mg9 3.242681 1_655
Mg1 Mg5 3.297880 1_655
Mg1 Mg5 3.297880 1_555
Mg1 Sr0 3.388586 1_565
Mg1 Sr1 3.425968 1_555
Mg2 Mg6 3.242681 1_554
Mg2 Mg6 3.242681 1_454
Mg2 Sr0 3.333530 1_565
Mg2 Sr0 3.333530 1_465
Mg2 Mg5 3.394153 1_555
Mg3 Mg7 3.242681 1_554
Mg3 Mg7 3.242681 1_454
Mg3 Sr0 3.333530 1_455
Mg3 Sr0 3.333530 1_555
Mg3 Mg5 3.394153 1_555
Mg4 Mg8 3.232667 1_555
Mg4 Mg9 3.232667 1_545
Mg4 Sr0 3.333506 1_555
Mg4 Sr0 3.333506 1_455
Mg4 Mg5 3.343378 1_545
Mg4 Mg5 3.343378 1_555
Mg5 Mg8 3.422686 1_555
Mg5 Mg9 3.422686 1_555
Mg6 Mg7 3.257200 1_555
Mg6 Sr1 3.388586 1_555
Mg6 Mg7 3.425635 1_565
Mg6 Sr0 3.425968 1_566
Mg7 Sr1 3.388586 1_555
Mg7 Sr0 3.425968 1_556
Mg8 Sr1 3.333530 1_555
Mg8 Sr1 3.333530 1_455
Mg9 Sr1 3.333530 1_555
Mg9 Sr1 3.333530 1_455
Mg10 Mg6 3.220564 1_455
Mg10 Mg6 3.220564 1_555
Mg10 Mg7 3.220564 1_455
Mg10 Mg7 3.220564 1_555
Mg10 Mg3 3.232667 1_556
Mg10 Mg2 3.232667 1_556
Mg10 Sr1 3.333506 1_455
Mg10 Sr1 3.333506 1_555
Mg10 Mg11 3.343378 1_555
Mg10 Mg11 3.343378 1_565
Mg11 Mg6 3.297880 1_445
Mg11 Mg6 3.297880 1_545
Mg11 Mg7 3.297880 1_555
Mg11 Mg7 3.297880 1_455
Mg11 Mg8 3.394153 1_555
Mg11 Mg9 3.394153 1_545
Mg11 Mg3 3.422686 1_556
Mg11 Mg2 3.422686 1_546
Cd0 Mg3 3.211072 1_555
Cd0 Mg3 3.211072 1_655
Cd0 Mg2 3.211072 1_655
Cd0 Mg2 3.211072 1_555
Cd0 Mg6 3.300400 1_554
Cd0 Mg7 3.300400 1_554
Cd0 Mg5 3.322434 1_555
Cd0 Mg5 3.322434 1_655
Cd0 Sr0 3.342810 1_565
Cd0 Sr0 3.342810 1_555
Cd0 Mg0 3.513775 1_555
Cd0 Mg1 3.513775 1_555
Cd1 Mg8 3.211072 1_555
Cd1 Mg8 3.211072 1_655
Cd1 Mg9 3.211072 1_645
Cd1 Mg9 3.211072 1_545
Cd1 Mg0 3.300400 1_555
Cd1 Mg1 3.300400 1_545
Cd1 Mg11 3.322434 1_655
Cd1 Mg11 3.322434 1_555
Cd1 Sr1 3.342810 1_555
Cd1 Sr1 3.342810 1_545
Cd1 Mg6 3.513775 1_545
Cd1 Mg7 3.513775 1_555
