# generated using pymatgen
data_Te2W(NO4)2
_symmetry_space_group_name_H-M   'P 1'
_cell_length_a   7.35246300
_cell_length_b   7.15203300
_cell_length_c   9.20491605
_cell_angle_alpha   80.60305219
_cell_angle_beta   90.00000000
_cell_angle_gamma   90.00000000
_symmetry_Int_Tables_number   1
_chemical_formula_structural   Te2W(NO4)2
_chemical_formula_sum   'Te4 W2 N4 O16'
_cell_volume   477.54563028
_cell_formula_units_Z   2
loop_
 _symmetry_equiv_pos_site_id
 _symmetry_equiv_pos_as_xyz
  1  'x, y, z'
loop_
 _atom_site_type_symbol
 _atom_site_label
 _atom_site_symmetry_multiplicity
 _atom_site_fract_x
 _atom_site_fract_y
 _atom_site_fract_z
 _atom_site_occupancy
  Te  Te0  1  0.23868500  0.94910200  0.99397200  1
  Te  Te1  1  0.73868500  0.05089800  0.00602800  1
  Te  Te2  1  0.53296300  0.93754700  0.64113300  1
  Te  Te3  1  0.03296300  0.06245300  0.35886700  1
  W  W0  1  0.43023600  0.15721700  0.25044600  1
  W  W1  1  0.93023600  0.84278300  0.74955400  1
  N  N0  1  0.96659800  0.53457200  0.21427100  1
  N  N1  1  0.46659800  0.46542800  0.78572900  1
  N  N2  1  0.51295100  0.59870300  0.40376200  1
  N  N3  1  0.01295100  0.40129700  0.59623800  1
  O  O0  1  0.22534300  0.26935200  0.34111700  1
  O  O1  1  0.72534300  0.73064800  0.65888300  1
  O  O2  1  0.57223300  0.34688300  0.17771100  1
  O  O3  1  0.07223300  0.65311700  0.82228900  1
  O  O4  1  0.56093500  0.07291800  0.42931000  1
  O  O5  1  0.06093500  0.92708200  0.57069000  1
  O  O6  1  0.27825900  0.18511200  0.05989800  1
  O  O7  1  0.77825900  0.81488800  0.94010200  1
  O  O8  1  0.73320400  0.08078300  0.69022900  1
  O  O9  1  0.23320400  0.91921700  0.30977100  1
  O  O10  1  0.05405700  0.04303800  0.84609700  1
  O  O11  1  0.55405700  0.95696200  0.15390300  1
  O  O12  1  0.43495200  0.99802700  0.85354000  1
  O  O13  1  0.93495200  0.00197300  0.14646000  1
  O  O14  1  0.40594500  0.40453800  0.68683400  1
  O  O15  1  0.90594500  0.59546200  0.31316600  1
loop_
_geom_bond_atom_site_label_1
_geom_bond_atom_site_label_2
_geom_bond_distance
_geom_bond_site_symmetry_2
N0 O15 1.160455 1_555
N1 O14 1.160455 1_555
O0 W0 1.956478 1_555
O0 Te3 2.034236 1_555
O1 W1 1.956478 1_555
O1 Te2 2.034236 1_555
O2 W0 1.755496 1_555
O3 W1 1.755496 1_455
O4 W0 1.916644 1_555
O4 Te2 2.040831 1_545
O5 W1 1.916644 1_455
O5 Te3 2.040831 1_565
O6 Te0 1.906984 1_544
O6 W0 2.061691 1_555
O7 Te1 1.906984 1_566
O7 W1 2.061691 1_555
O8 Te2 1.890088 1_545
O8 W1 2.233998 1_545
O9 Te3 1.890088 1_565
O9 W0 2.233998 1_565
O10 Te0 1.961700 1_545
O10 W1 2.021250 1_445
O11 Te1 1.961700 1_565
O11 W0 2.021250 1_565
O12 Te0 1.930829 1_555
O12 Te2 2.192107 1_555
O13 Te1 1.930829 1_555
O13 Te3 2.192107 1_655
