# generated using pymatgen
data_La2FeNiO6
_symmetry_space_group_name_H-M   'P 1'
_cell_length_a   5.54964203
_cell_length_b   5.57549417
_cell_length_c   7.86648220
_cell_angle_alpha   89.85638269
_cell_angle_beta   90.00915369
_cell_angle_gamma   89.99236204
_symmetry_Int_Tables_number   1
_chemical_formula_structural   La2FeNiO6
_chemical_formula_sum   'La4 Fe2 Ni2 O12'
_cell_volume   243.40389719
_cell_formula_units_Z   2
loop_
 _symmetry_equiv_pos_site_id
 _symmetry_equiv_pos_as_xyz
  1  'x, y, z'
loop_
 _atom_site_type_symbol
 _atom_site_label
 _atom_site_symmetry_multiplicity
 _atom_site_fract_x
 _atom_site_fract_y
 _atom_site_fract_z
 _atom_site_occupancy
  La  La0  1  0.47143000  0.50678800  0.74968000  1
  La  La1  1  0.97133700  0.99320800  0.75035800  1
  La  La2  1  0.52858400  0.49320500  0.25031600  1
  La  La3  1  0.02866300  0.00678300  0.24965000  1
  Fe  Fe0  1  0.49999300  0.00001900  0.50000600  1
  Fe  Fe1  1  0.00000900  0.50000400  0.00000000  1
  Ni  Ni0  1  0.49998400  0.00000600  0.99999200  1
  Ni  Ni1  1  0.99999400  0.50000000  0.50000000  1
  O  O0  1  0.51310300  0.07734400  0.74694900  1
  O  O1  1  0.01302400  0.42282900  0.75307700  1
  O  O2  1  0.48689700  0.92266000  0.25305200  1
  O  O3  1  0.98697800  0.57716600  0.24692200  1
  O  O4  1  0.27570100  0.28178100  0.04208800  1
  O  O5  1  0.77579400  0.21828100  0.45787200  1
  O  O6  1  0.71902800  0.72576600  0.54152000  1
  O  O7  1  0.21896000  0.77413500  0.95853600  1
  O  O8  1  0.72429700  0.71821900  0.95790600  1
  O  O9  1  0.22420700  0.78171300  0.54212900  1
  O  O10  1  0.28097700  0.27423100  0.45847700  1
  O  O11  1  0.78103900  0.22586000  0.04146900  1
loop_
_geom_bond_atom_site_label_1
_geom_bond_atom_site_label_2
_geom_bond_distance
_geom_bond_site_symmetry_2
La0 O0 2.405625 1_555
La0 O6 2.459924 1_555
La0 O8 2.459961 1_555
La0 O1 2.586890 1_555
La0 O9 2.623712 1_555
La0 O7 2.626171 1_555
La0 O4 2.833979 1_556
La0 O10 2.839075 1_555
La1 O1 2.406674 1_665
La1 O7 2.459884 1_655
La1 O9 2.460277 1_655
La1 O0 2.586000 1_565
La1 O8 2.623860 1_555
La1 O6 2.625839 1_555
La1 O5 2.833834 1_565
La1 O11 2.838557 1_566
La2 O2 2.405694 1_555
La2 O10 2.459946 1_555
La2 O4 2.460003 1_555
La2 O3 2.586827 1_555
La2 O5 2.623695 1_555
La2 O11 2.626076 1_555
La2 O8 2.833975 1_554
La2 O6 2.839073 1_555
La3 O3 2.406652 1_445
La3 O11 2.459913 1_455
La3 O5 2.460245 1_455
La3 O2 2.585986 1_545
La3 O4 2.623952 1_555
La3 O10 2.625819 1_555
La3 O9 2.833784 1_545
La3 O7 2.838563 1_544
Fe0 O10 1.979489 1_555
Fe0 O6 1.979711 1_545
Fe0 O5 1.982955 1_555
Fe0 O9 1.983027 1_545
Fe0 O0 1.992213 1_555
Fe0 O2 1.992336 1_545
Fe1 O7 1.979150 1_554
Fe1 O11 1.979277 1_455
Fe1 O4 1.981963 1_555
Fe1 O8 1.982029 1_454
Fe1 O3 1.991856 1_455
Fe1 O1 1.991876 1_554
Ni0 O7 2.031505 1_545
Ni0 O11 2.031605 1_556
Ni0 O4 2.032063 1_556
Ni0 O8 2.032204 1_545
Ni0 O0 2.036985 1_555
Ni0 O2 2.037118 1_546
Ni1 O6 2.030798 1_555
Ni1 O10 2.030885 1_655
Ni1 O5 2.031773 1_555
Ni1 O9 2.031793 1_655
Ni1 O3 2.037006 1_555
Ni1 O1 2.037007 1_655
