# generated using pymatgen
data_SrDyV4O12
_symmetry_space_group_name_H-M   'P 1'
_cell_length_a   5.48711896
_cell_length_b   5.48711896
_cell_length_c   7.38496626
_cell_angle_alpha   90.00000000
_cell_angle_beta   90.00000000
_cell_angle_gamma   85.72094039
_symmetry_Int_Tables_number   1
_chemical_formula_structural   SrDyV4O12
_chemical_formula_sum   'Sr1 Dy1 V4 O12'
_cell_volume   221.73026087
_cell_formula_units_Z   1
loop_
 _symmetry_equiv_pos_site_id
 _symmetry_equiv_pos_as_xyz
  1  'x, y, z'
loop_
 _atom_site_type_symbol
 _atom_site_label
 _atom_site_symmetry_multiplicity
 _atom_site_fract_x
 _atom_site_fract_y
 _atom_site_fract_z
 _atom_site_occupancy
  Sr  Sr0  1  0.00473660  0.00473660  0.50000000  1
  Dy  Dy0  1  0.53448082  0.53448082  -0.00000000  1
  V  V0  1  0.52398582  0.02449191  0.75155589  1
  V  V1  1  0.52398582  0.02449191  0.24844411  1
  V  V2  1  0.02449191  0.52398582  0.24844411  1
  V  V3  1  0.02449191  0.52398582  0.75155589  1
  O  O0  1  0.75841706  0.21137899  0.76110966  1
  O  O1  1  0.21137899  0.75841706  0.76110966  1
  O  O2  1  0.21137899  0.75841706  0.23889034  1
  O  O3  1  0.75841706  0.21137899  0.23889034  1
  O  O4  1  0.71468525  0.71468525  0.72951804  1
  O  O5  1  0.27678584  0.27678584  0.79195925  1
  O  O6  1  0.27678584  0.27678584  0.20804075  1
  O  O7  1  0.71468525  0.71468525  0.27048196  1
  O  O8  1  0.50874968  0.93944834  0.00000000  1
  O  O9  1  0.46812386  0.02427096  0.50000000  1
  O  O10  1  0.93944834  0.50874968  0.00000000  1
  O  O11  1  0.02427096  0.46812386  0.50000000  1
loop_
_geom_bond_atom_site_label_1
_geom_bond_atom_site_label_2
_geom_bond_distance
_geom_bond_site_symmetry_2
Dy0 O8 2.216047 1_555
Dy0 O10 2.216047 1_555
Dy0 O4 2.468071 1_554
Dy0 O7 2.468071 1_555
Dy0 O5 2.580237 1_554
Dy0 O6 2.580237 1_555
Dy0 O0 2.727697 1_554
Dy0 O3 2.727697 1_555
Dy0 O1 2.727697 1_554
Dy0 O2 2.727697 1_555
O0 V0 1.705322 1_555
O0 V3 2.335068 1_655
O0 Sr0 2.569443 1_655
O1 V3 1.705322 1_555
O1 V0 2.335068 1_565
O1 Sr0 2.569443 1_565
O2 V2 1.705322 1_555
O2 V1 2.335068 1_565
O2 Sr0 2.569443 1_565
O3 V1 1.705322 1_555
O3 V2 2.335068 1_655
O3 Sr0 2.569443 1_655
O4 V0 1.935404 1_565
O4 V3 1.935404 1_655
O4 Sr0 2.883922 1_665
O5 V0 1.888159 1_555
O5 V3 1.888159 1_555
O5 Sr0 3.072140 1_555
O6 V2 1.888159 1_555
O6 V1 1.888159 1_555
O6 Sr0 3.072140 1_555
O7 V1 1.935404 1_565
O7 V2 1.935404 1_655
O7 Sr0 2.883922 1_665
O8 V0 1.896544 1_564
O8 V1 1.896544 1_565
O9 V0 1.882865 1_555
O9 V1 1.882865 1_555
O9 Sr0 2.552897 1_555
O9 Sr0 2.938405 1_655
O10 V2 1.896544 1_655
O10 V3 1.896544 1_654
O11 V3 1.882865 1_555
O11 V2 1.882865 1_555
O11 Sr0 2.552897 1_555
O11 Sr0 2.938405 1_565
