# generated using pymatgen
data_KCeMg6O8
_symmetry_space_group_name_H-M   'P 1'
_cell_length_a   9.17559905
_cell_length_b   4.62895914
_cell_length_c   4.62895914
_cell_angle_alpha   90.00000000
_cell_angle_beta   90.00000000
_cell_angle_gamma   90.00000000
_symmetry_Int_Tables_number   1
_chemical_formula_structural   KCeMg6O8
_chemical_formula_sum   'K1 Ce1 Mg6 O8'
_cell_volume   196.60797146
_cell_formula_units_Z   1
loop_
 _symmetry_equiv_pos_site_id
 _symmetry_equiv_pos_as_xyz
  1  'x, y, z'
loop_
 _atom_site_type_symbol
 _atom_site_label
 _atom_site_symmetry_multiplicity
 _atom_site_fract_x
 _atom_site_fract_y
 _atom_site_fract_z
 _atom_site_occupancy
  K  K0  1  -0.00000000  0.00000000  -0.00000000  1
  Ce  Ce0  1  0.50000000  0.00000000  -0.00000000  1
  Mg  Mg0  1  -0.00000000  0.50000000  0.50000000  1
  Mg  Mg1  1  0.50000000  0.50000000  0.50000000  1
  Mg  Mg2  1  0.22549389  -0.00000000  0.50000000  1
  Mg  Mg3  1  0.77450611  0.00000000  0.50000000  1
  Mg  Mg4  1  0.22549389  0.50000000  -0.00000000  1
  Mg  Mg5  1  0.77450611  0.50000000  0.00000000  1
  O  O0  1  0.25980653  0.00000000  -0.00000000  1
  O  O1  1  0.74019347  -0.00000000  0.00000000  1
  O  O2  1  0.24719755  0.50000000  0.50000000  1
  O  O3  1  0.75280245  0.50000000  0.50000000  1
  O  O4  1  -0.00000000  0.00000000  0.50000000  1
  O  O5  1  0.50000000  0.00000000  0.50000000  1
  O  O6  1  -0.00000000  0.50000000  -0.00000000  1
  O  O7  1  0.50000000  0.50000000  -0.00000000  1
loop_
_geom_bond_atom_site_label_1
_geom_bond_atom_site_label_2
_geom_bond_distance
_geom_bond_site_symmetry_2
K0 O6 2.314480 1_555
K0 O4 2.314480 1_555
K0 O4 2.314480 1_554
K0 O6 2.314480 1_545
K0 O0 2.383881 1_555
K0 O1 2.383881 1_455
Ce0 O0 2.203919 1_555
Ce0 O1 2.203919 1_555
Ce0 O7 2.314480 1_555
Ce0 O5 2.314480 1_554
Ce0 O5 2.314480 1_555
Ce0 O7 2.314480 1_545
Mg0 O3 2.268186 1_455
Mg0 O2 2.268186 1_555
Mg0 O6 2.314480 1_556
Mg0 O6 2.314480 1_555
Mg0 O4 2.314480 1_555
Mg0 O4 2.314480 1_565
Mg1 O5 2.314480 1_565
Mg1 O7 2.314480 1_555
Mg1 O7 2.314480 1_556
Mg1 O5 2.314480 1_555
Mg1 O2 2.319614 1_555
Mg1 O3 2.319614 1_555
Mg2 O4 2.069042 1_555
Mg2 O2 2.323031 1_555
Mg2 O2 2.323031 1_545
Mg2 O0 2.335795 1_555
Mg2 O0 2.335795 1_556
Mg2 O5 2.518758 1_555
Mg3 O4 2.069042 1_655
Mg3 O3 2.323031 1_555
Mg3 O3 2.323031 1_545
Mg3 O1 2.335795 1_555
Mg3 O1 2.335795 1_556
Mg3 O5 2.518758 1_555
Mg4 O6 2.069042 1_555
Mg4 O2 2.323031 1_555
Mg4 O2 2.323031 1_554
Mg4 O0 2.335795 1_555
Mg4 O0 2.335795 1_565
Mg4 O7 2.518758 1_555
Mg5 O6 2.069042 1_655
Mg5 O3 2.323031 1_555
Mg5 O3 2.323031 1_554
Mg5 O1 2.335795 1_555
Mg5 O1 2.335795 1_565
Mg5 O7 2.518758 1_555
