# generated using pymatgen
data_CaMg
_symmetry_space_group_name_H-M   'P 1'
_cell_length_a   13.73333437
_cell_length_b   13.73333437
_cell_length_c   16.55668186
_cell_angle_alpha   74.77051089
_cell_angle_beta   74.77051089
_cell_angle_gamma   30.74391245
_symmetry_Int_Tables_number   1
_chemical_formula_structural   CaMg
_chemical_formula_sum   'Ca24 Mg24'
_cell_volume   1535.93108333
_cell_formula_units_Z   24
loop_
 _symmetry_equiv_pos_site_id
 _symmetry_equiv_pos_as_xyz
  1  'x, y, z'
loop_
 _atom_site_type_symbol
 _atom_site_label
 _atom_site_symmetry_multiplicity
 _atom_site_fract_x
 _atom_site_fract_y
 _atom_site_fract_z
 _atom_site_occupancy
  Ca  Ca0_0  1  0.48996350  0.48996350  0.00321950  1
  Ca  Ca0_1  1  0.48996350  0.48996350  0.50321950  1
  Ca  Ca0_2  1  0.48996350  0.98996350  0.00321950  1
  Ca  Ca0_3  1  0.48996350  0.98996350  0.50321950  1
  Ca  Ca0_4  1  0.98996350  0.48996350  0.00321950  1
  Ca  Ca0_5  1  0.98996350  0.48996350  0.50321950  1
  Ca  Ca0_6  1  0.98996350  0.98996350  0.00321950  1
  Ca  Ca0_7  1  0.98996350  0.98996350  0.50321950  1
  Ca  Ca1_0  1  0.31110900  0.31110900  0.13693700  1
  Ca  Ca1_1  1  0.31110900  0.31110900  0.63693700  1
  Ca  Ca1_2  1  0.31110900  0.81110900  0.13693700  1
  Ca  Ca1_3  1  0.31110900  0.81110900  0.63693700  1
  Ca  Ca1_4  1  0.81110900  0.31110900  0.13693700  1
  Ca  Ca1_5  1  0.81110900  0.31110900  0.63693700  1
  Ca  Ca1_6  1  0.81110900  0.81110900  0.13693700  1
  Ca  Ca1_7  1  0.81110900  0.81110900  0.63693700  1
  Ca  Ca2_0  1  0.33698800  0.33698800  0.33355550  1
  Ca  Ca2_1  1  0.33698800  0.33698800  0.83355550  1
  Ca  Ca2_2  1  0.33698800  0.83698800  0.33355550  1
  Ca  Ca2_3  1  0.33698800  0.83698800  0.83355550  1
  Ca  Ca2_4  1  0.83698800  0.33698800  0.33355550  1
  Ca  Ca2_5  1  0.83698800  0.33698800  0.83355550  1
  Ca  Ca2_6  1  0.83698800  0.83698800  0.33355550  1
  Ca  Ca2_7  1  0.83698800  0.83698800  0.83355550  1
  Mg  Mg0_0  1  0.16947400  0.16947400  0.17079250  1
  Mg  Mg0_1  1  0.16947400  0.16947400  0.67079250  1
  Mg  Mg0_2  1  0.16947400  0.66947400  0.17079250  1
  Mg  Mg0_3  1  0.16947400  0.66947400  0.67079250  1
  Mg  Mg0_4  1  0.66947400  0.16947400  0.17079250  1
  Mg  Mg0_5  1  0.66947400  0.16947400  0.67079250  1
  Mg  Mg0_6  1  0.66947400  0.66947400  0.17079250  1
  Mg  Mg0_7  1  0.66947400  0.66947400  0.67079250  1
  Mg  Mg1_0  1  0.47127550  0.47127550  0.30395250  1
  Mg  Mg1_1  1  0.47127550  0.47127550  0.80395250  1
  Mg  Mg1_2  1  0.47127550  0.97127550  0.30395250  1
  Mg  Mg1_3  1  0.47127550  0.97127550  0.80395250  1
  Mg  Mg1_4  1  0.97127550  0.47127550  0.30395250  1
  Mg  Mg1_5  1  0.97127550  0.47127550  0.80395250  1
  Mg  Mg1_6  1  0.97127550  0.97127550  0.30395250  1
  Mg  Mg1_7  1  0.97127550  0.97127550  0.80395250  1
  Mg  Mg2_0  1  0.13785700  0.13785700  0.46821000  1
  Mg  Mg2_1  1  0.13785700  0.13785700  0.96821000  1
  Mg  Mg2_2  1  0.13785700  0.63785700  0.46821000  1
  Mg  Mg2_3  1  0.13785700  0.63785700  0.96821000  1
  Mg  Mg2_4  1  0.63785700  0.13785700  0.46821000  1
  Mg  Mg2_5  1  0.63785700  0.13785700  0.96821000  1
  Mg  Mg2_6  1  0.63785700  0.63785700  0.46821000  1
  Mg  Mg2_7  1  0.63785700  0.63785700  0.96821000  1
loop_
_geom_bond_atom_site_label_1
_geom_bond_atom_site_label_2
_geom_bond_distance
_geom_bond_site_symmetry_2
Ca0_0 Mg0_4 3.416707 1_555
Ca0_0 Mg0_2 3.416707 1_555
Ca0_0 Mg2_5 3.437440 1_554
Ca0_0 Mg2_3 3.437440 1_554
Ca0_0 Mg1_1 3.466898 1_554
Ca0_0 Ca0_6 3.640490 1_545
Ca0_0 Ca0_6 3.640490 1_455
Ca0_0 Ca2_3 3.724795 1_554
Ca0_0 Ca2_5 3.724795 1_554
Ca0_0 Ca1_2 3.746722 1_555
Ca0_0 Ca1_4 3.746722 1_555
Ca0_0 Mg2_7 3.800056 1_554
Ca0_1 Mg0_5 3.416707 1_555
Ca0_1 Mg0_3 3.416707 1_555
Ca0_1 Mg2_4 3.437440 1_555
Ca0_1 Mg2_2 3.437440 1_555
Ca0_1 Mg1_0 3.466898 1_555
Ca0_1 Ca0_7 3.640490 1_545
Ca0_1 Ca0_7 3.640490 1_455
Ca0_1 Ca2_2 3.724795 1_555
Ca0_1 Ca2_4 3.724795 1_555
Ca0_1 Ca1_3 3.746722 1_555
Ca0_1 Ca1_5 3.746722 1_555
Ca0_1 Mg2_6 3.800056 1_555
Ca0_2 Mg0_0 3.416707 1_565
Ca0_2 Mg0_6 3.416707 1_555
Ca0_2 Mg2_7 3.437440 1_554
Ca0_2 Mg2_1 3.437440 1_564
Ca0_2 Mg1_3 3.466898 1_554
Ca0_2 Ca0_4 3.640490 1_465
Ca0_2 Ca0_4 3.640490 1_555
Ca0_2 Ca2_7 3.724795 1_554
Ca0_2 Ca2_1 3.724795 1_564
Ca0_2 Ca1_6 3.746722 1_555
Ca0_2 Ca1_0 3.746722 1_565
Ca0_2 Mg2_5 3.800056 1_564
Ca0_3 Mg0_1 3.416707 1_565
Ca0_3 Mg0_7 3.416707 1_555
Ca0_3 Mg2_0 3.437440 1_565
Ca0_3 Mg2_6 3.437440 1_555
Ca0_3 Mg1_2 3.466898 1_555
Ca0_3 Ca0_5 3.640490 1_465
Ca0_3 Ca0_5 3.640490 1_555
Ca0_3 Ca2_6 3.724795 1_555
Ca0_3 Ca2_0 3.724795 1_565
Ca0_3 Ca1_7 3.746722 1_555
Ca0_3 Ca1_1 3.746722 1_565
Ca0_3 Mg2_4 3.800056 1_565
Ca0_4 Mg0_0 3.416707 1_655
Ca0_4 Mg0_6 3.416707 1_555
Ca0_4 Mg2_7 3.437440 1_554
Ca0_4 Mg2_1 3.437440 1_654
Ca0_4 Mg1_5 3.466898 1_554
Ca0_4 Ca2_7 3.724795 1_554
Ca0_4 Ca2_1 3.724795 1_654
Ca0_4 Ca1_6 3.746722 1_555
Ca0_4 Ca1_0 3.746722 1_655
Ca0_4 Mg2_3 3.800056 1_654
Ca0_5 Mg0_1 3.416707 1_655
Ca0_5 Mg0_7 3.416707 1_555
Ca0_5 Mg2_6 3.437440 1_555
Ca0_5 Mg2_0 3.437440 1_655
Ca0_5 Mg1_4 3.466898 1_555
Ca0_5 Ca2_6 3.724795 1_555
Ca0_5 Ca2_0 3.724795 1_655
Ca0_5 Ca1_7 3.746722 1_555
Ca0_5 Ca1_1 3.746722 1_655
Ca0_5 Mg2_2 3.800056 1_655
Ca0_6 Mg0_4 3.416707 1_565
Ca0_6 Mg0_2 3.416707 1_655
Ca0_6 Mg2_5 3.437440 1_564
Ca0_6 Mg2_3 3.437440 1_654
Ca0_6 Mg1_7 3.466898 1_554
Ca0_6 Ca2_3 3.724795 1_654
Ca0_6 Ca2_5 3.724795 1_564
Ca0_6 Ca1_2 3.746722 1_655
Ca0_6 Ca1_4 3.746722 1_565
Ca0_6 Mg2_1 3.800056 1_664
Ca0_7 Mg0_5 3.416707 1_565
Ca0_7 Mg0_3 3.416707 1_655
Ca0_7 Mg2_4 3.437440 1_565
Ca0_7 Mg2_2 3.437440 1_655
Ca0_7 Mg1_6 3.466898 1_555
Ca0_7 Ca2_2 3.724795 1_655
Ca0_7 Ca2_4 3.724795 1_565
Ca0_7 Ca1_3 3.746722 1_655
Ca0_7 Ca1_5 3.746722 1_565
Ca0_7 Mg2_0 3.800056 1_665
Ca1_0 Mg2_3 3.486385 1_554
Ca1_0 Mg2_5 3.486385 1_554
Ca1_0 Ca2_0 3.504672 1_555
Ca1_0 Mg0_2 3.569398 1_555
Ca1_0 Mg0_4 3.569398 1_555
Ca1_0 Mg1_4 3.610474 1_455
Ca1_0 Mg1_2 3.610474 1_545
Ca1_0 Mg0_0 3.638556 1_555
Ca1_0 Ca1_6 3.640490 1_545
Ca1_0 Ca1_6 3.640490 1_455
Ca1_1 Mg2_2 3.486385 1_555
Ca1_1 Mg2_4 3.486385 1_555
Ca1_1 Ca2_1 3.504672 1_555
Ca1_1 Mg0_3 3.569398 1_555
Ca1_1 Mg0_5 3.569398 1_555
Ca1_1 Mg1_5 3.610474 1_455
Ca1_1 Mg1_3 3.610474 1_545
Ca1_1 Mg0_1 3.638556 1_555
Ca1_1 Ca1_7 3.640490 1_545
Ca1_1 Ca1_7 3.640490 1_455
Ca1_2 Mg2_1 3.486385 1_564
Ca1_2 Mg2_7 3.486385 1_554
Ca1_2 Ca2_2 3.504672 1_555
Ca1_2 Mg0_6 3.569398 1_555
Ca1_2 Mg0_0 3.569398 1_565
Ca1_2 Mg1_0 3.610474 1_555
Ca1_2 Mg1_6 3.610474 1_455
Ca1_2 Mg0_2 3.638556 1_555
Ca1_2 Ca1_4 3.640490 1_465
Ca1_2 Ca1_4 3.640490 1_555
Ca1_3 Mg2_6 3.486385 1_555
Ca1_3 Mg2_0 3.486385 1_565
Ca1_3 Ca2_3 3.504672 1_555
Ca1_3 Mg0_7 3.569398 1_555
Ca1_3 Mg0_1 3.569398 1_565
Ca1_3 Mg1_1 3.610474 1_555
Ca1_3 Mg1_7 3.610474 1_455
Ca1_3 Mg0_3 3.638556 1_555
Ca1_3 Ca1_5 3.640490 1_465
Ca1_3 Ca1_5 3.640490 1_555
Ca1_4 Mg2_7 3.486385 1_554
Ca1_4 Mg2_1 3.486385 1_654
Ca1_4 Ca2_4 3.504672 1_555
Ca1_4 Mg0_6 3.569398 1_555
Ca1_4 Mg0_0 3.569398 1_655
Ca1_4 Mg1_0 3.610474 1_555
Ca1_4 Mg1_6 3.610474 1_545
Ca1_4 Mg0_4 3.638556 1_555
Ca1_5 Mg2_6 3.486385 1_555
Ca1_5 Mg2_0 3.486385 1_655
Ca1_5 Ca2_5 3.504672 1_555
Ca1_5 Mg0_7 3.569398 1_555
Ca1_5 Mg0_1 3.569398 1_655
Ca1_5 Mg1_1 3.610474 1_555
Ca1_5 Mg1_7 3.610474 1_545
Ca1_5 Mg0_5 3.638556 1_555
Ca1_6 Mg2_5 3.486385 1_564
Ca1_6 Mg2_3 3.486385 1_654
Ca1_6 Ca2_6 3.504672 1_555
Ca1_6 Mg0_2 3.569398 1_655
Ca1_6 Mg0_4 3.569398 1_565
Ca1_6 Mg1_4 3.610474 1_555
Ca1_6 Mg1_2 3.610474 1_555
Ca1_6 Mg0_6 3.638556 1_555
Ca1_7 Mg2_2 3.486385 1_655
Ca1_7 Mg2_4 3.486385 1_565
Ca1_7 Ca2_7 3.504672 1_555
Ca1_7 Mg0_3 3.569398 1_655
Ca1_7 Mg0_5 3.569398 1_565
Ca1_7 Mg1_5 3.610474 1_555
Ca1_7 Mg1_3 3.610474 1_555
Ca1_7 Mg0_7 3.638556 1_555
Ca2_0 Mg2_2 3.425663 1_555
Ca2_0 Mg2_4 3.425663 1_555
Ca2_0 Mg1_0 3.455285 1_555
Ca2_0 Mg0_2 3.484254 1_555
Ca2_0 Mg0_4 3.484254 1_555
Ca2_0 Ca2_6 3.640490 1_545
Ca2_0 Ca2_6 3.640490 1_455
Ca2_0 Mg1_4 3.709891 1_455
Ca2_0 Mg1_2 3.709891 1_545
Ca2_1 Mg2_3 3.425663 1_555
Ca2_1 Mg2_5 3.425663 1_555
Ca2_1 Mg1_1 3.455285 1_555
Ca2_1 Mg0_3 3.484254 1_555
Ca2_1 Mg0_5 3.484254 1_555
Ca2_1 Ca2_7 3.640490 1_545
Ca2_1 Ca2_7 3.640490 1_455
Ca2_1 Mg1_5 3.709891 1_455
Ca2_1 Mg1_3 3.709891 1_545
Ca2_2 Mg2_6 3.425663 1_555
Ca2_2 Mg2_0 3.425663 1_565
Ca2_2 Mg1_2 3.455285 1_555
Ca2_2 Mg0_6 3.484254 1_555
Ca2_2 Mg0_0 3.484254 1_565
Ca2_2 Ca2_4 3.640490 1_555
Ca2_2 Ca2_4 3.640490 1_465
Ca2_2 Mg1_0 3.709891 1_555
Ca2_2 Mg1_6 3.709891 1_455
Ca2_3 Mg2_1 3.425663 1_565
Ca2_3 Mg2_7 3.425663 1_555
Ca2_3 Mg1_3 3.455285 1_555
Ca2_3 Mg0_7 3.484254 1_555
Ca2_3 Mg0_1 3.484254 1_565
Ca2_3 Ca2_5 3.640490 1_465
Ca2_3 Ca2_5 3.640490 1_555
Ca2_3 Mg1_1 3.709891 1_555
Ca2_3 Mg1_7 3.709891 1_455
Ca2_4 Mg2_6 3.425663 1_555
Ca2_4 Mg2_0 3.425663 1_655
Ca2_4 Mg1_4 3.455285 1_555
Ca2_4 Mg0_6 3.484254 1_555
Ca2_4 Mg0_0 3.484254 1_655
Ca2_4 Mg1_0 3.709891 1_555
Ca2_4 Mg1_6 3.709891 1_545
Ca2_5 Mg2_1 3.425663 1_655
Ca2_5 Mg2_7 3.425663 1_555
Ca2_5 Mg1_5 3.455285 1_555
Ca2_5 Mg0_7 3.484254 1_555
Ca2_5 Mg0_1 3.484254 1_655
Ca2_5 Mg1_1 3.709891 1_555
Ca2_5 Mg1_7 3.709891 1_545
Ca2_6 Mg2_2 3.425663 1_655
Ca2_6 Mg2_4 3.425663 1_565
Ca2_6 Mg1_6 3.455285 1_555
Ca2_6 Mg0_2 3.484254 1_655
Ca2_6 Mg0_4 3.484254 1_565
Ca2_6 Mg1_4 3.709891 1_555
Ca2_6 Mg1_2 3.709891 1_555
Ca2_7 Mg2_5 3.425663 1_565
Ca2_7 Mg2_3 3.425663 1_655
Ca2_7 Mg1_7 3.455285 1_555
Ca2_7 Mg0_3 3.484254 1_655
Ca2_7 Mg0_5 3.484254 1_565
Ca2_7 Mg1_5 3.709891 1_555
Ca2_7 Mg1_3 3.709891 1_555
Mg0_0 Mg1_2 3.421126 1_545
Mg0_0 Mg1_4 3.421126 1_455
Mg0_1 Mg1_3 3.421126 1_545
Mg0_1 Mg1_5 3.421126 1_455
Mg0_2 Mg1_0 3.421126 1_555
Mg0_2 Mg1_6 3.421126 1_455
Mg0_3 Mg1_7 3.421126 1_455
Mg0_3 Mg1_1 3.421126 1_555
Mg0_4 Mg1_6 3.421126 1_545
Mg0_4 Mg1_0 3.421126 1_555
Mg0_5 Mg1_7 3.421126 1_545
Mg0_5 Mg1_1 3.421126 1_555
Mg0_6 Mg1_2 3.421126 1_555
Mg0_6 Mg1_4 3.421126 1_555
Mg0_7 Mg1_3 3.421126 1_555
Mg0_7 Mg1_5 3.421126 1_555
