# generated using pymatgen
data_BaV2P2(H4O7)2
_symmetry_space_group_name_H-M   'P 1'
_cell_length_a   7.09317480
_cell_length_b   14.01346200
_cell_length_c   9.69162410
_cell_angle_alpha   90.00000000
_cell_angle_beta   137.22860649
_cell_angle_gamma   90.00000000
_symmetry_Int_Tables_number   1
_chemical_formula_structural   BaV2P2(H4O7)2
_chemical_formula_sum   'Ba2 V4 P4 H16 O28'
_cell_volume   654.18462497
_cell_formula_units_Z   2
loop_
 _symmetry_equiv_pos_site_id
 _symmetry_equiv_pos_as_xyz
  1  'x, y, z'
loop_
 _atom_site_type_symbol
 _atom_site_label
 _atom_site_symmetry_multiplicity
 _atom_site_fract_x
 _atom_site_fract_y
 _atom_site_fract_z
 _atom_site_occupancy
  Ba  Ba0  1  0.42161800  0.71322300  0.42510700  1
  Ba  Ba1  1  0.42161800  0.28677700  0.92510700  1
  V  V0  1  0.01522700  0.55529300  0.62672700  1
  V  V1  1  0.01522700  0.44470700  0.12672700  1
  V  V2  1  0.54931500  0.99911400  0.82260700  1
  V  V3  1  0.54931500  0.00088600  0.32260700  1
  P  P0  1  0.49421200  0.50821900  0.64634700  1
  P  P1  1  0.49421200  0.49178100  0.14634700  1
  P  P2  1  0.99964700  0.96378200  0.32842600  1
  P  P3  1  0.99964700  0.03621800  0.82842600  1
  H  H0  1  0.80094100  0.70845400  0.40237600  1
  H  H1  1  0.80094100  0.29154600  0.90237600  1
  H  H2  1  0.85471900  0.81260600  0.31411300  1
  H  H3  1  0.85471900  0.18739400  0.81411300  1
  H  H4  1  0.60288200  0.69616400  0.15876900  1
  H  H5  1  0.60288200  0.30383600  0.65876900  1
  H  H6  1  0.54632400  0.70080200  0.85977200  1
  H  H7  1  0.54632400  0.29919800  0.35977200  1
  H  H8  1  0.83387800  0.64972000  0.00017600  1
  H  H9  1  0.83387800  0.35028000  0.50017600  1
  H  H10  1  0.17254700  0.60070200  0.96127600  1
  H  H11  1  0.17254700  0.39929800  0.46127600  1
  H  H12  1  0.20040600  0.85498300  0.70175200  1
  H  H13  1  0.20040600  0.14501700  0.20175200  1
  H  H14  1  0.32631200  0.91534100  0.90109600  1
  H  H15  1  0.32631200  0.08465900  0.40109600  1
  O  O0  1  0.96408300  0.68117700  0.61987900  1
  O  O1  1  0.96408300  0.31882300  0.11987900  1
  O  O2  1  0.67629800  0.55351900  0.63523500  1
  O  O3  1  0.67629800  0.44648100  0.13523500  1
  O  O4  1  0.65461300  0.55033000  0.33782200  1
  O  O5  1  0.65461300  0.44967000  0.83782200  1
  O  O6  1  0.30854700  0.57594800  0.96698400  1
  O  O7  1  0.30854700  0.42405200  0.46698400  1
  O  O8  1  0.28308700  0.57723600  0.59938000  1
  O  O9  1  0.28308700  0.42276400  0.09938000  1
  O  O10  1  0.08568800  0.43135800  0.67378700  1
  O  O11  1  0.08568800  0.56864200  0.17378700  1
  O  O12  1  0.29136700  0.00718900  0.50554500  1
  O  O13  1  0.29136700  0.99281100  0.00554500  1
  O  O14  1  0.80345600  0.97949800  0.81647100  1
  O  O15  1  0.80345600  0.02050200  0.31647100  1
  O  O16  1  0.89283500  0.96881700  0.12323000  1
  O  O17  1  0.89283500  0.03118300  0.62323000  1
  O  O18  1  0.36456600  0.88796600  0.82591400  1
  O  O19  1  0.36456600  0.11203400  0.32591400  1
  O  O20  1  0.66767300  0.74278200  0.26105100  1
  O  O21  1  0.66767300  0.25721800  0.76105100  1
  O  O22  1  0.73542500  0.71171800  0.92996700  1
  O  O23  1  0.73542500  0.28828200  0.42996700  1
  O  O24  1  0.03504300  0.85624500  0.39532000  1
  O  O25  1  0.03504300  0.14375500  0.89532000  1
  O  O26  1  0.48269000  0.10583400  0.84686800  1
  O  O27  1  0.48269000  0.89416600  0.34686800  1
loop_
_geom_bond_atom_site_label_1
_geom_bond_atom_site_label_2
_geom_bond_distance
_geom_bond_site_symmetry_2
Ba0 O2 2.649193 1_555
Ba0 O11 2.682280 1_555
Ba0 O27 2.770257 1_555
Ba1 O3 2.649193 1_556
Ba1 O10 2.682280 1_555
Ba1 O26 2.770257 1_555
H0 O20 1.048871 1_555
H0 O0 1.532136 1_555
H1 O21 1.048871 1_555
H1 O1 1.532136 1_556
H2 O24 1.073072 1_655
H2 O20 1.407283 1_555
H3 O25 1.073072 1_655
H3 O21 1.407283 1_555
H4 O20 0.975593 1_555
H5 O21 0.975593 1_555
H6 O22 0.972461 1_555
H7 O23 0.972461 1_555
H8 O22 1.003930 1_554
H8 O11 1.702951 1_655
H9 O23 1.003930 1_555
H9 O10 1.702951 1_655
H10 O6 0.987743 1_555
H11 O7 0.987743 1_555
H12 O18 0.979991 1_555
H13 O19 0.979991 1_555
H14 O18 1.020767 1_555
H14 O13 1.622685 1_556
H15 O19 1.020767 1_555
H15 O12 1.622685 1_555
O0 V0 1.792375 1_655
O1 V1 1.792375 1_655
O2 P0 1.512262 1_555
O2 V0 2.465373 1_655
O3 P1 1.512262 1_555
O3 V1 2.465373 1_655
O4 P1 1.520384 1_555
O4 V0 1.967900 1_655
O5 P0 1.520384 1_555
O5 V1 1.967900 1_656
O6 P1 1.669217 1_556
O6 V0 2.283449 1_555
O7 P0 1.669217 1_555
O7 V1 2.283449 1_555
O8 P0 1.544175 1_555
O8 V0 2.124621 1_555
O9 P1 1.544175 1_555
O9 V1 2.124621 1_555
O10 V0 1.771857 1_555
O11 V1 1.771857 1_555
O12 P2 1.543867 1_445
O12 V2 2.132739 1_545
O13 P3 1.543867 1_464
O13 V3 2.132739 1_565
O14 P3 1.531365 1_565
O14 V2 1.867108 1_555
O15 P2 1.531365 1_545
O15 V3 1.867108 1_555
O16 P2 1.523748 1_555
O16 V2 2.045356 1_554
O17 P3 1.523748 1_555
O17 V3 2.045356 1_555
O18 V2 2.050855 1_555
O19 V3 2.050855 1_555
O24 P2 1.585976 1_455
O25 P3 1.585976 1_455
O26 V2 1.636559 1_545
O27 V3 1.636559 1_565
