# generated using pymatgen
data_Ho3(SbPd2)4
_symmetry_space_group_name_H-M   'P 1'
_cell_length_a   9.30467847
_cell_length_b   9.30467485
_cell_length_c   9.30467848
_cell_angle_alpha   60.00023608
_cell_angle_beta   59.99995540
_cell_angle_gamma   60.00007670
_symmetry_Int_Tables_number   1
_chemical_formula_structural   Ho3(SbPd2)4
_chemical_formula_sum   'Ho6 Sb8 Pd16'
_cell_volume   569.62602740
_cell_formula_units_Z   2
loop_
 _symmetry_equiv_pos_site_id
 _symmetry_equiv_pos_as_xyz
  1  'x, y, z'
loop_
 _atom_site_type_symbol
 _atom_site_label
 _atom_site_symmetry_multiplicity
 _atom_site_fract_x
 _atom_site_fract_y
 _atom_site_fract_z
 _atom_site_occupancy
  Ho  Ho0  1  0.72611609  0.27388481  0.27388270  1
  Ho  Ho1  1  0.27388463  0.72611663  0.72611481  1
  Ho  Ho2  1  0.27388156  0.72611920  0.27388010  1
  Ho  Ho3  1  0.72611721  0.27388367  0.72611575  1
  Ho  Ho4  1  0.27388478  0.27388741  0.72611359  1
  Ho  Ho5  1  0.72611482  0.72611562  0.27388423  1
  Sb  Sb0  1  -0.00000014  0.00000006  0.00000100  1
  Sb  Sb1  1  0.50000094  0.00000103  -0.00000108  1
  Sb  Sb2  1  -0.00000023  0.49999970  0.50000172  1
  Sb  Sb3  1  0.00000015  0.50000127  -0.00000018  1
  Sb  Sb4  1  0.49999922  0.00000077  0.49999918  1
  Sb  Sb5  1  -0.00000158  0.00000042  0.49999984  1
  Sb  Sb6  1  0.49999956  0.49999993  0.00000043  1
  Sb  Sb7  1  0.49999945  0.50000135  0.49999711  1
  Pd  Pd0  1  0.11870376  0.11870624  0.11870281  1
  Pd  Pd1  1  0.88129872  0.88129439  0.88129398  1
  Pd  Pd2  1  0.11870413  0.11870511  0.64388680  1
  Pd  Pd3  1  0.11870365  0.64388570  0.11870719  1
  Pd  Pd4  1  0.88129081  0.88129302  0.35611615  1
  Pd  Pd5  1  0.88129614  0.35611551  0.88129419  1
  Pd  Pd6  1  0.64388585  0.11870478  0.11870472  1
  Pd  Pd7  1  0.35611455  0.88129676  0.88129249  1
  Pd  Pd8  1  0.33305030  0.33305051  0.33305153  1
  Pd  Pd9  1  0.66694775  0.66694928  0.66694895  1
  Pd  Pd10  1  0.33305289  0.33304455  0.00085607  1
  Pd  Pd11  1  0.33305006  0.00084712  0.33305154  1
  Pd  Pd12  1  0.66695003  0.66694910  -0.00084834  1
  Pd  Pd13  1  0.66695744  -0.00086070  0.66695380  1
  Pd  Pd14  1  0.00084693  0.33305198  0.33305079  1
  Pd  Pd15  1  -0.00085245  0.66695378  0.66694714  1
loop_
_geom_bond_atom_site_label_1
_geom_bond_atom_site_label_2
_geom_bond_distance
_geom_bond_site_symmetry_2
Ho0 Sb7 2.975404 1_555
Ho0 Pd0 3.008216 1_655
Ho0 Pd6 3.008218 1_555
Ho0 Pd5 3.008225 1_554
Ho0 Pd4 3.008250 1_545
Ho0 Pd14 3.202888 1_655
Ho0 Pd8 3.202888 1_555
Ho0 Pd12 3.202889 1_555
Ho0 Pd13 3.202971 1_555
Ho0 Sb6 3.304679 1_555
Ho0 Sb3 3.304684 1_655
Ho0 Sb5 3.304684 1_655
Ho0 Sb4 3.304687 1_555
Ho1 Sb7 2.975417 1_555
Ho1 Pd1 3.008203 1_455
Ho1 Pd7 3.008214 1_555
Ho1 Pd2 3.008230 1_565
Ho1 Pd3 3.008255 1_556
Ho1 Pd9 3.202868 1_555
Ho1 Pd11 3.202880 1_565
Ho1 Pd15 3.202915 1_555
Ho1 Pd10 3.202966 1_556
Ho1 Sb4 3.304674 1_565
Ho1 Sb3 3.304681 1_556
Ho1 Sb6 3.304692 1_556
Ho1 Sb5 3.304697 1_565
Ho2 Sb7 2.975443 1_555
Ho2 Pd3 3.008185 1_555
Ho2 Pd0 3.008218 1_565
Ho2 Pd7 3.008219 1_554
Ho2 Pd4 3.008235 1_455
Ho2 Pd11 3.202888 1_565
Ho2 Pd12 3.202894 1_555
Ho2 Pd8 3.202900 1_555
Ho2 Pd15 3.202904 1_555
Ho2 Sb6 3.304662 1_555
Ho2 Sb5 3.304677 1_565
Ho2 Sb2 3.304684 1_555
Ho2 Sb1 3.304687 1_565
Ho3 Sb7 2.975453 1_555
Ho3 Pd2 3.008212 1_655
Ho3 Pd5 3.008226 1_555
Ho3 Pd6 3.008231 1_556
Ho3 Pd1 3.008238 1_545
Ho3 Pd14 3.202878 1_655
Ho3 Pd9 3.202883 1_555
Ho3 Pd10 3.202903 1_556
Ho3 Pd13 3.202925 1_555
Ho3 Sb5 3.304667 1_655
Ho3 Sb2 3.304672 1_655
Ho3 Sb1 3.304675 1_556
Ho3 Sb6 3.304679 1_556
Ho4 Sb7 2.975395 1_555
Ho4 Pd5 3.008225 1_455
Ho4 Pd2 3.008234 1_555
Ho4 Pd0 3.008237 1_556
Ho4 Pd7 3.008247 1_545
Ho4 Pd8 3.202873 1_555
Ho4 Pd15 3.202914 1_555
Ho4 Pd10 3.202931 1_556
Ho4 Pd13 3.202980 1_555
Ho4 Sb2 3.304670 1_555
Ho4 Sb3 3.304676 1_556
Ho4 Sb4 3.304683 1_555
Ho4 Sb1 3.304700 1_556
Ho5 Sb7 2.975402 1_555
Ho5 Pd4 3.008194 1_555
Ho5 Pd3 3.008225 1_655
Ho5 Pd6 3.008236 1_565
Ho5 Pd1 3.008244 1_554
Ho5 Pd12 3.202879 1_555
Ho5 Pd14 3.202882 1_655
Ho5 Pd9 3.202884 1_555
Ho5 Pd11 3.202884 1_565
Ho5 Sb3 3.304667 1_655
Ho5 Sb4 3.304675 1_565
Ho5 Sb1 3.304686 1_565
Ho5 Sb2 3.304704 1_655
Pd0 Sb0 2.705465 1_555
Pd0 Sb3 2.899952 1_555
Pd0 Sb1 2.899962 1_555
Pd0 Sb5 2.899964 1_555
Pd1 Sb0 2.705479 1_666
Pd1 Sb3 2.899937 1_656
Pd1 Sb5 2.899944 1_665
Pd1 Sb1 2.899966 1_566
Pd2 Sb0 2.705488 1_556
Pd2 Sb4 2.899946 1_555
Pd2 Sb2 2.899949 1_555
Pd2 Sb5 2.899961 1_555
Pd3 Sb0 2.705491 1_565
Pd3 Sb3 2.899945 1_555
Pd3 Sb2 2.899947 1_555
Pd3 Sb6 2.899952 1_555
Pd4 Sb0 2.705495 1_665
Pd4 Sb4 2.899918 1_565
Pd4 Sb2 2.899940 1_655
Pd4 Sb5 2.899970 1_665
Pd5 Sb0 2.705500 1_656
Pd5 Sb2 2.899931 1_655
Pd5 Sb3 2.899946 1_656
Pd5 Sb6 2.899956 1_556
Pd6 Sb0 2.705482 1_655
Pd6 Sb1 2.899939 1_555
Pd6 Sb4 2.899945 1_555
Pd6 Sb6 2.899953 1_555
Pd7 Sb0 2.705487 1_566
Pd7 Sb4 2.899936 1_565
Pd7 Sb1 2.899959 1_566
Pd7 Sb6 2.899965 1_556
Pd8 Sb4 2.686035 1_555
Pd8 Sb2 2.686036 1_555
Pd8 Sb6 2.686043 1_555
Pd9 Sb2 2.686037 1_655
Pd9 Sb6 2.686042 1_556
Pd9 Sb4 2.686049 1_565
Pd10 Sb1 2.686005 1_555
Pd10 Sb6 2.686022 1_555
Pd10 Sb3 2.686078 1_555
Pd11 Sb4 2.686031 1_555
Pd11 Sb5 2.686040 1_555
Pd11 Sb1 2.686046 1_555
Pd12 Sb3 2.686035 1_655
Pd12 Sb6 2.686039 1_555
Pd12 Sb1 2.686046 1_565
Pd13 Sb5 2.685993 1_655
Pd13 Sb1 2.686028 1_556
Pd13 Sb4 2.686080 1_555
Pd14 Sb2 2.686038 1_555
Pd14 Sb3 2.686043 1_555
Pd14 Sb5 2.686051 1_555
Pd15 Sb2 2.686017 1_555
Pd15 Sb5 2.686018 1_565
Pd15 Sb3 2.686072 1_556
