# generated using pymatgen
data_Ca3V2O8
_symmetry_space_group_name_H-M   'P 1'
_cell_length_a   5.63223898
_cell_length_b   5.63223898
_cell_length_c   7.13919667
_cell_angle_alpha   66.71465558
_cell_angle_beta   66.71465558
_cell_angle_gamma   59.44545380
_symmetry_Int_Tables_number   1
_chemical_formula_structural   Ca3V2O8
_chemical_formula_sum   'Ca3 V2 O8'
_cell_volume   173.64738956
_cell_formula_units_Z   1
loop_
 _symmetry_equiv_pos_site_id
 _symmetry_equiv_pos_as_xyz
  1  'x, y, z'
loop_
 _atom_site_type_symbol
 _atom_site_label
 _atom_site_symmetry_multiplicity
 _atom_site_fract_x
 _atom_site_fract_y
 _atom_site_fract_z
 _atom_site_occupancy
  Ca  Ca0  1  0.80509100  0.80509100  0.59084000  1
  Ca  Ca1  1  0.19490900  0.19490900  0.40916000  1
  Ca  Ca2  1  0.00000000  0.00000000  0.00000000  1
  V  V0  1  0.59405000  0.59405000  0.21420300  1
  V  V1  1  0.40595000  0.40595000  0.78579700  1
  O  O0  1  0.73799900  0.22467800  0.30527300  1
  O  O1  1  0.67821800  0.67821800  0.94468700  1
  O  O2  1  0.26382600  0.26382600  0.70137000  1
  O  O3  1  0.22467800  0.73799900  0.30527300  1
  O  O4  1  0.26200100  0.77532200  0.69472700  1
  O  O5  1  0.77532200  0.26200100  0.69472700  1
  O  O6  1  0.32178200  0.32178200  0.05531300  1
  O  O7  1  0.73617400  0.73617400  0.29863000  1
loop_
_geom_bond_atom_site_label_1
_geom_bond_atom_site_label_2
_geom_bond_distance
_geom_bond_site_symmetry_2
Ca0 O1 2.251137 1_555
Ca0 O3 2.403319 1_655
Ca0 O0 2.403319 1_565
Ca0 O7 2.467170 1_555
Ca0 O4 2.858795 1_655
Ca0 O5 2.858795 1_565
Ca0 O2 2.879858 1_655
Ca0 O2 2.879858 1_565
Ca0 O5 2.926433 1_555
Ca0 O4 2.926433 1_555
Ca1 O6 2.251137 1_555
Ca1 O5 2.403319 1_455
Ca1 O4 2.403319 1_545
Ca1 O2 2.467170 1_555
Ca1 O3 2.858795 1_545
Ca1 O0 2.858795 1_455
Ca1 O7 2.879858 1_455
Ca1 O7 2.879858 1_545
Ca1 O3 2.926433 1_555
Ca1 O0 2.926433 1_555
Ca2 O7 2.489354 1_445
Ca2 O2 2.489354 1_554
Ca2 O3 2.503580 1_545
Ca2 O0 2.503580 1_455
Ca2 O4 2.503580 1_544
Ca2 O5 2.503580 1_454
O0 V0 1.743716 1_555
O1 V0 1.714028 1_556
O2 V1 1.749061 1_555
O3 V0 1.743716 1_555
O4 V1 1.743716 1_555
O5 V1 1.743716 1_555
O6 V1 1.714028 1_554
O7 V0 1.749061 1_555
