# generated using pymatgen
data_BiSb3F20
_symmetry_space_group_name_H-M   'P 1'
_cell_length_a   8.49905517
_cell_length_b   8.49905517
_cell_length_c   5.04354936
_cell_angle_alpha   85.36849102
_cell_angle_beta   85.36849102
_cell_angle_gamma   112.05269872
_symmetry_Int_Tables_number   1
_chemical_formula_structural   BiSb3F20
_chemical_formula_sum   'Bi1 Sb3 F20'
_cell_volume   334.11800084
_cell_formula_units_Z   1
loop_
 _symmetry_equiv_pos_site_id
 _symmetry_equiv_pos_as_xyz
  1  'x, y, z'
loop_
 _atom_site_type_symbol
 _atom_site_label
 _atom_site_symmetry_multiplicity
 _atom_site_fract_x
 _atom_site_fract_y
 _atom_site_fract_z
 _atom_site_occupancy
  Bi  Bi0  1  0.78567847  0.21432153  0.00000000  1
  Sb  Sb0  1  0.20515784  0.79484216  -0.00000000  1
  Sb  Sb1  1  0.25869612  0.25736331  0.24051963  1
  Sb  Sb2  1  0.74263669  0.74130388  0.75948037  1
  F  F0  1  0.27155829  0.46536701  0.34734687  1
  F  F1  1  0.46779707  0.25966232  0.33123130  1
  F  F2  1  0.74033768  0.53220293  0.66876870  1
  F  F3  1  0.53463299  0.72844171  0.65265313  1
  F  F4  1  0.34777620  0.34714469  0.88730816  1
  F  F5  1  0.65285531  0.65222380  0.11269184  1
  F  F6  1  0.83524475  0.43182607  0.15622468  1
  F  F7  1  0.41548337  0.83664932  0.12397153  1
  F  F8  1  0.16335068  0.58451663  0.87602847  1
  F  F9  1  0.56817393  0.16475525  0.84377532  1
  F  F10  1  0.02981238  0.21362466  0.11982752  1
  F  F11  1  0.21319288  0.02351675  0.11068811  1
  F  F12  1  0.97648325  0.78680712  0.88931189  1
  F  F13  1  0.78637534  0.97018762  0.88017248  1
  F  F14  1  0.13622758  0.13047153  0.56058406  1
  F  F15  1  0.86952847  0.86377242  0.43941594  1
  F  F16  1  0.92868866  0.30951285  0.65148588  1
  F  F17  1  0.29721336  0.91738945  0.66539103  1
  F  F18  1  0.08261055  0.70278664  0.33460897  1
  F  F19  1  0.69048715  0.07131134  0.34851412  1
loop_
_geom_bond_atom_site_label_1
_geom_bond_atom_site_label_2
_geom_bond_distance
_geom_bond_site_symmetry_2
Bi0 F19 1.976979 1_555
Bi0 F16 1.976979 1_554
Bi0 F9 1.979800 1_554
Bi0 F6 1.979800 1_555
Bi0 F13 2.209453 1_544
Bi0 F10 2.209453 1_655
F0 Sb1 1.856259 1_555
F1 Sb1 1.864046 1_555
F2 Sb2 1.864046 1_555
F3 Sb2 1.856259 1_555
F4 Sb1 1.859524 1_556
F5 Sb2 1.859524 1_554
F7 Sb0 1.857962 1_555
F8 Sb0 1.857962 1_556
F10 Sb1 1.994406 1_555
F11 Sb0 2.043353 1_545
F11 Sb1 2.049949 1_555
F12 Sb0 2.043353 1_656
F12 Sb2 2.049949 1_555
F13 Sb2 1.994406 1_555
F14 Sb1 1.859272 1_555
F15 Sb2 1.859272 1_555
F17 Sb0 1.853638 1_556
F18 Sb0 1.853638 1_555
