# generated using pymatgen
data_VMoO5
_symmetry_space_group_name_H-M   'P 1'
_cell_length_a   3.82238284
_cell_length_b   4.87962937
_cell_length_c   6.04959418
_cell_angle_alpha   89.28621704
_cell_angle_beta   108.54520132
_cell_angle_gamma   90.16813912
_symmetry_Int_Tables_number   1
_chemical_formula_structural   VMoO5
_chemical_formula_sum   'V1 Mo1 O5'
_cell_volume   106.96830113
_cell_formula_units_Z   1
loop_
 _symmetry_equiv_pos_site_id
 _symmetry_equiv_pos_as_xyz
  1  'x, y, z'
loop_
 _atom_site_type_symbol
 _atom_site_label
 _atom_site_symmetry_multiplicity
 _atom_site_fract_x
 _atom_site_fract_y
 _atom_site_fract_z
 _atom_site_occupancy
  V  V0  1  0.14967200  0.12354800  0.30116500  1
  Mo  Mo0  1  0.84785100  0.87288300  0.69374100  1
  O  O0  1  0.00701300  0.00841400  0.01086900  1
  O  O1  1  0.14549300  0.45367600  0.29336100  1
  O  O2  1  0.31725800  0.98018500  0.63251900  1
  O  O3  1  0.68336700  0.03717100  0.36600900  1
  O  O4  1  0.84934600  0.52412200  0.70233500  1
loop_
_geom_bond_atom_site_label_1
_geom_bond_atom_site_label_2
_geom_bond_distance
_geom_bond_site_symmetry_2
Mo0 O4 1.701942 1_555
Mo0 O0 1.942917 1_666
Mo0 O2 2.010730 1_655
Mo0 O2 2.012019 1_555
Mo0 O3 2.034520 1_565
O0 V0 1.763732 1_555
O1 V0 1.610983 1_555
O2 V0 2.017141 1_565
O3 V0 1.986129 1_655
O3 V0 1.996238 1_555
