# generated using pymatgen
data_Tb3Ga8Rh3
_symmetry_space_group_name_H-M   'P 1'
_cell_length_a   8.18988023
_cell_length_b   8.18988023
_cell_length_c   8.18988023
_cell_angle_alpha   150.01997467
_cell_angle_beta   105.67541557
_cell_angle_gamma   82.16116822
_symmetry_Int_Tables_number   1
_chemical_formula_structural   Tb3Ga8Rh3
_chemical_formula_sum   'Tb3 Ga8 Rh3'
_cell_volume   258.78856249
_cell_formula_units_Z   1
loop_
 _symmetry_equiv_pos_site_id
 _symmetry_equiv_pos_as_xyz
  1  'x, y, z'
loop_
 _atom_site_type_symbol
 _atom_site_label
 _atom_site_symmetry_multiplicity
 _atom_site_fract_x
 _atom_site_fract_y
 _atom_site_fract_z
 _atom_site_occupancy
  Tb  Tb0  1  0.50000000  0.50000000  0.00000000  1
  Tb  Tb1  1  0.17274100  0.17274100  0.00000000  1
  Tb  Tb2  1  0.82725900  0.82725900  0.00000000  1
  Ga  Ga0  1  0.09307900  0.37667900  0.71640000  1
  Ga  Ga1  1  0.90692100  0.62332100  0.28360000  1
  Ga  Ga2  1  0.66027900  0.37667900  0.28360000  1
  Ga  Ga3  1  0.33972100  0.62332100  0.71640000  1
  Ga  Ga4  1  0.79681800  0.16680800  0.63001000  1
  Ga  Ga5  1  0.20318200  0.83319200  0.36999000  1
  Ga  Ga6  1  0.53679800  0.16680800  0.36999000  1
  Ga  Ga7  1  0.46320200  0.83319200  0.63001000  1
  Rh  Rh0  1  0.00000000  0.50000000  0.50000000  1
  Rh  Rh1  1  0.78227300  0.00000000  0.78227300  1
  Rh  Rh2  1  0.21772700  0.00000000  0.21772700  1
loop_
_geom_bond_atom_site_label_1
_geom_bond_atom_site_label_2
_geom_bond_distance
_geom_bond_site_symmetry_2
Ga0 Rh2 2.608798 1_566
Ga0 Rh2 2.608798 1_555
Ga0 Rh0 2.627372 1_555
Ga0 Ga5 2.661782 1_545
Ga0 Ga5 2.661782 1_556
Ga0 Ga4 2.728592 1_455
Ga0 Tb2 3.073157 1_456
Ga0 Tb2 3.073157 1_445
Ga0 Tb0 3.192590 1_556
Ga1 Rh1 2.608798 1_554
Ga1 Rh1 2.608798 1_565
Ga1 Rh0 2.627372 1_655
Ga1 Ga4 2.661782 1_554
Ga1 Ga4 2.661782 1_565
Ga1 Ga5 2.728592 1_655
Ga1 Tb1 3.073157 1_666
Ga1 Tb1 3.073157 1_655
Ga1 Tb0 3.192590 1_555
Ga2 Rh1 2.608798 1_565
Ga2 Rh1 2.608798 1_554
Ga2 Rh0 2.627372 1_655
Ga2 Ga7 2.661782 1_555
Ga2 Ga7 2.661782 1_544
Ga2 Ga6 2.728592 1_555
Ga2 Tb2 3.073157 1_556
Ga2 Tb2 3.073157 1_545
Ga2 Tb0 3.192590 1_555
Ga3 Rh2 2.608798 1_555
Ga3 Rh2 2.608798 1_566
Ga3 Rh0 2.627372 1_555
Ga3 Ga6 2.661782 1_555
Ga3 Ga6 2.661782 1_566
Ga3 Ga7 2.728592 1_555
Ga3 Tb1 3.073157 1_566
Ga3 Tb1 3.073157 1_555
Ga3 Tb0 3.192590 1_556
Ga4 Rh1 2.551772 1_555
Ga4 Ga6 2.572794 1_555
Ga4 Tb2 3.172806 1_556
Ga4 Tb2 3.172806 1_545
Ga4 Tb0 3.222396 1_556
Ga4 Tb0 3.222396 1_545
Ga5 Rh2 2.551772 1_565
Ga5 Ga7 2.572794 1_555
Ga5 Tb1 3.172806 1_566
Ga5 Tb1 3.172806 1_555
Ga5 Tb0 3.222396 1_566
Ga5 Tb0 3.222396 1_555
Ga6 Rh2 2.551772 1_555
Ga6 Tb2 3.172806 1_556
Ga6 Tb2 3.172806 1_545
Ga6 Tb0 3.222396 1_556
Ga6 Tb0 3.222396 1_545
Ga7 Rh1 2.551772 1_565
Ga7 Tb1 3.172806 1_555
Ga7 Tb1 3.172806 1_566
Ga7 Tb0 3.222396 1_566
Ga7 Tb0 3.222396 1_555
Rh0 Tb1 3.006015 1_555
Rh0 Tb1 3.006015 1_566
Rh0 Tb2 3.006015 1_445
Rh0 Tb2 3.006015 1_456
Rh1 Tb1 3.031494 1_656
Rh1 Tb2 3.031494 1_546
Rh1 Tb0 3.505424 1_556
Rh1 Tb0 3.505424 1_545
Rh2 Tb2 3.031494 1_445
Rh2 Tb1 3.031494 1_555
Rh2 Tb0 3.505424 1_556
Rh2 Tb0 3.505424 1_545
