# generated using pymatgen
data_CeGaO2
_symmetry_space_group_name_H-M   'P 1'
_cell_length_a   3.31880000
_cell_length_b   4.09352500
_cell_length_c   4.10218100
_cell_angle_alpha   90.00000000
_cell_angle_beta   90.00000000
_cell_angle_gamma   90.00000000
_symmetry_Int_Tables_number   1
_chemical_formula_structural   CeGaO2
_chemical_formula_sum   'Ce1 Ga1 O2'
_cell_volume   55.73055233
_cell_formula_units_Z   1
loop_
 _symmetry_equiv_pos_site_id
 _symmetry_equiv_pos_as_xyz
  1  'x, y, z'
loop_
 _atom_site_type_symbol
 _atom_site_label
 _atom_site_symmetry_multiplicity
 _atom_site_fract_x
 _atom_site_fract_y
 _atom_site_fract_z
 _atom_site_occupancy
  Ce  Ce0  1  0.50000000  0.50000000  0.50000000  1
  Ga  Ga0  1  0.00000000  0.00000000  0.00000000  1
  O  O0  1  0.00000000  0.00000000  0.50000000  1
  O  O1  1  0.00000000  0.50000000  0.00000000  1
loop_
_geom_bond_atom_site_label_1
_geom_bond_atom_site_label_2
_geom_bond_distance
_geom_bond_site_symmetry_2
Ce0 O0 2.634928 1_655
Ce0 O0 2.634928 1_555
Ce0 O0 2.634928 1_565
Ce0 O0 2.634928 1_665
Ce0 O1 2.638291 1_555
Ce0 O1 2.638291 1_556
Ce0 O1 2.638291 1_656
Ce0 O1 2.638291 1_655
Ga0 O1 2.046762 1_545
Ga0 O1 2.046762 1_555
Ga0 O0 2.051090 1_554
Ga0 O0 2.051090 1_555
