# generated using pymatgen
data_SiO2
_symmetry_space_group_name_H-M   'P 1'
_cell_length_a   9.52516025
_cell_length_b   9.52516025
_cell_length_c   18.96042018
_cell_angle_alpha   78.07555662
_cell_angle_beta   78.07555662
_cell_angle_gamma   57.95228492
_symmetry_Int_Tables_number   1
_chemical_formula_structural   SiO2
_chemical_formula_sum   'Si28 O56'
_cell_volume   1416.84520423
_cell_formula_units_Z   28
loop_
 _symmetry_equiv_pos_site_id
 _symmetry_equiv_pos_as_xyz
  1  'x, y, z'
loop_
 _atom_site_type_symbol
 _atom_site_label
 _atom_site_symmetry_multiplicity
 _atom_site_fract_x
 _atom_site_fract_y
 _atom_site_fract_z
 _atom_site_occupancy
  Si  Si0  1  0.58430100  0.23586700  0.99607100  1
  Si  Si1  1  0.41569900  0.76413300  0.00392900  1
  Si  Si2  1  0.98195400  0.31198300  0.73111900  1
  Si  Si3  1  0.49154800  0.22041300  0.85270700  1
  Si  Si4  1  0.91230500  0.16093300  0.56842900  1
  Si  Si5  1  0.16093300  0.91230500  0.56842900  1
  Si  Si6  1  0.50845200  0.77958700  0.14729300  1
  Si  Si7  1  0.80212000  0.12272700  0.73711800  1
  Si  Si8  1  0.37392500  0.04809600  0.87212000  1
  Si  Si9  1  0.08769500  0.83906700  0.43157100  1
  Si  Si10  1  0.83906700  0.08769500  0.43157100  1
  Si  Si11  1  0.68801700  0.01804600  0.26888100  1
  Si  Si12  1  0.31198300  0.98195400  0.73111900  1
  Si  Si13  1  0.62607500  0.95190400  0.12788000  1
  Si  Si14  1  0.23490400  0.49270300  0.39642100  1
  Si  Si15  1  0.76509600  0.50729700  0.60357900  1
  Si  Si16  1  0.49270300  0.23490400  0.39642100  1
  Si  Si17  1  0.87727300  0.19788000  0.26288200  1
  Si  Si18  1  0.12272700  0.80212000  0.73711800  1
  Si  Si19  1  0.04809600  0.37392500  0.87212000  1
  Si  Si20  1  0.22041300  0.49154800  0.85270700  1
  Si  Si21  1  0.76413300  0.41569900  0.00392900  1
  Si  Si22  1  0.95190400  0.62607500  0.12788000  1
  Si  Si23  1  0.19788000  0.87727300  0.26288200  1
  Si  Si24  1  0.50729700  0.76509600  0.60357900  1
  Si  Si25  1  0.23586700  0.58430100  0.99607100  1
  Si  Si26  1  0.01804600  0.68801700  0.26888100  1
  Si  Si27  1  0.77958700  0.50845200  0.14729300  1
  O  O0  1  0.10290300  0.55366300  0.33825400  1
  O  O1  1  0.29798000  0.29798000  0.43805500  1
  O  O2  1  0.56980200  0.09968000  0.06053700  1
  O  O3  1  0.89709700  0.44633700  0.66174600  1
  O  O4  1  0.56875300  0.56875300  0.64267000  1
  O  O5  1  0.40661300  0.98432400  0.79278500  1
  O  O6  1  0.82794900  0.82794900  0.10731700  1
  O  O7  1  0.82616600  0.39647300  0.08149000  1
  O  O8  1  0.01567600  0.59338700  0.20721500  1
  O  O9  1  0.80322600  0.17075200  0.64965400  1
  O  O10  1  0.43019800  0.90032000  0.93946300  1
  O  O11  1  0.85152500  0.01614400  0.54326000  1
  O  O12  1  0.01614400  0.85152500  0.54326000  1
  O  O13  1  0.92137800  0.92137800  0.75730500  1
  O  O14  1  0.40397600  0.40397600  0.16331700  1
  O  O15  1  0.39647300  0.82616600  0.08149000  1
  O  O16  1  0.41035400  0.41035400  0.00441900  1
  O  O17  1  0.17383400  0.60352700  0.91851000  1
  O  O18  1  0.59602400  0.59602400  0.83668300  1
  O  O19  1  0.61198600  0.18636900  0.77504000  1
  O  O20  1  0.63590600  0.15591300  0.45263500  1
  O  O21  1  0.56345100  0.32600900  0.14381900  1
  O  O22  1  0.38801400  0.81363100  0.22496000  1
  O  O23  1  0.14847500  0.98385600  0.45674000  1
  O  O24  1  0.82924800  0.19677400  0.35034600  1
  O  O25  1  0.36409400  0.84408700  0.54736500  1
  O  O26  1  0.17075200  0.80322600  0.64965400  1
  O  O27  1  0.07862200  0.07862200  0.24269500  1
  O  O28  1  0.55366300  0.10290300  0.33825400  1
  O  O29  1  0.44633700  0.89709700  0.66174600  1
  O  O30  1  0.67399100  0.43654900  0.85618100  1
  O  O31  1  0.43124700  0.43124700  0.35733000  1
  O  O32  1  0.60352700  0.17383400  0.91851000  1
  O  O33  1  0.82738400  0.82738400  0.29734400  1
  O  O34  1  0.32600900  0.56345100  0.14381900  1
  O  O35  1  0.18636900  0.61198600  0.77504000  1
  O  O36  1  0.17205100  0.17205100  0.89268300  1
  O  O37  1  0.19677400  0.82924800  0.35034600  1
  O  O38  1  0.78176000  0.12292500  0.23469000  1
  O  O39  1  0.12292500  0.78176000  0.23469000  1
  O  O40  1  0.98432400  0.40661300  0.79278500  1
  O  O41  1  0.98385600  0.14847500  0.45674000  1
  O  O42  1  0.74084100  0.25915900  0.00000000  1
  O  O43  1  0.70202000  0.70202000  0.56194500  1
  O  O44  1  0.90032000  0.43019800  0.93946300  1
  O  O45  1  0.59338700  0.01567600  0.20721500  1
  O  O46  1  0.58964600  0.58964600  0.99558100  1
  O  O47  1  0.43654900  0.67399100  0.85618100  1
  O  O48  1  0.17261600  0.17261600  0.70265600  1
  O  O49  1  0.15591300  0.63590600  0.45263500  1
  O  O50  1  0.87707500  0.21824000  0.76531000  1
  O  O51  1  0.09968000  0.56980200  0.06053700  1
  O  O52  1  0.84408700  0.36409400  0.54736500  1
  O  O53  1  0.81363100  0.38801400  0.22496000  1
  O  O54  1  0.21824000  0.87707500  0.76531000  1
  O  O55  1  0.25915900  0.74084100  0.00000000  1
loop_
_geom_bond_atom_site_label_1
_geom_bond_atom_site_label_2
_geom_bond_distance
_geom_bond_site_symmetry_2
O0 Si26 1.633146 1_555
O0 Si14 1.633392 1_555
O1 Si14 1.683036 1_555
O1 Si16 1.683036 1_555
O2 Si13 1.624310 1_545
O2 Si0 1.631248 1_554
O3 Si2 1.633146 1_555
O3 Si15 1.633392 1_555
O4 Si24 1.683540 1_555
O4 Si15 1.683540 1_555
O5 Si12 1.627281 1_555
O5 Si8 1.646800 1_565
O6 Si13 1.647589 1_555
O6 Si22 1.647589 1_555
O7 Si21 1.636538 1_555
O7 Si27 1.646245 1_555
O8 Si26 1.627281 1_555
O8 Si22 1.646800 1_455
O9 Si7 1.626011 1_555
O9 Si4 1.659880 1_555
O10 Si8 1.624310 1_565
O10 Si1 1.631248 1_556
O11 O12 1.519242 1_645
O11 Si4 1.923126 1_555
O11 Si10 2.093967 1_555
O12 Si5 1.923126 1_555
O12 Si9 2.093967 1_555
O13 Si7 1.636892 1_565
O13 Si18 1.636892 1_655
O14 O21 1.296082 1_555
O14 O34 1.296082 1_555
O15 Si1 1.636538 1_555
O15 Si6 1.646245 1_555
O16 Si0 1.615703 1_554
O16 Si25 1.615703 1_554
O17 Si25 1.636538 1_555
O17 Si20 1.646245 1_555
O18 O47 1.296082 1_555
O18 O30 1.296082 1_555
O19 Si7 1.625203 1_555
O19 Si3 1.641396 1_555
O20 Si16 1.656182 1_555
O20 Si10 1.667308 1_555
O22 Si23 1.625203 1_555
O22 Si6 1.641396 1_555
O23 O41 1.519242 1_465
O23 Si9 1.923126 1_555
O23 Si5 2.093967 1_555
O24 Si17 1.626011 1_555
O24 Si10 1.659880 1_555
O25 Si24 1.656182 1_555
O25 Si5 1.667308 1_555
O26 Si18 1.626011 1_555
O26 Si5 1.659880 1_555
O27 Si17 1.636892 1_455
O27 Si23 1.636892 1_545
O28 Si11 1.633146 1_555
O28 Si16 1.633392 1_555
O29 Si12 1.633146 1_555
O29 Si24 1.633392 1_555
O31 Si14 1.683540 1_555
O31 Si16 1.683540 1_555
O32 Si0 1.636538 1_555
O32 Si3 1.646245 1_555
O33 Si11 1.638347 1_565
O33 Si26 1.638347 1_655
O35 Si18 1.625203 1_555
O35 Si20 1.641396 1_555
O36 Si19 1.647589 1_555
O36 Si8 1.647589 1_555
O37 Si23 1.626011 1_555
O37 Si9 1.659880 1_555
O38 Si11 1.629527 1_555
O38 Si17 1.634366 1_555
O39 Si26 1.629527 1_555
O39 Si23 1.634366 1_555
O40 Si2 1.627281 1_555
O40 Si19 1.646800 1_655
O41 Si10 1.923126 1_555
O41 Si4 2.093967 1_555
O42 Si21 1.637638 1_555
O42 Si0 1.637638 1_554
O43 Si15 1.683036 1_555
O43 Si24 1.683036 1_555
O44 Si19 1.624310 1_655
O44 Si21 1.631248 1_556
O45 Si11 1.627281 1_555
O45 Si13 1.646800 1_545
O46 Si1 1.615703 1_556
O46 Si21 1.615703 1_556
O48 Si2 1.638347 1_455
O48 Si12 1.638347 1_545
O49 Si14 1.656182 1_555
O49 Si9 1.667308 1_555
O50 Si2 1.629527 1_555
O50 Si7 1.634366 1_555
O51 Si22 1.624310 1_455
O51 Si25 1.631248 1_554
O52 Si15 1.656182 1_555
O52 Si4 1.667308 1_555
O53 Si17 1.625203 1_555
O53 Si27 1.641396 1_555
O54 Si12 1.629527 1_555
O54 Si18 1.634366 1_555
O55 Si1 1.637638 1_555
O55 Si25 1.637638 1_554
