# generated using pymatgen
data_MgCd4Cu4As4(HO5)4
_symmetry_space_group_name_H-M   'P 1'
_cell_length_a   6.12998307
_cell_length_b   7.84813244
_cell_length_c   9.52546889
_cell_angle_alpha   85.61182901
_cell_angle_beta   90.00000000
_cell_angle_gamma   90.00000000
_symmetry_Int_Tables_number   1
_chemical_formula_structural   MgCd4Cu4As4(HO5)4
_chemical_formula_sum   'Mg1 Cd4 Cu4 As4 H4 O20'
_cell_volume   456.91665412
_cell_formula_units_Z   1
loop_
 _symmetry_equiv_pos_site_id
 _symmetry_equiv_pos_as_xyz
  1  'x, y, z'
loop_
 _atom_site_type_symbol
 _atom_site_label
 _atom_site_symmetry_multiplicity
 _atom_site_fract_x
 _atom_site_fract_y
 _atom_site_fract_z
 _atom_site_occupancy
  Mg  Mg0  1  0.75000000  0.74401485  0.41877285  1
  Cd  Cd0  1  0.25000000  0.59557712  0.26629526  1
  Cd  Cd1  1  0.25000000  0.15040078  0.18810330  1
  Cd  Cd2  1  0.75000000  0.37127061  0.68236304  1
  Cd  Cd3  1  0.75000000  0.96216493  0.84094112  1
  Cu  Cu0  1  0.49379579  0.51881125  0.96082910  1
  Cu  Cu1  1  0.01633660  0.00953671  0.53027125  1
  Cu  Cu2  1  0.00620421  0.51881125  0.96082910  1
  Cu  Cu3  1  0.48366340  0.00953671  0.53027125  1
  As  As0  1  0.25000000  0.61100915  0.62605334  1
  As  As1  1  0.25000000  0.14211600  0.86125246  1
  As  As2  1  0.75000000  0.33885647  0.33666405  1
  As  As3  1  0.75000000  0.85731411  0.14324600  1
  H  H0  1  0.25000000  0.77124619  0.00917750  1
  H  H1  1  0.25000000  0.26039988  0.44902170  1
  H  H2  1  0.75000000  0.27966403  0.98755337  1
  H  H3  1  0.75000000  0.74941504  0.65882271  1
  O  O0  1  0.51829151  0.36049168  0.23430596  1
  O  O1  1  0.96443589  0.81281742  0.26222161  1
  O  O2  1  0.01557972  0.57582669  0.72500096  1
  O  O3  1  0.47849793  0.13212772  0.75188633  1
  O  O4  1  0.48442028  0.57582669  0.72500096  1
  O  O5  1  0.02150207  0.13212772  0.75188633  1
  O  O6  1  0.98170849  0.36049168  0.23430596  1
  O  O7  1  0.53556411  0.81281742  0.26222161  1
  O  O8  1  0.25000000  0.48478099  0.48541595  1
  O  O9  1  0.25000000  0.98134839  0.99580354  1
  O  O10  1  0.75000000  0.49829518  0.45468568  1
  O  O11  1  0.75000000  0.06275490  0.07085528  1
  O  O12  1  0.25000000  0.82448125  0.55831886  1
  O  O13  1  0.25000000  0.31985286  0.95907122  1
  O  O14  1  0.75000000  0.15636573  0.45875840  1
  O  O15  1  0.75000000  0.73086901  0.99891171  1
  O  O16  1  0.25000000  0.64425737  0.03154995  1
  O  O17  1  0.25000000  0.13835985  0.42678495  1
  O  O18  1  0.75000000  0.38685174  0.92605479  1
  O  O19  1  0.75000000  0.86018164  0.60077853  1
loop_
_geom_bond_atom_site_label_1
_geom_bond_atom_site_label_2
_geom_bond_distance
_geom_bond_site_symmetry_2
Mg0 O10 1.932603 1_555
Mg0 O19 2.019588 1_555
Mg0 O7 2.029773 1_555
Mg0 O1 2.029773 1_555
Cd0 O8 2.198838 1_555
Cd0 O16 2.239463 1_555
Cd0 O1 2.441809 1_455
Cd0 O7 2.441809 1_555
Cd0 O6 2.507513 1_455
Cd0 O0 2.507513 1_555
Cd1 O17 2.268282 1_555
Cd1 O9 2.342528 1_544
Cd1 O6 2.393351 1_455
Cd1 O0 2.393351 1_555
Cd1 O13 2.466607 1_554
Cd2 O10 2.316545 1_555
Cd2 O18 2.333821 1_555
Cd2 O4 2.343580 1_555
Cd2 O2 2.343580 1_655
Cd2 O5 2.557488 1_655
Cd2 O3 2.557488 1_555
Cd3 O5 2.257346 1_665
Cd3 O3 2.257346 1_565
Cd3 O15 2.267458 1_555
Cd3 O11 2.384128 1_566
Cd3 O19 2.480764 1_555
Cu0 O18 1.923880 1_555
Cu0 O16 1.938554 1_556
Cu0 O13 2.162368 1_555
Cu0 O4 2.257411 1_555
Cu0 O15 2.336725 1_555
Cu1 O17 1.973069 1_555
Cu1 O12 2.042774 1_545
Cu1 O14 2.082615 1_455
Cu1 O19 2.090470 1_445
Cu1 O5 2.386153 1_555
Cu2 O18 1.923880 1_455
Cu2 O16 1.938554 1_556
Cu2 O13 2.162368 1_555
Cu2 O2 2.257411 1_555
Cu2 O15 2.336725 1_455
Cu3 O17 1.973069 1_555
Cu3 O12 2.042774 1_545
Cu3 O14 2.082615 1_555
Cu3 O19 2.090470 1_545
Cu3 O3 2.386153 1_555
As0 O8 1.726010 1_555
As0 O4 1.729078 1_555
As0 O2 1.729078 1_555
As0 O12 1.748627 1_555
As1 O9 1.728337 1_545
As1 O13 1.735753 1_555
As1 O5 1.750954 1_555
As1 O3 1.750954 1_555
As2 O0 1.723829 1_555
As2 O6 1.723829 1_555
As2 O10 1.744952 1_555
As2 O14 1.774520 1_555
As3 O11 1.704392 1_565
As3 O7 1.753178 1_555
As3 O1 1.753178 1_555
As3 O15 1.756067 1_554
H0 O16 1.003083 1_555
H0 O9 1.644077 1_554
H1 O17 0.996627 1_555
H2 O18 0.987629 1_555
H3 O19 0.993905 1_555
