# generated using pymatgen
data_Eu6Sb6S17
_symmetry_space_group_name_H-M   'P 1'
_cell_length_a   8.30603600
_cell_length_b   15.40663587
_cell_length_c   22.91590706
_cell_angle_alpha   90.00000000
_cell_angle_beta   90.00000000
_cell_angle_gamma   90.00000000
_symmetry_Int_Tables_number   1
_chemical_formula_structural   Eu6Sb6S17
_chemical_formula_sum   'Eu24 Sb24 S68'
_cell_volume   2932.50444861
_cell_formula_units_Z   4
loop_
 _symmetry_equiv_pos_site_id
 _symmetry_equiv_pos_as_xyz
  1  'x, y, z'
loop_
 _atom_site_type_symbol
 _atom_site_label
 _atom_site_symmetry_multiplicity
 _atom_site_fract_x
 _atom_site_fract_y
 _atom_site_fract_z
 _atom_site_occupancy
  Eu  Eu0  1  0.24889659  0.05036514  0.28715914  1
  Eu  Eu1  1  0.25110341  0.94963486  0.78715914  1
  Eu  Eu2  1  0.74889659  0.44963486  0.71284086  1
  Eu  Eu3  1  0.75110341  0.55036514  0.21284086  1
  Eu  Eu4  1  0.74644609  0.05552021  0.28870998  1
  Eu  Eu5  1  0.75355391  0.94447979  0.78870998  1
  Eu  Eu6  1  0.24644609  0.44447979  0.71129002  1
  Eu  Eu7  1  0.25355391  0.55552021  0.21129002  1
  Eu  Eu8  1  0.74266659  0.94180091  0.45617854  1
  Eu  Eu9  1  0.75733341  0.05819909  0.95617854  1
  Eu  Eu10  1  0.24266659  0.55819909  0.54382146  1
  Eu  Eu11  1  0.25733341  0.44180091  0.04382146  1
  Eu  Eu12  1  0.24940908  0.93900218  0.45478065  1
  Eu  Eu13  1  0.25059092  0.06099782  0.95478065  1
  Eu  Eu14  1  0.74940908  0.56099782  0.54521935  1
  Eu  Eu15  1  0.75059092  0.43900218  0.04521935  1
  Eu  Eu16  1  0.24397386  0.83392576  0.62274045  1
  Eu  Eu17  1  0.25602614  0.16607424  0.12274045  1
  Eu  Eu18  1  0.74397386  0.66607424  0.37725955  1
  Eu  Eu19  1  0.75602614  0.33392576  0.87725955  1
  Eu  Eu20  1  0.75036474  0.83337479  0.62385945  1
  Eu  Eu21  1  0.74963526  0.16662521  0.12385945  1
  Eu  Eu22  1  0.25036474  0.66662521  0.37614055  1
  Eu  Eu23  1  0.24963526  0.33337479  0.87614055  1
  Sb  Sb0  1  0.02249011  0.29391846  0.26795535  1
  Sb  Sb1  1  0.47750989  0.70608154  0.76795535  1
  Sb  Sb2  1  0.52249011  0.20608154  0.73204465  1
  Sb  Sb3  1  0.97750989  0.79391846  0.23204465  1
  Sb  Sb4  1  0.98822060  0.18262186  0.41512109  1
  Sb  Sb5  1  0.51177940  0.81737814  0.91512109  1
  Sb  Sb6  1  0.48822060  0.31737814  0.58487891  1
  Sb  Sb7  1  0.01177940  0.68262186  0.08487891  1
  Sb  Sb8  1  0.50600565  0.17561322  0.44024147  1
  Sb  Sb9  1  0.99399435  0.82438678  0.94024147  1
  Sb  Sb10  1  0.00600565  0.32438678  0.55975853  1
  Sb  Sb11  1  0.49399435  0.67561322  0.05975853  1
  Sb  Sb12  1  0.46672013  0.07815729  0.59253412  1
  Sb  Sb13  1  0.03327987  0.92184271  0.09253412  1
  Sb  Sb14  1  0.96672013  0.42184271  0.40746588  1
  Sb  Sb15  1  0.53327987  0.57815729  0.90746588  1
  Sb  Sb16  1  0.98063056  0.07295947  0.60815331  1
  Sb  Sb17  1  0.51936944  0.92704053  0.10815331  1
  Sb  Sb18  1  0.48063056  0.42704053  0.39184669  1
  Sb  Sb19  1  0.01936944  0.57295947  0.89184669  1
  Sb  Sb20  1  0.00002815  0.69093867  0.75056967  1
  Sb  Sb21  1  0.49997185  0.30906133  0.25056967  1
  Sb  Sb22  1  0.50002815  0.80906133  0.24943033  1
  Sb  Sb23  1  -0.00002815  0.19093867  0.74943033  1
  S  S0  1  0.49857649  0.70376836  0.57222953  1
  S  S1  1  0.00142351  0.29623164  0.07222953  1
  S  S2  1  0.99857649  0.79623164  0.42777047  1
  S  S3  1  0.50142351  0.20376836  0.92777047  1
  S  S4  1  0.64154431  0.74864507  0.50156142  1
  S  S5  1  0.85845569  0.25135493  0.00156142  1
  S  S6  1  0.14154431  0.75135493  0.49843858  1
  S  S7  1  0.35845569  0.24864507  0.99843858  1
  S  S8  1  0.50341544  0.79409150  0.42990778  1
  S  S9  1  0.99658456  0.20590850  0.92990778  1
  S  S10  1  0.00341544  0.70590850  0.57009222  1
  S  S11  1  0.49658456  0.29409150  0.07009222  1
  S  S12  1  0.99967790  0.15014365  0.21822800  1
  S  S13  1  0.50032210  0.84985635  0.71822800  1
  S  S14  1  0.49967790  0.34985635  0.78177200  1
  S  S15  1  0.00032210  0.65014365  0.28177200  1
  S  S16  1  0.21642247  0.23117979  0.34289803  1
  S  S17  1  0.28357753  0.76882021  0.84289803  1
  S  S18  1  0.71642247  0.26882021  0.65710197  1
  S  S19  1  0.78357753  0.73117979  0.15710197  1
  S  S20  1  0.76935753  0.22951401  0.34960908  1
  S  S21  1  0.73064247  0.77048599  0.84960908  1
  S  S22  1  0.26935753  0.27048599  0.65039092  1
  S  S23  1  0.23064247  0.72951401  0.15039092  1
  S  S24  1  0.99721579  0.02815219  0.38025372  1
  S  S25  1  0.50278421  0.97184781  0.88025372  1
  S  S26  1  0.49721579  0.47184781  0.61974628  1
  S  S27  1  0.00278421  0.52815219  0.11974628  1
  S  S28  1  0.49602430  0.03690546  0.38231956  1
  S  S29  1  0.00397570  0.96309454  0.88231956  1
  S  S30  1  0.99602430  0.46309454  0.61768044  1
  S  S31  1  0.50397570  0.53690546  0.11768044  1
  S  S32  1  0.72501077  0.12564802  0.50495350  1
  S  S33  1  0.77498923  0.87435198  0.00495350  1
  S  S34  1  0.22501077  0.37435198  0.49504650  1
  S  S35  1  0.27498923  0.62564802  0.99504650  1
  S  S36  1  0.27529485  0.12294311  0.50925744  1
  S  S37  1  0.22470515  0.87705689  0.00925744  1
  S  S38  1  0.77529485  0.37705689  0.49074256  1
  S  S39  1  0.72470515  0.62294311  0.99074256  1
  S  S40  1  0.49276285  0.93026406  0.55313732  1
  S  S41  1  0.00723715  0.06973594  0.05313732  1
  S  S42  1  0.99276285  0.56973594  0.44686268  1
  S  S43  1  0.50723715  0.43026406  0.94686268  1
  S  S44  1  0.99083379  0.93655524  0.55032016  1
  S  S45  1  0.50916621  0.06344476  0.05032016  1
  S  S46  1  0.49083379  0.56344476  0.44967984  1
  S  S47  1  0.00916621  0.43655524  0.94967984  1
  S  S48  1  0.23314219  0.02525552  0.66427084  1
  S  S49  1  0.26685781  0.97474448  0.16427084  1
  S  S50  1  0.73314219  0.47474448  0.33572916  1
  S  S51  1  0.76685781  0.52525552  0.83572916  1
  S  S52  1  0.75660910  0.02148447  0.67030130  1
  S  S53  1  0.74339090  0.97851553  0.17030130  1
  S  S54  1  0.25660910  0.47851553  0.32969870  1
  S  S55  1  0.24339090  0.52148447  0.82969870  1
  S  S56  1  0.25162170  0.65338376  0.69179906  1
  S  S57  1  0.24837830  0.34661624  0.19179906  1
  S  S58  1  0.75162170  0.84661624  0.30820094  1
  S  S59  1  0.74837830  0.15338376  0.80820094  1
  S  S60  1  0.78714915  0.64552304  0.68195515  1
  S  S61  1  0.71285085  0.35447696  0.18195515  1
  S  S62  1  0.28714915  0.85447696  0.31804485  1
  S  S63  1  0.21285085  0.14552304  0.81804485  1
  S  S64  1  0.00168679  0.84654042  0.71999907  1
  S  S65  1  0.49831321  0.15345958  0.21999907  1
  S  S66  1  0.50168679  0.65345958  0.28000093  1
  S  S67  1  0.99831321  0.34654042  0.78000093  1
loop_
_geom_bond_atom_site_label_1
_geom_bond_atom_site_label_2
_geom_bond_distance
_geom_bond_site_symmetry_2
Eu0 S28 3.001962 1_555
Eu0 S24 3.006385 1_455
Eu0 S12 3.023792 1_455
Eu0 S65 3.030385 1_555
Eu0 S49 3.051233 1_545
Eu0 S16 3.076467 1_555
Eu0 S62 3.116101 1_545
Eu1 S29 3.001962 1_555
Eu1 S25 3.006385 1_555
Eu1 S13 3.023792 1_555
Eu1 S64 3.030385 1_555
Eu1 S48 3.051233 1_565
Eu1 S17 3.076467 1_555
Eu1 S63 3.116101 1_565
Eu2 S30 3.001962 1_555
Eu2 S26 3.006385 1_555
Eu2 S14 3.023792 1_555
Eu2 S67 3.030385 1_555
Eu2 S51 3.051233 1_555
Eu2 S18 3.076467 1_555
Eu2 S60 3.116101 1_555
Eu3 S31 3.001962 1_555
Eu3 S27 3.006385 1_655
Eu3 S15 3.023792 1_655
Eu3 S66 3.030385 1_555
Eu3 S50 3.051233 1_555
Eu3 S19 3.076467 1_555
Eu3 S61 3.116101 1_555
Eu4 S53 2.961574 1_545
Eu4 S24 2.986146 1_555
Eu4 S65 3.000638 1_555
Eu4 S28 3.001727 1_555
Eu4 S12 3.026234 1_555
Eu4 S20 3.028156 1_555
Eu4 S58 3.249636 1_545
Eu5 S52 2.961574 1_565
Eu5 S25 2.986146 1_555
Eu5 S64 3.000638 1_655
Eu5 S29 3.001727 1_655
Eu5 S13 3.026234 1_555
Eu5 S21 3.028156 1_555
Eu5 S59 3.249636 1_565
Eu6 S55 2.961574 1_555
Eu6 S26 2.986146 1_555
Eu6 S67 3.000638 1_455
Eu6 S30 3.001727 1_455
Eu6 S14 3.026234 1_555
Eu6 S22 3.028156 1_555
Eu6 S56 3.249636 1_555
Eu7 S54 2.961574 1_555
Eu7 S27 2.986146 1_555
Eu7 S66 3.000638 1_555
Eu7 S31 3.001727 1_555
Eu7 S15 3.026234 1_555
Eu7 S23 3.028156 1_555
Eu7 S57 3.249636 1_555
Eu8 S44 2.984887 1_555
Eu8 S28 3.034549 1_565
Eu8 S24 3.044235 1_565
Eu8 S40 3.045816 1_555
Eu8 S32 3.048552 1_565
Eu8 S8 3.080639 1_555
Eu8 S2 3.157817 1_555
Eu8 S4 3.262350 1_555
Eu8 S58 3.695300 1_555
Eu9 S45 2.984887 1_556
Eu9 S29 3.034549 1_645
Eu9 S25 3.044235 1_545
Eu9 S41 3.045816 1_656
Eu9 S33 3.048552 1_546
Eu9 S9 3.080639 1_555
Eu9 S3 3.157817 1_555
Eu9 S5 3.262350 1_556
Eu9 S59 3.695300 1_555
Eu10 S46 2.984887 1_555
Eu10 S30 3.034549 1_455
Eu10 S26 3.044235 1_555
Eu10 S42 3.045816 1_455
Eu10 S34 3.048552 1_555
Eu10 S10 3.080639 1_555
Eu10 S0 3.157817 1_555
Eu10 S6 3.262350 1_555
Eu10 S56 3.695300 1_555
Eu11 S47 2.984887 1_554
Eu11 S31 3.034549 1_555
Eu11 S27 3.044235 1_555
Eu11 S43 3.045816 1_554
Eu11 S35 3.048552 1_554
Eu11 S11 3.080639 1_555
Eu11 S1 3.157817 1_555
Eu11 S7 3.262350 1_554
Eu11 S57 3.695300 1_555
Eu12 S40 3.030513 1_555
Eu12 S24 3.031690 1_465
Eu12 S28 3.037823 1_565
Eu12 S44 3.067173 1_455
Eu12 S2 3.092260 1_455
Eu12 S36 3.104150 1_565
Eu12 S8 3.124183 1_555
Eu12 S6 3.187721 1_555
Eu12 S62 3.407707 1_555
Eu13 S41 3.030513 1_556
Eu13 S25 3.031690 1_545
Eu13 S29 3.037823 1_545
Eu13 S45 3.067173 1_556
Eu13 S3 3.092260 1_555
Eu13 S37 3.104150 1_546
Eu13 S9 3.124183 1_455
Eu13 S7 3.187721 1_555
Eu13 S63 3.407707 1_555
Eu14 S42 3.030513 1_555
Eu14 S26 3.031690 1_555
Eu14 S30 3.037823 1_555
Eu14 S46 3.067173 1_555
Eu14 S0 3.092260 1_555
Eu14 S38 3.104150 1_555
Eu14 S10 3.124183 1_655
Eu14 S4 3.187721 1_555
Eu14 S60 3.407707 1_555
Eu15 S43 3.030513 1_554
Eu15 S27 3.031690 1_655
Eu15 S31 3.037823 1_555
Eu15 S47 3.067173 1_654
Eu15 S1 3.092260 1_655
Eu15 S39 3.104150 1_554
Eu15 S11 3.124183 1_555
Eu15 S5 3.187721 1_555
Eu15 S61 3.407707 1_555
Eu16 S40 3.002882 1_555
Eu16 S64 3.009173 1_555
Eu16 S10 3.055810 1_555
Eu16 S13 3.063012 1_555
Eu16 S48 3.098880 1_565
Eu16 S44 3.110498 1_455
Eu16 S0 3.135779 1_555
Eu16 S56 3.200853 1_555
Eu16 S6 3.233584 1_555
Eu17 S41 3.002882 1_555
Eu17 S65 3.009173 1_555
Eu17 S11 3.055810 1_555
Eu17 S12 3.063012 1_455
Eu17 S49 3.098880 1_545
Eu17 S45 3.110498 1_555
Eu17 S1 3.135779 1_555
Eu17 S57 3.200853 1_555
Eu17 S7 3.233584 1_554
Eu18 S42 3.002882 1_555
Eu18 S66 3.009173 1_555
Eu18 S8 3.055810 1_555
Eu18 S15 3.063012 1_655
Eu18 S50 3.098880 1_555
Eu18 S46 3.110498 1_555
Eu18 S2 3.135779 1_555
Eu18 S58 3.200853 1_555
Eu18 S4 3.233584 1_555
Eu19 S43 3.002882 1_555
Eu19 S67 3.009173 1_555
Eu19 S9 3.055810 1_555
Eu19 S14 3.063012 1_555
Eu19 S51 3.098880 1_555
Eu19 S47 3.110498 1_655
Eu19 S3 3.135779 1_555
Eu19 S59 3.200853 1_555
Eu19 S5 3.233584 1_556
Eu20 S13 3.009057 1_555
Eu20 S64 3.041796 1_655
Eu20 S44 3.058820 1_555
Eu20 S40 3.071305 1_555
Eu20 S52 3.087804 1_565
Eu20 S0 3.124234 1_555
Eu20 S10 3.129299 1_655
Eu20 S60 3.200302 1_555
Eu20 S4 3.221094 1_555
Eu21 S12 3.009057 1_555
Eu21 S65 3.041796 1_555
Eu21 S45 3.058820 1_555
Eu21 S41 3.071305 1_655
Eu21 S53 3.087804 1_545
Eu21 S1 3.124234 1_655
Eu21 S11 3.129299 1_555
Eu21 S61 3.200302 1_555
Eu21 S5 3.221094 1_555
Eu22 S15 3.009057 1_555
Eu22 S66 3.041796 1_555
Eu22 S46 3.058820 1_555
Eu22 S42 3.071305 1_455
Eu22 S54 3.087804 1_555
Eu22 S2 3.124234 1_455
Eu22 S8 3.129299 1_555
Eu22 S62 3.200302 1_555
Eu22 S6 3.221094 1_555
Eu23 S14 3.009057 1_555
Eu23 S67 3.041796 1_455
Eu23 S47 3.058820 1_555
Eu23 S43 3.071305 1_555
Eu23 S55 3.087804 1_555
Eu23 S3 3.124234 1_555
Eu23 S9 3.129299 1_455
Eu23 S63 3.200302 1_555
Eu23 S7 3.221094 1_555
S0 S4 2.123844 1_555
S1 S5 2.123844 1_455
S2 S6 2.123844 1_655
S3 S7 2.123844 1_555
S4 S8 2.121967 1_555
S5 S9 2.121967 1_554
S10 S6 2.121967 1_555
S11 S7 2.121967 1_554
S12 Sb0 2.498215 1_655
S13 Sb1 2.498215 1_555
S14 Sb2 2.498215 1_555
S15 Sb3 2.498215 1_455
S16 Sb0 2.545270 1_555
S16 Sb4 2.625191 1_455
S17 Sb1 2.545270 1_555
S17 Sb5 2.625191 1_555
S18 Sb2 2.545270 1_555
S18 Sb6 2.625191 1_555
S19 Sb3 2.545270 1_555
S19 Sb7 2.625191 1_655
S20 Sb4 2.465855 1_555
S20 Sb0 2.984371 1_655
S20 Sb8 3.128576 1_555
S21 Sb5 2.465855 1_555
S21 Sb1 2.984371 1_555
S21 Sb9 3.128576 1_555
S22 Sb6 2.465855 1_555
S22 Sb2 2.984371 1_555
S22 Sb10 3.128576 1_555
S23 Sb7 2.465855 1_555
S23 Sb3 2.984371 1_455
S23 Sb11 3.128576 1_555
S24 Sb4 2.511520 1_555
S25 Sb5 2.511520 1_555
S26 Sb6 2.511520 1_555
S27 Sb7 2.511520 1_555
S28 Sb8 2.517050 1_555
S29 Sb9 2.517050 1_455
S30 Sb10 2.517050 1_655
S31 Sb11 2.517050 1_555
S32 Sb8 2.469955 1_555
S32 Sb12 3.027535 1_555
S32 Sb4 3.128560 1_555
S33 Sb9 2.469955 1_554
S33 Sb13 3.027535 1_655
S33 Sb5 3.128560 1_554
S34 Sb10 2.469955 1_555
S34 Sb14 3.027535 1_455
S34 Sb6 3.128560 1_555
S35 Sb11 2.469955 1_556
S35 Sb15 3.027535 1_555
S35 Sb7 3.128560 1_556
S36 Sb12 2.577982 1_555
S36 Sb8 2.613810 1_555
S37 Sb13 2.577982 1_555
S37 Sb9 2.613810 1_454
S38 Sb14 2.577982 1_555
S38 Sb10 2.613810 1_655
S39 Sb15 2.577982 1_555
S39 Sb11 2.613810 1_556
S40 Sb12 2.460405 1_565
S41 Sb13 2.460405 1_545
S42 Sb14 2.460405 1_555
S43 Sb15 2.460405 1_555
S44 Sb16 2.485967 1_565
S45 Sb17 2.485967 1_545
S46 Sb18 2.485967 1_555
S47 Sb19 2.485967 1_555
S48 Sb16 2.567661 1_455
S48 Sb12 2.670346 1_555
S49 Sb17 2.567661 1_555
S49 Sb13 2.670346 1_555
S50 Sb18 2.567661 1_555
S50 Sb14 2.670346 1_555
S51 Sb19 2.567661 1_655
S51 Sb15 2.670346 1_555
S52 Sb16 2.473770 1_555
S52 Sb12 3.120241 1_555
S53 Sb17 2.473770 1_555
S53 Sb13 3.120241 1_655
S54 Sb18 2.473770 1_555
S54 Sb14 3.120241 1_455
S55 Sb19 2.473770 1_555
S55 Sb15 3.120241 1_555
S56 Sb20 2.552573 1_555
S56 Sb1 2.687959 1_555
S57 Sb21 2.552573 1_555
S57 Sb0 2.687959 1_555
S58 Sb22 2.552573 1_555
S58 Sb3 2.687959 1_555
S59 Sb23 2.552573 1_655
S59 Sb2 2.687959 1_555
S60 Sb20 2.467463 1_655
S61 Sb21 2.467463 1_555
S62 Sb22 2.467463 1_555
S63 Sb23 2.467463 1_555
S64 Sb20 2.497601 1_555
S65 Sb21 2.497601 1_555
S66 Sb22 2.497601 1_555
S67 Sb23 2.497601 1_655
