# generated using pymatgen
data_KV2(PO5)3
_symmetry_space_group_name_H-M   'P 1'
_cell_length_a   10.22070200
_cell_length_b   6.35994300
_cell_length_c   18.59756945
_cell_angle_alpha   75.85656040
_cell_angle_beta   90.00000000
_cell_angle_gamma   90.00000000
_symmetry_Int_Tables_number   1
_chemical_formula_structural   KV2(PO5)3
_chemical_formula_sum   'K4 V8 P12 O60'
_cell_volume   1172.25401276
_cell_formula_units_Z   4
loop_
 _symmetry_equiv_pos_site_id
 _symmetry_equiv_pos_as_xyz
  1  'x, y, z'
loop_
 _atom_site_type_symbol
 _atom_site_label
 _atom_site_symmetry_multiplicity
 _atom_site_fract_x
 _atom_site_fract_y
 _atom_site_fract_z
 _atom_site_occupancy
  K  K0  1  0.59068300  0.74523300  0.34080700  1
  K  K1  1  0.90931700  0.74523300  0.84080700  1
  K  K2  1  0.40931700  0.25476700  0.65919300  1
  K  K3  1  0.09068300  0.25476700  0.15919300  1
  V  V0  1  0.64083500  0.61588400  0.15060500  1
  V  V1  1  0.85916500  0.61588400  0.65060500  1
  V  V2  1  0.35916500  0.38411600  0.84939500  1
  V  V3  1  0.14083500  0.38411600  0.34939500  1
  V  V4  1  0.78350700  0.16151100  0.97737900  1
  V  V5  1  0.71649300  0.16151100  0.47737900  1
  V  V6  1  0.21649300  0.83848900  0.02262100  1
  V  V7  1  0.28350700  0.83848900  0.52262100  1
  P  P0  1  0.83212300  0.35846000  0.31302000  1
  P  P1  1  0.66787700  0.35846000  0.81302000  1
  P  P2  1  0.16787700  0.64154000  0.68698000  1
  P  P3  1  0.33212300  0.64154000  0.18698000  1
  P  P4  1  0.59719700  0.12991300  0.12597900  1
  P  P5  1  0.90280300  0.12991300  0.62597900  1
  P  P6  1  0.40280300  0.87008700  0.87402100  1
  P  P7  1  0.09719700  0.87008700  0.37402100  1
  P  P8  1  0.93433300  0.82929000  0.11380400  1
  P  P9  1  0.56566700  0.82929000  0.61380400  1
  P  P10  1  0.06566700  0.17071000  0.88619600  1
  P  P11  1  0.43433300  0.17071000  0.38619600  1
  O  O0  1  0.97828400  0.42336500  0.29583300  1
  O  O1  1  0.52171600  0.42336500  0.79583300  1
  O  O2  1  0.02171600  0.57663500  0.70416700  1
  O  O3  1  0.47828400  0.57663500  0.20416700  1
  O  O4  1  0.80800900  0.13411000  0.29696900  1
  O  O5  1  0.69199100  0.13411000  0.79696900  1
  O  O6  1  0.19199100  0.86589000  0.70303100  1
  O  O7  1  0.30800900  0.86589000  0.20303100  1
  O  O8  1  0.80688000  0.34835200  0.39758800  1
  O  O9  1  0.69312000  0.34835200  0.89758800  1
  O  O10  1  0.19312000  0.65164800  0.60241200  1
  O  O11  1  0.30688000  0.65164800  0.10241200  1
  O  O12  1  0.73871900  0.52144900  0.26591700  1
  O  O13  1  0.76128100  0.52144900  0.76591700  1
  O  O14  1  0.26128100  0.47855100  0.73408300  1
  O  O15  1  0.23871900  0.47855100  0.23408300  1
  O  O16  1  0.58101100  0.68165400  0.06858700  1
  O  O17  1  0.91898900  0.68165400  0.56858700  1
  O  O18  1  0.41898900  0.31834600  0.93141300  1
  O  O19  1  0.08101100  0.31834600  0.43141300  1
  O  O20  1  0.64520400  0.90534500  0.17176900  1
  O  O21  1  0.85479600  0.90534500  0.67176900  1
  O  O22  1  0.35479600  0.09465500  0.82823100  1
  O  O23  1  0.14520400  0.09465500  0.32823100  1
  O  O24  1  0.44735400  0.15140400  0.12651300  1
  O  O25  1  0.05264600  0.15140400  0.62651300  1
  O  O26  1  0.55264600  0.84859600  0.87348700  1
  O  O27  1  0.94735400  0.84859600  0.37348700  1
  O  O28  1  0.65800000  0.30816900  0.15986900  1
  O  O29  1  0.84200000  0.30816900  0.65986900  1
  O  O30  1  0.34200000  0.69183100  0.84013100  1
  O  O31  1  0.15800000  0.69183100  0.34013100  1
  O  O32  1  0.64581400  0.16387600  0.04433800  1
  O  O33  1  0.85418600  0.16387600  0.54433800  1
  O  O34  1  0.35418600  0.83612400  0.95566200  1
  O  O35  1  0.14581400  0.83612400  0.45566200  1
  O  O36  1  0.85245800  0.47833100  0.99016500  1
  O  O37  1  0.64754200  0.47833100  0.49016500  1
  O  O38  1  0.14754200  0.52166900  0.00983500  1
  O  O39  1  0.35245800  0.52166900  0.50983500  1
  O  O40  1  0.77359000  0.93535200  0.95308200  1
  O  O41  1  0.72641000  0.93535200  0.45308200  1
  O  O42  1  0.22641000  0.06464800  0.04691800  1
  O  O43  1  0.27359000  0.06464800  0.54691800  1
  O  O44  1  0.89769500  0.05607000  0.06320400  1
  O  O45  1  0.60230500  0.05607000  0.56320400  1
  O  O46  1  0.10230500  0.94393000  0.93679600  1
  O  O47  1  0.39769500  0.94393000  0.43679600  1
  O  O48  1  0.05309400  0.73505200  0.07775900  1
  O  O49  1  0.44690600  0.73505200  0.57775900  1
  O  O50  1  0.94690600  0.26494800  0.92224100  1
  O  O51  1  0.55309400  0.26494800  0.42224100  1
  O  O52  1  0.98186200  0.86282000  0.18749600  1
  O  O53  1  0.51813800  0.86282000  0.68749600  1
  O  O54  1  0.01813800  0.13718000  0.81250400  1
  O  O55  1  0.48186200  0.13718000  0.31250400  1
  O  O56  1  0.82364300  0.66161100  0.11925000  1
  O  O57  1  0.67635700  0.66161100  0.61925000  1
  O  O58  1  0.17635700  0.33838900  0.88075000  1
  O  O59  1  0.32364300  0.33838900  0.38075000  1
loop_
_geom_bond_atom_site_label_1
_geom_bond_atom_site_label_2
_geom_bond_distance
_geom_bond_site_symmetry_2
K0 O55 2.662093 1_565
K0 O12 2.687650 1_555
K0 O37 2.937770 1_555
K0 O41 2.996697 1_555
K0 O51 3.083983 1_555
K0 O20 3.108993 1_555
K0 O47 3.126797 1_555
K0 O3 3.202918 1_555
K0 O4 3.275669 1_565
K1 O54 2.662093 1_665
K1 O13 2.687650 1_555
K1 O36 2.937770 1_555
K1 O40 2.996697 1_555
K1 O50 3.083983 1_555
K1 O21 3.108993 1_555
K1 O46 3.126797 1_655
K1 O2 3.202918 1_655
K1 O5 3.275669 1_565
K2 O53 2.662093 1_545
K2 O14 2.687650 1_555
K2 O39 2.937770 1_555
K2 O43 2.996697 1_555
K2 O49 3.083983 1_555
K2 O22 3.108993 1_555
K2 O45 3.126797 1_555
K2 O1 3.202918 1_555
K2 O6 3.275669 1_545
K3 O52 2.662093 1_445
K3 O15 2.687650 1_555
K3 O38 2.937770 1_555
K3 O42 2.996697 1_555
K3 O48 3.083983 1_555
K3 O23 3.108993 1_555
K3 O44 3.126797 1_455
K3 O0 3.202918 1_455
K3 O7 3.275669 1_545
O0 P0 1.561962 1_555
O0 V3 1.921785 1_655
O1 P1 1.561962 1_555
O1 V2 1.921785 1_555
O2 P2 1.561962 1_555
O2 V1 1.921785 1_455
O3 P3 1.561962 1_555
O3 V0 1.921785 1_555
O4 P0 1.547228 1_555
O5 P1 1.547228 1_555
O6 P2 1.547228 1_555
O7 P3 1.547228 1_555
O8 P0 1.579512 1_555
O8 V5 1.898885 1_555
O9 P1 1.579512 1_555
O9 V4 1.898885 1_555
O10 P2 1.579512 1_555
O10 V7 1.898885 1_555
O11 P3 1.579512 1_555
O11 V6 1.898885 1_555
O12 P0 1.519708 1_555
O12 V0 2.308926 1_555
O13 P1 1.519708 1_555
O13 V1 2.308926 1_555
O14 P2 1.519708 1_555
O14 V2 2.308926 1_555
O15 P3 1.519708 1_555
O15 V3 2.308926 1_555
O16 V0 1.601147 1_555
O17 V1 1.601147 1_555
O18 V2 1.601147 1_555
O19 V3 1.601147 1_555
O20 P4 1.552876 1_565
O20 V0 1.974878 1_555
O21 P5 1.552876 1_565
O21 V1 1.974878 1_555
O22 P6 1.552876 1_545
O22 V2 1.974878 1_555
O23 P7 1.552876 1_545
O23 V3 1.974878 1_555
O24 P4 1.537836 1_555
O25 P5 1.537836 1_455
O26 P6 1.537836 1_555
O27 P7 1.537836 1_655
O28 P4 1.554962 1_555
O28 V0 1.930214 1_555
O29 P5 1.554962 1_555
O29 V1 1.930214 1_555
O30 P6 1.554962 1_555
O30 V2 1.930214 1_555
O31 P7 1.554962 1_555
O31 V3 1.930214 1_555
O32 P4 1.561602 1_555
O32 V4 1.881658 1_554
O33 P5 1.561602 1_555
O33 V5 1.881658 1_555
O34 P6 1.561602 1_555
O34 V6 1.881658 1_556
O35 P7 1.561602 1_555
O35 V7 1.881658 1_555
O36 V4 2.201679 1_555
O37 V5 2.201679 1_555
O38 V6 2.201679 1_555
O39 V7 2.201679 1_555
O40 V4 1.612749 1_565
O41 V5 1.612749 1_565
O42 V6 1.612749 1_545
O43 V7 1.612749 1_545
O44 P8 1.562924 1_545
O44 V4 1.958659 1_554
O45 P9 1.562924 1_545
O45 V5 1.958659 1_555
O46 P10 1.562924 1_565
O46 V6 1.958659 1_556
O47 P11 1.562924 1_565
O47 V7 1.958659 1_555
O48 P8 1.574260 1_455
O48 V6 1.985872 1_555
O49 P9 1.574260 1_555
O49 V7 1.985872 1_555
O50 P10 1.574260 1_655
O50 V4 1.985872 1_555
O51 P11 1.574260 1_555
O51 V5 1.985872 1_555
O52 P8 1.517409 1_555
O53 P9 1.517409 1_555
O54 P10 1.517409 1_555
O55 P11 1.517409 1_555
O56 P8 1.540990 1_555
O56 V0 1.957742 1_555
O57 P9 1.540990 1_555
O57 V1 1.957742 1_555
O58 P10 1.540990 1_555
O58 V2 1.957742 1_555
O59 P11 1.540990 1_555
O59 V3 1.957742 1_555
