# generated using pymatgen
data_CeTlTe2
_symmetry_space_group_name_H-M   'P 1'
_cell_length_a   6.92308152
_cell_length_b   6.92308152
_cell_length_c   6.92308152
_cell_angle_alpha   110.40204705
_cell_angle_beta   110.40204705
_cell_angle_gamma   107.62519009
_symmetry_Int_Tables_number   1
_chemical_formula_structural   CeTlTe2
_chemical_formula_sum   'Ce2 Tl2 Te4'
_cell_volume   255.23459300
_cell_formula_units_Z   2
loop_
 _symmetry_equiv_pos_site_id
 _symmetry_equiv_pos_as_xyz
  1  'x, y, z'
loop_
 _atom_site_type_symbol
 _atom_site_label
 _atom_site_symmetry_multiplicity
 _atom_site_fract_x
 _atom_site_fract_y
 _atom_site_fract_z
 _atom_site_occupancy
  Ce  Ce0  1  0.75000000  0.25000000  0.50000000  1
  Ce  Ce1  1  0.25000000  0.75000000  0.50000000  1
  Tl  Tl0  1  0.75000000  0.75000000  0.00000000  1
  Tl  Tl1  1  0.25000000  0.25000000  0.00000000  1
  Te  Te0  1  0.22253200  0.72253200  0.94506300  1
  Te  Te1  1  0.77746800  0.27746800  0.05493700  1
  Te  Te2  1  0.72253200  0.77746800  0.50000000  1
  Te  Te3  1  0.27746800  0.22253200  0.50000000  1
loop_
_geom_bond_atom_site_label_1
_geom_bond_atom_site_label_2
_geom_bond_distance
_geom_bond_site_symmetry_2
Ce0 Te1 3.218898 1_555
Ce0 Te0 3.218903 1_655
Ce0 Te3 3.218904 1_555
Ce0 Te2 3.218904 1_545
Ce0 Te2 3.713708 1_555
Ce0 Te3 3.713708 1_655
Ce0 Te0 3.713711 1_544
Ce0 Te1 3.713715 1_556
Ce0 Tl1 3.950995 1_656
Ce0 Tl0 3.950995 1_545
Ce0 Tl0 3.950995 1_556
Ce0 Tl1 3.950995 1_555
Ce1 Te0 3.218898 1_555
Ce1 Te1 3.218903 1_455
Ce1 Te3 3.218904 1_565
Ce1 Te2 3.218904 1_555
Ce1 Te2 3.713708 1_455
Ce1 Te3 3.713708 1_555
Ce1 Te1 3.713711 1_566
Ce1 Te0 3.713715 1_554
Ce1 Tl0 3.950995 1_455
Ce1 Tl1 3.950995 1_566
Ce1 Tl0 3.950995 1_556
Ce1 Tl1 3.950995 1_555
Te0 Tl1 3.475122 1_566
Te0 Tl0 3.475122 1_556
Te0 Tl0 3.475127 1_456
Te0 Tl1 3.475127 1_556
Te1 Tl1 3.475122 1_555
Te1 Tl0 3.475122 1_545
Te1 Tl0 3.475127 1_555
Te1 Tl1 3.475127 1_655
Te2 Tl1 3.475124 1_555
Te2 Tl0 3.475124 1_556
Te2 Tl0 3.475124 1_555
Te2 Tl1 3.475124 1_666
Te3 Tl1 3.475124 1_556
Te3 Tl0 3.475124 1_445
Te3 Tl0 3.475124 1_556
Te3 Tl1 3.475124 1_555
