# generated using pymatgen
data_ZrSn
_symmetry_space_group_name_H-M   'P 1'
_cell_length_a   6.40875333
_cell_length_b   6.40875333
_cell_length_c   5.24568500
_cell_angle_alpha   90.00000000
_cell_angle_beta   90.00000000
_cell_angle_gamma   119.99999311
_symmetry_Int_Tables_number   1
_chemical_formula_structural   ZrSn
_chemical_formula_sum   'Zr4 Sn4'
_cell_volume   186.58639865
_cell_formula_units_Z   4
loop_
 _symmetry_equiv_pos_site_id
 _symmetry_equiv_pos_as_xyz
  1  'x, y, z'
loop_
 _atom_site_type_symbol
 _atom_site_label
 _atom_site_symmetry_multiplicity
 _atom_site_fract_x
 _atom_site_fract_y
 _atom_site_fract_z
 _atom_site_occupancy
  Zr  Zr0  1  0.99906600  0.49953300  0.00000000  1
  Zr  Zr1  1  0.50046700  0.49953300  0.00000000  1
  Zr  Zr2  1  0.50046700  0.00093400  0.00000000  1
  Zr  Zr3  1  0.33333300  0.66666700  0.50000000  1
  Sn  Sn0  1  0.00000000  0.00000000  0.00000000  1
  Sn  Sn1  1  0.33770700  0.16885400  0.50000000  1
  Sn  Sn2  1  0.83114600  0.16885400  0.50000000  1
  Sn  Sn3  1  0.83114600  0.66229300  0.50000000  1
loop_
_geom_bond_atom_site_label_1
_geom_bond_atom_site_label_2
_geom_bond_distance
_geom_bond_site_symmetry_2
Zr0 Zr1 3.195398 1_555
Zr0 Zr2 3.195398 1_555
Zr0 Zr3 3.212659 1_654
Zr0 Zr3 3.212659 1_655
Zr0 Zr1 3.213355 1_655
Zr0 Zr2 3.213356 1_665
Zr1 Zr2 3.195398 1_555
Zr1 Zr3 3.212663 1_554
Zr1 Zr3 3.212663 1_555
Zr1 Zr2 3.213355 1_565
Zr2 Zr3 3.212659 1_545
Zr2 Zr3 3.212659 1_544
Sn0 Zr2 3.204381 1_455
Sn0 Zr0 3.204381 1_455
Sn0 Zr0 3.204381 1_445
Sn0 Zr2 3.204381 1_555
Sn0 Zr1 3.204381 1_445
Sn0 Zr1 3.204381 1_555
Sn0 Sn1 3.223723 1_555
Sn0 Sn1 3.223723 1_554
Sn0 Sn3 3.223723 1_445
Sn0 Sn3 3.223723 1_444
Sn0 Sn2 3.223726 1_455
Sn0 Sn2 3.223726 1_454
Sn1 Sn2 3.162329 1_555
Sn1 Sn3 3.162329 1_555
Sn1 Zr1 3.201244 1_556
Sn1 Zr1 3.201244 1_555
Sn1 Zr2 3.201247 1_555
Sn1 Zr2 3.201247 1_556
Sn1 Zr3 3.204469 1_555
Sn1 Zr3 3.204469 1_545
Sn1 Sn2 3.246424 1_455
Sn1 Sn3 3.246425 1_445
Sn2 Sn3 3.162329 1_555
Sn2 Zr2 3.201244 1_556
Sn2 Zr2 3.201244 1_555
Sn2 Zr0 3.201244 1_555
Sn2 Zr0 3.201244 1_556
Sn2 Zr3 3.204469 1_545
Sn2 Zr3 3.204469 1_655
Sn2 Sn3 3.246424 1_545
Sn3 Zr1 3.201244 1_555
Sn3 Zr1 3.201244 1_556
Sn3 Zr0 3.201247 1_555
Sn3 Zr0 3.201247 1_556
Sn3 Zr3 3.204469 1_555
Sn3 Zr3 3.204469 1_655
