# generated using pymatgen
data_CdPd5Se
_symmetry_space_group_name_H-M   'P 1'
_cell_length_a   4.03358401
_cell_length_b   4.03358401
_cell_length_c   7.08869211
_cell_angle_alpha   90.00000000
_cell_angle_beta   90.00000000
_cell_angle_gamma   90.00000000
_symmetry_Int_Tables_number   1
_chemical_formula_structural   CdPd5Se
_chemical_formula_sum   'Cd1 Pd5 Se1'
_cell_volume   115.33160265
_cell_formula_units_Z   1
loop_
 _symmetry_equiv_pos_site_id
 _symmetry_equiv_pos_as_xyz
  1  'x, y, z'
loop_
 _atom_site_type_symbol
 _atom_site_label
 _atom_site_symmetry_multiplicity
 _atom_site_fract_x
 _atom_site_fract_y
 _atom_site_fract_z
 _atom_site_occupancy
  Cd  Cd0  1  0.50000000  0.50000000  -0.00000000  1
  Pd  Pd0  1  0.00000000  0.50000000  0.28438582  1
  Pd  Pd1  1  0.00000000  0.50000000  0.71561418  1
  Pd  Pd2  1  0.50000000  -0.00000000  0.28438582  1
  Pd  Pd3  1  0.50000000  0.00000000  0.71561418  1
  Pd  Pd4  1  0.00000000  -0.00000000  -0.00000000  1
  Se  Se0  1  0.00000000  -0.00000000  0.50000000  1
loop_
_geom_bond_atom_site_label_1
_geom_bond_atom_site_label_2
_geom_bond_distance
_geom_bond_site_symmetry_2
Cd0 Pd2 2.851561 1_555
Cd0 Pd2 2.851561 1_565
Cd0 Pd3 2.851561 1_554
Cd0 Pd1 2.851561 1_654
Cd0 Pd3 2.851561 1_564
Cd0 Pd1 2.851561 1_554
Cd0 Pd0 2.851561 1_655
Cd0 Pd0 2.851561 1_555
Cd0 Pd4 2.852175 1_655
Cd0 Pd4 2.852175 1_665
Cd0 Pd4 2.852175 1_565
Cd0 Pd4 2.852175 1_555
Pd0 Se0 2.530519 1_565
Pd0 Se0 2.530519 1_555
Pd0 Pd4 2.851561 1_555
Pd0 Pd4 2.851561 1_565
Pd1 Se0 2.530519 1_565
Pd1 Se0 2.530519 1_555
Pd1 Pd4 2.851561 1_556
Pd1 Pd4 2.851561 1_566
Pd2 Se0 2.530519 1_555
Pd2 Se0 2.530519 1_655
Pd2 Pd4 2.851561 1_555
Pd2 Pd4 2.851561 1_655
Pd3 Se0 2.530519 1_555
Pd3 Se0 2.530519 1_655
Pd3 Pd4 2.851561 1_556
Pd3 Pd4 2.851561 1_656
