# generated using pymatgen
data_Pb2NO5
_symmetry_space_group_name_H-M   'P 1'
_cell_length_a   5.81216000
_cell_length_b   11.67536200
_cell_length_c   15.06787800
_cell_angle_alpha   90.00000000
_cell_angle_beta   90.00000000
_cell_angle_gamma   90.00000000
_symmetry_Int_Tables_number   1
_chemical_formula_structural   Pb2NO5
_chemical_formula_sum   'Pb16 N8 O40'
_cell_volume   1022.49221812
_cell_formula_units_Z   8
loop_
 _symmetry_equiv_pos_site_id
 _symmetry_equiv_pos_as_xyz
  1  'x, y, z'
loop_
 _atom_site_type_symbol
 _atom_site_label
 _atom_site_symmetry_multiplicity
 _atom_site_fract_x
 _atom_site_fract_y
 _atom_site_fract_z
 _atom_site_occupancy
  Pb  Pb0  1  0.73776900  0.38180400  0.33602400  1
  Pb  Pb1  1  0.23776900  0.11819600  0.66397600  1
  Pb  Pb2  1  0.26223100  0.88180400  0.16397600  1
  Pb  Pb3  1  0.76223100  0.61819600  0.83602400  1
  Pb  Pb4  1  0.26223100  0.61819600  0.66397600  1
  Pb  Pb5  1  0.76223100  0.88180400  0.33602400  1
  Pb  Pb6  1  0.73776900  0.11819600  0.83602400  1
  Pb  Pb7  1  0.23776900  0.38180400  0.16397600  1
  Pb  Pb8  1  0.73212900  0.13168200  0.18044400  1
  Pb  Pb9  1  0.23212900  0.36831800  0.81955600  1
  Pb  Pb10  1  0.26787100  0.63168200  0.31955600  1
  Pb  Pb11  1  0.76787100  0.86831800  0.68044400  1
  Pb  Pb12  1  0.26787100  0.86831800  0.81955600  1
  Pb  Pb13  1  0.76787100  0.63168200  0.18044400  1
  Pb  Pb14  1  0.73212900  0.36831800  0.68044400  1
  Pb  Pb15  1  0.23212900  0.13168200  0.31955600  1
  N  N0  1  0.64953100  0.12447300  0.49100400  1
  N  N1  1  0.14953100  0.37552700  0.50899600  1
  N  N2  1  0.35046900  0.62447300  0.00899600  1
  N  N3  1  0.85046900  0.87552700  0.99100400  1
  N  N4  1  0.35046900  0.87552700  0.50899600  1
  N  N5  1  0.85046900  0.62447300  0.49100400  1
  N  N6  1  0.64953100  0.37552700  0.99100400  1
  N  N7  1  0.14953100  0.12447300  0.00899600  1
  O  O0  1  0.47331300  0.25342800  0.24932800  1
  O  O1  1  0.97331300  0.24657200  0.75067200  1
  O  O2  1  0.52668700  0.75342800  0.25067200  1
  O  O3  1  0.02668700  0.74657200  0.74932800  1
  O  O4  1  0.52668700  0.74657200  0.75067200  1
  O  O5  1  0.02668700  0.75342800  0.24932800  1
  O  O6  1  0.47331300  0.24657200  0.74932800  1
  O  O7  1  0.97331300  0.25342800  0.25067200  1
  O  O8  1  0.50596300  0.51022100  0.24487800  1
  O  O9  1  0.00596300  0.98977900  0.75512200  1
  O  O10  1  0.49403700  0.01022100  0.25512200  1
  O  O11  1  0.99403700  0.48977900  0.74487800  1
  O  O12  1  0.49403700  0.48977900  0.75512200  1
  O  O13  1  0.99403700  0.01022100  0.24487800  1
  O  O14  1  0.50596300  0.98977900  0.74487800  1
  O  O15  1  0.00596300  0.51022100  0.25512200  1
  O  O16  1  0.76773800  0.10236700  0.42301600  1
  O  O17  1  0.26773800  0.39763300  0.57698400  1
  O  O18  1  0.23226200  0.60236700  0.07698400  1
  O  O19  1  0.73226200  0.89763300  0.92301600  1
  O  O20  1  0.23226200  0.89763300  0.57698400  1
  O  O21  1  0.73226200  0.60236700  0.42301600  1
  O  O22  1  0.76773800  0.39763300  0.92301600  1
  O  O23  1  0.26773800  0.10236700  0.07698400  1
  O  O24  1  0.46504000  0.18315900  0.48293400  1
  O  O25  1  0.96504000  0.31684100  0.51706600  1
  O  O26  1  0.53496000  0.68315900  0.01706600  1
  O  O27  1  0.03496000  0.81684100  0.98293400  1
  O  O28  1  0.53496000  0.81684100  0.51706600  1
  O  O29  1  0.03496000  0.68315900  0.48293400  1
  O  O30  1  0.46504000  0.31684100  0.98293400  1
  O  O31  1  0.96504000  0.18315900  0.01706600  1
  O  O32  1  0.70740900  0.08969700  0.56710700  1
  O  O33  1  0.20740900  0.41030300  0.43289300  1
  O  O34  1  0.29259100  0.58969700  0.93289300  1
  O  O35  1  0.79259100  0.91030300  0.06710700  1
  O  O36  1  0.29259100  0.91030300  0.43289300  1
  O  O37  1  0.79259100  0.58969700  0.56710700  1
  O  O38  1  0.70740900  0.41030300  0.06710700  1
  O  O39  1  0.20740900  0.08969700  0.93289300  1
loop_
_geom_bond_atom_site_label_1
_geom_bond_atom_site_label_2
_geom_bond_distance
_geom_bond_site_symmetry_2
N0 O16 1.260199 1_555
N0 O32 1.262126 1_555
N0 O24 1.278306 1_555
N1 O17 1.260199 1_555
N1 O33 1.262126 1_555
N1 O25 1.278306 1_455
N2 O18 1.260199 1_555
N2 O34 1.262126 1_554
N2 O26 1.278306 1_555
N3 O19 1.260199 1_555
N3 O35 1.262126 1_556
N3 O27 1.278306 1_655
N4 O20 1.260199 1_555
N4 O36 1.262126 1_555
N4 O28 1.278306 1_555
N5 O21 1.260199 1_555
N5 O37 1.262126 1_555
N5 O29 1.278306 1_655
N6 O22 1.260199 1_555
N6 O38 1.262126 1_556
N6 O30 1.278306 1_555
N7 O23 1.260199 1_555
N7 O39 1.262126 1_554
N7 O31 1.278306 1_455
O0 Pb15 2.259483 1_555
O0 Pb8 2.315303 1_555
O0 Pb7 2.403063 1_555
O0 Pb0 2.513076 1_555
O1 Pb14 2.259483 1_555
O1 Pb9 2.315303 1_655
O1 Pb6 2.403063 1_555
O1 Pb1 2.513076 1_655
O2 Pb13 2.259483 1_555
O2 Pb10 2.315303 1_555
O2 Pb5 2.403063 1_555
O2 Pb2 2.513076 1_555
O3 Pb12 2.259483 1_555
O3 Pb11 2.315303 1_455
O3 Pb4 2.403063 1_555
O3 Pb3 2.513076 1_455
O4 Pb11 2.259483 1_555
O4 Pb12 2.315303 1_555
O4 Pb3 2.403063 1_555
O4 Pb4 2.513076 1_555
O5 Pb10 2.259483 1_555
O5 Pb13 2.315303 1_455
O5 Pb2 2.403063 1_555
O5 Pb5 2.513076 1_455
O6 Pb9 2.259483 1_555
O6 Pb14 2.315303 1_555
O6 Pb1 2.403063 1_555
O6 Pb6 2.513076 1_555
O7 Pb8 2.259483 1_555
O7 Pb15 2.315303 1_655
O7 Pb0 2.403063 1_555
O7 Pb7 2.513076 1_655
O8 Pb10 2.278630 1_555
O8 Pb13 2.295839 1_555
O8 Pb0 2.439121 1_555
O8 Pb7 2.482695 1_555
O9 Pb11 2.278630 1_455
O9 Pb12 2.295839 1_555
O9 Pb1 2.439121 1_565
O9 Pb6 2.482695 1_465
O10 Pb8 2.278630 1_555
O10 Pb15 2.295839 1_555
O10 Pb2 2.439121 1_545
O10 Pb5 2.482695 1_545
O11 Pb9 2.278630 1_655
O11 Pb14 2.295839 1_555
O11 Pb3 2.439121 1_555
O11 Pb4 2.482695 1_655
O12 Pb14 2.278630 1_555
O12 Pb9 2.295839 1_555
O12 Pb4 2.439121 1_555
O12 Pb3 2.482695 1_555
O13 Pb15 2.278630 1_655
O13 Pb8 2.295839 1_555
O13 Pb5 2.439121 1_545
O13 Pb2 2.482695 1_645
O14 Pb12 2.278630 1_555
O14 Pb11 2.295839 1_555
O14 Pb6 2.439121 1_565
O14 Pb1 2.482695 1_565
O15 Pb13 2.278630 1_455
O15 Pb10 2.295839 1_555
O15 Pb7 2.439121 1_555
O15 Pb0 2.482695 1_455
