# generated using pymatgen
data_Ho5Tl3
_symmetry_space_group_name_H-M   'P 1'
_cell_length_a   8.91756965
_cell_length_b   8.91751191
_cell_length_c   6.59912440
_cell_angle_alpha   90.00000000
_cell_angle_beta   90.00000000
_cell_angle_gamma   120.00072295
_symmetry_Int_Tables_number   1
_chemical_formula_structural   Ho5Tl3
_chemical_formula_sum   'Ho10 Tl6'
_cell_volume   454.46871402
_cell_formula_units_Z   2
loop_
 _symmetry_equiv_pos_site_id
 _symmetry_equiv_pos_as_xyz
  1  'x, y, z'
loop_
 _atom_site_type_symbol
 _atom_site_label
 _atom_site_symmetry_multiplicity
 _atom_site_fract_x
 _atom_site_fract_y
 _atom_site_fract_z
 _atom_site_occupancy
  Ho  Ho0  1  0.66665844  0.33334283  0.50000202  1
  Ho  Ho1  1  0.33334156  0.66665817  0.49999798  1
  Ho  Ho2  1  0.33334156  0.66665717  0.00000202  1
  Ho  Ho3  1  0.66665844  0.33334183  -0.00000202  1
  Ho  Ho4  1  0.76351398  0.76351397  0.24999700  1
  Ho  Ho5  1  0.23646430  0.99999270  0.25000200  1
  Ho  Ho6  1  0.99999851  0.23646429  0.25000200  1
  Ho  Ho7  1  0.23648602  0.23648603  0.74999700  1
  Ho  Ho8  1  0.76353570  0.00000730  0.75000200  1
  Ho  Ho9  1  0.00000149  0.76353571  0.75000200  1
  Tl  Tl0  1  0.40228405  0.40229245  0.25000100  1
  Tl  Tl1  1  0.59771359  -0.00002164  0.24999800  1
  Tl  Tl2  1  -0.00001918  0.59771806  0.24999900  1
  Tl  Tl3  1  0.59771595  0.59770755  0.75000100  1
  Tl  Tl4  1  0.40228641  0.00002164  0.74999800  1
  Tl  Tl5  1  0.00001918  0.40228194  0.74999900  1
loop_
_geom_bond_atom_site_label_1
_geom_bond_atom_site_label_2
_geom_bond_distance
_geom_bond_site_symmetry_2
Ho0 Tl3 3.179124 1_555
Ho0 Tl4 3.179175 1_555
Ho0 Tl2 3.179220 1_655
Ho0 Tl0 3.179250 1_555
Ho0 Tl5 3.179528 1_655
Ho0 Tl1 3.179549 1_555
Ho1 Tl0 3.179125 1_555
Ho1 Tl1 3.179184 1_565
Ho1 Tl5 3.179215 1_555
Ho1 Tl3 3.179262 1_555
Ho1 Tl4 3.179528 1_565
Ho1 Tl2 3.179533 1_555
Ho2 Tl0 3.179124 1_555
Ho2 Tl1 3.179175 1_565
Ho2 Tl5 3.179220 1_554
Ho2 Tl3 3.179250 1_554
Ho2 Tl2 3.179528 1_555
Ho2 Tl4 3.179549 1_564
Ho3 Tl3 3.179125 1_554
Ho3 Tl4 3.179184 1_554
Ho3 Tl2 3.179215 1_655
Ho3 Tl0 3.179262 1_555
Ho3 Tl1 3.179528 1_555
Ho3 Tl5 3.179533 1_654
Ho4 Tl2 3.122555 1_655
Ho4 Tl1 3.122562 1_565
Ho4 Tl0 3.221210 1_555
Ho4 Tl3 3.615659 1_554
Ho4 Tl3 3.615708 1_555
Ho5 Tl2 3.122607 1_555
Ho5 Tl0 3.122791 1_565
Ho5 Tl1 3.221530 1_565
Ho5 Tl4 3.615688 1_565
Ho5 Tl4 3.615736 1_564
Ho6 Tl0 3.122690 1_655
Ho6 Tl1 3.122701 1_555
Ho6 Tl2 3.221564 1_655
Ho6 Tl5 3.615689 1_655
Ho6 Tl5 3.615725 1_654
Ho7 Tl5 3.122555 1_555
Ho7 Tl4 3.122562 1_555
Ho7 Tl3 3.221210 1_555
Ho7 Tl0 3.615659 1_555
Ho7 Tl0 3.615708 1_556
Ho8 Tl5 3.122607 1_655
Ho8 Tl3 3.122791 1_545
Ho8 Tl4 3.221530 1_555
Ho8 Tl1 3.615688 1_556
Ho8 Tl1 3.615736 1_555
Ho9 Tl3 3.122690 1_455
Ho9 Tl4 3.122701 1_565
Ho9 Tl5 3.221564 1_555
Ho9 Tl2 3.615689 1_556
Ho9 Tl2 3.615725 1_555
