# generated using pymatgen
data_PrInO3
_symmetry_space_group_name_H-M   'P 1'
_cell_length_a   5.67275125
_cell_length_b   5.96435251
_cell_length_c   8.20708483
_cell_angle_alpha   90.00000000
_cell_angle_beta   90.00000000
_cell_angle_gamma   90.00000000
_symmetry_Int_Tables_number   1
_chemical_formula_structural   PrInO3
_chemical_formula_sum   'Pr4 In4 O12'
_cell_volume   277.68087306
_cell_formula_units_Z   4
loop_
 _symmetry_equiv_pos_site_id
 _symmetry_equiv_pos_as_xyz
  1  'x, y, z'
loop_
 _atom_site_type_symbol
 _atom_site_label
 _atom_site_symmetry_multiplicity
 _atom_site_fract_x
 _atom_site_fract_y
 _atom_site_fract_z
 _atom_site_occupancy
  Pr  Pr0  1  0.01915203  0.93885500  0.25000000  1
  Pr  Pr1  1  0.48084797  0.43885500  0.25000000  1
  Pr  Pr2  1  0.98084797  0.06114500  0.75000000  1
  Pr  Pr3  1  0.51915203  0.56114500  0.75000000  1
  In  In0  1  0.00000000  0.50000000  0.00000000  1
  In  In1  1  0.50000000  0.00000000  0.50000000  1
  In  In2  1  0.00000000  0.50000000  0.50000000  1
  In  In3  1  0.50000000  0.00000000  0.00000000  1
  O  O0  1  0.62008477  0.04900358  0.25000000  1
  O  O1  1  0.87991523  0.54900358  0.25000000  1
  O  O2  1  0.37991523  0.95099642  0.75000000  1
  O  O3  1  0.12008477  0.45099642  0.75000000  1
  O  O4  1  0.30632593  0.69668490  0.06249799  1
  O  O5  1  0.19367407  0.19668490  0.43750201  1
  O  O6  1  0.69367407  0.30331510  0.56249799  1
  O  O7  1  0.80632593  0.80331510  0.93750201  1
  O  O8  1  0.69367407  0.30331510  0.93750201  1
  O  O9  1  0.80632593  0.80331510  0.56249799  1
  O  O10  1  0.30632593  0.69668490  0.43750201  1
  O  O11  1  0.19367407  0.19668490  0.06249799  1
loop_
_geom_bond_atom_site_label_1
_geom_bond_atom_site_label_2
_geom_bond_distance
_geom_bond_site_symmetry_2
In0 O8 2.158447 1_454
In0 O4 2.158447 1_555
In0 O11 2.177825 1_555
In0 O7 2.177825 1_454
In0 O1 2.181568 1_455
In0 O3 2.181568 1_554
In1 O5 2.158447 1_555
In1 O9 2.158447 1_545
In1 O10 2.177825 1_545
In1 O6 2.177825 1_555
In1 O0 2.181568 1_555
In1 O2 2.181568 1_545
In2 O6 2.158447 1_455
In2 O10 2.158447 1_555
In2 O9 2.177825 1_455
In2 O5 2.177825 1_555
In2 O1 2.181568 1_455
In2 O3 2.181568 1_555
In3 O11 2.158447 1_555
In3 O7 2.158447 1_544
In3 O8 2.177825 1_554
In3 O4 2.177825 1_545
In3 O0 2.181568 1_555
In3 O2 2.181568 1_544
O0 Pr0 2.357209 1_645
O0 Pr1 2.455703 1_555
O1 Pr1 2.357209 1_555
O1 Pr0 2.455703 1_655
O2 Pr2 2.357209 1_465
O2 Pr3 2.455703 1_555
O3 Pr3 2.357209 1_555
O3 Pr2 2.455703 1_455
O4 Pr1 2.390183 1_555
O4 Pr0 2.666113 1_555
O4 Pr3 2.947676 1_554
O5 Pr0 2.390183 1_545
O5 Pr1 2.666113 1_555
O5 Pr2 2.947676 1_455
O6 Pr3 2.390183 1_555
O6 Pr2 2.666113 1_555
O6 Pr1 2.947676 1_555
O7 Pr2 2.390183 1_565
O7 Pr3 2.666113 1_555
O7 Pr0 2.947676 1_656
O8 Pr3 2.390183 1_555
O8 Pr2 2.666113 1_555
O8 Pr1 2.947676 1_556
O9 Pr2 2.390183 1_565
O9 Pr3 2.666113 1_555
O9 Pr0 2.947676 1_655
O10 Pr1 2.390183 1_555
O10 Pr0 2.666113 1_555
O10 Pr3 2.947676 1_555
O11 Pr0 2.390183 1_545
O11 Pr1 2.666113 1_555
O11 Pr2 2.947676 1_454
