# generated using pymatgen
data_Mn(NbSe2)4
_symmetry_space_group_name_H-M   'P 1'
_cell_length_a   7.02044176
_cell_length_b   7.02046942
_cell_length_c   13.09151533
_cell_angle_alpha   89.99883107
_cell_angle_beta   90.00121576
_cell_angle_gamma   119.99912172
_symmetry_Int_Tables_number   1
_chemical_formula_structural   Mn(NbSe2)4
_chemical_formula_sum   'Mn2 Nb8 Se16'
_cell_volume   558.79818507
_cell_formula_units_Z   2
loop_
 _symmetry_equiv_pos_site_id
 _symmetry_equiv_pos_as_xyz
  1  'x, y, z'
loop_
 _atom_site_type_symbol
 _atom_site_label
 _atom_site_symmetry_multiplicity
 _atom_site_fract_x
 _atom_site_fract_y
 _atom_site_fract_z
 _atom_site_occupancy
  Mn  Mn0  1  0.00000450  -0.00000250  0.49998615  1
  Mn  Mn1  1  0.00000162  -0.00000013  0.00000561  1
  Nb  Nb0  1  -0.00000508  0.00000711  0.24997469  1
  Nb  Nb1  1  0.00000314  -0.00000329  0.74999349  1
  Nb  Nb2  1  0.50939642  0.01879636  0.24999938  1
  Nb  Nb3  1  0.98120277  0.49059972  0.25000027  1
  Nb  Nb4  1  0.50939673  0.49060509  0.24999510  1
  Nb  Nb5  1  0.49058882  0.98117143  0.75004102  1
  Nb  Nb6  1  0.01883016  0.50941251  0.75004054  1
  Nb  Nb7  1  0.49058817  0.50941293  0.75004191  1
  Se  Se0  1  0.33333547  0.66666314  0.88276671  1
  Se  Se1  1  0.66667183  0.33332497  0.11731423  1
  Se  Se2  1  0.66665347  0.33334526  0.38268044  1
  Se  Se3  1  0.33333944  0.66666317  0.61735224  1
  Se  Se4  1  0.16897032  0.83103443  0.37511214  1
  Se  Se5  1  0.16896229  0.33793442  0.37511718  1
  Se  Se6  1  0.66205227  0.83102326  0.37511654  1
  Se  Se7  1  0.83103739  0.16896494  0.62484282  1
  Se  Se8  1  0.83104563  0.66209157  0.62484821  1
  Se  Se9  1  0.33790998  0.16895345  0.62484876  1
  Se  Se10  1  0.83104456  0.16896067  0.87513488  1
  Se  Se11  1  0.83103069  0.66206289  0.87514500  1
  Se  Se12  1  0.33793739  0.16896624  0.87514478  1
  Se  Se13  1  0.16897427  0.83103667  0.12483348  1
  Se  Se14  1  0.16894653  0.33792066  0.12483146  1
  Se  Se15  1  0.66207919  0.83105405  0.12483195  1
loop_
_geom_bond_atom_site_label_1
_geom_bond_atom_site_label_2
_geom_bond_distance
_geom_bond_site_symmetry_2
Mn0 Se9 2.625396 1_555
Mn0 Se8 2.625401 1_445
Mn0 Se7 2.625514 1_455
Mn0 Se5 2.625605 1_555
Mn0 Se4 2.625629 1_545
Mn0 Se6 2.625675 1_445
Mn1 Se14 2.625206 1_555
Mn1 Se15 2.625213 1_445
Mn1 Se13 2.625224 1_545
Mn1 Se10 2.625488 1_454
Mn1 Se12 2.625558 1_554
Mn1 Se11 2.625566 1_444
Nb0 Se15 2.627729 1_445
Nb0 Se14 2.627731 1_555
Nb0 Se4 2.627807 1_545
Nb0 Se5 2.627819 1_555
Nb0 Se6 2.627883 1_445
Nb0 Se13 2.627908 1_545
Nb1 Se9 2.627736 1_555
Nb1 Se8 2.627737 1_445
Nb1 Se10 2.627780 1_455
Nb1 Se7 2.627848 1_455
Nb1 Se12 2.627887 1_555
Nb1 Se11 2.627895 1_445
Nb2 Se1 2.583455 1_555
Nb2 Se2 2.583539 1_555
Nb2 Se6 2.642330 1_545
Nb2 Se4 2.642343 1_545
Nb2 Se13 2.642726 1_545
Nb2 Se15 2.642772 1_545
Nb3 Se1 2.583466 1_555
Nb3 Se2 2.583529 1_555
Nb3 Se5 2.642304 1_655
Nb3 Se4 2.642381 1_655
Nb3 Se14 2.642772 1_655
Nb3 Se13 2.642812 1_655
Nb4 Se2 2.583364 1_555
Nb4 Se1 2.583561 1_555
Nb4 Se6 2.642382 1_555
Nb4 Se5 2.642457 1_555
Nb4 Se15 2.642831 1_555
Nb4 Se14 2.642832 1_555
Nb5 Se3 2.583424 1_555
Nb5 Se0 2.583720 1_555
Nb5 Se10 2.642305 1_565
Nb5 Se12 2.642369 1_565
Nb5 Se9 2.643089 1_565
Nb5 Se7 2.643150 1_565
Nb6 Se3 2.583421 1_555
Nb6 Se0 2.583703 1_555
Nb6 Se10 2.642298 1_455
Nb6 Se11 2.642393 1_455
Nb6 Se8 2.643102 1_455
Nb6 Se7 2.643145 1_455
Nb7 Se3 2.583323 1_555
Nb7 Se0 2.583712 1_555
Nb7 Se11 2.642314 1_555
Nb7 Se12 2.642341 1_555
Nb7 Se8 2.643149 1_555
Nb7 Se9 2.643160 1_555
