# generated using pymatgen
data_TcRh
_symmetry_space_group_name_H-M   'P 1'
_cell_length_a   5.44411076
_cell_length_b   5.44411076
_cell_length_c   8.66225218
_cell_angle_alpha   90.00000000
_cell_angle_beta   90.00000000
_cell_angle_gamma   119.99999322
_symmetry_Int_Tables_number   1
_chemical_formula_structural   TcRh
_chemical_formula_sum   'Tc8 Rh8'
_cell_volume   222.33886755
_cell_formula_units_Z   8
loop_
 _symmetry_equiv_pos_site_id
 _symmetry_equiv_pos_as_xyz
  1  'x, y, z'
loop_
 _atom_site_type_symbol
 _atom_site_label
 _atom_site_symmetry_multiplicity
 _atom_site_fract_x
 _atom_site_fract_y
 _atom_site_fract_z
 _atom_site_occupancy
  Tc  Tc0_0  1  0.99999998  0.00000001  0.00000000  1
  Tc  Tc0_1  1  0.99999998  0.00000001  0.50000000  1
  Tc  Tc0_2  1  0.99999998  0.50000002  0.00000000  1
  Tc  Tc0_3  1  0.99999998  0.50000002  0.50000000  1
  Tc  Tc0_4  1  0.49999998  0.00000001  0.00000000  1
  Tc  Tc0_5  1  0.49999998  0.00000001  0.50000000  1
  Tc  Tc0_6  1  0.49999998  0.50000001  0.00000000  1
  Tc  Tc0_7  1  0.49999998  0.50000001  0.50000000  1
  Rh  Rh0_0  1  0.16666651  0.33333348  0.25000000  1
  Rh  Rh0_1  1  0.16666651  0.33333348  0.75000000  1
  Rh  Rh0_2  1  0.16666651  0.83333348  0.25000000  1
  Rh  Rh0_3  1  0.16666651  0.83333348  0.75000000  1
  Rh  Rh0_4  1  0.66666651  0.33333348  0.25000000  1
  Rh  Rh0_5  1  0.66666651  0.33333348  0.75000000  1
  Rh  Rh0_6  1  0.66666651  0.83333348  0.25000000  1
  Rh  Rh0_7  1  0.66666651  0.83333348  0.75000000  1
loop_
_geom_bond_atom_site_label_1
_geom_bond_atom_site_label_2
_geom_bond_distance
_geom_bond_site_symmetry_2
Tc0_0 Tc0_4 2.722055 1_655
Tc0_0 Tc0_2 2.722055 1_545
Tc0_0 Tc0_4 2.722055 1_555
Tc0_0 Tc0_2 2.722055 1_555
Tc0_0 Tc0_6 2.722056 1_655
Tc0_0 Tc0_6 2.722056 1_545
Tc0_1 Tc0_5 2.722055 1_655
Tc0_1 Tc0_3 2.722055 1_545
Tc0_1 Tc0_5 2.722055 1_555
Tc0_1 Tc0_3 2.722055 1_555
Tc0_1 Tc0_7 2.722056 1_655
Tc0_1 Tc0_7 2.722056 1_545
Tc0_2 Tc0_6 2.722055 1_655
Tc0_2 Tc0_6 2.722055 1_555
Tc0_2 Tc0_4 2.722056 1_665
Tc0_2 Tc0_4 2.722056 1_555
Tc0_3 Tc0_7 2.722055 1_555
Tc0_3 Tc0_7 2.722055 1_655
Tc0_3 Tc0_5 2.722056 1_665
Tc0_3 Tc0_5 2.722056 1_555
Tc0_4 Tc0_6 2.722055 1_555
Tc0_4 Tc0_6 2.722055 1_545
Tc0_5 Tc0_7 2.722055 1_555
Tc0_5 Tc0_7 2.722055 1_545
Rh0_0 Tc0_2 2.675728 1_455
Rh0_0 Tc0_3 2.675728 1_455
Rh0_0 Tc0_7 2.675729 1_555
Rh0_0 Tc0_6 2.675729 1_555
Rh0_0 Tc0_0 2.675729 1_455
Rh0_0 Tc0_1 2.675729 1_455
Rh0_0 Rh0_4 2.722055 1_455
Rh0_0 Rh0_2 2.722055 1_545
Rh0_0 Rh0_2 2.722055 1_555
Rh0_0 Rh0_4 2.722055 1_555
Rh0_0 Rh0_6 2.722056 1_555
Rh0_0 Rh0_6 2.722056 1_445
Rh0_1 Tc0_3 2.675728 1_455
Rh0_1 Tc0_2 2.675728 1_456
Rh0_1 Tc0_1 2.675729 1_455
Rh0_1 Tc0_7 2.675729 1_555
Rh0_1 Tc0_0 2.675729 1_456
Rh0_1 Tc0_6 2.675729 1_556
Rh0_1 Rh0_5 2.722055 1_455
Rh0_1 Rh0_3 2.722055 1_555
Rh0_1 Rh0_3 2.722055 1_545
Rh0_1 Rh0_5 2.722055 1_555
Rh0_1 Rh0_7 2.722056 1_555
Rh0_1 Rh0_7 2.722056 1_445
Rh0_2 Tc0_1 2.675728 1_465
Rh0_2 Tc0_0 2.675728 1_465
Rh0_2 Tc0_2 2.675729 1_455
Rh0_2 Tc0_4 2.675729 1_565
Rh0_2 Tc0_3 2.675729 1_455
Rh0_2 Tc0_5 2.675729 1_565
Rh0_2 Rh0_6 2.722055 1_555
Rh0_2 Rh0_6 2.722055 1_455
Rh0_2 Rh0_4 2.722056 1_565
Rh0_2 Rh0_4 2.722056 1_455
Rh0_3 Tc0_1 2.675728 1_465
Rh0_3 Tc0_0 2.675728 1_466
Rh0_3 Tc0_2 2.675729 1_456
Rh0_3 Tc0_3 2.675729 1_455
Rh0_3 Tc0_4 2.675729 1_566
Rh0_3 Tc0_5 2.675729 1_565
Rh0_3 Rh0_7 2.722055 1_555
Rh0_3 Rh0_7 2.722055 1_455
Rh0_3 Rh0_5 2.722056 1_565
Rh0_3 Rh0_5 2.722056 1_455
Rh0_4 Tc0_7 2.675728 1_555
Rh0_4 Tc0_6 2.675728 1_555
Rh0_4 Tc0_2 2.675729 1_555
Rh0_4 Tc0_5 2.675729 1_555
Rh0_4 Tc0_4 2.675729 1_555
Rh0_4 Tc0_3 2.675729 1_555
Rh0_4 Rh0_6 2.722055 1_545
Rh0_4 Rh0_6 2.722055 1_555
Rh0_5 Tc0_7 2.675728 1_555
Rh0_5 Tc0_6 2.675728 1_556
Rh0_5 Tc0_5 2.675729 1_555
Rh0_5 Tc0_2 2.675729 1_556
Rh0_5 Tc0_4 2.675729 1_556
Rh0_5 Tc0_3 2.675729 1_555
Rh0_5 Rh0_7 2.722055 1_545
Rh0_5 Rh0_7 2.722055 1_555
Rh0_6 Tc0_4 2.675728 1_565
Rh0_6 Tc0_5 2.675728 1_565
Rh0_6 Tc0_7 2.675729 1_555
Rh0_6 Tc0_6 2.675729 1_555
Rh0_6 Tc0_1 2.675729 1_565
Rh0_6 Tc0_0 2.675729 1_565
Rh0_7 Tc0_4 2.675728 1_566
Rh0_7 Tc0_5 2.675728 1_565
Rh0_7 Tc0_7 2.675729 1_555
Rh0_7 Tc0_6 2.675729 1_556
Rh0_7 Tc0_1 2.675729 1_565
Rh0_7 Tc0_0 2.675729 1_566
