# generated using pymatgen
data_Li2ZnCdP2
_symmetry_space_group_name_H-M   'P 1'
_cell_length_a   7.24425422
_cell_length_b   7.24425422
_cell_length_c   7.24425460
_cell_angle_alpha   33.45617133
_cell_angle_beta   33.45617133
_cell_angle_gamma   33.45617386
_symmetry_Int_Tables_number   1
_chemical_formula_structural   Li2ZnCdP2
_chemical_formula_sum   'Li2 Zn1 Cd1 P2'
_cell_volume   102.90256554
_cell_formula_units_Z   1
loop_
 _symmetry_equiv_pos_site_id
 _symmetry_equiv_pos_as_xyz
  1  'x, y, z'
loop_
 _atom_site_type_symbol
 _atom_site_label
 _atom_site_symmetry_multiplicity
 _atom_site_fract_x
 _atom_site_fract_y
 _atom_site_fract_z
 _atom_site_occupancy
  Li  Li0  1  0.12714294  0.12714294  0.12714294  1
  Li  Li1  1  0.62398141  0.62398141  0.62398141  1
  Zn  Zn0  1  0.87540318  0.87540318  0.87540318  1
  Cd  Cd0  1  0.37534302  0.37534302  0.37534302  1
  P  P0  1  0.99451854  0.99451854  0.99451854  1
  P  P1  1  0.50360991  0.50360991  0.50360991  1
loop_
_geom_bond_atom_site_label_1
_geom_bond_atom_site_label_2
_geom_bond_distance
_geom_bond_site_symmetry_2
Li0 P1 2.564880 1_554
Li0 P1 2.564880 1_455
Li0 P1 2.564880 1_545
Li0 P0 2.718446 1_444
Li0 Zn0 2.931556 1_544
Li0 Zn0 2.931556 1_454
Li0 Zn0 2.931557 1_445
Li1 P1 2.467295 1_555
Li1 P0 2.525561 1_554
Li1 P0 2.525561 1_455
Li1 P0 2.525561 1_545
Li1 Zn0 2.935280 1_455
Li1 Zn0 2.935280 1_545
Li1 Zn0 2.935280 1_554
Cd0 P0 2.597021 1_445
Cd0 P0 2.597022 1_454
Cd0 P0 2.597022 1_544
Cd0 P1 2.629129 1_555
Cd0 Li1 2.968282 1_455
Cd0 Li1 2.968282 1_545
Cd0 Li1 2.968282 1_554
Cd0 Li0 2.973546 1_565
Cd0 Li0 2.973546 1_655
Cd0 Li0 2.973546 1_556
P0 Zn0 2.441547 1_555
P1 Zn0 2.533454 1_554
P1 Zn0 2.533454 1_455
P1 Zn0 2.533454 1_545
