# generated using pymatgen
data_Cu2Sn2Pd
_symmetry_space_group_name_H-M   'P 1'
_cell_length_a   4.41586898
_cell_length_b   4.41586898
_cell_length_c   5.52184500
_cell_angle_alpha   90.00000000
_cell_angle_beta   90.00000000
_cell_angle_gamma   120.00001469
_symmetry_Int_Tables_number   1
_chemical_formula_structural   Cu2Sn2Pd
_chemical_formula_sum   'Cu2 Sn2 Pd1'
_cell_volume   93.24963440
_cell_formula_units_Z   1
loop_
 _symmetry_equiv_pos_site_id
 _symmetry_equiv_pos_as_xyz
  1  'x, y, z'
loop_
 _atom_site_type_symbol
 _atom_site_label
 _atom_site_symmetry_multiplicity
 _atom_site_fract_x
 _atom_site_fract_y
 _atom_site_fract_z
 _atom_site_occupancy
  Cu  Cu0  1  0.33333300  0.66666700  0.70233700  1
  Cu  Cu1  1  0.66666700  0.33333300  0.29766300  1
  Sn  Sn0  1  0.33333300  0.66666700  0.20423100  1
  Sn  Sn1  1  0.66666700  0.33333300  0.79576900  1
  Pd  Pd0  1  0.00000000  0.00000000  0.50000000  1
loop_
_geom_bond_atom_site_label_1
_geom_bond_atom_site_label_2
_geom_bond_distance
_geom_bond_site_symmetry_2
Cu0 Sn1 2.601177 1_455
Cu0 Sn1 2.601177 1_565
Cu0 Sn1 2.601185 1_555
Cu0 Sn0 2.750464 1_555
Cu0 Sn0 2.771381 1_556
Cu0 Pd0 2.783569 1_565
Cu0 Pd0 2.783572 1_665
Cu0 Pd0 2.783572 1_555
Cu1 Sn0 2.601177 1_545
Cu1 Sn0 2.601177 1_655
Cu1 Sn0 2.601185 1_555
Cu1 Sn1 2.750464 1_555
Cu1 Sn1 2.771381 1_554
Cu1 Pd0 2.783569 1_655
Cu1 Pd0 2.783572 1_665
Cu1 Pd0 2.783572 1_555
Pd0 Sn1 3.027749 1_455
Pd0 Sn0 3.027749 1_545
Pd0 Sn1 3.027752 1_555
Pd0 Sn1 3.027752 1_445
Pd0 Sn0 3.027752 1_445
Pd0 Sn0 3.027752 1_555
