# generated using pymatgen
data_Li4Mn3CoO8
_symmetry_space_group_name_H-M   'P 1'
_cell_length_a   3.03048400
_cell_length_b   5.12213682
_cell_length_c   9.84728940
_cell_angle_alpha   86.16151819
_cell_angle_beta   84.87593740
_cell_angle_gamma   86.12336102
_symmetry_Int_Tables_number   1
_chemical_formula_structural   Li4Mn3CoO8
_chemical_formula_sum   'Li4 Mn3 Co1 O8'
_cell_volume   151.61030178
_cell_formula_units_Z   1
loop_
 _symmetry_equiv_pos_site_id
 _symmetry_equiv_pos_as_xyz
  1  'x, y, z'
loop_
 _atom_site_type_symbol
 _atom_site_label
 _atom_site_symmetry_multiplicity
 _atom_site_fract_x
 _atom_site_fract_y
 _atom_site_fract_z
 _atom_site_occupancy
  Li  Li0  1  0.12567900  0.37507100  0.75059900  1
  Li  Li1  1  0.87432100  0.62492900  0.24940100  1
  Li  Li2  1  0.62286300  0.87336800  0.75334600  1
  Li  Li3  1  0.37713700  0.12663200  0.24665400  1
  Mn  Mn0  1  0.75064700  0.24922800  0.49984000  1
  Mn  Mn1  1  0.50000000  0.50000000  0.00000000  1
  Mn  Mn2  1  0.24935300  0.75077200  0.50016000  1
  Co  Co0  1  0.00000000  0.00000000  0.00000000  1
  O  O0  1  0.56711300  0.18604700  0.88808200  1
  O  O1  1  0.33229800  0.44820500  0.38540000  1
  O  O2  1  0.08299300  0.68208500  0.88278300  1
  O  O3  1  0.83263700  0.94693900  0.38499900  1
  O  O4  1  0.66770200  0.55179500  0.61460000  1
  O  O5  1  0.43288700  0.81395300  0.11191800  1
  O  O6  1  0.16736300  0.05306100  0.61500100  1
  O  O7  1  0.91700700  0.31791500  0.11721700  1
loop_
_geom_bond_atom_site_label_1
_geom_bond_atom_site_label_2
_geom_bond_distance
_geom_bond_site_symmetry_2
Li0 O2 2.097733 1_555
Li0 O0 2.129029 1_555
Li0 O4 2.130488 1_455
Li0 O6 2.180810 1_555
Li0 O4 2.226392 1_555
Li0 O0 2.296164 1_455
Li1 O7 2.097733 1_555
Li1 O5 2.129029 1_555
Li1 O1 2.130488 1_655
Li1 O3 2.180810 1_555
Li1 O1 2.226392 1_555
Li1 O5 2.296164 1_655
Li2 O2 2.120027 1_655
Li2 O0 2.135849 1_565
Li2 O6 2.145875 1_565
Li2 O4 2.199117 1_555
Li2 O2 2.222240 1_555
Li2 O6 2.249855 1_665
Li3 O7 2.120027 1_455
Li3 O5 2.135849 1_545
Li3 O3 2.145875 1_545
Li3 O1 2.199117 1_555
Li3 O7 2.222240 1_555
Li3 O3 2.249855 1_445
Mn0 O6 1.955016 1_655
Mn0 O1 1.960288 1_555
Mn0 O3 1.967301 1_545
Mn0 O4 1.968038 1_555
Mn0 O6 2.269292 1_555
Mn0 O1 2.269377 1_655
Mn1 O7 1.938111 1_555
Mn1 O2 1.938111 1_554
Mn1 O5 1.998752 1_555
Mn1 O0 1.998752 1_554
Mn1 O7 2.244551 1_455
Mn1 O2 2.244551 1_654
Mn2 O3 1.955016 1_455
Mn2 O4 1.960288 1_555
Mn2 O6 1.967301 1_565
Mn2 O1 1.968038 1_555
Mn2 O3 2.269292 1_555
Mn2 O4 2.269377 1_455
Co0 O5 1.947382 1_545
Co0 O0 1.947382 1_454
Co0 O7 2.047369 1_455
Co0 O2 2.047369 1_544
Co0 O5 2.195203 1_445
Co0 O0 2.195203 1_554
