# generated using pymatgen
data_ZrTc2
_symmetry_space_group_name_H-M   'P 1'
_cell_length_a   5.21028901
_cell_length_b   5.21028901
_cell_length_c   8.69447167
_cell_angle_alpha   90.00000000
_cell_angle_beta   90.00000000
_cell_angle_gamma   120.07481193
_symmetry_Int_Tables_number   1
_chemical_formula_structural   ZrTc2
_chemical_formula_sum   'Zr4 Tc8'
_cell_volume   204.25352839
_cell_formula_units_Z   4
loop_
 _symmetry_equiv_pos_site_id
 _symmetry_equiv_pos_as_xyz
  1  'x, y, z'
loop_
 _atom_site_type_symbol
 _atom_site_label
 _atom_site_symmetry_multiplicity
 _atom_site_fract_x
 _atom_site_fract_y
 _atom_site_fract_z
 _atom_site_occupancy
  Zr  Zr0  1  0.66656690  0.33343310  0.56232640  1
  Zr  Zr1  1  0.33343310  0.66656690  0.43767360  1
  Zr  Zr2  1  0.33343310  0.66656690  0.06232640  1
  Zr  Zr3  1  0.66656690  0.33343310  0.93767360  1
  Tc  Tc0  1  0.00000000  0.00000000  0.50000000  1
  Tc  Tc1  1  0.00000000  0.00000000  0.00000000  1
  Tc  Tc2  1  0.17172450  0.34363574  0.75000000  1
  Tc  Tc3  1  0.17183464  0.82816536  0.75000000  1
  Tc  Tc4  1  0.65636426  0.82827550  0.75000000  1
  Tc  Tc5  1  0.82827550  0.65636426  0.25000000  1
  Tc  Tc6  1  0.82816536  0.17183464  0.25000000  1
  Tc  Tc7  1  0.34363574  0.17172450  0.25000000  1
loop_
_geom_bond_atom_site_label_1
_geom_bond_atom_site_label_2
_geom_bond_distance
_geom_bond_site_symmetry_2
Tc0 Tc7 2.669317 1_555
Tc0 Tc2 2.669317 1_555
Tc0 Tc4 2.669317 1_445
Tc0 Tc5 2.669317 1_445
Tc0 Tc6 2.670423 1_455
Tc0 Tc3 2.670423 1_545
Tc0 Zr0 3.053906 1_555
Tc0 Zr1 3.053906 1_555
Tc0 Zr1 3.053906 1_445
Tc0 Zr0 3.053906 1_445
Tc0 Zr1 3.058583 1_545
Tc0 Zr0 3.058583 1_455
Tc1 Tc7 2.669317 1_555
Tc1 Tc2 2.669317 1_554
Tc1 Tc4 2.669317 1_444
Tc1 Tc5 2.669317 1_445
Tc1 Tc3 2.670423 1_544
Tc1 Tc6 2.670423 1_455
Tc1 Zr2 3.053906 1_555
Tc1 Zr3 3.053906 1_554
Tc1 Zr3 3.053906 1_444
Tc1 Zr2 3.053906 1_445
Tc1 Zr2 3.058583 1_545
Tc1 Zr3 3.058583 1_454
Tc2 Tc4 2.522257 1_555
Tc2 Tc3 2.524252 1_555
Tc2 Tc4 2.682139 1_445
Tc2 Tc3 2.686037 1_545
Tc2 Zr3 3.074118 1_555
Tc2 Zr0 3.074118 1_555
Tc2 Zr3 3.074513 1_455
Tc2 Zr0 3.074513 1_455
Tc2 Zr2 3.081246 1_556
Tc2 Zr1 3.081246 1_555
Tc3 Tc4 2.524252 1_555
Tc3 Tc4 2.686037 1_455
Tc3 Zr3 3.071842 1_565
Tc3 Zr0 3.071842 1_565
Tc3 Zr3 3.071842 1_455
Tc3 Zr0 3.071842 1_455
Tc3 Zr2 3.082593 1_556
Tc3 Zr1 3.082593 1_555
Tc4 Zr3 3.074118 1_555
Tc4 Zr0 3.074118 1_555
Tc4 Zr0 3.074513 1_565
Tc4 Zr3 3.074513 1_565
Tc4 Zr2 3.081246 1_556
Tc4 Zr1 3.081246 1_555
Tc5 Tc7 2.522257 1_555
Tc5 Tc6 2.524252 1_555
Tc5 Tc7 2.682139 1_665
Tc5 Tc6 2.686037 1_565
Tc5 Zr2 3.074118 1_555
Tc5 Zr1 3.074118 1_555
Tc5 Zr2 3.074513 1_655
Tc5 Zr1 3.074513 1_655
Tc5 Zr3 3.081246 1_554
Tc5 Zr0 3.081246 1_555
Tc6 Tc7 2.524252 1_555
Tc6 Tc7 2.686037 1_655
Tc6 Zr1 3.071842 1_655
Tc6 Zr2 3.071842 1_655
Tc6 Zr2 3.071842 1_545
Tc6 Zr1 3.071842 1_545
Tc6 Zr3 3.082593 1_554
Tc6 Zr0 3.082593 1_555
Tc7 Zr2 3.074118 1_555
Tc7 Zr1 3.074118 1_555
Tc7 Zr2 3.074513 1_545
Tc7 Zr1 3.074513 1_545
Tc7 Zr3 3.081246 1_554
Tc7 Zr0 3.081246 1_555
