# generated using pymatgen
data_HoSiPt2
_symmetry_space_group_name_H-M   'P 1'
_cell_length_a   5.49120550
_cell_length_b   6.91920463
_cell_length_c   7.26311212
_cell_angle_alpha   90.00000000
_cell_angle_beta   89.99998123
_cell_angle_gamma   90.00000000
_symmetry_Int_Tables_number   1
_chemical_formula_structural   HoSiPt2
_chemical_formula_sum   'Ho4 Si4 Pt8'
_cell_volume   275.96030731
_cell_formula_units_Z   4
loop_
 _symmetry_equiv_pos_site_id
 _symmetry_equiv_pos_as_xyz
  1  'x, y, z'
loop_
 _atom_site_type_symbol
 _atom_site_label
 _atom_site_symmetry_multiplicity
 _atom_site_fract_x
 _atom_site_fract_y
 _atom_site_fract_z
 _atom_site_occupancy
  Ho  Ho0  1  0.36273181  0.75000000  0.02613991  1
  Ho  Ho1  1  0.13726719  0.75000000  0.52613991  1
  Ho  Ho2  1  0.63726819  0.25000000  0.97386009  1
  Ho  Ho3  1  0.86273281  0.25000000  0.47386009  1
  Si  Si0  1  0.63620954  0.75000000  0.37888860  1
  Si  Si1  1  0.86378946  0.75000000  0.87888860  1
  Si  Si2  1  0.36379046  0.25000000  0.62111140  1
  Si  Si3  1  0.13621054  0.25000000  0.12111140  1
  Pt  Pt0  1  0.90911669  0.55064185  0.18150712  1
  Pt  Pt1  1  0.59088331  0.94935815  0.68150512  1
  Pt  Pt2  1  0.09088331  0.05064185  0.81849288  1
  Pt  Pt3  1  0.40911669  0.44935815  0.31849488  1
  Pt  Pt4  1  0.09088331  0.44935815  0.81849288  1
  Pt  Pt5  1  0.40911669  0.05064185  0.31849488  1
  Pt  Pt6  1  0.90911669  0.94935815  0.18150712  1
  Pt  Pt7  1  0.59088331  0.55064185  0.68150512  1
loop_
_geom_bond_atom_site_label_1
_geom_bond_atom_site_label_2
_geom_bond_distance
_geom_bond_site_symmetry_2
Ho0 Si1 2.941142 1_454
Ho0 Si1 2.951964 1_554
Ho0 Si0 2.969729 1_555
Ho0 Pt4 2.971562 1_554
Ho0 Pt2 2.971562 1_564
Ho0 Pt3 2.983450 1_555
Ho0 Pt5 2.983450 1_565
Ho0 Pt6 3.062792 1_455
Ho0 Pt0 3.062792 1_455
Ho0 Pt7 3.120566 1_554
Ho0 Pt1 3.120566 1_554
Ho1 Si0 2.941141 1_555
Ho1 Si0 2.951965 1_455
Ho1 Si1 2.969728 1_455
Ho1 Pt3 2.971557 1_555
Ho1 Pt5 2.971557 1_565
Ho1 Pt4 2.983439 1_555
Ho1 Pt2 2.983439 1_565
Ho1 Pt7 3.062791 1_555
Ho1 Pt1 3.062791 1_555
Ho1 Pt6 3.120553 1_455
Ho1 Pt0 3.120553 1_455
Ho2 Si3 2.941142 1_656
Ho2 Si3 2.951964 1_556
Ho2 Si2 2.969729 1_555
Ho2 Pt0 2.971562 1_556
Ho2 Pt6 2.971562 1_546
Ho2 Pt1 2.983450 1_545
Ho2 Pt7 2.983450 1_555
Ho2 Pt4 3.062792 1_655
Ho2 Pt2 3.062792 1_655
Ho2 Pt3 3.120566 1_556
Ho2 Pt5 3.120566 1_556
Ho3 Si2 2.941141 1_555
Ho3 Si2 2.951965 1_655
Ho3 Si3 2.969728 1_655
Ho3 Pt1 2.971557 1_545
Ho3 Pt7 2.971557 1_555
Ho3 Pt0 2.983439 1_555
Ho3 Pt6 2.983439 1_545
Ho3 Pt3 3.062791 1_555
Ho3 Pt5 3.062791 1_555
Ho3 Pt2 3.120553 1_655
Ho3 Pt4 3.120553 1_655
Pt0 Si3 2.464695 1_655
Pt0 Si0 2.490729 1_555
Pt0 Si1 2.606854 1_554
Pt1 Si2 2.464690 1_565
Pt1 Si1 2.490735 1_555
Pt1 Si0 2.606842 1_555
Pt2 Si1 2.464695 1_445
Pt2 Si2 2.490729 1_555
Pt2 Si3 2.606854 1_556
Pt3 Si0 2.464690 1_555
Pt3 Si3 2.490735 1_555
Pt3 Si2 2.606842 1_555
Pt4 Si1 2.464695 1_455
Pt4 Si2 2.490729 1_555
Pt4 Si3 2.606854 1_556
Pt5 Si0 2.464690 1_545
Pt5 Si3 2.490735 1_555
Pt5 Si2 2.606842 1_555
Pt6 Si3 2.464695 1_665
Pt6 Si0 2.490729 1_555
Pt6 Si1 2.606854 1_554
Pt7 Si2 2.464690 1_555
Pt7 Si1 2.490735 1_555
Pt7 Si0 2.606842 1_555
