# generated using pymatgen
data_Na4Sn2Ge5O17
_symmetry_space_group_name_H-M   'P 1'
_cell_length_a   5.45547400
_cell_length_b   7.08440400
_cell_length_c   20.43233033
_cell_angle_alpha   86.75270129
_cell_angle_beta   90.00000000
_cell_angle_gamma   90.00000000
_symmetry_Int_Tables_number   1
_chemical_formula_structural   Na4Sn2Ge5O17
_chemical_formula_sum   'Na8 Sn4 Ge10 O34'
_cell_volume   788.41671381
_cell_formula_units_Z   2
loop_
 _symmetry_equiv_pos_site_id
 _symmetry_equiv_pos_as_xyz
  1  'x, y, z'
loop_
 _atom_site_type_symbol
 _atom_site_label
 _atom_site_symmetry_multiplicity
 _atom_site_fract_x
 _atom_site_fract_y
 _atom_site_fract_z
 _atom_site_occupancy
  Na  Na0  1  0.76636900  0.20945000  0.54037300  1
  Na  Na1  1  0.76636900  0.79055000  0.45962700  1
  Na  Na2  1  0.01176600  0.60606400  0.77899400  1
  Na  Na3  1  0.01176600  0.39393600  0.22100600  1
  Na  Na4  1  0.77043000  0.30149700  0.95977300  1
  Na  Na5  1  0.77043000  0.69850300  0.04022700  1
  Na  Na6  1  0.52516900  0.88133000  0.72315300  1
  Na  Na7  1  0.52516900  0.11867000  0.27684700  1
  Sn  Sn0  1  0.01060500  0.04676000  0.84019500  1
  Sn  Sn1  1  0.01060500  0.95324000  0.15980500  1
  Sn  Sn2  1  0.52977200  0.45466100  0.66089300  1
  Sn  Sn3  1  0.52977200  0.54533900  0.33910700  1
  Ge  Ge0  1  0.05079900  0.14045300  0.67429200  1
  Ge  Ge1  1  0.05079900  0.85954700  0.32570800  1
  Ge  Ge2  1  0.52096900  0.76837100  0.88489100  1
  Ge  Ge3  1  0.52096900  0.23162900  0.11510900  1
  Ge  Ge4  1  0.48748100  0.35960000  0.82667700  1
  Ge  Ge5  1  0.48748100  0.64040000  0.17332300  1
  Ge  Ge6  1  0.02321600  0.73297000  0.61559100  1
  Ge  Ge7  1  0.02321600  0.26703000  0.38440900  1
  Ge  Ge8  1  0.27662000  0.00000000  0.00000000  1
  Ge  Ge9  1  0.26853400  0.50000000  0.50000000  1
  O  O0  1  0.48650600  0.51690800  0.89370100  1
  O  O1  1  0.48650600  0.48309200  0.10629900  1
  O  O2  1  0.48006100  0.82982400  0.96822500  1
  O  O3  1  0.48006100  0.17017600  0.03177500  1
  O  O4  1  0.09776600  0.10722600  0.93745100  1
  O  O5  1  0.09776600  0.89277400  0.06254900  1
  O  O6  1  0.60490100  0.49748800  0.75891700  1
  O  O7  1  0.60490100  0.50251200  0.24108300  1
  O  O8  1  0.23146100  0.63803500  0.67428600  1
  O  O9  1  0.23146100  0.36196500  0.32571400  1
  O  O10  1  0.71594000  0.70677100  0.63949000  1
  O  O11  1  0.71594000  0.29322900  0.36051000  1
  O  O12  1  0.45378200  0.40987200  0.56334000  1
  O  O13  1  0.45378200  0.59012800  0.43666000  1
  O  O14  1  0.36207600  0.19796200  0.68718100  1
  O  O15  1  0.36207600  0.80203800  0.31281900  1
  O  O16  1  0.67826600  0.17782900  0.85920700  1
  O  O17  1  0.67826600  0.82217100  0.14079300  1
  O  O18  1  0.83431900  0.79460900  0.86531000  1
  O  O19  1  0.83431900  0.20539100  0.13469000  1
  O  O20  1  0.17604300  0.30336000  0.81425600  1
  O  O21  1  0.17604300  0.69664000  0.18574400  1
  O  O22  1  0.92634800  0.00673100  0.74239000  1
  O  O23  1  0.92634800  0.99326900  0.25761000  1
  O  O24  1  0.86368500  0.32468700  0.64190800  1
  O  O25  1  0.86368500  0.67531300  0.35809200  1
  O  O26  1  0.05472900  0.98614300  0.60581200  1
  O  O27  1  0.05472900  0.01385700  0.39418800  1
  O  O28  1  0.06323400  0.67171200  0.53169000  1
  O  O29  1  0.06323400  0.32828800  0.46831000  1
  O  O30  1  0.31433400  0.86872400  0.82691400  1
  O  O31  1  0.31433400  0.13127600  0.17308600  1
  O  O32  1  0.46066000  0.00000000  0.50000000  1
  O  O33  1  0.08783600  0.50000000  0.00000000  1
loop_
_geom_bond_atom_site_label_1
_geom_bond_atom_site_label_2
_geom_bond_distance
_geom_bond_site_symmetry_2
Na0 O12 2.284691 1_555
Na0 O29 2.315009 1_655
Na0 O24 2.333276 1_555
Na0 O32 2.408821 1_555
Na0 O26 2.554527 1_645
Na1 O13 2.284691 1_555
Na1 O28 2.315009 1_655
Na1 O25 2.333276 1_555
Na1 O32 2.408821 1_565
Na1 O27 2.554527 1_665
Na2 O6 2.392175 1_455
Na2 O20 2.397088 1_555
Na2 O8 2.451541 1_555
Na2 O18 2.469536 1_455
Na2 O30 2.711507 1_555
Na2 O22 2.931384 1_465
Na3 O7 2.392175 1_455
Na3 O21 2.397088 1_555
Na3 O9 2.451541 1_555
Na3 O19 2.469536 1_455
Na3 O31 2.711507 1_555
Na3 O23 2.931384 1_445
Na4 O4 2.315665 1_655
Na4 O3 2.320381 1_556
Na4 O16 2.333780 1_555
Na4 O33 2.404698 1_656
Na4 O0 2.513400 1_555
Na5 O5 2.315665 1_655
Na5 O2 2.320381 1_554
Na5 O17 2.333780 1_555
Na5 O33 2.404698 1_655
Na5 O1 2.513400 1_555
Na6 O22 2.402781 1_565
Na6 O10 2.402934 1_555
Na6 O30 2.409197 1_555
Na6 O14 2.485317 1_565
Na6 O8 2.594248 1_555
Na6 O6 2.809380 1_555
Na7 O23 2.402781 1_545
Na7 O11 2.402934 1_555
Na7 O31 2.409197 1_555
Na7 O15 2.485317 1_545
Na7 O9 2.594248 1_555
Na7 O7 2.809380 1_555
Ge0 O24 1.756565 1_455
Ge0 O14 1.769536 1_555
Ge0 O22 1.773436 1_455
Ge0 O26 1.823897 1_545
Ge1 O25 1.756565 1_455
Ge1 O15 1.769536 1_555
Ge1 O23 1.773436 1_455
Ge1 O27 1.823897 1_565
Ge2 O30 1.756161 1_555
Ge2 O18 1.763092 1_555
Ge2 O0 1.790263 1_555
Ge2 O2 1.795143 1_555
Ge3 O31 1.756161 1_555
Ge3 O19 1.763092 1_555
Ge3 O1 1.790263 1_555
Ge3 O3 1.795143 1_555
Ge4 O16 1.756814 1_555
Ge4 O20 1.766735 1_555
Ge4 O6 1.768670 1_555
Ge4 O0 1.813919 1_555
Ge5 O17 1.756814 1_555
Ge5 O21 1.766735 1_555
Ge5 O7 1.768670 1_555
Ge5 O1 1.813919 1_555
Ge6 O10 1.752921 1_455
Ge6 O8 1.757807 1_555
Ge6 O26 1.801612 1_555
Ge6 O28 1.805293 1_555
Ge7 O11 1.752921 1_455
Ge7 O9 1.757807 1_555
Ge7 O27 1.801612 1_555
Ge7 O29 1.805293 1_555
Ge8 O5 1.747126 1_545
Ge8 O4 1.747126 1_554
Ge8 O3 1.787582 1_555
Ge8 O2 1.787582 1_544
Ge9 O13 1.735029 1_555
Ge9 O12 1.735029 1_555
Ge9 O28 1.800758 1_555
Ge9 O29 1.800758 1_555
O4 Sn0 2.110656 1_555
O5 Sn1 2.110656 1_555
O6 Sn2 2.083346 1_555
O7 Sn3 2.083346 1_555
O8 Sn2 2.109818 1_555
O9 Sn3 2.109818 1_555
O10 Sn2 2.079481 1_555
O11 Sn3 2.079481 1_555
O12 Sn2 2.077783 1_555
O13 Sn3 2.077783 1_555
O14 Sn2 2.078935 1_555
O15 Sn3 2.078935 1_555
O16 Sn0 2.083548 1_655
O17 Sn1 2.083548 1_655
O18 Sn0 2.067704 1_665
O19 Sn1 2.067704 1_645
O20 Sn0 2.071457 1_555
O21 Sn1 2.071457 1_555
O22 Sn0 2.085533 1_655
O23 Sn1 2.085533 1_655
O24 Sn2 2.087393 1_555
O25 Sn3 2.087393 1_555
O30 Sn0 2.109227 1_565
O31 Sn1 2.109227 1_545
