# generated using pymatgen
data_YMg30SnO32
_symmetry_space_group_name_H-M   'P 1'
_cell_length_a   8.69032800
_cell_length_b   8.69032800
_cell_length_c   8.68277400
_cell_angle_alpha   90.00000000
_cell_angle_beta   90.00000000
_cell_angle_gamma   90.00000000
_symmetry_Int_Tables_number   1
_chemical_formula_structural   YMg30SnO32
_chemical_formula_sum   'Y1 Mg30 Sn1 O32'
_cell_volume   655.73872796
_cell_formula_units_Z   1
loop_
 _symmetry_equiv_pos_site_id
 _symmetry_equiv_pos_as_xyz
  1  'x, y, z'
loop_
 _atom_site_type_symbol
 _atom_site_label
 _atom_site_symmetry_multiplicity
 _atom_site_fract_x
 _atom_site_fract_y
 _atom_site_fract_z
 _atom_site_occupancy
  Y  Y0  1  0.00000000  0.00000000  0.00000000  1
  Mg  Mg0  1  0.50000000  0.00000000  0.00000000  1
  Mg  Mg1  1  0.00000000  0.50000000  0.00000000  1
  Mg  Mg2  1  0.00000000  0.00000000  0.50000000  1
  Mg  Mg3  1  0.50000000  0.00000000  0.50000000  1
  Mg  Mg4  1  0.00000000  0.50000000  0.50000000  1
  Mg  Mg5  1  0.50000000  0.50000000  0.50000000  1
  Mg  Mg6  1  0.25261400  0.25261400  0.00000000  1
  Mg  Mg7  1  0.74738600  0.25261400  0.00000000  1
  Mg  Mg8  1  0.25261400  0.74738600  0.00000000  1
  Mg  Mg9  1  0.74738600  0.74738600  0.00000000  1
  Mg  Mg10  1  0.25070600  0.25070600  0.50000000  1
  Mg  Mg11  1  0.74929400  0.25070600  0.50000000  1
  Mg  Mg12  1  0.25070600  0.74929400  0.50000000  1
  Mg  Mg13  1  0.74929400  0.74929400  0.50000000  1
  Mg  Mg14  1  0.25616100  0.00000000  0.25667700  1
  Mg  Mg15  1  0.74383900  0.00000000  0.25667700  1
  Mg  Mg16  1  0.24692400  0.50000000  0.25497400  1
  Mg  Mg17  1  0.75307600  0.50000000  0.25497400  1
  Mg  Mg18  1  0.25616100  0.00000000  0.74332300  1
  Mg  Mg19  1  0.74383900  0.00000000  0.74332300  1
  Mg  Mg20  1  0.24692400  0.50000000  0.74502600  1
  Mg  Mg21  1  0.75307600  0.50000000  0.74502600  1
  Mg  Mg22  1  0.00000000  0.25616100  0.25667700  1
  Mg  Mg23  1  0.50000000  0.24692400  0.25497400  1
  Mg  Mg24  1  0.00000000  0.74383900  0.25667700  1
  Mg  Mg25  1  0.50000000  0.75307600  0.25497400  1
  Mg  Mg26  1  0.00000000  0.25616100  0.74332300  1
  Mg  Mg27  1  0.50000000  0.24692400  0.74502600  1
  Mg  Mg28  1  0.00000000  0.74383900  0.74332300  1
  Mg  Mg29  1  0.50000000  0.75307600  0.74502600  1
  Sn  Sn0  1  0.50000000  0.50000000  0.00000000  1
  O  O0  1  0.00000000  0.00000000  0.25897300  1
  O  O1  1  0.50000000  0.00000000  0.25441200  1
  O  O2  1  0.00000000  0.50000000  0.25441200  1
  O  O3  1  0.50000000  0.50000000  0.27144800  1
  O  O4  1  0.00000000  0.00000000  0.74102700  1
  O  O5  1  0.50000000  0.00000000  0.74558800  1
  O  O6  1  0.00000000  0.50000000  0.74558800  1
  O  O7  1  0.50000000  0.50000000  0.72855200  1
  O  O8  1  0.25014500  0.25014500  0.24879900  1
  O  O9  1  0.74985500  0.25014500  0.24879900  1
  O  O10  1  0.25014500  0.74985500  0.24879900  1
  O  O11  1  0.74985500  0.74985500  0.24879900  1
  O  O12  1  0.25014500  0.25014500  0.75120100  1
  O  O13  1  0.74985500  0.25014500  0.75120100  1
  O  O14  1  0.25014500  0.74985500  0.75120100  1
  O  O15  1  0.74985500  0.74985500  0.75120100  1
  O  O16  1  0.25650900  0.00000000  0.00000000  1
  O  O17  1  0.74349100  0.00000000  0.00000000  1
  O  O18  1  0.22902900  0.50000000  0.00000000  1
  O  O19  1  0.77097100  0.50000000  0.00000000  1
  O  O20  1  0.25075100  0.00000000  0.50000000  1
  O  O21  1  0.74924900  0.00000000  0.50000000  1
  O  O22  1  0.24653600  0.50000000  0.50000000  1
  O  O23  1  0.75346400  0.50000000  0.50000000  1
  O  O24  1  0.00000000  0.25650900  0.00000000  1
  O  O25  1  0.50000000  0.22902900  0.00000000  1
  O  O26  1  0.00000000  0.74349100  0.00000000  1
  O  O27  1  0.50000000  0.77097100  0.00000000  1
  O  O28  1  0.00000000  0.25075100  0.50000000  1
  O  O29  1  0.50000000  0.24653600  0.50000000  1
  O  O30  1  0.00000000  0.74924900  0.50000000  1
  O  O31  1  0.50000000  0.75346400  0.50000000  1
loop_
_geom_bond_atom_site_label_1
_geom_bond_atom_site_label_2
_geom_bond_distance
_geom_bond_site_symmetry_2
Mg0 O25 1.990337 1_555
Mg0 O27 1.990337 1_545
Mg0 O17 2.116017 1_555
Mg0 O16 2.116017 1_555
Mg0 O1 2.209002 1_555
Mg0 O5 2.209002 1_554
Mg1 O18 1.990337 1_555
Mg1 O19 1.990337 1_455
Mg1 O24 2.116017 1_555
Mg1 O26 2.116017 1_555
Mg1 O2 2.209002 1_555
Mg1 O6 2.209002 1_554
Mg2 O4 2.092783 1_555
Mg2 O0 2.092783 1_555
Mg2 O28 2.179108 1_555
Mg2 O20 2.179108 1_555
Mg2 O30 2.179108 1_545
Mg2 O21 2.179108 1_455
Mg3 O5 2.132385 1_555
Mg3 O1 2.132385 1_555
Mg3 O29 2.142479 1_555
Mg3 O31 2.142479 1_545
Mg3 O21 2.166056 1_555
Mg3 O20 2.166056 1_555
Mg4 O6 2.132385 1_555
Mg4 O2 2.132385 1_555
Mg4 O22 2.142479 1_555
Mg4 O23 2.142479 1_455
Mg4 O30 2.166056 1_555
Mg4 O28 2.166056 1_555
Mg5 O7 1.984465 1_555
Mg5 O3 1.984465 1_555
Mg5 O23 2.202685 1_555
Mg5 O31 2.202685 1_555
Mg5 O22 2.202685 1_555
Mg5 O29 2.202685 1_555
Mg6 O25 2.159614 1_555
Mg6 O18 2.159614 1_555
Mg6 O12 2.160479 1_554
Mg6 O8 2.160479 1_555
Mg6 O24 2.195559 1_555
Mg6 O16 2.195559 1_555
Mg7 O19 2.159614 1_555
Mg7 O25 2.159614 1_555
Mg7 O9 2.160479 1_555
Mg7 O13 2.160479 1_554
Mg7 O24 2.195559 1_655
Mg7 O17 2.195559 1_555
Mg8 O27 2.159614 1_555
Mg8 O18 2.159614 1_555
Mg8 O10 2.160479 1_555
Mg8 O14 2.160479 1_554
Mg8 O16 2.195559 1_565
Mg8 O26 2.195559 1_555
Mg9 O19 2.159614 1_555
Mg9 O27 2.159614 1_555
Mg9 O15 2.160479 1_554
Mg9 O11 2.160479 1_555
Mg9 O17 2.195559 1_565
Mg9 O26 2.195559 1_655
Mg10 O22 2.166750 1_555
Mg10 O29 2.166750 1_555
Mg10 O20 2.178717 1_555
Mg10 O28 2.178717 1_555
Mg10 O8 2.181132 1_555
Mg10 O12 2.181132 1_555
Mg11 O23 2.166750 1_555
Mg11 O29 2.166750 1_555
Mg11 O21 2.178717 1_555
Mg11 O28 2.178717 1_655
Mg11 O9 2.181132 1_555
Mg11 O13 2.181132 1_555
Mg12 O31 2.166750 1_555
Mg12 O22 2.166750 1_555
Mg12 O30 2.178717 1_555
Mg12 O20 2.178717 1_565
Mg12 O10 2.181132 1_555
Mg12 O14 2.181132 1_555
Mg13 O23 2.166750 1_555
Mg13 O31 2.166750 1_555
Mg13 O21 2.178717 1_565
Mg13 O30 2.178717 1_655
Mg13 O15 2.181132 1_555
Mg13 O11 2.181132 1_555
Mg14 O20 2.113242 1_555
Mg14 O1 2.119132 1_555
Mg14 O8 2.175546 1_555
Mg14 O10 2.175546 1_545
Mg14 O0 2.226212 1_555
Mg14 O16 2.228670 1_555
Mg15 O21 2.113242 1_555
Mg15 O1 2.119132 1_555
Mg15 O9 2.175546 1_555
Mg15 O11 2.175546 1_545
Mg15 O0 2.226212 1_655
Mg15 O17 2.228670 1_555
Mg16 O22 2.127508 1_555
Mg16 O2 2.145856 1_555
Mg16 O10 2.172164 1_555
Mg16 O8 2.172164 1_555
Mg16 O3 2.203960 1_555
Mg16 O18 2.219337 1_555
Mg17 O23 2.127508 1_555
Mg17 O2 2.145856 1_655
Mg17 O11 2.172164 1_555
Mg17 O9 2.172164 1_555
Mg17 O3 2.203960 1_555
Mg17 O19 2.219337 1_555
Mg18 O20 2.113242 1_555
Mg18 O5 2.119132 1_555
Mg18 O12 2.175546 1_555
Mg18 O14 2.175546 1_545
Mg18 O4 2.226212 1_555
Mg18 O16 2.228670 1_556
Mg19 O21 2.113242 1_555
Mg19 O5 2.119132 1_555
Mg19 O13 2.175546 1_555
Mg19 O15 2.175546 1_545
Mg19 O4 2.226212 1_655
Mg19 O17 2.228670 1_556
Mg20 O22 2.127508 1_555
Mg20 O6 2.145856 1_555
Mg20 O14 2.172164 1_555
Mg20 O12 2.172164 1_555
Mg20 O7 2.203960 1_555
Mg20 O18 2.219337 1_556
Mg21 O23 2.127508 1_555
Mg21 O6 2.145856 1_655
Mg21 O15 2.172164 1_555
Mg21 O13 2.172164 1_555
Mg21 O7 2.203960 1_555
Mg21 O19 2.219337 1_556
Mg22 O28 2.113242 1_555
Mg22 O2 2.119132 1_555
Mg22 O8 2.175546 1_555
Mg22 O9 2.175546 1_455
Mg22 O0 2.226212 1_555
Mg22 O24 2.228670 1_555
Mg23 O29 2.127508 1_555
Mg23 O1 2.145856 1_555
Mg23 O9 2.172164 1_555
Mg23 O8 2.172164 1_555
Mg23 O3 2.203960 1_555
Mg23 O25 2.219337 1_555
Mg24 O30 2.113242 1_555
Mg24 O2 2.119132 1_555
Mg24 O10 2.175546 1_555
Mg24 O11 2.175546 1_455
Mg24 O0 2.226212 1_565
Mg24 O26 2.228670 1_555
Mg25 O31 2.127508 1_555
Mg25 O1 2.145856 1_565
Mg25 O11 2.172164 1_555
Mg25 O10 2.172164 1_555
Mg25 O3 2.203960 1_555
Mg25 O27 2.219337 1_555
Mg26 O28 2.113242 1_555
Mg26 O6 2.119132 1_555
Mg26 O12 2.175546 1_555
Mg26 O13 2.175546 1_455
Mg26 O4 2.226212 1_555
Mg26 O24 2.228670 1_556
Mg27 O29 2.127508 1_555
Mg27 O5 2.145856 1_555
Mg27 O13 2.172164 1_555
Mg27 O12 2.172164 1_555
Mg27 O7 2.203960 1_555
Mg27 O25 2.219337 1_556
Mg28 O30 2.113242 1_555
Mg28 O6 2.119132 1_555
Mg28 O14 2.175546 1_555
Mg28 O15 2.175546 1_455
Mg28 O4 2.226212 1_565
Mg28 O26 2.228670 1_556
Mg29 O31 2.127508 1_555
Mg29 O5 2.145856 1_565
Mg29 O15 2.172164 1_555
Mg29 O14 2.172164 1_555
Mg29 O7 2.203960 1_555
Mg29 O27 2.219337 1_556
O0 Y0 2.248604 1_555
O3 Sn0 2.356922 1_555
O4 Y0 2.248604 1_556
O7 Sn0 2.356922 1_556
O16 Y0 2.229147 1_555
O17 Y0 2.229147 1_655
O18 Sn0 2.354827 1_555
O19 Sn0 2.354827 1_555
O24 Y0 2.229147 1_555
O25 Sn0 2.354827 1_555
O26 Y0 2.229147 1_565
O27 Sn0 2.354827 1_555
