# generated using pymatgen
data_SiBH6C2NCl2
_symmetry_space_group_name_H-M   'P 1'
_cell_length_a   11.32943496
_cell_length_b   11.32943496
_cell_length_c   11.32943413
_cell_angle_alpha   105.14619844
_cell_angle_beta   105.14619844
_cell_angle_gamma   105.14619849
_symmetry_Int_Tables_number   1
_chemical_formula_structural   SiBH6C2NCl2
_chemical_formula_sum   'Si6 B6 H36 C12 N6 Cl12'
_cell_volume   1267.34247567
_cell_formula_units_Z   6
loop_
 _symmetry_equiv_pos_site_id
 _symmetry_equiv_pos_as_xyz
  1  'x, y, z'
loop_
 _atom_site_type_symbol
 _atom_site_label
 _atom_site_symmetry_multiplicity
 _atom_site_fract_x
 _atom_site_fract_y
 _atom_site_fract_z
 _atom_site_occupancy
  Si  Si0  1  0.54160500  0.12731900  0.35605200  1
  Si  Si1  1  0.35605200  0.54160500  0.12731900  1
  Si  Si2  1  0.12731900  0.35605200  0.54160500  1
  Si  Si3  1  0.85605200  0.62731900  0.04160500  1
  Si  Si4  1  0.04160500  0.85605200  0.62731900  1
  Si  Si5  1  0.62731900  0.04160500  0.85605200  1
  B  B0  1  0.28418600  0.12140900  0.20995200  1
  B  B1  1  0.20995200  0.28418600  0.12140900  1
  B  B2  1  0.12140900  0.20995200  0.28418600  1
  B  B3  1  0.70995200  0.62140900  0.78418600  1
  B  B4  1  0.78418600  0.70995200  0.62140900  1
  B  B5  1  0.62140900  0.78418600  0.70995200  1
  H  H0  1  0.19511800  0.07215700  0.34173100  1
  H  H1  1  0.34173100  0.19511800  0.07215700  1
  H  H2  1  0.07215700  0.34173100  0.19511800  1
  H  H3  1  0.84173100  0.57215700  0.69511800  1
  H  H4  1  0.69511800  0.84173100  0.57215700  1
  H  H5  1  0.57215700  0.69511800  0.84173100  1
  H  H6  1  0.39812000  0.00645800  0.13239200  1
  H  H7  1  0.13239200  0.39812000  0.00645800  1
  H  H8  1  0.00645800  0.13239200  0.39812000  1
  H  H9  1  0.63239200  0.50645800  0.89812000  1
  H  H10  1  0.89812000  0.63239200  0.50645800  1
  H  H11  1  0.50645800  0.89812000  0.63239200  1
  H  H12  1  0.33336800  0.95113900  0.24270000  1
  H  H13  1  0.24270000  0.33336800  0.95113900  1
  H  H14  1  0.95113900  0.24270000  0.33336800  1
  H  H15  1  0.74270000  0.45113900  0.83336800  1
  H  H16  1  0.83336800  0.74270000  0.45113900  1
  H  H17  1  0.45113900  0.83336800  0.74270000  1
  H  H18  1  0.73888700  0.32146700  0.42914900  1
  H  H19  1  0.42914900  0.73888700  0.32146700  1
  H  H20  1  0.32146700  0.42914900  0.73888700  1
  H  H21  1  0.92914900  0.82146700  0.23888700  1
  H  H22  1  0.23888700  0.92914900  0.82146700  1
  H  H23  1  0.82146700  0.23888700  0.92914900  1
  H  H24  1  0.59703400  0.34770900  0.34378700  1
  H  H25  1  0.34378700  0.59703400  0.34770900  1
  H  H26  1  0.34770900  0.34378700  0.59703400  1
  H  H27  1  0.84378700  0.84770900  0.09703400  1
  H  H28  1  0.09703400  0.84378700  0.84770900  1
  H  H29  1  0.84770900  0.09703400  0.84378700  1
  H  H30  1  0.66961000  0.25280400  0.25500000  1
  H  H31  1  0.25500000  0.66961000  0.25280400  1
  H  H32  1  0.25280400  0.25500000  0.66961000  1
  H  H33  1  0.75500000  0.75280400  0.16961000  1
  H  H34  1  0.16961000  0.75500000  0.75280400  1
  H  H35  1  0.75280400  0.16961000  0.75500000  1
  C  C0  1  0.37816100  0.03941600  0.22333000  1
  C  C1  1  0.22333000  0.37816100  0.03941600  1
  C  C2  1  0.03941600  0.22333000  0.37816100  1
  C  C3  1  0.72333000  0.53941600  0.87816100  1
  C  C4  1  0.87816100  0.72333000  0.53941600  1
  C  C5  1  0.53941600  0.87816100  0.72333000  1
  C  C6  1  0.64697500  0.27667200  0.34498600  1
  C  C7  1  0.34498600  0.64697500  0.27667200  1
  C  C8  1  0.27667200  0.34498600  0.64697500  1
  C  C9  1  0.84498600  0.77667200  0.14697500  1
  C  C10  1  0.14697500  0.84498600  0.77667200  1
  C  C11  1  0.77667200  0.14697500  0.84498600  1
  N  N0  1  0.19812400  0.12679800  0.28326200  1
  N  N1  1  0.28326200  0.19812400  0.12679800  1
  N  N2  1  0.12679800  0.28326200  0.19812400  1
  N  N3  1  0.78326200  0.62679800  0.69812400  1
  N  N4  1  0.69812400  0.78326200  0.62679800  1
  N  N5  1  0.62679800  0.69812400  0.78326200  1
  Cl  Cl0  1  0.64724500  0.00219100  0.36539500  1
  Cl  Cl1  1  0.36539500  0.64724500  0.00219100  1
  Cl  Cl2  1  0.00219100  0.36539500  0.64724500  1
  Cl  Cl3  1  0.86539500  0.50219100  0.14724500  1
  Cl  Cl4  1  0.14724500  0.86539500  0.50219100  1
  Cl  Cl5  1  0.50219100  0.14724500  0.86539500  1
  Cl  Cl6  1  0.51514300  0.17570000  0.53511200  1
  Cl  Cl7  1  0.53511200  0.51514300  0.17570000  1
  Cl  Cl8  1  0.17570000  0.53511200  0.51514300  1
  Cl  Cl9  1  0.03511200  0.67570000  0.01514300  1
  Cl  Cl10  1  0.01514300  0.03511200  0.67570000  1
  Cl  Cl11  1  0.67570000  0.01514300  0.03511200  1
loop_
_geom_bond_atom_site_label_1
_geom_bond_atom_site_label_2
_geom_bond_distance
_geom_bond_site_symmetry_2
B0 N1 1.438930 1_555
B0 N0 1.439460 1_555
B0 C0 1.589188 1_555
B1 N2 1.438930 1_555
B1 N1 1.439460 1_555
B1 C1 1.589188 1_555
B2 N0 1.438930 1_555
B2 N2 1.439460 1_555
B2 C2 1.589188 1_555
B3 N5 1.438930 1_555
B3 N3 1.439460 1_555
B3 C3 1.589188 1_555
B4 N3 1.438930 1_555
B4 N4 1.439460 1_555
B4 C4 1.589188 1_555
B5 N4 1.438930 1_555
B5 N5 1.439460 1_555
B5 C5 1.589188 1_555
H0 N0 1.018944 1_555
H1 N1 1.018944 1_555
H2 N2 1.018944 1_555
H3 N3 1.018944 1_555
H4 N4 1.018944 1_555
H5 N5 1.018944 1_555
C0 H12 1.101642 1_545
C0 H6 1.103113 1_555
C0 Si0 1.865603 1_555
C1 H13 1.101642 1_554
C1 H7 1.103113 1_555
C1 Si1 1.865603 1_555
C2 H14 1.101642 1_455
C2 H8 1.103113 1_555
C2 Si2 1.865603 1_555
C3 H15 1.101642 1_555
C3 H9 1.103113 1_555
C3 Si3 1.865603 1_556
C4 H16 1.101642 1_555
C4 H10 1.103113 1_555
C4 Si4 1.865603 1_655
C5 H17 1.101642 1_555
C5 H11 1.103113 1_555
C5 Si5 1.865603 1_565
C6 H18 1.096900 1_555
C6 H30 1.098654 1_555
C6 H24 1.098949 1_555
C6 Si0 1.854044 1_555
C7 H19 1.096900 1_555
C7 H31 1.098654 1_555
C7 H25 1.098949 1_555
C7 Si1 1.854044 1_555
C8 H20 1.096900 1_555
C8 H32 1.098654 1_555
C8 H26 1.098949 1_555
C8 Si2 1.854044 1_555
C9 H21 1.096900 1_555
C9 H33 1.098654 1_555
C9 H27 1.098949 1_555
C9 Si3 1.854044 1_555
C10 H22 1.096900 1_555
C10 H34 1.098654 1_555
C10 H28 1.098949 1_555
C10 Si4 1.854044 1_555
C11 H23 1.096900 1_555
C11 H35 1.098654 1_555
C11 H29 1.098949 1_555
C11 Si5 1.854044 1_555
Cl0 Si0 2.086180 1_555
Cl1 Si1 2.086180 1_555
Cl2 Si2 2.086180 1_555
Cl3 Si3 2.086180 1_555
Cl4 Si4 2.086180 1_555
Cl5 Si5 2.086180 1_555
Cl6 Si0 2.080471 1_555
Cl7 Si1 2.080471 1_555
Cl8 Si2 2.080471 1_555
Cl9 Si3 2.080471 1_455
Cl10 Si4 2.080471 1_545
Cl11 Si5 2.080471 1_554
