# generated using pymatgen
data_Li2ZnSiO4
_symmetry_space_group_name_H-M   'P 1'
_cell_length_a   10.73537400
_cell_length_b   5.10776600
_cell_length_c   8.08758152
_cell_angle_alpha   51.43185700
_cell_angle_beta   90.00000000
_cell_angle_gamma   90.00000000
_symmetry_Int_Tables_number   1
_chemical_formula_structural   Li2ZnSiO4
_chemical_formula_sum   'Li8 Zn4 Si4 O16'
_cell_volume   346.73673630
_cell_formula_units_Z   4
loop_
 _symmetry_equiv_pos_site_id
 _symmetry_equiv_pos_as_xyz
  1  'x, y, z'
loop_
 _atom_site_type_symbol
 _atom_site_label
 _atom_site_symmetry_multiplicity
 _atom_site_fract_x
 _atom_site_fract_y
 _atom_site_fract_z
 _atom_site_occupancy
  Li  Li0  1  0.66315800  0.68497900  0.50653500  1
  Li  Li1  1  0.57527700  0.53820500  0.25987200  1
  Li  Li2  1  0.07527700  0.46179500  0.24012800  1
  Li  Li3  1  0.42472300  0.46179500  0.74012800  1
  Li  Li4  1  0.92472300  0.53820500  0.75987200  1
  Li  Li5  1  0.16315800  0.31502100  0.99346500  1
  Li  Li6  1  0.33684200  0.31502100  0.49346500  1
  Li  Li7  1  0.83684200  0.68497900  0.00653500  1
  Zn  Zn0  1  0.66445600  0.19049800  0.00140900  1
  Zn  Zn1  1  0.16445600  0.80950200  0.49859100  1
  Zn  Zn2  1  0.33554400  0.80950200  0.99859100  1
  Zn  Zn3  1  0.83554400  0.19049800  0.50140900  1
  Si  Si0  1  0.91192900  0.93596700  0.25384300  1
  Si  Si1  1  0.41192900  0.06403300  0.24615700  1
  Si  Si2  1  0.08807100  0.06403300  0.74615700  1
  Si  Si3  1  0.58807100  0.93596700  0.75384300  1
  O  O0  1  0.66032800  0.82682500  0.96949000  1
  O  O1  1  0.16032800  0.17317500  0.53051000  1
  O  O2  1  0.33967200  0.17317500  0.03051000  1
  O  O3  1  0.83956000  0.25676500  0.03949400  1
  O  O4  1  0.83967200  0.82682500  0.46949000  1
  O  O5  1  0.66044000  0.25676500  0.53949400  1
  O  O6  1  0.16044000  0.74323500  0.96050600  1
  O  O7  1  0.33956000  0.74323500  0.46050600  1
  O  O8  1  0.58944100  0.61065300  0.75431100  1
  O  O9  1  0.08944100  0.38934700  0.74568900  1
  O  O10  1  0.41055900  0.38934700  0.24568900  1
  O  O11  1  0.91055900  0.61065300  0.25431100  1
  O  O12  1  0.44364600  0.05501500  0.74380900  1
  O  O13  1  0.94364600  0.94498500  0.75619100  1
  O  O14  1  0.55635400  0.94498500  0.25619100  1
  O  O15  1  0.05635400  0.05501500  0.24380900  1
loop_
_geom_bond_atom_site_label_1
_geom_bond_atom_site_label_2
_geom_bond_distance
_geom_bond_site_symmetry_2
Li0 O14 1.955749 1_555
Li0 O8 1.958946 1_555
Li0 O4 1.983643 1_555
Li0 O5 2.031959 1_555
Li1 O10 1.956253 1_555
Li1 O5 1.990738 1_555
Li1 O0 2.050712 1_554
Li1 O14 2.069304 1_555
Li2 O11 1.956253 1_455
Li2 O6 1.990738 1_554
Li2 O1 2.050712 1_555
Li2 O15 2.069304 1_555
Li3 O8 1.956253 1_555
Li3 O7 1.990738 1_555
Li3 O2 2.050712 1_556
Li3 O12 2.069304 1_555
Li4 O9 1.956253 1_655
Li4 O3 1.990738 1_556
Li4 O4 2.050712 1_555
Li4 O13 2.069304 1_555
Li5 O15 1.955749 1_556
Li5 O9 1.958946 1_555
Li5 O2 1.983643 1_556
Li5 O6 2.031959 1_555
Li6 O12 1.955749 1_555
Li6 O10 1.958946 1_555
Li6 O1 1.983643 1_555
Li6 O7 2.031959 1_555
Li7 O13 1.955749 1_554
Li7 O11 1.958946 1_555
Li7 O0 1.983643 1_554
Li7 O3 2.031959 1_555
O0 Si3 1.655881 1_555
O0 Zn0 2.029047 1_566
O1 Si2 1.655881 1_555
O1 Zn1 2.029047 1_545
O2 Si1 1.655881 1_555
O2 Zn2 2.029047 1_544
O3 Si0 1.658873 1_545
O3 Zn0 1.968022 1_555
O4 Si0 1.655881 1_555
O4 Zn3 2.029047 1_565
O5 Si3 1.658873 1_545
O5 Zn3 1.968022 1_555
O6 Si2 1.658873 1_565
O6 Zn2 1.968022 1_555
O7 Si1 1.658873 1_565
O7 Zn1 1.968022 1_555
O8 Si3 1.659336 1_555
O8 Zn0 1.974895 1_556
O9 Si2 1.659336 1_555
O9 Zn1 1.974895 1_555
O10 Si1 1.659336 1_555
O10 Zn2 1.974895 1_554
O11 Si0 1.659336 1_555
O11 Zn3 1.974895 1_555
O12 Si3 1.648854 1_545
O12 Zn2 1.985788 1_545
O13 Si2 1.648854 1_665
O13 Zn3 1.985788 1_565
O14 Si1 1.648854 1_565
O14 Zn0 1.985788 1_565
O15 Si0 1.648854 1_445
O15 Zn1 1.985788 1_545
