# generated using pymatgen
data_PmLu3
_symmetry_space_group_name_H-M   'P 1'
_cell_length_a   7.11922284
_cell_length_b   7.11922284
_cell_length_c   5.66963747
_cell_angle_alpha   90.00000000
_cell_angle_beta   90.00000000
_cell_angle_gamma   119.99999427
_symmetry_Int_Tables_number   1
_chemical_formula_structural   PmLu3
_chemical_formula_sum   'Pm2 Lu6'
_cell_volume   248.85772199
_cell_formula_units_Z   2
loop_
 _symmetry_equiv_pos_site_id
 _symmetry_equiv_pos_as_xyz
  1  'x, y, z'
loop_
 _atom_site_type_symbol
 _atom_site_label
 _atom_site_symmetry_multiplicity
 _atom_site_fract_x
 _atom_site_fract_y
 _atom_site_fract_z
 _atom_site_occupancy
  Pm  Pm0  1  0.66666700  0.33333300  0.25000000  1
  Pm  Pm1  1  0.33333300  0.66666700  0.75000000  1
  Lu  Lu0  1  0.83547869  0.16452131  0.75000000  1
  Lu  Lu1  1  0.32904362  0.16452131  0.75000000  1
  Lu  Lu2  1  0.83547869  0.67095638  0.75000000  1
  Lu  Lu3  1  0.16452131  0.83547869  0.25000000  1
  Lu  Lu4  1  0.67095638  0.83547869  0.25000000  1
  Lu  Lu5  1  0.16452131  0.32904362  0.25000000  1
loop_
_geom_bond_atom_site_label_1
_geom_bond_atom_site_label_2
_geom_bond_distance
_geom_bond_site_symmetry_2
Lu0 Lu4 3.485940 1_545
Lu0 Lu5 3.485940 1_656
Lu0 Lu4 3.485940 1_546
Lu0 Lu5 3.485940 1_655
Lu0 Lu1 3.513799 1_655
Lu0 Lu2 3.513799 1_545
Lu0 Pm0 3.516991 1_555
Lu0 Pm0 3.516991 1_556
Lu0 Pm1 3.559710 1_545
Lu0 Pm1 3.559710 1_655
Lu0 Lu1 3.605424 1_555
Lu0 Lu2 3.605424 1_555
Lu1 Lu3 3.485940 1_545
Lu1 Lu3 3.485940 1_546
Lu1 Lu5 3.485947 1_555
Lu1 Lu5 3.485947 1_556
Lu1 Lu2 3.513799 1_445
Lu1 Pm0 3.516991 1_555
Lu1 Pm0 3.516991 1_556
Lu1 Pm1 3.559703 1_545
Lu1 Pm1 3.559717 1_555
Lu1 Lu2 3.605424 1_555
Lu2 Lu3 3.485940 1_656
Lu2 Lu3 3.485940 1_655
Lu2 Lu4 3.485947 1_555
Lu2 Lu4 3.485947 1_556
Lu2 Pm0 3.516991 1_555
Lu2 Pm0 3.516991 1_556
Lu2 Pm1 3.559703 1_655
Lu2 Pm1 3.559717 1_555
Lu3 Lu4 3.513799 1_455
Lu3 Lu5 3.513799 1_565
Lu3 Pm1 3.516991 1_554
Lu3 Pm1 3.516991 1_555
Lu3 Pm0 3.559710 1_455
Lu3 Pm0 3.559710 1_565
Lu3 Lu4 3.605424 1_555
Lu3 Lu5 3.605424 1_555
Lu4 Lu5 3.513799 1_665
Lu4 Pm1 3.516991 1_554
Lu4 Pm1 3.516991 1_555
Lu4 Pm0 3.559703 1_565
Lu4 Pm0 3.559717 1_555
Lu4 Lu5 3.605424 1_555
Lu5 Pm1 3.516991 1_554
Lu5 Pm1 3.516991 1_555
Lu5 Pm0 3.559703 1_455
Lu5 Pm0 3.559717 1_555
