# generated using pymatgen
data_Ta2Zn2CoO8
_symmetry_space_group_name_H-M   'P 1'
_cell_length_a   7.95238357
_cell_length_b   10.10238526
_cell_length_c   7.94175011
_cell_angle_alpha   102.52770088
_cell_angle_beta   83.38587465
_cell_angle_gamma   102.77065978
_symmetry_Int_Tables_number   1
_chemical_formula_structural   Ta2Zn2CoO8
_chemical_formula_sum   'Ta8 Zn8 Co4 O32'
_cell_volume   605.91024418
_cell_formula_units_Z   4
loop_
 _symmetry_equiv_pos_site_id
 _symmetry_equiv_pos_as_xyz
  1  'x, y, z'
loop_
 _atom_site_type_symbol
 _atom_site_label
 _atom_site_symmetry_multiplicity
 _atom_site_fract_x
 _atom_site_fract_y
 _atom_site_fract_z
 _atom_site_occupancy
  Ta  Ta0  1  0.76920400  0.22750600  0.50039100  1
  Ta  Ta1  1  0.26880200  0.22766500  0.00084600  1
  Ta  Ta2  1  0.63832800  0.77152700  0.40437400  1
  Ta  Ta3  1  0.13806500  0.77152200  0.90449000  1
  Ta  Ta4  1  0.23127400  0.77116800  0.49729300  1
  Ta  Ta5  1  0.73113700  0.77143600  0.99755100  1
  Ta  Ta6  1  0.36207700  0.22739400  0.59372000  1
  Ta  Ta7  1  0.86193500  0.22710000  0.09345500  1
  Zn  Zn0  1  0.83312200  0.56368100  0.60247100  1
  Zn  Zn1  1  0.33307800  0.56388500  0.10248000  1
  Zn  Zn2  1  0.07112700  0.43583600  0.79957600  1
  Zn  Zn3  1  0.57124100  0.43561300  0.29964300  1
  Zn  Zn4  1  0.16715100  0.43496600  0.39575600  1
  Zn  Zn5  1  0.66720800  0.43519000  0.89579400  1
  Zn  Zn6  1  0.92912700  0.56322700  0.19846900  1
  Zn  Zn7  1  0.42909900  0.56305900  0.69854300  1
  Co  Co0  1  0.44481400  0.99956800  0.19608800  1
  Co  Co1  1  0.05480500  0.99913100  0.30240900  1
  Co  Co2  1  0.94543100  0.99949400  0.69458500  1
  Co  Co3  1  0.55454200  0.99939200  0.80325200  1
  O  O0  1  0.05700200  0.13745200  0.12668500  1
  O  O1  1  0.55680800  0.13669000  0.62560300  1
  O  O2  1  0.80875300  0.86183600  0.23793400  1
  O  O3  1  0.30842300  0.86199100  0.73757500  1
  O  O4  1  0.94324900  0.86200200  0.87217400  1
  O  O5  1  0.44292500  0.86137300  0.37074600  1
  O  O6  1  0.19161800  0.13697500  0.76057100  1
  O  O7  1  0.69172000  0.13683800  0.26017300  1
  O  O8  1  0.92243500  0.11522000  0.50883700  1
  O  O9  1  0.42137700  0.11484400  0.00996100  1
  O  O10  1  0.70263500  0.88381700  0.61406300  1
  O  O11  1  0.20191400  0.88244200  0.11500100  1
  O  O12  1  0.07804000  0.88333800  0.48860400  1
  O  O13  1  0.57850500  0.88414700  0.98908900  1
  O  O14  1  0.29647300  0.11661000  0.38357000  1
  O  O15  1  0.79750900  0.11513700  0.88364300  1
  O  O16  1  0.92382100  0.35348500  0.35448300  1
  O  O17  1  0.42398800  0.35332800  0.85428900  1
  O  O18  1  0.42921500  0.64590600  0.49645100  1
  O  O19  1  0.92880800  0.64558600  0.99618400  1
  O  O20  1  0.57139300  0.35319700  0.50186000  1
  O  O21  1  0.07120000  0.35314000  0.00164600  1
  O  O22  1  0.07649000  0.64537400  0.64385900  1
  O  O23  1  0.57648400  0.64541100  0.14366200  1
  O  O24  1  0.24185200  0.38571100  0.59949600  1
  O  O25  1  0.74181400  0.38552400  0.09936700  1
  O  O26  1  0.15744400  0.61294200  0.29795200  1
  O  O27  1  0.65757200  0.61337400  0.79787800  1
  O  O28  1  0.75857100  0.61341800  0.39879800  1
  O  O29  1  0.25853100  0.61340100  0.89881600  1
  O  O30  1  0.84262800  0.38545200  0.70037300  1
  O  O31  1  0.34286900  0.38581400  0.20026400  1
loop_
_geom_bond_atom_site_label_1
_geom_bond_atom_site_label_2
_geom_bond_distance
_geom_bond_site_symmetry_2
Co0 O14 2.110662 1_565
Co0 O9 2.117111 1_565
Co0 O11 2.119321 1_555
Co0 O13 2.122806 1_554
Co0 O5 2.167803 1_555
Co0 O7 2.181204 1_565
Co1 O11 2.102584 1_555
Co1 O14 2.112482 1_565
Co1 O8 2.117846 1_465
Co1 O12 2.120861 1_555
Co1 O0 2.174885 1_565
Co1 O2 2.176584 1_455
Co2 O15 2.107770 1_565
Co2 O10 2.113129 1_555
Co2 O8 2.116888 1_565
Co2 O12 2.117075 1_655
Co2 O4 2.179981 1_555
Co2 O6 2.180591 1_665
Co3 O10 2.108774 1_555
Co3 O15 2.114150 1_565
Co3 O13 2.116197 1_555
Co3 O9 2.119356 1_566
Co3 O1 2.178696 1_565
Co3 O3 2.179351 1_555
O0 Ta1 1.998749 1_555
O0 Ta7 2.028628 1_455
O1 Ta0 2.001811 1_555
O1 Ta6 2.029822 1_555
O2 Ta2 1.995048 1_555
O2 Ta5 2.031111 1_554
O3 Ta3 1.998090 1_555
O3 Ta4 2.030019 1_555
O4 Ta5 1.999960 1_555
O4 Ta3 2.030022 1_655
O5 Ta4 2.000737 1_555
O5 Ta2 2.033259 1_555
O6 Ta6 1.997917 1_555
O6 Ta1 2.029814 1_556
O7 Ta7 1.995506 1_555
O7 Ta0 2.030120 1_555
O8 Ta0 1.854473 1_555
O9 Ta1 1.855771 1_555
O10 Ta2 1.855200 1_555
O11 Ta3 1.854658 1_554
O12 Ta4 1.854069 1_555
O13 Ta5 1.854002 1_555
O14 Ta6 1.855342 1_555
O15 Ta7 1.855038 1_556
O16 Zn4 1.963242 1_655
O16 Ta0 2.023378 1_555
O16 Ta7 2.231318 1_555
O17 Zn5 1.963434 1_555
O17 Ta1 2.026529 1_556
O17 Ta6 2.226866 1_555
O18 Zn7 1.964297 1_555
O18 Ta2 2.024876 1_555
O18 Ta4 2.225698 1_555
O19 Zn6 1.963374 1_556
O19 Ta3 2.026056 1_655
O19 Ta5 2.227380 1_555
O20 Zn3 1.962978 1_555
O20 Ta6 2.026182 1_555
O20 Ta0 2.226979 1_555
O21 Zn2 1.963501 1_554
O21 Ta7 2.027014 1_455
O21 Ta1 2.225082 1_555
O22 Zn0 1.964046 1_455
O22 Ta4 2.026101 1_555
O22 Ta3 2.227433 1_555
O23 Zn1 1.963732 1_555
O23 Ta5 2.024812 1_554
O23 Ta2 2.228293 1_555
O24 Zn4 1.979895 1_555
O24 Zn2 2.020513 1_555
O24 Ta6 2.026892 1_555
O24 Zn7 2.127203 1_555
O25 Zn5 1.980412 1_554
O25 Zn3 2.020680 1_555
O25 Ta7 2.027102 1_555
O25 Zn6 2.129792 1_555
O26 Zn6 1.981983 1_455
O26 Zn1 2.019677 1_555
O26 Ta4 2.026684 1_555
O26 Zn4 2.126746 1_555
O27 Zn7 1.982373 1_555
O27 Zn0 2.020407 1_555
O27 Ta5 2.027032 1_555
O27 Zn5 2.129047 1_555
O28 Zn0 1.981291 1_555
O28 Zn6 2.021105 1_555
O28 Ta2 2.025440 1_555
O28 Zn3 2.130606 1_555
O29 Zn1 1.980103 1_556
O29 Zn7 2.021224 1_555
O29 Ta3 2.026532 1_555
O29 Zn2 2.129640 1_555
O30 Zn2 1.982069 1_655
O30 Zn5 2.019905 1_555
O30 Ta0 2.027737 1_555
O30 Zn0 2.129136 1_555
O31 Zn3 1.981979 1_555
O31 Zn4 2.020439 1_555
O31 Ta1 2.027034 1_555
O31 Zn1 2.127730 1_555
