# generated using pymatgen
data_Li9Mn2Co5O16
_symmetry_space_group_name_H-M   'P 1'
_cell_length_a   5.92926700
_cell_length_b   6.43556718
_cell_length_c   8.13308308
_cell_angle_alpha   88.95470906
_cell_angle_beta   89.08637310
_cell_angle_gamma   66.02314346
_symmetry_Int_Tables_number   1
_chemical_formula_structural   Li9Mn2Co5O16
_chemical_formula_sum   'Li9 Mn2 Co5 O16'
_cell_volume   283.50456064
_cell_formula_units_Z   1
loop_
 _symmetry_equiv_pos_site_id
 _symmetry_equiv_pos_as_xyz
  1  'x, y, z'
loop_
 _atom_site_type_symbol
 _atom_site_label
 _atom_site_symmetry_multiplicity
 _atom_site_fract_x
 _atom_site_fract_y
 _atom_site_fract_z
 _atom_site_occupancy
  Li  Li0  1  0.75482900  0.49702100  0.00362700  1
  Li  Li1  1  0.11685200  0.25541200  0.25739100  1
  Li  Li2  1  0.37393900  0.74779000  0.74470500  1
  Li  Li3  1  0.00908900  0.99346300  0.49630400  1
  Li  Li4  1  0.63173300  0.24753700  0.25684700  1
  Li  Li5  1  0.24478700  0.50990200  0.00498700  1
  Li  Li6  1  0.87712200  0.74654500  0.74289000  1
  Li  Li7  1  0.49693600  0.99423700  0.49412300  1
  Li  Li8  1  0.37290900  0.75005800  0.25582200  1
  Mn  Mn0  1  0.00846300  0.99513400  0.00044800  1
  Mn  Mn1  1  0.50495800  0.99526300  0.00120200  1
  Co  Co0  1  0.73675300  0.50913900  0.49824300  1
  Co  Co1  1  0.12537200  0.25112100  0.74844000  1
  Co  Co2  1  0.87575100  0.74741100  0.25071000  1
  Co  Co3  1  0.24662300  0.50394100  0.50003700  1
  Co  Co4  1  0.62819000  0.25096000  0.74679500  1
  O  O0  1  0.11434600  0.24273300  0.99082300  1
  O  O1  1  0.53730300  0.97693500  0.23768100  1
  O  O2  1  0.74274300  0.48894500  0.73811400  1
  O  O3  1  0.36316100  0.73265100  0.50045900  1
  O  O4  1  0.98873100  0.98866200  0.23626100  1
  O  O5  1  0.65201700  0.22493500  0.99025100  1
  O  O6  1  0.24677600  0.48278600  0.74118500  1
  O  O7  1  0.85667100  0.74361900  0.48540700  1
  O  O8  1  0.34799400  0.78006400  0.99824300  1
  O  O9  1  0.75727100  0.51606000  0.26194100  1
  O  O10  1  0.00797900  0.01160500  0.76100900  1
  O  O11  1  0.63488000  0.26159600  0.51015000  1
  O  O12  1  0.20648600  0.52616100  0.26436500  1
  O  O13  1  0.89374900  0.75268400  0.01011800  1
  O  O14  1  0.51248800  0.01271000  0.75946300  1
  O  O15  1  0.13310100  0.26291900  0.51195800  1
loop_
_geom_bond_atom_site_label_1
_geom_bond_atom_site_label_2
_geom_bond_distance
_geom_bond_site_symmetry_2
Li0 O5 2.079939 1_554
Li0 O0 2.096881 1_654
Li0 O9 2.107312 1_555
Li0 O13 2.120002 1_555
Li0 O2 2.164041 1_554
Li0 O8 2.359685 1_554
Li1 O12 2.019628 1_555
Li1 O15 2.076542 1_555
Li1 O9 2.110420 1_455
Li1 O4 2.151385 1_445
Li1 O0 2.171556 1_554
Li1 O1 2.412263 1_545
Li2 O3 1.993946 1_555
Li2 O8 2.073253 1_555
Li2 O6 2.127305 1_555
Li2 O2 2.144435 1_555
Li2 O10 2.147877 1_565
Li2 O14 2.178276 1_565
Li3 O3 2.088575 1_555
Li3 O4 2.121815 1_455
Li3 O7 2.144438 1_455
Li3 O15 2.147402 1_565
Li3 O10 2.157918 1_565
Li3 O11 2.191059 1_465
Li4 O1 2.043448 1_545
Li4 O11 2.064482 1_555
Li4 O4 2.101655 1_545
Li4 O9 2.142689 1_555
Li4 O5 2.173912 1_554
Li4 O12 2.429203 1_555
Li5 O13 2.032664 1_455
Li5 O8 2.064105 1_554
Li5 O12 2.118055 1_555
Li5 O6 2.155236 1_554
Li5 O0 2.158374 1_554
Li5 O5 2.368057 1_554
Li6 O7 2.100437 1_555
Li6 O2 2.112232 1_555
Li6 O14 2.148453 1_565
Li6 O10 2.149882 1_665
Li6 O6 2.159065 1_655
Li6 O13 2.178996 1_556
Li7 O7 2.087892 1_555
Li7 O1 2.095370 1_555
Li7 O3 2.132274 1_555
Li7 O15 2.152266 1_565
Li7 O14 2.168953 1_565
Li7 O11 2.191299 1_565
Li8 O3 1.992002 1_555
Li8 O12 2.050482 1_555
Li8 O1 2.061056 1_555
Li8 O8 2.102306 1_554
Li8 O9 2.162321 1_555
Li8 O4 2.175286 1_455
Mn0 O4 1.920313 1_455
Mn0 O8 1.924586 1_554
Mn0 O0 1.935522 1_564
Mn0 O13 1.938998 1_455
Mn0 O10 1.948313 1_564
Mn0 O5 2.030167 1_464
Mn1 O1 1.932586 1_555
Mn1 O8 1.958126 1_554
Mn1 O14 1.968071 1_564
Mn1 O5 1.998274 1_564
Mn1 O13 2.198383 1_555
Mn1 O0 2.216100 1_564
Co0 O7 1.912454 1_555
Co0 O11 1.920082 1_555
Co0 O9 1.924622 1_555
Co0 O2 1.952776 1_555
Co0 O3 2.094335 1_555
Co0 O15 2.240865 1_655
Co1 O6 1.900548 1_555
Co1 O15 1.923992 1_555
Co1 O10 1.932588 1_555
Co1 O0 1.971844 1_555
Co1 O2 2.162388 1_455
Co1 O14 2.184016 1_555
Co2 O9 1.887235 1_555
Co2 O12 1.901881 1_655
Co2 O7 1.910656 1_555
Co2 O4 1.925932 1_555
Co2 O1 1.952461 1_555
Co2 O13 1.958390 1_555
Co3 O3 1.862994 1_555
Co3 O15 1.925979 1_555
Co3 O12 1.930768 1_555
Co3 O6 1.963506 1_555
Co3 O11 2.195927 1_555
Co3 O7 2.200648 1_455
Co4 O2 1.911022 1_555
Co4 O14 1.918085 1_555
Co4 O11 1.924971 1_555
Co4 O5 1.986502 1_555
Co4 O6 2.144989 1_555
Co4 O10 2.153997 1_655
