# generated using pymatgen
data_ThURe4
_symmetry_space_group_name_H-M   'P 1'
_cell_length_a   5.45030647
_cell_length_b   5.45030647
_cell_length_c   8.86893700
_cell_angle_alpha   90.00000000
_cell_angle_beta   90.00000000
_cell_angle_gamma   120.00000574
_symmetry_Int_Tables_number   1
_chemical_formula_structural   ThURe4
_chemical_formula_sum   'Th2 U2 Re8'
_cell_volume   228.16237217
_cell_formula_units_Z   2
loop_
 _symmetry_equiv_pos_site_id
 _symmetry_equiv_pos_as_xyz
  1  'x, y, z'
loop_
 _atom_site_type_symbol
 _atom_site_label
 _atom_site_symmetry_multiplicity
 _atom_site_fract_x
 _atom_site_fract_y
 _atom_site_fract_z
 _atom_site_occupancy
  Th  Th0  1  0.66666700  0.33333300  0.43316100  1
  Th  Th1  1  0.33333300  0.66666700  0.56683900  1
  U  U0  1  0.33333300  0.66666700  0.93869700  1
  U  U1  1  0.66666700  0.33333300  0.06130300  1
  Re  Re0  1  0.00000000  0.00000000  0.50000000  1
  Re  Re1  1  0.00000000  0.00000000  0.00000000  1
  Re  Re2  1  0.65910900  0.82955500  0.24508800  1
  Re  Re3  1  0.17044500  0.82955500  0.24508800  1
  Re  Re4  1  0.17044500  0.34089100  0.24508800  1
  Re  Re5  1  0.34089100  0.17044500  0.75491200  1
  Re  Re6  1  0.82955500  0.17044500  0.75491200  1
  Re  Re7  1  0.82955500  0.65910900  0.75491200  1
loop_
_geom_bond_atom_site_label_1
_geom_bond_atom_site_label_2
_geom_bond_distance
_geom_bond_site_symmetry_2
Th0 U1 3.297985 1_555
Th0 Th1 3.362667 1_545
Th0 Th1 3.362667 1_655
Th0 Th1 3.362676 1_555
Th1 U0 3.297985 1_555
U0 U1 3.329314 1_456
U0 U1 3.329314 1_566
U0 U1 3.329323 1_556
Re0 Re3 2.774925 1_545
Re0 Re6 2.774925 1_455
Re0 Re4 2.774927 1_555
Re0 Re5 2.774927 1_555
Re0 Re7 2.774927 1_445
Re0 Re2 2.774927 1_445
Re0 Th0 3.202082 1_455
Re0 Th1 3.202082 1_545
Re0 Th1 3.202086 1_445
Re0 Th1 3.202086 1_555
Re0 Th0 3.202086 1_555
Re0 Th0 3.202086 1_445
Re1 Re3 2.704411 1_545
Re1 Re6 2.704411 1_454
Re1 Re5 2.704414 1_554
Re1 Re7 2.704414 1_444
Re1 Re2 2.704414 1_445
Re1 Re4 2.704414 1_555
Re1 U0 3.193357 1_544
Re1 U1 3.193357 1_455
Re1 U0 3.193361 1_444
Re1 U0 3.193361 1_554
Re1 U1 3.193361 1_555
Re1 U1 3.193361 1_445
Re2 Re4 2.663368 1_555
Re2 Re3 2.663369 1_555
Re2 Re4 2.786938 1_665
Re2 Re3 2.786938 1_655
Re2 U0 3.122270 1_554
Re2 U1 3.175615 1_565
Re2 U1 3.175624 1_555
Re2 Th0 3.195302 1_565
Re2 Th0 3.195311 1_555
Re2 Th1 3.241525 1_555
Re3 Re4 2.663369 1_555
Re3 Re4 2.786938 1_565
Re3 U0 3.122270 1_554
Re3 U1 3.175619 1_565
Re3 U1 3.175619 1_455
Re3 Th0 3.195306 1_565
Re3 Th0 3.195306 1_455
Re3 Th1 3.241525 1_555
Re4 U0 3.122270 1_554
Re4 U1 3.175615 1_455
Re4 U1 3.175624 1_555
Re4 Th0 3.195302 1_455
Re4 Th0 3.195311 1_555
Re4 Th1 3.241525 1_555
Re5 Re7 2.663368 1_555
Re5 Re6 2.663369 1_555
Re5 Re7 2.786938 1_445
Re5 Re6 2.786938 1_455
Re5 U1 3.122270 1_556
Re5 U0 3.175615 1_545
Re5 U0 3.175624 1_555
Re5 Th1 3.195302 1_545
Re5 Th1 3.195311 1_555
Re5 Th0 3.241525 1_555
Re6 Re7 2.663369 1_555
Re6 Re7 2.786938 1_545
Re6 U1 3.122270 1_556
Re6 U0 3.175619 1_655
Re6 U0 3.175619 1_545
Re6 Th1 3.195306 1_655
Re6 Th1 3.195306 1_545
Re6 Th0 3.241525 1_555
Re7 U1 3.122270 1_556
Re7 U0 3.175615 1_655
Re7 U0 3.175624 1_555
Re7 Th1 3.195302 1_655
Re7 Th1 3.195311 1_555
Re7 Th0 3.241525 1_555
