# generated using pymatgen
data_CaSmAl3O7
_symmetry_space_group_name_H-M   'P 1'
_cell_length_a   7.79996097
_cell_length_b   7.79996097
_cell_length_c   5.14050400
_cell_angle_alpha   90.00000000
_cell_angle_beta   90.00000000
_cell_angle_gamma   90.51078486
_symmetry_Int_Tables_number   1
_chemical_formula_structural   CaSmAl3O7
_chemical_formula_sum   'Ca2 Sm2 Al6 O14'
_cell_volume   312.73270552
_cell_formula_units_Z   2
loop_
 _symmetry_equiv_pos_site_id
 _symmetry_equiv_pos_as_xyz
  1  'x, y, z'
loop_
 _atom_site_type_symbol
 _atom_site_label
 _atom_site_symmetry_multiplicity
 _atom_site_fract_x
 _atom_site_fract_y
 _atom_site_fract_z
 _atom_site_occupancy
  Ca  Ca0  1  0.66043300  0.66043300  0.48320200  1
  Ca  Ca1  1  0.33956700  0.33956700  0.48320200  1
  Sm  Sm0  1  0.83746100  0.16253900  0.51179900  1
  Sm  Sm1  1  0.16253900  0.83746100  0.51179900  1
  Al  Al0  1  0.50000000  0.00000000  0.00281600  1
  Al  Al1  1  0.00000000  0.50000000  0.00281600  1
  Al  Al2  1  0.85597900  0.85597900  0.04135900  1
  Al  Al3  1  0.64348100  0.35651900  0.95703200  1
  Al  Al4  1  0.14402100  0.14402100  0.04135900  1
  Al  Al5  1  0.35651900  0.64348100  0.95703200  1
  O  O0  1  0.86580600  0.86580600  0.70210300  1
  O  O1  1  0.64826300  0.35173700  0.29530200  1
  O  O2  1  0.13419400  0.13419400  0.70210300  1
  O  O3  1  0.35173700  0.64826300  0.29530200  1
  O  O4  1  0.66331500  0.91385800  0.20019800  1
  O  O5  1  0.84206100  0.40476300  0.80064300  1
  O  O6  1  0.33668500  0.08614200  0.20019800  1
  O  O7  1  0.15793900  0.59523700  0.80064300  1
  O  O8  1  0.40476300  0.84206100  0.80064300  1
  O  O9  1  0.08614200  0.33668500  0.20019800  1
  O  O10  1  0.59523700  0.15793900  0.80064300  1
  O  O11  1  0.91385800  0.66331500  0.20019800  1
  O  O12  1  0.50000000  0.50000000  0.81335800  1
  O  O13  1  0.00000000  0.00000000  0.19605100  1
loop_
_geom_bond_atom_site_label_1
_geom_bond_atom_site_label_2
_geom_bond_distance
_geom_bond_site_symmetry_2
Ca0 O12 2.446287 1_555
Ca0 O4 2.454276 1_555
Ca0 O11 2.454276 1_555
Ca0 O0 2.520444 1_555
Ca0 O3 2.595281 1_555
Ca0 O1 2.595281 1_555
Ca0 O8 2.949081 1_555
Ca0 O5 2.949081 1_555
Ca1 O12 2.446287 1_555
Ca1 O6 2.454276 1_555
Ca1 O9 2.454276 1_555
Ca1 O2 2.520444 1_555
Ca1 O3 2.595281 1_555
Ca1 O1 2.595281 1_555
Ca1 O7 2.949081 1_555
Ca1 O10 2.949081 1_555
Al0 O6 1.766044 1_555
Al0 O4 1.766044 1_545
Al0 O10 1.770087 1_554
Al0 O8 1.770087 1_544
Al1 O9 1.766044 1_555
Al1 O11 1.766044 1_455
Al1 O7 1.770087 1_554
Al1 O5 1.770087 1_454
Al2 O0 1.747283 1_554
Al2 O13 1.770227 1_665
Al2 O11 1.772265 1_555
Al2 O4 1.772265 1_555
Al3 O1 1.739685 1_556
Al3 O12 1.752933 1_555
Al3 O5 1.782312 1_555
Al3 O10 1.782312 1_555
Al4 O2 1.747283 1_554
Al4 O13 1.770227 1_555
Al4 O6 1.772265 1_555
Al4 O9 1.772265 1_555
Al5 O3 1.739685 1_556
Al5 O12 1.752933 1_555
Al5 O7 1.782312 1_555
Al5 O8 1.782312 1_555
O0 Sm0 2.524268 1_565
O0 Sm1 2.524268 1_655
O1 Sm0 2.373391 1_555
O2 Sm1 2.524268 1_545
O2 Sm0 2.524268 1_455
O3 Sm1 2.373391 1_555
O4 Sm0 2.850658 1_565
O5 Sm0 2.402981 1_555
O6 Sm1 2.850658 1_545
O7 Sm1 2.402981 1_555
O8 Sm1 2.402981 1_555
O9 Sm0 2.850658 1_455
O10 Sm0 2.402981 1_555
O11 Sm1 2.850658 1_655
O13 Sm1 2.424406 1_545
O13 Sm0 2.424406 1_455
