# generated using pymatgen
data_Li2AlAgF6
_symmetry_space_group_name_H-M   'P 1'
_cell_length_a   5.89561875
_cell_length_b   5.89561875
_cell_length_c   5.89561875
_cell_angle_alpha   60.00000000
_cell_angle_beta   60.00000000
_cell_angle_gamma   60.00000000
_symmetry_Int_Tables_number   1
_chemical_formula_structural   Li2AlAgF6
_chemical_formula_sum   'Li2 Al1 Ag1 F6'
_cell_volume   144.90159872
_cell_formula_units_Z   1
loop_
 _symmetry_equiv_pos_site_id
 _symmetry_equiv_pos_as_xyz
  1  'x, y, z'
loop_
 _atom_site_type_symbol
 _atom_site_label
 _atom_site_symmetry_multiplicity
 _atom_site_fract_x
 _atom_site_fract_y
 _atom_site_fract_z
 _atom_site_occupancy
  Li  Li0  1  0.25000000  0.25000000  0.25000000  1
  Li  Li1  1  0.75000000  0.75000000  0.75000000  1
  Al  Al0  1  0.00000000  0.00000000  0.00000000  1
  Ag  Ag0  1  0.50000000  0.50000000  0.50000000  1
  F  F0  1  0.21766600  0.21766600  0.78233400  1
  F  F1  1  0.21766600  0.78233400  0.78233400  1
  F  F2  1  0.78233400  0.78233400  0.21766600  1
  F  F3  1  0.21766600  0.78233400  0.21766600  1
  F  F4  1  0.78233400  0.21766600  0.78233400  1
  F  F5  1  0.78233400  0.21766600  0.21766600  1
loop_
_geom_bond_atom_site_label_1
_geom_bond_atom_site_label_2
_geom_bond_distance
_geom_bond_site_symmetry_2
Al0 F3 1.814826 1_545
Al0 F5 1.814826 1_455
Al0 F0 1.814826 1_554
Al0 F1 1.814826 1_544
Al0 F2 1.814826 1_445
Al0 F4 1.814826 1_454
Ag0 F1 2.354006 1_555
Ag0 F4 2.354006 1_555
Ag0 F5 2.354006 1_555
Ag0 F2 2.354006 1_555
Ag0 F3 2.354006 1_555
Ag0 F0 2.354006 1_555
