# generated using pymatgen
data_Al4Co(BO5)2
_symmetry_space_group_name_H-M   'P 1'
_cell_length_a   4.39910000
_cell_length_b   7.26860400
_cell_length_c   9.61798244
_cell_angle_alpha   71.56385872
_cell_angle_beta   90.00000000
_cell_angle_gamma   90.00000000
_symmetry_Int_Tables_number   1
_chemical_formula_structural   Al4Co(BO5)2
_chemical_formula_sum   'Al8 Co2 B4 O20'
_cell_volume   291.75416509
_cell_formula_units_Z   2
loop_
 _symmetry_equiv_pos_site_id
 _symmetry_equiv_pos_as_xyz
  1  'x, y, z'
loop_
 _atom_site_type_symbol
 _atom_site_label
 _atom_site_symmetry_multiplicity
 _atom_site_fract_x
 _atom_site_fract_y
 _atom_site_fract_z
 _atom_site_occupancy
  Al  Al0  1  0.52158100  0.29677800  0.33191900  1
  Al  Al1  1  0.47841900  0.70322200  0.66808100  1
  Al  Al2  1  0.00561700  0.92510100  0.39132800  1
  Al  Al3  1  0.99438300  0.07489900  0.60867200  1
  Al  Al4  1  0.50561700  0.07489900  0.10867200  1
  Al  Al5  1  0.49438300  0.92510100  0.89132800  1
  Al  Al6  1  0.02158100  0.70322200  0.16808100  1
  Al  Al7  1  0.97841900  0.29677800  0.83191900  1
  Co  Co0  1  0.00000000  0.50000000  0.50000000  1
  Co  Co1  1  0.50000000  0.50000000  0.00000000  1
  B  B0  1  0.57122200  0.70886900  0.35125600  1
  B  B1  1  0.42877800  0.29113100  0.64874400  1
  B  B2  1  0.92877800  0.70886900  0.85125600  1
  B  B3  1  0.07122200  0.29113100  0.14874400  1
  O  O0  1  0.74187000  0.28110600  0.15565800  1
  O  O1  1  0.70856900  0.54131600  0.31501400  1
  O  O2  1  0.75813000  0.28110600  0.65565800  1
  O  O3  1  0.78466200  0.11271800  0.43864100  1
  O  O4  1  0.69898900  0.71177200  0.49562300  1
  O  O5  1  0.79143100  0.54131600  0.81501400  1
  O  O6  1  0.21533800  0.88728200  0.56135900  1
  O  O7  1  0.25813000  0.71889400  0.84434200  1
  O  O8  1  0.28466200  0.88728200  0.06135900  1
  O  O9  1  0.71533800  0.11271800  0.93864100  1
  O  O10  1  0.29143100  0.45868400  0.68498600  1
  O  O11  1  0.19898900  0.28822800  0.00437700  1
  O  O12  1  0.75745700  0.87918800  0.74305000  1
  O  O13  1  0.24187000  0.71889400  0.34434200  1
  O  O14  1  0.20856900  0.45868400  0.18498600  1
  O  O15  1  0.80101100  0.71177200  0.99562300  1
  O  O16  1  0.25745700  0.12081200  0.75695000  1
  O  O17  1  0.74254300  0.87918800  0.24305000  1
  O  O18  1  0.30101100  0.28822800  0.50437700  1
  O  O19  1  0.24254300  0.12081200  0.25695000  1
loop_
_geom_bond_atom_site_label_1
_geom_bond_atom_site_label_2
_geom_bond_distance
_geom_bond_site_symmetry_2
Al0 O3 1.820518 1_555
Al0 O18 1.905634 1_555
Al0 O1 1.918231 1_555
Al0 O0 1.987003 1_555
Al0 O14 2.055775 1_555
Al0 O19 2.060566 1_555
Al1 O6 1.820518 1_555
Al1 O4 1.905634 1_555
Al1 O10 1.918231 1_555
Al1 O7 1.987003 1_555
Al1 O5 2.055775 1_555
Al1 O12 2.060566 1_555
Al2 O6 1.821202 1_555
Al2 O3 1.845016 1_465
Al2 O19 1.901967 1_565
Al2 O17 1.945656 1_455
Al2 O13 1.989798 1_555
Al2 O4 2.060655 1_455
Al3 O3 1.821202 1_555
Al3 O6 1.845016 1_645
Al3 O12 1.901967 1_545
Al3 O16 1.945656 1_655
Al3 O2 1.989798 1_555
Al3 O18 2.060655 1_655
Al4 O9 1.821202 1_554
Al4 O8 1.845016 1_545
Al4 O17 1.901967 1_545
Al4 O19 1.945656 1_555
Al4 O0 1.989798 1_555
Al4 O11 2.060655 1_555
Al5 O8 1.821202 1_556
Al5 O9 1.845016 1_565
Al5 O16 1.901967 1_565
Al5 O12 1.945656 1_555
Al5 O7 1.989798 1_555
Al5 O15 2.060655 1_555
Al6 O8 1.820518 1_555
Al6 O15 1.905634 1_454
Al6 O14 1.918231 1_555
Al6 O13 1.987003 1_555
Al6 O1 2.055775 1_455
Al6 O17 2.060566 1_455
Al7 O9 1.820518 1_555
Al7 O11 1.905634 1_656
Al7 O5 1.918231 1_555
Al7 O2 1.987003 1_555
Al7 O10 2.055775 1_655
Al7 O16 2.060566 1_655
Co0 O4 2.020801 1_455
Co0 O18 2.020801 1_555
Co0 O13 2.097219 1_555
Co0 O2 2.097219 1_455
Co0 O10 2.135737 1_555
Co0 O1 2.135737 1_455
Co1 O15 2.020801 1_554
Co1 O11 2.020801 1_555
Co1 O7 2.097219 1_554
Co1 O0 2.097219 1_555
Co1 O14 2.135737 1_555
Co1 O5 2.135737 1_554
B0 O13 1.451151 1_555
B0 O1 1.496094 1_555
B0 O4 1.504285 1_555
B0 O17 1.539091 1_555
B1 O2 1.451151 1_555
B1 O10 1.496094 1_555
B1 O18 1.504285 1_555
B1 O16 1.539091 1_555
B2 O7 1.451151 1_655
B2 O5 1.496094 1_555
B2 O15 1.504285 1_555
B2 O12 1.539091 1_555
B3 O0 1.451151 1_455
B3 O14 1.496094 1_555
B3 O11 1.504285 1_555
B3 O19 1.539091 1_555
