# generated using pymatgen
data_MgVNiS4
_symmetry_space_group_name_H-M   'P 1'
_cell_length_a   7.22592397
_cell_length_b   7.15980025
_cell_length_c   7.16552326
_cell_angle_alpha   58.38276046
_cell_angle_beta   59.71806584
_cell_angle_gamma   59.69212854
_symmetry_Int_Tables_number   1
_chemical_formula_structural   MgVNiS4
_chemical_formula_sum   'Mg2 V2 Ni2 S8'
_cell_volume   257.65141067
_cell_formula_units_Z   2
loop_
 _symmetry_equiv_pos_site_id
 _symmetry_equiv_pos_as_xyz
  1  'x, y, z'
loop_
 _atom_site_type_symbol
 _atom_site_label
 _atom_site_symmetry_multiplicity
 _atom_site_fract_x
 _atom_site_fract_y
 _atom_site_fract_z
 _atom_site_occupancy
  Mg  Mg0  1  0.87461200  0.87542100  0.87542100  1
  Mg  Mg1  1  0.12539000  0.12458200  0.12458100  1
  V  V0  1  0.50000200  0.50000200  0.99999700  1
  V  V1  1  0.50000000  0.99999200  0.50001100  1
  Ni  Ni0  1  0.50000300  0.50000400  0.49999200  1
  Ni  Ni1  1  0.00000300  0.49999600  0.50000600  1
  S  S0  1  0.74493000  0.73417500  0.73408200  1
  S  S1  1  0.26256100  0.27403200  0.70078400  1
  S  S2  1  0.26247700  0.70085000  0.27412400  1
  S  S3  1  0.71318900  0.26583400  0.26591500  1
  S  S4  1  0.73751400  0.29915400  0.72586100  1
  S  S5  1  0.28680100  0.73415900  0.73408100  1
  S  S6  1  0.25506900  0.26581800  0.26593200  1
  S  S7  1  0.73745400  0.72597600  0.29921200  1
loop_
_geom_bond_atom_site_label_1
_geom_bond_atom_site_label_2
_geom_bond_distance
_geom_bond_site_symmetry_2
Mg0 S5 2.431298 1_655
Mg0 S0 2.431862 1_555
Mg0 S4 2.441810 1_565
Mg0 S7 2.444770 1_556
Mg1 S3 2.431366 1_455
Mg1 S6 2.431857 1_555
Mg1 S2 2.441805 1_545
Mg1 S1 2.444804 1_554
Ni0 S1 2.345834 1_555
Ni0 S4 2.345840 1_555
Ni0 S7 2.345895 1_555
Ni0 S2 2.345922 1_555
Ni0 S5 2.394405 1_555
Ni0 S3 2.394428 1_555
Ni1 S1 2.345433 1_555
Ni1 S7 2.345454 1_455
Ni1 S2 2.345505 1_555
Ni1 S4 2.345540 1_455
Ni1 S6 2.394440 1_555
Ni1 S0 2.394458 1_455
S0 V1 2.411393 1_555
S0 V0 2.412136 1_555
S1 V1 2.436336 1_545
S2 V0 2.437743 1_554
S3 V1 2.411526 1_545
S3 V0 2.412199 1_554
S4 V0 2.437792 1_555
S5 V1 2.411535 1_555
S5 V0 2.412261 1_555
S6 V1 2.411439 1_545
S6 V0 2.412220 1_554
S7 V1 2.436328 1_555
