# generated using pymatgen
data_KNaMg30O31
_symmetry_space_group_name_H-M   'P 1'
_cell_length_a   8.56925300
_cell_length_b   8.64263600
_cell_length_c   8.65696500
_cell_angle_alpha   90.00000000
_cell_angle_beta   90.00000000
_cell_angle_gamma   90.00000000
_symmetry_Int_Tables_number   1
_chemical_formula_structural   KNaMg30O31
_chemical_formula_sum   'K1 Na1 Mg30 O31'
_cell_volume   641.14291758
_cell_formula_units_Z   1
loop_
 _symmetry_equiv_pos_site_id
 _symmetry_equiv_pos_as_xyz
  1  'x, y, z'
loop_
 _atom_site_type_symbol
 _atom_site_label
 _atom_site_symmetry_multiplicity
 _atom_site_fract_x
 _atom_site_fract_y
 _atom_site_fract_z
 _atom_site_occupancy
  K  K0  1  0.99423000  0.00000000  0.00000000  1
  Na  Na0  1  0.99544100  0.00000000  0.50000000  1
  Mg  Mg0  1  0.99841700  0.50000000  0.00000000  1
  Mg  Mg1  1  0.99533300  0.50000000  0.50000000  1
  Mg  Mg2  1  0.50000600  0.00000000  0.00000000  1
  Mg  Mg3  1  0.51623500  0.00000000  0.50000000  1
  Mg  Mg4  1  0.50111500  0.50000000  0.00000000  1
  Mg  Mg5  1  0.50278300  0.50000000  0.50000000  1
  Mg  Mg6  1  0.00115200  0.24948700  0.25294600  1
  Mg  Mg7  1  0.00115200  0.24948700  0.74705400  1
  Mg  Mg8  1  0.00115200  0.75051300  0.25294600  1
  Mg  Mg9  1  0.00115200  0.75051300  0.74705400  1
  Mg  Mg10  1  0.49944100  0.24915300  0.25063700  1
  Mg  Mg11  1  0.49944100  0.24915300  0.74936300  1
  Mg  Mg12  1  0.49944100  0.75084700  0.25063700  1
  Mg  Mg13  1  0.49944100  0.75084700  0.74936300  1
  Mg  Mg14  1  0.24771500  0.00000000  0.22735600  1
  Mg  Mg15  1  0.24771500  0.00000000  0.77264400  1
  Mg  Mg16  1  0.24901100  0.50000000  0.24667900  1
  Mg  Mg17  1  0.24901100  0.50000000  0.75332100  1
  Mg  Mg18  1  0.75337300  0.00000000  0.25277000  1
  Mg  Mg19  1  0.75337300  0.00000000  0.74723000  1
  Mg  Mg20  1  0.75109900  0.50000000  0.24922700  1
  Mg  Mg21  1  0.75109900  0.50000000  0.75077300  1
  Mg  Mg22  1  0.24972700  0.25477800  0.00000000  1
  Mg  Mg23  1  0.24638400  0.27272800  0.50000000  1
  Mg  Mg24  1  0.24972700  0.74522200  0.00000000  1
  Mg  Mg25  1  0.24638400  0.72727200  0.50000000  1
  Mg  Mg26  1  0.74932200  0.25146200  0.00000000  1
  Mg  Mg27  1  0.75517700  0.24834600  0.50000000  1
  Mg  Mg28  1  0.74932200  0.74853800  0.00000000  1
  Mg  Mg29  1  0.75517700  0.75165400  0.50000000  1
  O  O0  1  0.27368400  0.00000000  0.00000000  1
  O  O1  1  0.25559500  0.50000000  0.00000000  1
  O  O2  1  0.25523800  0.50000000  0.50000000  1
  O  O3  1  0.72334600  0.00000000  0.00000000  1
  O  O4  1  0.74124200  0.00000000  0.50000000  1
  O  O5  1  0.74493600  0.50000000  0.00000000  1
  O  O6  1  0.74531200  0.50000000  0.50000000  1
  O  O7  1  0.25082100  0.24662900  0.25499400  1
  O  O8  1  0.25082100  0.24662900  0.74500600  1
  O  O9  1  0.25082100  0.75337100  0.25499400  1
  O  O10  1  0.25082100  0.75337100  0.74500600  1
  O  O11  1  0.74965800  0.24794600  0.25123600  1
  O  O12  1  0.74965800  0.24794600  0.74876400  1
  O  O13  1  0.74965800  0.75205400  0.25123600  1
  O  O14  1  0.74965800  0.75205400  0.74876400  1
  O  O15  1  0.01289100  0.00000000  0.26514400  1
  O  O16  1  0.01289100  0.00000000  0.73485600  1
  O  O17  1  0.00116600  0.50000000  0.25306400  1
  O  O18  1  0.00116600  0.50000000  0.74693600  1
  O  O19  1  0.49040300  0.00000000  0.26125500  1
  O  O20  1  0.49040300  0.00000000  0.73874500  1
  O  O21  1  0.49905000  0.50000000  0.25250000  1
  O  O22  1  0.49905000  0.50000000  0.74750000  1
  O  O23  1  0.00223400  0.27391400  0.00000000  1
  O  O24  1  0.00395100  0.26484300  0.50000000  1
  O  O25  1  0.00223400  0.72608600  0.00000000  1
  O  O26  1  0.00395100  0.73515700  0.50000000  1
  O  O27  1  0.49806200  0.25343000  0.00000000  1
  O  O28  1  0.49183000  0.24528900  0.50000000  1
  O  O29  1  0.49806200  0.74657000  0.00000000  1
  O  O30  1  0.49183000  0.75471100  0.50000000  1
loop_
_geom_bond_atom_site_label_1
_geom_bond_atom_site_label_2
_geom_bond_distance
_geom_bond_site_symmetry_2
K0 O15 2.300906 1_655
K0 O16 2.300906 1_654
K0 O3 2.321274 1_555
K0 O25 2.368332 1_645
K0 O23 2.368332 1_655
K0 O0 2.394712 1_655
Na0 O16 2.038632 1_655
Na0 O15 2.038632 1_655
Na0 O4 2.178296 1_555
Na0 O24 2.290103 1_655
Na0 O26 2.290103 1_645
Mg0 O25 1.954253 1_655
Mg0 O23 1.954253 1_655
Mg0 O5 2.172143 1_555
Mg0 O18 2.190893 1_654
Mg0 O17 2.190893 1_655
Mg0 O1 2.203823 1_655
Mg1 O26 2.033718 1_655
Mg1 O24 2.033718 1_655
Mg1 O17 2.138301 1_655
Mg1 O18 2.138301 1_655
Mg1 O6 2.142493 1_555
Mg1 O2 2.227192 1_655
Mg2 O3 1.913857 1_555
Mg2 O0 1.939410 1_555
Mg2 O27 2.190367 1_555
Mg2 O29 2.190367 1_545
Mg2 O19 2.263172 1_555
Mg2 O20 2.263172 1_554
Mg3 O4 1.928142 1_555
Mg3 O19 2.078628 1_555
Mg3 O20 2.078628 1_555
Mg3 O30 2.130234 1_545
Mg3 O28 2.130234 1_555
Mg4 O5 2.089364 1_555
Mg4 O1 2.103923 1_555
Mg4 O29 2.131175 1_555
Mg4 O27 2.131175 1_555
Mg4 O22 2.185955 1_554
Mg4 O21 2.185955 1_555
Mg5 O6 2.078292 1_555
Mg5 O2 2.121276 1_555
Mg5 O21 2.142838 1_555
Mg5 O22 2.142838 1_555
Mg5 O30 2.203374 1_555
Mg5 O28 2.203374 1_555
Mg6 O7 2.139693 1_555
Mg6 O24 2.142986 1_555
Mg6 O11 2.155208 1_455
Mg6 O15 2.161152 1_555
Mg6 O17 2.165093 1_555
Mg6 O23 2.199917 1_555
Mg7 O8 2.139693 1_555
Mg7 O24 2.142986 1_555
Mg7 O12 2.155208 1_455
Mg7 O16 2.161152 1_555
Mg7 O18 2.165093 1_555
Mg7 O23 2.199917 1_556
Mg8 O9 2.139693 1_555
Mg8 O26 2.142986 1_555
Mg8 O13 2.155208 1_455
Mg8 O15 2.161152 1_565
Mg8 O17 2.165093 1_555
Mg8 O25 2.199917 1_555
Mg9 O10 2.139693 1_555
Mg9 O26 2.142986 1_555
Mg9 O14 2.155208 1_455
Mg9 O16 2.161152 1_565
Mg9 O18 2.165093 1_555
Mg9 O25 2.199917 1_556
Mg10 O7 2.130933 1_555
Mg10 O11 2.144204 1_555
Mg10 O19 2.156691 1_555
Mg10 O28 2.159970 1_555
Mg10 O21 2.168042 1_555
Mg10 O27 2.170103 1_555
Mg11 O8 2.130933 1_555
Mg11 O12 2.144204 1_555
Mg11 O20 2.156691 1_555
Mg11 O28 2.159970 1_555
Mg11 O22 2.168042 1_555
Mg11 O27 2.170103 1_556
Mg12 O9 2.130933 1_555
Mg12 O13 2.144204 1_555
Mg12 O19 2.156691 1_565
Mg12 O30 2.159970 1_555
Mg12 O21 2.168042 1_555
Mg12 O29 2.170103 1_555
Mg13 O10 2.130933 1_555
Mg13 O14 2.144204 1_555
Mg13 O20 2.156691 1_565
Mg13 O30 2.159970 1_555
Mg13 O22 2.168042 1_555
Mg13 O29 2.170103 1_556
Mg14 O0 1.980753 1_555
Mg14 O15 2.038683 1_555
Mg14 O19 2.100258 1_555
Mg14 O7 2.145076 1_555
Mg14 O9 2.145076 1_545
Mg15 O0 1.980753 1_556
Mg15 O16 2.038683 1_555
Mg15 O20 2.100258 1_555
Mg15 O8 2.145076 1_555
Mg15 O10 2.145076 1_545
Mg16 O17 2.124566 1_555
Mg16 O1 2.136237 1_555
Mg16 O21 2.143240 1_555
Mg16 O7 2.191031 1_555
Mg16 O9 2.191031 1_555
Mg16 O2 2.193640 1_555
Mg17 O18 2.124566 1_555
Mg17 O1 2.136237 1_556
Mg17 O22 2.143240 1_555
Mg17 O10 2.191031 1_555
Mg17 O8 2.191031 1_555
Mg17 O2 2.193640 1_555
Mg18 O4 2.142785 1_555
Mg18 O11 2.143185 1_555
Mg18 O13 2.143185 1_545
Mg18 O3 2.203297 1_555
Mg18 O15 2.226454 1_655
Mg18 O19 2.254653 1_555
Mg19 O4 2.142785 1_555
Mg19 O12 2.143185 1_555
Mg19 O14 2.143185 1_545
Mg19 O3 2.203297 1_556
Mg19 O16 2.226454 1_655
Mg19 O20 2.254653 1_555
Mg20 O17 2.143145 1_655
Mg20 O5 2.158196 1_555
Mg20 O21 2.160057 1_555
Mg20 O6 2.171499 1_555
Mg20 O11 2.178515 1_555
Mg20 O13 2.178515 1_555
Mg21 O18 2.143145 1_655
Mg21 O5 2.158196 1_556
Mg21 O22 2.160057 1_555
Mg21 O6 2.171499 1_555
Mg21 O12 2.178515 1_555
Mg21 O14 2.178515 1_555
Mg22 O1 2.119961 1_555
Mg22 O23 2.127269 1_555
Mg22 O27 2.128077 1_555
Mg22 O7 2.208617 1_555
Mg22 O8 2.208617 1_554
Mg22 O0 2.211503 1_555
Mg23 O2 1.965694 1_555
Mg23 O24 2.078587 1_555
Mg23 O28 2.116616 1_555
Mg23 O8 2.133308 1_555
Mg23 O7 2.133308 1_555
Mg24 O1 2.119961 1_555
Mg24 O25 2.127269 1_555
Mg24 O29 2.128077 1_555
Mg24 O9 2.208617 1_555
Mg24 O10 2.208617 1_554
Mg24 O0 2.211503 1_565
Mg25 O2 1.965694 1_555
Mg25 O26 2.078587 1_555
Mg25 O30 2.116616 1_555
Mg25 O10 2.133308 1_555
Mg25 O9 2.133308 1_555
Mg26 O5 2.148352 1_555
Mg26 O27 2.153178 1_555
Mg26 O12 2.175155 1_554
Mg26 O11 2.175155 1_555
Mg26 O23 2.175936 1_655
Mg26 O3 2.184664 1_555
Mg27 O24 2.136570 1_655
Mg27 O4 2.149683 1_555
Mg27 O12 2.154063 1_555
Mg27 O11 2.154063 1_555
Mg27 O6 2.176596 1_555
Mg27 O28 2.256842 1_555
Mg28 O5 2.148352 1_555
Mg28 O29 2.153178 1_555
Mg28 O13 2.175155 1_555
Mg28 O14 2.175155 1_554
Mg28 O25 2.175936 1_655
Mg28 O3 2.184664 1_565
Mg29 O26 2.136570 1_655
Mg29 O4 2.149683 1_565
Mg29 O13 2.154063 1_555
Mg29 O14 2.154063 1_555
Mg29 O6 2.176596 1_555
Mg29 O30 2.256842 1_555
