# generated using pymatgen
data_K2SnC4O9
_symmetry_space_group_name_H-M   'P 1'
_cell_length_a   6.55449100
_cell_length_b   6.59420683
_cell_length_c   11.89611553
_cell_angle_alpha   94.43674478
_cell_angle_beta   92.63295721
_cell_angle_gamma   102.91345625
_symmetry_Int_Tables_number   1
_chemical_formula_structural   K2SnC4O9
_chemical_formula_sum   'K4 Sn2 C8 O18'
_cell_volume   498.60549428
_cell_formula_units_Z   2
loop_
 _symmetry_equiv_pos_site_id
 _symmetry_equiv_pos_as_xyz
  1  'x, y, z'
loop_
 _atom_site_type_symbol
 _atom_site_label
 _atom_site_symmetry_multiplicity
 _atom_site_fract_x
 _atom_site_fract_y
 _atom_site_fract_z
 _atom_site_occupancy
  K  K0  1  0.48063300  0.26748700  0.88587600  1
  K  K1  1  0.51936700  0.73251300  0.11412400  1
  K  K2  1  0.75821500  0.06388400  0.42020900  1
  K  K3  1  0.24178500  0.93611600  0.57979100  1
  Sn  Sn0  1  0.75368900  0.84973100  0.77073100  1
  Sn  Sn1  1  0.24631100  0.15026900  0.22926900  1
  C  C0  1  0.67044400  0.41675200  0.63527400  1
  C  C1  1  0.32955600  0.58324800  0.36472600  1
  C  C2  1  0.75441600  0.56498600  0.54203300  1
  C  C3  1  0.24558400  0.43501400  0.45796700  1
  C  C4  1  0.16085700  0.77573400  0.88338800  1
  C  C5  1  0.83914300  0.22426600  0.11661200  1
  C  C6  1  0.00386100  0.74521700  0.98029100  1
  C  C7  1  0.99613900  0.25478300  0.01970900  1
  O  O0  1  0.61085700  0.22504400  0.61024500  1
  O  O1  1  0.38914300  0.77495600  0.38975500  1
  O  O2  1  0.66671200  0.50765600  0.73495500  1
  O  O3  1  0.33328800  0.49234400  0.26504500  1
  O  O4  1  0.75385500  0.48501700  0.44334500  1
  O  O5  1  0.24614500  0.51498300  0.55665500  1
  O  O6  1  0.81373300  0.76029900  0.57644100  1
  O  O7  1  0.18626700  0.23970100  0.42355900  1
  O  O8  1  0.34527200  0.76070200  0.90254100  1
  O  O9  1  0.65472800  0.23929800  0.09745900  1
  O  O10  1  0.08778100  0.82662000  0.78934500  1
  O  O11  1  0.91221900  0.17338000  0.21065500  1
  O  O12  1  0.07552700  0.72669300  0.07694700  1
  O  O13  1  0.92447300  0.27330700  0.92305300  1
  O  O14  1  0.81318100  0.75064700  0.95187300  1
  O  O15  1  0.18681900  0.24935300  0.04812700  1
  O  O16  1  0.87013900  0.74655000  0.27709000  1
  O  O17  1  0.12986100  0.25345000  0.72291000  1
loop_
_geom_bond_atom_site_label_1
_geom_bond_atom_site_label_2
_geom_bond_distance
_geom_bond_site_symmetry_2
K0 O2 2.645158 1_555
K0 O9 2.752336 1_556
K0 O15 2.778993 1_556
K0 O13 2.913668 1_555
K0 O17 2.919006 1_555
K0 O8 3.284485 1_545
K1 O3 2.645158 1_555
K1 O8 2.752336 1_554
K1 O14 2.778993 1_554
K1 O12 2.913668 1_555
K1 O16 2.919006 1_555
K1 O9 3.284485 1_565
K2 O1 2.714011 1_545
K2 O0 2.731420 1_555
K2 O4 2.776049 1_555
K2 O7 2.783198 1_655
K2 O11 2.817556 1_555
K2 O16 2.839963 1_545
K2 O6 2.904025 1_545
K3 O0 2.714011 1_565
K3 O1 2.731420 1_555
K3 O5 2.776049 1_555
K3 O6 2.783198 1_455
K3 O10 2.817556 1_555
K3 O17 2.839963 1_565
K3 O7 2.904025 1_565
C0 O0 1.244870 1_555
C0 O2 1.290477 1_555
C1 O1 1.244870 1_555
C1 O3 1.290477 1_555
C2 O4 1.248732 1_555
C2 O6 1.287433 1_555
C3 O5 1.248732 1_555
C3 O7 1.287433 1_555
C4 O8 1.246816 1_555
C4 O10 1.293944 1_555
C5 O9 1.246816 1_555
C5 O11 1.293944 1_555
C6 O12 1.247171 1_556
C6 O14 1.288663 1_455
C7 O13 1.247171 1_554
C7 O15 1.288663 1_655
O2 Sn0 2.201995 1_555
O3 Sn1 2.201995 1_555
O6 Sn0 2.412713 1_555
O7 Sn1 2.412713 1_555
O10 Sn0 2.230992 1_455
O11 Sn1 2.230992 1_655
O14 Sn0 2.340300 1_555
O15 Sn1 2.340300 1_555
