# generated using pymatgen
data_Be2CoRu
_symmetry_space_group_name_H-M   'P 1'
_cell_length_a   9.84916205
_cell_length_b   9.84916205
_cell_length_c   9.84916205
_cell_angle_alpha   128.99143495
_cell_angle_beta   117.13078726
_cell_angle_gamma   85.11089877
_symmetry_Int_Tables_number   1
_chemical_formula_structural   Be2CoRu
_chemical_formula_sum   'Be2 Co1 Ru1'
_cell_volume   632.16553256
_cell_formula_units_Z   1
loop_
 _symmetry_equiv_pos_site_id
 _symmetry_equiv_pos_as_xyz
  1  'x, y, z'
loop_
 _atom_site_type_symbol
 _atom_site_label
 _atom_site_symmetry_multiplicity
 _atom_site_fract_x
 _atom_site_fract_y
 _atom_site_fract_z
 _atom_site_occupancy
  Be  Be0  1  0.00000000  0.25506200  0.25506200  1
  Be  Be1  1  0.00000000  0.74493800  0.74493800  1
  Co  Co0  1  0.00000000  0.00000000  0.00000000  1
  Ru  Ru0  1  0.00000000  0.50000000  0.50000000  1
loop_
_geom_bond_atom_site_label_1
_geom_bond_atom_site_label_2
_geom_bond_distance
_geom_bond_site_symmetry_2
Be0 Ru0 2.077485 1_555
Be0 Co0 2.163353 1_555
Be1 Ru0 2.077485 1_555
Be1 Co0 2.163353 1_566
