# generated using pymatgen
data_Cs2ZnSn3Se8
_symmetry_space_group_name_H-M   'P 1'
_cell_length_a   8.03013100
_cell_length_b   13.65623700
_cell_length_c   18.79705300
_cell_angle_alpha   90.00000000
_cell_angle_beta   90.00000000
_cell_angle_gamma   90.00000000
_symmetry_Int_Tables_number   1
_chemical_formula_structural   Cs2ZnSn3Se8
_chemical_formula_sum   'Cs8 Zn4 Sn12 Se32'
_cell_volume   2061.31062298
_cell_formula_units_Z   4
loop_
 _symmetry_equiv_pos_site_id
 _symmetry_equiv_pos_as_xyz
  1  'x, y, z'
loop_
 _atom_site_type_symbol
 _atom_site_label
 _atom_site_symmetry_multiplicity
 _atom_site_fract_x
 _atom_site_fract_y
 _atom_site_fract_z
 _atom_site_occupancy
  Cs  Cs0  1  0.74891500  0.63119300  0.05279900  1
  Cs  Cs1  1  0.75108500  0.36880700  0.55279900  1
  Cs  Cs2  1  0.24891500  0.86880700  0.94720100  1
  Cs  Cs3  1  0.25108500  0.13119300  0.44720100  1
  Cs  Cs4  1  0.22896800  0.81149700  0.34175400  1
  Cs  Cs5  1  0.27103200  0.18850300  0.84175400  1
  Cs  Cs6  1  0.72896800  0.68850300  0.65824600  1
  Cs  Cs7  1  0.77103200  0.31149700  0.15824600  1
  Zn  Zn0  1  0.99050400  0.50068400  0.34729700  1
  Zn  Zn1  1  0.50949600  0.49931600  0.84729700  1
  Zn  Zn2  1  0.49050400  0.99931600  0.65270300  1
  Zn  Zn3  1  0.00949600  0.00068400  0.15270300  1
  Sn  Sn0  1  0.76130000  0.04716200  0.31913400  1
  Sn  Sn1  1  0.73870000  0.95283800  0.81913400  1
  Sn  Sn2  1  0.26130000  0.45283800  0.68086600  1
  Sn  Sn3  1  0.23870000  0.54716200  0.18086600  1
  Sn  Sn4  1  0.72851500  0.93625300  0.48505300  1
  Sn  Sn5  1  0.77148500  0.06374700  0.98505300  1
  Sn  Sn6  1  0.22851500  0.56374700  0.51494700  1
  Sn  Sn7  1  0.27148500  0.43625300  0.01494700  1
  Sn  Sn8  1  0.50597500  0.98760700  0.15086100  1
  Sn  Sn9  1  0.99402500  0.01239300  0.65086100  1
  Sn  Sn10  1  0.00597500  0.51239300  0.84913900  1
  Sn  Sn11  1  0.49402500  0.48760700  0.34913900  1
  Se  Se0  1  0.50571800  0.61305300  0.45490300  1
  Se  Se1  1  0.99428200  0.38694700  0.95490300  1
  Se  Se2  1  0.00571800  0.88694700  0.54509700  1
  Se  Se3  1  0.49428200  0.11305300  0.04509700  1
  Se  Se4  1  0.96867100  0.61538000  0.45088200  1
  Se  Se5  1  0.53132900  0.38462000  0.95088200  1
  Se  Se6  1  0.46867100  0.88462000  0.54911800  1
  Se  Se7  1  0.03132900  0.11538000  0.04911800  1
  Se  Se8  1  0.76936600  0.88454900  0.15514800  1
  Se  Se9  1  0.73063400  0.11545100  0.65514800  1
  Se  Se10  1  0.26936600  0.61545100  0.84485200  1
  Se  Se11  1  0.23063400  0.38454900  0.34485200  1
  Se  Se12  1  0.74877400  0.61889600  0.85193100  1
  Se  Se13  1  0.75122600  0.38110400  0.35193100  1
  Se  Se14  1  0.24877400  0.88110400  0.14806900  1
  Se  Se15  1  0.25122600  0.11889600  0.64806900  1
  Se  Se16  1  0.50712700  0.60873300  0.24114000  1
  Se  Se17  1  0.99287300  0.39126700  0.74114000  1
  Se  Se18  1  0.00712700  0.89126700  0.75886000  1
  Se  Se19  1  0.49287300  0.10873300  0.25886000  1
  Se  Se20  1  0.97196600  0.60374700  0.23681900  1
  Se  Se21  1  0.52803400  0.39625300  0.73681900  1
  Se  Se22  1  0.47196600  0.89625300  0.76318100  1
  Se  Se23  1  0.02803400  0.10374700  0.26318100  1
  Se  Se24  1  0.74119300  0.11956500  0.44786500  1
  Se  Se25  1  0.75880700  0.88043500  0.94786500  1
  Se  Se26  1  0.24119300  0.38043500  0.55213500  1
  Se  Se27  1  0.25880700  0.61956500  0.05213500  1
  Se  Se28  1  0.74131700  0.86493100  0.35700900  1
  Se  Se29  1  0.75868300  0.13506900  0.85700900  1
  Se  Se30  1  0.24131700  0.63506900  0.64299100  1
  Se  Se31  1  0.25868300  0.36493100  0.14299100  1
loop_
_geom_bond_atom_site_label_1
_geom_bond_atom_site_label_2
_geom_bond_distance
_geom_bond_site_symmetry_2
Cs0 Se12 3.779459 1_554
Cs0 Se20 3.913252 1_555
Cs0 Se25 3.934729 1_554
Cs0 Se27 3.938853 1_555
Cs0 Se8 3.962202 1_555
Cs0 Se16 4.049353 1_555
Cs0 Se27 4.097597 1_655
Cs0 Se5 4.249865 1_554
Cs0 Se1 4.288800 1_554
Cs1 Se13 3.779459 1_555
Cs1 Se21 3.913252 1_555
Cs1 Se24 3.934729 1_555
Cs1 Se26 3.938853 1_655
Cs1 Se9 3.962202 1_555
Cs1 Se17 4.049353 1_555
Cs1 Se26 4.097597 1_555
Cs1 Se4 4.249865 1_555
Cs1 Se0 4.288800 1_555
Cs2 Se14 3.779459 1_556
Cs2 Se22 3.913252 1_555
Cs2 Se27 3.934729 1_556
Cs2 Se25 3.938853 1_455
Cs2 Se10 3.962202 1_555
Cs2 Se18 4.049353 1_555
Cs2 Se25 4.097597 1_555
Cs2 Se7 4.249865 1_566
Cs2 Se3 4.288800 1_566
Cs3 Se15 3.779459 1_555
Cs3 Se23 3.913252 1_555
Cs3 Se26 3.934729 1_555
Cs3 Se24 3.938853 1_555
Cs3 Se11 3.962202 1_555
Cs3 Se19 4.049353 1_555
Cs3 Se24 4.097597 1_455
Cs3 Se6 4.249865 1_545
Cs3 Se2 4.288800 1_545
Cs4 Se14 3.766116 1_555
Cs4 Se4 3.968583 1_455
Cs4 Se28 3.993618 1_455
Cs4 Se20 4.024771 1_455
Cs4 Se16 4.029062 1_555
Cs4 Se0 4.099567 1_555
Cs4 Se28 4.188267 1_555
Cs5 Se15 3.766116 1_555
Cs5 Se5 3.968583 1_555
Cs5 Se29 3.993618 1_555
Cs5 Se21 4.024771 1_555
Cs5 Se17 4.029062 1_455
Cs5 Se1 4.099567 1_455
Cs5 Se29 4.188267 1_455
Cs6 Se12 3.766116 1_555
Cs6 Se6 3.968583 1_555
Cs6 Se30 3.993618 1_555
Cs6 Se22 4.024771 1_555
Cs6 Se18 4.029062 1_655
Cs6 Se2 4.099567 1_655
Cs6 Se30 4.188267 1_655
Cs7 Se13 3.766116 1_555
Cs7 Se7 3.968583 1_655
Cs7 Se31 3.993618 1_655
Cs7 Se23 4.024771 1_655
Cs7 Se19 4.029062 1_555
Cs7 Se3 4.099567 1_555
Cs7 Se31 4.188267 1_555
Se0 Sn6 2.584995 1_555
Se0 Sn11 2.626013 1_555
Se1 Sn7 2.584995 1_656
Se1 Sn10 2.626013 1_655
Se2 Sn4 2.584995 1_455
Se2 Sn9 2.626013 1_465
Se3 Sn5 2.584995 1_554
Se3 Sn8 2.626013 1_545
Se4 Zn0 2.505045 1_555
Se4 Sn6 2.510216 1_655
Se5 Zn1 2.505045 1_555
Se5 Sn7 2.510216 1_556
Se6 Zn2 2.505045 1_555
Se6 Sn4 2.510216 1_555
Se7 Zn3 2.505045 1_555
Se7 Sn5 2.510216 1_454
Se8 Zn3 2.497128 1_665
Se8 Sn8 2.541795 1_555
Se9 Zn2 2.497128 1_545
Se9 Sn9 2.541795 1_555
Se10 Zn1 2.497128 1_555
Se10 Sn10 2.541795 1_555
Se11 Zn0 2.497128 1_455
Se11 Sn11 2.541795 1_555
Se12 Zn1 2.523138 1_555
Se12 Sn10 2.526623 1_655
Se13 Zn0 2.523138 1_555
Se13 Sn11 2.526623 1_555
Se14 Zn3 2.523138 1_565
Se14 Sn8 2.526623 1_555
Se15 Zn2 2.523138 1_545
Se15 Sn9 2.526623 1_455
Se16 Sn3 2.576202 1_555
Se16 Sn11 2.620755 1_555
Se17 Sn2 2.576202 1_655
Se17 Sn10 2.620755 1_655
Se18 Sn1 2.576202 1_455
Se18 Sn9 2.620755 1_465
Se19 Sn0 2.576202 1_555
Se19 Sn8 2.620755 1_545
Se20 Sn3 2.508202 1_655
Se20 Zn0 2.513086 1_555
Se21 Sn2 2.508202 1_555
Se21 Zn1 2.513086 1_555
Se22 Sn1 2.508202 1_555
Se22 Zn2 2.513086 1_555
Se23 Sn0 2.508202 1_455
Se23 Zn3 2.513086 1_555
Se24 Sn4 2.601110 1_545
Se24 Sn0 2.618961 1_555
Se25 Sn5 2.601110 1_565
Se25 Sn1 2.618961 1_555
Se26 Sn6 2.601110 1_555
Se26 Sn2 2.618961 1_555
Se27 Sn7 2.601110 1_555
Se27 Sn3 2.618961 1_555
Se28 Sn0 2.593392 1_565
Se28 Sn4 2.598490 1_555
Se29 Sn1 2.593392 1_545
Se29 Sn5 2.598490 1_555
Se30 Sn2 2.593392 1_555
Se30 Sn6 2.598490 1_555
Se31 Sn3 2.593392 1_555
Se31 Sn7 2.598490 1_555
