# generated using pymatgen
data_BaMn5O11
_symmetry_space_group_name_H-M   'P 1'
_cell_length_a   7.04746636
_cell_length_b   7.04746636
_cell_length_c   9.59652775
_cell_angle_alpha   87.67056797
_cell_angle_beta   87.67056797
_cell_angle_gamma   24.96024832
_symmetry_Int_Tables_number   1
_chemical_formula_structural   BaMn5O11
_chemical_formula_sum   'Ba1 Mn5 O11'
_cell_volume   200.95787163
_cell_formula_units_Z   1
loop_
 _symmetry_equiv_pos_site_id
 _symmetry_equiv_pos_as_xyz
  1  'x, y, z'
loop_
 _atom_site_type_symbol
 _atom_site_label
 _atom_site_symmetry_multiplicity
 _atom_site_fract_x
 _atom_site_fract_y
 _atom_site_fract_z
 _atom_site_occupancy
  Ba  Ba0  1  0.74997800  0.74997800  0.11586600  1
  Mn  Mn0  1  0.99600100  0.99600100  0.26805100  1
  Mn  Mn1  1  0.00245700  0.00245700  0.73120700  1
  Mn  Mn2  1  0.65803600  0.65803600  0.48612500  1
  Mn  Mn3  1  0.34123400  0.34123400  0.51607800  1
  Mn  Mn4  1  0.49948500  0.49948500  0.99725200  1
  O  O0  1  0.07194200  0.07194200  0.08816500  1
  O  O1  1  0.93048400  0.93048400  0.91616700  1
  O  O2  1  0.90134300  0.90134300  0.42082800  1
  O  O3  1  0.09818400  0.09818400  0.57682000  1
  O  O4  1  0.42179800  0.42179800  0.17033700  1
  O  O5  1  0.56866600  0.56866600  0.81900000  1
  O  O6  1  0.23149000  0.23149000  0.39485800  1
  O  O7  1  0.77000000  0.77000000  0.59694600  1
  O  O8  1  0.57640600  0.57640600  0.33506900  1
  O  O9  1  0.43164400  0.43164400  0.65728300  1
  O  O10  1  0.25085400  0.25085400  0.90994900  1
loop_
_geom_bond_atom_site_label_1
_geom_bond_atom_site_label_2
_geom_bond_distance
_geom_bond_site_symmetry_2
Ba0 O10 2.494495 1_564
Ba0 O10 2.494495 1_654
Ba0 O4 2.878672 1_655
Ba0 O4 2.878672 1_565
Ba0 O0 2.906434 1_565
Ba0 O0 2.906434 1_655
Ba0 O1 3.073608 1_554
Ba0 O6 3.081504 1_655
Ba0 O6 3.081504 1_565
Ba0 O8 3.116490 1_555
Mn0 O2 1.920280 1_555
Mn0 O0 1.980418 1_665
Mn0 O8 2.004169 1_655
Mn0 O8 2.004169 1_565
Mn0 O4 2.078761 1_655
Mn0 O4 2.078761 1_565
Mn1 O3 1.941153 1_555
Mn1 O9 1.957022 1_545
Mn1 O9 1.957022 1_455
Mn1 O5 1.980749 1_455
Mn1 O5 1.980749 1_545
Mn1 O1 1.996301 1_445
Mn2 O8 1.870548 1_555
Mn2 O7 1.908306 1_555
Mn2 O3 1.922420 1_565
Mn2 O3 1.922420 1_655
Mn2 O6 2.008647 1_565
Mn2 O6 2.008647 1_655
Mn3 O9 1.877411 1_555
Mn3 O2 1.943263 1_455
Mn3 O2 1.943263 1_545
Mn3 O6 1.944346 1_555
Mn3 O7 1.954316 1_455
Mn3 O7 1.954316 1_545
Mn4 O5 1.922753 1_555
Mn4 O4 1.937560 1_556
Mn4 O1 1.971837 1_545
Mn4 O1 1.971837 1_455
Mn4 O0 2.036496 1_566
Mn4 O0 2.036496 1_656
