# generated using pymatgen
data_MgZr
_symmetry_space_group_name_H-M   'P 1'
_cell_length_a   6.31283000
_cell_length_b   6.31283000
_cell_length_c   8.92033200
_cell_angle_alpha   90.00000000
_cell_angle_beta   90.00000000
_cell_angle_gamma   90.00000000
_symmetry_Int_Tables_number   1
_chemical_formula_structural   MgZr
_chemical_formula_sum   'Mg8 Zr8'
_cell_volume   355.49148848
_cell_formula_units_Z   8
loop_
 _symmetry_equiv_pos_site_id
 _symmetry_equiv_pos_as_xyz
  1  'x, y, z'
loop_
 _atom_site_type_symbol
 _atom_site_label
 _atom_site_symmetry_multiplicity
 _atom_site_fract_x
 _atom_site_fract_y
 _atom_site_fract_z
 _atom_site_occupancy
  Mg  Mg0_0  1  0.00000000  0.00000000  0.00000000  1
  Mg  Mg0_1  1  0.00000000  0.00000000  0.50000000  1
  Mg  Mg0_2  1  0.00000000  0.50000000  0.00000000  1
  Mg  Mg0_3  1  0.00000000  0.50000000  0.50000000  1
  Mg  Mg0_4  1  0.50000000  0.00000000  0.00000000  1
  Mg  Mg0_5  1  0.50000000  0.00000000  0.50000000  1
  Mg  Mg0_6  1  0.50000000  0.50000000  0.00000000  1
  Mg  Mg0_7  1  0.50000000  0.50000000  0.50000000  1
  Zr  Zr0_0  1  0.25000000  0.25000000  0.25000000  1
  Zr  Zr0_1  1  0.25000000  0.25000000  0.75000000  1
  Zr  Zr0_2  1  0.25000000  0.75000000  0.25000000  1
  Zr  Zr0_3  1  0.25000000  0.75000000  0.75000000  1
  Zr  Zr0_4  1  0.75000000  0.25000000  0.25000000  1
  Zr  Zr0_5  1  0.75000000  0.25000000  0.75000000  1
  Zr  Zr0_6  1  0.75000000  0.75000000  0.25000000  1
  Zr  Zr0_7  1  0.75000000  0.75000000  0.75000000  1
loop_
_geom_bond_atom_site_label_1
_geom_bond_atom_site_label_2
_geom_bond_distance
_geom_bond_site_symmetry_2
Mg0_0 Zr0_7 3.155115 1_444
Mg0_0 Zr0_5 3.155115 1_454
Mg0_0 Zr0_4 3.155115 1_455
Mg0_0 Zr0_6 3.155115 1_445
Mg0_0 Zr0_3 3.155115 1_544
Mg0_0 Zr0_1 3.155115 1_554
Mg0_0 Zr0_0 3.155115 1_555
Mg0_0 Zr0_2 3.155115 1_545
Mg0_0 Mg0_2 3.156415 1_555
Mg0_0 Mg0_2 3.156415 1_545
Mg0_0 Mg0_4 3.156415 1_455
Mg0_0 Mg0_4 3.156415 1_555
Mg0_1 Zr0_7 3.155115 1_445
Mg0_1 Zr0_5 3.155115 1_455
Mg0_1 Zr0_4 3.155115 1_455
Mg0_1 Zr0_6 3.155115 1_445
Mg0_1 Zr0_1 3.155115 1_555
Mg0_1 Zr0_0 3.155115 1_555
Mg0_1 Zr0_3 3.155115 1_545
Mg0_1 Zr0_2 3.155115 1_545
Mg0_1 Mg0_5 3.156415 1_455
Mg0_1 Mg0_5 3.156415 1_555
Mg0_1 Mg0_3 3.156415 1_545
Mg0_1 Mg0_3 3.156415 1_555
Mg0_2 Zr0_5 3.155115 1_454
Mg0_2 Zr0_4 3.155115 1_455
Mg0_2 Zr0_1 3.155115 1_554
Mg0_2 Zr0_0 3.155115 1_555
Mg0_2 Zr0_6 3.155115 1_455
Mg0_2 Zr0_7 3.155115 1_454
Mg0_2 Zr0_2 3.155115 1_555
Mg0_2 Zr0_3 3.155115 1_554
Mg0_2 Mg0_6 3.156415 1_455
Mg0_2 Mg0_6 3.156415 1_555
Mg0_3 Zr0_5 3.155115 1_455
Mg0_3 Zr0_4 3.155115 1_455
Mg0_3 Zr0_7 3.155115 1_455
Mg0_3 Zr0_1 3.155115 1_555
Mg0_3 Zr0_0 3.155115 1_555
Mg0_3 Zr0_6 3.155115 1_455
Mg0_3 Zr0_2 3.155115 1_555
Mg0_3 Zr0_3 3.155115 1_555
Mg0_3 Mg0_7 3.156415 1_455
Mg0_3 Mg0_7 3.156415 1_555
Mg0_4 Zr0_3 3.155115 1_544
Mg0_4 Zr0_1 3.155115 1_554
Mg0_4 Zr0_6 3.155115 1_545
Mg0_4 Zr0_0 3.155115 1_555
Mg0_4 Zr0_7 3.155115 1_544
Mg0_4 Zr0_2 3.155115 1_545
Mg0_4 Zr0_4 3.155115 1_555
Mg0_4 Zr0_5 3.155115 1_554
Mg0_4 Mg0_6 3.156415 1_545
Mg0_4 Mg0_6 3.156415 1_555
Mg0_5 Zr0_1 3.155115 1_555
Mg0_5 Zr0_6 3.155115 1_545
Mg0_5 Zr0_0 3.155115 1_555
Mg0_5 Zr0_3 3.155115 1_545
Mg0_5 Zr0_7 3.155115 1_545
Mg0_5 Zr0_2 3.155115 1_545
Mg0_5 Zr0_5 3.155115 1_555
Mg0_5 Zr0_4 3.155115 1_555
Mg0_5 Mg0_7 3.156415 1_545
Mg0_5 Mg0_7 3.156415 1_555
Mg0_6 Zr0_1 3.155115 1_554
Mg0_6 Zr0_0 3.155115 1_555
Mg0_6 Zr0_2 3.155115 1_555
Mg0_6 Zr0_3 3.155115 1_554
Mg0_6 Zr0_4 3.155115 1_555
Mg0_6 Zr0_5 3.155115 1_554
Mg0_6 Zr0_7 3.155115 1_554
Mg0_6 Zr0_6 3.155115 1_555
Mg0_7 Zr0_1 3.155115 1_555
Mg0_7 Zr0_0 3.155115 1_555
Mg0_7 Zr0_2 3.155115 1_555
Mg0_7 Zr0_5 3.155115 1_555
Mg0_7 Zr0_3 3.155115 1_555
Mg0_7 Zr0_4 3.155115 1_555
Mg0_7 Zr0_7 3.155115 1_555
Mg0_7 Zr0_6 3.155115 1_555
Zr0_0 Zr0_2 3.156415 1_545
Zr0_0 Zr0_4 3.156415 1_455
Zr0_0 Zr0_4 3.156415 1_555
Zr0_0 Zr0_2 3.156415 1_555
Zr0_1 Zr0_5 3.156415 1_455
Zr0_1 Zr0_3 3.156415 1_545
Zr0_1 Zr0_3 3.156415 1_555
Zr0_1 Zr0_5 3.156415 1_555
Zr0_2 Zr0_6 3.156415 1_455
Zr0_2 Zr0_6 3.156415 1_555
Zr0_3 Zr0_7 3.156415 1_455
Zr0_3 Zr0_7 3.156415 1_555
Zr0_4 Zr0_6 3.156415 1_545
Zr0_4 Zr0_6 3.156415 1_555
Zr0_5 Zr0_7 3.156415 1_545
Zr0_5 Zr0_7 3.156415 1_555
