# generated using pymatgen
data_BaMgBO3F
_symmetry_space_group_name_H-M   'P 1'
_cell_length_a   8.24771906
_cell_length_b   17.79708434
_cell_length_c   17.81374904
_cell_angle_alpha   60.03094116
_cell_angle_beta   89.99350911
_cell_angle_gamma   89.98700606
_symmetry_Int_Tables_number   1
_chemical_formula_structural   BaMgBO3F
_chemical_formula_sum   'Ba24 Mg24 B24 O72 F24'
_cell_volume   2265.18662868
_cell_formula_units_Z   24
loop_
 _symmetry_equiv_pos_site_id
 _symmetry_equiv_pos_as_xyz
  1  'x, y, z'
loop_
 _atom_site_type_symbol
 _atom_site_label
 _atom_site_symmetry_multiplicity
 _atom_site_fract_x
 _atom_site_fract_y
 _atom_site_fract_z
 _atom_site_occupancy
  Ba  Ba0  1  0.20336608  0.90149844  0.80990395  1
  Ba  Ba1  1  0.70336608  0.71140239  0.19009605  1
  Ba  Ba2  1  0.21626660  0.08831972  0.99640869  1
  Ba  Ba3  1  0.71626660  0.08472842  0.00359131  1
  Ba  Ba4  1  0.70651956  0.88596390  0.81537732  1
  Ba  Ba5  1  0.20651956  0.70134121  0.18462268  1
  Ba  Ba6  1  0.17736403  0.21350303  0.69160649  1
  Ba  Ba7  1  0.67736403  0.90510952  0.30839351  1
  Ba  Ba8  1  0.19153275  0.40433827  0.80778110  1
  Ba  Ba9  1  0.69153275  0.21211937  0.19221890  1
  Ba  Ba10  1  0.17434368  0.70958695  0.69005062  1
  Ba  Ba11  1  0.67434368  0.39963758  0.30994938  1
  Ba  Ba12  1  0.67634440  0.19890247  0.68460267  1
  Ba  Ba13  1  0.17634440  0.88350513  0.31539733  1
  Ba  Ba14  1  0.20522135  0.59056968  0.98886879  1
  Ba  Ba15  1  0.70522135  0.57943847  0.01113121  1
  Ba  Ba16  1  0.16389670  0.58185143  0.50630465  1
  Ba  Ba17  1  0.66389670  0.08815609  0.49369535  1
  Ba  Ba18  1  0.16277924  0.08333454  0.50757387  1
  Ba  Ba19  1  0.66277924  0.59090841  0.49242613  1
  Ba  Ba20  1  0.18924602  0.19745928  0.18769057  1
  Ba  Ba21  1  0.68924602  0.38514985  0.81230943  1
  Ba  Ba22  1  0.67301004  0.69955664  0.68754150  1
  Ba  Ba23  1  0.17301004  0.38709814  0.31245850  1
  Mg  Mg0  1  0.46751278  0.75608026  0.00239314  1
  Mg  Mg1  1  0.96751278  0.75847340  0.99760686  1
  Mg  Mg2  1  0.96415075  0.04043637  0.85963763  1
  Mg  Mg3  1  0.46415075  0.90007400  0.14036237  1
  Mg  Mg4  1  0.46839174  0.03517538  0.85878086  1
  Mg  Mg5  1  0.96839174  0.89395625  0.14121914  1
  Mg  Mg6  1  0.41780968  0.39948864  0.63858190  1
  Mg  Mg7  1  0.91780968  0.03807055  0.36141810  1
  Mg  Mg8  1  0.41980873  0.89834358  0.64169621  1
  Mg  Mg9  1  0.91980873  0.54003980  0.35830379  1
  Mg  Mg10  1  0.92032784  0.25787373  0.49907716  1
  Mg  Mg11  1  0.42032784  0.75695089  0.50092284  1
  Mg  Mg12  1  0.41090679  0.03298191  0.36100182  1
  Mg  Mg13  1  0.91090679  0.39398373  0.63899818  1
  Mg  Mg14  1  0.41608558  0.25638465  0.50174853  1
  Mg  Mg15  1  0.91608558  0.75813318  0.49825147  1
  Mg  Mg16  1  0.91247849  0.89362001  0.64179173  1
  Mg  Mg17  1  0.41247849  0.53541174  0.35820827  1
  Mg  Mg18  1  0.94430879  0.25640068  0.99917788  1
  Mg  Mg19  1  0.44430879  0.25557856  0.00082212  1
  Mg  Mg20  1  0.94475265  0.53867438  0.86059987  1
  Mg  Mg21  1  0.44475265  0.39927425  0.13940013  1
  Mg  Mg22  1  0.45620103  0.53306374  0.86074499  1
  Mg  Mg23  1  0.95620103  0.39380873  0.13925501  1
  B  B0  1  0.42008912  0.39774925  0.50006322  1
  B  B1  1  0.92008912  0.89781247  0.49993678  1
  B  B2  1  0.91929690  0.39901955  0.49706751  1
  B  B3  1  0.41929690  0.89608706  0.50293249  1
  B  B4  1  0.46466460  0.89771423  0.00154163  1
  B  B5  1  0.96466460  0.89925586  0.99845837  1
  B  B6  1  0.43203115  0.06099478  0.66967468  1
  B  B7  1  0.93203115  0.73066946  0.33032532  1
  B  B8  1  0.44617717  0.72773530  0.83413972  1
  B  B9  1  0.94617717  0.56187502  0.16586028  1
  B  B10  1  0.94905061  0.73180700  0.82963572  1
  B  B11  1  0.44905061  0.56144272  0.17036428  1
  B  B12  1  0.93038566  0.06283227  0.66665139  1
  B  B13  1  0.43038566  0.72948366  0.33334861  1
  B  B14  1  0.44602980  0.22999483  0.83203497  1
  B  B15  1  0.94602980  0.06202980  0.16796503  1
  B  B16  1  0.93290756  0.22870730  0.83215777  1
  B  B17  1  0.43290756  0.06086508  0.16784223  1
  B  B18  1  0.43367663  0.56024523  0.66853328  1
  B  B19  1  0.93367663  0.22877852  0.33146672  1
  B  B20  1  0.92420138  0.56053262  0.66767148  1
  B  B21  1  0.42420138  0.22820410  0.33232852  1
  B  B22  1  0.94473694  0.39779394  0.99753165  1
  B  B23  1  0.44473694  0.39532559  0.00246835  1
  O  O0  1  0.97591773  0.12780944  0.08350150  1
  O  O1  1  0.47591773  0.21131094  0.91649850  1
  O  O2  1  0.47446742  0.70612226  0.91993114  1
  O  O3  1  0.97446742  0.62605340  0.08006886  1
  O  O4  1  0.50439829  0.03020996  0.74992392  1
  O  O5  1  0.00439829  0.78013388  0.25007608  1
  O  O6  1  0.38092022  0.02984677  0.25197527  1
  O  O7  1  0.88092022  0.28182204  0.74802473  1
  O  O8  1  0.95846467  0.31773251  0.07255584  1
  O  O9  1  0.45846467  0.39028835  0.92744416  1
  O  O10  1  0.42093334  0.66284783  0.81354636  1
  O  O11  1  0.92093334  0.47639419  0.18645364  1
  O  O12  1  0.87206615  0.78129767  0.75099529  1
  O  O13  1  0.37206615  0.53229296  0.24900471  1
  O  O14  1  0.01604980  0.15293785  0.85458953  1
  O  O15  1  0.51604980  0.00752738  0.14541047  1
  O  O16  1  0.94788899  0.47322407  0.00296153  1
  O  O17  1  0.44788899  0.47618559  0.99703847  1
  O  O18  1  0.92979433  0.40302231  0.91755410  1
  O  O19  1  0.42979433  0.32057641  0.08244590  1
  O  O20  1  0.43988307  0.16449801  0.81181254  1
  O  O21  1  0.93988307  0.97631054  0.18818746  1
  O  O22  1  0.94875007  0.97779370  0.68548619  1
  O  O23  1  0.44875007  0.66327989  0.31451381  1
  O  O24  1  0.41514731  0.97640545  0.49845136  1
  O  O25  1  0.91514731  0.47485681  0.50154864  1
  O  O26  1  0.47299482  0.89218045  0.92657378  1
  O  O27  1  0.97299482  0.81875423  0.07342622  1
  O  O28  1  0.42015417  0.47864460  0.49445832  1
  O  O29  1  0.92015417  0.97310292  0.50554168  1
  O  O30  1  0.96540135  0.97452929  0.00405456  1
  O  O31  1  0.46540135  0.97858385  0.99594544  1
  O  O32  1  0.89648391  0.12797213  0.58232505  1
  O  O33  1  0.39648391  0.71029718  0.41767495  1
  O  O34  1  0.36336506  0.00465299  0.64649204  1
  O  O35  1  0.86336506  0.65114504  0.35350796  1
  O  O36  1  0.90958003  0.31921001  0.57265328  1
  O  O37  1  0.40958003  0.89186329  0.42734672  1
  O  O38  1  0.40936707  0.39238939  0.42497847  1
  O  O39  1  0.90936707  0.81736786  0.57502153  1
  O  O40  1  0.42134028  0.31564038  0.76767311  1
  O  O41  1  0.92134028  0.08331349  0.23232689  1
  O  O42  1  0.43079860  0.82065933  0.58272764  1
  O  O43  1  0.93079860  0.40338696  0.41727236  1
  O  O44  1  0.95635921  0.90469739  0.91824256  1
  O  O45  1  0.45635921  0.82293995  0.08175744  1
  O  O46  1  0.43760915  0.16316601  0.31138446  1
  O  O47  1  0.93760915  0.47455047  0.68861554  1
  O  O48  1  0.47336251  0.64880799  0.11624113  1
  O  O49  1  0.97336251  0.76504912  0.88375887  1
  O  O50  1  0.93629481  0.58245180  0.73202365  1
  O  O51  1  0.43629481  0.31447545  0.26797635  1
  O  O52  1  0.94744201  0.08425898  0.73113577  1
  O  O53  1  0.44744201  0.81539475  0.26886423  1
  O  O54  1  0.49040309  0.52981506  0.75189400  1
  O  O55  1  0.99040309  0.28170906  0.24810600  1
  O  O56  1  0.90000772  0.25155333  0.89393138  1
  O  O57  1  0.40000772  0.14548472  0.10606862  1
  O  O58  1  0.40163483  0.20789724  0.41803317  1
  O  O59  1  0.90163483  0.62593041  0.58196683  1
  O  O60  1  0.36196533  0.50420055  0.64603050  1
  O  O61  1  0.86196533  0.15023105  0.35396950  1
  O  O62  1  0.42976818  0.32297909  0.58018140  1
  O  O63  1  0.92976818  0.90316049  0.41981860  1
  O  O64  1  0.00613086  0.64996209  0.85315150  1
  O  O65  1  0.50613086  0.50311359  0.14684850  1
  O  O66  1  0.42669942  0.14871795  0.61328634  1
  O  O67  1  0.92669942  0.76200429  0.38671366  1
  O  O68  1  0.44000723  0.81413732  0.77034246  1
  O  O69  1  0.94000723  0.58447978  0.22965754  1
  O  O70  1  0.44631620  0.64667958  0.60879752  1
  O  O71  1  0.94631620  0.25547710  0.39120248  1
  F  F0  1  0.71745775  0.05523161  0.86349717  1
  F  F1  1  0.21745775  0.91872878  0.13650283  1
  F  F2  1  0.71934690  0.75444542  0.00050882  1
  F  F3  1  0.21934690  0.75495424  0.99949118  1
  F  F4  1  0.70203597  0.55733911  0.86406657  1
  F  F5  1  0.20203597  0.42140568  0.13593343  1
  F  F6  1  0.69371765  0.23995471  0.02487445  1
  F  F7  1  0.19371765  0.26482916  0.97512555  1
  F  F8  1  0.21809600  0.02935178  0.85189503  1
  F  F9  1  0.71809600  0.88124680  0.14810497  1
  F  F10  1  0.16216861  0.38583369  0.64014289  1
  F  F11  1  0.66216861  0.02597659  0.35985711  1
  F  F12  1  0.66501027  0.92044477  0.63589718  1
  F  F13  1  0.16501027  0.55634195  0.36410282  1
  F  F14  1  0.20336991  0.52516132  0.85560069  1
  F  F15  1  0.70336991  0.38076201  0.14439931  1
  F  F16  1  0.16470446  0.87495962  0.65427153  1
  F  F17  1  0.66470446  0.52923115  0.34572847  1
  F  F18  1  0.66712512  0.25912696  0.49022108  1
  F  F19  1  0.16712512  0.74934804  0.50977892  1
  F  F20  1  0.16212015  0.05517606  0.36321619  1
  F  F21  1  0.66212015  0.41839225  0.63678381  1
  F  F22  1  0.16722715  0.24888589  0.51395532  1
  F  F23  1  0.66722715  0.76284122  0.48604468  1
loop_
_geom_bond_atom_site_label_1
_geom_bond_atom_site_label_2
_geom_bond_distance
_geom_bond_site_symmetry_2
Ba0 F8 2.729912 1_565
Ba0 O68 2.795764 1_555
Ba0 O44 2.826130 1_455
Ba0 O49 2.834832 1_455
Ba0 O22 2.856406 1_455
Ba0 O34 2.871701 1_565
Ba0 O26 2.991467 1_555
Ba0 F16 3.052774 1_555
Ba0 F3 3.070068 1_555
Ba0 O4 3.179633 1_565
Ba1 F9 2.729912 1_555
Ba1 O69 2.795764 1_555
Ba1 O45 2.826130 1_555
Ba1 O48 2.834832 1_555
Ba1 O23 2.856406 1_555
Ba1 O35 2.871701 1_555
Ba1 O27 2.991467 1_555
Ba1 F17 3.052774 1_555
Ba1 F2 3.070068 1_555
Ba1 O5 3.179633 1_655
Ba2 O14 2.743950 1_555
Ba2 F1 2.795095 1_546
Ba2 O0 2.813996 1_456
Ba2 O31 2.837366 1_545
Ba2 O30 2.850796 1_446
Ba2 O1 2.879617 1_555
Ba2 F7 2.975955 1_555
Ba2 O57 3.022333 1_556
Ba2 F8 3.229221 1_555
Ba3 O15 2.743950 1_555
Ba3 F0 2.795095 1_554
Ba3 O1 2.813995 1_554
Ba3 O30 2.837366 1_545
Ba3 O31 2.850796 1_544
Ba3 O0 2.879616 1_555
Ba3 F6 2.975954 1_555
Ba3 O56 3.022333 1_554
Ba3 F9 3.229222 1_545
Ba4 O4 2.781525 1_565
Ba4 O26 2.804203 1_555
Ba4 O68 2.852297 1_555
Ba4 O22 2.870311 1_555
Ba4 O44 2.885573 1_555
Ba4 O49 2.887551 1_555
Ba4 F2 2.941747 1_556
Ba4 F12 2.959046 1_555
Ba4 O12 2.963498 1_555
Ba5 O5 2.781525 1_555
Ba5 O27 2.804203 1_455
Ba5 O69 2.852296 1_455
Ba5 O23 2.870311 1_555
Ba5 O45 2.885573 1_555
Ba5 O48 2.887550 1_555
Ba5 F3 2.941746 1_554
Ba5 F13 2.959046 1_555
Ba5 O13 2.963498 1_555
Ba6 F10 2.730080 1_555
Ba6 O52 2.786788 1_455
Ba6 O20 2.858025 1_555
Ba6 O62 2.864762 1_555
Ba6 O14 2.869602 1_555
Ba6 F22 2.903020 1_555
Ba6 O36 2.987272 1_455
Ba6 O66 3.018320 1_555
Ba6 F8 3.107634 1_555
Ba6 O7 3.112124 1_455
Ba7 F11 2.730080 1_565
Ba7 O53 2.786788 1_555
Ba7 O21 2.858025 1_555
Ba7 O63 2.864762 1_555
Ba7 O15 2.869602 1_565
Ba7 F23 2.903020 1_555
Ba7 O37 2.987272 1_555
Ba7 O67 3.018320 1_555
Ba7 F9 3.107635 1_555
Ba7 O6 3.112124 1_565
Ba8 F14 2.681246 1_555
Ba8 F7 2.767109 1_555
Ba8 O40 2.778481 1_555
Ba8 O47 2.793462 1_455
Ba8 O60 2.884615 1_555
Ba8 O18 2.904806 1_455
Ba8 O9 2.986921 1_555
Ba8 O54 3.136081 1_555
Ba8 F10 3.172953 1_555
Ba8 O56 3.370927 1_455
Ba9 F15 2.681246 1_555
Ba9 F6 2.767109 1_555
Ba9 O41 2.778481 1_555
Ba9 O46 2.793462 1_555
Ba9 O61 2.884615 1_555
Ba9 O19 2.904806 1_555
Ba9 O8 2.986921 1_555
Ba9 O55 3.136081 1_555
Ba9 F11 3.172953 1_555
Ba9 O57 3.370927 1_555
Ba10 F16 2.683375 1_555
Ba10 O10 2.799992 1_555
Ba10 O50 2.800866 1_455
Ba10 O42 2.874351 1_555
Ba10 O64 2.900335 1_555
Ba10 F19 2.923449 1_555
Ba10 O39 2.954096 1_455
Ba10 F14 3.139541 1_555
Ba10 O70 3.161850 1_555
Ba10 O12 3.225707 1_455
Ba11 F17 2.683375 1_555
Ba11 O11 2.799991 1_555
Ba11 O51 2.800866 1_555
Ba11 O43 2.874351 1_555
Ba11 O65 2.900335 1_555
Ba11 F18 2.923449 1_555
Ba11 O38 2.954096 1_555
Ba11 F15 3.139541 1_555
Ba11 O71 3.161850 1_555
Ba11 O13 3.225707 1_555
Ba12 O66 2.790367 1_555
Ba12 O20 2.815476 1_555
Ba12 O7 2.822829 1_555
Ba12 O36 2.827889 1_555
Ba12 O52 2.856238 1_555
Ba12 O62 2.892623 1_555
Ba12 F0 2.944068 1_555
Ba12 O4 2.981607 1_555
Ba12 F18 3.071932 1_555
Ba12 O32 3.241236 1_555
Ba13 O67 2.790367 1_455
Ba13 O21 2.815476 1_455
Ba13 O6 2.822829 1_565
Ba13 O37 2.827889 1_555
Ba13 O53 2.856238 1_555
Ba13 O63 2.892623 1_455
Ba13 F1 2.944067 1_555
Ba13 O5 2.981607 1_555
Ba13 F19 3.071932 1_555
Ba13 O33 3.241236 1_555
Ba14 O64 2.665627 1_555
Ba14 O3 2.772016 1_456
Ba14 O17 2.805944 1_555
Ba14 F5 2.836902 1_556
Ba14 O2 2.854291 1_555
Ba14 O16 2.899513 1_456
Ba14 F3 3.026804 1_555
Ba14 F14 3.122846 1_555
Ba15 O65 2.665627 1_555
Ba15 O2 2.772016 1_554
Ba15 O16 2.805944 1_555
Ba15 F4 2.836902 1_554
Ba15 O3 2.854291 1_555
Ba15 O17 2.899514 1_554
Ba15 F2 3.026804 1_555
Ba15 F15 3.122846 1_555
Ba16 O60 2.708726 1_555
Ba16 F13 2.787828 1_555
Ba16 O33 2.791734 1_555
Ba16 O25 2.829353 1_455
Ba16 O59 2.857587 1_455
Ba16 O28 2.875888 1_555
Ba16 F19 3.012468 1_555
Ba16 F10 3.089484 1_555
Ba17 O61 2.708726 1_555
Ba17 F12 2.787828 1_545
Ba17 O32 2.791734 1_555
Ba17 O24 2.829353 1_545
Ba17 O58 2.857587 1_555
Ba17 O29 2.875888 1_545
Ba17 F18 3.012468 1_555
Ba17 F11 3.089484 1_555
Ba18 O34 2.712853 1_555
Ba18 O58 2.794310 1_555
Ba18 O29 2.815518 1_445
Ba18 F20 2.855092 1_555
Ba18 O32 2.878111 1_455
Ba18 O24 2.878800 1_545
Ba18 F22 3.004963 1_555
Ba19 O35 2.712853 1_555
Ba19 O59 2.794310 1_555
Ba19 O28 2.815518 1_555
Ba19 F21 2.855092 1_555
Ba19 O33 2.878111 1_555
Ba19 O25 2.878800 1_555
Ba19 F23 3.004964 1_555
Ba20 O57 2.708097 1_555
Ba20 O55 2.776100 1_455
Ba20 O8 2.832723 1_455
Ba20 O41 2.833606 1_455
Ba20 O46 2.842650 1_555
Ba20 O19 2.854666 1_555
Ba20 F20 2.885954 1_555
Ba21 O56 2.708097 1_555
Ba21 O54 2.776100 1_555
Ba21 O9 2.832723 1_555
Ba21 O40 2.833606 1_555
Ba21 O47 2.842650 1_555
Ba21 O18 2.854666 1_555
Ba21 F21 2.885954 1_555
Ba22 O70 2.769338 1_555
Ba22 O12 2.780955 1_555
Ba22 O39 2.831294 1_555
Ba22 O50 2.834661 1_555
Ba22 O42 2.846161 1_555
Ba22 O10 2.884806 1_555
Ba22 F4 2.898301 1_555
Ba22 O54 3.041412 1_555
Ba22 F23 3.180532 1_555
Ba22 O59 3.357027 1_555
Ba23 O71 2.769338 1_455
Ba23 O13 2.780955 1_555
Ba23 O38 2.831294 1_555
Ba23 O51 2.834661 1_555
Ba23 O43 2.846161 1_455
Ba23 O11 2.884806 1_455
Ba23 F5 2.898301 1_555
Ba23 O55 3.041412 1_455
Ba23 F22 3.180532 1_555
Ba23 O58 3.357027 1_555
Mg0 O48 1.972793 1_555
Mg0 O2 2.063112 1_554
Mg0 O26 2.103533 1_554
Mg0 O45 2.259140 1_555
Mg1 O49 1.972793 1_555
Mg1 O3 2.063112 1_556
Mg1 O27 2.103533 1_556
Mg1 O44 2.259140 1_555
Mg2 O14 2.005146 1_655
Mg2 O52 2.020799 1_555
Mg2 O44 2.100077 1_545
Mg2 O30 2.231481 1_546
Mg3 O15 2.005146 1_565
Mg3 O53 2.020799 1_555
Mg3 O45 2.100077 1_555
Mg3 O31 2.231481 1_554
Mg4 O4 2.006830 1_555
Mg4 O20 2.031859 1_555
Mg4 O31 2.127592 1_545
Mg4 O26 2.205865 1_545
Mg5 O5 2.006830 1_655
Mg5 O21 2.031859 1_555
Mg5 O30 2.127592 1_555
Mg5 O27 2.205865 1_555
Mg6 O60 1.987276 1_555
Mg6 O40 2.021743 1_555
Mg6 O62 2.088362 1_555
Mg6 O28 2.227775 1_555
Mg7 O61 1.987276 1_555
Mg7 O41 2.021743 1_555
Mg7 O63 2.088362 1_545
Mg7 O29 2.227775 1_545
Mg8 O34 1.991168 1_565
Mg8 O68 2.023418 1_555
Mg8 O42 2.115180 1_555
Mg8 O24 2.213852 1_555
Mg9 O35 1.991168 1_555
Mg9 O69 2.023418 1_555
Mg9 O43 2.115180 1_555
Mg9 O25 2.213852 1_555
Mg10 O71 1.955071 1_555
Mg10 O32 2.039000 1_555
Mg10 O36 2.084858 1_555
Mg10 O43 2.251086 1_555
Mg11 O70 1.955071 1_555
Mg11 O33 2.039000 1_555
Mg11 O37 2.084858 1_555
Mg11 O42 2.251086 1_555
Mg12 O6 1.986125 1_555
Mg12 O46 2.037648 1_555
Mg12 O24 2.132395 1_545
Mg12 O37 2.176945 1_545
Mg13 O7 1.986125 1_555
Mg13 O47 2.037648 1_555
Mg13 O25 2.132395 1_555
Mg13 O36 2.176945 1_555
Mg14 O66 1.955355 1_555
Mg14 O58 2.066048 1_555
Mg14 O38 2.103555 1_555
Mg14 O62 2.241427 1_555
Mg15 O67 1.955355 1_555
Mg15 O59 2.066048 1_555
Mg15 O39 2.103555 1_555
Mg15 O63 2.241427 1_555
Mg16 O12 2.001623 1_555
Mg16 O22 2.025999 1_555
Mg16 O29 2.113250 1_555
Mg16 O39 2.206733 1_555
Mg17 O13 2.001623 1_555
Mg17 O23 2.025999 1_555
Mg17 O28 2.113250 1_555
Mg17 O38 2.206733 1_555
Mg18 O56 1.953896 1_555
Mg18 O0 2.031538 1_556
Mg18 O8 2.083076 1_556
Mg18 O18 2.268688 1_555
Mg19 O57 1.953896 1_555
Mg19 O1 2.031538 1_554
Mg19 O9 2.083076 1_554
Mg19 O19 2.268688 1_555
Mg20 O64 1.983565 1_655
Mg20 O50 2.018690 1_555
Mg20 O18 2.103806 1_555
Mg20 O16 2.199439 1_556
Mg21 O65 1.983565 1_555
Mg21 O51 2.018690 1_555
Mg21 O19 2.103806 1_555
Mg21 O17 2.199439 1_554
Mg22 O54 1.988638 1_555
Mg22 O10 2.046007 1_555
Mg22 O17 2.113926 1_555
Mg22 O9 2.202814 1_555
Mg23 O55 1.988638 1_555
Mg23 O11 2.046007 1_555
Mg23 O16 2.113926 1_555
Mg23 O8 2.202814 1_555
B0 O62 1.384417 1_555
B0 O38 1.390480 1_555
B0 O28 1.392515 1_555
B1 O63 1.384417 1_555
B1 O39 1.390480 1_555
B1 O29 1.392515 1_555
B2 O43 1.387499 1_555
B2 O36 1.387873 1_555
B2 O25 1.391690 1_555
B3 O42 1.387499 1_555
B3 O37 1.387873 1_555
B3 O24 1.391690 1_555
B4 O45 1.384817 1_555
B4 O26 1.388973 1_554
B4 O31 1.392141 1_554
B5 O44 1.384817 1_555
B5 O27 1.388973 1_556
B5 O30 1.392141 1_556
B6 O66 1.371696 1_555
B6 O34 1.382297 1_555
B6 O4 1.384762 1_555
B7 O67 1.371696 1_555
B7 O35 1.382297 1_555
B7 O5 1.384762 1_655
B8 O68 1.383020 1_555
B8 O10 1.390996 1_555
B8 O2 1.396689 1_555
B9 O69 1.383020 1_555
B9 O11 1.390996 1_555
B9 O3 1.396689 1_555
B10 O49 1.374675 1_555
B10 O12 1.381534 1_555
B10 O64 1.381640 1_655
B11 O48 1.374675 1_555
B11 O13 1.381534 1_555
B11 O65 1.381640 1_555
B12 O22 1.385138 1_545
B12 O52 1.386516 1_555
B12 O32 1.392402 1_555
B13 O23 1.385138 1_555
B13 O53 1.386516 1_555
B13 O33 1.392402 1_555
B14 O20 1.382258 1_555
B14 O40 1.390419 1_555
B14 O1 1.391185 1_555
B15 O21 1.382258 1_545
B15 O41 1.390419 1_555
B15 O0 1.391185 1_555
B16 O56 1.377228 1_555
B16 O7 1.381360 1_555
B16 O14 1.381881 1_655
B17 O57 1.377228 1_555
B17 O6 1.381360 1_555
B17 O15 1.381882 1_555
B18 O70 1.369009 1_555
B18 O60 1.380273 1_555
B18 O54 1.383439 1_555
B19 O71 1.369009 1_555
B19 O61 1.380273 1_555
B19 O55 1.383439 1_555
B20 O47 1.386573 1_555
B20 O50 1.386746 1_555
B20 O59 1.394579 1_555
B21 O46 1.386573 1_555
B21 O51 1.386746 1_555
B21 O58 1.394579 1_555
B22 O18 1.386076 1_555
B22 O8 1.388037 1_556
B22 O16 1.393525 1_556
B23 O19 1.386076 1_555
B23 O9 1.388037 1_554
B23 O17 1.393525 1_554
F0 Mg2 2.057107 1_555
F0 Mg4 2.093954 1_555
F1 Mg3 2.057107 1_555
F1 Mg5 2.093954 1_455
F2 Mg1 2.047816 1_554
F2 Mg0 2.077756 1_555
F3 Mg0 2.047816 1_556
F3 Mg1 2.077756 1_455
F4 Mg20 2.035131 1_555
F4 Mg22 2.080189 1_555
F5 Mg21 2.035131 1_555
F5 Mg23 2.080189 1_455
F6 Mg19 2.091239 1_555
F6 Mg18 2.105492 1_554
F7 Mg18 2.091239 1_455
F7 Mg19 2.105492 1_556
F8 Mg4 2.073707 1_555
F8 Mg2 2.114633 1_455
F9 Mg5 2.073708 1_555
F9 Mg3 2.114633 1_555
F10 Mg13 2.076765 1_455
F10 Mg6 2.121057 1_555
F11 Mg12 2.076765 1_555
F11 Mg7 2.121057 1_555
F12 Mg8 2.053051 1_555
F12 Mg16 2.086706 1_555
F13 Mg9 2.053051 1_455
F13 Mg17 2.086706 1_555
F14 Mg22 2.095143 1_555
F14 Mg20 2.153274 1_455
F15 Mg23 2.095143 1_555
F15 Mg21 2.153274 1_555
F16 Mg16 2.100797 1_455
F16 Mg8 2.134821 1_555
F17 Mg17 2.100797 1_555
F17 Mg9 2.134821 1_555
F18 Mg14 2.078815 1_555
F18 Mg10 2.093587 1_555
F19 Mg15 2.078815 1_455
F19 Mg11 2.093587 1_555
F20 Mg7 2.040583 1_455
F20 Mg12 2.093595 1_555
F21 Mg6 2.040583 1_555
F21 Mg13 2.093595 1_555
F22 Mg10 2.049438 1_455
F22 Mg14 2.061296 1_555
F23 Mg11 2.049438 1_555
F23 Mg15 2.061296 1_555
