# generated using pymatgen
data_CaMnO2
_symmetry_space_group_name_H-M   'P 1'
_cell_length_a   3.21896100
_cell_length_b   8.59282407
_cell_length_c   8.75598878
_cell_angle_alpha   92.75205706
_cell_angle_beta   95.76358405
_cell_angle_gamma   92.89257430
_symmetry_Int_Tables_number   1
_chemical_formula_structural   CaMnO2
_chemical_formula_sum   'Ca4 Mn4 O8'
_cell_volume   240.31537606
_cell_formula_units_Z   4
loop_
 _symmetry_equiv_pos_site_id
 _symmetry_equiv_pos_as_xyz
  1  'x, y, z'
loop_
 _atom_site_type_symbol
 _atom_site_label
 _atom_site_symmetry_multiplicity
 _atom_site_fract_x
 _atom_site_fract_y
 _atom_site_fract_z
 _atom_site_occupancy
  Ca  Ca0  1  0.88704000  0.25234200  0.91588500  1
  Ca  Ca1  1  0.11296000  0.74765800  0.08411500  1
  Ca  Ca2  1  0.14224900  0.42161900  0.27853600  1
  Ca  Ca3  1  0.85775100  0.57838100  0.72146400  1
  Mn  Mn0  1  0.42785700  0.90345400  0.73686600  1
  Mn  Mn1  1  0.22180800  0.22822200  0.58861800  1
  Mn  Mn2  1  0.77819200  0.77177800  0.41138200  1
  Mn  Mn3  1  0.57214300  0.09654600  0.26313400  1
  O  O0  1  0.05208500  0.94277000  0.27667700  1
  O  O1  1  0.31918900  0.71578700  0.55950500  1
  O  O2  1  0.68081100  0.28421300  0.44049500  1
  O  O3  1  0.94791500  0.05723000  0.72332300  1
  O  O4  1  0.56197300  0.74376200  0.89583600  1
  O  O5  1  0.35598300  0.39071600  0.77248800  1
  O  O6  1  0.43802700  0.25623800  0.10416400  1
  O  O7  1  0.64401700  0.60928400  0.22751200  1
loop_
_geom_bond_atom_site_label_1
_geom_bond_atom_site_label_2
_geom_bond_distance
_geom_bond_site_symmetry_2
Ca0 O6 2.294782 1_656
Ca0 O6 2.299154 1_556
Ca0 O3 2.349502 1_555
Ca0 O5 2.368917 1_655
Ca0 O5 2.414519 1_555
Ca1 O4 2.294782 1_454
Ca1 O4 2.299154 1_554
Ca1 O0 2.349502 1_555
Ca1 O7 2.368917 1_455
Ca1 O7 2.414519 1_555
Ca2 O7 2.315170 1_555
Ca2 O6 2.340357 1_555
Ca2 O7 2.357630 1_455
Ca2 O2 2.453206 1_455
Ca2 O2 2.506812 1_555
Ca2 O6 2.874136 1_455
Ca3 O5 2.315170 1_555
Ca3 O4 2.340357 1_555
Ca3 O5 2.357630 1_655
Ca3 O1 2.453206 1_655
Ca3 O1 2.506812 1_555
Ca3 O4 2.874136 1_655
Mn0 O4 2.032076 1_555
Mn0 O3 2.081136 1_465
Mn0 O3 2.096229 1_565
Mn0 O1 2.174397 1_555
Mn1 O5 2.076472 1_555
Mn1 O2 2.114165 1_555
Mn1 O3 2.138191 1_455
Mn1 O2 2.153388 1_455
Mn2 O7 2.076472 1_555
Mn2 O1 2.114165 1_555
Mn2 O0 2.138191 1_655
Mn2 O1 2.153388 1_655
Mn3 O6 2.032076 1_555
Mn3 O0 2.081136 1_645
Mn3 O0 2.096229 1_545
Mn3 O2 2.174397 1_555
