# generated using pymatgen
data_BaMg6CdO8
_symmetry_space_group_name_H-M   'P 1'
_cell_length_a   9.11150243
_cell_length_b   4.71308344
_cell_length_c   4.71308344
_cell_angle_alpha   90.00000000
_cell_angle_beta   90.00000000
_cell_angle_gamma   90.00000000
_symmetry_Int_Tables_number   1
_chemical_formula_structural   BaMg6CdO8
_chemical_formula_sum   'Ba1 Mg6 Cd1 O8'
_cell_volume   202.39522043
_cell_formula_units_Z   1
loop_
 _symmetry_equiv_pos_site_id
 _symmetry_equiv_pos_as_xyz
  1  'x, y, z'
loop_
 _atom_site_type_symbol
 _atom_site_label
 _atom_site_symmetry_multiplicity
 _atom_site_fract_x
 _atom_site_fract_y
 _atom_site_fract_z
 _atom_site_occupancy
  Ba  Ba0  1  0.00000000  0.00000000  0.00000000  1
  Mg  Mg0  1  0.00000000  0.50000000  0.50000000  1
  Mg  Mg1  1  0.50000000  0.50000000  0.50000000  1
  Mg  Mg2  1  0.26463112  0.00000000  0.50000000  1
  Mg  Mg3  1  0.73536888  -0.00000000  0.50000000  1
  Mg  Mg4  1  0.26463112  0.50000000  0.00000000  1
  Mg  Mg5  1  0.73536888  0.50000000  -0.00000000  1
  Cd  Cd0  1  0.50000000  0.00000000  0.00000000  1
  O  O0  1  0.26823869  0.00000000  0.00000000  1
  O  O1  1  0.73176131  -0.00000000  -0.00000000  1
  O  O2  1  0.25542515  0.50000000  0.50000000  1
  O  O3  1  0.74457485  0.50000000  0.50000000  1
  O  O4  1  0.00000000  0.00000000  0.50000000  1
  O  O5  1  0.50000000  0.00000000  0.50000000  1
  O  O6  1  0.00000000  0.50000000  0.00000000  1
  O  O7  1  0.50000000  0.50000000  0.00000000  1
loop_
_geom_bond_atom_site_label_1
_geom_bond_atom_site_label_2
_geom_bond_distance
_geom_bond_site_symmetry_2
Ba0 O6 2.356542 1_555
Ba0 O4 2.356542 1_555
Ba0 O4 2.356542 1_554
Ba0 O6 2.356542 1_545
Ba0 O0 2.444057 1_555
Ba0 O1 2.444057 1_455
Mg0 O2 2.327307 1_555
Mg0 O3 2.327307 1_455
Mg0 O6 2.356542 1_556
Mg0 O6 2.356542 1_555
Mg0 O4 2.356542 1_565
Mg0 O4 2.356542 1_555
Mg1 O2 2.228444 1_555
Mg1 O3 2.228444 1_555
Mg1 O7 2.356542 1_555
Mg1 O7 2.356542 1_556
Mg1 O5 2.356542 1_555
Mg1 O5 2.356542 1_565
Mg2 O5 2.144564 1_555
Mg2 O0 2.356771 1_555
Mg2 O0 2.356771 1_556
Mg2 O2 2.358034 1_555
Mg2 O2 2.358034 1_545
Mg2 O4 2.411187 1_555
Mg3 O5 2.144564 1_555
Mg3 O1 2.356771 1_555
Mg3 O1 2.356771 1_556
Mg3 O3 2.358034 1_545
Mg3 O3 2.358034 1_555
Mg3 O4 2.411187 1_655
Mg4 O7 2.144564 1_555
Mg4 O0 2.356771 1_555
Mg4 O0 2.356771 1_565
Mg4 O2 2.358034 1_554
Mg4 O2 2.358034 1_555
Mg4 O6 2.411187 1_555
Mg5 O7 2.144564 1_555
Mg5 O1 2.356771 1_565
Mg5 O1 2.356771 1_555
Mg5 O3 2.358034 1_555
Mg5 O3 2.358034 1_554
Mg5 O6 2.411187 1_655
Cd0 O0 2.111694 1_555
Cd0 O1 2.111694 1_555
Cd0 O7 2.356542 1_555
Cd0 O5 2.356542 1_554
Cd0 O5 2.356542 1_555
Cd0 O7 2.356542 1_545
