# generated using pymatgen
data_SrEuFeWO6
_symmetry_space_group_name_H-M   'P 1'
_cell_length_a   5.64523320
_cell_length_b   5.64523320
_cell_length_c   5.64523320
_cell_angle_alpha   60.00000000
_cell_angle_beta   60.00000000
_cell_angle_gamma   60.00000000
_symmetry_Int_Tables_number   1
_chemical_formula_structural   SrEuFeWO6
_chemical_formula_sum   'Sr1 Eu1 Fe1 W1 O6'
_cell_volume   127.21275675
_cell_formula_units_Z   1
loop_
 _symmetry_equiv_pos_site_id
 _symmetry_equiv_pos_as_xyz
  1  'x, y, z'
loop_
 _atom_site_type_symbol
 _atom_site_label
 _atom_site_symmetry_multiplicity
 _atom_site_fract_x
 _atom_site_fract_y
 _atom_site_fract_z
 _atom_site_occupancy
  Sr  Sr0  1  0.75000000  0.75000000  0.75000000  1
  Eu  Eu0  1  0.25000000  0.25000000  0.25000000  1
  Fe  Fe0  1  0.00000000  0.00000000  0.00000000  1
  W  W0  1  0.50000000  0.50000000  0.50000000  1
  O  O0  1  0.74723517  0.25276483  0.25276483  1
  O  O1  1  0.25276483  0.74723517  0.74723517  1
  O  O2  1  0.74723517  0.25276483  0.74723517  1
  O  O3  1  0.25276483  0.74723517  0.25276483  1
  O  O4  1  0.74723517  0.74723517  0.25276483  1
  O  O5  1  0.25276483  0.25276483  0.74723517  1
loop_
_geom_bond_atom_site_label_1
_geom_bond_atom_site_label_2
_geom_bond_distance
_geom_bond_site_symmetry_2
Eu0 O5 2.822703 1_555
Eu0 O0 2.822703 1_555
Eu0 O3 2.822703 1_555
Eu0 O4 2.822703 1_455
Eu0 O1 2.822703 1_554
Eu0 O2 2.822703 1_455
Eu0 O1 2.822703 1_545
Eu0 O5 2.822703 1_554
Eu0 O2 2.822703 1_554
Eu0 O4 2.822703 1_545
Eu0 O0 2.822703 1_455
Eu0 O3 2.822703 1_545
Fe0 O3 2.017965 1_545
Fe0 O5 2.017965 1_554
Fe0 O0 2.017965 1_455
Fe0 O2 2.017965 1_454
Fe0 O4 2.017965 1_445
Fe0 O1 2.017965 1_544
O0 W0 1.973818 1_555
O0 Sr0 2.822703 1_554
O0 Sr0 2.822703 1_545
O1 W0 1.973818 1_555
O1 Sr0 2.822703 1_455
O1 Sr0 2.822703 1_555
O2 W0 1.973818 1_555
O2 Sr0 2.822703 1_545
O2 Sr0 2.822703 1_555
O3 W0 1.973818 1_555
O3 Sr0 2.822703 1_554
O3 Sr0 2.822703 1_455
O4 W0 1.973818 1_555
O4 Sr0 2.822703 1_555
O4 Sr0 2.822703 1_554
O5 W0 1.973818 1_555
O5 Sr0 2.822703 1_455
O5 Sr0 2.822703 1_545
