# generated using pymatgen
data_MgMn3O6
_symmetry_space_group_name_H-M   'P 1'
_cell_length_a   2.94471301
_cell_length_b   5.34594972
_cell_length_c   7.71411816
_cell_angle_alpha   95.38493847
_cell_angle_beta   101.00075334
_cell_angle_gamma   90.02552632
_symmetry_Int_Tables_number   1
_chemical_formula_structural   MgMn3O6
_chemical_formula_sum   'Mg1 Mn3 O6'
_cell_volume   118.65937926
_cell_formula_units_Z   1
loop_
 _symmetry_equiv_pos_site_id
 _symmetry_equiv_pos_as_xyz
  1  'x, y, z'
loop_
 _atom_site_type_symbol
 _atom_site_label
 _atom_site_symmetry_multiplicity
 _atom_site_fract_x
 _atom_site_fract_y
 _atom_site_fract_z
 _atom_site_occupancy
  Mg  Mg0  1  0.99548400  0.51287200  0.99309200  1
  Mn  Mn0  1  0.99701800  0.01253300  0.99585700  1
  Mn  Mn1  1  0.66186500  0.51184200  0.32570700  1
  Mn  Mn2  1  0.32963500  0.51686900  0.66104100  1
  O  O0  1  0.87583600  0.32961100  0.75359000  1
  O  O1  1  0.11527600  0.69911100  0.23222300  1
  O  O2  1  0.54544800  0.28520200  0.09291200  1
  O  O3  1  0.44646800  0.74229000  0.89442000  1
  O  O4  1  0.77901600  0.69584500  0.55962200  1
  O  O5  1  0.21228700  0.33271400  0.42672100  1
loop_
_geom_bond_atom_site_label_1
_geom_bond_atom_site_label_2
_geom_bond_distance
_geom_bond_site_symmetry_2
Mg0 O0 1.977097 1_555
Mg0 O1 1.981209 1_656
Mg0 O2 2.096293 1_556
Mg0 O2 2.097325 1_656
Mg0 O3 2.098718 1_555
Mg0 O3 2.099228 1_655
Mn0 O2 2.150603 1_656
Mn0 O3 2.151600 1_545
Mn0 O2 2.151841 1_556
Mn0 O3 2.153113 1_645
Mn0 O1 2.566113 1_646
Mn0 O0 2.614184 1_555
Mn1 O4 1.942067 1_555
Mn1 O1 1.951093 1_655
Mn1 O1 1.951133 1_555
Mn1 O5 1.951797 1_555
Mn1 O5 1.952113 1_655
Mn1 O2 2.041257 1_555
Mn2 O5 1.945056 1_555
Mn2 O0 1.947978 1_455
Mn2 O0 1.948372 1_555
Mn2 O4 1.952728 1_555
Mn2 O4 1.953020 1_455
Mn2 O3 2.041512 1_555
