# generated using pymatgen
data_Ca(GaS2)2
_symmetry_space_group_name_H-M   'P 1'
_cell_length_a   11.73825247
_cell_length_b   11.73825315
_cell_length_c   11.78370560
_cell_angle_alpha   105.42309058
_cell_angle_beta   105.42309855
_cell_angle_gamma   117.77826260
_symmetry_Int_Tables_number   1
_chemical_formula_structural   Ca(GaS2)2
_chemical_formula_sum   'Ca8 Ga16 S32'
_cell_volume   1231.63171394
_cell_formula_units_Z   8
loop_
 _symmetry_equiv_pos_site_id
 _symmetry_equiv_pos_as_xyz
  1  'x, y, z'
loop_
 _atom_site_type_symbol
 _atom_site_label
 _atom_site_symmetry_multiplicity
 _atom_site_fract_x
 _atom_site_fract_y
 _atom_site_fract_z
 _atom_site_occupancy
  Ca  Ca0  1  0.87500000  0.12500000  0.25000000  1
  Ca  Ca1  1  0.12500000  0.87500000  0.75000000  1
  Ca  Ca2  1  0.37500000  0.62500000  0.25000000  1
  Ca  Ca3  1  0.62500000  0.37500000  0.75000000  1
  Ca  Ca4  1  0.62297179  0.87297179  0.74594358  1
  Ca  Ca5  1  0.12702821  0.37702821  0.75405642  1
  Ca  Ca6  1  0.37702821  0.12702821  0.25405642  1
  Ca  Ca7  1  0.87297179  0.62297179  0.24594358  1
  Ga  Ga0  1  0.53176222  0.64037876  0.99946009  1
  Ga  Ga1  1  0.64091866  0.03230112  0.50053991  1
  Ga  Ga2  1  0.35962124  0.46823778  0.50053991  1
  Ga  Ga3  1  0.96769888  0.35908134  0.99946009  1
  Ga  Ga4  1  0.46823778  0.35962124  0.00053991  1
  Ga  Ga5  1  0.35908134  0.96769888  0.49946009  1
  Ga  Ga6  1  0.64037876  0.53176222  0.49946009  1
  Ga  Ga7  1  0.03230112  0.64091866  0.00053991  1
  Ga  Ga8  1  0.38822901  0.86443372  0.00121623  1
  Ga  Ga9  1  0.86321749  0.88701379  0.49878377  1
  Ga  Ga10  1  0.13556628  0.61177099  0.49878377  1
  Ga  Ga11  1  0.11298621  0.13678251  0.00121623  1
  Ga  Ga12  1  0.61177099  0.13556628  0.99878377  1
  Ga  Ga13  1  0.13678251  0.11298621  0.50121623  1
  Ga  Ga14  1  0.86443372  0.38822901  0.50121623  1
  Ga  Ga15  1  0.88701379  0.86321749  0.99878377  1
  S  S0  1  0.81410602  0.15129583  0.99739467  1
  S  S1  1  0.15390016  0.31671035  0.50260533  1
  S  S2  1  0.84870417  0.18589398  0.50260533  1
  S  S3  1  0.68328965  0.84609984  0.99739467  1
  S  S4  1  0.18589398  0.84870417  0.00260533  1
  S  S5  1  0.84609984  0.68328965  0.49739467  1
  S  S6  1  0.15129583  0.81410602  0.49739467  1
  S  S7  1  0.31671035  0.15390016  0.00260533  1
  S  S8  1  0.15677810  0.34478666  0.00245733  1
  S  S9  1  0.34233033  0.65432077  0.49754267  1
  S  S10  1  0.65521334  0.84322190  0.49754267  1
  S  S11  1  0.34567923  0.65766967  0.00245733  1
  S  S12  1  0.84322190  0.65521334  0.99754267  1
  S  S13  1  0.65766967  0.34567923  0.50245733  1
  S  S14  1  0.34478666  0.15677810  0.50245733  1
  S  S15  1  0.65432077  0.34233033  0.99754267  1
  S  S16  1  0.58393891  0.08364822  0.67070049  1
  S  S17  1  0.41294874  0.41323742  0.82929951  1
  S  S18  1  0.91635178  0.41606109  0.82929951  1
  S  S19  1  0.58676258  0.58705126  0.67070049  1
  S  S20  1  0.41606109  0.91635178  0.32929951  1
  S  S21  1  0.58705126  0.58676258  0.17070049  1
  S  S22  1  0.08364822  0.58393891  0.17070049  1
  S  S23  1  0.41323742  0.41294874  0.32929951  1
  S  S24  1  0.91361883  0.41383614  0.33032432  1
  S  S25  1  0.08351082  0.08329451  0.16967568  1
  S  S26  1  0.58616386  0.08638117  0.16967568  1
  S  S27  1  0.91670549  0.91648918  0.33032432  1
  S  S28  1  0.08638117  0.58616386  0.66967568  1
  S  S29  1  0.91648918  0.91670549  0.83032432  1
  S  S30  1  0.41383614  0.91361883  0.83032432  1
  S  S31  1  0.08329451  0.08351082  0.66967568  1
loop_
_geom_bond_atom_site_label_1
_geom_bond_atom_site_label_2
_geom_bond_distance
_geom_bond_site_symmetry_2
Ca0 S1 3.004852 1_655
Ca0 S3 3.004853 1_544
Ca0 S0 3.004858 1_554
Ca0 S2 3.004858 1_555
Ca0 S25 3.037870 1_655
Ca0 S27 3.037870 1_545
Ca0 S26 3.037881 1_555
Ca0 S24 3.037882 1_555
Ca1 S5 3.004852 1_455
Ca1 S7 3.004853 1_566
Ca1 S4 3.004858 1_556
Ca1 S6 3.004858 1_555
Ca1 S29 3.037870 1_455
Ca1 S31 3.037870 1_565
Ca1 S30 3.037881 1_555
Ca1 S28 3.037882 1_555
Ca2 S11 2.993033 1_555
Ca2 S9 2.993033 1_555
Ca2 S10 2.993038 1_555
Ca2 S8 2.993038 1_555
Ca2 S21 3.053805 1_555
Ca2 S23 3.053805 1_555
Ca2 S22 3.053822 1_555
Ca2 S20 3.053822 1_555
Ca3 S15 2.993033 1_555
Ca3 S13 2.993033 1_555
Ca3 S14 2.993038 1_555
Ca3 S12 2.993038 1_555
Ca3 S17 3.053805 1_555
Ca3 S19 3.053805 1_555
Ca3 S18 3.053822 1_555
Ca3 S16 3.053822 1_555
Ca4 S3 2.994955 1_555
Ca4 S0 2.994960 1_565
Ca4 S9 3.000282 1_555
Ca4 S10 3.000287 1_555
Ca4 S16 3.019595 1_565
Ca4 S19 3.019612 1_555
Ca4 S30 3.062764 1_555
Ca4 S29 3.062775 1_555
Ca5 S1 2.994955 1_555
Ca5 S2 2.994960 1_455
Ca5 S11 3.000282 1_556
Ca5 S8 3.000287 1_556
Ca5 S18 3.019595 1_455
Ca5 S17 3.019612 1_555
Ca5 S28 3.062764 1_555
Ca5 S31 3.062775 1_555
Ca6 S7 2.994955 1_555
Ca6 S4 2.994960 1_545
Ca6 S13 3.000282 1_555
Ca6 S14 3.000287 1_555
Ca6 S20 3.019595 1_545
Ca6 S23 3.019612 1_555
Ca6 S26 3.062764 1_555
Ca6 S25 3.062775 1_555
Ca7 S5 2.994955 1_555
Ca7 S6 2.994960 1_655
Ca7 S15 3.000282 1_554
Ca7 S12 3.000287 1_554
Ca7 S22 3.019595 1_655
Ca7 S21 3.019612 1_555
Ca7 S24 3.062764 1_555
Ca7 S27 3.062775 1_555
Ga0 S3 2.246401 1_555
Ga0 S21 2.290991 1_556
Ga0 S11 2.294344 1_556
Ga0 S17 2.297270 1_555
Ga1 S2 2.246393 1_555
Ga1 S20 2.291003 1_545
Ga1 S10 2.294339 1_545
Ga1 S16 2.297262 1_555
Ga2 S1 2.246401 1_555
Ga2 S23 2.290991 1_555
Ga2 S9 2.294344 1_555
Ga2 S19 2.297270 1_555
Ga3 S0 2.246393 1_555
Ga3 S22 2.291003 1_656
Ga3 S8 2.294338 1_656
Ga3 S18 2.297262 1_555
Ga4 S7 2.246401 1_555
Ga4 S17 2.290991 1_554
Ga4 S15 2.294344 1_554
Ga4 S21 2.297270 1_555
Ga5 S6 2.246393 1_555
Ga5 S16 2.291003 1_565
Ga5 S14 2.294339 1_565
Ga5 S20 2.297262 1_555
Ga6 S5 2.246401 1_555
Ga6 S19 2.290991 1_555
Ga6 S13 2.294344 1_555
Ga6 S23 2.297270 1_555
Ga7 S4 2.246393 1_555
Ga7 S18 2.291003 1_454
Ga7 S12 2.294338 1_454
Ga7 S22 2.297262 1_555
Ga8 S11 2.243457 1_555
Ga8 S30 2.292904 1_554
Ga8 S26 2.297865 1_565
Ga8 S4 2.299740 1_555
Ga9 S10 2.243442 1_555
Ga9 S31 2.292899 1_665
Ga9 S27 2.297865 1_555
Ga9 S5 2.299745 1_555
Ga10 S9 2.243456 1_555
Ga10 S28 2.292904 1_555
Ga10 S24 2.297865 1_455
Ga10 S6 2.299740 1_555
Ga11 S8 2.243442 1_555
Ga11 S29 2.292899 1_444
Ga11 S25 2.297865 1_555
Ga11 S7 2.299745 1_555
Ga12 S15 2.243457 1_555
Ga12 S26 2.292904 1_556
Ga12 S30 2.297865 1_545
Ga12 S0 2.299740 1_555
Ga13 S14 2.243442 1_555
Ga13 S27 2.292899 1_445
Ga13 S31 2.297865 1_555
Ga13 S1 2.299745 1_555
Ga14 S13 2.243456 1_555
Ga14 S24 2.292904 1_555
Ga14 S28 2.297865 1_655
Ga14 S2 2.299740 1_555
Ga15 S12 2.243442 1_555
Ga15 S25 2.292899 1_666
Ga15 S29 2.297865 1_555
Ga15 S3 2.299745 1_555
