# generated using pymatgen
data_Rb3SbS4
_symmetry_space_group_name_H-M   'P 1'
_cell_length_a   9.61987661
_cell_length_b   9.91535499
_cell_length_c   11.19597319
_cell_angle_alpha   90.00000000
_cell_angle_beta   90.00000000
_cell_angle_gamma   90.00000000
_symmetry_Int_Tables_number   1
_chemical_formula_structural   Rb3SbS4
_chemical_formula_sum   'Rb12 Sb4 S16'
_cell_volume   1067.92221011
_cell_formula_units_Z   4
loop_
 _symmetry_equiv_pos_site_id
 _symmetry_equiv_pos_as_xyz
  1  'x, y, z'
loop_
 _atom_site_type_symbol
 _atom_site_label
 _atom_site_symmetry_multiplicity
 _atom_site_fract_x
 _atom_site_fract_y
 _atom_site_fract_z
 _atom_site_occupancy
  Rb  Rb0  1  0.36002653  0.57860133  0.75000000  1
  Rb  Rb1  1  0.94073907  0.70475284  0.04278360  1
  Rb  Rb2  1  0.05926093  0.29524716  0.54278360  1
  Rb  Rb3  1  0.55926093  0.20475284  0.95721640  1
  Rb  Rb4  1  0.55926093  0.20475284  0.54278360  1
  Rb  Rb5  1  0.05926093  0.29524716  0.95721640  1
  Rb  Rb6  1  0.94073907  0.70475284  0.45721640  1
  Rb  Rb7  1  0.44073907  0.79524716  0.04278360  1
  Rb  Rb8  1  0.63997347  0.42139867  0.25000000  1
  Rb  Rb9  1  0.86002653  0.92139867  0.75000000  1
  Rb  Rb10  1  0.13997347  0.07860133  0.25000000  1
  Rb  Rb11  1  0.44073907  0.79524716  0.45721640  1
  Sb  Sb0  1  0.28002967  0.01754139  0.75000000  1
  Sb  Sb1  1  0.78002967  0.48245861  0.75000000  1
  Sb  Sb2  1  0.21997033  0.51754139  0.25000000  1
  Sb  Sb3  1  0.71997033  0.98245861  0.25000000  1
  S  S0  1  0.84185318  0.03925631  0.42340220  1
  S  S1  1  0.34185318  0.46074369  0.07659780  1
  S  S2  1  0.65814682  0.53925631  0.57659780  1
  S  S3  1  0.15814682  0.96074369  0.92340220  1
  S  S4  1  0.15814682  0.96074369  0.57659780  1
  S  S5  1  0.65814682  0.53925631  0.92340220  1
  S  S6  1  0.34185318  0.46074369  0.42340220  1
  S  S7  1  0.84185318  0.03925631  0.07659780  1
  S  S8  1  0.49812871  0.91014202  0.75000000  1
  S  S9  1  0.99812871  0.58985798  0.75000000  1
  S  S10  1  0.00187129  0.41014202  0.25000000  1
  S  S11  1  0.50187129  0.08985798  0.25000000  1
  S  S12  1  0.31294934  0.25175386  0.75000000  1
  S  S13  1  0.68705066  0.74824614  0.25000000  1
  S  S14  1  0.18705066  0.75175386  0.25000000  1
  S  S15  1  0.81294934  0.24824614  0.75000000  1
loop_
_geom_bond_atom_site_label_1
_geom_bond_atom_site_label_2
_geom_bond_distance
_geom_bond_site_symmetry_2
Rb0 S12 3.272299 1_555
Rb0 S9 3.483201 1_455
Rb0 S5 3.485110 1_555
Rb0 S2 3.485110 1_555
Rb0 S8 3.545647 1_555
Rb0 S6 3.842755 1_555
Rb0 S1 3.842755 1_556
Rb1 S14 3.348732 1_655
Rb1 S13 3.394721 1_555
Rb1 S5 3.445210 1_554
Rb1 S7 3.471149 1_565
Rb1 S9 3.513956 1_554
Rb1 S3 3.550104 1_654
Rb1 S10 3.776431 1_655
Rb2 S15 3.348732 1_455
Rb2 S12 3.394721 1_555
Rb2 S6 3.445210 1_555
Rb2 S4 3.471149 1_545
Rb2 S10 3.513956 1_555
Rb2 S0 3.550104 1_455
Rb2 S9 3.776431 1_455
Rb3 S12 3.348732 1_555
Rb3 S15 3.394721 1_555
Rb3 S7 3.445210 1_556
Rb3 S5 3.471149 1_555
Rb3 S11 3.513956 1_556
Rb3 S1 3.550104 1_556
Rb3 S8 3.776431 1_545
Rb4 S12 3.348732 1_555
Rb4 S15 3.394721 1_555
Rb4 S0 3.445210 1_555
Rb4 S2 3.471149 1_555
Rb4 S11 3.513956 1_555
Rb4 S6 3.550104 1_555
Rb4 S8 3.776431 1_545
Rb5 S15 3.348732 1_455
Rb5 S12 3.394721 1_555
Rb5 S1 3.445210 1_556
Rb5 S3 3.471149 1_545
Rb5 S10 3.513956 1_556
Rb5 S7 3.550104 1_456
Rb5 S9 3.776431 1_455
Rb6 S14 3.348732 1_655
Rb6 S13 3.394721 1_555
Rb6 S2 3.445210 1_555
Rb6 S0 3.471149 1_565
Rb6 S9 3.513956 1_555
Rb6 S4 3.550104 1_655
Rb6 S10 3.776431 1_655
Rb7 S13 3.348732 1_555
Rb7 S14 3.394721 1_555
Rb7 S3 3.445210 1_554
Rb7 S1 3.471149 1_555
Rb7 S8 3.513956 1_554
Rb7 S5 3.550104 1_554
Rb7 S11 3.776431 1_565
Rb8 S13 3.272299 1_555
Rb8 S10 3.483201 1_655
Rb8 S1 3.485110 1_555
Rb8 S6 3.485110 1_555
Rb8 S11 3.545647 1_555
Rb8 S2 3.842755 1_555
Rb8 S5 3.842755 1_554
Rb9 S15 3.272299 1_565
Rb9 S8 3.483201 1_555
Rb9 S3 3.485110 1_655
Rb9 S4 3.485110 1_655
Rb9 S9 3.545647 1_555
Rb9 S0 3.842755 1_565
Rb9 S7 3.842755 1_566
Rb10 S14 3.272299 1_545
Rb10 S11 3.483201 1_555
Rb10 S0 3.485110 1_455
Rb10 S7 3.485110 1_455
Rb10 S10 3.545647 1_555
Rb10 S4 3.842755 1_545
Rb10 S3 3.842755 1_544
Rb11 S13 3.348732 1_555
Rb11 S14 3.394721 1_555
Rb11 S4 3.445210 1_555
Rb11 S6 3.471149 1_555
Rb11 S8 3.513956 1_555
Rb11 S2 3.550104 1_555
Rb11 S11 3.776431 1_565
S0 Sb3 2.336872 1_545
S1 Sb2 2.336872 1_555
S2 Sb1 2.336872 1_555
S3 Sb0 2.336872 1_565
S4 Sb0 2.336872 1_565
S5 Sb1 2.336872 1_555
S6 Sb2 2.336872 1_555
S7 Sb3 2.336872 1_545
S8 Sb0 2.352867 1_565
S9 Sb1 2.352867 1_555
S10 Sb2 2.352867 1_555
S11 Sb3 2.352867 1_545
S12 Sb0 2.343793 1_555
S13 Sb3 2.343793 1_555
S14 Sb2 2.343793 1_555
S15 Sb1 2.343793 1_555
