# generated using pymatgen
data_CrBi
_symmetry_space_group_name_H-M   'P 1'
_cell_length_a   7.56463100
_cell_length_b   4.10555500
_cell_length_c   6.52530822
_cell_angle_alpha   89.77521740
_cell_angle_beta   90.00000000
_cell_angle_gamma   90.00000000
_symmetry_Int_Tables_number   1
_chemical_formula_structural   CrBi
_chemical_formula_sum   'Cr4 Bi4'
_cell_volume   202.65499399
_cell_formula_units_Z   4
loop_
 _symmetry_equiv_pos_site_id
 _symmetry_equiv_pos_as_xyz
  1  'x, y, z'
loop_
 _atom_site_type_symbol
 _atom_site_label
 _atom_site_symmetry_multiplicity
 _atom_site_fract_x
 _atom_site_fract_y
 _atom_site_fract_z
 _atom_site_occupancy
  Cr  Cr0  1  0.92668800  0.27337100  0.67635400  1
  Cr  Cr1  1  0.42668800  0.72662900  0.82364600  1
  Cr  Cr2  1  0.07331200  0.72662900  0.32364600  1
  Cr  Cr3  1  0.57331200  0.27337100  0.17635400  1
  Bi  Bi0  1  0.28738900  0.22778500  0.53285200  1
  Bi  Bi1  1  0.78738900  0.77221500  0.96714800  1
  Bi  Bi2  1  0.71261100  0.77221500  0.46714800  1
  Bi  Bi3  1  0.21261100  0.22778500  0.03285200  1
loop_
_geom_bond_atom_site_label_1
_geom_bond_atom_site_label_2
_geom_bond_distance
_geom_bond_site_symmetry_2
Bi0 Cr0 2.891078 1_455
Bi0 Cr2 2.942547 1_555
Bi0 Cr2 2.956608 1_545
Bi0 Cr1 2.985588 1_545
Bi0 Cr1 2.989296 1_555
Bi0 Cr3 3.181389 1_555
Bi1 Cr1 2.891078 1_555
Bi1 Cr3 2.942547 1_556
Bi1 Cr3 2.956608 1_566
Bi1 Cr0 2.985588 1_565
Bi1 Cr0 2.989296 1_555
Bi1 Cr2 3.181389 1_656
Bi2 Cr2 2.891078 1_655
Bi2 Cr0 2.942547 1_555
Bi2 Cr0 2.956608 1_565
Bi2 Cr3 2.985588 1_565
Bi2 Cr3 2.989296 1_555
Bi2 Cr1 3.181389 1_555
Bi3 Cr3 2.891078 1_555
Bi3 Cr1 2.942547 1_554
Bi3 Cr1 2.956608 1_544
Bi3 Cr2 2.985588 1_545
Bi3 Cr2 2.989296 1_555
Bi3 Cr0 3.181389 1_454
