# generated using pymatgen
data_Eu2GaAg3
_symmetry_space_group_name_H-M   'P 1'
_cell_length_a   5.98333626
_cell_length_b   5.98333626
_cell_length_c   7.56671258
_cell_angle_alpha   51.69220290
_cell_angle_beta   51.69220290
_cell_angle_gamma   47.60409837
_symmetry_Int_Tables_number   1
_chemical_formula_structural   Eu2GaAg3
_chemical_formula_sum   'Eu2 Ga1 Ag3'
_cell_volume   147.14197660
_cell_formula_units_Z   1
loop_
 _symmetry_equiv_pos_site_id
 _symmetry_equiv_pos_as_xyz
  1  'x, y, z'
loop_
 _atom_site_type_symbol
 _atom_site_label
 _atom_site_symmetry_multiplicity
 _atom_site_fract_x
 _atom_site_fract_y
 _atom_site_fract_z
 _atom_site_occupancy
  Eu  Eu0  1  0.04714600  0.04714600  0.20020500  1
  Eu  Eu1  1  0.95035400  0.95035400  0.79902800  1
  Ga  Ga0  1  0.66981700  0.66981700  0.39343300  1
  Ag  Ag0  1  0.34720700  0.34720700  0.60437800  1
  Ag  Ag1  1  0.32618300  0.32618300  0.22885200  1
  Ag  Ag2  1  0.65929200  0.65929200  0.77410400  1
loop_
_geom_bond_atom_site_label_1
_geom_bond_atom_site_label_2
_geom_bond_distance
_geom_bond_site_symmetry_2
Eu0 Ga0 3.319736 1_445
Eu0 Ga0 3.526130 1_455
Eu0 Ga0 3.526130 1_545
Eu1 Ga0 3.308197 1_556
Eu1 Ga0 3.321309 1_655
Eu1 Ga0 3.321309 1_565
Ag0 Ga0 2.717470 1_555
Ag0 Ag2 2.851848 1_545
Ag0 Ag2 2.851848 1_455
Ag0 Ag1 3.002230 1_555
Ag0 Eu0 3.302188 1_565
Ag0 Eu0 3.302188 1_655
Ag0 Eu0 3.324044 1_556
Ag0 Eu1 3.395527 1_545
Ag0 Eu1 3.395527 1_455
Ag0 Eu1 3.518143 1_445
Ag1 Ga0 2.724685 1_455
Ag1 Ga0 2.724685 1_545
Ag1 Ag2 2.852505 1_554
Ag1 Eu0 3.205961 1_555
Ag1 Eu0 3.319690 1_565
Ag1 Eu0 3.319690 1_655
Ag1 Eu1 3.389712 1_445
Ag1 Eu1 3.502235 1_454
Ag1 Eu1 3.502235 1_544
Ag2 Ga0 2.803635 1_555
Ag2 Eu1 3.242716 1_455
Ag2 Eu1 3.242716 1_545
Ag2 Eu1 3.317469 1_555
Ag2 Eu0 3.450087 1_665
Ag2 Eu0 3.517050 1_656
Ag2 Eu0 3.517050 1_566
