# generated using pymatgen
data_Mg5Sb
_symmetry_space_group_name_H-M   'P 1'
_cell_length_a   6.12511140
_cell_length_b   6.12511140
_cell_length_c   6.12511125
_cell_angle_alpha   53.89668171
_cell_angle_beta   53.89668171
_cell_angle_gamma   53.89668923
_symmetry_Int_Tables_number   1
_chemical_formula_structural   Mg5Sb
_chemical_formula_sum   'Mg5 Sb1'
_cell_volume   139.31703580
_cell_formula_units_Z   1
loop_
 _symmetry_equiv_pos_site_id
 _symmetry_equiv_pos_as_xyz
  1  'x, y, z'
loop_
 _atom_site_type_symbol
 _atom_site_label
 _atom_site_symmetry_multiplicity
 _atom_site_fract_x
 _atom_site_fract_y
 _atom_site_fract_z
 _atom_site_occupancy
  Mg  Mg0  1  0.00000000  0.66670800  0.33329200  1
  Mg  Mg1  1  0.83312800  0.83312800  0.83312800  1
  Mg  Mg2  1  0.66670800  0.33329200  0.00000000  1
  Mg  Mg3  1  0.33329200  0.00000000  0.66670800  1
  Mg  Mg4  1  0.16687200  0.16687200  0.16687200  1
  Sb  Sb0  1  0.50000000  0.50000000  0.50000000  1
loop_
_geom_bond_atom_site_label_1
_geom_bond_atom_site_label_2
_geom_bond_distance
_geom_bond_site_symmetry_2
Mg0 Mg1 3.196722 1_455
Mg0 Mg4 3.196722 1_555
Mg0 Sb0 3.199344 1_455
Mg0 Sb0 3.199344 1_555
Mg0 Mg4 3.201768 1_565
Mg0 Mg1 3.201768 1_454
Mg0 Mg3 3.204844 1_564
Mg0 Mg2 3.204844 1_465
Mg0 Mg2 3.205440 1_456
Mg0 Mg3 3.205441 1_555
Mg0 Mg3 3.205441 1_465
Mg0 Mg2 3.205441 1_555
Mg1 Mg2 3.196722 1_556
Mg1 Mg3 3.196722 1_565
Mg1 Mg3 3.201768 1_665
Mg1 Mg2 3.201769 1_566
Mg1 Sb0 3.205243 1_556
Mg1 Sb0 3.205243 1_655
Mg1 Sb0 3.205243 1_565
Mg1 Mg4 3.205248 1_665
Mg1 Mg4 3.205248 1_656
Mg1 Mg4 3.205248 1_566
Mg2 Mg4 3.196722 1_555
Mg2 Sb0 3.199344 1_554
Mg2 Sb0 3.199344 1_555
Mg2 Mg4 3.201769 1_655
Mg2 Mg3 3.204844 1_654
Mg2 Mg3 3.205440 1_555
Mg2 Mg3 3.205441 1_564
Mg3 Mg4 3.196722 1_555
Mg3 Sb0 3.199344 1_555
Mg3 Sb0 3.199344 1_545
Mg3 Mg4 3.201768 1_556
Mg4 Sb0 3.205243 1_554
Mg4 Sb0 3.205243 1_545
Mg4 Sb0 3.205243 1_455
