# generated using pymatgen
data_Ca3Fe3(AsO4)4
_symmetry_space_group_name_H-M   'P 1'
_cell_length_a   5.19220100
_cell_length_b   9.20383700
_cell_length_c   17.51647420
_cell_angle_alpha   63.43778084
_cell_angle_beta   90.00000000
_cell_angle_gamma   90.00000000
_symmetry_Int_Tables_number   1
_chemical_formula_structural   Ca3Fe3(AsO4)4
_chemical_formula_sum   'Ca6 Fe6 As8 O32'
_cell_volume   748.72586296
_cell_formula_units_Z   2
loop_
 _symmetry_equiv_pos_site_id
 _symmetry_equiv_pos_as_xyz
  1  'x, y, z'
loop_
 _atom_site_type_symbol
 _atom_site_label
 _atom_site_symmetry_multiplicity
 _atom_site_fract_x
 _atom_site_fract_y
 _atom_site_fract_z
 _atom_site_occupancy
  Ca  Ca0  1  0.54101300  0.31192200  0.23059400  1
  Ca  Ca1  1  0.04101300  0.68807800  0.26940600  1
  Ca  Ca2  1  0.45898700  0.68807800  0.76940600  1
  Ca  Ca3  1  0.95898700  0.31192200  0.73059400  1
  Ca  Ca4  1  0.50000000  0.00000000  0.50000000  1
  Ca  Ca5  1  0.00000000  0.00000000  0.00000000  1
  Fe  Fe0  1  0.47457800  0.19825800  0.62069700  1
  Fe  Fe1  1  0.52542200  0.80174200  0.37930300  1
  Fe  Fe2  1  0.97457800  0.80174200  0.87930300  1
  Fe  Fe3  1  0.02542200  0.19825800  0.12069700  1
  Fe  Fe4  1  0.00000000  0.50000000  0.50000000  1
  Fe  Fe5  1  0.50000000  0.50000000  0.00000000  1
  As  As0  1  0.00700700  0.03856400  0.34236300  1
  As  As1  1  0.49308400  0.43719300  0.40180800  1
  As  As2  1  0.99308400  0.56280700  0.09819200  1
  As  As3  1  0.00691600  0.43719300  0.90180800  1
  As  As4  1  0.99299300  0.96143600  0.65763700  1
  As  As5  1  0.50691600  0.56280700  0.59819200  1
  As  As6  1  0.49299300  0.03856400  0.84236300  1
  As  As7  1  0.50700700  0.96143600  0.15763700  1
  O  O0  1  0.44624900  0.81259300  0.25997000  1
  O  O1  1  0.95206300  0.74423000  0.01017100  1
  O  O2  1  0.38526500  0.43704500  0.31056100  1
  O  O3  1  0.40854800  0.14928800  0.14928800  1
  O  O4  1  0.61473500  0.56295500  0.68943900  1
  O  O5  1  0.05375100  0.81259300  0.75997000  1
  O  O6  1  0.88526400  0.56295500  0.18943900  1
  O  O7  1  0.69574500  0.50924500  0.89492000  1
  O  O8  1  0.65806800  0.09670200  0.90729800  1
  O  O9  1  0.55375100  0.18740700  0.74003000  1
  O  O10  1  0.09145200  0.14928800  0.64928800  1
  O  O11  1  0.30425500  0.49075500  0.10508000  1
  O  O12  1  0.30350800  0.58139200  0.41691200  1
  O  O13  1  0.34193200  0.90329800  0.09270200  1
  O  O14  1  0.66267600  0.97266600  0.63997600  1
  O  O15  1  0.16267600  0.02733400  0.86002400  1
  O  O16  1  0.80350800  0.41860800  0.08308800  1
  O  O17  1  0.11473500  0.43704500  0.81056100  1
  O  O18  1  0.15806800  0.90329800  0.59270200  1
  O  O19  1  0.19574500  0.49075500  0.60508000  1
  O  O20  1  0.83732400  0.97266600  0.13997600  1
  O  O21  1  0.33732400  0.02733400  0.36002400  1
  O  O22  1  0.04793700  0.25577000  0.98982900  1
  O  O23  1  0.45206300  0.25577000  0.48982900  1
  O  O24  1  0.69649200  0.41860800  0.58308800  1
  O  O25  1  0.94624900  0.18740700  0.24003000  1
  O  O26  1  0.59145200  0.85071200  0.85071200  1
  O  O27  1  0.84193200  0.09670200  0.40729800  1
  O  O28  1  0.54793700  0.74423000  0.51017100  1
  O  O29  1  0.80425500  0.50924500  0.39492000  1
  O  O30  1  0.19649200  0.58139200  0.91691200  1
  O  O31  1  0.90854800  0.85071200  0.35071200  1
loop_
_geom_bond_atom_site_label_1
_geom_bond_atom_site_label_2
_geom_bond_distance
_geom_bond_site_symmetry_2
Ca0 O2 2.320539 1_555
Ca0 O25 2.366086 1_555
Ca0 O11 2.411976 1_555
Ca0 O3 2.578473 1_555
Ca0 O16 2.688621 1_555
Ca0 O6 2.750128 1_555
Ca0 O21 2.794340 1_555
Ca1 O6 2.320541 1_455
Ca1 O0 2.366086 1_555
Ca1 O29 2.411976 1_455
Ca1 O31 2.578473 1_455
Ca1 O12 2.688621 1_555
Ca1 O2 2.750132 1_555
Ca1 O20 2.794340 1_455
Ca2 O4 2.320539 1_555
Ca2 O5 2.366086 1_555
Ca2 O7 2.411976 1_555
Ca2 O26 2.578473 1_555
Ca2 O30 2.688621 1_555
Ca2 O17 2.750132 1_555
Ca2 O14 2.794340 1_555
Ca3 O17 2.320539 1_655
Ca3 O9 2.366086 1_555
Ca3 O19 2.411976 1_655
Ca3 O10 2.578473 1_655
Ca3 O24 2.688621 1_555
Ca3 O4 2.750132 1_555
Ca3 O15 2.794340 1_655
Ca4 O28 2.293519 1_545
Ca4 O23 2.293519 1_555
Ca4 O18 2.299643 1_545
Ca4 O27 2.299643 1_555
Ca4 O21 2.497359 1_555
Ca4 O14 2.497359 1_545
Ca5 O22 2.293519 1_554
Ca5 O1 2.293519 1_445
Ca5 O8 2.299643 1_454
Ca5 O13 2.299643 1_545
Ca5 O15 2.497359 1_554
Ca5 O20 2.497359 1_445
Fe0 O10 2.051650 1_555
Fe0 O9 2.088441 1_555
Fe0 O23 2.112702 1_555
Fe0 O24 2.163279 1_555
Fe0 O14 2.179876 1_545
Fe1 O31 2.051650 1_555
Fe1 O0 2.088441 1_555
Fe1 O28 2.112702 1_555
Fe1 O12 2.163279 1_555
Fe1 O21 2.179876 1_565
Fe2 O26 2.051650 1_555
Fe2 O5 2.088441 1_655
Fe2 O1 2.112702 1_556
Fe2 O30 2.163279 1_655
Fe2 O15 2.179876 1_665
Fe3 O3 2.051650 1_555
Fe3 O25 2.088441 1_455
Fe3 O22 2.112702 1_554
Fe3 O16 2.163279 1_455
Fe3 O20 2.179876 1_445
Fe4 O12 2.046387 1_555
Fe4 O24 2.046387 1_455
Fe4 O19 2.070762 1_555
Fe4 O29 2.070762 1_455
Fe5 O16 2.046387 1_555
Fe5 O30 2.046387 1_554
Fe5 O7 2.070762 1_554
Fe5 O11 2.070762 1_555
As0 O27 1.690865 1_455
As0 O25 1.730079 1_455
As0 O21 1.737602 1_555
As0 O31 1.745250 1_445
As1 O2 1.694105 1_555
As1 O23 1.705366 1_555
As1 O29 1.730069 1_555
As1 O12 1.764745 1_555
As2 O6 1.694106 1_555
As2 O1 1.705366 1_555
As2 O11 1.730069 1_655
As2 O16 1.764745 1_555
As3 O17 1.694105 1_555
As3 O22 1.705366 1_555
As3 O7 1.730069 1_455
As3 O30 1.764745 1_555
As4 O18 1.690865 1_655
As4 O5 1.730079 1_655
As4 O14 1.737602 1_555
As4 O10 1.745250 1_665
As5 O4 1.694105 1_555
As5 O28 1.705366 1_555
As5 O19 1.730069 1_555
As5 O24 1.764745 1_555
As6 O8 1.690865 1_555
As6 O9 1.730079 1_555
As6 O15 1.737602 1_555
As6 O26 1.745250 1_545
As7 O13 1.690865 1_555
As7 O0 1.730079 1_555
As7 O20 1.737602 1_555
As7 O3 1.745250 1_565
