# generated using pymatgen
data_CsNaMo(HO2)2
_symmetry_space_group_name_H-M   'P 1'
_cell_length_a   6.83258100
_cell_length_b   7.94321100
_cell_length_c   13.66822300
_cell_angle_alpha   90.00000000
_cell_angle_beta   90.00000000
_cell_angle_gamma   90.00000000
_symmetry_Int_Tables_number   1
_chemical_formula_structural   CsNaMo(HO2)2
_chemical_formula_sum   'Cs4 Na4 Mo4 H8 O16'
_cell_volume   741.81044459
_cell_formula_units_Z   4
loop_
 _symmetry_equiv_pos_site_id
 _symmetry_equiv_pos_as_xyz
  1  'x, y, z'
loop_
 _atom_site_type_symbol
 _atom_site_label
 _atom_site_symmetry_multiplicity
 _atom_site_fract_x
 _atom_site_fract_y
 _atom_site_fract_z
 _atom_site_occupancy
  Cs  Cs0  1  0.56337100  0.33533600  0.14479000  1
  Cs  Cs1  1  0.93662900  0.66466400  0.64479000  1
  Cs  Cs2  1  0.43662900  0.83533600  0.35521000  1
  Cs  Cs3  1  0.06337100  0.16466400  0.85521000  1
  Na  Na0  1  0.13649200  0.22926600  0.50368300  1
  Na  Na1  1  0.36350800  0.77073400  0.00368300  1
  Na  Na2  1  0.86350800  0.72926600  0.99631700  1
  Na  Na3  1  0.63649200  0.27073400  0.49631700  1
  Mo  Mo0  1  0.05929400  0.07815300  0.13773700  1
  Mo  Mo1  1  0.44070600  0.92184700  0.63773700  1
  Mo  Mo2  1  0.94070600  0.57815300  0.36226300  1
  Mo  Mo3  1  0.55929400  0.42184700  0.86226300  1
  H  H0  1  0.36184100  0.29695300  0.35783800  1
  H  H1  1  0.13815900  0.70304700  0.85783800  1
  H  H2  1  0.63815900  0.79695300  0.14216200  1
  H  H3  1  0.86184100  0.20304700  0.64216200  1
  H  H4  1  0.11753100  0.55813500  0.09422800  1
  H  H5  1  0.38246900  0.44186500  0.59422800  1
  H  H6  1  0.88246900  0.05813500  0.40577200  1
  H  H7  1  0.61753100  0.94186500  0.90577200  1
  O  O0  1  0.04699400  0.27284000  0.07244900  1
  O  O1  1  0.45300600  0.72716000  0.57244900  1
  O  O2  1  0.95300600  0.77284000  0.42755100  1
  O  O3  1  0.54699400  0.22716000  0.92755100  1
  O  O4  1  0.40624500  0.08993800  0.54582800  1
  O  O5  1  0.09375500  0.91006200  0.04582800  1
  O  O6  1  0.59375500  0.58993800  0.95417200  1
  O  O7  1  0.90624500  0.41006200  0.45417200  1
  O  O8  1  0.16685500  0.54747700  0.29933200  1
  O  O9  1  0.33314500  0.45252300  0.79933200  1
  O  O10  1  0.83314500  0.04747700  0.20066800  1
  O  O11  1  0.66685500  0.95252300  0.70066800  1
  O  O12  1  0.26391700  0.08360400  0.21966800  1
  O  O13  1  0.23608300  0.91639600  0.71966800  1
  O  O14  1  0.73608300  0.58360400  0.28033200  1
  O  O15  1  0.76391700  0.41639600  0.78033200  1
loop_
_geom_bond_atom_site_label_1
_geom_bond_atom_site_label_2
_geom_bond_distance
_geom_bond_site_symmetry_2
Cs0 O14 2.951901 1_555
Cs0 O10 3.034649 1_555
Cs0 O12 3.038418 1_555
Cs0 O3 3.093126 1_554
Cs0 H0 3.235533 1_555
Cs0 O6 3.304722 1_554
Cs0 O0 3.484698 1_655
Cs1 O15 2.951901 1_555
Cs1 O11 3.034649 1_555
Cs1 O13 3.038418 1_655
Cs1 O2 3.093126 1_555
Cs1 H1 3.235533 1_655
Cs1 O7 3.304722 1_555
Cs1 O1 3.484698 1_555
Cs2 O12 2.951901 1_565
Cs2 O8 3.034649 1_555
Cs2 O14 3.038418 1_555
Cs2 O1 3.093126 1_555
Cs2 H2 3.235533 1_555
Cs2 O4 3.304722 1_565
Cs2 O2 3.484698 1_455
Cs3 O13 2.951901 1_545
Cs3 O9 3.034649 1_555
Cs3 O15 3.038418 1_455
Cs3 O0 3.093126 1_556
Cs3 H3 3.235533 1_455
Cs3 O5 3.304722 1_546
Cs3 O3 3.484698 1_555
Na0 O4 2.225689 1_555
Na0 O7 2.235004 1_455
Na1 O5 2.225689 1_555
Na1 O6 2.235004 1_554
Na2 O6 2.225689 1_555
Na2 O5 2.235004 1_656
Na3 O7 2.225689 1_555
Na3 O4 2.235004 1_555
Mo0 O10 1.785168 1_455
Mo0 O0 1.787419 1_555
Mo0 O12 1.791824 1_555
Mo0 O5 1.848316 1_545
Mo1 O11 1.785168 1_555
Mo1 O1 1.787419 1_555
Mo1 O13 1.791824 1_555
Mo1 O4 1.848316 1_565
Mo2 O8 1.785168 1_655
Mo2 O2 1.787419 1_555
Mo2 O14 1.791824 1_555
Mo2 O7 1.848316 1_555
Mo3 O9 1.785168 1_555
Mo3 O3 1.787419 1_555
Mo3 O15 1.791824 1_555
Mo3 O6 1.848316 1_555
H0 Na0 2.575578 1_555
H0 Na3 2.673473 1_555
H1 Na1 2.575578 1_556
H1 Na2 2.673473 1_455
H2 Na2 2.575578 1_554
H2 Na1 2.673473 1_555
H3 Na3 2.575578 1_555
H3 Na0 2.673473 1_655
H4 Na2 2.578985 1_454
H4 Na1 2.684773 1_555
H5 Na3 2.578985 1_555
H5 Na0 2.684773 1_555
H6 Na0 2.578985 1_655
H6 Na3 2.684773 1_555
H7 Na1 2.578985 1_556
H7 Na2 2.684773 1_555
