# generated using pymatgen
data_LiMnP2O7
_symmetry_space_group_name_H-M   'P 1'
_cell_length_a   9.73898400
_cell_length_b   9.74807492
_cell_length_c   11.22931848
_cell_angle_alpha   78.44077825
_cell_angle_beta   89.77516489
_cell_angle_gamma   89.80078838
_symmetry_Int_Tables_number   1
_chemical_formula_structural   LiMnP2O7
_chemical_formula_sum   'Li8 Mn8 P16 O56'
_cell_volume   1044.43655862
_cell_formula_units_Z   8
loop_
 _symmetry_equiv_pos_site_id
 _symmetry_equiv_pos_as_xyz
  1  'x, y, z'
loop_
 _atom_site_type_symbol
 _atom_site_label
 _atom_site_symmetry_multiplicity
 _atom_site_fract_x
 _atom_site_fract_y
 _atom_site_fract_z
 _atom_site_occupancy
  Li  Li0  1  0.10545500  0.91262500  0.02311600  1
  Li  Li1  1  0.91567300  0.66298200  0.46061700  1
  Li  Li2  1  0.21790300  0.60966300  0.54929100  1
  Li  Li3  1  0.40733500  0.42191500  0.02371900  1
  Li  Li4  1  0.09523700  0.35211000  0.04676300  1
  Li  Li5  1  0.88987700  0.09158900  0.97330800  1
  Li  Li6  1  0.58037300  0.16078200  0.46400400  1
  Li  Li7  1  0.28237500  0.10918800  0.55111600  1
  Mn  Mn0  1  0.91947200  0.79733300  0.67626300  1
  Mn  Mn1  1  0.21953500  0.73300500  0.83086400  1
  Mn  Mn2  1  0.71361500  0.76625000  0.17069500  1
  Mn  Mn3  1  0.42882700  0.69335000  0.33256700  1
  Mn  Mn4  1  0.58031800  0.29757100  0.67741900  1
  Mn  Mn5  1  0.28944400  0.23756900  0.82907100  1
  Mn  Mn6  1  0.77664300  0.27690700  0.16685400  1
  Mn  Mn7  1  0.06920100  0.19325300  0.33524700  1
  P  P0  1  0.44548000  0.97373200  0.75359500  1
  P  P1  1  0.70671600  0.88119700  0.88871300  1
  P  P2  1  0.93252600  0.93938100  0.24137700  1
  P  P3  1  0.15416400  0.86870300  0.42476000  1
  P  P4  1  0.64052500  0.62063400  0.57265800  1
  P  P5  1  0.42501000  0.56575600  0.75769800  1
  P  P6  1  0.05513300  0.47341400  0.75679400  1
  P  P7  1  0.21241100  0.62025300  0.11704500  1
  P  P8  1  0.79048000  0.39011400  0.88987600  1
  P  P9  1  0.93967900  0.53252500  0.24093100  1
  P  P10  1  0.56942600  0.43590500  0.24183900  1
  P  P11  1  0.34389700  0.36896200  0.42342300  1
  P  P12  1  0.85648800  0.12210200  0.57226200  1
  P  P13  1  0.07205400  0.06267200  0.75882500  1
  P  P14  1  0.29005800  0.11902200  0.11548500  1
  P  P15  1  0.56137100  0.02946400  0.24199600  1
  O  O0  1  0.42040900  0.98066700  0.62190900  1
  O  O1  1  0.85170900  0.96644200  0.56626900  1
  O  O2  1  0.08575000  0.91465200  0.73171200  1
  O  O3  1  0.34211900  0.88956900  0.84394000  1
  O  O4  1  0.59030600  0.89942400  0.78499400  1
  O  O5  1  0.82375700  0.80836100  0.83111400  1
  O  O6  1  0.65170800  0.78059300  0.00314200  1
  O  O7  1  0.25920900  0.98317500  0.08217700  1
  O  O8  1  0.07708800  0.87899200  0.29577600  1
  O  O9  1  0.93669100  0.94288600  0.10688600  1
  O  O10  1  0.55643700  0.87948000  0.21009400  1
  O  O11  1  0.29195000  0.80031900  0.40757800  1
  O  O12  1  0.82219300  0.83312500  0.30101000  1
  O  O13  1  0.06623000  0.77070800  0.51998100  1
  O  O14  1  0.55959000  0.70540400  0.46598000  1
  O  O15  1  0.30821800  0.66389300  0.69310100  1
  O  O16  1  0.78385700  0.67738000  0.58497700  1
  O  O17  1  0.04931800  0.62542800  0.78894300  1
  O  O18  1  0.56532300  0.63167200  0.69867700  1
  O  O19  1  0.41800000  0.57423300  0.88929900  1
  O  O20  1  0.76690000  0.52724400  0.92377300  1
  O  O21  1  0.16277700  0.72842800  0.00279400  1
  O  O22  1  0.32903900  0.67993600  0.18265900  1
  O  O23  1  0.08853100  0.60351200  0.21380700  1
  O  O24  1  0.58233000  0.58544400  0.27099200  1
  O  O25  1  0.84125800  0.62377100  0.14982600  1
  O  O26  1  0.08899600  0.47509700  0.62752700  1
  O  O27  1  0.33241000  0.51806800  0.44351400  1
  O  O28  1  0.64411900  0.46234600  0.56879100  1
  O  O29  1  0.91369800  0.52520300  0.37197100  1
  O  O30  1  0.14958100  0.38124100  0.85429300  1
  O  O31  1  0.41413700  0.41583000  0.73035400  1
  O  O32  1  0.90639700  0.40663200  0.78251300  1
  O  O33  1  0.67413700  0.31889800  0.83419600  1
  O  O34  1  0.85738700  0.28149000  0.00098800  1
  O  O35  1  0.23541600  0.47962200  0.08450900  1
  O  O36  1  0.57455300  0.42775000  0.10994700  1
  O  O37  1  0.42355100  0.37800100  0.29495300  1
  O  O38  1  0.94736500  0.38477400  0.20209600  1
  O  O39  1  0.20530400  0.30325800  0.40502300  1
  O  O40  1  0.68094900  0.33194300  0.30684400  1
  O  O41  1  0.42961300  0.27073900  0.51903200  1
  O  O42  1  0.93664400  0.20989700  0.46611800  1
  O  O43  1  0.19212400  0.15901700  0.70062100  1
  O  O44  1  0.71253100  0.17990500  0.58820600  1
  O  O45  1  0.45709100  0.12869800  0.78430200  1
  O  O46  1  0.06199700  0.06935300  0.89151600  1
  O  O47  1  0.93400100  0.13276900  0.69683000  1
  O  O48  1  0.73705500  0.02362000  0.91181000  1
  O  O49  1  0.33920700  0.23308100  0.00387400  1
  O  O50  1  0.17072700  0.18856700  0.17746500  1
  O  O51  1  0.41036800  0.09876400  0.21435400  1
  O  O52  1  0.66027400  0.12017300  0.14992400  1
  O  O53  1  0.91837300  0.08791900  0.27291100  1
  O  O54  1  0.16654400  0.01770700  0.44507400  1
  O  O55  1  0.58625900  0.02793400  0.37217000  1
loop_
_geom_bond_atom_site_label_1
_geom_bond_atom_site_label_2
_geom_bond_distance
_geom_bond_site_symmetry_2
Li0 O7 1.831065 1_555
Li0 O21 1.934949 1_555
Li0 O9 1.941387 1_455
Li0 O46 1.947489 1_564
Li1 O29 1.825171 1_555
Li1 O16 1.918619 1_555
Li1 O13 1.999002 1_655
Li1 O12 2.367051 1_555
Li2 O26 1.899888 1_555
Li2 O27 1.964547 1_555
Li2 O15 2.004366 1_555
Li2 O13 2.129650 1_555
Li2 O11 2.306855 1_555
Li3 O19 1.896182 1_554
Li3 O36 1.904736 1_555
Li3 O35 1.929802 1_555
Li3 O49 2.013049 1_555
Li4 O35 1.953448 1_555
Li4 O50 2.073357 1_555
Li4 O30 2.185886 1_554
Li4 O38 2.327562 1_455
Li4 O34 2.503230 1_455
Li5 O48 1.824642 1_555
Li5 O9 1.920537 1_546
Li5 O46 1.940525 1_655
Li5 O34 1.961967 1_556
Li6 O55 1.810526 1_555
Li6 O44 1.938166 1_555
Li6 O41 1.983398 1_555
Li6 O40 2.382341 1_555
Li7 O0 1.899014 1_545
Li7 O54 1.982135 1_555
Li7 O43 2.034517 1_555
Li7 O41 2.109575 1_555
Li7 O39 2.364245 1_555
Mn0 O1 1.965063 1_555
Mn0 O5 1.991397 1_555
Mn0 O2 2.150385 1_655
Mn0 O16 2.159675 1_555
Mn0 O17 2.270759 1_655
Mn0 O13 2.313066 1_655
Mn1 O3 1.969761 1_555
Mn1 O21 1.998062 1_556
Mn1 O15 1.999035 1_555
Mn1 O17 2.070136 1_555
Mn1 O2 2.297378 1_555
Mn1 O19 2.478722 1_555
Mn2 O25 1.909300 1_555
Mn2 O6 1.956018 1_555
Mn2 O10 1.983912 1_555
Mn2 O12 2.020840 1_555
Mn2 O24 2.284410 1_555
Mn3 O22 1.974136 1_555
Mn3 O11 1.976700 1_555
Mn3 O14 1.991628 1_555
Mn3 O24 2.022841 1_555
Mn3 O27 2.121856 1_555
Mn3 O10 2.393797 1_555
Mn4 O28 1.915677 1_555
Mn4 O33 2.034221 1_555
Mn4 O44 2.101745 1_555
Mn4 O31 2.134411 1_555
Mn4 O45 2.191194 1_555
Mn4 O41 2.365487 1_555
Mn5 O43 2.005895 1_555
Mn5 O30 2.009911 1_555
Mn5 O49 2.015625 1_556
Mn5 O45 2.059157 1_555
Mn5 O31 2.226048 1_555
Mn6 O52 1.945514 1_555
Mn6 O40 1.987600 1_555
Mn6 O34 2.011195 1_555
Mn6 O38 2.052018 1_555
Mn6 O53 2.415261 1_555
Mn6 O36 2.461160 1_555
Mn7 O39 1.968644 1_555
Mn7 O42 1.982887 1_455
Mn7 O53 2.002154 1_455
Mn7 O50 2.034042 1_555
Mn7 O54 2.121361 1_555
Mn7 O38 2.451302 1_455
O0 P0 1.487793 1_555
O1 P12 1.533164 1_565
O2 P13 1.538466 1_565
O3 P0 1.542661 1_555
O4 P0 1.591494 1_555
O4 P1 1.612271 1_555
O5 P1 1.547376 1_555
O6 P1 1.546969 1_554
O7 P14 1.478491 1_565
O8 P2 1.599598 1_455
O8 P3 1.619007 1_555
O9 P2 1.504159 1_555
O10 P15 1.574413 1_565
O11 P3 1.524984 1_555
O12 P2 1.549199 1_555
O13 P3 1.542210 1_555
O14 P4 1.531446 1_555
O15 P5 1.567136 1_555
O16 P4 1.520276 1_555
O17 P6 1.594693 1_555
O18 P5 1.596183 1_555
O18 P4 1.613333 1_555
O19 P5 1.497818 1_555
O20 P8 1.478387 1_555
O21 P7 1.565489 1_555
O22 P7 1.534420 1_555
O23 P7 1.607123 1_555
O23 P9 1.610029 1_455
O24 P10 1.562289 1_555
O25 P9 1.547137 1_555
O26 P6 1.484201 1_555
O27 P11 1.518603 1_555
O28 P4 1.552557 1_555
O29 P9 1.479700 1_555
O30 P6 1.568441 1_555
O31 P5 1.556478 1_555
O32 P6 1.591663 1_655
O32 P8 1.632991 1_555
O33 P8 1.530258 1_555
O34 P8 1.604587 1_554
O35 P7 1.503644 1_555
O36 P10 1.499640 1_555
O37 P10 1.598957 1_555
O37 P11 1.622185 1_555
O38 P9 1.587740 1_555
O39 P11 1.528395 1_555
O40 P10 1.562575 1_555
O41 P11 1.534867 1_555
O42 P12 1.533317 1_555
O43 P13 1.559575 1_555
O44 P12 1.532354 1_555
O45 P0 1.619848 1_545
O46 P13 1.507224 1_555
O47 P13 1.602979 1_655
O47 P12 1.613843 1_555
O48 P1 1.493269 1_545
O49 P14 1.573743 1_555
O50 P14 1.572223 1_555
O51 P14 1.601631 1_555
O51 P15 1.621128 1_555
O52 P15 1.552528 1_555
O53 P2 1.563550 1_545
O54 P3 1.520051 1_545
O55 P15 1.479780 1_555
