# generated using pymatgen
data_Cs2CaAg2H4C6S6(N3O)2
_symmetry_space_group_name_H-M   'P 1'
_cell_length_a   8.33891200
_cell_length_b   19.35050100
_cell_length_c   8.15589289
_cell_angle_alpha   90.00000000
_cell_angle_beta   90.33797141
_cell_angle_gamma   90.00000000
_symmetry_Int_Tables_number   1
_chemical_formula_structural   Cs2CaAg2H4C6S6(N3O)2
_chemical_formula_sum   'Cs4 Ca2 Ag4 H8 C12 S12 N12 O4'
_cell_volume   1316.02931229
_cell_formula_units_Z   2
loop_
 _symmetry_equiv_pos_site_id
 _symmetry_equiv_pos_as_xyz
  1  'x, y, z'
loop_
 _atom_site_type_symbol
 _atom_site_label
 _atom_site_symmetry_multiplicity
 _atom_site_fract_x
 _atom_site_fract_y
 _atom_site_fract_z
 _atom_site_occupancy
  Cs  Cs0  1  0.75205500  0.88273800  0.97730900  1
  Cs  Cs1  1  0.24794500  0.38273800  0.52269100  1
  Cs  Cs2  1  0.24794500  0.11726200  0.02269100  1
  Cs  Cs3  1  0.75205500  0.61726200  0.47730900  1
  Ca  Ca0  1  0.00000000  0.00000000  0.50000000  1
  Ca  Ca1  1  0.00000000  0.50000000  0.00000000  1
  Ag  Ag0  1  0.27132300  0.78270400  0.01488800  1
  Ag  Ag1  1  0.72867700  0.28270400  0.48511200  1
  Ag  Ag2  1  0.72867700  0.21729600  0.98511200  1
  Ag  Ag3  1  0.27132300  0.71729600  0.51488800  1
  H  H0  1  0.66329700  0.95490100  0.52676700  1
  H  H1  1  0.33670300  0.45490100  0.97323300  1
  H  H2  1  0.33670300  0.04509900  0.47323300  1
  H  H3  1  0.66329700  0.54509900  0.02676700  1
  H  H4  1  0.66256400  0.02329900  0.62902700  1
  H  H5  1  0.33743600  0.52329900  0.87097300  1
  H  H6  1  0.33743600  0.97670100  0.37097300  1
  H  H7  1  0.66256400  0.47670100  0.12902700  1
  C  C0  1  0.18525100  0.93941900  0.87025800  1
  C  C1  1  0.81474900  0.43941900  0.62974200  1
  C  C2  1  0.81474900  0.06058100  0.12974200  1
  C  C3  1  0.18525100  0.56058100  0.37025800  1
  C  C4  1  0.01662100  0.67324300  0.86249700  1
  C  C5  1  0.98337900  0.17324300  0.63750300  1
  C  C6  1  0.98337900  0.32675700  0.13750300  1
  C  C7  1  0.01662100  0.82675700  0.36249700  1
  C  C8  1  0.52413100  0.65311400  0.96089700  1
  C  C9  1  0.47586900  0.15311400  0.53910300  1
  C  C10  1  0.47586900  0.34688600  0.03910300  1
  C  C11  1  0.52413100  0.84688600  0.46089700  1
  S  S0  1  0.29796900  0.91458900  0.02519900  1
  S  S1  1  0.70203100  0.41458900  0.47480100  1
  S  S2  1  0.70203100  0.08541100  0.97480100  1
  S  S3  1  0.29796900  0.58541100  0.52519900  1
  S  S4  1  0.06345300  0.75075200  0.79671900  1
  S  S5  1  0.93654700  0.25075200  0.70328100  1
  S  S6  1  0.93654700  0.24924800  0.20328100  1
  S  S7  1  0.06345300  0.74924800  0.29671900  1
  S  S8  1  0.52365600  0.71881200  0.08966200  1
  S  S9  1  0.47634400  0.21881200  0.41033800  1
  S  S10  1  0.47634400  0.28118800  0.91033800  1
  S  S11  1  0.52365600  0.78118800  0.58966200  1
  N  N0  1  0.10251500  0.96009000  0.76209900  1
  N  N1  1  0.89748500  0.46009000  0.73790100  1
  N  N2  1  0.89748500  0.03991000  0.23790100  1
  N  N3  1  0.10251500  0.53991000  0.26209900  1
  N  N4  1  0.98019200  0.61696600  0.90478800  1
  N  N5  1  0.01980800  0.11696600  0.59521200  1
  N  N6  1  0.01980800  0.38303400  0.09521200  1
  N  N7  1  0.98019200  0.88303400  0.40478800  1
  N  N8  1  0.52975700  0.60380600  0.87436500  1
  N  N9  1  0.47024300  0.10380600  0.62563500  1
  N  N10  1  0.47024300  0.39619400  0.12563500  1
  N  N11  1  0.52975700  0.89619400  0.37436500  1
  O  O0  1  0.72957200  0.98360200  0.60033300  1
  O  O1  1  0.27042800  0.48360200  0.89966700  1
  O  O2  1  0.27042800  0.01639800  0.39966700  1
  O  O3  1  0.72957200  0.51639800  0.10033300  1
loop_
_geom_bond_atom_site_label_1
_geom_bond_atom_site_label_2
_geom_bond_distance
_geom_bond_site_symmetry_2
Cs0 O0 3.645651 1_555
Cs0 N0 3.731287 1_655
Cs0 N11 3.749906 1_556
Cs0 S8 3.814403 1_556
Cs0 S0 3.858508 1_556
Cs0 S4 3.934504 1_655
Cs1 O1 3.645651 1_555
Cs1 N1 3.731287 1_455
Cs1 N10 3.749906 1_555
Cs1 S9 3.814403 1_555
Cs1 S1 3.858508 1_555
Cs1 S5 3.934504 1_455
Cs2 O2 3.645651 1_555
Cs2 N2 3.731287 1_455
Cs2 N9 3.749906 1_554
Cs2 S10 3.814403 1_554
Cs2 S2 3.858508 1_554
Cs2 S6 3.934504 1_455
Cs3 O3 3.645651 1_555
Cs3 N3 3.731287 1_655
Cs3 N8 3.749906 1_555
Cs3 S11 3.814403 1_555
Cs3 S3 3.858508 1_555
Cs3 S7 3.934504 1_655
Ca0 N5 2.398237 1_555
Ca0 N7 2.398237 1_445
Ca0 N0 2.423881 1_545
Ca0 N2 2.423881 1_455
Ca0 O0 2.424344 1_445
Ca0 O2 2.424344 1_555
Ca1 N6 2.398237 1_555
Ca1 N4 2.398237 1_454
Ca1 N3 2.423881 1_555
Ca1 N1 2.423881 1_454
Ca1 O3 2.424344 1_455
Ca1 O1 2.424344 1_554
Ag0 S8 2.512549 1_555
Ag0 S4 2.552789 1_554
Ag0 S0 2.563033 1_555
Ag0 S7 2.958769 1_555
Ag1 S9 2.512549 1_555
Ag1 S5 2.552789 1_555
Ag1 S1 2.563033 1_555
Ag1 S6 2.958769 1_555
Ag2 S10 2.512549 1_555
Ag2 S6 2.552789 1_556
Ag2 S2 2.563033 1_555
Ag2 S5 2.958769 1_555
Ag3 S11 2.512549 1_555
Ag3 S7 2.552789 1_555
Ag3 S3 2.563033 1_555
Ag3 S4 2.958769 1_555
H0 O0 0.984867 1_555
H1 O1 0.984867 1_555
H2 O2 0.984867 1_555
H3 O3 0.984867 1_555
H4 O0 0.979083 1_545
H5 O1 0.979083 1_555
H6 O2 0.979083 1_565
H7 O3 0.979083 1_555
C0 N0 1.186160 1_555
C0 S0 1.642325 1_556
C0 Cs2 3.695154 1_566
C1 N1 1.186160 1_555
C1 S1 1.642325 1_555
C1 Cs3 3.695154 1_555
C2 N2 1.186160 1_555
C2 S2 1.642325 1_554
C2 Cs0 3.695154 1_544
C3 N3 1.186160 1_555
C3 S3 1.642325 1_555
C3 Cs1 3.695154 1_555
C4 N4 1.182532 1_455
C4 S4 1.640825 1_555
C5 N5 1.182532 1_655
C5 S5 1.640825 1_555
C6 N6 1.182532 1_655
C6 S6 1.640825 1_555
C7 N7 1.182532 1_455
C7 S7 1.640825 1_555
C8 N8 1.187873 1_555
C8 S8 1.648984 1_556
C9 N9 1.187873 1_555
C9 S9 1.648984 1_555
C10 N10 1.187873 1_555
C10 S10 1.648984 1_554
C11 N11 1.187873 1_555
C11 S11 1.648984 1_555
