# generated using pymatgen
data_TbCrO4
_symmetry_space_group_name_H-M   'P 1'
_cell_length_a   5.08572600
_cell_length_b   5.08572600
_cell_length_c   6.72126780
_cell_angle_alpha   112.23033031
_cell_angle_beta   112.23033031
_cell_angle_gamma   90.00000000
_symmetry_Int_Tables_number   1
_chemical_formula_structural   TbCrO4
_chemical_formula_sum   'Tb2 Cr2 O8'
_cell_volume   146.86711244
_cell_formula_units_Z   2
loop_
 _symmetry_equiv_pos_site_id
 _symmetry_equiv_pos_as_xyz
  1  'x, y, z'
loop_
 _atom_site_type_symbol
 _atom_site_label
 _atom_site_symmetry_multiplicity
 _atom_site_fract_x
 _atom_site_fract_y
 _atom_site_fract_z
 _atom_site_occupancy
  Tb  Tb0  1  0.62500000  0.87500000  0.25000000  1
  Tb  Tb1  1  0.37500000  0.12500000  0.75000000  1
  Cr  Cr0  1  0.12500000  0.37500000  0.25000000  1
  Cr  Cr1  1  0.87500000  0.62500000  0.75000000  1
  O  O0  1  0.34638700  0.19358100  0.40363900  1
  O  O1  1  0.05725200  0.71005800  0.40363900  1
  O  O2  1  0.69358100  0.55725200  0.90363900  1
  O  O3  1  0.21005800  0.84638700  0.90363900  1
  O  O4  1  0.65361300  0.80641900  0.59636100  1
  O  O5  1  0.94274800  0.28994200  0.59636100  1
  O  O6  1  0.30641900  0.44274800  0.09636100  1
  O  O7  1  0.78994200  0.15361300  0.09636100  1
loop_
_geom_bond_atom_site_label_1
_geom_bond_atom_site_label_2
_geom_bond_distance
_geom_bond_site_symmetry_2
Cr0 O0 1.739683 1_555
Cr0 O1 1.739683 1_555
Cr0 O6 1.739683 1_555
Cr0 O7 1.739683 1_455
Cr1 O5 1.739683 1_555
Cr1 O2 1.739683 1_555
Cr1 O3 1.739683 1_655
Cr1 O4 1.739683 1_555
O0 Tb0 2.353802 1_545
O0 Tb1 2.433186 1_555
O1 Tb0 2.353802 1_455
O1 Tb1 2.433186 1_565
O2 Tb1 2.353802 1_555
O2 Tb0 2.433186 1_556
O3 Tb1 2.353802 1_565
O3 Tb0 2.433186 1_556
O4 Tb1 2.353802 1_565
O4 Tb0 2.433186 1_555
O5 Tb1 2.353802 1_655
O5 Tb0 2.433186 1_545
O6 Tb0 2.353802 1_555
O6 Tb1 2.433186 1_554
O7 Tb0 2.353802 1_545
O7 Tb1 2.433186 1_554
