# generated using pymatgen
data_Sm4Mg(Mo2O7)2
_symmetry_space_group_name_H-M   'P 1'
_cell_length_a   7.54381101
_cell_length_b   7.58516938
_cell_length_c   7.58527096
_cell_angle_alpha   60.48169878
_cell_angle_beta   60.50875238
_cell_angle_gamma   60.50776668
_symmetry_Int_Tables_number   1
_chemical_formula_structural   Sm4Mg(Mo2O7)2
_chemical_formula_sum   'Sm4 Mg1 Mo4 O14'
_cell_volume   310.37473383
_cell_formula_units_Z   1
loop_
 _symmetry_equiv_pos_site_id
 _symmetry_equiv_pos_as_xyz
  1  'x, y, z'
loop_
 _atom_site_type_symbol
 _atom_site_label
 _atom_site_symmetry_multiplicity
 _atom_site_fract_x
 _atom_site_fract_y
 _atom_site_fract_z
 _atom_site_occupancy
  Sm  Sm0  1  0.46764400  0.00993400  0.48336800  1
  Sm  Sm1  1  0.51748200  0.48986000  0.48990500  1
  Sm  Sm2  1  0.46747200  0.48357700  0.00995900  1
  Sm  Sm3  1  0.00852000  0.48635300  0.48658000  1
  Mg  Mg0  1  0.72517900  0.76303500  0.76297000  1
  Mo  Mo0  1  0.00737400  0.99895800  0.99899800  1
  Mo  Mo1  1  0.00520000  0.00413500  0.49026700  1
  Mo  Mo2  1  0.49200400  0.00927700  0.00922800  1
  Mo  Mo3  1  0.00517800  0.49026600  0.00412900  1
  O  O0  1  0.67344200  0.08141300  0.66262700  1
  O  O1  1  0.04938600  0.67692600  0.67692000  1
  O  O2  1  0.90395200  0.34095200  0.34097300  1
  O  O3  1  0.67343600  0.66259600  0.08137400  1
  O  O4  1  0.37567800  0.37819600  0.37821800  1
  O  O5  1  0.93286600  0.33817500  0.90586000  1
  O  O6  1  0.08729100  0.09744500  0.64817800  1
  O  O7  1  0.36602200  0.89346800  0.89351700  1
  O  O8  1  0.33835900  0.35143900  0.89100800  1
  O  O9  1  0.08716900  0.64815800  0.09759300  1
  O  O10  1  0.63933500  0.63519600  0.63518600  1
  O  O11  1  0.33836700  0.89101600  0.35135400  1
  O  O12  1  0.93265500  0.90599400  0.33822800  1
  O  O13  1  0.64705900  0.10470100  0.10462800  1
loop_
_geom_bond_atom_site_label_1
_geom_bond_atom_site_label_2
_geom_bond_distance
_geom_bond_site_symmetry_2
Mg0 O1 2.027272 1_655
Mg0 O0 2.028996 1_565
Mg0 O3 2.029121 1_556
Mg0 O10 2.112257 1_555
Mg0 O7 2.232665 1_555
Mg0 O12 2.696127 1_555
Mg0 O5 2.696948 1_555
Mo0 O5 2.147374 1_465
Mo0 O12 2.147420 1_456
Mo0 O9 2.215208 1_556
Mo0 O6 2.215349 1_565
Mo0 O7 2.229008 1_555
Mo0 O13 2.239642 1_466
Mo1 O12 2.012998 1_445
Mo1 O6 2.077609 1_555
Mo1 O11 2.079303 1_545
Mo1 O0 2.098956 1_455
Mo1 O1 2.112596 1_545
Mo1 O2 2.114763 1_455
Mo2 O13 2.144501 1_555
Mo2 O11 2.156609 1_545
Mo2 O8 2.156739 1_554
Mo2 O7 2.201877 1_544
Mo2 O0 2.204916 1_554
Mo2 O3 2.205314 1_545
Mo3 O5 2.012814 1_454
Mo3 O9 2.077811 1_555
Mo3 O8 2.079305 1_554
Mo3 O3 2.098811 1_455
Mo3 O1 2.112621 1_554
Mo3 O2 2.114978 1_455
O0 Sm1 2.574511 1_555
O0 Sm0 2.861250 1_555
O1 Sm3 2.683779 1_555
O1 Sm1 2.934828 1_555
O2 Sm1 2.413317 1_555
O2 Sm3 2.444024 1_655
O3 Sm1 2.575042 1_555
O3 Sm2 2.860479 1_555
O4 Sm1 2.251873 1_555
O4 Sm3 2.281647 1_555
O4 Sm0 2.315480 1_555
O4 Sm2 2.315494 1_555
O5 Sm3 2.650610 1_655
O5 Sm2 2.912399 1_556
O6 Sm0 2.376360 1_555
O6 Sm3 2.446582 1_555
O7 Sm2 2.578565 1_556
O7 Sm0 2.580179 1_565
O8 Sm2 2.342005 1_556
O8 Sm1 2.527109 1_555
O9 Sm2 2.375870 1_555
O9 Sm3 2.447270 1_555
O10 Sm3 2.317104 1_655
O10 Sm0 2.387745 1_565
O10 Sm2 2.387989 1_556
O10 Sm1 2.543014 1_555
O11 Sm0 2.342042 1_565
O11 Sm1 2.527419 1_555
O12 Sm3 2.652635 1_655
O12 Sm0 2.910171 1_565
O13 Sm0 2.386731 1_555
O13 Sm2 2.387640 1_555
