# generated using pymatgen
data_BaSrDySbO6
_symmetry_space_group_name_H-M   'P 1'
_cell_length_a   5.96222094
_cell_length_b   5.96152796
_cell_length_c   8.42719631
_cell_angle_alpha   90.17553717
_cell_angle_beta   90.16380851
_cell_angle_gamma   90.22469992
_symmetry_Int_Tables_number   1
_chemical_formula_structural   BaSrDySbO6
_chemical_formula_sum   'Ba2 Sr2 Dy2 Sb2 O12'
_cell_volume   299.53087380
_cell_formula_units_Z   2
loop_
 _symmetry_equiv_pos_site_id
 _symmetry_equiv_pos_as_xyz
  1  'x, y, z'
loop_
 _atom_site_type_symbol
 _atom_site_label
 _atom_site_symmetry_multiplicity
 _atom_site_fract_x
 _atom_site_fract_y
 _atom_site_fract_z
 _atom_site_occupancy
  Ba  Ba0  1  0.50422689  0.51748853  0.24974417  1
  Ba  Ba1  1  0.49577311  0.48251147  0.75025583  1
  Sr  Sr0  1  0.99681710  0.02315692  0.25075904  1
  Sr  Sr1  1  0.00318290  0.97684308  0.74924096  1
  Dy  Dy0  1  0.00000000  0.50000000  -0.00000000  1
  Dy  Dy1  1  0.50000000  0.00000000  0.50000000  1
  Sb  Sb0  1  0.50000000  0.00000000  -0.00000000  1
  Sb  Sb1  1  0.00000000  0.50000000  0.50000000  1
  O  O0  1  0.23413941  0.20577521  0.96856717  1
  O  O1  1  0.25848495  0.71481194  0.52760661  1
  O  O2  1  0.76586059  0.79422479  0.03143283  1
  O  O3  1  0.74151505  0.28518806  0.47239339  1
  O  O4  1  0.28721388  0.73988440  0.97100029  1
  O  O5  1  0.20378177  0.23154947  0.52977554  1
  O  O6  1  0.71278612  0.26011560  0.02899971  1
  O  O7  1  0.79621823  0.76845053  0.47022446  1
  O  O8  1  0.43652022  0.99623527  0.23589444  1
  O  O9  1  0.04815799  0.48514083  0.26359228  1
  O  O10  1  0.56347978  0.00376473  0.76410556  1
  O  O11  1  0.95184201  0.51485917  0.73640772  1
loop_
_geom_bond_atom_site_label_1
_geom_bond_atom_site_label_2
_geom_bond_distance
_geom_bond_site_symmetry_2
Ba0 O6 2.715083 1_555
Ba0 O9 2.728114 1_555
Ba0 O3 2.730578 1_555
Ba0 O8 2.886704 1_555
Ba0 O2 2.924825 1_555
Ba0 O7 2.943718 1_555
Ba0 O4 2.994164 1_554
Ba0 O1 3.004974 1_555
Ba0 O8 3.133783 1_545
Ba0 O9 3.251304 1_655
Ba0 O0 3.404231 1_554
Ba0 O5 3.421769 1_555
Ba1 O4 2.715083 1_555
Ba1 O11 2.728114 1_555
Ba1 O1 2.730578 1_555
Ba1 O10 2.886704 1_555
Ba1 O0 2.924825 1_555
Ba1 O5 2.943718 1_555
Ba1 O6 2.994164 1_556
Ba1 O3 3.004974 1_555
Ba1 O10 3.133783 1_565
Ba1 O11 3.251304 1_455
Ba1 O2 3.404231 1_556
Ba1 O7 3.421769 1_555
Dy0 O11 2.241075 1_454
Dy0 O9 2.241075 1_555
Dy0 O4 2.241115 1_554
Dy0 O6 2.241115 1_455
Dy0 O2 2.261426 1_455
Dy0 O0 2.261426 1_554
Dy1 O3 2.236805 1_555
Dy1 O1 2.236805 1_545
Dy1 O8 2.256583 1_545
Dy1 O10 2.256583 1_555
Dy1 O5 2.259899 1_555
Dy1 O7 2.259899 1_545
O0 Sb0 2.025461 1_556
O0 Sr1 2.670260 1_545
O0 Sr0 2.977530 1_456
O1 Sb1 2.012424 1_555
O1 Sr1 2.874493 1_555
O2 Sb0 2.025461 1_565
O2 Sr0 2.670260 1_565
O2 Sr1 2.977530 1_654
O3 Sb1 2.012424 1_655
O3 Sr0 2.874493 1_555
O4 Sb0 2.013547 1_566
O4 Sr1 2.893549 1_555
O5 Sb1 2.028876 1_555
O5 Sr1 2.678113 1_545
O5 Sr0 2.923749 1_455
O6 Sb0 2.013547 1_555
O6 Sr0 2.893549 1_555
O7 Sb1 2.028876 1_655
O7 Sr0 2.678113 1_565
O7 Sr1 2.923749 1_655
O8 Sb0 2.024876 1_565
O8 Sr0 2.630462 1_465
O9 Sb1 2.015380 1_555
O9 Sr0 2.771642 1_455
O10 Sb0 2.024876 1_556
O10 Sr1 2.630462 1_645
O11 Sb1 2.015380 1_655
O11 Sr1 2.771642 1_655
