# generated using pymatgen
data_PSN(Cl2O)2
_symmetry_space_group_name_H-M   'P 1'
_cell_length_a   15.56035143
_cell_length_b   17.46934800
_cell_length_c   19.44849421
_cell_angle_alpha   90.00000000
_cell_angle_beta   90.00000000
_cell_angle_gamma   91.76882462
_symmetry_Int_Tables_number   1
_chemical_formula_structural   PSN(Cl2O)2
_chemical_formula_sum   'P24 S24 N24 Cl96 O48'
_cell_volume   5284.14942840
_cell_formula_units_Z   24
loop_
 _symmetry_equiv_pos_site_id
 _symmetry_equiv_pos_as_xyz
  1  'x, y, z'
loop_
 _atom_site_type_symbol
 _atom_site_label
 _atom_site_symmetry_multiplicity
 _atom_site_fract_x
 _atom_site_fract_y
 _atom_site_fract_z
 _atom_site_occupancy
  P  P0  1  0.95363598  0.62269372  0.64075096  1
  P  P1  1  0.04636402  0.87730628  0.14075096  1
  P  P2  1  0.04636402  0.37730628  0.35924904  1
  P  P3  1  0.95363598  0.12269372  0.85924904  1
  P  P4  1  0.38054986  0.55858073  0.11242615  1
  P  P5  1  0.61945014  0.94141927  0.61242615  1
  P  P6  1  0.61945014  0.44141927  0.88757385  1
  P  P7  1  0.38054986  0.05858073  0.38757385  1
  P  P8  1  0.27779247  0.75435156  0.88803733  1
  P  P9  1  0.72220753  0.74564844  0.38803733  1
  P  P10  1  0.72220753  0.24564844  0.11196267  1
  P  P11  1  0.27779247  0.25435156  0.61196267  1
  P  P12  1  0.54861506  0.39748427  0.38527302  1
  P  P13  1  0.45138494  0.10251573  0.88527302  1
  P  P14  1  0.45138494  0.60251573  0.61472698  1
  P  P15  1  0.54861506  0.89748427  0.11472698  1
  P  P16  1  0.12264130  0.46754823  0.86817253  1
  P  P17  1  0.87735870  0.03245177  0.36817253  1
  P  P18  1  0.87735870  0.53245177  0.13182747  1
  P  P19  1  0.12264130  0.96754823  0.63182747  1
  P  P20  1  0.77721512  0.26676172  0.63332665  1
  P  P21  1  0.22278488  0.23323828  0.13332665  1
  P  P22  1  0.22278488  0.73323828  0.36667335  1
  P  P23  1  0.77721512  0.76676172  0.86667335  1
  S  S0  1  0.13254154  0.58392021  0.63343501  1
  S  S1  1  0.86745846  0.91607979  0.13343501  1
  S  S2  1  0.86745846  0.41607979  0.36656499  1
  S  S3  1  0.13254154  0.08392021  0.86656499  1
  S  S4  1  0.19509736  0.54500369  0.11233520  1
  S  S5  1  0.80490264  0.95499631  0.61233520  1
  S  S6  1  0.80490264  0.45499631  0.88766480  1
  S  S7  1  0.19509736  0.04500369  0.38766480  1
  S  S8  1  0.46226333  0.75958472  0.87715680  1
  S  S9  1  0.53773667  0.74041528  0.37715680  1
  S  S10  1  0.53773667  0.24041528  0.12284320  1
  S  S11  1  0.46226333  0.25958472  0.62284320  1
  S  S12  1  0.36513364  0.41104490  0.37837977  1
  S  S13  1  0.63486636  0.08895510  0.87837977  1
  S  S14  1  0.63486636  0.58895510  0.62162023  1
  S  S15  1  0.36513364  0.91104490  0.12162023  1
  S  S16  1  0.30693423  0.47353024  0.88648161  1
  S  S17  1  0.69306577  0.02646976  0.38648161  1
  S  S18  1  0.69306577  0.52646976  0.11351839  1
  S  S19  1  0.30693423  0.97353024  0.61351839  1
  S  S20  1  0.96266551  0.26554852  0.63012075  1
  S  S21  1  0.03733449  0.23445148  0.13012075  1
  S  S22  1  0.03733449  0.73445148  0.36987925  1
  S  S23  1  0.96266551  0.76554852  0.86987925  1
  N  N0  1  0.04233362  0.59637283  0.66982272  1
  N  N1  1  0.95766638  0.90362717  0.16982272  1
  N  N2  1  0.95766638  0.40362717  0.33017728  1
  N  N3  1  0.04233362  0.09637283  0.83017728  1
  N  N4  1  0.28681549  0.57919861  0.09020647  1
  N  N5  1  0.71318451  0.92080139  0.59020647  1
  N  N6  1  0.71318451  0.42080139  0.90979353  1
  N  N7  1  0.28681549  0.07919861  0.40979353  1
  N  N8  1  0.37233524  0.74406081  0.91436897  1
  N  N9  1  0.62766476  0.75593919  0.41436897  1
  N  N10  1  0.62766476  0.25593919  0.08563103  1
  N  N11  1  0.37233524  0.24406081  0.58563103  1
  N  N12  1  0.45784001  0.42128919  0.41245887  1
  N  N13  1  0.54215999  0.07871081  0.91245887  1
  N  N14  1  0.54215999  0.57871081  0.58754113  1
  N  N15  1  0.45784001  0.92128919  0.08754113  1
  N  N16  1  0.21575859  0.50506460  0.86625094  1
  N  N17  1  0.78424141  0.99493540  0.36625094  1
  N  N18  1  0.78424141  0.49493540  0.13374906  1
  N  N19  1  0.21575859  0.00506460  0.63374906  1
  N  N20  1  0.86987575  0.25925752  0.66448381  1
  N  N21  1  0.13012425  0.24074248  0.16448381  1
  N  N22  1  0.13012425  0.74074248  0.33551619  1
  N  N23  1  0.86987575  0.75925752  0.83551619  1
  Cl  Cl0  1  0.17784065  0.69623962  0.61312465  1
  Cl  Cl1  1  0.82215935  0.80376038  0.11312465  1
  Cl  Cl2  1  0.82215935  0.30376038  0.38687535  1
  Cl  Cl3  1  0.17784065  0.19623962  0.88687535  1
  Cl  Cl4  1  0.94587470  0.73478914  0.62290439  1
  Cl  Cl5  1  0.05412530  0.76521086  0.12290439  1
  Cl  Cl6  1  0.05412530  0.26521086  0.37709561  1
  Cl  Cl7  1  0.94587470  0.23478914  0.87709561  1
  Cl  Cl8  1  0.86644619  0.59830717  0.71201138  1
  Cl  Cl9  1  0.13355381  0.90169283  0.21201138  1
  Cl  Cl10  1  0.13355381  0.40169283  0.28798862  1
  Cl  Cl11  1  0.86644619  0.09830717  0.78798862  1
  Cl  Cl12  1  0.91247157  0.57259470  0.55446606  1
  Cl  Cl13  1  0.08752843  0.92740530  0.05446606  1
  Cl  Cl14  1  0.08752843  0.42740530  0.44553394  1
  Cl  Cl15  1  0.91247157  0.07259470  0.94553394  1
  Cl  Cl16  1  0.16992005  0.60182285  0.20499354  1
  Cl  Cl17  1  0.83007995  0.89817715  0.70499354  1
  Cl  Cl18  1  0.83007995  0.39817715  0.79500646  1
  Cl  Cl19  1  0.16992005  0.10182285  0.29500646  1
  Cl  Cl20  1  0.41901145  0.60463000  0.20180449  1
  Cl  Cl21  1  0.58098855  0.89537000  0.70180449  1
  Cl  Cl22  1  0.58098855  0.39537000  0.79819551  1
  Cl  Cl23  1  0.41901145  0.10463000  0.29819551  1
  Cl  Cl24  1  0.45932885  0.60304172  0.04214053  1
  Cl  Cl25  1  0.54067115  0.89695828  0.54214053  1
  Cl  Cl26  1  0.54067115  0.39695828  0.95785947  1
  Cl  Cl27  1  0.45932885  0.10304172  0.45785947  1
  Cl  Cl28  1  0.40625224  0.44832782  0.11976664  1
  Cl  Cl29  1  0.59374776  0.05167218  0.61976664  1
  Cl  Cl30  1  0.59374776  0.55167218  0.88023336  1
  Cl  Cl31  1  0.40625224  0.94832782  0.38023336  1
  Cl  Cl32  1  0.48735008  0.87701592  0.89346521  1
  Cl  Cl33  1  0.51264992  0.62298408  0.39346521  1
  Cl  Cl34  1  0.51264992  0.12298408  0.10653479  1
  Cl  Cl35  1  0.48735008  0.37701592  0.60653479  1
  Cl  Cl36  1  0.24202804  0.86318743  0.88224089  1
  Cl  Cl37  1  0.75797196  0.63681257  0.38224089  1
  Cl  Cl38  1  0.75797196  0.13681257  0.11775911  1
  Cl  Cl39  1  0.24202804  0.36318743  0.61775911  1
  Cl  Cl40  1  0.19944956  0.70366095  0.95515031  1
  Cl  Cl41  1  0.80055044  0.79633905  0.45515031  1
  Cl  Cl42  1  0.80055044  0.29633905  0.04484969  1
  Cl  Cl43  1  0.19944956  0.20366095  0.54484969  1
  Cl  Cl44  1  0.24857287  0.70862498  0.79699663  1
  Cl  Cl45  1  0.75142713  0.79137502  0.29699663  1
  Cl  Cl46  1  0.75142713  0.29137502  0.20300337  1
  Cl  Cl47  1  0.24857287  0.20862498  0.70300337  1
  Cl  Cl48  1  0.33059574  0.29602502  0.39792557  1
  Cl  Cl49  1  0.66940426  0.20397498  0.89792557  1
  Cl  Cl50  1  0.66940426  0.70397498  0.60207443  1
  Cl  Cl51  1  0.33059574  0.79602502  0.10207443  1
  Cl  Cl52  1  0.56934082  0.28524425  0.38758703  1
  Cl  Cl53  1  0.43065918  0.21475575  0.88758703  1
  Cl  Cl54  1  0.43065918  0.71475575  0.61241297  1
  Cl  Cl55  1  0.56934082  0.78524425  0.11241297  1
  Cl  Cl56  1  0.63512318  0.44554844  0.44739994  1
  Cl  Cl57  1  0.36487682  0.05445156  0.94739994  1
  Cl  Cl58  1  0.36487682  0.55445156  0.55260006  1
  Cl  Cl59  1  0.63512318  0.94554844  0.05260006  1
  Cl  Cl60  1  0.57948474  0.43006790  0.29025216  1
  Cl  Cl61  1  0.42051526  0.06993210  0.79025216  1
  Cl  Cl62  1  0.42051526  0.56993210  0.70974784  1
  Cl  Cl63  1  0.57948474  0.93006790  0.20974784  1
  Cl  Cl64  1  0.32879437  0.38835903  0.81251299  1
  Cl  Cl65  1  0.67120563  0.11164097  0.31251299  1
  Cl  Cl66  1  0.67120563  0.61164097  0.18748701  1
  Cl  Cl67  1  0.32879437  0.88835903  0.68748701  1
  Cl  Cl68  1  0.09433321  0.39759265  0.78975420  1
  Cl  Cl69  1  0.90566679  0.10240735  0.28975420  1
  Cl  Cl70  1  0.90566679  0.60240735  0.21024580  1
  Cl  Cl71  1  0.09433321  0.89759265  0.71024580  1
  Cl  Cl72  1  0.04111431  0.55173865  0.86190464  1
  Cl  Cl73  1  0.95888569  0.94826135  0.36190464  1
  Cl  Cl74  1  0.95888569  0.44826135  0.13809536  1
  Cl  Cl75  1  0.04111431  0.05173865  0.63809536  1
  Cl  Cl76  1  0.09084156  0.40691116  0.95169761  1
  Cl  Cl77  1  0.90915844  0.09308884  0.45169761  1
  Cl  Cl78  1  0.90915844  0.59308884  0.04830239  1
  Cl  Cl79  1  0.09084156  0.90691116  0.54830239  1
  Cl  Cl80  1  0.98262669  0.38338295  0.61487970  1
  Cl  Cl81  1  0.01737331  0.11661705  0.11487970  1
  Cl  Cl82  1  0.01737331  0.61661705  0.38512030  1
  Cl  Cl83  1  0.98262669  0.88338295  0.88512030  1
  Cl  Cl84  1  0.74559704  0.37390905  0.61130192  1
  Cl  Cl85  1  0.25440296  0.12609095  0.11130192  1
  Cl  Cl86  1  0.25440296  0.62609095  0.38869808  1
  Cl  Cl87  1  0.74559704  0.87390905  0.88869808  1
  Cl  Cl88  1  0.69561029  0.23000123  0.70493508  1
  Cl  Cl89  1  0.30438971  0.26999877  0.20493508  1
  Cl  Cl90  1  0.30438971  0.76999877  0.29506492  1
  Cl  Cl91  1  0.69561029  0.73000123  0.79506492  1
  Cl  Cl92  1  0.74958869  0.20601875  0.54935025  1
  Cl  Cl93  1  0.25041131  0.29398125  0.04935025  1
  Cl  Cl94  1  0.25041131  0.79398125  0.45064975  1
  Cl  Cl95  1  0.74958869  0.70601875  0.95064975  1
  O  O0  1  0.19111687  0.55544576  0.68370746  1
  O  O1  1  0.80888313  0.94455424  0.18370746  1
  O  O2  1  0.80888313  0.44455424  0.31629254  1
  O  O3  1  0.19111687  0.05544576  0.81629254  1
  O  O4  1  0.12599375  0.54729675  0.56720040  1
  O  O5  1  0.87400625  0.95270325  0.06720040  1
  O  O6  1  0.87400625  0.45270325  0.43279960  1
  O  O7  1  0.12599375  0.04729675  0.93279960  1
  O  O8  1  0.13227711  0.57316995  0.06508231  1
  O  O9  1  0.86772289  0.92683005  0.56508231  1
  O  O10  1  0.86772289  0.42683005  0.93491769  1
  O  O11  1  0.13227711  0.07316995  0.43491769  1
  O  O12  1  0.19399693  0.46481906  0.12989182  1
  O  O13  1  0.80600307  0.03518094  0.62989182  1
  O  O14  1  0.80600307  0.53518094  0.87010818  1
  O  O15  1  0.19399693  0.96481906  0.37010818  1
  O  O16  1  0.52753883  0.72263175  0.91648475  1
  O  O17  1  0.47246117  0.77736825  0.41648475  1
  O  O18  1  0.47246117  0.27736825  0.08351525  1
  O  O19  1  0.52753883  0.22263175  0.58351525  1
  O  O20  1  0.45998498  0.75095354  0.80354780  1
  O  O21  1  0.54001502  0.74904646  0.30354780  1
  O  O22  1  0.54001502  0.24904646  0.19645220  1
  O  O23  1  0.45998498  0.25095354  0.69645220  1
  O  O24  1  0.30556755  0.45391779  0.41836894  1
  O  O25  1  0.69443245  0.04608221  0.91836894  1
  O  O26  1  0.69443245  0.54608221  0.58163106  1
  O  O27  1  0.30556755  0.95391779  0.08163106  1
  O  O28  1  0.36512458  0.41799007  0.30445835  1
  O  O29  1  0.63487542  0.08200993  0.80445835  1
  O  O30  1  0.63487542  0.58200993  0.69554165  1
  O  O31  1  0.36512458  0.91799007  0.19554165  1
  O  O32  1  0.37137243  0.53209568  0.87248118  1
  O  O33  1  0.62862757  0.96790432  0.37248118  1
  O  O34  1  0.62862757  0.46790432  0.12751882  1
  O  O35  1  0.37137243  0.03209568  0.62751882  1
  O  O36  1  0.30744671  0.43426859  0.95179204  1
  O  O37  1  0.69255329  0.06573141  0.45179204  1
  O  O38  1  0.69255329  0.56573141  0.04820796  1
  O  O39  1  0.30744671  0.93426859  0.54820796  1
  O  O40  1  0.02511335  0.24600280  0.68120604  1
  O  O41  1  0.97488665  0.25399720  0.18120604  1
  O  O42  1  0.97488665  0.75399720  0.31879396  1
  O  O43  1  0.02511335  0.74600280  0.81879396  1
  O  O44  1  0.96649220  0.23165685  0.56263741  1
  O  O45  1  0.03350780  0.26834315  0.06263741  1
  O  O46  1  0.03350780  0.76834315  0.43736259  1
  O  O47  1  0.96649220  0.73165685  0.93736259  1
loop_
_geom_bond_atom_site_label_1
_geom_bond_atom_site_label_2
_geom_bond_distance
_geom_bond_site_symmetry_2
N0 P0 1.573258 1_455
N0 S0 1.592882 1_555
N1 P1 1.573258 1_655
N1 S1 1.592882 1_555
N2 P2 1.573258 1_655
N2 S2 1.592882 1_555
N3 P3 1.573258 1_455
N3 S3 1.592882 1_555
N4 P4 1.573609 1_555
N4 S4 1.589413 1_555
N5 P5 1.573609 1_555
N5 S5 1.589413 1_555
N6 P6 1.573609 1_555
N6 S6 1.589413 1_555
N7 P7 1.573609 1_555
N7 S7 1.589413 1_555
N8 P8 1.573243 1_555
N8 S8 1.591215 1_555
N9 P9 1.573243 1_555
N9 S9 1.591215 1_555
N10 P10 1.573243 1_555
N10 S10 1.591215 1_555
N11 P11 1.573243 1_555
N11 S11 1.591215 1_555
N12 P12 1.576033 1_555
N12 S12 1.592579 1_555
N13 P13 1.576033 1_555
N13 S13 1.592579 1_555
N14 P14 1.576033 1_555
N14 S14 1.592579 1_555
N15 P15 1.576033 1_555
N15 S15 1.592579 1_555
N16 P16 1.572172 1_555
N16 S16 1.587234 1_555
N17 P17 1.572172 1_565
N17 S17 1.587234 1_565
N18 P18 1.572172 1_555
N18 S18 1.587234 1_555
N19 P19 1.572172 1_545
N19 S19 1.587234 1_545
N20 P20 1.573188 1_555
N20 S20 1.591728 1_555
N21 P21 1.573188 1_555
N21 S21 1.591728 1_555
N22 P22 1.573188 1_555
N22 S22 1.591728 1_555
N23 P23 1.573188 1_555
N23 S23 1.591728 1_555
Cl0 S0 2.101787 1_555
Cl1 S1 2.101787 1_555
Cl2 S2 2.101787 1_555
Cl3 S3 2.101787 1_555
Cl4 P0 1.996080 1_555
Cl5 P1 1.996080 1_555
Cl6 P2 1.996080 1_555
Cl7 P3 1.996080 1_555
Cl8 P0 1.976663 1_555
Cl9 P1 1.976663 1_555
Cl10 P2 1.976663 1_555
Cl11 P3 1.976663 1_555
Cl12 P0 1.989398 1_555
Cl13 P1 1.989398 1_555
Cl14 P2 1.989398 1_555
Cl15 P3 1.989398 1_555
Cl16 S4 2.100040 1_555
Cl17 S5 2.100040 1_555
Cl18 S6 2.100040 1_555
Cl19 S7 2.100040 1_555
Cl20 P4 1.999297 1_555
Cl21 P5 1.999297 1_555
Cl22 P6 1.999297 1_555
Cl23 P7 1.999297 1_555
Cl24 P4 1.978813 1_555
Cl25 P5 1.978813 1_555
Cl26 P6 1.978813 1_555
Cl27 P7 1.978813 1_555
Cl28 P4 1.984324 1_555
Cl29 P5 1.984324 1_545
Cl30 P6 1.984324 1_555
Cl31 P7 1.984324 1_565
Cl32 S8 2.100470 1_555
Cl33 S9 2.100470 1_555
Cl34 S10 2.100470 1_555
Cl35 S11 2.100470 1_555
Cl36 P8 2.000659 1_555
Cl37 P9 2.000659 1_555
Cl38 P10 2.000659 1_555
Cl39 P11 2.000659 1_555
Cl40 P8 1.976679 1_555
Cl41 P9 1.976679 1_555
Cl42 P10 1.976679 1_555
Cl43 P11 1.976679 1_555
Cl44 P8 1.989333 1_555
Cl45 P9 1.989333 1_555
Cl46 P10 1.989333 1_555
Cl47 P11 1.989333 1_555
Cl48 S12 2.098580 1_555
Cl49 S13 2.098580 1_555
Cl50 S14 2.098580 1_555
Cl51 S15 2.098580 1_555
Cl52 P12 1.997410 1_555
Cl53 P13 1.997410 1_555
Cl54 P14 1.997410 1_555
Cl55 P15 1.997410 1_555
Cl56 P12 1.976649 1_555
Cl57 P13 1.976649 1_555
Cl58 P14 1.976649 1_555
Cl59 P15 1.976649 1_555
Cl60 P12 1.988217 1_555
Cl61 P13 1.988217 1_555
Cl62 P14 1.988217 1_555
Cl63 P15 1.988217 1_555
Cl64 S16 2.104818 1_555
Cl65 S17 2.104818 1_555
Cl66 S18 2.104818 1_555
Cl67 S19 2.104818 1_555
Cl68 P16 1.995058 1_555
Cl69 P17 1.995058 1_555
Cl70 P18 1.995058 1_555
Cl71 P19 1.995058 1_555
Cl72 P16 1.975467 1_555
Cl73 P17 1.975467 1_565
Cl74 P18 1.975467 1_555
Cl75 P19 1.975467 1_545
Cl76 P16 1.993333 1_555
Cl77 P17 1.993333 1_555
Cl78 P18 1.993333 1_555
Cl79 P19 1.993333 1_555
Cl80 S20 2.093382 1_555
Cl81 S21 2.093382 1_555
Cl82 S22 2.093382 1_555
Cl83 S23 2.093382 1_555
Cl84 P20 1.996496 1_555
Cl85 P21 1.996496 1_555
Cl86 P22 1.996496 1_555
Cl87 P23 1.996496 1_555
Cl88 P20 1.978382 1_555
Cl89 P21 1.978382 1_555
Cl90 P22 1.978382 1_555
Cl91 P23 1.978382 1_555
Cl92 P20 1.987471 1_555
Cl93 P21 1.987471 1_555
Cl94 P22 1.987471 1_555
Cl95 P23 1.987471 1_555
O0 S0 1.436007 1_555
O1 S1 1.436007 1_555
O2 S2 1.436007 1_555
O3 S3 1.436007 1_555
O4 S0 1.440503 1_555
O5 S1 1.440503 1_555
O6 S2 1.440503 1_555
O7 S3 1.440503 1_555
O8 S4 1.439401 1_555
O9 S5 1.439401 1_555
O10 S6 1.439401 1_555
O11 S7 1.439401 1_555
O12 S4 1.441376 1_555
O13 S5 1.441376 1_545
O14 S6 1.441376 1_555
O15 S7 1.441376 1_565
O16 S8 1.440103 1_555
O17 S9 1.440103 1_555
O18 S10 1.440103 1_555
O19 S11 1.440103 1_555
O20 S8 1.439825 1_555
O21 S9 1.439825 1_555
O22 S10 1.439825 1_555
O23 S11 1.439825 1_555
O24 S12 1.437966 1_555
O25 S13 1.437966 1_555
O26 S14 1.437966 1_555
O27 S15 1.437966 1_555
O28 S12 1.442771 1_555
O29 S13 1.442771 1_555
O30 S14 1.442771 1_555
O31 S15 1.442771 1_555
O32 S16 1.436285 1_555
O33 S17 1.436285 1_565
O34 S18 1.436285 1_555
O35 S19 1.436285 1_545
O36 S16 1.443679 1_555
O37 S17 1.443679 1_555
O38 S18 1.443679 1_555
O39 S19 1.443679 1_555
O40 S20 1.438193 1_455
O41 S21 1.438193 1_655
O42 S22 1.438193 1_655
O43 S23 1.438193 1_455
O44 S20 1.441800 1_555
O45 S21 1.441800 1_555
O46 S22 1.441800 1_555
O47 S23 1.441800 1_555
