# generated using pymatgen
data_Pr2Co7
_symmetry_space_group_name_H-M   'P 1'
_cell_length_a   5.06443016
_cell_length_b   5.06443016
_cell_length_c   24.47908100
_cell_angle_alpha   90.00000000
_cell_angle_beta   90.00000000
_cell_angle_gamma   119.91365938
_symmetry_Int_Tables_number   1
_chemical_formula_structural   Pr2Co7
_chemical_formula_sum   'Pr8 Co28'
_cell_volume   544.20697636
_cell_formula_units_Z   4
loop_
 _symmetry_equiv_pos_site_id
 _symmetry_equiv_pos_as_xyz
  1  'x, y, z'
loop_
 _atom_site_type_symbol
 _atom_site_label
 _atom_site_symmetry_multiplicity
 _atom_site_fract_x
 _atom_site_fract_y
 _atom_site_fract_z
 _atom_site_occupancy
  Pr  Pr0  1  0.33331100  0.66668900  0.02746500  1
  Pr  Pr1  1  0.66668900  0.33331100  0.97253500  1
  Pr  Pr2  1  0.66668900  0.33331100  0.52746500  1
  Pr  Pr3  1  0.33331100  0.66668900  0.47253500  1
  Pr  Pr4  1  0.33333500  0.66666500  0.17257100  1
  Pr  Pr5  1  0.66666500  0.33333500  0.82742900  1
  Pr  Pr6  1  0.66666500  0.33333500  0.67257100  1
  Pr  Pr7  1  0.33333500  0.66666500  0.32742900  1
  Co  Co0  1  0.83433900  0.66875700  0.41144700  1
  Co  Co1  1  0.83431100  0.16568900  0.41150200  1
  Co  Co2  1  0.33124300  0.16566100  0.41144700  1
  Co  Co3  1  0.16566100  0.33124300  0.58855300  1
  Co  Co4  1  0.16568900  0.83431100  0.58849800  1
  Co  Co5  1  0.66875700  0.83433900  0.58855300  1
  Co  Co6  1  0.16566100  0.33124300  0.91144700  1
  Co  Co7  1  0.16568900  0.83431100  0.91150200  1
  Co  Co8  1  0.66875700  0.83433900  0.91144700  1
  Co  Co9  1  0.83433900  0.66875700  0.08855300  1
  Co  Co10  1  0.83431100  0.16568900  0.08849800  1
  Co  Co11  1  0.33124300  0.16566100  0.08855300  1
  Co  Co12  1  0.83419900  0.66836000  0.25000000  1
  Co  Co13  1  0.83414400  0.16585600  0.25000000  1
  Co  Co14  1  0.33164000  0.16580100  0.25000000  1
  Co  Co15  1  0.16580100  0.33164000  0.75000000  1
  Co  Co16  1  0.16585600  0.83414400  0.75000000  1
  Co  Co17  1  0.66836000  0.83419900  0.75000000  1
  Co  Co18  1  0.00000000  0.00000000  0.50000000  1
  Co  Co19  1  0.00000000  0.00000000  0.00000000  1
  Co  Co20  1  0.00020900  0.99979100  0.66816800  1
  Co  Co21  1  0.99979100  0.00020900  0.33183200  1
  Co  Co22  1  0.99979100  0.00020900  0.16816800  1
  Co  Co23  1  0.00020900  0.99979100  0.83183200  1
  Co  Co24  1  0.33310400  0.66689600  0.83129400  1
  Co  Co25  1  0.66689600  0.33310400  0.16870600  1
  Co  Co26  1  0.66689600  0.33310400  0.33129400  1
  Co  Co27  1  0.33310400  0.66689600  0.66870600  1
loop_
_geom_bond_atom_site_label_1
_geom_bond_atom_site_label_2
_geom_bond_distance
_geom_bond_site_symmetry_2
Co0 Co21 2.432120 1_565
Co0 Co26 2.453715 1_555
Co0 Co1 2.516748 1_565
Co0 Co2 2.519819 1_665
Co0 Co1 2.547682 1_555
Co0 Co2 2.551219 1_555
Co0 Co18 2.610216 1_665
Co0 Pr3 2.940794 1_555
Co0 Pr3 2.940822 1_655
Co0 Pr2 3.199062 1_555
Co0 Pr7 3.262076 1_555
Co0 Pr7 3.262384 1_655
Co1 Co21 2.430777 1_555
Co1 Co26 2.451477 1_555
Co1 Co2 2.516748 1_655
Co1 Co2 2.547682 1_555
Co1 Co18 2.608371 1_655
Co1 Pr3 2.942969 1_655
Co1 Pr3 2.942969 1_545
Co1 Pr2 3.196576 1_555
Co1 Pr7 3.265642 1_545
Co1 Pr7 3.265642 1_655
Co2 Co21 2.432120 1_455
Co2 Co26 2.453715 1_555
Co2 Pr3 2.940794 1_555
Co2 Pr3 2.940822 1_545
Co2 Pr2 3.199062 1_555
Co2 Pr7 3.262076 1_555
Co2 Pr7 3.262384 1_545
Co3 Co4 2.516748 1_545
Co3 Co5 2.519819 1_445
Co3 Co4 2.547682 1_555
Co3 Co5 2.551219 1_555
Co3 Pr2 2.940794 1_555
Co3 Pr2 2.940822 1_455
Co3 Pr3 3.199062 1_555
Co3 Pr6 3.262076 1_555
Co3 Pr6 3.262384 1_455
Co4 Co5 2.516748 1_455
Co4 Co5 2.547682 1_555
Co4 Pr2 2.942969 1_565
Co4 Pr2 2.942969 1_455
Co4 Pr3 3.196576 1_555
Co4 Pr6 3.265642 1_455
Co4 Pr6 3.265642 1_565
Co5 Pr2 2.940794 1_555
Co5 Pr2 2.940822 1_565
Co5 Pr3 3.199062 1_555
Co5 Pr6 3.262076 1_555
Co5 Pr6 3.262384 1_565
Co6 Co7 2.516748 1_545
Co6 Co8 2.519819 1_445
Co6 Co7 2.547682 1_555
Co6 Co8 2.551219 1_555
Co6 Pr1 2.940794 1_555
Co6 Pr1 2.940822 1_455
Co6 Pr0 3.199062 1_556
Co6 Pr5 3.262076 1_555
Co6 Pr5 3.262384 1_455
Co7 Co8 2.516748 1_455
Co7 Co8 2.547682 1_555
Co7 Pr1 2.942969 1_455
Co7 Pr1 2.942969 1_565
Co7 Pr0 3.196576 1_556
Co7 Pr5 3.265642 1_455
Co7 Pr5 3.265642 1_565
Co8 Pr1 2.940794 1_555
Co8 Pr1 2.940822 1_565
Co8 Pr0 3.199062 1_556
Co8 Pr5 3.262076 1_555
Co8 Pr5 3.262384 1_565
Co9 Pr0 2.940794 1_555
Co9 Pr0 2.940822 1_655
Co9 Pr1 3.199062 1_554
Co9 Pr4 3.262076 1_555
Co9 Pr4 3.262384 1_655
Co10 Co22 2.430777 1_555
Co10 Co25 2.451477 1_555
Co10 Co11 2.516748 1_655
Co10 Co9 2.516748 1_545
Co10 Co11 2.547682 1_555
Co10 Co9 2.547682 1_555
Co10 Co19 2.608371 1_655
Co10 Pr0 2.942969 1_655
Co10 Pr0 2.942969 1_545
Co10 Pr1 3.196576 1_554
Co10 Pr4 3.265642 1_545
Co10 Pr4 3.265642 1_655
Co11 Co22 2.432120 1_455
Co11 Co25 2.453715 1_555
Co11 Co9 2.519819 1_445
Co11 Co9 2.551219 1_555
Co11 Co19 2.610216 1_555
Co11 Pr0 2.940794 1_555
Co11 Pr0 2.940822 1_545
Co11 Pr1 3.199062 1_554
Co11 Pr4 3.262076 1_555
Co11 Pr4 3.262384 1_545
Co12 Co26 2.475069 1_555
Co12 Co25 2.475069 1_555
Co12 Co21 2.476845 1_565
Co12 Co22 2.476845 1_565
Co12 Co13 2.519673 1_565
Co12 Co14 2.522542 1_665
Co12 Co13 2.544758 1_555
Co12 Co14 2.548496 1_555
Co12 Pr7 3.162941 1_655
Co12 Pr4 3.162941 1_655
Co12 Pr7 3.163093 1_555
Co12 Pr4 3.163093 1_555
Co13 Co26 2.471951 1_555
Co13 Co25 2.471951 1_555
Co13 Co21 2.474300 1_555
Co13 Co22 2.474300 1_555
Co13 Co14 2.519673 1_655
Co13 Co14 2.544758 1_555
Co13 Pr7 3.165662 1_655
Co13 Pr7 3.165662 1_545
Co13 Pr4 3.165662 1_655
Co13 Pr4 3.165662 1_545
Co14 Co26 2.475069 1_555
Co14 Co25 2.475069 1_555
Co14 Co21 2.476845 1_455
Co14 Co22 2.476845 1_455
Co14 Pr7 3.162941 1_545
Co14 Pr4 3.162941 1_545
Co14 Pr7 3.163093 1_555
Co14 Pr4 3.163093 1_555
Co15 Co27 2.475069 1_555
Co15 Co24 2.475069 1_555
Co15 Co23 2.476845 1_545
Co15 Co20 2.476845 1_545
Co15 Co16 2.519673 1_545
Co15 Co17 2.522542 1_445
Co15 Co16 2.544758 1_555
Co15 Co17 2.548496 1_555
Co15 Pr5 3.162941 1_455
Co15 Pr6 3.162941 1_455
Co15 Pr5 3.163093 1_555
Co15 Pr6 3.163093 1_555
Co16 Co24 2.471951 1_555
Co16 Co27 2.471951 1_555
Co16 Co23 2.474300 1_555
Co16 Co20 2.474300 1_555
Co16 Co17 2.519673 1_455
Co16 Co17 2.544758 1_555
Co16 Pr5 3.165662 1_565
Co16 Pr5 3.165662 1_455
Co16 Pr6 3.165662 1_565
Co16 Pr6 3.165662 1_455
Co17 Co27 2.475069 1_555
Co17 Co24 2.475069 1_555
Co17 Co23 2.476845 1_655
Co17 Co20 2.476845 1_655
Co17 Pr5 3.162941 1_565
Co17 Pr6 3.162941 1_565
Co17 Pr5 3.163093 1_555
Co17 Pr6 3.163093 1_555
Co18 Co4 2.608371 1_545
Co18 Co3 2.610216 1_555
Co18 Co2 2.610216 1_555
Co18 Co5 2.610216 1_445
Co18 Pr2 2.998818 1_455
Co18 Pr3 2.998818 1_545
Co18 Pr3 3.002824 1_555
Co18 Pr2 3.002824 1_555
Co18 Pr2 3.002824 1_445
Co18 Pr3 3.002824 1_445
Co19 Co7 2.608371 1_544
Co19 Co9 2.610216 1_445
Co19 Co6 2.610216 1_554
Co19 Co8 2.610216 1_444
Co19 Pr0 2.998818 1_545
Co19 Pr1 2.998818 1_454
Co19 Pr0 3.002824 1_555
Co19 Pr0 3.002824 1_445
Co19 Pr1 3.002824 1_554
Co19 Pr1 3.002824 1_444
Co20 Co4 2.430777 1_555
Co20 Co5 2.432120 1_455
Co20 Co3 2.432120 1_565
Co20 Pr6 2.926510 1_465
Co20 Pr6 2.927557 1_455
Co20 Pr6 2.927557 1_565
Co21 Pr7 2.926510 1_645
Co21 Pr7 2.927557 1_545
Co21 Pr7 2.927557 1_655
Co22 Co9 2.432120 1_545
Co22 Pr4 2.926510 1_645
Co22 Pr4 2.927557 1_545
Co22 Pr4 2.927557 1_655
Co23 Co7 2.430777 1_555
Co23 Co8 2.432120 1_455
Co23 Co6 2.432120 1_565
Co23 Pr5 2.926510 1_465
Co23 Pr5 2.927557 1_455
Co23 Pr5 2.927557 1_565
Co24 Co7 2.451477 1_555
Co24 Co8 2.453715 1_555
Co24 Co6 2.453715 1_555
Co24 Pr5 2.926203 1_555
Co24 Pr5 2.927027 1_455
Co24 Pr5 2.927027 1_565
Co25 Co9 2.453715 1_555
Co25 Pr4 2.926203 1_555
Co25 Pr4 2.927027 1_545
Co25 Pr4 2.927027 1_655
Co26 Pr7 2.926203 1_555
Co26 Pr7 2.927027 1_545
Co26 Pr7 2.927027 1_655
Co27 Co4 2.451477 1_555
Co27 Co5 2.453715 1_555
Co27 Co3 2.453715 1_555
Co27 Pr6 2.926203 1_555
Co27 Pr6 2.927027 1_455
Co27 Pr6 2.927027 1_565
