# generated using pymatgen
data_NaZnAsO4
_symmetry_space_group_name_H-M   'P 1'
_cell_length_a   8.47028800
_cell_length_b   9.13233714
_cell_length_c   9.13241784
_cell_angle_alpha   120.00041649
_cell_angle_beta   90.00000000
_cell_angle_gamma   90.00000000
_symmetry_Int_Tables_number   1
_chemical_formula_structural   NaZnAsO4
_chemical_formula_sum   'Na6 Zn6 As6 O24'
_cell_volume   611.77918417
_cell_formula_units_Z   6
loop_
 _symmetry_equiv_pos_site_id
 _symmetry_equiv_pos_as_xyz
  1  'x, y, z'
loop_
 _atom_site_type_symbol
 _atom_site_label
 _atom_site_symmetry_multiplicity
 _atom_site_fract_x
 _atom_site_fract_y
 _atom_site_fract_z
 _atom_site_occupancy
  Na  Na0  1  0.81810500  0.33334400  0.66667500  1
  Na  Na1  1  0.31810500  0.66665600  0.33332500  1
  Na  Na2  1  0.29663900  0.00000400  0.00000400  1
  Na  Na3  1  0.79663900  0.99999600  0.99999600  1
  Na  Na4  1  0.35709500  0.33333700  0.66667000  1
  Na  Na5  1  0.85709500  0.66666300  0.33333000  1
  Zn  Zn0  1  0.60108200  0.67535300  0.02313000  1
  Zn  Zn1  1  0.60108500  0.97687400  0.65221700  1
  Zn  Zn2  1  0.60108000  0.34777500  0.32465100  1
  Zn  Zn3  1  0.10108200  0.32464700  0.97687000  1
  Zn  Zn4  1  0.10108500  0.02312600  0.34778300  1
  Zn  Zn5  1  0.10108000  0.65222500  0.67534900  1
  As  As0  1  0.48959700  0.02821000  0.33835800  1
  As  As1  1  0.48959500  0.66165800  0.68986600  1
  As  As2  1  0.48959700  0.31014300  0.97178700  1
  As  As3  1  0.98959700  0.97179000  0.66164200  1
  As  As4  1  0.98959500  0.33834200  0.31013400  1
  As  As5  1  0.98959700  0.68985700  0.02821300  1
  O  O0  1  0.62434600  0.19356100  0.42016100  1
  O  O1  1  0.62434300  0.57984800  0.77340700  1
  O  O2  1  0.62434600  0.22659900  0.80644300  1
  O  O3  1  0.12434600  0.80643900  0.57983900  1
  O  O4  1  0.12434300  0.42015200  0.22659300  1
  O  O5  1  0.12434600  0.77340100  0.19355700  1
  O  O6  1  0.31054100  0.13158200  0.38713600  1
  O  O7  1  0.31053900  0.61288000  0.74445300  1
  O  O8  1  0.31054000  0.25555400  0.86841700  1
  O  O9  1  0.81054100  0.86841800  0.61286400  1
  O  O10  1  0.81053900  0.38712000  0.25554700  1
  O  O11  1  0.81054000  0.74444600  0.13158200  1
  O  O12  1  0.50525900  0.90481400  0.43080000  1
  O  O13  1  0.50526000  0.56919500  0.47401200  1
  O  O14  1  0.50526100  0.52598600  0.09518300  1
  O  O15  1  0.00525900  0.09518600  0.56920000  1
  O  O16  1  0.00526000  0.43080500  0.52598800  1
  O  O17  1  0.00526100  0.47401400  0.90481700  1
  O  O18  1  0.50096400  0.90208600  0.12285100  1
  O  O19  1  0.50096900  0.87715000  0.77923200  1
  O  O20  1  0.50095700  0.22077000  0.09791800  1
  O  O21  1  0.00096400  0.09791400  0.87714900  1
  O  O22  1  0.00096900  0.12285000  0.22076800  1
  O  O23  1  0.00095700  0.77923000  0.90208200  1
loop_
_geom_bond_atom_site_label_1
_geom_bond_atom_site_label_2
_geom_bond_distance
_geom_bond_site_symmetry_2
Na0 O17 2.469674 1_655
Na0 O16 2.469721 1_655
Na0 O15 2.469753 1_655
Na0 O1 2.552864 1_555
Na0 O2 2.552915 1_555
Na0 O0 2.552923 1_555
Na1 O14 2.469674 1_555
Na1 O13 2.469721 1_555
Na1 O12 2.469753 1_555
Na1 O4 2.552864 1_555
Na1 O5 2.552915 1_555
Na1 O3 2.552923 1_555
Na2 O20 2.461007 1_555
Na2 O18 2.461055 1_545
Na2 O19 2.461121 1_544
Na3 O23 2.461007 1_655
Na3 O21 2.461055 1_665
Na3 O22 2.461121 1_666
Na4 O8 2.315909 1_555
Na4 O6 2.315935 1_555
Na4 O7 2.315998 1_555
Na5 O11 2.315918 1_555
Na5 O9 2.315935 1_555
Na5 O10 2.315998 1_555
As0 O18 1.715356 1_545
As0 O12 1.718008 1_545
As0 O6 1.723176 1_555
As0 O0 1.735778 1_555
As1 O19 1.715238 1_555
As1 O13 1.718126 1_555
As1 O7 1.723154 1_555
As1 O1 1.735783 1_555
As2 O20 1.715344 1_556
As2 O14 1.718030 1_556
As2 O8 1.723179 1_555
As2 O2 1.735745 1_555
As3 O21 1.715356 1_665
As3 O15 1.718008 1_665
As3 O9 1.723176 1_555
As3 O3 1.735778 1_655
As4 O22 1.715238 1_655
As4 O16 1.718126 1_655
As4 O10 1.723154 1_555
As4 O4 1.735783 1_655
As5 O23 1.715344 1_654
As5 O17 1.718030 1_654
As5 O11 1.723175 1_555
As5 O5 1.735745 1_655
O0 Zn2 2.002862 1_555
O1 Zn0 2.002858 1_556
O2 Zn1 2.002861 1_545
O3 Zn5 2.002862 1_555
O4 Zn3 2.002858 1_554
O5 Zn4 2.002861 1_565
O6 Zn4 1.975302 1_555
O7 Zn5 1.975308 1_555
O8 Zn3 1.975304 1_555
O9 Zn1 1.975302 1_555
O10 Zn2 1.975308 1_555
O11 Zn0 1.975301 1_555
O12 Zn1 1.962132 1_555
O13 Zn2 1.962118 1_555
O14 Zn0 1.962145 1_555
O15 Zn4 1.962132 1_555
O16 Zn5 1.962118 1_555
O17 Zn3 1.962145 1_555
O18 Zn0 1.987511 1_555
O19 Zn1 1.987565 1_555
O20 Zn2 1.987538 1_555
O21 Zn3 1.987511 1_555
O22 Zn4 1.987565 1_555
O23 Zn5 1.987538 1_555
