# generated using pymatgen
data_Li4CoRuO6
_symmetry_space_group_name_H-M   'P 1'
_cell_length_a   5.04587919
_cell_length_b   5.04587919
_cell_length_c   5.09269868
_cell_angle_alpha   80.46133205
_cell_angle_beta   80.46133205
_cell_angle_gamma   119.97754102
_symmetry_Int_Tables_number   1
_chemical_formula_structural   Li4CoRuO6
_chemical_formula_sum   'Li4 Co1 Ru1 O6'
_cell_volume   105.97463421
_cell_formula_units_Z   1
loop_
 _symmetry_equiv_pos_site_id
 _symmetry_equiv_pos_as_xyz
  1  'x, y, z'
loop_
 _atom_site_type_symbol
 _atom_site_label
 _atom_site_symmetry_multiplicity
 _atom_site_fract_x
 _atom_site_fract_y
 _atom_site_fract_z
 _atom_site_occupancy
  Li  Li0  1  0.66967700  0.33032300  0.00000000  1
  Li  Li1  1  0.33856300  0.66143700  0.00000000  1
  Li  Li2  1  0.99256200  0.00743800  0.00000000  1
  Li  Li3  1  0.83314800  0.16685200  0.50000000  1
  Co  Co0  1  0.50018600  0.49981400  0.50000000  1
  Ru  Ru0  1  0.16637500  0.83362500  0.50000000  1
  O  O0  1  0.55926600  0.88778700  0.26944900  1
  O  O1  1  0.26511300  0.24734400  0.27358400  1
  O  O2  1  0.90456700  0.59432600  0.27226500  1
  O  O3  1  0.40567400  0.09543300  0.72773500  1
  O  O4  1  0.11221300  0.44073400  0.73055100  1
  O  O5  1  0.75265600  0.73488700  0.72641600  1
loop_
_geom_bond_atom_site_label_1
_geom_bond_atom_site_label_2
_geom_bond_distance
_geom_bond_site_symmetry_2
Li0 O1 2.072109 1_555
Li0 O5 2.072109 1_554
Li0 O0 2.160436 1_545
Li0 O4 2.160436 1_654
Li0 O2 2.163543 1_555
Li0 O3 2.163543 1_554
Li1 O0 2.045117 1_555
Li1 O4 2.045117 1_554
Li1 O5 2.129456 1_554
Li1 O1 2.129456 1_555
Li1 O3 2.220320 1_564
Li1 O2 2.220320 1_455
Li2 O2 2.092370 1_545
Li2 O3 2.092370 1_654
Li2 O4 2.107048 1_654
Li2 O0 2.107048 1_545
Li2 O5 2.197349 1_544
Li2 O1 2.197349 1_655
Li3 O5 2.091058 1_545
Li3 O1 2.091058 1_655
Li3 O3 2.093592 1_555
Li3 O2 2.093592 1_555
Li3 O4 2.100550 1_655
Li3 O0 2.100550 1_545
Co0 O5 1.946667 1_555
Co0 O1 1.946667 1_555
Co0 O2 1.948319 1_555
Co0 O3 1.948319 1_555
Co0 O4 1.959308 1_555
Co0 O0 1.959308 1_555
O0 Ru0 1.991043 1_555
O1 Ru0 1.976921 1_545
O2 Ru0 1.981450 1_655
O3 Ru0 1.981450 1_545
O4 Ru0 1.991043 1_555
O5 Ru0 1.976921 1_655
