# generated using pymatgen
data_Ca(FeO2)2
_symmetry_space_group_name_H-M   'P 1'
_cell_length_a   6.22785751
_cell_length_b   6.22785751
_cell_length_c   6.22785751
_cell_angle_alpha   60.00000000
_cell_angle_beta   60.00000000
_cell_angle_gamma   60.00000000
_symmetry_Int_Tables_number   1
_chemical_formula_structural   Ca(FeO2)2
_chemical_formula_sum   'Ca2 Fe4 O8'
_cell_volume   170.80516752
_cell_formula_units_Z   2
loop_
 _symmetry_equiv_pos_site_id
 _symmetry_equiv_pos_as_xyz
  1  'x, y, z'
loop_
 _atom_site_type_symbol
 _atom_site_label
 _atom_site_symmetry_multiplicity
 _atom_site_fract_x
 _atom_site_fract_y
 _atom_site_fract_z
 _atom_site_occupancy
  Ca  Ca0  1  0.25000000  0.25000000  0.25000000  1
  Ca  Ca1  1  0.00000000  -0.00000000  0.00000000  1
  Fe  Fe0  1  0.62500000  0.62500000  0.12500000  1
  Fe  Fe1  1  0.62500000  0.12500000  0.62500000  1
  Fe  Fe2  1  0.62500000  0.62500000  0.62500000  1
  Fe  Fe3  1  0.12500000  0.62500000  0.62500000  1
  O  O0  1  0.85724353  0.42826942  0.85724353  1
  O  O1  1  0.85724353  0.85724353  0.85724353  1
  O  O2  1  0.42826942  0.85724353  0.85724353  1
  O  O3  1  0.39275647  0.39275647  0.82173058  1
  O  O4  1  0.82173058  0.39275647  0.39275647  1
  O  O5  1  0.39275647  0.39275647  0.39275647  1
  O  O6  1  0.85724353  0.85724353  0.42826942  1
  O  O7  1  0.39275647  0.82173058  0.39275647  1
loop_
_geom_bond_atom_site_label_1
_geom_bond_atom_site_label_2
_geom_bond_distance
_geom_bond_site_symmetry_2
Ca0 O5 2.177760 1_555
Ca0 O3 2.177760 1_554
Ca0 O7 2.177760 1_545
Ca0 O4 2.177760 1_455
Ca1 O1 2.177760 1_444
Ca1 O0 2.177760 1_454
Ca1 O6 2.177760 1_445
Ca1 O2 2.177760 1_544
Fe0 O7 2.057412 1_555
Fe0 O4 2.057412 1_555
Fe0 O2 2.057412 1_554
Fe0 O0 2.057412 1_554
Fe0 O1 2.057412 1_554
Fe0 O5 2.057412 1_555
Fe1 O2 2.057412 1_545
Fe1 O4 2.057412 1_555
Fe1 O6 2.057412 1_545
Fe1 O3 2.057412 1_555
Fe1 O5 2.057412 1_555
Fe1 O1 2.057412 1_545
Fe2 O6 2.057412 1_555
Fe2 O3 2.057412 1_555
Fe2 O7 2.057412 1_555
Fe2 O0 2.057412 1_555
Fe2 O4 2.057412 1_555
Fe2 O2 2.057412 1_555
Fe3 O7 2.057412 1_555
Fe3 O6 2.057412 1_455
Fe3 O0 2.057412 1_455
Fe3 O3 2.057412 1_555
Fe3 O5 2.057412 1_555
Fe3 O1 2.057412 1_455
