# generated using pymatgen
data_Li7La3(SnO6)2
_symmetry_space_group_name_H-M   'P 1'
_cell_length_a   11.30599355
_cell_length_b   11.30599355
_cell_length_c   11.30599355
_cell_angle_alpha   108.14150783
_cell_angle_beta   108.14150783
_cell_angle_gamma   112.16468886
_symmetry_Int_Tables_number   1
_chemical_formula_structural   Li7La3(SnO6)2
_chemical_formula_sum   'Li28 La12 Sn8 O48'
_cell_volume   1110.65756915
_cell_formula_units_Z   4
loop_
 _symmetry_equiv_pos_site_id
 _symmetry_equiv_pos_as_xyz
  1  'x, y, z'
loop_
 _atom_site_type_symbol
 _atom_site_label
 _atom_site_symmetry_multiplicity
 _atom_site_fract_x
 _atom_site_fract_y
 _atom_site_fract_z
 _atom_site_occupancy
  Li  Li0  1  0.50000000  0.50000000  0.00000000  1
  Li  Li1  1  0.00000000  0.00000000  0.00000000  1
  Li  Li2  1  0.25000000  0.75000000  0.50000000  1
  Li  Li3  1  0.75000000  0.25000000  0.50000000  1
  Li  Li4  1  0.39820100  0.97982100  0.74385700  1
  Li  Li5  1  0.73596400  0.47982100  0.58162000  1
  Li  Li6  1  0.72982100  0.64820100  0.24385700  1
  Li  Li7  1  0.90434400  0.14820100  0.91838000  1
  Li  Li8  1  0.85179900  0.77017900  0.75614300  1
  Li  Li9  1  0.51403600  0.27017900  0.91838000  1
  Li  Li10  1  0.52017900  0.10179900  0.25614300  1
  Li  Li11  1  0.34565600  0.60179900  0.58162000  1
  Li  Li12  1  0.89820100  0.15434400  0.41838000  1
  Li  Li13  1  0.23596400  0.65434400  0.25614300  1
  Li  Li14  1  0.22982100  0.98596400  0.08162000  1
  Li  Li15  1  0.40434400  0.48596400  0.75614300  1
  Li  Li16  1  0.35179900  0.59565600  0.08162000  1
  Li  Li17  1  0.01403600  0.09565600  0.24385700  1
  Li  Li18  1  0.02017900  0.76403600  0.41838000  1
  Li  Li19  1  0.84565600  0.26403600  0.74385700  1
  Li  Li20  1  0.92840300  0.92840300  0.35680600  1
  Li  Li21  1  0.07159700  0.42840300  0.00000000  1
  Li  Li22  1  0.67840300  0.17840300  0.85680600  1
  Li  Li23  1  0.82159700  0.67840300  0.50000000  1
  Li  Li24  1  0.32159700  0.82159700  0.14319400  1
  Li  Li25  1  0.17840300  0.32159700  0.50000000  1
  Li  Li26  1  0.57159700  0.57159700  0.64319400  1
  Li  Li27  1  0.42840300  0.07159700  0.00000000  1
  La  La0  1  0.37500000  0.75211900  0.87711900  1
  La  La1  1  0.37500000  0.25211900  0.37711900  1
  La  La2  1  0.50211900  0.62500000  0.37711900  1
  La  La3  1  0.74788100  0.12500000  0.12288100  1
  La  La4  1  0.87500000  0.99788100  0.62288100  1
  La  La5  1  0.87500000  0.49788100  0.12288100  1
  La  La6  1  0.00211900  0.62500000  0.87711900  1
  La  La7  1  0.24788100  0.12500000  0.62288100  1
  La  La8  1  0.75000000  0.75000000  0.00000000  1
  La  La9  1  0.25000000  0.25000000  0.00000000  1
  La  La10  1  0.50000000  0.00000000  0.50000000  1
  La  La11  1  0.00000000  0.50000000  0.50000000  1
  Sn  Sn0  1  0.62500000  0.87500000  0.75000000  1
  Sn  Sn1  1  0.62500000  0.37500000  0.25000000  1
  Sn  Sn2  1  0.62500000  0.87500000  0.25000000  1
  Sn  Sn3  1  0.12500000  0.37500000  0.25000000  1
  Sn  Sn4  1  0.12500000  0.37500000  0.75000000  1
  Sn  Sn5  1  0.12500000  0.87500000  0.25000000  1
  Sn  Sn6  1  0.12500000  0.87500000  0.75000000  1
  Sn  Sn7  1  0.62500000  0.37500000  0.75000000  1
  O  O0  1  0.52562400  0.95203400  0.12632900  1
  O  O1  1  0.32570400  0.45203400  0.42640900  1
  O  O2  1  0.70203400  0.77562400  0.62632900  1
  O  O3  1  0.64929500  0.27562400  0.07359100  1
  O  O4  1  0.72437600  0.79796600  0.37367100  1
  O  O5  1  0.92429600  0.29796600  0.07359100  1
  O  O6  1  0.54796600  0.97437600  0.87367100  1
  O  O7  1  0.60070500  0.47437600  0.42640900  1
  O  O8  1  0.02562400  0.89929500  0.57359100  1
  O  O9  1  0.82570400  0.39929500  0.87367100  1
  O  O10  1  0.20203400  0.57570400  0.92640900  1
  O  O11  1  0.14929500  0.07570400  0.37367100  1
  O  O12  1  0.22437600  0.85070500  0.92640900  1
  O  O13  1  0.42429600  0.35070500  0.62632900  1
  O  O14  1  0.04796600  0.17429600  0.57359100  1
  O  O15  1  0.10070500  0.67429600  0.12632900  1
  O  O16  1  0.81252100  0.97391200  0.22868100  1
  O  O17  1  0.24523200  0.47391200  0.16139200  1
  O  O18  1  0.72391200  0.06252100  0.72868100  1
  O  O19  1  0.83384000  0.56252100  0.33860800  1
  O  O20  1  0.43747900  0.77608800  0.27131900  1
  O  O21  1  0.00476800  0.27608800  0.33860800  1
  O  O22  1  0.52608800  0.68747900  0.77131900  1
  O  O23  1  0.41616000  0.18747900  0.16139200  1
  O  O24  1  0.31252100  0.08384000  0.83860800  1
  O  O25  1  0.74523200  0.58384000  0.77131900  1
  O  O26  1  0.22391200  0.49523200  0.66139200  1
  O  O27  1  0.33384000  0.99523200  0.27131900  1
  O  O28  1  0.93747900  0.66616000  0.66139200  1
  O  O29  1  0.50476800  0.16616000  0.72868100  1
  O  O30  1  0.02608800  0.25476800  0.83860800  1
  O  O31  1  0.91616000  0.75476800  0.22868100  1
  O  O32  1  0.53715400  0.69411500  0.05162300  1
  O  O33  1  0.14249200  0.19411500  0.15696000  1
  O  O34  1  0.44411500  0.78715400  0.55162300  1
  O  O35  1  0.73553100  0.28715400  0.34304000  1
  O  O36  1  0.71284600  0.05588500  0.44837700  1
  O  O37  1  0.10750800  0.55588500  0.34304000  1
  O  O38  1  0.80588500  0.96284600  0.94837700  1
  O  O39  1  0.51446900  0.46284600  0.15696000  1
  O  O40  1  0.03715400  0.98553100  0.84304000  1
  O  O41  1  0.64249200  0.48553100  0.94837700  1
  O  O42  1  0.94411500  0.39249200  0.65696000  1
  O  O43  1  0.23553100  0.89249200  0.44837700  1
  O  O44  1  0.21284600  0.76446900  0.65696000  1
  O  O45  1  0.60750800  0.26446900  0.55162300  1
  O  O46  1  0.30588500  0.35750800  0.84304000  1
  O  O47  1  0.01446900  0.85750800  0.05162300  1
loop_
_geom_bond_atom_site_label_1
_geom_bond_atom_site_label_2
_geom_bond_distance
_geom_bond_site_symmetry_2
Li0 O39 1.920327 1_555
Li0 O46 1.920335 1_554
Li0 O32 1.920338 1_555
Li0 O41 1.920338 1_554
Li1 O40 1.920327 1_544
Li1 O33 1.920335 1_555
Li1 O38 1.920338 1_444
Li1 O47 1.920338 1_545
Li2 O44 1.920327 1_555
Li2 O37 1.920335 1_555
Li2 O34 1.920338 1_555
Li2 O43 1.920338 1_555
Li3 O35 1.920327 1_555
Li3 O42 1.920335 1_555
Li3 O36 1.920338 1_555
Li3 O45 1.920338 1_555
Li4 O6 1.900601 1_555
Li4 O24 2.047022 1_565
Li4 O29 2.087597 1_565
Li4 O44 2.159468 1_555
Li5 O7 1.900608 1_555
Li5 O25 2.047022 1_555
Li5 O28 2.087597 1_555
Li5 O45 2.159470 1_555
Li6 O4 1.900601 1_555
Li6 O19 2.047022 1_555
Li6 O31 2.087597 1_555
Li6 O39 2.159468 1_555
Li7 O5 1.900602 1_556
Li7 O18 2.047028 1_555
Li7 O30 2.087603 1_655
Li7 O38 2.159470 1_545
Li8 O2 1.900601 1_555
Li8 O28 2.047022 1_555
Li8 O25 2.087597 1_555
Li8 O40 2.159468 1_655
Li9 O3 1.900608 1_556
Li9 O29 2.047022 1_555
Li9 O24 2.087597 1_555
Li9 O41 2.159470 1_555
Li10 O0 1.900601 1_545
Li10 O23 2.047022 1_555
Li10 O27 2.087597 1_545
Li10 O35 2.159468 1_555
Li11 O1 1.900602 1_555
Li11 O22 2.047028 1_555
Li11 O26 2.087603 1_555
Li11 O34 2.159470 1_555
Li12 O14 1.900602 1_655
Li12 O16 2.047028 1_545
Li12 O21 2.087603 1_655
Li12 O36 2.159470 1_555
Li13 O15 1.900608 1_555
Li13 O17 2.047032 1_555
Li13 O20 2.087599 1_555
Li13 O37 2.159480 1_555
Li14 O12 1.900608 1_554
Li14 O27 2.047022 1_555
Li14 O23 2.087597 1_565
Li14 O47 2.159470 1_555
Li15 O13 1.900608 1_555
Li15 O26 2.047032 1_555
Li15 O22 2.087599 1_555
Li15 O46 2.159480 1_555
Li16 O10 1.900602 1_554
Li16 O20 2.047028 1_555
Li16 O17 2.087603 1_555
Li16 O32 2.159470 1_555
Li17 O11 1.900608 1_555
Li17 O21 2.047032 1_555
Li17 O16 2.087599 1_445
Li17 O33 2.159480 1_555
Li18 O8 1.900608 1_555
Li18 O31 2.047022 1_455
Li18 O19 2.087597 1_455
Li18 O43 2.159470 1_555
Li19 O9 1.900608 1_555
Li19 O30 2.047032 1_655
Li19 O18 2.087599 1_555
Li19 O42 2.159480 1_555
Li20 O16 1.967375 1_555
Li20 O31 1.967383 1_555
Li20 O11 2.326878 1_665
Li20 O4 2.326882 1_555
Li20 O8 2.534033 1_655
Li20 O14 2.534035 1_665
Li21 O17 1.967387 1_555
Li21 O30 1.967387 1_554
Li21 O5 2.326884 1_455
Li21 O10 2.326884 1_554
Li21 O9 2.534033 1_454
Li21 O15 2.534033 1_555
Li22 O18 1.967375 1_555
Li22 O29 1.967383 1_555
Li22 O9 2.326878 1_555
Li22 O6 2.326882 1_545
Li22 O3 2.534033 1_556
Li22 O5 2.534035 1_556
Li23 O28 1.967383 1_555
Li23 O19 1.967383 1_555
Li23 O8 2.326878 1_655
Li23 O7 2.326878 1_555
Li23 O4 2.534023 1_555
Li23 O2 2.534023 1_555
Li24 O20 1.967375 1_555
Li24 O27 1.967383 1_555
Li24 O15 2.326878 1_555
Li24 O0 2.326882 1_555
Li24 O12 2.534033 1_554
Li24 O10 2.534035 1_554
Li25 O26 1.967387 1_555
Li25 O21 1.967387 1_555
Li25 O14 2.326884 1_555
Li25 O1 2.326884 1_555
Li25 O11 2.534033 1_555
Li25 O13 2.534033 1_555
Li26 O22 1.967375 1_555
Li26 O25 1.967383 1_555
Li26 O13 2.326878 1_555
Li26 O2 2.326882 1_555
Li26 O7 2.534033 1_555
Li26 O1 2.534035 1_555
Li27 O23 1.967383 1_555
Li27 O24 1.967383 1_554
Li27 O3 2.326878 1_555
Li27 O12 2.326878 1_544
Li27 O6 2.534023 1_544
Li27 O0 2.534023 1_545
La0 O12 2.467662 1_555
La0 O0 2.467666 1_556
La0 O10 2.557483 1_555
La0 O6 2.557485 1_555
La0 O26 2.559848 1_555
La0 O22 2.559859 1_555
La0 O32 2.672835 1_556
La0 O44 2.672843 1_555
La1 O13 2.467662 1_555
La1 O1 2.467673 1_555
La1 O7 2.557489 1_555
La1 O11 2.557489 1_555
La1 O27 2.559849 1_545
La1 O23 2.559849 1_555
La1 O45 2.672835 1_555
La1 O33 2.672841 1_555
La2 O7 2.467662 1_555
La2 O2 2.467666 1_555
La2 O1 2.557483 1_555
La2 O4 2.557485 1_555
La2 O17 2.559848 1_555
La2 O20 2.559859 1_555
La2 O34 2.672835 1_555
La2 O39 2.672843 1_555
La3 O3 2.467662 1_555
La3 O6 2.467666 1_544
La3 O5 2.557483 1_555
La3 O0 2.557485 1_545
La3 O21 2.559848 1_655
La3 O16 2.559859 1_545
La3 O38 2.672835 1_544
La3 O35 2.672843 1_555
La4 O8 2.467662 1_655
La4 O4 2.467666 1_555
La4 O14 2.557483 1_665
La4 O2 2.557485 1_555
La4 O30 2.559848 1_665
La4 O18 2.559859 1_565
La4 O36 2.672835 1_565
La4 O40 2.672843 1_655
La5 O9 2.467662 1_554
La5 O5 2.467673 1_555
La5 O15 2.557489 1_655
La5 O3 2.557489 1_555
La5 O19 2.559849 1_555
La5 O31 2.559849 1_555
La5 O41 2.672835 1_554
La5 O37 2.672841 1_655
La6 O15 2.467662 1_556
La6 O10 2.467673 1_555
La6 O12 2.557489 1_555
La6 O9 2.557489 1_455
La6 O25 2.559849 1_455
La6 O28 2.559849 1_455
La6 O47 2.672835 1_556
La6 O42 2.672841 1_455
La7 O11 2.467662 1_555
La7 O14 2.467673 1_555
La7 O13 2.557489 1_555
La7 O8 2.557489 1_545
La7 O24 2.559849 1_555
La7 O29 2.559849 1_555
La7 O43 2.672835 1_545
La7 O46 2.672841 1_555
La8 O32 2.547119 1_555
La8 O41 2.547119 1_554
La8 O47 2.547119 1_655
La8 O38 2.547119 1_554
La8 O22 2.651191 1_554
La8 O16 2.651191 1_555
La8 O31 2.651197 1_555
La8 O25 2.651197 1_554
La9 O46 2.547109 1_554
La9 O33 2.547109 1_555
La9 O39 2.547119 1_555
La9 O40 2.547119 1_544
La9 O17 2.651189 1_555
La9 O30 2.651189 1_554
La9 O23 2.651197 1_555
La9 O24 2.651197 1_554
La10 O43 2.547119 1_545
La10 O45 2.547119 1_555
La10 O36 2.547119 1_555
La10 O34 2.547119 1_545
La10 O18 2.651191 1_555
La10 O20 2.651191 1_545
La10 O29 2.651197 1_555
La10 O27 2.651197 1_545
La11 O37 2.547109 1_555
La11 O42 2.547109 1_455
La11 O44 2.547119 1_555
La11 O35 2.547119 1_455
La11 O21 2.651189 1_555
La11 O26 2.651189 1_555
La11 O19 2.651197 1_455
La11 O28 2.651197 1_455
O0 Sn2 2.119986 1_555
O1 Sn3 2.119973 1_555
O2 Sn0 2.119986 1_555
O3 Sn1 2.119976 1_555
O4 Sn2 2.119986 1_555
O5 Sn3 2.119973 1_655
O6 Sn0 2.119986 1_555
O7 Sn1 2.119976 1_555
O8 Sn6 2.119976 1_555
O9 Sn7 2.119976 1_555
O10 Sn4 2.119973 1_555
O11 Sn5 2.119976 1_545
O12 Sn6 2.119976 1_555
O13 Sn7 2.119976 1_555
O14 Sn4 2.119973 1_555
O15 Sn5 2.119976 1_555
O16 Sn2 2.121482 1_555
O17 Sn3 2.121479 1_555
O18 Sn0 2.121482 1_545
O19 Sn1 2.121484 1_555
O20 Sn2 2.121482 1_555
O21 Sn3 2.121479 1_555
O22 Sn0 2.121482 1_555
O23 Sn1 2.121484 1_555
O24 Sn6 2.121484 1_545
O25 Sn7 2.121484 1_555
O26 Sn4 2.121479 1_555
O27 Sn5 2.121484 1_555
O28 Sn6 2.121484 1_655
O29 Sn7 2.121484 1_555
O30 Sn4 2.121479 1_555
O31 Sn5 2.121484 1_655
O32 Sn2 2.103107 1_555
O33 Sn3 2.103109 1_555
O34 Sn0 2.103107 1_555
O35 Sn1 2.103112 1_555
O36 Sn2 2.103107 1_545
O37 Sn3 2.103109 1_555
O38 Sn0 2.103107 1_555
O39 Sn1 2.103112 1_555
O40 Sn6 2.103112 1_555
O41 Sn7 2.103107 1_555
O42 Sn4 2.103109 1_655
O43 Sn5 2.103107 1_555
O44 Sn6 2.103112 1_555
O45 Sn7 2.103107 1_555
O46 Sn4 2.103109 1_555
O47 Sn5 2.103107 1_555
