# generated using pymatgen
data_NaLi4(H2N)5
_symmetry_space_group_name_H-M   'P 1'
_cell_length_a   6.73228400
_cell_length_b   9.88368247
_cell_length_c   11.44593154
_cell_angle_alpha   83.34263474
_cell_angle_beta   80.20335412
_cell_angle_gamma   84.81921264
_symmetry_Int_Tables_number   1
_chemical_formula_structural   NaLi4(H2N)5
_chemical_formula_sum   'Na4 Li16 H40 N20'
_cell_volume   743.50285575
_cell_formula_units_Z   4
loop_
 _symmetry_equiv_pos_site_id
 _symmetry_equiv_pos_as_xyz
  1  'x, y, z'
loop_
 _atom_site_type_symbol
 _atom_site_label
 _atom_site_symmetry_multiplicity
 _atom_site_fract_x
 _atom_site_fract_y
 _atom_site_fract_z
 _atom_site_occupancy
  Na  Na0  1  0.84973300  0.64999200  0.94965800  1
  Na  Na1  1  0.04981200  0.45008400  0.35020600  1
  Na  Na2  1  0.25012300  0.24977600  0.74986100  1
  Na  Na3  1  0.45001200  0.04986700  0.15028100  1
  Li  Li0  1  0.91193600  0.10517600  0.79797500  1
  Li  Li1  1  0.32079700  0.70820400  0.59808100  1
  Li  Li2  1  0.71176600  0.30458900  0.39790200  1
  Li  Li3  1  0.11176700  0.90533400  0.19863400  1
  Li  Li4  1  0.51202000  0.50498500  0.99794000  1
  Li  Li5  1  0.58832300  0.39457700  0.70175900  1
  Li  Li6  1  0.98007400  0.99157300  0.50293900  1
  Li  Li7  1  0.38900000  0.59460900  0.30179000  1
  Li  Li8  1  0.78826000  0.19455000  0.10160100  1
  Li  Li9  1  0.18744400  0.79605400  0.90153200  1
  Li  Li10  1  0.40324700  0.60179400  0.79801200  1
  Li  Li11  1  0.79833700  0.19672300  0.60024400  1
  Li  Li12  1  0.19813100  0.80155900  0.40211500  1
  Li  Li13  1  0.60021600  0.39970700  0.19974300  1
  Li  Li14  1  0.99962800  0.00022800  0.00000400  1
  Li  Li15  1  0.65080400  0.85044900  0.55004500  1
  H  H0  1  0.78798900  0.43542000  0.82593900  1
  H  H1  1  0.18742700  0.03571000  0.62533600  1
  H  H2  1  0.58869500  0.64053300  0.42837900  1
  H  H3  1  0.98791700  0.23519700  0.22580200  1
  H  H4  1  0.38873000  0.83552200  0.02612000  1
  H  H5  1  0.92487600  0.29853300  0.92926500  1
  H  H6  1  0.33256100  0.89866100  0.72622400  1
  H  H7  1  0.72508200  0.49728700  0.52887500  1
  H  H8  1  0.12408700  0.09812700  0.33028200  1
  H  H9  1  0.52523900  0.69885900  0.12902400  1
  H  H10  1  0.39478800  0.38114800  0.45436000  1
  H  H11  1  0.79449200  0.98110300  0.25382200  1
  H  H12  1  0.19626700  0.58245000  0.05277400  1
  H  H13  1  0.59512300  0.18118300  0.85408900  1
  H  H14  1  0.98904200  0.78121100  0.65154300  1
  H  H15  1  0.29179000  0.48526200  0.59078800  1
  H  H16  1  0.68893200  0.07977600  0.39408900  1
  H  H17  1  0.09369400  0.68476800  0.19136500  1
  H  H18  1  0.49216300  0.28466000  0.99090000  1
  H  H19  1  0.89118800  0.88451400  0.79073800  1
  H  H20  1  0.35771400  0.98804900  0.96352400  1
  H  H21  1  0.56124600  0.79321100  0.36535500  1
  H  H22  1  0.75603200  0.58796900  0.76331900  1
  H  H23  1  0.95646700  0.38786600  0.16397800  1
  H  H24  1  0.15635800  0.18806600  0.56347400  1
  H  H25  1  0.53547100  0.82083100  0.76379300  1
  H  H26  1  0.72648300  0.61947400  0.16726500  1
  H  H27  1  0.92502000  0.41700900  0.56723400  1
  H  H28  1  0.12606900  0.21913800  0.96736400  1
  H  H29  1  0.32521800  0.01829500  0.36818800  1
  H  H30  1  0.56153400  0.09460000  0.74963900  1
  H  H31  1  0.76042000  0.89465800  0.14979100  1
  H  H32  1  0.95051100  0.69290900  0.54962600  1
  H  H33  1  0.16162000  0.49580500  0.94890300  1
  H  H34  1  0.35996700  0.29503700  0.35006200  1
  H  H35  1  0.75770400  0.89841700  0.91919300  1
  H  H36  1  0.95925900  0.69943600  0.31980400  1
  H  H37  1  0.15612000  0.49836200  0.71889500  1
  H  H38  1  0.35645100  0.29814400  0.11900400  1
  H  H39  1  0.55031300  0.09280900  0.52159600  1
  N  N0  1  0.68468700  0.51841300  0.82713200  1
  N  N1  1  0.08378800  0.11856600  0.62677800  1
  N  N2  1  0.49356500  0.72788800  0.43377600  1
  N  N3  1  0.88431600  0.31804900  0.22716800  1
  N  N4  1  0.28428800  0.91785000  0.02575500  1
  N  N5  1  0.99947000  0.20324800  0.93283700  1
  N  N6  1  0.41674500  0.80672500  0.72206500  1
  N  N7  1  0.79877600  0.40160500  0.53214600  1
  N  N8  1  0.19993500  0.00325800  0.33202400  1
  N  N9  1  0.59886800  0.60329700  0.13386800  1
  N  N10  1  0.41260100  0.38587200  0.36316200  1
  N  N11  1  0.81144400  0.98609500  0.16261700  1
  N  N12  1  0.21176300  0.58760000  0.96156300  1
  N  N13  1  0.61038200  0.18655400  0.76296500  1
  N  N14  1  0.98625500  0.78855600  0.56146100  1
  N  N15  1  0.30465400  0.49360000  0.67769800  1
  N  N16  1  0.69853200  0.07732000  0.48302300  1
  N  N17  1  0.10755200  0.69136500  0.27846200  1
  N  N18  1  0.50500400  0.29235100  0.07792800  1
  N  N19  1  0.90588700  0.89194900  0.87752900  1
loop_
_geom_bond_atom_site_label_1
_geom_bond_atom_site_label_2
_geom_bond_distance
_geom_bond_site_symmetry_2
Li0 N1 2.095655 1_655
Li0 N5 2.104581 1_555
Li0 N19 2.197761 1_545
Li0 N13 2.199140 1_555
Li1 N6 2.031075 1_555
Li1 N2 2.034479 1_555
Li2 N7 2.091150 1_555
Li2 N3 2.093126 1_555
Li2 N10 2.183169 1_555
Li2 N16 2.345636 1_555
Li3 N8 2.091619 1_565
Li3 N4 2.113499 1_555
Li3 N11 2.193376 1_455
Li3 N17 2.205002 1_555
Li4 N0 2.094146 1_555
Li4 N9 2.114072 1_556
Li4 N18 2.194145 1_556
Li4 N12 2.199028 1_555
Li5 N13 2.094374 1_555
Li5 N15 2.111815 1_555
Li5 N7 2.198101 1_555
Li5 N0 2.201285 1_555
Li6 N14 2.039472 1_555
Li6 N16 2.043275 1_565
Li6 N1 2.231527 1_665
Li6 N8 2.241509 1_665
Li7 N17 2.088482 1_555
Li7 N10 2.101855 1_555
Li7 N9 2.181128 1_555
Li7 N2 2.346022 1_555
Li8 N11 2.098177 1_545
Li8 N18 2.103926 1_555
Li8 N5 2.193045 1_554
Li8 N3 2.199853 1_555
Li9 N19 2.087867 1_455
Li9 N12 2.095915 1_555
Li9 N4 2.179431 1_556
Li9 N6 2.348157 1_555
Li10 N0 2.061430 1_555
Li10 N15 2.064268 1_555
Li10 N12 2.082407 1_555
Li10 N6 2.112952 1_555
Li11 N13 2.063418 1_555
Li11 N1 2.063530 1_655
Li11 N7 2.083855 1_555
Li11 N16 2.112226 1_555
Li12 N8 2.061105 1_565
Li12 N17 2.081405 1_555
Li12 N14 2.114491 1_455
Li12 N2 2.130721 1_555
Li13 N18 2.061742 1_555
Li13 N9 2.065156 1_555
Li13 N3 2.067585 1_555
Li13 N10 2.068977 1_555
Li14 N11 2.063510 1_545
Li14 N5 2.063888 1_554
Li14 N4 2.068142 1_645
Li14 N19 2.068729 1_544
Li15 N14 2.307343 1_555
Li15 N16 2.316708 1_565
Li15 N6 2.327299 1_555
Li15 N2 2.333192 1_555
H0 N0 1.026179 1_555
H0 Li5 2.207107 1_555
H1 N1 1.026525 1_555
H1 Li6 2.240281 1_445
H2 N2 1.028817 1_555
H2 Li7 2.244644 1_555
H3 N3 1.026348 1_555
H3 Li8 2.206643 1_555
H4 N4 1.026359 1_555
H4 Li9 2.214523 1_554
H5 N5 1.026370 1_555
H5 Li8 2.208250 1_556
H6 N6 1.028100 1_555
H6 Li9 2.247049 1_555
H7 N7 1.027256 1_555
H7 Li5 2.208388 1_555
H8 N8 1.026157 1_555
H8 Li6 2.237045 1_445
H9 N9 1.026416 1_555
H9 Li7 2.212313 1_555
H10 N10 1.026298 1_555
H10 Li2 2.212811 1_555
H11 N11 1.026534 1_555
H11 Li3 2.209957 1_655
H12 N12 1.027119 1_554
H12 Li4 2.205073 1_554
H13 N13 1.026111 1_555
H13 Li0 2.209603 1_555
H14 N14 1.028453 1_555
H15 N15 1.026385 1_555
H16 N16 1.028265 1_555
H16 Li2 2.247040 1_555
H17 N17 1.026936 1_555
H17 Li3 2.206252 1_555
H18 N18 1.026425 1_556
H18 Li4 2.205296 1_555
H19 N19 1.026517 1_555
H19 Li0 2.209926 1_565
H20 N4 1.029873 1_556
H20 Na3 2.480360 1_566
H21 N2 1.025781 1_555
H22 N0 1.029865 1_555
H22 Na0 2.480626 1_555
H23 N3 1.029799 1_555
H23 Na1 2.479143 1_655
H24 N1 1.029704 1_555
H24 Na2 2.480178 1_555
H25 N6 1.025626 1_555
H26 N9 1.029830 1_555
H26 Na0 2.480089 1_554
H27 N7 1.029818 1_555
H27 Na1 2.476791 1_655
H28 N5 1.029780 1_455
H28 Na2 2.479973 1_555
H29 N8 1.029820 1_555
H29 Na3 2.485518 1_555
H30 N13 1.029854 1_555
H30 Na2 2.483145 1_555
H31 N11 1.029696 1_555
H31 Na3 2.477787 1_565
H32 N14 1.025574 1_555
H33 N12 1.029826 1_555
H33 Na0 2.479968 1_455
H34 N10 1.029955 1_555
H34 Na1 2.475855 1_555
H35 N19 1.029749 1_555
H35 Na0 2.476789 1_555
H36 N17 1.029848 1_655
H36 Na1 2.483664 1_655
H37 N15 1.029900 1_555
H37 Na2 2.481193 1_555
H38 N18 1.029764 1_555
H38 Na3 2.477982 1_555
H39 N16 1.025784 1_555
N0 Na0 2.471197 1_555
N1 Na2 2.478554 1_555
N3 Na1 2.479979 1_655
N4 Na3 2.492817 1_565
N5 Na2 2.481815 1_655
N7 Na1 2.477848 1_655
N8 Na3 2.469827 1_555
N9 Na0 2.492846 1_554
N10 Na1 2.492304 1_555
N11 Na3 2.481388 1_565
N12 Na0 2.482200 1_455
N13 Na2 2.474614 1_555
N15 Na2 2.493910 1_555
N17 Na1 2.473292 1_555
N18 Na3 2.482431 1_555
N19 Na0 2.478450 1_555
