# generated using pymatgen
data_Na3Ag
_symmetry_space_group_name_H-M   'P 1'
_cell_length_a   6.79795582
_cell_length_b   6.79795582
_cell_length_c   5.36884717
_cell_angle_alpha   90.00000000
_cell_angle_beta   90.00000000
_cell_angle_gamma   119.99998539
_symmetry_Int_Tables_number   1
_chemical_formula_structural   Na3Ag
_chemical_formula_sum   'Na6 Ag2'
_cell_volume   214.86635304
_cell_formula_units_Z   2
loop_
 _symmetry_equiv_pos_site_id
 _symmetry_equiv_pos_as_xyz
  1  'x, y, z'
loop_
 _atom_site_type_symbol
 _atom_site_label
 _atom_site_symmetry_multiplicity
 _atom_site_fract_x
 _atom_site_fract_y
 _atom_site_fract_z
 _atom_site_occupancy
  Na  Na0  1  0.17699621  0.35399041  0.25000000  1
  Na  Na1  1  0.64600959  0.82300379  0.25000000  1
  Na  Na2  1  0.17699621  0.82300379  0.25000000  1
  Na  Na3  1  0.82300379  0.64600959  0.75000000  1
  Na  Na4  1  0.35399041  0.17699621  0.75000000  1
  Na  Na5  1  0.82300379  0.17699621  0.75000000  1
  Ag  Ag0  1  0.33333300  0.66666700  0.75000000  1
  Ag  Ag1  1  0.66666700  0.33333300  0.25000000  1
loop_
_geom_bond_atom_site_label_1
_geom_bond_atom_site_label_2
_geom_bond_distance
_geom_bond_site_symmetry_2
Na0 Na2 3.188332 1_555
Na0 Na1 3.188333 1_555
Na0 Na4 3.398410 1_554
Na0 Na4 3.398410 1_555
Na0 Na5 3.398425 1_455
Na0 Na5 3.398425 1_454
Na0 Na2 3.609624 1_545
Na0 Na1 3.609624 1_445
Na1 Na2 3.188332 1_555
Na1 Na3 3.398410 1_554
Na1 Na3 3.398410 1_555
Na1 Na5 3.398425 1_564
Na1 Na5 3.398425 1_565
Na1 Na2 3.609624 1_655
Na2 Na4 3.398425 1_564
Na2 Na4 3.398425 1_565
Na2 Na3 3.398425 1_455
Na2 Na3 3.398425 1_454
Na3 Na5 3.188332 1_555
Na3 Na4 3.188333 1_555
Na3 Na5 3.609624 1_565
Na3 Na4 3.609624 1_665
Na4 Na5 3.188332 1_555
Na4 Na5 3.609624 1_455
Ag0 Na2 3.254931 1_556
Ag0 Na2 3.254931 1_555
Ag0 Na0 3.254941 1_556
Ag0 Na1 3.254941 1_556
Ag0 Na1 3.254941 1_555
Ag0 Na0 3.254941 1_555
Ag0 Na3 3.401149 1_555
Ag0 Na4 3.401149 1_555
Ag0 Na5 3.401154 1_565
Ag0 Na5 3.401154 1_455
Ag0 Na3 3.401156 1_455
Ag0 Na4 3.401156 1_565
Ag1 Na5 3.254931 1_555
Ag1 Na5 3.254931 1_554
Ag1 Na4 3.254941 1_555
Ag1 Na4 3.254941 1_554
Ag1 Na3 3.254941 1_554
Ag1 Na3 3.254941 1_555
Ag1 Na1 3.401149 1_555
Ag1 Na0 3.401149 1_555
Ag1 Na2 3.401154 1_655
Ag1 Na2 3.401154 1_545
Ag1 Na1 3.401156 1_545
Ag1 Na0 3.401156 1_655
