# generated using pymatgen
data_SrNd(CoO3)2
_symmetry_space_group_name_H-M   'P 1'
_cell_length_a   5.43257814
_cell_length_b   5.43257814
_cell_length_c   5.43257814
_cell_angle_alpha   120.03760472
_cell_angle_beta   119.28484216
_cell_angle_gamma   90.58901027
_symmetry_Int_Tables_number   1
_chemical_formula_structural   SrNd(CoO3)2
_chemical_formula_sum   'Sr1 Nd1 Co2 O6'
_cell_volume   113.93919408
_cell_formula_units_Z   1
loop_
 _symmetry_equiv_pos_site_id
 _symmetry_equiv_pos_as_xyz
  1  'x, y, z'
loop_
 _atom_site_type_symbol
 _atom_site_label
 _atom_site_symmetry_multiplicity
 _atom_site_fract_x
 _atom_site_fract_y
 _atom_site_fract_z
 _atom_site_occupancy
  Sr  Sr0  1  0.99919200  0.00000000  0.99919200  1
  Nd  Nd0  1  0.50934200  0.50000000  0.00934200  1
  Co  Co0  1  0.75172200  0.25056100  0.50116100  1
  Co  Co1  1  0.25060000  0.74943900  0.50116100  1
  O  O0  1  0.45216200  0.00000000  0.45216200  1
  O  O1  1  0.06929300  0.50000000  0.56929300  1
  O  O2  1  0.52337400  0.52326300  0.48373300  1
  O  O3  1  0.96047100  0.47673700  0.00011100  1
  O  O4  1  0.52337400  0.03964000  0.00011100  1
  O  O5  1  0.96047100  0.96036000  0.48373300  1
loop_
_geom_bond_atom_site_label_1
_geom_bond_atom_site_label_2
_geom_bond_distance
_geom_bond_site_symmetry_2
Nd0 O1 2.416395 1_554
Nd0 O2 2.478933 1_555
Nd0 O5 2.478938 1_555
Nd0 O3 2.478938 1_555
Nd0 O4 2.478938 1_555
Nd0 O0 2.732842 1_565
Nd0 O0 2.732842 1_554
Nd0 O5 2.957895 1_444
Nd0 O3 2.957896 1_455
Nd0 O4 2.957896 1_565
Nd0 O2 2.957901 1_554
Nd0 O1 3.074801 1_655
Co0 O0 1.933905 1_555
Co0 O5 1.942386 1_545
Co0 O3 1.942387 1_556
Co0 O1 1.942882 1_655
Co0 O4 1.950877 1_555
Co0 O2 1.950878 1_555
Co1 O0 1.933905 1_565
Co1 O4 1.942387 1_566
Co1 O2 1.942387 1_555
Co1 O1 1.942882 1_555
Co1 O5 1.950877 1_455
Co1 O3 1.950877 1_455
O0 Sr0 2.487347 1_454
O0 Sr0 3.003849 1_555
O1 Sr0 2.741900 1_465
O1 Sr0 2.741900 1_454
O2 Sr0 2.598307 1_565
O2 Sr0 2.850960 1_454
O3 Sr0 2.598307 1_554
O3 Sr0 2.850960 1_564
O4 Sr0 2.598307 1_554
O4 Sr0 2.850960 1_454
O5 Sr0 2.598312 1_565
O5 Sr0 2.850954 1_564
