# generated using pymatgen
data_Cs7LiAu5O2
_symmetry_space_group_name_H-M   'P 1'
_cell_length_a   5.97147771
_cell_length_b   10.33391587
_cell_length_c   10.80351527
_cell_angle_alpha   118.57563324
_cell_angle_beta   105.98975446
_cell_angle_gamma   89.99598372
_symmetry_Int_Tables_number   1
_chemical_formula_structural   Cs7LiAu5O2
_chemical_formula_sum   'Cs7 Li1 Au5 O2'
_cell_volume   555.92110358
_cell_formula_units_Z   1
loop_
 _symmetry_equiv_pos_site_id
 _symmetry_equiv_pos_as_xyz
  1  'x, y, z'
loop_
 _atom_site_type_symbol
 _atom_site_label
 _atom_site_symmetry_multiplicity
 _atom_site_fract_x
 _atom_site_fract_y
 _atom_site_fract_z
 _atom_site_occupancy
  Cs  Cs0  1  0.82664800  0.61432300  0.65406500  1
  Cs  Cs1  1  0.50280400  0.78525800  0.00527300  1
  Cs  Cs2  1  0.82659800  0.03973600  0.65409100  1
  Cs  Cs3  1  0.15396100  0.34513400  0.30940900  1
  Cs  Cs4  1  0.15401800  0.96429800  0.30938700  1
  Cs  Cs5  1  0.50278200  0.22001900  0.00531800  1
  Cs  Cs6  1  0.97943500  0.47904400  0.95808600  1
  Li  Li0  1  0.20021900  0.69299300  0.38593800  1
  Au  Au0  1  0.64972700  0.65179500  0.30355700  1
  Au  Au1  1  0.33093200  0.83210800  0.66424900  1
  Au  Au2  1  0.98952400  0.98910200  0.97837000  1
  Au  Au3  1  0.35119500  0.35110300  0.70220800  1
  Au  Au4  1  0.69595900  0.19701200  0.39403000  1
  O  O0  1  0.99102500  0.79199300  0.98174400  1
  O  O1  1  0.99100700  0.18983000  0.98177500  1
loop_
_geom_bond_atom_site_label_1
_geom_bond_atom_site_label_2
_geom_bond_distance
_geom_bond_site_symmetry_2
Cs0 O0 2.955450 1_555
Cs1 O0 2.999043 1_554
Cs1 O0 2.999662 1_454
Cs2 O1 2.955466 1_555
Cs3 O1 2.952900 1_454
Cs4 O0 2.952965 1_454
Cs5 O1 2.999036 1_554
Cs5 O1 2.999578 1_454
Cs6 O1 3.118433 1_555
Cs6 O0 3.119031 1_555
Au0 Li0 3.021913 1_555
Au0 Li0 3.131334 1_655
Au1 Li0 2.507697 1_555
Au2 O0 2.054568 1_555
Au2 O1 2.056941 1_565
Au3 Cs6 3.768581 1_455
Au3 Cs6 3.775520 1_555
Au3 Cs1 3.997941 1_556
Au3 Cs5 3.998499 1_556
Au3 Cs4 4.048959 1_545
Au3 Cs3 4.049102 1_555
Au3 Cs2 4.230153 1_555
Au3 Cs0 4.230636 1_555
Au3 Cs0 4.235035 1_455
Au3 Cs2 4.235669 1_455
Au4 Cs4 3.655050 1_545
Au4 Cs3 3.655370 1_555
Au4 Cs4 3.657139 1_645
Au4 Cs3 3.657246 1_655
Au4 Cs0 3.781726 1_555
Au4 Cs2 3.782119 1_555
Au4 Cs5 4.160393 1_555
Au4 Cs1 4.160655 1_545
