# generated using pymatgen
data_NaSm3GeS7
_symmetry_space_group_name_H-M   'P 1'
_cell_length_a   10.14977972
_cell_length_b   10.14977972
_cell_length_c   5.87283400
_cell_angle_alpha   90.00000000
_cell_angle_beta   90.00000000
_cell_angle_gamma   119.99999818
_symmetry_Int_Tables_number   1
_chemical_formula_structural   NaSm3GeS7
_chemical_formula_sum   'Na2 Sm6 Ge2 S14'
_cell_volume   523.95211628
_cell_formula_units_Z   2
loop_
 _symmetry_equiv_pos_site_id
 _symmetry_equiv_pos_as_xyz
  1  'x, y, z'
loop_
 _atom_site_type_symbol
 _atom_site_label
 _atom_site_symmetry_multiplicity
 _atom_site_fract_x
 _atom_site_fract_y
 _atom_site_fract_z
 _atom_site_occupancy
  Na  Na0  1  0.00000000  0.00000000  0.47590700  1
  Na  Na1  1  0.00000000  0.00000000  0.97590700  1
  Sm  Sm0  1  0.77188900  0.13321900  0.75352900  1
  Sm  Sm1  1  0.36133000  0.22811100  0.75352900  1
  Sm  Sm2  1  0.86678100  0.63867000  0.75352900  1
  Sm  Sm3  1  0.22811100  0.86678100  0.25352900  1
  Sm  Sm4  1  0.63867000  0.77188900  0.25352900  1
  Sm  Sm5  1  0.13321900  0.36133000  0.25352900  1
  Ge  Ge0  1  0.66666700  0.33333300  0.33529500  1
  Ge  Ge1  1  0.33333300  0.66666700  0.83529500  1
  S  S0  1  0.66666700  0.33333300  0.95834100  1
  S  S1  1  0.33333300  0.66666700  0.45834100  1
  S  S2  1  0.73991900  0.83757400  0.71998300  1
  S  S3  1  0.09765500  0.26008100  0.71998300  1
  S  S4  1  0.16242600  0.90234500  0.71998300  1
  S  S5  1  0.26008100  0.16242600  0.21998300  1
  S  S6  1  0.90234500  0.73991900  0.21998300  1
  S  S7  1  0.83757400  0.09765500  0.21998300  1
  S  S8  1  0.58241500  0.47953800  0.49281600  1
  S  S9  1  0.89712300  0.41758500  0.49281600  1
  S  S10  1  0.52046200  0.10287700  0.49281600  1
  S  S11  1  0.41758500  0.52046200  0.99281600  1
  S  S12  1  0.10287700  0.58241500  0.99281600  1
  S  S13  1  0.47953800  0.89712300  0.99281600  1
loop_
_geom_bond_atom_site_label_1
_geom_bond_atom_site_label_2
_geom_bond_distance
_geom_bond_site_symmetry_2
Na0 S4 2.718272 1_545
Na0 S3 2.718272 1_555
Na0 S2 2.718272 1_445
Na0 S7 2.755598 1_455
Na0 S6 2.755598 1_445
Na0 S5 2.755598 1_555
Na1 S7 2.718272 1_456
Na1 S6 2.718272 1_446
Na1 S5 2.718272 1_556
Na1 S4 2.755598 1_545
Na1 S3 2.755598 1_555
Na1 S2 2.755598 1_445
Ge0 S0 2.213788 1_554
Ge0 S9 2.249024 1_555
Ge0 S10 2.249026 1_555
Ge0 S8 2.249033 1_555
Ge1 S1 2.213788 1_555
Ge1 S12 2.249024 1_555
Ge1 S13 2.249026 1_555
Ge1 S11 2.249033 1_555
S0 Sm0 2.980265 1_555
S0 Sm2 2.980273 1_555
S0 Sm1 2.980274 1_555
S1 Sm3 2.980265 1_555
S1 Sm5 2.980273 1_555
S1 Sm4 2.980274 1_555
S2 Sm0 2.859160 1_565
S2 Sm4 2.884402 1_555
S2 Sm2 2.893433 1_555
S2 Sm4 3.260949 1_556
S3 Sm1 2.859160 1_555
S3 Sm5 2.884402 1_555
S3 Sm0 2.893433 1_455
S3 Sm5 3.260949 1_556
S4 Sm2 2.859160 1_455
S4 Sm3 2.884402 1_555
S4 Sm1 2.893433 1_565
S4 Sm3 3.260949 1_556
S5 Sm3 2.859160 1_545
S5 Sm1 2.884402 1_554
S5 Sm5 2.893433 1_555
S5 Sm1 3.260949 1_555
S6 Sm4 2.859160 1_555
S6 Sm2 2.884402 1_554
S6 Sm3 2.893433 1_655
S6 Sm2 3.260949 1_555
S7 Sm5 2.859160 1_655
S7 Sm0 2.884402 1_554
S7 Sm4 2.893433 1_545
S7 Sm0 3.260949 1_555
S8 Sm1 2.857555 1_555
S8 Sm2 2.936286 1_555
S8 Sm4 3.067811 1_555
S9 Sm2 2.857555 1_555
S9 Sm0 2.936286 1_555
S9 Sm5 3.067811 1_655
S10 Sm0 2.857555 1_555
S10 Sm1 2.936286 1_555
S10 Sm3 3.067811 1_545
S11 Sm4 2.857555 1_556
S11 Sm5 2.936286 1_556
S11 Sm1 3.067811 1_555
S12 Sm5 2.857555 1_556
S12 Sm3 2.936286 1_556
S12 Sm2 3.067811 1_455
S13 Sm3 2.857555 1_556
S13 Sm4 2.936286 1_556
S13 Sm0 3.067811 1_565
