# generated using pymatgen
data_Zr18Co5Sn4
_symmetry_space_group_name_H-M   'P 1'
_cell_length_a   6.69888200
_cell_length_b   16.02634200
_cell_length_c   42.39716819
_cell_angle_alpha   79.11622991
_cell_angle_beta   90.00000000
_cell_angle_gamma   90.00000000
_symmetry_Int_Tables_number   1
_chemical_formula_structural   Zr18Co5Sn4
_chemical_formula_sum   'Zr144 Co40 Sn32'
_cell_volume   4469.82462673
_cell_formula_units_Z   8
loop_
 _symmetry_equiv_pos_site_id
 _symmetry_equiv_pos_as_xyz
  1  'x, y, z'
loop_
 _atom_site_type_symbol
 _atom_site_label
 _atom_site_symmetry_multiplicity
 _atom_site_fract_x
 _atom_site_fract_y
 _atom_site_fract_z
 _atom_site_occupancy
  Zr  Zr0_0  1  0.00000000  0.37867450  0.00034500  1
  Zr  Zr0_1  1  0.00000000  0.37867450  0.50034500  1
  Zr  Zr0_2  1  0.00000000  0.87867450  0.00034500  1
  Zr  Zr0_3  1  0.00000000  0.87867450  0.50034500  1
  Zr  Zr0_4  1  0.50000000  0.37867450  0.00034500  1
  Zr  Zr0_5  1  0.50000000  0.37867450  0.50034500  1
  Zr  Zr0_6  1  0.50000000  0.87867450  0.00034500  1
  Zr  Zr0_7  1  0.50000000  0.87867450  0.50034500  1
  Zr  Zr1_0  1  0.00000000  0.21115050  0.33229400  1
  Zr  Zr1_1  1  0.00000000  0.21115050  0.83229400  1
  Zr  Zr1_2  1  0.00000000  0.71115050  0.33229400  1
  Zr  Zr1_3  1  0.00000000  0.71115050  0.83229400  1
  Zr  Zr1_4  1  0.50000000  0.21115050  0.33229400  1
  Zr  Zr1_5  1  0.50000000  0.21115050  0.83229400  1
  Zr  Zr1_6  1  0.50000000  0.71115050  0.33229400  1
  Zr  Zr1_7  1  0.50000000  0.71115050  0.83229400  1
  Zr  Zr2_0  1  0.00000000  0.04450900  0.16575800  1
  Zr  Zr2_1  1  0.00000000  0.04450900  0.66575800  1
  Zr  Zr2_2  1  0.00000000  0.54450900  0.16575800  1
  Zr  Zr2_3  1  0.00000000  0.54450900  0.66575800  1
  Zr  Zr2_4  1  0.50000000  0.04450900  0.16575800  1
  Zr  Zr2_5  1  0.50000000  0.04450900  0.66575800  1
  Zr  Zr2_6  1  0.50000000  0.54450900  0.16575800  1
  Zr  Zr2_7  1  0.50000000  0.54450900  0.66575800  1
  Zr  Zr3_0  1  0.00000000  0.37312600  0.37400200  1
  Zr  Zr3_1  1  0.00000000  0.37312600  0.87400200  1
  Zr  Zr3_2  1  0.00000000  0.87312600  0.37400200  1
  Zr  Zr3_3  1  0.00000000  0.87312600  0.87400200  1
  Zr  Zr3_4  1  0.50000000  0.37312600  0.37400200  1
  Zr  Zr3_5  1  0.50000000  0.37312600  0.87400200  1
  Zr  Zr3_6  1  0.50000000  0.87312600  0.37400200  1
  Zr  Zr3_7  1  0.50000000  0.87312600  0.87400200  1
  Zr  Zr4_0  1  0.00000000  0.20622600  0.20715200  1
  Zr  Zr4_1  1  0.00000000  0.20622600  0.70715200  1
  Zr  Zr4_2  1  0.00000000  0.70622600  0.20715200  1
  Zr  Zr4_3  1  0.00000000  0.70622600  0.70715200  1
  Zr  Zr4_4  1  0.50000000  0.20622600  0.20715200  1
  Zr  Zr4_5  1  0.50000000  0.20622600  0.70715200  1
  Zr  Zr4_6  1  0.50000000  0.70622600  0.20715200  1
  Zr  Zr4_7  1  0.50000000  0.70622600  0.70715200  1
  Zr  Zr5_0  1  0.00000000  0.03873650  0.04169650  1
  Zr  Zr5_1  1  0.00000000  0.03873650  0.54169650  1
  Zr  Zr5_2  1  0.00000000  0.53873650  0.04169650  1
  Zr  Zr5_3  1  0.00000000  0.53873650  0.54169650  1
  Zr  Zr5_4  1  0.50000000  0.03873650  0.04169650  1
  Zr  Zr5_5  1  0.50000000  0.03873650  0.54169650  1
  Zr  Zr5_6  1  0.50000000  0.53873650  0.04169650  1
  Zr  Zr5_7  1  0.50000000  0.53873650  0.54169650  1
  Zr  Zr6_0  1  0.00000000  0.08146850  0.46023350  1
  Zr  Zr6_1  1  0.00000000  0.08146850  0.96023350  1
  Zr  Zr6_2  1  0.00000000  0.58146850  0.46023350  1
  Zr  Zr6_3  1  0.00000000  0.58146850  0.96023350  1
  Zr  Zr6_4  1  0.50000000  0.08146850  0.46023350  1
  Zr  Zr6_5  1  0.50000000  0.08146850  0.96023350  1
  Zr  Zr6_6  1  0.50000000  0.58146850  0.46023350  1
  Zr  Zr6_7  1  0.50000000  0.58146850  0.96023350  1
  Zr  Zr7_0  1  0.00000000  0.41557700  0.29238000  1
  Zr  Zr7_1  1  0.00000000  0.41557700  0.79238000  1
  Zr  Zr7_2  1  0.00000000  0.91557700  0.29238000  1
  Zr  Zr7_3  1  0.00000000  0.91557700  0.79238000  1
  Zr  Zr7_4  1  0.50000000  0.41557700  0.29238000  1
  Zr  Zr7_5  1  0.50000000  0.41557700  0.79238000  1
  Zr  Zr7_6  1  0.50000000  0.91557700  0.29238000  1
  Zr  Zr7_7  1  0.50000000  0.91557700  0.79238000  1
  Zr  Zr8_0  1  0.00000000  0.24987350  0.12639400  1
  Zr  Zr8_1  1  0.00000000  0.24987350  0.62639400  1
  Zr  Zr8_2  1  0.00000000  0.74987350  0.12639400  1
  Zr  Zr8_3  1  0.00000000  0.74987350  0.62639400  1
  Zr  Zr8_4  1  0.50000000  0.24987350  0.12639400  1
  Zr  Zr8_5  1  0.50000000  0.24987350  0.62639400  1
  Zr  Zr8_6  1  0.50000000  0.74987350  0.12639400  1
  Zr  Zr8_7  1  0.50000000  0.74987350  0.62639400  1
  Zr  Zr9_0  1  0.25000000  0.03129700  0.33285850  1
  Zr  Zr9_1  1  0.25000000  0.03129700  0.83285850  1
  Zr  Zr9_2  1  0.25000000  0.53129700  0.33285850  1
  Zr  Zr9_3  1  0.25000000  0.53129700  0.83285850  1
  Zr  Zr9_4  1  0.75000000  0.03129700  0.33285850  1
  Zr  Zr9_5  1  0.75000000  0.03129700  0.83285850  1
  Zr  Zr9_6  1  0.75000000  0.53129700  0.33285850  1
  Zr  Zr9_7  1  0.75000000  0.53129700  0.83285850  1
  Zr  Zr10_0  1  0.25000000  0.36967350  0.17436400  1
  Zr  Zr10_1  1  0.25000000  0.36967350  0.67436400  1
  Zr  Zr10_2  1  0.25000000  0.86967350  0.17436400  1
  Zr  Zr10_3  1  0.25000000  0.86967350  0.67436400  1
  Zr  Zr10_4  1  0.75000000  0.36967350  0.17436400  1
  Zr  Zr10_5  1  0.75000000  0.36967350  0.67436400  1
  Zr  Zr10_6  1  0.75000000  0.86967350  0.17436400  1
  Zr  Zr10_7  1  0.75000000  0.86967350  0.67436400  1
  Zr  Zr11_0  1  0.25000000  0.20234050  0.00797500  1
  Zr  Zr11_1  1  0.25000000  0.20234050  0.50797500  1
  Zr  Zr11_2  1  0.25000000  0.70234050  0.00797500  1
  Zr  Zr11_3  1  0.25000000  0.70234050  0.50797500  1
  Zr  Zr11_4  1  0.75000000  0.20234050  0.00797500  1
  Zr  Zr11_5  1  0.75000000  0.20234050  0.50797500  1
  Zr  Zr11_6  1  0.75000000  0.70234050  0.00797500  1
  Zr  Zr11_7  1  0.75000000  0.70234050  0.50797500  1
  Zr  Zr12_0  1  0.25000000  0.43372900  0.43429000  1
  Zr  Zr12_1  1  0.25000000  0.43372900  0.93429000  1
  Zr  Zr12_2  1  0.25000000  0.93372900  0.43429000  1
  Zr  Zr12_3  1  0.25000000  0.93372900  0.93429000  1
  Zr  Zr12_4  1  0.75000000  0.43372900  0.43429000  1
  Zr  Zr12_5  1  0.75000000  0.43372900  0.93429000  1
  Zr  Zr12_6  1  0.75000000  0.93372900  0.43429000  1
  Zr  Zr12_7  1  0.75000000  0.93372900  0.93429000  1
  Zr  Zr13_0  1  0.25000000  0.28408800  0.26010750  1
  Zr  Zr13_1  1  0.25000000  0.28408800  0.76010750  1
  Zr  Zr13_2  1  0.25000000  0.78408800  0.26010750  1
  Zr  Zr13_3  1  0.25000000  0.78408800  0.76010750  1
  Zr  Zr13_4  1  0.75000000  0.28408800  0.26010750  1
  Zr  Zr13_5  1  0.75000000  0.28408800  0.76010750  1
  Zr  Zr13_6  1  0.75000000  0.78408800  0.26010750  1
  Zr  Zr13_7  1  0.75000000  0.78408800  0.76010750  1
  Zr  Zr14_0  1  0.25000000  0.11821500  0.09409800  1
  Zr  Zr14_1  1  0.25000000  0.11821500  0.59409800  1
  Zr  Zr14_2  1  0.25000000  0.61821500  0.09409800  1
  Zr  Zr14_3  1  0.25000000  0.61821500  0.59409800  1
  Zr  Zr14_4  1  0.75000000  0.11821500  0.09409800  1
  Zr  Zr14_5  1  0.75000000  0.11821500  0.59409800  1
  Zr  Zr14_6  1  0.75000000  0.61821500  0.09409800  1
  Zr  Zr14_7  1  0.75000000  0.61821500  0.59409800  1
  Zr  Zr15_0  1  0.25000000  0.20196050  0.39926050  1
  Zr  Zr15_1  1  0.25000000  0.20196050  0.89926050  1
  Zr  Zr15_2  1  0.25000000  0.70196050  0.39926050  1
  Zr  Zr15_3  1  0.25000000  0.70196050  0.89926050  1
  Zr  Zr15_4  1  0.75000000  0.20196050  0.39926050  1
  Zr  Zr15_5  1  0.75000000  0.20196050  0.89926050  1
  Zr  Zr15_6  1  0.75000000  0.70196050  0.39926050  1
  Zr  Zr15_7  1  0.75000000  0.70196050  0.89926050  1
  Zr  Zr16_0  1  0.25000000  0.01343600  0.23113300  1
  Zr  Zr16_1  1  0.25000000  0.01343600  0.73113300  1
  Zr  Zr16_2  1  0.25000000  0.51343600  0.23113300  1
  Zr  Zr16_3  1  0.25000000  0.51343600  0.73113300  1
  Zr  Zr16_4  1  0.75000000  0.01343600  0.23113300  1
  Zr  Zr16_5  1  0.75000000  0.01343600  0.73113300  1
  Zr  Zr16_6  1  0.75000000  0.51343600  0.23113300  1
  Zr  Zr16_7  1  0.75000000  0.51343600  0.73113300  1
  Zr  Zr17_0  1  0.25000000  0.34567700  0.06540600  1
  Zr  Zr17_1  1  0.25000000  0.34567700  0.56540600  1
  Zr  Zr17_2  1  0.25000000  0.84567700  0.06540600  1
  Zr  Zr17_3  1  0.25000000  0.84567700  0.56540600  1
  Zr  Zr17_4  1  0.75000000  0.34567700  0.06540600  1
  Zr  Zr17_5  1  0.75000000  0.34567700  0.56540600  1
  Zr  Zr17_6  1  0.75000000  0.84567700  0.06540600  1
  Zr  Zr17_7  1  0.75000000  0.84567700  0.56540600  1
  Co  Co0_0  1  0.25000000  0.00077500  0.00073650  1
  Co  Co0_1  1  0.25000000  0.00077500  0.50073650  1
  Co  Co0_2  1  0.25000000  0.50077500  0.00073650  1
  Co  Co0_3  1  0.25000000  0.50077500  0.50073650  1
  Co  Co0_4  1  0.75000000  0.00077500  0.00073650  1
  Co  Co0_5  1  0.75000000  0.00077500  0.50073650  1
  Co  Co0_6  1  0.75000000  0.50077500  0.00073650  1
  Co  Co0_7  1  0.75000000  0.50077500  0.50073650  1
  Co  Co1_0  1  0.25000000  0.33281550  0.33243150  1
  Co  Co1_1  1  0.25000000  0.33281550  0.83243150  1
  Co  Co1_2  1  0.25000000  0.83281550  0.33243150  1
  Co  Co1_3  1  0.25000000  0.83281550  0.83243150  1
  Co  Co1_4  1  0.75000000  0.33281550  0.33243150  1
  Co  Co1_5  1  0.75000000  0.33281550  0.83243150  1
  Co  Co1_6  1  0.75000000  0.83281550  0.33243150  1
  Co  Co1_7  1  0.75000000  0.83281550  0.83243150  1
  Co  Co2_0  1  0.25000000  0.16675400  0.16670650  1
  Co  Co2_1  1  0.25000000  0.16675400  0.66670650  1
  Co  Co2_2  1  0.25000000  0.66675400  0.16670650  1
  Co  Co2_3  1  0.25000000  0.66675400  0.66670650  1
  Co  Co2_4  1  0.75000000  0.16675400  0.16670650  1
  Co  Co2_5  1  0.75000000  0.16675400  0.66670650  1
  Co  Co2_6  1  0.75000000  0.66675400  0.16670650  1
  Co  Co2_7  1  0.75000000  0.66675400  0.66670650  1
  Co  Co3_0  1  0.00000000  0.38905950  0.22263900  1
  Co  Co3_1  1  0.00000000  0.38905950  0.72263900  1
  Co  Co3_2  1  0.00000000  0.88905950  0.22263900  1
  Co  Co3_3  1  0.00000000  0.88905950  0.72263900  1
  Co  Co3_4  1  0.50000000  0.38905950  0.22263900  1
  Co  Co3_5  1  0.50000000  0.38905950  0.72263900  1
  Co  Co3_6  1  0.50000000  0.88905950  0.22263900  1
  Co  Co3_7  1  0.50000000  0.88905950  0.72263900  1
  Co  Co4_0  1  0.00000000  0.22203550  0.05532600  1
  Co  Co4_1  1  0.00000000  0.22203550  0.55532600  1
  Co  Co4_2  1  0.00000000  0.72203550  0.05532600  1
  Co  Co4_3  1  0.00000000  0.72203550  0.55532600  1
  Co  Co4_4  1  0.50000000  0.22203550  0.05532600  1
  Co  Co4_5  1  0.50000000  0.22203550  0.55532600  1
  Co  Co4_6  1  0.50000000  0.72203550  0.05532600  1
  Co  Co4_7  1  0.50000000  0.72203550  0.55532600  1
  Sn  Sn0_0  1  0.00000000  0.27445200  0.44678250  1
  Sn  Sn0_1  1  0.00000000  0.27445200  0.94678250  1
  Sn  Sn0_2  1  0.00000000  0.77445200  0.44678250  1
  Sn  Sn0_3  1  0.00000000  0.77445200  0.94678250  1
  Sn  Sn0_4  1  0.50000000  0.27445200  0.44678250  1
  Sn  Sn0_5  1  0.50000000  0.27445200  0.94678250  1
  Sn  Sn0_6  1  0.50000000  0.77445200  0.44678250  1
  Sn  Sn0_7  1  0.50000000  0.77445200  0.94678250  1
  Sn  Sn1_0  1  0.00000000  0.11388300  0.27551550  1
  Sn  Sn1_1  1  0.00000000  0.11388300  0.77551550  1
  Sn  Sn1_2  1  0.00000000  0.61388300  0.27551550  1
  Sn  Sn1_3  1  0.00000000  0.61388300  0.77551550  1
  Sn  Sn1_4  1  0.50000000  0.11388300  0.27551550  1
  Sn  Sn1_5  1  0.50000000  0.11388300  0.77551550  1
  Sn  Sn1_6  1  0.50000000  0.61388300  0.27551550  1
  Sn  Sn1_7  1  0.50000000  0.61388300  0.77551550  1
  Sn  Sn2_0  1  0.00000000  0.44462000  0.11123350  1
  Sn  Sn2_1  1  0.00000000  0.44462000  0.61123350  1
  Sn  Sn2_2  1  0.00000000  0.94462000  0.11123350  1
  Sn  Sn2_3  1  0.00000000  0.94462000  0.61123350  1
  Sn  Sn2_4  1  0.50000000  0.44462000  0.11123350  1
  Sn  Sn2_5  1  0.50000000  0.44462000  0.61123350  1
  Sn  Sn2_6  1  0.50000000  0.94462000  0.11123350  1
  Sn  Sn2_7  1  0.50000000  0.94462000  0.61123350  1
  Sn  Sn3_0  1  0.00000000  0.05569700  0.38888150  1
  Sn  Sn3_1  1  0.00000000  0.05569700  0.88888150  1
  Sn  Sn3_2  1  0.00000000  0.55569700  0.38888150  1
  Sn  Sn3_3  1  0.00000000  0.55569700  0.88888150  1
  Sn  Sn3_4  1  0.50000000  0.05569700  0.38888150  1
  Sn  Sn3_5  1  0.50000000  0.05569700  0.88888150  1
  Sn  Sn3_6  1  0.50000000  0.55569700  0.38888150  1
  Sn  Sn3_7  1  0.50000000  0.55569700  0.88888150  1
loop_
_geom_bond_atom_site_label_1
_geom_bond_atom_site_label_2
_geom_bond_distance
_geom_bond_site_symmetry_2
Zr0_0 Zr12_1 3.239306 1_554
Zr0_0 Zr12_5 3.239306 1_454
Zr0_0 Zr11_0 3.248126 1_555
Zr0_0 Zr11_4 3.248126 1_455
Zr0_1 Zr12_0 3.239306 1_555
Zr0_1 Zr12_4 3.239306 1_455
Zr0_1 Zr11_1 3.248126 1_555
Zr0_1 Zr11_5 3.248126 1_455
Zr0_2 Zr12_3 3.239306 1_554
Zr0_2 Zr12_7 3.239306 1_454
Zr0_2 Zr11_2 3.248126 1_555
Zr0_2 Zr11_6 3.248126 1_455
Zr0_3 Zr12_2 3.239306 1_555
Zr0_3 Zr12_6 3.239306 1_455
Zr0_3 Zr11_3 3.248126 1_555
Zr0_3 Zr11_7 3.248126 1_455
Zr0_4 Zr12_5 3.239306 1_554
Zr0_4 Zr12_1 3.239306 1_554
Zr0_4 Zr11_4 3.248126 1_555
Zr0_4 Zr11_0 3.248126 1_555
Zr0_5 Zr12_4 3.239306 1_555
Zr0_5 Zr12_0 3.239306 1_555
Zr0_5 Zr11_5 3.248126 1_555
Zr0_5 Zr11_1 3.248126 1_555
Zr0_6 Zr12_3 3.239306 1_554
Zr0_6 Zr12_7 3.239306 1_554
Zr0_6 Zr11_2 3.248126 1_555
Zr0_6 Zr11_6 3.248126 1_555
Zr0_7 Zr12_2 3.239306 1_555
Zr0_7 Zr12_6 3.239306 1_555
Zr0_7 Zr11_3 3.248126 1_555
Zr0_7 Zr11_7 3.248126 1_555
Zr1_0 Zr9_0 3.329775 1_555
Zr1_0 Zr9_4 3.329775 1_455
Zr1_1 Zr9_1 3.329775 1_555
Zr1_1 Zr9_5 3.329775 1_455
Zr1_2 Zr9_2 3.329775 1_555
Zr1_2 Zr9_6 3.329775 1_455
Zr1_3 Zr9_3 3.329775 1_555
Zr1_3 Zr9_7 3.329775 1_455
Zr1_4 Zr9_0 3.329775 1_555
Zr1_4 Zr9_4 3.329775 1_555
Zr1_5 Zr9_1 3.329775 1_555
Zr1_5 Zr9_5 3.329775 1_555
Zr1_6 Zr9_2 3.329775 1_555
Zr1_6 Zr9_6 3.329775 1_555
Zr1_7 Zr9_3 3.329775 1_555
Zr1_7 Zr9_7 3.329775 1_555
Zr3_0 Zr9_2 3.256288 1_555
Zr3_0 Zr9_6 3.256288 1_455
Zr3_1 Zr9_3 3.256288 1_555
Zr3_1 Zr9_7 3.256288 1_455
Zr3_2 Zr9_0 3.256288 1_565
Zr3_2 Zr9_4 3.256288 1_465
Zr3_3 Zr9_1 3.256288 1_565
Zr3_3 Zr9_5 3.256288 1_465
Zr3_4 Zr9_2 3.256288 1_555
Zr3_4 Zr9_6 3.256288 1_555
Zr3_5 Zr9_3 3.256288 1_555
Zr3_5 Zr9_7 3.256288 1_555
Zr3_6 Zr9_0 3.256288 1_565
Zr3_6 Zr9_4 3.256288 1_565
Zr3_7 Zr9_1 3.256288 1_565
Zr3_7 Zr9_5 3.256288 1_565
Zr7_0 Zr9_2 3.223552 1_555
Zr7_0 Zr9_6 3.223552 1_455
Zr7_1 Zr9_3 3.223552 1_555
Zr7_1 Zr9_7 3.223552 1_455
Zr7_2 Zr9_0 3.223552 1_565
Zr7_2 Zr9_4 3.223552 1_465
Zr7_3 Zr9_1 3.223552 1_565
Zr7_3 Zr9_5 3.223552 1_465
Zr7_4 Zr9_6 3.223552 1_555
Zr7_4 Zr9_2 3.223552 1_555
Zr7_5 Zr9_3 3.223552 1_555
Zr7_5 Zr9_7 3.223552 1_555
Zr7_6 Zr9_0 3.223552 1_565
Zr7_6 Zr9_4 3.223552 1_565
Zr7_7 Zr9_1 3.223552 1_565
Zr7_7 Zr9_5 3.223552 1_565
Zr9_0 Zr9_4 3.349441 1_555
Zr9_0 Zr9_4 3.349441 1_455
Zr9_1 Zr9_5 3.349441 1_555
Zr9_1 Zr9_5 3.349441 1_455
Zr9_2 Zr9_6 3.349441 1_555
Zr9_2 Zr9_6 3.349441 1_455
Zr9_3 Zr9_7 3.349441 1_555
Zr9_3 Zr9_7 3.349441 1_455
Zr10_0 Zr4_0 3.197438 1_555
Zr10_0 Zr4_4 3.197438 1_555
Zr10_0 Zr2_2 3.225337 1_555
Zr10_0 Zr2_6 3.225337 1_555
Zr10_0 Zr10_4 3.349441 1_555
Zr10_0 Zr10_4 3.349441 1_455
Zr10_0 Zr8_4 3.478766 1_555
Zr10_0 Zr8_0 3.478766 1_555
Zr10_1 Zr4_5 3.197438 1_555
Zr10_1 Zr4_1 3.197438 1_555
Zr10_1 Zr2_3 3.225337 1_555
Zr10_1 Zr2_7 3.225337 1_555
Zr10_1 Zr10_5 3.349441 1_555
Zr10_1 Zr10_5 3.349441 1_455
Zr10_1 Zr8_1 3.478766 1_555
Zr10_1 Zr8_5 3.478766 1_555
Zr10_2 Zr4_2 3.197438 1_555
Zr10_2 Zr4_6 3.197438 1_555
Zr10_2 Zr2_4 3.225337 1_565
Zr10_2 Zr2_0 3.225337 1_565
Zr10_2 Zr10_6 3.349441 1_555
Zr10_2 Zr10_6 3.349441 1_455
Zr10_2 Zr8_6 3.478766 1_555
Zr10_2 Zr8_2 3.478766 1_555
Zr10_3 Zr4_3 3.197438 1_555
Zr10_3 Zr4_7 3.197438 1_555
Zr10_3 Zr2_1 3.225337 1_565
Zr10_3 Zr2_5 3.225337 1_565
Zr10_3 Zr10_7 3.349441 1_555
Zr10_3 Zr10_7 3.349441 1_455
Zr10_3 Zr8_3 3.478766 1_555
Zr10_3 Zr8_7 3.478766 1_555
Zr10_4 Zr4_4 3.197438 1_555
Zr10_4 Zr4_0 3.197438 1_655
Zr10_4 Zr2_6 3.225337 1_555
Zr10_4 Zr2_2 3.225337 1_655
Zr10_4 Zr8_4 3.478766 1_555
Zr10_4 Zr8_0 3.478766 1_655
Zr10_5 Zr4_5 3.197438 1_555
Zr10_5 Zr4_1 3.197438 1_655
Zr10_5 Zr2_7 3.225337 1_555
Zr10_5 Zr2_3 3.225337 1_655
Zr10_5 Zr8_5 3.478766 1_555
Zr10_5 Zr8_1 3.478766 1_655
Zr10_6 Zr4_6 3.197438 1_555
Zr10_6 Zr4_2 3.197438 1_655
Zr10_6 Zr2_4 3.225337 1_565
Zr10_6 Zr2_0 3.225337 1_665
Zr10_6 Zr8_6 3.478766 1_555
Zr10_6 Zr8_2 3.478766 1_655
Zr10_7 Zr4_7 3.197438 1_555
Zr10_7 Zr4_3 3.197438 1_655
Zr10_7 Zr2_5 3.225337 1_565
Zr10_7 Zr2_1 3.225337 1_665
Zr10_7 Zr8_7 3.478766 1_555
Zr10_7 Zr8_3 3.478766 1_655
Zr11_0 Zr5_4 3.210585 1_555
Zr11_0 Zr5_0 3.210585 1_555
Zr11_0 Zr11_4 3.349441 1_555
Zr11_0 Zr11_4 3.349441 1_455
Zr11_0 Zr6_5 3.483515 1_554
Zr11_0 Zr6_1 3.483515 1_554
Zr11_1 Zr5_1 3.210585 1_555
Zr11_1 Zr5_5 3.210585 1_555
Zr11_1 Zr11_5 3.349441 1_555
Zr11_1 Zr11_5 3.349441 1_455
Zr11_1 Zr6_0 3.483515 1_555
Zr11_1 Zr6_4 3.483515 1_555
Zr11_2 Zr5_6 3.210585 1_555
Zr11_2 Zr5_2 3.210585 1_555
Zr11_2 Zr11_6 3.349441 1_555
Zr11_2 Zr11_6 3.349441 1_455
Zr11_2 Zr6_3 3.483515 1_554
Zr11_2 Zr6_7 3.483515 1_554
Zr11_3 Zr5_3 3.210585 1_555
Zr11_3 Zr5_7 3.210585 1_555
Zr11_3 Zr11_7 3.349441 1_555
Zr11_3 Zr11_7 3.349441 1_455
Zr11_3 Zr6_2 3.483515 1_555
Zr11_3 Zr6_6 3.483515 1_555
Zr11_4 Zr5_4 3.210585 1_555
Zr11_4 Zr5_0 3.210585 1_655
Zr11_4 Zr6_5 3.483515 1_554
Zr11_4 Zr6_1 3.483515 1_654
Zr11_5 Zr5_5 3.210585 1_555
Zr11_5 Zr5_1 3.210585 1_655
Zr11_5 Zr6_4 3.483515 1_555
Zr11_5 Zr6_0 3.483515 1_655
Zr11_6 Zr5_6 3.210585 1_555
Zr11_6 Zr5_2 3.210585 1_655
Zr11_6 Zr6_7 3.483515 1_554
Zr11_6 Zr6_3 3.483515 1_654
Zr11_7 Zr5_7 3.210585 1_555
Zr11_7 Zr5_3 3.210585 1_655
Zr11_7 Zr6_6 3.483515 1_555
Zr11_7 Zr6_2 3.483515 1_655
Zr12_0 Zr6_2 3.256400 1_555
Zr12_0 Zr6_6 3.256400 1_555
Zr12_0 Zr12_4 3.349441 1_555
Zr12_0 Zr12_4 3.349441 1_455
Zr12_0 Zr3_4 3.349454 1_555
Zr12_0 Zr3_0 3.349454 1_555
Zr12_1 Zr6_3 3.256400 1_555
Zr12_1 Zr6_7 3.256400 1_555
Zr12_1 Zr12_5 3.349441 1_555
Zr12_1 Zr12_5 3.349441 1_455
Zr12_1 Zr3_5 3.349454 1_555
Zr12_1 Zr3_1 3.349454 1_555
Zr12_2 Zr6_0 3.256400 1_565
Zr12_2 Zr6_4 3.256400 1_565
Zr12_2 Zr12_6 3.349441 1_555
Zr12_2 Zr12_6 3.349441 1_455
Zr12_2 Zr3_6 3.349454 1_555
Zr12_2 Zr3_2 3.349454 1_555
Zr12_3 Zr6_1 3.256400 1_565
Zr12_3 Zr6_5 3.256400 1_565
Zr12_3 Zr12_7 3.349441 1_555
Zr12_3 Zr12_7 3.349441 1_455
Zr12_3 Zr3_3 3.349454 1_555
Zr12_3 Zr3_7 3.349454 1_555
Zr12_4 Zr6_6 3.256400 1_555
Zr12_4 Zr6_2 3.256400 1_655
Zr12_4 Zr3_4 3.349454 1_555
Zr12_4 Zr3_0 3.349454 1_655
Zr12_5 Zr6_7 3.256400 1_555
Zr12_5 Zr6_3 3.256400 1_655
Zr12_5 Zr3_5 3.349454 1_555
Zr12_5 Zr3_1 3.349454 1_655
Zr12_6 Zr6_4 3.256400 1_565
Zr12_6 Zr6_0 3.256400 1_665
Zr12_6 Zr3_6 3.349454 1_555
Zr12_6 Zr3_2 3.349454 1_655
Zr12_7 Zr6_5 3.256400 1_565
Zr12_7 Zr6_1 3.256400 1_665
Zr12_7 Zr3_7 3.349454 1_555
Zr12_7 Zr3_3 3.349454 1_655
Zr15_0 Zr3_0 3.219791 1_555
Zr15_0 Zr3_4 3.219791 1_555
Zr15_0 Zr1_0 3.275587 1_555
Zr15_0 Zr1_4 3.275587 1_555
Zr15_0 Zr15_4 3.349441 1_555
Zr15_0 Zr15_4 3.349441 1_455
Zr15_0 Zr6_0 3.366179 1_555
Zr15_0 Zr6_4 3.366179 1_555
Zr15_1 Zr3_1 3.219791 1_555
Zr15_1 Zr3_5 3.219791 1_555
Zr15_1 Zr1_5 3.275587 1_555
Zr15_1 Zr1_1 3.275587 1_555
Zr15_1 Zr15_5 3.349441 1_555
Zr15_1 Zr15_5 3.349441 1_455
Zr15_1 Zr6_1 3.366179 1_555
Zr15_1 Zr6_5 3.366179 1_555
Zr15_2 Zr3_6 3.219791 1_555
Zr15_2 Zr3_2 3.219791 1_555
Zr15_2 Zr1_6 3.275587 1_555
Zr15_2 Zr1_2 3.275587 1_555
Zr15_2 Zr15_6 3.349441 1_555
Zr15_2 Zr15_6 3.349441 1_455
Zr15_2 Zr6_2 3.366179 1_555
Zr15_2 Zr6_6 3.366179 1_555
Zr15_3 Zr3_7 3.219791 1_555
Zr15_3 Zr3_3 3.219791 1_555
Zr15_3 Zr1_7 3.275587 1_555
Zr15_3 Zr1_3 3.275587 1_555
Zr15_3 Zr15_7 3.349441 1_555
Zr15_3 Zr15_7 3.349441 1_455
Zr15_3 Zr6_7 3.366179 1_555
Zr15_3 Zr6_3 3.366179 1_555
Zr15_4 Zr3_4 3.219791 1_555
Zr15_4 Zr3_0 3.219791 1_655
Zr15_4 Zr1_4 3.275587 1_555
Zr15_4 Zr1_0 3.275587 1_655
Zr15_4 Zr6_4 3.366179 1_555
Zr15_4 Zr6_0 3.366179 1_655
Zr15_5 Zr3_5 3.219791 1_555
Zr15_5 Zr3_1 3.219791 1_655
Zr15_5 Zr1_5 3.275587 1_555
Zr15_5 Zr1_1 3.275587 1_655
Zr15_5 Zr6_5 3.366179 1_555
Zr15_5 Zr6_1 3.366179 1_655
Zr15_6 Zr3_6 3.219791 1_555
Zr15_6 Zr3_2 3.219791 1_655
Zr15_6 Zr1_6 3.275587 1_555
Zr15_6 Zr1_2 3.275587 1_655
Zr15_6 Zr6_6 3.366179 1_555
Zr15_6 Zr6_2 3.366179 1_655
Zr15_7 Zr3_7 3.219791 1_555
Zr15_7 Zr3_3 3.219791 1_655
Zr15_7 Zr1_7 3.275587 1_555
Zr15_7 Zr1_3 3.275587 1_655
Zr15_7 Zr6_7 3.366179 1_555
Zr15_7 Zr6_3 3.366179 1_655
Co0_0 Zr6_5 2.566574 1_554
Co0_0 Zr6_1 2.566574 1_554
Co0_0 Zr5_4 2.567009 1_555
Co0_0 Zr5_0 2.567009 1_555
Co0_0 Zr0_6 2.578060 1_545
Co0_0 Zr0_2 2.578060 1_545
Co0_0 Zr12_3 3.199056 1_544
Co0_0 Zr11_0 3.302086 1_555
Co0_1 Zr6_0 2.566574 1_555
Co0_1 Zr6_4 2.566574 1_555
Co0_1 Zr5_1 2.567009 1_555
Co0_1 Zr5_5 2.567009 1_555
Co0_1 Zr0_3 2.578060 1_545
Co0_1 Zr0_7 2.578060 1_545
Co0_1 Zr12_2 3.199056 1_545
Co0_1 Zr11_1 3.302086 1_555
Co0_2 Zr6_3 2.566574 1_554
Co0_2 Zr6_7 2.566574 1_554
Co0_2 Zr5_2 2.567009 1_555
Co0_2 Zr5_6 2.567009 1_555
Co0_2 Zr0_0 2.578060 1_555
Co0_2 Zr0_4 2.578060 1_555
Co0_2 Zr12_1 3.199056 1_554
Co0_2 Zr11_2 3.302086 1_555
Co0_3 Zr6_2 2.566574 1_555
Co0_3 Zr6_6 2.566574 1_555
Co0_3 Zr5_3 2.567009 1_555
Co0_3 Zr5_7 2.567009 1_555
Co0_3 Zr0_5 2.578060 1_555
Co0_3 Zr0_1 2.578060 1_555
Co0_3 Zr12_0 3.199056 1_555
Co0_3 Zr11_3 3.302086 1_555
Co0_4 Zr6_5 2.566574 1_554
Co0_4 Zr6_1 2.566574 1_654
Co0_4 Zr5_4 2.567009 1_555
Co0_4 Zr5_0 2.567009 1_655
Co0_4 Zr0_6 2.578060 1_545
Co0_4 Zr0_2 2.578060 1_645
Co0_4 Zr12_7 3.199056 1_544
Co0_4 Zr11_4 3.302086 1_555
Co0_5 Zr6_4 2.566574 1_555
Co0_5 Zr6_0 2.566574 1_655
Co0_5 Zr5_5 2.567009 1_555
Co0_5 Zr5_1 2.567009 1_655
Co0_5 Zr0_7 2.578060 1_545
Co0_5 Zr0_3 2.578060 1_645
Co0_5 Zr12_6 3.199056 1_545
Co0_5 Zr11_5 3.302086 1_555
Co0_6 Zr6_7 2.566574 1_554
Co0_6 Zr6_3 2.566574 1_654
Co0_6 Zr5_6 2.567009 1_555
Co0_6 Zr5_2 2.567009 1_655
Co0_6 Zr0_4 2.578060 1_555
Co0_6 Zr0_0 2.578060 1_655
Co0_6 Zr12_5 3.199056 1_554
Co0_6 Zr11_6 3.302086 1_555
Co0_7 Zr6_6 2.566574 1_555
Co0_7 Zr6_2 2.566574 1_655
Co0_7 Zr5_7 2.567009 1_555
Co0_7 Zr5_3 2.567009 1_655
Co0_7 Zr0_5 2.578060 1_555
Co0_7 Zr0_1 2.578060 1_655
Co0_7 Zr12_4 3.199056 1_555
Co0_7 Zr11_7 3.302086 1_555
Co1_0 Zr7_0 2.568432 1_555
Co1_0 Zr7_4 2.568432 1_555
Co1_0 Zr1_0 2.571169 1_555
Co1_0 Zr1_4 2.571169 1_555
Co1_0 Zr3_0 2.599678 1_555
Co1_0 Zr3_4 2.599678 1_555
Co1_0 Zr9_2 3.184400 1_555
Co1_0 Zr15_0 3.190925 1_555
Co1_1 Zr7_5 2.568432 1_555
Co1_1 Zr7_1 2.568432 1_555
Co1_1 Zr1_1 2.571169 1_555
Co1_1 Zr1_5 2.571169 1_555
Co1_1 Zr3_1 2.599678 1_555
Co1_1 Zr3_5 2.599678 1_555
Co1_1 Zr9_3 3.184400 1_555
Co1_1 Zr15_1 3.190925 1_555
Co1_2 Zr7_2 2.568432 1_555
Co1_2 Zr7_6 2.568432 1_555
Co1_2 Zr1_2 2.571169 1_555
Co1_2 Zr1_6 2.571169 1_555
Co1_2 Zr3_2 2.599678 1_555
Co1_2 Zr3_6 2.599678 1_555
Co1_2 Zr9_0 3.184400 1_565
Co1_2 Zr15_2 3.190925 1_555
Co1_3 Zr7_3 2.568432 1_555
Co1_3 Zr7_7 2.568432 1_555
Co1_3 Zr1_3 2.571169 1_555
Co1_3 Zr1_7 2.571169 1_555
Co1_3 Zr3_3 2.599678 1_555
Co1_3 Zr3_7 2.599678 1_555
Co1_3 Zr9_1 3.184400 1_565
Co1_3 Zr15_3 3.190925 1_555
Co1_4 Zr7_4 2.568432 1_555
Co1_4 Zr7_0 2.568432 1_655
Co1_4 Zr1_4 2.571169 1_555
Co1_4 Zr1_0 2.571169 1_655
Co1_4 Zr3_4 2.599678 1_555
Co1_4 Zr3_0 2.599678 1_655
Co1_4 Zr9_6 3.184400 1_555
Co1_4 Zr15_4 3.190925 1_555
Co1_5 Zr7_5 2.568432 1_555
Co1_5 Zr7_1 2.568432 1_655
Co1_5 Zr1_5 2.571169 1_555
Co1_5 Zr1_1 2.571169 1_655
Co1_5 Zr3_5 2.599678 1_555
Co1_5 Zr3_1 2.599678 1_655
Co1_5 Zr9_7 3.184400 1_555
Co1_5 Zr15_5 3.190925 1_555
Co1_6 Zr7_6 2.568432 1_555
Co1_6 Zr7_2 2.568432 1_655
Co1_6 Zr1_6 2.571169 1_555
Co1_6 Zr1_2 2.571169 1_655
Co1_6 Zr3_6 2.599678 1_555
Co1_6 Zr3_2 2.599678 1_655
Co1_6 Zr9_4 3.184400 1_565
Co1_6 Zr15_6 3.190925 1_555
Co1_7 Zr7_7 2.568432 1_555
Co1_7 Zr7_3 2.568432 1_655
Co1_7 Zr1_7 2.571169 1_555
Co1_7 Zr1_3 2.571169 1_655
Co1_7 Zr3_7 2.599678 1_555
Co1_7 Zr3_3 2.599678 1_655
Co1_7 Zr9_5 3.184400 1_565
Co1_7 Zr15_7 3.190925 1_555
Co2_0 Zr4_4 2.560264 1_555
Co2_0 Zr4_0 2.560264 1_555
Co2_0 Zr8_0 2.576927 1_555
Co2_0 Zr8_4 2.576927 1_555
Co2_0 Zr2_4 2.583464 1_555
Co2_0 Zr2_0 2.583464 1_555
Co2_0 Zr10_0 3.328661 1_555
Co2_1 Zr4_1 2.560264 1_555
Co2_1 Zr4_5 2.560264 1_555
Co2_1 Zr8_5 2.576927 1_555
Co2_1 Zr8_1 2.576927 1_555
Co2_1 Zr2_1 2.583464 1_555
Co2_1 Zr2_5 2.583464 1_555
Co2_1 Zr10_1 3.328661 1_555
Co2_2 Zr4_6 2.560264 1_555
Co2_2 Zr4_2 2.560264 1_555
Co2_2 Zr8_2 2.576927 1_555
Co2_2 Zr8_6 2.576927 1_555
Co2_2 Zr2_2 2.583464 1_555
Co2_2 Zr2_6 2.583464 1_555
Co2_2 Zr10_2 3.328661 1_555
Co2_3 Zr4_3 2.560264 1_555
Co2_3 Zr4_7 2.560264 1_555
Co2_3 Zr8_3 2.576927 1_555
Co2_3 Zr8_7 2.576927 1_555
Co2_3 Zr2_3 2.583464 1_555
Co2_3 Zr2_7 2.583464 1_555
Co2_3 Zr10_3 3.328661 1_555
Co2_4 Zr4_4 2.560264 1_555
Co2_4 Zr4_0 2.560264 1_655
Co2_4 Zr8_4 2.576927 1_555
Co2_4 Zr8_0 2.576927 1_655
Co2_4 Zr2_4 2.583464 1_555
Co2_4 Zr2_0 2.583464 1_655
Co2_4 Zr10_4 3.328661 1_555
Co2_5 Zr4_5 2.560264 1_555
Co2_5 Zr4_1 2.560264 1_655
Co2_5 Zr8_5 2.576927 1_555
Co2_5 Zr8_1 2.576927 1_655
Co2_5 Zr2_5 2.583464 1_555
Co2_5 Zr2_1 2.583464 1_655
Co2_5 Zr10_5 3.328661 1_555
Co2_6 Zr4_6 2.560264 1_555
Co2_6 Zr4_2 2.560264 1_655
Co2_6 Zr8_6 2.576927 1_555
Co2_6 Zr8_2 2.576927 1_655
Co2_6 Zr2_6 2.583464 1_555
Co2_6 Zr2_2 2.583464 1_655
Co2_6 Zr10_6 3.328661 1_555
Co2_7 Zr4_7 2.560264 1_555
Co2_7 Zr4_3 2.560264 1_655
Co2_7 Zr8_7 2.576927 1_555
Co2_7 Zr8_3 2.576927 1_655
Co2_7 Zr2_7 2.583464 1_555
Co2_7 Zr2_3 2.583464 1_655
Co2_7 Zr10_7 3.328661 1_555
Co3_0 Zr13_0 2.673792 1_555
Co3_0 Zr13_4 2.673792 1_455
Co3_0 Zr16_2 2.679310 1_555
Co3_0 Zr16_6 2.679310 1_455
Co3_0 Zr10_0 2.707476 1_555
Co3_0 Zr10_4 2.707476 1_455
Co3_0 Zr7_0 3.065604 1_555
Co3_0 Zr4_0 3.121454 1_555
Co3_0 Zr2_2 3.123055 1_555
Co3_1 Zr13_1 2.673792 1_555
Co3_1 Zr13_5 2.673792 1_455
Co3_1 Zr16_3 2.679310 1_555
Co3_1 Zr16_7 2.679310 1_455
Co3_1 Zr10_1 2.707476 1_555
Co3_1 Zr10_5 2.707476 1_455
Co3_1 Zr7_1 3.065604 1_555
Co3_1 Zr4_1 3.121454 1_555
Co3_1 Zr2_3 3.123055 1_555
Co3_2 Zr13_2 2.673792 1_555
Co3_2 Zr13_6 2.673792 1_455
Co3_2 Zr16_0 2.679310 1_565
Co3_2 Zr16_4 2.679310 1_465
Co3_2 Zr10_2 2.707476 1_555
Co3_2 Zr10_6 2.707476 1_455
Co3_2 Zr7_2 3.065604 1_555
Co3_2 Zr4_2 3.121454 1_555
Co3_2 Zr2_0 3.123055 1_565
Co3_3 Zr13_3 2.673792 1_555
Co3_3 Zr13_7 2.673792 1_455
Co3_3 Zr16_1 2.679310 1_565
Co3_3 Zr16_5 2.679310 1_465
Co3_3 Zr10_3 2.707476 1_555
Co3_3 Zr10_7 2.707476 1_455
Co3_3 Zr7_3 3.065604 1_555
Co3_3 Zr4_3 3.121454 1_555
Co3_3 Zr2_1 3.123055 1_565
Co3_4 Zr13_0 2.673792 1_555
Co3_4 Zr13_4 2.673792 1_555
Co3_4 Zr16_2 2.679310 1_555
Co3_4 Zr16_6 2.679310 1_555
Co3_4 Zr10_0 2.707476 1_555
Co3_4 Zr10_4 2.707476 1_555
Co3_4 Zr7_4 3.065604 1_555
Co3_4 Zr4_4 3.121454 1_555
Co3_4 Zr2_6 3.123055 1_555
Co3_5 Zr13_5 2.673792 1_555
Co3_5 Zr13_1 2.673792 1_555
Co3_5 Zr16_3 2.679310 1_555
Co3_5 Zr16_7 2.679310 1_555
Co3_5 Zr10_1 2.707476 1_555
Co3_5 Zr10_5 2.707476 1_555
Co3_5 Zr7_5 3.065604 1_555
Co3_5 Zr4_5 3.121454 1_555
Co3_5 Zr2_7 3.123055 1_555
Co3_6 Zr13_6 2.673792 1_555
Co3_6 Zr13_2 2.673792 1_555
Co3_6 Zr16_0 2.679310 1_565
Co3_6 Zr16_4 2.679310 1_565
Co3_6 Zr10_2 2.707476 1_555
Co3_6 Zr10_6 2.707476 1_555
Co3_6 Zr7_6 3.065604 1_555
Co3_6 Zr4_6 3.121454 1_555
Co3_6 Zr2_4 3.123055 1_565
Co3_7 Zr13_3 2.673792 1_555
Co3_7 Zr13_7 2.673792 1_555
Co3_7 Zr16_5 2.679310 1_565
Co3_7 Zr16_1 2.679310 1_565
Co3_7 Zr10_3 2.707476 1_555
Co3_7 Zr10_7 2.707476 1_555
Co3_7 Zr7_7 3.065604 1_555
Co3_7 Zr4_7 3.121454 1_555
Co3_7 Zr2_5 3.123055 1_565
Co4_0 Zr11_0 2.678406 1_555
Co4_0 Zr11_4 2.678406 1_455
Co4_0 Zr17_0 2.689525 1_555
Co4_0 Zr17_4 2.689525 1_455
Co4_0 Zr14_0 2.691174 1_555
Co4_0 Zr14_4 2.691174 1_455
Co4_0 Zr0_0 3.086387 1_555
Co4_0 Zr5_0 3.099116 1_555
Co4_0 Zr8_0 3.128153 1_555
Co4_1 Zr11_1 2.678406 1_555
Co4_1 Zr11_5 2.678406 1_455
Co4_1 Zr17_1 2.689525 1_555
Co4_1 Zr17_5 2.689525 1_455
Co4_1 Zr14_1 2.691174 1_555
Co4_1 Zr14_5 2.691174 1_455
Co4_1 Zr0_1 3.086387 1_555
Co4_1 Zr5_1 3.099116 1_555
Co4_1 Zr8_1 3.128153 1_555
Co4_2 Zr11_2 2.678406 1_555
Co4_2 Zr11_6 2.678406 1_455
Co4_2 Zr17_2 2.689525 1_555
Co4_2 Zr17_6 2.689525 1_455
Co4_2 Zr14_2 2.691174 1_555
Co4_2 Zr14_6 2.691174 1_455
Co4_2 Zr0_2 3.086387 1_555
Co4_2 Zr5_2 3.099116 1_555
Co4_2 Zr8_2 3.128153 1_555
Co4_3 Zr11_3 2.678406 1_555
Co4_3 Zr11_7 2.678406 1_455
Co4_3 Zr17_3 2.689525 1_555
Co4_3 Zr17_7 2.689525 1_455
Co4_3 Zr14_3 2.691174 1_555
Co4_3 Zr14_7 2.691174 1_455
Co4_3 Zr0_3 3.086387 1_555
Co4_3 Zr5_3 3.099116 1_555
Co4_3 Zr8_3 3.128153 1_555
Co4_4 Zr11_4 2.678406 1_555
Co4_4 Zr11_0 2.678406 1_555
Co4_4 Zr17_0 2.689525 1_555
Co4_4 Zr17_4 2.689525 1_555
Co4_4 Zr14_0 2.691174 1_555
Co4_4 Zr14_4 2.691174 1_555
Co4_4 Zr0_4 3.086387 1_555
Co4_4 Zr5_4 3.099116 1_555
Co4_4 Zr8_4 3.128153 1_555
Co4_5 Zr11_1 2.678406 1_555
Co4_5 Zr11_5 2.678406 1_555
Co4_5 Zr17_1 2.689525 1_555
Co4_5 Zr17_5 2.689525 1_555
Co4_5 Zr14_1 2.691174 1_555
Co4_5 Zr14_5 2.691174 1_555
Co4_5 Zr0_5 3.086387 1_555
Co4_5 Zr5_5 3.099116 1_555
Co4_5 Zr8_5 3.128153 1_555
Co4_6 Zr11_2 2.678406 1_555
Co4_6 Zr11_6 2.678406 1_555
Co4_6 Zr17_6 2.689525 1_555
Co4_6 Zr17_2 2.689525 1_555
Co4_6 Zr14_2 2.691174 1_555
Co4_6 Zr14_6 2.691174 1_555
Co4_6 Zr0_6 3.086387 1_555
Co4_6 Zr5_6 3.099116 1_555
Co4_6 Zr8_6 3.128153 1_555
Co4_7 Zr11_3 2.678406 1_555
Co4_7 Zr11_7 2.678406 1_555
Co4_7 Zr17_3 2.689525 1_555
Co4_7 Zr17_7 2.689525 1_555
Co4_7 Zr14_3 2.691174 1_555
Co4_7 Zr14_7 2.691174 1_555
Co4_7 Zr0_7 3.086387 1_555
Co4_7 Zr5_7 3.099116 1_555
Co4_7 Zr8_7 3.128153 1_555
Sn0_0 Zr12_0 3.015056 1_555
Sn0_0 Zr12_4 3.015056 1_455
Sn0_0 Zr15_0 3.016250 1_555
Sn0_0 Zr15_4 3.016250 1_455
Sn0_0 Zr6_0 3.037218 1_555
Sn0_0 Zr0_1 3.062565 1_555
Sn0_0 Zr11_1 3.120719 1_555
Sn0_0 Zr11_5 3.120719 1_455
Sn0_0 Zr3_0 3.190535 1_555
Sn0_0 Sn0_4 3.349441 1_555
Sn0_0 Sn0_4 3.349441 1_455
Sn0_1 Zr12_1 3.015056 1_555
Sn0_1 Zr12_5 3.015056 1_455
Sn0_1 Zr15_1 3.016250 1_555
Sn0_1 Zr15_5 3.016250 1_455
Sn0_1 Zr6_1 3.037218 1_555
Sn0_1 Zr0_0 3.062565 1_556
Sn0_1 Zr11_0 3.120719 1_556
Sn0_1 Zr11_4 3.120719 1_456
Sn0_1 Zr3_1 3.190535 1_555
Sn0_1 Sn0_5 3.349441 1_555
Sn0_1 Sn0_5 3.349441 1_455
Sn0_2 Zr12_2 3.015056 1_555
Sn0_2 Zr12_6 3.015056 1_455
Sn0_2 Zr15_2 3.016250 1_555
Sn0_2 Zr15_6 3.016250 1_455
Sn0_2 Zr6_2 3.037218 1_555
Sn0_2 Zr0_3 3.062565 1_555
Sn0_2 Zr11_3 3.120719 1_555
Sn0_2 Zr11_7 3.120719 1_455
Sn0_2 Zr3_2 3.190535 1_555
Sn0_2 Sn0_6 3.349441 1_555
Sn0_2 Sn0_6 3.349441 1_455
Sn0_3 Zr12_3 3.015056 1_555
Sn0_3 Zr12_7 3.015056 1_455
Sn0_3 Zr15_7 3.016250 1_455
Sn0_3 Zr15_3 3.016250 1_555
Sn0_3 Zr6_3 3.037218 1_555
Sn0_3 Zr0_2 3.062565 1_556
Sn0_3 Zr11_2 3.120719 1_556
Sn0_3 Zr11_6 3.120719 1_456
Sn0_3 Zr3_3 3.190535 1_555
Sn0_3 Sn0_7 3.349441 1_555
Sn0_3 Sn0_7 3.349441 1_455
Sn0_4 Zr12_4 3.015056 1_555
Sn0_4 Zr12_0 3.015056 1_555
Sn0_4 Zr15_0 3.016250 1_555
Sn0_4 Zr15_4 3.016250 1_555
Sn0_4 Zr6_4 3.037218 1_555
Sn0_4 Zr0_5 3.062565 1_555
Sn0_4 Zr11_1 3.120719 1_555
Sn0_4 Zr11_5 3.120719 1_555
Sn0_4 Zr3_4 3.190535 1_555
Sn0_5 Zr12_1 3.015056 1_555
Sn0_5 Zr12_5 3.015056 1_555
Sn0_5 Zr15_5 3.016250 1_555
Sn0_5 Zr15_1 3.016250 1_555
Sn0_5 Zr6_5 3.037218 1_555
Sn0_5 Zr0_4 3.062565 1_556
Sn0_5 Zr11_0 3.120719 1_556
Sn0_5 Zr11_4 3.120719 1_556
Sn0_5 Zr3_5 3.190535 1_555
Sn0_6 Zr12_2 3.015056 1_555
Sn0_6 Zr12_6 3.015056 1_555
Sn0_6 Zr15_6 3.016250 1_555
Sn0_6 Zr15_2 3.016250 1_555
Sn0_6 Zr6_6 3.037218 1_555
Sn0_6 Zr0_7 3.062565 1_555
Sn0_6 Zr11_3 3.120719 1_555
Sn0_6 Zr11_7 3.120719 1_555
Sn0_6 Zr3_6 3.190535 1_555
Sn0_7 Zr12_7 3.015056 1_555
Sn0_7 Zr12_3 3.015056 1_555
Sn0_7 Zr15_7 3.016250 1_555
Sn0_7 Zr15_3 3.016250 1_555
Sn0_7 Zr6_7 3.037218 1_555
Sn0_7 Zr0_6 3.062565 1_556
Sn0_7 Zr11_6 3.120719 1_556
Sn0_7 Zr11_2 3.120719 1_556
Sn0_7 Zr3_7 3.190535 1_555
Sn1_0 Zr4_0 2.995189 1_555
Sn1_0 Zr9_0 3.041705 1_555
Sn1_0 Zr9_4 3.041705 1_455
Sn1_0 Zr1_0 3.105143 1_555
Sn1_0 Zr7_2 3.123068 1_545
Sn1_0 Zr13_0 3.162152 1_555
Sn1_0 Zr13_4 3.162152 1_455
Sn1_0 Zr16_0 3.175030 1_555
Sn1_0 Zr16_4 3.175030 1_455
Sn1_0 Sn1_4 3.349441 1_555
Sn1_0 Sn1_4 3.349441 1_455
Sn1_1 Zr4_1 2.995189 1_555
Sn1_1 Zr9_1 3.041705 1_555
Sn1_1 Zr9_5 3.041705 1_455
Sn1_1 Zr1_1 3.105143 1_555
Sn1_1 Zr7_3 3.123068 1_545
Sn1_1 Zr13_1 3.162152 1_555
Sn1_1 Zr13_5 3.162152 1_455
Sn1_1 Zr16_1 3.175030 1_555
Sn1_1 Zr16_5 3.175030 1_455
Sn1_1 Sn1_5 3.349441 1_555
Sn1_1 Sn1_5 3.349441 1_455
Sn1_2 Zr4_2 2.995189 1_555
Sn1_2 Zr9_2 3.041705 1_555
Sn1_2 Zr9_6 3.041705 1_455
Sn1_2 Zr1_2 3.105143 1_555
Sn1_2 Zr7_0 3.123068 1_555
Sn1_2 Zr13_2 3.162152 1_555
Sn1_2 Zr13_6 3.162152 1_455
Sn1_2 Zr16_2 3.175030 1_555
Sn1_2 Zr16_6 3.175030 1_455
Sn1_2 Sn1_6 3.349441 1_555
Sn1_2 Sn1_6 3.349441 1_455
Sn1_3 Zr4_3 2.995189 1_555
Sn1_3 Zr9_3 3.041705 1_555
Sn1_3 Zr9_7 3.041705 1_455
Sn1_3 Zr1_3 3.105143 1_555
Sn1_3 Zr7_1 3.123068 1_555
Sn1_3 Zr13_3 3.162152 1_555
Sn1_3 Zr13_7 3.162152 1_455
Sn1_3 Zr16_3 3.175030 1_555
Sn1_3 Zr16_7 3.175030 1_455
Sn1_3 Sn1_7 3.349441 1_555
Sn1_3 Sn1_7 3.349441 1_455
Sn1_4 Zr4_4 2.995189 1_555
Sn1_4 Zr9_4 3.041705 1_555
Sn1_4 Zr9_0 3.041705 1_555
Sn1_4 Zr1_4 3.105143 1_555
Sn1_4 Zr7_6 3.123068 1_545
Sn1_4 Zr13_4 3.162152 1_555
Sn1_4 Zr13_0 3.162152 1_555
Sn1_4 Zr16_0 3.175030 1_555
Sn1_4 Zr16_4 3.175030 1_555
Sn1_5 Zr4_5 2.995189 1_555
Sn1_5 Zr9_5 3.041705 1_555
Sn1_5 Zr9_1 3.041705 1_555
Sn1_5 Zr1_5 3.105143 1_555
Sn1_5 Zr7_7 3.123068 1_545
Sn1_5 Zr13_5 3.162152 1_555
Sn1_5 Zr13_1 3.162152 1_555
Sn1_5 Zr16_1 3.175030 1_555
Sn1_5 Zr16_5 3.175030 1_555
Sn1_6 Zr4_6 2.995189 1_555
Sn1_6 Zr9_2 3.041705 1_555
Sn1_6 Zr9_6 3.041705 1_555
Sn1_6 Zr1_6 3.105143 1_555
Sn1_6 Zr7_4 3.123068 1_555
Sn1_6 Zr13_6 3.162152 1_555
Sn1_6 Zr13_2 3.162152 1_555
Sn1_6 Zr16_2 3.175030 1_555
Sn1_6 Zr16_6 3.175030 1_555
Sn1_7 Zr4_7 2.995189 1_555
Sn1_7 Zr9_3 3.041705 1_555
Sn1_7 Zr9_7 3.041705 1_555
Sn1_7 Zr1_7 3.105143 1_555
Sn1_7 Zr7_5 3.123068 1_555
Sn1_7 Zr13_7 3.162152 1_555
Sn1_7 Zr13_3 3.162152 1_555
Sn1_7 Zr16_3 3.175030 1_555
Sn1_7 Zr16_7 3.175030 1_555
Sn2_0 Zr5_2 3.047545 1_555
Sn2_0 Zr2_2 3.050266 1_555
Sn2_0 Zr8_0 3.065399 1_555
Sn2_0 Zr10_0 3.193317 1_555
Sn2_0 Zr10_4 3.193317 1_455
Sn2_0 Zr17_0 3.202758 1_555
Sn2_0 Zr17_4 3.202758 1_455
Sn2_0 Zr14_2 3.210803 1_555
Sn2_0 Zr14_6 3.210803 1_455
Sn2_0 Sn2_4 3.349441 1_555
Sn2_0 Sn2_4 3.349441 1_455
Sn2_1 Zr5_3 3.047545 1_555
Sn2_1 Zr2_3 3.050266 1_555
Sn2_1 Zr8_1 3.065399 1_555
Sn2_1 Zr10_1 3.193317 1_555
Sn2_1 Zr10_5 3.193317 1_455
Sn2_1 Zr17_1 3.202758 1_555
Sn2_1 Zr17_5 3.202758 1_455
Sn2_1 Zr14_3 3.210803 1_555
Sn2_1 Zr14_7 3.210803 1_455
Sn2_1 Sn2_5 3.349441 1_555
Sn2_1 Sn2_5 3.349441 1_455
Sn2_2 Zr5_0 3.047545 1_565
Sn2_2 Zr2_0 3.050266 1_565
Sn2_2 Zr8_2 3.065399 1_555
Sn2_2 Zr10_2 3.193317 1_555
Sn2_2 Zr10_6 3.193317 1_455
Sn2_2 Zr17_2 3.202758 1_555
Sn2_2 Zr17_6 3.202758 1_455
Sn2_2 Zr14_0 3.210803 1_565
Sn2_2 Zr14_4 3.210803 1_465
Sn2_2 Sn2_6 3.349441 1_555
Sn2_2 Sn2_6 3.349441 1_455
Sn2_3 Zr5_1 3.047545 1_565
Sn2_3 Zr2_1 3.050266 1_565
Sn2_3 Zr8_3 3.065399 1_555
Sn2_3 Zr10_3 3.193317 1_555
Sn2_3 Zr10_7 3.193317 1_455
Sn2_3 Zr17_3 3.202758 1_555
Sn2_3 Zr17_7 3.202758 1_455
Sn2_3 Zr14_1 3.210803 1_565
Sn2_3 Zr14_5 3.210803 1_465
Sn2_3 Sn2_7 3.349441 1_555
Sn2_3 Sn2_7 3.349441 1_455
Sn2_4 Zr5_6 3.047545 1_555
Sn2_4 Zr2_6 3.050266 1_555
Sn2_4 Zr8_4 3.065399 1_555
Sn2_4 Zr10_0 3.193317 1_555
Sn2_4 Zr10_4 3.193317 1_555
Sn2_4 Zr17_4 3.202758 1_555
Sn2_4 Zr17_0 3.202758 1_555
Sn2_4 Zr14_2 3.210803 1_555
Sn2_4 Zr14_6 3.210803 1_555
Sn2_5 Zr5_7 3.047545 1_555
Sn2_5 Zr2_7 3.050266 1_555
Sn2_5 Zr8_5 3.065399 1_555
Sn2_5 Zr10_1 3.193317 1_555
Sn2_5 Zr10_5 3.193317 1_555
Sn2_5 Zr17_1 3.202758 1_555
Sn2_5 Zr17_5 3.202758 1_555
Sn2_5 Zr14_3 3.210803 1_555
Sn2_5 Zr14_7 3.210803 1_555
Sn2_6 Zr5_4 3.047545 1_565
Sn2_6 Zr2_4 3.050266 1_565
Sn2_6 Zr8_6 3.065399 1_555
Sn2_6 Zr10_2 3.193317 1_555
Sn2_6 Zr10_6 3.193317 1_555
Sn2_6 Zr17_2 3.202758 1_555
Sn2_6 Zr17_6 3.202758 1_555
Sn2_6 Zr14_0 3.210803 1_565
Sn2_6 Zr14_4 3.210803 1_565
Sn2_7 Zr5_5 3.047545 1_565
Sn2_7 Zr2_5 3.050266 1_565
Sn2_7 Zr8_7 3.065399 1_555
Sn2_7 Zr10_3 3.193317 1_555
Sn2_7 Zr10_7 3.193317 1_555
Sn2_7 Zr17_7 3.202758 1_555
Sn2_7 Zr17_3 3.202758 1_555
Sn2_7 Zr14_5 3.210803 1_565
Sn2_7 Zr14_1 3.210803 1_565
Sn3_0 Zr15_0 2.980354 1_555
Sn3_0 Zr15_4 2.980354 1_455
Sn3_0 Zr12_6 2.985097 1_445
Sn3_0 Zr12_2 2.985097 1_545
Sn3_0 Zr9_0 2.991656 1_555
Sn3_0 Zr9_4 2.991656 1_455
Sn3_0 Zr3_2 3.107439 1_545
Sn3_0 Zr1_0 3.115378 1_555
Sn3_0 Zr6_0 3.129503 1_555
Sn3_0 Sn3_4 3.349441 1_555
Sn3_0 Sn3_4 3.349441 1_455
Sn3_1 Zr15_1 2.980354 1_555
Sn3_1 Zr15_5 2.980354 1_455
Sn3_1 Zr12_3 2.985097 1_545
Sn3_1 Zr12_7 2.985097 1_445
Sn3_1 Zr9_1 2.991656 1_555
Sn3_1 Zr9_5 2.991656 1_455
Sn3_1 Zr3_3 3.107439 1_545
Sn3_1 Zr1_1 3.115378 1_555
Sn3_1 Zr6_1 3.129503 1_555
Sn3_1 Sn3_5 3.349441 1_555
Sn3_1 Sn3_5 3.349441 1_455
Sn3_2 Zr15_2 2.980354 1_555
Sn3_2 Zr15_6 2.980354 1_455
Sn3_2 Zr12_0 2.985097 1_555
Sn3_2 Zr12_4 2.985097 1_455
Sn3_2 Zr9_2 2.991656 1_555
Sn3_2 Zr9_6 2.991656 1_455
Sn3_2 Zr3_0 3.107439 1_555
Sn3_2 Zr1_2 3.115378 1_555
Sn3_2 Zr6_2 3.129503 1_555
Sn3_2 Sn3_6 3.349441 1_555
Sn3_2 Sn3_6 3.349441 1_455
Sn3_3 Zr15_3 2.980354 1_555
Sn3_3 Zr15_7 2.980354 1_455
Sn3_3 Zr12_1 2.985097 1_555
Sn3_3 Zr12_5 2.985097 1_455
Sn3_3 Zr9_3 2.991656 1_555
Sn3_3 Zr9_7 2.991656 1_455
Sn3_3 Zr3_1 3.107439 1_555
Sn3_3 Zr1_3 3.115378 1_555
Sn3_3 Zr6_3 3.129503 1_555
Sn3_3 Sn3_7 3.349441 1_555
Sn3_3 Sn3_7 3.349441 1_455
Sn3_4 Zr15_0 2.980354 1_555
Sn3_4 Zr15_4 2.980354 1_555
Sn3_4 Zr12_6 2.985097 1_545
Sn3_4 Zr12_2 2.985097 1_545
Sn3_4 Zr9_0 2.991656 1_555
Sn3_4 Zr9_4 2.991656 1_555
Sn3_4 Zr3_6 3.107439 1_545
Sn3_4 Zr1_4 3.115378 1_555
Sn3_4 Zr6_4 3.129503 1_555
Sn3_5 Zr15_1 2.980354 1_555
Sn3_5 Zr15_5 2.980354 1_555
Sn3_5 Zr12_3 2.985097 1_545
Sn3_5 Zr12_7 2.985097 1_545
Sn3_5 Zr9_1 2.991656 1_555
Sn3_5 Zr9_5 2.991656 1_555
Sn3_5 Zr3_7 3.107439 1_545
Sn3_5 Zr1_5 3.115378 1_555
Sn3_5 Zr6_5 3.129503 1_555
Sn3_6 Zr15_2 2.980354 1_555
Sn3_6 Zr15_6 2.980354 1_555
Sn3_6 Zr12_0 2.985097 1_555
Sn3_6 Zr12_4 2.985097 1_555
Sn3_6 Zr9_6 2.991656 1_555
Sn3_6 Zr9_2 2.991656 1_555
Sn3_6 Zr3_4 3.107439 1_555
Sn3_6 Zr1_6 3.115378 1_555
Sn3_6 Zr6_6 3.129503 1_555
Sn3_7 Zr15_3 2.980354 1_555
Sn3_7 Zr15_7 2.980354 1_555
Sn3_7 Zr12_1 2.985097 1_555
Sn3_7 Zr12_5 2.985097 1_555
Sn3_7 Zr9_3 2.991656 1_555
Sn3_7 Zr9_7 2.991656 1_555
Sn3_7 Zr3_5 3.107439 1_555
Sn3_7 Zr1_7 3.115378 1_555
Sn3_7 Zr6_7 3.129503 1_555
