# generated using pymatgen
data_LiSiC2
_symmetry_space_group_name_H-M   'P 1'
_cell_length_a   4.01004400
_cell_length_b   4.01004400
_cell_length_c   5.47817000
_cell_angle_alpha   90.00000000
_cell_angle_beta   90.00000000
_cell_angle_gamma   90.00000000
_symmetry_Int_Tables_number   1
_chemical_formula_structural   LiSiC2
_chemical_formula_sum   'Li2 Si2 C4'
_cell_volume   88.09145456
_cell_formula_units_Z   2
loop_
 _symmetry_equiv_pos_site_id
 _symmetry_equiv_pos_as_xyz
  1  'x, y, z'
loop_
 _atom_site_type_symbol
 _atom_site_label
 _atom_site_symmetry_multiplicity
 _atom_site_fract_x
 _atom_site_fract_y
 _atom_site_fract_z
 _atom_site_occupancy
  Li  Li0  1  0.00000000  0.00000000  0.25000000  1
  Li  Li1  1  0.00000000  0.00000000  0.75000000  1
  Si  Si0  1  0.50000000  0.50000000  0.75000000  1
  Si  Si1  1  0.50000000  0.50000000  0.25000000  1
  C  C0  1  0.17706900  0.50000000  0.00000000  1
  C  C1  1  0.82293100  0.50000000  0.00000000  1
  C  C2  1  0.50000000  0.17706900  0.50000000  1
  C  C3  1  0.50000000  0.82293100  0.50000000  1
loop_
_geom_bond_atom_site_label_1
_geom_bond_atom_site_label_2
_geom_bond_distance
_geom_bond_site_symmetry_2
C0 C1 1.420109 1_455
C0 Si1 1.884831 1_555
C0 Si0 1.884831 1_554
C0 Li1 2.529810 1_554
C0 Li0 2.529810 1_555
C0 Li1 2.529810 1_564
C0 Li0 2.529810 1_565
C1 Si1 1.884831 1_555
C1 Si0 1.884831 1_554
C1 Li1 2.529810 1_654
C1 Li0 2.529810 1_655
C1 Li0 2.529810 1_665
C1 Li1 2.529810 1_664
C2 C3 1.420109 1_545
C2 Si1 1.884831 1_555
C2 Si0 1.884831 1_555
C2 Li0 2.529810 1_555
C2 Li1 2.529810 1_555
C2 Li0 2.529810 1_655
C2 Li1 2.529810 1_655
C3 Si1 1.884831 1_555
C3 Si0 1.884831 1_555
C3 Li0 2.529810 1_565
C3 Li0 2.529810 1_665
C3 Li1 2.529810 1_565
C3 Li1 2.529810 1_665
