# generated using pymatgen
data_NaHoO2
_symmetry_space_group_name_H-M   'P 1'
_cell_length_a   5.79850320
_cell_length_b   5.79850320
_cell_length_c   5.79850258
_cell_angle_alpha   33.84532417
_cell_angle_beta   33.84532417
_cell_angle_gamma   33.84532205
_symmetry_Int_Tables_number   1
_chemical_formula_structural   NaHoO2
_chemical_formula_sum   'Na1 Ho1 O2'
_cell_volume   53.89318541
_cell_formula_units_Z   1
loop_
 _symmetry_equiv_pos_site_id
 _symmetry_equiv_pos_as_xyz
  1  'x, y, z'
loop_
 _atom_site_type_symbol
 _atom_site_label
 _atom_site_symmetry_multiplicity
 _atom_site_fract_x
 _atom_site_fract_y
 _atom_site_fract_z
 _atom_site_occupancy
  Na  Na0  1  0.50000000  0.50000000  0.50000000  1
  Ho  Ho0  1  0.00000000  0.00000000  -0.00000000  1
  O  O0  1  0.73785085  0.73785085  0.73785085  1
  O  O1  1  0.26214915  0.26214915  0.26214915  1
loop_
_geom_bond_atom_site_label_1
_geom_bond_atom_site_label_2
_geom_bond_distance
_geom_bond_site_symmetry_2
Na0 O0 2.499102 1_554
Na0 O1 2.499102 1_556
Na0 O0 2.499103 1_545
Na0 O0 2.499103 1_455
Na0 O1 2.499103 1_655
Na0 O1 2.499103 1_565
Ho0 O1 2.271232 1_554
Ho0 O0 2.271232 1_445
Ho0 O1 2.271232 1_455
Ho0 O1 2.271232 1_545
Ho0 O0 2.271232 1_544
Ho0 O0 2.271232 1_454
