# generated using pymatgen
data_MgCu5
_symmetry_space_group_name_H-M   'P 1'
_cell_length_a   4.54820642
_cell_length_b   4.54820800
_cell_length_c   5.01825689
_cell_angle_alpha   116.94697547
_cell_angle_beta   63.05301197
_cell_angle_gamma   119.99998240
_symmetry_Int_Tables_number   1
_chemical_formula_structural   MgCu5
_chemical_formula_sum   'Mg1 Cu5'
_cell_volume   76.61053561
_cell_formula_units_Z   1
loop_
 _symmetry_equiv_pos_site_id
 _symmetry_equiv_pos_as_xyz
  1  'x, y, z'
loop_
 _atom_site_type_symbol
 _atom_site_label
 _atom_site_symmetry_multiplicity
 _atom_site_fract_x
 _atom_site_fract_y
 _atom_site_fract_z
 _atom_site_occupancy
  Mg  Mg0  1  0.83333200  0.49999900  0.50000000  1
  Cu  Cu0  1  0.65668800  0.32335400  0.00000000  1
  Cu  Cu1  1  0.33333200  0.67664500  0.00000000  1
  Cu  Cu2  1  0.00997800  0.99999900  0.00000000  1
  Cu  Cu3  1  0.50193700  0.83139500  0.49418800  1
  Cu  Cu4  1  0.16472700  0.16860400  0.50581400  1
loop_
_geom_bond_atom_site_label_1
_geom_bond_atom_site_label_2
_geom_bond_distance
_geom_bond_site_symmetry_2
Cu0 Cu1 2.547299 1_545
Cu0 Cu2 2.547302 1_545
Cu0 Cu4 2.614475 1_654
Cu0 Cu3 2.614487 1_555
Cu0 Cu3 2.615665 1_544
Cu0 Cu4 2.615672 1_555
Cu0 Mg0 2.634614 1_555
Cu0 Mg0 2.634618 1_554
Cu0 Cu1 2.666077 1_655
Cu0 Cu2 2.666081 1_645
Cu0 Cu2 2.666082 1_655
Cu0 Cu1 2.666089 1_555
Cu1 Cu2 2.547294 1_555
Cu1 Cu4 2.614481 1_554
Cu1 Cu3 2.614490 1_555
Cu1 Cu3 2.615660 1_554
Cu1 Cu4 2.615670 1_565
Cu1 Mg0 2.634618 1_455
Cu1 Mg0 2.634618 1_554
Cu1 Cu2 2.666085 1_655
Cu1 Cu2 2.666086 1_545
Cu2 Cu4 2.614482 1_564
Cu2 Cu3 2.614486 1_455
Cu2 Cu3 2.615664 1_554
Cu2 Cu4 2.615667 1_565
Cu2 Mg0 2.634619 1_465
Cu2 Mg0 2.634619 1_454
Cu3 Mg0 2.626022 1_555
Cu3 Mg0 2.626027 1_565
Cu3 Mg0 2.626030 1_455
Cu3 Cu4 2.626374 1_665
Cu3 Cu4 2.626379 1_555
Cu3 Cu4 2.626386 1_565
Cu4 Mg0 2.626023 1_455
Cu4 Mg0 2.626028 1_555
Cu4 Mg0 2.626029 1_445
