# generated using pymatgen
data_Mg7Si4
_symmetry_space_group_name_H-M   'P 1'
_cell_length_a   4.26078300
_cell_length_b   7.03761814
_cell_length_c   15.32494815
_cell_angle_alpha   95.30098709
_cell_angle_beta   96.89607273
_cell_angle_gamma   90.22266674
_symmetry_Int_Tables_number   1
_chemical_formula_structural   Mg7Si4
_chemical_formula_sum   'Mg14 Si8'
_cell_volume   454.20253809
_cell_formula_units_Z   2
loop_
 _symmetry_equiv_pos_site_id
 _symmetry_equiv_pos_as_xyz
  1  'x, y, z'
loop_
 _atom_site_type_symbol
 _atom_site_label
 _atom_site_symmetry_multiplicity
 _atom_site_fract_x
 _atom_site_fract_y
 _atom_site_fract_z
 _atom_site_occupancy
  Mg  Mg0  1  0.59100100  0.88387600  0.11895000  1
  Mg  Mg1  1  0.23019700  0.64617800  0.39150600  1
  Mg  Mg2  1  0.79566400  0.58189200  0.53578300  1
  Mg  Mg3  1  0.71324300  0.28917400  0.33340700  1
  Mg  Mg4  1  0.58946100  0.33739300  0.13390800  1
  Mg  Mg5  1  0.89304000  0.75454500  0.73314800  1
  Mg  Mg6  1  0.84227000  0.27554900  0.67301600  1
  Mg  Mg7  1  0.75874600  0.95925900  0.44726700  1
  Mg  Mg8  1  0.05415700  0.59646100  0.03761700  1
  Mg  Mg9  1  0.03655500  0.07769500  0.01170900  1
  Mg  Mg10  1  0.50762500  0.34342100  0.93070300  1
  Mg  Mg11  1  0.49447100  0.76663500  0.89777000  1
  Mg  Mg12  1  0.28120100  0.27983900  0.50197000  1
  Mg  Mg13  1  0.33454400  0.90358600  0.59741200  1
  Si  Si0  1  0.96799600  0.16176000  0.84129300  1
  Si  Si1  1  0.12178100  0.10900500  0.19665600  1
  Si  Si2  1  0.66448700  0.63146300  0.26559300  1
  Si  Si3  1  0.33871400  0.53650900  0.64701200  1
  Si  Si4  1  0.98182100  0.51333600  0.85885600  1
  Si  Si5  1  0.13891500  0.76538200  0.21838200  1
  Si  Si6  1  0.21911500  0.04574500  0.35077500  1
  Si  Si7  1  0.44142000  0.03770600  0.77364900  1
loop_
_geom_bond_atom_site_label_1
_geom_bond_atom_site_label_2
_geom_bond_distance
_geom_bond_site_symmetry_2
Mg0 Si5 2.766751 1_555
Mg0 Si5 2.804125 1_655
Mg0 Si1 2.831907 1_665
Mg0 Si1 2.858851 1_565
Mg0 Si2 2.979415 1_555
Mg1 Si2 2.824917 1_555
Mg1 Si5 2.839026 1_555
Mg1 Si2 2.896244 1_455
Mg1 Si6 2.935555 1_565
Mg2 Si3 2.742366 1_655
Mg2 Si3 2.773263 1_555
Mg3 Si2 2.709355 1_555
Mg3 Si6 2.761657 1_655
Mg3 Si6 2.762090 1_555
Mg3 Si1 3.071135 1_655
Mg4 Si2 2.743365 1_555
Mg4 Si1 2.863522 1_555
Mg4 Si1 2.905613 1_655
Mg5 Si4 2.677734 1_555
Mg5 Si3 2.820149 1_655
Mg5 Si7 2.854335 1_565
Mg5 Si3 2.919641 1_555
Mg5 Si7 3.033609 1_665
Mg5 Si0 3.170145 1_565
Mg6 Si0 2.762577 1_555
Mg6 Si3 2.845271 1_555
Mg6 Si3 2.883293 1_655
Mg6 Si7 3.030586 1_555
Mg6 Si4 3.157533 1_555
Mg7 Si6 2.684100 1_565
Mg7 Si6 2.694122 1_665
Mg8 Si4 2.727969 1_454
Mg8 Si5 2.892347 1_555
Mg9 Si0 2.712843 1_454
Mg9 Si1 2.801877 1_555
Mg10 Si4 2.707970 1_455
Mg10 Si4 2.735537 1_555
Mg10 Si0 2.774053 1_455
Mg10 Si0 2.775030 1_555
Mg10 Si7 3.062166 1_555
Mg10 Mg11 3.066121 1_555
Mg10 Mg4 3.095935 1_556
Mg10 Mg8 3.129029 1_656
Mg10 Mg8 3.136352 1_556
Mg10 Mg9 3.147562 1_656
Mg10 Mg9 3.172537 1_556
Mg11 Si4 2.786575 1_455
Mg11 Si7 2.806984 1_565
Mg11 Si4 2.823988 1_555
Mg12 Si6 2.701286 1_555
Mg12 Si3 2.717991 1_555
Mg13 Si3 2.758936 1_555
Mg13 Si7 2.760979 1_565
Si0 Si4 2.463711 1_555
Si0 Si7 2.475826 1_555
Si0 Si7 2.500871 1_655
Si1 Si6 2.430867 1_555
Si1 Si5 2.471560 1_545
Si2 Si5 2.441373 1_655
Si2 Si5 2.485905 1_555
Si5 Si6 2.686059 1_565
