# generated using pymatgen
data_MnPd3
_symmetry_space_group_name_H-M   'P 1'
_cell_length_a   5.53814188
_cell_length_b   5.53814188
_cell_length_c   4.50409854
_cell_angle_alpha   90.00000000
_cell_angle_beta   90.00000000
_cell_angle_gamma   120.00000077
_symmetry_Int_Tables_number   1
_chemical_formula_structural   MnPd3
_chemical_formula_sum   'Mn2 Pd6'
_cell_volume   119.63731774
_cell_formula_units_Z   2
loop_
 _symmetry_equiv_pos_site_id
 _symmetry_equiv_pos_as_xyz
  1  'x, y, z'
loop_
 _atom_site_type_symbol
 _atom_site_label
 _atom_site_symmetry_multiplicity
 _atom_site_fract_x
 _atom_site_fract_y
 _atom_site_fract_z
 _atom_site_occupancy
  Mn  Mn0  1  0.66666700  0.33333300  0.25000000  1
  Mn  Mn1  1  0.33333300  0.66666700  0.75000000  1
  Pd  Pd0  1  0.66505645  0.83252823  0.25000000  1
  Pd  Pd1  1  0.16747177  0.33494355  0.25000000  1
  Pd  Pd2  1  0.16747177  0.83252823  0.25000000  1
  Pd  Pd3  1  0.83252823  0.66505645  0.75000000  1
  Pd  Pd4  1  0.33494355  0.16747177  0.75000000  1
  Pd  Pd5  1  0.83252823  0.16747177  0.75000000  1
loop_
_geom_bond_atom_site_label_1
_geom_bond_atom_site_label_2
_geom_bond_distance
_geom_bond_site_symmetry_2
Mn0 Pd5 2.757354 1_554
Mn0 Pd5 2.757354 1_555
Mn0 Pd4 2.757357 1_555
Mn0 Pd4 2.757357 1_554
Mn0 Pd3 2.757357 1_555
Mn0 Pd3 2.757357 1_554
Mn0 Pd1 2.769079 1_655
Mn0 Pd0 2.769079 1_545
Mn0 Pd2 2.769082 1_655
Mn0 Pd2 2.769082 1_545
Mn0 Pd0 2.769085 1_555
Mn0 Pd1 2.769085 1_555
Mn1 Pd2 2.757354 1_555
Mn1 Pd2 2.757354 1_556
Mn1 Pd0 2.757357 1_556
Mn1 Pd0 2.757357 1_555
Mn1 Pd1 2.757357 1_555
Mn1 Pd1 2.757357 1_556
Mn1 Pd4 2.769079 1_565
Mn1 Pd3 2.769079 1_455
Mn1 Pd5 2.769082 1_565
Mn1 Pd5 2.769082 1_455
Mn1 Pd4 2.769085 1_555
Mn1 Pd3 2.769085 1_555
Pd0 Pd1 2.755695 1_555
Pd0 Pd2 2.755695 1_555
Pd0 Pd5 2.766297 1_565
Pd0 Pd5 2.766297 1_564
Pd0 Pd3 2.766297 1_554
Pd0 Pd3 2.766297 1_555
Pd0 Pd1 2.782447 1_665
Pd0 Pd2 2.782447 1_655
Pd1 Pd2 2.755695 1_555
Pd1 Pd5 2.766297 1_455
Pd1 Pd5 2.766297 1_454
Pd1 Pd4 2.766297 1_555
Pd1 Pd4 2.766297 1_554
Pd1 Pd2 2.782447 1_545
Pd2 Pd4 2.766297 1_565
Pd2 Pd4 2.766297 1_564
Pd2 Pd3 2.766297 1_455
Pd2 Pd3 2.766297 1_454
Pd3 Pd4 2.755695 1_555
Pd3 Pd5 2.755695 1_555
Pd3 Pd4 2.782447 1_665
Pd3 Pd5 2.782447 1_565
Pd4 Pd5 2.755695 1_555
Pd4 Pd5 2.782447 1_455
