# generated using pymatgen
data_H6AuC3O2
_symmetry_space_group_name_H-M   'P 1'
_cell_length_a   8.36532800
_cell_length_b   11.68817200
_cell_length_c   12.55566120
_cell_angle_alpha   90.00000000
_cell_angle_beta   105.24454739
_cell_angle_gamma   90.00000000
_symmetry_Int_Tables_number   1
_chemical_formula_structural   H6AuC3O2
_chemical_formula_sum   'H48 Au8 C24 O16'
_cell_volume   1184.43712287
_cell_formula_units_Z   8
loop_
 _symmetry_equiv_pos_site_id
 _symmetry_equiv_pos_as_xyz
  1  'x, y, z'
loop_
 _atom_site_type_symbol
 _atom_site_label
 _atom_site_symmetry_multiplicity
 _atom_site_fract_x
 _atom_site_fract_y
 _atom_site_fract_z
 _atom_site_occupancy
  H  H0  1  0.91545400  0.17517800  0.86171100  1
  H  H1  1  0.08454600  0.67517800  0.63828900  1
  H  H2  1  0.08454600  0.82482200  0.13828900  1
  H  H3  1  0.91545400  0.32482200  0.36171100  1
  H  H4  1  0.11087800  0.11719600  0.85033700  1
  H  H5  1  0.88912200  0.61719600  0.64966300  1
  H  H6  1  0.88912200  0.88280400  0.14966300  1
  H  H7  1  0.11087800  0.38280400  0.35033700  1
  H  H8  1  0.07178700  0.26924500  0.83717300  1
  H  H9  1  0.92821300  0.76924500  0.66282700  1
  H  H10  1  0.92821300  0.73075500  0.16282700  1
  H  H11  1  0.07178700  0.23075500  0.33717300  1
  H  H12  1  0.85623100  0.37144300  0.66427500  1
  H  H13  1  0.14376900  0.87144300  0.83572500  1
  H  H14  1  0.14376900  0.62855700  0.33572500  1
  H  H15  1  0.85623100  0.12855700  0.16427500  1
  H  H16  1  0.68410000  0.29200900  0.57814100  1
  H  H17  1  0.31590000  0.79200900  0.92185900  1
  H  H18  1  0.31590000  0.70799100  0.42185900  1
  H  H19  1  0.68410000  0.20799100  0.07814100  1
  H  H20  1  0.72380300  0.29171900  0.72662500  1
  H  H21  1  0.27619700  0.79171900  0.77337500  1
  H  H22  1  0.27619700  0.70828100  0.27337500  1
  H  H23  1  0.72380300  0.20828100  0.22662500  1
  H  H24  1  0.63633000  0.88908400  0.91247900  1
  H  H25  1  0.36367000  0.38908400  0.58752100  1
  H  H26  1  0.36367000  0.11091600  0.08752100  1
  H  H27  1  0.63633000  0.61091600  0.41247900  1
  H  H28  1  0.77099900  0.85181200  0.82732000  1
  H  H29  1  0.22900100  0.35181200  0.67268000  1
  H  H30  1  0.22900100  0.14818800  0.17268000  1
  H  H31  1  0.77099900  0.64818800  0.32732000  1
  H  H32  1  0.81230400  0.97784500  0.91346400  1
  H  H33  1  0.18769600  0.47784500  0.58653600  1
  H  H34  1  0.18769600  0.02215500  0.08653600  1
  H  H35  1  0.81230400  0.52215500  0.41346400  1
  H  H36  1  0.61808300  0.16808700  0.88433300  1
  H  H37  1  0.38191700  0.66808700  0.61566700  1
  H  H38  1  0.38191700  0.83191300  0.11566700  1
  H  H39  1  0.61808300  0.33191300  0.38433300  1
  H  H40  1  0.40995800  0.16910700  0.79526500  1
  H  H41  1  0.59004200  0.66910700  0.70473500  1
  H  H42  1  0.59004200  0.83089300  0.20473500  1
  H  H43  1  0.40995800  0.33089300  0.29526500  1
  H  H44  1  0.46958500  0.06466000  0.90462500  1
  H  H45  1  0.53041500  0.56466000  0.59537500  1
  H  H46  1  0.53041500  0.93534000  0.09537500  1
  H  H47  1  0.46958500  0.43534000  0.40462500  1
  Au  Au0  1  0.92873900  0.15513800  0.65621200  1
  Au  Au1  1  0.07126100  0.65513800  0.84378800  1
  Au  Au2  1  0.07126100  0.84486200  0.34378800  1
  Au  Au3  1  0.92873900  0.34486200  0.15621200  1
  Au  Au4  1  0.57614600  0.01226400  0.73142700  1
  Au  Au5  1  0.42385400  0.51226400  0.76857300  1
  Au  Au6  1  0.42385400  0.98773600  0.26857300  1
  Au  Au7  1  0.57614600  0.48773600  0.23142700  1
  C  C0  1  0.93357500  0.02959200  0.45294700  1
  C  C1  1  0.06642500  0.52959200  0.04705300  1
  C  C2  1  0.06642500  0.97040800  0.54705300  1
  C  C3  1  0.93357500  0.47040800  0.95294700  1
  C  C4  1  0.55619600  0.94617100  0.50450900  1
  C  C5  1  0.44380400  0.44617100  0.99549100  1
  C  C6  1  0.44380400  0.05382900  0.49549100  1
  C  C7  1  0.55619600  0.55382900  0.00450900  1
  C  C8  1  0.01682800  0.18378600  0.82213300  1
  C  C9  1  0.98317200  0.68378600  0.67786700  1
  C  C10  1  0.98317200  0.81621400  0.17786700  1
  C  C11  1  0.01682800  0.31621400  0.32213300  1
  C  C12  1  0.77966000  0.29435500  0.65702500  1
  C  C13  1  0.22034000  0.79435500  0.84297500  1
  C  C14  1  0.22034000  0.70564500  0.34297500  1
  C  C15  1  0.77966000  0.20564500  0.15702500  1
  C  C16  1  0.71586000  0.92249300  0.86300200  1
  C  C17  1  0.28414000  0.42249300  0.63699800  1
  C  C18  1  0.28414000  0.07750700  0.13699800  1
  C  C19  1  0.71586000  0.57750700  0.36300200  1
  C  C20  1  0.51086900  0.11565200  0.84370300  1
  C  C21  1  0.48913100  0.61565200  0.65629700  1
  C  C22  1  0.48913100  0.88434800  0.15629700  1
  C  C23  1  0.51086900  0.38434800  0.34370300  1
  O  O0  1  0.85113400  0.11208700  0.47863600  1
  O  O1  1  0.14886600  0.61208700  0.02136400  1
  O  O2  1  0.14886600  0.88791300  0.52136400  1
  O  O3  1  0.85113400  0.38791300  0.97863600  1
  O  O4  1  0.08664300  0.00690200  0.64491300  1
  O  O5  1  0.91335700  0.50690200  0.85508700  1
  O  O6  1  0.91335700  0.99309800  0.35508700  1
  O  O7  1  0.08664300  0.49309800  0.14491300  1
  O  O8  1  0.43224000  0.10141600  0.58411600  1
  O  O9  1  0.56776000  0.60141600  0.91588400  1
  O  O10  1  0.56776000  0.89858400  0.41588400  1
  O  O11  1  0.43224000  0.39858400  0.08411600  1
  O  O12  1  0.63202600  0.91029800  0.60006400  1
  O  O13  1  0.36797400  0.41029800  0.89993600  1
  O  O14  1  0.36797400  0.08970200  0.39993600  1
  O  O15  1  0.63202600  0.58970200  0.10006400  1
loop_
_geom_bond_atom_site_label_1
_geom_bond_atom_site_label_2
_geom_bond_distance
_geom_bond_site_symmetry_2
Au0 C8 2.046402 1_655
Au0 C12 2.051779 1_555
Au0 O4 2.205772 1_655
Au0 O0 2.210095 1_555
Au1 C9 2.046402 1_455
Au1 C13 2.051779 1_555
Au1 O5 2.205772 1_455
Au1 O1 2.210095 1_556
Au2 C10 2.046402 1_455
Au2 C14 2.051779 1_555
Au2 O6 2.205772 1_455
Au2 O2 2.210095 1_555
Au3 C11 2.046402 1_655
Au3 C15 2.051779 1_555
Au3 O7 2.205772 1_655
Au3 O3 2.210095 1_554
Au4 C20 2.037283 1_555
Au4 C16 2.044678 1_545
Au4 O12 2.182818 1_545
Au4 O8 2.187479 1_555
Au5 C21 2.037283 1_555
Au5 C17 2.044678 1_555
Au5 O13 2.182818 1_555
Au5 O9 2.187479 1_555
Au6 C22 2.037283 1_555
Au6 C18 2.044678 1_565
Au6 O14 2.182818 1_565
Au6 O10 2.187479 1_555
Au7 C23 2.037283 1_555
Au7 C19 2.044678 1_555
Au7 O15 2.182818 1_555
Au7 O11 2.187479 1_555
C0 O6 1.269237 1_545
C0 O0 1.275278 1_555
C1 O7 1.269237 1_555
C1 O1 1.275278 1_555
C2 O4 1.269237 1_565
C2 O2 1.275278 1_555
C3 O5 1.269237 1_555
C3 O3 1.275278 1_555
C4 O10 1.270249 1_555
C4 O12 1.271765 1_555
C5 O11 1.270249 1_556
C5 O13 1.271765 1_555
C6 O8 1.270249 1_555
C6 O14 1.271765 1_555
C7 O9 1.270249 1_554
C7 O15 1.271765 1_555
C8 H0 1.094449 1_455
C8 H8 1.095032 1_555
C8 H4 1.097111 1_555
C9 H1 1.094449 1_655
C9 H9 1.095032 1_555
C9 H5 1.097111 1_555
C10 H2 1.094449 1_655
C10 H10 1.095032 1_555
C10 H6 1.097111 1_555
C11 H3 1.094449 1_455
C11 H11 1.095032 1_555
C11 H7 1.097111 1_555
C12 H20 1.094381 1_555
C12 H12 1.095331 1_555
C12 H16 1.097445 1_555
C13 H21 1.094381 1_555
C13 H13 1.095331 1_555
C13 H17 1.097445 1_555
C14 H22 1.094381 1_555
C14 H14 1.095331 1_555
C14 H18 1.097445 1_555
C15 H23 1.094381 1_555
C15 H15 1.095331 1_555
C15 H19 1.097445 1_555
C16 H24 1.094692 1_555
C16 H32 1.096395 1_555
C16 H28 1.097559 1_555
C17 H25 1.094692 1_555
C17 H33 1.096395 1_555
C17 H29 1.097559 1_555
C18 H26 1.094692 1_555
C18 H34 1.096395 1_555
C18 H30 1.097559 1_555
C19 H27 1.094692 1_555
C19 H35 1.096395 1_555
C19 H31 1.097559 1_555
C20 H44 1.094763 1_555
C20 H36 1.095279 1_555
C20 H40 1.096745 1_555
C21 H45 1.094763 1_555
C21 H37 1.095279 1_555
C21 H41 1.096745 1_555
C22 H46 1.094763 1_555
C22 H38 1.095279 1_555
C22 H42 1.096745 1_555
C23 H47 1.094763 1_555
C23 H39 1.095279 1_555
C23 H43 1.096745 1_555
