# generated using pymatgen
data_LiYb(WO4)2
_symmetry_space_group_name_H-M   'P 1'
_cell_length_a   5.88071000
_cell_length_b   5.36226000
_cell_length_c   10.71362205
_cell_angle_alpha   68.05333450
_cell_angle_beta   90.00000000
_cell_angle_gamma   90.00000000
_symmetry_Int_Tables_number   1
_chemical_formula_structural   LiYb(WO4)2
_chemical_formula_sum   'Li2 Yb2 W4 O16'
_cell_volume   313.35954586
_cell_formula_units_Z   2
loop_
 _symmetry_equiv_pos_site_id
 _symmetry_equiv_pos_as_xyz
  1  'x, y, z'
loop_
 _atom_site_type_symbol
 _atom_site_label
 _atom_site_symmetry_multiplicity
 _atom_site_fract_x
 _atom_site_fract_y
 _atom_site_fract_z
 _atom_site_occupancy
  Li  Li0  1  0.59916200  0.50000000  0.25000000  1
  Li  Li1  1  0.40083800  0.50000000  0.75000000  1
  Yb  Yb0  1  0.69440200  0.00000000  0.75000000  1
  Yb  Yb1  1  0.30559800  0.00000000  0.25000000  1
  W  W0  1  0.18035400  0.26601600  0.50598900  1
  W  W1  1  0.18035400  0.73398400  0.99401100  1
  W  W2  1  0.81964600  0.73398400  0.49401100  1
  W  W3  1  0.81964600  0.26601600  0.00598900  1
  O  O0  1  0.11544600  0.64009700  0.40483000  1
  O  O1  1  0.11544600  0.35990300  0.09517000  1
  O  O2  1  0.06995100  0.89086600  0.59929900  1
  O  O3  1  0.06995100  0.10913400  0.90070100  1
  O  O4  1  0.88455400  0.35990300  0.59517000  1
  O  O5  1  0.88455400  0.64009700  0.90483000  1
  O  O6  1  0.38308300  0.76221600  0.11585300  1
  O  O7  1  0.38308300  0.23778400  0.38414700  1
  O  O8  1  0.61691700  0.23778400  0.88414700  1
  O  O9  1  0.61691700  0.76221600  0.61585300  1
  O  O10  1  0.63360900  0.26623500  0.13969600  1
  O  O11  1  0.63360900  0.73376500  0.36030400  1
  O  O12  1  0.36639100  0.73376500  0.86030400  1
  O  O13  1  0.36639100  0.26623500  0.63969600  1
  O  O14  1  0.93004900  0.89086600  0.09929900  1
  O  O15  1  0.93004900  0.10913400  0.40070100  1
loop_
_geom_bond_atom_site_label_1
_geom_bond_atom_site_label_2
_geom_bond_distance
_geom_bond_site_symmetry_2
Li0 O10 2.028829 1_555
Li0 O11 2.028829 1_555
Li0 O6 2.036351 1_555
Li0 O7 2.036351 1_555
Li1 O13 2.028829 1_555
Li1 O12 2.028829 1_555
Li1 O8 2.036351 1_555
Li1 O9 2.036351 1_555
O0 W0 1.928464 1_555
O0 W2 2.133497 1_455
O0 Yb1 2.309456 1_565
O1 W1 1.928464 1_554
O1 W3 2.133497 1_455
O1 Yb1 2.309456 1_555
O2 W0 1.991087 1_565
O2 W2 2.203661 1_455
O3 W1 1.991087 1_545
O3 W3 2.203661 1_456
O4 W2 1.928464 1_555
O4 W0 2.133497 1_655
O4 Yb0 2.309456 1_555
O5 W3 1.928464 1_556
O5 W1 2.133497 1_655
O5 Yb0 2.309456 1_565
O6 W1 1.815472 1_554
O6 Yb1 2.295373 1_565
O7 W0 1.815472 1_555
O7 Yb1 2.295373 1_555
O8 W3 1.815472 1_556
O8 Yb0 2.295373 1_555
O9 W2 1.815472 1_555
O9 Yb0 2.295373 1_565
O10 W3 1.802825 1_555
O10 Yb1 2.427831 1_555
O11 W2 1.802825 1_555
O11 Yb1 2.427831 1_565
O12 W1 1.802825 1_555
O12 Yb0 2.427831 1_565
O13 W0 1.802825 1_555
O13 Yb0 2.427831 1_555
O14 W3 1.991087 1_565
O14 W1 2.203661 1_654
O15 W2 1.991087 1_545
O15 W0 2.203661 1_655
