# generated using pymatgen
data_Er4LuNi10(B2C)5
_symmetry_space_group_name_H-M   'P 1'
_cell_length_a   3.49788100
_cell_length_b   12.56209113
_cell_length_c   7.60297442
_cell_angle_alpha   100.54732037
_cell_angle_beta   103.29906095
_cell_angle_gamma   90.00000000
_symmetry_Int_Tables_number   1
_chemical_formula_structural   Er4LuNi10(B2C)5
_chemical_formula_sum   'Er4 Lu1 Ni10 B10 C5'
_cell_volume   319.31794787
_cell_formula_units_Z   1
loop_
 _symmetry_equiv_pos_site_id
 _symmetry_equiv_pos_as_xyz
  1  'x, y, z'
loop_
 _atom_site_type_symbol
 _atom_site_label
 _atom_site_symmetry_multiplicity
 _atom_site_fract_x
 _atom_site_fract_y
 _atom_site_fract_z
 _atom_site_occupancy
  Er  Er0  1  0.40002600  0.40003800  0.80005100  1
  Er  Er1  1  0.80020700  0.80021900  0.60041400  1
  Er  Er2  1  0.19979300  0.19978100  0.39958600  1
  Er  Er3  1  0.59997400  0.59996200  0.19994900  1
  Lu  Lu0  1  0.00000000  0.00000000  0.00000000  1
  Ni  Ni0  1  0.80001100  0.54988600  0.60002200  1
  Ni  Ni1  1  0.59993600  0.34968500  0.19987200  1
  Ni  Ni2  1  0.40007900  0.14970700  0.80015800  1
  Ni  Ni3  1  0.19989000  0.94986600  0.39977900  1
  Ni  Ni4  1  0.00005300  0.75019600  0.00010600  1
  Ni  Ni5  1  0.19998900  0.45011400  0.39997800  1
  Ni  Ni6  1  0.99994700  0.24980400  0.99989400  1
  Ni  Ni7  1  0.80011000  0.05013400  0.60022100  1
  Ni  Ni8  1  0.59992100  0.85029300  0.19984200  1
  Ni  Ni9  1  0.40006400  0.65031500  0.80012800  1
  B  B0  1  0.74302200  0.38543600  0.48604400  1
  B  B1  1  0.54295000  0.18536100  0.08590100  1
  B  B2  1  0.34319800  0.98546900  0.68639700  1
  B  B3  1  0.14313400  0.78546000  0.28626800  1
  B  B4  1  0.94303200  0.58545800  0.88606300  1
  B  B5  1  0.25697800  0.61456400  0.51395600  1
  B  B6  1  0.05696800  0.41454200  0.11393700  1
  B  B7  1  0.85686600  0.21454000  0.71373200  1
  B  B8  1  0.65680200  0.01453100  0.31360300  1
  B  B9  1  0.45705000  0.81463900  0.91409900  1
  C  C0  1  0.79996500  0.29998100  0.59993100  1
  C  C1  1  0.59868400  0.09873400  0.19736800  1
  C  C2  1  0.40131600  0.90126600  0.80263200  1
  C  C3  1  0.20003500  0.70001900  0.40006900  1
  C  C4  1  0.00000000  0.50000000  0.00000000  1
loop_
_geom_bond_atom_site_label_1
_geom_bond_atom_site_label_2
_geom_bond_distance
_geom_bond_site_symmetry_2
B0 C0 1.484168 1_555
B0 Ni5 2.078244 1_555
B0 Ni5 2.078244 1_655
B0 Ni0 2.079304 1_555
B0 Ni1 2.080239 1_555
B1 C1 1.483934 1_555
B1 Ni6 2.076754 1_454
B1 Ni6 2.076757 1_554
B1 Ni2 2.077107 1_554
B1 Ni1 2.077841 1_555
B2 C2 1.483490 1_555
B2 Ni2 2.076510 1_565
B2 Ni7 2.078480 1_465
B2 Ni7 2.078480 1_565
B2 Ni3 2.083420 1_555
B3 C3 1.483574 1_555
B3 Ni3 2.078044 1_555
B3 Ni4 2.080026 1_555
B3 Ni8 2.080132 1_455
B3 Ni8 2.080132 1_555
B4 C4 1.484460 1_656
B4 Ni9 2.078884 1_655
B4 Ni9 2.078887 1_555
B4 Ni0 2.079238 1_555
B4 Ni4 2.082728 1_656
B5 C3 1.484168 1_555
B5 Ni0 2.078244 1_555
B5 Ni0 2.078244 1_455
B5 Ni5 2.079304 1_555
B5 Ni9 2.080239 1_555
B6 C4 1.484460 1_555
B6 Ni1 2.078884 1_455
B6 Ni1 2.078887 1_555
B6 Ni5 2.079238 1_555
B6 Ni6 2.082728 1_454
B7 C0 1.483574 1_555
B7 Ni7 2.078044 1_555
B7 Ni6 2.080026 1_555
B7 Ni2 2.080132 1_655
B7 Ni2 2.080132 1_555
B8 C1 1.483490 1_555
B8 Ni8 2.076510 1_545
B8 Ni3 2.078480 1_645
B8 Ni3 2.078480 1_545
B8 Ni7 2.083420 1_555
B9 C2 1.483934 1_555
B9 Ni4 2.076754 1_656
B9 Ni4 2.076757 1_556
B9 Ni8 2.077107 1_556
B9 Ni9 2.077841 1_555
C0 Er0 2.476086 1_555
C0 Er0 2.476090 1_655
C0 Er2 2.477634 1_555
C0 Er2 2.477636 1_655
C1 Lu0 2.459345 1_555
C1 Lu0 2.459346 1_655
C1 Er2 2.488835 1_655
C1 Er2 2.488835 1_555
C2 Lu0 2.459345 1_666
C2 Lu0 2.459346 1_566
C2 Er1 2.488835 1_455
C2 Er1 2.488835 1_555
C3 Er3 2.476086 1_555
C3 Er3 2.476090 1_455
C3 Er1 2.477634 1_555
C3 Er1 2.477636 1_455
C4 Er3 2.474980 1_555
C4 Er0 2.474980 1_454
C4 Er3 2.474982 1_455
C4 Er0 2.474982 1_554
