# generated using pymatgen
data_MoSe2
_symmetry_space_group_name_H-M   'P 1'
_cell_length_a   3.32112186
_cell_length_b   3.32118000
_cell_length_c   36.04449602
_cell_angle_alpha   90.00387711
_cell_angle_beta   90.00003177
_cell_angle_gamma   119.99915160
_symmetry_Int_Tables_number   1
_chemical_formula_structural   MoSe2
_chemical_formula_sum   'Mo4 Se8'
_cell_volume   344.31070488
_cell_formula_units_Z   4
loop_
 _symmetry_equiv_pos_site_id
 _symmetry_equiv_pos_as_xyz
  1  'x, y, z'
loop_
 _atom_site_type_symbol
 _atom_site_label
 _atom_site_symmetry_multiplicity
 _atom_site_fract_x
 _atom_site_fract_y
 _atom_site_fract_z
 _atom_site_occupancy
  Mo  Mo0  1  0.66660567  0.33337600  0.28333188  1
  Mo  Mo1  1  0.66670296  0.33322862  0.66030980  1
  Mo  Mo2  1  0.33331514  0.66668739  0.09519714  1
  Mo  Mo3  1  0.33335623  0.66668933  0.47220310  1
  Se  Se0  1  0.33331503  0.66671919  0.32923202  1
  Se  Se1  1  0.33341899  0.66661847  0.70615058  1
  Se  Se2  1  0.66667177  0.33342850  0.14113109  1
  Se  Se3  1  0.66676445  0.33336121  0.51810188  1
  Se  Se4  1  0.33327608  0.66670555  0.23742624  1
  Se  Se5  1  0.33330917  0.66650304  0.61440316  1
  Se  Se6  1  0.66661371  0.33333422  0.04933166  1
  Se  Se7  1  0.66665179  0.33334848  0.42629044  1
loop_
_geom_bond_atom_site_label_1
_geom_bond_atom_site_label_2
_geom_bond_distance
_geom_bond_site_symmetry_2
Mo0 Se0 2.532437 1_555
Mo0 Se0 2.532606 1_655
Mo0 Se4 2.532628 1_545
Mo0 Se0 2.532665 1_545
Mo0 Se4 2.532719 1_555
Mo0 Se4 2.532751 1_655
Mo1 Se1 2.531127 1_555
Mo1 Se1 2.531166 1_545
Mo1 Se1 2.531224 1_655
Mo1 Se5 2.532634 1_655
Mo1 Se5 2.532762 1_555
Mo1 Se5 2.532772 1_545
Mo2 Se6 2.531660 1_555
Mo2 Se6 2.531773 1_455
Mo2 Se6 2.531828 1_565
Mo2 Se2 2.533291 1_555
Mo2 Se2 2.533358 1_455
Mo2 Se2 2.533449 1_565
Mo3 Se3 2.532418 1_455
Mo3 Se3 2.532470 1_565
Mo3 Se3 2.532725 1_555
Mo3 Se7 2.532738 1_555
Mo3 Se7 2.532890 1_455
Mo3 Se7 2.532965 1_565
