# generated using pymatgen
data_EuMgPd
_symmetry_space_group_name_H-M   'P 1'
_cell_length_a   4.35516488
_cell_length_b   7.46952122
_cell_length_c   8.66574059
_cell_angle_alpha   90.07110999
_cell_angle_beta   90.00000000
_cell_angle_gamma   90.00000000
_symmetry_Int_Tables_number   1
_chemical_formula_structural   EuMgPd
_chemical_formula_sum   'Eu4 Mg4 Pd4'
_cell_volume   281.90495974
_cell_formula_units_Z   4
loop_
 _symmetry_equiv_pos_site_id
 _symmetry_equiv_pos_as_xyz
  1  'x, y, z'
loop_
 _atom_site_type_symbol
 _atom_site_label
 _atom_site_symmetry_multiplicity
 _atom_site_fract_x
 _atom_site_fract_y
 _atom_site_fract_z
 _atom_site_occupancy
  Eu  Eu0  1  0.25000000  0.03293150  0.32230494  1
  Eu  Eu1  1  0.25000000  0.53259534  0.17645171  1
  Eu  Eu2  1  0.75000000  0.96781959  0.67817545  1
  Eu  Eu3  1  0.75000000  0.46682245  0.82328102  1
  Mg  Mg0  1  0.25000000  0.13451119  0.94064477  1
  Mg  Mg1  1  0.25000000  0.63637535  0.55928560  1
  Mg  Mg2  1  0.75000000  0.86322994  0.05952845  1
  Mg  Mg3  1  0.75000000  0.36544134  0.44063966  1
  Pd  Pd0  1  0.25000000  0.27184822  0.62377821  1
  Pd  Pd1  1  0.25000000  0.77118912  0.87608065  1
  Pd  Pd2  1  0.75000000  0.72902262  0.37601579  1
  Pd  Pd3  1  0.75000000  0.22821235  0.12381375  1
loop_
_geom_bond_atom_site_label_1
_geom_bond_atom_site_label_2
_geom_bond_distance
_geom_bond_site_symmetry_2
Eu0 Pd3 3.135988 1_455
Eu0 Pd3 3.135988 1_555
Eu0 Pd0 3.162009 1_555
Eu0 Pd2 3.180294 1_545
Eu0 Pd2 3.180294 1_445
Eu1 Pd2 3.143090 1_555
Eu1 Pd2 3.143090 1_455
Eu1 Pd1 3.156417 1_554
Eu1 Pd3 3.180660 1_555
Eu1 Pd3 3.180660 1_455
Eu2 Pd1 3.137915 1_555
Eu2 Pd1 3.137915 1_655
Eu2 Pd2 3.166418 1_555
Eu2 Pd0 3.181814 1_665
Eu2 Pd0 3.181814 1_565
Eu3 Pd0 3.137754 1_555
Eu3 Pd0 3.137754 1_655
Eu3 Pd3 3.157643 1_556
Eu3 Pd1 3.180773 1_555
Eu3 Pd1 3.180773 1_655
Mg0 Pd1 2.770235 1_545
Mg0 Pd3 2.783609 1_456
Mg0 Pd3 2.783609 1_556
Mg0 Pd0 2.932443 1_555
Mg1 Pd0 2.780287 1_555
Mg1 Pd2 2.783124 1_455
Mg1 Pd2 2.783124 1_555
Mg1 Pd1 2.922952 1_555
Mg2 Pd3 2.781901 1_565
Mg2 Pd1 2.781904 1_554
Mg2 Pd1 2.781904 1_654
Mg2 Pd2 2.921232 1_555
Mg3 Pd2 2.773597 1_555
Mg3 Pd0 2.784245 1_555
Mg3 Pd0 2.784245 1_655
Mg3 Pd3 2.929446 1_555
