# generated using pymatgen
data_MgZnO2
_symmetry_space_group_name_H-M   'P 1'
_cell_length_a   5.24932938
_cell_length_b   5.24932938
_cell_length_c   5.24932875
_cell_angle_alpha   33.70470242
_cell_angle_beta   33.70470242
_cell_angle_gamma   33.70470066
_symmetry_Int_Tables_number   1
_chemical_formula_structural   MgZnO2
_chemical_formula_sum   'Mg1 Zn1 O2'
_cell_volume   39.68342558
_cell_formula_units_Z   1
loop_
 _symmetry_equiv_pos_site_id
 _symmetry_equiv_pos_as_xyz
  1  'x, y, z'
loop_
 _atom_site_type_symbol
 _atom_site_label
 _atom_site_symmetry_multiplicity
 _atom_site_fract_x
 _atom_site_fract_y
 _atom_site_fract_z
 _atom_site_occupancy
  Mg  Mg0  1  0.00000000  0.00000000  0.00000000  1
  Zn  Zn0  1  0.50000000  0.50000000  0.50000000  1
  O  O0  1  0.25291300  0.25291300  0.25291300  1
  O  O1  1  0.74708700  0.74708700  0.74708700  1
loop_
_geom_bond_atom_site_label_1
_geom_bond_atom_site_label_2
_geom_bond_distance
_geom_bond_site_symmetry_2
Mg0 O1 2.124163 1_445
Mg0 O0 2.124163 1_554
Mg0 O1 2.124164 1_544
Mg0 O1 2.124164 1_454
Mg0 O0 2.124164 1_545
Mg0 O0 2.124164 1_455
O0 Zn0 2.173912 1_554
O0 Zn0 2.173912 1_455
O0 Zn0 2.173912 1_545
O1 Zn0 2.173912 1_556
O1 Zn0 2.173912 1_655
O1 Zn0 2.173912 1_565
