# generated using pymatgen
data_Gd3Y3Fe23
_symmetry_space_group_name_H-M   'P 1'
_cell_length_a   8.50534058
_cell_length_b   8.50534058
_cell_length_c   8.52566786
_cell_angle_alpha   90.00000000
_cell_angle_beta   60.07883889
_cell_angle_gamma   120.00000000
_symmetry_Int_Tables_number   1
_chemical_formula_structural   Gd3Y3Fe23
_chemical_formula_sum   'Gd3 Y3 Fe23'
_cell_volume   436.62975618
_cell_formula_units_Z   1
loop_
 _symmetry_equiv_pos_site_id
 _symmetry_equiv_pos_as_xyz
  1  'x, y, z'
loop_
 _atom_site_type_symbol
 _atom_site_label
 _atom_site_symmetry_multiplicity
 _atom_site_fract_x
 _atom_site_fract_y
 _atom_site_fract_z
 _atom_site_occupancy
  Gd  Gd0  1  0.57800600  0.28900300  0.71089500  1
  Gd  Gd1  1  0.00010200  0.71109900  0.71089500  1
  Gd  Gd2  1  0.00010200  0.28900300  0.71089500  1
  Y  Y0  1  0.42309400  0.71154700  0.28824100  1
  Y  Y1  1  0.00021100  0.28866400  0.28824100  1
  Y  Y2  1  0.00021100  0.71154700  0.28824100  1
  Fe  Fe0  1  0.64752500  0.32376300  0.02871200  1
  Fe  Fe1  1  0.35184500  0.32425000  0.32390500  1
  Fe  Fe2  1  0.35184500  0.02759500  0.32390500  1
  Fe  Fe3  1  0.64850000  0.32425000  0.32390500  1
  Fe  Fe4  1  0.35116200  0.67558100  0.97325800  1
  Fe  Fe5  1  0.64799600  0.67602700  0.67597800  1
  Fe  Fe6  1  0.64799600  0.97196900  0.67597800  1
  Fe  Fe7  1  0.35205300  0.67602700  0.67597800  1
  Fe  Fe8  1  0.99946600  0.99973300  0.00080200  1
  Fe  Fe9  1  0.24379000  0.12189500  0.63431500  1
  Fe  Fe10  1  0.75652100  0.12180700  0.12167200  1
  Fe  Fe11  1  0.75652100  0.63471400  0.12167200  1
  Fe  Fe12  1  0.24361400  0.12180700  0.12167200  1
  Fe  Fe13  1  0.75630700  0.87815400  0.36553900  1
  Fe  Fe14  1  0.24352500  0.87817400  0.87830100  1
  Fe  Fe15  1  0.24352500  0.36535100  0.87830100  1
  Fe  Fe16  1  0.75634800  0.87817400  0.87830100  1
  Fe  Fe17  1  0.00021500  0.00010800  0.49902000  1
  Fe  Fe18  1  0.50087200  0.50076400  0.49902000  1
  Fe  Fe19  1  0.50087200  0.00010800  0.49902000  1
  Fe  Fe20  1  0.00008000  0.50004000  0.00111200  1
  Fe  Fe21  1  0.49884800  0.99880800  0.00111200  1
  Fe  Fe22  1  0.49884800  0.50004000  0.00111200  1
loop_
_geom_bond_atom_site_label_1
_geom_bond_atom_site_label_2
_geom_bond_distance
_geom_bond_site_symmetry_2
Fe0 Fe22 2.468830 1_555
Fe0 Fe21 2.468838 1_545
Fe0 Fe20 2.468838 1_655
Fe0 Fe1 2.520857 1_555
Fe0 Fe3 2.520861 1_555
Fe0 Fe2 2.520861 1_555
Fe0 Fe11 2.600652 1_555
Fe0 Fe12 2.600652 1_555
Fe0 Fe10 2.600659 1_555
Fe0 Gd0 3.033558 1_554
Fe0 Gd1 3.033558 1_654
Fe0 Gd2 3.033563 1_654
Fe1 Fe22 2.463802 1_555
Fe1 Fe18 2.464638 1_555
Fe1 Fe17 2.464641 1_555
Fe1 Fe3 2.523152 1_555
Fe1 Fe2 2.523152 1_555
Fe1 Fe12 2.604472 1_555
Fe1 Fe11 2.604472 1_555
Fe1 Fe9 2.608133 1_555
Fe1 Y0 3.021705 1_555
Fe1 Y1 3.021710 1_555
Fe1 Gd2 3.030153 1_555
Fe2 Fe21 2.463802 1_545
Fe2 Fe3 2.523152 1_555
Fe2 Fe9 2.608133 1_555
Fe2 Y0 3.021705 1_545
Fe2 Y2 3.021710 1_545
Fe2 Gd1 3.030153 1_545
Fe3 Fe9 2.608133 1_555
Fe3 Y1 3.021702 1_655
Fe3 Y2 3.021702 1_655
Fe3 Gd0 3.030153 1_555
Fe4 Fe5 2.530732 1_555
Fe4 Fe6 2.530732 1_555
Fe4 Fe7 2.530736 1_555
Fe4 Y0 3.021816 1_556
Fe4 Y2 3.021826 1_556
Fe4 Y1 3.021826 1_556
Fe5 Fe6 2.517088 1_555
Fe5 Fe7 2.517096 1_555
Fe5 Gd1 3.023635 1_655
Fe5 Gd0 3.023640 1_555
Fe5 Y2 3.034620 1_655
Fe6 Fe7 2.517092 1_555
Fe6 Gd2 3.023635 1_665
Fe6 Gd0 3.023640 1_565
Fe6 Y1 3.034620 1_665
Fe7 Gd1 3.023635 1_555
Fe7 Gd2 3.023640 1_555
Fe7 Y0 3.034623 1_555
Fe8 Fe9 2.554217 1_664
Fe9 Gd1 2.887586 1_545
Fe9 Gd2 2.887586 1_555
Fe9 Gd0 2.887586 1_555
Fe10 Fe8 2.535909 1_545
Fe10 Fe3 2.604472 1_555
Fe10 Fe2 2.604472 1_555
Fe10 Fe21 2.628411 1_545
Fe10 Fe20 2.628411 1_655
Fe10 Fe19 2.630601 1_555
Fe10 Y1 2.884726 1_655
Fe10 Y0 2.884734 1_545
Fe10 Gd2 2.897417 1_654
Fe10 Fe15 2.932430 1_654
Fe10 Fe16 2.932430 1_544
Fe10 Fe13 2.934259 1_545
Fe11 Fe8 2.535909 1_555
Fe11 Fe3 2.604472 1_555
Fe11 Fe22 2.628411 1_555
Fe11 Fe20 2.628411 1_655
Fe11 Fe18 2.630601 1_555
Fe11 Y2 2.884726 1_655
Fe11 Y0 2.884734 1_555
Fe11 Gd1 2.897417 1_654
Fe11 Fe14 2.932430 1_654
Fe11 Fe16 2.932430 1_554
Fe11 Fe13 2.934265 1_555
Fe12 Fe8 2.535902 1_445
Fe12 Fe2 2.604472 1_555
Fe12 Fe21 2.628411 1_545
Fe12 Fe22 2.628411 1_555
Fe12 Fe17 2.630601 1_555
Fe12 Y2 2.884733 1_545
Fe12 Y1 2.884733 1_555
Fe12 Gd0 2.897417 1_554
Fe12 Fe15 2.932430 1_554
Fe12 Fe14 2.932430 1_544
Fe12 Fe13 2.934265 1_445
Fe13 Fe8 2.542021 1_555
Fe13 Fe7 2.606347 1_555
Fe13 Fe6 2.606347 1_555
Fe13 Fe5 2.606351 1_555
Fe13 Fe19 2.622596 1_565
Fe13 Fe17 2.622596 1_665
Fe13 Fe18 2.622603 1_555
Fe13 Y1 2.884714 1_665
Fe13 Y0 2.884721 1_555
Fe13 Y2 2.884721 1_655
Fe14 Fe8 2.540091 1_456
Fe14 Fe4 2.603760 1_555
Fe14 Fe7 2.604262 1_555
Fe14 Fe6 2.604269 1_555
Fe14 Fe20 2.627764 1_556
Fe14 Fe21 2.627764 1_556
Fe14 Fe19 2.644213 1_565
Fe14 Gd1 2.889417 1_555
Fe14 Gd0 2.889417 1_565
Fe14 Y2 2.890996 1_556
Fe14 Fe9 2.935080 1_565
Fe15 Fe8 2.540091 1_446
Fe15 Fe4 2.603760 1_555
Fe15 Fe5 2.604269 1_555
Fe15 Fe7 2.604269 1_555
Fe15 Fe22 2.627764 1_556
Fe15 Fe20 2.627764 1_556
Fe15 Fe18 2.644213 1_555
Fe15 Gd2 2.889417 1_555
Fe15 Gd0 2.889417 1_555
Fe15 Y1 2.890996 1_556
Fe15 Fe9 2.935080 1_555
Fe16 Fe8 2.540098 1_556
Fe16 Fe4 2.603753 1_555
Fe16 Fe5 2.604262 1_555
Fe16 Fe6 2.604262 1_555
Fe16 Fe22 2.627764 1_556
Fe16 Fe21 2.627764 1_556
Fe16 Fe17 2.644213 1_665
Fe16 Gd1 2.889417 1_655
Fe16 Gd2 2.889417 1_665
Fe16 Y0 2.890997 1_556
Fe16 Fe9 2.935080 1_665
Fe17 Fe2 2.464646 1_555
Fe17 Fe6 2.466182 1_445
Fe17 Fe5 2.466186 1_445
Fe17 Fe9 2.633133 1_555
Fe17 Y1 3.041857 1_555
Fe17 Y2 3.041864 1_545
Fe17 Gd2 3.049789 1_555
Fe17 Gd1 3.049796 1_545
Fe18 Fe3 2.464638 1_555
Fe18 Fe5 2.466196 1_555
Fe18 Fe7 2.466196 1_555
Fe18 Fe9 2.633126 1_555
Fe18 Y2 3.041857 1_655
Fe18 Y0 3.041864 1_555
Fe18 Gd2 3.049790 1_555
Fe18 Gd0 3.049790 1_555
Fe19 Fe2 2.464638 1_555
Fe19 Fe3 2.464638 1_555
Fe19 Fe7 2.466189 1_545
Fe19 Fe6 2.466196 1_545
Fe19 Fe9 2.633126 1_555
Fe19 Y1 3.041857 1_655
Fe19 Y0 3.041864 1_545
Fe19 Gd1 3.049790 1_545
Fe19 Gd0 3.049790 1_555
Fe20 Fe4 2.456917 1_554
Fe20 Fe3 2.463802 1_455
Fe20 Fe7 2.475235 1_554
Fe20 Y2 3.037999 1_555
Fe20 Y1 3.037999 1_555
Fe20 Gd1 3.056766 1_554
Fe20 Gd2 3.056766 1_554
Fe21 Fe4 2.456909 1_554
Fe21 Fe6 2.475235 1_554
Fe21 Y0 3.038000 1_555
Fe21 Y2 3.038005 1_555
Fe21 Gd0 3.056766 1_564
Fe21 Gd2 3.056766 1_664
Fe22 Fe4 2.456909 1_554
Fe22 Fe5 2.475235 1_554
Fe22 Y0 3.038000 1_555
Fe22 Y1 3.038005 1_555
Fe22 Gd0 3.056766 1_554
Fe22 Gd1 3.056766 1_654
