# generated using pymatgen
data_Cu2Te2Pb(ClO3)2
_symmetry_space_group_name_H-M   'P 1'
_cell_length_a   7.32950381
_cell_length_b   7.34228000
_cell_length_c   8.40460231
_cell_angle_alpha   90.00000000
_cell_angle_beta   96.32774222
_cell_angle_gamma   90.00000000
_symmetry_Int_Tables_number   1
_chemical_formula_structural   Cu2Te2Pb(ClO3)2
_chemical_formula_sum   'Cu4 Te4 Pb2 Cl4 O12'
_cell_volume   449.54041627
_cell_formula_units_Z   2
loop_
 _symmetry_equiv_pos_site_id
 _symmetry_equiv_pos_as_xyz
  1  'x, y, z'
loop_
 _atom_site_type_symbol
 _atom_site_label
 _atom_site_symmetry_multiplicity
 _atom_site_fract_x
 _atom_site_fract_y
 _atom_site_fract_z
 _atom_site_occupancy
  Cu  Cu0  1  0.63814400  0.09054400  0.91183000  1
  Cu  Cu1  1  0.36185600  0.59054400  0.08817000  1
  Cu  Cu2  1  0.68092800  0.60841500  0.41249700  1
  Cu  Cu3  1  0.31907200  0.10841500  0.58750300  1
  Te  Te0  1  0.12782000  0.45842100  0.38800700  1
  Te  Te1  1  0.87218000  0.95842100  0.61199300  1
  Te  Te2  1  0.64662400  0.22920800  0.23329000  1
  Te  Te3  1  0.35337600  0.72920800  0.76671000  1
  Pb  Pb0  1  0.87359300  0.59996300  0.93899200  1
  Pb  Pb1  1  0.12640700  0.09996300  0.06100800  1
  Cl  Cl0  1  0.44918600  0.82428200  0.37859500  1
  Cl  Cl1  1  0.55081400  0.32428200  0.62140500  1
  Cl  Cl2  1  0.89202200  0.84178300  0.22825400  1
  Cl  Cl3  1  0.10797800  0.34178300  0.77174600  1
  O  O0  1  0.53982100  0.47099300  0.24220100  1
  O  O1  1  0.46017900  0.97099300  0.75779900  1
  O  O2  1  0.14565200  0.47479300  0.16310800  1
  O  O3  1  0.85434800  0.97479300  0.83689200  1
  O  O4  1  0.86827800  0.41775300  0.37633300  1
  O  O5  1  0.13172200  0.91775300  0.62366700  1
  O  O6  1  0.79585900  0.25495300  0.05788100  1
  O  O7  1  0.20414100  0.75495300  0.94211900  1
  O  O8  1  0.19148700  0.20869600  0.39162500  1
  O  O9  1  0.80851300  0.70869600  0.60837500  1
  O  O10  1  0.46285900  0.15089600  0.06348100  1
  O  O11  1  0.53714100  0.65089600  0.93651900  1
loop_
_geom_bond_atom_site_label_1
_geom_bond_atom_site_label_2
_geom_bond_distance
_geom_bond_site_symmetry_2
Cu0 O1 1.943096 1_545
Cu0 O10 1.957657 1_556
Cu0 O3 1.962179 1_545
Cu0 O6 1.996854 1_556
Cu1 O0 1.943096 1_555
Cu1 O11 1.957657 1_554
Cu1 O2 1.962179 1_555
Cu1 O7 1.996854 1_554
Cu2 O9 1.946144 1_555
Cu2 O0 1.951911 1_555
Cu2 O4 2.007415 1_555
Cu3 O8 1.946144 1_555
Cu3 O1 1.951911 1_545
Cu3 O5 2.007415 1_545
Cl0 Cu2 2.317687 1_555
Cl0 Cu3 2.951872 1_565
Cl1 Cu3 2.317687 1_555
Cl1 Cu2 2.951872 1_555
Cl2 Cu2 2.873279 1_555
Cl2 Pb0 3.001449 1_554
Cl2 Pb1 3.008785 1_665
Cl3 Cu3 2.873279 1_555
Cl3 Pb1 3.001449 1_556
Cl3 Pb0 3.008785 1_455
O0 Te2 1.944956 1_555
O1 Te3 1.944956 1_555
O2 Te0 1.912798 1_555
O2 Pb0 2.746073 1_454
O2 Pb1 2.881607 1_555
O3 Te1 1.912798 1_555
O3 Pb1 2.746073 1_666
O3 Pb0 2.881607 1_555
O4 Te0 1.917405 1_655
O4 Te2 2.360211 1_555
O5 Te1 1.917405 1_455
O5 Te3 2.360211 1_555
O6 Te2 1.939335 1_555
O6 Pb1 2.674207 1_655
O6 Pb0 2.804539 1_554
O7 Te3 1.939335 1_555
O7 Pb0 2.674207 1_455
O7 Pb1 2.804539 1_566
O8 Te0 1.891419 1_555
O8 Pb1 2.879917 1_555
O9 Te1 1.891419 1_555
O9 Pb0 2.879917 1_555
O10 Te2 1.938524 1_555
O10 Pb1 2.492041 1_555
O11 Te3 1.938524 1_555
O11 Pb0 2.492041 1_555
