# generated using pymatgen
data_Li7Mn2(CoO4)3
_symmetry_space_group_name_H-M   'P 1'
_cell_length_a   3.02607900
_cell_length_b   5.10142941
_cell_length_c   14.76727832
_cell_angle_alpha   95.56955678
_cell_angle_beta   94.08934704
_cell_angle_gamma   103.90016890
_symmetry_Int_Tables_number   1
_chemical_formula_structural   Li7Mn2(CoO4)3
_chemical_formula_sum   'Li7 Mn2 Co3 O12'
_cell_volume   219.18781321
_cell_formula_units_Z   1
loop_
 _symmetry_equiv_pos_site_id
 _symmetry_equiv_pos_as_xyz
  1  'x, y, z'
loop_
 _atom_site_type_symbol
 _atom_site_label
 _atom_site_symmetry_multiplicity
 _atom_site_fract_x
 _atom_site_fract_y
 _atom_site_fract_z
 _atom_site_occupancy
  Li  Li0  1  0.33322000  0.58308300  0.08481600  1
  Li  Li1  1  0.00491200  0.74848100  0.25111300  1
  Li  Li2  1  0.66778400  0.90892500  0.41610500  1
  Li  Li3  1  0.33280600  0.09029600  0.58369900  1
  Li  Li4  1  0.99425300  0.25240700  0.74741300  1
  Li  Li5  1  0.66673500  0.41545700  0.91718300  1
  Li  Li6  1  0.99969100  0.49913100  0.49915700  1
  Mn  Mn0  1  0.00542900  0.00099300  0.00170400  1
  Mn  Mn1  1  0.32728700  0.83174000  0.83020200  1
  Co  Co0  1  0.67481800  0.16772000  0.17107900  1
  Co  Co1  1  0.34280700  0.34131000  0.34058700  1
  Co  Co2  1  0.65148200  0.65934200  0.65752200  1
  O  O0  1  0.69709100  0.28097100  0.04864800  1
  O  O1  1  0.32214200  0.43733100  0.21732300  1
  O  O2  1  0.00691000  0.59826800  0.37165400  1
  O  O3  1  0.67479300  0.78897300  0.55316500  1
  O  O4  1  0.34617100  0.93749800  0.70874200  1
  O  O5  1  0.02509200  0.11445400  0.87823300  1
  O  O6  1  0.01319700  0.88948000  0.12402700  1
  O  O7  1  0.64850300  0.06243300  0.28972800  1
  O  O8  1  0.32519100  0.21010600  0.44491700  1
  O  O9  1  0.98849000  0.40207200  0.62689100  1
  O  O10  1  0.64407000  0.55910400  0.78204700  1
  O  O11  1  0.30712600  0.72042700  0.95404500  1
loop_
_geom_bond_atom_site_label_1
_geom_bond_atom_site_label_2
_geom_bond_distance
_geom_bond_site_symmetry_2
Li0 O6 2.085149 1_555
Li0 O11 2.119879 1_554
Li0 O0 2.147661 1_555
Li0 O0 2.152734 1_455
Li0 O1 2.159332 1_555
Li0 O6 2.263080 1_655
Li1 O2 2.005329 1_555
Li1 O6 2.073680 1_555
Li1 O1 2.082487 1_555
Li1 O7 2.189495 1_465
Li1 O7 2.202033 1_565
Li1 O1 2.271758 1_455
Li2 O8 2.077937 1_565
Li2 O7 2.095147 1_565
Li2 O2 2.161282 1_655
Li2 O3 2.170718 1_555
Li2 O8 2.187034 1_665
Li2 O2 2.242760 1_555
Li3 O4 2.074332 1_545
Li3 O3 2.081714 1_545
Li3 O9 2.171686 1_455
Li3 O3 2.190411 1_445
Li3 O8 2.194868 1_555
Li3 O9 2.231530 1_555
Li4 O9 2.004148 1_555
Li4 O5 2.122685 1_655
Li4 O10 2.133312 1_555
Li4 O4 2.184405 1_645
Li4 O10 2.190728 1_655
Li4 O4 2.213929 1_545
Li5 O0 2.124022 1_556
Li5 O5 2.140623 1_655
Li5 O11 2.152787 1_555
Li5 O5 2.166925 1_555
Li5 O11 2.169964 1_655
Li5 O10 2.193759 1_555
Li6 O9 1.996678 1_555
Li6 O2 1.996711 1_655
Li6 O8 2.089690 1_655
Li6 O3 2.090544 1_555
Li6 O8 2.252386 1_555
Li6 O3 2.254608 1_655
Mn0 O6 1.946024 1_545
Mn0 O5 1.966439 1_554
Mn0 O11 1.975180 1_544
Mn0 O0 1.982809 1_455
Mn0 O0 2.250752 1_555
Mn0 O11 2.269008 1_444
Mn1 O4 1.923307 1_555
Mn1 O11 1.967646 1_555
Mn1 O10 1.976074 1_555
Mn1 O5 1.986712 1_565
Mn1 O10 2.220651 1_455
Mn1 O5 2.273029 1_665
Co0 O7 1.883292 1_555
Co0 O0 1.951543 1_555
Co0 O1 2.030746 1_555
Co0 O6 2.038234 1_645
Co0 O1 2.127819 1_655
Co0 O6 2.179627 1_545
Co1 O8 1.737597 1_555
Co1 O2 1.884657 1_555
Co1 O1 1.931014 1_555
Co1 O7 1.991935 1_555
Co1 O2 2.110330 1_655
Co1 O7 2.265780 1_455
Co2 O3 1.734388 1_555
Co2 O9 1.887000 1_555
Co2 O10 1.956125 1_555
Co2 O4 1.990089 1_555
Co2 O9 2.107711 1_455
Co2 O4 2.266386 1_655
