# generated using pymatgen
data_PdRh(NO)10
_symmetry_space_group_name_H-M   'P 1'
_cell_length_a   9.88191700
_cell_length_b   8.02585300
_cell_length_c   10.78535546
_cell_angle_alpha   70.83710954
_cell_angle_beta   90.00000000
_cell_angle_gamma   90.00000000
_symmetry_Int_Tables_number   1
_chemical_formula_structural   PdRh(NO)10
_chemical_formula_sum   'Pd2 Rh2 N20 O20'
_cell_volume   807.99715096
_cell_formula_units_Z   2
loop_
 _symmetry_equiv_pos_site_id
 _symmetry_equiv_pos_as_xyz
  1  'x, y, z'
loop_
 _atom_site_type_symbol
 _atom_site_label
 _atom_site_symmetry_multiplicity
 _atom_site_fract_x
 _atom_site_fract_y
 _atom_site_fract_z
 _atom_site_occupancy
  Pd  Pd0  1  0.25000000  0.69174700  0.23145000  1
  Pd  Pd1  1  0.75000000  0.30825300  0.76855000  1
  Rh  Rh0  1  0.75000000  0.10890200  0.34357300  1
  Rh  Rh1  1  0.25000000  0.89109800  0.65642700  1
  N  N0  1  0.75000000  0.53256200  0.22849600  1
  N  N1  1  0.25000000  0.46743800  0.77150400  1
  N  N2  1  0.60208800  0.18942300  0.46656200  1
  N  N3  1  0.10208800  0.81057700  0.53343800  1
  N  N4  1  0.39791200  0.81057700  0.53343800  1
  N  N5  1  0.89791200  0.18942300  0.46656200  1
  N  N6  1  0.60350900  0.17255600  0.18114400  1
  N  N7  1  0.10350900  0.82744400  0.81885600  1
  N  N8  1  0.39649100  0.82744400  0.81885600  1
  N  N9  1  0.89649100  0.17255600  0.18114400  1
  N  N10  1  0.25000000  0.91102700  0.09598200  1
  N  N11  1  0.75000000  0.08897300  0.90401800  1
  N  N12  1  0.04432600  0.68834400  0.24560700  1
  N  N13  1  0.54432600  0.31165600  0.75439300  1
  N  N14  1  0.95567400  0.31165600  0.75439300  1
  N  N15  1  0.45567400  0.68834400  0.24560700  1
  N  N16  1  0.25000000  0.51592900  0.15095500  1
  N  N17  1  0.75000000  0.48407100  0.84904500  1
  N  N18  1  0.75000000  0.89045100  0.40667800  1
  N  N19  1  0.25000000  0.10954900  0.59332200  1
  O  O0  1  0.75000000  0.60375100  0.11104400  1
  O  O1  1  0.25000000  0.39624900  0.88895600  1
  O  O2  1  0.75000000  0.58388400  0.32221500  1
  O  O3  1  0.25000000  0.41611600  0.67778500  1
  O  O4  1  0.52360800  0.30939900  0.41505000  1
  O  O5  1  0.02360800  0.69060100  0.58495000  1
  O  O6  1  0.47639200  0.69060100  0.58495000  1
  O  O7  1  0.97639200  0.30939900  0.41505000  1
  O  O8  1  0.60919700  0.10213500  0.58408300  1
  O  O9  1  0.10919700  0.89786500  0.41591700  1
  O  O10  1  0.39080300  0.89786500  0.41591700  1
  O  O11  1  0.89080300  0.10213500  0.58408300  1
  O  O12  1  0.53916300  0.30887500  0.16053500  1
  O  O13  1  0.03916300  0.69112500  0.83946500  1
  O  O14  1  0.46083700  0.69112500  0.83946500  1
  O  O15  1  0.96083700  0.30887500  0.16053500  1
  O  O16  1  0.59887800  0.06524200  0.12324600  1
  O  O17  1  0.09887800  0.93475800  0.87675400  1
  O  O18  1  0.40112200  0.93475800  0.87675400  1
  O  O19  1  0.90112200  0.06524200  0.12324600  1
loop_
_geom_bond_atom_site_label_1
_geom_bond_atom_site_label_2
_geom_bond_distance
_geom_bond_site_symmetry_2
N0 O0 1.206635 1_555
N0 O2 1.210249 1_555
N1 O1 1.206635 1_555
N1 O3 1.210249 1_555
N2 O4 1.219056 1_555
N2 O8 1.232613 1_555
N2 Rh0 2.208258 1_555
N3 O5 1.219056 1_555
N3 O9 1.232613 1_555
N3 Rh1 2.208258 1_555
N4 O6 1.219056 1_555
N4 O10 1.232613 1_555
N4 Rh1 2.208258 1_555
N5 O7 1.219056 1_555
N5 O11 1.232613 1_555
N5 Rh0 2.208258 1_555
N6 O16 1.219401 1_555
N6 O12 1.221096 1_555
N6 Rh0 2.199547 1_555
N7 O17 1.219401 1_555
N7 O13 1.221096 1_555
N7 Rh1 2.199547 1_555
N8 O18 1.219401 1_555
N8 O14 1.221096 1_555
N8 Rh1 2.199547 1_555
N9 O19 1.219401 1_555
N9 O15 1.221096 1_555
N9 Rh0 2.199547 1_555
N10 Pd0 1.882522 1_555
N11 Pd1 1.882522 1_555
N12 Pd0 2.037692 1_555
N13 Pd1 2.037692 1_555
N14 Pd1 2.037692 1_555
N15 Pd0 2.037692 1_555
N16 Pd0 1.883919 1_555
N17 Pd1 1.883919 1_555
N18 Rh0 1.659438 1_565
N19 Rh1 1.659438 1_545
