# generated using pymatgen
data_MgU2(PO11)2
_symmetry_space_group_name_H-M   'P 1'
_cell_length_a   19.08936700
_cell_length_b   6.96704000
_cell_length_c   9.55776804
_cell_angle_alpha   46.87061105
_cell_angle_beta   90.00000000
_cell_angle_gamma   90.00000000
_symmetry_Int_Tables_number   1
_chemical_formula_structural   MgU2(PO11)2
_chemical_formula_sum   'Mg2 U4 P4 O44'
_cell_volume   927.69911632
_cell_formula_units_Z   2
loop_
 _symmetry_equiv_pos_site_id
 _symmetry_equiv_pos_as_xyz
  1  'x, y, z'
loop_
 _atom_site_type_symbol
 _atom_site_label
 _atom_site_symmetry_multiplicity
 _atom_site_fract_x
 _atom_site_fract_y
 _atom_site_fract_z
 _atom_site_occupancy
  Mg  Mg0  1  0.00000000  0.50000000  0.50000000  1
  Mg  Mg1  1  0.50000000  0.50000000  0.00000000  1
  U  U0  1  0.80125200  0.08020200  0.97175800  1
  U  U1  1  0.30125200  0.91979800  0.52824200  1
  U  U2  1  0.19874800  0.91979800  0.02824200  1
  U  U3  1  0.69874800  0.08020200  0.47175800  1
  P  P0  1  0.75125500  0.58083800  0.47065500  1
  P  P1  1  0.25125500  0.41916200  0.02934500  1
  P  P2  1  0.24874500  0.41916200  0.52934500  1
  P  P3  1  0.74874500  0.58083800  0.97065500  1
  O  O0  1  0.89698100  0.08318100  0.97097400  1
  O  O1  1  0.39698100  0.91681900  0.52902600  1
  O  O2  1  0.10301900  0.91681900  0.02902600  1
  O  O3  1  0.60301900  0.08318100  0.47097400  1
  O  O4  1  0.70656300  0.08123400  0.97167400  1
  O  O5  1  0.20656300  0.91876600  0.52832600  1
  O  O6  1  0.29343700  0.91876600  0.02832600  1
  O  O7  1  0.79343700  0.08123400  0.47167400  1
  O  O8  1  0.79955500  0.77958900  0.29711100  1
  O  O9  1  0.29955500  0.22041100  0.20288900  1
  O  O10  1  0.20044500  0.22041100  0.70288900  1
  O  O11  1  0.70044500  0.77958900  0.79711100  1
  O  O12  1  0.79643200  0.43002000  0.94295100  1
  O  O13  1  0.29643200  0.56998000  0.55704900  1
  O  O14  1  0.20356800  0.56998000  0.05704900  1
  O  O15  1  0.70356800  0.43002000  0.44295100  1
  O  O16  1  0.79918000  0.37985200  0.64860100  1
  O  O17  1  0.29918000  0.62014800  0.85139900  1
  O  O18  1  0.20082000  0.62014800  0.35139900  1
  O  O19  1  0.70082000  0.37985200  0.14860100  1
  O  O20  1  0.79603200  0.72523700  0.00535600  1
  O  O21  1  0.29603200  0.27476300  0.49464400  1
  O  O22  1  0.20396800  0.27476300  0.99464400  1
  O  O23  1  0.70396800  0.72523700  0.50535600  1
  O  O24  1  0.07356900  0.76285700  0.39961400  1
  O  O25  1  0.57356900  0.23714300  0.10038600  1
  O  O26  1  0.92643100  0.23714300  0.60038600  1
  O  O27  1  0.42643100  0.76285700  0.89961400  1
  O  O28  1  0.57971100  0.76688100  0.15328500  1
  O  O29  1  0.07971100  0.23311900  0.34671500  1
  O  O30  1  0.42028900  0.23311900  0.84671500  1
  O  O31  1  0.92028900  0.76688100  0.65328500  1
  O  O32  1  0.57085800  0.77313500  0.02217500  1
  O  O33  1  0.07085800  0.22686500  0.47782500  1
  O  O34  1  0.42914200  0.22686500  0.97782500  1
  O  O35  1  0.92914200  0.77313500  0.52217500  1
  O  O36  1  0.55774200  0.49918800  0.61872400  1
  O  O37  1  0.05774200  0.50081200  0.88127600  1
  O  O38  1  0.44225800  0.50081200  0.38127600  1
  O  O39  1  0.94225800  0.49918800  0.11872400  1
  O  O40  1  0.97028600  0.61744300  0.15780900  1
  O  O41  1  0.47028600  0.38255700  0.34219100  1
  O  O42  1  0.02971400  0.38255700  0.84219100  1
  O  O43  1  0.52971400  0.61744300  0.65780900  1
loop_
_geom_bond_atom_site_label_1
_geom_bond_atom_site_label_2
_geom_bond_distance
_geom_bond_site_symmetry_2
Mg0 O26 1.960658 1_455
Mg0 O24 1.960658 1_555
Mg0 O35 2.459102 1_455
Mg0 O33 2.459102 1_555
Mg1 O27 1.960658 1_554
Mg1 O25 1.960658 1_555
Mg1 O34 2.459102 1_554
Mg1 O32 2.459102 1_555
O0 U0 1.827481 1_555
O1 U1 1.827481 1_555
O2 U2 1.827481 1_555
O3 U3 1.827481 1_555
O4 U0 1.807565 1_555
O5 U1 1.807565 1_555
O6 U2 1.807565 1_555
O7 U3 1.807565 1_555
O8 P0 1.542199 1_555
O8 U0 2.269908 1_564
O9 P1 1.542199 1_555
O9 U1 2.269908 1_545
O10 P2 1.542199 1_555
O10 U2 2.269908 1_546
O11 P3 1.542199 1_555
O11 U3 2.269908 1_565
O12 P3 1.543791 1_555
O12 U0 2.259800 1_555
O13 P2 1.543791 1_555
O13 U1 2.259800 1_555
O14 P1 1.543791 1_555
O14 U2 2.259800 1_555
O15 P0 1.543791 1_555
O15 U3 2.259800 1_555
O16 P0 1.560151 1_555
O16 U0 2.254613 1_555
O17 P1 1.560151 1_556
O17 U1 2.254613 1_555
O18 P2 1.560151 1_555
O18 U2 2.254613 1_555
O19 P3 1.560151 1_554
O19 U3 2.254613 1_555
O20 P3 1.546982 1_554
O20 U0 2.267865 1_564
O21 P2 1.546982 1_555
O21 U1 2.267865 1_545
O22 P1 1.546982 1_556
O22 U2 2.267865 1_546
O23 P0 1.546982 1_555
O23 U3 2.267865 1_565
O28 O32 1.235359 1_555
O29 O33 1.235359 1_555
O30 O34 1.235359 1_555
O31 O35 1.235359 1_555
O36 O43 1.235082 1_555
O37 O42 1.235082 1_555
O38 O41 1.235082 1_555
O39 O40 1.235082 1_555
