# generated using pymatgen
data_Ba2YTaO6
_symmetry_space_group_name_H-M   'P 1'
_cell_length_a   6.02546400
_cell_length_b   6.04146330
_cell_length_c   6.02546400
_cell_angle_alpha   119.91243522
_cell_angle_beta   90.00000000
_cell_angle_gamma   119.91243522
_symmetry_Int_Tables_number   1
_chemical_formula_structural   Ba2YTaO6
_chemical_formula_sum   'Ba2 Y1 Ta1 O6'
_cell_volume   155.50834732
_cell_formula_units_Z   1
loop_
 _symmetry_equiv_pos_site_id
 _symmetry_equiv_pos_as_xyz
  1  'x, y, z'
loop_
 _atom_site_type_symbol
 _atom_site_label
 _atom_site_symmetry_multiplicity
 _atom_site_fract_x
 _atom_site_fract_y
 _atom_site_fract_z
 _atom_site_occupancy
  Ba  Ba0  1  0.25000000  0.50000000  0.75000000  1
  Ba  Ba1  1  0.75000000  0.50000000  0.25000000  1
  Y  Y0  1  0.00000000  0.00000000  0.00000000  1
  Ta  Ta0  1  0.50000000  0.00000000  0.50000000  1
  O  O0  1  0.76140500  0.00000000  0.29101100  1
  O  O1  1  0.29101100  0.00000000  0.23859500  1
  O  O2  1  0.70898900  0.00000000  0.76140500  1
  O  O3  1  0.23859500  0.00000000  0.70898900  1
  O  O4  1  0.26449800  0.52899600  0.26449800  1
  O  O5  1  0.73550200  0.47100400  0.73550200  1
loop_
_geom_bond_atom_site_label_1
_geom_bond_atom_site_label_2
_geom_bond_distance
_geom_bond_site_symmetry_2
Ba0 O0 2.870382 1_455
Ba0 O3 2.870382 1_555
Ba0 O2 2.870382 1_565
Ba0 O1 2.870382 1_566
Ba0 O5 3.015291 1_455
Ba0 O4 3.015291 1_555
Ba0 O5 3.015291 1_555
Ba0 O4 3.015291 1_556
Ba0 O2 3.184669 1_455
Ba0 O3 3.184669 1_565
Ba0 O1 3.184669 1_555
Ba0 O0 3.184669 1_566
Ba1 O0 2.870382 1_565
Ba1 O2 2.870382 1_554
Ba1 O1 2.870382 1_555
Ba1 O3 2.870382 1_665
Ba1 O4 3.015291 1_555
Ba1 O5 3.015291 1_555
Ba1 O5 3.015291 1_554
Ba1 O4 3.015291 1_655
Ba1 O0 3.184669 1_555
Ba1 O2 3.184669 1_565
Ba1 O3 3.184669 1_554
Ba1 O1 3.184669 1_665
O0 Ta0 2.016587 1_555
O0 Y0 2.267488 1_655
O1 Ta0 2.016587 1_555
O1 Y0 2.267488 1_555
O2 Ta0 2.016587 1_555
O2 Y0 2.267488 1_656
O3 Ta0 2.016587 1_555
O3 Y0 2.267488 1_556
O4 Ta0 2.017425 1_565
O4 Y0 2.265818 1_555
O5 Ta0 2.017425 1_555
O5 Y0 2.265818 1_666
