# generated using pymatgen
data_Fe13O19
_symmetry_space_group_name_H-M   'P 1'
_cell_length_a   11.19090609
_cell_length_b   11.19090609
_cell_length_c   11.02053666
_cell_angle_alpha   61.79331070
_cell_angle_beta   61.79331070
_cell_angle_gamma   14.94501143
_symmetry_Int_Tables_number   1
_chemical_formula_structural   Fe13O19
_chemical_formula_sum   'Fe13 O19'
_cell_volume   312.89014415
_cell_formula_units_Z   1
loop_
 _symmetry_equiv_pos_site_id
 _symmetry_equiv_pos_as_xyz
  1  'x, y, z'
loop_
 _atom_site_type_symbol
 _atom_site_label
 _atom_site_symmetry_multiplicity
 _atom_site_fract_x
 _atom_site_fract_y
 _atom_site_fract_z
 _atom_site_occupancy
  Fe  Fe0  1  0.92629800  0.92629800  0.54715600  1
  Fe  Fe1  1  0.07370200  0.07370200  0.45284400  1
  Fe  Fe2  1  0.26390900  0.26390900  0.62498300  1
  Fe  Fe3  1  0.73609100  0.73609100  0.37501700  1
  Fe  Fe4  1  0.46658600  0.46658600  0.78099800  1
  Fe  Fe5  1  0.53341400  0.53341400  0.21900200  1
  Fe  Fe6  1  0.61847600  0.61847600  0.66834300  1
  Fe  Fe7  1  0.38152400  0.38152400  0.33165700  1
  Fe  Fe8  1  0.34370200  0.34370200  0.08080700  1
  Fe  Fe9  1  0.65629800  0.65629800  0.91919300  1
  Fe  Fe10  1  0.00000000  0.00000000  0.00000000  1
  Fe  Fe11  1  0.30285100  0.30285100  0.85124400  1
  Fe  Fe12  1  0.69714900  0.69714900  0.14875600  1
  O  O0  1  0.50000000  0.50000000  0.50000000  1
  O  O1  1  0.91091200  0.91091200  0.74124400  1
  O  O2  1  0.08908800  0.08908800  0.25875600  1
  O  O3  1  0.80408300  0.80408300  0.46323500  1
  O  O4  1  0.19591700  0.19591700  0.53676500  1
  O  O5  1  0.16060300  0.16060300  0.77893700  1
  O  O6  1  0.83939700  0.83939700  0.22106300  1
  O  O7  1  0.94883600  0.94883600  0.34206200  1
  O  O8  1  0.05116400  0.05116400  0.65793800  1
  O  O9  1  0.36266000  0.36266000  0.57863700  1
  O  O10  1  0.63734000  0.63734000  0.42136300  1
  O  O11  1  0.80068800  0.80068800  0.99828500  1
  O  O12  1  0.19931200  0.19931200  0.00171500  1
  O  O13  1  0.23836600  0.23836600  0.23099800  1
  O  O14  1  0.76163400  0.76163400  0.76900200  1
  O  O15  1  0.07656500  0.07656500  0.04741100  1
  O  O16  1  0.92343500  0.92343500  0.95258900  1
  O  O17  1  0.46110400  0.46110400  0.14059600  1
  O  O18  1  0.53889600  0.53889600  0.85940400  1
loop_
_geom_bond_atom_site_label_1
_geom_bond_atom_site_label_2
_geom_bond_distance
_geom_bond_site_symmetry_2
Fe0 O9 1.940564 1_565
Fe0 O9 1.940564 1_655
Fe0 O1 1.998852 1_555
Fe0 O0 2.062265 1_655
Fe0 O0 2.062265 1_565
Fe0 O7 2.069074 1_555
Fe1 O10 1.940564 1_545
Fe1 O10 1.940564 1_455
Fe1 O2 1.998852 1_555
Fe1 O0 2.062265 1_455
Fe1 O0 2.062265 1_545
Fe1 O8 2.069074 1_555
Fe2 O9 1.999051 1_555
Fe2 O5 2.103798 1_555
Fe2 O14 2.136209 1_545
Fe2 O14 2.136209 1_455
Fe2 O3 2.138995 1_545
Fe2 O3 2.138995 1_455
Fe2 O4 2.149518 1_555
Fe3 O10 1.999051 1_555
Fe3 O6 2.103798 1_555
Fe3 O13 2.136209 1_655
Fe3 O13 2.136209 1_565
Fe3 O4 2.138995 1_655
Fe3 O4 2.138995 1_565
Fe3 O3 2.149518 1_555
Fe4 O1 2.086291 1_545
Fe4 O1 2.086291 1_455
Fe4 O18 2.154901 1_555
Fe4 O16 2.210123 1_545
Fe4 O16 2.210123 1_455
Fe4 O8 2.247975 1_655
Fe4 O8 2.247975 1_565
Fe5 O2 2.086291 1_565
Fe5 O2 2.086291 1_655
Fe5 O17 2.154901 1_555
Fe5 O15 2.210123 1_655
Fe5 O15 2.210123 1_565
Fe5 O7 2.247975 1_455
Fe5 O7 2.247975 1_545
Fe6 O18 2.001774 1_555
Fe6 O8 2.127426 1_565
Fe6 O8 2.127426 1_655
Fe6 O4 2.190512 1_655
Fe6 O4 2.190512 1_565
Fe6 O5 2.358801 1_655
Fe6 O5 2.358801 1_565
Fe6 O10 2.548997 1_555
Fe7 O17 2.001774 1_555
Fe7 O7 2.127426 1_455
Fe7 O7 2.127426 1_545
Fe7 O3 2.190512 1_545
Fe7 O3 2.190512 1_455
Fe7 O6 2.358801 1_545
Fe7 O6 2.358801 1_455
Fe7 O9 2.548997 1_555
Fe8 O6 2.091806 1_545
Fe8 O6 2.091806 1_455
Fe8 O13 2.124877 1_555
Fe8 O11 2.164265 1_544
Fe8 O11 2.164265 1_454
Fe8 O16 2.204968 1_454
Fe8 O16 2.204968 1_544
Fe9 O5 2.091806 1_655
Fe9 O5 2.091806 1_565
Fe9 O14 2.124877 1_555
Fe9 O12 2.164265 1_566
Fe9 O12 2.164265 1_656
Fe9 O15 2.204968 1_566
Fe9 O15 2.204968 1_656
Fe10 O18 1.997213 1_544
Fe10 O18 1.997213 1_454
Fe10 O17 1.997213 1_455
Fe10 O17 1.997213 1_545
Fe10 O15 2.001596 1_555
Fe10 O16 2.001596 1_444
Fe11 O12 2.096819 1_556
Fe11 O14 2.136968 1_455
Fe11 O14 2.136968 1_545
Fe11 O11 2.161529 1_455
Fe11 O11 2.161529 1_545
Fe11 O1 2.562575 1_455
Fe11 O1 2.562575 1_545
Fe11 O9 2.643035 1_555
Fe12 O11 2.096819 1_554
Fe12 O13 2.136968 1_565
Fe12 O13 2.136968 1_655
Fe12 O12 2.161529 1_655
Fe12 O12 2.161529 1_565
Fe12 O2 2.562575 1_655
Fe12 O2 2.562575 1_565
Fe12 O10 2.643035 1_555
