# generated using pymatgen
data_Ba2LiLaIrO6
_symmetry_space_group_name_H-M   'P 1'
_cell_length_a   6.29904481
_cell_length_b   6.28402138
_cell_length_c   6.26571667
_cell_angle_alpha   59.60998558
_cell_angle_beta   59.93830837
_cell_angle_gamma   57.50205098
_symmetry_Int_Tables_number   1
_chemical_formula_structural   Ba2LiLaIrO6
_chemical_formula_sum   'Ba2 Li1 La1 Ir1 O6'
_cell_volume   171.25686626
_cell_formula_units_Z   1
loop_
 _symmetry_equiv_pos_site_id
 _symmetry_equiv_pos_as_xyz
  1  'x, y, z'
loop_
 _atom_site_type_symbol
 _atom_site_label
 _atom_site_symmetry_multiplicity
 _atom_site_fract_x
 _atom_site_fract_y
 _atom_site_fract_z
 _atom_site_occupancy
  Ba  Ba0  1  0.81441500  0.77070800  0.66153200  1
  Ba  Ba1  1  0.25060600  0.19489900  0.22759400  1
  Li  Li0  1  0.57214800  0.43878200  0.08894600  1
  La  La0  1  0.03528700  0.98194500  0.97040500  1
  Ir  Ir0  1  0.52180400  0.49531000  0.50194600  1
  O  O0  1  0.24484800  0.76124800  0.68604000  1
  O  O1  1  0.69049500  0.31983300  0.79637100  1
  O  O2  1  0.75024400  0.72067400  0.27688700  1
  O  O3  1  0.79673100  0.22763400  0.28380600  1
  O  O4  1  0.32267500  0.70336400  0.22784200  1
  O  O5  1  0.30283100  0.26060300  0.71613000  1
loop_
_geom_bond_atom_site_label_1
_geom_bond_atom_site_label_2
_geom_bond_distance
_geom_bond_site_symmetry_2
Ba0 O3 2.627388 1_565
Ba0 O0 2.759176 1_655
Ba0 O2 2.819569 1_555
Ba0 O1 2.940164 1_555
Ba0 O4 2.967283 1_655
Ba0 O5 3.034046 1_655
Ba0 O5 3.046285 1_565
Ba1 O3 2.602431 1_455
Ba1 O0 2.785770 1_545
Ba1 O4 2.869841 1_545
Ba1 O1 2.878401 1_554
Ba1 O5 2.880925 1_554
Ba1 O2 2.974187 1_545
Ba1 O2 3.132576 1_455
Li0 O4 1.810399 1_555
Li0 O3 1.823977 1_555
Li0 O1 1.973205 1_554
La0 O0 2.239892 1_555
La0 O1 2.342932 1_465
La0 O4 2.367852 1_556
La0 O5 2.470453 1_565
La0 O3 2.473050 1_466
La0 O2 2.475965 1_456
Ir0 O0 1.992058 1_555
Ir0 O2 2.049629 1_555
Ir0 O5 2.051273 1_555
Ir0 O4 2.087241 1_555
Ir0 O1 2.096412 1_555
Ir0 O3 2.126311 1_555
