# generated using pymatgen
data_RbMg30BO31
_symmetry_space_group_name_H-M   'P 1'
_cell_length_a   8.58927000
_cell_length_b   8.65990800
_cell_length_c   8.69782500
_cell_angle_alpha   90.00000000
_cell_angle_beta   90.00000000
_cell_angle_gamma   90.00000000
_symmetry_Int_Tables_number   1
_chemical_formula_structural   RbMg30BO31
_chemical_formula_sum   'Rb1 Mg30 B1 O31'
_cell_volume   646.96412401
_cell_formula_units_Z   1
loop_
 _symmetry_equiv_pos_site_id
 _symmetry_equiv_pos_as_xyz
  1  'x, y, z'
loop_
 _atom_site_type_symbol
 _atom_site_label
 _atom_site_symmetry_multiplicity
 _atom_site_fract_x
 _atom_site_fract_y
 _atom_site_fract_z
 _atom_site_occupancy
  Rb  Rb0  1  0.00000000  0.00002400  0.00000000  1
  Mg  Mg0  1  0.00000000  0.00220800  0.50000000  1
  Mg  Mg1  1  0.50000000  0.00288300  0.00000000  1
  Mg  Mg2  1  0.00000000  0.49957100  0.00000000  1
  Mg  Mg3  1  0.00000000  0.50518000  0.50000000  1
  Mg  Mg4  1  0.50000000  0.49892300  0.00000000  1
  Mg  Mg5  1  0.50000000  0.50573500  0.50000000  1
  Mg  Mg6  1  0.73513800  0.99997700  0.75449800  1
  Mg  Mg7  1  0.73513800  0.99997700  0.24550200  1
  Mg  Mg8  1  0.26486200  0.99997700  0.75449800  1
  Mg  Mg9  1  0.26486200  0.99997700  0.24550200  1
  Mg  Mg10  1  0.74947900  0.50076900  0.75059200  1
  Mg  Mg11  1  0.74947900  0.50076900  0.24940800  1
  Mg  Mg12  1  0.25052100  0.50076900  0.75059200  1
  Mg  Mg13  1  0.25052100  0.50076900  0.24940800  1
  Mg  Mg14  1  0.00000000  0.25153700  0.74997400  1
  Mg  Mg15  1  0.00000000  0.25153700  0.25002600  1
  Mg  Mg16  1  0.50000000  0.24754600  0.74604100  1
  Mg  Mg17  1  0.50000000  0.24754600  0.25395900  1
  Mg  Mg18  1  0.00000000  0.74894600  0.74913100  1
  Mg  Mg19  1  0.00000000  0.74894600  0.25086900  1
  Mg  Mg20  1  0.50000000  0.75115900  0.76396200  1
  Mg  Mg21  1  0.50000000  0.75115900  0.23603800  1
  Mg  Mg22  1  0.74517500  0.25350000  0.00000000  1
  Mg  Mg23  1  0.73090700  0.25583000  0.50000000  1
  Mg  Mg24  1  0.25482500  0.25350000  0.00000000  1
  Mg  Mg25  1  0.26909300  0.25583000  0.50000000  1
  Mg  Mg26  1  0.74933200  0.74676500  0.00000000  1
  Mg  Mg27  1  0.75217800  0.74609200  0.50000000  1
  Mg  Mg28  1  0.25066800  0.74676500  0.00000000  1
  Mg  Mg29  1  0.24782200  0.74609200  0.50000000  1
  B  B0  1  0.50000000  0.93403600  0.50000000  1
  O  O0  1  0.00000000  0.27883700  0.00000000  1
  O  O1  1  0.50000000  0.25938100  0.00000000  1
  O  O2  1  0.50000000  0.27752200  0.50000000  1
  O  O3  1  0.00000000  0.72061200  0.00000000  1
  O  O4  1  0.00000000  0.75402200  0.50000000  1
  O  O5  1  0.50000000  0.74013300  0.00000000  1
  O  O6  1  0.50000000  0.76372800  0.50000000  1
  O  O7  1  0.74777200  0.24821400  0.74714500  1
  O  O8  1  0.74777200  0.24821400  0.25285500  1
  O  O9  1  0.25222800  0.24821400  0.74714500  1
  O  O10  1  0.25222800  0.24821400  0.25285500  1
  O  O11  1  0.75080600  0.75241400  0.74794400  1
  O  O12  1  0.75080600  0.75241400  0.25205600  1
  O  O13  1  0.24919400  0.75241400  0.74794400  1
  O  O14  1  0.24919400  0.75241400  0.25205600  1
  O  O15  1  0.00000000  0.00087100  0.71642500  1
  O  O16  1  0.00000000  0.00087100  0.28357500  1
  O  O17  1  0.50000000  0.99507100  0.76409700  1
  O  O18  1  0.50000000  0.99507100  0.23590300  1
  O  O19  1  0.00000000  0.49960100  0.74107400  1
  O  O20  1  0.00000000  0.49960100  0.25892600  1
  O  O21  1  0.50000000  0.50767800  0.74688900  1
  O  O22  1  0.50000000  0.50767800  0.25311100  1
  O  O23  1  0.72264800  0.00025500  0.00000000  1
  O  O24  1  0.65979900  0.98854300  0.50000000  1
  O  O25  1  0.27735200  0.00025500  0.00000000  1
  O  O26  1  0.34020100  0.98854300  0.50000000  1
  O  O27  1  0.74554600  0.50012300  0.00000000  1
  O  O28  1  0.74896600  0.50733900  0.50000000  1
  O  O29  1  0.25445400  0.50012300  0.00000000  1
  O  O30  1  0.25103400  0.50733900  0.50000000  1
loop_
_geom_bond_atom_site_label_1
_geom_bond_atom_site_label_2
_geom_bond_distance
_geom_bond_site_symmetry_2
Mg0 O16 1.882462 1_555
Mg0 O15 1.882462 1_555
Mg0 O4 2.149268 1_545
Mg1 O23 1.912519 1_555
Mg1 O25 1.912519 1_555
Mg1 O18 2.052958 1_545
Mg1 O17 2.052958 1_544
Mg1 O1 2.221249 1_555
Mg1 O5 2.275391 1_545
Mg2 O0 1.911536 1_555
Mg2 O3 1.914195 1_555
Mg2 O27 2.185579 1_455
Mg2 O29 2.185579 1_555
Mg2 O20 2.252093 1_555
Mg2 O19 2.252093 1_554
Mg3 O20 2.097376 1_555
Mg3 O19 2.097376 1_555
Mg3 O4 2.154949 1_555
Mg3 O30 2.156280 1_555
Mg3 O28 2.156280 1_455
Mg4 O1 2.074412 1_555
Mg4 O5 2.088856 1_555
Mg4 O29 2.109086 1_555
Mg4 O27 2.109086 1_555
Mg4 O22 2.202820 1_555
Mg4 O21 2.202820 1_554
Mg5 O2 1.976304 1_555
Mg5 O28 2.138481 1_555
Mg5 O30 2.138481 1_555
Mg5 O22 2.147463 1_555
Mg5 O21 2.147463 1_555
Mg5 O6 2.234196 1_555
Mg6 O17 2.021835 1_555
Mg6 O23 2.138028 1_566
Mg6 O11 2.148849 1_555
Mg6 O7 2.153397 1_565
Mg6 O15 2.298960 1_665
Mg6 O24 2.308351 1_555
Mg7 O18 2.021835 1_555
Mg7 O23 2.138028 1_565
Mg7 O12 2.148849 1_555
Mg7 O8 2.153397 1_565
Mg7 O16 2.298960 1_665
Mg7 O24 2.308351 1_555
Mg8 O17 2.021835 1_555
Mg8 O25 2.138028 1_566
Mg8 O13 2.148849 1_555
Mg8 O9 2.153397 1_565
Mg8 O15 2.298960 1_565
Mg8 O26 2.308351 1_555
Mg9 O18 2.021835 1_555
Mg9 O25 2.138028 1_565
Mg9 O14 2.148849 1_555
Mg9 O10 2.153397 1_565
Mg9 O16 2.298960 1_565
Mg9 O26 2.308351 1_555
Mg10 O21 2.143920 1_555
Mg10 O19 2.153408 1_655
Mg10 O27 2.169577 1_556
Mg10 O11 2.179374 1_555
Mg10 O28 2.180352 1_555
Mg10 O7 2.187358 1_555
Mg11 O22 2.143920 1_555
Mg11 O20 2.153408 1_655
Mg11 O27 2.169577 1_555
Mg11 O12 2.179374 1_555
Mg11 O28 2.180352 1_555
Mg11 O8 2.187358 1_555
Mg12 O21 2.143920 1_555
Mg12 O19 2.153408 1_555
Mg12 O29 2.169577 1_556
Mg12 O13 2.179374 1_555
Mg12 O30 2.180352 1_555
Mg12 O9 2.187358 1_555
Mg13 O22 2.143920 1_555
Mg13 O20 2.153408 1_555
Mg13 O29 2.169577 1_555
Mg13 O14 2.179374 1_555
Mg13 O30 2.180352 1_555
Mg13 O10 2.187358 1_555
Mg14 O19 2.149606 1_555
Mg14 O9 2.166785 1_555
Mg14 O7 2.166785 1_455
Mg14 O0 2.187495 1_556
Mg14 O15 2.190270 1_555
Mg15 O20 2.149606 1_555
Mg15 O10 2.166785 1_555
Mg15 O8 2.166785 1_455
Mg15 O0 2.187495 1_555
Mg15 O16 2.190270 1_555
Mg16 O9 2.128210 1_555
Mg16 O7 2.128210 1_555
Mg16 O2 2.155708 1_555
Mg16 O17 2.192043 1_545
Mg16 O1 2.211267 1_556
Mg16 O21 2.252731 1_555
Mg17 O10 2.128210 1_555
Mg17 O8 2.128210 1_555
Mg17 O2 2.155708 1_555
Mg17 O18 2.192043 1_545
Mg17 O1 2.211267 1_555
Mg17 O22 2.252731 1_555
Mg18 O13 2.140630 1_555
Mg18 O11 2.140630 1_455
Mg18 O19 2.160442 1_555
Mg18 O4 2.167344 1_555
Mg18 O3 2.195767 1_556
Mg18 O15 2.200116 1_565
Mg19 O14 2.140630 1_555
Mg19 O12 2.140630 1_455
Mg19 O20 2.160442 1_555
Mg19 O4 2.167344 1_555
Mg19 O3 2.195767 1_555
Mg19 O16 2.200116 1_565
Mg20 O5 2.055236 1_556
Mg20 O17 2.112256 1_555
Mg20 O21 2.113746 1_555
Mg20 O13 2.158768 1_555
Mg20 O11 2.158768 1_555
Mg20 O6 2.298474 1_555
Mg21 O5 2.055236 1_555
Mg21 O18 2.112256 1_555
Mg21 O22 2.113746 1_555
Mg21 O12 2.158768 1_555
Mg21 O14 2.158768 1_555
Mg21 O6 2.298474 1_555
Mg22 O1 2.106490 1_555
Mg22 O27 2.135735 1_555
Mg22 O0 2.199731 1_655
Mg22 O8 2.199878 1_555
Mg22 O7 2.199878 1_554
Mg22 O23 2.201597 1_555
Mg23 O2 1.992199 1_555
Mg23 O7 2.155509 1_555
Mg23 O8 2.155509 1_555
Mg23 O28 2.183561 1_555
Mg23 O24 2.393905 1_545
Mg24 O1 2.106490 1_555
Mg24 O29 2.135735 1_555
Mg24 O0 2.199731 1_555
Mg24 O9 2.199878 1_554
Mg24 O10 2.199878 1_555
Mg24 O25 2.201597 1_555
Mg25 O2 1.992199 1_555
Mg25 O9 2.155509 1_555
Mg25 O10 2.155509 1_555
Mg25 O30 2.183561 1_555
Mg25 O26 2.393905 1_545
Mg26 O27 2.136145 1_555
Mg26 O5 2.142350 1_555
Mg26 O3 2.164934 1_655
Mg26 O11 2.192921 1_554
Mg26 O12 2.192921 1_555
Mg26 O23 2.207133 1_565
Mg27 O28 2.067763 1_555
Mg27 O4 2.129718 1_655
Mg27 O12 2.157301 1_555
Mg27 O11 2.157301 1_555
Mg27 O6 2.171403 1_555
Mg27 O24 2.244532 1_555
Mg28 O29 2.136145 1_555
Mg28 O5 2.142350 1_555
Mg28 O3 2.164934 1_555
Mg28 O13 2.192921 1_554
Mg28 O14 2.192921 1_555
Mg28 O25 2.207133 1_565
Mg29 O30 2.067763 1_555
Mg29 O4 2.129718 1_555
Mg29 O14 2.157301 1_555
Mg29 O13 2.157301 1_555
Mg29 O6 2.171403 1_555
Mg29 O26 2.244532 1_555
B0 O24 1.451455 1_555
B0 O26 1.451455 1_555
B0 O6 1.474852 1_555
O0 Rb0 2.414495 1_555
O3 Rb0 2.419682 1_565
O15 Rb0 2.466497 1_556
O16 Rb0 2.466497 1_555
O23 Rb0 2.382252 1_655
O25 Rb0 2.382252 1_555
