# generated using pymatgen
data_CaCuGeH2O5
_symmetry_space_group_name_H-M   'P 1'
_cell_length_a   5.22026482
_cell_length_b   5.57247804
_cell_length_c   16.26641000
_cell_angle_alpha   90.00000000
_cell_angle_beta   90.00000000
_cell_angle_gamma   102.61274963
_symmetry_Int_Tables_number   1
_chemical_formula_structural   CaCuGeH2O5
_chemical_formula_sum   'Ca4 Cu4 Ge4 H8 O20'
_cell_volume   461.76794282
_cell_formula_units_Z   4
loop_
 _symmetry_equiv_pos_site_id
 _symmetry_equiv_pos_as_xyz
  1  'x, y, z'
loop_
 _atom_site_type_symbol
 _atom_site_label
 _atom_site_symmetry_multiplicity
 _atom_site_fract_x
 _atom_site_fract_y
 _atom_site_fract_z
 _atom_site_occupancy
  Ca  Ca0  1  0.15681600  0.33804800  0.82206500  1
  Ca  Ca1  1  0.84318400  0.16195200  0.32206500  1
  Ca  Ca2  1  0.84318400  0.66195200  0.17793500  1
  Ca  Ca3  1  0.15681600  0.83804800  0.67793500  1
  Cu  Cu0  1  0.00000000  0.00000000  0.00000000  1
  Cu  Cu1  1  0.00000000  0.50000000  0.50000000  1
  Cu  Cu2  1  0.50000000  0.50000000  0.00000000  1
  Cu  Cu3  1  0.50000000  0.00000000  0.50000000  1
  Ge  Ge0  1  0.48953000  0.96451600  0.88867000  1
  Ge  Ge1  1  0.51047000  0.53548400  0.38867000  1
  Ge  Ge2  1  0.51047000  0.03548400  0.11133000  1
  Ge  Ge3  1  0.48953000  0.46451600  0.61133000  1
  H  H0  1  0.68783200  0.58422600  0.76321500  1
  H  H1  1  0.31216800  0.91577400  0.26321500  1
  H  H2  1  0.31216800  0.41577400  0.23678500  1
  H  H3  1  0.68783200  0.08422600  0.73678500  1
  H  H4  1  0.86296900  0.74952100  0.83323000  1
  H  H5  1  0.13703100  0.75047900  0.33323000  1
  H  H6  1  0.13703100  0.25047900  0.16677000  1
  H  H7  1  0.86296900  0.24952100  0.66677000  1
  O  O0  1  0.40810100  0.04107300  0.78821900  1
  O  O1  1  0.59189900  0.45892700  0.28821900  1
  O  O2  1  0.59189900  0.95892700  0.21178100  1
  O  O3  1  0.40810100  0.54107300  0.71178100  1
  O  O4  1  0.33968400  0.16987500  0.95132400  1
  O  O5  1  0.66031600  0.33012500  0.45132400  1
  O  O6  1  0.66031600  0.83012500  0.04867600  1
  O  O7  1  0.33968400  0.66987500  0.54867600  1
  O  O8  1  0.83926500  0.03056900  0.89433900  1
  O  O9  1  0.16073500  0.46943100  0.39433900  1
  O  O10  1  0.16073500  0.96943100  0.10566100  1
  O  O11  1  0.83926500  0.53056900  0.60566100  1
  O  O12  1  0.34698200  0.65332600  0.91222800  1
  O  O13  1  0.65301800  0.84667400  0.41222800  1
  O  O14  1  0.65301800  0.34667400  0.08777200  1
  O  O15  1  0.34698200  0.15332600  0.58777200  1
  O  O16  1  0.86714000  0.62025700  0.79162200  1
  O  O17  1  0.13286000  0.87974300  0.29162200  1
  O  O18  1  0.13286000  0.37974300  0.20837800  1
  O  O19  1  0.86714000  0.12025700  0.70837800  1
loop_
_geom_bond_atom_site_label_1
_geom_bond_atom_site_label_2
_geom_bond_distance
_geom_bond_site_symmetry_2
Ca0 O12 2.336971 1_555
Ca0 O3 2.360243 1_555
Ca0 O0 2.389678 1_555
Ca0 O8 2.413601 1_455
Ca0 O16 2.458365 1_455
Ca0 O19 2.525463 1_455
Ca0 O4 2.569254 1_555
Ca1 O13 2.336971 1_545
Ca1 O2 2.360243 1_545
Ca1 O1 2.389678 1_555
Ca1 O9 2.413601 1_655
Ca1 O17 2.458365 1_645
Ca1 O18 2.525463 1_655
Ca1 O5 2.569254 1_555
Ca2 O14 2.336971 1_555
Ca2 O1 2.360243 1_555
Ca2 O2 2.389678 1_555
Ca2 O10 2.413601 1_655
Ca2 O18 2.458365 1_655
Ca2 O17 2.525463 1_655
Ca2 O6 2.569254 1_555
Ca3 O15 2.336971 1_565
Ca3 O0 2.360243 1_565
Ca3 O3 2.389678 1_555
Ca3 O11 2.413601 1_455
Ca3 O19 2.458365 1_465
Ca3 O16 2.525463 1_455
Ca3 O7 2.569254 1_555
Cu0 O10 1.936365 1_545
Cu0 O8 1.936365 1_454
Cu0 O6 1.983513 1_445
Cu0 O4 1.983513 1_554
Cu1 O11 1.936365 1_455
Cu1 O9 1.936365 1_555
Cu1 O5 1.983513 1_455
Cu1 O7 1.983513 1_555
Cu2 O12 1.924726 1_554
Cu2 O14 1.924726 1_555
Cu2 O6 2.009760 1_555
Cu2 O4 2.009760 1_554
Cu3 O15 1.924726 1_555
Cu3 O13 1.924726 1_545
Cu3 O5 2.009760 1_555
Cu3 O7 2.009760 1_545
Ge0 O0 1.764021 1_565
Ge0 O12 1.773172 1_555
Ge0 O8 1.784299 1_565
Ge0 O4 1.830591 1_565
Ge1 O1 1.764021 1_555
Ge1 O13 1.773172 1_555
Ge1 O9 1.784299 1_555
Ge1 O5 1.830591 1_555
Ge2 O2 1.764021 1_545
Ge2 O14 1.773172 1_555
Ge2 O10 1.784299 1_545
Ge2 O6 1.830591 1_545
Ge3 O3 1.764021 1_555
Ge3 O15 1.773172 1_555
Ge3 O11 1.784299 1_555
Ge3 O7 1.830591 1_555
H0 O16 1.023678 1_555
H0 O3 1.654339 1_555
H1 O17 1.023678 1_555
H1 O2 1.654339 1_555
H2 O18 1.023678 1_555
H2 O1 1.654339 1_555
H3 O19 1.023678 1_555
H3 O0 1.654339 1_555
H4 O16 0.992099 1_555
H5 O17 0.992099 1_555
H6 O18 0.992099 1_555
H7 O19 0.992099 1_555
