# generated using pymatgen
data_Sm(VFe5)2
_symmetry_space_group_name_H-M   'P 1'
_cell_length_a   4.68069100
_cell_length_b   6.46073840
_cell_length_c   6.46073840
_cell_angle_alpha   97.17422317
_cell_angle_beta   111.23789374
_cell_angle_gamma   68.76210626
_symmetry_Int_Tables_number   1
_chemical_formula_structural   Sm(VFe5)2
_chemical_formula_sum   'Sm1 V2 Fe10'
_cell_volume   169.73572377
_cell_formula_units_Z   1
loop_
 _symmetry_equiv_pos_site_id
 _symmetry_equiv_pos_as_xyz
  1  'x, y, z'
loop_
 _atom_site_type_symbol
 _atom_site_label
 _atom_site_symmetry_multiplicity
 _atom_site_fract_x
 _atom_site_fract_y
 _atom_site_fract_z
 _atom_site_occupancy
  Sm  Sm0  1  0.00000000  0.00000000  0.00000000  1
  V  V0  1  0.00000000  0.35945000  0.35945000  1
  V  V1  1  0.00000000  0.64055000  0.64055000  1
  Fe  Fe0  1  0.72816300  0.77183700  0.22816300  1
  Fe  Fe1  1  0.27183700  0.22816300  0.77183700  1
  Fe  Fe2  1  0.50000000  0.76882700  0.76882700  1
  Fe  Fe3  1  0.50000000  0.23117300  0.23117300  1
  Fe  Fe4  1  0.50000000  0.00000000  0.50000000  1
  Fe  Fe5  1  0.00000000  0.00000000  0.50000000  1
  Fe  Fe6  1  0.50000000  0.50000000  0.00000000  1
  Fe  Fe7  1  0.00000000  0.50000000  0.00000000  1
  Fe  Fe8  1  0.64004400  0.35995600  0.64004400  1
  Fe  Fe9  1  0.35995600  0.64004400  0.35995600  1
loop_
_geom_bond_atom_site_label_1
_geom_bond_atom_site_label_2
_geom_bond_distance
_geom_bond_site_symmetry_2
Sm0 V1 3.072329 1_544
Sm0 V0 3.072329 1_555
V0 V1 2.402648 1_555
Fe0 Fe6 2.443290 1_555
Fe0 Fe4 2.443290 1_565
Fe0 Fe7 2.443290 1_655
Fe0 Fe5 2.443290 1_665
Fe0 Fe9 2.593800 1_555
Fe0 Fe9 2.593801 1_655
Fe0 V0 2.600690 1_655
Fe0 V1 2.600690 1_655
Fe0 Fe2 2.766292 1_554
Fe0 Fe3 2.766292 1_565
Fe0 Sm0 3.037331 1_665
Fe0 Sm0 3.037331 1_565
Fe1 Fe4 2.443290 1_555
Fe1 Fe6 2.443290 1_556
Fe1 Fe5 2.443290 1_555
Fe1 Fe7 2.443290 1_556
Fe1 Fe8 2.593800 1_555
Fe1 Fe8 2.593801 1_455
Fe1 V0 2.600690 1_555
Fe1 V1 2.600690 1_555
Fe1 Fe2 2.766292 1_545
Fe1 Fe3 2.766292 1_556
Fe1 Sm0 3.037331 1_556
Fe1 Sm0 3.037331 1_656
Fe2 Fe4 2.427994 1_565
Fe2 Fe6 2.427994 1_556
Fe2 Fe7 2.427994 1_656
Fe2 Fe5 2.427994 1_565
Fe2 V1 2.584446 1_655
Fe2 V1 2.584446 1_555
Fe2 Fe8 2.586834 1_555
Fe2 Fe9 2.586834 1_555
Fe2 Sm0 3.062911 1_566
Fe2 Sm0 3.062911 1_666
Fe3 Fe6 2.427994 1_555
Fe3 Fe4 2.427994 1_555
Fe3 Fe5 2.427994 1_655
Fe3 Fe7 2.427994 1_555
Fe3 V0 2.584446 1_655
Fe3 V0 2.584446 1_555
Fe3 Fe8 2.586834 1_555
Fe3 Fe9 2.586834 1_555
Fe3 Sm0 3.062911 1_555
Fe3 Sm0 3.062911 1_655
Fe4 Fe5 2.340345 1_555
Fe4 Fe5 2.340345 1_655
Fe4 V1 2.597003 1_645
Fe4 V0 2.597003 1_555
Fe4 Fe8 2.608798 1_555
Fe4 Fe9 2.608798 1_545
Fe4 Sm0 3.230369 1_555
Fe4 Sm0 3.230369 1_656
Fe5 V1 2.597003 1_545
Fe5 V0 2.597003 1_555
Fe5 Fe8 2.608798 1_455
Fe5 Fe9 2.608798 1_545
Fe5 Sm0 3.230369 1_556
Fe5 Sm0 3.230369 1_555
Fe6 Fe7 2.340345 1_555
Fe6 Fe7 2.340345 1_655
Fe6 V1 2.597003 1_554
Fe6 V0 2.597003 1_655
Fe6 Fe9 2.608798 1_555
Fe6 Fe8 2.608798 1_554
Fe6 Sm0 3.230369 1_565
Fe6 Sm0 3.230369 1_655
Fe7 V0 2.597003 1_555
Fe7 V1 2.597003 1_554
Fe7 Fe9 2.608798 1_555
Fe7 Fe8 2.608798 1_454
Fe7 Sm0 3.230369 1_555
Fe7 Sm0 3.230369 1_565
Fe8 Fe9 2.376613 1_555
Fe8 V0 2.886601 1_655
Fe8 V1 2.886601 1_655
Fe8 V0 2.886602 1_555
Fe8 V1 2.886602 1_555
Fe8 Sm0 3.054312 1_656
Fe9 V0 2.886601 1_555
Fe9 V1 2.886601 1_555
Fe9 V0 2.886602 1_655
Fe9 V1 2.886602 1_655
Fe9 Sm0 3.054312 1_565
