# generated using pymatgen
data_TmSbMo2O9
_symmetry_space_group_name_H-M   'P 1'
_cell_length_a   9.63172768
_cell_length_b   9.63172768
_cell_length_c   10.76252216
_cell_angle_alpha   67.97297777
_cell_angle_beta   67.97297777
_cell_angle_gamma   95.13331426
_symmetry_Int_Tables_number   1
_chemical_formula_structural   TmSbMo2O9
_chemical_formula_sum   'Tm4 Sb4 Mo8 O36'
_cell_volume   826.66368579
_cell_formula_units_Z   4
loop_
 _symmetry_equiv_pos_site_id
 _symmetry_equiv_pos_as_xyz
  1  'x, y, z'
loop_
 _atom_site_type_symbol
 _atom_site_label
 _atom_site_symmetry_multiplicity
 _atom_site_fract_x
 _atom_site_fract_y
 _atom_site_fract_z
 _atom_site_occupancy
  Tm  Tm0  1  0.67087300  0.32912700  0.75000000  1
  Tm  Tm1  1  0.32912700  0.67087300  0.25000000  1
  Tm  Tm2  1  0.12641900  0.87358100  0.75000000  1
  Tm  Tm3  1  0.87358100  0.12641900  0.25000000  1
  Sb  Sb0  1  0.65302700  0.61692400  0.96589800  1
  Sb  Sb1  1  0.38307600  0.34697300  0.53410200  1
  Sb  Sb2  1  0.34697300  0.38307600  0.03410200  1
  Sb  Sb3  1  0.61692400  0.65302700  0.46589800  1
  Mo  Mo0  1  0.04564200  0.25929500  0.47421000  1
  Mo  Mo1  1  0.74070500  0.95435800  0.02579000  1
  Mo  Mo2  1  0.95435800  0.74070500  0.52579000  1
  Mo  Mo3  1  0.25929500  0.04564200  0.97421000  1
  Mo  Mo4  1  0.05834200  0.43355800  0.80670500  1
  Mo  Mo5  1  0.56644200  0.94165800  0.69329500  1
  Mo  Mo6  1  0.94165800  0.56644200  0.19329500  1
  Mo  Mo7  1  0.43355800  0.05834200  0.30670500  1
  O  O0  1  0.06802200  0.09400900  0.60214100  1
  O  O1  1  0.90599100  0.93197800  0.89785900  1
  O  O2  1  0.93197800  0.90599100  0.39785900  1
  O  O3  1  0.09400900  0.06802200  0.10214100  1
  O  O4  1  0.86751600  0.29747100  0.57025400  1
  O  O5  1  0.70252900  0.13248400  0.92974600  1
  O  O6  1  0.13248400  0.70252900  0.42974600  1
  O  O7  1  0.29747100  0.86751600  0.07025400  1
  O  O8  1  0.04102800  0.22007100  0.32465000  1
  O  O9  1  0.77992900  0.95897200  0.17535000  1
  O  O10  1  0.95897200  0.77992900  0.67535000  1
  O  O11  1  0.22007100  0.04102800  0.82465000  1
  O  O12  1  0.77781500  0.59332400  0.58031700  1
  O  O13  1  0.40667600  0.22218500  0.91968300  1
  O  O14  1  0.22218500  0.40667600  0.41968300  1
  O  O15  1  0.59332400  0.77781500  0.08031700  1
  O  O16  1  0.97728100  0.30514900  0.00059100  1
  O  O17  1  0.69485100  0.02271900  0.49940900  1
  O  O18  1  0.02271900  0.69485100  0.99941000  1
  O  O19  1  0.30514900  0.97728100  0.50059100  1
  O  O20  1  0.14850100  0.62214000  0.76974000  1
  O  O21  1  0.37786000  0.85149900  0.73026000  1
  O  O22  1  0.85149900  0.37786000  0.23026000  1
  O  O23  1  0.62214000  0.14850100  0.26974000  1
  O  O24  1  0.90631700  0.44465000  0.74957400  1
  O  O25  1  0.55535000  0.09368300  0.75042600  1
  O  O26  1  0.09368300  0.55535000  0.25042600  1
  O  O27  1  0.44465000  0.90631700  0.24957400  1
  O  O28  1  0.20864700  0.36050400  0.70275900  1
  O  O29  1  0.63949600  0.79135300  0.79724100  1
  O  O30  1  0.79135300  0.63949600  0.29724100  1
  O  O31  1  0.36050400  0.20864700  0.20275900  1
  O  O32  1  0.57750600  0.45785400  0.89843100  1
  O  O33  1  0.54214600  0.42249400  0.60156900  1
  O  O34  1  0.42249400  0.54214600  0.10156900  1
  O  O35  1  0.45785400  0.57750600  0.39843100  1
loop_
_geom_bond_atom_site_label_1
_geom_bond_atom_site_label_2
_geom_bond_distance
_geom_bond_site_symmetry_2
Mo0 O0 1.765366 1_555
Mo0 O4 1.793024 1_455
Mo0 O8 1.800679 1_555
Mo0 O14 1.856225 1_555
Mo1 O1 1.765366 1_554
Mo1 O5 1.793024 1_564
Mo1 O9 1.800679 1_555
Mo1 O15 1.856225 1_555
Mo2 O2 1.765366 1_555
Mo2 O6 1.793024 1_655
Mo2 O10 1.800679 1_555
Mo2 O12 1.856225 1_555
Mo3 O3 1.765366 1_556
Mo3 O7 1.793024 1_546
Mo3 O11 1.800679 1_555
Mo3 O13 1.856225 1_555
Mo4 O20 1.768658 1_555
Mo4 O16 1.778450 1_456
Mo4 O24 1.785386 1_455
Mo4 O28 1.844012 1_555
Mo5 O21 1.768658 1_555
Mo5 O17 1.778450 1_565
Mo5 O25 1.785386 1_565
Mo5 O29 1.844012 1_555
Mo6 O22 1.768658 1_555
Mo6 O18 1.778442 1_654
Mo6 O26 1.785386 1_655
Mo6 O30 1.844012 1_555
Mo7 O23 1.768658 1_555
Mo7 O19 1.778450 1_545
Mo7 O27 1.785386 1_545
Mo7 O31 1.844012 1_555
O0 Tm2 2.388960 1_545
O1 Tm2 2.388960 1_655
O2 Tm3 2.388960 1_565
O3 Tm3 2.388960 1_455
O4 Tm0 2.284745 1_555
O5 Tm0 2.284745 1_555
O6 Tm1 2.284745 1_555
O7 Tm1 2.284745 1_555
O8 Tm3 2.305533 1_455
O9 Tm3 2.305533 1_565
O10 Tm2 2.305533 1_655
O11 Tm2 2.305533 1_545
O12 Sb3 2.303965 1_555
O12 Tm0 2.346412 1_555
O13 Sb2 2.303965 1_556
O13 Tm0 2.346412 1_555
O14 Sb1 2.303965 1_555
O14 Tm1 2.346412 1_555
O15 Sb0 2.303965 1_554
O15 Tm1 2.346412 1_555
O16 Tm3 2.319827 1_555
O17 Tm3 2.319827 1_555
O18 Tm2 2.319835 1_555
O19 Tm2 2.319827 1_555
O20 Tm2 2.386561 1_555
O21 Tm2 2.386561 1_555
O22 Tm3 2.386561 1_555
O23 Tm3 2.386561 1_555
O24 Tm0 2.432600 1_555
O25 Tm0 2.432600 1_555
O26 Tm1 2.432600 1_555
O27 Tm1 2.432600 1_555
O28 Sb1 2.015835 1_555
O29 Sb0 2.015835 1_555
O30 Sb3 2.015835 1_555
O31 Sb2 2.015835 1_555
O32 Sb2 2.018461 1_556
O32 Sb0 2.105933 1_555
O32 Tm0 2.346397 1_555
O33 Sb3 2.018461 1_555
O33 Sb1 2.105933 1_555
O33 Tm0 2.346397 1_555
O34 Sb0 2.018461 1_554
O34 Sb2 2.105933 1_555
O34 Tm1 2.346397 1_555
O35 Sb1 2.018461 1_555
O35 Sb3 2.105933 1_555
O35 Tm1 2.346397 1_555
