# generated using pymatgen
data_K3Na5V2(MoO4)6
_symmetry_space_group_name_H-M   'P 1'
_cell_length_a   7.85817500
_cell_length_b   7.90597796
_cell_length_c   7.89757794
_cell_angle_alpha   90.05627486
_cell_angle_beta   90.00000000
_cell_angle_gamma   90.00000000
_symmetry_Int_Tables_number   1
_chemical_formula_structural   K3Na5V2(MoO4)6
_chemical_formula_sum   'K3 Na5 V2 Mo6 O24'
_cell_volume   490.64910045
_cell_formula_units_Z   1
loop_
 _symmetry_equiv_pos_site_id
 _symmetry_equiv_pos_as_xyz
  1  'x, y, z'
loop_
 _atom_site_type_symbol
 _atom_site_label
 _atom_site_symmetry_multiplicity
 _atom_site_fract_x
 _atom_site_fract_y
 _atom_site_fract_z
 _atom_site_occupancy
  K  K0  1  0.25000000  0.74371300  0.25608000  1
  K  K1  1  0.75000000  0.25429100  0.25444900  1
  K  K2  1  0.75000000  0.74357900  0.25636200  1
  Na  Na0  1  0.25000000  0.26053100  0.26048300  1
  Na  Na1  1  0.25000000  0.26176500  0.73898400  1
  Na  Na2  1  0.25000000  0.73908000  0.74033400  1
  Na  Na3  1  0.75000000  0.26201700  0.73917800  1
  Na  Na4  1  0.75000000  0.73885300  0.74007500  1
  V  V0  1  0.00075700  0.49876300  0.50358500  1
  V  V1  1  0.49924300  0.49876300  0.50358500  1
  Mo  Mo0  1  0.00070500  0.00038900  0.99864400  1
  Mo  Mo1  1  0.00075500  0.00075600  0.50340100  1
  Mo  Mo2  1  0.00078300  0.49898900  0.99762700  1
  Mo  Mo3  1  0.49929500  0.00038900  0.99864400  1
  Mo  Mo4  1  0.49924500  0.00075600  0.50340100  1
  Mo  Mo5  1  0.49921700  0.49898900  0.99762700  1
  O  O0  1  0.25000000  0.00113900  0.99749300  1
  O  O1  1  0.25000000  0.00170700  0.50358400  1
  O  O2  1  0.25000000  0.49826300  0.99421000  1
  O  O3  1  0.25000000  0.49648800  0.50483200  1
  O  O4  1  0.75000000  0.00080600  0.99712800  1
  O  O5  1  0.75000000  0.00176000  0.50506500  1
  O  O6  1  0.75000000  0.49908400  0.99414100  1
  O  O7  1  0.75000000  0.49922900  0.50785300  1
  O  O8  1  0.00181300  0.24701300  0.99401700  1
  O  O9  1  0.00283000  0.24177200  0.50442900  1
  O  O10  1  0.00052800  0.75282900  0.99661500  1
  O  O11  1  0.00095100  0.75947300  0.50837100  1
  O  O12  1  0.49818700  0.24701300  0.99401700  1
  O  O13  1  0.49717000  0.24177200  0.50442900  1
  O  O14  1  0.49947200  0.75282900  0.99661500  1
  O  O15  1  0.49904900  0.75947300  0.50837100  1
  O  O16  1  0.00201600  0.00023600  0.24612500  1
  O  O17  1  0.00074300  0.00311400  0.75485800  1
  O  O18  1  0.00325300  0.49587300  0.24078500  1
  O  O19  1  0.00127300  0.49964000  0.75641800  1
  O  O20  1  0.49798400  0.00023600  0.24612500  1
  O  O21  1  0.49925700  0.00311400  0.75485800  1
  O  O22  1  0.49674700  0.49587300  0.24078500  1
  O  O23  1  0.49872700  0.49964000  0.75641800  1
loop_
_geom_bond_atom_site_label_1
_geom_bond_atom_site_label_2
_geom_bond_distance
_geom_bond_site_symmetry_2
K0 O18 2.759183 1_555
K0 O22 2.759183 1_555
K0 O3 2.772587 1_555
K0 O11 2.795563 1_555
K0 O15 2.795563 1_555
K0 O20 2.813713 1_565
K0 O16 2.813713 1_565
K0 O1 2.823704 1_565
K0 O2 2.834597 1_554
K0 O10 2.836834 1_554
K0 O14 2.836834 1_554
K0 O0 2.884588 1_564
K1 O18 2.760517 1_655
K1 O22 2.760517 1_555
K1 O7 2.783421 1_555
K1 O13 2.802694 1_555
K1 O9 2.802694 1_655
K1 O5 2.812696 1_555
K1 O20 2.821396 1_555
K1 O16 2.821396 1_655
K1 O6 2.824825 1_554
K1 O4 2.852734 1_554
K1 O12 2.854653 1_554
K1 O8 2.854653 1_654
K2 O7 2.772067 1_555
K2 O18 2.794701 1_655
K2 O22 2.794701 1_555
K2 O11 2.804512 1_655
K2 O15 2.804512 1_555
K2 O5 2.831325 1_565
K2 O6 2.831464 1_554
K2 O16 2.836571 1_665
K2 O20 2.836571 1_565
K2 O14 2.844209 1_554
K2 O10 2.844209 1_654
K2 O4 2.887102 1_564
Na0 O3 2.682705 1_555
Na0 O18 2.691892 1_555
Na0 O22 2.691892 1_555
Na0 O9 2.739859 1_555
Na0 O13 2.739859 1_555
Na0 O1 2.807300 1_555
Na0 O2 2.821797 1_554
Na0 O20 2.836324 1_555
Na0 O16 2.836324 1_555
Na0 O8 2.871113 1_554
Na0 O12 2.871113 1_554
Na0 O0 2.917372 1_554
Na1 O3 2.621084 1_555
Na1 O9 2.688569 1_555
Na1 O13 2.688569 1_555
Na1 O23 2.715780 1_555
Na1 O19 2.715780 1_555
Na1 O2 2.747994 1_555
Na1 O1 2.770541 1_555
Na1 O8 2.806153 1_555
Na1 O12 2.806153 1_555
Na1 O17 2.834487 1_555
Na1 O21 2.834487 1_555
Na1 O0 2.902076 1_555
Na2 O3 2.670327 1_555
Na2 O11 2.685652 1_555
Na2 O15 2.685652 1_555
Na2 O23 2.724025 1_555
Na2 O19 2.724025 1_555
Na2 O2 2.766290 1_555
Na2 O1 2.795481 1_565
Na2 O14 2.819770 1_555
Na2 O10 2.819770 1_555
Na2 O21 2.864725 1_565
Na2 O17 2.864725 1_565
Na2 O0 2.899813 1_565
Na3 O7 2.619431 1_555
Na3 O13 2.722033 1_555
Na3 O9 2.722033 1_655
Na3 O23 2.728767 1_555
Na3 O19 2.728767 1_655
Na3 O6 2.749533 1_555
Na3 O5 2.764908 1_555
Na3 O12 2.825023 1_555
Na3 O8 2.825023 1_655
Na3 O17 2.843934 1_655
Na3 O21 2.843934 1_555
Na3 O4 2.902262 1_555
Na4 O7 2.635467 1_555
Na4 O11 2.695283 1_655
Na4 O15 2.695283 1_555
Na4 O23 2.737273 1_555
Na4 O19 2.737273 1_655
Na4 O6 2.761679 1_555
Na4 O5 2.787950 1_565
Na4 O14 2.827079 1_555
Na4 O10 2.827079 1_655
Na4 O17 2.874107 1_665
Na4 O21 2.874107 1_565
Na4 O4 2.898629 1_565
Mo0 O17 1.925461 1_555
Mo0 O8 1.950202 1_555
Mo0 O16 1.954529 1_556
Mo0 O10 1.957254 1_545
Mo0 O0 1.959034 1_555
Mo0 O4 1.970123 1_455
Mo1 O9 1.905546 1_555
Mo1 O11 1.908021 1_545
Mo1 O1 1.958626 1_555
Mo1 O5 1.970536 1_455
Mo1 O17 1.985970 1_555
Mo1 O16 2.031882 1_555
Mo2 O19 1.904983 1_555
Mo2 O18 1.920640 1_556
Mo2 O2 1.958585 1_555
Mo2 O6 1.970889 1_455
Mo2 O8 1.992309 1_555
Mo2 O10 2.006878 1_555
Mo3 O21 1.925461 1_555
Mo3 O12 1.950202 1_555
Mo3 O20 1.954529 1_556
Mo3 O14 1.957254 1_545
Mo3 O0 1.959034 1_555
Mo3 O4 1.970123 1_555
Mo4 O13 1.905546 1_555
Mo4 O15 1.908021 1_545
Mo4 O1 1.958626 1_555
Mo4 O5 1.970536 1_555
Mo4 O21 1.985970 1_555
Mo4 O20 2.031882 1_555
Mo5 O23 1.904983 1_555
Mo5 O22 1.920640 1_556
Mo5 O2 1.958585 1_555
Mo5 O6 1.970889 1_555
Mo5 O12 1.992309 1_555
Mo5 O14 2.006878 1_555
O3 V0 1.958703 1_555
O3 V1 1.958703 1_555
O7 V0 1.970784 1_655
O7 V1 1.970784 1_555
O9 V0 2.031848 1_555
O11 V0 2.061477 1_555
O13 V1 2.031848 1_555
O15 V1 2.061477 1_555
O18 V0 2.075679 1_555
O19 V0 1.996778 1_555
O22 V1 2.075679 1_555
O23 V1 1.996778 1_555
