# generated using pymatgen
data_Fe2CuS3
_symmetry_space_group_name_H-M   'P 1'
_cell_length_a   5.89300500
_cell_length_b   5.95148132
_cell_length_c   10.83402775
_cell_angle_alpha   89.35206315
_cell_angle_beta   89.50599489
_cell_angle_gamma   60.55252271
_symmetry_Int_Tables_number   1
_chemical_formula_structural   Fe2CuS3
_chemical_formula_sum   'Fe8 Cu4 S12'
_cell_volume   330.85914980
_cell_formula_units_Z   4
loop_
 _symmetry_equiv_pos_site_id
 _symmetry_equiv_pos_as_xyz
  1  'x, y, z'
loop_
 _atom_site_type_symbol
 _atom_site_label
 _atom_site_symmetry_multiplicity
 _atom_site_fract_x
 _atom_site_fract_y
 _atom_site_fract_z
 _atom_site_occupancy
  Fe  Fe0  1  0.35795300  0.68410800  0.38042400  1
  Fe  Fe1  1  0.67593600  0.95811300  0.38074600  1
  Fe  Fe2  1  0.07173200  0.33260300  0.61208400  1
  Fe  Fe3  1  0.59140400  0.07645400  0.61298100  1
  Fe  Fe4  1  0.33297700  0.59005700  0.61093300  1
  Fe  Fe5  1  0.07565800  0.33110300  0.88640400  1
  Fe  Fe6  1  0.59083000  0.07776200  0.88420500  1
  Fe  Fe7  1  0.33407700  0.58960800  0.88350900  1
  Cu  Cu0  1  0.94575900  0.36960600  0.12579200  1
  Cu  Cu1  1  0.37869400  0.68220600  0.11842700  1
  Cu  Cu2  1  0.69312900  0.93703800  0.11624900  1
  Cu  Cu3  1  0.94267200  0.37984300  0.37828000  1
  S  S0  1  0.00385300  0.68229400  0.25941400  1
  S  S1  1  0.66118600  0.32459900  0.26297400  1
  S  S2  1  0.34210600  0.99253700  0.25629700  1
  S  S3  1  0.03512700  0.62926400  0.74853900  1
  S  S4  1  0.32903000  0.03765200  0.75000100  1
  S  S5  1  0.63513400  0.33330200  0.74678400  1
  S  S6  1  0.99952100  0.99695600  0.95656800  1
  S  S7  1  0.00322400  0.99142800  0.53815300  1
  S  S8  1  0.33403300  0.33163400  0.02135300  1
  S  S9  1  0.33474200  0.33087000  0.47539200  1
  S  S10  1  0.66278000  0.67624800  0.54257400  1
  S  S11  1  0.66844100  0.66451700  0.95191600  1
loop_
_geom_bond_atom_site_label_1
_geom_bond_atom_site_label_2
_geom_bond_distance
_geom_bond_site_symmetry_2
Fe0 S2 2.228103 1_555
Fe0 S1 2.377668 1_555
Fe0 S9 2.393393 1_555
Fe0 S0 2.478492 1_555
Fe0 S10 2.507013 1_555
Fe0 S7 2.623928 1_555
Fe1 S0 2.245621 1_655
Fe1 S2 2.318008 1_555
Fe1 S9 2.376086 1_565
Fe1 S10 2.439869 1_555
Fe1 S1 2.479011 1_565
Fe1 S7 2.666051 1_655
Fe2 S9 2.130855 1_555
Fe2 S4 2.230643 1_555
Fe2 S3 2.242404 1_555
Fe2 S10 2.389146 1_455
Fe2 S7 2.403297 1_545
Fe3 S9 2.130347 1_555
Fe3 S5 2.224502 1_555
Fe3 S4 2.225173 1_555
Fe3 S10 2.341438 1_545
Fe3 S7 2.360249 1_645
Fe4 S9 2.138015 1_555
Fe4 S3 2.217632 1_555
Fe4 S5 2.234013 1_555
Fe4 S7 2.350254 1_555
Fe4 S10 2.352826 1_555
Fe5 S8 2.121114 1_556
Fe5 S4 2.218051 1_555
Fe5 S3 2.228521 1_555
Fe5 S11 2.349549 1_455
Fe5 S6 2.360341 1_445
Fe6 S8 2.131801 1_556
Fe6 S5 2.220410 1_555
Fe6 S4 2.227074 1_555
Fe6 S6 2.351929 1_545
Fe6 S11 2.378034 1_545
Fe7 S8 2.129793 1_556
Fe7 S3 2.219316 1_555
Fe7 S5 2.239071 1_555
Fe7 S11 2.350940 1_555
Fe7 S6 2.389083 1_455
Cu0 S1 2.341500 1_555
Cu0 S8 2.453461 1_655
Cu0 S0 2.524281 1_655
Cu0 S11 2.541246 1_554
Cu0 S2 2.705917 1_645
Cu0 S6 2.787730 1_544
Cu1 S2 2.313877 1_555
Cu1 S11 2.440362 1_554
Cu1 S8 2.474435 1_555
Cu1 S1 2.497853 1_555
Cu1 S0 2.674554 1_555
Cu1 S6 2.730312 1_454
Cu2 S0 2.307252 1_655
Cu2 S2 2.444520 1_555
Cu2 S11 2.474532 1_554
Cu2 S8 2.479262 1_565
Cu2 S6 2.635408 1_554
Cu2 S1 2.744706 1_565
Cu3 S1 2.236416 1_555
Cu3 S0 2.367742 1_655
Cu3 S9 2.429612 1_655
Cu3 S10 2.481970 1_555
Cu3 S2 2.698300 1_645
Cu3 S7 2.753205 1_645
