# generated using pymatgen
data_Al2Hg5Se8
_symmetry_space_group_name_H-M   'P 1'
_cell_length_a   8.40451700
_cell_length_b   8.44335121
_cell_length_c   27.92205420
_cell_angle_alpha   97.16799001
_cell_angle_beta   90.48170215
_cell_angle_gamma   118.44816971
_symmetry_Int_Tables_number   1
_chemical_formula_structural   Al2Hg5Se8
_chemical_formula_sum   'Al8 Hg20 Se32'
_cell_volume   1723.30282280
_cell_formula_units_Z   4
loop_
 _symmetry_equiv_pos_site_id
 _symmetry_equiv_pos_as_xyz
  1  'x, y, z'
loop_
 _atom_site_type_symbol
 _atom_site_label
 _atom_site_symmetry_multiplicity
 _atom_site_fract_x
 _atom_site_fract_y
 _atom_site_fract_z
 _atom_site_occupancy
  Al  Al0  1  0.93195500  0.72270400  0.84047400  1
  Al  Al1  1  0.18337400  0.33813100  0.97380400  1
  Al  Al2  1  0.43233700  0.46957800  0.59423900  1
  Al  Al3  1  0.68940800  0.09046800  0.71966900  1
  Al  Al4  1  0.45203100  0.23384800  0.34446800  1
  Al  Al5  1  0.20179100  0.85692800  0.46671400  1
  Al  Al6  1  0.94337500  0.97688400  0.09860700  1
  Al  Al7  1  0.69592500  0.60535400  0.22107400  1
  Hg  Hg0  1  0.46362300  0.73319500  0.84022600  1
  Hg  Hg1  1  0.20133800  0.86988900  0.97254600  1
  Hg  Hg2  1  0.92604000  0.19221500  0.83933100  1
  Hg  Hg3  1  0.96983600  0.48814700  0.58552900  1
  Hg  Hg4  1  0.69963500  0.62025500  0.72361200  1
  Hg  Hg5  1  0.64786300  0.32037100  0.97107100  1
  Hg  Hg6  1  0.43685000  0.21781100  0.84389300  1
  Hg  Hg7  1  0.42617400  0.94160400  0.58907900  1
  Hg  Hg8  1  0.21326200  0.37147900  0.47391600  1
  Hg  Hg9  1  0.15610600  0.07656500  0.72386500  1
  Hg  Hg10  1  0.91640900  0.22843300  0.33508900  1
  Hg  Hg11  1  0.93820100  0.96775000  0.59329000  1
  Hg  Hg12  1  0.90094900  0.68798700  0.33786800  1
  Hg  Hg13  1  0.71461600  0.11928700  0.22377800  1
  Hg  Hg14  1  0.64400200  0.81216800  0.47690700  1
  Hg  Hg15  1  0.41798800  0.98136200  0.08050100  1
  Hg  Hg16  1  0.45806600  0.71648000  0.34334800  1
  Hg  Hg17  1  0.39927800  0.43658000  0.08765400  1
  Hg  Hg18  1  0.13638200  0.55713800  0.22401200  1
  Hg  Hg19  1  0.95749100  0.46595100  0.09321200  1
  Se  Se0  1  0.98998400  0.01593200  0.00884200  1
  Se  Se1  1  0.53476100  0.97501100  0.99008800  1
  Se  Se2  1  0.75659900  0.85202600  0.88222100  1
  Se  Se3  1  0.48474800  0.76897400  0.74453100  1
  Se  Se4  1  0.21892700  0.85627500  0.87353300  1
  Se  Se5  1  0.48797400  0.51952700  0.99242700  1
  Se  Se6  1  0.23285900  0.36670000  0.88435600  1
  Se  Se7  1  0.00229600  0.49133100  0.99582500  1
  Se  Se8  1  0.25346400  0.60214200  0.63201400  1
  Se  Se9  1  0.01565200  0.72865000  0.75443200  1
  Se  Se10  1  0.76683800  0.39999700  0.87157900  1
  Se  Se11  1  0.00445200  0.53169600  0.48900200  1
  Se  Se12  1  0.72667200  0.60685500  0.62417400  1
  Se  Se13  1  0.98496900  0.26860400  0.74338800  1
  Se  Se14  1  0.74155500  0.12815400  0.62995600  1
  Se  Se15  1  0.50862700  0.24288900  0.74614900  1
  Se  Se16  1  0.52059300  0.47155400  0.50890300  1
  Se  Se17  1  0.71756200  0.35333500  0.38377100  1
  Se  Se18  1  0.26364400  0.14415400  0.62455400  1
  Se  Se19  1  0.50735900  0.27837700  0.25407200  1
  Se  Se20  1  0.25385500  0.35918200  0.37411700  1
  Se  Se21  1  0.49357300  0.02364600  0.49318200  1
  Se  Se22  1  0.01067100  0.99549500  0.49551400  1
  Se  Se23  1  0.26111800  0.90167400  0.37506900  1
  Se  Se24  1  0.04147200  0.21936100  0.24585500  1
  Se  Se25  1  0.22049700  0.10147200  0.13352700  1
  Se  Se26  1  0.75948300  0.88089500  0.37979300  1
  Se  Se27  1  0.74584900  0.10847100  0.12430200  1
  Se  Se28  1  0.99661400  0.77399800  0.24283900  1
  Se  Se29  1  0.75311900  0.64219000  0.12947700  1
  Se  Se30  1  0.50434600  0.74395900  0.24580200  1
  Se  Se31  1  0.26385700  0.63805100  0.12675100  1
loop_
_geom_bond_atom_site_label_1
_geom_bond_atom_site_label_2
_geom_bond_distance
_geom_bond_site_symmetry_2
Al0 Se4 2.247739 1_655
Al0 Se2 2.442844 1_555
Al0 Se9 2.508798 1_655
Al0 Se10 2.666956 1_555
Al1 Se5 2.283235 1_555
Al1 Se7 2.461732 1_555
Al1 Se6 2.557588 1_555
Al1 Se0 2.734590 1_456
Al2 Se12 2.270077 1_555
Al2 Se8 2.441414 1_555
Al2 Se16 2.501169 1_555
Al2 Se18 2.676834 1_555
Al3 Se13 2.243997 1_555
Al3 Se15 2.481079 1_555
Al3 Se14 2.579287 1_555
Al3 Se3 2.617431 1_545
Al4 Se17 2.177144 1_555
Al4 Se20 2.462350 1_555
Al4 Se19 2.611200 1_555
Al4 Se23 2.739414 1_545
Al5 Se21 2.227668 1_565
Al5 Se22 2.484548 1_555
Al5 Se11 2.604521 1_555
Al5 Se23 2.650029 1_555
Al6 Se25 2.203065 1_665
Al6 Se27 2.466467 1_565
Al6 Se0 2.577595 1_565
Al6 Se29 2.758929 1_555
Al7 Se28 2.261243 1_555
Al7 Se30 2.459900 1_555
Al7 Se29 2.635477 1_555
Al7 Se19 2.733740 1_555
Hg0 Se2 2.397660 1_555
Hg0 Se3 2.724095 1_555
Hg0 Se4 2.828671 1_555
Hg0 Se6 3.182659 1_555
Hg1 Se1 2.525696 1_555
Hg1 Se0 2.740108 1_466
Hg1 Se4 2.760813 1_555
Hg1 Se7 2.979907 1_555
Hg2 Se6 2.502868 1_655
Hg2 Se10 2.746151 1_555
Hg2 Se13 2.826146 1_555
Hg2 Se2 2.950008 1_545
Hg3 Se8 2.396601 1_655
Hg3 Se11 2.764545 1_655
Hg3 Se12 2.839763 1_555
Hg3 Se14 3.143832 1_555
Hg4 Se9 2.466069 1_655
Hg4 Se3 2.678606 1_555
Hg4 Se12 2.780318 1_555
Hg4 Se15 2.961311 1_555
Hg5 Se5 2.627737 1_555
Hg5 Se7 2.656052 1_655
Hg5 Se1 2.728121 1_545
Hg5 Se10 3.006922 1_555
Hg6 Se10 2.501641 1_555
Hg6 Se6 2.743657 1_555
Hg6 Se15 2.812038 1_555
Hg6 Se4 2.947377 1_545
Hg7 Se14 2.516412 1_565
Hg7 Se18 2.756363 1_565
Hg7 Se21 2.843419 1_565
Hg7 Se8 2.946573 1_555
Hg8 Se16 2.451993 1_555
Hg8 Se11 2.686874 1_555
Hg8 Se20 2.805317 1_555
Hg8 Se22 2.947194 1_545
Hg9 Se15 2.631391 1_555
Hg9 Se13 2.647559 1_455
Hg9 Se9 2.844315 1_545
Hg9 Se18 2.962692 1_555
Hg10 Se17 2.666909 1_555
Hg10 Se20 2.667296 1_655
Hg10 Se24 2.718792 1_655
Hg10 Se26 3.027002 1_545
Hg11 Se18 2.493152 1_665
Hg11 Se14 2.725587 1_565
Hg11 Se22 2.816196 1_655
Hg11 Se12 2.951237 1_555
Hg12 Se26 2.613336 1_555
Hg12 Se23 2.788071 1_655
Hg12 Se28 2.859172 1_555
Hg12 Se17 2.964811 1_555
Hg13 Se24 2.504083 1_655
Hg13 Se19 2.743072 1_555
Hg13 Se27 2.786388 1_555
Hg13 Se30 2.951771 1_545
Hg14 Se21 2.636504 1_565
Hg14 Se22 2.718530 1_655
Hg14 Se16 2.821304 1_555
Hg14 Se26 2.920954 1_555
Hg15 Se27 2.653058 1_565
Hg15 Se25 2.691824 1_565
Hg15 Se1 2.719791 1_554
Hg15 Se31 3.022093 1_555
Hg16 Se26 2.373554 1_555
Hg16 Se30 2.777250 1_555
Hg16 Se23 2.848561 1_555
Hg16 Se20 2.919500 1_555
Hg17 Se31 2.604391 1_555
Hg17 Se29 2.781798 1_555
Hg17 Se5 2.848994 1_554
Hg17 Se25 2.964858 1_555
Hg18 Se28 2.613092 1_455
Hg18 Se24 2.723392 1_555
Hg18 Se30 2.739261 1_555
Hg18 Se31 2.967209 1_555
Hg19 Se31 2.381930 1_655
Hg19 Se7 2.769075 1_654
Hg19 Se29 2.877199 1_555
Hg19 Se27 2.931323 1_555
