# generated using pymatgen
data_LiV3O3F7
_symmetry_space_group_name_H-M   'P 1'
_cell_length_a   7.42417800
_cell_length_b   7.42811544
_cell_length_c   8.43468724
_cell_angle_alpha   77.73533930
_cell_angle_beta   116.05515806
_cell_angle_gamma   119.35842540
_symmetry_Int_Tables_number   1
_chemical_formula_structural   LiV3O3F7
_chemical_formula_sum   'Li2 V6 O6 F14'
_cell_volume   364.20942331
_cell_formula_units_Z   2
loop_
 _symmetry_equiv_pos_site_id
 _symmetry_equiv_pos_as_xyz
  1  'x, y, z'
loop_
 _atom_site_type_symbol
 _atom_site_label
 _atom_site_symmetry_multiplicity
 _atom_site_fract_x
 _atom_site_fract_y
 _atom_site_fract_z
 _atom_site_occupancy
  Li  Li0  1  0.82862300  0.51482200  0.50016100  1
  Li  Li1  1  0.06304100  0.00115200  0.99972300  1
  V  V0  1  0.26179600  0.00701400  0.48456200  1
  V  V1  1  0.97790900  0.50199400  0.98357800  1
  V  V2  1  0.25084500  0.48174300  0.50132300  1
  V  V3  1  0.50831000  0.48122800  0.01639200  1
  V  V4  1  0.76806200  0.99197000  0.51590200  1
  V  V5  1  0.51452000  0.02046300  0.99978000  1
  O  O0  1  0.95242600  0.93234600  0.50302300  1
  O  O1  1  0.75619500  0.57002300  0.00166600  1
  O  O2  1  0.30392500  0.28803800  0.49879400  1
  O  O3  1  0.76249800  0.20975700  0.99538800  1
  O  O4  1  0.40742000  0.21786400  0.00326500  1
  O  O5  1  0.51678200  0.06674600  0.49677100  1
  F  F0  1  0.34971000  0.98333600  0.74646300  1
  F  F1  1  0.09919200  0.99332900  0.23843600  1
  F  F2  1  0.18878200  0.80686200  0.99666000  1
  F  F3  1  0.55065100  0.77677500  0.00638800  1
  F  F4  1  0.53744700  0.70510500  0.51176700  1
  F  F5  1  0.14247700  0.69660000  0.49123500  1
  F  F6  1  0.86293900  0.50664000  0.73534300  1
  F  F7  1  0.12063700  0.51014800  0.24696900  1
  F  F8  1  0.35905000  0.50947900  0.75487500  1
  F  F9  1  0.61408100  0.50196900  0.25879700  1
  F  F10  1  0.20310700  0.41954300  0.99852200  1
  F  F11  1  0.94220600  0.30120000  0.49928100  1
  F  F12  1  0.86606000  0.00898600  0.76145900  1
  F  F13  1  0.60498700  0.99486900  0.25347600  1
loop_
_geom_bond_atom_site_label_1
_geom_bond_atom_site_label_2
_geom_bond_distance
_geom_bond_site_symmetry_2
Li1 O4 2.246504 1_556
O0 V4 1.681342 1_555
O0 V0 2.153046 1_665
O1 V3 1.677230 1_555
O1 V1 2.014216 1_554
O2 V2 1.674064 1_555
O2 V0 1.975622 1_555
O3 V5 1.693329 1_555
O3 V1 1.980855 1_555
O4 V3 1.727069 1_555
O4 V5 1.991294 1_554
O5 V0 1.678007 1_555
O5 V4 2.127991 1_545
F0 V5 1.939407 1_565
F0 V0 2.004431 1_565
F1 V0 1.882864 1_565
F1 Li1 1.902716 1_564
F2 V1 2.017319 1_455
F2 Li1 2.076793 1_565
F2 V5 2.136807 1_565
F3 V5 1.942110 1_564
F3 V3 2.047791 1_555
F4 V2 1.929722 1_555
F4 V4 1.968496 1_555
F5 V0 2.022472 1_565
F5 Li0 2.069822 1_455
F5 V2 2.083965 1_555
F6 Li0 1.877129 1_555
F6 V1 1.881992 1_555
F7 V2 1.941010 1_555
F7 V1 1.997076 1_454
F8 V2 1.943502 1_555
F8 V3 2.005414 1_556
F9 V3 1.850830 1_555
F9 Li0 1.943090 1_555
F10 V1 1.993086 1_455
F10 V3 2.019448 1_556
F11 V2 2.002815 1_655
F11 V4 2.019365 1_545
F11 Li0 2.133463 1_555
F12 V4 1.879479 1_545
F12 Li1 1.905994 1_655
F13 V5 1.938042 1_564
F13 V4 2.004217 1_555
