# generated using pymatgen
data_NaMg14Nb
_symmetry_space_group_name_H-M   'P 1'
_cell_length_a   6.38338378
_cell_length_b   6.51493486
_cell_length_c   10.13199584
_cell_angle_alpha   90.00000000
_cell_angle_beta   90.00000000
_cell_angle_gamma   120.68409863
_symmetry_Int_Tables_number   1
_chemical_formula_structural   NaMg14Nb
_chemical_formula_sum   'Na1 Mg14 Nb1'
_cell_volume   362.36932109
_cell_formula_units_Z   1
loop_
 _symmetry_equiv_pos_site_id
 _symmetry_equiv_pos_as_xyz
  1  'x, y, z'
loop_
 _atom_site_type_symbol
 _atom_site_label
 _atom_site_symmetry_multiplicity
 _atom_site_fract_x
 _atom_site_fract_y
 _atom_site_fract_z
 _atom_site_occupancy
  Na  Na0  1  0.16809425  0.33404662  0.12500000  1
  Mg  Mg0  1  0.16888285  0.33444093  0.62500000  1
  Mg  Mg1  1  0.16732890  0.83366395  0.62500000  1
  Mg  Mg2  1  0.66414515  0.33576898  0.12500000  1
  Mg  Mg3  1  0.66664489  0.33457874  0.62500000  1
  Mg  Mg4  1  0.66414515  0.82837517  0.12500000  1
  Mg  Mg5  1  0.66664489  0.83206515  0.62500000  1
  Mg  Mg6  1  0.32842297  0.15424371  0.37111307  1
  Mg  Mg7  1  0.32842297  0.15424371  0.87888693  1
  Mg  Mg8  1  0.32842297  0.67418025  0.37111307  1
  Mg  Mg9  1  0.32842297  0.67418025  0.87888693  1
  Mg  Mg10  1  0.82856684  0.16428392  0.37669159  1
  Mg  Mg11  1  0.82856684  0.16428392  0.87330841  1
  Mg  Mg12  1  0.84333424  0.67166762  0.36851886  1
  Mg  Mg13  1  0.84333424  0.67166762  0.88148114  1
  Nb  Nb0  1  0.17661991  0.83830946  0.12500000  1
loop_
_geom_bond_atom_site_label_1
_geom_bond_atom_site_label_2
_geom_bond_distance
_geom_bond_site_symmetry_2
Na0 Nb0 3.257804 1_545
Na0 Nb0 3.257804 1_555
Mg0 Mg10 3.133657 1_455
Mg0 Mg11 3.133657 1_455
Mg0 Mg5 3.176948 1_555
Mg0 Mg3 3.176948 1_555
Mg0 Mg7 3.201988 1_555
Mg0 Mg6 3.201988 1_555
Mg0 Mg9 3.201995 1_555
Mg0 Mg8 3.201995 1_555
Mg0 Mg5 3.206436 1_445
Mg0 Mg3 3.206436 1_455
Mg0 Mg1 3.257479 1_555
Mg0 Mg1 3.257479 1_545
Mg1 Mg9 3.137618 1_555
Mg1 Mg8 3.137618 1_555
Mg1 Mg7 3.137625 1_565
Mg1 Mg6 3.137625 1_565
Mg1 Mg12 3.149058 1_455
Mg1 Mg13 3.149058 1_455
Mg1 Mg3 3.190755 1_455
Mg1 Mg5 3.190755 1_455
Mg1 Mg3 3.192653 1_565
Mg1 Mg5 3.192654 1_555
Mg2 Mg6 3.102050 1_555
Mg2 Mg7 3.102050 1_554
Mg2 Nb0 3.145580 1_545
Mg2 Na0 3.160772 1_555
Mg2 Mg4 3.209297 1_555
Mg2 Na0 3.222641 1_655
Mg2 Nb0 3.238774 1_655
Mg2 Mg4 3.305638 1_545
Mg3 Mg7 3.173315 1_555
Mg3 Mg6 3.173315 1_555
Mg3 Mg5 3.241092 1_555
Mg3 Mg5 3.273843 1_545
Mg4 Mg8 3.102050 1_555
Mg4 Mg9 3.102050 1_554
Mg4 Nb0 3.145581 1_555
Mg4 Na0 3.160772 1_555
Mg4 Na0 3.222641 1_665
Mg4 Nb0 3.238774 1_655
Mg5 Mg9 3.173315 1_555
Mg5 Mg8 3.173315 1_555
Mg6 Nb0 3.059094 1_545
Mg6 Mg8 3.127582 1_545
Mg6 Na0 3.140272 1_555
Mg6 Mg8 3.387353 1_555
Mg7 Nb0 3.059094 1_546
Mg7 Mg9 3.127582 1_545
Mg7 Na0 3.140272 1_556
Mg7 Mg9 3.387353 1_555
Mg8 Nb0 3.059088 1_555
Mg8 Na0 3.140279 1_555
Mg9 Nb0 3.059088 1_556
Mg9 Na0 3.140279 1_556
Mg10 Mg3 3.130365 1_555
Mg10 Mg5 3.130371 1_545
Mg10 Na0 3.158687 1_655
Mg10 Mg8 3.160237 1_545
Mg10 Mg6 3.160237 1_555
Mg10 Mg2 3.170129 1_555
Mg10 Mg4 3.170136 1_545
Mg10 Mg8 3.225139 1_655
Mg10 Mg6 3.225139 1_655
Mg10 Mg12 3.259528 1_555
Mg10 Mg12 3.259528 1_545
Mg11 Mg3 3.130365 1_555
Mg11 Mg5 3.130371 1_545
Mg11 Na0 3.158687 1_656
Mg11 Mg9 3.160237 1_545
Mg11 Mg7 3.160237 1_555
Mg11 Mg2 3.170129 1_556
Mg11 Mg4 3.170136 1_546
Mg11 Mg9 3.225139 1_655
Mg11 Mg7 3.225139 1_655
Mg11 Mg13 3.259528 1_555
Mg11 Mg13 3.259528 1_545
Mg12 Nb0 3.071688 1_655
Mg12 Mg6 3.088298 1_665
Mg12 Mg8 3.088298 1_655
Mg12 Mg4 3.103264 1_555
Mg12 Mg2 3.103271 1_555
Mg12 Mg5 3.212483 1_555
Mg12 Mg3 3.212489 1_555
Mg12 Mg6 3.295364 1_555
Mg12 Mg8 3.295365 1_555
Mg13 Nb0 3.071688 1_656
Mg13 Mg7 3.088298 1_665
Mg13 Mg9 3.088298 1_655
Mg13 Mg4 3.103264 1_556
Mg13 Mg2 3.103271 1_556
Mg13 Mg5 3.212483 1_555
Mg13 Mg3 3.212489 1_555
Mg13 Mg7 3.295364 1_555
Mg13 Mg9 3.295365 1_555
