# generated using pymatgen
data_Er2GaCo2
_symmetry_space_group_name_H-M   'P 1'
_cell_length_a   4.07991382
_cell_length_b   5.29012755
_cell_length_c   5.27831427
_cell_angle_alpha   120.07559336
_cell_angle_beta   112.74606219
_cell_angle_gamma   89.99707525
_symmetry_Int_Tables_number   1
_chemical_formula_structural   Er2GaCo2
_chemical_formula_sum   'Er2 Ga1 Co2'
_cell_volume   88.19896505
_cell_formula_units_Z   1
loop_
 _symmetry_equiv_pos_site_id
 _symmetry_equiv_pos_as_xyz
  1  'x, y, z'
loop_
 _atom_site_type_symbol
 _atom_site_label
 _atom_site_symmetry_multiplicity
 _atom_site_fract_x
 _atom_site_fract_y
 _atom_site_fract_z
 _atom_site_occupancy
  Er  Er0  1  0.79421180  0.29423150  0.58838384  1
  Er  Er1  1  0.20579725  0.70577899  0.41161519  1
  Ga  Ga0  1  -0.00002344  -0.00008857  0.00000143  1
  Co  Co0  1  0.50006155  0.28515977  -0.00004427  1
  Co  Co1  1  0.49995285  0.71491831  0.00004381  1
loop_
_geom_bond_atom_site_label_1
_geom_bond_atom_site_label_2
_geom_bond_distance
_geom_bond_site_symmetry_2
Er0 Ga0 3.134011 1_666
Er0 Ga0 3.135174 1_656
Er0 Ga0 3.153009 1_555
Er0 Ga0 3.153352 1_655
Er1 Ga0 3.134320 1_565
Er1 Ga0 3.134849 1_555
Er1 Ga0 3.152868 1_666
Er1 Ga0 3.153516 1_566
Co0 Co1 2.273245 1_555
Co0 Ga0 2.537077 1_655
Co0 Ga0 2.537909 1_555
Co0 Er1 2.838440 1_544
Co0 Er0 2.838563 1_555
Co0 Er1 2.877463 1_655
Co0 Er0 2.877776 1_454
Co0 Er0 2.877930 1_554
Co0 Er1 2.878365 1_555
Co1 Ga0 2.536476 1_565
Co1 Ga0 2.536894 1_665
Co1 Er0 2.838249 1_565
Co1 Er1 2.838376 1_554
Co1 Er0 2.877619 1_454
Co1 Er1 2.877901 1_655
Co1 Er1 2.878084 1_555
Co1 Er0 2.878492 1_554
