# generated using pymatgen
data_Y6Co2Sn
_symmetry_space_group_name_H-M   'P 1'
_cell_length_a   8.43506690
_cell_length_b   8.43506690
_cell_length_c   8.43506690
_cell_angle_alpha   111.05871501
_cell_angle_beta   109.90755925
_cell_angle_gamma   107.46792994
_symmetry_Int_Tables_number   1
_chemical_formula_structural   Y6Co2Sn
_chemical_formula_sum   'Y12 Co4 Sn2'
_cell_volume   461.53172011
_cell_formula_units_Z   2
loop_
 _symmetry_equiv_pos_site_id
 _symmetry_equiv_pos_as_xyz
  1  'x, y, z'
loop_
 _atom_site_type_symbol
 _atom_site_label
 _atom_site_symmetry_multiplicity
 _atom_site_fract_x
 _atom_site_fract_y
 _atom_site_fract_z
 _atom_site_occupancy
  Y  Y0  1  0.44280900  0.23337800  0.20943100  1
  Y  Y1  1  0.55719100  0.76662200  0.79056900  1
  Y  Y2  1  0.02394800  0.23337800  0.79056900  1
  Y  Y3  1  0.97605200  0.76662200  0.20943100  1
  Y  Y4  1  0.18551100  0.28431700  0.46982800  1
  Y  Y5  1  0.81448900  0.71568300  0.53017200  1
  Y  Y6  1  0.18551100  0.71568300  0.90119400  1
  Y  Y7  1  0.81448900  0.28431700  0.09880600  1
  Y  Y8  1  0.32105200  0.62909700  0.30804500  1
  Y  Y9  1  0.67894800  0.37090300  0.69195500  1
  Y  Y10  1  0.32105200  0.01300700  0.69195500  1
  Y  Y11  1  0.67894800  0.98699300  0.30804500  1
  Co  Co0  1  0.36101400  0.00000000  0.36101400  1
  Co  Co1  1  0.63898600  0.00000000  0.63898600  1
  Co  Co2  1  0.11235500  0.61235500  0.50000000  1
  Co  Co3  1  0.88764500  0.38764500  0.50000000  1
  Sn  Sn0  1  0.50000000  0.50000000  0.00000000  1
  Sn  Sn1  1  0.00000000  0.00000000  0.00000000  1
loop_
_geom_bond_atom_site_label_1
_geom_bond_atom_site_label_2
_geom_bond_distance
_geom_bond_site_symmetry_2
Co0 Co1 2.692842 1_555
Co0 Y0 2.753241 1_555
Co0 Y3 2.753248 1_445
Co0 Y10 2.891556 1_555
Co0 Y11 2.891556 1_545
Co0 Y8 2.891556 1_545
Co0 Y9 2.891556 1_555
Co0 Y4 3.203174 1_555
Co0 Y6 3.203174 1_544
Co1 Y1 2.753241 1_545
Co1 Y2 2.753248 1_655
Co1 Y9 2.891556 1_555
Co1 Y10 2.891556 1_555
Co1 Y11 2.891556 1_545
Co1 Y8 2.891556 1_545
Co1 Y7 3.203174 1_556
Co1 Y5 3.203174 1_545
Co2 Co3 2.242444 1_455
Co2 Y10 2.774289 1_565
Co2 Y8 2.774289 1_555
Co2 Y6 2.954302 1_555
Co2 Y4 2.954302 1_555
Co2 Y5 2.954302 1_455
Co2 Y7 2.954302 1_455
Co2 Y1 3.208348 1_555
Co2 Y3 3.208350 1_455
Co3 Y9 2.774289 1_555
Co3 Y11 2.774289 1_545
Co3 Y6 2.954302 1_655
Co3 Y4 2.954302 1_655
Co3 Y5 2.954302 1_555
Co3 Y7 2.954302 1_555
Co3 Y0 3.208348 1_555
Co3 Y2 3.208350 1_655
Sn0 Y3 3.345968 1_555
Sn0 Y2 3.345968 1_554
Sn0 Y1 3.345975 1_554
Sn0 Y0 3.345975 1_555
Sn0 Y8 3.440948 1_555
Sn0 Y9 3.440948 1_554
Sn0 Y11 3.440948 1_555
Sn0 Y10 3.440948 1_554
Sn0 Y7 3.677342 1_555
Sn0 Y5 3.677342 1_555
Sn0 Y6 3.677342 1_554
Sn0 Y4 3.677342 1_554
Sn1 Y0 3.088726 1_555
Sn1 Y1 3.088726 1_444
Sn1 Y2 3.088727 1_554
Sn1 Y3 3.088727 1_445
Sn1 Y6 3.255671 1_544
Sn1 Y4 3.255671 1_555
Sn1 Y7 3.255671 1_455
Sn1 Y5 3.255671 1_444
