# generated using pymatgen
data_CaMnO3
_symmetry_space_group_name_H-M   'P 1'
_cell_length_a   5.39092029
_cell_length_b   5.39092029
_cell_length_c   9.21762700
_cell_angle_alpha   90.00000000
_cell_angle_beta   90.00000000
_cell_angle_gamma   120.00000351
_symmetry_Int_Tables_number   1
_chemical_formula_structural   CaMnO3
_chemical_formula_sum   'Ca4 Mn4 O12'
_cell_volume   231.99336620
_cell_formula_units_Z   4
loop_
 _symmetry_equiv_pos_site_id
 _symmetry_equiv_pos_as_xyz
  1  'x, y, z'
loop_
 _atom_site_type_symbol
 _atom_site_label
 _atom_site_symmetry_multiplicity
 _atom_site_fract_x
 _atom_site_fract_y
 _atom_site_fract_z
 _atom_site_occupancy
  Ca  Ca0  1  0.00000000  0.00000000  0.50000000  1
  Ca  Ca1  1  0.00000000  0.00000000  0.00000000  1
  Ca  Ca2  1  0.33333300  0.66666700  0.25000000  1
  Ca  Ca3  1  0.66666700  0.33333300  0.75000000  1
  Mn  Mn0  1  0.33333300  0.66666700  0.88627300  1
  Mn  Mn1  1  0.66666700  0.33333300  0.11372700  1
  Mn  Mn2  1  0.66666700  0.33333300  0.38627300  1
  Mn  Mn3  1  0.33333300  0.66666700  0.61372700  1
  O  O0  1  0.50000000  0.50000000  0.50000000  1
  O  O1  1  0.50000000  0.00000000  0.50000000  1
  O  O2  1  0.00000000  0.50000000  0.50000000  1
  O  O3  1  0.50000000  0.50000000  0.00000000  1
  O  O4  1  0.50000000  0.00000000  0.00000000  1
  O  O5  1  0.00000000  0.50000000  0.00000000  1
  O  O6  1  0.82373900  0.17626100  0.25000000  1
  O  O7  1  0.82373900  0.64747700  0.25000000  1
  O  O8  1  0.35252300  0.17626100  0.25000000  1
  O  O9  1  0.17626100  0.82373900  0.75000000  1
  O  O10  1  0.17626100  0.35252300  0.75000000  1
  O  O11  1  0.64747700  0.82373900  0.75000000  1
loop_
_geom_bond_atom_site_label_1
_geom_bond_atom_site_label_2
_geom_bond_distance
_geom_bond_site_symmetry_2
Ca0 O0 2.695460 1_555
Ca0 O0 2.695460 1_445
Ca0 O2 2.695460 1_555
Ca0 O1 2.695460 1_555
Ca0 O2 2.695460 1_545
Ca0 O1 2.695460 1_455
Ca0 O6 2.831781 1_455
Ca0 O9 2.831781 1_545
Ca0 O8 2.831783 1_555
Ca0 O10 2.831783 1_555
Ca0 O7 2.831783 1_445
Ca0 O11 2.831783 1_445
Ca1 O3 2.695460 1_555
Ca1 O3 2.695460 1_445
Ca1 O5 2.695460 1_555
Ca1 O4 2.695460 1_555
Ca1 O5 2.695460 1_545
Ca1 O4 2.695460 1_455
Ca1 O6 2.831781 1_455
Ca1 O9 2.831781 1_544
Ca1 O10 2.831783 1_554
Ca1 O8 2.831783 1_555
Ca1 O7 2.831783 1_445
Ca1 O11 2.831783 1_444
Ca2 O8 2.696943 1_565
Ca2 O7 2.696943 1_455
Ca2 O6 2.696948 1_455
Ca2 O6 2.696948 1_565
Ca2 O7 2.696954 1_555
Ca2 O8 2.696954 1_555
Ca2 O4 2.780669 1_565
Ca2 O1 2.780669 1_565
Ca2 O5 2.780669 1_555
Ca2 O2 2.780669 1_555
Ca2 O0 2.780672 1_555
Ca2 O3 2.780672 1_555
Ca3 O10 2.696943 1_655
Ca3 O11 2.696943 1_545
Ca3 O9 2.696948 1_655
Ca3 O9 2.696948 1_545
Ca3 O11 2.696954 1_555
Ca3 O10 2.696954 1_555
Ca3 O2 2.780669 1_655
Ca3 O1 2.780669 1_555
Ca3 O4 2.780669 1_556
Ca3 O5 2.780669 1_656
Ca3 O3 2.780672 1_556
Ca3 O0 2.780672 1_555
Mn0 O4 1.876366 1_566
Mn0 O5 1.876366 1_556
Mn0 O3 1.876370 1_556
Mn0 O11 1.931021 1_555
Mn0 O10 1.931021 1_555
Mn0 O9 1.931021 1_555
Mn1 O4 1.876366 1_555
Mn1 O5 1.876366 1_655
Mn1 O3 1.876370 1_555
Mn1 O7 1.931021 1_555
Mn1 O8 1.931021 1_555
Mn1 O6 1.931021 1_555
Mn2 O1 1.876366 1_555
Mn2 O2 1.876366 1_655
Mn2 O0 1.876370 1_555
Mn2 O7 1.931021 1_555
Mn2 O8 1.931021 1_555
Mn2 O6 1.931021 1_555
Mn3 O1 1.876366 1_565
Mn3 O2 1.876366 1_555
Mn3 O0 1.876370 1_555
Mn3 O11 1.931021 1_555
Mn3 O10 1.931021 1_555
Mn3 O9 1.931021 1_555
