# generated using pymatgen
data_MgMo4O9
_symmetry_space_group_name_H-M   'P 1'
_cell_length_a   8.78918400
_cell_length_b   8.78918400
_cell_length_c   5.00936100
_cell_angle_alpha   90.00000000
_cell_angle_beta   90.00000000
_cell_angle_gamma   90.00000000
_symmetry_Int_Tables_number   1
_chemical_formula_structural   MgMo4O9
_chemical_formula_sum   'Mg2 Mo8 O18'
_cell_volume   386.97191189
_cell_formula_units_Z   2
loop_
 _symmetry_equiv_pos_site_id
 _symmetry_equiv_pos_as_xyz
  1  'x, y, z'
loop_
 _atom_site_type_symbol
 _atom_site_label
 _atom_site_symmetry_multiplicity
 _atom_site_fract_x
 _atom_site_fract_y
 _atom_site_fract_z
 _atom_site_occupancy
  Mg  Mg0  1  0.00000000  0.50000000  0.85692000  1
  Mg  Mg1  1  0.50000000  0.00000000  0.14308000  1
  Mo  Mo0  1  0.71084500  0.40271800  0.34062700  1
  Mo  Mo1  1  0.40271800  0.28915500  0.65937300  1
  Mo  Mo2  1  0.90271800  0.78915500  0.34062700  1
  Mo  Mo3  1  0.21084500  0.90271800  0.65937300  1
  Mo  Mo4  1  0.28915500  0.59728200  0.34062700  1
  Mo  Mo5  1  0.09728200  0.21084500  0.34062700  1
  Mo  Mo6  1  0.78915500  0.09728200  0.65937300  1
  Mo  Mo7  1  0.59728200  0.71084500  0.65937300  1
  O  O0  1  0.50000000  0.50000000  0.50000000  1
  O  O1  1  0.00000000  0.00000000  0.50000000  1
  O  O2  1  0.54604100  0.77672200  0.99066700  1
  O  O3  1  0.72327800  0.04604100  0.99066700  1
  O  O4  1  0.27672200  0.95395900  0.99066700  1
  O  O5  1  0.45395900  0.22327800  0.99066700  1
  O  O6  1  0.95395900  0.72327800  0.00933300  1
  O  O7  1  0.77672200  0.45395900  0.00933300  1
  O  O8  1  0.22327800  0.54604100  0.00933300  1
  O  O9  1  0.04604100  0.27672200  0.00933300  1
  O  O10  1  0.20209000  0.39023900  0.51928400  1
  O  O11  1  0.10976100  0.70209000  0.51928400  1
  O  O12  1  0.89023900  0.29791000  0.51928400  1
  O  O13  1  0.79791000  0.60976100  0.51928400  1
  O  O14  1  0.70209000  0.89023900  0.48071600  1
  O  O15  1  0.39023900  0.79791000  0.48071600  1
  O  O16  1  0.60976100  0.20209000  0.48071600  1
  O  O17  1  0.29791000  0.10976100  0.48071600  1
loop_
_geom_bond_atom_site_label_1
_geom_bond_atom_site_label_2
_geom_bond_distance
_geom_bond_site_symmetry_2
Mg0 O7 2.144250 1_456
Mg0 O6 2.144250 1_456
Mg0 O9 2.144250 1_556
Mg0 O8 2.144250 1_556
Mg0 O13 2.635566 1_455
Mg0 O10 2.635566 1_555
Mg0 O11 2.635566 1_555
Mg0 O12 2.635566 1_455
Mg1 O5 2.144250 1_554
Mg1 O4 2.144250 1_544
Mg1 O3 2.144250 1_554
Mg1 O2 2.144250 1_544
Mg1 O16 2.635566 1_555
Mg1 O14 2.635566 1_545
Mg1 O15 2.635566 1_545
Mg1 O17 2.635566 1_555
Mo0 O7 1.814457 1_555
Mo0 O12 2.033613 1_555
Mo0 O16 2.095525 1_555
Mo0 O13 2.167482 1_555
Mo0 O0 2.191491 1_555
Mo1 O5 1.814457 1_555
Mo1 O17 2.033613 1_555
Mo1 O10 2.095525 1_555
Mo1 O16 2.167482 1_555
Mo1 O0 2.191491 1_555
Mo2 O6 1.814457 1_555
Mo2 O13 2.033613 1_555
Mo2 O14 2.095525 1_555
Mo2 O11 2.167482 1_655
Mo2 O1 2.191491 1_665
Mo3 O4 1.814457 1_555
Mo3 O15 2.033613 1_555
Mo3 O11 2.095525 1_555
Mo3 O17 2.167482 1_565
Mo3 O1 2.191491 1_565
Mo4 O8 1.814457 1_555
Mo4 O11 2.033613 1_555
Mo4 O15 2.095525 1_555
Mo4 O10 2.167482 1_555
Mo4 O0 2.191491 1_555
Mo5 O9 1.814457 1_555
Mo5 O10 2.033613 1_555
Mo5 O17 2.095525 1_555
Mo5 O12 2.167482 1_455
Mo5 O1 2.191491 1_555
Mo6 O3 1.814457 1_555
Mo6 O16 2.033613 1_555
Mo6 O12 2.095525 1_555
Mo6 O14 2.167482 1_545
Mo6 O1 2.191491 1_655
Mo7 O2 1.814457 1_555
Mo7 O14 2.033613 1_555
Mo7 O13 2.095525 1_555
Mo7 O15 2.167482 1_555
Mo7 O0 2.191491 1_555
