# generated using pymatgen
data_Sr2PtAu
_symmetry_space_group_name_H-M   'P 1'
_cell_length_a   6.05528534
_cell_length_b   6.05528534
_cell_length_c   4.61853621
_cell_angle_alpha   90.00000000
_cell_angle_beta   90.00000000
_cell_angle_gamma   138.75818848
_symmetry_Int_Tables_number   1
_chemical_formula_structural   Sr2PtAu
_chemical_formula_sum   'Sr2 Pt1 Au1'
_cell_volume   111.63902834
_cell_formula_units_Z   1
loop_
 _symmetry_equiv_pos_site_id
 _symmetry_equiv_pos_as_xyz
  1  'x, y, z'
loop_
 _atom_site_type_symbol
 _atom_site_label
 _atom_site_symmetry_multiplicity
 _atom_site_fract_x
 _atom_site_fract_y
 _atom_site_fract_z
 _atom_site_occupancy
  Sr  Sr0  1  0.13997454  0.86002546  0.50000000  1
  Sr  Sr1  1  0.86069268  0.13930732  0.00000000  1
  Pt  Pt0  1  0.42524759  0.57475241  0.50000000  1
  Au  Au0  1  0.57408420  0.42591580  0.00000000  1
loop_
_geom_bond_atom_site_label_1
_geom_bond_atom_site_label_2
_geom_bond_distance
_geom_bond_site_symmetry_2
Pt0 Sr1 3.227378 1_456
Pt0 Sr1 3.227378 1_455
Pt0 Sr1 3.227378 1_565
Pt0 Sr1 3.227378 1_566
Pt0 Sr0 3.233473 1_555
Pt0 Sr0 3.235972 1_545
Pt0 Sr0 3.235972 1_655
Au0 Pt0 2.859848 1_555
Au0 Pt0 2.859848 1_554
Au0 Sr1 3.224602 1_565
Au0 Sr1 3.224602 1_455
Au0 Sr0 3.230843 1_544
Au0 Sr0 3.230843 1_545
Au0 Sr0 3.230843 1_655
Au0 Sr0 3.230843 1_654
Au0 Sr1 3.248610 1_555
