# generated using pymatgen
data_EuC6
_symmetry_space_group_name_H-M   'P 1'
_cell_length_a   4.31610977
_cell_length_b   4.31611000
_cell_length_c   9.57739145
_cell_angle_alpha   90.00089350
_cell_angle_beta   89.99910714
_cell_angle_gamma   120.00008582
_symmetry_Int_Tables_number   1
_chemical_formula_structural   EuC6
_chemical_formula_sum   'Eu2 C12'
_cell_volume   154.51209502
_cell_formula_units_Z   2
loop_
 _symmetry_equiv_pos_site_id
 _symmetry_equiv_pos_as_xyz
  1  'x, y, z'
loop_
 _atom_site_type_symbol
 _atom_site_label
 _atom_site_symmetry_multiplicity
 _atom_site_fract_x
 _atom_site_fract_y
 _atom_site_fract_z
 _atom_site_occupancy
  Eu  Eu0  1  0.66666421  0.33333581  0.74999993  1
  Eu  Eu1  1  0.33333630  0.66666376  0.24999968  1
  C  C0  1  0.66657355  0.00000199  0.49997568  1
  C  C1  1  0.33343037  0.33342978  0.49997626  1
  C  C2  1  0.00000097  0.66657328  0.49997681  1
  C  C3  1  0.33342670  -0.00000094  0.49997680  1
  C  C4  1  -0.00000198  0.33342636  0.49997558  1
  C  C5  1  0.66657019  0.66656966  0.49997627  1
  C  C6  1  0.33342675  -0.00000018  0.00002434  1
  C  C7  1  0.66657066  0.66657026  0.00002344  1
  C  C8  1  -0.00000206  0.33342668  0.00002277  1
  C  C9  1  0.66657355  0.00000210  0.00002265  1
  C  C10  1  0.00000033  0.66657317  0.00002434  1
  C  C11  1  0.33342946  0.33342927  0.00002345  1
loop_
_geom_bond_atom_site_label_1
_geom_bond_atom_site_label_2
_geom_bond_distance
_geom_bond_site_symmetry_2
C0 C3 1.437892 1_555
C0 C4 1.439095 1_655
C0 C5 1.439123 1_545
C0 Eu1 2.793044 1_545
C0 Eu0 2.793424 1_555
C1 C5 1.437866 1_555
C1 C3 1.439116 1_555
C1 C4 1.439123 1_555
C1 Eu1 2.793054 1_555
C1 Eu0 2.793440 1_555
C2 C4 1.437892 1_555
C2 C3 1.439100 1_565
C2 C5 1.439116 1_455
C2 Eu1 2.793041 1_555
C2 Eu0 2.793430 1_455
C3 Eu1 2.793041 1_545
C3 Eu0 2.793430 1_555
C4 Eu1 2.793044 1_555
C4 Eu0 2.793425 1_455
C5 Eu1 2.793054 1_555
C5 Eu0 2.793441 1_555
C6 C9 1.437893 1_555
C6 Eu1 2.793066 1_545
C6 Eu0 2.793440 1_554
C7 C9 1.439122 1_565
C7 Eu1 2.793013 1_555
C7 Eu0 2.793402 1_554
C8 C9 1.439095 1_455
C8 Eu1 2.793052 1_555
C8 Eu0 2.793450 1_454
C9 Eu1 2.793053 1_545
C9 Eu0 2.793450 1_554
C10 C8 1.437892 1_555
C10 C6 1.439104 1_565
C10 C7 1.439113 1_455
C10 Eu1 2.793066 1_555
C10 Eu0 2.793440 1_454
C11 C7 1.437872 1_555
C11 C6 1.439112 1_555
C11 C8 1.439121 1_555
C11 Eu1 2.793013 1_555
C11 Eu0 2.793402 1_554
