# generated using pymatgen
data_B3Ru7
_symmetry_space_group_name_H-M   'P 1'
_cell_length_a   7.46881453
_cell_length_b   7.46881501
_cell_length_c   4.70955265
_cell_angle_alpha   90.00000000
_cell_angle_beta   90.00000000
_cell_angle_gamma   120.00001468
_symmetry_Int_Tables_number   1
_chemical_formula_structural   B3Ru7
_chemical_formula_sum   'B6 Ru14'
_cell_volume   227.51686861
_cell_formula_units_Z   2
loop_
 _symmetry_equiv_pos_site_id
 _symmetry_equiv_pos_as_xyz
  1  'x, y, z'
loop_
 _atom_site_type_symbol
 _atom_site_label
 _atom_site_symmetry_multiplicity
 _atom_site_fract_x
 _atom_site_fract_y
 _atom_site_fract_z
 _atom_site_occupancy
  B  B0  1  0.18957071  0.81042929  0.83322226  1
  B  B1  1  0.37908831  0.18954466  0.33321913  1
  B  B2  1  0.81045534  0.62091169  0.33322013  1
  B  B3  1  0.18957071  0.37914141  0.83322226  1
  B  B4  1  0.62085859  0.81042929  0.83322226  1
  B  B5  1  0.81045534  0.18954466  0.33321913  1
  Ru  Ru0  1  0.12120803  0.87879197  0.24319738  1
  Ru  Ru1  1  0.24235368  0.12117634  0.74326754  1
  Ru  Ru2  1  0.87882266  0.75764632  0.74326754  1
  Ru  Ru3  1  0.12120803  0.24241605  0.24319638  1
  Ru  Ru4  1  0.75758395  0.87879197  0.24319638  1
  Ru  Ru5  1  0.87882266  0.12117734  0.74326754  1
  Ru  Ru6  1  0.33333300  0.66666700  0.07159938  1
  Ru  Ru7  1  0.66666700  0.33333300  0.57166259  1
  Ru  Ru8  1  0.45673576  0.54326424  0.57034641  1
  Ru  Ru9  1  0.91354373  0.45677137  0.07032495  1
  Ru  Ru10  1  0.54322863  0.08645627  0.07032495  1
  Ru  Ru11  1  0.45673576  0.91347053  0.57034641  1
  Ru  Ru12  1  0.08652947  0.54326424  0.57034641  1
  Ru  Ru13  1  0.54322863  0.45677237  0.07032495  1
loop_
_geom_bond_atom_site_label_1
_geom_bond_atom_site_label_2
_geom_bond_distance
_geom_bond_site_symmetry_2
B0 Ru0 2.123697 1_556
B0 Ru11 2.137985 1_555
B0 Ru12 2.137985 1_555
B0 Ru6 2.172339 1_556
B0 Ru1 2.192387 1_565
B0 Ru2 2.192394 1_455
B1 Ru1 2.124035 1_555
B1 Ru13 2.138351 1_555
B1 Ru10 2.138356 1_555
B1 Ru7 2.172800 1_555
B1 Ru3 2.192251 1_555
B1 Ru0 2.192255 1_545
B2 Ru2 2.124031 1_555
B2 Ru13 2.138348 1_555
B2 Ru9 2.138358 1_555
B2 Ru7 2.172797 1_555
B2 Ru4 2.192252 1_555
B2 Ru0 2.192256 1_655
B3 Ru3 2.123692 1_556
B3 Ru12 2.137980 1_555
B3 Ru8 2.137984 1_555
B3 Ru6 2.172344 1_556
B3 Ru5 2.192391 1_455
B3 Ru1 2.192394 1_555
B4 Ru4 2.123692 1_556
B4 Ru11 2.137980 1_555
B4 Ru8 2.137984 1_555
B4 Ru6 2.172344 1_556
B4 Ru2 2.192387 1_555
B4 Ru5 2.192391 1_565
B5 Ru5 2.124035 1_555
B5 Ru10 2.138344 1_555
B5 Ru9 2.138344 1_555
B5 Ru7 2.172789 1_555
B5 Ru3 2.192259 1_655
B5 Ru4 2.192259 1_545
