# generated using pymatgen
data_MnNO4
_symmetry_space_group_name_H-M   'P 1'
_cell_length_a   5.41168500
_cell_length_b   9.25674100
_cell_length_c   9.00321200
_cell_angle_alpha   90.00000000
_cell_angle_beta   90.00000000
_cell_angle_gamma   90.00000000
_symmetry_Int_Tables_number   1
_chemical_formula_structural   MnNO4
_chemical_formula_sum   'Mn4 N4 O16'
_cell_volume   451.01200151
_cell_formula_units_Z   4
loop_
 _symmetry_equiv_pos_site_id
 _symmetry_equiv_pos_as_xyz
  1  'x, y, z'
loop_
 _atom_site_type_symbol
 _atom_site_label
 _atom_site_symmetry_multiplicity
 _atom_site_fract_x
 _atom_site_fract_y
 _atom_site_fract_z
 _atom_site_occupancy
  Mn  Mn0  1  0.25000000  0.31229100  0.97882800  1
  Mn  Mn1  1  0.25000000  0.18770900  0.47882800  1
  Mn  Mn2  1  0.75000000  0.68770900  0.02117200  1
  Mn  Mn3  1  0.75000000  0.81229100  0.52117200  1
  N  N0  1  0.25000000  0.74387300  0.01610200  1
  N  N1  1  0.25000000  0.75612700  0.51610200  1
  N  N2  1  0.75000000  0.25612700  0.98389800  1
  N  N3  1  0.75000000  0.24387300  0.48389800  1
  O  O0  1  0.25000000  0.39125100  0.81928000  1
  O  O1  1  0.25000000  0.10874900  0.31928000  1
  O  O2  1  0.75000000  0.60874900  0.18072000  1
  O  O3  1  0.75000000  0.89125100  0.68072000  1
  O  O4  1  0.25000000  0.39133100  0.13841900  1
  O  O5  1  0.25000000  0.10866900  0.63841900  1
  O  O6  1  0.75000000  0.60866900  0.86158100  1
  O  O7  1  0.75000000  0.89133100  0.36158100  1
  O  O8  1  0.94553500  0.17958800  0.97652700  1
  O  O9  1  0.55446500  0.32041200  0.47652700  1
  O  O10  1  0.44553500  0.82041200  0.02347300  1
  O  O11  1  0.05446500  0.67958800  0.52347300  1
  O  O12  1  0.05446500  0.82041200  0.02347300  1
  O  O13  1  0.44553500  0.67958800  0.52347300  1
  O  O14  1  0.55446500  0.17958800  0.97652700  1
  O  O15  1  0.94553500  0.32041200  0.47652700  1
loop_
_geom_bond_atom_site_label_1
_geom_bond_atom_site_label_2
_geom_bond_distance
_geom_bond_site_symmetry_2
Mn0 O0 1.611709 1_555
Mn0 O4 1.612390 1_556
Mn0 O14 2.055286 1_555
Mn0 O8 2.055286 1_455
Mn1 O1 1.611709 1_555
Mn1 O5 1.612390 1_555
Mn1 O9 2.055286 1_555
Mn1 O15 2.055286 1_455
Mn2 O2 1.611709 1_555
Mn2 O6 1.612390 1_554
Mn2 O12 2.055286 1_655
Mn2 O10 2.055286 1_555
Mn3 O3 1.611709 1_555
Mn3 O7 1.612390 1_555
Mn3 O11 2.055286 1_655
Mn3 O13 2.055286 1_555
N0 O10 1.275190 1_555
N0 O12 1.275190 1_555
N1 O13 1.275190 1_555
N1 O11 1.275190 1_555
N2 O8 1.275190 1_555
N2 O14 1.275190 1_555
N3 O15 1.275190 1_555
N3 O9 1.275190 1_555
