# generated using pymatgen
data_Pr14Au51
_symmetry_space_group_name_H-M   'P 1'
_cell_length_a   13.05088083
_cell_length_b   13.05088083
_cell_length_c   9.48234100
_cell_angle_alpha   90.00000000
_cell_angle_beta   90.00000000
_cell_angle_gamma   119.99999406
_symmetry_Int_Tables_number   1
_chemical_formula_structural   Pr14Au51
_chemical_formula_sum   'Pr14 Au51'
_cell_volume   1398.70418674
_cell_formula_units_Z   1
loop_
 _symmetry_equiv_pos_site_id
 _symmetry_equiv_pos_as_xyz
  1  'x, y, z'
loop_
 _atom_site_type_symbol
 _atom_site_label
 _atom_site_symmetry_multiplicity
 _atom_site_fract_x
 _atom_site_fract_y
 _atom_site_fract_z
 _atom_site_occupancy
  Pr  Pr0  1  0.13161500  0.47320500  0.50000000  1
  Pr  Pr1  1  0.52679500  0.65841000  0.50000000  1
  Pr  Pr2  1  0.34159000  0.86838500  0.50000000  1
  Pr  Pr3  1  0.19916900  0.19193800  0.50000000  1
  Pr  Pr4  1  0.80806200  0.00723000  0.50000000  1
  Pr  Pr5  1  0.99277000  0.80083100  0.50000000  1
  Pr  Pr6  1  0.78263700  0.71752100  0.00000000  1
  Pr  Pr7  1  0.28247900  0.06511600  0.00000000  1
  Pr  Pr8  1  0.93488400  0.21736300  0.00000000  1
  Pr  Pr9  1  0.54773800  0.93311700  0.00000000  1
  Pr  Pr10  1  0.06688300  0.61462100  0.00000000  1
  Pr  Pr11  1  0.38537900  0.45226200  0.00000000  1
  Pr  Pr12  1  0.66666700  0.33333300  0.29708800  1
  Pr  Pr13  1  0.66666700  0.33333300  0.70291200  1
  Au  Au0  1  0.72938400  0.57099200  0.50000000  1
  Au  Au1  1  0.42900800  0.15839200  0.50000000  1
  Au  Au2  1  0.84160800  0.27061600  0.50000000  1
  Au  Au3  1  0.60282000  0.09382900  0.50000000  1
  Au  Au4  1  0.90617100  0.50899100  0.50000000  1
  Au  Au5  1  0.49100900  0.39718000  0.50000000  1
  Au  Au6  1  0.16034200  0.44790100  0.15304300  1
  Au  Au7  1  0.55209900  0.71244100  0.15304300  1
  Au  Au8  1  0.28755900  0.83965800  0.15304300  1
  Au  Au9  1  0.16831900  0.21754500  0.15100700  1
  Au  Au10  1  0.78245500  0.95077400  0.15100700  1
  Au  Au11  1  0.04922600  0.83168100  0.15100700  1
  Au  Au12  1  0.16831900  0.21754500  0.84899300  1
  Au  Au13  1  0.78245500  0.95077400  0.84899300  1
  Au  Au14  1  0.04922600  0.83168100  0.84899300  1
  Au  Au15  1  0.16034200  0.44790100  0.84695700  1
  Au  Au16  1  0.55209900  0.71244100  0.84695700  1
  Au  Au17  1  0.28755900  0.83965800  0.84695700  1
  Au  Au18  1  0.33333300  0.66666700  0.00000000  1
  Au  Au19  1  0.00000000  0.00000000  0.00000000  1
  Au  Au20  1  0.77307800  0.77339200  0.33411600  1
  Au  Au21  1  0.22660800  0.99968600  0.33411600  1
  Au  Au22  1  0.00031400  0.22692200  0.33411600  1
  Au  Au23  1  0.56036500  0.89070000  0.33586300  1
  Au  Au24  1  0.10930000  0.66966400  0.33586300  1
  Au  Au25  1  0.33033600  0.43963500  0.33586300  1
  Au  Au26  1  0.56036500  0.89070000  0.66413700  1
  Au  Au27  1  0.10930000  0.66966400  0.66413700  1
  Au  Au28  1  0.33033600  0.43963500  0.66413700  1
  Au  Au29  1  0.77307800  0.77339200  0.66588400  1
  Au  Au30  1  0.22660800  0.99968600  0.66588400  1
  Au  Au31  1  0.00031400  0.22692200  0.66588400  1
  Au  Au32  1  0.86489000  0.60399400  0.23668500  1
  Au  Au33  1  0.39600600  0.26089500  0.23668500  1
  Au  Au34  1  0.73910500  0.13511000  0.23668500  1
  Au  Au35  1  0.47128800  0.06780600  0.23024800  1
  Au  Au36  1  0.93219400  0.40348200  0.23024800  1
  Au  Au37  1  0.59651800  0.52871200  0.23024800  1
  Au  Au38  1  0.47128800  0.06780600  0.76975200  1
  Au  Au39  1  0.93219400  0.40348200  0.76975200  1
  Au  Au40  1  0.59651800  0.52871200  0.76975200  1
  Au  Au41  1  0.86489000  0.60399400  0.76331500  1
  Au  Au42  1  0.39600600  0.26089500  0.76331500  1
  Au  Au43  1  0.73910500  0.13511000  0.76331500  1
  Au  Au44  1  0.33333300  0.66666700  0.30344500  1
  Au  Au45  1  0.00000000  0.00000000  0.30354500  1
  Au  Au46  1  0.00000000  0.00000000  0.69645500  1
  Au  Au47  1  0.33333300  0.66666700  0.69655500  1
  Au  Au48  1  0.80448500  0.44431900  0.00000000  1
  Au  Au49  1  0.55568100  0.36016600  0.00000000  1
  Au  Au50  1  0.63983400  0.19551500  0.00000000  1
loop_
_geom_bond_atom_site_label_1
_geom_bond_atom_site_label_2
_geom_bond_distance
_geom_bond_site_symmetry_2
Au0 Au5 2.786931 1_555
Au0 Au4 2.800889 1_555
Au0 Au29 2.875869 1_555
Au0 Au20 2.875869 1_555
Au0 Au41 2.964040 1_555
Au0 Au32 2.964040 1_555
Au0 Au40 2.982822 1_555
Au0 Au37 2.982822 1_555
Au0 Pr5 3.240768 1_555
Au0 Pr1 3.362828 1_555
Au0 Pr13 3.384316 1_555
Au0 Pr12 3.384316 1_555
Au1 Au3 2.786930 1_555
Au1 Au5 2.800889 1_555
Au1 Au30 2.875869 1_545
Au1 Au21 2.875869 1_545
Au1 Au42 2.964034 1_555
Au1 Au33 2.964034 1_555
Au1 Au38 2.982822 1_555
Au1 Au35 2.982822 1_555
Au1 Pr3 3.240759 1_555
Au1 Pr2 3.362828 1_545
Au1 Pr13 3.384313 1_555
Au1 Pr12 3.384313 1_555
Au2 Au4 2.786931 1_555
Au2 Au3 2.800889 1_555
Au2 Au31 2.875869 1_655
Au2 Au22 2.875869 1_655
Au2 Au43 2.964038 1_555
Au2 Au34 2.964038 1_555
Au2 Au39 2.982822 1_555
Au2 Au36 2.982822 1_555
Au2 Pr4 3.240772 1_555
Au2 Pr0 3.362828 1_655
Au2 Pr13 3.384305 1_555
Au2 Pr12 3.384305 1_555
Au3 Au43 2.954622 1_555
Au3 Au34 2.954622 1_555
Au3 Au38 3.003638 1_555
Au3 Au35 3.003638 1_555
Au3 Pr2 3.201416 1_545
Au3 Pr4 3.388141 1_555
Au3 Pr13 3.400308 1_555
Au3 Pr12 3.400308 1_555
Au4 Au41 2.954615 1_555
Au4 Pr0 3.201415 1_655
Au4 Pr5 3.388128 1_555
Au4 Pr13 3.400311 1_555
Au4 Pr12 3.400311 1_555
Au5 Pr1 3.201415 1_555
Au5 Pr3 3.388132 1_555
Au5 Pr13 3.400319 1_555
Au5 Pr12 3.400319 1_555
Au6 Au9 3.059792 1_555
Au6 Pr11 3.250792 1_555
Au6 Pr8 3.311094 1_455
Au6 Pr10 3.313901 1_555
Au6 Pr0 3.346236 1_555
Au7 Pr9 3.250792 1_555
Au7 Pr6 3.311094 1_555
Au7 Pr11 3.313901 1_555
Au7 Pr1 3.346236 1_555
Au8 Pr10 3.250792 1_555
Au8 Pr7 3.311093 1_565
Au8 Pr9 3.313901 1_555
Au8 Pr2 3.346236 1_555
Au9 Pr11 3.283463 1_555
Au9 Pr7 3.345360 1_555
Au9 Pr8 3.365184 1_455
Au9 Pr3 3.370403 1_555
Au10 Au20 2.847034 1_555
Au10 Au34 2.851106 1_565
Au10 Au13 2.863800 1_554
Au10 Au19 2.949554 1_665
Au10 Au45 2.956629 1_665
Au10 Au7 3.059792 1_555
Au10 Au23 3.133034 1_555
Au10 Pr9 3.283463 1_555
Au10 Pr8 3.345360 1_565
Au10 Pr6 3.365184 1_555
Au10 Pr4 3.370400 1_565
Au11 Au21 2.847034 1_555
Au11 Au32 2.851114 1_455
Au11 Au14 2.863800 1_554
Au11 Au19 2.949554 1_565
Au11 Au45 2.956629 1_565
Au11 Au8 3.059792 1_555
Au11 Au24 3.133045 1_555
Au11 Pr10 3.283463 1_555
Au11 Pr6 3.345360 1_455
Au11 Pr7 3.365185 1_565
Au11 Pr5 3.370400 1_455
Au12 Au31 2.847034 1_555
Au12 Au42 2.851118 1_555
Au12 Au9 2.863800 1_556
Au12 Au19 2.949555 1_556
Au12 Au46 2.956629 1_555
Au12 Au15 3.059792 1_555
Au12 Au28 3.133037 1_555
Au12 Pr11 3.283463 1_556
Au12 Pr7 3.345360 1_556
Au12 Pr8 3.365184 1_456
Au12 Pr3 3.370403 1_555
Au13 Au29 2.847034 1_555
Au13 Au43 2.851106 1_565
Au13 Au19 2.949554 1_666
Au13 Au46 2.956629 1_665
Au13 Au16 3.059792 1_555
Au13 Au26 3.133034 1_555
Au13 Pr9 3.283463 1_556
Au13 Pr8 3.345360 1_566
Au13 Pr6 3.365184 1_556
Au13 Pr4 3.370400 1_565
Au14 Au30 2.847034 1_555
Au14 Au41 2.851114 1_455
Au14 Au19 2.949554 1_566
Au14 Au46 2.956629 1_565
Au14 Au17 3.059792 1_555
Au14 Au27 3.133045 1_555
Au14 Pr10 3.283463 1_556
Au14 Pr6 3.345360 1_456
Au14 Pr7 3.365185 1_566
Au14 Pr5 3.370400 1_455
Au15 Au39 2.830479 1_455
Au15 Au28 2.859767 1_555
Au15 Au6 2.902412 1_556
Au15 Au47 2.972663 1_555
Au15 Au18 2.984758 1_556
Au15 Au31 3.099037 1_555
Au15 Pr11 3.250792 1_556
Au15 Pr8 3.311094 1_456
Au15 Pr10 3.313901 1_556
Au15 Pr0 3.346236 1_555
Au16 Au40 2.830479 1_555
Au16 Au26 2.859757 1_555
Au16 Au7 2.902412 1_556
Au16 Au47 2.972666 1_555
Au16 Au18 2.984762 1_556
Au16 Au29 3.099037 1_555
Au16 Pr9 3.250792 1_556
Au16 Pr6 3.311094 1_556
Au16 Pr11 3.313901 1_556
Au16 Pr1 3.346236 1_555
Au17 Au38 2.830479 1_565
Au17 Au27 2.859762 1_555
Au17 Au8 2.902412 1_556
Au17 Au47 2.972655 1_555
Au17 Au18 2.984751 1_556
Au17 Au30 3.099037 1_555
Au17 Pr10 3.250792 1_556
Au17 Pr7 3.311093 1_566
Au17 Pr9 3.313901 1_556
Au17 Pr2 3.346236 1_555
Au18 Au44 2.877369 1_555
Au18 Au47 2.877369 1_554
Au18 Au8 2.984751 1_555
Au18 Au6 2.984758 1_555
Au18 Au7 2.984762 1_555
Au18 Pr10 3.192448 1_555
Au18 Pr9 3.192452 1_555
Au18 Pr11 3.192460 1_555
Au19 Au45 2.878317 1_555
Au19 Au46 2.878317 1_554
Au19 Au9 2.949555 1_555
Au19 Pr8 3.343690 1_455
Au19 Pr7 3.343690 1_555
Au19 Pr6 3.343690 1_445
Au20 Au45 2.973649 1_665
Au20 Au37 3.019702 1_555
Au20 Au7 3.099037 1_555
Au20 Pr5 3.129922 1_555
Au20 Au32 3.134634 1_555
Au20 Au29 3.145937 1_555
Au20 Pr1 3.199052 1_555
Au20 Pr4 3.256188 1_565
Au20 Pr6 3.267371 1_555
Au21 Au45 2.973648 1_565
Au21 Au35 3.019702 1_565
Au21 Au8 3.099037 1_555
Au21 Pr3 3.129911 1_565
Au21 Au33 3.134625 1_565
Au21 Au30 3.145937 1_555
Au21 Pr2 3.199051 1_555
Au21 Pr5 3.256192 1_455
Au21 Pr7 3.267371 1_565
Au22 Au9 2.847034 1_555
Au22 Au45 2.973648 1_555
Au22 Au36 3.019702 1_455
Au22 Au6 3.099037 1_555
Au22 Pr4 3.129918 1_455
Au22 Au34 3.134623 1_455
Au22 Au31 3.145937 1_555
Au22 Pr0 3.199052 1_555
Au22 Pr3 3.256199 1_555
Au22 Pr8 3.267371 1_455
Au23 Au7 2.859757 1_555
Au23 Au3 2.878958 1_565
Au23 Au44 2.959600 1_555
Au23 Au34 3.009946 1_565
Au23 Au26 3.112806 1_555
Au23 Pr2 3.134946 1_555
Au23 Pr4 3.204544 1_565
Au23 Au35 3.222426 1_565
Au23 Pr1 3.236769 1_555
Au23 Pr9 3.250781 1_555
Au24 Au8 2.859762 1_555
Au24 Au4 2.878954 1_455
Au24 Au44 2.959587 1_555
Au24 Au32 3.009946 1_455
Au24 Au27 3.112806 1_555
Au24 Pr0 3.134935 1_555
Au24 Pr5 3.204544 1_455
Au24 Au36 3.222417 1_455
Au24 Pr2 3.236774 1_555
Au24 Pr10 3.250779 1_555
Au25 Au6 2.859767 1_555
Au25 Au5 2.878947 1_555
Au25 Au44 2.959613 1_555
Au25 Au33 3.009946 1_555
Au25 Au28 3.112806 1_555
Au25 Au9 3.133037 1_555
Au25 Pr1 3.134941 1_555
Au25 Pr3 3.204544 1_555
Au25 Au37 3.222414 1_555
Au25 Pr0 3.236781 1_555
Au25 Pr11 3.250778 1_555
Au26 Au3 2.878958 1_565
Au26 Au47 2.959600 1_555
Au26 Au43 3.009946 1_565
Au26 Pr2 3.134946 1_555
Au26 Pr4 3.204544 1_565
Au26 Au38 3.222426 1_565
Au26 Pr1 3.236769 1_555
Au26 Pr9 3.250781 1_556
Au27 Au4 2.878954 1_455
Au27 Au47 2.959587 1_555
Au27 Au41 3.009946 1_455
Au27 Pr0 3.134935 1_555
Au27 Pr5 3.204544 1_455
Au27 Au39 3.222417 1_455
Au27 Pr2 3.236774 1_555
Au27 Pr10 3.250779 1_556
Au28 Au5 2.878947 1_555
Au28 Au47 2.959613 1_555
Au28 Au42 3.009946 1_555
Au28 Pr1 3.134941 1_555
Au28 Pr3 3.204544 1_555
Au28 Au40 3.222414 1_555
Au28 Pr0 3.236781 1_555
Au28 Pr11 3.250778 1_556
Au29 Au46 2.973649 1_665
Au29 Au40 3.019702 1_555
Au29 Pr5 3.129922 1_555
Au29 Au41 3.134634 1_555
Au29 Pr1 3.199052 1_555
Au29 Pr4 3.256188 1_565
Au29 Pr6 3.267371 1_556
Au30 Au46 2.973648 1_565
Au30 Au38 3.019702 1_565
Au30 Pr3 3.129911 1_565
Au30 Au42 3.134625 1_565
Au30 Pr2 3.199051 1_555
Au30 Pr5 3.256192 1_455
Au30 Pr7 3.267371 1_566
Au31 Au46 2.973648 1_555
Au31 Au39 3.019702 1_455
Au31 Pr4 3.129918 1_455
Au31 Au43 3.134623 1_455
Au31 Pr0 3.199052 1_555
Au31 Pr3 3.256199 1_555
Au31 Pr8 3.267371 1_456
Au32 Au48 2.891073 1_555
Au32 Au4 2.954615 1_555
Au32 Au37 3.129742 1_555
Au32 Au36 3.149890 1_555
Au32 Pr6 3.158332 1_555
Au32 Pr12 3.218691 1_555
Au32 Pr5 3.366227 1_555
Au32 Pr10 3.411760 1_655
Au33 Au9 2.851118 1_555
Au33 Au49 2.891074 1_555
Au33 Au5 2.954620 1_555
Au33 Au35 3.129729 1_555
Au33 Au37 3.149899 1_555
Au33 Pr7 3.158325 1_555
Au33 Pr12 3.218691 1_555
Au33 Pr3 3.366227 1_555
Au33 Pr11 3.411770 1_555
Au34 Au50 2.891081 1_555
Au34 Au36 3.129739 1_555
Au34 Au35 3.149902 1_555
Au34 Pr8 3.158324 1_555
Au34 Pr12 3.218691 1_555
Au34 Pr4 3.366227 1_555
Au34 Pr9 3.411765 1_545
Au35 Au8 2.830479 1_545
Au35 Au50 2.952462 1_555
Au35 Pr12 3.174279 1_555
Au35 Pr9 3.256681 1_545
Au35 Pr7 3.279236 1_555
Au35 Pr2 3.431638 1_545
Au36 Au6 2.830479 1_655
Au36 Au48 2.952462 1_555
Au36 Au4 3.003638 1_555
Au36 Pr12 3.174275 1_555
Au36 Pr10 3.256682 1_655
Au36 Pr8 3.279236 1_555
Au36 Pr0 3.431638 1_655
Au37 Au7 2.830479 1_555
Au37 Au49 2.952462 1_555
Au37 Au5 3.003638 1_555
Au37 Pr12 3.174287 1_555
Au37 Pr11 3.256681 1_555
Au37 Pr6 3.279236 1_555
Au37 Pr1 3.431638 1_555
Au38 Au50 2.952462 1_556
Au38 Au42 3.129729 1_555
Au38 Au43 3.149902 1_555
Au38 Pr13 3.174279 1_555
Au38 Pr9 3.256681 1_546
Au38 Pr7 3.279236 1_556
Au38 Pr2 3.431638 1_545
Au39 Au48 2.952462 1_556
Au39 Au4 3.003638 1_555
Au39 Au43 3.129739 1_555
Au39 Au41 3.149890 1_555
Au39 Pr13 3.174275 1_555
Au39 Pr10 3.256682 1_656
Au39 Pr8 3.279236 1_556
Au39 Pr0 3.431638 1_655
Au40 Au49 2.952462 1_556
Au40 Au5 3.003638 1_555
Au40 Au41 3.129742 1_555
Au40 Au42 3.149899 1_555
Au40 Pr13 3.174287 1_555
Au40 Pr11 3.256681 1_556
Au40 Pr6 3.279236 1_556
Au40 Pr1 3.431638 1_555
Au41 Au48 2.891073 1_556
Au41 Pr6 3.158332 1_556
Au41 Pr13 3.218691 1_555
Au41 Pr5 3.366227 1_555
Au41 Pr10 3.411760 1_656
Au42 Au49 2.891074 1_556
Au42 Au5 2.954620 1_555
Au42 Pr7 3.158325 1_556
Au42 Pr13 3.218691 1_555
Au42 Pr3 3.366227 1_555
Au42 Pr11 3.411770 1_556
Au43 Au50 2.891081 1_556
Au43 Pr8 3.158324 1_556
Au43 Pr13 3.218691 1_555
Au43 Pr4 3.366227 1_555
Au43 Pr9 3.411765 1_546
Au44 Au8 2.972655 1_555
Au44 Au6 2.972663 1_555
Au44 Au7 2.972666 1_555
Au44 Pr2 3.183119 1_555
Au44 Pr0 3.183124 1_555
Au44 Pr1 3.183130 1_555
Au45 Au9 2.956629 1_555
Au45 Pr4 3.160746 1_455
Au45 Pr3 3.160751 1_555
Au45 Pr5 3.160756 1_445
Au46 Pr4 3.160746 1_455
Au46 Pr3 3.160751 1_555
Au46 Pr5 3.160756 1_445
Au47 Pr2 3.183119 1_555
Au47 Pr0 3.183124 1_555
Au47 Pr1 3.183130 1_555
Au48 Au49 2.860721 1_555
Au48 Au50 2.860721 1_555
Au48 Pr10 3.009313 1_655
Au48 Pr12 3.265562 1_555
Au48 Pr13 3.265562 1_554
Au48 Pr6 3.716308 1_555
Au49 Au50 2.860721 1_555
Au49 Pr11 3.009313 1_555
Au49 Pr12 3.265567 1_555
Au49 Pr13 3.265567 1_554
Au49 Pr7 3.716308 1_555
Au50 Pr9 3.009313 1_545
Au50 Pr12 3.265560 1_555
Au50 Pr13 3.265560 1_554
Au50 Pr8 3.716308 1_555
