# generated using pymatgen
data_LiTa2Te4Br10O
_symmetry_space_group_name_H-M   'P 1'
_cell_length_a   7.62889839
_cell_length_b   9.04726961
_cell_length_c   9.79040638
_cell_angle_alpha   83.92287615
_cell_angle_beta   89.88638084
_cell_angle_gamma   74.97089960
_symmetry_Int_Tables_number   1
_chemical_formula_structural   LiTa2Te4Br10O
_chemical_formula_sum   'Li1 Ta2 Te4 Br10 O1'
_cell_volume   648.73066093
_cell_formula_units_Z   1
loop_
 _symmetry_equiv_pos_site_id
 _symmetry_equiv_pos_as_xyz
  1  'x, y, z'
loop_
 _atom_site_type_symbol
 _atom_site_label
 _atom_site_symmetry_multiplicity
 _atom_site_fract_x
 _atom_site_fract_y
 _atom_site_fract_z
 _atom_site_occupancy
  Li  Li0  1  0.26522100  0.01476200  0.71097400  1
  Ta  Ta0  1  0.47268300  0.37155700  0.35835200  1
  Ta  Ta1  1  0.51630200  0.62884600  0.63321600  1
  Te  Te0  1  0.92440800  0.81874600  0.01065100  1
  Te  Te1  1  0.10202800  0.18811600  0.98528400  1
  Te  Te2  1  0.18064100  0.91186800  0.15318500  1
  Te  Te3  1  0.83625900  0.09608100  0.84435600  1
  Br  Br0  1  0.44800200  0.18156200  0.18009800  1
  Br  Br1  1  0.61695300  0.52233000  0.18914900  1
  Br  Br2  1  0.15721100  0.54714400  0.27913100  1
  Br  Br3  1  0.76550300  0.19118700  0.44200100  1
  Br  Br4  1  0.65005500  0.79376700  0.46590700  1
  Br  Br5  1  0.28866500  0.23279100  0.52912800  1
  Br  Br6  1  0.19594500  0.80800300  0.57724400  1
  Br  Br7  1  0.83325000  0.47168500  0.71105700  1
  Br  Br8  1  0.38447200  0.48357700  0.82083300  1
  Br  Br9  1  0.54170000  0.82872100  0.82195300  1
  O  O0  1  0.48737200  0.50211000  0.49997800  1
loop_
_geom_bond_atom_site_label_1
_geom_bond_atom_site_label_2
_geom_bond_distance
_geom_bond_site_symmetry_2
Li0 Te1 3.329894 1_555
Li0 Te3 3.448723 1_455
Te0 Te2 2.755384 1_655
Te0 Te3 2.768201 1_564
Te1 Te2 2.768562 1_546
Te1 Te3 2.799604 1_455
Br0 Ta0 2.615372 1_555
Br0 Te1 3.243860 1_554
Br1 Ta0 2.471688 1_555
Br2 Ta0 2.584782 1_555
Br3 Ta0 2.481461 1_555
Br4 Ta1 2.493212 1_555
Br5 Li0 2.555537 1_555
Br5 Ta0 2.608206 1_555
Br6 Li0 2.554738 1_565
Br6 Ta1 2.581344 1_555
Br7 Ta1 2.538486 1_555
Br8 Ta1 2.505964 1_555
Br9 Li0 2.498622 1_565
Br9 Ta1 2.759096 1_555
O0 Ta1 1.874597 1_555
O0 Ta0 1.935534 1_555
