# generated using pymatgen
data_Nb2CrOs
_symmetry_space_group_name_H-M   'P 1'
_cell_length_a   10.73094634
_cell_length_b   10.73094634
_cell_length_c   10.73094634
_cell_angle_alpha   123.98460523
_cell_angle_beta   120.63903310
_cell_angle_gamma   86.06654579
_symmetry_Int_Tables_number   1
_chemical_formula_structural   Nb2CrOs
_chemical_formula_sum   'Nb2 Cr1 Os1'
_cell_volume   840.10425116
_cell_formula_units_Z   1
loop_
 _symmetry_equiv_pos_site_id
 _symmetry_equiv_pos_as_xyz
  1  'x, y, z'
loop_
 _atom_site_type_symbol
 _atom_site_label
 _atom_site_symmetry_multiplicity
 _atom_site_fract_x
 _atom_site_fract_y
 _atom_site_fract_z
 _atom_site_occupancy
  Nb  Nb0  1  0.00000000  0.27140000  0.27140000  1
  Nb  Nb1  1  0.00000000  0.72860000  0.72860000  1
  Cr  Cr0  1  0.00000000  0.00000000  0.00000000  1
  Os  Os0  1  0.00000000  0.50000000  0.50000000  1
loop_
_geom_bond_atom_site_label_1
_geom_bond_atom_site_label_2
_geom_bond_distance
_geom_bond_site_symmetry_2
Nb0 Os0 2.303898 1_555
Nb1 Os0 2.303898 1_555
Cr0 Nb0 2.735249 1_555
Cr0 Nb1 2.735249 1_544
