# generated using pymatgen
data_Pr3RhBr3
_symmetry_space_group_name_H-M   'P 1'
_cell_length_a   10.45595161
_cell_length_b   10.45592861
_cell_length_c   10.45585847
_cell_angle_alpha   109.47087030
_cell_angle_beta   109.47095735
_cell_angle_gamma   109.47149280
_symmetry_Int_Tables_number   1
_chemical_formula_structural   Pr3RhBr3
_chemical_formula_sum   'Pr12 Rh4 Br12'
_cell_volume   879.96583204
_cell_formula_units_Z   4
loop_
 _symmetry_equiv_pos_site_id
 _symmetry_equiv_pos_as_xyz
  1  'x, y, z'
loop_
 _atom_site_type_symbol
 _atom_site_label
 _atom_site_symmetry_multiplicity
 _atom_site_fract_x
 _atom_site_fract_y
 _atom_site_fract_z
 _atom_site_occupancy
  Pr  Pr0  1  0.47063345  0.48531378  0.23531966  1
  Pr  Pr1  1  0.74999988  0.23531110  0.26468817  1
  Pr  Pr2  1  0.75000008  0.01469122  0.48530901  1
  Pr  Pr3  1  0.23531522  0.47062863  0.48530662  1
  Pr  Pr4  1  0.26468557  0.74999626  0.23531233  1
  Pr  Pr5  1  0.02936750  0.26468052  0.01468473  1
  Pr  Pr6  1  0.01469605  0.02937443  0.26468456  1
  Pr  Pr7  1  0.48531024  0.74999512  0.01468258  1
  Pr  Pr8  1  0.48530516  0.23531366  0.47062693  1
  Pr  Pr9  1  0.01468747  0.48531761  0.75000456  1
  Pr  Pr10  1  0.26468529  0.01469352  0.02937117  1
  Pr  Pr11  1  0.23531411  0.26468812  0.75000255  1
  Rh  Rh0  1  0.25000020  0.25000290  0.24999808  1
  Rh  Rh1  1  0.49999779  -0.00000080  0.24999783  1
  Rh  Rh2  1  0.00000322  0.25000277  0.50000068  1
  Rh  Rh3  1  0.24999944  0.49999729  0.00000057  1
  Br  Br0  1  0.24999864  0.75723509  0.74276267  1
  Br  Br1  1  0.51445537  0.50722829  0.75722846  1
  Br  Br2  1  0.98553982  0.74277804  0.99276988  1
  Br  Br3  1  0.74275597  0.25000137  0.75723263  1
  Br  Br4  1  0.99276141  0.98553314  0.74275936  1
  Br  Br5  1  0.24999868  0.99275759  0.50724353  1
  Br  Br6  1  0.75723255  0.51445157  0.50723034  1
  Br  Br7  1  0.50723442  0.24999739  0.99276401  1
  Br  Br8  1  0.75724607  0.74276863  0.24999970  1
  Br  Br9  1  0.74276967  0.99277121  0.98554931  1
  Br  Br10  1  0.99276516  0.50723298  0.25000210  1
  Br  Br11  1  0.50723955  0.75723956  0.51446798  1
loop_
_geom_bond_atom_site_label_1
_geom_bond_atom_site_label_2
_geom_bond_distance
_geom_bond_site_symmetry_2
Pr0 Rh0 2.846536 1_555
Pr0 Rh3 2.846635 1_555
Pr1 Rh1 2.846556 1_555
Pr1 Rh2 2.846569 1_655
Pr2 Rh1 2.846553 1_555
Pr2 Rh2 2.846553 1_655
Pr3 Rh0 2.846531 1_555
Pr3 Rh2 2.846602 1_555
Pr4 Rh3 2.846567 1_555
Pr4 Rh1 2.846590 1_565
Pr5 Rh0 2.846553 1_555
Pr5 Rh3 2.846603 1_555
Pr6 Rh0 2.846518 1_555
Pr6 Rh2 2.846644 1_555
Pr7 Rh3 2.846569 1_555
Pr7 Rh1 2.846612 1_565
Pr8 Rh0 2.846554 1_555
Pr8 Rh1 2.846638 1_555
Pr9 Rh3 2.846584 1_556
Pr9 Rh2 2.846625 1_555
Pr10 Rh0 2.846545 1_555
Pr10 Rh1 2.846623 1_555
Pr11 Rh3 2.846549 1_556
Pr11 Rh2 2.846584 1_555
Br0 Pr9 3.122009 1_555
Br0 Pr7 3.122024 1_556
Br0 Pr3 3.207851 1_555
Br0 Pr10 3.207855 1_566
Br1 Pr11 3.121915 1_555
Br1 Pr3 3.121964 1_555
Br1 Pr7 3.207767 1_556
Br1 Pr8 3.207771 1_555
Br2 Pr10 3.121943 1_666
Br2 Pr4 3.122014 1_656
Br2 Pr6 3.207708 1_666
Br2 Pr9 3.207817 1_655
Br3 Pr9 3.122048 1_655
Br3 Pr2 3.122069 1_555
Br3 Pr8 3.207790 1_555
Br3 Pr5 3.207889 1_656
Br4 Pr11 3.121971 1_665
Br4 Pr5 3.121995 1_666
Br4 Pr2 3.207798 1_565
Br4 Pr10 3.207834 1_666
Br5 Pr8 3.122069 1_565
Br5 Pr6 3.122078 1_565
Br5 Pr11 3.207835 1_565
Br5 Pr4 3.207863 1_555
Br6 Pr1 3.121891 1_555
Br6 Pr8 3.121954 1_555
Br6 Pr9 3.207741 1_655
Br6 Pr0 3.207802 1_555
Br7 Pr10 3.121946 1_556
Br7 Pr0 3.122030 1_556
Br7 Pr11 3.207819 1_555
Br7 Pr1 3.207833 1_556
Br8 Pr2 3.122073 1_565
Br8 Pr7 3.122085 1_555
Br8 Pr6 3.207795 1_665
Br8 Pr0 3.207895 1_555
Br9 Pr1 3.121878 1_566
Br9 Pr6 3.121941 1_666
Br9 Pr7 3.207763 1_556
Br9 Pr5 3.207789 1_666
Br10 Pr3 3.121949 1_655
Br10 Pr5 3.122026 1_655
Br10 Pr1 3.207807 1_555
Br10 Pr4 3.207811 1_655
Br11 Pr4 3.121989 1_555
Br11 Pr0 3.122002 1_555
Br11 Pr2 3.207796 1_565
Br11 Pr3 3.207818 1_555
