# generated using pymatgen
data_Li7Mn4CoO12
_symmetry_space_group_name_H-M   'P 1'
_cell_length_a   5.19502252
_cell_length_b   5.96193466
_cell_length_c   7.58735834
_cell_angle_alpha   80.64658955
_cell_angle_beta   82.88735908
_cell_angle_gamma   109.31409326
_symmetry_Int_Tables_number   1
_chemical_formula_structural   Li7Mn4CoO12
_chemical_formula_sum   'Li7 Mn4 Co1 O12'
_cell_volume   214.80844530
_cell_formula_units_Z   1
loop_
 _symmetry_equiv_pos_site_id
 _symmetry_equiv_pos_as_xyz
  1  'x, y, z'
loop_
 _atom_site_type_symbol
 _atom_site_label
 _atom_site_symmetry_multiplicity
 _atom_site_fract_x
 _atom_site_fract_y
 _atom_site_fract_z
 _atom_site_occupancy
  Li  Li0  1  0.51324400  0.06843400  0.18241300  1
  Li  Li1  1  0.51242800  0.75850000  0.48829900  1
  Li  Li2  1  0.50311800  0.41481600  0.83461600  1
  Li  Li3  1  0.48757100  0.57483000  0.17835100  1
  Li  Li4  1  0.48676500  0.26489900  0.48427200  1
  Li  Li5  1  0.49689600  0.91851100  0.83204400  1
  Li  Li6  1  0.00001200  0.16667500  0.33333500  1
  Mn  Mn0  1  0.00654500  0.99884100  0.00626600  1
  Mn  Mn1  1  0.99345000  0.33449400  0.66039700  1
  Mn  Mn2  1  0.99531000  0.49554900  0.00698100  1
  Mn  Mn3  1  0.00469400  0.83779700  0.65967800  1
  Co  Co0  1  0.99998700  0.66666000  0.33334100  1
  O  O0  1  0.21657500  0.30476500  0.06658400  1
  O  O1  1  0.23362800  0.93906000  0.42555700  1
  O  O2  1  0.21104700  0.62446700  0.75361900  1
  O  O3  1  0.23504900  0.76377200  0.09248000  1
  O  O4  1  0.21494400  0.46701900  0.42415200  1
  O  O5  1  0.23783600  0.10233000  0.75392100  1
  O  O6  1  0.78503200  0.86629900  0.24249700  1
  O  O7  1  0.76495600  0.56956100  0.57423400  1
  O  O8  1  0.76217300  0.23099500  0.91276500  1
  O  O9  1  0.76636200  0.39426800  0.24109400  1
  O  O10  1  0.78342400  0.02858600  0.60004100  1
  O  O11  1  0.78895300  0.70887100  0.91306100  1
loop_
_geom_bond_atom_site_label_1
_geom_bond_atom_site_label_2
_geom_bond_distance
_geom_bond_site_symmetry_2
Li0 O1 2.059385 1_545
Li0 O9 2.106518 1_555
Li0 O8 2.160702 1_554
Li0 O6 2.181767 1_545
Li0 O3 2.182687 1_545
Li0 O0 2.549959 1_555
Li1 O6 2.061813 1_555
Li1 O4 2.080824 1_555
Li1 O7 2.089420 1_555
Li1 O1 2.125740 1_555
Li1 O10 2.129185 1_565
Li1 O2 2.238609 1_555
Li2 O0 2.018378 1_556
Li2 O8 2.079864 1_555
Li2 O11 2.113935 1_555
Li2 O7 2.125184 1_555
Li2 O5 2.150890 1_555
Li2 O2 2.340515 1_555
Li3 O4 2.061859 1_555
Li3 O6 2.080716 1_555
Li3 O3 2.089260 1_555
Li3 O9 2.125709 1_555
Li3 O0 2.129224 1_555
Li3 O11 2.238439 1_554
Li4 O9 2.059532 1_555
Li4 O1 2.106688 1_545
Li4 O5 2.160712 1_555
Li4 O4 2.181903 1_555
Li4 O7 2.182795 1_555
Li4 O10 2.549691 1_555
Li5 O10 2.018522 1_565
Li5 O5 2.079823 1_565
Li5 O2 2.113850 1_555
Li5 O3 2.125518 1_556
Li5 O8 2.150971 1_565
Li5 O11 2.340446 1_555
Li6 O4 2.048641 1_555
Li6 O6 2.048945 1_445
Li6 O10 2.078607 1_455
Li6 O0 2.078857 1_555
Li6 O1 2.189782 1_545
Li6 O9 2.189866 1_455
Mn0 O6 1.894357 1_455
Mn0 O0 1.950676 1_565
Mn0 O5 2.011505 1_564
Mn0 O11 2.017236 1_454
Mn0 O3 2.189972 1_555
Mn0 O8 2.257620 1_464
Mn1 O4 1.894401 1_655
Mn1 O10 1.950727 1_555
Mn1 O8 2.011619 1_555
Mn1 O2 2.017330 1_655
Mn1 O7 2.189820 1_555
Mn1 O5 2.257773 1_655
Mn2 O9 1.894093 1_555
Mn2 O0 1.909448 1_655
Mn2 O3 1.936234 1_655
Mn2 O8 1.944963 1_554
Mn2 O2 1.989635 1_654
Mn2 O11 2.017682 1_554
Mn3 O1 1.894117 1_555
Mn3 O10 1.909547 1_465
Mn3 O7 1.936055 1_455
Mn3 O5 1.945008 1_565
Mn3 O11 1.989776 1_455
Mn3 O2 2.017752 1_555
Co0 O3 1.949850 1_655
Co0 O7 1.949986 1_555
Co0 O1 1.968752 1_655
Co0 O9 1.968820 1_555
Co0 O4 1.985362 1_655
Co0 O6 1.985425 1_555
