# generated using pymatgen
data_LiV3O5F
_symmetry_space_group_name_H-M   'P 1'
_cell_length_a   5.09465288
_cell_length_b   8.98308523
_cell_length_c   5.51976980
_cell_angle_alpha   107.59282951
_cell_angle_beta   116.32862630
_cell_angle_gamma   90.35123911
_symmetry_Int_Tables_number   1
_chemical_formula_structural   LiV3O5F
_chemical_formula_sum   'Li2 V6 O10 F2'
_cell_volume   212.89625366
_cell_formula_units_Z   2
loop_
 _symmetry_equiv_pos_site_id
 _symmetry_equiv_pos_as_xyz
  1  'x, y, z'
loop_
 _atom_site_type_symbol
 _atom_site_label
 _atom_site_symmetry_multiplicity
 _atom_site_fract_x
 _atom_site_fract_y
 _atom_site_fract_z
 _atom_site_occupancy
  Li  Li0  1  0.33718800  0.43287700  0.60484500  1
  Li  Li1  1  0.81301800  0.92769700  0.59794200  1
  V  V0  1  0.20296700  0.09294300  0.43236900  1
  V  V1  1  0.70465200  0.58594200  0.43532700  1
  V  V2  1  0.00823700  0.68391600  0.05619300  1
  V  V3  1  0.51164400  0.18027300  0.05158500  1
  V  V4  1  0.98495900  0.32050100  0.95830100  1
  V  V5  1  0.47451000  0.82415300  0.97762300  1
  O  O0  1  0.43955200  0.03100400  0.23004500  1
  O  O1  1  0.94737000  0.53626800  0.20351100  1
  O  O2  1  0.54221400  0.25418100  0.74747900  1
  O  O3  1  0.04198000  0.75529700  0.76263700  1
  O  O4  1  0.07990700  0.12921400  0.73951900  1
  O  O5  1  0.58726700  0.63873900  0.76309800  1
  O  O6  1  0.42754100  0.37953400  0.23796200  1
  O  O7  1  0.94296600  0.88134500  0.24634200  1
  O  O8  1  0.97228800  0.20662800  0.23903400  1
  O  O9  1  0.44929900  0.71443700  0.24314200  1
  F  F0  1  0.01171900  0.45971800  0.72288100  1
  F  F1  1  0.52071800  0.96533100  0.75016500  1
loop_
_geom_bond_atom_site_label_1
_geom_bond_atom_site_label_2
_geom_bond_distance
_geom_bond_site_symmetry_2
Li0 O5 1.952822 1_555
Li0 O2 2.083932 1_555
Li0 O6 2.187593 1_555
Li0 O8 2.409782 1_455
Li1 O4 1.977019 1_665
Li1 O3 2.125582 1_655
Li1 O7 2.243387 1_555
Li1 O9 2.325634 1_555
Li1 O0 2.517677 1_565
O0 V0 1.958621 1_555
O0 V3 2.004143 1_555
O0 V5 2.021118 1_544
O1 V2 1.840423 1_655
O1 V4 2.067383 1_554
O1 V1 2.104912 1_555
O2 V0 1.972354 1_555
O2 V4 2.008250 1_555
O2 V3 2.046228 1_556
O3 V5 1.966373 1_555
O3 V2 1.984971 1_556
O3 V1 2.020961 1_455
O4 V4 1.979652 1_455
O4 V0 1.996254 1_555
O4 V3 2.040770 1_556
O5 V2 1.973933 1_656
O5 V5 1.982229 1_555
O5 V1 2.073739 1_555
O6 V3 1.932150 1_555
O6 V1 2.000124 1_555
O6 V4 2.037465 1_454
O7 V2 1.883918 1_655
O7 V0 2.001198 1_665
O7 V5 2.131710 1_554
O8 V0 1.767476 1_655
O8 V3 2.079755 1_555
O8 V4 2.120822 1_554
O9 V1 1.919526 1_555
O9 V2 1.988433 1_555
O9 V5 2.043158 1_554
F0 Li0 2.024929 1_555
F0 V4 2.099673 1_455
F0 V1 2.271443 1_455
F0 V2 2.287106 1_556
F1 Li1 1.995563 1_555
F1 V5 2.112143 1_555
F1 V3 2.150765 1_566
F1 V0 2.393999 1_565
