# generated using pymatgen
data_La4Mg
_symmetry_space_group_name_H-M   'P 1'
_cell_length_a   7.62429049
_cell_length_b   7.62429049
_cell_length_c   24.43685310
_cell_angle_alpha   98.96683603
_cell_angle_beta   98.96683603
_cell_angle_gamma   90.05035358
_symmetry_Int_Tables_number   1
_chemical_formula_structural   La4Mg
_chemical_formula_sum   'La32 Mg8'
_cell_volume   1385.53947928
_cell_formula_units_Z   8
loop_
 _symmetry_equiv_pos_site_id
 _symmetry_equiv_pos_as_xyz
  1  'x, y, z'
loop_
 _atom_site_type_symbol
 _atom_site_label
 _atom_site_symmetry_multiplicity
 _atom_site_fract_x
 _atom_site_fract_y
 _atom_site_fract_z
 _atom_site_occupancy
  La  La0_0  1  0.29420750  0.29420750  0.08841500  1
  La  La0_1  1  0.29420750  0.29420750  0.58841500  1
  La  La0_2  1  0.29420750  0.79420750  0.08841500  1
  La  La0_3  1  0.29420750  0.79420750  0.58841500  1
  La  La0_4  1  0.79420750  0.29420750  0.08841500  1
  La  La0_5  1  0.79420750  0.29420750  0.58841500  1
  La  La0_6  1  0.79420750  0.79420750  0.08841500  1
  La  La0_7  1  0.79420750  0.79420750  0.58841500  1
  La  La1_0  1  0.09693350  0.09693350  0.19386700  1
  La  La1_1  1  0.09693350  0.09693350  0.69386700  1
  La  La1_2  1  0.09693350  0.59693350  0.19386700  1
  La  La1_3  1  0.09693350  0.59693350  0.69386700  1
  La  La1_4  1  0.59693350  0.09693350  0.19386700  1
  La  La1_5  1  0.59693350  0.09693350  0.69386700  1
  La  La1_6  1  0.59693350  0.59693350  0.19386700  1
  La  La1_7  1  0.59693350  0.59693350  0.69386700  1
  La  La2_0  1  0.40306650  0.40306650  0.30613300  1
  La  La2_1  1  0.40306650  0.40306650  0.80613300  1
  La  La2_2  1  0.40306650  0.90306650  0.30613300  1
  La  La2_3  1  0.40306650  0.90306650  0.80613300  1
  La  La2_4  1  0.90306650  0.40306650  0.30613300  1
  La  La2_5  1  0.90306650  0.40306650  0.80613300  1
  La  La2_6  1  0.90306650  0.90306650  0.30613300  1
  La  La2_7  1  0.90306650  0.90306650  0.80613300  1
  La  La3_0  1  0.20579250  0.20579250  0.41158500  1
  La  La3_1  1  0.20579250  0.20579250  0.91158500  1
  La  La3_2  1  0.20579250  0.70579250  0.41158500  1
  La  La3_3  1  0.20579250  0.70579250  0.91158500  1
  La  La3_4  1  0.70579250  0.20579250  0.41158500  1
  La  La3_5  1  0.70579250  0.20579250  0.91158500  1
  La  La3_6  1  0.70579250  0.70579250  0.41158500  1
  La  La3_7  1  0.70579250  0.70579250  0.91158500  1
  Mg  Mg0_0  1  0.00000000  0.00000000  0.00000000  1
  Mg  Mg0_1  1  0.00000000  0.00000000  0.50000000  1
  Mg  Mg0_2  1  0.00000000  0.50000000  0.00000000  1
  Mg  Mg0_3  1  0.00000000  0.50000000  0.50000000  1
  Mg  Mg0_4  1  0.50000000  0.00000000  0.00000000  1
  Mg  Mg0_5  1  0.50000000  0.00000000  0.50000000  1
  Mg  Mg0_6  1  0.50000000  0.50000000  0.00000000  1
  Mg  Mg0_7  1  0.50000000  0.50000000  0.50000000  1
loop_
_geom_bond_atom_site_label_1
_geom_bond_atom_site_label_2
_geom_bond_distance
_geom_bond_site_symmetry_2
La0_0 Mg0_0 3.420666 1_555
La0_0 Mg0_6 3.420666 1_555
La0_0 Mg0_2 3.422533 1_555
La0_0 Mg0_4 3.422533 1_555
La0_0 La1_0 3.684754 1_555
La0_0 La1_6 3.684754 1_555
La0_0 La1_4 3.686486 1_555
La0_0 La1_2 3.686486 1_555
La0_1 Mg0_1 3.420666 1_555
La0_1 Mg0_7 3.420666 1_555
La0_1 Mg0_5 3.422533 1_555
La0_1 Mg0_3 3.422533 1_555
La0_1 La1_1 3.684754 1_555
La0_1 La1_7 3.684754 1_555
La0_1 La1_3 3.686486 1_555
La0_1 La1_5 3.686486 1_555
La0_2 Mg0_2 3.420666 1_555
La0_2 Mg0_4 3.420666 1_565
La0_2 Mg0_6 3.422533 1_555
La0_2 Mg0_0 3.422533 1_565
La0_2 La1_2 3.684754 1_555
La0_2 La1_4 3.684754 1_565
La0_2 La1_0 3.686486 1_565
La0_2 La1_6 3.686486 1_555
La0_3 Mg0_3 3.420666 1_555
La0_3 Mg0_5 3.420666 1_565
La0_3 Mg0_7 3.422533 1_555
La0_3 Mg0_1 3.422533 1_565
La0_3 La1_5 3.684754 1_565
La0_3 La1_3 3.684754 1_555
La0_3 La1_1 3.686486 1_565
La0_3 La1_7 3.686486 1_555
La0_4 Mg0_4 3.420666 1_555
La0_4 Mg0_2 3.420666 1_655
La0_4 Mg0_6 3.422533 1_555
La0_4 Mg0_0 3.422533 1_655
La0_4 La1_2 3.684754 1_655
La0_4 La1_4 3.684754 1_555
La0_4 La1_6 3.686486 1_555
La0_4 La1_0 3.686486 1_655
La0_5 Mg0_3 3.420666 1_655
La0_5 Mg0_5 3.420666 1_555
La0_5 Mg0_7 3.422533 1_555
La0_5 Mg0_1 3.422533 1_655
La0_5 La1_3 3.684754 1_655
La0_5 La1_5 3.684754 1_555
La0_5 La1_7 3.686486 1_555
La0_5 La1_1 3.686486 1_655
La0_6 Mg0_6 3.420666 1_555
La0_6 Mg0_0 3.420666 1_665
La0_6 Mg0_2 3.422533 1_655
La0_6 Mg0_4 3.422533 1_565
La0_6 La1_6 3.684754 1_555
La0_6 La1_0 3.684754 1_665
La0_6 La1_2 3.686486 1_655
La0_6 La1_4 3.686486 1_565
La0_7 Mg0_7 3.420666 1_555
La0_7 Mg0_1 3.420666 1_665
La0_7 Mg0_3 3.422533 1_655
La0_7 Mg0_5 3.422533 1_565
La0_7 La1_1 3.684754 1_665
La0_7 La1_7 3.684754 1_555
La0_7 La1_3 3.686486 1_655
La0_7 La1_5 3.686486 1_565
La1_0 La2_6 3.797398 1_445
La1_0 La2_0 3.797398 1_555
La1_0 La2_2 3.799080 1_545
La1_0 La2_4 3.799080 1_455
La1_0 La1_4 3.812145 1_555
La1_0 La1_2 3.812145 1_555
La1_0 La1_2 3.812145 1_545
La1_0 La1_4 3.812145 1_455
La1_1 La2_7 3.797398 1_445
La1_1 La2_1 3.797398 1_555
La1_1 La2_3 3.799080 1_545
La1_1 La2_5 3.799080 1_455
La1_1 La1_5 3.812145 1_555
La1_1 La1_3 3.812145 1_555
La1_1 La1_5 3.812145 1_455
La1_1 La1_3 3.812145 1_545
La1_2 La2_4 3.797398 1_455
La1_2 La2_2 3.797398 1_555
La1_2 La2_0 3.799080 1_555
La1_2 La2_6 3.799080 1_455
La1_2 La1_6 3.812145 1_555
La1_2 La1_6 3.812145 1_455
La1_3 La2_5 3.797398 1_455
La1_3 La2_3 3.797398 1_555
La1_3 La2_1 3.799080 1_555
La1_3 La2_7 3.799080 1_455
La1_3 La1_7 3.812145 1_555
La1_3 La1_7 3.812145 1_455
La1_4 La2_2 3.797398 1_545
La1_4 La2_4 3.797398 1_555
La1_4 La2_0 3.799080 1_555
La1_4 La2_6 3.799080 1_545
La1_4 La1_6 3.812145 1_555
La1_4 La1_6 3.812145 1_545
La1_5 La2_3 3.797398 1_545
La1_5 La2_5 3.797398 1_555
La1_5 La2_1 3.799080 1_555
La1_5 La2_7 3.799080 1_545
La1_5 La1_7 3.812145 1_555
La1_5 La1_7 3.812145 1_545
La1_6 La2_0 3.797398 1_555
La1_6 La2_6 3.797398 1_555
La1_6 La2_2 3.799080 1_555
La1_6 La2_4 3.799080 1_555
La1_7 La2_1 3.797398 1_555
La1_7 La2_7 3.797398 1_555
La1_7 La2_3 3.799080 1_555
La1_7 La2_5 3.799080 1_555
La2_0 La3_6 3.684754 1_555
La2_0 La3_0 3.684754 1_555
La2_0 La3_2 3.686486 1_555
La2_0 La3_4 3.686486 1_555
La2_0 La2_4 3.812145 1_555
La2_0 La2_2 3.812145 1_555
La2_0 La2_2 3.812145 1_545
La2_0 La2_4 3.812145 1_455
La2_1 La3_7 3.684754 1_555
La2_1 La3_1 3.684754 1_555
La2_1 La3_3 3.686486 1_555
La2_1 La3_5 3.686486 1_555
La2_1 La2_3 3.812145 1_555
La2_1 La2_5 3.812145 1_455
La2_1 La2_5 3.812145 1_555
La2_1 La2_3 3.812145 1_545
La2_2 La3_4 3.684754 1_565
La2_2 La3_2 3.684754 1_555
La2_2 La3_0 3.686486 1_565
La2_2 La3_6 3.686486 1_555
La2_2 La2_6 3.812145 1_555
La2_2 La2_6 3.812145 1_455
La2_3 La3_3 3.684754 1_555
La2_3 La3_5 3.684754 1_565
La2_3 La3_1 3.686486 1_565
La2_3 La3_7 3.686486 1_555
La2_3 La2_7 3.812145 1_455
La2_3 La2_7 3.812145 1_555
La2_4 La3_2 3.684754 1_655
La2_4 La3_4 3.684754 1_555
La2_4 La3_6 3.686486 1_555
La2_4 La3_0 3.686486 1_655
La2_4 La2_6 3.812145 1_555
La2_4 La2_6 3.812145 1_545
La2_5 La3_3 3.684754 1_655
La2_5 La3_5 3.684754 1_555
La2_5 La3_7 3.686486 1_555
La2_5 La3_1 3.686486 1_655
La2_5 La2_7 3.812145 1_555
La2_5 La2_7 3.812145 1_545
La2_6 La3_0 3.684754 1_665
La2_6 La3_6 3.684754 1_555
La2_6 La3_4 3.686486 1_565
La2_6 La3_2 3.686486 1_655
La2_7 La3_1 3.684754 1_665
La2_7 La3_7 3.684754 1_555
La2_7 La3_5 3.686486 1_565
La2_7 La3_3 3.686486 1_655
La3_0 Mg0_1 3.420666 1_555
La3_0 Mg0_7 3.420666 1_555
La3_0 Mg0_5 3.422533 1_555
La3_0 Mg0_3 3.422533 1_555
La3_1 Mg0_6 3.420666 1_556
La3_1 Mg0_0 3.420666 1_556
La3_1 Mg0_4 3.422533 1_556
La3_1 Mg0_2 3.422533 1_556
La3_2 Mg0_5 3.420666 1_565
La3_2 Mg0_3 3.420666 1_555
La3_2 Mg0_7 3.422533 1_555
La3_2 Mg0_1 3.422533 1_565
La3_3 Mg0_2 3.420666 1_556
La3_3 Mg0_4 3.420666 1_566
La3_3 Mg0_6 3.422533 1_556
La3_3 Mg0_0 3.422533 1_566
La3_4 Mg0_5 3.420666 1_555
La3_4 Mg0_3 3.420666 1_655
La3_4 Mg0_1 3.422533 1_655
La3_4 Mg0_7 3.422533 1_555
La3_5 Mg0_4 3.420666 1_556
La3_5 Mg0_2 3.420666 1_656
La3_5 Mg0_0 3.422533 1_656
La3_5 Mg0_6 3.422533 1_556
La3_6 Mg0_7 3.420666 1_555
La3_6 Mg0_1 3.420666 1_665
La3_6 Mg0_3 3.422533 1_655
La3_6 Mg0_5 3.422533 1_565
La3_7 Mg0_6 3.420666 1_556
La3_7 Mg0_0 3.420666 1_666
La3_7 Mg0_2 3.422533 1_656
La3_7 Mg0_4 3.422533 1_566
