# generated using pymatgen
data_FeCo9
_symmetry_space_group_name_H-M   'P 1'
_cell_length_a   5.17924300
_cell_length_b   5.17924300
_cell_length_c   4.85901400
_cell_angle_alpha   90.00000000
_cell_angle_beta   90.00000000
_cell_angle_gamma   90.00000000
_symmetry_Int_Tables_number   1
_chemical_formula_structural   FeCo9
_chemical_formula_sum   'Fe1 Co9'
_cell_volume   130.34090312
_cell_formula_units_Z   1
loop_
 _symmetry_equiv_pos_site_id
 _symmetry_equiv_pos_as_xyz
  1  'x, y, z'
loop_
 _atom_site_type_symbol
 _atom_site_label
 _atom_site_symmetry_multiplicity
 _atom_site_fract_x
 _atom_site_fract_y
 _atom_site_fract_z
 _atom_site_occupancy
  Fe  Fe0  1  0.00000000  0.00000000  0.00000000  1
  Co  Co0  1  0.00000000  0.00000000  0.50000000  1
  Co  Co1  1  0.28094000  0.28094000  0.25015500  1
  Co  Co2  1  0.28094000  0.71906000  0.74984500  1
  Co  Co3  1  0.71906000  0.28094000  0.25015500  1
  Co  Co4  1  0.71906000  0.28094000  0.74984500  1
  Co  Co5  1  0.71906000  0.71906000  0.25015500  1
  Co  Co6  1  0.28094000  0.71906000  0.25015500  1
  Co  Co7  1  0.71906000  0.71906000  0.74984500  1
  Co  Co8  1  0.28094000  0.28094000  0.74984500  1
loop_
_geom_bond_atom_site_label_1
_geom_bond_atom_site_label_2
_geom_bond_distance
_geom_bond_site_symmetry_2
Co0 Co4 2.389179 1_455
Co0 Co5 2.389179 1_445
Co0 Co2 2.389179 1_545
Co0 Co3 2.389179 1_455
Co0 Co6 2.389179 1_545
Co0 Co7 2.389179 1_445
Co0 Co8 2.389179 1_555
Co0 Co1 2.389179 1_555
Co0 Fe0 2.429507 1_555
Co0 Fe0 2.429507 1_556
Co1 Co6 2.269130 1_555
Co1 Co3 2.269130 1_555
Co1 Fe0 2.389945 1_555
Co1 Co8 2.428001 1_555
Co1 Co8 2.431013 1_554
Co2 Co7 2.269130 1_555
Co2 Co8 2.269130 1_555
Co2 Fe0 2.389945 1_566
Co2 Co6 2.428001 1_555
Co2 Co6 2.431013 1_556
Co3 Co5 2.269130 1_555
Co3 Fe0 2.389945 1_655
Co3 Co4 2.428001 1_555
Co3 Co4 2.431013 1_554
Co4 Co7 2.269130 1_555
Co4 Co8 2.269130 1_555
Co4 Fe0 2.389945 1_656
Co5 Co6 2.269130 1_555
Co5 Fe0 2.389945 1_665
Co5 Co7 2.428001 1_555
Co5 Co7 2.431013 1_554
Co6 Fe0 2.389945 1_565
Co7 Fe0 2.389945 1_666
Co8 Fe0 2.389945 1_556
