# generated using pymatgen
data_Pr2MgS4
_symmetry_space_group_name_H-M   'P 1'
_cell_length_a   7.41419108
_cell_length_b   7.41419108
_cell_length_c   7.41419108
_cell_angle_alpha   110.98490366
_cell_angle_beta   110.98490366
_cell_angle_gamma   106.48450827
_symmetry_Int_Tables_number   1
_chemical_formula_structural   Pr2MgS4
_chemical_formula_sum   'Pr4 Mg2 S8'
_cell_volume   313.10450371
_cell_formula_units_Z   2
loop_
 _symmetry_equiv_pos_site_id
 _symmetry_equiv_pos_as_xyz
  1  'x, y, z'
loop_
 _atom_site_type_symbol
 _atom_site_label
 _atom_site_symmetry_multiplicity
 _atom_site_fract_x
 _atom_site_fract_y
 _atom_site_fract_z
 _atom_site_occupancy
  Pr  Pr0  1  0.87500000  0.75669500  0.38169500  1
  Pr  Pr1  1  0.50669500  0.12500000  0.88169500  1
  Pr  Pr2  1  0.37500000  0.49330500  0.61830500  1
  Pr  Pr3  1  0.24330500  0.62500000  0.11830500  1
  Mg  Mg0  1  0.00000000  0.00000000  0.00000000  1
  Mg  Mg1  1  0.75000000  0.25000000  0.50000000  1
  S  S0  1  0.50640400  0.37630400  0.26804600  1
  S  S1  1  0.76164200  0.49359600  0.86989900  1
  S  S2  1  0.10825700  0.23835800  0.73195400  1
  S  S3  1  0.62369600  0.89174300  0.13010100  1
  S  S4  1  0.24359600  0.01164200  0.36989900  1
  S  S5  1  0.98835800  0.35825700  0.23195400  1
  S  S6  1  0.64174300  0.87369600  0.63010100  1
  S  S7  1  0.12630400  0.75640400  0.76804600  1
loop_
_geom_bond_atom_site_label_1
_geom_bond_atom_site_label_2
_geom_bond_distance
_geom_bond_site_symmetry_2
Pr0 S7 2.803718 1_655
Pr0 S3 2.803720 1_555
Pr0 S0 2.899483 1_555
Pr0 S4 2.899487 1_665
Pr0 S6 3.020552 1_555
Pr0 S2 3.020554 1_665
Pr0 S1 3.223958 1_554
Pr0 S5 3.223958 1_555
Pr1 S0 2.803718 1_556
Pr1 S6 2.803720 1_545
Pr1 S7 2.899483 1_545
Pr1 S1 2.899487 1_555
Pr1 S3 3.020552 1_546
Pr1 S5 3.020554 1_556
Pr1 S4 3.223958 1_555
Pr1 S2 3.223958 1_555
Pr2 S5 2.803716 1_455
Pr2 S1 2.803716 1_555
Pr2 S6 2.899482 1_555
Pr2 S2 2.899487 1_555
Pr2 S0 3.020553 1_555
Pr2 S4 3.020554 1_555
Pr2 S7 3.223952 1_555
Pr2 S3 3.223959 1_556
Pr3 S4 2.803716 1_565
Pr3 S2 2.803716 1_554
Pr3 S3 2.899482 1_555
Pr3 S5 2.899487 1_455
Pr3 S7 3.020553 1_554
Pr3 S1 3.020554 1_454
Pr3 S0 3.223952 1_555
Pr3 S6 3.223959 1_555
Mg0 S6 2.642906 1_444
Mg0 S4 2.642909 1_555
Mg0 S5 2.642909 1_455
Mg0 S7 2.642914 1_544
Mg1 S3 2.642906 1_545
Mg1 S1 2.642909 1_555
Mg1 S2 2.642909 1_655
Mg1 S0 2.642914 1_555
