# generated using pymatgen
data_Cs2PaF7
_symmetry_space_group_name_H-M   'P 1'
_cell_length_a   8.09224619
_cell_length_b   8.09224619
_cell_length_c   8.26545163
_cell_angle_alpha   61.16379019
_cell_angle_beta   61.16379019
_cell_angle_gamma   53.57926411
_symmetry_Int_Tables_number   1
_chemical_formula_structural   Cs2PaF7
_chemical_formula_sum   'Cs4 Pa2 F14'
_cell_volume   366.49464059
_cell_formula_units_Z   2
loop_
 _symmetry_equiv_pos_site_id
 _symmetry_equiv_pos_as_xyz
  1  'x, y, z'
loop_
 _atom_site_type_symbol
 _atom_site_label
 _atom_site_symmetry_multiplicity
 _atom_site_fract_x
 _atom_site_fract_y
 _atom_site_fract_z
 _atom_site_occupancy
  Cs  Cs0  1  0.84229957  0.81726037  0.61929846  1
  Cs  Cs1  1  0.18273963  0.15770043  0.88070154  1
  Cs  Cs2  1  0.15770043  0.18273963  0.38070154  1
  Cs  Cs3  1  0.81726037  0.84229957  0.11929846  1
  Pa  Pa0  1  0.47052522  0.52947478  0.75000000  1
  Pa  Pa1  1  0.52947478  0.47052522  0.25000000  1
  F  F0  1  0.55278285  0.30912441  0.07429212  1
  F  F1  1  0.69087559  0.44721715  0.42570788  1
  F  F2  1  0.44721715  0.69087559  0.92570788  1
  F  F3  1  0.30912441  0.55278285  0.57429212  1
  F  F4  1  0.59585450  0.19311986  0.78826462  1
  F  F5  1  0.80688014  0.40414550  0.71173538  1
  F  F6  1  0.40414550  0.80688014  0.21173538  1
  F  F7  1  0.19311986  0.59585450  0.28826462  1
  F  F8  1  0.54335119  0.78274740  0.52728396  1
  F  F9  1  0.21725260  0.45664881  0.97271604  1
  F  F10  1  0.45664881  0.21725260  0.47271604  1
  F  F11  1  0.78274740  0.54335119  0.02728396  1
  F  F12  1  0.16591478  0.83408522  0.75000000  1
  F  F13  1  0.83408522  0.16591478  0.25000000  1
loop_
_geom_bond_atom_site_label_1
_geom_bond_atom_site_label_2
_geom_bond_distance
_geom_bond_site_symmetry_2
Cs0 F3 2.966775 1_655
Cs0 F13 2.991261 1_565
Cs0 F11 3.001268 1_556
Cs0 F8 3.048067 1_555
Cs0 F4 3.063805 1_565
Cs0 F10 3.090950 1_565
Cs0 F7 3.154727 1_655
Cs0 F5 3.210056 1_555
Cs0 F2 3.354871 1_555
Cs0 F12 3.367165 1_655
Cs1 F2 2.966775 1_545
Cs1 F13 2.991261 1_456
Cs1 F10 3.001268 1_555
Cs1 F9 3.048067 1_555
Cs1 F5 3.063805 1_455
Cs1 F11 3.090950 1_456
Cs1 F6 3.154727 1_546
Cs1 F4 3.210056 1_555
Cs1 F3 3.354871 1_555
Cs1 F12 3.367165 1_545
Cs2 F1 2.966775 1_455
Cs2 F12 2.991261 1_545
Cs2 F9 3.001268 1_554
Cs2 F10 3.048067 1_555
Cs2 F6 3.063805 1_545
Cs2 F8 3.090950 1_545
Cs2 F5 3.154727 1_455
Cs2 F7 3.210056 1_555
Cs2 F0 3.354871 1_555
Cs2 F13 3.367165 1_455
Cs3 F0 2.966775 1_565
Cs3 F12 2.991261 1_654
Cs3 F8 3.001268 1_555
Cs3 F11 3.048067 1_555
Cs3 F7 3.063805 1_655
Cs3 F9 3.090950 1_654
Cs3 F4 3.154727 1_564
Cs3 F6 3.210056 1_555
Cs3 F1 3.354871 1_555
Cs3 F13 3.367165 1_565
F0 Pa1 2.263543 1_555
F0 Pa0 2.551190 1_554
F1 Pa1 2.263543 1_555
F1 Pa0 2.551190 1_555
F2 Pa0 2.263543 1_555
F2 Pa1 2.551190 1_556
F3 Pa0 2.263543 1_555
F3 Pa1 2.551190 1_555
F4 Pa0 2.176768 1_555
F5 Pa0 2.176768 1_555
F6 Pa1 2.176768 1_555
F7 Pa1 2.176768 1_555
F8 Pa0 2.164490 1_555
F9 Pa0 2.164490 1_555
F10 Pa1 2.164490 1_555
F11 Pa1 2.164490 1_555
F12 Pa0 2.222014 1_555
F13 Pa1 2.222014 1_555
