# generated using pymatgen
data_Tm3Pd4
_symmetry_space_group_name_H-M   'P 1'
_cell_length_a   5.66811964
_cell_length_b   7.71449270
_cell_length_c   7.71449289
_cell_angle_alpha   114.20653555
_cell_angle_beta   104.17664091
_cell_angle_gamma   104.17664126
_symmetry_Int_Tables_number   1
_chemical_formula_structural   Tm3Pd4
_chemical_formula_sum   'Tm6 Pd8'
_cell_volume   274.61268002
_cell_formula_units_Z   2
loop_
 _symmetry_equiv_pos_site_id
 _symmetry_equiv_pos_as_xyz
  1  'x, y, z'
loop_
 _atom_site_type_symbol
 _atom_site_label
 _atom_site_symmetry_multiplicity
 _atom_site_fract_x
 _atom_site_fract_y
 _atom_site_fract_z
 _atom_site_occupancy
  Tm  Tm0  1  0.40526323  0.12983246  0.38147469  1
  Tm  Tm1  1  0.02378854  0.61852531  0.74835777  1
  Tm  Tm2  1  0.27543078  0.25164223  0.87016754  1
  Tm  Tm3  1  0.59473677  0.87016754  0.61852531  1
  Tm  Tm4  1  0.97621146  0.38147469  0.25164223  1
  Tm  Tm5  1  0.72456922  0.74835777  0.12983246  1
  Pd  Pd0  1  0.00000000  0.00000000  -0.00000000  1
  Pd  Pd1  1  0.50000000  0.00000000  -0.00000000  1
  Pd  Pd2  1  0.22916521  0.68159000  0.16542379  1
  Pd  Pd3  1  0.06374242  0.83457621  0.51616721  1
  Pd  Pd4  1  0.54757521  0.48383279  0.31841000  1
  Pd  Pd5  1  0.77083479  0.31841000  0.83457621  1
  Pd  Pd6  1  0.93625758  0.16542379  0.48383279  1
  Pd  Pd7  1  0.45242479  0.51616721  0.68159000  1
loop_
_geom_bond_atom_site_label_1
_geom_bond_atom_site_label_2
_geom_bond_distance
_geom_bond_site_symmetry_2
Pd0 Tm1 2.843409 1_544
Pd0 Tm4 2.843409 1_455
Pd0 Tm5 2.843409 1_445
Pd0 Tm2 2.843409 1_554
Pd0 Tm0 2.843409 1_555
Pd0 Tm3 2.843409 1_444
Pd1 Tm5 2.927871 1_545
Pd1 Tm2 2.927871 1_554
Pd1 Tm0 2.927871 1_555
Pd1 Tm3 2.927871 1_544
Pd1 Tm1 2.927871 1_544
Pd1 Tm4 2.927871 1_555
Pd2 Tm4 2.821772 1_455
Pd2 Tm5 2.830332 1_555
Pd2 Pd5 2.904453 1_454
Pd2 Tm0 2.915454 1_565
Pd2 Tm1 2.923722 1_554
Pd2 Pd3 2.959634 1_555
Pd2 Pd4 2.959638 1_555
Pd2 Tm5 2.995638 1_455
Pd2 Tm3 3.071445 1_555
Pd2 Tm2 3.283515 1_554
Pd3 Tm5 2.821780 1_455
Pd3 Tm3 2.830327 1_555
Pd3 Pd6 2.904463 1_465
Pd3 Tm1 2.915448 1_555
Pd3 Tm2 2.923720 1_565
Pd3 Pd4 2.959638 1_455
Pd3 Tm3 2.995640 1_455
Pd3 Tm4 3.071445 1_455
Pd3 Tm0 3.283518 1_565
Pd4 Tm3 2.821777 1_555
Pd4 Tm4 2.830329 1_555
Pd4 Pd7 2.904448 1_555
Pd4 Tm2 2.915455 1_554
Pd4 Tm0 2.923715 1_555
Pd4 Tm4 2.995638 1_455
Pd4 Tm5 3.071451 1_555
Pd4 Tm1 3.283513 1_655
Pd5 Tm1 2.821772 1_655
Pd5 Tm2 2.830332 1_555
Pd5 Tm3 2.915454 1_545
Pd5 Tm4 2.923722 1_556
Pd5 Pd6 2.959634 1_555
Pd5 Pd7 2.959638 1_555
Pd5 Tm2 2.995638 1_655
Pd5 Tm0 3.071445 1_555
Pd5 Tm5 3.283515 1_556
Pd6 Tm2 2.821780 1_655
Pd6 Tm0 2.830327 1_555
Pd6 Tm4 2.915448 1_555
Pd6 Tm5 2.923720 1_545
Pd6 Pd7 2.959638 1_655
Pd6 Tm0 2.995640 1_655
Pd6 Tm1 3.071445 1_655
Pd6 Tm3 3.283518 1_545
Pd7 Tm0 2.821777 1_555
Pd7 Tm1 2.830329 1_555
Pd7 Tm5 2.915455 1_556
Pd7 Tm3 2.923715 1_555
Pd7 Tm1 2.995638 1_655
Pd7 Tm2 3.071451 1_555
Pd7 Tm4 3.283513 1_455
