# generated using pymatgen
data_Sr7CaMn3Fe5O24
_symmetry_space_group_name_H-M   'P 1'
_cell_length_a   7.79671284
_cell_length_b   7.79671284
_cell_length_c   7.82252502
_cell_angle_alpha   89.99717191
_cell_angle_beta   89.99717191
_cell_angle_gamma   89.98953461
_symmetry_Int_Tables_number   1
_chemical_formula_structural   Sr7CaMn3Fe5O24
_chemical_formula_sum   'Sr7 Ca1 Mn3 Fe5 O24'
_cell_volume   475.52136138
_cell_formula_units_Z   1
loop_
 _symmetry_equiv_pos_site_id
 _symmetry_equiv_pos_as_xyz
  1  'x, y, z'
loop_
 _atom_site_type_symbol
 _atom_site_label
 _atom_site_symmetry_multiplicity
 _atom_site_fract_x
 _atom_site_fract_y
 _atom_site_fract_z
 _atom_site_occupancy
  Sr  Sr0  1  0.74963600  0.25038000  0.25077000  1
  Sr  Sr1  1  0.74961000  0.25037100  0.74925500  1
  Sr  Sr2  1  0.74963100  0.74963100  0.74919900  1
  Sr  Sr3  1  0.25034200  0.25034200  0.25082600  1
  Sr  Sr4  1  0.25036700  0.25036700  0.74921100  1
  Sr  Sr5  1  0.25038000  0.74963600  0.25077000  1
  Sr  Sr6  1  0.25037100  0.74961000  0.74925500  1
  Ca  Ca0  1  0.74957300  0.74957300  0.25094800  1
  Mn  Mn0  1  0.99946900  0.50046600  0.49952900  1
  Mn  Mn1  1  0.50046600  0.99946900  0.49952900  1
  Mn  Mn2  1  0.50046000  0.50046000  0.49955900  1
  Fe  Fe0  1  0.99949000  0.99949000  0.00053700  1
  Fe  Fe1  1  0.99954400  0.99954400  0.49955600  1
  Fe  Fe2  1  0.99953700  0.50044300  0.00048100  1
  Fe  Fe3  1  0.50044300  0.99953700  0.00048100  1
  Fe  Fe4  1  0.50049700  0.50049700  0.00055300  1
  O  O0  1  0.75105000  0.99787000  0.00213200  1
  O  O1  1  0.74647000  0.99781400  0.49781900  1
  O  O2  1  0.74979700  0.50213100  0.00214000  1
  O  O3  1  0.74940700  0.50238800  0.49763200  1
  O  O4  1  0.24890100  0.99959500  0.00040200  1
  O  O5  1  0.25365600  0.99960100  0.49962600  1
  O  O6  1  0.25020600  0.50035200  0.00038200  1
  O  O7  1  0.25058700  0.50027000  0.49970900  1
  O  O8  1  0.99959500  0.24890100  0.00040200  1
  O  O9  1  0.99960100  0.25365600  0.49962600  1
  O  O10  1  0.99787000  0.75105000  0.00213200  1
  O  O11  1  0.99781400  0.74647000  0.49781900  1
  O  O12  1  0.50035200  0.25020600  0.00038200  1
  O  O13  1  0.50027000  0.25058700  0.49970900  1
  O  O14  1  0.50213100  0.74979700  0.00214000  1
  O  O15  1  0.50238800  0.74940700  0.49763200  1
  O  O16  1  0.99784900  0.99784900  0.24818800  1
  O  O17  1  0.99959200  0.99959200  0.75189400  1
  O  O18  1  0.99779300  0.50223700  0.25313000  1
  O  O19  1  0.99961200  0.50040600  0.74678600  1
  O  O20  1  0.50223700  0.99779300  0.25313000  1
  O  O21  1  0.50040600  0.99961200  0.74678600  1
  O  O22  1  0.50222000  0.50222000  0.25297400  1
  O  O23  1  0.50038200  0.50038200  0.74697100  1
loop_
_geom_bond_atom_site_label_1
_geom_bond_atom_site_label_2
_geom_bond_distance
_geom_bond_site_symmetry_2
Ca0 O15 2.727190 1_555
Ca0 O3 2.727190 1_555
Ca0 O22 2.727662 1_555
Ca0 O18 2.731862 1_555
Ca0 O20 2.731862 1_555
Ca0 O11 2.734284 1_555
Ca0 O1 2.734284 1_555
Ca0 O16 2.737879 1_555
Ca0 O14 2.740516 1_555
Ca0 O2 2.740516 1_555
Ca0 O10 2.745147 1_555
Ca0 O0 2.745147 1_555
Mn0 O11 1.918110 1_555
Mn0 O9 1.924307 1_555
Mn0 O18 1.927556 1_555
Mn0 O19 1.934174 1_555
Mn0 O3 1.949774 1_555
Mn0 O7 1.957896 1_655
Mn1 O1 1.918110 1_555
Mn1 O5 1.924307 1_555
Mn1 O20 1.927556 1_555
Mn1 O21 1.934174 1_555
Mn1 O15 1.949774 1_555
Mn1 O13 1.957896 1_565
Mn2 O22 1.929014 1_555
Mn2 O23 1.935387 1_555
Mn2 O15 1.941087 1_555
Mn2 O3 1.941087 1_555
Mn2 O13 1.948189 1_555
Mn2 O7 1.948189 1_555
Fe0 O0 1.937098 1_555
Fe0 O10 1.937098 1_555
Fe0 O16 1.937339 1_555
Fe0 O4 1.944587 1_655
Fe0 O8 1.944587 1_565
Fe0 O17 1.945016 1_554
Fe1 O16 1.966423 1_555
Fe1 O11 1.973241 1_555
Fe1 O1 1.973241 1_555
Fe1 O17 1.973920 1_555
Fe1 O5 1.981239 1_655
Fe1 O9 1.981239 1_565
Fe2 O2 1.947236 1_555
Fe2 O10 1.953995 1_555
Fe2 O6 1.954394 1_655
Fe2 O8 1.961201 1_555
Fe2 O18 1.976449 1_555
Fe2 O19 1.984536 1_554
Fe3 O14 1.947236 1_555
Fe3 O0 1.953995 1_555
Fe3 O12 1.954394 1_565
Fe3 O4 1.961201 1_555
Fe3 O20 1.976449 1_555
Fe3 O21 1.984536 1_554
Fe4 O14 1.943805 1_555
Fe4 O2 1.943805 1_555
Fe4 O6 1.951448 1_555
Fe4 O12 1.951448 1_555
Fe4 O22 1.974662 1_555
Fe4 O23 1.983652 1_554
O0 Sr0 2.767561 1_565
O0 Sr2 2.767892 1_554
O0 Sr1 2.790780 1_564
O1 Sr2 2.758862 1_555
O1 Sr0 2.759107 1_565
O1 Sr1 2.783338 1_565
O2 Sr0 2.763154 1_555
O2 Sr2 2.763751 1_554
O2 Sr1 2.786869 1_554
O3 Sr2 2.754801 1_555
O3 Sr0 2.755002 1_555
O3 Sr1 2.781147 1_555
O4 Sr5 2.762890 1_555
O4 Sr6 2.767491 1_554
O4 Sr3 2.767675 1_565
O4 Sr4 2.771926 1_564
O5 Sr5 2.754787 1_555
O5 Sr3 2.758622 1_565
O5 Sr6 2.759070 1_555
O5 Sr4 2.763228 1_565
O6 Sr5 2.759405 1_555
O6 Sr6 2.763233 1_554
O6 Sr3 2.763569 1_555
O6 Sr4 2.767603 1_554
O7 Sr5 2.751686 1_555
O7 Sr3 2.754611 1_555
O7 Sr6 2.755041 1_555
O7 Sr4 2.757761 1_555
O8 Sr0 2.762890 1_555
O8 Sr1 2.767491 1_554
O8 Sr3 2.767675 1_655
O8 Sr4 2.771926 1_654
O9 Sr0 2.754787 1_555
O9 Sr3 2.758622 1_655
O9 Sr1 2.759070 1_555
O9 Sr4 2.763228 1_655
O10 Sr5 2.767561 1_655
O10 Sr2 2.767892 1_554
O10 Sr6 2.790780 1_654
O11 Sr2 2.758862 1_555
O11 Sr5 2.759107 1_655
O11 Sr6 2.783338 1_655
O12 Sr0 2.759405 1_555
O12 Sr1 2.763233 1_554
O12 Sr3 2.763569 1_555
O12 Sr4 2.767603 1_554
O13 Sr0 2.751686 1_555
O13 Sr3 2.754611 1_555
O13 Sr1 2.755041 1_555
O13 Sr4 2.757761 1_555
O14 Sr5 2.763154 1_555
O14 Sr2 2.763751 1_554
O14 Sr6 2.786869 1_554
O15 Sr2 2.754801 1_555
O15 Sr5 2.755002 1_555
O15 Sr6 2.781147 1_555
O16 Sr5 2.760580 1_655
O16 Sr0 2.760580 1_565
O16 Sr3 2.784375 1_665
O17 Sr2 2.756458 1_555
O17 Sr1 2.760578 1_565
O17 Sr6 2.760578 1_655
O17 Sr4 2.765430 1_665
O18 Sr5 2.756938 1_655
O18 Sr0 2.757022 1_555
O18 Sr3 2.780861 1_655
O19 Sr2 2.751993 1_555
O19 Sr6 2.756684 1_655
O19 Sr1 2.757076 1_555
O19 Sr4 2.760748 1_655
O20 Sr0 2.756938 1_565
O20 Sr5 2.757022 1_555
O20 Sr3 2.780861 1_565
O21 Sr2 2.751993 1_555
O21 Sr1 2.756684 1_565
O21 Sr6 2.757076 1_555
O21 Sr4 2.760748 1_565
O22 Sr0 2.752363 1_555
O22 Sr5 2.752363 1_555
O22 Sr3 2.777567 1_555
O23 Sr2 2.748581 1_555
O23 Sr1 2.752169 1_555
O23 Sr6 2.752169 1_555
O23 Sr4 2.757026 1_555
