# generated using pymatgen
data_CaGe3
_symmetry_space_group_name_H-M   'P 1'
_cell_length_a   7.91900345
_cell_length_b   7.91900345
_cell_length_c   7.91900345
_cell_angle_alpha   121.63139984
_cell_angle_beta   121.63139984
_cell_angle_gamma   87.19682032
_symmetry_Int_Tables_number   1
_chemical_formula_structural   CaGe3
_chemical_formula_sum   'Ca4 Ge12'
_cell_volume   342.04915750
_cell_formula_units_Z   4
loop_
 _symmetry_equiv_pos_site_id
 _symmetry_equiv_pos_as_xyz
  1  'x, y, z'
loop_
 _atom_site_type_symbol
 _atom_site_label
 _atom_site_symmetry_multiplicity
 _atom_site_fract_x
 _atom_site_fract_y
 _atom_site_fract_z
 _atom_site_occupancy
  Ca  Ca0  1  0.83382400  0.83382400  0.00000000  1
  Ca  Ca1  1  0.16617600  0.16617600  0.00000000  1
  Ca  Ca2  1  0.25000000  0.75000000  0.50000000  1
  Ca  Ca3  1  0.75000000  0.25000000  0.50000000  1
  Ge  Ge0  1  0.33095700  0.00000000  0.33095700  1
  Ge  Ge1  1  0.66904300  0.00000000  0.66904300  1
  Ge  Ge2  1  0.00000000  0.66904300  0.66904300  1
  Ge  Ge3  1  0.00000000  0.33095700  0.33095700  1
  Ge  Ge4  1  0.20043300  0.20043300  0.63455400  1
  Ge  Ge5  1  0.56587900  0.56587900  0.36544600  1
  Ge  Ge6  1  0.20043300  0.56587900  0.00000000  1
  Ge  Ge7  1  0.56587900  0.20043300  0.00000000  1
  Ge  Ge8  1  0.79956700  0.79956700  0.36544600  1
  Ge  Ge9  1  0.43412100  0.43412100  0.63455400  1
  Ge  Ge10  1  0.79956700  0.43412100  0.00000000  1
  Ge  Ge11  1  0.43412100  0.79956700  0.00000000  1
loop_
_geom_bond_atom_site_label_1
_geom_bond_atom_site_label_2
_geom_bond_distance
_geom_bond_site_symmetry_2
Ca0 Ge3 3.188377 1_665
Ca0 Ge0 3.188377 1_665
Ca0 Ge1 3.188377 1_564
Ca0 Ge2 3.188377 1_654
Ca0 Ge9 3.190045 1_554
Ca0 Ge11 3.190045 1_555
Ca0 Ge10 3.190045 1_555
Ca0 Ge8 3.190045 1_555
Ca0 Ge7 3.511153 1_565
Ca0 Ge4 3.511153 1_665
Ca0 Ge5 3.511153 1_554
Ca0 Ge6 3.511153 1_655
Ca1 Ge0 3.188377 1_555
Ca1 Ge3 3.188377 1_555
Ca1 Ge2 3.188377 1_544
Ca1 Ge1 3.188377 1_454
Ca1 Ge5 3.190045 1_555
Ca1 Ge7 3.190045 1_555
Ca1 Ge6 3.190045 1_555
Ca1 Ge4 3.190045 1_554
Ca1 Ge9 3.511153 1_555
Ca1 Ge8 3.511153 1_444
Ca1 Ge11 3.511153 1_545
Ca1 Ge10 3.511153 1_455
Ca2 Ge2 3.150641 1_555
Ca2 Ge1 3.150641 1_565
Ca2 Ge3 3.150641 1_555
Ca2 Ge0 3.150641 1_565
Ca2 Ge6 3.213709 1_555
Ca2 Ge5 3.213709 1_555
Ca2 Ge9 3.213709 1_555
Ca2 Ge7 3.213709 1_566
Ca2 Ge4 3.213709 1_565
Ca2 Ge11 3.213709 1_556
Ca2 Ge10 3.213709 1_455
Ca2 Ge8 3.213709 1_455
Ca3 Ge2 3.150641 1_655
Ca3 Ge1 3.150641 1_555
Ca3 Ge3 3.150641 1_655
Ca3 Ge0 3.150641 1_555
Ca3 Ge5 3.213709 1_555
Ca3 Ge7 3.213709 1_555
Ca3 Ge6 3.213709 1_656
Ca3 Ge9 3.213709 1_555
Ca3 Ge4 3.213709 1_655
Ca3 Ge11 3.213709 1_545
Ca3 Ge10 3.213709 1_556
Ca3 Ge8 3.213709 1_545
Ge0 Ge1 2.611017 1_555
Ge0 Ge4 2.794859 1_555
Ge0 Ge9 2.794859 1_555
Ge0 Ge11 2.794859 1_545
Ge0 Ge6 2.794859 1_545
Ge1 Ge8 2.794859 1_545
Ge1 Ge5 2.794859 1_545
Ge1 Ge10 2.794859 1_556
Ge1 Ge7 2.794859 1_556
Ge2 Ge3 2.611017 1_555
Ge2 Ge8 2.794859 1_455
Ge2 Ge6 2.794859 1_556
Ge2 Ge5 2.794859 1_455
Ge3 Ge4 2.794859 1_555
Ge3 Ge7 2.794859 1_455
Ge3 Ge9 2.794859 1_555
Ge4 Ge9 2.680341 1_555
Ge4 Ge6 2.822316 1_556
Ge4 Ge7 2.822316 1_556
Ge5 Ge8 2.680341 1_555
Ge5 Ge7 2.822316 1_555
Ge5 Ge6 2.822316 1_555
Ge10 Ge7 2.680341 1_555
Ge10 Ge3 2.794859 1_655
Ge10 Ge8 2.822316 1_555
Ge10 Ge9 2.822316 1_554
Ge11 Ge6 2.680341 1_555
Ge11 Ge2 2.794859 1_554
Ge11 Ge8 2.822316 1_555
Ge11 Ge9 2.822316 1_554
