# generated using pymatgen
data_KCd(NO2)3
_symmetry_space_group_name_H-M   'P 1'
_cell_length_a   5.45178029
_cell_length_b   5.45178029
_cell_length_c   5.45178016
_cell_angle_alpha   90.78219256
_cell_angle_beta   90.78219256
_cell_angle_gamma   90.78220308
_symmetry_Int_Tables_number   1
_chemical_formula_structural   KCd(NO2)3
_chemical_formula_sum   'K1 Cd1 N3 O6'
_cell_volume   161.99159465
_cell_formula_units_Z   1
loop_
 _symmetry_equiv_pos_site_id
 _symmetry_equiv_pos_as_xyz
  1  'x, y, z'
loop_
 _atom_site_type_symbol
 _atom_site_label
 _atom_site_symmetry_multiplicity
 _atom_site_fract_x
 _atom_site_fract_y
 _atom_site_fract_z
 _atom_site_occupancy
  K  K0  1  0.36907000  0.36907000  0.36907000  1
  Cd  Cd0  1  0.88974900  0.88974900  0.88974900  1
  N  N0  1  0.82930700  0.43486500  0.87757500  1
  N  N1  1  0.43486500  0.87757500  0.82930700  1
  N  N2  1  0.87757500  0.82930700  0.43486500  1
  O  O0  1  0.31831000  0.67726400  0.82704600  1
  O  O1  1  0.82704600  0.31831000  0.67726400  1
  O  O2  1  0.07044400  0.84111200  0.30752400  1
  O  O3  1  0.30752400  0.07044400  0.84111200  1
  O  O4  1  0.84111200  0.30752400  0.07044400  1
  O  O5  1  0.67726400  0.82704600  0.31831000  1
loop_
_geom_bond_atom_site_label_1
_geom_bond_atom_site_label_2
_geom_bond_distance
_geom_bond_site_symmetry_2
K0 O5 3.008426 1_555
K0 O0 3.008426 1_555
K0 O1 3.008426 1_555
K0 O3 3.083651 1_555
K0 O4 3.083651 1_555
K0 O2 3.083652 1_555
K0 O2 3.298266 1_545
K0 O3 3.298266 1_554
K0 O4 3.298266 1_455
Cd0 O3 2.488102 1_665
Cd0 O2 2.488102 1_656
Cd0 O4 2.488102 1_566
Cd0 N0 2.497123 1_555
Cd0 N2 2.497123 1_555
Cd0 N1 2.497123 1_555
Cd0 O5 2.646233 1_556
Cd0 O1 2.646233 1_565
Cd0 O0 2.646233 1_655
N0 O1 1.255777 1_555
N0 O4 1.269258 1_556
N1 O0 1.255777 1_555
N1 O3 1.269258 1_565
N2 O5 1.255777 1_555
N2 O2 1.269258 1_655
