# generated using pymatgen
data_Mn2Bi3O7
_symmetry_space_group_name_H-M   'P 1'
_cell_length_a   5.82468907
_cell_length_b   5.85056173
_cell_length_c   10.63503543
_cell_angle_alpha   104.92461695
_cell_angle_beta   90.00853854
_cell_angle_gamma   89.98232068
_symmetry_Int_Tables_number   1
_chemical_formula_structural   Mn2Bi3O7
_chemical_formula_sum   'Mn4 Bi6 O14'
_cell_volume   350.19159046
_cell_formula_units_Z   2
loop_
 _symmetry_equiv_pos_site_id
 _symmetry_equiv_pos_as_xyz
  1  'x, y, z'
loop_
 _atom_site_type_symbol
 _atom_site_label
 _atom_site_symmetry_multiplicity
 _atom_site_fract_x
 _atom_site_fract_y
 _atom_site_fract_z
 _atom_site_occupancy
  Mn  Mn0  1  0.01111800  0.15600000  0.78602900  1
  Mn  Mn1  1  0.50571300  0.62445200  0.78860500  1
  Mn  Mn2  1  0.00585300  0.37538400  0.21143000  1
  Mn  Mn3  1  0.51105400  0.84401700  0.21392700  1
  Bi  Bi0  1  0.41182200  0.15033900  0.99958000  1
  Bi  Bi1  1  0.91195000  0.84987000  0.00042300  1
  Bi  Bi2  1  0.03832300  0.95914100  0.36974100  1
  Bi  Bi3  1  0.03511600  0.58189800  0.62740700  1
  Bi  Bi4  1  0.53843200  0.04070400  0.63023900  1
  Bi  Bi5  1  0.53527100  0.41798400  0.37264200  1
  O  O0  1  0.53248500  0.77335200  0.99524800  1
  O  O1  1  0.03239500  0.22691200  0.00480100  1
  O  O2  1  0.42771600  0.06904100  0.43342300  1
  O  O3  1  0.43652400  0.63008200  0.57423900  1
  O  O4  1  0.92765000  0.93083600  0.56650100  1
  O  O5  1  0.93636800  0.36984100  0.42580600  1
  O  O6  1  0.27457900  0.62605300  0.25433200  1
  O  O7  1  0.25427100  0.35318200  0.74470700  1
  O  O8  1  0.77475700  0.37379600  0.74556900  1
  O  O9  1  0.75436900  0.64679600  0.25530400  1
  O  O10  1  0.27994700  0.08605600  0.18636100  1
  O  O11  1  0.26196100  0.92591300  0.81186100  1
  O  O12  1  0.78018700  0.91406200  0.81356200  1
  O  O13  1  0.76213900  0.07428800  0.18826000  1
loop_
_geom_bond_atom_site_label_1
_geom_bond_atom_site_label_2
_geom_bond_distance
_geom_bond_site_symmetry_2
Mn0 O7 1.947355 1_555
Mn0 O8 1.996337 1_455
Mn0 O12 2.028149 1_445
Mn0 O11 2.052189 1_545
Mn0 O1 2.259095 1_556
Mn0 O4 2.416268 1_445
Mn1 O8 2.113978 1_555
Mn1 O7 2.121634 1_555
Mn1 O0 2.150987 1_555
Mn1 O11 2.227444 1_555
Mn1 O12 2.295037 1_555
Mn1 O3 2.323648 1_555
Mn2 O6 2.113170 1_555
Mn2 O9 2.121790 1_455
Mn2 O1 2.150408 1_555
Mn2 O13 2.226405 1_455
Mn2 O10 2.291565 1_555
Mn2 O5 2.324038 1_455
Mn3 O9 1.947798 1_555
Mn3 O6 1.997885 1_555
Mn3 O10 2.028739 1_565
Mn3 O13 2.054055 1_565
Mn3 O0 2.258315 1_554
Mn3 O2 2.415569 1_565
Bi0 O10 2.250065 1_556
Bi0 O1 2.252707 1_556
Bi0 O11 2.263080 1_545
Bi0 O0 2.303781 1_545
Bi1 O12 2.250139 1_554
Bi1 O0 2.253131 1_554
Bi1 O13 2.263788 1_565
Bi1 O1 2.304000 1_665
Bi2 O4 2.236226 1_455
Bi2 O5 2.396457 1_465
Bi2 O2 2.406758 1_565
Bi2 O6 2.442254 1_555
Bi2 O9 2.532148 1_455
Bi2 O10 2.661379 1_565
Bi2 O13 2.726715 1_465
Bi3 O5 2.257619 1_455
Bi3 O4 2.378921 1_455
Bi3 O7 2.415487 1_555
Bi3 O3 2.438997 1_555
Bi3 O8 2.480148 1_455
Bi3 O11 2.758993 1_555
Bi3 O12 2.813942 1_455
Bi4 O2 2.236716 1_555
Bi4 O3 2.396291 1_545
Bi4 O4 2.405704 1_545
Bi4 O8 2.442718 1_555
Bi4 O7 2.532998 1_555
Bi4 O12 2.659998 1_545
Bi4 O11 2.728550 1_545
Bi5 O3 2.257624 1_555
Bi5 O2 2.378811 1_555
Bi5 O9 2.416597 1_555
Bi5 O5 2.436879 1_555
Bi5 O6 2.481522 1_555
Bi5 O13 2.757323 1_555
Bi5 O10 2.815480 1_555
