# generated using pymatgen
data_Sr4Tb2Mg(RuO6)2
_symmetry_space_group_name_H-M   'P 1'
_cell_length_a   5.74558727
_cell_length_b   6.07534654
_cell_length_c   8.61838663
_cell_angle_alpha   85.68204157
_cell_angle_beta   90.98731386
_cell_angle_gamma   89.82175991
_symmetry_Int_Tables_number   1
_chemical_formula_structural   Sr4Tb2Mg(RuO6)2
_chemical_formula_sum   'Sr4 Tb2 Mg1 Ru2 O12'
_cell_volume   299.93577248
_cell_formula_units_Z   1
loop_
 _symmetry_equiv_pos_site_id
 _symmetry_equiv_pos_as_xyz
  1  'x, y, z'
loop_
 _atom_site_type_symbol
 _atom_site_label
 _atom_site_symmetry_multiplicity
 _atom_site_fract_x
 _atom_site_fract_y
 _atom_site_fract_z
 _atom_site_occupancy
  Sr  Sr0  1  0.00321400  0.63210100  0.83106700  1
  Sr  Sr1  1  0.49762000  0.08106500  0.78213900  1
  Sr  Sr2  1  0.48244200  0.01119700  0.23843700  1
  Sr  Sr3  1  0.01702200  0.45676800  0.24079800  1
  Tb  Tb0  1  0.50168200  0.52529100  0.01632100  1
  Tb  Tb1  1  0.99950300  0.91923500  0.47660800  1
  Mg  Mg0  1  0.02660600  0.32123200  0.61577000  1
  Ru  Ru0  1  0.99178700  0.03524500  0.00130800  1
  Ru  Ru1  1  0.50399300  0.45127500  0.48872900  1
  O  O0  1  0.78484300  0.30359500  0.94830700  1
  O  O1  1  0.82548600  0.60141400  0.55332700  1
  O  O2  1  0.21639300  0.77250600  0.04654000  1
  O  O3  1  0.23530100  0.23652500  0.44593800  1
  O  O4  1  0.71920100  0.82686700  0.97560800  1
  O  O5  1  0.71150200  0.17973800  0.53187300  1
  O  O6  1  0.25237200  0.24671200  0.03210100  1
  O  O7  1  0.30944000  0.71348400  0.42719700  1
  O  O8  1  0.34771300  0.46038600  0.70848300  1
  O  O9  1  0.06042700  0.02616800  0.75097700  1
  O  O10  1  0.58936400  0.45512500  0.25917300  1
  O  O11  1  0.92409000  0.01490400  0.23086400  1
loop_
_geom_bond_atom_site_label_1
_geom_bond_atom_site_label_2
_geom_bond_distance
_geom_bond_site_symmetry_2
Mg0 O3 2.003757 1_555
Mg0 O9 2.069918 1_555
Mg0 O1 2.085857 1_455
Mg0 O5 2.144222 1_455
Mg0 O8 2.194910 1_555
O0 Ru0 2.034068 1_556
O0 Tb0 2.223216 1_556
O0 Sr0 2.516728 1_655
O0 Sr1 2.612667 1_555
O0 Sr3 3.040568 1_656
O1 Ru1 2.146042 1_555
O1 Tb1 2.237779 1_555
O1 Sr0 2.606015 1_655
O1 Sr3 3.113004 1_655
O2 Ru0 2.059475 1_465
O2 Tb0 2.251378 1_555
O2 Sr0 2.417242 1_554
O2 Sr3 2.718607 1_555
O2 Sr2 2.731762 1_565
O3 Ru1 2.070473 1_555
O3 Tb1 2.360727 1_445
O3 Sr3 2.458844 1_555
O3 Sr2 2.744538 1_555
O4 Ru0 2.036472 1_566
O4 Tb0 2.230355 1_556
O4 Sr0 2.427914 1_655
O4 Sr1 2.512540 1_565
O4 Sr2 2.951987 1_566
O5 Ru1 2.039929 1_555
O5 Tb1 2.365196 1_545
O5 Sr1 2.534345 1_555
O5 Sr2 3.075666 1_555
O6 Ru0 2.003058 1_455
O6 Tb0 2.218542 1_555
O6 Sr2 2.545789 1_555
O6 Sr3 2.666626 1_555
O6 Sr1 2.839267 1_554
O6 Sr0 3.133059 1_554
O7 Ru1 1.977300 1_555
O7 Tb1 2.237732 1_455
O7 Sr2 2.555347 1_565
O7 Sr3 2.852461 1_555
O8 Ru1 2.114322 1_555
O8 Sr1 2.490800 1_555
O8 Sr0 2.519419 1_555
O8 Tb0 2.838250 1_556
O9 Ru0 2.204601 1_456
O9 Sr0 2.465778 1_545
O9 Tb1 2.517978 1_445
O9 Sr1 2.547275 1_555
O10 Ru1 2.044937 1_555
O10 Tb0 2.155019 1_555
O10 Sr3 2.464969 1_655
O10 Sr2 2.786098 1_555
O11 Ru0 2.017583 1_555
O11 Tb1 2.189195 1_545
O11 Sr2 2.539617 1_555
O11 Sr3 2.746052 1_655
