# generated using pymatgen
data_Na3BiN2
_symmetry_space_group_name_H-M   'P 1'
_cell_length_a   10.25411300
_cell_length_b   11.84043064
_cell_length_c   11.84042995
_cell_angle_alpha   90.00000353
_cell_angle_beta   125.26439313
_cell_angle_gamma   54.73560922
_symmetry_Int_Tables_number   1
_chemical_formula_structural   Na3BiN2
_chemical_formula_sum   'Na24 Bi8 N16'
_cell_volume   829.98916021
_cell_formula_units_Z   8
loop_
 _symmetry_equiv_pos_site_id
 _symmetry_equiv_pos_as_xyz
  1  'x, y, z'
loop_
 _atom_site_type_symbol
 _atom_site_label
 _atom_site_symmetry_multiplicity
 _atom_site_fract_x
 _atom_site_fract_y
 _atom_site_fract_z
 _atom_site_occupancy
  Na  Na0  1  0.23331800  0.02855200  0.99784600  1
  Na  Na1  1  0.76668200  0.76187000  0.50215400  1
  Na  Na2  1  0.76668200  0.47144800  0.76452900  1
  Na  Na3  1  0.23331800  0.73813000  0.73547100  1
  Na  Na4  1  0.23762500  0.76452900  0.26402400  1
  Na  Na5  1  0.76237500  0.73547100  0.02639900  1
  Na  Na6  1  0.23762500  0.99784600  0.47360100  1
  Na  Na7  1  0.76237500  0.50215400  0.23597600  1
  Na  Na8  1  0.70957800  0.02639900  0.73813000  1
  Na  Na9  1  0.70957800  0.26402400  0.47144800  1
  Na  Na10  1  0.29042200  0.23597600  0.76187000  1
  Na  Na11  1  0.29042200  0.47360100  0.02855200  1
  Na  Na12  1  0.76668200  0.97144800  0.00215400  1
  Na  Na13  1  0.23331800  0.23813000  0.49784600  1
  Na  Na14  1  0.23331800  0.52855200  0.23547100  1
  Na  Na15  1  0.76668200  0.26187000  0.26452900  1
  Na  Na16  1  0.76237500  0.23547100  0.73597600  1
  Na  Na17  1  0.23762500  0.26452900  0.97360100  1
  Na  Na18  1  0.76237500  0.00215400  0.52639900  1
  Na  Na19  1  0.23762500  0.49784600  0.76402400  1
  Na  Na20  1  0.29042200  0.97360100  0.26187000  1
  Na  Na21  1  0.29042200  0.73597600  0.52855200  1
  Na  Na22  1  0.70957800  0.76402400  0.23813000  1
  Na  Na23  1  0.70957800  0.52639900  0.97144800  1
  Bi  Bi0  1  0.24142400  0.00000000  0.74142400  1
  Bi  Bi1  1  0.75857600  0.74142400  0.75857600  1
  Bi  Bi2  1  0.75857600  0.50000000  0.50000000  1
  Bi  Bi3  1  0.24142400  0.75857600  0.00000000  1
  Bi  Bi4  1  0.75857600  0.00000000  0.25857600  1
  Bi  Bi5  1  0.24142400  0.25857600  0.24142400  1
  Bi  Bi6  1  0.24142400  0.50000000  0.50000000  1
  Bi  Bi7  1  0.75857600  0.24142400  0.00000000  1
  N  N0  1  0.00000000  0.00000000  0.50000000  1
  N  N1  1  0.00000000  0.50000000  0.00000000  1
  N  N2  1  0.00000000  0.50000000  0.50000000  1
  N  N3  1  0.00000000  0.00000000  0.00000000  1
  N  N4  1  0.50000000  0.97803400  0.75000000  1
  N  N5  1  0.50000000  0.52196600  0.25000000  1
  N  N6  1  0.00000000  0.25000000  0.72803400  1
  N  N7  1  0.00000000  0.75000000  0.77196600  1
  N  N8  1  0.54393200  0.72803400  0.52196600  1
  N  N9  1  0.45606800  0.77196600  0.97803400  1
  N  N10  1  0.50000000  0.02196600  0.25000000  1
  N  N11  1  0.50000000  0.47803400  0.75000000  1
  N  N12  1  0.00000000  0.75000000  0.27196600  1
  N  N13  1  0.00000000  0.25000000  0.22803400  1
  N  N14  1  0.45606800  0.27196600  0.47803400  1
  N  N15  1  0.54393200  0.22803400  0.02196600  1
loop_
_geom_bond_atom_site_label_1
_geom_bond_atom_site_label_2
_geom_bond_distance
_geom_bond_site_symmetry_2
Bi0 N4 2.449704 1_545
Bi0 N6 2.449704 1_555
Bi0 N9 2.449704 1_545
Bi0 N0 2.475589 1_555
Bi1 N8 2.449704 1_555
Bi1 N7 2.449704 1_655
Bi1 N4 2.449704 1_555
Bi1 N1 2.475589 1_656
Bi2 N5 2.449704 1_555
Bi2 N8 2.449704 1_555
Bi2 N6 2.449704 1_655
Bi2 N2 2.475589 1_655
Bi3 N7 2.449704 1_554
Bi3 N9 2.449704 1_554
Bi3 N5 2.449704 1_555
Bi3 N3 2.475589 1_565
Bi4 N10 2.449704 1_555
Bi4 N12 2.449704 1_645
Bi4 N15 2.449704 1_555
Bi4 N0 2.475589 1_655
Bi5 N14 2.449704 1_555
Bi5 N13 2.449704 1_555
Bi5 N10 2.449704 1_555
Bi5 N1 2.475589 1_555
Bi6 N11 2.449704 1_555
Bi6 N14 2.449704 1_555
Bi6 N12 2.449704 1_555
Bi6 N2 2.475589 1_555
Bi7 N13 2.449704 1_655
Bi7 N15 2.449704 1_555
Bi7 N11 2.449704 1_554
Bi7 N3 2.475589 1_655
N0 Na3 2.615954 1_545
N0 Na15 2.615954 1_455
N0 Na6 2.615958 1_545
N0 Na18 2.615958 1_455
N0 Na21 2.615960 1_545
N0 Na9 2.615960 1_455
N1 Na14 2.615954 1_555
N1 Na2 2.615954 1_454
N1 Na11 2.615954 1_555
N1 Na23 2.615954 1_454
N1 Na5 2.615958 1_455
N1 Na17 2.615958 1_554
N2 Na19 2.615958 1_555
N2 Na7 2.615958 1_455
N2 Na1 2.615960 1_455
N2 Na13 2.615960 1_555
N2 Na22 2.615960 1_455
N2 Na10 2.615960 1_555
N3 Na20 2.615954 1_545
N3 Na8 2.615954 1_454
N3 Na16 2.615958 1_454
N3 Na4 2.615958 1_545
N3 Na0 2.615960 1_554
N3 Na12 2.615960 1_445
N4 Na12 2.593113 1_556
N4 Na13 2.593113 1_565
N4 Na10 2.595348 1_565
N4 Na8 2.595356 1_565
N4 Na6 2.666097 1_555
N4 Na5 2.666097 1_556
N5 Na14 2.593107 1_555
N5 Na15 2.593107 1_555
N5 Na9 2.595348 1_555
N5 Na11 2.595356 1_555
N5 Na7 2.666097 1_555
N5 Na4 2.666097 1_555
N6 Na17 2.593110 1_555
N6 Na16 2.593110 1_455
N6 Na0 2.595348 1_555
N6 Na2 2.595356 1_455
N6 Na9 2.666086 1_455
N6 Na10 2.666087 1_555
N7 Na19 2.593110 1_555
N7 Na18 2.593110 1_465
N7 Na1 2.595348 1_455
N7 Na3 2.595356 1_555
N7 Na8 2.666094 1_465
N7 Na11 2.666094 1_556
N8 Na20 2.593107 1_555
N8 Na21 2.593113 1_555
N8 Na4 2.595346 1_555
N8 Na6 2.595346 1_555
N8 Na1 2.666087 1_555
N8 Na2 2.666094 1_555
N9 Na23 2.593107 1_555
N9 Na22 2.593113 1_556
N9 Na5 2.595346 1_556
N9 Na7 2.595346 1_556
N9 Na0 2.666087 1_565
N9 Na3 2.666093 1_555
N10 Na0 2.593113 1_554
N10 Na1 2.593113 1_545
N10 Na22 2.595348 1_545
N10 Na20 2.595356 1_545
N10 Na18 2.666097 1_555
N10 Na17 2.666097 1_554
N11 Na2 2.593107 1_555
N11 Na3 2.593107 1_555
N11 Na21 2.595348 1_555
N11 Na23 2.595356 1_555
N11 Na19 2.666097 1_555
N11 Na16 2.666097 1_555
N12 Na5 2.593110 1_455
N12 Na4 2.593110 1_555
N12 Na12 2.595348 1_455
N12 Na14 2.595356 1_555
N12 Na21 2.666086 1_555
N12 Na22 2.666087 1_455
N13 Na7 2.593110 1_455
N13 Na6 2.593110 1_545
N13 Na13 2.595348 1_555
N13 Na15 2.595356 1_455
N13 Na20 2.666094 1_545
N13 Na23 2.666094 1_454
N14 Na8 2.593107 1_555
N14 Na9 2.593113 1_555
N14 Na16 2.595346 1_555
N14 Na18 2.595346 1_555
N14 Na13 2.666087 1_555
N14 Na14 2.666094 1_555
N15 Na11 2.593107 1_555
N15 Na10 2.593113 1_554
N15 Na17 2.595346 1_554
N15 Na19 2.595346 1_554
N15 Na12 2.666087 1_545
N15 Na15 2.666093 1_555
