# generated using pymatgen
data_Li2UWO7
_symmetry_space_group_name_H-M   'P 1'
_cell_length_a   7.46241664
_cell_length_b   8.07776308
_cell_length_c   10.30838472
_cell_angle_alpha   89.92835934
_cell_angle_beta   89.84490364
_cell_angle_gamma   62.48950466
_symmetry_Int_Tables_number   1
_chemical_formula_structural   Li2UWO7
_chemical_formula_sum   'Li8 U4 W4 O28'
_cell_volume   551.12121962
_cell_formula_units_Z   4
loop_
 _symmetry_equiv_pos_site_id
 _symmetry_equiv_pos_as_xyz
  1  'x, y, z'
loop_
 _atom_site_type_symbol
 _atom_site_label
 _atom_site_symmetry_multiplicity
 _atom_site_fract_x
 _atom_site_fract_y
 _atom_site_fract_z
 _atom_site_occupancy
  Li  Li0  1  0.78891600  0.42679900  0.54718900  1
  Li  Li1  1  0.21571500  0.57320100  0.04718900  1
  Li  Li2  1  0.36741400  0.47040700  0.52946200  1
  Li  Li3  1  0.83782100  0.52959300  0.02946200  1
  Li  Li4  1  0.35957700  0.78174500  0.23031200  1
  Li  Li5  1  0.85950900  0.78394900  0.23331800  1
  Li  Li6  1  0.64345800  0.21605100  0.73331800  1
  Li  Li7  1  0.14132100  0.21825500  0.73031200  1
  U  U0  1  0.50861500  0.98471300  0.46835800  1
  U  U1  1  0.49332800  0.01528700  0.96835800  1
  U  U2  1  0.03305500  0.93421800  0.50028600  1
  U  U3  1  0.96727200  0.06578200  0.00028600  1
  W  W0  1  0.60302600  0.29809600  0.25879900  1
  W  W1  1  0.10148900  0.29477300  0.26375700  1
  W  W2  1  0.39626200  0.70522700  0.76375700  1
  W  W3  1  0.90112300  0.70190400  0.75879900  1
  O  O0  1  0.15269800  0.70494800  0.41528100  1
  O  O1  1  0.85764600  0.29505200  0.91528100  1
  O  O2  1  0.40501100  0.20008300  0.57387500  1
  O  O3  1  0.60509400  0.79991700  0.07387500  1
  O  O4  1  0.60572200  0.40164700  0.41243000  1
  O  O5  1  0.98350700  0.40280900  0.41111600  1
  O  O6  1  0.38631600  0.59719100  0.91111600  1
  O  O7  1  0.00736800  0.59835300  0.91243000  1
  O  O8  1  0.38156400  0.23774700  0.30335000  1
  O  O9  1  0.61931100  0.76225300  0.80335000  1
  O  O10  1  0.44428400  0.50986100  0.17379200  1
  O  O11  1  0.03861000  0.50766100  0.17002400  1
  O  O12  1  0.54627000  0.49233900  0.67002400  1
  O  O13  1  0.95414400  0.49013900  0.67379200  1
  O  O14  1  0.76661600  0.03115100  0.36199600  1
  O  O15  1  0.20119900  0.03364800  0.36008000  1
  O  O16  1  0.23484700  0.96635200  0.86008000  1
  O  O17  1  0.79776700  0.96884900  0.86199600  1
  O  O18  1  0.61068600  0.77781600  0.35920700  1
  O  O19  1  0.38850200  0.22218400  0.85920700  1
  O  O20  1  0.92375300  0.15062200  0.60361600  1
  O  O21  1  0.07437500  0.84937800  0.10361600  1
  O  O22  1  0.86586800  0.26945900  0.19665700  1
  O  O23  1  0.13532700  0.73054100  0.69665700  1
  O  O24  1  0.65465000  0.12721700  0.09638000  1
  O  O25  1  0.21877400  0.12554900  0.09429700  1
  O  O26  1  0.34432300  0.87445100  0.59429700  1
  O  O27  1  0.78186600  0.87278300  0.59638000  1
loop_
_geom_bond_atom_site_label_1
_geom_bond_atom_site_label_2
_geom_bond_distance
_geom_bond_site_symmetry_2
Li0 O5 1.960469 1_555
Li0 O13 2.019522 1_555
Li0 O4 2.026689 1_555
Li0 O20 2.062488 1_555
Li0 O12 2.065432 1_555
Li1 O6 1.960469 1_554
Li1 O10 2.019527 1_555
Li1 O7 2.026695 1_554
Li1 O21 2.062488 1_555
Li1 O11 2.065427 1_555
Li2 O4 2.001007 1_555
Li2 O12 2.035158 1_555
Li2 O2 2.118657 1_555
Li2 O0 2.177693 1_555
Li2 O23 2.648841 1_555
Li3 O7 2.001001 1_654
Li3 O11 2.035163 1_655
Li3 O3 2.118657 1_555
Li3 O1 2.177693 1_554
Li3 O22 2.648841 1_555
Li4 O10 2.069078 1_555
Li4 O15 2.259045 1_565
Li4 O18 2.288298 1_555
Li4 O21 2.339430 1_555
Li4 O3 2.492129 1_555
Li5 O11 2.106226 1_655
Li5 O14 2.224921 1_565
Li5 O18 2.281681 1_555
Li5 O21 2.325385 1_655
Li5 O3 2.472384 1_555
Li6 O12 2.106225 1_555
Li6 O17 2.224921 1_545
Li6 O19 2.281681 1_555
Li6 O20 2.325385 1_555
Li6 O2 2.472384 1_555
Li7 O13 2.069078 1_455
Li7 O16 2.259044 1_545
Li7 O19 2.288304 1_555
Li7 O20 2.339424 1_455
Li7 O2 2.492135 1_555
O0 U2 1.862020 1_555
O1 U3 1.862020 1_556
O2 U0 1.888133 1_545
O3 U1 1.888133 1_564
O4 W0 1.796432 1_555
O5 W1 1.769313 1_655
O6 W2 1.769313 1_555
O7 W3 1.796429 1_455
O8 W1 1.965134 1_555
O8 W0 1.979741 1_555
O8 U0 2.485900 1_545
O9 W2 1.965134 1_555
O9 W3 1.979748 1_555
O9 U1 2.485900 1_565
O10 W0 1.796423 1_555
O11 W1 1.834085 1_555
O12 W2 1.834084 1_555
O13 W3 1.796426 1_555
O14 W0 2.200251 1_555
O14 U2 2.274390 1_645
O14 U0 2.388391 1_545
O15 W1 2.130159 1_555
O15 U2 2.286196 1_545
O15 U0 2.416579 1_545
O16 W2 2.130159 1_555
O16 U3 2.286201 1_466
O16 U1 2.416579 1_565
O17 W3 2.200250 1_555
O17 U3 2.274385 1_566
O17 U1 2.388391 1_565
O18 U0 1.861010 1_555
O19 U1 1.861010 1_555
O20 U2 1.881047 1_645
O21 U3 1.881047 1_465
O22 W0 1.971167 1_555
O22 W1 1.987703 1_655
O22 U3 2.495401 1_555
O23 W3 1.971160 1_455
O23 W2 1.987703 1_555
O23 U2 2.495401 1_555
O24 W0 2.089962 1_555
O24 U1 2.241756 1_554
O24 U3 2.364146 1_555
O25 W1 2.139751 1_555
O25 U1 2.231386 1_554
O25 U3 2.354305 1_455
O26 W2 2.139751 1_555
O26 U0 2.231386 1_555
O26 U2 2.354298 1_555
O27 W3 2.089963 1_555
O27 U0 2.241750 1_555
O27 U2 2.364160 1_655
