# generated using pymatgen
data_Nd4CdIr
_symmetry_space_group_name_H-M   'P 1'
_cell_length_a   9.92405760
_cell_length_b   9.92399623
_cell_length_c   9.92404299
_cell_angle_alpha   60.00004990
_cell_angle_beta   59.99933867
_cell_angle_gamma   60.00003151
_symmetry_Int_Tables_number   1
_chemical_formula_structural   Nd4CdIr
_chemical_formula_sum   'Nd16 Cd4 Ir4'
_cell_volume   691.11067705
_cell_formula_units_Z   4
loop_
 _symmetry_equiv_pos_site_id
 _symmetry_equiv_pos_as_xyz
  1  'x, y, z'
loop_
 _atom_site_type_symbol
 _atom_site_label
 _atom_site_symmetry_multiplicity
 _atom_site_fract_x
 _atom_site_fract_y
 _atom_site_fract_z
 _atom_site_occupancy
  Nd  Nd0  1  0.34814797  0.34814743  0.34815983  1
  Nd  Nd1  1  0.34815423  0.34815442  0.95553830  1
  Nd  Nd2  1  0.34814884  0.95554570  0.34816298  1
  Nd  Nd3  1  0.95554123  0.34814919  0.34816257  1
  Nd  Nd4  1  0.80913569  0.19085621  0.19085762  1
  Nd  Nd5  1  0.19085554  0.80916101  0.80912471  1
  Nd  Nd6  1  0.19085213  0.80913851  0.19085877  1
  Nd  Nd7  1  0.80915307  0.19085901  0.80913143  1
  Nd  Nd8  1  0.19085316  0.19085924  0.80912412  1
  Nd  Nd9  1  0.80913710  0.80914928  0.19085565  1
  Nd  Nd10  1  0.93943281  0.56056268  0.56057000  1
  Nd  Nd11  1  0.56057128  0.93943124  0.93942916  1
  Nd  Nd12  1  0.56056199  0.93943584  0.56056782  1
  Nd  Nd13  1  0.93943125  0.56057168  0.93942762  1
  Nd  Nd14  1  0.56056902  0.56056715  0.93943140  1
  Nd  Nd15  1  0.93943345  0.93943113  0.56057100  1
  Cd  Cd0  1  0.57908423  0.57908026  0.57908840  1
  Cd  Cd1  1  0.57909305  0.57908899  0.26272721  1
  Cd  Cd2  1  0.57908425  0.26274619  0.57908850  1
  Cd  Cd3  1  0.26273079  0.57908697  0.57909546  1
  Ir  Ir0  1  0.14129640  0.14128609  0.14129832  1
  Ir  Ir1  1  0.14130728  0.14128210  0.57612421  1
  Ir  Ir2  1  0.14129532  0.57612277  0.14129778  1
  Ir  Ir3  1  0.57612792  0.14128290  0.14130614  1
loop_
_geom_bond_atom_site_label_1
_geom_bond_atom_site_label_2
_geom_bond_distance
_geom_bond_site_symmetry_2
Cd0 Cd2 3.139298 1_555
Cd0 Cd3 3.139441 1_555
Cd0 Cd1 3.139495 1_555
Cd0 Nd14 3.402260 1_555
Cd0 Nd10 3.402286 1_555
Cd0 Nd12 3.402305 1_555
Cd0 Nd1 3.548177 1_555
Cd0 Nd3 3.548210 1_555
Cd0 Nd2 3.548300 1_555
Cd0 Nd7 3.590098 1_555
Cd0 Nd5 3.590114 1_555
Cd0 Nd9 3.590152 1_555
Cd1 Cd2 3.139486 1_555
Cd1 Cd3 3.139593 1_555
Cd1 Nd13 3.402137 1_554
Cd1 Nd14 3.402172 1_554
Cd1 Nd11 3.402179 1_554
Cd1 Nd3 3.548333 1_555
Cd1 Nd0 3.548343 1_555
Cd1 Nd2 3.548372 1_555
Cd1 Nd4 3.590078 1_555
Cd1 Nd9 3.590094 1_555
Cd1 Nd6 3.590176 1_555
Cd2 Cd3 3.139439 1_555
Cd2 Nd11 3.402243 1_545
Cd2 Nd12 3.402283 1_545
Cd2 Nd15 3.402292 1_545
Cd2 Nd1 3.548186 1_555
Cd2 Nd3 3.548229 1_555
Cd2 Nd0 3.548319 1_555
Cd2 Nd7 3.590120 1_555
Cd2 Nd8 3.590134 1_555
Cd2 Nd4 3.590139 1_555
Cd3 Nd13 3.402103 1_455
Cd3 Nd15 3.402187 1_455
Cd3 Nd10 3.402219 1_455
Cd3 Nd1 3.548232 1_555
Cd3 Nd0 3.548305 1_555
Cd3 Nd2 3.548313 1_555
Cd3 Nd5 3.590065 1_555
Cd3 Nd8 3.590070 1_555
Cd3 Nd6 3.590178 1_555
Ir0 Nd6 2.889380 1_545
Ir0 Nd4 2.889479 1_455
Ir0 Nd8 2.889602 1_554
Ir0 Nd2 2.910775 1_545
Ir0 Nd1 2.910791 1_554
Ir0 Nd3 2.910800 1_455
Ir0 Nd15 3.561074 1_445
Ir0 Nd11 3.561104 1_544
Ir0 Nd13 3.561224 1_454
Ir1 Nd5 2.889121 1_545
Ir1 Nd8 2.889137 1_555
Ir1 Nd7 2.889338 1_455
Ir1 Nd2 2.910593 1_545
Ir1 Nd0 2.910653 1_555
Ir1 Nd3 2.910833 1_455
Ir1 Nd12 3.560943 1_545
Ir1 Nd15 3.561142 1_445
Ir1 Nd10 3.561152 1_455
Ir2 Nd6 2.889244 1_555
Ir2 Nd9 2.889443 1_455
Ir2 Nd5 2.889574 1_554
Ir2 Nd0 2.910757 1_555
Ir2 Nd1 2.910800 1_554
Ir2 Nd3 2.910805 1_455
Ir2 Nd10 3.561057 1_455
Ir2 Nd14 3.561086 1_554
Ir2 Nd13 3.561229 1_454
Ir3 Nd4 2.889228 1_555
Ir3 Nd9 2.889230 1_545
Ir3 Nd7 2.889526 1_554
Ir3 Nd2 2.910733 1_545
Ir3 Nd0 2.910743 1_555
Ir3 Nd1 2.910934 1_554
Ir3 Nd12 3.560974 1_545
Ir3 Nd14 3.561172 1_554
Ir3 Nd11 3.561193 1_544
