# generated using pymatgen
data_CsKMg14
_symmetry_space_group_name_H-M   'P 1'
_cell_length_a   6.96560773
_cell_length_b   6.96560706
_cell_length_c   10.61649980
_cell_angle_alpha   90.00000000
_cell_angle_beta   90.00000000
_cell_angle_gamma   120.00000312
_symmetry_Int_Tables_number   1
_chemical_formula_structural   CsKMg14
_chemical_formula_sum   'Cs1 K1 Mg14'
_cell_volume   446.09767442
_cell_formula_units_Z   1
loop_
 _symmetry_equiv_pos_site_id
 _symmetry_equiv_pos_as_xyz
  1  'x, y, z'
loop_
 _atom_site_type_symbol
 _atom_site_label
 _atom_site_symmetry_multiplicity
 _atom_site_fract_x
 _atom_site_fract_y
 _atom_site_fract_z
 _atom_site_occupancy
  Cs  Cs0  1  0.16666700  0.33333300  0.62500000  1
  K  K0  1  0.16666700  0.33333300  0.12500000  1
  Mg  Mg0  1  0.17181599  0.83590749  0.12500000  1
  Mg  Mg1  1  0.17563538  0.83781719  0.62500000  1
  Mg  Mg2  1  0.66409251  0.32818401  0.12500000  1
  Mg  Mg3  1  0.66218281  0.32436462  0.62500000  1
  Mg  Mg4  1  0.66409251  0.83590749  0.12500000  1
  Mg  Mg5  1  0.66218281  0.83781719  0.62500000  1
  Mg  Mg6  1  0.35050835  0.14949165  0.36853689  1
  Mg  Mg7  1  0.35050835  0.14949165  0.88146311  1
  Mg  Mg8  1  0.35050835  0.70101769  0.36853689  1
  Mg  Mg9  1  0.35050835  0.70101769  0.88146311  1
  Mg  Mg10  1  0.79898231  0.14949165  0.36853689  1
  Mg  Mg11  1  0.79898231  0.14949165  0.88146311  1
  Mg  Mg12  1  0.83333300  0.66666700  0.37564111  1
  Mg  Mg13  1  0.83333300  0.66666700  0.87435889  1
loop_
_geom_bond_atom_site_label_1
_geom_bond_atom_site_label_2
_geom_bond_distance
_geom_bond_site_symmetry_2
Cs0 Mg1 3.483224 1_555
Cs0 Mg5 3.483224 1_555
Cs0 Mg1 3.483224 1_545
Cs0 Mg5 3.483224 1_445
Cs0 Mg3 3.483224 1_555
Cs0 Mg3 3.483224 1_455
Cs0 Mg6 3.511819 1_555
Cs0 Mg7 3.511819 1_555
Cs0 Mg8 3.511826 1_555
Cs0 Mg9 3.511826 1_555
Cs0 Mg10 3.511826 1_455
Cs0 Mg11 3.511826 1_455
K0 Mg7 3.406525 1_554
K0 Mg6 3.406525 1_555
K0 Mg9 3.406533 1_554
K0 Mg8 3.406533 1_555
K0 Mg10 3.406533 1_455
K0 Mg11 3.406533 1_454
K0 Mg0 3.482942 1_555
K0 Mg4 3.482942 1_555
K0 Mg4 3.482942 1_445
K0 Mg0 3.482942 1_545
K0 Mg2 3.482942 1_455
K0 Mg2 3.482942 1_555
Mg0 Mg8 3.207253 1_555
Mg0 Mg9 3.207253 1_554
Mg0 Mg6 3.207260 1_565
Mg0 Mg7 3.207260 1_564
Mg0 Mg12 3.354066 1_455
Mg0 Mg13 3.354066 1_454
Mg0 Mg2 3.429005 1_565
Mg0 Mg4 3.429005 1_555
Mg0 Mg2 3.536602 1_455
Mg0 Mg4 3.536603 1_455
Mg1 Mg9 3.311464 1_555
Mg1 Mg8 3.311464 1_555
Mg1 Mg7 3.311470 1_565
Mg1 Mg6 3.311470 1_565
Mg1 Mg12 3.357398 1_455
Mg1 Mg13 3.357398 1_455
Mg1 Mg3 3.389098 1_565
Mg1 Mg5 3.389099 1_555
Mg2 Mg7 3.207260 1_554
Mg2 Mg6 3.207260 1_555
Mg2 Mg4 3.429005 1_545
Mg2 Mg4 3.536602 1_555
Mg3 Mg7 3.311470 1_555
Mg3 Mg6 3.311470 1_555
Mg3 Mg5 3.389098 1_545
Mg4 Mg9 3.207261 1_554
Mg4 Mg8 3.207261 1_555
Mg5 Mg8 3.311471 1_555
Mg5 Mg9 3.311471 1_555
Mg6 Mg8 3.123893 1_545
Mg7 Mg9 3.123893 1_545
Mg10 Mg8 3.123893 1_545
Mg10 Mg6 3.123894 1_555
Mg10 Mg2 3.207253 1_555
Mg10 Mg4 3.207261 1_545
Mg10 Mg3 3.311464 1_555
Mg10 Mg5 3.311471 1_545
Mg10 Mg12 3.489778 1_545
Mg10 Mg12 3.489778 1_555
Mg11 Mg9 3.123893 1_545
Mg11 Mg7 3.123894 1_555
Mg11 Mg2 3.207253 1_556
Mg11 Mg4 3.207261 1_546
Mg11 Mg3 3.311464 1_555
Mg11 Mg5 3.311471 1_545
Mg11 Mg13 3.489778 1_545
Mg11 Mg13 3.489778 1_555
Mg12 Mg4 3.354058 1_555
Mg12 Mg2 3.354066 1_555
Mg12 Mg5 3.357390 1_555
Mg12 Mg3 3.357397 1_555
Mg12 Mg6 3.489778 1_555
Mg12 Mg6 3.489778 1_665
Mg12 Mg8 3.489778 1_555
Mg12 Mg8 3.489778 1_655
Mg13 Mg4 3.354058 1_556
Mg13 Mg2 3.354066 1_556
Mg13 Mg5 3.357390 1_555
Mg13 Mg3 3.357397 1_555
Mg13 Mg7 3.489778 1_555
Mg13 Mg7 3.489778 1_665
Mg13 Mg9 3.489778 1_555
Mg13 Mg9 3.489778 1_655
