# generated using pymatgen
data_Li4ScIn3(SiO3)8
_symmetry_space_group_name_H-M   'P 1'
_cell_length_a   9.18723000
_cell_length_b   5.43903800
_cell_length_c   9.51870800
_cell_angle_alpha   78.25600274
_cell_angle_beta   90.00000000
_cell_angle_gamma   90.00000000
_symmetry_Int_Tables_number   1
_chemical_formula_structural   Li4ScIn3(SiO3)8
_chemical_formula_sum   'Li4 Sc1 In3 Si8 O24'
_cell_volume   465.69010619
_cell_formula_units_Z   1
loop_
 _symmetry_equiv_pos_site_id
 _symmetry_equiv_pos_as_xyz
  1  'x, y, z'
loop_
 _atom_site_type_symbol
 _atom_site_label
 _atom_site_symmetry_multiplicity
 _atom_site_fract_x
 _atom_site_fract_y
 _atom_site_fract_z
 _atom_site_occupancy
  Li  Li0  1  0.74672100  0.50000000  0.50000000  1
  Li  Li1  1  0.24857200  0.00000000  0.00000000  1
  Li  Li2  1  0.25329400  0.00000000  0.50000000  1
  Li  Li3  1  0.75141100  0.50000000  0.00000000  1
  Sc  Sc0  1  0.38927000  0.50000000  0.50000000  1
  In  In0  1  0.89122700  0.00000000  0.00000000  1
  In  In1  1  0.60681600  0.00000000  0.50000000  1
  In  In2  1  0.10880100  0.50000000  0.00000000  1
  Si  Si0  1  0.08606800  0.72744600  0.30158000  1
  Si  Si1  1  0.58500100  0.22865900  0.79999700  1
  Si  Si2  1  0.08606800  0.27255400  0.69842000  1
  Si  Si3  1  0.58500100  0.77134100  0.20000300  1
  Si  Si4  1  0.91532600  0.77190200  0.69882800  1
  Si  Si5  1  0.41508200  0.27256600  0.19971900  1
  Si  Si6  1  0.91532600  0.22809800  0.30117200  1
  Si  Si7  1  0.41508200  0.72743400  0.80028100  1
  O  O0  1  0.08481600  0.79163800  0.12331700  1
  O  O1  1  0.58015600  0.29283200  0.62176900  1
  O  O2  1  0.08481600  0.20836200  0.87668300  1
  O  O3  1  0.58015600  0.70716800  0.37823100  1
  O  O4  1  0.91674400  0.70873400  0.87738500  1
  O  O5  1  0.41522900  0.21772800  0.37816100  1
  O  O6  1  0.91674400  0.29126600  0.12261500  1
  O  O7  1  0.41522900  0.78227200  0.62183900  1
  O  O8  1  0.24499100  0.72826800  0.37587200  1
  O  O9  1  0.74338100  0.24364100  0.87127000  1
  O  O10  1  0.24499100  0.27173200  0.62412800  1
  O  O11  1  0.74338100  0.75635900  0.12873000  1
  O  O12  1  0.75650400  0.75726000  0.62805300  1
  O  O13  1  0.25662400  0.25578500  0.12896800  1
  O  O14  1  0.75650400  0.24274000  0.37194700  1
  O  O15  1  0.25662400  0.74421500  0.87103200  1
  O  O16  1  0.01559500  0.44479700  0.35319100  1
  O  O17  1  0.51553800  0.94477900  0.85227400  1
  O  O18  1  0.01559500  0.55520300  0.64680900  1
  O  O19  1  0.51553800  0.05522100  0.14772600  1
  O  O20  1  0.98622100  0.05490300  0.64633400  1
  O  O21  1  0.48467000  0.55562100  0.14614500  1
  O  O22  1  0.98622100  0.94509700  0.35366600  1
  O  O23  1  0.48467000  0.44437900  0.85385500  1
loop_
_geom_bond_atom_site_label_1
_geom_bond_atom_site_label_2
_geom_bond_distance
_geom_bond_site_symmetry_2
Li0 O12 2.036166 1_555
Li0 O14 2.036166 1_555
Li0 O3 2.103142 1_555
Li0 O1 2.103142 1_555
Li1 O13 2.035495 1_555
Li1 O15 2.035495 1_544
Li1 O0 2.093819 1_545
Li1 O2 2.093819 1_554
Li2 O10 2.072942 1_555
Li2 O8 2.072942 1_545
Li2 O7 2.098020 1_545
Li2 O5 2.098020 1_555
Li3 O9 2.036326 1_554
Li3 O11 2.036326 1_555
Li3 O6 2.102130 1_555
Li3 O4 2.102130 1_554
In0 O9 2.107488 1_554
In0 O11 2.107488 1_545
In0 O6 2.163229 1_555
In0 O4 2.163229 1_544
In0 O2 2.298673 1_654
In0 O0 2.298673 1_645
In1 O12 2.113044 1_545
In1 O14 2.113044 1_555
In1 O1 2.166044 1_555
In1 O3 2.166044 1_545
In1 O7 2.299234 1_545
In1 O5 2.299234 1_555
In2 O13 2.109974 1_555
In2 O15 2.109974 1_554
In2 O2 2.168062 1_554
In2 O0 2.168062 1_555
In2 O6 2.285847 1_455
In2 O4 2.285847 1_454
O0 Si0 1.661357 1_555
O1 Si1 1.661588 1_555
O1 Sc0 2.270900 1_555
O2 Si2 1.661357 1_555
O3 Si3 1.661588 1_555
O3 Sc0 2.270900 1_555
O4 Si4 1.664106 1_555
O5 Si5 1.663659 1_555
O5 Sc0 2.117506 1_555
O6 Si6 1.664106 1_555
O7 Si7 1.663659 1_555
O7 Sc0 2.117506 1_555
O8 Si0 1.622704 1_555
O8 Sc0 2.024192 1_555
O9 Si1 1.614511 1_555
O10 Si2 1.622704 1_555
O10 Sc0 2.024192 1_555
O11 Si3 1.614511 1_555
O12 Si4 1.615893 1_555
O13 Si5 1.614380 1_555
O14 Si6 1.615893 1_555
O15 Si7 1.614380 1_555
O16 Si0 1.648182 1_555
O16 Si6 1.649402 1_455
O17 Si1 1.651106 1_565
O17 Si7 1.652978 1_555
O18 Si2 1.648182 1_555
O18 Si4 1.649402 1_455
O19 Si3 1.651106 1_545
O19 Si5 1.652978 1_555
O20 Si2 1.651549 1_655
O20 Si4 1.652304 1_545
O21 Si5 1.649058 1_555
O21 Si3 1.653476 1_555
O22 Si0 1.651549 1_655
O22 Si6 1.652304 1_565
O23 Si7 1.649058 1_555
O23 Si1 1.653476 1_555
