# generated using pymatgen
data_Nd5Ge3
_symmetry_space_group_name_H-M   'P 1'
_cell_length_a   8.82572249
_cell_length_b   8.82572380
_cell_length_c   6.74300823
_cell_angle_alpha   90.00000000
_cell_angle_beta   90.00000000
_cell_angle_gamma   120.00000563
_symmetry_Int_Tables_number   1
_chemical_formula_structural   Nd5Ge3
_chemical_formula_sum   'Nd10 Ge6'
_cell_volume   454.86748826
_cell_formula_units_Z   2
loop_
 _symmetry_equiv_pos_site_id
 _symmetry_equiv_pos_as_xyz
  1  'x, y, z'
loop_
 _atom_site_type_symbol
 _atom_site_label
 _atom_site_symmetry_multiplicity
 _atom_site_fract_x
 _atom_site_fract_y
 _atom_site_fract_z
 _atom_site_occupancy
  Nd  Nd0  1  -0.00000000  0.75453999  0.75000000  1
  Nd  Nd1  1  0.00000000  0.24546001  0.25000000  1
  Nd  Nd2  1  0.75453999  0.75453999  0.25000000  1
  Nd  Nd3  1  0.75453999  -0.00000000  0.75000000  1
  Nd  Nd4  1  0.24546001  0.24546001  0.75000000  1
  Nd  Nd5  1  0.24546001  0.00000000  0.25000000  1
  Nd  Nd6  1  0.33333300  0.66666700  0.50000000  1
  Nd  Nd7  1  0.66666700  0.33333300  -0.00000000  1
  Nd  Nd8  1  0.66666700  0.33333300  0.50000000  1
  Nd  Nd9  1  0.33333300  0.66666700  -0.00000000  1
  Ge  Ge0  1  0.39231604  0.00000000  0.75000000  1
  Ge  Ge1  1  0.39231604  0.39231604  0.25000000  1
  Ge  Ge2  1  -0.00000000  0.60768396  0.25000000  1
  Ge  Ge3  1  0.00000000  0.39231604  0.75000000  1
  Ge  Ge4  1  0.60768396  0.60768396  0.75000000  1
  Ge  Ge5  1  0.60768396  -0.00000000  0.25000000  1
loop_
_geom_bond_atom_site_label_1
_geom_bond_atom_site_label_2
_geom_bond_distance
_geom_bond_site_symmetry_2
Ge0 Nd0 3.029995 1_545
Ge0 Nd4 3.029996 1_555
Ge0 Nd3 3.196888 1_555
Ge0 Nd6 3.199390 1_545
Ge0 Nd9 3.199390 1_546
Ge0 Nd7 3.199392 1_556
Ge0 Nd8 3.199392 1_555
Ge0 Nd5 3.612055 1_555
Ge0 Nd5 3.612055 1_556
Ge1 Nd1 3.029995 1_555
Ge1 Nd5 3.029996 1_555
Ge1 Nd2 3.196888 1_555
Ge1 Nd7 3.199397 1_555
Ge1 Nd8 3.199397 1_555
Ge1 Nd9 3.199397 1_555
Ge1 Nd6 3.199397 1_555
Ge1 Nd4 3.612055 1_555
Ge1 Nd4 3.612055 1_554
Ge2 Nd5 3.029995 1_565
Ge2 Nd2 3.029995 1_455
Ge2 Nd1 3.196889 1_555
Ge2 Nd9 3.199389 1_555
Ge2 Nd6 3.199389 1_555
Ge2 Nd7 3.199392 1_455
Ge2 Nd8 3.199392 1_455
Ge2 Nd0 3.612055 1_554
Ge2 Nd0 3.612055 1_555
Ge3 Nd3 3.029995 1_455
Ge3 Nd4 3.029995 1_555
Ge3 Nd0 3.196889 1_555
Ge3 Nd7 3.199389 1_456
Ge3 Nd8 3.199389 1_455
Ge3 Nd6 3.199392 1_555
Ge3 Nd9 3.199392 1_556
Ge3 Nd1 3.612055 1_555
Ge3 Nd1 3.612055 1_556
Ge4 Nd0 3.029995 1_655
Ge4 Nd3 3.029996 1_565
Ge4 Nd4 3.196888 1_555
Ge4 Nd6 3.199397 1_555
Ge4 Nd9 3.199397 1_556
Ge4 Nd8 3.199397 1_555
Ge4 Nd7 3.199397 1_556
Ge4 Nd2 3.612055 1_555
Ge4 Nd2 3.612055 1_556
Ge5 Nd1 3.029995 1_655
Ge5 Nd2 3.029996 1_545
Ge5 Nd5 3.196888 1_555
Ge5 Nd7 3.199390 1_555
Ge5 Nd8 3.199390 1_555
Ge5 Nd6 3.199392 1_545
Ge5 Nd9 3.199392 1_545
Ge5 Nd3 3.612055 1_554
Ge5 Nd3 3.612055 1_555
