# generated using pymatgen
data_CaMg14Ni
_symmetry_space_group_name_H-M   'P 1'
_cell_length_a   6.32591747
_cell_length_b   6.32591696
_cell_length_c   10.08747347
_cell_angle_alpha   90.00000000
_cell_angle_beta   90.00000000
_cell_angle_gamma   120.00000259
_symmetry_Int_Tables_number   1
_chemical_formula_structural   CaMg14Ni
_chemical_formula_sum   'Ca1 Mg14 Ni1'
_cell_volume   349.59083178
_cell_formula_units_Z   1
loop_
 _symmetry_equiv_pos_site_id
 _symmetry_equiv_pos_as_xyz
  1  'x, y, z'
loop_
 _atom_site_type_symbol
 _atom_site_label
 _atom_site_symmetry_multiplicity
 _atom_site_fract_x
 _atom_site_fract_y
 _atom_site_fract_z
 _atom_site_occupancy
  Ca  Ca0  1  0.16666700  0.33333300  0.12500000  1
  Mg  Mg0  1  0.17690568  0.83845234  0.12500000  1
  Mg  Mg1  1  0.15904431  0.82952166  0.62500000  1
  Mg  Mg2  1  0.66154766  0.32309432  0.12500000  1
  Mg  Mg3  1  0.67047834  0.34095569  0.62500000  1
  Mg  Mg4  1  0.66154766  0.83845234  0.12500000  1
  Mg  Mg5  1  0.67047834  0.82952166  0.62500000  1
  Mg  Mg6  1  0.32855532  0.17144468  0.39614632  1
  Mg  Mg7  1  0.32855532  0.17144468  0.85385368  1
  Mg  Mg8  1  0.32855532  0.65711164  0.39614632  1
  Mg  Mg9  1  0.32855532  0.65711164  0.85385368  1
  Mg  Mg10  1  0.84288836  0.17144468  0.39614632  1
  Mg  Mg11  1  0.84288836  0.17144468  0.85385368  1
  Mg  Mg12  1  0.83333300  0.66666700  0.36529006  1
  Mg  Mg13  1  0.83333300  0.66666700  0.88470994  1
  Ni  Ni0  1  0.16666700  0.33333300  0.62500000  1
loop_
_geom_bond_atom_site_label_1
_geom_bond_atom_site_label_2
_geom_bond_distance
_geom_bond_site_symmetry_2
Ca0 Mg0 3.163456 1_555
Ca0 Mg4 3.163456 1_555
Ca0 Mg0 3.163456 1_545
Ca0 Mg4 3.163456 1_445
Ca0 Mg2 3.163456 1_555
Ca0 Mg2 3.163456 1_455
Ca0 Mg7 3.259986 1_554
Ca0 Mg6 3.259986 1_555
Ca0 Mg9 3.259992 1_554
Ca0 Mg8 3.259992 1_555
Ca0 Mg11 3.259992 1_454
Ca0 Mg10 3.259992 1_455
Mg0 Mg2 3.065805 1_565
Mg0 Mg4 3.065805 1_555
Mg0 Mg13 3.068905 1_454
Mg0 Mg12 3.068905 1_455
Mg0 Mg2 3.260112 1_455
Mg0 Mg4 3.260112 1_455
Mg0 Mg9 3.289065 1_554
Mg0 Mg8 3.289065 1_555
Mg0 Mg7 3.289071 1_564
Mg0 Mg6 3.289071 1_565
Mg1 Mg8 2.972932 1_555
Mg1 Mg9 2.972932 1_555
Mg1 Mg6 2.972938 1_565
Mg1 Mg7 2.972938 1_565
Mg1 Mg3 3.090628 1_455
Mg1 Mg5 3.090628 1_455
Mg1 Ni0 3.163234 1_565
Mg1 Ni0 3.163234 1_555
Mg1 Mg12 3.169771 1_455
Mg1 Mg13 3.169771 1_455
Mg1 Mg3 3.235289 1_565
Mg1 Mg5 3.235289 1_555
Mg2 Mg4 3.065805 1_545
Mg2 Mg4 3.260112 1_555
Mg2 Mg7 3.289071 1_554
Mg2 Mg6 3.289071 1_555
Mg3 Mg6 2.972939 1_555
Mg3 Mg7 2.972939 1_555
Mg3 Mg5 3.090628 1_555
Mg3 Ni0 3.163234 1_555
Mg3 Ni0 3.163234 1_655
Mg3 Mg5 3.235289 1_545
Mg4 Mg9 3.289071 1_554
Mg4 Mg8 3.289071 1_555
Mg5 Mg8 2.972939 1_555
Mg5 Mg9 2.972939 1_555
Mg5 Ni0 3.163234 1_665
Mg5 Ni0 3.163234 1_555
Mg6 Ni0 2.911309 1_555
Mg6 Mg8 3.072289 1_555
Mg6 Mg8 3.253628 1_545
Mg7 Ni0 2.911309 1_555
Mg7 Mg9 3.072289 1_555
Mg7 Mg9 3.253628 1_545
Mg8 Ni0 2.911316 1_555
Mg9 Ni0 2.911316 1_555
Mg10 Ni0 2.911316 1_655
Mg10 Mg3 2.972932 1_555
Mg10 Mg5 2.972938 1_545
Mg10 Mg8 3.072289 1_655
Mg10 Mg6 3.072289 1_655
Mg10 Mg12 3.178668 1_545
Mg10 Mg12 3.178668 1_555
Mg10 Mg8 3.253628 1_545
Mg10 Mg6 3.253628 1_555
Mg10 Mg2 3.289065 1_555
Mg10 Mg4 3.289070 1_545
Mg11 Ni0 2.911316 1_655
Mg11 Mg3 2.972932 1_555
Mg11 Mg5 2.972938 1_545
Mg11 Mg9 3.072289 1_655
Mg11 Mg7 3.072289 1_655
Mg11 Mg13 3.178668 1_545
Mg11 Mg13 3.178668 1_555
Mg11 Mg9 3.253628 1_545
Mg11 Mg7 3.253628 1_555
Mg11 Mg2 3.289065 1_556
Mg11 Mg4 3.289070 1_546
Mg12 Mg4 3.068898 1_555
Mg12 Mg2 3.068905 1_555
Mg12 Mg5 3.169765 1_555
Mg12 Mg3 3.169771 1_555
Mg12 Mg6 3.178668 1_665
Mg12 Mg6 3.178668 1_555
Mg12 Mg8 3.178668 1_655
Mg12 Mg8 3.178668 1_555
Mg13 Mg4 3.068898 1_556
Mg13 Mg2 3.068905 1_556
Mg13 Mg5 3.169765 1_555
Mg13 Mg3 3.169771 1_555
Mg13 Mg7 3.178668 1_665
Mg13 Mg7 3.178668 1_555
Mg13 Mg9 3.178668 1_655
Mg13 Mg9 3.178668 1_555
