# generated using pymatgen
data_LaCo3Ni2
_symmetry_space_group_name_H-M   'P 1'
_cell_length_a   4.96075178
_cell_length_b   4.96075178
_cell_length_c   4.07425100
_cell_angle_alpha   90.00000000
_cell_angle_beta   90.00000000
_cell_angle_gamma   119.99999707
_symmetry_Int_Tables_number   1
_chemical_formula_structural   LaCo3Ni2
_chemical_formula_sum   'La1 Co3 Ni2'
_cell_volume   86.83072339
_cell_formula_units_Z   1
loop_
 _symmetry_equiv_pos_site_id
 _symmetry_equiv_pos_as_xyz
  1  'x, y, z'
loop_
 _atom_site_type_symbol
 _atom_site_label
 _atom_site_symmetry_multiplicity
 _atom_site_fract_x
 _atom_site_fract_y
 _atom_site_fract_z
 _atom_site_occupancy
  La  La0  1  0.00000000  0.00000000  0.00000000  1
  Co  Co0  1  0.50000000  0.00000000  0.50000000  1
  Co  Co1  1  0.00000000  0.50000000  0.50000000  1
  Co  Co2  1  0.50000000  0.50000000  0.50000000  1
  Ni  Ni0  1  0.33333300  0.66666700  0.00000000  1
  Ni  Ni1  1  0.66666700  0.33333300  0.00000000  1
loop_
_geom_bond_atom_site_label_1
_geom_bond_atom_site_label_2
_geom_bond_distance
_geom_bond_site_symmetry_2
La0 Ni0 2.864088 1_545
La0 Ni1 2.864088 1_455
La0 Ni0 2.864093 1_555
La0 Ni0 2.864093 1_445
La0 Ni1 2.864093 1_445
La0 Ni1 2.864093 1_555
Co0 Co2 2.480376 1_555
Co0 Co2 2.480376 1_545
Co0 Co1 2.480376 1_655
Co0 Co1 2.480376 1_545
Co0 Ni0 2.490107 1_545
Co0 Ni1 2.490107 1_555
Co0 Ni0 2.490107 1_546
Co0 Ni1 2.490107 1_556
Co0 La0 3.209695 1_655
Co0 La0 3.209695 1_656
Co0 La0 3.209695 1_555
Co0 La0 3.209695 1_556
Co1 Co2 2.480376 1_555
Co1 Co2 2.480376 1_455
Co1 Ni0 2.490107 1_556
Co1 Ni1 2.490107 1_455
Co1 Ni1 2.490107 1_456
Co1 Ni0 2.490107 1_555
Co1 La0 3.209695 1_566
Co1 La0 3.209695 1_565
Co1 La0 3.209695 1_555
Co1 La0 3.209695 1_556
Co2 Ni0 2.490109 1_555
Co2 Ni1 2.490109 1_556
Co2 Ni0 2.490109 1_556
Co2 Ni1 2.490109 1_555
Co2 La0 3.209696 1_555
Co2 La0 3.209696 1_556
Co2 La0 3.209696 1_665
Co2 La0 3.209696 1_666
