# generated using pymatgen
data_KCa2Ta3O10
_symmetry_space_group_name_H-M   'P 1'
_cell_length_a   3.94086400
_cell_length_b   3.94552400
_cell_length_c   15.25730117
_cell_angle_alpha   82.57088279
_cell_angle_beta   90.00000000
_cell_angle_gamma   90.00000000
_symmetry_Int_Tables_number   1
_chemical_formula_structural   KCa2Ta3O10
_chemical_formula_sum   'K1 Ca2 Ta3 O10'
_cell_volume   235.24089265
_cell_formula_units_Z   1
loop_
 _symmetry_equiv_pos_site_id
 _symmetry_equiv_pos_as_xyz
  1  'x, y, z'
loop_
 _atom_site_type_symbol
 _atom_site_label
 _atom_site_symmetry_multiplicity
 _atom_site_fract_x
 _atom_site_fract_y
 _atom_site_fract_z
 _atom_site_occupancy
  K  K0  1  0.00000000  0.75847800  0.48304300  1
  Ca  Ca0  1  0.00000000  0.92470200  0.15059500  1
  Ca  Ca1  1  0.00000000  0.07655900  0.84688100  1
  Ta  Ta0  1  0.50000000  0.64156900  0.71686200  1
  Ta  Ta1  1  0.50000000  0.35841200  0.28317500  1
  Ta  Ta2  1  0.50000000  0.50006100  0.99987700  1
  O  O0  1  0.00000000  0.62750200  0.74499600  1
  O  O1  1  0.00000000  0.37187900  0.25624200  1
  O  O2  1  0.50000000  0.87191900  0.25616300  1
  O  O3  1  0.50000000  0.12723300  0.74553500  1
  O  O4  1  0.50000000  0.70062600  0.59874700  1
  O  O5  1  0.50000000  0.29881200  0.40237500  1
  O  O6  1  0.50000000  0.56483400  0.87033200  1
  O  O7  1  0.50000000  0.43452100  0.13095900  1
  O  O8  1  0.00000000  0.49950500  0.00099000  1
  O  O9  1  0.50000000  0.99948700  0.00102600  1
loop_
_geom_bond_atom_site_label_1
_geom_bond_atom_site_label_2
_geom_bond_distance
_geom_bond_site_symmetry_2
K0 O4 2.635696 1_455
K0 O4 2.635696 1_555
K0 O5 3.043662 1_565
K0 O5 3.043662 1_465
K0 O5 3.043662 1_455
K0 O5 3.043662 1_555
Ca0 O2 2.536440 1_555
Ca0 O2 2.536440 1_455
Ca0 O1 2.539001 1_555
Ca0 O1 2.539004 1_565
Ca0 O7 2.804038 1_555
Ca0 O7 2.804038 1_455
Ca0 O7 2.804044 1_565
Ca0 O7 2.804044 1_465
Ca0 O9 3.000525 1_555
Ca0 O9 3.000525 1_455
Ca0 O8 3.002465 1_555
Ca0 O8 3.002468 1_565
Ca1 O3 2.496712 1_455
Ca1 O3 2.496712 1_555
Ca1 O0 2.503562 1_545
Ca1 O0 2.503565 1_555
Ca1 O6 2.810741 1_545
Ca1 O6 2.810741 1_445
Ca1 O6 2.810744 1_455
Ca1 O6 2.810744 1_555
Ca1 O9 3.053075 1_446
Ca1 O9 3.053075 1_546
Ca1 O8 3.054162 1_546
Ca1 O8 3.054165 1_556
O0 Ta0 2.015881 1_455
O0 Ta0 2.015881 1_555
O1 Ta1 2.012123 1_555
O1 Ta1 2.012123 1_455
O2 Ta1 2.014643 1_565
O2 Ta1 2.014651 1_555
O3 Ta0 2.019892 1_555
O3 Ta0 2.019896 1_545
O4 Ta0 1.786988 1_555
O5 Ta1 1.803404 1_555
O6 Ta2 1.959915 1_555
O6 Ta0 2.321882 1_555
O7 Ta2 1.983169 1_554
O7 Ta1 2.302910 1_555
O8 Ta2 1.970504 1_454
O8 Ta2 1.970504 1_554
O9 Ta2 1.972837 1_564
O9 Ta2 1.972841 1_554
