# generated using pymatgen
data_La5FeGe3
_symmetry_space_group_name_H-M   'P 1'
_cell_length_a   9.15994159
_cell_length_b   9.15994159
_cell_length_c   6.99926700
_cell_angle_alpha   90.00000000
_cell_angle_beta   90.00000000
_cell_angle_gamma   119.99999707
_symmetry_Int_Tables_number   1
_chemical_formula_structural   La5FeGe3
_chemical_formula_sum   'La10 Fe2 Ge6'
_cell_volume   508.59093403
_cell_formula_units_Z   2
loop_
 _symmetry_equiv_pos_site_id
 _symmetry_equiv_pos_as_xyz
  1  'x, y, z'
loop_
 _atom_site_type_symbol
 _atom_site_label
 _atom_site_symmetry_multiplicity
 _atom_site_fract_x
 _atom_site_fract_y
 _atom_site_fract_z
 _atom_site_occupancy
  La  La0  1  0.24806400  0.00000000  0.25000000  1
  La  La1  1  0.75193600  0.00000000  0.75000000  1
  La  La2  1  0.00000000  0.24806400  0.25000000  1
  La  La3  1  0.00000000  0.75193600  0.75000000  1
  La  La4  1  0.75193600  0.75193600  0.25000000  1
  La  La5  1  0.24806400  0.24806400  0.75000000  1
  La  La6  1  0.33333300  0.66666700  0.00000000  1
  La  La7  1  0.66666700  0.33333300  0.00000000  1
  La  La8  1  0.66666700  0.33333300  0.50000000  1
  La  La9  1  0.33333300  0.66666700  0.50000000  1
  Fe  Fe0  1  0.00000000  0.00000000  0.00000000  1
  Fe  Fe1  1  0.00000000  0.00000000  0.50000000  1
  Ge  Ge0  1  0.60308800  0.00000000  0.25000000  1
  Ge  Ge1  1  0.39691200  0.00000000  0.75000000  1
  Ge  Ge2  1  0.00000000  0.60308800  0.25000000  1
  Ge  Ge3  1  0.00000000  0.39691200  0.75000000  1
  Ge  Ge4  1  0.39691200  0.39691200  0.25000000  1
  Ge  Ge5  1  0.60308800  0.60308800  0.75000000  1
loop_
_geom_bond_atom_site_label_1
_geom_bond_atom_site_label_2
_geom_bond_distance
_geom_bond_site_symmetry_2
Fe0 La1 2.867924 1_454
Fe0 La3 2.867924 1_544
Fe0 La2 2.867924 1_555
Fe0 La0 2.867924 1_555
Fe0 La4 2.867924 1_445
Fe0 La5 2.867924 1_554
Fe1 La1 2.867924 1_455
Fe1 La3 2.867924 1_545
Fe1 La2 2.867924 1_555
Fe1 La0 2.867924 1_555
Fe1 La4 2.867924 1_445
Fe1 La5 2.867924 1_555
Ge0 La4 3.181222 1_545
Ge0 La2 3.181222 1_655
Ge0 La0 3.251999 1_555
Ge0 La8 3.308405 1_555
Ge0 La7 3.308405 1_555
Ge0 La9 3.308408 1_545
Ge0 La6 3.308408 1_545
Ge0 La1 3.755849 1_554
Ge0 La1 3.755849 1_555
Ge1 La5 3.181222 1_555
Ge1 La3 3.181222 1_545
Ge1 La1 3.251999 1_555
Ge1 La6 3.308405 1_546
Ge1 La9 3.308405 1_545
Ge1 La8 3.308408 1_555
Ge1 La7 3.308408 1_556
Ge1 La0 3.755849 1_555
Ge1 La0 3.755849 1_556
Ge2 La4 3.181222 1_455
Ge2 La0 3.181222 1_565
Ge2 La2 3.251999 1_555
Ge2 La6 3.308405 1_555
Ge2 La9 3.308405 1_555
Ge2 La7 3.308408 1_455
Ge2 La8 3.308408 1_455
Ge2 La3 3.755849 1_555
Ge2 La3 3.755849 1_554
Ge3 La5 3.181222 1_555
Ge3 La1 3.181222 1_455
Ge3 La3 3.251999 1_555
Ge3 La7 3.308405 1_456
Ge3 La8 3.308405 1_455
Ge3 La9 3.308408 1_555
Ge3 La6 3.308408 1_556
Ge3 La2 3.755849 1_556
Ge3 La2 3.755849 1_555
Ge4 La0 3.181222 1_555
Ge4 La2 3.181222 1_555
Ge4 La4 3.251999 1_555
Ge4 La9 3.308413 1_555
Ge4 La7 3.308413 1_555
Ge4 La8 3.308413 1_555
Ge4 La6 3.308413 1_555
Ge4 La5 3.755849 1_554
Ge4 La5 3.755849 1_555
Ge5 La3 3.181222 1_655
Ge5 La1 3.181222 1_565
Ge5 La5 3.251999 1_555
Ge5 La8 3.308413 1_555
Ge5 La9 3.308413 1_555
Ge5 La6 3.308413 1_556
Ge5 La7 3.308413 1_556
Ge5 La4 3.755849 1_555
Ge5 La4 3.755849 1_556
