# generated using pymatgen
data_Ba6Ca12Cu15Hg3O37
_symmetry_space_group_name_H-M   'P 1'
_cell_length_a   8.61054474
_cell_length_b   8.61054474
_cell_length_c   23.10449386
_cell_angle_alpha   77.08508264
_cell_angle_beta   77.08508264
_cell_angle_gamma   36.95930614
_symmetry_Int_Tables_number   1
_chemical_formula_structural   Ba6Ca12Cu15Hg3O37
_chemical_formula_sum   'Ba6 Ca12 Cu15 Hg3 O37'
_cell_volume   1000.93164104
_cell_formula_units_Z   1
loop_
 _symmetry_equiv_pos_site_id
 _symmetry_equiv_pos_as_xyz
  1  'x, y, z'
loop_
 _atom_site_type_symbol
 _atom_site_label
 _atom_site_symmetry_multiplicity
 _atom_site_fract_x
 _atom_site_fract_y
 _atom_site_fract_z
 _atom_site_occupancy
  Ba  Ba0  1  0.53931400  0.53931400  0.88199500  1
  Ba  Ba1  1  0.87539900  0.87539900  0.87531200  1
  Ba  Ba2  1  0.20773500  0.20773500  0.87534500  1
  Ba  Ba3  1  0.79226500  0.79226500  0.12465500  1
  Ba  Ba4  1  0.12460100  0.12460100  0.12468800  1
  Ba  Ba5  1  0.46068600  0.46068600  0.11800500  1
  Ca  Ca0  1  0.59374000  0.59374000  0.71847000  1
  Ca  Ca1  1  0.92767800  0.92767800  0.71703600  1
  Ca  Ca2  1  0.26104500  0.26104500  0.71709900  1
  Ca  Ca3  1  0.73895500  0.73895500  0.28290100  1
  Ca  Ca4  1  0.07232200  0.07232200  0.28296400  1
  Ca  Ca5  1  0.40626000  0.40626000  0.28153000  1
  Ca  Ca6  1  0.64233800  0.64233800  0.57258700  1
  Ca  Ca7  1  0.97588000  0.97588000  0.57239200  1
  Ca  Ca8  1  0.30933600  0.30933600  0.57235300  1
  Ca  Ca9  1  0.69066400  0.69066400  0.42764700  1
  Ca  Ca10  1  0.02412000  0.02412000  0.42760800  1
  Ca  Ca11  1  0.35766200  0.35766200  0.42741300  1
  Cu  Cu0  1  0.78521100  0.78521100  0.64432200  1
  Cu  Cu1  1  0.11850700  0.11850700  0.64432500  1
  Cu  Cu2  1  0.45194500  0.45194500  0.64434100  1
  Cu  Cu3  1  0.88149300  0.88149300  0.35567500  1
  Cu  Cu4  1  0.21478900  0.21478900  0.35567800  1
  Cu  Cu5  1  0.54805500  0.54805500  0.35565900  1
  Cu  Cu6  1  0.73796600  0.73796600  0.78482100  1
  Cu  Cu7  1  0.07145400  0.07145400  0.78549400  1
  Cu  Cu8  1  0.40550700  0.40550700  0.78482600  1
  Cu  Cu9  1  0.92854600  0.92854600  0.21450600  1
  Cu  Cu10  1  0.26203400  0.26203400  0.21517900  1
  Cu  Cu11  1  0.59449300  0.59449300  0.21517400  1
  Cu  Cu12  1  0.83332500  0.83332500  0.49998800  1
  Cu  Cu13  1  0.16667500  0.16667500  0.50001200  1
  Cu  Cu14  1  0.50000000  0.50000000  0.50000000  1
  Hg  Hg0  1  0.00000000  0.00000000  0.00000000  1
  Hg  Hg1  1  0.33819300  0.33819300  0.00000400  1
  Hg  Hg2  1  0.66180700  0.66180700  0.99999600  1
  O  O0  1  0.70069700  0.70069700  0.90915100  1
  O  O1  1  0.03053600  0.03053600  0.90839500  1
  O  O2  1  0.35987100  0.35987100  0.90914000  1
  O  O3  1  0.96946400  0.96946400  0.09160500  1
  O  O4  1  0.29930300  0.29930300  0.09084900  1
  O  O5  1  0.64012900  0.64012900  0.09086000  1
  O  O6  1  0.45206900  0.95279900  0.64252700  1
  O  O7  1  0.78672500  0.28515400  0.64252600  1
  O  O8  1  0.11864400  0.61950400  0.64257500  1
  O  O9  1  0.95279900  0.45206900  0.64252700  1
  O  O10  1  0.28515400  0.78672500  0.64252600  1
  O  O11  1  0.61950400  0.11864400  0.64257500  1
  O  O12  1  0.54793100  0.04720100  0.35747300  1
  O  O13  1  0.88135600  0.38049600  0.35742500  1
  O  O14  1  0.21327500  0.71484600  0.35747400  1
  O  O15  1  0.04720100  0.54793100  0.35747300  1
  O  O16  1  0.38049600  0.88135600  0.35742500  1
  O  O17  1  0.71484600  0.21327500  0.35747400  1
  O  O18  1  0.50000000  0.00000000  0.50000000  1
  O  O19  1  0.83335800  0.33336200  0.49998900  1
  O  O20  1  0.16664200  0.66663800  0.50001100  1
  O  O21  1  0.00000000  0.50000000  0.50000000  1
  O  O22  1  0.33336200  0.83335800  0.49998900  1
  O  O23  1  0.66663800  0.16664200  0.50001100  1
  O  O24  1  0.40491000  0.90773400  0.78317800  1
  O  O25  1  0.73992600  0.23667200  0.78317700  1
  O  O26  1  0.07180800  0.57219700  0.78378800  1
  O  O27  1  0.90773400  0.40491000  0.78317800  1
  O  O28  1  0.23667200  0.73992600  0.78317700  1
  O  O29  1  0.57219700  0.07180800  0.78378800  1
  O  O30  1  0.59509000  0.09226600  0.21682200  1
  O  O31  1  0.92819200  0.42780300  0.21621200  1
  O  O32  1  0.26007400  0.76332800  0.21682300  1
  O  O33  1  0.09226600  0.59509000  0.21682200  1
  O  O34  1  0.42780300  0.92819200  0.21621200  1
  O  O35  1  0.76332800  0.26007400  0.21682300  1
  O  O36  1  0.50000000  0.50000000  0.00000000  1
loop_
_geom_bond_atom_site_label_1
_geom_bond_atom_site_label_2
_geom_bond_distance
_geom_bond_site_symmetry_2
Ba0 O36 2.649660 1_556
Ba0 O1 2.792898 1_565
Ba0 O1 2.792898 1_655
Ba0 O2 2.849027 1_555
Ba0 O0 2.849740 1_555
Ba0 O28 2.947908 1_555
Ba0 O25 2.947908 1_555
Ba0 O27 2.948186 1_555
Ba0 O24 2.948186 1_555
Ba1 O0 2.775222 1_555
Ba1 O1 2.813820 1_665
Ba1 O28 2.814223 1_655
Ba1 O25 2.814223 1_565
Ba1 O26 2.821478 1_655
Ba1 O29 2.821478 1_565
Ba1 O2 2.833841 1_565
Ba1 O2 2.833841 1_655
Ba2 O2 2.774638 1_555
Ba2 O1 2.813882 1_555
Ba2 O27 2.814932 1_455
Ba2 O24 2.814932 1_545
Ba2 O29 2.821780 1_555
Ba2 O26 2.821780 1_555
Ba2 O0 2.833701 1_545
Ba2 O0 2.833701 1_455
Ba3 O5 2.774638 1_555
Ba3 O3 2.813882 1_555
Ba3 O30 2.814932 1_565
Ba3 O33 2.814932 1_655
Ba3 O34 2.821780 1_555
Ba3 O31 2.821780 1_555
Ba3 O4 2.833701 1_655
Ba3 O4 2.833701 1_565
Ba4 O4 2.775222 1_555
Ba4 O3 2.813820 1_445
Ba4 O35 2.814223 1_455
Ba4 O32 2.814223 1_545
Ba4 O31 2.821478 1_455
Ba4 O34 2.821478 1_545
Ba4 O5 2.833841 1_545
Ba4 O5 2.833841 1_455
Ba5 O36 2.649660 1_555
Ba5 O3 2.792898 1_545
Ba5 O3 2.792898 1_455
Ba5 O5 2.849027 1_555
Ba5 O4 2.849740 1_555
Ba5 O35 2.947908 1_555
Ba5 O32 2.947908 1_555
Ba5 O30 2.948186 1_555
Ba5 O33 2.948186 1_555
Ca0 O28 2.423645 1_555
Ca0 O25 2.423645 1_555
Ca0 O24 2.425599 1_555
Ca0 O27 2.425599 1_555
Ca0 O10 2.573851 1_555
Ca0 O7 2.573851 1_555
Ca0 O9 2.574872 1_555
Ca0 O6 2.574872 1_555
Ca1 O28 2.422148 1_655
Ca1 O25 2.422148 1_565
Ca1 O29 2.441806 1_565
Ca1 O26 2.441806 1_655
Ca1 O10 2.550716 1_655
Ca1 O7 2.550716 1_565
Ca1 O8 2.551052 1_655
Ca1 O11 2.551052 1_565
Ca2 O27 2.422189 1_455
Ca2 O24 2.422189 1_545
Ca2 O26 2.439986 1_555
Ca2 O29 2.439986 1_555
Ca2 O11 2.552403 1_555
Ca2 O8 2.552403 1_555
Ca2 O6 2.553259 1_545
Ca2 O9 2.553259 1_455
Ca3 O33 2.422189 1_655
Ca3 O30 2.422189 1_565
Ca3 O34 2.439986 1_555
Ca3 O31 2.439986 1_555
Ca3 O13 2.552403 1_555
Ca3 O16 2.552403 1_555
Ca3 O12 2.553259 1_565
Ca3 O15 2.553259 1_655
Ca4 O35 2.422148 1_455
Ca4 O32 2.422148 1_545
Ca4 O34 2.441806 1_545
Ca4 O31 2.441806 1_455
Ca4 O14 2.550716 1_545
Ca4 O17 2.550716 1_455
Ca4 O16 2.551052 1_545
Ca4 O13 2.551052 1_455
Ca5 O35 2.423645 1_555
Ca5 O32 2.423645 1_555
Ca5 O30 2.425599 1_555
Ca5 O33 2.425599 1_555
Ca5 O17 2.573851 1_555
Ca5 O14 2.573851 1_555
Ca5 O12 2.574872 1_555
Ca5 O15 2.574872 1_555
Ca6 O7 2.486281 1_555
Ca6 O10 2.486281 1_555
Ca6 O9 2.487950 1_555
Ca6 O6 2.487950 1_555
Ca6 O22 2.522921 1_555
Ca6 O19 2.522921 1_555
Ca6 O21 2.525287 1_655
Ca6 O18 2.525287 1_565
Ca7 O10 2.487513 1_655
Ca7 O7 2.487513 1_565
Ca7 O8 2.489016 1_655
Ca7 O11 2.489016 1_565
Ca7 O20 2.521458 1_655
Ca7 O23 2.521458 1_565
Ca7 O22 2.521563 1_655
Ca7 O19 2.521563 1_565
Ca8 O11 2.489791 1_555
Ca8 O8 2.489791 1_555
Ca8 O6 2.489967 1_545
Ca8 O9 2.489967 1_455
Ca8 O23 2.519297 1_555
Ca8 O20 2.519297 1_555
Ca8 O18 2.521812 1_555
Ca8 O21 2.521812 1_555
Ca9 O13 2.489791 1_555
Ca9 O16 2.489791 1_555
Ca9 O12 2.489967 1_565
Ca9 O15 2.489967 1_655
Ca9 O22 2.519297 1_555
Ca9 O19 2.519297 1_555
Ca9 O18 2.521812 1_565
Ca9 O21 2.521812 1_655
Ca10 O14 2.487513 1_545
Ca10 O17 2.487513 1_455
Ca10 O16 2.489016 1_545
Ca10 O13 2.489016 1_455
Ca10 O22 2.521458 1_545
Ca10 O19 2.521458 1_455
Ca10 O20 2.521563 1_545
Ca10 O23 2.521563 1_455
Ca11 O17 2.486281 1_555
Ca11 O14 2.486281 1_555
Ca11 O15 2.487950 1_555
Ca11 O12 2.487950 1_555
Ca11 O20 2.522921 1_555
Ca11 O23 2.522921 1_555
Ca11 O18 2.525287 1_555
Ca11 O21 2.525287 1_555
Cu0 O8 1.925511 1_655
Cu0 O11 1.925511 1_565
Cu0 O9 1.929697 1_555
Cu0 O6 1.929697 1_555
Cu1 O10 1.922853 1_545
Cu1 O7 1.922853 1_455
Cu1 O6 1.926328 1_545
Cu1 O9 1.926328 1_455
Cu2 O11 1.930907 1_555
Cu2 O8 1.930907 1_555
Cu2 O10 1.931495 1_555
Cu2 O7 1.931495 1_555
Cu3 O17 1.922853 1_565
Cu3 O14 1.922853 1_655
Cu3 O15 1.926328 1_655
Cu3 O12 1.926328 1_565
Cu4 O13 1.925511 1_455
Cu4 O16 1.925511 1_545
Cu4 O12 1.929697 1_555
Cu4 O15 1.929697 1_555
Cu5 O13 1.930907 1_555
Cu5 O16 1.930907 1_555
Cu5 O14 1.931495 1_555
Cu5 O17 1.931495 1_555
Cu6 O24 1.920115 1_555
Cu6 O27 1.920115 1_555
Cu6 O26 1.930913 1_655
Cu6 O29 1.930913 1_565
Cu7 O25 1.928691 1_455
Cu7 O28 1.928691 1_545
Cu7 O24 1.931472 1_545
Cu7 O27 1.931472 1_455
Cu8 O25 1.921534 1_555
Cu8 O28 1.921534 1_555
Cu8 O29 1.934245 1_555
Cu8 O26 1.934245 1_555
Cu9 O32 1.928691 1_655
Cu9 O35 1.928691 1_565
Cu9 O30 1.931472 1_565
Cu9 O33 1.931472 1_655
Cu10 O30 1.920115 1_555
Cu10 O33 1.920115 1_555
Cu10 O34 1.930913 1_545
Cu10 O31 1.930913 1_455
Cu11 O35 1.921534 1_555
Cu11 O32 1.921534 1_555
Cu11 O31 1.934245 1_555
Cu11 O34 1.934245 1_555
Cu12 O21 1.927238 1_655
Cu12 O18 1.927238 1_565
Cu12 O23 1.927265 1_565
Cu12 O20 1.927265 1_655
Cu13 O18 1.927238 1_555
Cu13 O21 1.927238 1_555
Cu13 O22 1.927265 1_545
Cu13 O19 1.927265 1_455
Cu14 O23 1.927638 1_555
Cu14 O20 1.927638 1_555
Cu14 O22 1.927638 1_555
Cu14 O19 1.927638 1_555
Hg0 O3 2.056880 1_445
Hg0 O1 2.056880 1_554
Hg0 O36 2.729266 1_545
Hg0 O36 2.729266 1_455
Hg1 O4 2.044653 1_555
Hg1 O2 2.045085 1_554
Hg1 O36 2.642789 1_555
Hg2 O0 2.044653 1_555
Hg2 O5 2.045085 1_556
Hg2 O36 2.642789 1_556
