# generated using pymatgen
data_KCo
_symmetry_space_group_name_H-M   'P 1'
_cell_length_a   7.39956400
_cell_length_b   21.89838600
_cell_length_c   11.43847600
_cell_angle_alpha   90.00000000
_cell_angle_beta   90.00000000
_cell_angle_gamma   90.00000000
_symmetry_Int_Tables_number   1
_chemical_formula_structural   KCo
_chemical_formula_sum   'K32 Co32'
_cell_volume   1853.47359288
_cell_formula_units_Z   32
loop_
 _symmetry_equiv_pos_site_id
 _symmetry_equiv_pos_as_xyz
  1  'x, y, z'
loop_
 _atom_site_type_symbol
 _atom_site_label
 _atom_site_symmetry_multiplicity
 _atom_site_fract_x
 _atom_site_fract_y
 _atom_site_fract_z
 _atom_site_occupancy
  K  K0_0  1  0.12500000  0.20109700  0.25308550  1
  K  K0_1  1  0.12500000  0.20109700  0.75308550  1
  K  K0_2  1  0.12500000  0.70109700  0.25308550  1
  K  K0_3  1  0.12500000  0.70109700  0.75308550  1
  K  K0_4  1  0.62500000  0.20109700  0.25308550  1
  K  K0_5  1  0.62500000  0.20109700  0.75308550  1
  K  K0_6  1  0.62500000  0.70109700  0.25308550  1
  K  K0_7  1  0.62500000  0.70109700  0.75308550  1
  K  K1_0  1  0.37500000  0.04890300  0.24691450  1
  K  K1_1  1  0.37500000  0.04890300  0.74691450  1
  K  K1_2  1  0.37500000  0.54890300  0.24691450  1
  K  K1_3  1  0.37500000  0.54890300  0.74691450  1
  K  K1_4  1  0.87500000  0.04890300  0.24691450  1
  K  K1_5  1  0.87500000  0.04890300  0.74691450  1
  K  K1_6  1  0.87500000  0.54890300  0.24691450  1
  K  K1_7  1  0.87500000  0.54890300  0.74691450  1
  K  K2_0  1  0.37500000  0.45109700  0.49691450  1
  K  K2_1  1  0.37500000  0.45109700  0.99691450  1
  K  K2_2  1  0.37500000  0.95109700  0.49691450  1
  K  K2_3  1  0.37500000  0.95109700  0.99691450  1
  K  K2_4  1  0.87500000  0.45109700  0.49691450  1
  K  K2_5  1  0.87500000  0.45109700  0.99691450  1
  K  K2_6  1  0.87500000  0.95109700  0.49691450  1
  K  K2_7  1  0.87500000  0.95109700  0.99691450  1
  K  K3_0  1  0.12500000  0.29890300  0.00308550  1
  K  K3_1  1  0.12500000  0.29890300  0.50308550  1
  K  K3_2  1  0.12500000  0.79890300  0.00308550  1
  K  K3_3  1  0.12500000  0.79890300  0.50308550  1
  K  K3_4  1  0.62500000  0.29890300  0.00308550  1
  K  K3_5  1  0.62500000  0.29890300  0.50308550  1
  K  K3_6  1  0.62500000  0.79890300  0.00308550  1
  K  K3_7  1  0.62500000  0.79890300  0.50308550  1
  Co  Co0_0  1  0.12500000  0.40236750  0.24943450  1
  Co  Co0_1  1  0.12500000  0.40236750  0.74943450  1
  Co  Co0_2  1  0.12500000  0.90236750  0.24943450  1
  Co  Co0_3  1  0.12500000  0.90236750  0.74943450  1
  Co  Co0_4  1  0.62500000  0.40236750  0.24943450  1
  Co  Co0_5  1  0.62500000  0.40236750  0.74943450  1
  Co  Co0_6  1  0.62500000  0.90236750  0.24943450  1
  Co  Co0_7  1  0.62500000  0.90236750  0.74943450  1
  Co  Co1_0  1  0.37500000  0.34763250  0.25056550  1
  Co  Co1_1  1  0.37500000  0.34763250  0.75056550  1
  Co  Co1_2  1  0.37500000  0.84763250  0.25056550  1
  Co  Co1_3  1  0.37500000  0.84763250  0.75056550  1
  Co  Co1_4  1  0.87500000  0.34763250  0.25056550  1
  Co  Co1_5  1  0.87500000  0.34763250  0.75056550  1
  Co  Co1_6  1  0.87500000  0.84763250  0.25056550  1
  Co  Co1_7  1  0.87500000  0.84763250  0.75056550  1
  Co  Co2_0  1  0.37500000  0.15236750  0.00056550  1
  Co  Co2_1  1  0.37500000  0.15236750  0.50056550  1
  Co  Co2_2  1  0.37500000  0.65236750  0.00056550  1
  Co  Co2_3  1  0.37500000  0.65236750  0.50056550  1
  Co  Co2_4  1  0.87500000  0.15236750  0.00056550  1
  Co  Co2_5  1  0.87500000  0.15236750  0.50056550  1
  Co  Co2_6  1  0.87500000  0.65236750  0.00056550  1
  Co  Co2_7  1  0.87500000  0.65236750  0.50056550  1
  Co  Co3_0  1  0.12500000  0.09763250  0.49943450  1
  Co  Co3_1  1  0.12500000  0.09763250  0.99943450  1
  Co  Co3_2  1  0.12500000  0.59763250  0.49943450  1
  Co  Co3_3  1  0.12500000  0.59763250  0.99943450  1
  Co  Co3_4  1  0.62500000  0.09763250  0.49943450  1
  Co  Co3_5  1  0.62500000  0.09763250  0.99943450  1
  Co  Co3_6  1  0.62500000  0.59763250  0.49943450  1
  Co  Co3_7  1  0.62500000  0.59763250  0.99943450  1
loop_
_geom_bond_atom_site_label_1
_geom_bond_atom_site_label_2
_geom_bond_distance
_geom_bond_site_symmetry_2
K0_0 K3_0 3.572772 1_555
K0_0 K3_1 3.572772 1_555
K0_0 K0_4 3.699782 1_455
K0_0 K0_4 3.699782 1_555
K0_0 K1_4 3.812434 1_455
K0_0 K1_0 3.812434 1_555
K0_1 K3_1 3.572772 1_555
K0_1 K3_0 3.572772 1_556
K0_1 K0_5 3.699782 1_455
K0_1 K0_5 3.699782 1_555
K0_1 K1_5 3.812434 1_455
K0_1 K1_1 3.812434 1_555
K0_2 K3_3 3.572772 1_555
K0_2 K3_2 3.572772 1_555
K0_2 K0_6 3.699782 1_555
K0_2 K0_6 3.699782 1_455
K0_2 K1_6 3.812434 1_455
K0_2 K1_2 3.812434 1_555
K0_3 K3_3 3.572772 1_555
K0_3 K3_2 3.572772 1_556
K0_3 K0_7 3.699782 1_455
K0_3 K0_7 3.699782 1_555
K0_3 K1_7 3.812434 1_455
K0_3 K1_3 3.812434 1_555
K0_4 K3_4 3.572772 1_555
K0_4 K3_5 3.572772 1_555
K0_4 K1_0 3.812434 1_555
K0_4 K1_4 3.812434 1_555
K0_5 K3_5 3.572772 1_555
K0_5 K3_4 3.572772 1_556
K0_5 K1_1 3.812434 1_555
K0_5 K1_5 3.812434 1_555
K0_6 K3_6 3.572772 1_555
K0_6 K3_7 3.572772 1_555
K0_6 K1_2 3.812434 1_555
K0_6 K1_6 3.812434 1_555
K0_7 K3_7 3.572772 1_555
K0_7 K3_6 3.572772 1_556
K0_7 K1_3 3.812434 1_555
K0_7 K1_7 3.812434 1_555
K1_0 K2_3 3.572772 1_544
K1_0 K2_2 3.572772 1_545
K1_0 K1_4 3.699782 1_455
K1_0 K1_4 3.699782 1_555
K1_1 K2_2 3.572772 1_545
K1_1 K2_3 3.572772 1_545
K1_1 K1_5 3.699782 1_455
K1_1 K1_5 3.699782 1_555
K1_2 K2_1 3.572772 1_554
K1_2 K2_0 3.572772 1_555
K1_2 K1_6 3.699782 1_455
K1_2 K1_6 3.699782 1_555
K1_3 K2_0 3.572772 1_555
K1_3 K2_1 3.572772 1_555
K1_3 K1_7 3.699782 1_455
K1_3 K1_7 3.699782 1_555
K1_4 K2_7 3.572772 1_544
K1_4 K2_6 3.572772 1_545
K1_5 K2_6 3.572772 1_545
K1_5 K2_7 3.572772 1_545
K1_6 K2_5 3.572772 1_554
K1_6 K2_4 3.572772 1_555
K1_7 K2_4 3.572772 1_555
K1_7 K2_5 3.572772 1_555
K2_0 K2_4 3.699782 1_455
K2_0 K2_4 3.699782 1_555
K2_0 K3_5 3.812434 1_555
K2_0 K3_1 3.812434 1_555
K2_1 K2_5 3.699782 1_455
K2_1 K2_5 3.699782 1_555
K2_1 K3_4 3.812434 1_556
K2_1 K3_0 3.812434 1_556
K2_2 K2_6 3.699782 1_455
K2_2 K2_6 3.699782 1_555
K2_2 K3_7 3.812434 1_555
K2_2 K3_3 3.812434 1_555
K2_3 K2_7 3.699782 1_455
K2_3 K2_7 3.699782 1_555
K2_3 K3_6 3.812434 1_556
K2_3 K3_2 3.812434 1_556
K2_4 K3_1 3.812434 1_655
K2_4 K3_5 3.812434 1_555
K2_5 K3_0 3.812434 1_656
K2_5 K3_4 3.812434 1_556
K2_6 K3_3 3.812434 1_655
K2_6 K3_7 3.812434 1_555
K2_7 K3_2 3.812434 1_656
K2_7 K3_6 3.812434 1_556
K3_0 K3_4 3.699782 1_555
K3_0 K3_4 3.699782 1_455
K3_1 K3_5 3.699782 1_455
K3_1 K3_5 3.699782 1_555
K3_2 K3_6 3.699782 1_455
K3_2 K3_6 3.699782 1_555
K3_3 K3_7 3.699782 1_455
K3_3 K3_7 3.699782 1_555
Co0_0 Co1_4 2.204297 1_455
Co0_0 Co1_0 2.204297 1_555
Co0_0 K2_4 3.546010 1_455
Co0_0 K2_0 3.546010 1_555
Co0_0 K2_5 3.592200 1_454
Co0_0 K2_1 3.592200 1_554
Co0_0 K3_0 3.615763 1_555
Co0_0 K3_1 3.681227 1_555
Co0_0 K1_6 3.704040 1_455
Co0_0 K1_2 3.704040 1_555
Co0_1 Co1_5 2.204297 1_455
Co0_1 Co1_1 2.204297 1_555
Co0_1 K2_5 3.546010 1_455
Co0_1 K2_1 3.546010 1_555
Co0_1 K2_4 3.592200 1_455
Co0_1 K2_0 3.592200 1_555
Co0_1 K3_1 3.615763 1_555
Co0_1 K3_0 3.681227 1_556
Co0_1 K1_7 3.704040 1_455
Co0_1 K1_3 3.704040 1_555
Co0_2 Co1_6 2.204297 1_455
Co0_2 Co1_2 2.204297 1_555
Co0_2 K2_6 3.546010 1_455
Co0_2 K2_2 3.546010 1_555
Co0_2 K2_7 3.592200 1_454
Co0_2 K2_3 3.592200 1_554
Co0_2 K3_2 3.615763 1_555
Co0_2 K3_3 3.681227 1_555
Co0_2 K1_4 3.704040 1_465
Co0_2 K1_0 3.704040 1_565
Co0_3 Co1_7 2.204297 1_455
Co0_3 Co1_3 2.204297 1_555
Co0_3 K2_7 3.546010 1_455
Co0_3 K2_3 3.546010 1_555
Co0_3 K2_6 3.592200 1_455
Co0_3 K2_2 3.592200 1_555
Co0_3 K3_3 3.615763 1_555
Co0_3 K3_2 3.681227 1_556
Co0_3 K1_5 3.704040 1_465
Co0_3 K1_1 3.704040 1_565
Co0_4 Co1_0 2.204297 1_555
Co0_4 Co1_4 2.204297 1_555
Co0_4 K2_0 3.546010 1_555
Co0_4 K2_4 3.546010 1_555
Co0_4 K2_1 3.592200 1_554
Co0_4 K2_5 3.592200 1_554
Co0_4 K3_4 3.615763 1_555
Co0_4 K3_5 3.681227 1_555
Co0_4 K1_2 3.704040 1_555
Co0_4 K1_6 3.704040 1_555
Co0_5 Co1_1 2.204297 1_555
Co0_5 Co1_5 2.204297 1_555
Co0_5 K2_1 3.546010 1_555
Co0_5 K2_5 3.546010 1_555
Co0_5 K2_0 3.592200 1_555
Co0_5 K2_4 3.592200 1_555
Co0_5 K3_5 3.615763 1_555
Co0_5 K3_4 3.681227 1_556
Co0_5 K1_3 3.704040 1_555
Co0_5 K1_7 3.704040 1_555
Co0_6 Co1_2 2.204297 1_555
Co0_6 Co1_6 2.204297 1_555
Co0_6 K2_2 3.546010 1_555
Co0_6 K2_6 3.546010 1_555
Co0_6 K2_3 3.592200 1_554
Co0_6 K2_7 3.592200 1_554
Co0_6 K3_6 3.615763 1_555
Co0_6 K3_7 3.681227 1_555
Co0_6 K1_0 3.704040 1_565
Co0_6 K1_4 3.704040 1_565
Co0_7 Co1_3 2.204297 1_555
Co0_7 Co1_7 2.204297 1_555
Co0_7 K2_3 3.546010 1_555
Co0_7 K2_7 3.546010 1_555
Co0_7 K2_2 3.592200 1_555
Co0_7 K2_6 3.592200 1_555
Co0_7 K3_7 3.615763 1_555
Co0_7 K3_6 3.681227 1_556
Co0_7 K1_1 3.704040 1_565
Co0_7 K1_5 3.704040 1_565
Co1_0 K3_4 3.546010 1_555
Co1_0 K3_0 3.546010 1_555
Co1_0 K3_5 3.592200 1_555
Co1_0 K3_1 3.592200 1_555
Co1_0 K2_0 3.615763 1_555
Co1_0 K2_1 3.681227 1_554
Co1_0 K0_4 3.704040 1_555
Co1_0 K0_0 3.704040 1_555
Co1_1 K3_5 3.546010 1_555
Co1_1 K3_1 3.546010 1_555
Co1_1 K3_4 3.592200 1_556
Co1_1 K3_0 3.592200 1_556
Co1_1 K2_1 3.615763 1_555
Co1_1 K2_0 3.681227 1_555
Co1_1 K0_5 3.704040 1_555
Co1_1 K0_1 3.704040 1_555
Co1_2 K3_6 3.546010 1_555
Co1_2 K3_2 3.546010 1_555
Co1_2 K3_7 3.592200 1_555
Co1_2 K3_3 3.592200 1_555
Co1_2 K2_2 3.615763 1_555
Co1_2 K2_3 3.681227 1_554
Co1_2 K0_6 3.704040 1_555
Co1_2 K0_2 3.704040 1_555
Co1_3 K3_7 3.546010 1_555
Co1_3 K3_3 3.546010 1_555
Co1_3 K3_6 3.592200 1_556
Co1_3 K3_2 3.592200 1_556
Co1_3 K2_3 3.615763 1_555
Co1_3 K2_2 3.681227 1_555
Co1_3 K0_7 3.704040 1_555
Co1_3 K0_3 3.704040 1_555
Co1_4 K3_0 3.546010 1_655
Co1_4 K3_4 3.546010 1_555
Co1_4 K3_1 3.592200 1_655
Co1_4 K3_5 3.592200 1_555
Co1_4 K2_4 3.615763 1_555
Co1_4 K2_5 3.681227 1_554
Co1_4 K0_0 3.704040 1_655
Co1_4 K0_4 3.704040 1_555
Co1_5 K3_1 3.546010 1_655
Co1_5 K3_5 3.546010 1_555
Co1_5 K3_0 3.592200 1_656
Co1_5 K3_4 3.592200 1_556
Co1_5 K2_5 3.615763 1_555
Co1_5 K2_4 3.681227 1_555
Co1_5 K0_1 3.704040 1_655
Co1_5 K0_5 3.704040 1_555
Co1_6 K3_2 3.546010 1_655
Co1_6 K3_6 3.546010 1_555
Co1_6 K3_3 3.592200 1_655
Co1_6 K3_7 3.592200 1_555
Co1_6 K2_6 3.615763 1_555
Co1_6 K2_7 3.681227 1_554
Co1_6 K0_2 3.704040 1_655
Co1_6 K0_6 3.704040 1_555
Co1_7 K3_3 3.546010 1_655
Co1_7 K3_7 3.546010 1_555
Co1_7 K3_2 3.592200 1_656
Co1_7 K3_6 3.592200 1_556
Co1_7 K2_7 3.615763 1_555
Co1_7 K2_6 3.681227 1_555
Co1_7 K0_3 3.704040 1_655
Co1_7 K0_7 3.704040 1_555
Co2_0 Co3_5 2.204297 1_554
Co2_0 Co3_1 2.204297 1_554
Co2_0 K0_5 3.546010 1_554
Co2_0 K0_1 3.546010 1_554
Co2_0 K0_4 3.592200 1_555
Co2_0 K0_0 3.592200 1_555
Co2_0 K1_0 3.615763 1_555
Co2_0 K1_1 3.681227 1_554
Co2_0 K3_4 3.704040 1_555
Co2_0 K3_0 3.704040 1_555
Co2_1 Co3_4 2.204297 1_555
Co2_1 Co3_0 2.204297 1_555
Co2_1 K0_4 3.546010 1_555
Co2_1 K0_0 3.546010 1_555
Co2_1 K0_5 3.592200 1_555
Co2_1 K0_1 3.592200 1_555
Co2_1 K1_1 3.615763 1_555
Co2_1 K1_0 3.681227 1_555
Co2_1 K3_5 3.704040 1_555
Co2_1 K3_1 3.704040 1_555
Co2_2 Co3_7 2.204297 1_554
Co2_2 Co3_3 2.204297 1_554
Co2_2 K0_7 3.546010 1_554
Co2_2 K0_3 3.546010 1_554
Co2_2 K0_6 3.592200 1_555
Co2_2 K0_2 3.592200 1_555
Co2_2 K1_2 3.615763 1_555
Co2_2 K1_3 3.681227 1_554
Co2_2 K3_6 3.704040 1_555
Co2_2 K3_2 3.704040 1_555
Co2_3 Co3_6 2.204297 1_555
Co2_3 Co3_2 2.204297 1_555
Co2_3 K0_6 3.546010 1_555
Co2_3 K0_2 3.546010 1_555
Co2_3 K0_7 3.592200 1_555
Co2_3 K0_3 3.592200 1_555
Co2_3 K1_3 3.615763 1_555
Co2_3 K1_2 3.681227 1_555
Co2_3 K3_7 3.704040 1_555
Co2_3 K3_3 3.704040 1_555
Co2_4 Co3_1 2.204297 1_654
Co2_4 Co3_5 2.204297 1_554
Co2_4 K0_1 3.546010 1_654
Co2_4 K0_5 3.546010 1_554
Co2_4 K0_0 3.592200 1_655
Co2_4 K0_4 3.592200 1_555
Co2_4 K1_4 3.615763 1_555
Co2_4 K1_5 3.681227 1_554
Co2_4 K3_0 3.704040 1_655
Co2_4 K3_4 3.704040 1_555
Co2_5 Co3_0 2.204297 1_655
Co2_5 Co3_4 2.204297 1_555
Co2_5 K0_0 3.546010 1_655
Co2_5 K0_4 3.546010 1_555
Co2_5 K0_1 3.592200 1_655
Co2_5 K0_5 3.592200 1_555
Co2_5 K1_5 3.615763 1_555
Co2_5 K1_4 3.681227 1_555
Co2_5 K3_1 3.704040 1_655
Co2_5 K3_5 3.704040 1_555
Co2_6 Co3_3 2.204297 1_654
Co2_6 Co3_7 2.204297 1_554
Co2_6 K0_3 3.546010 1_654
Co2_6 K0_7 3.546010 1_554
Co2_6 K0_2 3.592200 1_655
Co2_6 K0_6 3.592200 1_555
Co2_6 K1_6 3.615763 1_555
Co2_6 K1_7 3.681227 1_554
Co2_6 K3_2 3.704040 1_655
Co2_6 K3_6 3.704040 1_555
Co2_7 Co3_2 2.204297 1_655
Co2_7 Co3_6 2.204297 1_555
Co2_7 K0_2 3.546010 1_655
Co2_7 K0_6 3.546010 1_555
Co2_7 K0_3 3.592200 1_655
Co2_7 K0_7 3.592200 1_555
Co2_7 K1_7 3.615763 1_555
Co2_7 K1_6 3.681227 1_555
Co2_7 K3_3 3.704040 1_655
Co2_7 K3_7 3.704040 1_555
Co3_0 K1_5 3.546010 1_455
Co3_0 K1_1 3.546010 1_555
Co3_0 K1_4 3.592200 1_455
Co3_0 K1_0 3.592200 1_555
Co3_0 K0_0 3.615763 1_555
Co3_0 K0_1 3.681227 1_555
Co3_0 K2_6 3.704040 1_445
Co3_0 K2_2 3.704040 1_545
Co3_1 K1_4 3.546010 1_456
Co3_1 K1_0 3.546010 1_556
Co3_1 K1_5 3.592200 1_455
Co3_1 K1_1 3.592200 1_555
Co3_1 K0_1 3.615763 1_555
Co3_1 K0_0 3.681227 1_556
Co3_1 K2_7 3.704040 1_445
Co3_1 K2_3 3.704040 1_545
Co3_2 K1_7 3.546010 1_455
Co3_2 K1_3 3.546010 1_555
Co3_2 K1_6 3.592200 1_455
Co3_2 K1_2 3.592200 1_555
Co3_2 K0_2 3.615763 1_555
Co3_2 K0_3 3.681227 1_555
Co3_2 K2_4 3.704040 1_455
Co3_2 K2_0 3.704040 1_555
Co3_3 K1_6 3.546010 1_456
Co3_3 K1_2 3.546010 1_556
Co3_3 K1_7 3.592200 1_455
Co3_3 K1_3 3.592200 1_555
Co3_3 K0_3 3.615763 1_555
Co3_3 K0_2 3.681227 1_556
Co3_3 K2_5 3.704040 1_455
Co3_3 K2_1 3.704040 1_555
Co3_4 K1_1 3.546010 1_555
Co3_4 K1_5 3.546010 1_555
Co3_4 K1_0 3.592200 1_555
Co3_4 K1_4 3.592200 1_555
Co3_4 K0_4 3.615763 1_555
Co3_4 K0_5 3.681227 1_555
Co3_4 K2_2 3.704040 1_545
Co3_4 K2_6 3.704040 1_545
Co3_5 K1_0 3.546010 1_556
Co3_5 K1_4 3.546010 1_556
Co3_5 K1_1 3.592200 1_555
Co3_5 K1_5 3.592200 1_555
Co3_5 K0_5 3.615763 1_555
Co3_5 K0_4 3.681227 1_556
Co3_5 K2_3 3.704040 1_545
Co3_5 K2_7 3.704040 1_545
Co3_6 K1_3 3.546010 1_555
Co3_6 K1_7 3.546010 1_555
Co3_6 K1_2 3.592200 1_555
Co3_6 K1_6 3.592200 1_555
Co3_6 K0_6 3.615763 1_555
Co3_6 K0_7 3.681227 1_555
Co3_6 K2_0 3.704040 1_555
Co3_6 K2_4 3.704040 1_555
Co3_7 K1_2 3.546010 1_556
Co3_7 K1_6 3.546010 1_556
Co3_7 K1_3 3.592200 1_555
Co3_7 K1_7 3.592200 1_555
Co3_7 K0_7 3.615763 1_555
Co3_7 K0_6 3.681227 1_556
Co3_7 K2_1 3.704040 1_555
Co3_7 K2_5 3.704040 1_555
