# generated using pymatgen
data_Zr9(CoP2)2
_symmetry_space_group_name_H-M   'P 1'
_cell_length_a   12.08725339
_cell_length_b   12.08725339
_cell_length_c   3.66867031
_cell_angle_alpha   90.00000000
_cell_angle_beta   90.00000000
_cell_angle_gamma   90.00000000
_symmetry_Int_Tables_number   1
_chemical_formula_structural   Zr9(CoP2)2
_chemical_formula_sum   'Zr18 Co4 P8'
_cell_volume   535.99894890
_cell_formula_units_Z   2
loop_
 _symmetry_equiv_pos_site_id
 _symmetry_equiv_pos_as_xyz
  1  'x, y, z'
loop_
 _atom_site_type_symbol
 _atom_site_label
 _atom_site_symmetry_multiplicity
 _atom_site_fract_x
 _atom_site_fract_y
 _atom_site_fract_z
 _atom_site_occupancy
  Zr  Zr0  1  0.18073079  0.10407081  0.50000000  1
  Zr  Zr1  1  0.81926921  0.89592919  0.50000000  1
  Zr  Zr2  1  0.10407081  0.81926921  0.50000000  1
  Zr  Zr3  1  0.68073079  0.39592919  0.50000000  1
  Zr  Zr4  1  0.89592919  0.18073079  0.50000000  1
  Zr  Zr5  1  0.31926921  0.60407081  0.50000000  1
  Zr  Zr6  1  0.60407081  0.68073079  0.50000000  1
  Zr  Zr7  1  0.39592919  0.31926921  0.50000000  1
  Zr  Zr8  1  0.62140172  0.12140172  0.50000000  1
  Zr  Zr9  1  0.37859828  0.87859828  0.50000000  1
  Zr  Zr10  1  0.12140172  0.37859828  0.50000000  1
  Zr  Zr11  1  0.87859828  0.62140172  0.50000000  1
  Zr  Zr12  1  0.00000000  0.00000000  -0.00000000  1
  Zr  Zr13  1  0.50000000  0.50000000  -0.00000000  1
  Zr  Zr14  1  0.09724784  0.59724784  -0.00000000  1
  Zr  Zr15  1  0.90275216  0.40275216  0.00000000  1
  Zr  Zr16  1  0.59724784  0.90275216  0.00000000  1
  Zr  Zr17  1  0.40275216  0.09724784  -0.00000000  1
  Co  Co0  1  0.74990185  0.24990185  0.00000000  1
  Co  Co1  1  0.25009815  0.75009815  -0.00000000  1
  Co  Co2  1  0.24990185  0.25009815  0.00000000  1
  Co  Co3  1  0.75009815  0.74990185  -0.00000000  1
  P  P0  1  0.05697510  0.22495680  -0.00000000  1
  P  P1  1  0.94302490  0.77504320  0.00000000  1
  P  P2  1  0.22495680  0.94302490  -0.00000000  1
  P  P3  1  0.55697510  0.27504320  -0.00000000  1
  P  P4  1  0.77504320  0.05697510  0.00000000  1
  P  P5  1  0.44302490  0.72495680  0.00000000  1
  P  P6  1  0.72495680  0.55697510  0.00000000  1
  P  P7  1  0.27504320  0.44302490  -0.00000000  1
loop_
_geom_bond_atom_site_label_1
_geom_bond_atom_site_label_2
_geom_bond_distance
_geom_bond_site_symmetry_2
Co0 P4 2.351672 1_555
Co0 P3 2.351672 1_555
Co0 Zr15 2.612817 1_555
Co0 Zr3 2.679421 1_554
Co0 Zr3 2.679421 1_555
Co0 Zr4 2.679421 1_555
Co0 Zr4 2.679421 1_554
Co0 Zr8 2.861771 1_555
Co0 Zr8 2.861771 1_554
Co1 P2 2.351672 1_555
Co1 P5 2.351672 1_555
Co1 Zr14 2.612817 1_555
Co1 Zr2 2.679421 1_555
Co1 Zr2 2.679421 1_554
Co1 Zr5 2.679421 1_555
Co1 Zr5 2.679421 1_554
Co1 Zr9 2.861771 1_554
Co1 Zr9 2.861771 1_555
Co2 P7 2.351672 1_555
Co2 P0 2.351672 1_555
Co2 Zr17 2.612817 1_555
Co2 Zr0 2.679421 1_555
Co2 Zr0 2.679421 1_554
Co2 Zr7 2.679421 1_555
Co2 Zr7 2.679421 1_554
Co2 Zr10 2.861771 1_554
Co2 Zr10 2.861771 1_555
Co3 P1 2.351672 1_555
Co3 P6 2.351672 1_555
Co3 Zr16 2.612817 1_555
Co3 Zr6 2.679421 1_554
Co3 Zr1 2.679421 1_555
Co3 Zr6 2.679421 1_555
Co3 Zr1 2.679421 1_554
Co3 Zr11 2.861771 1_554
Co3 Zr11 2.861771 1_555
P0 Zr10 2.723978 1_554
P0 Zr10 2.723978 1_555
P0 Zr4 2.727602 1_454
P0 Zr4 2.727602 1_455
P0 Zr0 2.781627 1_555
P0 Zr0 2.781627 1_554
P0 Zr12 2.804965 1_555
P0 Zr15 2.844896 1_455
P1 Zr11 2.723978 1_555
P1 Zr11 2.723978 1_554
P1 Zr2 2.727602 1_655
P1 Zr2 2.727602 1_654
P1 Zr1 2.781627 1_554
P1 Zr1 2.781627 1_555
P1 Zr12 2.804965 1_665
P1 Zr14 2.844896 1_655
P2 Zr9 2.723978 1_554
P2 Zr9 2.723978 1_555
P2 Zr0 2.727602 1_565
P2 Zr0 2.727602 1_564
P2 Zr2 2.781627 1_554
P2 Zr2 2.781627 1_555
P2 Zr12 2.804965 1_565
P2 Zr17 2.844896 1_565
P3 Zr8 2.723978 1_554
P3 Zr8 2.723978 1_555
P3 Zr7 2.727602 1_555
P3 Zr7 2.727602 1_554
P3 Zr3 2.781627 1_554
P3 Zr3 2.781627 1_555
P3 Zr13 2.804965 1_555
P3 Zr17 2.844896 1_555
P4 Zr8 2.723978 1_555
P4 Zr8 2.723978 1_554
P4 Zr1 2.727602 1_545
P4 Zr1 2.727602 1_544
P4 Zr4 2.781627 1_555
P4 Zr4 2.781627 1_554
P4 Zr12 2.804965 1_655
P4 Zr16 2.844896 1_545
P5 Zr9 2.723978 1_555
P5 Zr9 2.723978 1_554
P5 Zr6 2.727602 1_554
P5 Zr6 2.727602 1_555
P5 Zr5 2.781627 1_555
P5 Zr5 2.781627 1_554
P5 Zr13 2.804965 1_555
P5 Zr16 2.844896 1_555
P6 Zr11 2.723978 1_555
P6 Zr11 2.723978 1_554
P6 Zr3 2.727602 1_554
P6 Zr3 2.727602 1_555
P6 Zr6 2.781627 1_554
P6 Zr6 2.781627 1_555
P6 Zr13 2.804965 1_555
P6 Zr15 2.844896 1_555
P7 Zr10 2.723978 1_554
P7 Zr10 2.723978 1_555
P7 Zr5 2.727602 1_555
P7 Zr5 2.727602 1_554
P7 Zr7 2.781627 1_555
P7 Zr7 2.781627 1_554
P7 Zr13 2.804965 1_555
P7 Zr14 2.844896 1_555
