# generated using pymatgen
data_ZnNi4
_symmetry_space_group_name_H-M   'P 1'
_cell_length_a   20.51443643
_cell_length_b   20.51443643
_cell_length_c   20.51443616
_cell_angle_alpha   14.16264361
_cell_angle_beta   14.16264361
_cell_angle_gamma   14.16264271
_symmetry_Int_Tables_number   1
_chemical_formula_structural   ZnNi4
_chemical_formula_sum   'Zn8 Ni32'
_cell_volume   449.87829490
_cell_formula_units_Z   8
loop_
 _symmetry_equiv_pos_site_id
 _symmetry_equiv_pos_as_xyz
  1  'x, y, z'
loop_
 _atom_site_type_symbol
 _atom_site_label
 _atom_site_symmetry_multiplicity
 _atom_site_fract_x
 _atom_site_fract_y
 _atom_site_fract_z
 _atom_site_occupancy
  Zn  Zn0_0  1  0.00000000  0.00000000  0.00000000  1
  Zn  Zn0_1  1  0.00000000  0.00000000  0.50000000  1
  Zn  Zn0_2  1  0.00000000  0.50000000  0.00000000  1
  Zn  Zn0_3  1  1.00000000  0.50000000  0.50000000  1
  Zn  Zn0_4  1  0.50000000  0.00000000  0.00000000  1
  Zn  Zn0_5  1  0.50000000  1.00000000  0.50000000  1
  Zn  Zn0_6  1  0.50000000  0.50000000  0.00000000  1
  Zn  Zn0_7  1  0.50000000  0.50000000  0.50000000  1
  Ni  Ni0_0  1  0.29934300  0.29934300  0.29934300  1
  Ni  Ni0_1  1  0.29934300  0.29934300  0.79934300  1
  Ni  Ni0_2  1  0.29934300  0.79934300  0.29934300  1
  Ni  Ni0_3  1  0.29934300  0.79934300  0.79934300  1
  Ni  Ni0_4  1  0.79934300  0.29934300  0.29934300  1
  Ni  Ni0_5  1  0.79934300  0.29934300  0.79934300  1
  Ni  Ni0_6  1  0.79934300  0.79934300  0.29934300  1
  Ni  Ni0_7  1  0.79934300  0.79934300  0.79934300  1
  Ni  Ni1_0  1  0.09970900  0.09970900  0.09970900  1
  Ni  Ni1_1  1  0.09970900  0.09970900  0.59970900  1
  Ni  Ni1_2  1  0.09970900  0.59970900  0.09970900  1
  Ni  Ni1_3  1  0.09970900  0.59970900  0.59970900  1
  Ni  Ni1_4  1  0.59970900  0.09970900  0.09970900  1
  Ni  Ni1_5  1  0.59970900  0.09970900  0.59970900  1
  Ni  Ni1_6  1  0.59970900  0.59970900  0.09970900  1
  Ni  Ni1_7  1  0.59970900  0.59970900  0.59970900  1
  Ni  Ni2_0  1  0.40029100  0.40029100  0.40029100  1
  Ni  Ni2_1  1  0.40029100  0.40029100  0.90029100  1
  Ni  Ni2_2  1  0.40029100  0.90029100  0.40029100  1
  Ni  Ni2_3  1  0.40029100  0.90029100  0.90029100  1
  Ni  Ni2_4  1  0.90029100  0.40029100  0.40029100  1
  Ni  Ni2_5  1  0.90029100  0.40029100  0.90029100  1
  Ni  Ni2_6  1  0.90029100  0.90029100  0.40029100  1
  Ni  Ni2_7  1  0.90029100  0.90029100  0.90029100  1
  Ni  Ni3_0  1  0.20065700  0.20065700  0.20065700  1
  Ni  Ni3_1  1  0.20065700  0.20065700  0.70065700  1
  Ni  Ni3_2  1  0.20065700  0.70065700  0.20065700  1
  Ni  Ni3_3  1  0.20065700  0.70065700  0.70065700  1
  Ni  Ni3_4  1  0.70065700  0.20065700  0.20065700  1
  Ni  Ni3_5  1  0.70065700  0.20065700  0.70065700  1
  Ni  Ni3_6  1  0.70065700  0.70065700  0.20065700  1
  Ni  Ni3_7  1  0.70065700  0.70065700  0.70065700  1
loop_
_geom_bond_atom_site_label_1
_geom_bond_atom_site_label_2
_geom_bond_distance
_geom_bond_site_symmetry_2
Zn0_0 Zn0_6 2.528978 1_545
Zn0_0 Zn0_6 2.528978 1_455
Zn0_0 Zn0_3 2.528978 1_454
Zn0_0 Zn0_5 2.528978 1_544
Zn0_0 Zn0_3 2.528978 1_445
Zn0_0 Zn0_5 2.528978 1_445
Zn0_1 Zn0_7 2.528978 1_545
Zn0_1 Zn0_7 2.528978 1_455
Zn0_1 Zn0_2 2.528978 1_546
Zn0_1 Zn0_4 2.528978 1_555
Zn0_1 Zn0_4 2.528978 1_456
Zn0_1 Zn0_2 2.528978 1_555
Zn0_2 Zn0_4 2.528978 1_555
Zn0_2 Zn0_4 2.528978 1_465
Zn0_2 Zn0_7 2.528978 1_455
Zn0_2 Zn0_7 2.528978 1_554
Zn0_3 Zn0_5 2.528978 1_555
Zn0_3 Zn0_5 2.528978 1_645
Zn0_3 Zn0_6 2.528978 1_556
Zn0_3 Zn0_6 2.528978 1_655
Zn0_4 Zn0_7 2.528978 1_545
Zn0_4 Zn0_7 2.528978 1_554
Zn0_5 Zn0_6 2.528978 1_556
Zn0_5 Zn0_6 2.528978 1_565
Ni0_0 Ni1_2 2.482943 1_555
Ni0_0 Ni1_4 2.482943 1_555
Ni0_0 Ni1_1 2.482943 1_555
Ni0_0 Ni0_6 2.528978 1_545
Ni0_0 Ni0_6 2.528978 1_455
Ni0_0 Ni0_5 2.528978 1_554
Ni0_0 Ni0_3 2.528978 1_554
Ni0_0 Ni0_3 2.528978 1_545
Ni0_0 Ni0_5 2.528978 1_455
Ni0_0 Zn0_5 2.533612 1_545
Ni0_0 Zn0_3 2.533612 1_455
Ni0_0 Zn0_6 2.533612 1_555
Ni0_1 Ni1_5 2.482943 1_555
Ni0_1 Ni1_3 2.482943 1_555
Ni0_1 Ni1_0 2.482943 1_556
Ni0_1 Ni0_7 2.528978 1_545
Ni0_1 Ni0_7 2.528978 1_455
Ni0_1 Ni0_2 2.528978 1_555
Ni0_1 Ni0_4 2.528978 1_456
Ni0_1 Ni0_2 2.528978 1_546
Ni0_1 Ni0_4 2.528978 1_555
Ni0_1 Zn0_2 2.533612 1_556
Ni0_1 Zn0_4 2.533612 1_556
Ni0_1 Zn0_7 2.533612 1_555
Ni0_2 Ni1_6 2.482943 1_555
Ni0_2 Ni1_0 2.482943 1_565
Ni0_2 Ni1_3 2.482943 1_555
Ni0_2 Ni0_4 2.528978 1_555
Ni0_2 Ni0_4 2.528978 1_465
Ni0_2 Ni0_7 2.528978 1_455
Ni0_2 Ni0_7 2.528978 1_554
Ni0_2 Zn0_1 2.533612 1_565
Ni0_2 Zn0_7 2.533612 1_555
Ni0_2 Zn0_4 2.533612 1_565
Ni0_3 Ni1_1 2.482943 1_565
Ni0_3 Ni1_7 2.482943 1_555
Ni0_3 Ni1_2 2.482943 1_556
Ni0_3 Ni0_5 2.528978 1_465
Ni0_3 Ni0_5 2.528978 1_555
Ni0_3 Ni0_6 2.528978 1_555
Ni0_3 Ni0_6 2.528978 1_456
Ni0_3 Zn0_6 2.533612 1_556
Ni0_3 Zn0_0 2.533612 1_566
Ni0_3 Zn0_5 2.533612 1_555
Ni0_4 Ni1_6 2.482943 1_555
Ni0_4 Ni1_0 2.482943 1_655
Ni0_4 Ni1_5 2.482943 1_555
Ni0_4 Ni0_7 2.528978 1_554
Ni0_4 Ni0_7 2.528978 1_545
Ni0_4 Zn0_7 2.533612 1_555
Ni0_4 Zn0_1 2.533612 1_655
Ni0_4 Zn0_2 2.533612 1_655
Ni0_5 Ni1_1 2.482943 1_655
Ni0_5 Ni1_7 2.482943 1_555
Ni0_5 Ni1_4 2.482943 1_556
Ni0_5 Ni0_6 2.528978 1_555
Ni0_5 Ni0_6 2.528978 1_546
Ni0_5 Zn0_0 2.533612 1_656
Ni0_5 Zn0_6 2.533612 1_556
Ni0_5 Zn0_3 2.533612 1_555
Ni0_6 Ni1_2 2.482943 1_655
Ni0_6 Ni1_4 2.482943 1_565
Ni0_6 Ni1_7 2.482943 1_555
Ni0_6 Zn0_3 2.533612 1_555
Ni0_6 Zn0_5 2.533612 1_555
Ni0_6 Zn0_0 2.533612 1_665
Ni0_7 Ni1_3 2.482943 1_655
Ni0_7 Ni1_5 2.482943 1_565
Ni0_7 Ni1_6 2.482943 1_556
Ni0_7 Zn0_4 2.533612 1_566
Ni0_7 Zn0_2 2.533612 1_656
Ni0_7 Zn0_1 2.533612 1_665
Ni1_0 Ni2_5 2.472313 1_454
Ni1_0 Ni2_3 2.472313 1_544
Ni1_0 Ni2_6 2.472313 1_445
Ni1_0 Ni1_6 2.528978 1_545
Ni1_0 Ni1_6 2.528978 1_455
Ni1_0 Ni1_3 2.528978 1_554
Ni1_0 Ni1_5 2.528978 1_455
Ni1_0 Ni1_5 2.528978 1_554
Ni1_0 Ni1_3 2.528978 1_545
Ni1_1 Ni2_2 2.472313 1_545
Ni1_1 Ni2_4 2.472313 1_455
Ni1_1 Ni2_7 2.472313 1_445
Ni1_1 Ni1_7 2.528978 1_545
Ni1_1 Ni1_7 2.528978 1_455
Ni1_1 Ni1_4 2.528978 1_555
Ni1_1 Ni1_2 2.528978 1_555
Ni1_1 Ni1_2 2.528978 1_546
Ni1_1 Ni1_4 2.528978 1_456
Ni1_2 Ni2_7 2.472313 1_454
Ni1_2 Ni2_1 2.472313 1_554
Ni1_2 Ni2_4 2.472313 1_455
Ni1_2 Ni1_4 2.528978 1_465
Ni1_2 Ni1_4 2.528978 1_555
Ni1_2 Ni1_7 2.528978 1_455
Ni1_2 Ni1_7 2.528978 1_554
Ni1_3 Ni2_6 2.472313 1_455
Ni1_3 Ni2_0 2.472313 1_555
Ni1_3 Ni2_5 2.472313 1_455
Ni1_3 Ni1_5 2.528978 1_555
Ni1_3 Ni1_5 2.528978 1_465
Ni1_3 Ni1_6 2.528978 1_555
Ni1_3 Ni1_6 2.528978 1_456
Ni1_4 Ni2_7 2.472313 1_544
Ni1_4 Ni2_1 2.472313 1_554
Ni1_4 Ni2_2 2.472313 1_545
Ni1_4 Ni1_7 2.528978 1_545
Ni1_4 Ni1_7 2.528978 1_554
Ni1_5 Ni2_6 2.472313 1_545
Ni1_5 Ni2_0 2.472313 1_555
Ni1_5 Ni2_3 2.472313 1_545
Ni1_5 Ni1_6 2.528978 1_555
Ni1_5 Ni1_6 2.528978 1_546
Ni1_6 Ni2_3 2.472313 1_554
Ni1_6 Ni2_5 2.472313 1_554
Ni1_6 Ni2_0 2.472313 1_555
Ni1_7 Ni2_4 2.472313 1_555
Ni1_7 Ni2_2 2.472313 1_555
Ni1_7 Ni2_1 2.472313 1_555
Ni2_0 Ni3_2 2.482943 1_555
Ni2_0 Ni3_4 2.482943 1_555
Ni2_0 Ni3_1 2.482943 1_555
Ni2_0 Ni2_6 2.528978 1_455
Ni2_0 Ni2_6 2.528978 1_545
Ni2_0 Ni2_5 2.528978 1_455
Ni2_0 Ni2_3 2.528978 1_545
Ni2_0 Ni2_3 2.528978 1_554
Ni2_0 Ni2_5 2.528978 1_554
Ni2_1 Ni3_3 2.482943 1_555
Ni2_1 Ni3_5 2.482943 1_555
Ni2_1 Ni3_0 2.482943 1_556
Ni2_1 Ni2_7 2.528978 1_455
Ni2_1 Ni2_7 2.528978 1_545
Ni2_1 Ni2_2 2.528978 1_546
Ni2_1 Ni2_4 2.528978 1_555
Ni2_1 Ni2_2 2.528978 1_555
Ni2_1 Ni2_4 2.528978 1_456
Ni2_2 Ni3_0 2.482943 1_565
Ni2_2 Ni3_6 2.482943 1_555
Ni2_2 Ni3_3 2.482943 1_555
Ni2_2 Ni2_4 2.528978 1_555
Ni2_2 Ni2_4 2.528978 1_465
Ni2_2 Ni2_7 2.528978 1_554
Ni2_2 Ni2_7 2.528978 1_455
Ni2_3 Ni3_7 2.482943 1_555
Ni2_3 Ni3_1 2.482943 1_565
Ni2_3 Ni3_2 2.482943 1_556
Ni2_3 Ni2_5 2.528978 1_555
Ni2_3 Ni2_5 2.528978 1_465
Ni2_3 Ni2_6 2.528978 1_555
Ni2_3 Ni2_6 2.528978 1_456
Ni2_4 Ni3_0 2.482943 1_655
Ni2_4 Ni3_6 2.482943 1_555
Ni2_4 Ni3_5 2.482943 1_555
Ni2_4 Ni2_7 2.528978 1_554
Ni2_4 Ni2_7 2.528978 1_545
Ni2_5 Ni3_7 2.482943 1_555
Ni2_5 Ni3_1 2.482943 1_655
Ni2_5 Ni3_4 2.482943 1_556
Ni2_5 Ni2_6 2.528978 1_546
Ni2_5 Ni2_6 2.528978 1_555
Ni2_6 Ni3_2 2.482943 1_655
Ni2_6 Ni3_4 2.482943 1_565
Ni2_6 Ni3_7 2.482943 1_555
Ni2_7 Ni3_5 2.482943 1_565
Ni2_7 Ni3_3 2.482943 1_655
Ni2_7 Ni3_6 2.482943 1_556
Ni3_0 Ni3_6 2.528978 1_455
Ni3_0 Ni3_6 2.528978 1_545
Ni3_0 Ni3_3 2.528978 1_554
Ni3_0 Ni3_5 2.528978 1_554
Ni3_0 Ni3_3 2.528978 1_545
Ni3_0 Ni3_5 2.528978 1_455
Ni3_0 Zn0_4 2.533612 1_555
Ni3_0 Zn0_2 2.533612 1_555
Ni3_0 Zn0_1 2.533612 1_555
Ni3_1 Ni3_7 2.528978 1_455
Ni3_1 Ni3_7 2.528978 1_545
Ni3_1 Ni3_4 2.528978 1_456
Ni3_1 Ni3_2 2.528978 1_546
Ni3_1 Ni3_2 2.528978 1_555
Ni3_1 Ni3_4 2.528978 1_555
Ni3_1 Zn0_5 2.533612 1_545
Ni3_1 Zn0_3 2.533612 1_455
Ni3_1 Zn0_0 2.533612 1_556
Ni3_2 Ni3_4 2.528978 1_555
Ni3_2 Ni3_4 2.528978 1_465
Ni3_2 Ni3_7 2.528978 1_554
Ni3_2 Ni3_7 2.528978 1_455
Ni3_2 Zn0_0 2.533612 1_565
Ni3_2 Zn0_6 2.533612 1_555
Ni3_2 Zn0_3 2.533612 1_455
Ni3_3 Ni3_5 2.528978 1_465
Ni3_3 Ni3_5 2.528978 1_555
Ni3_3 Ni3_6 2.528978 1_456
Ni3_3 Ni3_6 2.528978 1_555
Ni3_3 Zn0_1 2.533612 1_565
Ni3_3 Zn0_7 2.533612 1_555
Ni3_3 Zn0_2 2.533612 1_556
Ni3_4 Ni3_7 2.528978 1_554
Ni3_4 Ni3_7 2.528978 1_545
Ni3_4 Zn0_0 2.533612 1_655
Ni3_4 Zn0_6 2.533612 1_555
Ni3_4 Zn0_5 2.533612 1_545
Ni3_5 Ni3_6 2.528978 1_546
Ni3_5 Ni3_6 2.528978 1_555
Ni3_5 Zn0_1 2.533612 1_655
Ni3_5 Zn0_7 2.533612 1_555
Ni3_5 Zn0_4 2.533612 1_556
Ni3_6 Zn0_2 2.533612 1_655
Ni3_6 Zn0_4 2.533612 1_565
Ni3_6 Zn0_7 2.533612 1_555
Ni3_7 Zn0_3 2.533612 1_555
Ni3_7 Zn0_5 2.533612 1_555
Ni3_7 Zn0_6 2.533612 1_556
