# generated using pymatgen
data_Na2H14CO10
_symmetry_space_group_name_H-M   'P 1'
_cell_length_a   7.06586643
_cell_length_b   14.63840995
_cell_length_c   19.42925863
_cell_angle_alpha   90.00000000
_cell_angle_beta   90.00000000
_cell_angle_gamma   90.00000000
_symmetry_Int_Tables_number   1
_chemical_formula_structural   Na2H14CO10
_chemical_formula_sum   'Na16 H112 C8 O80'
_cell_volume   2009.62746874
_cell_formula_units_Z   8
loop_
 _symmetry_equiv_pos_site_id
 _symmetry_equiv_pos_as_xyz
  1  'x, y, z'
loop_
 _atom_site_type_symbol
 _atom_site_label
 _atom_site_symmetry_multiplicity
 _atom_site_fract_x
 _atom_site_fract_y
 _atom_site_fract_z
 _atom_site_occupancy
  Na  Na0  1  0.44801514  0.01141412  0.22849611  1
  Na  Na1  1  0.55198486  0.51141412  0.27150389  1
  Na  Na2  1  0.05198486  0.98858588  0.72849611  1
  Na  Na3  1  0.94801514  0.48858588  0.77150389  1
  Na  Na4  1  0.55198486  0.98858588  0.77150389  1
  Na  Na5  1  0.44801514  0.48858588  0.72849611  1
  Na  Na6  1  0.94801514  0.01141412  0.27150389  1
  Na  Na7  1  0.05198486  0.51141412  0.22849611  1
  Na  Na8  1  0.14759411  0.94800738  0.05532141  1
  Na  Na9  1  0.85240589  0.44800738  0.44467859  1
  Na  Na10  1  0.35240589  0.05199262  0.55532141  1
  Na  Na11  1  0.64759411  0.55199262  0.94467859  1
  Na  Na12  1  0.85240589  0.05199262  0.94467859  1
  Na  Na13  1  0.14759411  0.55199262  0.55532141  1
  Na  Na14  1  0.64759411  0.94800738  0.44467859  1
  Na  Na15  1  0.35240589  0.44800738  0.05532141  1
  H  H0  1  0.50940431  0.03815055  0.07733309  1
  H  H1  1  0.49059569  0.53815055  0.42266691  1
  H  H2  1  0.99059569  0.96184945  0.57733309  1
  H  H3  1  0.00940431  0.46184945  0.92266691  1
  H  H4  1  0.49059569  0.96184945  0.92266691  1
  H  H5  1  0.50940431  0.46184945  0.57733309  1
  H  H6  1  0.00940431  0.03815055  0.42266691  1
  H  H7  1  0.99059569  0.53815055  0.07733309  1
  H  H8  1  0.50947747  0.93206516  0.09713582  1
  H  H9  1  0.49052253  0.43206516  0.40286418  1
  H  H10  1  0.99052253  0.06793484  0.59713582  1
  H  H11  1  0.00947747  0.56793484  0.90286418  1
  H  H12  1  0.49052253  0.06793484  0.90286418  1
  H  H13  1  0.50947747  0.56793484  0.59713582  1
  H  H14  1  0.00947747  0.93206516  0.40286418  1
  H  H15  1  0.99052253  0.43206516  0.09713582  1
  H  H16  1  0.35244288  0.65727962  0.20954736  1
  H  H17  1  0.64755712  0.15727962  0.29045264  1
  H  H18  1  0.14755712  0.34272038  0.70954736  1
  H  H19  1  0.85244288  0.84272038  0.79045264  1
  H  H20  1  0.64755712  0.34272038  0.79045264  1
  H  H21  1  0.35244288  0.84272038  0.70954736  1
  H  H22  1  0.85244288  0.65727962  0.29045264  1
  H  H23  1  0.14755712  0.15727962  0.20954736  1
  H  H24  1  0.72251503  0.16860559  0.21358770  1
  H  H25  1  0.27748497  0.66860559  0.28641230  1
  H  H26  1  0.77748497  0.83139441  0.71358770  1
  H  H27  1  0.22251503  0.33139441  0.78641230  1
  H  H28  1  0.27748497  0.83139441  0.78641230  1
  H  H29  1  0.72251503  0.33139441  0.71358770  1
  H  H30  1  0.22251503  0.16860559  0.28641230  1
  H  H31  1  0.77748497  0.66860559  0.21358770  1
  H  H32  1  0.16812476  0.86802917  0.20987814  1
  H  H33  1  0.83187524  0.36802917  0.29012186  1
  H  H34  1  0.33187524  0.13197083  0.70987814  1
  H  H35  1  0.66812476  0.63197083  0.79012186  1
  H  H36  1  0.83187524  0.13197083  0.79012186  1
  H  H37  1  0.16812476  0.63197083  0.70987814  1
  H  H38  1  0.66812476  0.86802917  0.29012186  1
  H  H39  1  0.33187524  0.36802917  0.20987814  1
  H  H40  1  0.22692668  0.65287929  0.78615640  1
  H  H41  1  0.77307332  0.15287929  0.71384360  1
  H  H42  1  0.27307332  0.34712071  0.28615640  1
  H  H43  1  0.72692668  0.84712071  0.21384360  1
  H  H44  1  0.77307332  0.34712071  0.21384360  1
  H  H45  1  0.22692668  0.84712071  0.28615640  1
  H  H46  1  0.72692668  0.65287929  0.71384360  1
  H  H47  1  0.27307332  0.15287929  0.78615640  1
  H  H48  1  0.23153178  0.76939954  0.12428123  1
  H  H49  1  0.76846822  0.26939954  0.37571877  1
  H  H50  1  0.26846822  0.23060046  0.62428123  1
  H  H51  1  0.73153178  0.73060046  0.87571877  1
  H  H52  1  0.76846822  0.23060046  0.87571877  1
  H  H53  1  0.23153178  0.73060046  0.62428123  1
  H  H54  1  0.73153178  0.76939954  0.37571877  1
  H  H55  1  0.26846822  0.26939954  0.12428123  1
  H  H56  1  0.00625606  0.78551120  0.13137282  1
  H  H57  1  0.99374394  0.28551120  0.36862718  1
  H  H58  1  0.49374394  0.21448880  0.63137282  1
  H  H59  1  0.50625606  0.71448880  0.86862718  1
  H  H60  1  0.99374394  0.21448880  0.86862718  1
  H  H61  1  0.00625606  0.71448880  0.63137282  1
  H  H62  1  0.50625606  0.78551120  0.36862718  1
  H  H63  1  0.49374394  0.28551120  0.13137282  1
  H  H64  1  0.38998351  0.64348294  0.04253963  1
  H  H65  1  0.61001649  0.14348294  0.45746037  1
  H  H66  1  0.11001649  0.35651706  0.54253963  1
  H  H67  1  0.88998351  0.85651706  0.95746037  1
  H  H68  1  0.61001649  0.35651706  0.95746037  1
  H  H69  1  0.38998351  0.85651706  0.54253963  1
  H  H70  1  0.88998351  0.64348294  0.45746037  1
  H  H71  1  0.11001649  0.14348294  0.04253963  1
  H  H72  1  0.27769376  0.62901073  0.97303667  1
  H  H73  1  0.72230624  0.12901073  0.52696333  1
  H  H74  1  0.22230624  0.37098927  0.47303667  1
  H  H75  1  0.77769376  0.87098927  0.02696333  1
  H  H76  1  0.72230624  0.37098927  0.02696333  1
  H  H77  1  0.27769376  0.87098927  0.47303667  1
  H  H78  1  0.77769376  0.62901073  0.52696333  1
  H  H79  1  0.22230624  0.12901073  0.97303667  1
  H  H80  1  0.81496083  0.00408323  0.14642349  1
  H  H81  1  0.18503917  0.50408323  0.35357651  1
  H  H82  1  0.68503917  0.99591677  0.64642349  1
  H  H83  1  0.31496083  0.49591677  0.85357651  1
  H  H84  1  0.18503917  0.99591677  0.85357651  1
  H  H85  1  0.81496083  0.49591677  0.64642349  1
  H  H86  1  0.31496083  0.00408323  0.35357651  1
  H  H87  1  0.68503917  0.50408323  0.14642349  1
  H  H88  1  0.54147082  0.58542664  0.13681718  1
  H  H89  1  0.45852918  0.08542664  0.36318282  1
  H  H90  1  0.95852918  0.41457336  0.63681718  1
  H  H91  1  0.04147082  0.91457336  0.86318282  1
  H  H92  1  0.45852918  0.41457336  0.86318282  1
  H  H93  1  0.54147082  0.91457336  0.63681718  1
  H  H94  1  0.04147082  0.58542664  0.36318282  1
  H  H95  1  0.95852918  0.08542664  0.13681718  1
  H  H96  1  0.84252709  0.66574154  0.06890012  1
  H  H97  1  0.15747291  0.16574154  0.43109988  1
  H  H98  1  0.65747291  0.33425846  0.56890012  1
  H  H99  1  0.34252709  0.83425846  0.93109988  1
  H  H100  1  0.15747291  0.33425846  0.93109988  1
  H  H101  1  0.84252709  0.83425846  0.56890012  1
  H  H102  1  0.34252709  0.66574154  0.43109988  1
  H  H103  1  0.65747291  0.16574154  0.06890012  1
  H  H104  1  0.05338201  0.34712725  0.00365650  1
  H  H105  1  0.94661799  0.84712725  0.49634350  1
  H  H106  1  0.44661799  0.65287275  0.50365650  1
  H  H107  1  0.55338201  0.15287275  0.99634350  1
  H  H108  1  0.94661799  0.65287275  0.99634350  1
  H  H109  1  0.05338201  0.15287275  0.50365650  1
  H  H110  1  0.55338201  0.34712725  0.49634350  1
  H  H111  1  0.44661799  0.84712725  0.00365650  1
  C  C0  1  0.90097960  0.25670819  0.11303423  1
  C  C1  1  0.09902040  0.75670819  0.38696577  1
  C  C2  1  0.59902040  0.74329181  0.61303423  1
  C  C3  1  0.40097960  0.24329181  0.88696577  1
  C  C4  1  0.09902040  0.74329181  0.88696577  1
  C  C5  1  0.90097960  0.24329181  0.61303423  1
  C  C6  1  0.40097960  0.25670819  0.38696577  1
  C  C7  1  0.59902040  0.75670819  0.11303423  1
  O  O0  1  0.45141312  0.99202850  0.10874715  1
  O  O1  1  0.54858688  0.49202850  0.39125285  1
  O  O2  1  0.04858688  0.00797150  0.60874715  1
  O  O3  1  0.95141312  0.50797150  0.89125285  1
  O  O4  1  0.54858688  0.00797150  0.89125285  1
  O  O5  1  0.45141312  0.50797150  0.60874715  1
  O  O6  1  0.95141312  0.99202850  0.39125285  1
  O  O7  1  0.04858688  0.49202850  0.10874715  1
  O  O8  1  0.70039555  0.12326943  0.25123906  1
  O  O9  1  0.29960445  0.62326943  0.24876094  1
  O  O10  1  0.79960445  0.87673057  0.75123906  1
  O  O11  1  0.20039555  0.37673057  0.74876094  1
  O  O12  1  0.29960445  0.87673057  0.74876094  1
  O  O13  1  0.70039555  0.37673057  0.75123906  1
  O  O14  1  0.20039555  0.12326943  0.24876094  1
  O  O15  1  0.79960445  0.62326943  0.25123906  1
  O  O16  1  0.19720553  0.89781240  0.25501453  1
  O  O17  1  0.80279447  0.39781240  0.24498547  1
  O  O18  1  0.30279447  0.10218760  0.75501453  1
  O  O19  1  0.69720553  0.60218760  0.74498547  1
  O  O20  1  0.80279447  0.10218760  0.74498547  1
  O  O21  1  0.19720553  0.60218760  0.75501453  1
  O  O22  1  0.69720553  0.89781240  0.24498547  1
  O  O23  1  0.30279447  0.39781240  0.25501453  1
  O  O24  1  0.13125812  0.81608853  0.13089857  1
  O  O25  1  0.86874188  0.31608853  0.36910143  1
  O  O26  1  0.36874188  0.18391147  0.63089857  1
  O  O27  1  0.63125812  0.68391147  0.86910143  1
  O  O28  1  0.86874188  0.18391147  0.86910143  1
  O  O29  1  0.13125812  0.68391147  0.63089857  1
  O  O30  1  0.63125812  0.81608853  0.36910143  1
  O  O31  1  0.36874188  0.31608853  0.13089857  1
  O  O32  1  0.62837027  0.40014797  0.99576786  1
  O  O33  1  0.37162973  0.90014797  0.50423214  1
  O  O34  1  0.87162973  0.59985203  0.49576786  1
  O  O35  1  0.12837027  0.09985203  0.00423214  1
  O  O36  1  0.37162973  0.59985203  0.00423214  1
  O  O37  1  0.62837027  0.09985203  0.49576786  1
  O  O38  1  0.12837027  0.40014797  0.50423214  1
  O  O39  1  0.87162973  0.90014797  0.99576786  1
  O  O40  1  0.55058388  0.51850691  0.14463073  1
  O  O41  1  0.44941612  0.01850691  0.35536927  1
  O  O42  1  0.94941612  0.48149309  0.64463073  1
  O  O43  1  0.05058388  0.98149309  0.85536927  1
  O  O44  1  0.44941612  0.48149309  0.85536927  1
  O  O45  1  0.55058388  0.98149309  0.64463073  1
  O  O46  1  0.05058388  0.51850691  0.35536927  1
  O  O47  1  0.94941612  0.01850691  0.14463073  1
  O  O48  1  0.13095710  0.37897162  0.96778062  1
  O  O49  1  0.86904290  0.87897162  0.53221938  1
  O  O50  1  0.36904290  0.62102838  0.46778062  1
  O  O51  1  0.63095710  0.12102838  0.03221938  1
  O  O52  1  0.86904290  0.62102838  0.03221938  1
  O  O53  1  0.13095710  0.12102838  0.46778062  1
  O  O54  1  0.63095710  0.37897162  0.53221938  1
  O  O55  1  0.36904290  0.87897162  0.96778062  1
  O  O56  1  0.04568238  0.20288864  0.12285750  1
  O  O57  1  0.95431762  0.70288864  0.37714250  1
  O  O58  1  0.45431762  0.79711136  0.62285750  1
  O  O59  1  0.54568238  0.29711136  0.87714250  1
  O  O60  1  0.95431762  0.79711136  0.87714250  1
  O  O61  1  0.04568238  0.29711136  0.62285750  1
  O  O62  1  0.54568238  0.20288864  0.37714250  1
  O  O63  1  0.45431762  0.70288864  0.12285750  1
  O  O64  1  0.91399362  0.32616510  0.07187765  1
  O  O65  1  0.08600638  0.82616510  0.42812235  1
  O  O66  1  0.58600638  0.67383490  0.57187765  1
  O  O67  1  0.41399362  0.17383490  0.92812235  1
  O  O68  1  0.08600638  0.67383490  0.92812235  1
  O  O69  1  0.91399362  0.17383490  0.57187765  1
  O  O70  1  0.41399362  0.32616510  0.42812235  1
  O  O71  1  0.58600638  0.82616510  0.07187765  1
  O  O72  1  0.24016256  0.25996201  0.85616229  1
  O  O73  1  0.75983744  0.75996201  0.64383771  1
  O  O74  1  0.25983744  0.74003799  0.35616229  1
  O  O75  1  0.74016256  0.24003799  0.14383771  1
  O  O76  1  0.75983744  0.74003799  0.14383771  1
  O  O77  1  0.24016256  0.24003799  0.35616229  1
  O  O78  1  0.74016256  0.25996201  0.64383771  1
  O  O79  1  0.25983744  0.75996201  0.85616229  1
loop_
_geom_bond_atom_site_label_1
_geom_bond_atom_site_label_2
_geom_bond_distance
_geom_bond_site_symmetry_2
Na0 O0 2.343998 1_545
Na0 O14 2.428439 1_555
Na0 O22 2.443003 1_545
Na0 O8 2.460974 1_555
Na0 O41 2.467257 1_555
Na0 O16 2.484253 1_545
Na1 O1 2.343998 1_555
Na1 O15 2.428439 1_555
Na1 O23 2.443003 1_555
Na1 O9 2.460974 1_555
Na1 O40 2.467257 1_555
Na1 O17 2.484253 1_555
Na2 O2 2.343998 1_565
Na2 O12 2.428439 1_555
Na2 O20 2.443003 1_465
Na2 O10 2.460974 1_455
Na2 O43 2.467257 1_555
Na2 O18 2.484253 1_565
Na3 O3 2.343998 1_555
Na3 O13 2.428439 1_555
Na3 O21 2.443003 1_655
Na3 O11 2.460974 1_655
Na3 O42 2.467257 1_555
Na3 O19 2.484253 1_555
Na4 O4 2.343998 1_565
Na4 O10 2.428439 1_555
Na4 O18 2.443003 1_565
Na4 O12 2.460974 1_555
Na4 O45 2.467257 1_555
Na4 O20 2.484253 1_565
Na5 O5 2.343998 1_555
Na5 O11 2.428439 1_555
Na5 O19 2.443003 1_555
Na5 O13 2.460974 1_555
Na5 O44 2.467257 1_555
Na5 O21 2.484253 1_555
Na6 O6 2.343998 1_545
Na6 O8 2.428439 1_555
Na6 O16 2.443003 1_645
Na6 O14 2.460974 1_655
Na6 O47 2.467257 1_555
Na6 O22 2.484253 1_545
Na7 O7 2.343998 1_555
Na7 O9 2.428439 1_555
Na7 O17 2.443003 1_455
Na7 O15 2.460974 1_455
Na7 O46 2.467257 1_555
Na7 O23 2.484253 1_555
Na8 O39 2.373157 1_454
Na8 O24 2.428708 1_555
Na8 O35 2.438122 1_565
Na8 O47 2.456996 1_465
Na8 O0 2.470072 1_555
Na8 O55 2.522406 1_554
Na9 O38 2.373157 1_655
Na9 O25 2.428708 1_555
Na9 O34 2.438122 1_555
Na9 O46 2.456996 1_655
Na9 O1 2.470072 1_555
Na9 O54 2.522406 1_555
Na10 O37 2.373157 1_555
Na10 O26 2.428708 1_555
Na10 O33 2.438122 1_545
Na10 O45 2.456996 1_545
Na10 O2 2.470072 1_555
Na10 O53 2.522406 1_555
Na11 O36 2.373157 1_556
Na11 O27 2.428708 1_555
Na11 O32 2.438122 1_555
Na11 O44 2.456996 1_555
Na11 O3 2.470072 1_555
Na11 O52 2.522406 1_556
Na12 O35 2.373157 1_656
Na12 O28 2.428708 1_555
Na12 O39 2.438122 1_545
Na12 O43 2.456996 1_645
Na12 O4 2.470072 1_555
Na12 O51 2.522406 1_556
Na13 O34 2.373157 1_455
Na13 O29 2.428708 1_555
Na13 O38 2.438122 1_555
Na13 O42 2.456996 1_455
Na13 O5 2.470072 1_555
Na13 O50 2.522406 1_555
Na14 O33 2.373157 1_555
Na14 O30 2.428708 1_555
Na14 O37 2.438122 1_565
Na14 O41 2.456996 1_565
Na14 O6 2.470072 1_555
Na14 O49 2.522406 1_555
Na15 O32 2.373157 1_554
Na15 O31 2.428708 1_555
Na15 O36 2.438122 1_555
Na15 O40 2.456996 1_555
Na15 O7 2.470072 1_555
Na15 O48 2.522406 1_554
H0 O0 0.998130 1_545
H1 O1 0.998130 1_555
H2 O2 0.998130 1_665
H3 O3 0.998130 1_455
H4 O4 0.998130 1_565
H5 O5 0.998130 1_555
H6 O6 0.998130 1_445
H7 O7 0.998130 1_655
H8 O0 0.994835 1_555
H9 O1 0.994835 1_555
H10 O2 0.994835 1_655
H11 O3 0.994835 1_455
H12 O4 0.994835 1_555
H13 O5 0.994835 1_555
H14 O6 0.994835 1_455
H15 O7 0.994835 1_655
H16 O9 0.983731 1_555
H17 O8 0.983731 1_555
H18 O11 0.983731 1_555
H19 O10 0.983731 1_555
H20 O13 0.983731 1_555
H21 O12 0.983731 1_555
H22 O15 0.983731 1_555
H23 O14 0.983731 1_555
H24 O8 1.000003 1_555
H25 O9 1.000003 1_555
H26 O10 1.000003 1_555
H27 O11 1.000003 1_555
H28 O12 1.000003 1_555
H29 O13 1.000003 1_555
H30 O14 1.000003 1_555
H31 O15 1.000003 1_555
H32 O16 1.000685 1_555
H33 O17 1.000685 1_555
H34 O18 1.000685 1_555
H35 O19 1.000685 1_555
H36 O20 1.000685 1_555
H37 O21 1.000685 1_555
H38 O22 1.000685 1_555
H39 O23 1.000685 1_555
H40 O21 0.980222 1_555
H41 O20 0.980222 1_555
H42 O23 0.980222 1_555
H43 O22 0.980222 1_555
H44 O17 0.980222 1_555
H45 O16 0.980222 1_555
H46 O19 0.980222 1_555
H47 O18 0.980222 1_555
H48 O24 0.992793 1_555
H49 O25 0.992793 1_555
H50 O26 0.992793 1_555
H51 O27 0.992793 1_555
H52 O28 0.992793 1_555
H53 O29 0.992793 1_555
H54 O30 0.992793 1_555
H55 O31 0.992793 1_555
H56 O24 0.990233 1_555
H57 O25 0.990233 1_555
H58 O26 0.990233 1_555
H59 O27 0.990233 1_555
H60 O28 0.990233 1_555
H61 O29 0.990233 1_555
H62 O30 0.990233 1_555
H63 O31 0.990233 1_555
H64 O36 0.989293 1_555
H65 O37 0.989293 1_555
H66 O38 0.989293 1_555
H67 O39 0.989293 1_555
H68 O32 0.989293 1_555
H69 O33 0.989293 1_555
H70 O34 0.989293 1_555
H71 O35 0.989293 1_555
H72 O36 0.995039 1_556
H73 O37 0.995039 1_555
H74 O38 0.995039 1_555
H75 O39 0.995039 1_554
H76 O32 0.995039 1_554
H77 O33 0.995039 1_555
H78 O34 0.995039 1_555
H79 O35 0.995039 1_556
H80 O47 0.973846 1_555
H81 O46 0.973846 1_555
H82 O45 0.973846 1_555
H83 O44 0.973846 1_555
H84 O43 0.973846 1_555
H85 O42 0.973846 1_555
H86 O41 0.973846 1_555
H87 O40 0.973846 1_555
H88 O40 0.993381 1_555
H89 O41 0.993381 1_555
H90 O42 0.993381 1_555
H91 O43 0.993381 1_555
H92 O44 0.993381 1_555
H93 O45 0.993381 1_555
H94 O46 0.993381 1_555
H95 O47 0.993381 1_555
H96 O52 0.985608 1_555
H97 O53 0.985608 1_555
H98 O54 0.985608 1_555
H99 O55 0.985608 1_555
H100 O48 0.985608 1_555
H101 O49 0.985608 1_555
H102 O50 0.985608 1_555
H103 O51 0.985608 1_555
H104 O48 1.001806 1_554
H105 O49 1.001806 1_555
H106 O50 1.001806 1_555
H107 O51 1.001806 1_556
H108 O52 1.001806 1_556
H109 O53 1.001806 1_555
H110 O54 1.001806 1_555
H111 O55 1.001806 1_554
C0 O64 1.296781 1_555
C0 O56 1.304804 1_655
C0 O75 1.307265 1_555
C1 O65 1.296781 1_555
C1 O57 1.304804 1_455
C1 O74 1.307265 1_555
C2 O66 1.296781 1_555
C2 O58 1.304804 1_555
C2 O73 1.307265 1_555
C3 O67 1.296781 1_555
C3 O59 1.304804 1_555
C3 O72 1.307265 1_555
C4 O68 1.296781 1_555
C4 O60 1.304804 1_455
C4 O79 1.307265 1_555
C5 O69 1.296781 1_555
C5 O61 1.304804 1_655
C5 O78 1.307265 1_555
C6 O70 1.296781 1_555
C6 O62 1.304804 1_555
C6 O77 1.307265 1_555
C7 O71 1.296781 1_555
C7 O63 1.304804 1_555
C7 O76 1.307265 1_555
