# generated using pymatgen
data_NdPbAu
_symmetry_space_group_name_H-M   'P 1'
_cell_length_a   4.89453196
_cell_length_b   4.89453196
_cell_length_c   7.70663700
_cell_angle_alpha   90.00000000
_cell_angle_beta   90.00000000
_cell_angle_gamma   119.99999940
_symmetry_Int_Tables_number   1
_chemical_formula_structural   NdPbAu
_chemical_formula_sum   'Nd2 Pb2 Au2'
_cell_volume   159.88873779
_cell_formula_units_Z   2
loop_
 _symmetry_equiv_pos_site_id
 _symmetry_equiv_pos_as_xyz
  1  'x, y, z'
loop_
 _atom_site_type_symbol
 _atom_site_label
 _atom_site_symmetry_multiplicity
 _atom_site_fract_x
 _atom_site_fract_y
 _atom_site_fract_z
 _atom_site_occupancy
  Nd  Nd0  1  0.00000000  0.00000000  0.50000000  1
  Nd  Nd1  1  0.00000000  0.00000000  0.00000000  1
  Pb  Pb0  1  0.33333300  0.66666700  0.75000000  1
  Pb  Pb1  1  0.66666700  0.33333300  0.25000000  1
  Au  Au0  1  0.33333300  0.66666700  0.25000000  1
  Au  Au1  1  0.66666700  0.33333300  0.75000000  1
loop_
_geom_bond_atom_site_label_1
_geom_bond_atom_site_label_2
_geom_bond_distance
_geom_bond_site_symmetry_2
Nd0 Pb1 3.420158 1_455
Nd0 Pb0 3.420158 1_545
Nd0 Pb0 3.420162 1_555
Nd0 Pb0 3.420162 1_445
Nd0 Pb1 3.420162 1_445
Nd0 Pb1 3.420162 1_555
Nd0 Nd1 3.853318 1_555
Nd0 Nd1 3.853318 1_556
Nd1 Pb0 3.420158 1_544
Nd1 Pb1 3.420158 1_455
Nd1 Pb0 3.420162 1_444
Nd1 Pb1 3.420162 1_445
Nd1 Pb1 3.420162 1_555
Nd1 Pb0 3.420162 1_554
Au0 Pb1 2.825857 1_455
Au0 Pb1 2.825857 1_565
Au0 Pb1 2.825865 1_555
Au0 Nd1 3.420158 1_565
Au0 Nd0 3.420158 1_565
Au0 Nd1 3.420162 1_555
Au0 Nd1 3.420162 1_665
Au0 Nd0 3.420162 1_665
Au0 Nd0 3.420162 1_555
Au1 Pb0 2.825857 1_545
Au1 Pb0 2.825857 1_655
Au1 Pb0 2.825865 1_555
Au1 Nd1 3.420158 1_656
Au1 Nd0 3.420158 1_655
Au1 Nd1 3.420162 1_556
Au1 Nd0 3.420162 1_665
Au1 Nd0 3.420162 1_555
Au1 Nd1 3.420162 1_666
