# generated using pymatgen
data_ThU(CuSi)4
_symmetry_space_group_name_H-M   'P 1'
_cell_length_a   4.04658400
_cell_length_b   4.04658400
_cell_length_c   9.92383200
_cell_angle_alpha   90.00000000
_cell_angle_beta   90.00000000
_cell_angle_gamma   90.00000000
_symmetry_Int_Tables_number   1
_chemical_formula_structural   ThU(CuSi)4
_chemical_formula_sum   'Th1 U1 Cu4 Si4'
_cell_volume   162.50118172
_cell_formula_units_Z   1
loop_
 _symmetry_equiv_pos_site_id
 _symmetry_equiv_pos_as_xyz
  1  'x, y, z'
loop_
 _atom_site_type_symbol
 _atom_site_label
 _atom_site_symmetry_multiplicity
 _atom_site_fract_x
 _atom_site_fract_y
 _atom_site_fract_z
 _atom_site_occupancy
  Th  Th0  1  0.00000000  0.00000000  0.00000000  1
  U  U0  1  0.50000000  0.50000000  0.50000000  1
  Cu  Cu0  1  0.00000000  0.50000000  0.25161300  1
  Cu  Cu1  1  0.50000000  0.00000000  0.74838700  1
  Cu  Cu2  1  0.50000000  0.00000000  0.25161300  1
  Cu  Cu3  1  0.00000000  0.50000000  0.74838700  1
  Si  Si0  1  0.50000000  0.50000000  0.12208100  1
  Si  Si1  1  0.00000000  0.00000000  0.61731100  1
  Si  Si2  1  0.00000000  0.00000000  0.38268900  1
  Si  Si3  1  0.50000000  0.50000000  0.87791900  1
loop_
_geom_bond_atom_site_label_1
_geom_bond_atom_site_label_2
_geom_bond_distance
_geom_bond_site_symmetry_2
Cu0 Si0 2.397103 1_455
Cu0 Si0 2.397103 1_555
Cu0 Si2 2.405354 1_565
Cu0 Si2 2.405354 1_555
Cu0 Cu2 2.861367 1_455
Cu0 Cu2 2.861367 1_565
Cu0 Cu2 2.861367 1_555
Cu0 Cu2 2.861367 1_465
Cu0 U0 3.188996 1_555
Cu0 U0 3.188996 1_455
Cu0 Th0 3.213805 1_565
Cu0 Th0 3.213805 1_555
Cu1 Si3 2.397103 1_545
Cu1 Si3 2.397103 1_555
Cu1 Si1 2.405354 1_555
Cu1 Si1 2.405354 1_655
Cu1 Cu3 2.861367 1_645
Cu1 Cu3 2.861367 1_655
Cu1 Cu3 2.861367 1_555
Cu1 Cu3 2.861367 1_545
Cu1 U0 3.188996 1_545
Cu1 U0 3.188996 1_555
Cu1 Th0 3.213805 1_656
Cu1 Th0 3.213805 1_556
Cu2 Si0 2.397103 1_555
Cu2 Si0 2.397103 1_545
Cu2 Si2 2.405354 1_655
Cu2 Si2 2.405354 1_555
Cu2 U0 3.188996 1_545
Cu2 U0 3.188996 1_555
Cu2 Th0 3.213805 1_655
Cu2 Th0 3.213805 1_555
Cu3 Si3 2.397103 1_555
Cu3 Si3 2.397103 1_455
Cu3 Si1 2.405354 1_565
Cu3 Si1 2.405354 1_555
Cu3 U0 3.188996 1_555
Cu3 U0 3.188996 1_455
Cu3 Th0 3.213805 1_556
Cu3 Th0 3.213805 1_566
Si0 Si3 2.423023 1_554
Si0 Th0 3.107279 1_655
Si0 Th0 3.107279 1_665
Si0 Th0 3.107279 1_565
Si0 Th0 3.107279 1_555
Si1 Si2 2.328349 1_555
Si1 U0 3.089130 1_545
Si1 U0 3.089130 1_555
Si1 U0 3.089130 1_455
Si1 U0 3.089130 1_445
Si2 U0 3.089130 1_555
Si2 U0 3.089130 1_445
Si2 U0 3.089130 1_545
Si2 U0 3.089130 1_455
Si3 Th0 3.107279 1_666
Si3 Th0 3.107279 1_656
Si3 Th0 3.107279 1_556
Si3 Th0 3.107279 1_566
