# generated using pymatgen
data_Ca2AlH10ClO8
_symmetry_space_group_name_H-M   'P 1'
_cell_length_a   5.73608926
_cell_length_b   5.73608926
_cell_length_c   16.30490973
_cell_angle_alpha   79.73397966
_cell_angle_beta   79.73397966
_cell_angle_gamma   60.69057204
_symmetry_Int_Tables_number   1
_chemical_formula_structural   Ca2AlH10ClO8
_chemical_formula_sum   'Ca4 Al2 H20 Cl2 O16'
_cell_volume   457.71708975
_cell_formula_units_Z   2
loop_
 _symmetry_equiv_pos_site_id
 _symmetry_equiv_pos_as_xyz
  1  'x, y, z'
loop_
 _atom_site_type_symbol
 _atom_site_label
 _atom_site_symmetry_multiplicity
 _atom_site_fract_x
 _atom_site_fract_y
 _atom_site_fract_z
 _atom_site_occupancy
  Ca  Ca0  1  0.84765400  0.34512500  0.46154500  1
  Ca  Ca1  1  0.34512500  0.84765400  0.96154500  1
  Ca  Ca2  1  0.15359600  0.65428800  0.53844100  1
  Ca  Ca3  1  0.65428800  0.15359600  0.03844100  1
  Al  Al0  1  0.50100300  0.99971500  0.49999500  1
  Al  Al1  1  0.99971500  0.50100300  0.99999500  1
  H  H0  1  0.40058600  0.38073200  0.38118700  1
  H  H1  1  0.88503300  0.83897400  0.38192100  1
  H  H2  1  0.33035900  0.90348800  0.38153900  1
  H  H3  1  0.38073200  0.40058600  0.88118700  1
  H  H4  1  0.90348800  0.33035900  0.88153900  1
  H  H5  1  0.83897400  0.88503300  0.88192100  1
  H  H6  1  0.59633800  0.61546500  0.61869200  1
  H  H7  1  0.11852900  0.16244600  0.61902700  1
  H  H8  1  0.66143200  0.10528800  0.61765100  1
  H  H9  1  0.61546500  0.59633800  0.11869200  1
  H  H10  1  0.10528800  0.66143200  0.11765100  1
  H  H11  1  0.16244600  0.11852900  0.11902700  1
  H  H12  1  0.72390100  0.49012600  0.27786100  1
  H  H13  1  0.99344100  0.50402200  0.27780400  1
  H  H14  1  0.50402200  0.99344100  0.77780400  1
  H  H15  1  0.49012600  0.72390100  0.77786100  1
  H  H16  1  0.99647900  0.77418800  0.72207500  1
  H  H17  1  0.00918800  0.49153100  0.72230700  1
  H  H18  1  0.77418800  0.99647900  0.22207500  1
  H  H19  1  0.49153100  0.00918800  0.22230700  1
  Cl  Cl0  1  0.24737400  0.74991500  0.25000600  1
  Cl  Cl1  1  0.74991500  0.24737400  0.75000600  1
  O  O0  1  0.46628600  0.33015100  0.43600900  1
  O  O1  1  0.83009600  0.76998600  0.43656200  1
  O  O2  1  0.26762500  0.96631200  0.43683000  1
  O  O3  1  0.33015100  0.46628600  0.93600900  1
  O  O4  1  0.96631200  0.26762500  0.93683000  1
  O  O5  1  0.76998600  0.83009600  0.93656200  1
  O  O6  1  0.53470300  0.66978700  0.56324000  1
  O  O7  1  0.17175600  0.23055200  0.56396100  1
  O  O8  1  0.73197400  0.03569100  0.56339000  1
  O  O9  1  0.66978700  0.53470300  0.06324000  1
  O  O10  1  0.03569100  0.73197400  0.06339000  1
  O  O11  1  0.23055200  0.17175600  0.06396100  1
  O  O12  1  0.89079200  0.40962600  0.30453400  1
  O  O13  1  0.40962600  0.89079200  0.80453400  1
  O  O14  1  0.09009600  0.60636200  0.69542100  1
  O  O15  1  0.60636200  0.09009600  0.19542100  1
loop_
_geom_bond_atom_site_label_1
_geom_bond_atom_site_label_2
_geom_bond_distance
_geom_bond_site_symmetry_2
Ca0 O0 2.342544 1_555
Ca0 O2 2.351250 1_645
Ca0 O1 2.352811 1_555
Ca0 O8 2.461299 1_555
Ca0 O7 2.489130 1_655
Ca0 O6 2.491316 1_555
Ca0 O12 2.505635 1_555
Ca1 O3 2.342544 1_555
Ca1 O4 2.351250 1_465
Ca1 O5 2.352811 1_555
Ca1 O10 2.461299 1_556
Ca1 O11 2.489130 1_566
Ca1 O9 2.491316 1_556
Ca1 O13 2.505635 1_555
Ca2 O6 2.338467 1_555
Ca2 O7 2.344957 1_555
Ca2 O8 2.363706 1_465
Ca2 O2 2.465564 1_555
Ca2 O1 2.478544 1_455
Ca2 O0 2.497494 1_555
Ca2 O14 2.504884 1_555
Ca3 O9 2.338467 1_555
Ca3 O11 2.344957 1_555
Ca3 O10 2.363706 1_645
Ca3 O4 2.465564 1_554
Ca3 O5 2.478544 1_544
Ca3 O3 2.497494 1_554
Ca3 O15 2.504884 1_555
Al0 O8 1.923051 1_565
Al0 O6 1.923427 1_555
Al0 O2 1.924146 1_555
Al0 O0 1.928822 1_565
Al0 O1 1.929787 1_555
Al0 O7 1.936397 1_565
Al1 O10 1.923051 1_656
Al1 O9 1.923427 1_556
Al1 O4 1.924146 1_555
Al1 O3 1.928822 1_655
Al1 O5 1.929787 1_555
Al1 O11 1.936397 1_656
H0 O0 0.972514 1_555
H1 O1 0.972618 1_555
H2 O2 0.972259 1_555
H3 O3 0.972514 1_555
H4 O4 0.972259 1_555
H5 O5 0.972618 1_555
H6 O6 0.972223 1_555
H7 O7 0.972629 1_555
H8 O8 0.972610 1_555
H9 O9 0.972223 1_555
H10 O10 0.972610 1_555
H11 O11 0.972629 1_555
H12 O12 0.981234 1_555
H13 O12 0.983044 1_555
H14 O13 0.983044 1_555
H15 O13 0.981234 1_555
H16 O14 0.981722 1_655
H17 O14 0.982480 1_555
H18 O15 0.981722 1_565
H19 O15 0.982480 1_555
