# generated using pymatgen
data_Mg14ZnFe
_symmetry_space_group_name_H-M   'P 1'
_cell_length_a   6.24213096
_cell_length_b   6.28727234
_cell_length_c   9.84217164
_cell_angle_alpha   90.00000000
_cell_angle_beta   90.00000000
_cell_angle_gamma   120.23951841
_symmetry_Int_Tables_number   1
_chemical_formula_structural   Mg14ZnFe
_chemical_formula_sum   'Mg14 Zn1 Fe1'
_cell_volume   333.70557123
_cell_formula_units_Z   1
loop_
 _symmetry_equiv_pos_site_id
 _symmetry_equiv_pos_as_xyz
  1  'x, y, z'
loop_
 _atom_site_type_symbol
 _atom_site_label
 _atom_site_symmetry_multiplicity
 _atom_site_fract_x
 _atom_site_fract_y
 _atom_site_fract_z
 _atom_site_occupancy
  Mg  Mg0  1  0.17232976  0.33616438  0.62500000  1
  Mg  Mg1  1  0.17066222  0.83533061  0.62500000  1
  Mg  Mg2  1  0.68653868  0.34346394  0.12500000  1
  Mg  Mg3  1  0.66345353  0.33395842  0.62500000  1
  Mg  Mg4  1  0.68653868  0.84307374  0.12500000  1
  Mg  Mg5  1  0.66345353  0.82949411  0.62500000  1
  Mg  Mg6  1  0.32114536  0.15386604  0.35120236  1
  Mg  Mg7  1  0.32114536  0.15386604  0.89879764  1
  Mg  Mg8  1  0.32114536  0.66728031  0.35120236  1
  Mg  Mg9  1  0.32114536  0.66728031  0.89879764  1
  Mg  Mg10  1  0.83322416  0.16661258  0.37600398  1
  Mg  Mg11  1  0.83322416  0.16661258  0.87399602  1
  Mg  Mg12  1  0.84245396  0.67122748  0.36557639  1
  Mg  Mg13  1  0.84245396  0.67122748  0.88442361  1
  Zn  Zn0  1  0.16054935  0.33027417  0.12500000  1
  Fe  Fe0  1  0.16053657  0.83026779  0.12500000  1
loop_
_geom_bond_atom_site_label_1
_geom_bond_atom_site_label_2
_geom_bond_distance
_geom_bond_site_symmetry_2
Mg0 Mg10 3.057765 1_455
Mg0 Mg11 3.057765 1_455
Mg0 Mg5 3.072667 1_555
Mg0 Mg3 3.072667 1_555
Mg0 Mg1 3.143649 1_545
Mg0 Mg1 3.143649 1_555
Mg0 Mg5 3.169510 1_445
Mg0 Mg3 3.169510 1_455
Mg0 Mg6 3.242026 1_555
Mg0 Mg7 3.242026 1_555
Mg0 Mg8 3.242032 1_555
Mg0 Mg9 3.242032 1_555
Mg1 Mg3 3.094711 1_565
Mg1 Mg5 3.094711 1_555
Mg1 Mg12 3.106767 1_455
Mg1 Mg13 3.106767 1_455
Mg1 Mg3 3.147742 1_455
Mg1 Mg5 3.147742 1_455
Mg1 Mg8 3.203142 1_555
Mg1 Mg9 3.203142 1_555
Mg1 Mg6 3.203148 1_565
Mg1 Mg7 3.203148 1_565
Mg2 Mg7 2.973410 1_554
Mg2 Mg6 2.973410 1_555
Mg2 Zn0 3.001456 1_655
Mg2 Mg4 3.141183 1_555
Mg2 Mg4 3.146089 1_545
Mg2 Zn0 3.242322 1_555
Mg3 Mg5 3.115568 1_555
Mg3 Mg5 3.171705 1_545
Mg3 Mg6 3.266888 1_555
Mg3 Mg7 3.266888 1_555
Mg4 Mg9 2.973410 1_554
Mg4 Mg8 2.973410 1_555
Mg4 Zn0 3.001455 1_665
Mg4 Zn0 3.242322 1_555
Mg5 Mg8 3.266888 1_555
Mg5 Mg9 3.266888 1_555
Mg6 Zn0 2.882967 1_555
Mg6 Mg8 3.059297 1_545
Mg6 Mg8 3.227975 1_555
Mg7 Zn0 2.882967 1_556
Mg7 Mg9 3.059297 1_545
Mg7 Mg9 3.227975 1_555
Mg8 Zn0 2.882974 1_555
Mg9 Zn0 2.882974 1_556
Mg10 Mg2 3.033676 1_555
Mg10 Mg4 3.033682 1_545
Mg10 Zn0 3.036259 1_655
Mg10 Mg3 3.059223 1_555
Mg10 Mg5 3.059230 1_545
Mg10 Mg8 3.096441 1_655
Mg10 Mg6 3.096442 1_655
Mg10 Mg12 3.145705 1_555
Mg10 Mg12 3.145705 1_545
Mg10 Mg8 3.166285 1_545
Mg10 Mg6 3.166285 1_555
Mg11 Mg2 3.033676 1_556
Mg11 Mg4 3.033682 1_546
Mg11 Zn0 3.036259 1_656
Mg11 Mg3 3.059223 1_555
Mg11 Mg5 3.059230 1_545
Mg11 Mg9 3.096441 1_655
Mg11 Mg7 3.096442 1_655
Mg11 Mg13 3.145705 1_555
Mg11 Mg13 3.145705 1_545
Mg11 Mg9 3.166285 1_545
Mg11 Mg7 3.166285 1_555
Mg12 Mg4 2.963132 1_555
Mg12 Mg2 2.963139 1_555
Mg12 Mg6 3.003962 1_665
Mg12 Mg8 3.003962 1_655
Mg12 Mg5 3.142894 1_555
Mg12 Mg3 3.142900 1_555
Mg12 Mg6 3.244735 1_555
Mg12 Mg8 3.244735 1_555
Mg13 Mg4 2.963132 1_556
Mg13 Mg2 2.963139 1_556
Mg13 Mg7 3.003962 1_665
Mg13 Mg9 3.003962 1_655
Mg13 Mg5 3.142894 1_555
Mg13 Mg3 3.142900 1_555
Mg13 Mg7 3.244735 1_555
Mg13 Mg9 3.244735 1_555
Fe0 Mg9 2.836633 1_554
Fe0 Mg8 2.836633 1_555
Fe0 Mg7 2.836640 1_564
Fe0 Mg6 2.836640 1_565
Fe0 Mg13 2.923840 1_454
Fe0 Mg12 2.923840 1_455
Fe0 Mg2 3.000112 1_455
Fe0 Mg4 3.000112 1_455
Fe0 Zn0 3.143636 1_565
Fe0 Zn0 3.143636 1_555
Fe0 Mg2 3.243571 1_565
Fe0 Mg4 3.243572 1_555
