# generated using pymatgen
data_CoO2
_symmetry_space_group_name_H-M   'P 1'
_cell_length_a   2.81685694
_cell_length_b   2.84680447
_cell_length_c   19.27261296
_cell_angle_alpha   95.70028597
_cell_angle_beta   91.00479277
_cell_angle_gamma   61.44431739
_symmetry_Int_Tables_number   1
_chemical_formula_structural   CoO2
_chemical_formula_sum   'Co4 O8'
_cell_volume   134.99703109
_cell_formula_units_Z   4
loop_
 _symmetry_equiv_pos_site_id
 _symmetry_equiv_pos_as_xyz
  1  'x, y, z'
loop_
 _atom_site_type_symbol
 _atom_site_label
 _atom_site_symmetry_multiplicity
 _atom_site_fract_x
 _atom_site_fract_y
 _atom_site_fract_z
 _atom_site_occupancy
  Co  Co0  1  0.49993300  0.99998900  0.50007600  1
  Co  Co1  1  0.74996700  0.50017800  0.75033300  1
  Co  Co2  1  0.00001900  0.00010000  0.99940600  1
  Co  Co3  1  0.24995300  0.49950800  0.25015500  1
  O  O0  1  0.82103100  0.37437400  0.54882500  1
  O  O1  1  0.07105900  0.87454100  0.79907500  1
  O  O2  1  0.32067500  0.37190900  0.04685600  1
  O  O3  1  0.57159400  0.82207000  0.30293800  1
  O  O4  1  0.42890700  0.12575000  0.70151600  1
  O  O5  1  0.67929200  0.62814200  0.95208700  1
  O  O6  1  0.92875100  0.17780400  0.19745600  1
  O  O7  1  0.17882000  0.62563600  0.45127600  1
loop_
_geom_bond_atom_site_label_1
_geom_bond_atom_site_label_2
_geom_bond_distance
_geom_bond_site_symmetry_2
Co0 O0 1.878728 1_565
Co0 O7 1.879119 1_555
Co0 O0 1.895076 1_465
Co0 O7 1.895491 1_655
Co0 O0 1.906648 1_555
Co0 O7 1.907286 1_565
Co1 O1 1.878610 1_655
Co1 O4 1.879311 1_555
Co1 O1 1.895025 1_555
Co1 O4 1.895760 1_655
Co1 O1 1.906618 1_645
Co1 O4 1.907311 1_565
Co2 O5 1.860910 1_445
Co2 O2 1.861516 1_556
Co2 O5 1.883202 1_545
Co2 O2 1.884469 1_456
Co2 O5 1.896120 1_455
Co2 O2 1.897871 1_546
Co3 O6 1.806679 1_455
Co3 O3 1.810087 1_555
Co3 O3 1.932477 1_455
Co3 O6 1.932751 1_555
Co3 O3 2.064433 1_545
Co3 O6 2.065409 1_465
