# generated using pymatgen
data_RbU3F13
_symmetry_space_group_name_H-M   'P 1'
_cell_length_a   7.34207650
_cell_length_b   7.96848816
_cell_length_c   8.45384699
_cell_angle_alpha   90.00000000
_cell_angle_beta   90.00000000
_cell_angle_gamma   90.00000000
_symmetry_Int_Tables_number   1
_chemical_formula_structural   RbU3F13
_chemical_formula_sum   'Rb2 U6 F26'
_cell_volume   494.59442874
_cell_formula_units_Z   2
loop_
 _symmetry_equiv_pos_site_id
 _symmetry_equiv_pos_as_xyz
  1  'x, y, z'
loop_
 _atom_site_type_symbol
 _atom_site_label
 _atom_site_symmetry_multiplicity
 _atom_site_fract_x
 _atom_site_fract_y
 _atom_site_fract_z
 _atom_site_occupancy
  Rb  Rb0  1  0.39489348  0.50000000  0.26381137  1
  Rb  Rb1  1  0.60510652  0.50000000  0.76381137  1
  U  U0  1  0.89592688  0.25273546  0.12381190  1
  U  U1  1  0.89592688  0.74726454  0.12381190  1
  U  U2  1  0.10407312  0.74726454  0.62381190  1
  U  U3  1  0.10407312  0.25273546  0.62381190  1
  U  U4  1  0.61101239  -0.00000000  0.46117493  1
  U  U5  1  0.38898761  -0.00000000  0.96117493  1
  F  F0  1  0.80838666  0.17099273  0.59970269  1
  F  F1  1  0.80838666  0.82900727  0.59970269  1
  F  F2  1  0.19161334  0.82900727  0.09970269  1
  F  F3  1  0.19161334  0.17099273  0.09970269  1
  F  F4  1  0.61193414  0.19405653  0.00795493  1
  F  F5  1  0.61193414  0.80594347  0.00795493  1
  F  F6  1  0.38806586  0.80594347  0.50795493  1
  F  F7  1  0.38806586  0.19405653  0.50795493  1
  F  F8  1  0.67912995  0.25847660  0.32085037  1
  F  F9  1  0.67912995  0.74152340  0.32085037  1
  F  F10  1  0.32087005  0.74152340  0.82085037  1
  F  F11  1  0.32087005  0.25847660  0.82085037  1
  F  F12  1  0.04909829  0.30446158  0.36614059  1
  F  F13  1  0.04909829  0.69553842  0.36614059  1
  F  F14  1  0.95090171  0.69553842  0.86614059  1
  F  F15  1  0.95090171  0.30446158  0.86614059  1
  F  F16  1  0.06460508  0.50000000  0.11168538  1
  F  F17  1  0.93539492  0.50000000  0.61168538  1
  F  F18  1  0.72690373  0.50000000  0.08792111  1
  F  F19  1  0.27309627  0.50000000  0.58792111  1
  F  F20  1  0.89886585  -0.00000000  -0.00399161  1
  F  F21  1  0.10113415  -0.00000000  0.49600839  1
  F  F22  1  0.86289814  -0.00000000  0.28180838  1
  F  F23  1  0.13710186  -0.00000000  0.78180838  1
  F  F24  1  0.46499122  -0.00000000  0.23114548  1
  F  F25  1  0.53500878  -0.00000000  0.73114548  1
loop_
_geom_bond_atom_site_label_1
_geom_bond_atom_site_label_2
_geom_bond_distance
_geom_bond_site_symmetry_2
F0 U3 2.275709 1_655
F0 U4 2.308248 1_555
F0 Rb1 3.320475 1_555
F1 U2 2.275709 1_655
F1 U4 2.308248 1_565
F1 Rb1 3.320475 1_555
F2 U1 2.275709 1_455
F2 U5 2.308248 1_564
F2 Rb0 3.320475 1_555
F3 U0 2.275709 1_455
F3 U5 2.308248 1_554
F3 Rb0 3.320475 1_555
F4 U5 2.286256 1_554
F4 U0 2.350650 1_555
F4 Rb1 3.194652 1_554
F5 U5 2.286256 1_564
F5 U1 2.350650 1_555
F5 Rb1 3.194652 1_554
F6 U4 2.286256 1_565
F6 U2 2.350650 1_555
F6 Rb0 3.194652 1_555
F7 U4 2.286256 1_555
F7 U3 2.350650 1_555
F7 Rb0 3.194652 1_555
F8 U0 2.304429 1_555
F8 U4 2.428914 1_555
F8 Rb0 2.879514 1_555
F9 U1 2.304429 1_555
F9 U4 2.428914 1_565
F9 Rb0 2.879514 1_555
F10 U2 2.304429 1_555
F10 U5 2.428914 1_565
F10 Rb1 2.879514 1_555
F11 U3 2.304429 1_555
F11 U5 2.428914 1_555
F11 Rb1 2.879514 1_555
F12 U3 2.253411 1_555
F12 U0 2.373059 1_455
F12 Rb0 3.101928 1_555
F13 U2 2.253411 1_555
F13 U1 2.373059 1_455
F13 Rb0 3.101928 1_555
F14 U1 2.253411 1_556
F14 U2 2.373059 1_655
F14 Rb1 3.101928 1_555
F15 U0 2.253411 1_556
F15 U3 2.373059 1_655
F15 Rb1 3.101928 1_555
F16 U1 2.329473 1_455
F16 U0 2.329473 1_455
F16 Rb0 2.744916 1_555
F17 U3 2.329473 1_655
F17 U2 2.329473 1_655
F17 Rb1 2.744916 1_555
F18 U1 2.348249 1_555
F18 U0 2.348249 1_555
F18 Rb0 2.855369 1_555
F18 Rb1 2.882209 1_554
F19 U2 2.348249 1_555
F19 U3 2.348249 1_555
F19 Rb1 2.855369 1_555
F19 Rb0 2.882209 1_555
F20 U1 2.285535 1_545
F20 U0 2.285535 1_555
F21 U3 2.285535 1_555
F21 U2 2.285535 1_545
F22 U4 2.391533 1_555
F22 U1 2.428727 1_545
F22 U0 2.428727 1_555
F23 U5 2.391533 1_555
F23 U2 2.428727 1_545
F23 U3 2.428727 1_555
F24 U4 2.220585 1_555
F24 U5 2.349519 1_554
F25 U5 2.220585 1_555
F25 U4 2.349519 1_555
