# generated using pymatgen
data_Er3Pb
_symmetry_space_group_name_H-M   'P 1'
_cell_length_a   6.79603424
_cell_length_b   6.79603567
_cell_length_c   5.58611267
_cell_angle_alpha   90.00000000
_cell_angle_beta   90.00000000
_cell_angle_gamma   120.00000120
_symmetry_Int_Tables_number   1
_chemical_formula_structural   Er3Pb
_chemical_formula_sum   'Er6 Pb2'
_cell_volume   223.43516513
_cell_formula_units_Z   2
loop_
 _symmetry_equiv_pos_site_id
 _symmetry_equiv_pos_as_xyz
  1  'x, y, z'
loop_
 _atom_site_type_symbol
 _atom_site_label
 _atom_site_symmetry_multiplicity
 _atom_site_fract_x
 _atom_site_fract_y
 _atom_site_fract_z
 _atom_site_occupancy
  Er  Er0  1  0.83112386  0.16887614  0.75000000  1
  Er  Er1  1  0.33775329  0.16887614  0.75000000  1
  Er  Er2  1  0.83112386  0.66224671  0.75000000  1
  Er  Er3  1  0.16887614  0.83112386  0.25000000  1
  Er  Er4  1  0.66224671  0.83112386  0.25000000  1
  Er  Er5  1  0.16887614  0.33775329  0.25000000  1
  Pb  Pb0  1  0.66666700  0.33333300  0.25000000  1
  Pb  Pb1  1  0.33333300  0.66666700  0.75000000  1
loop_
_geom_bond_atom_site_label_1
_geom_bond_atom_site_label_2
_geom_bond_distance
_geom_bond_site_symmetry_2
Er0 Er1 3.352963 1_555
Er0 Er2 3.352964 1_555
Er0 Pb1 3.398117 1_655
Er0 Pb1 3.398117 1_545
Er0 Pb0 3.398326 1_556
Er0 Pb0 3.398326 1_555
Er0 Er5 3.428225 1_655
Er0 Er5 3.428225 1_656
Er0 Er4 3.428225 1_545
Er0 Er4 3.428225 1_546
Er0 Er1 3.443071 1_655
Er0 Er2 3.443072 1_545
Er1 Er2 3.352964 1_555
Er1 Pb1 3.398111 1_545
Er1 Pb1 3.398124 1_555
Er1 Pb0 3.398326 1_556
Er1 Pb0 3.398326 1_555
Er1 Er3 3.428225 1_545
Er1 Er3 3.428225 1_546
Er1 Er5 3.428232 1_555
Er1 Er5 3.428232 1_556
Er1 Er2 3.443071 1_445
Er2 Pb1 3.398110 1_655
Er2 Pb1 3.398124 1_555
Er2 Pb0 3.398326 1_556
Er2 Pb0 3.398326 1_555
Er2 Er3 3.428225 1_655
Er2 Er3 3.428225 1_656
Er2 Er4 3.428232 1_555
Er2 Er4 3.428232 1_556
Er3 Er4 3.352963 1_555
Er3 Er5 3.352964 1_555
Er3 Pb0 3.398117 1_455
Er3 Pb0 3.398117 1_565
Er3 Pb1 3.398326 1_555
Er3 Pb1 3.398326 1_554
Er3 Er4 3.443071 1_455
Er3 Er5 3.443072 1_565
Er4 Er5 3.352964 1_555
Er4 Pb0 3.398111 1_565
Er4 Pb0 3.398124 1_555
Er4 Pb1 3.398326 1_555
Er4 Pb1 3.398326 1_554
Er4 Er5 3.443071 1_665
Er5 Pb0 3.398110 1_455
Er5 Pb0 3.398124 1_555
Er5 Pb1 3.398326 1_555
Er5 Pb1 3.398326 1_554
