# generated using pymatgen
data_ScCrO4
_symmetry_space_group_name_H-M   'P 1'
_cell_length_a   5.74802429
_cell_length_b   5.74801938
_cell_length_c   5.74799078
_cell_angle_alpha   105.33853382
_cell_angle_beta   107.84987188
_cell_angle_gamma   115.40108425
_symmetry_Int_Tables_number   1
_chemical_formula_structural   ScCrO4
_chemical_formula_sum   'Sc2 Cr2 O8'
_cell_volume   144.94550983
_cell_formula_units_Z   2
loop_
 _symmetry_equiv_pos_site_id
 _symmetry_equiv_pos_as_xyz
  1  'x, y, z'
loop_
 _atom_site_type_symbol
 _atom_site_label
 _atom_site_symmetry_multiplicity
 _atom_site_fract_x
 _atom_site_fract_y
 _atom_site_fract_z
 _atom_site_occupancy
  Sc  Sc0  1  0.86365600  0.11365700  0.75000200  1
  Sc  Sc1  1  0.13635700  0.88635800  0.25000300  1
  Cr  Cr0  1  0.63323100  0.38324100  0.24998800  1
  Cr  Cr1  1  0.36670600  0.61669100  0.74999400  1
  O  O0  1  0.80450100  0.36257700  0.05806000  1
  O  O1  1  0.25236100  0.19143200  0.06091900  1
  O  O2  1  0.63051400  0.19144900  0.43908200  1
  O  O3  1  0.80451600  0.74644200  0.44194300  1
  O  O4  1  0.19549600  0.25355800  0.55805700  1
  O  O5  1  0.36950500  0.80857400  0.56092700  1
  O  O6  1  0.74765100  0.80858100  0.93907800  1
  O  O7  1  0.19550600  0.63744000  0.94194600  1
loop_
_geom_bond_atom_site_label_1
_geom_bond_atom_site_label_2
_geom_bond_distance
_geom_bond_site_symmetry_2
Cr0 O0 1.702096 1_555
Cr0 O3 1.702120 1_555
Cr0 O1 1.739613 1_555
Cr0 O2 1.739687 1_555
Cr1 O4 1.701853 1_555
Cr1 O7 1.701954 1_555
Cr1 O6 1.739929 1_555
Cr1 O5 1.739946 1_555
O0 Sc0 2.178155 1_554
O0 Sc1 2.438399 1_655
O1 Sc0 2.158309 1_454
O1 Sc1 2.269432 1_545
O2 Sc0 2.158332 1_555
O2 Sc1 2.269443 1_545
O3 Sc0 2.178163 1_565
O3 Sc1 2.438393 1_655
O4 Sc1 2.178092 1_545
O4 Sc0 2.438402 1_455
O5 Sc1 2.158332 1_555
O5 Sc0 2.269414 1_565
O6 Sc1 2.158329 1_656
O6 Sc0 2.269406 1_565
O7 Sc1 2.178122 1_556
O7 Sc0 2.438403 1_455
