# generated using pymatgen
data_ZrO2
_symmetry_space_group_name_H-M   'P 1'
_cell_length_a   3.61613100
_cell_length_b   3.67026200
_cell_length_c   67.48696000
_cell_angle_alpha   90.00000000
_cell_angle_beta   90.00000000
_cell_angle_gamma   90.00000000
_symmetry_Int_Tables_number   1
_chemical_formula_structural   ZrO2
_chemical_formula_sum   'Zr24 O48'
_cell_volume   895.69693444
_cell_formula_units_Z   24
loop_
 _symmetry_equiv_pos_site_id
 _symmetry_equiv_pos_as_xyz
  1  'x, y, z'
loop_
 _atom_site_type_symbol
 _atom_site_label
 _atom_site_symmetry_multiplicity
 _atom_site_fract_x
 _atom_site_fract_y
 _atom_site_fract_z
 _atom_site_occupancy
  Zr  Zr0  1  0.50000000  0.00000000  0.83223500  1
  Zr  Zr1  1  0.50000000  0.00000000  0.75273500  1
  Zr  Zr2  1  0.50000000  0.00000000  0.67382700  1
  Zr  Zr3  1  0.50000000  0.00000000  0.59592900  1
  Zr  Zr4  1  0.50000000  0.00000000  0.51956000  1
  Zr  Zr5  1  0.50000000  0.00000000  0.44287100  1
  Zr  Zr6  1  0.50000000  0.00000000  0.36574700  1
  Zr  Zr7  1  0.50000000  0.00000000  0.28848800  1
  Zr  Zr8  1  0.50000000  0.00000000  0.20977300  1
  Zr  Zr9  1  0.50000000  0.00000000  0.13058100  1
  Zr  Zr10  1  0.50000000  0.00000000  0.05091500  1
  Zr  Zr11  1  0.00000000  0.50000000  0.94356200  1
  Zr  Zr12  1  0.00000000  0.50000000  0.79218200  1
  Zr  Zr13  1  0.00000000  0.50000000  0.87189700  1
  Zr  Zr14  1  0.00000000  0.50000000  0.63457000  1
  Zr  Zr15  1  0.00000000  0.50000000  0.71298100  1
  Zr  Zr16  1  0.00000000  0.50000000  0.48124400  1
  Zr  Zr17  1  0.00000000  0.50000000  0.55727700  1
  Zr  Zr18  1  0.00000000  0.50000000  0.32721300  1
  Zr  Zr19  1  0.00000000  0.50000000  0.40385300  1
  Zr  Zr20  1  0.00000000  0.50000000  0.17003000  1
  Zr  Zr21  1  0.00000000  0.50000000  0.24897600  1
  Zr  Zr22  1  0.00000000  0.50000000  0.01063200  1
  Zr  Zr23  1  0.00000000  0.50000000  0.09057500  1
  O  O0  1  0.00000000  0.00000000  0.93285900  1
  O  O1  1  0.00000000  0.00000000  0.85779800  1
  O  O2  1  0.00000000  0.00000000  0.81679300  1
  O  O3  1  0.00000000  0.00000000  0.77672500  1
  O  O4  1  0.00000000  0.00000000  0.73682800  1
  O  O5  1  0.00000000  0.00000000  0.69724100  1
  O  O6  1  0.00000000  0.00000000  0.65767800  1
  O  O7  1  0.00000000  0.00000000  0.61853900  1
  O  O8  1  0.00000000  0.00000000  0.57941200  1
  O  O9  1  0.00000000  0.00000000  0.54069500  1
  O  O10  1  0.00000000  0.00000000  0.46709700  1
  O  O11  1  0.00000000  0.00000000  0.38849000  1
  O  O12  1  0.00000000  0.00000000  0.42759200  1
  O  O13  1  0.00000000  0.00000000  0.31363100  1
  O  O14  1  0.00000000  0.00000000  0.27394000  1
  O  O15  1  0.00000000  0.00000000  0.23462400  1
  O  O16  1  0.00000000  0.00000000  0.19512400  1
  O  O17  1  0.00000000  0.00000000  0.15569600  1
  O  O18  1  0.00000000  0.00000000  0.11602200  1
  O  O19  1  0.00000000  0.00000000  0.07643800  1
  O  O20  1  0.00000000  0.00000000  0.03678300  1
  O  O21  1  0.00000000  0.00000000  0.99699300  1
  O  O22  1  0.50000000  0.50000000  0.98676700  1
  O  O23  1  0.50000000  0.50000000  0.96692100  1
  O  O24  1  0.50000000  0.50000000  0.92959200  1
  O  O25  1  0.50000000  0.50000000  0.84603500  1
  O  O26  1  0.50000000  0.50000000  0.88544300  1
  O  O27  1  0.50000000  0.50000000  0.80683100  1
  O  O28  1  0.50000000  0.50000000  0.64980200  1
  O  O29  1  0.50000000  0.50000000  0.76731400  1
  O  O30  1  0.50000000  0.50000000  0.68865100  1
  O  O31  1  0.50000000  0.50000000  0.72797200  1
  O  O32  1  0.50000000  0.50000000  0.45826700  1
  O  O33  1  0.50000000  0.50000000  0.49714900  1
  O  O34  1  0.50000000  0.50000000  0.61106900  1
  O  O35  1  0.50000000  0.50000000  0.53474600  1
  O  O36  1  0.50000000  0.50000000  0.30428000  1
  O  O37  1  0.50000000  0.50000000  0.57291200  1
  O  O38  1  0.50000000  0.50000000  0.34350300  1
  O  O39  1  0.50000000  0.50000000  0.38125300  1
  O  O40  1  0.50000000  0.50000000  0.22580500  1
  O  O41  1  0.50000000  0.50000000  0.14657900  1
  O  O42  1  0.50000000  0.50000000  0.41981000  1
  O  O43  1  0.50000000  0.50000000  0.18635200  1
  O  O44  1  0.50000000  0.50000000  0.06665200  1
  O  O45  1  0.50000000  0.50000000  0.26523800  1
  O  O46  1  0.50000000  0.50000000  0.02614100  1
  O  O47  1  0.50000000  0.50000000  0.10678800  1
loop_
_geom_bond_atom_site_label_1
_geom_bond_atom_site_label_2
_geom_bond_distance
_geom_bond_site_symmetry_2
O0 Zr11 1.972167 1_555
O0 Zr11 1.972167 1_545
O1 Zr13 2.067137 1_555
O1 Zr13 2.067137 1_545
O1 Zr0 2.499062 1_555
O1 Zr0 2.499062 1_455
O2 Zr0 2.086898 1_555
O2 Zr0 2.086898 1_455
O2 Zr12 2.475150 1_555
O2 Zr12 2.475150 1_545
O3 Zr12 2.110891 1_555
O3 Zr12 2.110891 1_545
O3 Zr1 2.426994 1_555
O3 Zr1 2.426994 1_455
O4 Zr1 2.102745 1_555
O4 Zr1 2.102745 1_455
O4 Zr15 2.440850 1_545
O4 Zr15 2.440850 1_555
O5 Zr15 2.120394 1_555
O5 Zr15 2.120394 1_545
O5 Zr2 2.401238 1_555
O5 Zr2 2.401238 1_455
O6 Zr2 2.111129 1_555
O6 Zr2 2.111129 1_455
O6 Zr14 2.408259 1_545
O6 Zr14 2.408259 1_555
O7 Zr14 2.130300 1_545
O7 Zr14 2.130300 1_555
O7 Zr3 2.365885 1_555
O7 Zr3 2.365885 1_455
O8 Zr3 2.124057 1_555
O8 Zr3 2.124057 1_455
O8 Zr17 2.366266 1_555
O8 Zr17 2.366266 1_545
O9 Zr17 2.149423 1_545
O9 Zr17 2.149423 1_555
O9 Zr4 2.302941 1_555
O9 Zr4 2.302941 1_455
O10 Zr16 2.068630 1_545
O10 Zr16 2.068630 1_555
O10 Zr5 2.437648 1_455
O10 Zr5 2.437648 1_555
O11 Zr19 2.107763 1_555
O11 Zr19 2.107763 1_545
O11 Zr6 2.371684 1_455
O11 Zr6 2.371684 1_555
O12 Zr5 2.081427 1_555
O12 Zr5 2.081427 1_455
O12 Zr19 2.436051 1_555
O12 Zr19 2.436051 1_545
O13 Zr18 2.051311 1_545
O13 Zr18 2.051311 1_555
O13 Zr7 2.479580 1_555
O13 Zr7 2.479580 1_455
O14 Zr7 2.057434 1_555
O14 Zr7 2.057434 1_455
O14 Zr21 2.491198 1_545
O14 Zr21 2.491198 1_555
O15 Zr21 2.075052 1_545
O15 Zr21 2.075052 1_555
O15 Zr8 2.466136 1_455
O15 Zr8 2.466136 1_555
O16 Zr8 2.060695 1_555
O16 Zr8 2.060695 1_455
O16 Zr20 2.497140 1_545
O16 Zr20 2.497140 1_555
O17 Zr20 2.074485 1_545
O17 Zr20 2.074485 1_555
O17 Zr9 2.478287 1_455
O17 Zr9 2.478287 1_555
O18 Zr9 2.057788 1_455
O18 Zr9 2.057788 1_555
O18 Zr23 2.513357 1_555
O18 Zr23 2.513357 1_545
O19 Zr23 2.068319 1_555
O19 Zr23 2.068319 1_545
O19 Zr10 2.497199 1_455
O19 Zr10 2.497199 1_555
O20 Zr10 2.044185 1_555
O20 Zr10 2.044185 1_455
O20 Zr22 2.546057 1_555
O20 Zr22 2.546057 1_545
O21 Zr22 2.053033 1_546
O21 Zr22 2.053033 1_556
O22 O23 1.339346 1_555
O22 Zr22 2.421375 1_656
O22 Zr22 2.421375 1_556
O23 Zr11 2.398797 1_655
O23 Zr11 2.398797 1_555
O24 Zr11 2.039107 1_655
O24 Zr11 2.039107 1_555
O25 Zr0 2.057927 1_565
O25 Zr0 2.057927 1_555
O25 Zr13 2.513034 1_555
O25 Zr13 2.513034 1_655
O26 Zr13 2.026036 1_555
O26 Zr13 2.026036 1_655
O27 Zr12 2.060695 1_555
O27 Zr12 2.060695 1_655
O27 Zr0 2.511375 1_565
O27 Zr0 2.511375 1_555
O28 Zr14 2.079857 1_655
O28 Zr14 2.079857 1_555
O28 Zr2 2.448787 1_565
O28 Zr2 2.448787 1_555
O29 Zr1 2.082246 1_565
O29 Zr1 2.082246 1_555
O29 Zr12 2.466916 1_655
O29 Zr12 2.466916 1_555
O30 Zr2 2.090110 1_565
O30 Zr2 2.090110 1_555
O30 Zr15 2.442361 1_555
O30 Zr15 2.442361 1_655
O31 Zr15 2.071867 1_555
O31 Zr15 2.071867 1_655
O31 Zr1 2.482045 1_555
O31 Zr1 2.482045 1_565
O32 Zr5 2.108859 1_555
O32 Zr5 2.108859 1_565
O32 Zr16 2.381934 1_555
O32 Zr16 2.381934 1_655
O33 Zr16 2.102676 1_555
O33 Zr16 2.102676 1_655
O33 Zr4 2.378069 1_555
O33 Zr4 2.378069 1_565
O34 Zr3 2.100401 1_565
O34 Zr3 2.100401 1_555
O34 Zr14 2.405105 1_655
O34 Zr14 2.405105 1_555
O35 Zr4 2.101913 1_555
O35 Zr4 2.101913 1_565
O35 Zr17 2.362450 1_555
O35 Zr17 2.362450 1_655
O36 Zr7 2.122154 1_555
O36 Zr7 2.122154 1_565
O36 Zr18 2.380002 1_655
O36 Zr18 2.380002 1_555
O37 Zr17 2.093433 1_655
O37 Zr17 2.093433 1_555
O37 Zr3 2.404287 1_555
O37 Zr3 2.404287 1_565
O38 Zr18 2.116057 1_555
O38 Zr18 2.116057 1_655
O38 Zr6 2.370917 1_555
O38 Zr6 2.370917 1_565
O39 Zr6 2.112527 1_555
O39 Zr6 2.112527 1_565
O39 Zr19 2.365450 1_555
O39 Zr19 2.365450 1_655
O40 Zr8 2.130334 1_565
O40 Zr8 2.130334 1_555
O40 Zr21 2.390478 1_555
O40 Zr21 2.390478 1_655
O41 Zr9 2.129170 1_565
O41 Zr9 2.129170 1_555
O41 Zr20 2.402882 1_655
O41 Zr20 2.402882 1_555
O42 Zr19 2.104469 1_555
O42 Zr19 2.104469 1_655
O42 Zr5 2.406206 1_555
O42 Zr5 2.406206 1_565
O43 Zr20 2.117180 1_555
O43 Zr20 2.117180 1_655
O43 Zr8 2.421991 1_555
O43 Zr8 2.421991 1_565
O44 Zr10 2.120292 1_555
O44 Zr10 2.120292 1_565
O44 Zr23 2.423980 1_555
O44 Zr23 2.423980 1_655
O45 Zr21 2.115076 1_555
O45 Zr21 2.115076 1_655
O45 Zr7 2.414476 1_565
O45 Zr7 2.414476 1_555
O46 Zr22 2.089160 1_555
O46 Zr22 2.089160 1_655
O46 Zr10 2.482545 1_555
O46 Zr10 2.482545 1_565
O47 Zr23 2.113362 1_555
O47 Zr23 2.113362 1_655
O47 Zr9 2.438449 1_565
O47 Zr9 2.438449 1_555
