# generated using pymatgen
data_LiMg6Co
_symmetry_space_group_name_H-M   'P 1'
_cell_length_a   6.05528105
_cell_length_b   6.05528105
_cell_length_c   4.88831100
_cell_angle_alpha   90.00000000
_cell_angle_beta   90.00000000
_cell_angle_gamma   119.73625930
_symmetry_Int_Tables_number   1
_chemical_formula_structural   LiMg6Co
_chemical_formula_sum   'Li1 Mg6 Co1'
_cell_volume   155.63459468
_cell_formula_units_Z   1
loop_
 _symmetry_equiv_pos_site_id
 _symmetry_equiv_pos_as_xyz
  1  'x, y, z'
loop_
 _atom_site_type_symbol
 _atom_site_label
 _atom_site_symmetry_multiplicity
 _atom_site_fract_x
 _atom_site_fract_y
 _atom_site_fract_z
 _atom_site_occupancy
  Li  Li0  1  0.67253000  0.32747000  0.50000000  1
  Mg  Mg0  1  0.83130800  0.65736000  0.00000000  1
  Mg  Mg1  1  0.34264000  0.16869200  0.00000000  1
  Mg  Mg2  1  0.33473300  0.66526700  0.00000000  1
  Mg  Mg3  1  0.67435500  0.86045200  0.50000000  1
  Mg  Mg4  1  0.13954800  0.32564500  0.50000000  1
  Mg  Mg5  1  0.16601800  0.83398200  0.50000000  1
  Co  Co0  1  0.83886900  0.16113100  0.00000000  1
loop_
_geom_bond_atom_site_label_1
_geom_bond_atom_site_label_2
_geom_bond_distance
_geom_bond_site_symmetry_2
Li0 Mg3 2.833423 1_545
Li0 Mg4 2.833423 1_655
Li0 Mg0 2.997225 1_556
Li0 Mg0 2.997225 1_555
Li0 Mg1 2.997225 1_556
Li0 Mg1 2.997225 1_555
Li0 Mg5 3.040467 1_655
Li0 Mg5 3.040467 1_545
Li0 Mg4 3.221889 1_555
Li0 Mg3 3.221889 1_555
Mg0 Mg1 2.970810 1_555
Mg0 Mg5 3.012503 1_654
Mg0 Mg5 3.012503 1_655
Mg0 Mg2 3.024917 1_655
Mg0 Mg2 3.030935 1_555
Mg0 Mg3 3.090137 1_554
Mg0 Mg3 3.090137 1_555
Mg0 Mg1 3.108594 1_665
Mg1 Mg5 3.012503 1_544
Mg1 Mg5 3.012503 1_545
Mg1 Mg2 3.024917 1_545
Mg1 Mg2 3.030935 1_555
Mg1 Mg4 3.090137 1_555
Mg1 Mg4 3.090137 1_554
Mg2 Mg5 3.016068 1_555
Mg2 Mg5 3.016068 1_554
Mg2 Mg3 3.031307 1_554
Mg2 Mg3 3.031307 1_555
Mg2 Mg4 3.031307 1_554
Mg2 Mg4 3.031307 1_555
Mg3 Mg4 2.828096 1_665
Mg3 Mg5 3.001850 1_555
Mg3 Mg5 3.059826 1_655
Mg3 Mg4 3.251308 1_555
Mg4 Mg5 3.001850 1_555
Mg4 Mg5 3.059826 1_545
Co0 Mg4 2.912378 1_655
Co0 Mg4 2.912378 1_654
Co0 Mg3 2.912378 1_544
Co0 Mg3 2.912378 1_545
Co0 Li0 3.001555 1_555
Co0 Li0 3.001555 1_554
Co0 Mg1 3.027776 1_555
Co0 Mg0 3.027776 1_555
Co0 Mg0 3.028027 1_545
Co0 Mg1 3.028027 1_655
Co0 Mg2 3.040011 1_655
Co0 Mg2 3.040011 1_545
