# generated using pymatgen
data_Ca(W2O3)2
_symmetry_space_group_name_H-M   'P 1'
_cell_length_a   5.61787444
_cell_length_b   5.61787444
_cell_length_c   16.37596000
_cell_angle_alpha   90.00000000
_cell_angle_beta   90.00000000
_cell_angle_gamma   146.38357923
_symmetry_Int_Tables_number   1
_chemical_formula_structural   Ca(W2O3)2
_chemical_formula_sum   'Ca2 W8 O12'
_cell_volume   286.13476585
_cell_formula_units_Z   2
loop_
 _symmetry_equiv_pos_site_id
 _symmetry_equiv_pos_as_xyz
  1  'x, y, z'
loop_
 _atom_site_type_symbol
 _atom_site_label
 _atom_site_symmetry_multiplicity
 _atom_site_fract_x
 _atom_site_fract_y
 _atom_site_fract_z
 _atom_site_occupancy
  Ca  Ca0  1  0.32572100  0.67427900  0.75000000  1
  Ca  Ca1  1  0.67427900  0.32572100  0.25000000  1
  W  W0  1  0.14816200  0.85183800  0.04028600  1
  W  W1  1  0.58521900  0.41478100  0.63537700  1
  W  W2  1  0.85183800  0.14816200  0.95971400  1
  W  W3  1  0.41478100  0.58521900  0.36462300  1
  W  W4  1  0.14816200  0.85183800  0.45971400  1
  W  W5  1  0.85183800  0.14816200  0.54028600  1
  W  W6  1  0.41478100  0.58521900  0.13537700  1
  W  W7  1  0.58521900  0.41478100  0.86462300  1
  O  O0  1  0.50000000  0.50000000  0.50000000  1
  O  O1  1  0.50000000  0.50000000  0.00000000  1
  O  O2  1  0.95045400  0.04954600  0.84313300  1
  O  O3  1  0.04954600  0.95045400  0.15686700  1
  O  O4  1  0.04954600  0.95045400  0.34313300  1
  O  O5  1  0.95045400  0.04954600  0.65686700  1
  O  O6  1  0.21974900  0.78025100  0.89605600  1
  O  O7  1  0.78025100  0.21974900  0.10394400  1
  O  O8  1  0.78025100  0.21974900  0.39605600  1
  O  O9  1  0.21974900  0.78025100  0.60394400  1
  O  O10  1  0.67482600  0.32517400  0.75000000  1
  O  O11  1  0.32517400  0.67482600  0.25000000  1
loop_
_geom_bond_atom_site_label_1
_geom_bond_atom_site_label_2
_geom_bond_distance
_geom_bond_site_symmetry_2
Ca0 O10 2.296331 1_455
Ca0 O10 2.296331 1_565
Ca0 O2 2.600959 1_565
Ca0 O5 2.600959 1_565
Ca0 O5 2.600959 1_455
Ca0 O2 2.600959 1_455
Ca0 O6 2.649510 1_555
Ca0 O9 2.649510 1_555
Ca1 O11 2.296331 1_545
Ca1 O11 2.296331 1_655
Ca1 O3 2.600959 1_655
Ca1 O3 2.600959 1_545
Ca1 O4 2.600959 1_655
Ca1 O4 2.600959 1_545
Ca1 O8 2.649510 1_555
Ca1 O7 2.649510 1_555
O0 W4 2.369349 1_655
O0 W5 2.369349 1_565
O0 W4 2.369349 1_545
O0 W5 2.369349 1_455
O0 W1 2.398940 1_555
O0 W3 2.398940 1_555
O1 W0 2.369349 1_655
O1 W2 2.369349 1_564
O1 W0 2.369349 1_545
O1 W2 2.369349 1_454
O1 W7 2.398940 1_554
O1 W6 2.398940 1_555
O2 W2 2.183992 1_555
O2 W7 2.205434 1_655
O2 W7 2.205434 1_545
O3 W0 2.183992 1_555
O3 W6 2.205434 1_455
O3 W6 2.205434 1_565
O4 W4 2.183992 1_555
O4 W3 2.205434 1_455
O4 W3 2.205434 1_565
O5 W5 2.183992 1_555
O5 W1 2.205434 1_545
O5 W1 2.205434 1_655
O6 W7 2.235561 1_455
O6 W7 2.235561 1_565
O6 W2 2.396707 1_455
O6 W2 2.396707 1_565
O6 W0 2.484240 1_556
O7 W6 2.235561 1_545
O7 W6 2.235561 1_655
O7 W0 2.396707 1_545
O7 W0 2.396707 1_655
O7 W2 2.484240 1_554
O8 W3 2.235561 1_545
O8 W3 2.235561 1_655
O8 W4 2.396707 1_545
O8 W4 2.396707 1_655
O8 W5 2.484240 1_555
O9 W1 2.235561 1_455
O9 W1 2.235561 1_565
O9 W5 2.396707 1_455
O9 W5 2.396707 1_565
O9 W4 2.484240 1_555
O10 W1 2.110036 1_555
O10 W7 2.110036 1_555
O11 W3 2.110036 1_555
O11 W6 2.110036 1_555
