# generated using pymatgen
data_Ba3Y5(NiO5)3
_symmetry_space_group_name_H-M   'P 1'
_cell_length_a   6.62655018
_cell_length_b   6.62655018
_cell_length_c   11.32310321
_cell_angle_alpha   73.30696778
_cell_angle_beta   73.30696778
_cell_angle_gamma   51.94106752
_symmetry_Int_Tables_number   1
_chemical_formula_structural   Ba3Y5(NiO5)3
_chemical_formula_sum   'Ba3 Y5 Ni3 O15'
_cell_volume   370.97164947
_cell_formula_units_Z   1
loop_
 _symmetry_equiv_pos_site_id
 _symmetry_equiv_pos_as_xyz
  1  'x, y, z'
loop_
 _atom_site_type_symbol
 _atom_site_label
 _atom_site_symmetry_multiplicity
 _atom_site_fract_x
 _atom_site_fract_y
 _atom_site_fract_z
 _atom_site_occupancy
  Ba  Ba0  1  0.00200900  0.00200900  0.00031000  1
  Ba  Ba1  1  0.99351100  0.99351100  0.33711400  1
  Ba  Ba2  1  0.01036000  0.01036000  0.65791400  1
  Y  Y0  1  0.70570700  0.70570700  0.26244600  1
  Y  Y1  1  0.71035100  0.71035100  0.59672400  1
  Y  Y2  1  0.70681500  0.70681500  0.93393100  1
  Y  Y3  1  0.29464400  0.29464400  0.07004900  1
  Y  Y4  1  0.29729500  0.29729500  0.73415700  1
  Ni  Ni0  1  0.48592500  0.48592500  0.17467600  1
  Ni  Ni1  1  0.50089800  0.50089800  0.83364300  1
  Ni  Ni2  1  0.49213600  0.49213600  0.50122700  1
  O  O0  1  0.41224900  0.83925600  0.45640300  1
  O  O1  1  0.83925600  0.41224900  0.45640300  1
  O  O2  1  0.40926500  0.88393700  0.11807400  1
  O  O3  1  0.41485100  0.88248800  0.78323000  1
  O  O4  1  0.61075200  0.10843800  0.19553400  1
  O  O5  1  0.60769900  0.11592300  0.56311900  1
  O  O6  1  0.58923400  0.11837100  0.88312300  1
  O  O7  1  0.10843800  0.61075200  0.19553400  1
  O  O8  1  0.11592300  0.60769900  0.56311900  1
  O  O9  1  0.11837100  0.58923400  0.88312300  1
  O  O10  1  0.88393700  0.40926500  0.11807400  1
  O  O11  1  0.88248800  0.41485100  0.78323000  1
  O  O12  1  0.50329400  0.50329400  0.00045800  1
  O  O13  1  0.50422500  0.50422500  0.33207600  1
  O  O14  1  0.50371200  0.50371200  0.66520100  1
loop_
_geom_bond_atom_site_label_1
_geom_bond_atom_site_label_2
_geom_bond_distance
_geom_bond_site_symmetry_2
Ba0 O7 2.730301 1_545
Ba0 O4 2.730301 1_455
Ba0 O12 2.901869 1_545
Ba0 O12 2.901869 1_455
Ba0 O10 2.921967 1_455
Ba0 O2 2.921967 1_545
Ba0 O6 2.955317 1_454
Ba0 O9 2.955317 1_544
Ba0 O3 2.955865 1_544
Ba0 O11 2.955865 1_454
Ba1 O0 2.903738 1_655
Ba1 O1 2.903738 1_565
Ba1 O13 2.904391 1_655
Ba1 O13 2.904391 1_565
Ba1 O5 2.936001 1_565
Ba1 O8 2.936001 1_655
Ba1 O7 2.972566 1_655
Ba1 O4 2.972566 1_565
Ba1 O10 2.985210 1_565
Ba1 O2 2.985210 1_655
Ba2 O8 2.770154 1_545
Ba2 O5 2.770154 1_455
Ba2 O1 2.802959 1_455
Ba2 O0 2.802959 1_545
Ba2 O14 2.903359 1_455
Ba2 O14 2.903359 1_545
Ba2 O11 2.934257 1_455
Ba2 O3 2.934257 1_545
Ba2 O6 3.049649 1_455
Ba2 O9 3.049649 1_545
Ni0 O13 1.863412 1_555
Ni0 O12 1.916625 1_555
Ni0 O7 2.053998 1_555
Ni0 O4 2.053998 1_555
Ni0 O2 2.277936 1_555
Ni0 O10 2.277936 1_555
Ni1 O14 1.896840 1_555
Ni1 O12 1.898178 1_556
Ni1 O3 2.150583 1_555
Ni1 O11 2.150583 1_555
Ni1 O6 2.150587 1_555
Ni1 O9 2.150587 1_555
Ni2 O13 1.874269 1_555
Ni2 O14 1.905251 1_555
Ni2 O1 1.952214 1_555
Ni2 O0 1.952214 1_555
Ni2 O5 2.059948 1_555
Ni2 O8 2.059948 1_555
O0 Y0 2.435000 1_555
O0 Y1 2.469675 1_555
O1 Y0 2.435000 1_555
O1 Y1 2.469675 1_555
O2 Y3 2.262287 1_565
O2 Y0 2.408579 1_555
O2 Y2 2.409066 1_554
O3 Y4 2.280864 1_565
O3 Y1 2.418595 1_555
O3 Y2 2.447173 1_555
O4 Y0 2.265814 1_545
O4 Y3 2.333478 1_555
O5 Y1 2.266626 1_545
O5 Y4 2.329544 1_555
O6 Y2 2.260957 1_545
O6 Y3 2.427004 1_556
O6 Y4 2.427158 1_555
O7 Y0 2.265814 1_455
O7 Y3 2.333478 1_555
O8 Y1 2.266626 1_455
O8 Y4 2.329544 1_555
O9 Y2 2.260957 1_455
O9 Y3 2.427004 1_556
O9 Y4 2.427158 1_555
O10 Y3 2.262287 1_655
O10 Y0 2.408579 1_555
O10 Y2 2.409066 1_554
O11 Y4 2.280864 1_655
O11 Y1 2.418595 1_555
O11 Y2 2.447173 1_555
O12 Y2 2.297906 1_554
O12 Y3 2.355722 1_555
O13 Y0 2.274885 1_555
O14 Y4 2.330507 1_555
O14 Y1 2.333036 1_555
