# generated using pymatgen
data_Cs8Mg(Sn2O3)4
_symmetry_space_group_name_H-M   'P 1'
_cell_length_a   6.23854185
_cell_length_b   9.01475714
_cell_length_c   16.07528809
_cell_angle_alpha   95.40328454
_cell_angle_beta   78.80329092
_cell_angle_gamma   90.44271060
_symmetry_Int_Tables_number   1
_chemical_formula_structural   Cs8Mg(Sn2O3)4
_chemical_formula_sum   'Cs8 Mg1 Sn8 O12'
_cell_volume   882.85735877
_cell_formula_units_Z   1
loop_
 _symmetry_equiv_pos_site_id
 _symmetry_equiv_pos_as_xyz
  1  'x, y, z'
loop_
 _atom_site_type_symbol
 _atom_site_label
 _atom_site_symmetry_multiplicity
 _atom_site_fract_x
 _atom_site_fract_y
 _atom_site_fract_z
 _atom_site_occupancy
  Cs  Cs0  1  0.23550801  0.54801464  0.37271079  1
  Cs  Cs1  1  0.76449199  0.45198536  0.62728921  1
  Cs  Cs2  1  0.83849669  0.00816307  0.16448219  1
  Cs  Cs3  1  0.16150331  0.99183693  0.83551781  1
  Cs  Cs4  1  0.37359259  0.30750448  0.13229200  1
  Cs  Cs5  1  0.62640741  0.69249552  0.86770800  1
  Cs  Cs6  1  0.71685891  0.84561420  0.40527421  1
  Cs  Cs7  1  0.28314109  0.15438580  0.59472579  1
  Mg  Mg0  1  -0.00000000  0.50000000  0.00000000  1
  Sn  Sn0  1  0.33658356  0.76209537  0.16189439  1
  Sn  Sn1  1  0.66341644  0.23790463  0.83810561  1
  Sn  Sn2  1  0.73409061  0.29524102  0.37292241  1
  Sn  Sn3  1  0.26590939  0.70475898  0.62707759  1
  Sn  Sn4  1  0.25949530  0.08638699  0.31713870  1
  Sn  Sn5  1  0.74050470  0.91361301  0.68286130  1
  Sn  Sn6  1  0.80783380  0.56645698  0.22082617  1
  Sn  Sn7  1  0.19216620  0.43354302  0.77917383  1
  O  O0  1  0.02719074  0.23190266  0.28977354  1
  O  O1  1  0.47786557  0.76724920  0.70983350  1
  O  O2  1  0.04051610  0.72597385  0.24367326  1
  O  O3  1  0.45282099  0.27913035  0.75558756  1
  O  O4  1  0.97280926  0.76809734  0.71022646  1
  O  O5  1  0.52213443  0.23275080  0.29016650  1
  O  O6  1  0.95948390  0.27402615  0.75632674  1
  O  O7  1  0.54717901  0.72086965  0.24441244  1
  O  O8  1  0.32377552  0.99215723  0.19007807  1
  O  O9  1  0.67622448  0.00784277  0.80992193  1
  O  O10  1  0.74763763  0.51781896  0.34939999  1
  O  O11  1  0.25236237  0.48218104  0.65060001  1
loop_
_geom_bond_atom_site_label_1
_geom_bond_atom_site_label_2
_geom_bond_distance
_geom_bond_site_symmetry_2
Cs0 O7 3.076267 1_555
Cs0 O10 3.144667 1_455
Cs0 O10 3.154592 1_555
Cs0 O2 3.161178 1_555
Cs0 O5 3.388526 1_555
Cs0 O0 3.389285 1_555
Cs1 O3 3.076267 1_555
Cs1 O11 3.144667 1_655
Cs1 O11 3.154592 1_555
Cs1 O6 3.161178 1_555
Cs1 O1 3.388526 1_555
Cs1 O4 3.389285 1_555
Cs2 O0 3.103136 1_655
Cs2 O5 3.133547 1_555
Cs2 O8 3.139612 1_645
Cs2 O8 3.161052 1_545
Cs2 O2 3.311000 1_645
Cs2 O7 3.362809 1_545
Cs3 O4 3.103136 1_455
Cs3 O1 3.133547 1_555
Cs3 O9 3.139612 1_465
Cs3 O9 3.161052 1_565
Cs3 O6 3.311000 1_465
Cs3 O3 3.362809 1_565
Cs4 O5 2.999796 1_555
Cs4 O8 3.067971 1_545
Cs4 O0 3.117843 1_555
Cs4 Mg0 3.955787 1_555
Cs4 Mg0 4.490881 1_655
Cs5 O1 2.999796 1_555
Cs5 O9 3.067971 1_565
Cs5 O4 3.117843 1_555
Cs5 Mg0 3.955787 1_656
Cs5 Mg0 4.490881 1_556
Cs6 O10 3.002923 1_555
Cs6 O2 3.075321 1_655
Cs6 O7 3.093382 1_555
Cs7 O11 3.002923 1_555
Cs7 O6 3.075321 1_455
Cs7 O3 3.093382 1_555
Mg0 Sn7 3.515021 1_554
Mg0 Sn6 3.515021 1_455
O0 Sn2 2.092686 1_455
O0 Sn4 2.097677 1_555
O1 Sn3 2.089517 1_555
O1 Sn5 2.100470 1_555
O2 Sn0 2.091439 1_555
O2 Sn6 2.094090 1_455
O3 Sn1 2.097860 1_555
O3 Sn7 2.102799 1_555
O4 Sn3 2.092686 1_655
O4 Sn5 2.097677 1_555
O5 Sn2 2.089517 1_555
O5 Sn4 2.100470 1_555
O6 Sn1 2.091439 1_555
O6 Sn7 2.094090 1_655
O7 Sn0 2.097860 1_555
O7 Sn6 2.102799 1_555
O8 Sn0 2.079535 1_555
O8 Sn4 2.101131 1_565
O9 Sn1 2.079535 1_555
O9 Sn5 2.101131 1_545
O10 Sn2 2.074601 1_555
O10 Sn6 2.114683 1_555
O11 Sn3 2.074601 1_555
O11 Sn7 2.114683 1_555
