# generated using pymatgen
data_SrSmEuSbO6
_symmetry_space_group_name_H-M   'P 1'
_cell_length_a   5.86793525
_cell_length_b   6.00897588
_cell_length_c   8.39480148
_cell_angle_alpha   90.09355652
_cell_angle_beta   89.62853927
_cell_angle_gamma   90.01676868
_symmetry_Int_Tables_number   1
_chemical_formula_structural   SrSmEuSbO6
_chemical_formula_sum   'Sr2 Sm2 Eu2 Sb2 O12'
_cell_volume   295.99643517
_cell_formula_units_Z   2
loop_
 _symmetry_equiv_pos_site_id
 _symmetry_equiv_pos_as_xyz
  1  'x, y, z'
loop_
 _atom_site_type_symbol
 _atom_site_label
 _atom_site_symmetry_multiplicity
 _atom_site_fract_x
 _atom_site_fract_y
 _atom_site_fract_z
 _atom_site_occupancy
  Sr  Sr0  1  0.51248154  0.54729059  0.25091320  1
  Sr  Sr1  1  0.48751846  0.45270941  0.74908680  1
  Sm  Sm0  1  0.50000000  -0.00000000  -0.00000000  1
  Sm  Sm1  1  -0.00000000  0.50000000  0.50000000  1
  Eu  Eu0  1  0.98667727  0.04874081  0.24885238  1
  Eu  Eu1  1  0.01332273  0.95125919  0.75114762  1
  Sb  Sb0  1  -0.00000000  0.50000000  -0.00000000  1
  Sb  Sb1  1  0.50000000  -0.00000000  0.50000000  1
  O  O0  1  0.18302034  0.22035829  0.94878760  1
  O  O1  1  0.31452065  0.72260855  0.55048978  1
  O  O2  1  0.81697966  0.77964171  0.05121240  1
  O  O3  1  0.68547935  0.27739145  0.44951022  1
  O  O4  1  0.27689976  0.69045397  0.95178524  1
  O  O5  1  0.22195062  0.18853852  0.55057698  1
  O  O6  1  0.72310024  0.30954603  0.04821476  1
  O  O7  1  0.77804938  0.81146148  0.44942302  1
  O  O8  1  0.40258015  0.97303746  0.26835053  1
  O  O9  1  0.09034821  0.46834159  0.23177997  1
  O  O10  1  0.59741985  0.02696254  0.73164947  1
  O  O11  1  0.90965179  0.53165841  0.76822003  1
loop_
_geom_bond_atom_site_label_1
_geom_bond_atom_site_label_2
_geom_bond_distance
_geom_bond_site_symmetry_2
Eu0 O8 2.489136 1_645
Eu0 O7 2.519272 1_545
Eu0 O2 2.524040 1_545
Eu0 O9 2.597513 1_655
Eu0 O6 2.780088 1_555
Eu0 O3 2.793606 1_555
Eu0 O0 2.950645 1_654
Eu0 O5 3.010818 1_655
Eu1 O10 2.489136 1_465
Eu1 O5 2.519272 1_565
Eu1 O0 2.524040 1_565
Eu1 O11 2.597513 1_455
Eu1 O4 2.780088 1_555
Eu1 O1 2.793606 1_555
Eu1 O2 2.950645 1_456
Eu1 O7 3.010818 1_455
O0 Sb0 2.038265 1_556
O0 Sm0 2.326257 1_556
O0 Sr1 2.814204 1_555
O1 Sb1 2.034168 1_565
O1 Sm1 2.319912 1_555
O1 Sr1 2.544020 1_555
O1 Sr0 2.956015 1_555
O2 Sb0 2.038265 1_655
O2 Sm0 2.326257 1_565
O2 Sr0 2.814204 1_555
O3 Sb1 2.034168 1_555
O3 Sm1 2.319912 1_655
O3 Sr0 2.544020 1_555
O3 Sr1 2.956015 1_555
O4 Sb0 2.026209 1_556
O4 Sm0 2.310943 1_566
O4 Sr1 2.535677 1_555
O4 Sr0 3.001585 1_556
O5 Sb1 2.028880 1_555
O5 Sm1 2.321732 1_555
O5 Sr1 2.783681 1_555
O6 Sb0 2.026209 1_655
O6 Sm0 2.310943 1_555
O6 Sr0 2.535677 1_555
O6 Sr1 3.001585 1_554
O7 Sb1 2.028880 1_565
O7 Sm1 2.321732 1_655
O7 Sr0 2.783681 1_555
O8 Sb1 2.036673 1_565
O8 Sm0 2.326447 1_565
O8 Sr0 2.642110 1_555
O9 Sb0 2.029244 1_555
O9 Sm1 2.317409 1_555
O9 Sr0 2.528015 1_555
O10 Sb1 2.036673 1_555
O10 Sm0 2.326447 1_556
O10 Sr1 2.642110 1_555
O11 Sb0 2.029244 1_656
O11 Sm1 2.317409 1_655
O11 Sr1 2.528015 1_555
