# generated using pymatgen
data_Yb4Mg(Ru2O7)2
_symmetry_space_group_name_H-M   'P 1'
_cell_length_a   7.29859602
_cell_length_b   7.30035291
_cell_length_c   7.30052737
_cell_angle_alpha   60.47602569
_cell_angle_beta   60.47597837
_cell_angle_gamma   60.48042974
_symmetry_Int_Tables_number   1
_chemical_formula_structural   Yb4Mg(Ru2O7)2
_chemical_formula_sum   'Yb4 Mg1 Ru4 O14'
_cell_volume   278.02537841
_cell_formula_units_Z   1
loop_
 _symmetry_equiv_pos_site_id
 _symmetry_equiv_pos_as_xyz
  1  'x, y, z'
loop_
 _atom_site_type_symbol
 _atom_site_label
 _atom_site_symmetry_multiplicity
 _atom_site_fract_x
 _atom_site_fract_y
 _atom_site_fract_z
 _atom_site_occupancy
  Yb  Yb0  1  0.47500600  0.01495600  0.47460100  1
  Yb  Yb1  1  0.01481700  0.47535400  0.47553400  1
  Yb  Yb2  1  0.47576400  0.47518600  0.01477700  1
  Yb  Yb3  1  0.49836300  0.49751300  0.49833600  1
  Mg  Mg0  1  0.74490200  0.74670400  0.74520500  1
  Ru  Ru0  1  0.00720600  0.49367300  0.00718800  1
  Ru  Ru1  1  0.49320100  0.00771300  0.00728300  1
  Ru  Ru2  1  0.00729400  0.00770000  0.49318400  1
  Ru  Ru3  1  0.00322300  0.00318700  0.00316000  1
  O  O0  1  0.63744100  0.63794400  0.63744100  1
  O  O1  1  0.37501100  0.37506800  0.37494500  1
  O  O2  1  0.32338700  0.93241100  0.93129000  1
  O  O3  1  0.06956900  0.67331600  0.67291200  1
  O  O4  1  0.93176500  0.32357600  0.93185400  1
  O  O5  1  0.93122300  0.93243100  0.32332600  1
  O  O6  1  0.32574600  0.32634200  0.92974000  1
  O  O7  1  0.32522800  0.93040200  0.32539300  1
  O  O8  1  0.92987200  0.32621500  0.32577900  1
  O  O9  1  0.67289000  0.67331000  0.06973700  1
  O  O10  1  0.07305400  0.07285600  0.68007900  1
  O  O11  1  0.67999900  0.07296700  0.07317400  1
  O  O12  1  0.67298200  0.07102000  0.67300700  1
  O  O13  1  0.07279900  0.68015700  0.07279300  1
loop_
_geom_bond_atom_site_label_1
_geom_bond_atom_site_label_2
_geom_bond_distance
_geom_bond_site_symmetry_2
Mg0 O0 1.924052 1_555
Mg0 O3 1.993913 1_655
Mg0 O9 1.993935 1_556
Mg0 O12 1.994248 1_565
Mg0 O2 2.595024 1_555
Mg0 O5 2.597492 1_555
Mg0 O4 2.605816 1_555
O0 Yb0 2.311458 1_565
O0 Yb1 2.311860 1_655
O0 Yb2 2.311891 1_556
O0 Yb3 2.486023 1_555
O1 Yb1 2.171857 1_555
O1 Yb2 2.172246 1_555
O1 Yb0 2.172744 1_555
O1 Yb3 2.192494 1_555
O2 Ru1 1.948284 1_566
O2 Ru3 1.967656 1_566
O2 Yb0 2.782883 1_565
O2 Yb2 2.784734 1_556
O3 Ru0 2.054697 1_556
O3 Ru2 2.055449 1_565
O3 Yb3 2.605524 1_555
O3 Yb1 2.741115 1_555
O4 Ru0 1.947555 1_656
O4 Ru3 1.969556 1_656
O4 Yb2 2.777196 1_556
O4 Yb1 2.779721 1_655
O5 Ru2 1.949026 1_665
O5 Ru3 1.968067 1_665
O5 Yb0 2.779290 1_565
O5 Yb1 2.783698 1_655
O6 Ru0 1.950270 1_556
O6 Ru1 1.951285 1_556
O6 Yb2 2.296132 1_556
O6 Yb3 2.613402 1_555
O7 Ru2 1.947552 1_565
O7 Ru1 1.949073 1_565
O7 Yb0 2.294315 1_565
O7 Yb3 2.623487 1_555
O8 Ru2 1.950597 1_655
O8 Ru0 1.951038 1_655
O8 Yb1 2.295968 1_655
O8 Yb3 2.613595 1_555
O9 Ru0 2.054471 1_655
O9 Ru1 2.055450 1_565
O9 Yb3 2.604848 1_555
O9 Yb2 2.741270 1_555
O10 Ru2 1.956611 1_555
O10 Ru3 1.992498 1_556
O10 Yb0 2.470035 1_555
O10 Yb1 2.472828 1_555
O11 Ru1 1.956869 1_555
O11 Ru3 1.992479 1_655
O11 Yb0 2.467015 1_555
O11 Yb2 2.470850 1_555
O12 Ru2 2.054345 1_655
O12 Ru1 2.054477 1_556
O12 Yb3 2.592851 1_555
O12 Yb0 2.753779 1_555
O13 Ru0 1.955218 1_555
O13 Ru3 1.992575 1_565
O13 Yb1 2.474671 1_555
O13 Yb2 2.475582 1_555
