# generated using pymatgen
data_Gd3Ge13Ir4
_symmetry_space_group_name_H-M   'P 1'
_cell_length_a   9.07664000
_cell_length_b   9.07664000
_cell_length_c   9.07664000
_cell_angle_alpha   90.00000000
_cell_angle_beta   90.00000000
_cell_angle_gamma   90.00000000
_symmetry_Int_Tables_number   1
_chemical_formula_structural   Gd3Ge13Ir4
_chemical_formula_sum   'Gd6 Ge26 Ir8'
_cell_volume   747.78255978
_cell_formula_units_Z   2
loop_
 _symmetry_equiv_pos_site_id
 _symmetry_equiv_pos_as_xyz
  1  'x, y, z'
loop_
 _atom_site_type_symbol
 _atom_site_label
 _atom_site_symmetry_multiplicity
 _atom_site_fract_x
 _atom_site_fract_y
 _atom_site_fract_z
 _atom_site_occupancy
  Gd  Gd0  1  0.00000000  0.50000000  0.75000000  1
  Gd  Gd1  1  0.50000000  0.25000000  0.00000000  1
  Gd  Gd2  1  0.75000000  0.00000000  0.50000000  1
  Gd  Gd3  1  0.00000000  0.50000000  0.25000000  1
  Gd  Gd4  1  0.50000000  0.75000000  0.00000000  1
  Gd  Gd5  1  0.25000000  0.00000000  0.50000000  1
  Ge  Ge0  1  0.50000000  0.50000000  0.50000000  1
  Ge  Ge1  1  0.00000000  0.00000000  0.00000000  1
  Ge  Ge2  1  0.80813500  0.35418800  0.50000000  1
  Ge  Ge3  1  0.64581200  0.50000000  0.80813500  1
  Ge  Ge4  1  0.50000000  0.19186500  0.64581200  1
  Ge  Ge5  1  0.19186500  0.64581200  0.50000000  1
  Ge  Ge6  1  0.35418800  0.50000000  0.19186500  1
  Ge  Ge7  1  0.50000000  0.80813500  0.35418800  1
  Ge  Ge8  1  0.80813500  0.64581200  0.50000000  1
  Ge  Ge9  1  0.64581200  0.50000000  0.19186500  1
  Ge  Ge10  1  0.19186500  0.35418800  0.50000000  1
  Ge  Ge11  1  0.35418800  0.50000000  0.80813500  1
  Ge  Ge12  1  0.50000000  0.80813500  0.64581200  1
  Ge  Ge13  1  0.50000000  0.19186500  0.35418800  1
  Ge  Ge14  1  0.30813500  0.00000000  0.85418800  1
  Ge  Ge15  1  0.14581200  0.30813500  0.00000000  1
  Ge  Ge16  1  0.00000000  0.14581200  0.69186500  1
  Ge  Ge17  1  0.69186500  0.00000000  0.14581200  1
  Ge  Ge18  1  0.85418800  0.69186500  0.00000000  1
  Ge  Ge19  1  0.00000000  0.85418800  0.30813500  1
  Ge  Ge20  1  0.30813500  0.00000000  0.14581200  1
  Ge  Ge21  1  0.14581200  0.69186500  0.00000000  1
  Ge  Ge22  1  0.69186500  0.00000000  0.85418800  1
  Ge  Ge23  1  0.85418800  0.30813500  0.00000000  1
  Ge  Ge24  1  0.00000000  0.14581200  0.30813500  1
  Ge  Ge25  1  0.00000000  0.85418800  0.69186500  1
  Ir  Ir0  1  0.75000000  0.25000000  0.75000000  1
  Ir  Ir1  1  0.25000000  0.75000000  0.25000000  1
  Ir  Ir2  1  0.75000000  0.75000000  0.25000000  1
  Ir  Ir3  1  0.25000000  0.25000000  0.75000000  1
  Ir  Ir4  1  0.25000000  0.75000000  0.75000000  1
  Ir  Ir5  1  0.75000000  0.25000000  0.25000000  1
  Ir  Ir6  1  0.25000000  0.25000000  0.25000000  1
  Ir  Ir7  1  0.75000000  0.75000000  0.75000000  1
loop_
_geom_bond_atom_site_label_1
_geom_bond_atom_site_label_2
_geom_bond_distance
_geom_bond_site_symmetry_2
Gd0 Ge2 3.151742 1_455
Gd0 Ge10 3.151742 1_555
Gd0 Ge18 3.151742 1_456
Gd0 Ge15 3.151742 1_556
Gd0 Ge8 3.151742 1_455
Gd0 Ge5 3.151742 1_555
Gd0 Ge21 3.151742 1_556
Gd0 Ge23 3.151742 1_456
Gd0 Ir3 3.209077 1_555
Gd0 Ir4 3.209077 1_555
Gd0 Ir0 3.209077 1_455
Gd0 Ir7 3.209077 1_455
Gd0 Ge3 3.257854 1_455
Gd0 Ge25 3.257854 1_555
Gd0 Ge16 3.257854 1_555
Gd0 Ge11 3.257854 1_555
Gd1 Ge14 3.151742 1_554
Gd1 Ge9 3.151742 1_555
Gd1 Ge17 3.151742 1_555
Gd1 Ge11 3.151742 1_554
Gd1 Ge22 3.151742 1_554
Gd1 Ge3 3.151742 1_554
Gd1 Ge20 3.151742 1_555
Gd1 Ge6 3.151742 1_555
Gd1 Ir6 3.209077 1_555
Gd1 Ir3 3.209077 1_554
Gd1 Ir5 3.209077 1_555
Gd1 Ir0 3.209077 1_554
Gd1 Ge4 3.257854 1_554
Gd1 Ge23 3.257854 1_555
Gd1 Ge15 3.257854 1_555
Gd1 Ge13 3.257854 1_555
Gd2 Ge13 3.151742 1_555
Gd2 Ge25 3.151742 1_645
Gd2 Ge4 3.151742 1_555
Gd2 Ge16 3.151742 1_655
Gd2 Ge12 3.151742 1_545
Gd2 Ge7 3.151742 1_545
Gd2 Ge24 3.151742 1_655
Gd2 Ge19 3.151742 1_645
Gd2 Ir0 3.209077 1_555
Gd2 Ir7 3.209077 1_545
Gd2 Ir5 3.209077 1_555
Gd2 Ir2 3.209077 1_545
Gd2 Ge22 3.257854 1_555
Gd2 Ge8 3.257854 1_545
Gd2 Ge17 3.257854 1_555
Gd2 Ge2 3.257854 1_555
Gd3 Ge2 3.151742 1_455
Gd3 Ge10 3.151742 1_555
Gd3 Ge18 3.151742 1_455
Gd3 Ge8 3.151742 1_455
Gd3 Ge5 3.151742 1_555
Gd3 Ge15 3.151742 1_555
Gd3 Ge21 3.151742 1_555
Gd3 Ge23 3.151742 1_455
Gd3 Ir6 3.209077 1_555
Gd3 Ir2 3.209077 1_455
Gd3 Ir5 3.209077 1_455
Gd3 Ir1 3.209077 1_555
Gd3 Ge19 3.257854 1_555
Gd3 Ge9 3.257854 1_455
Gd3 Ge24 3.257854 1_555
Gd3 Ge6 3.257854 1_555
Gd4 Ge9 3.151742 1_555
Gd4 Ge22 3.151742 1_564
Gd4 Ge14 3.151742 1_564
Gd4 Ge20 3.151742 1_565
Gd4 Ge11 3.151742 1_554
Gd4 Ge17 3.151742 1_565
Gd4 Ge3 3.151742 1_554
Gd4 Ge6 3.151742 1_555
Gd4 Ir4 3.209077 1_554
Gd4 Ir1 3.209077 1_555
Gd4 Ir7 3.209077 1_554
Gd4 Ir2 3.209077 1_555
Gd4 Ge12 3.257854 1_554
Gd4 Ge18 3.257854 1_555
Gd4 Ge7 3.257854 1_555
Gd4 Ge21 3.257854 1_555
Gd5 Ge13 3.151742 1_555
Gd5 Ge16 3.151742 1_555
Gd5 Ge4 3.151742 1_555
Gd5 Ge25 3.151742 1_545
Gd5 Ge24 3.151742 1_555
Gd5 Ge12 3.151742 1_545
Gd5 Ge7 3.151742 1_545
Gd5 Ge19 3.151742 1_545
Gd5 Ir6 3.209077 1_555
Gd5 Ir3 3.209077 1_555
Gd5 Ir4 3.209077 1_545
Gd5 Ir1 3.209077 1_545
Gd5 Ge14 3.257854 1_555
Gd5 Ge5 3.257854 1_545
Gd5 Ge10 3.257854 1_555
Gd5 Ge20 3.257854 1_555
Ge0 Ge6 3.094167 1_555
Ge0 Ge4 3.094167 1_555
Ge0 Ge9 3.094167 1_555
Ge0 Ge13 3.094167 1_555
Ge0 Ge10 3.094167 1_555
Ge0 Ge5 3.094167 1_555
Ge0 Ge8 3.094167 1_555
Ge0 Ge7 3.094167 1_555
Ge0 Ge12 3.094167 1_555
Ge0 Ge2 3.094167 1_555
Ge0 Ge11 3.094167 1_555
Ge0 Ge3 3.094167 1_555
Ge1 Ge23 3.094167 1_455
Ge1 Ge14 3.094167 1_554
Ge1 Ge20 3.094167 1_555
Ge1 Ge19 3.094167 1_545
Ge1 Ge24 3.094167 1_555
Ge1 Ge15 3.094167 1_555
Ge1 Ge16 3.094167 1_554
Ge1 Ge21 3.094167 1_545
Ge1 Ge17 3.094167 1_455
Ge1 Ge22 3.094167 1_454
Ge1 Ge25 3.094167 1_544
Ge1 Ge18 3.094167 1_445
Ge2 Ir5 2.514325 1_555
Ge2 Ir0 2.514325 1_555
Ge2 Ge8 2.646966 1_555
Ge3 Ir7 2.514325 1_555
Ge3 Ir0 2.514325 1_555
Ge4 Ir3 2.514325 1_555
Ge4 Ir0 2.514325 1_555
Ge5 Ir1 2.514325 1_555
Ge5 Ir4 2.514325 1_555
Ge6 Ir6 2.514325 1_555
Ge6 Ir1 2.514325 1_555
Ge6 Ge9 2.646966 1_555
Ge7 Ir1 2.514325 1_555
Ge7 Ir2 2.514325 1_555
Ge8 Ir2 2.514325 1_555
Ge8 Ir7 2.514325 1_555
Ge9 Ir2 2.514325 1_555
Ge9 Ir5 2.514325 1_555
Ge10 Ir6 2.514325 1_555
Ge10 Ir3 2.514325 1_555
Ge10 Ge5 2.646966 1_555
Ge11 Ir3 2.514325 1_555
Ge11 Ir4 2.514325 1_555
Ge11 Ge3 2.646966 1_555
Ge12 Ir7 2.514325 1_555
Ge12 Ir4 2.514325 1_555
Ge12 Ge7 2.646966 1_555
Ge13 Ir5 2.514325 1_555
Ge13 Ir6 2.514325 1_555
Ge13 Ge4 2.646966 1_555
Ge14 Ir3 2.514325 1_555
Ge14 Ir4 2.514325 1_545
Ge14 Ge20 2.646966 1_556
Ge15 Ir6 2.514325 1_555
Ge15 Ir3 2.514325 1_554
Ge15 Ge23 2.646966 1_455
Ge16 Ir0 2.514325 1_455
Ge16 Ir3 2.514325 1_555
Ge16 Ge25 2.646966 1_545
Ge17 Ir5 2.514325 1_555
Ge17 Ir2 2.514325 1_545
Ge17 Ge22 2.646966 1_554
Ge18 Ir2 2.514325 1_555
Ge18 Ir7 2.514325 1_554
Ge18 Ge21 2.646966 1_655
Ge19 Ir2 2.514325 1_455
Ge19 Ir1 2.514325 1_555
Ge19 Ge24 2.646966 1_565
Ge20 Ir1 2.514325 1_545
Ge20 Ir6 2.514325 1_555
Ge21 Ir1 2.514325 1_555
Ge21 Ir4 2.514325 1_554
Ge22 Ir0 2.514325 1_555
Ge22 Ir7 2.514325 1_545
Ge23 Ir0 2.514325 1_554
Ge23 Ir5 2.514325 1_555
Ge24 Ir6 2.514325 1_555
Ge24 Ir5 2.514325 1_455
Ge25 Ir4 2.514325 1_555
Ge25 Ir7 2.514325 1_455
