# generated using pymatgen
data_K3In(IO3)6
_symmetry_space_group_name_H-M   'P 1'
_cell_length_a   20.96170536
_cell_length_b   20.60606316
_cell_length_c   7.10125520
_cell_angle_alpha   83.00422979
_cell_angle_beta   77.34716195
_cell_angle_gamma   19.64860827
_symmetry_Int_Tables_number   1
_chemical_formula_structural   K3In(IO3)6
_chemical_formula_sum   'K6 In2 I12 O36'
_cell_volume   972.39165999
_cell_formula_units_Z   2
loop_
 _symmetry_equiv_pos_site_id
 _symmetry_equiv_pos_as_xyz
  1  'x, y, z'
loop_
 _atom_site_type_symbol
 _atom_site_label
 _atom_site_symmetry_multiplicity
 _atom_site_fract_x
 _atom_site_fract_y
 _atom_site_fract_z
 _atom_site_occupancy
  K  K0  1  0.50079000  0.49921000  0.50079000  1
  K  K1  1  0.75079000  0.74921000  0.75079000  1
  K  K2  1  0.34991100  0.45337100  0.65773300  1
  K  K3  1  0.65773300  0.53898500  0.34991100  1
  K  K4  1  0.79662900  0.90008900  0.71101500  1
  K  K5  1  0.71101500  0.59226700  0.79662900  1
  In  In0  1  0.00045600  0.99954400  0.00045600  1
  In  In1  1  0.25045600  0.24954400  0.25045600  1
  I  I0  1  0.08889200  0.00664200  0.39517800  1
  I  I1  1  0.39517800  0.50928900  0.08889200  1
  I  I2  1  0.24335800  0.16110800  0.74071100  1
  I  I3  1  0.74071100  0.85482200  0.24335800  1
  I  I4  1  0.25794400  0.33943400  0.75734200  1
  I  I5  1  0.75734200  0.64528000  0.25794400  1
  I  I6  1  0.91056600  0.99205600  0.60472000  1
  I  I7  1  0.60472000  0.49265800  0.91056600  1
  I  I8  1  0.24692700  0.06802300  0.24605200  1
  I  I9  1  0.24605200  0.43899800  0.24692700  1
  I  I10  1  0.18197700  0.00307300  0.81100200  1
  I  I11  1  0.81100200  0.00394800  0.18197700  1
  O  O0  1  0.32453800  0.08183000  0.17587200  1
  O  O1  1  0.17587200  0.41776000  0.32453800  1
  O  O2  1  0.16817000  0.92546200  0.83224000  1
  O  O3  1  0.83224000  0.07412800  0.16817000  1
  O  O4  1  0.30703300  0.22116300  0.92551800  1
  O  O5  1  0.92551800  0.54628700  0.30703300  1
  O  O6  1  0.02883700  0.94296700  0.70371300  1
  O  O7  1  0.70371300  0.32448200  0.02883700  1
  O  O8  1  0.70745600  0.38462100  0.64520900  1
  O  O9  1  0.64520900  0.26271300  0.70745600  1
  O  O10  1  0.86537900  0.54254400  0.98728700  1
  O  O11  1  0.98728700  0.60479100  0.86537900  1
  O  O12  1  0.35445300  0.31337200  0.85736200  1
  O  O13  1  0.85736200  0.47481400  0.35445300  1
  O  O14  1  0.93662800  0.89554700  0.77518600  1
  O  O15  1  0.77518600  0.39263800  0.93662800  1
  O  O16  1  0.35613100  0.73573100  0.29357300  1
  O  O17  1  0.29357300  0.61456600  0.35613100  1
  O  O18  1  0.51426900  0.89386900  0.63543400  1
  O  O19  1  0.63543400  0.95642700  0.51426900  1
  O  O20  1  0.97220200  0.05239500  0.29918900  1
  O  O21  1  0.29918900  0.67621400  0.97220200  1
  O  O22  1  0.19760500  0.27779800  0.57378600  1
  O  O23  1  0.57378600  0.95081100  0.19760500  1
  O  O24  1  0.06000600  0.10368200  0.21993600  1
  O  O25  1  0.21993600  0.61637700  0.06000600  1
  O  O26  1  0.14631800  0.18999400  0.63362300  1
  O  O27  1  0.63362300  0.03006400  0.14631800  1
  O  O28  1  0.23824800  0.06541400  0.99591600  1
  O  O29  1  0.99591600  0.70042200  0.23824800  1
  O  O30  1  0.18458600  0.01175200  0.54957800  1
  O  O31  1  0.54957800  0.25408400  0.18458600  1
  O  O32  1  0.50239500  0.79776000  0.21699100  1
  O  O33  1  0.21699100  0.48285400  0.50239500  1
  O  O34  1  0.45224000  0.74760500  0.76714600  1
  O  O35  1  0.76714600  0.03300900  0.45224000  1
loop_
_geom_bond_atom_site_label_1
_geom_bond_atom_site_label_2
_geom_bond_distance
_geom_bond_site_symmetry_2
K0 O8 2.735627 1_555
K0 O9 2.735641 1_555
K0 O17 2.735885 1_555
K0 O16 2.735899 1_555
K0 O21 3.180093 1_555
K0 O20 3.180093 1_555
K0 O6 3.183785 1_555
K0 O7 3.183785 1_555
K1 O10 2.735631 1_555
K1 O11 2.735645 1_555
K1 O19 2.735890 1_555
K1 O18 2.735903 1_555
K1 O23 3.180093 1_556
K1 O22 3.180093 1_655
K1 O5 3.183779 1_555
K1 O4 3.183786 1_565
K2 O33 2.709960 1_555
K2 O35 2.906325 1_555
K2 O25 2.925122 1_556
K2 O9 2.947792 1_555
K2 O14 2.962219 1_455
K2 O12 2.981030 1_555
K2 O17 3.000239 1_555
K2 O31 3.239958 1_555
K3 O32 2.709960 1_555
K3 O34 2.906325 1_555
K3 O24 2.925114 1_655
K3 O8 2.947806 1_555
K3 O15 2.962226 1_554
K3 O13 2.981048 1_555
K3 O16 3.000225 1_555
K3 O30 3.239958 1_565
K4 O35 2.709960 1_565
K4 O33 2.906325 1_655
K4 O27 2.925116 1_566
K4 O11 2.947795 1_555
K4 O12 2.962219 1_565
K4 O14 2.981028 1_555
K4 O19 3.000243 1_555
K4 O29 3.239958 1_555
K5 O34 2.709960 1_555
K5 O32 2.906325 1_556
K5 O26 2.925115 1_655
K5 O10 2.947810 1_555
K5 O13 2.962220 1_555
K5 O15 2.981046 1_555
K5 O18 3.000228 1_555
K5 O28 3.239958 1_565
In0 O3 2.147699 1_465
In0 O2 2.147699 1_554
In0 O21 2.198757 1_554
In0 O20 2.198757 1_465
In0 O7 2.212782 1_465
In0 O6 2.212790 1_554
In1 O0 2.147699 1_555
In1 O1 2.147699 1_555
In1 O23 2.198757 1_545
In1 O22 2.198757 1_555
In1 O5 2.212781 1_455
In1 O4 2.212783 1_554
I0 O24 1.832246 1_555
I0 O16 1.836620 1_545
I0 O20 1.888592 1_455
I0 O8 2.756251 1_455
I1 O25 1.832246 1_555
I1 O17 1.836620 1_555
I1 O21 1.888577 1_554
I1 O9 2.756258 1_554
I2 O26 1.832246 1_555
I2 O18 1.836620 1_545
I2 O22 1.888588 1_555
I2 O10 2.756256 1_455
I3 O27 1.832246 1_565
I3 O19 1.836620 1_555
I3 O23 1.888573 1_555
I3 O11 2.756247 1_554
I4 O11 1.832628 1_455
I4 O12 1.837288 1_555
I4 O4 1.878948 1_555
I4 O33 2.710641 1_555
I4 O19 2.754525 1_545
I5 O10 1.832626 1_554
I5 O13 1.837271 1_555
I5 O5 1.878963 1_555
I5 O32 2.710641 1_555
I5 O18 2.754520 1_555
I6 O9 1.832628 1_565
I6 O14 1.837283 1_555
I6 O6 1.878944 1_655
I6 O35 2.710641 1_565
I6 O17 2.754522 1_655
I7 O8 1.832632 1_555
I7 O15 1.837269 1_555
I7 O7 1.878960 1_556
I7 O34 2.710641 1_555
I7 O16 2.754526 1_556
I8 O32 1.832264 1_545
I8 O28 1.836957 1_554
I8 O0 1.859587 1_555
I9 O33 1.832264 1_555
I9 O29 1.836957 1_455
I9 O1 1.859587 1_555
I10 O34 1.832264 1_545
I10 O30 1.836957 1_555
I10 O2 1.859587 1_545
I11 O35 1.832264 1_555
I11 O31 1.836957 1_555
I11 O3 1.859587 1_555
