# generated using pymatgen
data_TmTe3
_symmetry_space_group_name_H-M   'P 1'
_cell_length_a   14.13695398
_cell_length_b   14.13695398
_cell_length_c   4.64156400
_cell_angle_alpha   90.00000000
_cell_angle_beta   90.00000000
_cell_angle_gamma   163.94237812
_symmetry_Int_Tables_number   1
_chemical_formula_structural   TmTe3
_chemical_formula_sum   'Tm2 Te6'
_cell_volume   256.58685727
_cell_formula_units_Z   2
loop_
 _symmetry_equiv_pos_site_id
 _symmetry_equiv_pos_as_xyz
  1  'x, y, z'
loop_
 _atom_site_type_symbol
 _atom_site_label
 _atom_site_symmetry_multiplicity
 _atom_site_fract_x
 _atom_site_fract_y
 _atom_site_fract_z
 _atom_site_occupancy
  Tm  Tm0  1  0.95040600  0.04959400  0.25000000  1
  Tm  Tm1  1  0.04959400  0.95040600  0.75000000  1
  Te  Te0  1  0.83760500  0.16239500  0.25000000  1
  Te  Te1  1  0.16239500  0.83760500  0.75000000  1
  Te  Te2  1  0.68541300  0.31458700  0.25000000  1
  Te  Te3  1  0.31458700  0.68541300  0.75000000  1
  Te  Te4  1  0.55103300  0.44896700  0.25000000  1
  Te  Te5  1  0.44896700  0.55103300  0.75000000  1
loop_
_geom_bond_atom_site_label_1
_geom_bond_atom_site_label_2
_geom_bond_distance
_geom_bond_site_symmetry_2
Te0 Te3 3.114492 1_544
Te0 Te3 3.114492 1_545
Te0 Te3 3.114492 1_654
Te0 Te3 3.114492 1_655
Te0 Tm0 3.158063 1_555
Te1 Te2 3.114492 1_566
Te1 Te2 3.114492 1_456
Te1 Te2 3.114492 1_565
Te1 Te2 3.114492 1_455
Te1 Tm1 3.158063 1_555
Te4 Tm1 3.047358 1_655
Te4 Tm1 3.047358 1_544
Te4 Tm1 3.047358 1_545
Te4 Tm1 3.047358 1_654
Te4 Tm0 3.440280 1_565
Te4 Tm0 3.440280 1_455
Te5 Tm0 3.047358 1_566
Te5 Tm0 3.047358 1_456
Te5 Tm0 3.047358 1_455
Te5 Tm0 3.047358 1_565
Te5 Tm1 3.440280 1_655
Te5 Tm1 3.440280 1_545
