# generated using pymatgen
data_Li9Mn2Co5O16
_symmetry_space_group_name_H-M   'P 1'
_cell_length_a   5.15431700
_cell_length_b   6.44397759
_cell_length_c   8.58878247
_cell_angle_alpha   96.96992512
_cell_angle_beta   94.46816790
_cell_angle_gamma   95.99113058
_symmetry_Int_Tables_number   1
_chemical_formula_structural   Li9Mn2Co5O16
_chemical_formula_sum   'Li9 Mn2 Co5 O16'
_cell_volume   280.42792019
_cell_formula_units_Z   1
loop_
 _symmetry_equiv_pos_site_id
 _symmetry_equiv_pos_as_xyz
  1  'x, y, z'
loop_
 _atom_site_type_symbol
 _atom_site_label
 _atom_site_symmetry_multiplicity
 _atom_site_fract_x
 _atom_site_fract_y
 _atom_site_fract_z
 _atom_site_occupancy
  Li  Li0  1  0.74965200  0.55354800  0.93001800  1
  Li  Li1  1  0.24856700  0.94446800  0.56446900  1
  Li  Li2  1  0.75731500  0.31842600  0.18957300  1
  Li  Li3  1  0.24597700  0.43892100  0.06026200  1
  Li  Li4  1  0.75123300  0.81020800  0.68529600  1
  Li  Li5  1  0.25247500  0.18973500  0.32085600  1
  Li  Li6  1  0.24597900  0.67446900  0.80391400  1
  Li  Li7  1  0.75068800  0.06974500  0.44559300  1
  Li  Li8  1  0.50012800  0.37447500  0.62540400  1
  Mn  Mn0  1  0.00004300  0.00044700  0.99827300  1
  Mn  Mn1  1  0.99996400  0.49856900  0.50231000  1
  Co  Co0  1  0.99997800  0.74992100  0.25052500  1
  Co  Co1  1  0.49936900  0.12972500  0.86964100  1
  Co  Co2  1  0.50063300  0.87295500  0.12707200  1
  Co  Co3  1  0.99975500  0.24904800  0.75095700  1
  Co  Co4  1  0.50024300  0.62562800  0.37550400  1
  O  O0  1  0.11015100  0.73122200  0.03873300  1
  O  O1  1  0.64769300  0.10954900  0.67835300  1
  O  O2  1  0.11191700  0.48204700  0.28741100  1
  O  O3  1  0.61348500  0.60873100  0.16369000  1
  O  O4  1  0.10637000  0.97614700  0.78975300  1
  O  O5  1  0.64415700  0.37108700  0.41024700  1
  O  O6  1  0.64182300  0.86808400  0.92313100  1
  O  O7  1  0.10412000  0.23124500  0.53719100  1
  O  O8  1  0.35379000  0.37702400  0.83740700  1
  O  O9  1  0.88853400  0.77030400  0.45939400  1
  O  O10  1  0.35705900  0.12787900  0.07867200  1
  O  O11  1  0.89323300  0.26921700  0.96618200  1
  O  O12  1  0.35420400  0.64441900  0.57452300  1
  O  O13  1  0.88958300  0.01844000  0.21077300  1
  O  O14  1  0.89479700  0.52056100  0.71070400  1
  O  O15  1  0.38708400  0.89375700  0.33416500  1
loop_
_geom_bond_atom_site_label_1
_geom_bond_atom_site_label_2
_geom_bond_distance
_geom_bond_site_symmetry_2
Li0 O14 2.075708 1_555
Li0 O11 2.094413 1_555
Li0 O0 2.159042 1_656
Li0 O6 2.163261 1_555
Li0 O3 2.178368 1_556
Li0 O8 2.265587 1_555
Li1 O12 2.072520 1_555
Li1 O7 2.095081 1_565
Li1 O4 2.116385 1_555
Li1 O9 2.139210 1_455
Li1 O15 2.154298 1_555
Li1 O1 2.301658 1_565
Li2 O5 2.026090 1_555
Li2 O2 2.074079 1_655
Li2 O11 2.093020 1_554
Li2 O3 2.112666 1_555
Li2 O13 2.139163 1_555
Li2 O10 2.356330 1_555
Li3 O8 2.039168 1_554
Li3 O11 2.072699 1_454
Li3 O0 2.100435 1_555
Li3 O2 2.116455 1_555
Li3 O3 2.154972 1_555
Li3 O10 2.161619 1_555
Li4 O1 2.060839 1_565
Li4 O4 2.098022 1_655
Li4 O14 2.107352 1_555
Li4 O9 2.112406 1_555
Li4 O6 2.160622 1_555
Li4 O12 2.286462 1_555
Li5 O7 2.062058 1_555
Li5 O15 2.109251 1_545
Li5 O2 2.130563 1_555
Li5 O13 2.156651 1_455
Li5 O10 2.189629 1_555
Li5 O5 2.253699 1_555
Li6 O14 2.026763 1_455
Li6 O12 2.081228 1_555
Li6 O8 2.096818 1_555
Li6 O4 2.155812 1_555
Li6 O0 2.187658 1_556
Li6 O6 2.366636 1_555
Li7 O7 2.050076 1_655
Li7 O1 2.100821 1_555
Li7 O5 2.122284 1_555
Li7 O9 2.137934 1_545
Li7 O15 2.174358 1_545
Li7 O13 2.191331 1_555
Li8 O8 2.023364 1_555
Li8 O1 2.026168 1_555
Li8 O5 2.042989 1_555
Li8 O12 2.046702 1_555
Li8 O14 2.182143 1_555
Li8 O7 2.188209 1_555
Mn0 O4 1.906592 1_545
Mn0 O11 1.915711 1_455
Mn0 O0 1.942622 1_546
Mn0 O13 1.947556 1_456
Mn0 O10 1.971381 1_556
Mn0 O6 1.976140 1_445
Mn1 O14 1.903452 1_555
Mn1 O7 1.907526 1_655
Mn1 O9 1.966094 1_555
Mn1 O2 1.970299 1_655
Mn1 O12 1.981324 1_655
Mn1 O5 1.991313 1_555
Co0 O9 1.919509 1_555
Co0 O2 1.930047 1_655
Co0 O13 1.937272 1_565
Co0 O0 1.941112 1_655
Co0 O3 2.139621 1_555
Co0 O15 2.141322 1_655
Co1 O1 1.861508 1_555
Co1 O8 1.871773 1_555
Co1 O10 1.992462 1_556
Co1 O6 1.996663 1_545
Co1 O4 2.180273 1_545
Co1 O11 2.189229 1_555
Co2 O3 1.909054 1_555
Co2 O15 1.909164 1_555
Co2 O6 1.946470 1_554
Co2 O10 1.946935 1_565
Co2 O13 2.152756 1_565
Co2 O0 2.161208 1_555
Co3 O14 1.946439 1_555
Co3 O7 1.946545 1_655
Co3 O4 1.954734 1_645
Co3 O1 1.958818 1_555
Co3 O11 1.962167 1_555
Co3 O8 1.971665 1_655
Co4 O5 1.915204 1_555
Co4 O12 1.916337 1_555
Co4 O15 1.943860 1_555
Co4 O3 1.947501 1_555
Co4 O9 2.148627 1_555
Co4 O2 2.154600 1_555
