# generated using pymatgen
data_Eu2TiO4
_symmetry_space_group_name_H-M   'P 1'
_cell_length_a   3.88888924
_cell_length_b   3.88888984
_cell_length_c   6.76263037
_cell_angle_alpha   106.70910243
_cell_angle_beta   106.71000101
_cell_angle_gamma   90.00000000
_symmetry_Int_Tables_number   1
_chemical_formula_structural   Eu2TiO4
_chemical_formula_sum   'Eu2 Ti1 O4'
_cell_volume   93.43783758
_cell_formula_units_Z   1
loop_
 _symmetry_equiv_pos_site_id
 _symmetry_equiv_pos_as_xyz
  1  'x, y, z'
loop_
 _atom_site_type_symbol
 _atom_site_label
 _atom_site_symmetry_multiplicity
 _atom_site_fract_x
 _atom_site_fract_y
 _atom_site_fract_z
 _atom_site_occupancy
  Eu  Eu0  1  0.35580794  0.35581178  0.71161587  1
  Eu  Eu1  1  0.64419206  0.64418822  0.28838413  1
  Ti  Ti0  1  -0.00000000  0.00000000  0.00000000  1
  O  O0  1  0.16300336  0.16301089  0.32600673  1
  O  O1  1  0.83699664  0.83698911  0.67399327  1
  O  O2  1  -0.00000000  0.50000000  0.00000000  1
  O  O3  1  0.50000000  0.00000000  0.00000000  1
loop_
_geom_bond_atom_site_label_1
_geom_bond_atom_site_label_2
_geom_bond_distance
_geom_bond_site_symmetry_2
Eu0 O0 2.382423 1_555
Eu0 O3 2.637307 1_556
Eu0 O2 2.637317 1_556
Eu0 O2 2.637317 1_656
Eu0 O3 2.637328 1_566
Eu0 O1 2.759633 1_555
Eu0 O1 2.759633 1_455
Eu0 O1 2.759701 1_545
Eu0 O1 2.759701 1_445
Eu1 O1 2.382423 1_555
Eu1 O3 2.637307 1_565
Eu1 O2 2.637317 1_655
Eu1 O2 2.637317 1_555
Eu1 O3 2.637328 1_555
Eu1 O0 2.759633 1_555
Eu1 O0 2.759633 1_655
Eu1 O0 2.759701 1_565
Eu1 O0 2.759701 1_665
O0 Ti0 2.014179 1_555
O1 Ti0 2.014179 1_666
O2 Ti0 1.944445 1_565
O2 Ti0 1.944445 1_555
O3 Ti0 1.944445 1_655
O3 Ti0 1.944445 1_555
