# generated using pymatgen
data_Li3Mn(CoO3)2
_symmetry_space_group_name_H-M   'P 1'
_cell_length_a   5.11333130
_cell_length_b   5.11333130
_cell_length_c   5.14282915
_cell_angle_alpha   80.87999296
_cell_angle_beta   80.87999296
_cell_angle_gamma   120.96237287
_symmetry_Int_Tables_number   1
_chemical_formula_structural   Li3Mn(CoO3)2
_chemical_formula_sum   'Li3 Mn1 Co2 O6'
_cell_volume   109.17537764
_cell_formula_units_Z   1
loop_
 _symmetry_equiv_pos_site_id
 _symmetry_equiv_pos_as_xyz
  1  'x, y, z'
loop_
 _atom_site_type_symbol
 _atom_site_label
 _atom_site_symmetry_multiplicity
 _atom_site_fract_x
 _atom_site_fract_y
 _atom_site_fract_z
 _atom_site_occupancy
  Li  Li0  1  0.33561300  0.66438700  0.50000000  1
  Li  Li1  1  0.66438700  0.33561300  0.50000000  1
  Li  Li2  1  0.00000000  0.00000000  0.50000000  1
  Mn  Mn0  1  0.50000000  0.50000000  0.00000000  1
  Co  Co0  1  0.83120900  0.16879100  0.00000000  1
  Co  Co1  1  0.16879100  0.83120900  0.00000000  1
  O  O0  1  0.10809800  0.42125700  0.22794300  1
  O  O1  1  0.42125700  0.10809800  0.22794300  1
  O  O2  1  0.74268900  0.74268900  0.22332400  1
  O  O3  1  0.57874300  0.89190200  0.77205700  1
  O  O4  1  0.89190200  0.57874300  0.77205700  1
  O  O5  1  0.25731100  0.25731100  0.77667600  1
loop_
_geom_bond_atom_site_label_1
_geom_bond_atom_site_label_2
_geom_bond_distance
_geom_bond_site_symmetry_2
Li0 O3 2.106133 1_555
Li0 O0 2.106133 1_555
Li0 O5 2.130871 1_555
Li0 O2 2.130871 1_555
Li0 O4 2.252581 1_455
Li0 O1 2.252581 1_565
Li1 O4 2.106133 1_555
Li1 O1 2.106133 1_555
Li1 O5 2.130871 1_555
Li1 O2 2.130871 1_555
Li1 O3 2.252581 1_545
Li1 O0 2.252581 1_655
Li2 O3 2.115967 1_445
Li2 O4 2.115967 1_445
Li2 O1 2.115967 1_555
Li2 O0 2.115967 1_555
Li2 O5 2.211918 1_555
Li2 O2 2.211918 1_445
Mn0 O2 1.928235 1_555
Mn0 O5 1.928235 1_554
Mn0 O1 1.956404 1_555
Mn0 O0 1.956404 1_555
Mn0 O4 1.956404 1_554
Mn0 O3 1.956404 1_554
Co0 O0 2.042188 1_655
Co0 O3 2.042188 1_544
Co0 O5 2.073240 1_654
Co0 O2 2.073240 1_545
Co0 O1 2.073879 1_555
Co0 O4 2.073879 1_554
Co1 O1 2.042188 1_565
Co1 O4 2.042188 1_454
Co1 O5 2.073240 1_564
Co1 O2 2.073240 1_455
Co1 O0 2.073879 1_555
Co1 O3 2.073879 1_554
