# generated using pymatgen
data_MgInHg2
_symmetry_space_group_name_H-M   'P 1'
_cell_length_a   12.17966770
_cell_length_b   12.17966770
_cell_length_c   12.17966770
_cell_angle_alpha   120.87834520
_cell_angle_beta   117.43371425
_cell_angle_gamma   91.49335270
_symmetry_Int_Tables_number   1
_chemical_formula_structural   MgInHg2
_chemical_formula_sum   'Mg1 In1 Hg2'
_cell_volume   1291.99623200
_cell_formula_units_Z   1
loop_
 _symmetry_equiv_pos_site_id
 _symmetry_equiv_pos_as_xyz
  1  'x, y, z'
loop_
 _atom_site_type_symbol
 _atom_site_label
 _atom_site_symmetry_multiplicity
 _atom_site_fract_x
 _atom_site_fract_y
 _atom_site_fract_z
 _atom_site_occupancy
  Mg  Mg0  1  0.00000000  0.00000000  0.00000000  1
  In  In0  1  0.50000000  0.00000000  0.50000000  1
  Hg  Hg0  1  0.24516900  0.00000000  0.24516900  1
  Hg  Hg1  1  0.75483100  0.00000000  0.75483100  1
loop_
_geom_bond_atom_site_label_1
_geom_bond_atom_site_label_2
_geom_bond_distance
_geom_bond_site_symmetry_2
Hg0 Mg0 3.101147 1_555
Hg0 In0 3.223361 1_555
Hg1 Mg0 3.101147 1_656
Hg1 In0 3.223361 1_555
