# generated using pymatgen
data_Zr3TePb4O13
_symmetry_space_group_name_H-M   'P 1'
_cell_length_a   7.69185248
_cell_length_b   7.69185248
_cell_length_c   7.69185236
_cell_angle_alpha   59.94401344
_cell_angle_beta   59.94401344
_cell_angle_gamma   59.94400972
_symmetry_Int_Tables_number   1
_chemical_formula_structural   Zr3TePb4O13
_chemical_formula_sum   'Zr3 Te1 Pb4 O13'
_cell_volume   321.38529648
_cell_formula_units_Z   1
loop_
 _symmetry_equiv_pos_site_id
 _symmetry_equiv_pos_as_xyz
  1  'x, y, z'
loop_
 _atom_site_type_symbol
 _atom_site_label
 _atom_site_symmetry_multiplicity
 _atom_site_fract_x
 _atom_site_fract_y
 _atom_site_fract_z
 _atom_site_occupancy
  Zr  Zr0  1  0.99890600  0.50077400  0.50077400  1
  Zr  Zr1  1  0.50077400  0.50077400  0.99890600  1
  Zr  Zr2  1  0.50077400  0.99890600  0.50077400  1
  Te  Te0  1  0.50039200  0.50039200  0.50039200  1
  Pb  Pb0  1  0.50149700  0.00064000  0.00064000  1
  Pb  Pb1  1  0.00064000  0.00064000  0.50149700  1
  Pb  Pb2  1  0.00064000  0.50149700  0.00064000  1
  Pb  Pb3  1  0.99830900  0.99830900  0.99830900  1
  O  O0  1  0.16794000  0.57136500  0.16794000  1
  O  O1  1  0.56641900  0.19892200  0.56641900  1
  O  O2  1  0.16794000  0.16794000  0.57136500  1
  O  O3  1  0.56641900  0.56641900  0.19892200  1
  O  O4  1  0.57136500  0.16794000  0.16794000  1
  O  O5  1  0.19892200  0.56641900  0.56641900  1
  O  O6  1  0.82830400  0.43403300  0.82830400  1
  O  O7  1  0.43564100  0.80046700  0.43564100  1
  O  O8  1  0.82830400  0.82830400  0.43403300  1
  O  O9  1  0.43564100  0.43564100  0.80046700  1
  O  O10  1  0.43403300  0.82830400  0.82830400  1
  O  O11  1  0.80046700  0.43564100  0.43564100  1
  O  O12  1  0.87167200  0.87167200  0.87167200  1
loop_
_geom_bond_atom_site_label_1
_geom_bond_atom_site_label_2
_geom_bond_distance
_geom_bond_site_symmetry_2
O0 Zr1 2.126018 1_554
O0 Zr0 2.126018 1_455
O0 Pb2 2.577794 1_555
O0 Pb3 2.703803 1_454
O1 Te0 1.947308 1_555
O1 Zr2 2.165308 1_545
O1 Pb1 2.778570 1_655
O1 Pb0 2.778570 1_556
O2 Zr2 2.126018 1_545
O2 Zr0 2.126018 1_455
O2 Pb1 2.577794 1_555
O2 Pb3 2.703803 1_445
O3 Te0 1.947308 1_555
O3 Zr1 2.165308 1_554
O3 Pb0 2.778570 1_565
O3 Pb2 2.778570 1_655
O4 Zr1 2.126018 1_554
O4 Zr2 2.126018 1_545
O4 Pb0 2.577794 1_555
O4 Pb3 2.703803 1_544
O5 Te0 1.947308 1_555
O5 Zr0 2.165308 1_455
O5 Pb1 2.778570 1_565
O5 Pb2 2.778570 1_556
O6 Zr1 2.097666 1_555
O6 Zr0 2.097666 1_555
O6 Pb2 2.630940 1_656
O6 Pb3 2.754158 1_545
O7 Te0 1.941398 1_555
O7 Zr2 2.148296 1_555
O7 Pb1 2.783115 1_565
O7 Pb0 2.783115 1_565
O8 Zr2 2.097666 1_555
O8 Zr0 2.097666 1_555
O8 Pb1 2.630940 1_665
O8 Pb3 2.754158 1_554
O9 Te0 1.941398 1_555
O9 Zr1 2.148296 1_555
O9 Pb0 2.783115 1_556
O9 Pb2 2.783115 1_556
O10 Zr1 2.097666 1_555
O10 Zr2 2.097666 1_555
O10 Pb0 2.630940 1_566
O10 Pb3 2.754158 1_455
O11 Te0 1.941398 1_555
O11 Zr0 2.148296 1_555
O11 Pb1 2.783115 1_655
O11 Pb2 2.783115 1_655
O12 Pb2 2.324326 1_656
O12 Pb0 2.324326 1_566
O12 Pb1 2.324326 1_665
O12 Pb3 2.386991 1_555
