# generated using pymatgen
data_Li4MnCo2O7
_symmetry_space_group_name_H-M   'P 1'
_cell_length_a   6.46245612
_cell_length_b   6.46245612
_cell_length_c   14.34840058
_cell_angle_alpha   71.04738946
_cell_angle_beta   71.04738946
_cell_angle_gamma   26.25938814
_symmetry_Int_Tables_number   1
_chemical_formula_structural   Li4MnCo2O7
_chemical_formula_sum   'Li8 Mn2 Co4 O14'
_cell_volume   249.94513626
_cell_formula_units_Z   2
loop_
 _symmetry_equiv_pos_site_id
 _symmetry_equiv_pos_as_xyz
  1  'x, y, z'
loop_
 _atom_site_type_symbol
 _atom_site_label
 _atom_site_symmetry_multiplicity
 _atom_site_fract_x
 _atom_site_fract_y
 _atom_site_fract_z
 _atom_site_occupancy
  Li  Li0  1  0.27429100  0.27429100  0.08335600  1
  Li  Li1  1  0.85997900  0.85997900  0.21949000  1
  Li  Li2  1  0.43409100  0.43409100  0.35009400  1
  Li  Li3  1  0.71207100  0.71207100  0.94320900  1
  Li  Li4  1  0.14061400  0.14061400  0.78554600  1
  Li  Li5  1  0.00401900  0.00401900  0.48830600  1
  Li  Li6  1  0.57415000  0.57415000  0.63866000  1
  Li  Li7  1  0.57365700  0.57365700  0.14322900  1
  Mn  Mn0  1  0.00395100  0.00395100  0.00044900  1
  Mn  Mn1  1  0.85576000  0.85576000  0.71731800  1
  Co  Co0  1  0.13982800  0.13982800  0.27350000  1
  Co  Co1  1  0.71421800  0.71421800  0.41936000  1
  Co  Co2  1  0.27792900  0.27792900  0.56746600  1
  Co  Co3  1  0.42924300  0.42924300  0.85722600  1
  O  O0  1  0.43914500  0.43914500  0.08694300  1
  O  O1  1  0.00628700  0.00628700  0.25294500  1
  O  O2  1  0.57875300  0.57875300  0.39614400  1
  O  O3  1  0.87229500  0.87229500  0.94811700  1
  O  O4  1  0.29952700  0.29952700  0.81171400  1
  O  O5  1  0.14572100  0.14572100  0.54052000  1
  O  O6  1  0.72398200  0.72398200  0.68149700  1
  O  O7  1  0.13563000  0.13563000  0.02715700  1
  O  O8  1  0.71658400  0.71658400  0.18271700  1
  O  O9  1  0.28078400  0.28078400  0.32683900  1
  O  O10  1  0.55832700  0.55832700  0.89881300  1
  O  O11  1  0.98699900  0.98699900  0.76073800  1
  O  O12  1  0.84741800  0.84741800  0.47400200  1
  O  O13  1  0.41474900  0.41474900  0.62464300  1
loop_
_geom_bond_atom_site_label_1
_geom_bond_atom_site_label_2
_geom_bond_distance
_geom_bond_site_symmetry_2
Li0 O8 2.006091 1_545
Li0 O8 2.006091 1_455
Li0 O0 2.092750 1_555
Li0 O7 2.152937 1_555
Li0 O3 2.417741 1_544
Li0 O3 2.417741 1_454
Li1 O8 2.042386 1_555
Li1 O1 2.052193 1_665
Li1 O9 2.120615 1_655
Li1 O9 2.120615 1_565
Li1 O0 2.345390 1_565
Li1 O0 2.345390 1_655
Li2 O1 2.019633 1_565
Li2 O1 2.019633 1_655
Li2 O9 2.065061 1_555
Li2 O2 2.134158 1_555
Li2 O12 2.283048 1_455
Li2 O12 2.283048 1_545
Li3 O7 1.938707 1_566
Li3 O7 1.938707 1_656
Li3 O3 2.041311 1_555
Li3 O10 2.230012 1_555
Li3 O4 2.353981 1_655
Li3 O4 2.353981 1_565
Li4 O11 2.079525 1_445
Li4 O6 2.107140 1_455
Li4 O6 2.107140 1_545
Li4 O4 2.154737 1_555
Li4 O10 2.178591 1_455
Li4 O10 2.178591 1_545
Li5 O2 1.989680 1_545
Li5 O2 1.989680 1_455
Li5 O12 2.048748 1_445
Li5 O5 2.152634 1_555
Li5 O13 2.403789 1_455
Li5 O13 2.403789 1_545
Li6 O5 2.025660 1_655
Li6 O5 2.025660 1_565
Li6 O13 2.082112 1_555
Li6 O6 2.169733 1_555
Li6 O11 2.268231 1_455
Li6 O11 2.268231 1_545
Li7 O8 2.058497 1_555
Li7 O0 2.104971 1_555
Li7 O1 2.112323 1_655
Li7 O1 2.112323 1_565
Li7 O7 2.161168 1_655
Li7 O7 2.161168 1_565
Mn0 O7 1.821441 1_555
Mn0 O0 1.919724 1_455
Mn0 O0 1.919724 1_545
Mn0 O10 2.020979 1_454
Mn0 O10 2.020979 1_544
Mn0 O3 2.034693 1_444
Mn1 O6 1.893166 1_555
Mn1 O11 1.950230 1_555
Mn1 O13 1.953441 1_655
Mn1 O13 1.953441 1_565
Mn1 O4 1.962400 1_565
Mn1 O4 1.962400 1_655
Co0 O1 1.800840 1_555
Co0 O8 1.986384 1_545
Co0 O8 1.986384 1_455
Co0 O9 2.153900 1_555
Co0 O2 2.222686 1_545
Co0 O2 2.222686 1_455
Co1 O2 1.843148 1_555
Co1 O9 1.969119 1_565
Co1 O9 1.969119 1_655
Co1 O12 2.074232 1_555
Co1 O5 2.218287 1_655
Co1 O5 2.218287 1_565
Co2 O5 1.829723 1_555
Co2 O12 1.983953 1_455
Co2 O12 1.983953 1_545
Co2 O6 2.133552 1_545
Co2 O6 2.133552 1_455
Co2 O13 2.140390 1_555
Co3 O10 1.908576 1_555
Co3 O3 1.935471 1_455
Co3 O3 1.935471 1_545
Co3 O4 1.950245 1_555
Co3 O11 1.982134 1_545
Co3 O11 1.982134 1_455
