# generated using pymatgen
data_LaHoS3
_symmetry_space_group_name_H-M   'P 1'
_cell_length_a   4.01058461
_cell_length_b   11.10123958
_cell_length_c   21.67602939
_cell_angle_alpha   101.30999366
_cell_angle_beta   90.00000000
_cell_angle_gamma   90.00000000
_symmetry_Int_Tables_number   1
_chemical_formula_structural   LaHoS3
_chemical_formula_sum   'La8 Ho8 S24'
_cell_volume   946.32895216
_cell_formula_units_Z   8
loop_
 _symmetry_equiv_pos_site_id
 _symmetry_equiv_pos_as_xyz
  1  'x, y, z'
loop_
 _atom_site_type_symbol
 _atom_site_label
 _atom_site_symmetry_multiplicity
 _atom_site_fract_x
 _atom_site_fract_y
 _atom_site_fract_z
 _atom_site_occupancy
  La  La0  1  0.25000000  0.69829550  0.76611671  1
  La  La1  1  0.75000000  0.30170450  0.23388329  1
  La  La2  1  0.25000000  0.09170593  0.86456237  1
  La  La3  1  0.75000000  0.90829407  0.13543763  1
  La  La4  1  0.25000000  0.30945603  0.73327977  1
  La  La5  1  0.75000000  0.69054397  0.26672023  1
  La  La6  1  0.25000000  0.19995699  0.53637540  1
  La  La7  1  0.75000000  0.80004301  0.46362460  1
  Ho  Ho0  1  0.25000000  0.44714795  0.41655922  1
  Ho  Ho1  1  0.75000000  0.55285205  0.58344078  1
  Ho  Ho2  1  0.25000000  0.02916123  0.35013211  1
  Ho  Ho3  1  0.75000000  0.97083877  0.64986789  1
  Ho  Ho4  1  0.25000000  0.18047138  0.04662111  1
  Ho  Ho5  1  0.75000000  0.81952862  0.95337889  1
  Ho  Ho6  1  0.25000000  0.52235499  0.08721203  1
  Ho  Ho7  1  0.75000000  0.47764501  0.91278797  1
  S  S0  1  0.25000000  0.91322495  0.03541860  1
  S  S1  1  0.75000000  0.08677505  0.96458140  1
  S  S2  1  0.25000000  0.79506330  0.36504979  1
  S  S3  1  0.75000000  0.20493670  0.63495021  1
  S  S4  1  0.25000000  0.25419090  0.32464449  1
  S  S5  1  0.75000000  0.74580910  0.67535551  1
  S  S6  1  0.25000000  0.36505448  0.96435155  1
  S  S7  1  0.75000000  0.63494552  0.03564845  1
  S  S8  1  0.25000000  0.49293582  0.22005177  1
  S  S9  1  0.75000000  0.50706418  0.77994823  1
  S  S10  1  0.25000000  0.74739272  0.17275690  1
  S  S11  1  0.75000000  0.25260728  0.82724310  1
  S  S12  1  0.25000000  0.12463386  0.16281116  1
  S  S13  1  0.75000000  0.87536614  0.83718884  1
  S  S14  1  0.25000000  0.64298479  0.51372757  1
  S  S15  1  0.75000000  0.35701521  0.48627243  1
  S  S16  1  0.25000000  0.94238463  0.55682122  1
  S  S17  1  0.75000000  0.05761537  0.44317878  1
  S  S18  1  0.25000000  0.03661819  0.72949522  1
  S  S19  1  0.75000000  0.96338181  0.27050478  1
  S  S20  1  0.25000000  0.45432968  0.63406196  1
  S  S21  1  0.75000000  0.54567032  0.36593804  1
  S  S22  1  0.25000000  0.65774504  0.90187354  1
  S  S23  1  0.75000000  0.34225496  0.09812646  1
loop_
_geom_bond_atom_site_label_1
_geom_bond_atom_site_label_2
_geom_bond_distance
_geom_bond_site_symmetry_2
La0 S5 2.928629 1_455
La0 S5 2.928629 1_555
La0 S9 2.977827 1_555
La0 S9 2.977827 1_455
La0 S13 3.011764 1_555
La0 S13 3.011764 1_455
La0 S22 3.062928 1_555
La0 S20 3.533799 1_555
La1 S4 2.928629 1_555
La1 S4 2.928629 1_655
La1 S8 2.977827 1_655
La1 S8 2.977827 1_555
La1 S12 3.011764 1_555
La1 S12 3.011764 1_655
La1 S23 3.062928 1_555
La1 S21 3.533799 1_555
La2 S18 2.871108 1_555
La2 S11 2.903936 1_555
La2 S11 2.903936 1_455
La2 S1 2.961593 1_555
La2 S1 2.961593 1_455
La2 S13 3.095512 1_545
La2 S13 3.095512 1_445
La2 S6 3.363395 1_555
La3 S19 2.871108 1_555
La3 S10 2.903936 1_555
La3 S10 2.903936 1_655
La3 S0 2.961593 1_655
La3 S0 2.961593 1_555
La3 S12 3.095512 1_565
La3 S12 3.095512 1_665
La3 S7 3.363395 1_555
La4 S20 2.927203 1_555
La4 S3 2.990035 1_455
La4 S3 2.990035 1_555
La4 S9 2.997731 1_455
La4 S9 2.997731 1_555
La4 S11 3.011976 1_455
La4 S11 3.011976 1_555
La4 S18 3.013824 1_555
La5 S21 2.927203 1_555
La5 S2 2.990035 1_655
La5 S2 2.990035 1_555
La5 S8 2.997731 1_655
La5 S8 2.997731 1_555
La5 S10 3.011976 1_555
La5 S10 3.011976 1_655
La5 S19 3.013824 1_555
La6 S3 2.922919 1_455
La6 S3 2.922919 1_555
La6 S16 2.978166 1_545
La6 S15 2.997218 1_455
La6 S15 2.997218 1_555
La6 S17 3.057286 1_455
La6 S17 3.057286 1_555
La6 S20 3.180007 1_555
La7 S2 2.922919 1_555
La7 S2 2.922919 1_655
La7 S17 2.978166 1_565
La7 S14 2.997218 1_655
La7 S14 2.997218 1_555
La7 S16 3.057286 1_555
La7 S16 3.057286 1_655
La7 S21 3.180007 1_555
Ho0 S4 2.623724 1_555
Ho0 S21 2.625288 1_455
Ho0 S21 2.625288 1_555
Ho0 S14 2.714139 1_555
Ho0 S15 2.810491 1_555
Ho0 S15 2.810491 1_455
Ho1 S5 2.623724 1_555
Ho1 S20 2.625288 1_555
Ho1 S20 2.625288 1_655
Ho1 S15 2.714139 1_555
Ho1 S14 2.810491 1_655
Ho1 S14 2.810491 1_555
Ho2 S19 2.653142 1_445
Ho2 S19 2.653142 1_545
Ho2 S4 2.662161 1_555
Ho2 S2 2.681009 1_545
Ho2 S17 2.817606 1_455
Ho2 S17 2.817606 1_555
Ho3 S18 2.653142 1_565
Ho3 S18 2.653142 1_665
Ho3 S5 2.662161 1_555
Ho3 S3 2.681009 1_565
Ho3 S16 2.817606 1_655
Ho3 S16 2.817606 1_555
Ho4 S12 2.709172 1_555
Ho4 S1 2.745892 1_454
Ho4 S1 2.745892 1_554
Ho4 S23 2.776104 1_455
Ho4 S23 2.776104 1_555
Ho4 S0 2.928839 1_545
Ho4 S6 2.968529 1_554
Ho5 S13 2.709172 1_555
Ho5 S0 2.745892 1_556
Ho5 S0 2.745892 1_656
Ho5 S22 2.776104 1_555
Ho5 S22 2.776104 1_655
Ho5 S1 2.928839 1_565
Ho5 S7 2.968529 1_556
Ho6 S7 2.716730 1_455
Ho6 S7 2.716730 1_555
Ho6 S10 2.803990 1_555
Ho6 S23 2.874027 1_455
Ho6 S23 2.874027 1_555
Ho6 S6 2.884009 1_554
Ho6 S8 2.960858 1_555
Ho7 S6 2.716730 1_655
Ho7 S6 2.716730 1_555
Ho7 S11 2.803990 1_555
Ho7 S22 2.874027 1_655
Ho7 S22 2.874027 1_555
Ho7 S7 2.884009 1_556
Ho7 S9 2.960858 1_555
