# generated using pymatgen
data_Li9Mn2Co5O16
_symmetry_space_group_name_H-M   'P 1'
_cell_length_a   6.59041200
_cell_length_b   6.67152401
_cell_length_c   7.69208159
_cell_angle_alpha   65.11507924
_cell_angle_beta   75.06465994
_cell_angle_gamma   72.19058809
_symmetry_Int_Tables_number   1
_chemical_formula_structural   Li9Mn2Co5O16
_chemical_formula_sum   'Li9 Mn2 Co5 O16'
_cell_volume   288.82499984
_cell_formula_units_Z   1
loop_
 _symmetry_equiv_pos_site_id
 _symmetry_equiv_pos_as_xyz
  1  'x, y, z'
loop_
 _atom_site_type_symbol
 _atom_site_label
 _atom_site_symmetry_multiplicity
 _atom_site_fract_x
 _atom_site_fract_y
 _atom_site_fract_z
 _atom_site_occupancy
  Li  Li0  1  0.69164300  0.30865600  0.55876000  1
  Li  Li1  1  0.93250200  0.05940300  0.31768500  1
  Li  Li2  1  0.30835700  0.69134400  0.44124000  1
  Li  Li3  1  0.56550100  0.42382400  0.19490500  1
  Li  Li4  1  0.18294100  0.81685300  0.06396500  1
  Li  Li5  1  0.81705900  0.18314700  0.93603500  1
  Li  Li6  1  0.43449900  0.57617600  0.80509500  1
  Li  Li7  1  0.06749800  0.94059700  0.68231500  1
  Li  Li8  1  0.50000000  0.00000000  0.50000000  1
  Mn  Mn0  1  0.62277700  0.87742400  0.87197200  1
  Mn  Mn1  1  0.37722300  0.12257600  0.12802800  1
  Co  Co0  1  0.86858700  0.63186800  0.62234400  1
  Co  Co1  1  0.13141300  0.36813200  0.37765600  1
  Co  Co2  1  0.74866100  0.75628800  0.25770000  1
  Co  Co3  1  0.00000000  0.50000000  0.00000000  1
  Co  Co4  1  0.25133900  0.24371200  0.74230000  1
  O  O0  1  0.77424700  0.95573600  0.61400100  1
  O  O1  1  0.02618700  0.70860100  0.34590200  1
  O  O2  1  0.38319400  0.34939800  0.47705200  1
  O  O3  1  0.64110900  0.08910000  0.21079200  1
  O  O4  1  0.28589400  0.43979700  0.09597000  1
  O  O5  1  0.88549400  0.83471300  0.97667800  1
  O  O6  1  0.52668000  0.19274200  0.85647600  1
  O  O7  1  0.13896100  0.58671600  0.72974100  1
  O  O8  1  0.61680600  0.65060200  0.52294800  1
  O  O9  1  0.86103900  0.41328400  0.27025900  1
  O  O10  1  0.22575300  0.04426400  0.38599900  1
  O  O11  1  0.47332000  0.80725800  0.14352400  1
  O  O12  1  0.11450600  0.16528700  0.02332200  1
  O  O13  1  0.71410600  0.56020300  0.90403000  1
  O  O14  1  0.35889100  0.91090000  0.78920800  1
  O  O15  1  0.97381300  0.29139900  0.65409800  1
loop_
_geom_bond_atom_site_label_1
_geom_bond_atom_site_label_2
_geom_bond_distance
_geom_bond_site_symmetry_2
Li0 O8 2.091975 1_555
Li0 O15 2.123714 1_555
Li0 O0 2.124577 1_545
Li0 O9 2.134078 1_555
Li0 O6 2.182856 1_555
Li0 O2 2.185863 1_555
Li1 O10 2.093049 1_655
Li1 O9 2.147653 1_555
Li1 O0 2.156493 1_545
Li1 O1 2.159484 1_645
Li1 O12 2.199294 1_655
Li1 O3 2.201664 1_555
Li2 O2 2.091975 1_555
Li2 O1 2.123714 1_555
Li2 O10 2.124577 1_565
Li2 O7 2.134078 1_555
Li2 O11 2.182856 1_555
Li2 O8 2.185863 1_555
Li3 O3 2.090718 1_555
Li3 O13 2.120239 1_554
Li3 O2 2.124665 1_555
Li3 O4 2.126174 1_555
Li3 O9 2.144380 1_555
Li3 O11 2.321929 1_555
Li4 O14 2.066592 1_554
Li4 O1 2.067709 1_555
Li4 O12 2.127109 1_565
Li4 O11 2.129952 1_555
Li4 O5 2.185405 1_454
Li4 O4 2.317275 1_555
Li5 O3 2.066592 1_556
Li5 O15 2.067709 1_555
Li5 O5 2.127109 1_545
Li5 O6 2.129952 1_555
Li5 O12 2.185405 1_656
Li5 O13 2.317275 1_555
Li6 O14 2.090718 1_555
Li6 O4 2.120239 1_556
Li6 O8 2.124665 1_555
Li6 O13 2.126174 1_555
Li6 O7 2.144380 1_555
Li6 O6 2.321929 1_555
Li7 O0 2.093049 1_455
Li7 O7 2.147653 1_555
Li7 O10 2.156493 1_565
Li7 O15 2.159484 1_465
Li7 O5 2.199294 1_455
Li7 O14 2.201664 1_555
Li8 O14 2.079890 1_545
Li8 O3 2.079890 1_555
Li8 O0 2.096520 1_545
Li8 O10 2.096520 1_555
Li8 O2 2.164138 1_555
Li8 O8 2.164138 1_545
Mn0 O0 1.905917 1_555
Mn0 O14 1.921758 1_555
Mn0 O13 1.939101 1_555
Mn0 O6 1.963052 1_565
Mn0 O11 1.987719 1_556
Mn0 O5 1.987846 1_555
Mn1 O10 1.905917 1_555
Mn1 O3 1.921758 1_555
Mn1 O4 1.939101 1_555
Mn1 O11 1.963052 1_545
Mn1 O6 1.987719 1_554
Mn1 O12 1.987846 1_555
Co0 O8 1.949423 1_555
Co0 O1 2.033022 1_655
Co0 O0 2.035040 1_555
Co0 O7 2.041879 1_655
Co0 O13 2.061249 1_555
Co0 O15 2.087313 1_555
Co1 O2 1.949423 1_555
Co1 O15 2.033022 1_455
Co1 O10 2.035040 1_555
Co1 O9 2.041879 1_455
Co1 O4 2.061249 1_555
Co1 O1 2.087313 1_555
Co2 O8 1.914501 1_555
Co2 O1 2.002207 1_655
Co2 O3 2.014322 1_565
Co2 O5 2.022782 1_554
Co2 O11 2.091041 1_555
Co2 O9 2.146754 1_555
Co3 O9 1.955919 1_455
Co3 O7 1.955919 1_554
Co3 O13 2.064178 1_454
Co3 O4 2.064178 1_555
Co3 O5 2.071229 1_454
Co3 O12 2.071229 1_555
Co4 O2 1.914501 1_555
Co4 O15 2.002207 1_455
Co4 O14 2.014322 1_545
Co4 O12 2.022782 1_556
Co4 O6 2.091041 1_555
Co4 O7 2.146754 1_555
