# generated using pymatgen
data_CaMg30CrO32
_symmetry_space_group_name_H-M   'P 1'
_cell_length_a   8.59249700
_cell_length_b   8.59249700
_cell_length_c   8.54783000
_cell_angle_alpha   90.00000000
_cell_angle_beta   90.00000000
_cell_angle_gamma   90.00000000
_symmetry_Int_Tables_number   1
_chemical_formula_structural   CaMg30CrO32
_chemical_formula_sum   'Ca1 Mg30 Cr1 O32'
_cell_volume   631.09487686
_cell_formula_units_Z   1
loop_
 _symmetry_equiv_pos_site_id
 _symmetry_equiv_pos_as_xyz
  1  'x, y, z'
loop_
 _atom_site_type_symbol
 _atom_site_label
 _atom_site_symmetry_multiplicity
 _atom_site_fract_x
 _atom_site_fract_y
 _atom_site_fract_z
 _atom_site_occupancy
  Ca  Ca0  1  0.00000000  0.00000000  0.00000000  1
  Mg  Mg0  1  0.50000000  0.00000000  0.00000000  1
  Mg  Mg1  1  0.50000000  0.00000000  0.50000000  1
  Mg  Mg2  1  0.00000000  0.50000000  0.00000000  1
  Mg  Mg3  1  0.00000000  0.50000000  0.50000000  1
  Mg  Mg4  1  0.50000000  0.50000000  0.00000000  1
  Mg  Mg5  1  0.50000000  0.50000000  0.50000000  1
  Mg  Mg6  1  0.25476400  0.00000000  0.25294100  1
  Mg  Mg7  1  0.25476400  0.00000000  0.74705900  1
  Mg  Mg8  1  0.74523600  0.00000000  0.25294100  1
  Mg  Mg9  1  0.74523600  0.00000000  0.74705900  1
  Mg  Mg10  1  0.25038000  0.50000000  0.25040400  1
  Mg  Mg11  1  0.25038000  0.50000000  0.74959600  1
  Mg  Mg12  1  0.74962000  0.50000000  0.25040400  1
  Mg  Mg13  1  0.74962000  0.50000000  0.74959600  1
  Mg  Mg14  1  0.00000000  0.25476400  0.25294100  1
  Mg  Mg15  1  0.00000000  0.25476400  0.74705900  1
  Mg  Mg16  1  0.50000000  0.25038000  0.25040400  1
  Mg  Mg17  1  0.50000000  0.25038000  0.74959600  1
  Mg  Mg18  1  0.00000000  0.74523600  0.25294100  1
  Mg  Mg19  1  0.00000000  0.74523600  0.74705900  1
  Mg  Mg20  1  0.50000000  0.74962000  0.25040400  1
  Mg  Mg21  1  0.50000000  0.74962000  0.74959600  1
  Mg  Mg22  1  0.25288500  0.25288500  0.00000000  1
  Mg  Mg23  1  0.25072600  0.25072600  0.50000000  1
  Mg  Mg24  1  0.74711500  0.25288500  0.00000000  1
  Mg  Mg25  1  0.74927400  0.25072600  0.50000000  1
  Mg  Mg26  1  0.25288500  0.74711500  0.00000000  1
  Mg  Mg27  1  0.25072600  0.74927400  0.50000000  1
  Mg  Mg28  1  0.74711500  0.74711500  0.00000000  1
  Mg  Mg29  1  0.74927400  0.74927400  0.50000000  1
  Cr  Cr0  1  0.00000000  0.00000000  0.50000000  1
  O  O0  1  0.00000000  0.26196200  0.00000000  1
  O  O1  1  0.00000000  0.26042800  0.50000000  1
  O  O2  1  0.50000000  0.25218300  0.00000000  1
  O  O3  1  0.50000000  0.25161400  0.50000000  1
  O  O4  1  0.00000000  0.73803800  0.00000000  1
  O  O5  1  0.00000000  0.73957200  0.50000000  1
  O  O6  1  0.50000000  0.74781700  0.00000000  1
  O  O7  1  0.50000000  0.74838600  0.50000000  1
  O  O8  1  0.24944000  0.24944000  0.24996300  1
  O  O9  1  0.24944000  0.24944000  0.75003700  1
  O  O10  1  0.75056000  0.24944000  0.24996300  1
  O  O11  1  0.75056000  0.24944000  0.75003700  1
  O  O12  1  0.24944000  0.75056000  0.24996300  1
  O  O13  1  0.24944000  0.75056000  0.75003700  1
  O  O14  1  0.75056000  0.75056000  0.24996300  1
  O  O15  1  0.75056000  0.75056000  0.75003700  1
  O  O16  1  0.00000000  0.00000000  0.26155900  1
  O  O17  1  0.00000000  0.00000000  0.73844100  1
  O  O18  1  0.50000000  0.00000000  0.25062200  1
  O  O19  1  0.50000000  0.00000000  0.74937800  1
  O  O20  1  0.00000000  0.50000000  0.25062200  1
  O  O21  1  0.00000000  0.50000000  0.74937800  1
  O  O22  1  0.50000000  0.50000000  0.25010900  1
  O  O23  1  0.50000000  0.50000000  0.74989100  1
  O  O24  1  0.26196200  0.00000000  0.00000000  1
  O  O25  1  0.26042800  0.00000000  0.50000000  1
  O  O26  1  0.73803800  0.00000000  0.00000000  1
  O  O27  1  0.73957200  0.00000000  0.50000000  1
  O  O28  1  0.25218300  0.50000000  0.00000000  1
  O  O29  1  0.25161400  0.50000000  0.50000000  1
  O  O30  1  0.74781700  0.50000000  0.00000000  1
  O  O31  1  0.74838600  0.50000000  0.50000000  1
loop_
_geom_bond_atom_site_label_1
_geom_bond_atom_site_label_2
_geom_bond_distance
_geom_bond_site_symmetry_2
Ca0 O17 2.235762 1_554
Ca0 O16 2.235762 1_555
Ca0 O0 2.250908 1_555
Ca0 O24 2.250908 1_555
Ca0 O4 2.250908 1_545
Ca0 O26 2.250908 1_455
Mg0 O26 2.045341 1_555
Mg0 O24 2.045341 1_555
Mg0 O19 2.142274 1_554
Mg0 O18 2.142274 1_555
Mg0 O2 2.166882 1_555
Mg0 O6 2.166882 1_545
Mg1 O27 2.058522 1_555
Mg1 O25 2.058522 1_555
Mg1 O19 2.131641 1_555
Mg1 O18 2.131641 1_555
Mg1 O7 2.161993 1_545
Mg1 O3 2.161993 1_555
Mg2 O4 2.045341 1_555
Mg2 O0 2.045341 1_555
Mg2 O20 2.142274 1_555
Mg2 O21 2.142274 1_554
Mg2 O28 2.166882 1_555
Mg2 O30 2.166882 1_455
Mg3 O1 2.058522 1_555
Mg3 O5 2.058522 1_555
Mg3 O21 2.131641 1_555
Mg3 O20 2.131641 1_555
Mg3 O29 2.161993 1_555
Mg3 O31 2.161993 1_455
Mg4 O6 2.129367 1_555
Mg4 O30 2.129367 1_555
Mg4 O2 2.129367 1_555
Mg4 O28 2.129367 1_555
Mg4 O23 2.137889 1_554
Mg4 O22 2.137889 1_555
Mg5 O29 2.134256 1_555
Mg5 O7 2.134256 1_555
Mg5 O31 2.134256 1_555
Mg5 O3 2.134256 1_555
Mg5 O23 2.136026 1_555
Mg5 O22 2.136026 1_555
Mg6 O18 2.107283 1_555
Mg6 O25 2.112379 1_555
Mg6 O12 2.143952 1_545
Mg6 O8 2.143952 1_555
Mg6 O24 2.162981 1_555
Mg6 O16 2.190298 1_555
Mg7 O19 2.107283 1_555
Mg7 O25 2.112379 1_555
Mg7 O13 2.143952 1_545
Mg7 O9 2.143952 1_555
Mg7 O24 2.162981 1_556
Mg7 O17 2.190298 1_555
Mg8 O18 2.107283 1_555
Mg8 O27 2.112379 1_555
Mg8 O14 2.143952 1_545
Mg8 O10 2.143952 1_555
Mg8 O26 2.162981 1_555
Mg8 O16 2.190298 1_655
Mg9 O19 2.107283 1_555
Mg9 O27 2.112379 1_555
Mg9 O15 2.143952 1_545
Mg9 O11 2.143952 1_555
Mg9 O26 2.162981 1_556
Mg9 O17 2.190298 1_655
Mg10 O29 2.133531 1_555
Mg10 O28 2.140467 1_555
Mg10 O22 2.144861 1_555
Mg10 O20 2.151390 1_555
Mg10 O8 2.152954 1_555
Mg10 O12 2.152954 1_555
Mg11 O29 2.133531 1_555
Mg11 O28 2.140467 1_556
Mg11 O23 2.144861 1_555
Mg11 O21 2.151390 1_555
Mg11 O9 2.152954 1_555
Mg11 O13 2.152954 1_555
Mg12 O31 2.133531 1_555
Mg12 O30 2.140467 1_555
Mg12 O22 2.144861 1_555
Mg12 O20 2.151390 1_655
Mg12 O14 2.152954 1_555
Mg12 O10 2.152954 1_555
Mg13 O31 2.133531 1_555
Mg13 O30 2.140467 1_556
Mg13 O23 2.144861 1_555
Mg13 O21 2.151390 1_655
Mg13 O11 2.152954 1_555
Mg13 O15 2.152954 1_555
Mg14 O20 2.107283 1_555
Mg14 O1 2.112379 1_555
Mg14 O10 2.143952 1_455
Mg14 O8 2.143952 1_555
Mg14 O0 2.162981 1_555
Mg14 O16 2.190298 1_555
Mg15 O21 2.107283 1_555
Mg15 O1 2.112379 1_555
Mg15 O11 2.143952 1_455
Mg15 O9 2.143952 1_555
Mg15 O0 2.162981 1_556
Mg15 O17 2.190298 1_555
Mg16 O3 2.133531 1_555
Mg16 O2 2.140467 1_555
Mg16 O22 2.144861 1_555
Mg16 O18 2.151390 1_555
Mg16 O8 2.152954 1_555
Mg16 O10 2.152954 1_555
Mg17 O3 2.133531 1_555
Mg17 O2 2.140467 1_556
Mg17 O23 2.144861 1_555
Mg17 O19 2.151390 1_555
Mg17 O11 2.152954 1_555
Mg17 O9 2.152954 1_555
Mg18 O20 2.107283 1_555
Mg18 O5 2.112379 1_555
Mg18 O14 2.143952 1_455
Mg18 O12 2.143952 1_555
Mg18 O4 2.162981 1_555
Mg18 O16 2.190298 1_565
Mg19 O21 2.107283 1_555
Mg19 O5 2.112379 1_555
Mg19 O13 2.143952 1_555
Mg19 O15 2.143952 1_455
Mg19 O4 2.162981 1_556
Mg19 O17 2.190298 1_565
Mg20 O7 2.133531 1_555
Mg20 O6 2.140467 1_555
Mg20 O22 2.144861 1_555
Mg20 O18 2.151390 1_565
Mg20 O14 2.152954 1_555
Mg20 O12 2.152954 1_555
Mg21 O7 2.133531 1_555
Mg21 O6 2.140467 1_556
Mg21 O23 2.144861 1_555
Mg21 O19 2.151390 1_565
Mg21 O15 2.152954 1_555
Mg21 O13 2.152954 1_555
Mg22 O2 2.123343 1_555
Mg22 O28 2.123343 1_555
Mg22 O8 2.137051 1_555
Mg22 O9 2.137051 1_554
Mg22 O24 2.174313 1_555
Mg22 O0 2.174313 1_555
Mg23 O9 2.137331 1_555
Mg23 O8 2.137331 1_555
Mg23 O29 2.141900 1_555
Mg23 O3 2.141900 1_555
Mg23 O1 2.155975 1_555
Mg23 O25 2.155975 1_555
Mg24 O30 2.123343 1_555
Mg24 O2 2.123343 1_555
Mg24 O10 2.137051 1_555
Mg24 O11 2.137051 1_554
Mg24 O26 2.174313 1_555
Mg24 O0 2.174313 1_655
Mg25 O11 2.137331 1_555
Mg25 O10 2.137331 1_555
Mg25 O31 2.141900 1_555
Mg25 O3 2.141900 1_555
Mg25 O27 2.155975 1_555
Mg25 O1 2.155975 1_655
Mg26 O28 2.123343 1_555
Mg26 O6 2.123343 1_555
Mg26 O12 2.137051 1_555
Mg26 O13 2.137051 1_554
Mg26 O24 2.174313 1_565
Mg26 O4 2.174313 1_555
Mg27 O13 2.137331 1_555
Mg27 O12 2.137331 1_555
Mg27 O29 2.141900 1_555
Mg27 O7 2.141900 1_555
Mg27 O25 2.155975 1_565
Mg27 O5 2.155975 1_555
Mg28 O30 2.123343 1_555
Mg28 O6 2.123343 1_555
Mg28 O14 2.137051 1_555
Mg28 O15 2.137051 1_554
Mg28 O26 2.174313 1_565
Mg28 O4 2.174313 1_655
Mg29 O15 2.137331 1_555
Mg29 O14 2.137331 1_555
Mg29 O31 2.141900 1_555
Mg29 O7 2.141900 1_555
Mg29 O27 2.155975 1_565
Mg29 O5 2.155975 1_655
Cr0 O16 2.038153 1_555
Cr0 O17 2.038153 1_555
Cr0 O5 2.237727 1_545
Cr0 O1 2.237727 1_555
Cr0 O27 2.237727 1_455
Cr0 O25 2.237727 1_555
