# generated using pymatgen
data_ScV(TeO4)2
_symmetry_space_group_name_H-M   'P 1'
_cell_length_a   5.19517400
_cell_length_b   8.23199375
_cell_length_c   16.88909131
_cell_angle_alpha   94.72372289
_cell_angle_beta   90.00000000
_cell_angle_gamma   90.00000000
_symmetry_Int_Tables_number   1
_chemical_formula_structural   ScV(TeO4)2
_chemical_formula_sum   'Sc4 V4 Te8 O32'
_cell_volume   719.83633889
_cell_formula_units_Z   4
loop_
 _symmetry_equiv_pos_site_id
 _symmetry_equiv_pos_as_xyz
  1  'x, y, z'
loop_
 _atom_site_type_symbol
 _atom_site_label
 _atom_site_symmetry_multiplicity
 _atom_site_fract_x
 _atom_site_fract_y
 _atom_site_fract_z
 _atom_site_occupancy
  Sc  Sc0  1  0.72791100  0.33979600  0.32677500  1
  Sc  Sc1  1  0.77208900  0.83979600  0.82677500  1
  Sc  Sc2  1  0.27208900  0.66020400  0.67322500  1
  Sc  Sc3  1  0.22791100  0.16020400  0.17322500  1
  V  V0  1  0.21048500  0.14635200  0.42761100  1
  V  V1  1  0.28951500  0.64635200  0.92761100  1
  V  V2  1  0.78951500  0.85364800  0.57238900  1
  V  V3  1  0.71048500  0.35364800  0.07238900  1
  Te  Te0  1  0.24944800  0.55593300  0.22274200  1
  Te  Te1  1  0.25055200  0.05593300  0.72274200  1
  Te  Te2  1  0.75055200  0.44406700  0.77725800  1
  Te  Te3  1  0.74944800  0.94406700  0.27725800  1
  Te  Te4  1  0.85534100  0.36418500  0.56895800  1
  Te  Te5  1  0.64465900  0.86418500  0.06895800  1
  Te  Te6  1  0.14465900  0.63581500  0.43104200  1
  Te  Te7  1  0.35534100  0.13581500  0.93104200  1
  O  O0  1  0.53924900  0.53074000  0.28697000  1
  O  O1  1  0.96075100  0.03074000  0.78697000  1
  O  O2  1  0.46075100  0.46926000  0.71303000  1
  O  O3  1  0.03924900  0.96926000  0.21303000  1
  O  O4  1  0.06678800  0.36147700  0.24849500  1
  O  O5  1  0.43321200  0.86147700  0.74849500  1
  O  O6  1  0.93321200  0.63852300  0.75150500  1
  O  O7  1  0.56678800  0.13852300  0.25150500  1
  O  O8  1  0.09679500  0.19807800  0.53045500  1
  O  O9  1  0.40320500  0.69807800  0.03045500  1
  O  O10  1  0.90320500  0.80192200  0.46954500  1
  O  O11  1  0.59679500  0.30192200  0.96954500  1
  O  O12  1  0.92211500  0.31768900  0.67846200  1
  O  O13  1  0.57788500  0.81768900  0.17846200  1
  O  O14  1  0.07788500  0.68231100  0.32153800  1
  O  O15  1  0.42211500  0.18231100  0.82153800  1
  O  O16  1  0.09681700  0.53904100  0.57328900  1
  O  O17  1  0.40318300  0.03904100  0.07328900  1
  O  O18  1  0.90318300  0.46095900  0.42671100  1
  O  O19  1  0.59681700  0.96095900  0.92671100  1
  O  O20  1  0.93770000  0.12735000  0.36069500  1
  O  O21  1  0.56230000  0.62735000  0.86069500  1
  O  O22  1  0.06230000  0.87265000  0.63930500  1
  O  O23  1  0.43770000  0.37265000  0.13930500  1
  O  O24  1  0.42098900  0.29744000  0.40397300  1
  O  O25  1  0.07901100  0.79744000  0.90397300  1
  O  O26  1  0.57901100  0.70256000  0.59602700  1
  O  O27  1  0.92098900  0.20256000  0.09602700  1
  O  O28  1  0.36332100  0.96963300  0.42070900  1
  O  O29  1  0.13667900  0.46963300  0.92070900  1
  O  O30  1  0.63667900  0.03036700  0.57929100  1
  O  O31  1  0.86332100  0.53036700  0.07929100  1
loop_
_geom_bond_atom_site_label_1
_geom_bond_atom_site_label_2
_geom_bond_distance
_geom_bond_site_symmetry_2
O0 Te0 1.877094 1_555
O0 Sc0 2.014289 1_555
O1 Te1 1.877094 1_655
O1 Sc1 2.014289 1_545
O2 Te2 1.877094 1_555
O2 Sc2 2.014289 1_555
O3 Te3 1.877094 1_455
O3 Sc3 2.014289 1_565
O4 Te0 1.940822 1_555
O4 Sc3 2.171419 1_555
O4 Sc0 2.217669 1_455
O5 Te1 1.940822 1_565
O5 Sc2 2.171419 1_555
O5 Sc1 2.217669 1_555
O6 Te2 1.940822 1_555
O6 Sc1 2.171419 1_555
O6 Sc2 2.217669 1_655
O7 Te3 1.940822 1_545
O7 Sc0 2.171419 1_555
O7 Sc3 2.217669 1_555
O8 V0 1.850762 1_555
O8 Te4 1.928648 1_455
O9 V1 1.850762 1_554
O9 Te5 1.928648 1_555
O10 V2 1.850762 1_555
O10 Te6 1.928648 1_655
O11 V3 1.850762 1_556
O11 Te7 1.928648 1_555
O12 Te4 1.950333 1_555
O12 Te2 2.091642 1_555
O13 Te5 1.950333 1_555
O13 Te3 2.091642 1_555
O14 Te6 1.950333 1_555
O14 Te0 2.091642 1_555
O15 Te7 1.950333 1_555
O15 Te1 2.091642 1_555
O16 Te4 1.906231 1_455
O16 Sc2 2.096536 1_555
O16 Te6 2.604471 1_555
O17 Te5 1.906231 1_545
O17 Sc3 2.096536 1_555
O17 Te7 2.604471 1_554
O18 Te6 1.906231 1_655
O18 Sc0 2.096536 1_555
O18 Te4 2.604471 1_555
O19 Te7 1.906231 1_565
O19 Sc1 2.096536 1_555
O19 Te5 2.604471 1_556
O20 V0 1.811339 1_655
O20 Sc0 2.177051 1_555
O20 Te3 2.206471 1_545
O21 V1 1.811339 1_555
O21 Sc1 2.177051 1_555
O21 Te2 2.206471 1_555
O22 V2 1.811339 1_455
O22 Sc2 2.177051 1_555
O22 Te1 2.206471 1_565
O23 V3 1.811339 1_555
O23 Sc3 2.177051 1_555
O23 Te0 2.206471 1_555
O24 V0 1.727443 1_555
O24 Sc0 2.106852 1_555
O25 V1 1.727443 1_555
O25 Sc1 2.106852 1_455
O26 V2 1.727443 1_555
O26 Sc2 2.106852 1_555
O27 V3 1.727443 1_555
O27 Sc3 2.106852 1_655
O28 V0 1.652999 1_565
O29 V1 1.652999 1_555
O30 V2 1.652999 1_545
O31 V3 1.652999 1_555
