# generated using pymatgen
data_C(N2O)2
_symmetry_space_group_name_H-M   'P 1'
_cell_length_a   40.62682512
_cell_length_b   29.21235978
_cell_length_c   28.33045601
_cell_angle_alpha   89.81176733
_cell_angle_beta   45.97505421
_cell_angle_gamma   44.21317847
_symmetry_Int_Tables_number   1
_chemical_formula_structural   C(N2O)2
_chemical_formula_sum   'C32 N128 O64'
_cell_volume   2720.29685719
_cell_formula_units_Z   32
loop_
 _symmetry_equiv_pos_site_id
 _symmetry_equiv_pos_as_xyz
  1  'x, y, z'
loop_
 _atom_site_type_symbol
 _atom_site_label
 _atom_site_symmetry_multiplicity
 _atom_site_fract_x
 _atom_site_fract_y
 _atom_site_fract_z
 _atom_site_occupancy
  C  C0_0  1  0.05288450  0.04409600  0.42997300  1
  C  C0_1  1  0.05288450  0.04409600  0.92997300  1
  C  C0_2  1  0.05288450  0.54409600  0.42997300  1
  C  C0_3  1  0.05288450  0.54409600  0.92997300  1
  C  C0_4  1  0.55288450  0.04409600  0.42997300  1
  C  C0_5  1  0.55288450  0.04409600  0.92997300  1
  C  C0_6  1  0.55288450  0.54409600  0.42997300  1
  C  C0_7  1  0.55288450  0.54409600  0.92997300  1
  C  C1_0  1  0.47304600  0.42997300  0.04409600  1
  C  C1_1  1  0.47304600  0.42997300  0.54409600  1
  C  C1_2  1  0.47304600  0.92997300  0.04409600  1
  C  C1_3  1  0.47304600  0.92997300  0.54409600  1
  C  C1_4  1  0.97304600  0.42997300  0.04409600  1
  C  C1_5  1  0.97304600  0.42997300  0.54409600  1
  C  C1_6  1  0.97304600  0.92997300  0.04409600  1
  C  C1_7  1  0.97304600  0.92997300  0.54409600  1
  C  C2_0  1  0.19502700  0.15195400  0.07211550  1
  C  C2_1  1  0.19502700  0.15195400  0.57211550  1
  C  C2_2  1  0.19502700  0.65195400  0.07211550  1
  C  C2_3  1  0.19502700  0.65195400  0.57211550  1
  C  C2_4  1  0.69502700  0.15195400  0.07211550  1
  C  C2_5  1  0.69502700  0.15195400  0.57211550  1
  C  C2_6  1  0.69502700  0.65195400  0.07211550  1
  C  C2_7  1  0.69502700  0.65195400  0.57211550  1
  C  C3_0  1  0.08090400  0.07211550  0.15195400  1
  C  C3_1  1  0.08090400  0.07211550  0.65195400  1
  C  C3_2  1  0.08090400  0.57211550  0.15195400  1
  C  C3_3  1  0.08090400  0.57211550  0.65195400  1
  C  C3_4  1  0.58090400  0.07211550  0.15195400  1
  C  C3_5  1  0.58090400  0.07211550  0.65195400  1
  C  C3_6  1  0.58090400  0.57211550  0.15195400  1
  C  C3_7  1  0.58090400  0.57211550  0.65195400  1
  N  N0_0  1  0.08238800  0.06273850  0.41138900  1
  N  N0_1  1  0.08238800  0.06273850  0.91138900  1
  N  N0_2  1  0.08238800  0.56273850  0.41138900  1
  N  N0_3  1  0.08238800  0.56273850  0.91138900  1
  N  N0_4  1  0.58238800  0.06273850  0.41138900  1
  N  N0_5  1  0.58238800  0.06273850  0.91138900  1
  N  N0_6  1  0.58238800  0.56273850  0.41138900  1
  N  N0_7  1  0.58238800  0.56273850  0.91138900  1
  N  N1_0  1  0.44348450  0.41138900  0.06273800  1
  N  N1_1  1  0.44348450  0.41138900  0.56273800  1
  N  N1_2  1  0.44348450  0.91138900  0.06273800  1
  N  N1_3  1  0.44348450  0.91138900  0.56273800  1
  N  N1_4  1  0.94348450  0.41138900  0.06273800  1
  N  N1_5  1  0.94348450  0.41138900  0.56273800  1
  N  N1_6  1  0.94348450  0.91138900  0.06273800  1
  N  N1_7  1  0.94348450  0.91138900  0.56273800  1
  N  N2_0  1  0.21361100  0.18151550  0.04261200  1
  N  N2_1  1  0.21361100  0.18151550  0.54261200  1
  N  N2_2  1  0.21361100  0.68151550  0.04261200  1
  N  N2_3  1  0.21361100  0.68151550  0.54261200  1
  N  N2_4  1  0.71361100  0.18151550  0.04261200  1
  N  N2_5  1  0.71361100  0.18151550  0.54261200  1
  N  N2_6  1  0.71361100  0.68151550  0.04261200  1
  N  N2_7  1  0.71361100  0.68151550  0.54261200  1
  N  N3_0  1  0.06226150  0.04261200  0.18151550  1
  N  N3_1  1  0.06226150  0.04261200  0.68151550  1
  N  N3_2  1  0.06226150  0.54261200  0.18151550  1
  N  N3_3  1  0.06226150  0.54261200  0.68151550  1
  N  N3_4  1  0.56226150  0.04261200  0.18151550  1
  N  N3_5  1  0.56226150  0.04261200  0.68151550  1
  N  N3_6  1  0.56226150  0.54261200  0.18151550  1
  N  N3_7  1  0.56226150  0.54261200  0.68151550  1
  N  N4_0  1  0.02309350  0.06383700  0.41014650  1
  N  N4_1  1  0.02309350  0.06383700  0.91014650  1
  N  N4_2  1  0.02309350  0.56383700  0.41014650  1
  N  N4_3  1  0.02309350  0.56383700  0.91014650  1
  N  N4_4  1  0.52309350  0.06383700  0.41014650  1
  N  N4_5  1  0.52309350  0.06383700  0.91014650  1
  N  N4_6  1  0.52309350  0.56383700  0.41014650  1
  N  N4_7  1  0.52309350  0.56383700  0.91014650  1
  N  N5_0  1  0.00292300  0.41014650  0.06383700  1
  N  N5_1  1  0.00292300  0.41014650  0.56383700  1
  N  N5_2  1  0.00292300  0.91014650  0.06383700  1
  N  N5_3  1  0.00292300  0.91014650  0.56383700  1
  N  N5_4  1  0.50292300  0.41014650  0.06383700  1
  N  N5_5  1  0.50292300  0.41014650  0.56383700  1
  N  N5_6  1  0.50292300  0.91014650  0.06383700  1
  N  N5_7  1  0.50292300  0.91014650  0.56383700  1
  N  N6_0  1  0.21485350  0.12207700  0.10190650  1
  N  N6_1  1  0.21485350  0.12207700  0.60190650  1
  N  N6_2  1  0.21485350  0.62207700  0.10190650  1
  N  N6_3  1  0.21485350  0.62207700  0.60190650  1
  N  N6_4  1  0.71485350  0.12207700  0.10190650  1
  N  N6_5  1  0.71485350  0.12207700  0.60190650  1
  N  N6_6  1  0.71485350  0.62207700  0.10190650  1
  N  N6_7  1  0.71485350  0.62207700  0.60190650  1
  N  N7_0  1  0.06116300  0.10190650  0.12207700  1
  N  N7_1  1  0.06116300  0.10190650  0.62207700  1
  N  N7_2  1  0.06116300  0.60190650  0.12207700  1
  N  N7_3  1  0.06116300  0.60190650  0.62207700  1
  N  N7_4  1  0.56116300  0.10190650  0.12207700  1
  N  N7_5  1  0.56116300  0.10190650  0.62207700  1
  N  N7_6  1  0.56116300  0.60190650  0.12207700  1
  N  N7_7  1  0.56116300  0.60190650  0.62207700  1
  N  N8_0  1  0.11265200  0.03760100  0.23363350  1
  N  N8_1  1  0.11265200  0.03760100  0.73363350  1
  N  N8_2  1  0.11265200  0.53760100  0.23363350  1
  N  N8_3  1  0.11265200  0.53760100  0.73363350  1
  N  N8_4  1  0.61265200  0.03760100  0.23363350  1
  N  N8_5  1  0.61265200  0.03760100  0.73363350  1
  N  N8_6  1  0.61265200  0.53760100  0.23363350  1
  N  N8_7  1  0.61265200  0.53760100  0.73363350  1
  N  N9_0  1  0.11611300  0.23363350  0.03760100  1
  N  N9_1  1  0.11611300  0.23363350  0.53760100  1
  N  N9_2  1  0.11611300  0.73363350  0.03760100  1
  N  N9_3  1  0.11611300  0.73363350  0.53760100  1
  N  N9_4  1  0.61611300  0.23363350  0.03760100  1
  N  N9_5  1  0.61611300  0.23363350  0.53760100  1
  N  N9_6  1  0.61611300  0.73363350  0.03760100  1
  N  N9_7  1  0.61611300  0.73363350  0.53760100  1
  N  N10_0  1  0.39136650  0.00888700  0.01234800  1
  N  N10_1  1  0.39136650  0.00888700  0.51234800  1
  N  N10_2  1  0.39136650  0.50888700  0.01234800  1
  N  N10_3  1  0.39136650  0.50888700  0.51234800  1
  N  N10_4  1  0.89136650  0.00888700  0.01234800  1
  N  N10_5  1  0.89136650  0.00888700  0.51234800  1
  N  N10_6  1  0.89136650  0.50888700  0.01234800  1
  N  N10_7  1  0.89136650  0.50888700  0.51234800  1
  N  N11_0  1  0.08739900  0.01234800  0.00888700  1
  N  N11_1  1  0.08739900  0.01234800  0.50888700  1
  N  N11_2  1  0.08739900  0.51234800  0.00888700  1
  N  N11_3  1  0.08739900  0.51234800  0.50888700  1
  N  N11_4  1  0.58739900  0.01234800  0.00888700  1
  N  N11_5  1  0.58739900  0.01234800  0.50888700  1
  N  N11_6  1  0.58739900  0.51234800  0.00888700  1
  N  N11_7  1  0.58739900  0.51234800  0.50888700  1
  N  N12_0  1  0.14430450  0.03716750  0.23404850  1
  N  N12_1  1  0.14430450  0.03716750  0.73404850  1
  N  N12_2  1  0.14430450  0.53716750  0.23404850  1
  N  N12_3  1  0.14430450  0.53716750  0.73404850  1
  N  N12_4  1  0.64430450  0.03716750  0.23404850  1
  N  N12_5  1  0.64430450  0.03716750  0.73404850  1
  N  N12_6  1  0.64430450  0.53716750  0.23404850  1
  N  N12_7  1  0.64430450  0.53716750  0.73404850  1
  N  N13_0  1  0.08447950  0.23404850  0.03716750  1
  N  N13_1  1  0.08447950  0.23404850  0.53716750  1
  N  N13_2  1  0.08447950  0.73404850  0.03716750  1
  N  N13_3  1  0.08447950  0.73404850  0.53716750  1
  N  N13_4  1  0.58447950  0.23404850  0.03716750  1
  N  N13_5  1  0.58447950  0.23404850  0.53716750  1
  N  N13_6  1  0.58447950  0.73404850  0.03716750  1
  N  N13_7  1  0.58447950  0.73404850  0.53716750  1
  N  N14_0  1  0.39095150  0.04052050  0.48069550  1
  N  N14_1  1  0.39095150  0.04052050  0.98069550  1
  N  N14_2  1  0.39095150  0.54052050  0.48069550  1
  N  N14_3  1  0.39095150  0.54052050  0.98069550  1
  N  N14_4  1  0.89095150  0.04052050  0.48069550  1
  N  N14_5  1  0.89095150  0.04052050  0.98069550  1
  N  N14_6  1  0.89095150  0.54052050  0.48069550  1
  N  N14_7  1  0.89095150  0.54052050  0.98069550  1
  N  N15_0  1  0.08783250  0.48069550  0.04052050  1
  N  N15_1  1  0.08783250  0.48069550  0.54052050  1
  N  N15_2  1  0.08783250  0.98069550  0.04052050  1
  N  N15_3  1  0.08783250  0.98069550  0.54052050  1
  N  N15_4  1  0.58783250  0.48069550  0.04052050  1
  N  N15_5  1  0.58783250  0.48069550  0.54052050  1
  N  N15_6  1  0.58783250  0.98069550  0.04052050  1
  N  N15_7  1  0.58783250  0.98069550  0.54052050  1
  O  O0_0  1  0.21855450  0.04283000  0.21101700  1
  O  O0_1  1  0.21855450  0.04283000  0.71101700  1
  O  O0_2  1  0.21855450  0.54283000  0.21101700  1
  O  O0_3  1  0.21855450  0.54283000  0.71101700  1
  O  O0_4  1  0.71855450  0.04283000  0.21101700  1
  O  O0_5  1  0.71855450  0.04283000  0.71101700  1
  O  O0_6  1  0.71855450  0.54283000  0.21101700  1
  O  O0_7  1  0.71855450  0.54283000  0.71101700  1
  O  O1_0  1  0.02759850  0.21101700  0.04283000  1
  O  O1_1  1  0.02759850  0.21101700  0.54283000  1
  O  O1_2  1  0.02759850  0.71101700  0.04283000  1
  O  O1_3  1  0.02759850  0.71101700  0.54283000  1
  O  O1_4  1  0.52759850  0.21101700  0.04283000  1
  O  O1_5  1  0.52759850  0.21101700  0.54283000  1
  O  O1_6  1  0.52759850  0.71101700  0.04283000  1
  O  O1_7  1  0.52759850  0.71101700  0.54283000  1
  O  O2_0  1  0.41398300  0.09740150  0.40644550  1
  O  O2_1  1  0.41398300  0.09740150  0.90644550  1
  O  O2_2  1  0.41398300  0.59740150  0.40644550  1
  O  O2_3  1  0.41398300  0.59740150  0.90644550  1
  O  O2_4  1  0.91398300  0.09740150  0.40644550  1
  O  O2_5  1  0.91398300  0.09740150  0.90644550  1
  O  O2_6  1  0.91398300  0.59740150  0.40644550  1
  O  O2_7  1  0.91398300  0.59740150  0.90644550  1
  O  O3_0  1  0.08217000  0.40644550  0.09740150  1
  O  O3_1  1  0.08217000  0.40644550  0.59740150  1
  O  O3_2  1  0.08217000  0.90644550  0.09740150  1
  O  O3_3  1  0.08217000  0.90644550  0.59740150  1
  O  O3_4  1  0.58217000  0.40644550  0.09740150  1
  O  O3_5  1  0.58217000  0.40644550  0.59740150  1
  O  O3_6  1  0.58217000  0.90644550  0.09740150  1
  O  O3_7  1  0.58217000  0.90644550  0.59740150  1
  O  O4_0  1  0.15321850  0.09138550  0.13613600  1
  O  O4_1  1  0.15321850  0.09138550  0.63613600  1
  O  O4_2  1  0.15321850  0.59138550  0.13613600  1
  O  O4_3  1  0.15321850  0.59138550  0.63613600  1
  O  O4_4  1  0.65321850  0.09138550  0.13613600  1
  O  O4_5  1  0.65321850  0.09138550  0.63613600  1
  O  O4_6  1  0.65321850  0.59138550  0.13613600  1
  O  O4_7  1  0.65321850  0.59138550  0.63613600  1
  O  O5_0  1  0.11926000  0.13613600  0.09138550  1
  O  O5_1  1  0.11926000  0.13613600  0.59138550  1
  O  O5_2  1  0.11926000  0.63613600  0.09138550  1
  O  O5_3  1  0.11926000  0.63613600  0.59138550  1
  O  O5_4  1  0.61926000  0.13613600  0.09138550  1
  O  O5_5  1  0.61926000  0.13613600  0.59138550  1
  O  O5_6  1  0.61926000  0.63613600  0.09138550  1
  O  O5_7  1  0.61926000  0.63613600  0.59138550  1
  O  O6_0  1  0.48886400  0.00574000  0.47178150  1
  O  O6_1  1  0.48886400  0.00574000  0.97178150  1
  O  O6_2  1  0.48886400  0.50574000  0.47178150  1
  O  O6_3  1  0.48886400  0.50574000  0.97178150  1
  O  O6_4  1  0.98886400  0.00574000  0.47178150  1
  O  O6_5  1  0.98886400  0.00574000  0.97178150  1
  O  O6_6  1  0.98886400  0.50574000  0.47178150  1
  O  O6_7  1  0.98886400  0.50574000  0.97178150  1
  O  O7_0  1  0.03361450  0.47178150  0.00574000  1
  O  O7_1  1  0.03361450  0.47178150  0.50574000  1
  O  O7_2  1  0.03361450  0.97178150  0.00574000  1
  O  O7_3  1  0.03361450  0.97178150  0.50574000  1
  O  O7_4  1  0.53361450  0.47178150  0.00574000  1
  O  O7_5  1  0.53361450  0.47178150  0.50574000  1
  O  O7_6  1  0.53361450  0.97178150  0.00574000  1
  O  O7_7  1  0.53361450  0.97178150  0.50574000  1
loop_
_geom_bond_atom_site_label_1
_geom_bond_atom_site_label_2
_geom_bond_distance
_geom_bond_site_symmetry_2
C0_0 N4_0 1.433589 1_555
C0_0 N0_0 1.437775 1_555
C0_1 N4_1 1.433589 1_555
C0_1 N0_1 1.437775 1_555
C0_2 N4_2 1.433589 1_555
C0_2 N0_2 1.437775 1_555
C0_3 N4_3 1.433589 1_555
C0_3 N0_3 1.437775 1_555
C0_4 N4_4 1.433589 1_555
C0_4 N0_4 1.437775 1_555
C0_5 N4_5 1.433589 1_555
C0_5 N0_5 1.437775 1_555
C0_6 N4_6 1.433589 1_555
C0_6 N0_6 1.437775 1_555
C0_7 N4_7 1.433589 1_555
C0_7 N0_7 1.437775 1_555
C1_0 N5_4 1.433606 1_555
C1_0 N1_0 1.437761 1_555
C1_1 N5_5 1.433606 1_555
C1_1 N1_1 1.437761 1_555
C1_2 N5_6 1.433606 1_555
C1_2 N1_2 1.437761 1_555
C1_3 N5_7 1.433606 1_555
C1_3 N1_3 1.437761 1_555
C1_4 N5_0 1.433606 1_655
C1_4 N1_4 1.437761 1_555
C1_5 N5_1 1.433606 1_655
C1_5 N1_5 1.437761 1_555
C1_6 N5_2 1.433606 1_655
C1_6 N1_6 1.437761 1_555
C1_7 N5_3 1.433606 1_655
C1_7 N1_7 1.437761 1_555
C2_0 N6_0 1.433592 1_555
C2_0 N2_0 1.437761 1_555
C2_1 N6_1 1.433592 1_555
C2_1 N2_1 1.437761 1_555
C2_2 N6_2 1.433592 1_555
C2_2 N2_2 1.437761 1_555
C2_3 N6_3 1.433592 1_555
C2_3 N2_3 1.437761 1_555
C2_4 N6_4 1.433592 1_555
C2_4 N2_4 1.437761 1_555
C2_5 N6_5 1.433592 1_555
C2_5 N2_5 1.437761 1_555
C2_6 N6_6 1.433592 1_555
C2_6 N2_6 1.437761 1_555
C2_7 N6_7 1.433592 1_555
C2_7 N2_7 1.437761 1_555
C3_0 N7_0 1.433603 1_555
C3_0 N3_0 1.437772 1_555
C3_1 N7_1 1.433603 1_555
C3_1 N3_1 1.437772 1_555
C3_2 N7_2 1.433603 1_555
C3_2 N3_2 1.437772 1_555
C3_3 N7_3 1.433603 1_555
C3_3 N3_3 1.437772 1_555
C3_4 N7_4 1.433603 1_555
C3_4 N3_4 1.437772 1_555
C3_5 N7_5 1.433603 1_555
C3_5 N3_5 1.437772 1_555
C3_6 N7_6 1.433603 1_555
C3_6 N3_6 1.437772 1_555
C3_7 N7_7 1.433603 1_555
C3_7 N3_7 1.437772 1_555
N8_0 N8_7 1.648906 1_455
N8_0 N8_7 1.648906 1_544
N8_1 N8_6 1.648906 1_545
N8_1 N8_6 1.648906 1_456
N8_2 N8_5 1.648906 1_465
N8_2 N8_5 1.648906 1_554
N8_3 N8_4 1.648906 1_555
N8_3 N8_4 1.648906 1_466
N9_0 N9_7 1.648906 1_455
N9_0 N9_7 1.648906 1_544
N9_1 N9_6 1.648906 1_456
N9_1 N9_6 1.648906 1_545
N9_2 N9_5 1.648906 1_554
N9_2 N9_5 1.648906 1_465
N9_3 N9_4 1.648906 1_555
N9_3 N9_4 1.648906 1_466
N10_0 N14_1 1.285140 1_554
N10_0 N10_7 1.648906 1_455
N10_0 N10_7 1.648906 1_544
N10_1 N14_0 1.285140 1_555
N10_1 N10_6 1.648906 1_456
N10_1 N10_6 1.648906 1_545
N10_2 N14_3 1.285140 1_554
N10_2 N10_5 1.648906 1_554
N10_2 N10_5 1.648906 1_465
N10_3 N14_2 1.285140 1_555
N10_3 N10_4 1.648906 1_555
N10_3 N10_4 1.648906 1_466
N10_4 N14_5 1.285140 1_554
N10_5 N14_4 1.285140 1_555
N10_6 N14_7 1.285140 1_554
N10_7 N14_6 1.285140 1_555
N11_0 N15_2 1.285140 1_545
N11_0 N11_7 1.648906 1_455
N11_0 N11_7 1.648906 1_544
N11_1 N15_3 1.285140 1_545
N11_1 N11_6 1.648906 1_545
N11_1 N11_6 1.648906 1_456
N11_2 N15_0 1.285140 1_555
N11_2 N11_5 1.648906 1_554
N11_2 N11_5 1.648906 1_465
N11_3 N15_1 1.285140 1_555
N11_3 N11_4 1.648906 1_555
N11_3 N11_4 1.648906 1_466
N11_4 N15_6 1.285140 1_545
N11_5 N15_7 1.285140 1_545
N11_6 N15_4 1.285140 1_555
N11_7 N15_5 1.285140 1_555
N12_0 N8_0 1.285150 1_555
N12_0 N12_7 1.648906 1_455
N12_0 N12_7 1.648906 1_544
N12_1 N8_1 1.285150 1_555
N12_1 N12_6 1.648906 1_545
N12_1 N12_6 1.648906 1_456
N12_2 N8_2 1.285150 1_555
N12_2 N12_5 1.648906 1_465
N12_2 N12_5 1.648906 1_554
N12_3 N8_3 1.285150 1_555
N12_3 N12_4 1.648906 1_555
N12_3 N12_4 1.648906 1_466
N12_4 N8_4 1.285150 1_555
N12_5 N8_5 1.285150 1_555
N12_6 N8_6 1.285150 1_555
N12_7 N8_7 1.285150 1_555
N13_0 N9_0 1.285130 1_555
N13_0 N13_7 1.648906 1_455
N13_0 N13_7 1.648906 1_544
N13_1 N9_1 1.285130 1_555
N13_1 N13_6 1.648906 1_456
N13_1 N13_6 1.648906 1_545
N13_2 N9_2 1.285130 1_555
N13_2 N13_5 1.648906 1_554
N13_2 N13_5 1.648906 1_465
N13_3 N9_3 1.285130 1_555
N13_3 N13_4 1.648906 1_555
N13_3 N13_4 1.648906 1_466
N13_4 N9_4 1.285130 1_555
N13_5 N9_5 1.285130 1_555
N13_6 N9_6 1.285130 1_555
N13_7 N9_7 1.285130 1_555
N14_0 N14_7 1.648906 1_455
N14_0 N14_7 1.648906 1_544
N14_1 N14_6 1.648906 1_545
N14_1 N14_6 1.648906 1_456
N14_2 N14_5 1.648906 1_554
N14_2 N14_5 1.648906 1_465
N14_3 N14_4 1.648906 1_466
N14_3 N14_4 1.648906 1_555
N15_0 N15_7 1.648906 1_544
N15_0 N15_7 1.648906 1_455
N15_1 N15_6 1.648906 1_545
N15_1 N15_6 1.648906 1_456
N15_2 N15_5 1.648906 1_554
N15_2 N15_5 1.648906 1_465
N15_3 N15_4 1.648906 1_466
N15_3 N15_4 1.648906 1_555
O0_0 O0_7 1.648906 1_455
O0_0 O0_7 1.648906 1_544
O0_1 O0_6 1.648906 1_456
O0_1 O0_6 1.648906 1_545
O0_2 O0_5 1.648906 1_465
O0_2 O0_5 1.648906 1_554
O0_3 O0_4 1.648906 1_555
O0_3 O0_4 1.648906 1_466
O1_0 O1_7 1.648906 1_455
O1_0 O1_7 1.648906 1_544
O1_1 O1_6 1.648906 1_545
O1_1 O1_6 1.648906 1_456
O1_2 O1_5 1.648906 1_554
O1_2 O1_5 1.648906 1_465
O1_3 O1_4 1.648906 1_555
O1_3 O1_4 1.648906 1_466
O2_0 O2_7 1.648906 1_455
O2_0 O2_7 1.648906 1_544
O2_1 O2_6 1.648906 1_545
O2_1 O2_6 1.648906 1_456
O2_2 O2_5 1.648906 1_465
O2_2 O2_5 1.648906 1_554
O2_3 O2_4 1.648906 1_555
O2_3 O2_4 1.648906 1_466
O3_0 O3_7 1.648906 1_455
O3_0 O3_7 1.648906 1_544
O3_1 O3_6 1.648906 1_545
O3_1 O3_6 1.648906 1_456
O3_2 O3_5 1.648906 1_554
O3_2 O3_5 1.648906 1_465
O3_3 O3_4 1.648906 1_466
O3_3 O3_4 1.648906 1_555
O4_0 O4_7 1.648906 1_455
O4_0 O4_7 1.648906 1_544
O4_1 O4_6 1.648906 1_545
O4_1 O4_6 1.648906 1_456
O4_2 O4_5 1.648906 1_465
O4_2 O4_5 1.648906 1_554
O4_3 O4_4 1.648906 1_466
O4_3 O4_4 1.648906 1_555
O5_0 O5_7 1.648906 1_544
O5_0 O5_7 1.648906 1_455
O5_1 O5_6 1.648906 1_456
O5_1 O5_6 1.648906 1_545
O5_2 O5_5 1.648906 1_554
O5_2 O5_5 1.648906 1_465
O5_3 O5_4 1.648906 1_466
O5_3 O5_4 1.648906 1_555
O6_0 O6_7 1.648906 1_544
O6_0 O6_7 1.648906 1_455
O6_1 O6_6 1.648906 1_545
O6_1 O6_6 1.648906 1_456
O6_2 O6_5 1.648906 1_554
O6_2 O6_5 1.648906 1_465
O6_3 O6_4 1.648906 1_466
O6_3 O6_4 1.648906 1_555
O7_0 O7_7 1.648906 1_455
O7_0 O7_7 1.648906 1_544
O7_1 O7_6 1.648906 1_545
O7_1 O7_6 1.648906 1_456
O7_2 O7_5 1.648906 1_465
O7_2 O7_5 1.648906 1_554
O7_3 O7_4 1.648906 1_466
O7_3 O7_4 1.648906 1_555
