# generated using pymatgen
data_TiFe3Bi3PbO12
_symmetry_space_group_name_H-M   'P 1'
_cell_length_a   5.45139400
_cell_length_b   6.00198362
_cell_length_c   9.69780998
_cell_angle_alpha   84.28633053
_cell_angle_beta   105.52190151
_cell_angle_gamma   114.75664477
_symmetry_Int_Tables_number   1
_chemical_formula_structural   TiFe3Bi3PbO12
_chemical_formula_sum   'Ti1 Fe3 Bi3 Pb1 O12'
_cell_volume   277.60495735
_cell_formula_units_Z   1
loop_
 _symmetry_equiv_pos_site_id
 _symmetry_equiv_pos_as_xyz
  1  'x, y, z'
loop_
 _atom_site_type_symbol
 _atom_site_label
 _atom_site_symmetry_multiplicity
 _atom_site_fract_x
 _atom_site_fract_y
 _atom_site_fract_z
 _atom_site_occupancy
  Ti  Ti0  1  0.70907500  0.48787700  0.98844600  1
  Fe  Fe0  1  0.23090900  0.74310500  0.75798400  1
  Fe  Fe1  1  0.21364900  0.23157500  0.24982300  1
  Fe  Fe2  1  0.71662900  0.99690300  0.48871300  1
  Bi  Bi0  1  0.55488700  0.44051300  0.62480300  1
  Bi  Bi1  1  0.53365800  0.94246200  0.12645100  1
  Bi  Bi2  1  0.04550800  0.66291800  0.39927300  1
  Pb  Pb0  1  0.01495800  0.14678600  0.87900800  1
  O  O0  1  0.90920100  0.52777900  0.84331800  1
  O  O1  1  0.89603400  0.00004900  0.33496600  1
  O  O2  1  0.40960400  0.51801100  0.84019400  1
  O  O3  1  0.39034500  0.99691700  0.33123700  1
  O  O4  1  0.90886500  0.78489700  0.59842300  1
  O  O5  1  0.90289000  0.27959900  0.10070800  1
  O  O6  1  0.40524900  0.78838500  0.59116200  1
  O  O7  1  0.41447700  0.27796200  0.09637400  1
  O  O8  1  0.87192200  0.31386100  0.56966800  1
  O  O9  1  0.87590300  0.77504300  0.07809900  1
  O  O10  1  0.42438300  0.02630300  0.87218800  1
  O  O11  1  0.37985700  0.50305600  0.37716100  1
loop_
_geom_bond_atom_site_label_1
_geom_bond_atom_site_label_2
_geom_bond_distance
_geom_bond_site_symmetry_2
Fe0 O10 1.864497 1_565
Fe0 O2 1.970255 1_555
Fe0 O0 2.023930 1_455
Fe0 O6 2.028168 1_555
Fe0 O4 2.092131 1_455
Fe1 O11 1.888454 1_555
Fe1 O7 2.006182 1_555
Fe1 O3 2.010623 1_545
Fe1 O5 2.014682 1_455
Fe1 O1 2.032802 1_455
Fe2 O8 1.882792 1_565
Fe2 O1 1.984779 1_565
Fe2 O3 2.010545 1_555
Fe2 O4 2.024809 1_555
Fe2 O6 2.076187 1_555
Bi0 O4 2.209042 1_555
Bi0 O8 2.350861 1_555
Bi0 O0 2.383009 1_555
Bi0 O11 2.390184 1_555
Bi0 O6 2.505930 1_555
Bi0 O2 2.567918 1_555
Bi1 O5 2.228334 1_565
Bi1 O7 2.332250 1_565
Bi1 O1 2.353774 1_565
Bi1 O3 2.415533 1_555
Bi1 O10 2.430238 1_564
Bi1 O9 2.615853 1_555
Bi2 O6 2.228201 1_555
Bi2 O3 2.287375 1_555
Bi2 O11 2.450220 1_555
Bi2 O1 2.450497 1_465
Bi2 O4 2.515773 1_455
Bi2 O8 2.549986 1_455
O0 Ti0 1.940169 1_555
O0 Pb0 2.553624 1_655
O2 Ti0 1.924636 1_555
O2 Pb0 2.446676 1_555
O5 Ti0 2.020855 1_554
O5 Pb0 2.661449 1_654
O7 Ti0 2.050476 1_554
O7 Pb0 2.498793 1_554
O9 Ti0 1.765235 1_554
O9 Pb0 2.790998 1_664
O10 Pb0 2.636123 1_555
