# generated using pymatgen
data_U3Te5(PbO4)8
_symmetry_space_group_name_H-M   'P 1'
_cell_length_a   5.87617797
_cell_length_b   15.59621811
_cell_length_c   7.93769642
_cell_angle_alpha   89.95309158
_cell_angle_beta   90.38174053
_cell_angle_gamma   89.62195242
_symmetry_Int_Tables_number   1
_chemical_formula_structural   U3Te5(PbO4)8
_chemical_formula_sum   'U3 Te5 Pb8 O32'
_cell_volume   727.42709102
_cell_formula_units_Z   1
loop_
 _symmetry_equiv_pos_site_id
 _symmetry_equiv_pos_as_xyz
  1  'x, y, z'
loop_
 _atom_site_type_symbol
 _atom_site_label
 _atom_site_symmetry_multiplicity
 _atom_site_fract_x
 _atom_site_fract_y
 _atom_site_fract_z
 _atom_site_occupancy
  U  U0  1  0.99916400  0.25080500  0.50066200  1
  U  U1  1  0.00083600  0.74919500  0.49933800  1
  U  U2  1  0.00000000  0.00000000  0.00000000  1
  Te  Te0  1  0.00000000  0.00000000  0.50000000  1
  Te  Te1  1  0.00000000  0.50000000  0.50000000  1
  Te  Te2  1  0.99628000  0.25370500  0.00135300  1
  Te  Te3  1  0.00372000  0.74629500  0.99864700  1
  Te  Te4  1  0.00000000  0.50000000  0.00000000  1
  Pb  Pb0  1  0.49041500  0.16627400  0.18750900  1
  Pb  Pb1  1  0.48497300  0.65689100  0.18455900  1
  Pb  Pb2  1  0.50855800  0.41866300  0.29270800  1
  Pb  Pb3  1  0.50852900  0.91526500  0.31287800  1
  Pb  Pb4  1  0.51502700  0.34310900  0.81544100  1
  Pb  Pb5  1  0.50958500  0.83372600  0.81249100  1
  Pb  Pb6  1  0.49147100  0.08473500  0.68712200  1
  Pb  Pb7  1  0.49144200  0.58133700  0.70729200  1
  O  O0  1  0.87317700  0.13559800  0.00426300  1
  O  O1  1  0.87800200  0.62443100  0.00155800  1
  O  O2  1  0.12955300  0.38390400  0.49595400  1
  O  O3  1  0.13246800  0.88372100  0.49587100  1
  O  O4  1  0.12199800  0.37556900  0.99844200  1
  O  O5  1  0.12682300  0.86440200  0.99573700  1
  O  O6  1  0.86753200  0.11627900  0.50412900  1
  O  O7  1  0.87044700  0.61609600  0.50404600  1
  O  O8  1  0.89339300  0.48710900  0.25048500  1
  O  O9  1  0.88937600  0.98594100  0.26580000  1
  O  O10  1  0.11023100  0.23869600  0.23362600  1
  O  O11  1  0.11323300  0.73300000  0.23217500  1
  O  O12  1  0.11062400  0.01405900  0.73420000  1
  O  O13  1  0.10660700  0.51289100  0.74951500  1
  O  O14  1  0.88676700  0.26700000  0.76782500  1
  O  O15  1  0.88976900  0.76130400  0.76637400  1
  O  O16  1  0.70528200  0.28348100  0.43275500  1
  O  O17  1  0.70533000  0.78391000  0.43438700  1
  O  O18  1  0.29504500  0.03415500  0.06502500  1
  O  O19  1  0.29667500  0.53015900  0.06441100  1
  O  O20  1  0.29467000  0.21609000  0.56561300  1
  O  O21  1  0.29471800  0.71651900  0.56724500  1
  O  O22  1  0.70332500  0.46984100  0.93558900  1
  O  O23  1  0.70495500  0.96584500  0.93497500  1
  O  O24  1  0.29521700  0.21652000  0.93463300  1
  O  O25  1  0.30116200  0.70683500  0.92990000  1
  O  O26  1  0.70356900  0.45885100  0.55630800  1
  O  O27  1  0.70385000  0.95850900  0.56775200  1
  O  O28  1  0.69883800  0.29316500  0.07010000  1
  O  O29  1  0.70478300  0.78348000  0.06536700  1
  O  O30  1  0.29615000  0.04149100  0.43224800  1
  O  O31  1  0.29643100  0.54114900  0.44369200  1
loop_
_geom_bond_atom_site_label_1
_geom_bond_atom_site_label_2
_geom_bond_distance
_geom_bond_site_symmetry_2
O0 Te2 1.983580 1_555
O0 U2 2.237995 1_655
O0 Pb0 2.726527 1_555
O1 Te3 2.043845 1_654
O1 Te4 2.064462 1_655
O1 Pb1 2.780407 1_555
O2 Te1 1.959921 1_555
O2 U0 2.217837 1_455
O2 Pb2 2.814070 1_555
O3 Te0 1.969169 1_565
O3 U1 2.241130 1_555
O3 Pb3 2.700200 1_555
O4 Te2 2.043845 1_456
O4 Te4 2.064462 1_556
O4 Pb4 2.780407 1_555
O5 Te3 1.983580 1_555
O5 U2 2.237995 1_566
O5 Pb5 2.726527 1_555
O6 Te0 1.969169 1_655
O6 U0 2.241130 1_555
O6 Pb6 2.700200 1_555
O7 Te1 1.959921 1_655
O7 U1 2.217837 1_655
O7 Pb7 2.814070 1_555
O8 Te1 2.083580 1_655
O8 Te4 2.098497 1_655
O8 Pb2 2.531204 1_555
O9 Te0 1.978130 1_665
O9 U2 2.222940 1_665
O9 Pb3 2.531006 1_555
O10 Te2 1.970585 1_455
O10 U0 2.229798 1_455
O10 Pb0 2.525659 1_555
O11 Te3 1.968485 1_554
O11 U1 2.239318 1_555
O11 Pb1 2.510184 1_555
O12 Te0 1.978130 1_555
O12 U2 2.222940 1_556
O12 Pb6 2.531006 1_555
O13 Te1 2.083580 1_555
O13 Te4 2.098497 1_556
O13 Pb7 2.531204 1_555
O14 Te2 1.968485 1_556
O14 U0 2.239318 1_555
O14 Pb4 2.510184 1_555
O15 Te3 1.970585 1_655
O15 U1 2.229798 1_655
O15 Pb5 2.525659 1_555
O16 U0 1.872963 1_555
O16 Pb2 2.638938 1_555
O17 U1 1.883983 1_655
O17 Pb3 2.532821 1_555
O18 U2 1.885928 1_555
O18 Pb0 2.555140 1_555
O19 Te4 1.876468 1_555
O19 Pb1 2.461385 1_555
O19 Pb2 2.791793 1_555
O20 U0 1.883983 1_455
O20 Pb6 2.532821 1_555
O21 U1 1.872963 1_555
O21 Pb7 2.638938 1_555
O22 Te4 1.876468 1_656
O22 Pb4 2.461385 1_555
O22 Pb7 2.791793 1_555
O23 U2 1.885928 1_666
O23 Pb5 2.555140 1_555
O24 Te2 1.924043 1_456
O24 Pb0 2.431810 1_556
O24 Pb4 2.551125 1_555
O25 Te3 1.931444 1_555
O25 Pb1 2.411780 1_556
O25 Pb5 2.515791 1_555
O25 Pb7 2.864711 1_555
O26 Te1 1.915840 1_655
O26 Pb2 2.462458 1_555
O26 Pb7 2.575193 1_555
O27 Te0 1.939878 1_665
O27 Pb3 2.417990 1_555
O27 Pb6 2.513406 1_565
O28 Te2 1.931444 1_555
O28 Pb4 2.411780 1_554
O28 Pb0 2.515791 1_555
O28 Pb2 2.864711 1_555
O29 Te3 1.924043 1_654
O29 Pb5 2.431810 1_554
O29 Pb1 2.551125 1_555
O30 Te0 1.939878 1_555
O30 Pb6 2.417990 1_555
O30 Pb3 2.513406 1_545
O31 Te1 1.915840 1_555
O31 Pb7 2.462458 1_555
O31 Pb2 2.575193 1_555
