# generated using pymatgen
data_BaSr2Mn2(Si2O7)2
_symmetry_space_group_name_H-M   'P 1'
_cell_length_a   8.39950741
_cell_length_b   8.39950741
_cell_length_c   5.23606388
_cell_angle_alpha   87.16495377
_cell_angle_beta   87.16495377
_cell_angle_gamma   55.90929127
_symmetry_Int_Tables_number   1
_chemical_formula_structural   BaSr2Mn2(Si2O7)2
_chemical_formula_sum   'Ba1 Sr2 Mn2 Si4 O14'
_cell_volume   305.45013839
_cell_formula_units_Z   1
loop_
 _symmetry_equiv_pos_site_id
 _symmetry_equiv_pos_as_xyz
  1  'x, y, z'
loop_
 _atom_site_type_symbol
 _atom_site_label
 _atom_site_symmetry_multiplicity
 _atom_site_fract_x
 _atom_site_fract_y
 _atom_site_fract_z
 _atom_site_occupancy
  Ba  Ba0  1  0.77551700  0.22448300  0.00000000  1
  Sr  Sr0  1  0.30138800  0.10619900  0.01893500  1
  Sr  Sr1  1  0.89380100  0.69861200  0.98106500  1
  Mn  Mn0  1  0.30385400  0.69614600  0.00000000  1
  Mn  Mn1  1  0.10962900  0.89037100  0.50000000  1
  Si  Si0  1  0.62891900  0.02271600  0.51311600  1
  Si  Si1  1  0.97728400  0.37108100  0.48688400  1
  Si  Si2  1  0.55729700  0.70514200  0.53906300  1
  Si  Si3  1  0.29485800  0.44270300  0.46093700  1
  O  O0  1  0.58888000  0.86624900  0.66997200  1
  O  O1  1  0.13375100  0.41112000  0.33002800  1
  O  O2  1  0.54215500  0.58401400  0.77963800  1
  O  O3  1  0.41598600  0.45784500  0.22036200  1
  O  O4  1  0.99274500  0.37577400  0.79105700  1
  O  O5  1  0.62422600  0.00725500  0.20894300  1
  O  O6  1  0.18601600  0.93486100  0.80839900  1
  O  O7  1  0.06513900  0.81398400  0.19160100  1
  O  O8  1  0.82121300  0.98542800  0.63535200  1
  O  O9  1  0.38664100  0.81124100  0.33205600  1
  O  O10  1  0.18875900  0.61335900  0.66794400  1
  O  O11  1  0.76602200  0.55945100  0.37813400  1
  O  O12  1  0.44054900  0.23397800  0.62186600  1
  O  O13  1  0.01457200  0.17878700  0.36464800  1
loop_
_geom_bond_atom_site_label_1
_geom_bond_atom_site_label_2
_geom_bond_distance
_geom_bond_site_symmetry_2
Ba0 O13 2.695822 1_655
Ba0 O8 2.695822 1_544
Ba0 O3 2.745269 1_555
Ba0 O2 2.745269 1_554
Ba0 O4 2.899175 1_554
Ba0 O5 2.899175 1_555
Ba0 O6 3.051134 1_644
Ba0 O7 3.051134 1_645
Mn0 O6 1.918596 1_554
Mn0 O7 1.918596 1_555
Mn0 O3 1.997635 1_555
Mn0 O2 1.997635 1_554
Mn0 O9 2.341057 1_555
Mn0 O10 2.341057 1_554
Mn1 O6 1.894689 1_555
Mn1 O7 1.894689 1_555
Mn1 O13 2.174019 1_565
Mn1 O8 2.174019 1_455
Mn1 O10 2.179602 1_555
Mn1 O9 2.179602 1_555
O0 Si0 1.695957 1_565
O0 Si2 1.698112 1_555
O0 Sr1 2.709010 1_555
O0 Sr0 2.775589 1_566
O1 Si1 1.695957 1_455
O1 Si3 1.698112 1_555
O1 Sr0 2.709010 1_555
O1 Sr1 2.775589 1_454
O2 Si2 1.624962 1_555
O3 Si3 1.624962 1_555
O4 Si1 1.608547 1_555
O4 Sr1 2.586980 1_555
O4 Sr0 2.594194 1_656
O5 Si0 1.608547 1_555
O5 Sr0 2.586980 1_555
O5 Sr1 2.594194 1_544
O6 Sr0 2.459983 1_566
O7 Sr1 2.459983 1_454
O8 Si0 1.622305 1_565
O8 Sr1 2.735598 1_555
O9 Si2 1.627843 1_555
O9 Sr0 2.657888 1_565
O10 Si3 1.627843 1_555
O10 Sr1 2.657888 1_455
O11 Si2 1.682866 1_555
O11 Si1 1.685209 1_555
O11 Sr1 2.790341 1_554
O12 Si3 1.682866 1_555
O12 Si0 1.685209 1_555
O12 Sr0 2.790341 1_556
O13 Si1 1.622305 1_455
O13 Sr0 2.735598 1_555
