# generated using pymatgen
data_Pr3Rh2
_symmetry_space_group_name_H-M   'P 1'
_cell_length_a   7.64295565
_cell_length_b   7.64308625
_cell_length_c   7.64312008
_cell_angle_alpha   71.46964293
_cell_angle_beta   71.47169032
_cell_angle_gamma   71.47028663
_symmetry_Int_Tables_number   1
_chemical_formula_structural   Pr3Rh2
_chemical_formula_sum   'Pr9 Rh6'
_cell_volume   389.54168344
_cell_formula_units_Z   3
loop_
 _symmetry_equiv_pos_site_id
 _symmetry_equiv_pos_as_xyz
  1  'x, y, z'
loop_
 _atom_site_type_symbol
 _atom_site_label
 _atom_site_symmetry_multiplicity
 _atom_site_fract_x
 _atom_site_fract_y
 _atom_site_fract_z
 _atom_site_occupancy
  Pr  Pr0  1  0.00000000  0.00000000  -0.00000000  1
  Pr  Pr1  1  0.79621779  0.79620487  0.79620725  1
  Pr  Pr2  1  0.20378321  0.20379513  0.20379175  1
  Pr  Pr3  1  0.38937553  0.16260751  0.66777664  1
  Pr  Pr4  1  0.16261742  0.66776571  0.38936549  1
  Pr  Pr5  1  0.66775930  0.38937179  0.16261790  1
  Pr  Pr6  1  0.61062447  0.83739249  0.33222436  1
  Pr  Pr7  1  0.83738258  0.33223529  0.61063251  1
  Pr  Pr8  1  0.33224070  0.61062721  0.83738110  1
  Rh  Rh0  1  0.16100066  0.95720285  0.58986573  1
  Rh  Rh1  1  0.95719720  0.58985955  0.16101799  1
  Rh  Rh2  1  0.58985748  0.16102484  0.95719904  1
  Rh  Rh3  1  0.83899834  0.04279815  0.41013327  1
  Rh  Rh4  1  0.04280380  0.41013945  0.83898401  1
  Rh  Rh5  1  0.41014252  0.83897616  0.04280096  1
loop_
_geom_bond_atom_site_label_1
_geom_bond_atom_site_label_2
_geom_bond_distance
_geom_bond_site_symmetry_2
Pr0 Rh5 3.064602 1_545
Pr0 Rh2 3.064602 1_454
Pr0 Rh3 3.064626 1_455
Pr0 Rh0 3.064630 1_544
Pr0 Rh4 3.064631 1_554
Pr0 Rh1 3.064636 1_445
Pr1 Rh4 2.934183 1_655
Pr1 Rh3 2.934270 1_565
Pr1 Rh5 2.934292 1_556
Pr1 Rh0 3.150717 1_655
Pr1 Rh1 3.150802 1_556
Pr1 Rh2 3.150988 1_565
Pr2 Rh1 2.934177 1_455
Pr2 Rh0 2.934267 1_545
Pr2 Rh2 2.934284 1_554
Pr2 Rh3 3.150726 1_455
Pr2 Rh4 3.150781 1_554
Pr2 Rh5 3.150977 1_545
Pr3 Rh4 2.914352 1_555
Pr3 Rh0 2.976972 1_545
Pr3 Rh2 3.060518 1_555
Pr3 Rh5 3.145261 1_546
Pr3 Rh3 3.372053 1_555
Pr4 Rh5 2.914308 1_555
Pr4 Rh1 2.976869 1_455
Pr4 Rh0 3.060672 1_555
Pr4 Rh3 3.145262 1_465
Pr4 Rh4 3.371986 1_555
Pr5 Rh3 2.914330 1_555
Pr5 Rh2 2.976873 1_554
Pr5 Rh1 3.060607 1_555
Pr5 Rh4 3.145418 1_654
Pr5 Rh5 3.371840 1_555
Pr6 Rh1 2.914358 1_555
Pr6 Rh3 2.976963 1_565
Pr6 Rh5 3.060522 1_555
Pr6 Rh2 3.145270 1_564
Pr6 Rh0 3.372054 1_555
Pr7 Rh2 2.914317 1_555
Pr7 Rh4 2.976891 1_655
Pr7 Rh3 3.060669 1_555
Pr7 Rh0 3.145258 1_645
Pr7 Rh1 3.371959 1_555
Pr8 Rh0 2.914341 1_555
Pr8 Rh5 2.976892 1_556
Pr8 Rh4 3.060591 1_555
Pr8 Rh1 3.145424 1_456
Pr8 Rh2 3.371830 1_555
