# generated using pymatgen
data_YMoO3
_symmetry_space_group_name_H-M   'P 1'
_cell_length_a   6.29054768
_cell_length_b   6.29054768
_cell_length_c   12.51747400
_cell_angle_alpha   90.00000000
_cell_angle_beta   90.00000000
_cell_angle_gamma   119.99999661
_symmetry_Int_Tables_number   1
_chemical_formula_structural   YMoO3
_chemical_formula_sum   'Y6 Mo6 O18'
_cell_volume   428.96737296
_cell_formula_units_Z   6
loop_
 _symmetry_equiv_pos_site_id
 _symmetry_equiv_pos_as_xyz
  1  'x, y, z'
loop_
 _atom_site_type_symbol
 _atom_site_label
 _atom_site_symmetry_multiplicity
 _atom_site_fract_x
 _atom_site_fract_y
 _atom_site_fract_z
 _atom_site_occupancy
  Y  Y0  1  0.66666700  0.33333300  0.23529300  1
  Y  Y1  1  0.33333300  0.66666700  0.73529300  1
  Y  Y2  1  0.66666700  0.33333300  0.73529300  1
  Y  Y3  1  0.33333300  0.66666700  0.23529300  1
  Y  Y4  1  0.00000000  0.00000000  0.77011100  1
  Y  Y5  1  0.00000000  0.00000000  0.27011100  1
  Mo  Mo0  1  0.66759500  0.00000000  0.50050100  1
  Mo  Mo1  1  0.66759500  0.66759500  0.00050100  1
  Mo  Mo2  1  0.00000000  0.33240500  0.00050100  1
  Mo  Mo3  1  0.00000000  0.66759500  0.50050100  1
  Mo  Mo4  1  0.33240500  0.33240500  0.50050100  1
  Mo  Mo5  1  0.33240500  0.00000000  0.00050100  1
  O  O0  1  0.66666700  0.33333300  0.03039900  1
  O  O1  1  0.33333300  0.66666700  0.53039900  1
  O  O2  1  0.66666700  0.33333300  0.53039900  1
  O  O3  1  0.33333300  0.66666700  0.03039900  1
  O  O4  1  0.00000000  0.00000000  0.96422100  1
  O  O5  1  0.00000000  0.00000000  0.46422100  1
  O  O6  1  0.35949900  0.00000000  0.83180400  1
  O  O7  1  0.35949900  0.35949900  0.33180400  1
  O  O8  1  0.00000000  0.64050100  0.33180400  1
  O  O9  1  0.00000000  0.35949900  0.83180400  1
  O  O10  1  0.64050100  0.64050100  0.83180400  1
  O  O11  1  0.64050100  0.00000000  0.33180400  1
  O  O12  1  0.30725100  0.00000000  0.17078900  1
  O  O13  1  0.30725100  0.30725100  0.67078900  1
  O  O14  1  0.00000000  0.69274900  0.67078900  1
  O  O15  1  0.00000000  0.30725100  0.17078900  1
  O  O16  1  0.69274900  0.69274900  0.17078900  1
  O  O17  1  0.69274900  0.00000000  0.67078900  1
loop_
_geom_bond_atom_site_label_1
_geom_bond_atom_site_label_2
_geom_bond_distance
_geom_bond_site_symmetry_2
Mo0 O11 2.118527 1_555
Mo0 O2 2.132863 1_555
Mo0 O1 2.132866 1_545
Mo0 O17 2.137441 1_555
Mo0 O5 2.139757 1_655
Mo1 O10 2.118527 1_554
Mo1 O3 2.132869 1_555
Mo1 O0 2.132869 1_555
Mo1 O16 2.137441 1_555
Mo1 O4 2.139757 1_664
Mo2 O9 2.118527 1_554
Mo2 O0 2.132863 1_455
Mo2 O3 2.132866 1_555
Mo2 O15 2.137441 1_555
Mo2 O4 2.139757 1_554
Mo3 O8 2.118527 1_555
Mo3 O1 2.132863 1_555
Mo3 O2 2.132866 1_455
Mo3 O14 2.137441 1_555
Mo3 O5 2.139757 1_565
Mo4 O7 2.118527 1_555
Mo4 O2 2.132869 1_555
Mo4 O1 2.132869 1_555
Mo4 O13 2.137441 1_555
Mo4 O5 2.139757 1_555
Mo5 O6 2.118527 1_554
Mo5 O3 2.132863 1_545
Mo5 O0 2.132866 1_555
Mo5 O12 2.137441 1_555
Mo5 O4 2.139757 1_554
O0 Y0 2.564755 1_555
O1 Y1 2.564755 1_555
O2 Y2 2.564755 1_555
O3 Y3 2.564755 1_555
O4 Y4 2.429767 1_555
O5 Y5 2.429767 1_555
O6 Y1 2.353331 1_545
O6 Y2 2.353333 1_555
O6 Y4 2.389663 1_555
O7 Y0 2.353336 1_555
O7 Y3 2.353336 1_555
O7 Y5 2.389664 1_555
O8 Y3 2.353331 1_555
O8 Y0 2.353333 1_455
O8 Y5 2.389663 1_565
O9 Y2 2.353331 1_455
O9 Y1 2.353333 1_555
O9 Y4 2.389663 1_555
O10 Y1 2.353336 1_555
O10 Y2 2.353336 1_555
O10 Y4 2.389664 1_665
O11 Y0 2.353331 1_555
O11 Y3 2.353333 1_545
O11 Y5 2.389663 1_655
O12 Y5 2.298113 1_555
O12 Y3 2.328015 1_545
O12 Y0 2.328019 1_555
O13 Y4 2.298113 1_555
O13 Y2 2.328021 1_555
O13 Y1 2.328021 1_555
O14 Y4 2.298113 1_565
O14 Y1 2.328015 1_555
O14 Y2 2.328019 1_455
O15 Y5 2.298113 1_555
O15 Y0 2.328015 1_455
O15 Y3 2.328019 1_555
O16 Y5 2.298113 1_665
O16 Y3 2.328021 1_555
O16 Y0 2.328021 1_555
O17 Y4 2.298113 1_655
O17 Y2 2.328015 1_555
O17 Y1 2.328019 1_545
