# generated using pymatgen
data_Cd2Mo15Se19
_symmetry_space_group_name_H-M   'P 1'
_cell_length_a   20.18522556
_cell_length_b   20.18522556
_cell_length_c   20.18522520
_cell_angle_alpha   28.07703246
_cell_angle_beta   28.07703246
_cell_angle_gamma   28.07703200
_symmetry_Int_Tables_number   1
_chemical_formula_structural   Cd2Mo15Se19
_chemical_formula_sum   'Cd4 Mo30 Se38'
_cell_volume   1609.30474630
_cell_formula_units_Z   2
loop_
 _symmetry_equiv_pos_site_id
 _symmetry_equiv_pos_as_xyz
  1  'x, y, z'
loop_
 _atom_site_type_symbol
 _atom_site_label
 _atom_site_symmetry_multiplicity
 _atom_site_fract_x
 _atom_site_fract_y
 _atom_site_fract_z
 _atom_site_occupancy
  Cd  Cd0  1  0.88596500  0.88596500  0.88596500  1
  Cd  Cd1  1  0.38596500  0.38596500  0.38596500  1
  Cd  Cd2  1  0.11403500  0.11403500  0.11403500  1
  Cd  Cd3  1  0.61403500  0.61403500  0.61403500  1
  Mo  Mo0  1  0.81191500  0.99952200  0.12880800  1
  Mo  Mo1  1  0.12880800  0.81191500  0.99952200  1
  Mo  Mo2  1  0.99952200  0.12880800  0.81191500  1
  Mo  Mo3  1  0.62880800  0.49952200  0.31191500  1
  Mo  Mo4  1  0.31191500  0.62880800  0.49952200  1
  Mo  Mo5  1  0.49952200  0.31191500  0.62880800  1
  Mo  Mo6  1  0.18808500  0.00047800  0.87119200  1
  Mo  Mo7  1  0.87119200  0.18808500  0.00047800  1
  Mo  Mo8  1  0.00047800  0.87119200  0.18808500  1
  Mo  Mo9  1  0.37119200  0.50047800  0.68808500  1
  Mo  Mo10  1  0.68808500  0.37119200  0.50047800  1
  Mo  Mo11  1  0.50047800  0.68808500  0.37119200  1
  Mo  Mo12  1  0.63849000  0.77816000  0.95197600  1
  Mo  Mo13  1  0.95197600  0.63849000  0.77816000  1
  Mo  Mo14  1  0.77816000  0.95197600  0.63849000  1
  Mo  Mo15  1  0.45197600  0.27816000  0.13849000  1
  Mo  Mo16  1  0.13849000  0.45197600  0.27816000  1
  Mo  Mo17  1  0.27816000  0.13849000  0.45197600  1
  Mo  Mo18  1  0.36151000  0.22184000  0.04802400  1
  Mo  Mo19  1  0.04802400  0.36151000  0.22184000  1
  Mo  Mo20  1  0.22184000  0.04802400  0.36151000  1
  Mo  Mo21  1  0.54802400  0.72184000  0.86151000  1
  Mo  Mo22  1  0.86151000  0.54802400  0.72184000  1
  Mo  Mo23  1  0.72184000  0.86151000  0.54802400  1
  Mo  Mo24  1  0.59080600  0.90919400  0.75000000  1
  Mo  Mo25  1  0.75000000  0.59080600  0.90919400  1
  Mo  Mo26  1  0.90919400  0.75000000  0.59080600  1
  Mo  Mo27  1  0.25000000  0.40919400  0.09080600  1
  Mo  Mo28  1  0.09080600  0.25000000  0.40919400  1
  Mo  Mo29  1  0.40919400  0.09080600  0.25000000  1
  Se  Se0  1  0.94316800  0.69957500  0.30655400  1
  Se  Se1  1  0.30655400  0.94316800  0.69957500  1
  Se  Se2  1  0.69957500  0.30655400  0.94316800  1
  Se  Se3  1  0.80655400  0.19957500  0.44316800  1
  Se  Se4  1  0.44316800  0.80655400  0.19957500  1
  Se  Se5  1  0.19957500  0.44316800  0.80655400  1
  Se  Se6  1  0.05683200  0.30042500  0.69344600  1
  Se  Se7  1  0.69344600  0.05683200  0.30042500  1
  Se  Se8  1  0.30042500  0.69344600  0.05683200  1
  Se  Se9  1  0.19344600  0.80042500  0.55683200  1
  Se  Se10  1  0.55683200  0.19344600  0.80042500  1
  Se  Se11  1  0.80042500  0.55683200  0.19344600  1
  Se  Se12  1  0.45895000  0.07762100  0.82040200  1
  Se  Se13  1  0.82040200  0.45895000  0.07762000  1
  Se  Se14  1  0.07762100  0.82040200  0.45895000  1
  Se  Se15  1  0.32040200  0.57762000  0.95895000  1
  Se  Se16  1  0.95895000  0.32040200  0.57762100  1
  Se  Se17  1  0.57762100  0.95895000  0.32040200  1
  Se  Se18  1  0.54105000  0.92237900  0.17959800  1
  Se  Se19  1  0.17959800  0.54105000  0.92238000  1
  Se  Se20  1  0.92238000  0.17959800  0.54105000  1
  Se  Se21  1  0.67959800  0.42238000  0.04105000  1
  Se  Se22  1  0.04105000  0.67959800  0.42238000  1
  Se  Se23  1  0.42238000  0.04105000  0.67959800  1
  Se  Se24  1  0.05641000  0.44359000  0.75000000  1
  Se  Se25  1  0.75000000  0.05641000  0.44359000  1
  Se  Se26  1  0.44359000  0.75000000  0.05641000  1
  Se  Se27  1  0.25000000  0.94359000  0.55641000  1
  Se  Se28  1  0.55641000  0.25000000  0.94359000  1
  Se  Se29  1  0.94359000  0.55641000  0.25000000  1
  Se  Se30  1  0.94509100  0.94509100  0.94509100  1
  Se  Se31  1  0.44509100  0.44509100  0.44509100  1
  Se  Se32  1  0.05490900  0.05490900  0.05490900  1
  Se  Se33  1  0.55490900  0.55490900  0.55490900  1
  Se  Se34  1  0.82453400  0.82453400  0.82453400  1
  Se  Se35  1  0.32453400  0.32453400  0.32453400  1
  Se  Se36  1  0.17546600  0.17546600  0.17546600  1
  Se  Se37  1  0.67546600  0.67546600  0.67546600  1
loop_
_geom_bond_atom_site_label_1
_geom_bond_atom_site_label_2
_geom_bond_distance
_geom_bond_site_symmetry_2
Cd0 Se19 3.159381 1_655
Cd0 Se20 3.159381 1_565
Cd0 Se18 3.159382 1_556
Cd1 Se22 3.159381 1_555
Cd1 Se21 3.159381 1_555
Cd1 Se23 3.159381 1_555
Cd2 Se13 3.159381 1_455
Cd2 Se14 3.159382 1_545
Cd2 Se12 3.159382 1_554
Cd3 Se15 3.159381 1_555
Cd3 Se16 3.159382 1_555
Cd3 Se17 3.159382 1_555
Mo0 Se30 2.563628 1_554
Mo0 Se7 2.574658 1_565
Mo0 Se0 2.585413 1_555
Mo0 Se2 2.609062 1_564
Mo0 Se17 2.638944 1_555
Mo1 Se30 2.563628 1_455
Mo1 Se8 2.574658 1_556
Mo1 Se1 2.585413 1_555
Mo1 Se0 2.609062 1_456
Mo1 Se15 2.638960 1_555
Mo2 Se30 2.563628 1_545
Mo2 Se6 2.574658 1_655
Mo2 Se2 2.585413 1_555
Mo2 Se1 2.609062 1_645
Mo2 Se16 2.638944 1_555
Mo3 Se31 2.563628 1_555
Mo3 Se11 2.574658 1_555
Mo3 Se3 2.585413 1_555
Mo3 Se4 2.609062 1_555
Mo3 Se13 2.638960 1_555
Mo4 Se31 2.563628 1_555
Mo4 Se9 2.574658 1_555
Mo4 Se4 2.585413 1_555
Mo4 Se5 2.609062 1_555
Mo4 Se14 2.638944 1_555
Mo5 Se31 2.563628 1_555
Mo5 Se10 2.574658 1_555
Mo5 Se5 2.585413 1_555
Mo5 Se3 2.609062 1_555
Mo5 Se12 2.638944 1_555
Mo6 Se32 2.563628 1_556
Mo6 Se1 2.574658 1_545
Mo6 Se6 2.585413 1_555
Mo6 Se8 2.609062 1_546
Mo6 Se23 2.638960 1_555
Mo7 Se32 2.563628 1_655
Mo7 Se2 2.574658 1_554
Mo7 Se7 2.585413 1_555
Mo7 Se6 2.609062 1_654
Mo7 Se21 2.638960 1_555
Mo8 Se32 2.563628 1_565
Mo8 Se0 2.574658 1_455
Mo8 Se8 2.585413 1_555
Mo8 Se7 2.609062 1_465
Mo8 Se22 2.638960 1_555
Mo9 Se33 2.563628 1_555
Mo9 Se5 2.574658 1_555
Mo9 Se9 2.585413 1_555
Mo9 Se10 2.609062 1_555
Mo9 Se19 2.638960 1_555
Mo10 Se33 2.563628 1_555
Mo10 Se3 2.574658 1_555
Mo10 Se10 2.585413 1_555
Mo10 Se11 2.609062 1_555
Mo10 Se20 2.638960 1_555
Mo11 Se33 2.563628 1_555
Mo11 Se4 2.574658 1_555
Mo11 Se11 2.585413 1_555
Mo11 Se9 2.609062 1_555
Mo11 Se18 2.638944 1_555
Mo12 Se34 2.550128 1_555
Mo12 Se12 2.593170 1_565
Mo12 Se4 2.673398 1_556
Mo12 Se13 2.697845 1_556
Mo12 Se26 2.727864 1_556
Mo13 Se34 2.550128 1_555
Mo13 Se13 2.593166 1_556
Mo13 Se5 2.673398 1_655
Mo13 Se14 2.697846 1_655
Mo13 Se24 2.727864 1_655
Mo14 Se34 2.550128 1_555
Mo14 Se14 2.593170 1_655
Mo14 Se3 2.673398 1_565
Mo14 Se12 2.697846 1_565
Mo14 Se25 2.727864 1_565
Mo15 Se35 2.550128 1_555
Mo15 Se15 2.593166 1_554
Mo15 Se2 2.673398 1_554
Mo15 Se17 2.697846 1_545
Mo15 Se28 2.727864 1_554
Mo16 Se35 2.550128 1_555
Mo16 Se16 2.593170 1_455
Mo16 Se0 2.673398 1_455
Mo16 Se15 2.697845 1_554
Mo16 Se29 2.727864 1_455
Mo17 Se35 2.550128 1_555
Mo17 Se17 2.593170 1_545
Mo17 Se1 2.673398 1_545
Mo17 Se16 2.697846 1_455
Mo17 Se27 2.727864 1_545
Mo18 Se36 2.550128 1_555
Mo18 Se18 2.593170 1_545
Mo18 Se10 2.673398 1_554
Mo18 Se19 2.697845 1_554
Mo18 Se28 2.727864 1_554
Mo19 Se36 2.550128 1_555
Mo19 Se19 2.593166 1_554
Mo19 Se11 2.673398 1_455
Mo19 Se20 2.697845 1_455
Mo19 Se29 2.727864 1_455
Mo20 Se36 2.550128 1_555
Mo20 Se20 2.593166 1_455
Mo20 Se9 2.673398 1_545
Mo20 Se18 2.697846 1_545
Mo20 Se27 2.727864 1_545
Mo21 Se37 2.550128 1_555
Mo21 Se21 2.593166 1_556
Mo21 Se8 2.673398 1_556
Mo21 Se23 2.697845 1_565
Mo21 Se26 2.727864 1_556
Mo22 Se37 2.550128 1_555
Mo22 Se22 2.593166 1_655
Mo22 Se6 2.673398 1_655
Mo22 Se21 2.697845 1_556
Mo22 Se24 2.727864 1_655
Mo23 Se37 2.550128 1_555
Mo23 Se23 2.593166 1_565
Mo23 Se7 2.673398 1_565
Mo23 Se22 2.697845 1_655
Mo23 Se25 2.727864 1_565
Mo24 Se23 2.558360 1_565
Mo24 Se12 2.558378 1_565
Mo24 Se26 2.599275 1_556
Mo24 Se25 2.599275 1_565
Mo25 Se13 2.558360 1_556
Mo25 Se21 2.558360 1_556
Mo25 Se26 2.599275 1_556
Mo25 Se24 2.599275 1_655
Mo26 Se22 2.558360 1_655
Mo26 Se14 2.558379 1_655
Mo26 Se25 2.599275 1_565
Mo26 Se24 2.599275 1_655
Mo27 Se19 2.558360 1_554
Mo27 Se15 2.558360 1_554
Mo27 Se28 2.599275 1_554
Mo27 Se29 2.599275 1_455
Mo28 Se20 2.558360 1_455
Mo28 Se16 2.558378 1_455
Mo28 Se27 2.599275 1_545
Mo28 Se29 2.599275 1_455
Mo29 Se17 2.558378 1_545
Mo29 Se18 2.558378 1_545
Mo29 Se27 2.599275 1_545
Mo29 Se28 2.599275 1_554
