# generated using pymatgen
data_HoMnSn2
_symmetry_space_group_name_H-M   'P 1'
_cell_length_a   9.00240600
_cell_length_b   10.41484900
_cell_length_c   11.40256200
_cell_angle_alpha   90.00000000
_cell_angle_beta   90.00000000
_cell_angle_gamma   90.00000000
_symmetry_Int_Tables_number   1
_chemical_formula_structural   HoMnSn2
_chemical_formula_sum   'Ho12 Mn12 Sn24'
_cell_volume   1069.08937983
_cell_formula_units_Z   12
loop_
 _symmetry_equiv_pos_site_id
 _symmetry_equiv_pos_as_xyz
  1  'x, y, z'
loop_
 _atom_site_type_symbol
 _atom_site_label
 _atom_site_symmetry_multiplicity
 _atom_site_fract_x
 _atom_site_fract_y
 _atom_site_fract_z
 _atom_site_occupancy
  Ho  Ho0  1  0.24224400  0.82859300  0.45232600  1
  Ho  Ho1  1  0.24224400  0.17140700  0.54767400  1
  Ho  Ho2  1  0.75775600  0.32859300  0.04767400  1
  Ho  Ho3  1  0.75775600  0.67140700  0.95232600  1
  Ho  Ho4  1  0.75775600  0.17140700  0.54767400  1
  Ho  Ho5  1  0.75775600  0.82859300  0.45232600  1
  Ho  Ho6  1  0.24224400  0.67140700  0.95232600  1
  Ho  Ho7  1  0.24224400  0.32859300  0.04767400  1
  Ho  Ho8  1  0.00000000  0.83606200  0.17924700  1
  Ho  Ho9  1  0.00000000  0.16393800  0.82075300  1
  Ho  Ho10  1  0.00000000  0.33606200  0.32075300  1
  Ho  Ho11  1  0.00000000  0.66393800  0.67924700  1
  Mn  Mn0  1  0.24833700  0.58864500  0.25226000  1
  Mn  Mn1  1  0.24833700  0.41135500  0.74774000  1
  Mn  Mn2  1  0.75166300  0.08864500  0.24774000  1
  Mn  Mn3  1  0.75166300  0.91135500  0.75226000  1
  Mn  Mn4  1  0.75166300  0.41135500  0.74774000  1
  Mn  Mn5  1  0.75166300  0.58864500  0.25226000  1
  Mn  Mn6  1  0.24833700  0.91135500  0.75226000  1
  Mn  Mn7  1  0.24833700  0.08864500  0.24774000  1
  Mn  Mn8  1  0.24326100  0.50000000  0.50000000  1
  Mn  Mn9  1  0.75673900  0.00000000  0.00000000  1
  Mn  Mn10  1  0.75673900  0.50000000  0.50000000  1
  Mn  Mn11  1  0.24326100  0.00000000  0.00000000  1
  Sn  Sn0  1  0.33800500  0.83808600  0.18102200  1
  Sn  Sn1  1  0.33800500  0.16191400  0.81897800  1
  Sn  Sn2  1  0.66199500  0.33808600  0.31897800  1
  Sn  Sn3  1  0.66199500  0.66191400  0.68102200  1
  Sn  Sn4  1  0.66199500  0.16191400  0.81897800  1
  Sn  Sn5  1  0.66199500  0.83808600  0.18102200  1
  Sn  Sn6  1  0.33800500  0.66191400  0.68102200  1
  Sn  Sn7  1  0.33800500  0.33808600  0.31897800  1
  Sn  Sn8  1  0.50000000  0.54324500  0.12379500  1
  Sn  Sn9  1  0.50000000  0.45675500  0.87620500  1
  Sn  Sn10  1  0.50000000  0.04324500  0.37620500  1
  Sn  Sn11  1  0.50000000  0.95675500  0.62379500  1
  Sn  Sn12  1  0.00000000  0.54166900  0.12226700  1
  Sn  Sn13  1  0.00000000  0.45833100  0.87773300  1
  Sn  Sn14  1  0.00000000  0.04166900  0.37773300  1
  Sn  Sn15  1  0.00000000  0.95833100  0.62226700  1
  Sn  Sn16  1  0.50000000  0.62600700  0.40527500  1
  Sn  Sn17  1  0.50000000  0.37399300  0.59472500  1
  Sn  Sn18  1  0.50000000  0.12600700  0.09472500  1
  Sn  Sn19  1  0.50000000  0.87399300  0.90527500  1
  Sn  Sn20  1  0.00000000  0.62899700  0.39795600  1
  Sn  Sn21  1  0.00000000  0.37100300  0.60204400  1
  Sn  Sn22  1  0.00000000  0.12899700  0.10204400  1
  Sn  Sn23  1  0.00000000  0.87100300  0.89795600  1
loop_
_geom_bond_atom_site_label_1
_geom_bond_atom_site_label_2
_geom_bond_distance
_geom_bond_site_symmetry_2
Ho0 Sn20 3.075938 1_555
Ho0 Sn16 3.181806 1_555
Ho0 Sn0 3.212954 1_555
Ho0 Sn15 3.215038 1_555
Ho0 Sn14 3.225505 1_565
Ho0 Sn6 3.249133 1_555
Ho0 Sn11 3.314933 1_555
Ho0 Sn10 3.336992 1_565
Ho1 Sn21 3.075938 1_555
Ho1 Sn17 3.181806 1_555
Ho1 Sn1 3.212954 1_555
Ho1 Sn14 3.215038 1_555
Ho1 Sn15 3.225505 1_545
Ho1 Sn7 3.249133 1_555
Ho1 Sn10 3.314933 1_555
Ho1 Sn11 3.336992 1_545
Ho2 Sn22 3.075938 1_655
Ho2 Sn18 3.181806 1_555
Ho2 Sn2 3.212954 1_555
Ho2 Sn13 3.215038 1_654
Ho2 Sn12 3.225505 1_655
Ho2 Sn4 3.249133 1_554
Ho2 Sn9 3.314933 1_554
Ho2 Sn8 3.336992 1_555
Ho3 Sn23 3.075938 1_655
Ho3 Sn19 3.181806 1_555
Ho3 Sn3 3.212954 1_555
Ho3 Sn12 3.215038 1_656
Ho3 Sn13 3.225505 1_655
Ho3 Sn5 3.249133 1_556
Ho3 Sn8 3.314933 1_556
Ho3 Sn9 3.336992 1_555
Ho4 Sn21 3.075938 1_655
Ho4 Sn17 3.181806 1_555
Ho4 Sn4 3.212954 1_555
Ho4 Sn14 3.215038 1_655
Ho4 Sn15 3.225505 1_645
Ho4 Sn2 3.249133 1_555
Ho4 Sn10 3.314933 1_555
Ho4 Sn11 3.336992 1_545
Ho5 Sn20 3.075938 1_655
Ho5 Sn16 3.181806 1_555
Ho5 Sn5 3.212954 1_555
Ho5 Sn15 3.215038 1_655
Ho5 Sn14 3.225505 1_665
Ho5 Sn3 3.249133 1_555
Ho5 Sn11 3.314933 1_555
Ho5 Sn10 3.336992 1_565
Ho6 Sn23 3.075938 1_555
Ho6 Sn19 3.181806 1_555
Ho6 Sn6 3.212954 1_555
Ho6 Sn12 3.215038 1_556
Ho6 Sn13 3.225505 1_555
Ho6 Sn0 3.249133 1_556
Ho6 Sn8 3.314933 1_556
Ho6 Sn9 3.336992 1_555
Ho7 Sn22 3.075938 1_555
Ho7 Sn18 3.181806 1_555
Ho7 Sn7 3.212954 1_555
Ho7 Sn13 3.215038 1_554
Ho7 Sn12 3.225505 1_555
Ho7 Sn1 3.249133 1_554
Ho7 Sn9 3.314933 1_554
Ho7 Sn8 3.336992 1_555
Ho8 Sn5 3.042999 1_455
Ho8 Sn0 3.042999 1_555
Ho8 Sn14 3.115725 1_565
Ho8 Sn12 3.134142 1_555
Ho8 Sn22 3.175339 1_565
Ho8 Sn23 3.228016 1_554
Ho8 Sn20 3.296963 1_555
Ho9 Sn4 3.042999 1_455
Ho9 Sn1 3.042999 1_555
Ho9 Sn15 3.115725 1_545
Ho9 Sn13 3.134142 1_555
Ho9 Sn23 3.175339 1_545
Ho9 Sn22 3.228016 1_556
Ho9 Sn21 3.296963 1_555
Ho10 Sn2 3.042999 1_455
Ho10 Sn7 3.042999 1_555
Ho10 Sn12 3.115725 1_555
Ho10 Sn14 3.134142 1_555
Ho10 Sn20 3.175339 1_555
Ho10 Sn21 3.228016 1_555
Ho10 Sn22 3.296963 1_555
Ho11 Sn3 3.042999 1_455
Ho11 Sn6 3.042999 1_555
Ho11 Sn13 3.115725 1_555
Ho11 Sn15 3.134142 1_555
Ho11 Sn21 3.175339 1_555
Ho11 Sn20 3.228016 1_555
Ho11 Sn23 3.296963 1_555
Mn0 Sn12 2.726625 1_555
Mn0 Sn8 2.738999 1_555
Mn0 Sn20 2.816843 1_555
Mn0 Sn7 2.835496 1_555
Mn0 Sn0 2.839098 1_555
Mn0 Sn16 2.885902 1_555
Mn1 Sn13 2.726625 1_555
Mn1 Sn9 2.738999 1_555
Mn1 Sn21 2.816843 1_555
Mn1 Sn6 2.835496 1_555
Mn1 Sn1 2.839098 1_555
Mn1 Sn17 2.885902 1_555
Mn2 Sn14 2.726625 1_655
Mn2 Sn10 2.738999 1_555
Mn2 Sn22 2.816843 1_655
Mn2 Sn5 2.835496 1_545
Mn2 Sn2 2.839098 1_555
Mn2 Sn18 2.885902 1_555
Mn3 Sn15 2.726625 1_655
Mn3 Sn11 2.738999 1_555
Mn3 Sn23 2.816843 1_655
Mn3 Sn4 2.835496 1_565
Mn3 Sn3 2.839098 1_555
Mn3 Sn19 2.885902 1_555
Mn4 Sn13 2.726625 1_655
Mn4 Sn9 2.738999 1_555
Mn4 Sn21 2.816843 1_655
Mn4 Sn3 2.835496 1_555
Mn4 Sn4 2.839098 1_555
Mn4 Sn17 2.885902 1_555
Mn5 Sn12 2.726625 1_655
Mn5 Sn8 2.738999 1_555
Mn5 Sn20 2.816843 1_655
Mn5 Sn2 2.835496 1_555
Mn5 Sn5 2.839098 1_555
Mn5 Sn16 2.885902 1_555
Mn6 Sn15 2.726625 1_555
Mn6 Sn11 2.738999 1_555
Mn6 Sn23 2.816843 1_555
Mn6 Sn1 2.835496 1_565
Mn6 Sn6 2.839098 1_555
Mn6 Sn19 2.885902 1_555
Mn7 Sn14 2.726625 1_555
Mn7 Sn10 2.738999 1_555
Mn7 Sn22 2.816843 1_555
Mn7 Sn0 2.835496 1_545
Mn7 Sn7 2.839098 1_555
Mn7 Sn18 2.885902 1_555
Mn8 Sn6 2.798516 1_555
Mn8 Sn7 2.798516 1_555
Mn8 Sn20 2.820397 1_555
Mn8 Sn21 2.820397 1_555
Mn8 Sn16 2.868944 1_555
Mn8 Sn17 2.868944 1_555
Mn9 Sn4 2.798516 1_554
Mn9 Sn5 2.798516 1_545
Mn9 Sn22 2.820397 1_655
Mn9 Sn23 2.820397 1_644
Mn9 Sn18 2.868944 1_555
Mn9 Sn19 2.868944 1_544
Mn10 Sn2 2.798516 1_555
Mn10 Sn3 2.798516 1_555
Mn10 Sn20 2.820397 1_655
Mn10 Sn21 2.820397 1_655
Mn10 Sn16 2.868944 1_555
Mn10 Sn17 2.868944 1_555
Mn11 Sn0 2.798516 1_545
Mn11 Sn1 2.798516 1_554
Mn11 Sn22 2.820397 1_555
Mn11 Sn23 2.820397 1_544
Mn11 Sn18 2.868944 1_555
Mn11 Sn19 2.868944 1_544
Sn0 Sn5 2.916690 1_555
Sn1 Sn4 2.916690 1_555
Sn2 Sn7 2.916690 1_555
Sn3 Sn6 2.916690 1_555
