# generated using pymatgen
data_Na
_symmetry_space_group_name_H-M   'P 1'
_cell_length_a   11.26254114
_cell_length_b   11.26254114
_cell_length_c   11.26254114
_cell_angle_alpha   109.47122063
_cell_angle_beta   109.47122063
_cell_angle_gamma   109.47122063
_symmetry_Int_Tables_number   1
_chemical_formula_structural   Na
_chemical_formula_sum   Na29
_cell_volume   1099.73305920
_cell_formula_units_Z   29
loop_
 _symmetry_equiv_pos_site_id
 _symmetry_equiv_pos_as_xyz
  1  'x, y, z'
loop_
 _atom_site_type_symbol
 _atom_site_label
 _atom_site_symmetry_multiplicity
 _atom_site_fract_x
 _atom_site_fract_y
 _atom_site_fract_z
 _atom_site_occupancy
  Na  Na0  1  0.00000000  -0.00000000  -0.00000000  1
  Na  Na1  1  0.63571982  -0.00000000  -0.00000000  1
  Na  Na2  1  0.37456797  0.18981842  -0.00000000  1
  Na  Na3  1  0.18981842  0.37456797  -0.00000000  1
  Na  Na4  1  0.68227438  0.40568274  0.00000000  1
  Na  Na5  1  -0.00000000  0.63571982  -0.00000000  1
  Na  Na6  1  0.40568274  0.68227438  0.00000000  1
  Na  Na7  1  0.81018158  0.81018158  0.18474956  1
  Na  Na8  1  0.37456797  -0.00000000  0.18981842  1
  Na  Na9  1  -0.00000000  0.37456797  0.18981842  1
  Na  Na10  1  0.59431726  0.59431726  0.27659264  1
  Na  Na11  1  0.72340636  0.31772562  0.31772562  1
  Na  Na12  1  0.31772562  0.72340636  0.31772562  1
  Na  Na13  1  0.36428018  0.36428018  0.36428018  1
  Na  Na14  1  0.18981842  -0.00000000  0.37456797  1
  Na  Na15  1  0.00000000  0.18981842  0.37456797  1
  Na  Na16  1  0.68227438  -0.00000000  0.40568274  1
  Na  Na17  1  -0.00000000  0.68227438  0.40568274  1
  Na  Na18  1  0.59431726  0.27659264  0.59431726  1
  Na  Na19  1  0.27659264  0.59431726  0.59431726  1
  Na  Na20  1  0.81525044  0.62543103  0.62543103  1
  Na  Na21  1  0.62543103  0.81525044  0.62543103  1
  Na  Na22  1  0.00000000  0.00000000  0.63571982  1
  Na  Na23  1  0.40568274  0.00000000  0.68227438  1
  Na  Na24  1  -0.00000000  0.40568274  0.68227438  1
  Na  Na25  1  0.31772562  0.31772562  0.72340636  1
  Na  Na26  1  0.81018158  0.18474956  0.81018158  1
  Na  Na27  1  0.18474956  0.81018158  0.81018158  1
  Na  Na28  1  0.62543103  0.62543103  0.81525044  1
loop_
_geom_bond_atom_site_label_1
_geom_bond_atom_site_label_2
_geom_bond_distance
_geom_bond_site_symmetry_2
Na0 Na2 4.044056 1_555
Na0 Na3 4.044056 1_555
Na0 Na9 4.044056 1_555
Na0 Na8 4.044056 1_555
Na0 Na14 4.044056 1_555
Na0 Na15 4.044056 1_555
Na0 Na7 4.044056 1_445
Na0 Na26 4.044056 1_454
Na0 Na27 4.044056 1_544
Na0 Na20 4.044068 1_444
Na0 Na21 4.044068 1_444
Na0 Na28 4.044068 1_444
Na0 Na22 4.102721 1_554
Na0 Na5 4.102721 1_545
Na0 Na1 4.102721 1_455
Na0 Na13 4.102721 1_555
Na1 Na23 3.651927 1_554
Na1 Na6 3.651927 1_545
Na1 Na11 3.651936 1_555
Na1 Na15 3.975041 1_655
Na1 Na9 3.975041 1_655
Na1 Na7 3.975041 1_545
Na1 Na26 3.975041 1_554
Na1 Na28 3.975045 1_544
Na1 Na21 3.975045 1_544
Na2 Na3 3.397850 1_555
Na2 Na8 3.491074 1_555
Na2 Na27 3.491074 1_544
Na2 Na4 3.507676 1_555
Na2 Na23 3.705873 1_554
Na2 Na25 3.803446 1_554
Na2 Na22 3.975041 1_554
Na3 Na9 3.491074 1_555
Na3 Na6 3.507676 1_555
Na4 Na5 3.651927 1_655
Na4 Na9 3.705873 1_655
Na4 Na7 3.803426 1_555
Na5 Na8 3.975041 1_565
Na5 Na7 3.975041 1_455
Na6 Na8 3.705873 1_565
Na6 Na7 3.803426 1_555
Na10 Na7 3.507684 1_555
Na10 Na13 3.651919 1_555
Na10 Na21 3.705860 1_555
Na10 Na20 3.705860 1_555
Na10 Na6 3.774542 1_555
Na10 Na4 3.774542 1_555
Na10 Na2 3.803428 1_555
Na10 Na3 3.803428 1_555
Na10 Na11 3.945218 1_555
Na10 Na12 3.945218 1_555
Na10 Na17 3.945235 1_655
Na10 Na16 3.945235 1_565
Na11 Na20 3.507655 1_555
Na11 Na8 3.705859 1_555
Na11 Na2 3.705859 1_555
Na11 Na17 3.774543 1_655
Na11 Na24 3.774543 1_655
Na11 Na9 3.803446 1_655
Na11 Na15 3.803446 1_655
Na11 Na18 3.945218 1_555
Na11 Na16 3.945237 1_555
Na11 Na4 3.945237 1_555
Na12 Na21 3.507655 1_555
Na12 Na5 3.651936 1_555
Na12 Na9 3.705859 1_555
Na12 Na3 3.705859 1_555
Na12 Na16 3.774543 1_565
Na12 Na23 3.774543 1_565
Na12 Na14 3.803446 1_565
Na12 Na8 3.803446 1_565
Na12 Na19 3.945218 1_555
Na12 Na6 3.945237 1_555
Na12 Na17 3.945237 1_555
Na13 Na18 3.651919 1_555
Na13 Na19 3.651919 1_555
Na13 Na2 3.975041 1_555
Na13 Na3 3.975041 1_555
Na13 Na14 3.975041 1_555
Na13 Na8 3.975041 1_555
Na13 Na9 3.975041 1_555
Na13 Na15 3.975041 1_555
Na14 Na8 3.397850 1_555
Na14 Na15 3.491074 1_555
Na14 Na7 3.491074 1_445
Na14 Na23 3.507676 1_555
Na14 Na25 3.705859 1_555
Na14 Na17 3.705873 1_545
Na14 Na18 3.803428 1_555
Na14 Na5 3.975041 1_545
Na15 Na9 3.397850 1_555
Na15 Na7 3.491074 1_445
Na15 Na24 3.507676 1_555
Na15 Na25 3.705859 1_555
Na15 Na16 3.705873 1_455
Na15 Na19 3.803428 1_555
Na16 Na8 3.507676 1_555
Na16 Na22 3.651927 1_655
Na16 Na7 3.705873 1_545
Na16 Na18 3.774542 1_555
Na16 Na21 3.803418 1_545
Na16 Na26 3.803426 1_555
Na16 Na6 3.945234 1_545
Na16 Na24 3.945234 1_655
Na17 Na9 3.507676 1_555
Na17 Na22 3.651927 1_565
Na17 Na7 3.705873 1_455
Na17 Na19 3.774542 1_555
Na17 Na20 3.803418 1_455
Na17 Na27 3.803426 1_555
Na17 Na23 3.945234 1_565
Na17 Na4 3.945234 1_455
Na18 Na26 3.507684 1_555
Na18 Na28 3.705860 1_555
Na18 Na20 3.705860 1_555
Na18 Na23 3.774542 1_555
Na18 Na8 3.803428 1_555
Na18 Na25 3.945218 1_555
Na18 Na4 3.945235 1_556
Na18 Na24 3.945235 1_655
Na19 Na27 3.507684 1_555
Na19 Na21 3.705860 1_555
Na19 Na28 3.705860 1_555
Na19 Na24 3.774542 1_555
Na19 Na9 3.803428 1_555
Na19 Na25 3.945218 1_555
Na19 Na6 3.945235 1_556
Na19 Na23 3.945235 1_565
Na20 Na27 3.397850 1_655
Na20 Na21 3.491093 1_555
Na20 Na28 3.491093 1_555
Na20 Na24 3.803418 1_655
Na20 Na22 3.975045 1_665
Na20 Na5 3.975045 1_656
Na21 Na26 3.397850 1_565
Na21 Na28 3.491093 1_555
Na21 Na23 3.803418 1_565
Na21 Na22 3.975045 1_665
Na22 Na25 3.651936 1_555
Na22 Na3 3.975041 1_556
Na22 Na27 3.975041 1_545
Na22 Na26 3.975041 1_455
Na23 Na27 3.705873 1_545
Na23 Na26 3.803426 1_555
Na23 Na4 3.945234 1_556
Na23 Na25 3.945237 1_555
Na24 Na5 3.651927 1_556
Na24 Na26 3.705873 1_455
Na24 Na3 3.705873 1_556
Na24 Na27 3.803426 1_555
Na24 Na6 3.945234 1_556
Na24 Na25 3.945237 1_555
Na25 Na28 3.507655 1_555
Na25 Na4 3.774543 1_556
Na25 Na6 3.774543 1_556
Na25 Na3 3.803446 1_556
Na26 Na3 3.491074 1_656
Na26 Na9 3.491074 1_656
Na26 Na4 3.705873 1_556
Na27 Na8 3.491074 1_566
Na27 Na6 3.705873 1_556
Na27 Na5 3.975041 1_556
Na28 Na7 3.397850 1_556
Na28 Na6 3.803418 1_556
Na28 Na4 3.803418 1_556
Na28 Na5 3.975045 1_656
