# generated using pymatgen
data_TlBi2Cl7
_symmetry_space_group_name_H-M   'P 1'
_cell_length_a   7.02817802
_cell_length_b   8.74250929
_cell_length_c   10.79259850
_cell_angle_alpha   75.64918716
_cell_angle_beta   72.40677863
_cell_angle_gamma   72.98533405
_symmetry_Int_Tables_number   1
_chemical_formula_structural   TlBi2Cl7
_chemical_formula_sum   'Tl2 Bi4 Cl14'
_cell_volume   595.13815696
_cell_formula_units_Z   2
loop_
 _symmetry_equiv_pos_site_id
 _symmetry_equiv_pos_as_xyz
  1  'x, y, z'
loop_
 _atom_site_type_symbol
 _atom_site_label
 _atom_site_symmetry_multiplicity
 _atom_site_fract_x
 _atom_site_fract_y
 _atom_site_fract_z
 _atom_site_occupancy
  Tl  Tl0  1  0.05843091  0.66756601  0.12801829  1
  Tl  Tl1  1  0.94156909  0.33243399  0.87198171  1
  Bi  Bi0  1  0.31476764  0.12902690  0.16264604  1
  Bi  Bi1  1  0.68523236  0.87097310  0.83735396  1
  Bi  Bi2  1  0.42880440  0.75493688  0.52722937  1
  Bi  Bi3  1  0.57119560  0.24506312  0.47277063  1
  Cl  Cl0  1  0.73869533  0.01825688  0.01153421  1
  Cl  Cl1  1  0.26130467  0.98174312  0.98846579  1
  Cl  Cl2  1  0.91982659  0.24540027  0.20333861  1
  Cl  Cl3  1  0.08017341  0.75459973  0.79666139  1
  Cl  Cl4  1  0.18577727  0.84896369  0.36220794  1
  Cl  Cl5  1  0.81422273  0.15103631  0.63779206  1
  Cl  Cl6  1  0.35098582  0.04971265  0.64568416  1
  Cl  Cl7  1  0.64901418  0.95028735  0.35431584  1
  Cl  Cl8  1  0.29037095  0.34784965  0.31880699  1
  Cl  Cl9  1  0.70962905  0.65215035  0.68119301  1
  Cl  Cl10  1  0.69806965  0.54871565  0.38196373  1
  Cl  Cl11  1  0.30193035  0.45128435  0.61803627  1
  Cl  Cl12  1  0.34059973  0.37200671  0.97236812  1
  Cl  Cl13  1  0.65940027  0.62799329  0.02763188  1
loop_
_geom_bond_atom_site_label_1
_geom_bond_atom_site_label_2
_geom_bond_distance
_geom_bond_site_symmetry_2
Bi0 Cl12 2.569141 1_554
Bi0 Cl2 2.600854 1_455
Bi0 Cl1 2.691301 1_544
Bi0 Cl8 2.785921 1_555
Bi0 Cl0 2.937957 1_555
Bi0 Cl4 2.993353 1_545
Bi1 Cl13 2.569141 1_556
Bi1 Cl3 2.600854 1_655
Bi1 Cl0 2.691301 1_566
Bi1 Cl9 2.785921 1_555
Bi1 Cl1 2.937957 1_555
Bi1 Cl5 2.993353 1_565
Bi2 Cl10 2.626900 1_555
Bi2 Cl7 2.648712 1_555
Bi2 Cl4 2.656431 1_555
Bi2 Cl9 2.769204 1_555
Bi2 Cl11 2.893148 1_555
Bi2 Cl6 2.993413 1_565
Bi2 Cl3 3.186256 1_555
Bi3 Cl11 2.626900 1_555
Bi3 Cl6 2.648712 1_555
Bi3 Cl5 2.656431 1_555
Bi3 Cl8 2.769204 1_555
Bi3 Cl10 2.893148 1_555
Bi3 Cl7 2.993413 1_545
Bi3 Cl2 3.186256 1_555
