# generated using pymatgen
data_CaMn8O13F3
_symmetry_space_group_name_H-M   'P 1'
_cell_length_a   6.62612289
_cell_length_b   5.99268681
_cell_length_c   7.51932122
_cell_angle_alpha   78.43247929
_cell_angle_beta   92.11719817
_cell_angle_gamma   88.07881158
_symmetry_Int_Tables_number   1
_chemical_formula_structural   CaMn8O13F3
_chemical_formula_sum   'Ca1 Mn8 O13 F3'
_cell_volume   292.05959388
_cell_formula_units_Z   1
loop_
 _symmetry_equiv_pos_site_id
 _symmetry_equiv_pos_as_xyz
  1  'x, y, z'
loop_
 _atom_site_type_symbol
 _atom_site_label
 _atom_site_symmetry_multiplicity
 _atom_site_fract_x
 _atom_site_fract_y
 _atom_site_fract_z
 _atom_site_occupancy
  Ca  Ca0  1  0.90872500  0.94939200  0.56338900  1
  Mn  Mn0  1  0.36411500  0.33960500  0.12096900  1
  Mn  Mn1  1  0.12101500  0.61744700  0.35136500  1
  Mn  Mn2  1  0.85979500  0.15912800  0.11906300  1
  Mn  Mn3  1  0.39877800  0.20875900  0.68475500  1
  Mn  Mn4  1  0.15878000  0.88711800  0.93349700  1
  Mn  Mn5  1  0.59008100  0.78219800  0.30418000  1
  Mn  Mn6  1  0.61273600  0.63969400  0.87025800  1
  Mn  Mn7  1  0.87562600  0.40030700  0.66369100  1
  O  O0  1  0.14920700  0.13007400  0.09625600  1
  O  O1  1  0.16860200  0.59998400  0.10400300  1
  O  O2  1  0.57537600  0.56468300  0.12980000  1
  O  O3  1  0.08145600  0.60247100  0.60555100  1
  O  O4  1  0.33340000  0.80085300  0.37751900  1
  O  O5  1  0.10953100  0.14632200  0.72272000  1
  O  O6  1  0.57797500  0.10539600  0.16674200  1
  O  O7  1  0.42180200  0.89105500  0.83436700  1
  O  O8  1  0.66972900  0.19871000  0.63540000  1
  O  O9  1  0.87850500  0.85393600  0.28373800  1
  O  O10  1  0.41256200  0.41828500  0.86584900  1
  O  O11  1  0.67991000  0.65604400  0.61006500  1
  O  O12  1  0.83082100  0.40936000  0.90637900  1
  F  F0  1  0.33074400  0.31165700  0.39972700  1
  F  F1  1  0.92054000  0.35265600  0.38441700  1
  F  F2  1  0.85019100  0.85581500  0.89629900  1
loop_
_geom_bond_atom_site_label_1
_geom_bond_atom_site_label_2
_geom_bond_distance
_geom_bond_site_symmetry_2
Ca0 O5 2.270025 1_665
Ca0 O9 2.290853 1_555
Ca0 O8 2.294011 1_565
Ca0 O3 2.298257 1_655
Ca0 O11 2.341551 1_555
Ca0 F2 2.500909 1_555
Ca0 F1 2.524577 1_565
Mn0 O10 1.923086 1_554
Mn0 O6 1.932182 1_555
Mn0 O0 1.957781 1_555
Mn0 O1 1.975285 1_555
Mn0 O2 1.984675 1_555
Mn1 O4 1.843120 1_555
Mn1 O1 1.920713 1_555
Mn1 O3 1.923449 1_555
Mn1 O9 2.084969 1_455
Mn2 O0 1.936777 1_655
Mn2 O6 1.939790 1_555
Mn2 O12 1.959426 1_554
Mn2 O9 1.989672 1_545
Mn3 O8 1.848133 1_555
Mn3 O5 1.985061 1_555
Mn3 O7 2.005632 1_545
Mn3 O10 2.030609 1_555
Mn4 O7 1.919703 1_555
Mn4 O1 1.926238 1_556
Mn4 O5 1.992914 1_565
Mn4 O0 2.082250 1_566
Mn5 O4 1.814002 1_555
Mn5 O9 1.977666 1_555
Mn5 O6 2.001612 1_565
Mn5 O2 2.027913 1_555
Mn5 O11 2.321069 1_555
Mn6 O7 1.904318 1_555
Mn6 O10 1.911350 1_555
Mn6 O12 1.937563 1_555
Mn6 O2 1.939934 1_556
Mn6 O11 2.006464 1_555
Mn7 O3 1.860484 1_655
Mn7 O12 1.870778 1_555
Mn7 O8 1.886326 1_555
Mn7 O11 1.942516 1_555
Mn7 O5 2.106147 1_655
F0 Mn0 2.089593 1_555
F0 Mn3 2.134666 1_555
F0 Mn1 2.224007 1_555
F1 Mn1 2.086113 1_655
F1 Mn7 2.204739 1_555
F1 Mn2 2.527484 1_555
F2 Mn4 2.073385 1_655
F2 Mn6 2.099268 1_555
F2 Mn2 2.708246 1_566
