# generated using pymatgen
data_Y(Fe5Re)2
_symmetry_space_group_name_H-M   'P 1'
_cell_length_a   4.70482500
_cell_length_b   6.47927210
_cell_length_c   6.47927210
_cell_angle_alpha   97.15159834
_cell_angle_beta   111.28869097
_cell_angle_gamma   68.71130903
_symmetry_Int_Tables_number   1
_chemical_formula_structural   Y(Fe5Re)2
_chemical_formula_sum   'Y1 Fe10 Re2'
_cell_volume   171.47124408
_cell_formula_units_Z   1
loop_
 _symmetry_equiv_pos_site_id
 _symmetry_equiv_pos_as_xyz
  1  'x, y, z'
loop_
 _atom_site_type_symbol
 _atom_site_label
 _atom_site_symmetry_multiplicity
 _atom_site_fract_x
 _atom_site_fract_y
 _atom_site_fract_z
 _atom_site_occupancy
  Y  Y0  1  0.00000000  0.00000000  0.00000000  1
  Fe  Fe0  1  0.72024000  0.77976000  0.22024000  1
  Fe  Fe1  1  0.27976000  0.22024000  0.77976000  1
  Fe  Fe2  1  0.50000000  0.77202000  0.77202000  1
  Fe  Fe3  1  0.50000000  0.22798000  0.22798000  1
  Fe  Fe4  1  0.50000000  0.00000000  0.50000000  1
  Fe  Fe5  1  0.00000000  0.00000000  0.50000000  1
  Fe  Fe6  1  0.50000000  0.50000000  0.00000000  1
  Fe  Fe7  1  0.00000000  0.50000000  0.00000000  1
  Fe  Fe8  1  0.64079500  0.35920500  0.64079500  1
  Fe  Fe9  1  0.35920500  0.64079500  0.35920500  1
  Re  Re0  1  0.00000000  0.35735300  0.35735300  1
  Re  Re1  1  0.00000000  0.64264700  0.64264700  1
loop_
_geom_bond_atom_site_label_1
_geom_bond_atom_site_label_2
_geom_bond_distance
_geom_bond_site_symmetry_2
Fe0 Fe4 2.458006 1_565
Fe0 Fe6 2.458006 1_555
Fe0 Fe7 2.458006 1_655
Fe0 Fe5 2.458006 1_665
Fe0 Fe9 2.632423 1_555
Fe0 Fe9 2.632423 1_655
Fe0 Re0 2.674466 1_655
Fe0 Re1 2.674466 1_655
Fe0 Fe2 2.706767 1_554
Fe0 Fe3 2.706767 1_565
Fe0 Y0 3.006627 1_665
Fe0 Y0 3.006627 1_565
Fe1 Fe4 2.458006 1_555
Fe1 Fe6 2.458006 1_556
Fe1 Fe5 2.458006 1_555
Fe1 Fe7 2.458006 1_556
Fe1 Fe8 2.632423 1_555
Fe1 Fe8 2.632423 1_455
Fe1 Re0 2.674466 1_555
Fe1 Re1 2.674466 1_555
Fe1 Fe2 2.706767 1_545
Fe1 Fe3 2.706767 1_556
Fe1 Y0 3.006627 1_556
Fe1 Y0 3.006627 1_656
Fe2 Fe4 2.436507 1_565
Fe2 Fe6 2.436507 1_556
Fe2 Fe7 2.436507 1_656
Fe2 Fe5 2.436507 1_565
Fe2 Re1 2.600806 1_655
Fe2 Re1 2.600806 1_555
Fe2 Fe9 2.621471 1_555
Fe2 Fe8 2.621471 1_555
Fe2 Y0 3.058508 1_666
Fe2 Y0 3.058508 1_566
Fe3 Fe6 2.436507 1_555
Fe3 Fe4 2.436507 1_555
Fe3 Fe5 2.436507 1_655
Fe3 Fe7 2.436507 1_555
Fe3 Re0 2.600806 1_655
Fe3 Re0 2.600806 1_555
Fe3 Fe8 2.621471 1_555
Fe3 Fe9 2.621471 1_555
Fe3 Y0 3.058508 1_555
Fe3 Y0 3.058508 1_655
Fe4 Fe5 2.352412 1_655
Fe4 Fe5 2.352412 1_555
Fe4 Re0 2.597709 1_555
Fe4 Re1 2.597709 1_645
Fe4 Fe9 2.615294 1_545
Fe4 Fe8 2.615294 1_555
Fe4 Y0 3.239636 1_555
Fe4 Y0 3.239636 1_656
Fe5 Re1 2.597709 1_545
Fe5 Re0 2.597709 1_555
Fe5 Fe8 2.615294 1_455
Fe5 Fe9 2.615294 1_545
Fe5 Y0 3.239636 1_555
Fe5 Y0 3.239636 1_556
Fe6 Fe7 2.352412 1_655
Fe6 Fe7 2.352412 1_555
Fe6 Re1 2.597709 1_554
Fe6 Re0 2.597709 1_655
Fe6 Fe8 2.615294 1_554
Fe6 Fe9 2.615294 1_555
Fe6 Y0 3.239636 1_655
Fe6 Y0 3.239636 1_565
Fe7 Re1 2.597709 1_554
Fe7 Re0 2.597709 1_555
Fe7 Fe9 2.615294 1_555
Fe7 Fe8 2.615294 1_454
Fe7 Y0 3.239636 1_555
Fe7 Y0 3.239636 1_565
Fe8 Fe9 2.394002 1_555
Fe8 Re1 2.909026 1_655
Fe8 Re0 2.909026 1_655
Fe8 Re0 2.909026 1_555
Fe8 Re1 2.909026 1_555
Fe8 Y0 3.053864 1_656
Fe9 Re0 2.909026 1_555
Fe9 Re1 2.909026 1_555
Fe9 Re1 2.909026 1_655
Fe9 Re0 2.909026 1_655
Fe9 Y0 3.053864 1_565
Re0 Re1 2.446038 1_555
Re0 Y0 3.063853 1_555
Re1 Y0 3.063853 1_566
