# generated using pymatgen
data_Zr6Ga2CoH10
_symmetry_space_group_name_H-M   'P 1'
_cell_length_a   8.06126005
_cell_length_b   8.06126005
_cell_length_c   7.19247400
_cell_angle_alpha   90.00000000
_cell_angle_beta   90.00000000
_cell_angle_gamma   120.00000038
_symmetry_Int_Tables_number   1
_chemical_formula_structural   Zr6Ga2CoH10
_chemical_formula_sum   'Zr12 Ga4 Co2 H20'
_cell_volume   404.77603603
_cell_formula_units_Z   2
loop_
 _symmetry_equiv_pos_site_id
 _symmetry_equiv_pos_as_xyz
  1  'x, y, z'
loop_
 _atom_site_type_symbol
 _atom_site_label
 _atom_site_symmetry_multiplicity
 _atom_site_fract_x
 _atom_site_fract_y
 _atom_site_fract_z
 _atom_site_occupancy
  Zr  Zr0  1  0.73817400  0.00000000  0.00000000  1
  Zr  Zr1  1  0.00000000  0.73817400  0.00000000  1
  Zr  Zr2  1  0.73817400  0.00000000  0.50000000  1
  Zr  Zr3  1  0.26182600  0.26182600  0.00000000  1
  Zr  Zr4  1  0.00000000  0.73817400  0.50000000  1
  Zr  Zr5  1  0.26182600  0.26182600  0.50000000  1
  Zr  Zr6  1  0.42425100  0.04645900  0.25000000  1
  Zr  Zr7  1  0.95354100  0.37779200  0.25000000  1
  Zr  Zr8  1  0.04645900  0.42425100  0.75000000  1
  Zr  Zr9  1  0.62220800  0.57574900  0.25000000  1
  Zr  Zr10  1  0.37779200  0.95354100  0.75000000  1
  Zr  Zr11  1  0.57574900  0.62220800  0.75000000  1
  Ga  Ga0  1  0.33333300  0.66666700  0.05131900  1
  Ga  Ga1  1  0.33333300  0.66666700  0.44868100  1
  Ga  Ga2  1  0.66666700  0.33333300  0.94868100  1
  Ga  Ga3  1  0.66666700  0.33333300  0.55131900  1
  Co  Co0  1  0.00000000  0.00000000  0.25000000  1
  Co  Co1  1  0.00000000  0.00000000  0.75000000  1
  H  H0  1  0.28181500  0.00000000  0.00000000  1
  H  H1  1  0.00000000  0.28181500  0.00000000  1
  H  H2  1  0.28181500  0.00000000  0.50000000  1
  H  H3  1  0.71818500  0.71818500  0.00000000  1
  H  H4  1  0.00000000  0.28181500  0.50000000  1
  H  H5  1  0.71818500  0.71818500  0.50000000  1
  H  H6  1  0.40882700  0.29087600  0.25000000  1
  H  H7  1  0.70912400  0.11795100  0.25000000  1
  H  H8  1  0.29087600  0.40882700  0.75000000  1
  H  H9  1  0.88204900  0.59117300  0.25000000  1
  H  H10  1  0.11795100  0.70912400  0.75000000  1
  H  H11  1  0.59117300  0.88204900  0.75000000  1
  H  H12  1  0.11985000  0.24249000  0.25000000  1
  H  H13  1  0.75751000  0.87736000  0.25000000  1
  H  H14  1  0.24249000  0.11985000  0.75000000  1
  H  H15  1  0.12264000  0.88015000  0.25000000  1
  H  H16  1  0.87736000  0.75751000  0.75000000  1
  H  H17  1  0.88015000  0.12264000  0.75000000  1
  H  H18  1  0.00000000  0.00000000  0.00000000  1
  H  H19  1  0.00000000  0.00000000  0.50000000  1
loop_
_geom_bond_atom_site_label_1
_geom_bond_atom_site_label_2
_geom_bond_distance
_geom_bond_site_symmetry_2
Ga0 Ga1 2.858016 1_555
Ga0 Zr1 3.039387 1_555
Ga0 Zr0 3.039392 1_565
Ga0 Zr3 3.039395 1_555
Ga0 Zr10 3.056874 1_554
Ga0 Zr8 3.056876 1_554
Ga0 Zr11 3.056879 1_554
Ga0 Zr6 3.115886 1_565
Ga0 Zr7 3.115888 1_455
Ga0 Zr9 3.115893 1_555
Ga1 Zr4 3.039387 1_555
Ga1 Zr2 3.039392 1_565
Ga1 Zr5 3.039395 1_555
Ga1 Zr10 3.056874 1_555
Ga1 Zr8 3.056876 1_555
Ga1 Zr11 3.056879 1_555
Ga1 Zr6 3.115886 1_565
Ga1 Zr7 3.115888 1_455
Ga1 Zr9 3.115893 1_555
Ga2 Ga3 2.858016 1_555
Ga2 Zr0 3.039387 1_556
Ga2 Zr1 3.039392 1_656
Ga2 Zr3 3.039395 1_556
Ga2 Zr7 3.056874 1_556
Ga2 Zr6 3.056876 1_556
Ga2 Zr9 3.056879 1_556
Ga2 Zr8 3.115886 1_655
Ga2 Zr10 3.115888 1_545
Ga2 Zr11 3.115893 1_555
Ga3 Zr2 3.039387 1_555
Ga3 Zr4 3.039392 1_655
Ga3 Zr5 3.039395 1_555
Ga3 Zr7 3.056874 1_555
Ga3 Zr6 3.056876 1_555
Ga3 Zr9 3.056879 1_555
Ga3 Zr8 3.115886 1_655
Ga3 Zr10 3.115888 1_545
Ga3 Zr11 3.115893 1_555
Co0 H13 1.692922 1_445
Co0 H12 1.692922 1_555
Co0 H15 1.692922 1_545
Co0 H18 1.798118 1_555
Co0 H19 1.798118 1_555
Co1 H16 1.692922 1_445
Co1 H14 1.692922 1_555
Co1 H17 1.692922 1_455
Co1 H18 1.798118 1_556
Co1 H19 1.798118 1_555
H0 Zr6 2.064428 1_555
H0 Zr10 2.064428 1_544
H0 Zr1 2.195655 1_545
H0 Zr3 2.195655 1_555
H1 Zr8 2.064428 1_554
H1 Zr7 2.064428 1_455
H1 Zr0 2.195655 1_455
H1 Zr3 2.195655 1_555
H2 Zr6 2.064428 1_555
H2 Zr10 2.064428 1_545
H2 Zr4 2.195655 1_545
H2 Zr5 2.195655 1_555
H3 Zr9 2.064428 1_555
H3 Zr11 2.064428 1_554
H3 Zr0 2.195655 1_565
H3 Zr1 2.195655 1_655
H4 Zr8 2.064428 1_555
H4 Zr7 2.064428 1_455
H4 Zr2 2.195655 1_455
H4 Zr5 2.195655 1_555
H5 Zr9 2.064428 1_555
H5 Zr11 2.064428 1_555
H5 Zr2 2.195655 1_565
H5 Zr4 2.195655 1_655
H6 Zr6 2.035328 1_555
H6 Zr9 2.069368 1_555
H6 Zr3 2.101147 1_555
H6 Zr5 2.101147 1_555
H7 Zr7 2.035328 1_555
H7 Zr6 2.069368 1_555
H7 Zr0 2.101147 1_555
H7 Zr2 2.101147 1_555
H8 Zr8 2.035328 1_555
H8 Zr11 2.069368 1_555
H8 Zr5 2.101147 1_555
H8 Zr3 2.101147 1_556
H9 Zr9 2.035328 1_555
H9 Zr7 2.069368 1_555
H9 Zr1 2.101147 1_655
H9 Zr4 2.101147 1_655
H10 Zr10 2.035328 1_555
H10 Zr8 2.069368 1_555
H10 Zr4 2.101147 1_555
H10 Zr1 2.101147 1_556
H11 Zr11 2.035328 1_555
H11 Zr10 2.069368 1_555
H11 Zr0 2.101147 1_566
H11 Zr2 2.101147 1_565
H12 Zr5 2.094999 1_555
H12 Zr3 2.094999 1_555
H12 Zr7 2.109329 1_455
H13 Zr2 2.094999 1_565
H13 Zr0 2.094999 1_565
H13 Zr9 2.109329 1_555
H14 Zr3 2.094999 1_556
H14 Zr5 2.094999 1_555
H14 Zr10 2.109329 1_545
H15 Zr4 2.094999 1_555
H15 Zr1 2.094999 1_555
H15 Zr6 2.109329 1_565
H16 Zr1 2.094999 1_656
H16 Zr4 2.094999 1_655
H16 Zr11 2.109329 1_555
H17 Zr0 2.094999 1_556
H17 Zr2 2.094999 1_555
H17 Zr8 2.109329 1_655
H18 Zr3 2.110647 1_555
H18 Zr0 2.110647 1_455
H18 Zr1 2.110647 1_545
H19 Zr5 2.110647 1_555
H19 Zr4 2.110647 1_545
H19 Zr2 2.110647 1_455
