# generated using pymatgen
data_SrZr4SnO12
_symmetry_space_group_name_H-M   'P 1'
_cell_length_a   5.70634150
_cell_length_b   5.70634150
_cell_length_c   8.41601522
_cell_angle_alpha   90.00000000
_cell_angle_beta   90.00000000
_cell_angle_gamma   90.33197337
_symmetry_Int_Tables_number   1
_chemical_formula_structural   SrZr4SnO12
_chemical_formula_sum   'Sr1 Zr4 Sn1 O12'
_cell_volume   274.04049240
_cell_formula_units_Z   1
loop_
 _symmetry_equiv_pos_site_id
 _symmetry_equiv_pos_as_xyz
  1  'x, y, z'
loop_
 _atom_site_type_symbol
 _atom_site_label
 _atom_site_symmetry_multiplicity
 _atom_site_fract_x
 _atom_site_fract_y
 _atom_site_fract_z
 _atom_site_occupancy
  Sr  Sr0  1  0.96383771  0.96383771  0.50000000  1
  Zr  Zr0  1  0.49662007  0.00613019  0.75148531  1
  Zr  Zr1  1  0.49662007  0.00613019  0.24851469  1
  Zr  Zr2  1  0.00613019  0.49662007  0.24851469  1
  Zr  Zr3  1  0.00613019  0.49662007  0.75148531  1
  Sn  Sn0  1  0.52911624  0.52911624  0.00000000  1
  O  O0  1  0.80313697  0.20310309  0.71879092  1
  O  O1  1  0.20310309  0.80313697  0.71879092  1
  O  O2  1  0.20310309  0.80313697  0.28120908  1
  O  O3  1  0.80313697  0.20310309  0.28120908  1
  O  O4  1  0.72442703  0.72442703  0.73326516  1
  O  O5  1  0.34139460  0.34139460  0.83298158  1
  O  O6  1  0.34139460  0.34139460  0.16701842  1
  O  O7  1  0.72442703  0.72442703  0.26673484  1
  O  O8  1  0.47458116  0.87711093  0.00000000  1
  O  O9  1  0.46249971  0.04273035  0.50000000  1
  O  O10  1  0.87711093  0.47458116  0.00000000  1
  O  O11  1  0.04273035  0.46249971  0.50000000  1
loop_
_geom_bond_atom_site_label_1
_geom_bond_atom_site_label_2
_geom_bond_distance
_geom_bond_site_symmetry_2
O0 Zr3 2.049468 1_655
O0 Zr0 2.091796 1_555
O0 Sr0 2.471864 1_545
O1 Zr0 2.049468 1_565
O1 Zr3 2.091796 1_555
O1 Sr0 2.471864 1_455
O2 Zr1 2.049468 1_565
O2 Zr2 2.091796 1_555
O2 Sr0 2.471864 1_455
O3 Zr2 2.049468 1_655
O3 Zr1 2.091796 1_555
O3 Sr0 2.471864 1_545
O4 Zr3 2.078851 1_655
O4 Zr0 2.078851 1_565
O4 Sr0 2.750484 1_555
O5 Sn0 2.063360 1_556
O5 Zr3 2.221424 1_555
O5 Zr0 2.221424 1_555
O6 Sn0 2.063360 1_555
O6 Zr2 2.221424 1_555
O6 Zr1 2.221424 1_555
O7 Zr2 2.078851 1_655
O7 Zr1 2.078851 1_565
O7 Sr0 2.750484 1_555
O8 Sn0 2.011793 1_555
O8 Zr1 2.220622 1_565
O8 Zr0 2.220622 1_564
O9 Zr0 2.135788 1_555
O9 Zr1 2.135788 1_555
O9 Sr0 2.878350 1_445
O9 Sr0 2.898587 1_545
O10 Sn0 2.011793 1_555
O10 Zr2 2.220622 1_655
O10 Zr3 2.220622 1_654
O11 Zr3 2.135788 1_555
O11 Zr2 2.135788 1_555
O11 Sr0 2.878350 1_445
O11 Sr0 2.898587 1_455
