# generated using pymatgen
data_K2NaRhF6
_symmetry_space_group_name_H-M   'P 1'
_cell_length_a   6.02434189
_cell_length_b   6.02434189
_cell_length_c   6.02434189
_cell_angle_alpha   60.00000000
_cell_angle_beta   60.00000000
_cell_angle_gamma   60.00000000
_symmetry_Int_Tables_number   1
_chemical_formula_structural   K2NaRhF6
_chemical_formula_sum   'K2 Na1 Rh1 F6'
_cell_volume   154.60154637
_cell_formula_units_Z   1
loop_
 _symmetry_equiv_pos_site_id
 _symmetry_equiv_pos_as_xyz
  1  'x, y, z'
loop_
 _atom_site_type_symbol
 _atom_site_label
 _atom_site_symmetry_multiplicity
 _atom_site_fract_x
 _atom_site_fract_y
 _atom_site_fract_z
 _atom_site_occupancy
  K  K0  1  0.25000000  0.25000000  0.25000000  1
  K  K1  1  0.75000000  0.75000000  0.75000000  1
  Na  Na0  1  0.50000000  0.50000000  0.50000000  1
  Rh  Rh0  1  0.00000000  0.00000000  0.00000000  1
  F  F0  1  0.76386700  0.76386700  0.23613300  1
  F  F1  1  0.23613300  0.76386700  0.76386700  1
  F  F2  1  0.23613300  0.23613300  0.76386700  1
  F  F3  1  0.76386700  0.23613300  0.76386700  1
  F  F4  1  0.23613300  0.76386700  0.23613300  1
  F  F5  1  0.76386700  0.23613300  0.23613300  1
loop_
_geom_bond_atom_site_label_1
_geom_bond_atom_site_label_2
_geom_bond_distance
_geom_bond_site_symmetry_2
F0 Rh0 2.011784 1_665
F0 Na0 2.248069 1_555
F0 K1 3.014487 1_555
F0 K1 3.014487 1_554
F0 K0 3.014487 1_655
F0 K0 3.014487 1_565
F1 Rh0 2.011784 1_566
F1 Na0 2.248069 1_555
F1 K0 3.014487 1_556
F1 K1 3.014487 1_555
F1 K0 3.014487 1_565
F1 K1 3.014487 1_455
F2 Rh0 2.011784 1_556
F2 Na0 2.248069 1_555
F2 K0 3.014487 1_555
F2 K0 3.014487 1_556
F2 K1 3.014487 1_545
F2 K1 3.014487 1_455
F3 Rh0 2.011784 1_656
F3 Na0 2.248069 1_555
F3 K0 3.014487 1_556
F3 K1 3.014487 1_555
F3 K0 3.014487 1_655
F3 K1 3.014487 1_545
F4 Rh0 2.011784 1_565
F4 Na0 2.248069 1_555
F4 K0 3.014487 1_555
F4 K1 3.014487 1_554
F4 K0 3.014487 1_565
F4 K1 3.014487 1_455
F5 Rh0 2.011784 1_655
F5 Na0 2.248069 1_555
F5 K0 3.014487 1_555
F5 K1 3.014487 1_554
F5 K0 3.014487 1_655
F5 K1 3.014487 1_545
