# generated using pymatgen
data_KLaF4
_symmetry_space_group_name_H-M   'P 1'
_cell_length_a   3.83545444
_cell_length_b   6.29561760
_cell_length_c   15.58814124
_cell_angle_alpha   90.00000000
_cell_angle_beta   90.00000000
_cell_angle_gamma   90.00000000
_symmetry_Int_Tables_number   1
_chemical_formula_structural   KLaF4
_chemical_formula_sum   'K4 La4 F16'
_cell_volume   376.39990164
_cell_formula_units_Z   4
loop_
 _symmetry_equiv_pos_site_id
 _symmetry_equiv_pos_as_xyz
  1  'x, y, z'
loop_
 _atom_site_type_symbol
 _atom_site_label
 _atom_site_symmetry_multiplicity
 _atom_site_fract_x
 _atom_site_fract_y
 _atom_site_fract_z
 _atom_site_occupancy
  K  K0  1  0.25000000  0.72251199  0.70230966  1
  K  K1  1  0.75000000  0.27748801  0.29769034  1
  K  K2  1  0.75000000  0.77748801  0.20230966  1
  K  K3  1  0.25000000  0.22251199  0.79769034  1
  La  La0  1  0.25000000  0.25148966  0.06269335  1
  La  La1  1  0.75000000  0.74851034  0.93730665  1
  La  La2  1  0.75000000  0.24851034  0.56269335  1
  La  La3  1  0.25000000  0.75148966  0.43730665  1
  F  F0  1  0.25000000  0.60196110  0.86339921  1
  F  F1  1  0.75000000  0.39803890  0.13660079  1
  F  F2  1  0.75000000  0.89803890  0.36339921  1
  F  F3  1  0.25000000  0.10196110  0.63660079  1
  F  F4  1  0.25000000  0.63854636  0.03709529  1
  F  F5  1  0.75000000  0.36145364  0.96290471  1
  F  F6  1  0.75000000  0.86145364  0.53709529  1
  F  F7  1  0.25000000  0.13854636  0.46290471  1
  F  F8  1  0.25000000  0.50542202  0.56006383  1
  F  F9  1  0.75000000  0.49457798  0.43993617  1
  F  F10  1  0.75000000  0.99457798  0.06006383  1
  F  F11  1  0.25000000  0.00542202  0.93993617  1
  F  F12  1  0.25000000  0.58579780  0.30293166  1
  F  F13  1  0.75000000  0.41420220  0.69706834  1
  F  F14  1  0.75000000  0.91420220  0.80293166  1
  F  F15  1  0.25000000  0.08579780  0.19706834  1
loop_
_geom_bond_atom_site_label_1
_geom_bond_atom_site_label_2
_geom_bond_distance
_geom_bond_site_symmetry_2
F0 La1 2.419956 1_555
F0 La1 2.419956 1_455
F0 K3 2.599198 1_555
F0 K0 2.623271 1_555
F1 La0 2.419956 1_655
F1 La0 2.419956 1_555
F1 K2 2.599198 1_555
F1 K1 2.623271 1_555
F2 La3 2.419956 1_555
F2 La3 2.419956 1_655
F2 K1 2.599198 1_565
F2 K2 2.623271 1_555
F3 La2 2.419956 1_455
F3 La2 2.419956 1_555
F3 K0 2.599198 1_545
F3 K3 2.623271 1_555
F4 La0 2.469216 1_555
F4 La1 2.564485 1_554
F4 La1 2.564485 1_454
F5 La1 2.469216 1_555
F5 La0 2.564485 1_556
F5 La0 2.564485 1_656
F6 La2 2.469216 1_565
F6 La3 2.564485 1_555
F6 La3 2.564485 1_655
F7 La3 2.469216 1_545
F7 La2 2.564485 1_455
F7 La2 2.564485 1_555
F8 La3 2.462023 1_555
F8 La2 2.509063 1_555
F8 La2 2.509063 1_455
F8 K0 2.604716 1_555
F9 La2 2.462023 1_555
F9 La3 2.509063 1_555
F9 La3 2.509063 1_655
F9 K1 2.604716 1_555
F10 La1 2.462023 1_554
F10 La0 2.509063 1_565
F10 La0 2.509063 1_665
F10 K2 2.604716 1_555
F11 La0 2.462023 1_556
F11 La1 2.509063 1_545
F11 La1 2.509063 1_445
F11 K3 2.604716 1_555
F12 La3 2.340024 1_555
F12 K1 2.729805 1_455
F12 K1 2.729805 1_555
F12 K2 2.755773 1_555
F12 K2 2.755773 1_455
F13 La2 2.340024 1_555
F13 K0 2.729805 1_555
F13 K0 2.729805 1_655
F13 K3 2.755773 1_655
F13 K3 2.755773 1_555
F14 La1 2.340024 1_555
F14 K3 2.729805 1_665
F14 K3 2.729805 1_565
F14 K0 2.755773 1_655
F14 K0 2.755773 1_555
F15 La0 2.340024 1_555
F15 K2 2.729805 1_545
F15 K2 2.729805 1_445
F15 K1 2.755773 1_555
F15 K1 2.755773 1_455
