# generated using pymatgen
data_Y3(Al7Cr2)4
_symmetry_space_group_name_H-M   'P 1'
_cell_length_a   5.13147280
_cell_length_b   6.89803547
_cell_length_c   19.21961533
_cell_angle_alpha   87.03232084
_cell_angle_beta   98.00107906
_cell_angle_gamma   111.83603753
_symmetry_Int_Tables_number   1
_chemical_formula_structural   Y3(Al7Cr2)4
_chemical_formula_sum   'Y3 Al28 Cr8'
_cell_volume   625.35941758
_cell_formula_units_Z   1
loop_
 _symmetry_equiv_pos_site_id
 _symmetry_equiv_pos_as_xyz
  1  'x, y, z'
loop_
 _atom_site_type_symbol
 _atom_site_label
 _atom_site_symmetry_multiplicity
 _atom_site_fract_x
 _atom_site_fract_y
 _atom_site_fract_z
 _atom_site_occupancy
  Y  Y0  1  0.33333300  0.00000000  0.66666700  1
  Y  Y1  1  0.00111600  0.00000000  0.00039700  1
  Y  Y2  1  0.66555100  0.00000000  0.33293600  1
  Al  Al0  1  0.12747200  0.34857600  0.88893100  1
  Al  Al1  1  0.79252300  0.36585900  0.22231500  1
  Al  Al2  1  0.46117200  0.34871000  0.55574000  1
  Al  Al3  1  0.20549400  0.65129000  0.77759400  1
  Al  Al4  1  0.87414400  0.63414100  0.11101800  1
  Al  Al5  1  0.53919500  0.65142400  0.44440200  1
  Al  Al6  1  0.55420500  0.34871000  0.77759400  1
  Al  Al7  1  0.24000300  0.36585900  0.11101800  1
  Al  Al8  1  0.88777100  0.34857600  0.44440200  1
  Al  Al9  1  0.77889600  0.65142400  0.88893100  1
  Al  Al10  1  0.42666400  0.63414100  0.22231500  1
  Al  Al11  1  0.11246100  0.65129000  0.55574000  1
  Al  Al12  1  0.76657300  0.77317200  0.73847100  1
  Al  Al13  1  0.41936500  0.77303500  0.06909300  1
  Al  Al14  1  0.10125900  0.77306500  0.40599700  1
  Al  Al15  1  0.56540700  0.22693500  0.92733700  1
  Al  Al16  1  0.24730200  0.22696500  0.26424000  1
  Al  Al17  1  0.90009400  0.22682800  0.59486200  1
  Al  Al18  1  0.33847200  0.77306500  0.92733700  1
  Al  Al19  1  0.02033700  0.77303500  0.26424000  1
  Al  Al20  1  0.67326600  0.77317200  0.59486200  1
  Al  Al21  1  0.99340100  0.22682800  0.73847100  1
  Al  Al22  1  0.64633000  0.22696500  0.06909300  1
  Al  Al23  1  0.32819400  0.22693500  0.40599700  1
  Al  Al24  1  0.33333300  0.00000000  0.16666700  1
  Al  Al25  1  0.00042600  0.00000000  0.50049900  1
  Al  Al26  1  0.66624100  0.00000000  0.83283400  1
  Al  Al27  1  0.83333300  0.00000000  0.16666700  1
  Cr  Cr0  1  0.50023800  0.00000000  0.49938300  1
  Cr  Cr1  1  0.16642900  0.00000000  0.83395000  1
  Cr  Cr2  1  0.99726900  0.49280300  0.99968200  1
  Cr  Cr3  1  0.66939800  0.50719700  0.33365100  1
  Cr  Cr4  1  0.33333300  0.50000000  0.66666700  1
  Cr  Cr5  1  0.50446600  0.50719700  0.99968200  1
  Cr  Cr6  1  0.16220100  0.49280300  0.33365100  1
  Cr  Cr7  1  0.83333300  0.50000000  0.66666700  1
loop_
_geom_bond_atom_site_label_1
_geom_bond_atom_site_label_2
_geom_bond_distance
_geom_bond_site_symmetry_2
Al0 Cr5 2.644000 1_555
Al0 Cr2 2.660220 1_455
Al0 Al15 2.678783 1_555
Al0 Cr1 2.760009 1_555
Al0 Al26 2.805401 1_455
Al0 Al18 2.816740 1_555
Al0 Al3 2.872886 1_555
Al0 Al15 2.880256 1_455
Al0 Al21 2.967969 1_455
Al0 Y1 3.079789 1_556
Al1 Cr6 2.602410 1_655
Al1 Cr3 2.641825 1_555
Al1 Al19 2.726595 1_655
Al1 Al4 2.727418 1_555
Al1 Al16 2.819295 1_555
Al1 Al16 2.841336 1_655
Al1 Al24 2.866954 1_555
Al1 Al27 2.879558 1_555
Al1 Al22 3.048842 1_555
Al1 Al10 3.087714 1_655
Al1 Al10 3.087714 1_555
Al1 Y2 3.149718 1_555
Al2 Cr7 2.625994 1_555
Al2 Cr4 2.682120 1_555
Al2 Cr0 2.772793 1_555
Al2 Al25 2.799669 1_555
Al2 Al20 2.819997 1_555
Al2 Al5 2.872900 1_555
Al2 Al23 2.954887 1_555
Al2 Y0 3.073460 1_555
Al3 Cr7 2.625994 1_455
Al3 Cr4 2.682120 1_555
Al3 Cr1 2.772782 1_565
Al3 Y0 3.073460 1_565
Al4 Cr5 2.602410 1_554
Al4 Cr2 2.641825 1_554
Al4 Al7 3.087714 1_655
Al4 Al7 3.087714 1_555
Al4 Y1 3.149718 1_665
Al5 Cr6 2.644000 1_555
Al5 Cr3 2.660220 1_555
Al5 Cr0 2.760009 1_565
Al5 Y2 3.079789 1_565
Al6 Cr4 2.625997 1_555
Al6 Cr7 2.682117 1_555
Al6 Cr1 2.772784 1_555
Al6 Al9 2.872886 1_555
Al6 Y0 3.073460 1_555
Al7 Cr2 2.602410 1_454
Al7 Cr5 2.641825 1_554
Al7 Y1 3.149718 1_555
Al8 Cr3 2.644000 1_555
Al8 Cr6 2.660220 1_655
Al8 Cr0 2.760009 1_555
Al8 Y2 3.079789 1_555
Al9 Cr2 2.644000 1_555
Al9 Cr5 2.660220 1_555
Al9 Cr1 2.760009 1_665
Al9 Y1 3.079789 1_666
Al10 Cr3 2.602410 1_555
Al10 Cr6 2.641825 1_555
Al10 Al16 2.726595 1_555
Al10 Al7 2.727418 1_555
Al10 Al19 2.819295 1_555
Al10 Al19 2.841336 1_655
Al10 Al24 2.866954 1_565
Al10 Al27 2.879558 1_565
Al10 Al13 3.048842 1_555
Al10 Y2 3.149718 1_565
Al11 Cr4 2.625997 1_555
Al11 Cr7 2.682117 1_455
Al11 Al20 2.686437 1_555
Al11 Cr0 2.772795 1_565
Al11 Al25 2.799667 1_565
Al11 Al17 2.819997 1_455
Al11 Al8 2.872900 1_455
Al11 Al20 2.880663 1_455
Al11 Al14 2.954887 1_555
Al11 Y0 3.073460 1_565
Al12 Cr7 2.540424 1_555
Al12 Cr4 2.587767 1_555
Al12 Cr1 2.624232 1_665
Al12 Al26 2.674979 1_565
Al12 Al3 2.686430 1_655
Al12 Al20 2.734879 1_555
Al12 Al6 2.820002 1_555
Al12 Al3 2.880680 1_555
Al12 Al21 2.904812 1_565
Al12 Al9 2.967969 1_555
Al12 Y0 3.212408 1_665
Al12 Y0 3.287117 1_565
Al13 Cr5 2.518783 1_554
Al13 Cr2 2.560424 1_454
Al13 Al27 2.683558 1_565
Al13 Al24 2.685437 1_565
Al13 Al18 2.698214 1_554
Al13 Al7 2.726595 1_555
Al13 Al4 2.819295 1_455
Al13 Al4 2.841336 1_555
Al13 Al22 2.906566 1_565
Al13 Y1 3.208961 1_565
Al13 Y1 3.242285 1_665
Al14 Cr3 2.567235 1_455
Al14 Cr6 2.572508 1_555
Al14 Cr0 2.597575 1_565
Al14 Al25 2.678751 1_565
Al14 Al5 2.678785 1_555
Al14 Al19 2.698232 1_555
Al14 Al8 2.816735 1_455
Al14 Al5 2.880244 1_455
Al14 Al23 2.906182 1_565
Al14 Y2 3.215490 1_565
Al14 Y2 3.305030 1_465
Al15 Cr2 2.567229 1_555
Al15 Cr5 2.572494 1_555
Al15 Cr1 2.597584 1_555
Al15 Al26 2.678767 1_555
Al15 Al22 2.698214 1_556
Al15 Al9 2.816740 1_555
Al15 Al18 2.906182 1_545
Al15 Al6 2.954887 1_555
Al15 Y1 3.215476 1_556
Al15 Y1 3.305029 1_656
Al16 Cr6 2.518783 1_555
Al16 Cr3 2.560424 1_555
Al16 Al27 2.683549 1_455
Al16 Al24 2.685421 1_555
Al16 Al23 2.698232 1_555
Al16 Al19 2.906566 1_545
Al16 Al7 3.048842 1_555
Al16 Y2 3.208961 1_555
Al16 Y2 3.242285 1_455
Al17 Cr7 2.540438 1_555
Al17 Cr4 2.587773 1_655
Al17 Cr0 2.624232 1_555
Al17 Al25 2.674979 1_655
Al17 Al2 2.686432 1_555
Al17 Al21 2.734879 1_555
Al17 Al2 2.880668 1_655
Al17 Al20 2.904812 1_545
Al17 Al8 2.967969 1_555
Al17 Y0 3.212422 1_555
Al17 Y0 3.287118 1_655
Al18 Cr5 2.567229 1_555
Al18 Cr2 2.572494 1_455
Al18 Cr1 2.597584 1_565
Al18 Al26 2.678767 1_565
Al18 Al9 2.678783 1_455
Al18 Al9 2.880256 1_555
Al18 Al3 2.954887 1_555
Al18 Y1 3.215476 1_566
Al18 Y1 3.305029 1_666
Al19 Cr3 2.518783 1_455
Al19 Cr6 2.560424 1_555
Al19 Al27 2.683549 1_465
Al19 Al24 2.685421 1_565
Al19 Al4 3.048842 1_455
Al19 Y2 3.208961 1_565
Al19 Y2 3.242285 1_465
Al20 Cr4 2.540438 1_555
Al20 Cr7 2.587773 1_555
Al20 Cr0 2.624232 1_565
Al20 Al25 2.674979 1_665
Al20 Al5 2.967969 1_555
Al20 Y0 3.212422 1_565
Al20 Y0 3.287118 1_665
Al21 Cr4 2.540424 1_655
Al21 Cr7 2.587767 1_555
Al21 Cr1 2.624232 1_655
Al21 Al26 2.674979 1_555
Al21 Al6 2.686435 1_655
Al21 Al3 2.820002 1_655
Al21 Al6 2.880675 1_555
Al21 Y0 3.212408 1_655
Al21 Y0 3.287117 1_555
Al22 Cr2 2.518783 1_554
Al22 Cr5 2.560424 1_554
Al22 Al27 2.683558 1_555
Al22 Al24 2.685437 1_555
Al22 Al4 2.726595 1_555
Al22 Al7 2.819295 1_555
Al22 Al7 2.841336 1_655
Al22 Y1 3.208961 1_555
Al22 Y1 3.242285 1_655
Al23 Cr6 2.567235 1_555
Al23 Cr3 2.572508 1_555
Al23 Cr0 2.597575 1_555
Al23 Al25 2.678751 1_555
Al23 Al8 2.678785 1_555
Al23 Al5 2.816735 1_555
Al23 Al8 2.880244 1_455
Al23 Y2 3.215490 1_555
Al23 Y2 3.305030 1_455
Al24 Al27 2.565736 1_455
Al24 Al27 2.565736 1_555
Al24 Al7 2.866957 1_555
Al24 Al4 2.866957 1_445
Al24 Y2 3.406124 1_555
Al24 Y1 3.406139 1_555
Al25 Cr0 2.563804 1_455
Al25 Cr0 2.567845 1_555
Al25 Al8 2.805401 1_455
Al25 Al5 2.805401 1_445
Al25 Y0 3.405749 1_555
Al25 Y2 3.432768 1_455
Al26 Cr1 2.563804 1_655
Al26 Cr1 2.567845 1_555
Al26 Al6 2.799663 1_555
Al26 Al3 2.799666 1_545
Al26 Al9 2.805401 1_545
Al26 Y0 3.405734 1_555
Al26 Y1 3.432768 1_656
Al27 Al7 2.879569 1_655
Al27 Al4 2.879569 1_545
Al27 Y2 3.423335 1_555
Al27 Y1 3.423355 1_655
Cr0 Y2 3.421838 1_555
Cr0 Y0 3.440523 1_555
Cr1 Y1 3.421838 1_556
Cr1 Y0 3.440503 1_555
Cr2 Cr5 2.567391 1_655
Cr2 Cr5 2.567391 1_555
Cr2 Y1 3.406071 1_656
Cr2 Y1 3.492097 1_666
Cr3 Cr6 2.567391 1_655
Cr3 Cr6 2.567391 1_555
Cr3 Y2 3.406071 1_565
Cr3 Y2 3.492097 1_555
Cr4 Cr7 2.565736 1_555
Cr4 Cr7 2.565736 1_455
Cr4 Y0 3.449018 1_555
Cr4 Y0 3.449018 1_565
Cr5 Y1 3.406071 1_666
Cr5 Y1 3.492097 1_556
Cr6 Y2 3.406071 1_455
Cr6 Y2 3.492097 1_565
Cr7 Y0 3.449018 1_555
Cr7 Y0 3.449018 1_665
