# generated using pymatgen
data_Ba3P4O13
_symmetry_space_group_name_H-M   'P 1'
_cell_length_a   5.71689526
_cell_length_b   7.27995939
_cell_length_c   8.05993630
_cell_angle_alpha   83.41401201
_cell_angle_beta   75.94875954
_cell_angle_gamma   70.64578069
_symmetry_Int_Tables_number   1
_chemical_formula_structural   Ba3P4O13
_chemical_formula_sum   'Ba3 P4 O13'
_cell_volume   306.80341963
_cell_formula_units_Z   1
loop_
 _symmetry_equiv_pos_site_id
 _symmetry_equiv_pos_as_xyz
  1  'x, y, z'
loop_
 _atom_site_type_symbol
 _atom_site_label
 _atom_site_symmetry_multiplicity
 _atom_site_fract_x
 _atom_site_fract_y
 _atom_site_fract_z
 _atom_site_occupancy
  Ba  Ba0  1  0.36302595  0.40839713  0.77241438  1
  Ba  Ba1  1  0.64946410  0.58333290  0.22127988  1
  Ba  Ba2  1  0.00887385  0.00131832  0.99452575  1
  P  P0  1  0.00670476  0.78605130  0.47109885  1
  P  P1  1  -0.00452209  0.20416295  0.53254866  1
  P  P2  1  0.67127875  0.80228206  0.80852516  1
  P  P3  1  0.33247733  0.18905172  0.19398609  1
  O  O0  1  0.89987743  0.70210723  0.88869157  1
  O  O1  1  0.11112586  0.30153453  0.10968045  1
  O  O2  1  0.58363206  0.02092038  0.81739116  1
  O  O3  1  0.39870812  0.97181848  0.18399924  1
  O  O4  1  0.76665703  0.75545028  0.60490794  1
  O  O5  1  0.23392577  0.23387519  0.39849766  1
  O  O6  1  0.46315490  0.70971333  0.87469858  1
  O  O7  1  0.55093758  0.27102446  0.13231604  1
  O  O8  1  0.24310760  0.62879957  0.49488245  1
  O  O9  1  0.03339636  0.97817000  0.52910765  1
  O  O10  1  0.75402686  0.32131097  0.48138986  1
  O  O11  1  0.94483657  0.80534963  0.29924392  1
  O  O12  1  0.01981122  0.24102857  0.70551470  1
loop_
_geom_bond_atom_site_label_1
_geom_bond_atom_site_label_2
_geom_bond_distance
_geom_bond_site_symmetry_2
Ba0 O8 2.690800 1_555
Ba0 O6 2.700982 1_555
Ba0 O2 2.703409 1_555
Ba0 O10 2.785029 1_555
Ba0 O12 2.806119 1_555
Ba0 O0 2.821902 1_455
Ba0 O1 2.902593 1_556
Ba1 O10 2.706757 1_555
Ba1 O7 2.723885 1_555
Ba1 O3 2.733278 1_555
Ba1 O8 2.745817 1_555
Ba1 O1 2.768605 1_655
Ba1 O0 2.899700 1_554
Ba1 O11 2.901007 1_555
Ba1 O6 3.160669 1_554
Ba2 O11 2.703175 1_446
Ba2 O0 2.728486 1_445
Ba2 O12 2.746726 1_555
Ba2 O1 2.748713 1_556
Ba2 O7 2.761098 1_456
Ba2 O6 2.789668 1_545
Ba2 O3 2.933482 1_546
Ba2 O2 3.062257 1_455
Ba2 O2 3.292642 1_555
O0 P2 1.525610 1_555
O1 P3 1.528620 1_555
O2 P2 1.506552 1_545
O3 P3 1.506100 1_565
O4 P0 1.588994 1_655
O4 P2 1.636308 1_555
O5 P1 1.580840 1_555
O5 P3 1.640591 1_555
O6 P2 1.514972 1_555
O7 P3 1.512445 1_555
O8 P0 1.491236 1_555
O9 P0 1.588746 1_555
O9 P1 1.589235 1_565
O10 P1 1.489346 1_655
O11 P0 1.491230 1_655
O12 P1 1.496537 1_555
