# generated using pymatgen
data_RbCoCl3O2
_symmetry_space_group_name_H-M   'P 1'
_cell_length_a   8.19761016
_cell_length_b   8.19761016
_cell_length_c   8.53286578
_cell_angle_alpha   62.97381140
_cell_angle_beta   62.97381140
_cell_angle_gamma   42.58081146
_symmetry_Int_Tables_number   1
_chemical_formula_structural   RbCoCl3O2
_chemical_formula_sum   'Rb2 Co2 Cl6 O4'
_cell_volume   338.72360589
_cell_formula_units_Z   2
loop_
 _symmetry_equiv_pos_site_id
 _symmetry_equiv_pos_as_xyz
  1  'x, y, z'
loop_
 _atom_site_type_symbol
 _atom_site_label
 _atom_site_symmetry_multiplicity
 _atom_site_fract_x
 _atom_site_fract_y
 _atom_site_fract_z
 _atom_site_occupancy
  Rb  Rb0  1  0.00000000  0.50000000  0.00000000  1
  Rb  Rb1  1  0.50000000  0.00000000  0.50000000  1
  Co  Co0  1  0.00000000  0.00000000  0.50000000  1
  Co  Co1  1  0.00000000  0.00000000  0.00000000  1
  Cl  Cl0  1  0.19570700  0.80429300  0.75000000  1
  Cl  Cl1  1  0.80429300  0.19570700  0.25000000  1
  Cl  Cl2  1  0.08762600  0.64306400  0.54643000  1
  Cl  Cl3  1  0.35693600  0.91237400  0.95357000  1
  Cl  Cl4  1  0.91237400  0.35693600  0.45357000  1
  Cl  Cl5  1  0.64306400  0.08762600  0.04643000  1
  O  O0  1  0.71630000  0.12300400  0.61969600  1
  O  O1  1  0.87699600  0.28370000  0.88030400  1
  O  O2  1  0.28370000  0.87699600  0.38030400  1
  O  O3  1  0.12300400  0.71630000  0.11969600  1
loop_
_geom_bond_atom_site_label_1
_geom_bond_atom_site_label_2
_geom_bond_distance
_geom_bond_site_symmetry_2
Co0 O0 1.671057 1_455
Co0 O2 1.671057 1_545
Co1 O3 1.671057 1_545
Co1 O1 1.671057 1_454
Cl0 Co1 2.430628 1_566
Cl0 Co0 2.430628 1_565
Cl0 Rb1 3.360683 1_565
Cl0 Rb0 3.360683 1_556
Cl1 Co0 2.430628 1_655
Cl1 Co1 2.430628 1_655
Cl1 Rb0 3.360683 1_655
Cl1 Rb1 3.360683 1_555
Cl2 Co0 2.311800 1_565
Cl2 Rb0 3.385165 1_556
Cl2 Rb1 3.441973 1_465
Cl2 Rb1 3.716426 1_555
Cl3 Co1 2.311800 1_566
Cl3 Rb1 3.385165 1_565
Cl3 Rb0 3.441973 1_566
Cl3 Rb0 3.716426 1_656
Cl4 Co0 2.311800 1_655
Cl4 Rb0 3.385165 1_655
Cl4 Rb1 3.441973 1_655
Cl4 Rb1 3.716426 1_565
Cl5 Co1 2.311800 1_655
Cl5 Rb1 3.385165 1_555
Cl5 Rb0 3.441973 1_645
Cl5 Rb0 3.716426 1_555
O0 Rb1 3.227800 1_555
O1 Rb0 3.227800 1_656
O2 Rb1 3.227800 1_565
O3 Rb0 3.227800 1_555
