# generated using pymatgen
data_Ge3B
_symmetry_space_group_name_H-M   'P 1'
_cell_length_a   4.53980373
_cell_length_b   4.53980373
_cell_length_c   4.53980373
_cell_angle_alpha   60.00000000
_cell_angle_beta   60.00000000
_cell_angle_gamma   60.00000000
_symmetry_Int_Tables_number   1
_chemical_formula_structural   Ge3B
_chemical_formula_sum   'Ge3 B1'
_cell_volume   66.16011221
_cell_formula_units_Z   1
loop_
 _symmetry_equiv_pos_site_id
 _symmetry_equiv_pos_as_xyz
  1  'x, y, z'
loop_
 _atom_site_type_symbol
 _atom_site_label
 _atom_site_symmetry_multiplicity
 _atom_site_fract_x
 _atom_site_fract_y
 _atom_site_fract_z
 _atom_site_occupancy
  Ge  Ge0  1  0.25000000  0.25000000  0.25000000  1
  Ge  Ge1  1  0.75000000  0.75000000  0.75000000  1
  Ge  Ge2  1  0.50000000  0.50000000  0.50000000  1
  B  B0  1  0.00000000  0.00000000  0.00000000  1
loop_
_geom_bond_atom_site_label_1
_geom_bond_atom_site_label_2
_geom_bond_distance
_geom_bond_site_symmetry_2
Ge0 Ge2 2.780051 1_555
Ge0 Ge2 2.780051 1_554
Ge0 Ge2 2.780051 1_455
Ge0 Ge2 2.780051 1_545
Ge1 Ge2 2.780051 1_555
Ge1 Ge2 2.780051 1_556
Ge1 Ge2 2.780051 1_565
Ge1 Ge2 2.780051 1_655
B0 Ge1 2.780051 1_445
B0 Ge0 2.780051 1_554
B0 Ge0 2.780051 1_555
B0 Ge1 2.780051 1_444
B0 Ge1 2.780051 1_454
B0 Ge1 2.780051 1_544
B0 Ge0 2.780051 1_545
B0 Ge0 2.780051 1_455
