# generated using pymatgen
data_KUCrNO9
_symmetry_space_group_name_H-M   'P 1'
_cell_length_a   10.27194600
_cell_length_b   7.33016400
_cell_length_c   14.41566378
_cell_angle_alpha   90.00000000
_cell_angle_beta   124.50279303
_cell_angle_gamma   90.00000000
_symmetry_Int_Tables_number   1
_chemical_formula_structural   KUCrNO9
_chemical_formula_sum   'K4 U4 Cr4 N4 O36'
_cell_volume   894.49975825
_cell_formula_units_Z   4
loop_
 _symmetry_equiv_pos_site_id
 _symmetry_equiv_pos_as_xyz
  1  'x, y, z'
loop_
 _atom_site_type_symbol
 _atom_site_label
 _atom_site_symmetry_multiplicity
 _atom_site_fract_x
 _atom_site_fract_y
 _atom_site_fract_z
 _atom_site_occupancy
  K  K0  1  0.18414500  0.56126400  0.18415300  1
  K  K1  1  0.81585500  0.06126400  0.31584700  1
  K  K2  1  0.81585500  0.43873600  0.81584700  1
  K  K3  1  0.18414500  0.93873600  0.68415300  1
  U  U0  1  0.68297100  0.80046800  0.96091600  1
  U  U1  1  0.31702900  0.30046800  0.53908400  1
  U  U2  1  0.31702900  0.19953200  0.03908400  1
  U  U3  1  0.68297100  0.69953200  0.46091600  1
  Cr  Cr0  1  0.63120300  0.92960500  0.68433600  1
  Cr  Cr1  1  0.36879700  0.42960500  0.81566400  1
  Cr  Cr2  1  0.36879700  0.07039500  0.31566400  1
  Cr  Cr3  1  0.63120300  0.57039500  0.18433600  1
  N  N0  1  0.86571400  0.14156800  0.06891700  1
  N  N1  1  0.13428600  0.64156800  0.43108300  1
  N  N2  1  0.13428600  0.85843200  0.93108300  1
  N  N3  1  0.86571400  0.35843200  0.56891700  1
  O  O0  1  0.49602200  0.92089100  0.88853100  1
  O  O1  1  0.50397800  0.42089100  0.61146900  1
  O  O2  1  0.50397800  0.07910900  0.11146900  1
  O  O3  1  0.49602200  0.57910900  0.38853100  1
  O  O4  1  0.66874900  0.80531400  0.79599500  1
  O  O5  1  0.33125100  0.30531400  0.70400500  1
  O  O6  1  0.33125100  0.19468600  0.20400500  1
  O  O7  1  0.66874900  0.69468600  0.29599500  1
  O  O8  1  0.54943800  0.52658900  0.88039400  1
  O  O9  1  0.45056200  0.02658900  0.61960600  1
  O  O10  1  0.45056200  0.47341100  0.11960600  1
  O  O11  1  0.54943800  0.97341100  0.38039400  1
  O  O12  1  0.87167800  0.68399100  0.02608900  1
  O  O13  1  0.12832200  0.18399100  0.47391100  1
  O  O14  1  0.12832200  0.31600900  0.97391100  1
  O  O15  1  0.87167800  0.81600900  0.52608900  1
  O  O16  1  0.64377500  0.70496800  0.09518400  1
  O  O17  1  0.35622500  0.20496800  0.40481600  1
  O  O18  1  0.35622500  0.29503200  0.90481600  1
  O  O19  1  0.64377500  0.79503200  0.59518400  1
  O  O20  1  0.82407500  0.03088900  0.11739000  1
  O  O21  1  0.17592500  0.53088900  0.38261000  1
  O  O22  1  0.17592500  0.96911100  0.88261000  1
  O  O23  1  0.82407500  0.46911100  0.61739000  1
  O  O24  1  0.81554100  0.09863000  0.96694900  1
  O  O25  1  0.18445900  0.59863000  0.53305100  1
  O  O26  1  0.18445900  0.90137000  0.03305100  1
  O  O27  1  0.81554100  0.40137000  0.46694900  1
  O  O28  1  0.76085500  0.08867100  0.72885500  1
  O  O29  1  0.23914500  0.58867100  0.77114500  1
  O  O30  1  0.23914500  0.91132900  0.27114500  1
  O  O31  1  0.76085500  0.41132900  0.22885500  1
  O  O32  1  0.94677100  0.27716200  0.11638900  1
  O  O33  1  0.05322900  0.77716200  0.38361100  1
  O  O34  1  0.05322900  0.72283800  0.88361100  1
  O  O35  1  0.94677100  0.22283800  0.61638900  1
loop_
_geom_bond_atom_site_label_1
_geom_bond_atom_site_label_2
_geom_bond_distance
_geom_bond_site_symmetry_2
K0 O30 2.770145 1_555
K0 O12 2.831558 1_455
K0 O3 2.875337 1_555
K0 O21 2.918057 1_555
K0 O32 2.921983 1_455
K0 O6 3.015907 1_555
K0 O14 3.282914 1_554
K0 O26 3.311781 1_555
K0 O10 3.413854 1_555
K1 O31 2.770145 1_555
K1 O13 2.831558 1_655
K1 O2 2.875337 1_555
K1 O20 2.918057 1_555
K1 O33 2.921983 1_645
K1 O7 3.015907 1_545
K1 O15 3.282914 1_545
K1 O27 3.311781 1_555
K1 O11 3.413854 1_545
K2 O28 2.770145 1_555
K2 O14 2.831558 1_655
K2 O1 2.875337 1_555
K2 O23 2.918057 1_555
K2 O34 2.921983 1_655
K2 O4 3.015907 1_555
K2 O12 3.282914 1_556
K2 O24 3.311781 1_555
K2 O8 3.413854 1_555
K3 O29 2.770145 1_555
K3 O15 2.831558 1_455
K3 O0 2.875337 1_555
K3 O22 2.918057 1_555
K3 O35 2.921983 1_465
K3 O5 3.015907 1_565
K3 O13 3.282914 1_565
K3 O25 3.311781 1_555
K3 O9 3.413854 1_565
Cr0 O28 1.605221 1_565
Cr0 O19 1.682103 1_555
Cr0 O9 1.690438 1_565
Cr0 O4 1.693058 1_555
Cr1 O29 1.605221 1_555
Cr1 O18 1.682103 1_555
Cr1 O8 1.690438 1_555
Cr1 O5 1.693058 1_555
Cr2 O30 1.605221 1_545
Cr2 O17 1.682103 1_555
Cr2 O11 1.690438 1_545
Cr2 O6 1.693058 1_555
Cr3 O31 1.605221 1_555
Cr3 O16 1.682103 1_555
Cr3 O10 1.690438 1_555
Cr3 O7 1.693058 1_555
N0 O32 1.226354 1_555
N0 O24 1.291179 1_554
N0 O20 1.291515 1_555
N1 O33 1.226354 1_555
N1 O25 1.291179 1_555
N1 O21 1.291515 1_555
N2 O34 1.226354 1_555
N2 O26 1.291179 1_556
N2 O22 1.291515 1_555
N3 O35 1.226354 1_555
N3 O27 1.291179 1_555
N3 O23 1.291515 1_555
O0 U0 1.812621 1_555
O1 U1 1.812621 1_555
O2 U2 1.812621 1_555
O3 U3 1.812621 1_555
O4 U0 2.298125 1_555
O5 U1 2.298125 1_555
O6 U2 2.298125 1_555
O7 U3 2.298125 1_555
O8 U0 2.335684 1_555
O9 U1 2.335684 1_555
O10 U2 2.335684 1_555
O11 U3 2.335684 1_555
O12 U0 1.818198 1_554
O13 U1 1.818198 1_555
O14 U2 1.818198 1_556
O15 U3 1.818198 1_555
O16 U0 2.298131 1_554
O17 U1 2.298131 1_555
O18 U2 2.298131 1_556
O19 U3 2.298131 1_555
O20 U0 2.517496 1_544
O21 U1 2.517496 1_555
O22 U2 2.517496 1_566
O23 U3 2.517496 1_555
O24 U0 2.550393 1_545
O25 U1 2.550393 1_555
O26 U2 2.550393 1_565
O27 U3 2.550393 1_555
