# generated using pymatgen
data_LiMg6Ni
_symmetry_space_group_name_H-M   'P 1'
_cell_length_a   4.86804800
_cell_length_b   6.24985100
_cell_length_c   10.48937000
_cell_angle_alpha   90.00000000
_cell_angle_beta   90.00000000
_cell_angle_gamma   90.00000000
_symmetry_Int_Tables_number   1
_chemical_formula_structural   LiMg6Ni
_chemical_formula_sum   'Li2 Mg12 Ni2'
_cell_volume   319.13462071
_cell_formula_units_Z   2
loop_
 _symmetry_equiv_pos_site_id
 _symmetry_equiv_pos_as_xyz
  1  'x, y, z'
loop_
 _atom_site_type_symbol
 _atom_site_label
 _atom_site_symmetry_multiplicity
 _atom_site_fract_x
 _atom_site_fract_y
 _atom_site_fract_z
 _atom_site_occupancy
  Li  Li0  1  0.50000000  0.50000000  0.83389600  1
  Li  Li1  1  0.50000000  0.00000000  0.33389600  1
  Mg  Mg0  1  0.50000000  0.24985800  0.08428200  1
  Mg  Mg1  1  0.50000000  0.75014200  0.08428200  1
  Mg  Mg2  1  0.00000000  0.23939400  0.91041000  1
  Mg  Mg3  1  0.00000000  0.76060600  0.91041000  1
  Mg  Mg4  1  0.00000000  0.50000000  0.17455300  1
  Mg  Mg5  1  0.00000000  0.50000000  0.66854300  1
  Mg  Mg6  1  0.50000000  0.74985800  0.58428200  1
  Mg  Mg7  1  0.50000000  0.25014200  0.58428200  1
  Mg  Mg8  1  0.00000000  0.73939400  0.41041000  1
  Mg  Mg9  1  0.00000000  0.26060600  0.41041000  1
  Mg  Mg10  1  0.00000000  0.00000000  0.67455300  1
  Mg  Mg11  1  0.00000000  0.00000000  0.16854300  1
  Ni  Ni0  1  0.50000000  0.50000000  0.33362700  1
  Ni  Ni1  1  0.50000000  0.00000000  0.83362700  1
loop_
_geom_bond_atom_site_label_1
_geom_bond_atom_site_label_2
_geom_bond_distance
_geom_bond_site_symmetry_2
Li0 Mg5 2.988777 1_555
Li0 Mg5 2.988777 1_655
Li0 Mg3 3.036682 1_555
Li0 Mg2 3.036682 1_555
Li0 Mg3 3.036682 1_655
Li0 Mg2 3.036682 1_655
Li0 Mg6 3.048603 1_555
Li0 Mg7 3.048603 1_555
Li0 Mg1 3.056468 1_556
Li0 Mg0 3.056468 1_556
Li0 Ni1 3.124927 1_555
Li0 Ni1 3.124927 1_565
Li1 Mg11 2.988777 1_655
Li1 Mg11 2.988777 1_555
Li1 Mg8 3.036682 1_545
Li1 Mg9 3.036682 1_555
Li1 Mg9 3.036682 1_655
Li1 Mg8 3.036682 1_645
Li1 Mg0 3.048603 1_555
Li1 Mg1 3.048603 1_545
Li1 Mg7 3.056468 1_555
Li1 Mg6 3.056468 1_545
Li1 Ni0 3.124927 1_545
Li1 Ni0 3.124927 1_555
Mg0 Mg11 3.023933 1_655
Mg0 Mg11 3.023933 1_555
Mg0 Mg2 3.042207 1_554
Mg0 Mg2 3.042207 1_654
Mg0 Mg4 3.043868 1_655
Mg0 Mg4 3.043868 1_555
Mg0 Ni0 3.047090 1_555
Mg0 Ni1 3.057986 1_554
Mg0 Mg1 3.123151 1_545
Mg0 Mg1 3.126700 1_555
Mg1 Mg11 3.023933 1_565
Mg1 Mg11 3.023933 1_665
Mg1 Mg3 3.042207 1_654
Mg1 Mg3 3.042207 1_554
Mg1 Mg4 3.043868 1_655
Mg1 Mg4 3.043868 1_555
Mg1 Ni0 3.047090 1_555
Mg1 Ni1 3.057986 1_564
Mg2 Ni1 2.968450 1_555
Mg2 Ni1 2.968450 1_455
Mg2 Mg3 2.992354 1_545
Mg2 Mg5 3.014856 1_555
Mg2 Mg4 3.213964 1_556
Mg2 Mg3 3.257497 1_555
Mg3 Ni1 2.968450 1_465
Mg3 Ni1 2.968450 1_565
Mg3 Mg5 3.014856 1_555
Mg3 Mg4 3.213964 1_556
Mg4 Mg8 2.891224 1_555
Mg4 Mg9 2.891224 1_555
Mg4 Ni0 2.951043 1_455
Mg4 Ni0 2.951043 1_555
Mg5 Mg6 3.023933 1_555
Mg5 Mg6 3.023933 1_455
Mg5 Mg7 3.023933 1_555
Mg5 Mg7 3.023933 1_455
Mg5 Mg9 3.093530 1_555
Mg5 Mg8 3.093530 1_555
Mg6 Mg8 3.042207 1_555
Mg6 Mg8 3.042207 1_655
Mg6 Ni1 3.047090 1_565
Mg6 Ni0 3.057986 1_555
Mg6 Mg7 3.123151 1_555
Mg6 Mg7 3.126700 1_565
Mg7 Mg9 3.042207 1_555
Mg7 Mg9 3.042207 1_655
Mg7 Ni1 3.047090 1_555
Mg7 Ni0 3.057986 1_555
Mg8 Ni0 2.968450 1_455
Mg8 Ni0 2.968450 1_555
Mg8 Mg9 2.992354 1_555
Mg8 Mg9 3.257497 1_565
Mg9 Ni0 2.968450 1_455
Mg9 Ni0 2.968450 1_555
Mg10 Mg2 2.891224 1_555
Mg10 Mg3 2.891224 1_545
Mg10 Ni1 2.951043 1_455
Mg10 Ni1 2.951043 1_555
Mg10 Mg7 3.043868 1_555
Mg10 Mg7 3.043868 1_455
Mg10 Mg6 3.043868 1_445
Mg10 Mg6 3.043868 1_545
Mg10 Mg5 3.125561 1_555
Mg10 Mg5 3.125561 1_545
Mg10 Mg9 3.213964 1_555
Mg10 Mg8 3.213964 1_545
Mg11 Mg9 3.014856 1_555
Mg11 Mg8 3.014856 1_545
Mg11 Mg2 3.093530 1_554
Mg11 Mg3 3.093530 1_544
Mg11 Mg4 3.125561 1_555
Mg11 Mg4 3.125561 1_545
