# generated using pymatgen
data_Tl2Co2(SO4)3
_symmetry_space_group_name_H-M   'P 1'
_cell_length_a   10.16578700
_cell_length_b   10.16578700
_cell_length_c   10.16578700
_cell_angle_alpha   90.00000000
_cell_angle_beta   90.00000000
_cell_angle_gamma   90.00000000
_symmetry_Int_Tables_number   1
_chemical_formula_structural   Tl2Co2(SO4)3
_chemical_formula_sum   'Tl8 Co8 S12 O48'
_cell_volume   1050.56521659
_cell_formula_units_Z   4
loop_
 _symmetry_equiv_pos_site_id
 _symmetry_equiv_pos_as_xyz
  1  'x, y, z'
loop_
 _atom_site_type_symbol
 _atom_site_label
 _atom_site_symmetry_multiplicity
 _atom_site_fract_x
 _atom_site_fract_y
 _atom_site_fract_z
 _atom_site_occupancy
  Tl  Tl0  1  0.04822100  0.04822100  0.04822100  1
  Tl  Tl1  1  0.45177900  0.95177900  0.54822100  1
  Tl  Tl2  1  0.95177900  0.54822100  0.45177900  1
  Tl  Tl3  1  0.54822100  0.45177900  0.95177900  1
  Tl  Tl4  1  0.81726200  0.81726200  0.81726200  1
  Tl  Tl5  1  0.68273800  0.18273800  0.31726200  1
  Tl  Tl6  1  0.18273800  0.31726200  0.68273800  1
  Tl  Tl7  1  0.31726200  0.68273800  0.18273800  1
  Co  Co0  1  0.33541900  0.33541900  0.33541900  1
  Co  Co1  1  0.16458100  0.66458100  0.83541900  1
  Co  Co2  1  0.66458100  0.83541900  0.16458100  1
  Co  Co3  1  0.83541900  0.16458100  0.66458100  1
  Co  Co4  1  0.59712900  0.59712900  0.59712900  1
  Co  Co5  1  0.90287100  0.40287100  0.09712900  1
  Co  Co6  1  0.40287100  0.09712900  0.90287100  1
  Co  Co7  1  0.09712900  0.90287100  0.40287100  1
  S  S0  1  0.01864800  0.21595400  0.37585700  1
  S  S1  1  0.48135100  0.78404600  0.87585700  1
  S  S2  1  0.98135200  0.71595400  0.12414300  1
  S  S3  1  0.37585700  0.01864800  0.21595400  1
  S  S4  1  0.51864800  0.28404600  0.62414300  1
  S  S5  1  0.87585700  0.48135100  0.78404600  1
  S  S6  1  0.12414300  0.98135200  0.71595400  1
  S  S7  1  0.62414300  0.51864800  0.28404600  1
  S  S8  1  0.21595400  0.37585700  0.01864800  1
  S  S9  1  0.71595400  0.12414300  0.98135200  1
  S  S10  1  0.28404600  0.62414300  0.51864800  1
  S  S11  1  0.78404600  0.87585700  0.48135100  1
  O  O0  1  0.00953700  0.07611100  0.32995100  1
  O  O1  1  0.49046300  0.92388900  0.82995100  1
  O  O2  1  0.99046300  0.57611100  0.17004900  1
  O  O3  1  0.32995100  0.00953700  0.07611100  1
  O  O4  1  0.50953700  0.42388900  0.67004900  1
  O  O5  1  0.82995100  0.49046300  0.92388900  1
  O  O6  1  0.17004900  0.99046300  0.57611100  1
  O  O7  1  0.67004900  0.50953700  0.42388900  1
  O  O8  1  0.07611100  0.32995100  0.00953700  1
  O  O9  1  0.57611100  0.17004900  0.99046300  1
  O  O10  1  0.42388900  0.67004900  0.50953700  1
  O  O11  1  0.92388900  0.82995100  0.49046300  1
  O  O12  1  0.26592700  0.50043300  0.44180200  1
  O  O13  1  0.23407300  0.49956700  0.94180200  1
  O  O14  1  0.73407300  0.00043300  0.05819800  1
  O  O15  1  0.44180200  0.26592700  0.50043300  1
  O  O16  1  0.76592700  0.99956700  0.55819800  1
  O  O17  1  0.94180200  0.23407300  0.49956700  1
  O  O18  1  0.05819800  0.73407300  0.00043300  1
  O  O19  1  0.55819800  0.76592700  0.99956700  1
  O  O20  1  0.50043300  0.44180200  0.26592700  1
  O  O21  1  0.00043300  0.05819800  0.73407300  1
  O  O22  1  0.99956700  0.55819800  0.76592700  1
  O  O23  1  0.49956700  0.94180200  0.23407300  1
  O  O24  1  0.04101600  0.80279100  0.22527000  1
  O  O25  1  0.45898400  0.19720900  0.72527000  1
  O  O26  1  0.95898400  0.30279100  0.27473000  1
  O  O27  1  0.22527000  0.04101600  0.80279100  1
  O  O28  1  0.54101600  0.69720900  0.77473000  1
  O  O29  1  0.72527000  0.45898400  0.19720900  1
  O  O30  1  0.27473000  0.95898400  0.30279100  1
  O  O31  1  0.77473000  0.54101600  0.69720900  1
  O  O32  1  0.80279100  0.22527000  0.04101600  1
  O  O33  1  0.30279100  0.27473000  0.95898400  1
  O  O34  1  0.69720900  0.77473000  0.54101600  1
  O  O35  1  0.19720900  0.72527000  0.45898400  1
  O  O36  1  0.15746300  0.25321300  0.40151100  1
  O  O37  1  0.34253700  0.74678700  0.90151100  1
  O  O38  1  0.84253700  0.75321300  0.09848900  1
  O  O39  1  0.40151100  0.15746300  0.25321300  1
  O  O40  1  0.65746300  0.24678700  0.59848900  1
  O  O41  1  0.90151100  0.34253700  0.74678700  1
  O  O42  1  0.09848900  0.84253700  0.75321300  1
  O  O43  1  0.59848900  0.65746300  0.24678700  1
  O  O44  1  0.25321300  0.40151100  0.15746300  1
  O  O45  1  0.75321300  0.09848900  0.84253700  1
  O  O46  1  0.24678700  0.59848900  0.65746300  1
  O  O47  1  0.74678700  0.90151100  0.34253700  1
loop_
_geom_bond_atom_site_label_1
_geom_bond_atom_site_label_2
_geom_bond_distance
_geom_bond_site_symmetry_2
Co0 O44 2.102975 1_555
Co0 O39 2.102975 1_555
Co0 O36 2.102975 1_555
Co0 O15 2.117221 1_555
Co0 O12 2.117221 1_555
Co0 O20 2.117221 1_555
Co1 O46 2.102975 1_555
Co1 O37 2.102975 1_555
Co1 O42 2.102975 1_555
Co1 O18 2.117221 1_556
Co1 O13 2.117221 1_555
Co1 O22 2.117221 1_455
Co2 O47 2.102975 1_555
Co2 O43 2.102975 1_555
Co2 O38 2.102975 1_555
Co2 O14 2.117221 1_565
Co2 O19 2.117221 1_554
Co2 O23 2.117221 1_555
Co3 O40 2.102975 1_555
Co3 O41 2.102975 1_555
Co3 O45 2.102975 1_555
Co3 O21 2.117221 1_655
Co3 O17 2.117221 1_555
Co3 O16 2.117221 1_545
Co4 O7 2.108066 1_555
Co4 O10 2.108066 1_555
Co4 O4 2.108066 1_555
Co4 O28 2.149452 1_555
Co4 O31 2.149452 1_555
Co4 O34 2.149452 1_555
Co5 O5 2.108066 1_554
Co5 O8 2.108066 1_655
Co5 O2 2.108066 1_555
Co5 O32 2.149452 1_555
Co5 O26 2.149452 1_555
Co5 O29 2.149452 1_555
Co6 O1 2.108066 1_545
Co6 O9 2.108066 1_555
Co6 O3 2.108066 1_556
Co6 O27 2.149452 1_555
Co6 O33 2.149452 1_555
Co6 O25 2.149452 1_555
Co7 O11 2.108066 1_455
Co7 O0 2.108066 1_565
Co7 O6 2.108066 1_555
Co7 O24 2.149452 1_555
Co7 O30 2.149452 1_555
Co7 O35 2.149452 1_555
O0 S0 1.499115 1_555
O1 S1 1.499116 1_555
O2 S2 1.499115 1_555
O3 S3 1.499115 1_555
O4 S4 1.499115 1_555
O5 S5 1.499116 1_555
O6 S6 1.499115 1_555
O7 S7 1.499115 1_555
O8 S8 1.499115 1_555
O9 S9 1.499115 1_555
O10 S10 1.499115 1_555
O11 S11 1.499116 1_555
O12 S10 1.491906 1_555
O13 S8 1.491906 1_556
O14 S9 1.491906 1_554
O15 S4 1.491906 1_555
O16 S11 1.491911 1_555
O17 S0 1.491906 1_655
O18 S2 1.491906 1_455
O19 S1 1.491911 1_555
O20 S7 1.491906 1_555
O21 S6 1.491906 1_545
O22 S5 1.491911 1_555
O23 S3 1.491906 1_565
O24 S2 1.484592 1_455
O25 S4 1.484592 1_555
O26 S0 1.484592 1_655
O27 S6 1.484592 1_545
O28 S1 1.484596 1_555
O29 S7 1.484592 1_555
O30 S3 1.484592 1_565
O31 S5 1.484596 1_555
O32 S9 1.484592 1_554
O33 S8 1.484592 1_556
O34 S11 1.484596 1_555
O35 S10 1.484592 1_555
O36 S0 1.484204 1_555
O37 S1 1.484194 1_555
O38 S2 1.484204 1_555
O39 S3 1.484204 1_555
O40 S4 1.484204 1_555
O41 S5 1.484194 1_555
O42 S6 1.484204 1_555
O43 S7 1.484204 1_555
O44 S8 1.484204 1_555
O45 S9 1.484204 1_555
O46 S10 1.484204 1_555
O47 S11 1.484194 1_555
