# generated using pymatgen
data_La3Cu2S7
_symmetry_space_group_name_H-M   'P 1'
_cell_length_a   10.34667887
_cell_length_b   10.34667887
_cell_length_c   5.75760300
_cell_angle_alpha   90.00000000
_cell_angle_beta   90.00000000
_cell_angle_gamma   120.00000558
_symmetry_Int_Tables_number   1
_chemical_formula_structural   La3Cu2S7
_chemical_formula_sum   'La6 Cu4 S14'
_cell_volume   533.79470766
_cell_formula_units_Z   2
loop_
 _symmetry_equiv_pos_site_id
 _symmetry_equiv_pos_as_xyz
  1  'x, y, z'
loop_
 _atom_site_type_symbol
 _atom_site_label
 _atom_site_symmetry_multiplicity
 _atom_site_fract_x
 _atom_site_fract_y
 _atom_site_fract_z
 _atom_site_occupancy
  La  La0  1  0.86358800  0.23344000  0.97419500  1
  La  La1  1  0.36985200  0.13641200  0.97419500  1
  La  La2  1  0.13641200  0.76656000  0.47419500  1
  La  La3  1  0.76656000  0.63014800  0.97419500  1
  La  La4  1  0.63014800  0.86358800  0.47419500  1
  La  La5  1  0.23344000  0.36985200  0.47419500  1
  Cu  Cu0  1  0.66666700  0.33333300  0.36690200  1
  Cu  Cu1  1  0.33333300  0.66666700  0.86690200  1
  Cu  Cu2  1  0.00000000  0.00000000  0.99004400  1
  Cu  Cu3  1  0.00000000  0.00000000  0.49004400  1
  S  S0  1  0.75223400  0.91086400  0.98093000  1
  S  S1  1  0.15863000  0.24776600  0.98093000  1
  S  S2  1  0.24776600  0.08913600  0.48093000  1
  S  S3  1  0.08913600  0.84137000  0.98093000  1
  S  S4  1  0.84137000  0.75223400  0.48093000  1
  S  S5  1  0.91086400  0.15863000  0.48093000  1
  S  S6  1  0.66666700  0.33333300  0.75290000  1
  S  S7  1  0.33333300  0.66666700  0.25290000  1
  S  S8  1  0.48492300  0.57972900  0.75225900  1
  S  S9  1  0.09480600  0.51507700  0.75225900  1
  S  S10  1  0.51507700  0.42027100  0.25225900  1
  S  S11  1  0.42027100  0.90519400  0.75225900  1
  S  S12  1  0.90519400  0.48492300  0.25225900  1
  S  S13  1  0.57972900  0.09480600  0.25225900  1
loop_
_geom_bond_atom_site_label_1
_geom_bond_atom_site_label_2
_geom_bond_distance
_geom_bond_site_symmetry_2
La0 S12 2.898070 1_556
La0 S0 2.936505 1_545
La0 S9 2.979304 1_655
La0 S1 2.981609 1_655
La0 S6 2.991459 1_555
La0 S13 3.005624 1_556
La0 S5 3.046761 1_555
La0 S5 3.119180 1_556
La1 S13 2.898070 1_556
La1 S1 2.936505 1_555
La1 S11 2.979304 1_545
La1 S3 2.981608 1_545
La1 S6 2.991466 1_555
La1 S10 3.005624 1_556
La1 S2 3.046761 1_555
La1 S2 3.119180 1_556
La2 S9 2.898070 1_555
La2 S2 2.936505 1_565
La2 S12 2.979304 1_455
La2 S4 2.981609 1_455
La2 S7 2.991459 1_555
La2 S11 3.005624 1_555
La2 S3 3.046761 1_554
La2 S3 3.119180 1_555
La3 S10 2.898070 1_556
La3 S3 2.936505 1_655
La3 S8 2.979304 1_555
La3 S0 2.981609 1_555
La3 S6 2.991468 1_555
La3 S12 3.005624 1_556
La3 S4 3.046761 1_555
La3 S4 3.119180 1_556
La4 S11 2.898070 1_555
La4 S4 2.936505 1_555
La4 S13 2.979304 1_565
La4 S5 2.981608 1_565
La4 S7 2.991466 1_555
La4 S8 3.005624 1_555
La4 S0 3.046761 1_554
La4 S0 3.119180 1_555
La5 S8 2.898070 1_555
La5 S5 2.936505 1_455
La5 S10 2.979304 1_555
La5 S2 2.981609 1_555
La5 S7 2.991468 1_555
La5 S9 3.005624 1_555
La5 S1 3.046761 1_554
La5 S1 3.119180 1_555
Cu0 S6 2.222423 1_555
Cu0 S13 2.261788 1_555
Cu0 S12 2.261789 1_555
Cu0 S10 2.261797 1_555
Cu1 S7 2.222423 1_556
Cu1 S11 2.261788 1_555
Cu1 S9 2.261789 1_555
Cu1 S8 2.261797 1_555
Cu2 S1 2.249637 1_555
Cu2 S0 2.249637 1_445
Cu2 S3 2.249637 1_545
Cu3 S4 2.249637 1_445
Cu3 S2 2.249637 1_555
Cu3 S5 2.249637 1_455
