# generated using pymatgen
data_Th2(InSn)3
_symmetry_space_group_name_H-M   'P 1'
_cell_length_a   4.69009107
_cell_length_b   4.84193751
_cell_length_c   9.37867739
_cell_angle_alpha   90.00000000
_cell_angle_beta   90.00000000
_cell_angle_gamma   90.00000000
_symmetry_Int_Tables_number   1
_chemical_formula_structural   Th2(InSn)3
_chemical_formula_sum   'Th2 In3 Sn3'
_cell_volume   212.98158417
_cell_formula_units_Z   1
loop_
 _symmetry_equiv_pos_site_id
 _symmetry_equiv_pos_as_xyz
  1  'x, y, z'
loop_
 _atom_site_type_symbol
 _atom_site_label
 _atom_site_symmetry_multiplicity
 _atom_site_fract_x
 _atom_site_fract_y
 _atom_site_fract_z
 _atom_site_occupancy
  Th  Th0  1  -0.00000000  -0.00000000  0.24487451  1
  Th  Th1  1  -0.00000000  -0.00000000  0.75512549  1
  In  In0  1  0.50000000  0.50000000  0.25424018  1
  In  In1  1  0.50000000  0.50000000  0.74575982  1
  In  In2  1  -0.00000000  0.50000000  0.50000000  1
  Sn  Sn0  1  -0.00000000  0.50000000  -0.00000000  1
  Sn  Sn1  1  0.50000000  -0.00000000  0.50000000  1
  Sn  Sn2  1  0.50000000  -0.00000000  -0.00000000  1
loop_
_geom_bond_atom_site_label_1
_geom_bond_atom_site_label_2
_geom_bond_distance
_geom_bond_site_symmetry_2
In0 In2 3.288132 1_555
In0 In2 3.288132 1_655
In0 Sn1 3.342703 1_555
In0 Sn1 3.342703 1_565
In0 Sn0 3.344365 1_555
In0 Sn0 3.344365 1_655
In0 Th0 3.371653 1_655
In0 Th0 3.371653 1_565
In0 Th0 3.371653 1_665
In0 Th0 3.371653 1_555
In0 Sn2 3.398033 1_565
In0 Sn2 3.398033 1_555
In1 In2 3.288132 1_555
In1 In2 3.288132 1_655
In1 Sn1 3.342703 1_565
In1 Sn1 3.342703 1_555
In1 Sn0 3.344365 1_556
In1 Sn0 3.344365 1_656
In1 Th1 3.371653 1_565
In1 Th1 3.371653 1_555
In1 Th1 3.371653 1_655
In1 Th1 3.371653 1_665
In1 Sn2 3.398033 1_566
In1 Sn2 3.398033 1_556
In2 Sn1 3.370509 1_565
In2 Sn1 3.370509 1_455
In2 Sn1 3.370509 1_555
In2 Sn1 3.370509 1_465
In2 Th0 3.403864 1_555
In2 Th0 3.403864 1_565
In2 Th1 3.403864 1_555
In2 Th1 3.403864 1_565
Sn0 Th1 3.336983 1_554
Sn0 Th1 3.336983 1_564
Sn0 Th0 3.336983 1_565
Sn0 Th0 3.336983 1_555
Sn0 Sn2 3.370509 1_555
Sn0 Sn2 3.370509 1_465
Sn0 Sn2 3.370509 1_455
Sn0 Sn2 3.370509 1_565
Sn1 Th0 3.350290 1_555
Sn1 Th0 3.350290 1_655
Sn1 Th1 3.350290 1_655
Sn1 Th1 3.350290 1_555
Sn2 Th1 3.282317 1_654
Sn2 Th1 3.282317 1_554
Sn2 Th0 3.282317 1_655
Sn2 Th0 3.282317 1_555
