# generated using pymatgen
data_HoCuSe2
_symmetry_space_group_name_H-M   'P 1'
_cell_length_a   3.96842983
_cell_length_b   3.96842983
_cell_length_c   6.33444700
_cell_angle_alpha   90.00000000
_cell_angle_beta   90.00000000
_cell_angle_gamma   119.99999721
_symmetry_Int_Tables_number   1
_chemical_formula_structural   HoCuSe2
_chemical_formula_sum   'Ho1 Cu1 Se2'
_cell_volume   86.39264334
_cell_formula_units_Z   1
loop_
 _symmetry_equiv_pos_site_id
 _symmetry_equiv_pos_as_xyz
  1  'x, y, z'
loop_
 _atom_site_type_symbol
 _atom_site_label
 _atom_site_symmetry_multiplicity
 _atom_site_fract_x
 _atom_site_fract_y
 _atom_site_fract_z
 _atom_site_occupancy
  Ho  Ho0  1  0.00000000  0.00000000  0.50000000  1
  Cu  Cu0  1  0.00000000  0.00000000  0.00000000  1
  Se  Se0  1  0.33333300  0.66666700  0.23070000  1
  Se  Se1  1  0.66666700  0.33333300  0.76930000  1
loop_
_geom_bond_atom_site_label_1
_geom_bond_atom_site_label_2
_geom_bond_distance
_geom_bond_site_symmetry_2
Ho0 Se0 2.856475 1_545
Ho0 Se1 2.856475 1_455
Ho0 Se1 2.856478 1_555
Ho0 Se0 2.856478 1_445
Ho0 Se0 2.856478 1_555
Ho0 Se1 2.856478 1_445
Cu0 Se0 2.717542 1_545
Cu0 Se1 2.717542 1_454
Cu0 Se0 2.717544 1_445
Cu0 Se1 2.717544 1_554
Cu0 Se1 2.717544 1_444
Cu0 Se0 2.717544 1_555
