# generated using pymatgen
data_Si(GeN2)2
_symmetry_space_group_name_H-M   'P 1'
_cell_length_a   5.75938898
_cell_length_b   5.75938898
_cell_length_c   5.75938898
_cell_angle_alpha   60.00000000
_cell_angle_beta   60.00000000
_cell_angle_gamma   60.00000000
_symmetry_Int_Tables_number   1
_chemical_formula_structural   Si(GeN2)2
_chemical_formula_sum   'Si2 Ge4 N8'
_cell_volume   135.08721069
_cell_formula_units_Z   2
loop_
 _symmetry_equiv_pos_site_id
 _symmetry_equiv_pos_as_xyz
  1  'x, y, z'
loop_
 _atom_site_type_symbol
 _atom_site_label
 _atom_site_symmetry_multiplicity
 _atom_site_fract_x
 _atom_site_fract_y
 _atom_site_fract_z
 _atom_site_occupancy
  Si  Si0  1  0.50000000  0.50000000  0.50000000  1
  Si  Si1  1  0.75000000  0.75000000  0.75000000  1
  Ge  Ge0  1  0.62500000  0.12500000  0.12500000  1
  Ge  Ge1  1  0.12500000  0.62500000  0.12500000  1
  Ge  Ge2  1  0.12500000  0.12500000  0.62500000  1
  Ge  Ge3  1  0.12500000  0.12500000  0.12500000  1
  N  N0  1  0.88502500  0.37165800  0.37165800  1
  N  N1  1  0.37165800  0.88502500  0.37165800  1
  N  N2  1  0.37165800  0.37165800  0.88502500  1
  N  N3  1  0.37165800  0.37165800  0.37165800  1
  N  N4  1  0.36497500  0.87834200  0.87834200  1
  N  N5  1  0.87834200  0.36497500  0.87834200  1
  N  N6  1  0.87834200  0.87834200  0.36497500  1
  N  N7  1  0.87834200  0.87834200  0.87834200  1
loop_
_geom_bond_atom_site_label_1
_geom_bond_atom_site_label_2
_geom_bond_distance
_geom_bond_site_symmetry_2
Ge0 N3 2.009400 1_555
Ge0 N7 2.009400 1_544
Ge0 N5 2.009404 1_554
Ge0 N6 2.009404 1_545
Ge0 N2 2.009404 1_554
Ge0 N1 2.009404 1_545
Ge1 N3 2.009400 1_555
Ge1 N7 2.009400 1_454
Ge1 N6 2.009404 1_455
Ge1 N4 2.009404 1_554
Ge1 N0 2.009404 1_455
Ge1 N2 2.009404 1_554
Ge2 N3 2.009400 1_555
Ge2 N7 2.009400 1_445
Ge2 N4 2.009404 1_545
Ge2 N5 2.009404 1_455
Ge2 N0 2.009404 1_455
Ge2 N1 2.009404 1_545
Ge3 N2 2.009400 1_554
Ge3 N6 2.009400 1_445
Ge3 N1 2.009400 1_545
Ge3 N0 2.009400 1_455
Ge3 N5 2.009400 1_454
Ge3 N4 2.009400 1_544
N0 Si0 1.810588 1_555
N1 Si0 1.810588 1_555
N2 Si0 1.810588 1_555
N3 Si0 1.810593 1_555
N4 Si1 1.810588 1_555
N5 Si1 1.810588 1_555
N6 Si1 1.810588 1_555
N7 Si1 1.810593 1_555
