# generated using pymatgen
data_Er5Ge3
_symmetry_space_group_name_H-M   'P 1'
_cell_length_a   8.36352789
_cell_length_b   8.36352837
_cell_length_c   6.32027664
_cell_angle_alpha   90.00000000
_cell_angle_beta   90.00000000
_cell_angle_gamma   120.00000210
_symmetry_Int_Tables_number   1
_chemical_formula_structural   Er5Ge3
_chemical_formula_sum   'Er10 Ge6'
_cell_volume   382.86507721
_cell_formula_units_Z   2
loop_
 _symmetry_equiv_pos_site_id
 _symmetry_equiv_pos_as_xyz
  1  'x, y, z'
loop_
 _atom_site_type_symbol
 _atom_site_label
 _atom_site_symmetry_multiplicity
 _atom_site_fract_x
 _atom_site_fract_y
 _atom_site_fract_z
 _atom_site_occupancy
  Er  Er0  1  -0.00000000  0.75844576  0.75000000  1
  Er  Er1  1  0.00000000  0.24155424  0.25000000  1
  Er  Er2  1  0.75844576  0.75844576  0.25000000  1
  Er  Er3  1  0.75844576  -0.00000000  0.75000000  1
  Er  Er4  1  0.24155424  0.24155424  0.75000000  1
  Er  Er5  1  0.24155424  0.00000000  0.25000000  1
  Er  Er6  1  0.33333300  0.66666700  0.50000000  1
  Er  Er7  1  0.66666700  0.33333300  -0.00000000  1
  Er  Er8  1  0.66666700  0.33333300  0.50000000  1
  Er  Er9  1  0.33333300  0.66666700  -0.00000000  1
  Ge  Ge0  1  0.39339644  0.00000000  0.75000000  1
  Ge  Ge1  1  0.39339644  0.39339644  0.25000000  1
  Ge  Ge2  1  -0.00000000  0.60660356  0.25000000  1
  Ge  Ge3  1  0.00000000  0.39339644  0.75000000  1
  Ge  Ge4  1  0.60660356  0.60660356  0.75000000  1
  Ge  Ge5  1  0.60660356  -0.00000000  0.25000000  1
loop_
_geom_bond_atom_site_label_1
_geom_bond_atom_site_label_2
_geom_bond_distance
_geom_bond_site_symmetry_2
Er0 Ge0 2.873972 1_565
Er0 Ge4 2.873972 1_455
Er0 Ge3 3.053100 1_555
Er0 Ge2 3.405762 1_556
Er0 Ge2 3.405762 1_555
Er1 Ge5 2.873972 1_455
Er1 Ge1 2.873972 1_555
Er1 Ge2 3.053100 1_555
Er1 Ge3 3.405762 1_555
Er1 Ge3 3.405762 1_554
Er2 Ge2 2.873972 1_655
Er2 Ge5 2.873972 1_565
Er2 Ge1 3.053100 1_555
Er2 Ge4 3.405762 1_554
Er2 Ge4 3.405762 1_555
Er3 Ge3 2.873972 1_655
Er3 Ge4 2.873972 1_545
Er3 Ge0 3.053100 1_555
Er3 Ge5 3.405762 1_555
Er3 Ge5 3.405762 1_556
Er4 Ge3 2.873972 1_555
Er4 Ge0 2.873972 1_555
Er4 Ge4 3.053100 1_555
Er4 Ge1 3.405762 1_555
Er4 Ge1 3.405762 1_556
Er5 Ge2 2.873972 1_545
Er5 Ge1 2.873972 1_555
Er5 Ge5 3.053100 1_555
Er5 Ge0 3.405762 1_554
Er5 Ge0 3.405762 1_555
Er6 Ge2 3.020028 1_555
Er6 Ge0 3.020028 1_565
Er6 Ge3 3.020030 1_555
Er6 Ge5 3.020030 1_565
Er6 Ge4 3.020035 1_555
Er6 Ge1 3.020035 1_555
Er7 Ge3 3.020028 1_654
Er7 Ge5 3.020028 1_555
Er7 Ge2 3.020030 1_655
Er7 Ge0 3.020030 1_554
Er7 Ge1 3.020035 1_555
Er7 Ge4 3.020035 1_554
Er8 Ge3 3.020028 1_655
Er8 Ge5 3.020028 1_555
Er8 Ge2 3.020030 1_655
Er8 Ge0 3.020030 1_555
Er8 Ge1 3.020035 1_555
Er8 Ge4 3.020035 1_555
Er9 Ge2 3.020028 1_555
Er9 Ge0 3.020028 1_564
Er9 Ge3 3.020030 1_554
Er9 Ge5 3.020030 1_565
Er9 Ge4 3.020035 1_554
Er9 Ge1 3.020035 1_555
