# generated using pymatgen
data_Fe4O5
_symmetry_space_group_name_H-M   'P 1'
_cell_length_a   5.28707393
_cell_length_b   5.28707393
_cell_length_c   12.80586700
_cell_angle_alpha   90.00000000
_cell_angle_beta   90.00000000
_cell_angle_gamma   148.08017215
_symmetry_Int_Tables_number   1
_chemical_formula_structural   Fe4O5
_chemical_formula_sum   'Fe8 O10'
_cell_volume   189.26723233
_cell_formula_units_Z   2
loop_
 _symmetry_equiv_pos_site_id
 _symmetry_equiv_pos_as_xyz
  1  'x, y, z'
loop_
 _atom_site_type_symbol
 _atom_site_label
 _atom_site_symmetry_multiplicity
 _atom_site_fract_x
 _atom_site_fract_y
 _atom_site_fract_z
 _atom_site_occupancy
  Fe  Fe0  1  0.00000000  0.00000000  0.50000000  1
  Fe  Fe1  1  0.00000000  0.00000000  0.00000000  1
  Fe  Fe2  1  0.73877900  0.26122100  0.38467700  1
  Fe  Fe3  1  0.26122100  0.73877900  0.61532300  1
  Fe  Fe4  1  0.73877900  0.26122100  0.11532300  1
  Fe  Fe5  1  0.26122100  0.73877900  0.88467700  1
  Fe  Fe6  1  0.49510100  0.50489900  0.25000000  1
  Fe  Fe7  1  0.50489900  0.49510100  0.75000000  1
  O  O0  1  0.85041100  0.14958900  0.25000000  1
  O  O1  1  0.14958900  0.85041100  0.75000000  1
  O  O2  1  0.63208300  0.36791700  0.96375900  1
  O  O3  1  0.36791700  0.63208300  0.03624100  1
  O  O4  1  0.63208300  0.36791700  0.53624100  1
  O  O5  1  0.36791700  0.63208300  0.46375900  1
  O  O6  1  0.91927600  0.08072400  0.85134200  1
  O  O7  1  0.08072400  0.91927600  0.14865800  1
  O  O8  1  0.91927600  0.08072400  0.64865800  1
  O  O9  1  0.08072400  0.91927600  0.35134200  1
loop_
_geom_bond_atom_site_label_1
_geom_bond_atom_site_label_2
_geom_bond_distance
_geom_bond_site_symmetry_2
Fe0 O5 2.032731 1_445
Fe0 O4 2.032731 1_555
Fe0 O4 2.032731 1_445
Fe0 O5 2.032731 1_555
Fe0 O8 2.073060 1_455
Fe0 O9 2.073060 1_545
Fe1 O3 2.032731 1_445
Fe1 O3 2.032731 1_555
Fe1 O2 2.032731 1_554
Fe1 O2 2.032731 1_444
Fe1 O7 2.073060 1_545
Fe1 O6 2.073060 1_454
Fe2 O0 2.064574 1_555
Fe2 O5 2.205149 1_545
Fe2 O5 2.205149 1_655
Fe2 O9 2.208550 1_655
Fe2 O9 2.208550 1_545
Fe2 O4 2.223458 1_555
Fe3 O1 2.064574 1_555
Fe3 O4 2.205149 1_455
Fe3 O4 2.205149 1_565
Fe3 O8 2.208550 1_565
Fe3 O8 2.208550 1_455
Fe3 O5 2.223458 1_555
Fe4 O0 2.064574 1_555
Fe4 O3 2.205149 1_545
Fe4 O3 2.205149 1_655
Fe4 O7 2.208550 1_655
Fe4 O7 2.208550 1_545
Fe4 O2 2.223458 1_554
Fe5 O1 2.064574 1_555
Fe5 O2 2.205149 1_455
Fe5 O2 2.205149 1_565
Fe5 O6 2.208550 1_565
Fe5 O6 2.208550 1_455
Fe5 O3 2.223458 1_556
Fe6 O0 2.068153 1_565
Fe6 O0 2.068153 1_455
Fe6 O9 2.134334 1_655
Fe6 O9 2.134334 1_545
Fe6 O7 2.134334 1_655
Fe6 O7 2.134334 1_545
Fe7 O1 2.068153 1_545
Fe7 O1 2.068153 1_655
Fe7 O6 2.134334 1_565
Fe7 O6 2.134334 1_455
Fe7 O8 2.134334 1_565
Fe7 O8 2.134334 1_455
