# generated using pymatgen
data_La7SmTi2V6O24
_symmetry_space_group_name_H-M   'P 1'
_cell_length_a   7.93653126
_cell_length_b   7.93653126
_cell_length_c   7.89424400
_cell_angle_alpha   90.00000000
_cell_angle_beta   90.00000000
_cell_angle_gamma   90.10978338
_symmetry_Int_Tables_number   1
_chemical_formula_structural   La7SmTi2V6O24
_chemical_formula_sum   'La7 Sm1 Ti2 V6 O24'
_cell_volume   497.24590035
_cell_formula_units_Z   1
loop_
 _symmetry_equiv_pos_site_id
 _symmetry_equiv_pos_as_xyz
  1  'x, y, z'
loop_
 _atom_site_type_symbol
 _atom_site_label
 _atom_site_symmetry_multiplicity
 _atom_site_fract_x
 _atom_site_fract_y
 _atom_site_fract_z
 _atom_site_occupancy
  La  La0  1  0.25381400  0.25381400  0.00000000  1
  La  La1  1  0.74744300  0.25276800  0.00000000  1
  La  La2  1  0.25276800  0.74744300  0.00000000  1
  La  La3  1  0.74626500  0.74626500  0.00000000  1
  La  La4  1  0.74711800  0.25264600  0.50000000  1
  La  La5  1  0.25264600  0.74711800  0.50000000  1
  La  La6  1  0.74636500  0.74636500  0.50000000  1
  Sm  Sm0  1  0.25464400  0.25464400  0.50000000  1
  Ti  Ti0  1  0.00070800  0.00070800  0.74936100  1
  Ti  Ti1  1  0.00070800  0.00070800  0.25063900  1
  V  V0  1  0.49967100  0.00044400  0.74956000  1
  V  V1  1  0.00044400  0.49967100  0.74956000  1
  V  V2  1  0.49975000  0.49975000  0.74980000  1
  V  V3  1  0.49967100  0.00044400  0.25044000  1
  V  V4  1  0.00044400  0.49967100  0.25044000  1
  V  V5  1  0.49975000  0.49975000  0.25020000  1
  O  O0  1  0.00042600  0.00042600  0.00000000  1
  O  O1  1  0.50003700  0.00040500  0.00000000  1
  O  O2  1  0.00040500  0.50003700  0.00000000  1
  O  O3  1  0.49997300  0.49997300  0.00000000  1
  O  O4  1  0.00090200  0.00090200  0.50000000  1
  O  O5  1  0.49789300  0.00153100  0.50000000  1
  O  O6  1  0.00153100  0.49789300  0.50000000  1
  O  O7  1  0.49745500  0.49745500  0.50000000  1
  O  O8  1  0.00193400  0.24533200  0.74848400  1
  O  O9  1  0.49877600  0.24824300  0.74808000  1
  O  O10  1  0.99955600  0.75494000  0.74987600  1
  O  O11  1  0.49904000  0.75176500  0.74974600  1
  O  O12  1  0.00193400  0.24533200  0.25151600  1
  O  O13  1  0.49877600  0.24824300  0.25192000  1
  O  O14  1  0.99955600  0.75494000  0.25012400  1
  O  O15  1  0.49904000  0.75176500  0.25025400  1
  O  O16  1  0.24533200  0.00193400  0.74848400  1
  O  O17  1  0.75494000  0.99955600  0.74987600  1
  O  O18  1  0.24824300  0.49877600  0.74808000  1
  O  O19  1  0.75176500  0.49904000  0.74974600  1
  O  O20  1  0.24533200  0.00193400  0.25151600  1
  O  O21  1  0.75494000  0.99955600  0.25012400  1
  O  O22  1  0.24824300  0.49877600  0.25192000  1
  O  O23  1  0.75176500  0.49904000  0.25025400  1
loop_
_geom_bond_atom_site_label_1
_geom_bond_atom_site_label_2
_geom_bond_distance
_geom_bond_site_symmetry_2
La0 O3 2.760228 1_555
La0 O9 2.781546 1_554
La0 O18 2.781546 1_554
La0 O13 2.781546 1_555
La0 O22 2.781546 1_555
La0 O2 2.806896 1_555
La0 O1 2.806896 1_555
La0 O20 2.818254 1_555
La0 O12 2.818254 1_555
La0 O16 2.818254 1_554
La0 O8 2.818254 1_554
La0 O0 2.841288 1_555
La1 O3 2.778763 1_555
La1 O23 2.779214 1_555
La1 O19 2.779214 1_554
La1 O9 2.801951 1_554
La1 O13 2.801951 1_555
La1 O1 2.802141 1_555
La1 O2 2.804775 1_655
La1 O21 2.818049 1_545
La1 O17 2.818049 1_544
La1 O12 2.832977 1_655
La1 O8 2.832977 1_654
La1 O0 2.838589 1_655
La2 O3 2.778763 1_555
La2 O15 2.779214 1_555
La2 O11 2.779214 1_554
La2 O18 2.801951 1_554
La2 O22 2.801951 1_555
La2 O2 2.802141 1_555
La2 O1 2.804775 1_565
La2 O14 2.818049 1_455
La2 O10 2.818049 1_454
La2 O20 2.832977 1_565
La2 O16 2.832977 1_564
La2 O0 2.838589 1_565
La3 O3 2.761719 1_555
La3 O15 2.784774 1_555
La3 O23 2.784774 1_555
La3 O11 2.784774 1_554
La3 O19 2.784774 1_554
La3 O1 2.811092 1_565
La3 O2 2.811092 1_655
La3 O10 2.818533 1_554
La3 O17 2.818533 1_554
La3 O21 2.818533 1_555
La3 O14 2.818533 1_555
La3 O0 2.849956 1_665
La4 O19 2.777076 1_555
La4 O23 2.777076 1_555
La4 O7 2.777755 1_555
La4 O13 2.778676 1_555
La4 O9 2.778676 1_555
La4 O6 2.801865 1_655
La4 O5 2.805224 1_555
La4 O21 2.816046 1_545
La4 O17 2.816046 1_545
La4 O8 2.818082 1_655
La4 O12 2.818082 1_655
La4 O4 2.839750 1_655
La5 O11 2.777076 1_555
La5 O15 2.777076 1_555
La5 O7 2.777755 1_555
La5 O22 2.778676 1_555
La5 O18 2.778676 1_555
La5 O5 2.801865 1_565
La5 O6 2.805224 1_555
La5 O14 2.816046 1_455
La5 O10 2.816046 1_455
La5 O16 2.818082 1_565
La5 O20 2.818082 1_565
La5 O4 2.839750 1_565
La6 O11 2.782477 1_555
La6 O19 2.782477 1_555
La6 O23 2.782477 1_555
La6 O15 2.782477 1_555
La6 O7 2.791076 1_555
La6 O10 2.816578 1_555
La6 O17 2.816578 1_555
La6 O21 2.816578 1_555
La6 O14 2.816578 1_555
La6 O5 2.829359 1_565
La6 O6 2.829359 1_655
La6 O4 2.854172 1_665
O0 Ti1 1.978608 1_555
O0 Ti0 1.978608 1_554
O1 V0 1.977037 1_554
O1 V3 1.977037 1_555
O2 V1 1.977037 1_554
O2 V4 1.977037 1_555
O3 V2 1.975141 1_554
O3 V5 1.975141 1_555
O4 Ti0 1.968518 1_555
O4 Ti1 1.968518 1_555
O4 Sm0 2.845258 1_555
O5 V3 1.970157 1_555
O5 V0 1.970157 1_555
O5 Sm0 2.788787 1_555
O6 V4 1.970157 1_555
O6 V1 1.970157 1_555
O6 Sm0 2.788787 1_555
O7 V5 1.972150 1_555
O7 V2 1.972150 1_555
O7 Sm0 2.722686 1_555
O8 Ti0 1.941484 1_555
O8 V1 2.018645 1_555
O8 Sm0 2.806303 1_555
O9 V0 1.966726 1_555
O9 V2 1.996140 1_555
O9 Sm0 2.755440 1_555
O10 Ti0 1.950554 1_665
O10 V1 2.025978 1_655
O11 V0 1.973646 1_565
O11 V2 2.000144 1_555
O12 Ti1 1.941484 1_555
O12 V4 2.018645 1_555
O12 Sm0 2.806303 1_555
O13 V3 1.966726 1_555
O13 V5 1.996140 1_555
O13 Sm0 2.755440 1_555
O14 Ti1 1.950554 1_665
O14 V4 2.025978 1_655
O15 V3 1.973646 1_565
O15 V5 2.000144 1_555
O16 Ti0 1.941484 1_555
O16 V0 2.018645 1_555
O16 Sm0 2.806303 1_555
O17 Ti0 1.950554 1_665
O17 V0 2.025978 1_565
O18 V1 1.966726 1_555
O18 V2 1.996140 1_555
O18 Sm0 2.755440 1_555
O19 V1 1.973646 1_655
O19 V2 2.000144 1_555
O20 Ti1 1.941484 1_555
O20 V3 2.018645 1_555
O20 Sm0 2.806303 1_555
O21 Ti1 1.950554 1_665
O21 V3 2.025978 1_565
O22 V4 1.966726 1_555
O22 V5 1.996140 1_555
O22 Sm0 2.755440 1_555
O23 V4 1.973646 1_655
O23 V5 2.000144 1_555
