# generated using pymatgen
data_Ho4Si3Ge
_symmetry_space_group_name_H-M   'P 1'
_cell_length_a   3.83645772
_cell_length_b   4.24490387
_cell_length_c   10.50866604
_cell_angle_alpha   90.00000000
_cell_angle_beta   90.00000000
_cell_angle_gamma   90.00000000
_symmetry_Int_Tables_number   1
_chemical_formula_structural   Ho4Si3Ge
_chemical_formula_sum   'Ho4 Si3 Ge1'
_cell_volume   171.13776922
_cell_formula_units_Z   1
loop_
 _symmetry_equiv_pos_site_id
 _symmetry_equiv_pos_as_xyz
  1  'x, y, z'
loop_
 _atom_site_type_symbol
 _atom_site_label
 _atom_site_symmetry_multiplicity
 _atom_site_fract_x
 _atom_site_fract_y
 _atom_site_fract_z
 _atom_site_occupancy
  Ho  Ho0  1  -0.00000000  0.00000000  0.13836127  1
  Ho  Ho1  1  -0.00000000  0.50000000  0.64132835  1
  Ho  Ho2  1  0.50000000  0.50000000  0.35912530  1
  Ho  Ho3  1  0.50000000  -0.00000000  0.86011138  1
  Si  Si0  1  0.00000000  0.50000000  0.92359523  1
  Si  Si1  1  0.50000000  0.50000000  0.07694614  1
  Si  Si2  1  0.50000000  -0.00000000  0.58094530  1
  Ge  Ge0  1  0.00000000  -0.00000000  0.41958804  1
loop_
_geom_bond_atom_site_label_1
_geom_bond_atom_site_label_2
_geom_bond_distance
_geom_bond_site_symmetry_2
Ho0 Si1 2.932735 1_455
Ho0 Si1 2.932735 1_445
Ho0 Si1 2.932735 1_545
Ho0 Si1 2.932735 1_555
Ho0 Si0 3.098132 1_544
Ho0 Si0 3.098132 1_554
Ho1 Si2 2.930367 1_565
Ho1 Si2 2.930367 1_465
Ho1 Si2 2.930367 1_555
Ho1 Si2 2.930367 1_455
Ho1 Si0 2.966248 1_555
Ho2 Si1 2.965327 1_555
Ho2 Si2 3.152541 1_565
Ho2 Si2 3.152541 1_555
Ho3 Si2 2.933663 1_555
Ho3 Si0 2.937596 1_655
Ho3 Si0 2.937596 1_645
Ho3 Si0 2.937596 1_545
Ho3 Si0 2.937596 1_555
Ho3 Si1 3.114004 1_546
Ho3 Si1 3.114004 1_556
Si0 Si1 2.505310 1_456
Si0 Si1 2.505310 1_556
Ge0 Si2 2.560240 1_555
Ge0 Si2 2.560240 1_455
Ge0 Ho2 2.930549 1_445
Ge0 Ho2 2.930549 1_545
Ge0 Ho2 2.930549 1_455
Ge0 Ho2 2.930549 1_555
Ge0 Ho0 2.955318 1_555
Ge0 Ho1 3.151922 1_545
Ge0 Ho1 3.151922 1_555
