# generated using pymatgen
data_Ba2La2Fe2Cu2O11
_symmetry_space_group_name_H-M   'P 1'
_cell_length_a   5.60361900
_cell_length_b   5.60361900
_cell_length_c   7.93496900
_cell_angle_alpha   90.00000000
_cell_angle_beta   90.00000000
_cell_angle_gamma   90.00000000
_symmetry_Int_Tables_number   1
_chemical_formula_structural   Ba2La2Fe2Cu2O11
_chemical_formula_sum   'Ba2 La2 Fe2 Cu2 O11'
_cell_volume   249.16235828
_cell_formula_units_Z   1
loop_
 _symmetry_equiv_pos_site_id
 _symmetry_equiv_pos_as_xyz
  1  'x, y, z'
loop_
 _atom_site_type_symbol
 _atom_site_label
 _atom_site_symmetry_multiplicity
 _atom_site_fract_x
 _atom_site_fract_y
 _atom_site_fract_z
 _atom_site_occupancy
  Ba  Ba0  1  0.00000000  0.50000000  0.74976000  1
  Ba  Ba1  1  0.50000000  0.00000000  0.74976000  1
  La  La0  1  0.50000000  0.00000000  0.24504800  1
  La  La1  1  0.00000000  0.50000000  0.24504800  1
  Fe  Fe0  1  0.00000000  0.00000000  0.47724600  1
  Fe  Fe1  1  0.50000000  0.50000000  0.99876800  1
  Cu  Cu0  1  0.00000000  0.00000000  0.00703500  1
  Cu  Cu1  1  0.50000000  0.50000000  0.50194700  1
  O  O0  1  0.75936900  0.75936900  0.49250000  1
  O  O1  1  0.24538100  0.24538100  0.01405500  1
  O  O2  1  0.75936900  0.24063100  0.49250000  1
  O  O3  1  0.24538100  0.75461900  0.01405500  1
  O  O4  1  0.75461900  0.24538100  0.01405500  1
  O  O5  1  0.24063100  0.75936900  0.49250000  1
  O  O6  1  0.75461900  0.75461900  0.01405500  1
  O  O7  1  0.24063100  0.24063100  0.49250000  1
  O  O8  1  0.50000000  0.50000000  0.24995600  1
  O  O9  1  0.00000000  0.00000000  0.24931600  1
  O  O10  1  0.50000000  0.50000000  0.75468000  1
loop_
_geom_bond_atom_site_label_1
_geom_bond_atom_site_label_2
_geom_bond_distance
_geom_bond_site_symmetry_2
Ba0 O10 2.802081 1_555
Ba0 O10 2.802081 1_455
Ba0 O5 2.845644 1_555
Ba0 O7 2.845644 1_555
Ba0 O0 2.845644 1_455
Ba0 O2 2.845644 1_455
Ba0 O4 2.885228 1_456
Ba0 O1 2.885228 1_556
Ba0 O6 2.885228 1_456
Ba0 O3 2.885228 1_556
Ba1 O10 2.802081 1_555
Ba1 O10 2.802081 1_545
Ba1 O2 2.845644 1_555
Ba1 O7 2.845644 1_555
Ba1 O5 2.845644 1_545
Ba1 O0 2.845644 1_545
Ba1 O3 2.885228 1_546
Ba1 O6 2.885228 1_546
Ba1 O1 2.885228 1_556
Ba1 O4 2.885228 1_556
La0 O6 2.699261 1_545
La0 O3 2.699261 1_545
La0 O4 2.699261 1_555
La0 O1 2.699261 1_555
La0 O7 2.790342 1_555
La0 O2 2.790342 1_555
La0 O5 2.790342 1_545
La0 O0 2.790342 1_545
La0 O9 2.802014 1_655
La0 O9 2.802014 1_555
La0 O8 2.802080 1_555
La0 O8 2.802080 1_545
La1 O6 2.699261 1_455
La1 O3 2.699261 1_555
La1 O4 2.699261 1_455
La1 O1 2.699261 1_555
La1 O7 2.790342 1_555
La1 O5 2.790342 1_555
La1 O0 2.790342 1_455
La1 O2 2.790342 1_455
La1 O9 2.802014 1_555
La1 O9 2.802014 1_565
La1 O8 2.802080 1_555
La1 O8 2.802080 1_455
Fe0 O9 1.808617 1_555
Fe0 O7 1.910769 1_555
Fe0 O5 1.910769 1_545
Fe0 O2 1.910769 1_455
Fe0 O0 1.910769 1_445
Fe1 O10 1.936831 1_555
Fe1 O8 1.993169 1_556
Fe1 O3 2.021426 1_556
Fe1 O6 2.021426 1_556
Fe1 O4 2.021426 1_556
Fe1 O1 2.021426 1_556
Cu0 O9 1.922492 1_555
Cu0 O6 1.945372 1_445
Cu0 O1 1.945372 1_555
Cu0 O3 1.945372 1_545
Cu0 O4 1.945372 1_455
Cu1 O8 1.999541 1_555
Cu1 O10 2.005429 1_555
Cu1 O5 2.056792 1_555
Cu1 O2 2.056792 1_555
Cu1 O0 2.056792 1_555
Cu1 O7 2.056792 1_555
