# generated using pymatgen
data_YbAl3Au
_symmetry_space_group_name_H-M   'P 1'
_cell_length_a   6.62701678
_cell_length_b   6.62701678
_cell_length_c   6.62701678
_cell_angle_alpha   143.71910840
_cell_angle_beta   143.71910840
_cell_angle_gamma   52.24753093
_symmetry_Int_Tables_number   1
_chemical_formula_structural   YbAl3Au
_chemical_formula_sum   'Yb1 Al3 Au1'
_cell_volume   101.32249582
_cell_formula_units_Z   1
loop_
 _symmetry_equiv_pos_site_id
 _symmetry_equiv_pos_as_xyz
  1  'x, y, z'
loop_
 _atom_site_type_symbol
 _atom_site_label
 _atom_site_symmetry_multiplicity
 _atom_site_fract_x
 _atom_site_fract_y
 _atom_site_fract_z
 _atom_site_occupancy
  Yb  Yb0  1  0.00346400  0.00346400  0.00000000  1
  Al  Al0  1  0.74879900  0.24879900  0.50000000  1
  Al  Al1  1  0.24879900  0.74879900  0.50000000  1
  Al  Al2  1  0.39213400  0.39213400  0.00000000  1
  Au  Au0  1  0.60680400  0.60680400  0.00000000  1
loop_
_geom_bond_atom_site_label_1
_geom_bond_atom_site_label_2
_geom_bond_distance
_geom_bond_site_symmetry_2
Al0 Au0 2.666923 1_556
Al0 Au0 2.666923 1_545
Al1 Au0 2.666923 1_556
Al1 Au0 2.666923 1_455
Al2 Au0 2.554588 1_555
Al2 Yb0 3.204627 1_655
Al2 Yb0 3.204627 1_565
Al2 Yb0 3.204627 1_666
Al2 Yb0 3.204627 1_554
Au0 Yb0 3.166503 1_565
Au0 Yb0 3.166503 1_655
Au0 Yb0 3.166503 1_666
Au0 Yb0 3.166503 1_554
