# generated using pymatgen
data_Na5PrO6
_symmetry_space_group_name_H-M   'P 1'
_cell_length_a   6.02729042
_cell_length_b   6.02729042
_cell_length_c   11.36384490
_cell_angle_alpha   94.75957838
_cell_angle_beta   94.75957838
_cell_angle_gamma   120.27332728
_symmetry_Int_Tables_number   1
_chemical_formula_structural   Na5PrO6
_chemical_formula_sum   'Na10 Pr2 O12'
_cell_volume   351.54610052
_cell_formula_units_Z   2
loop_
 _symmetry_equiv_pos_site_id
 _symmetry_equiv_pos_as_xyz
  1  'x, y, z'
loop_
 _atom_site_type_symbol
 _atom_site_label
 _atom_site_symmetry_multiplicity
 _atom_site_fract_x
 _atom_site_fract_y
 _atom_site_fract_z
 _atom_site_occupancy
  Na  Na0  1  0.58007800  0.41992200  0.75000000  1
  Na  Na1  1  0.41992200  0.58007800  0.25000000  1
  Na  Na2  1  0.91610400  0.08389600  0.75000000  1
  Na  Na3  1  0.08389600  0.91610400  0.25000000  1
  Na  Na4  1  0.50000000  0.00000000  0.50000000  1
  Na  Na5  1  0.00000000  0.50000000  0.00000000  1
  Na  Na6  1  0.67374000  0.82577100  0.99768200  1
  Na  Na7  1  0.32626000  0.17422900  0.00231800  1
  Na  Na8  1  0.17422900  0.32626000  0.50231800  1
  Na  Na9  1  0.82577100  0.67374000  0.49768200  1
  Pr  Pr0  1  0.24748000  0.75252000  0.75000000  1
  Pr  Pr1  1  0.75252000  0.24748000  0.25000000  1
  O  O0  1  0.59968000  0.10615300  0.86875000  1
  O  O1  1  0.40032000  0.89384700  0.13125000  1
  O  O2  1  0.89384700  0.40032000  0.63125000  1
  O  O3  1  0.10615300  0.59968000  0.36875000  1
  O  O4  1  0.52201700  0.71103500  0.63031900  1
  O  O5  1  0.47798300  0.28896500  0.36968100  1
  O  O6  1  0.28896500  0.47798300  0.86968100  1
  O  O7  1  0.71103500  0.52201700  0.13031900  1
  O  O8  1  0.79229900  0.97430200  0.37118500  1
  O  O9  1  0.20770100  0.02569800  0.62881500  1
  O  O10  1  0.02569800  0.20770100  0.12881500  1
  O  O11  1  0.97430200  0.79229900  0.87118500  1
loop_
_geom_bond_atom_site_label_1
_geom_bond_atom_site_label_2
_geom_bond_distance
_geom_bond_site_symmetry_2
Na0 O6 2.446833 1_555
Na0 O4 2.446833 1_555
Na0 O2 2.456395 1_555
Na0 O0 2.456395 1_555
Na0 O9 2.479284 1_555
Na0 O11 2.479284 1_555
Na1 O5 2.446833 1_555
Na1 O7 2.446833 1_555
Na1 O1 2.456395 1_555
Na1 O3 2.456395 1_555
Na1 O10 2.479284 1_555
Na1 O8 2.479284 1_555
Na2 O9 2.459991 1_655
Na2 O11 2.459991 1_545
Na2 O4 2.473210 1_545
Na2 O6 2.473210 1_655
Na2 O0 2.476161 1_555
Na2 O2 2.476161 1_555
Na3 O10 2.459991 1_565
Na3 O8 2.459991 1_455
Na3 O5 2.473210 1_565
Na3 O7 2.473210 1_455
Na3 O1 2.476161 1_555
Na3 O3 2.476161 1_555
Na4 O4 2.423352 1_545
Na4 O5 2.423352 1_555
Na4 O9 2.436415 1_555
Na4 O8 2.436415 1_545
Na4 O2 2.592636 1_555
Na4 O3 2.592636 1_545
Na5 O6 2.423352 1_554
Na5 O7 2.423352 1_455
Na5 O10 2.436415 1_555
Na5 O11 2.436415 1_454
Na5 O1 2.592636 1_555
Na5 O0 2.592636 1_454
Na6 O6 2.433317 1_555
Na6 O10 2.449991 1_666
Na6 O11 2.478186 1_555
Na6 O1 2.486278 1_556
Na6 O0 2.502962 1_565
Na6 O7 2.547728 1_556
Na7 O7 2.433317 1_555
Na7 O11 2.449991 1_444
Na7 O10 2.478186 1_555
Na7 O0 2.486278 1_554
Na7 O1 2.502962 1_545
Na7 O6 2.547728 1_554
Na8 O4 2.433317 1_555
Na8 O8 2.449991 1_445
Na8 O9 2.478186 1_555
Na8 O3 2.486278 1_555
Na8 O2 2.502962 1_455
Na8 O5 2.547728 1_555
Na9 O5 2.433317 1_555
Na9 O9 2.449991 1_665
Na9 O8 2.478186 1_555
Na9 O2 2.486278 1_555
Na9 O3 2.502962 1_655
Na9 O4 2.547728 1_555
O0 Pr0 2.314245 1_545
O1 Pr1 2.314245 1_565
O2 Pr0 2.314245 1_655
O3 Pr1 2.314245 1_455
O4 Pr0 2.320451 1_555
O5 Pr1 2.320451 1_555
O6 Pr0 2.320451 1_555
O7 Pr1 2.320451 1_555
O8 Pr1 2.320458 1_565
O9 Pr0 2.320458 1_545
O10 Pr1 2.320458 1_455
O11 Pr0 2.320458 1_655
