# generated using pymatgen
data_NaFeRuO4
_symmetry_space_group_name_H-M   'P 1'
_cell_length_a   2.98617600
_cell_length_b   9.45333700
_cell_length_c   10.97484000
_cell_angle_alpha   90.00000000
_cell_angle_beta   90.00000000
_cell_angle_gamma   90.00000000
_symmetry_Int_Tables_number   1
_chemical_formula_structural   NaFeRuO4
_chemical_formula_sum   'Na4 Fe4 Ru4 O16'
_cell_volume   309.81235887
_cell_formula_units_Z   4
loop_
 _symmetry_equiv_pos_site_id
 _symmetry_equiv_pos_as_xyz
  1  'x, y, z'
loop_
 _atom_site_type_symbol
 _atom_site_label
 _atom_site_symmetry_multiplicity
 _atom_site_fract_x
 _atom_site_fract_y
 _atom_site_fract_z
 _atom_site_occupancy
  Na  Na0  1  0.25000000  0.23907700  0.65063400  1
  Na  Na1  1  0.25000000  0.73907700  0.84936600  1
  Na  Na2  1  0.75000000  0.76092300  0.34936600  1
  Na  Na3  1  0.75000000  0.26092300  0.15063400  1
  Fe  Fe0  1  0.25000000  0.08057600  0.40235700  1
  Fe  Fe1  1  0.25000000  0.58057600  0.09764300  1
  Fe  Fe2  1  0.75000000  0.91942400  0.59764300  1
  Fe  Fe3  1  0.75000000  0.41942400  0.90235700  1
  Ru  Ru0  1  0.25000000  0.05914500  0.87880800  1
  Ru  Ru1  1  0.25000000  0.55914500  0.62119200  1
  Ru  Ru2  1  0.75000000  0.94085500  0.12119200  1
  Ru  Ru3  1  0.75000000  0.44085500  0.37880800  1
  O  O0  1  0.25000000  0.96748900  0.71638600  1
  O  O1  1  0.25000000  0.46748900  0.78361400  1
  O  O2  1  0.75000000  0.03251100  0.28361400  1
  O  O3  1  0.75000000  0.53251100  0.21638600  1
  O  O4  1  0.25000000  0.88265200  0.47898200  1
  O  O5  1  0.25000000  0.38265200  0.02101800  1
  O  O6  1  0.75000000  0.11734800  0.52101800  1
  O  O7  1  0.75000000  0.61734800  0.97898200  1
  O  O8  1  0.25000000  0.30376900  0.34567800  1
  O  O9  1  0.25000000  0.80376900  0.15432200  1
  O  O10  1  0.75000000  0.69623100  0.65432200  1
  O  O11  1  0.75000000  0.19623100  0.84567800  1
  O  O12  1  0.25000000  0.07740800  0.06134100  1
  O  O13  1  0.25000000  0.57740800  0.43865900  1
  O  O14  1  0.75000000  0.92259200  0.93865900  1
  O  O15  1  0.75000000  0.42259200  0.56134100  1
loop_
_geom_bond_atom_site_label_1
_geom_bond_atom_site_label_2
_geom_bond_distance
_geom_bond_site_symmetry_2
Na0 O6 2.361583 1_555
Na0 O6 2.361583 1_455
Na0 O15 2.489839 1_455
Na0 O15 2.489839 1_555
Na0 O1 2.606210 1_555
Na0 O11 2.641105 1_555
Na0 O11 2.641105 1_455
Na0 O0 2.666897 1_545
Na1 O7 2.361583 1_555
Na1 O7 2.361583 1_455
Na1 O14 2.489839 1_555
Na1 O14 2.489839 1_455
Na1 O0 2.606210 1_555
Na1 O10 2.641105 1_555
Na1 O10 2.641105 1_455
Na1 O1 2.666897 1_555
Na2 O4 2.361583 1_655
Na2 O4 2.361583 1_555
Na2 O13 2.489839 1_555
Na2 O13 2.489839 1_655
Na2 O3 2.606210 1_555
Na2 O9 2.641105 1_555
Na2 O9 2.641105 1_655
Na2 O2 2.666897 1_565
Na3 O5 2.361583 1_555
Na3 O5 2.361583 1_655
Na3 O12 2.489839 1_555
Na3 O12 2.489839 1_655
Na3 O2 2.606210 1_555
Na3 O8 2.641105 1_555
Na3 O8 2.641105 1_655
Na3 O3 2.666897 1_555
Fe0 O6 2.011491 1_555
Fe0 O6 2.011491 1_455
Fe0 O2 2.033239 1_455
Fe0 O2 2.033239 1_555
Fe0 O4 2.051339 1_545
Fe0 O8 2.199703 1_555
Fe1 O7 2.011491 1_554
Fe1 O7 2.011491 1_454
Fe1 O3 2.033239 1_555
Fe1 O3 2.033239 1_455
Fe1 O5 2.051339 1_555
Fe1 O9 2.199703 1_555
Fe2 O4 2.011491 1_555
Fe2 O4 2.011491 1_655
Fe2 O0 2.033239 1_555
Fe2 O0 2.033239 1_655
Fe2 O6 2.051339 1_565
Fe2 O10 2.199703 1_555
Fe3 O5 2.011491 1_656
Fe3 O5 2.011491 1_556
Fe3 O1 2.033239 1_655
Fe3 O1 2.033239 1_555
Fe3 O7 2.051339 1_555
Fe3 O11 2.199703 1_555
O0 Ru0 1.981981 1_565
O1 Ru1 1.981981 1_555
O2 Ru2 1.981981 1_545
O3 Ru3 1.981981 1_555
O8 Ru3 2.010205 1_455
O8 Ru3 2.010205 1_555
O9 Ru2 2.010205 1_455
O9 Ru2 2.010205 1_555
O10 Ru1 2.010205 1_655
O10 Ru1 2.010205 1_555
O11 Ru0 2.010205 1_655
O11 Ru0 2.010205 1_555
O12 Ru0 2.010696 1_554
O12 Ru2 2.080179 1_445
O12 Ru2 2.080179 1_545
O13 Ru1 2.010696 1_555
O13 Ru3 2.080179 1_455
O13 Ru3 2.080179 1_555
O14 Ru2 2.010696 1_556
O14 Ru0 2.080179 1_565
O14 Ru0 2.080179 1_665
O15 Ru3 2.010696 1_555
O15 Ru1 2.080179 1_555
O15 Ru1 2.080179 1_655
