# generated using pymatgen
data_SrTb
_symmetry_space_group_name_H-M   'P 1'
_cell_length_a   7.63065605
_cell_length_b   7.63065605
_cell_length_c   12.71553800
_cell_angle_alpha   90.00000000
_cell_angle_beta   90.00000000
_cell_angle_gamma   120.00000042
_symmetry_Int_Tables_number   1
_chemical_formula_structural   SrTb
_chemical_formula_sum   'Sr8 Tb8'
_cell_volume   641.19352251
_cell_formula_units_Z   8
loop_
 _symmetry_equiv_pos_site_id
 _symmetry_equiv_pos_as_xyz
  1  'x, y, z'
loop_
 _atom_site_type_symbol
 _atom_site_label
 _atom_site_symmetry_multiplicity
 _atom_site_fract_x
 _atom_site_fract_y
 _atom_site_fract_z
 _atom_site_occupancy
  Sr  Sr0_0  1  0.33333350  0.16666650  0.25000000  1
  Sr  Sr0_1  1  0.33333350  0.16666650  0.75000000  1
  Sr  Sr0_2  1  0.33333350  0.66666650  0.25000000  1
  Sr  Sr0_3  1  0.33333350  0.66666650  0.75000000  1
  Sr  Sr0_4  1  0.83333350  0.16666650  0.25000000  1
  Sr  Sr0_5  1  0.83333350  0.16666650  0.75000000  1
  Sr  Sr0_6  1  0.83333350  0.66666650  0.25000000  1
  Sr  Sr0_7  1  0.83333350  0.66666650  0.75000000  1
  Tb  Tb0_0  1  0.16666650  0.33333350  0.00000000  1
  Tb  Tb0_1  1  0.16666650  0.33333350  0.50000000  1
  Tb  Tb0_2  1  0.16666650  0.83333350  0.00000000  1
  Tb  Tb0_3  1  0.16666650  0.83333350  0.50000000  1
  Tb  Tb0_4  1  0.66666650  0.33333350  0.00000000  1
  Tb  Tb0_5  1  0.66666650  0.33333350  0.50000000  1
  Tb  Tb0_6  1  0.66666650  0.83333350  0.00000000  1
  Tb  Tb0_7  1  0.66666650  0.83333350  0.50000000  1
loop_
_geom_bond_atom_site_label_1
_geom_bond_atom_site_label_2
_geom_bond_distance
_geom_bond_site_symmetry_2
Sr0_0 Sr0_6 3.815328 1_555
Sr0_0 Sr0_6 3.815328 1_445
Sr0_0 Sr0_2 3.815328 1_555
Sr0_0 Sr0_2 3.815328 1_545
Sr0_0 Sr0_4 3.815328 1_455
Sr0_0 Sr0_4 3.815328 1_555
Sr0_0 Tb0_3 3.867498 1_545
Sr0_0 Tb0_2 3.867498 1_545
Sr0_0 Tb0_5 3.867498 1_555
Sr0_0 Tb0_4 3.867498 1_555
Sr0_0 Tb0_0 3.867502 1_555
Sr0_0 Tb0_1 3.867502 1_555
Sr0_1 Sr0_7 3.815328 1_555
Sr0_1 Sr0_7 3.815328 1_445
Sr0_1 Sr0_3 3.815328 1_555
Sr0_1 Sr0_5 3.815328 1_555
Sr0_1 Sr0_5 3.815328 1_455
Sr0_1 Sr0_3 3.815328 1_545
Sr0_1 Tb0_3 3.867498 1_545
Sr0_1 Tb0_5 3.867498 1_555
Sr0_1 Tb0_4 3.867498 1_556
Sr0_1 Tb0_2 3.867498 1_546
Sr0_1 Tb0_1 3.867502 1_555
Sr0_1 Tb0_0 3.867502 1_556
Sr0_2 Sr0_4 3.815328 1_565
Sr0_2 Sr0_4 3.815328 1_455
Sr0_2 Sr0_6 3.815328 1_555
Sr0_2 Sr0_6 3.815328 1_455
Sr0_2 Tb0_6 3.867498 1_555
Sr0_2 Tb0_7 3.867498 1_555
Sr0_2 Tb0_0 3.867498 1_555
Sr0_2 Tb0_1 3.867498 1_555
Sr0_2 Tb0_2 3.867502 1_555
Sr0_2 Tb0_3 3.867502 1_555
Sr0_3 Sr0_5 3.815328 1_455
Sr0_3 Sr0_5 3.815328 1_565
Sr0_3 Sr0_7 3.815328 1_555
Sr0_3 Sr0_7 3.815328 1_455
Sr0_3 Tb0_7 3.867498 1_555
Sr0_3 Tb0_1 3.867498 1_555
Sr0_3 Tb0_6 3.867498 1_556
Sr0_3 Tb0_0 3.867498 1_556
Sr0_3 Tb0_3 3.867502 1_555
Sr0_3 Tb0_2 3.867502 1_556
Sr0_4 Sr0_6 3.815328 1_545
Sr0_4 Sr0_6 3.815328 1_555
Sr0_4 Tb0_0 3.867498 1_655
Sr0_4 Tb0_1 3.867498 1_655
Sr0_4 Tb0_7 3.867498 1_545
Sr0_4 Tb0_6 3.867498 1_545
Sr0_4 Tb0_4 3.867502 1_555
Sr0_4 Tb0_5 3.867502 1_555
Sr0_5 Sr0_7 3.815328 1_545
Sr0_5 Sr0_7 3.815328 1_555
Sr0_5 Tb0_1 3.867498 1_655
Sr0_5 Tb0_7 3.867498 1_545
Sr0_5 Tb0_0 3.867498 1_656
Sr0_5 Tb0_6 3.867498 1_546
Sr0_5 Tb0_5 3.867502 1_555
Sr0_5 Tb0_4 3.867502 1_556
Sr0_6 Tb0_5 3.867498 1_555
Sr0_6 Tb0_4 3.867498 1_555
Sr0_6 Tb0_2 3.867498 1_655
Sr0_6 Tb0_3 3.867498 1_655
Sr0_6 Tb0_7 3.867502 1_555
Sr0_6 Tb0_6 3.867502 1_555
Sr0_7 Tb0_5 3.867498 1_555
Sr0_7 Tb0_3 3.867498 1_655
Sr0_7 Tb0_4 3.867498 1_556
Sr0_7 Tb0_2 3.867498 1_656
Sr0_7 Tb0_7 3.867502 1_555
Sr0_7 Tb0_6 3.867502 1_556
Tb0_0 Tb0_6 3.815328 1_555
Tb0_0 Tb0_6 3.815328 1_445
Tb0_0 Tb0_2 3.815328 1_555
Tb0_0 Tb0_4 3.815328 1_455
Tb0_0 Tb0_4 3.815328 1_555
Tb0_0 Tb0_2 3.815328 1_545
Tb0_1 Tb0_7 3.815328 1_555
Tb0_1 Tb0_7 3.815328 1_445
Tb0_1 Tb0_3 3.815328 1_555
Tb0_1 Tb0_5 3.815328 1_455
Tb0_1 Tb0_5 3.815328 1_555
Tb0_1 Tb0_3 3.815328 1_545
Tb0_2 Tb0_4 3.815328 1_565
Tb0_2 Tb0_4 3.815328 1_455
Tb0_2 Tb0_6 3.815328 1_555
Tb0_2 Tb0_6 3.815328 1_455
Tb0_3 Tb0_5 3.815328 1_565
Tb0_3 Tb0_5 3.815328 1_455
Tb0_3 Tb0_7 3.815328 1_555
Tb0_3 Tb0_7 3.815328 1_455
Tb0_4 Tb0_6 3.815328 1_555
Tb0_4 Tb0_6 3.815328 1_545
Tb0_5 Tb0_7 3.815328 1_555
Tb0_5 Tb0_7 3.815328 1_545
