# generated using pymatgen
data_Mg3Si4
_symmetry_space_group_name_H-M   'P 1'
_cell_length_a   4.59812300
_cell_length_b   7.41712741
_cell_length_c   7.94203428
_cell_angle_alpha   67.29894195
_cell_angle_beta   88.35206815
_cell_angle_gamma   89.25119898
_symmetry_Int_Tables_number   1
_chemical_formula_structural   Mg3Si4
_chemical_formula_sum   'Mg6 Si8'
_cell_volume   249.77466360
_cell_formula_units_Z   2
loop_
 _symmetry_equiv_pos_site_id
 _symmetry_equiv_pos_as_xyz
  1  'x, y, z'
loop_
 _atom_site_type_symbol
 _atom_site_label
 _atom_site_symmetry_multiplicity
 _atom_site_fract_x
 _atom_site_fract_y
 _atom_site_fract_z
 _atom_site_occupancy
  Mg  Mg0  1  0.17866400  0.79848400  0.47817000  1
  Mg  Mg1  1  0.66984700  0.95966100  0.19198500  1
  Mg  Mg2  1  0.68915900  0.41784800  0.09860800  1
  Mg  Mg3  1  0.17847900  0.66486200  0.14869300  1
  Mg  Mg4  1  0.68188500  0.09368400  0.51858500  1
  Mg  Mg5  1  0.67602000  0.25857000  0.79773300  1
  Si  Si0  1  0.19229800  0.19846800  0.31768800  1
  Si  Si1  1  0.18243100  0.36356600  0.55779200  1
  Si  Si2  1  0.67718400  0.65233700  0.70458500  1
  Si  Si3  1  0.17758200  0.51025600  0.81598700  1
  Si  Si4  1  0.16666500  0.17010300  0.01438600  1
  Si  Si5  1  0.67272500  0.85186100  0.88209100  1
  Si  Si6  1  0.68864100  0.55637800  0.42599000  1
  Si  Si7  1  0.17495800  0.00406200  0.80098800  1
loop_
_geom_bond_atom_site_label_1
_geom_bond_atom_site_label_2
_geom_bond_distance
_geom_bond_site_symmetry_2
Mg0 Si3 2.709429 1_555
Mg0 Si0 2.740736 1_565
Mg0 Si2 2.836884 1_455
Mg0 Si2 2.886279 1_555
Mg0 Si6 3.034319 1_455
Mg0 Si1 3.038243 1_555
Mg0 Si6 3.050173 1_555
Mg0 Mg3 3.135496 1_555
Mg1 Si4 2.802325 1_665
Mg1 Si6 2.849634 1_555
Mg1 Si4 2.858848 1_565
Mg1 Si5 2.865953 1_554
Mg1 Mg5 3.059201 1_564
Mg1 Si0 3.176923 1_565
Mg1 Mg2 3.188420 1_565
Mg1 Mg3 3.279955 1_555
Mg1 Mg3 3.281675 1_655
Mg2 Si0 2.928805 1_555
Mg2 Si2 2.937222 1_554
Mg2 Si0 2.995868 1_655
Mg2 Si5 3.008985 1_554
Mg2 Si3 3.019031 1_654
Mg2 Mg5 3.049328 1_554
Mg2 Mg3 3.049419 1_655
Mg2 Si4 3.066530 1_655
Mg2 Mg3 3.070045 1_555
Mg2 Si6 3.142894 1_555
Mg2 Si3 3.180460 1_554
Mg2 Mg4 3.273099 1_555
Mg2 Si4 3.279103 1_555
Mg3 Si7 2.931688 1_564
Mg3 Si6 2.994146 1_455
Mg3 Si5 3.018377 1_554
Mg3 Si5 3.122048 1_454
Mg3 Si6 3.143301 1_555
Mg3 Si1 3.154204 1_555
Mg3 Si0 3.191824 1_555
Mg3 Si3 3.261380 1_554
Mg4 Si0 2.724207 1_555
Mg4 Si0 2.744644 1_655
Mg4 Si5 2.748045 1_545
Mg4 Mg5 2.915468 1_555
Mg4 Si2 3.027574 1_545
Mg4 Si7 3.081312 1_555
Mg4 Si1 3.114148 1_555
Mg4 Si7 3.116864 1_655
Mg4 Si1 3.169216 1_655
Mg4 Si6 3.220706 1_555
Mg5 Si2 2.722102 1_555
Mg5 Si4 2.791795 1_656
Mg5 Si4 2.795265 1_556
Mg5 Si5 2.826608 1_545
Mg5 Si1 2.882135 1_655
Mg5 Si1 2.906197 1_555
Mg5 Si6 2.925589 1_555
Mg5 Si7 2.946176 1_655
Mg5 Si3 2.972637 1_555
Mg5 Si7 2.990802 1_555
Mg5 Si3 3.027428 1_655
Si0 Si4 2.503753 1_555
Si0 Si1 2.633217 1_555
Si1 Si7 2.620171 1_555
Si1 Si3 2.666084 1_555
Si1 Si6 2.681889 1_455
Si1 Si6 2.711118 1_555
Si2 Si5 2.405363 1_555
Si2 Si3 2.529298 1_555
Si2 Si3 2.553725 1_655
Si2 Si6 2.571540 1_555
Si3 Si4 2.404372 1_556
Si4 Si7 2.448805 1_554
Si5 Si7 2.526636 1_565
Si5 Si7 2.538432 1_665
