# generated using pymatgen
data_NaCaBe2B2O6F
_symmetry_space_group_name_H-M   'P 1'
_cell_length_a   4.67895045
_cell_length_b   4.67895045
_cell_length_c   14.38470346
_cell_angle_alpha   89.97290685
_cell_angle_beta   89.97290685
_cell_angle_gamma   120.13567392
_symmetry_Int_Tables_number   1
_chemical_formula_structural   NaCaBe2B2O6F
_chemical_formula_sum   'Na2 Ca2 Be4 B4 O12 F2'
_cell_volume   272.35344667
_cell_formula_units_Z   2
loop_
 _symmetry_equiv_pos_site_id
 _symmetry_equiv_pos_as_xyz
  1  'x, y, z'
loop_
 _atom_site_type_symbol
 _atom_site_label
 _atom_site_symmetry_multiplicity
 _atom_site_fract_x
 _atom_site_fract_y
 _atom_site_fract_z
 _atom_site_occupancy
  Na  Na0  1  0.11318100  0.11656200  0.36453000  1
  Na  Na1  1  0.11656200  0.11318100  0.86453000  1
  Ca  Ca0  1  0.11155900  0.09619200  0.61224500  1
  Ca  Ca1  1  0.09619200  0.11155900  0.11224500  1
  Be  Be0  1  0.74931000  0.42739000  0.47444700  1
  Be  Be1  1  0.42739000  0.74931000  0.97444700  1
  Be  Be2  1  0.78404300  0.42343200  0.24895200  1
  Be  Be3  1  0.42343200  0.78404300  0.74895200  1
  B  B0  1  0.46568400  0.77169700  0.22215100  1
  B  B1  1  0.77169700  0.46568400  0.72215100  1
  B  B2  1  0.41858800  0.77566400  0.50049200  1
  B  B3  1  0.77566400  0.41858800  0.00049200  1
  O  O0  1  0.45512700  0.50113700  0.49709500  1
  O  O1  1  0.50113700  0.45512700  0.99709500  1
  O  O2  1  0.68403900  0.08471400  0.52078900  1
  O  O3  1  0.08471400  0.68403900  0.02078900  1
  O  O4  1  0.10939900  0.74347500  0.48816600  1
  O  O5  1  0.74347500  0.10939900  0.98816600  1
  O  O6  1  0.74345400  0.73717400  0.22826300  1
  O  O7  1  0.73717400  0.74345400  0.72826300  1
  O  O8  1  0.15706500  0.49784000  0.23449800  1
  O  O9  1  0.49784000  0.15706500  0.73449800  1
  O  O10  1  0.51333100  0.08085700  0.19885800  1
  O  O11  1  0.08085700  0.51333100  0.69885800  1
  F  F0  1  0.70522000  0.33046500  0.36111200  1
  F  F1  1  0.33046500  0.70522000  0.86111200  1
loop_
_geom_bond_atom_site_label_1
_geom_bond_atom_site_label_2
_geom_bond_distance
_geom_bond_site_symmetry_2
Na0 O4 2.485274 1_545
Na0 O8 2.520335 1_555
Na0 O0 2.559174 1_555
Na0 O6 2.628508 1_445
Na1 O5 2.485274 1_455
Na1 O9 2.520335 1_555
Na1 O1 2.559174 1_555
Na1 O7 2.628508 1_445
Ca0 O2 2.372692 1_455
Ca0 O11 2.380333 1_555
Ca0 O7 2.381039 1_445
Ca0 O0 2.419502 1_555
Ca0 O4 2.428055 1_545
Ca0 O9 2.434532 1_555
Ca1 O3 2.372692 1_545
Ca1 O10 2.380333 1_555
Ca1 O6 2.381039 1_445
Ca1 O1 2.419502 1_554
Ca1 O5 2.428055 1_454
Ca1 O8 2.434532 1_555
Be0 O4 1.601093 1_655
Be0 O0 1.611352 1_555
Be0 O2 1.617265 1_555
Be0 F0 1.677245 1_555
Be1 O5 1.601093 1_565
Be1 O1 1.611352 1_555
Be1 O3 1.617265 1_556
Be1 F1 1.677245 1_555
Be2 O6 1.599745 1_555
Be2 O8 1.612495 1_655
Be2 O10 1.629797 1_555
Be2 F0 1.663113 1_555
Be3 O7 1.599745 1_555
Be3 O9 1.612495 1_565
Be3 O11 1.629797 1_555
Be3 F1 1.663113 1_555
B0 O8 1.378500 1_555
B0 O10 1.389287 1_565
B0 O6 1.390634 1_555
B1 O9 1.378500 1_555
B1 O11 1.389287 1_655
B1 O7 1.390634 1_555
B2 O0 1.379169 1_555
B2 O2 1.384289 1_565
B2 O4 1.388702 1_555
B3 O1 1.379169 1_554
B3 O3 1.384289 1_655
B3 O5 1.388702 1_554
F0 Na0 2.427691 1_555
F0 Na0 2.562428 1_655
F1 Na1 2.427691 1_555
F1 Na1 2.562428 1_565
