# generated using pymatgen
data_Ba5Ho2ZrAl2O13
_symmetry_space_group_name_H-M   'P 1'
_cell_length_a   6.03317268
_cell_length_b   6.03317268
_cell_length_c   25.19068900
_cell_angle_alpha   90.00000000
_cell_angle_beta   90.00000000
_cell_angle_gamma   120.00000743
_symmetry_Int_Tables_number   1
_chemical_formula_structural   Ba5Ho2ZrAl2O13
_chemical_formula_sum   'Ba10 Ho4 Zr2 Al4 O26'
_cell_volume   794.07615798
_cell_formula_units_Z   2
loop_
 _symmetry_equiv_pos_site_id
 _symmetry_equiv_pos_as_xyz
  1  'x, y, z'
loop_
 _atom_site_type_symbol
 _atom_site_label
 _atom_site_symmetry_multiplicity
 _atom_site_fract_x
 _atom_site_fract_y
 _atom_site_fract_z
 _atom_site_occupancy
  Ba  Ba0  1  0.33333300  0.66666700  0.54247900  1
  Ba  Ba1  1  0.66666700  0.33333300  0.45752100  1
  Ba  Ba2  1  0.66666700  0.33333300  0.04247900  1
  Ba  Ba3  1  0.33333300  0.66666700  0.95752100  1
  Ba  Ba4  1  0.00000000  0.00000000  0.13832000  1
  Ba  Ba5  1  0.00000000  0.00000000  0.86168000  1
  Ba  Ba6  1  0.00000000  0.00000000  0.63832000  1
  Ba  Ba7  1  0.00000000  0.00000000  0.36168000  1
  Ba  Ba8  1  0.33333300  0.66666700  0.25000000  1
  Ba  Ba9  1  0.66666700  0.33333300  0.75000000  1
  Ho  Ho0  1  0.33333300  0.66666700  0.10371200  1
  Ho  Ho1  1  0.66666700  0.33333300  0.89628800  1
  Ho  Ho2  1  0.66666700  0.33333300  0.60371200  1
  Ho  Ho3  1  0.33333300  0.66666700  0.39628800  1
  Zr  Zr0  1  0.00000000  0.00000000  0.00000000  1
  Zr  Zr1  1  0.00000000  0.00000000  0.50000000  1
  Al  Al0  1  0.33333300  0.66666700  0.68118500  1
  Al  Al1  1  0.66666700  0.33333300  0.31881500  1
  Al  Al2  1  0.66666700  0.33333300  0.18118500  1
  Al  Al3  1  0.33333300  0.66666700  0.81881500  1
  O  O0  1  0.50544600  0.01089200  0.15841900  1
  O  O1  1  0.49455400  0.98910800  0.84158100  1
  O  O2  1  0.98910800  0.49455400  0.15841900  1
  O  O3  1  0.49455400  0.98910800  0.65841900  1
  O  O4  1  0.01089200  0.50544600  0.84158100  1
  O  O5  1  0.50544600  0.01089200  0.34158100  1
  O  O6  1  0.50544600  0.49455400  0.15841900  1
  O  O7  1  0.01089200  0.50544600  0.65841900  1
  O  O8  1  0.49455400  0.50544600  0.84158100  1
  O  O9  1  0.98910800  0.49455400  0.34158100  1
  O  O10  1  0.49455400  0.50544600  0.65841900  1
  O  O11  1  0.50544600  0.49455400  0.34158100  1
  O  O12  1  0.16219600  0.32439200  0.05072900  1
  O  O13  1  0.83780400  0.67560800  0.94927100  1
  O  O14  1  0.67560800  0.83780400  0.05072900  1
  O  O15  1  0.83780400  0.67560800  0.55072900  1
  O  O16  1  0.32439200  0.16219600  0.94927100  1
  O  O17  1  0.16219600  0.32439200  0.44927100  1
  O  O18  1  0.16219600  0.83780400  0.05072900  1
  O  O19  1  0.32439200  0.16219600  0.55072900  1
  O  O20  1  0.83780400  0.16219600  0.94927100  1
  O  O21  1  0.67560800  0.83780400  0.44927100  1
  O  O22  1  0.83780400  0.16219600  0.55072900  1
  O  O23  1  0.16219600  0.83780400  0.44927100  1
  O  O24  1  0.33333300  0.66666700  0.75000000  1
  O  O25  1  0.66666700  0.33333300  0.25000000  1
loop_
_geom_bond_atom_site_label_1
_geom_bond_atom_site_label_2
_geom_bond_distance
_geom_bond_site_symmetry_2
Ba0 O23 2.951465 1_555
Ba0 O21 2.951468 1_555
Ba0 O17 2.951468 1_555
Ba0 O19 3.024095 1_565
Ba0 O15 3.024095 1_455
Ba0 O22 3.024097 1_565
Ba0 O22 3.024097 1_455
Ba0 O15 3.024101 1_555
Ba0 O19 3.024101 1_555
Ba0 O3 3.371679 1_555
Ba0 O7 3.371679 1_555
Ba0 O10 3.371682 1_555
Ba1 O22 2.951465 1_555
Ba1 O15 2.951468 1_555
Ba1 O19 2.951468 1_555
Ba1 O17 3.024095 1_655
Ba1 O21 3.024095 1_545
Ba1 O23 3.024097 1_655
Ba1 O23 3.024097 1_545
Ba1 O21 3.024101 1_555
Ba1 O17 3.024101 1_555
Ba1 O9 3.371679 1_555
Ba1 O5 3.371679 1_555
Ba1 O11 3.371682 1_555
Ba2 O20 2.951465 1_554
Ba2 O13 2.951468 1_554
Ba2 O16 2.951468 1_554
Ba2 O12 3.024095 1_655
Ba2 O14 3.024095 1_545
Ba2 O18 3.024097 1_655
Ba2 O18 3.024097 1_545
Ba2 O14 3.024101 1_555
Ba2 O12 3.024101 1_555
Ba2 O2 3.371679 1_555
Ba2 O0 3.371679 1_555
Ba2 O6 3.371682 1_555
Ba3 O18 2.951465 1_556
Ba3 O14 2.951468 1_556
Ba3 O12 2.951468 1_556
Ba3 O16 3.024095 1_565
Ba3 O13 3.024095 1_455
Ba3 O20 3.024097 1_565
Ba3 O20 3.024097 1_455
Ba3 O13 3.024101 1_555
Ba3 O16 3.024101 1_555
Ba3 O1 3.371679 1_555
Ba3 O4 3.371679 1_555
Ba3 O8 3.371682 1_555
Ba4 O12 2.782312 1_555
Ba4 O14 2.782312 1_445
Ba4 O18 2.782312 1_545
Ba4 O6 3.059310 1_555
Ba4 O6 3.059310 1_445
Ba4 O2 3.059310 1_445
Ba4 O0 3.059310 1_555
Ba4 O0 3.059310 1_455
Ba4 O2 3.059310 1_455
Ba5 O16 2.782312 1_555
Ba5 O13 2.782312 1_445
Ba5 O20 2.782312 1_455
Ba5 O8 3.059310 1_555
Ba5 O8 3.059310 1_445
Ba5 O1 3.059310 1_445
Ba5 O4 3.059310 1_555
Ba5 O4 3.059310 1_545
Ba5 O1 3.059310 1_545
Ba6 O19 2.782312 1_555
Ba6 O15 2.782312 1_445
Ba6 O22 2.782312 1_455
Ba6 O10 3.059310 1_555
Ba6 O10 3.059310 1_445
Ba6 O3 3.059310 1_445
Ba6 O7 3.059310 1_555
Ba6 O7 3.059310 1_545
Ba6 O3 3.059310 1_545
Ba7 O17 2.782312 1_555
Ba7 O21 2.782312 1_445
Ba7 O23 2.782312 1_545
Ba7 O11 3.059310 1_555
Ba7 O11 3.059310 1_445
Ba7 O9 3.059310 1_445
Ba7 O5 3.059310 1_555
Ba7 O5 3.059310 1_455
Ba7 O9 3.059310 1_455
Ba8 O5 2.925222 1_565
Ba8 O9 2.925222 1_455
Ba8 O0 2.925222 1_565
Ba8 O2 2.925222 1_455
Ba8 O11 2.925225 1_555
Ba8 O6 2.925225 1_555
Ba9 O4 2.925222 1_655
Ba9 O1 2.925222 1_545
Ba9 O7 2.925222 1_655
Ba9 O3 2.925222 1_545
Ba9 O8 2.925225 1_555
Ba9 O10 2.925225 1_555
Ho0 O18 2.231486 1_555
Ho0 O14 2.231490 1_555
Ho0 O12 2.231490 1_555
Ho0 O0 2.265812 1_565
Ho0 O2 2.265812 1_455
Ho0 O6 2.265817 1_555
Ho1 O20 2.231486 1_555
Ho1 O13 2.231490 1_555
Ho1 O16 2.231490 1_555
Ho1 O4 2.265812 1_655
Ho1 O1 2.265812 1_545
Ho1 O8 2.265817 1_555
Ho2 O22 2.231486 1_555
Ho2 O15 2.231490 1_555
Ho2 O19 2.231490 1_555
Ho2 O7 2.265812 1_655
Ho2 O3 2.265812 1_545
Ho2 O10 2.265817 1_555
Ho3 O23 2.231486 1_555
Ho3 O21 2.231490 1_555
Ho3 O17 2.231490 1_555
Ho3 O5 2.265812 1_565
Ho3 O9 2.265812 1_455
Ho3 O11 2.265817 1_555
Al0 O24 1.733497 1_555
Al0 O3 1.779651 1_555
Al0 O7 1.779651 1_555
Al0 O10 1.779657 1_555
Al1 O25 1.733497 1_555
Al1 O9 1.779651 1_555
Al1 O5 1.779651 1_555
Al1 O11 1.779657 1_555
Al2 O25 1.733497 1_555
Al2 O2 1.779651 1_555
Al2 O0 1.779651 1_555
Al2 O6 1.779657 1_555
Al3 O24 1.733497 1_555
Al3 O1 1.779651 1_555
Al3 O4 1.779651 1_555
Al3 O8 1.779657 1_555
O12 Zr0 2.122673 1_555
O13 Zr0 2.122673 1_666
O14 Zr0 2.122673 1_665
O15 Zr1 2.122673 1_665
O16 Zr0 2.122673 1_556
O17 Zr1 2.122673 1_555
O18 Zr0 2.122674 1_565
O19 Zr1 2.122673 1_555
O20 Zr0 2.122674 1_656
O21 Zr1 2.122673 1_665
O22 Zr1 2.122674 1_655
O23 Zr1 2.122674 1_565
