# generated using pymatgen
data_Ti6Ga16Co7
_symmetry_space_group_name_H-M   'P 1'
_cell_length_a   8.35454299
_cell_length_b   8.35454299
_cell_length_c   8.35454299
_cell_angle_alpha   60.00000000
_cell_angle_beta   60.00000000
_cell_angle_gamma   60.00000000
_symmetry_Int_Tables_number   1
_chemical_formula_structural   Ti6Ga16Co7
_chemical_formula_sum   'Ti6 Ga16 Co7'
_cell_volume   412.33774933
_cell_formula_units_Z   1
loop_
 _symmetry_equiv_pos_site_id
 _symmetry_equiv_pos_as_xyz
  1  'x, y, z'
loop_
 _atom_site_type_symbol
 _atom_site_label
 _atom_site_symmetry_multiplicity
 _atom_site_fract_x
 _atom_site_fract_y
 _atom_site_fract_z
 _atom_site_occupancy
  Ti  Ti0  1  0.69345500  0.69345500  0.30654500  1
  Ti  Ti1  1  0.30654500  0.69345500  0.30654500  1
  Ti  Ti2  1  0.69345500  0.30654500  0.30654500  1
  Ti  Ti3  1  0.30654500  0.30654500  0.69345500  1
  Ti  Ti4  1  0.69345500  0.30654500  0.69345500  1
  Ti  Ti5  1  0.30654500  0.69345500  0.69345500  1
  Ga  Ga0  1  0.87877600  0.87877600  0.36367300  1
  Ga  Ga1  1  0.87877600  0.36367300  0.87877600  1
  Ga  Ga2  1  0.36367300  0.87877600  0.87877600  1
  Ga  Ga3  1  0.87877600  0.87877600  0.87877600  1
  Ga  Ga4  1  0.12122400  0.12122400  0.63632700  1
  Ga  Ga5  1  0.12122400  0.63632700  0.12122400  1
  Ga  Ga6  1  0.63632700  0.12122400  0.12122400  1
  Ga  Ga7  1  0.12122400  0.12122400  0.12122400  1
  Ga  Ga8  1  0.65423200  0.65423200  0.03730300  1
  Ga  Ga9  1  0.65423200  0.03730300  0.65423200  1
  Ga  Ga10  1  0.03730300  0.65423200  0.65423200  1
  Ga  Ga11  1  0.65423200  0.65423200  0.65423200  1
  Ga  Ga12  1  0.34576800  0.34576800  0.96269700  1
  Ga  Ga13  1  0.34576800  0.96269700  0.34576800  1
  Ga  Ga14  1  0.96269700  0.34576800  0.34576800  1
  Ga  Ga15  1  0.34576800  0.34576800  0.34576800  1
  Co  Co0  1  0.00000000  0.00000000  0.00000000  1
  Co  Co1  1  0.00000000  0.00000000  0.50000000  1
  Co  Co2  1  0.50000000  0.00000000  0.50000000  1
  Co  Co3  1  0.00000000  0.50000000  0.50000000  1
  Co  Co4  1  0.50000000  0.50000000  0.00000000  1
  Co  Co5  1  0.00000000  0.50000000  0.00000000  1
  Co  Co6  1  0.50000000  0.00000000  0.00000000  1
loop_
_geom_bond_atom_site_label_1
_geom_bond_atom_site_label_2
_geom_bond_distance
_geom_bond_site_symmetry_2
Ga0 Ga9 2.709723 1_565
Ga0 Ga10 2.709723 1_655
Ga0 Ga11 2.709733 1_555
Ga0 Ga7 2.864549 1_665
Ga0 Ga5 2.864561 1_655
Ga0 Ga6 2.864561 1_565
Ga0 Ti1 2.982802 1_655
Ga0 Ti2 2.982802 1_565
Ga0 Ti0 2.982809 1_555
Ga1 Ga8 2.709723 1_556
Ga1 Ga10 2.709723 1_655
Ga1 Ga11 2.709733 1_555
Ga1 Ga7 2.864549 1_656
Ga1 Ga4 2.864561 1_655
Ga1 Ga6 2.864561 1_556
Ga1 Ti3 2.982802 1_655
Ga1 Ti2 2.982802 1_556
Ga1 Ti4 2.982809 1_555
Ga2 Ga9 2.709723 1_565
Ga2 Ga8 2.709723 1_556
Ga2 Ga7 2.864549 1_566
Ga2 Ga4 2.864561 1_565
Ga2 Ga5 2.864561 1_556
Ga2 Ti3 2.982802 1_565
Ga2 Ti1 2.982802 1_556
Ga2 Ti5 2.982809 1_555
Ga3 Ga8 2.709736 1_556
Ga3 Ga9 2.709736 1_565
Ga3 Ga5 2.864549 1_656
Ga3 Ga6 2.864549 1_566
Ga3 Ga4 2.864549 1_665
Ga3 Ti5 2.982803 1_655
Ga3 Ti0 2.982803 1_556
Ga3 Ti4 2.982803 1_565
Ga4 Ti5 2.982802 1_545
Ga4 Ti4 2.982802 1_455
Ga4 Ti3 2.982809 1_555
Ga5 Ti5 2.982802 1_554
Ga5 Ti0 2.982802 1_455
Ga5 Ti1 2.982809 1_555
Ga6 Ti4 2.982802 1_554
Ga6 Ti0 2.982802 1_545
Ga6 Ti2 2.982809 1_555
Ga7 Ti2 2.982803 1_455
Ga7 Ti1 2.982803 1_545
Ga7 Ti3 2.982803 1_554
Ga8 Ti1 2.618415 1_555
Ga8 Ti2 2.618415 1_555
Ga8 Ti0 2.618420 1_555
Ga9 Ti3 2.618415 1_555
Ga9 Ti2 2.618415 1_555
Ga9 Ti4 2.618420 1_555
Ga10 Ti1 2.618415 1_555
Ga10 Ti3 2.618415 1_555
Ga10 Ti5 2.618420 1_555
Ga10 Ga3 2.709736 1_455
Ga11 Ti5 2.618412 1_555
Ga11 Ti0 2.618412 1_555
Ga11 Ti4 2.618412 1_555
Ga11 Ga2 2.709733 1_555
Ga12 Ti4 2.618415 1_555
Ga12 Ti5 2.618415 1_555
Ga12 Ti3 2.618420 1_555
Ga12 Ga6 2.709723 1_556
Ga12 Ga5 2.709723 1_556
Ga12 Ga7 2.709736 1_556
Ga13 Ti0 2.618415 1_555
Ga13 Ti5 2.618415 1_555
Ga13 Ti1 2.618420 1_555
Ga13 Ga4 2.709723 1_565
Ga13 Ga6 2.709723 1_565
Ga13 Ga7 2.709736 1_565
Ga14 Ti0 2.618415 1_555
Ga14 Ti4 2.618415 1_555
Ga14 Ti2 2.618420 1_555
Ga14 Ga4 2.709723 1_655
Ga14 Ga5 2.709723 1_655
Ga14 Ga7 2.709736 1_655
Ga15 Ti3 2.618412 1_555
Ga15 Ti1 2.618412 1_555
Ga15 Ti2 2.618412 1_555
Ga15 Ga6 2.709733 1_555
Ga15 Ga4 2.709733 1_555
Ga15 Ga5 2.709733 1_555
Co0 Ga3 2.480772 1_444
Co0 Ga7 2.480772 1_555
Co0 Ga2 2.480779 1_544
Co0 Ga0 2.480779 1_445
Co0 Ga1 2.480779 1_454
Co0 Ga6 2.480779 1_455
Co0 Ga5 2.480779 1_545
Co0 Ga4 2.480779 1_554
Co1 Ga14 2.425138 1_455
Co1 Ga13 2.425138 1_545
Co1 Ga10 2.425138 1_545
Co1 Ga9 2.425138 1_455
Co1 Ga4 2.584824 1_555
Co1 Ga0 2.584824 1_445
Co1 Ga3 2.584831 1_445
Co1 Ga7 2.584831 1_555
Co1 Ti5 3.028388 1_545
Co1 Ti4 3.028388 1_455
Co1 Ti2 3.028388 1_455
Co1 Ti1 3.028388 1_545
Co2 Ga9 2.425131 1_555
Co2 Ga13 2.425131 1_545
Co2 Ga15 2.425136 1_555
Co2 Ga11 2.425136 1_545
Co2 Ga4 2.584830 1_555
Co2 Ga6 2.584830 1_555
Co2 Ga0 2.584830 1_545
Co2 Ga2 2.584830 1_545
Co2 Ti2 3.028388 1_555
Co2 Ti3 3.028388 1_555
Co2 Ti5 3.028388 1_545
Co2 Ti0 3.028388 1_545
Co3 Ga10 2.425131 1_555
Co3 Ga14 2.425131 1_455
Co3 Ga15 2.425136 1_555
Co3 Ga11 2.425136 1_455
Co3 Ga5 2.584830 1_555
Co3 Ga4 2.584830 1_555
Co3 Ga0 2.584830 1_455
Co3 Ga1 2.584830 1_455
Co3 Ti1 3.028388 1_555
Co3 Ti3 3.028388 1_555
Co3 Ti0 3.028388 1_455
Co3 Ti4 3.028388 1_455
Co4 Ga8 2.425131 1_555
Co4 Ga12 2.425131 1_554
Co4 Ga15 2.425136 1_555
Co4 Ga11 2.425136 1_554
Co4 Ga5 2.584830 1_555
Co4 Ga6 2.584830 1_555
Co4 Ga1 2.584830 1_554
Co4 Ga2 2.584830 1_554
Co4 Ti1 3.028388 1_555
Co4 Ti2 3.028388 1_555
Co4 Ti5 3.028388 1_554
Co4 Ti4 3.028388 1_554
Co5 Ga12 2.425138 1_554
Co5 Ga14 2.425138 1_455
Co5 Ga10 2.425138 1_554
Co5 Ga8 2.425138 1_455
Co5 Ga5 2.584824 1_555
Co5 Ga1 2.584824 1_454
Co5 Ga3 2.584831 1_454
Co5 Ga7 2.584831 1_555
Co5 Ti0 3.028388 1_455
Co5 Ti5 3.028388 1_554
Co5 Ti3 3.028388 1_554
Co5 Ti2 3.028388 1_455
Co6 Ga12 2.425138 1_554
Co6 Ga13 2.425138 1_545
Co6 Ga9 2.425138 1_554
Co6 Ga8 2.425138 1_545
Co6 Ga6 2.584824 1_555
Co6 Ga2 2.584824 1_544
Co6 Ga3 2.584831 1_544
Co6 Ga7 2.584831 1_555
Co6 Ti4 3.028388 1_554
Co6 Ti0 3.028388 1_545
Co6 Ti1 3.028388 1_545
Co6 Ti3 3.028388 1_554
