# generated using pymatgen
data_Na3(CO3)2
_symmetry_space_group_name_H-M   'P 1'
_cell_length_a   10.37876264
_cell_length_b   10.37876264
_cell_length_c   9.67864549
_cell_angle_alpha   78.59507427
_cell_angle_beta   78.59507427
_cell_angle_gamma   20.56720231
_symmetry_Int_Tables_number   1
_chemical_formula_structural   Na3(CO3)2
_chemical_formula_sum   'Na6 C4 O12'
_cell_volume   358.78860752
_cell_formula_units_Z   2
loop_
 _symmetry_equiv_pos_site_id
 _symmetry_equiv_pos_as_xyz
  1  'x, y, z'
loop_
 _atom_site_type_symbol
 _atom_site_label
 _atom_site_symmetry_multiplicity
 _atom_site_fract_x
 _atom_site_fract_y
 _atom_site_fract_z
 _atom_site_occupancy
  Na  Na0  1  0.52252000  0.18171100  0.42883700  1
  Na  Na1  1  0.47748000  0.81828900  0.57116300  1
  Na  Na2  1  0.81828900  0.47748000  0.07116300  1
  Na  Na3  1  0.18171100  0.52252000  0.92883700  1
  Na  Na4  1  0.26442100  0.73557900  0.25000000  1
  Na  Na5  1  0.73557900  0.26442100  0.75000000  1
  C  C0  1  0.66910100  0.13481800  0.10133500  1
  C  C1  1  0.33089900  0.86518200  0.89866500  1
  C  C2  1  0.86518200  0.33089900  0.39866500  1
  C  C3  1  0.13481800  0.66910100  0.60133500  1
  O  O0  1  0.40973700  0.70760400  0.01153900  1
  O  O1  1  0.59026300  0.29239600  0.98846100  1
  O  O2  1  0.29239600  0.59026300  0.48846100  1
  O  O3  1  0.70760400  0.40973700  0.51153900  1
  O  O4  1  0.70166100  0.14028900  0.21978000  1
  O  O5  1  0.29833900  0.85971100  0.78022000  1
  O  O6  1  0.85971100  0.29833900  0.28022000  1
  O  O7  1  0.14028900  0.70166100  0.71978000  1
  O  O8  1  0.70065300  0.98323200  0.08818100  1
  O  O9  1  0.29934700  0.01676800  0.91181900  1
  O  O10  1  0.01676800  0.29934700  0.41181900  1
  O  O11  1  0.98323200  0.70065300  0.58818100  1
loop_
_geom_bond_atom_site_label_1
_geom_bond_atom_site_label_2
_geom_bond_distance
_geom_bond_site_symmetry_2
Na0 O4 2.257267 1_555
Na0 O11 2.310336 1_545
Na0 O2 2.340104 1_555
Na0 O11 2.477348 1_455
Na1 O5 2.257267 1_555
Na1 O10 2.310336 1_565
Na1 O3 2.340104 1_555
Na1 O10 2.477348 1_655
Na2 O6 2.257267 1_555
Na2 O9 2.310336 1_654
Na2 O0 2.340104 1_555
Na2 O9 2.477348 1_564
Na3 O7 2.257267 1_555
Na3 O8 2.310336 1_456
Na3 O1 2.340104 1_555
Na3 O8 2.477348 1_546
Na4 O2 2.398780 1_555
Na4 O0 2.398780 1_555
Na4 O4 2.468516 1_465
Na4 O6 2.468516 1_465
Na4 O4 2.557395 1_555
Na4 O6 2.557395 1_555
Na5 O1 2.398780 1_555
Na5 O3 2.398780 1_555
Na5 O7 2.468516 1_645
Na5 O5 2.468516 1_645
Na5 O7 2.557395 1_555
Na5 O5 2.557395 1_555
C0 O4 1.283165 1_555
C0 O1 1.295704 1_554
C0 O8 1.302552 1_545
C1 O5 1.283165 1_555
C1 O0 1.295704 1_556
C1 O9 1.302552 1_565
C2 O6 1.283165 1_555
C2 O3 1.295704 1_555
C2 O10 1.302552 1_655
C3 O7 1.283165 1_555
C3 O2 1.295704 1_555
C3 O11 1.302552 1_455
