# generated using pymatgen
data_Ta3InO9
_symmetry_space_group_name_H-M   'P 1'
_cell_length_a   6.39939900
_cell_length_b   7.64009200
_cell_length_c   12.71663900
_cell_angle_alpha   90.00000000
_cell_angle_beta   90.00000000
_cell_angle_gamma   90.00000000
_symmetry_Int_Tables_number   1
_chemical_formula_structural   Ta3InO9
_chemical_formula_sum   'Ta12 In4 O36'
_cell_volume   621.74187717
_cell_formula_units_Z   4
loop_
 _symmetry_equiv_pos_site_id
 _symmetry_equiv_pos_as_xyz
  1  'x, y, z'
loop_
 _atom_site_type_symbol
 _atom_site_label
 _atom_site_symmetry_multiplicity
 _atom_site_fract_x
 _atom_site_fract_y
 _atom_site_fract_z
 _atom_site_occupancy
  Ta  Ta0  1  0.00000000  0.00000000  0.00000000  1
  Ta  Ta1  1  0.00000000  0.50000000  0.00000000  1
  Ta  Ta2  1  0.20596700  0.00264300  0.71306900  1
  Ta  Ta3  1  0.20596700  0.49735700  0.71306900  1
  Ta  Ta4  1  0.29403300  0.50264300  0.21306900  1
  Ta  Ta5  1  0.29403300  0.99735700  0.21306900  1
  Ta  Ta6  1  0.50000000  0.00000000  0.50000000  1
  Ta  Ta7  1  0.50000000  0.50000000  0.50000000  1
  Ta  Ta8  1  0.70596700  0.00264300  0.78693100  1
  Ta  Ta9  1  0.70596700  0.49735700  0.78693100  1
  Ta  Ta10  1  0.79403300  0.50264300  0.28693100  1
  Ta  Ta11  1  0.79403300  0.99735700  0.28693100  1
  In  In0  1  0.05248200  0.25000000  0.45248700  1
  In  In1  1  0.44751800  0.75000000  0.95248700  1
  In  In2  1  0.55248200  0.25000000  0.04751300  1
  In  In3  1  0.94751800  0.75000000  0.54751300  1
  O  O0  1  0.01565300  0.04079600  0.84378700  1
  O  O1  1  0.01565300  0.45920300  0.84378700  1
  O  O2  1  0.09535400  0.75000000  0.97760800  1
  O  O3  1  0.10056600  0.03628900  0.33307300  1
  O  O4  1  0.10056600  0.46371100  0.33307300  1
  O  O5  1  0.16707700  0.25000000  0.67416300  1
  O  O6  1  0.21089900  0.75000000  0.70114600  1
  O  O7  1  0.20540600  0.54899400  0.53687800  1
  O  O8  1  0.20540600  0.95100600  0.53687800  1
  O  O9  1  0.29459400  0.04899400  0.03687800  1
  O  O10  1  0.29459400  0.45100600  0.03687800  1
  O  O11  1  0.28910100  0.25000000  0.20114600  1
  O  O12  1  0.33292300  0.75000000  0.17416300  1
  O  O13  1  0.39943400  0.53628900  0.83307300  1
  O  O14  1  0.39943400  0.96371100  0.83307300  1
  O  O15  1  0.40464600  0.25000000  0.47760800  1
  O  O16  1  0.48434700  0.54079700  0.34378700  1
  O  O17  1  0.48434700  0.95920300  0.34378700  1
  O  O18  1  0.51565300  0.04079600  0.65621300  1
  O  O19  1  0.51565300  0.45920300  0.65621300  1
  O  O20  1  0.59535400  0.75000000  0.52239200  1
  O  O21  1  0.60056600  0.03628900  0.16692700  1
  O  O22  1  0.60056600  0.46371100  0.16692700  1
  O  O23  1  0.66707700  0.25000000  0.82583700  1
  O  O24  1  0.71089900  0.75000000  0.79885400  1
  O  O25  1  0.70540600  0.54899400  0.96312200  1
  O  O26  1  0.70540600  0.95100600  0.96312200  1
  O  O27  1  0.79459400  0.04899400  0.46312200  1
  O  O28  1  0.79459400  0.45100600  0.46312200  1
  O  O29  1  0.78910100  0.25000000  0.29885400  1
  O  O30  1  0.83292300  0.75000000  0.32583700  1
  O  O31  1  0.89943400  0.53628900  0.66692700  1
  O  O32  1  0.89943400  0.96371100  0.66692700  1
  O  O33  1  0.90464600  0.25000000  0.02239200  1
  O  O34  1  0.98434700  0.54079700  0.15621300  1
  O  O35  1  0.98434700  0.95920300  0.15621300  1
loop_
_geom_bond_atom_site_label_1
_geom_bond_atom_site_label_2
_geom_bond_distance
_geom_bond_site_symmetry_2
In0 O4 2.250912 1_555
In0 O3 2.250912 1_555
In0 O28 2.258376 1_455
In0 O27 2.258376 1_455
In0 O15 2.276167 1_555
In1 O13 2.250912 1_555
In1 O14 2.250912 1_555
In1 O26 2.258376 1_555
In1 O25 2.258376 1_555
In1 O2 2.276167 1_555
In2 O22 2.250912 1_555
In2 O21 2.250912 1_555
In2 O10 2.258376 1_555
In2 O9 2.258376 1_555
In2 O33 2.276167 1_555
In3 O32 2.250912 1_555
In3 O31 2.250912 1_555
In3 O8 2.258376 1_655
In3 O7 2.258376 1_655
In3 O20 2.276167 1_555
O0 Ta0 2.013301 1_556
O0 Ta2 2.081215 1_555
O0 Ta8 2.129617 1_455
O1 Ta1 2.013302 1_556
O1 Ta3 2.081216 1_555
O1 Ta9 2.129618 1_455
O2 Ta0 2.025247 1_566
O2 Ta1 2.025247 1_556
O3 Ta5 1.987490 1_545
O3 Ta11 2.068998 1_445
O4 Ta4 1.987490 1_555
O4 Ta10 2.068998 1_455
O5 Ta2 1.969309 1_555
O5 Ta3 1.969309 1_555
O6 Ta2 1.936419 1_565
O6 Ta3 1.936419 1_555
O7 Ta7 1.978412 1_555
O7 Ta3 2.275027 1_555
O8 Ta6 1.978412 1_565
O8 Ta2 2.275027 1_565
O9 Ta0 1.978412 1_555
O9 Ta5 2.275027 1_545
O10 Ta1 1.978412 1_555
O10 Ta4 2.275027 1_555
O11 Ta4 1.936419 1_555
O11 Ta5 1.936419 1_545
O12 Ta5 1.969309 1_555
O12 Ta4 1.969309 1_555
O13 Ta3 1.987490 1_555
O13 Ta9 2.068998 1_555
O14 Ta2 1.987490 1_565
O14 Ta8 2.068998 1_565
O15 Ta7 2.025247 1_555
O15 Ta6 2.025247 1_555
O16 Ta7 2.013302 1_555
O16 Ta4 2.081216 1_555
O16 Ta10 2.129618 1_555
O17 Ta6 2.013302 1_565
O17 Ta5 2.081216 1_555
O17 Ta11 2.129618 1_555
O18 Ta6 2.013301 1_555
O18 Ta8 2.081215 1_555
O18 Ta2 2.129617 1_555
O19 Ta7 2.013302 1_555
O19 Ta9 2.081216 1_555
O19 Ta3 2.129618 1_555
O20 Ta6 2.025247 1_565
O20 Ta7 2.025247 1_555
O21 Ta11 1.987490 1_545
O21 Ta5 2.068998 1_545
O22 Ta10 1.987490 1_555
O22 Ta4 2.068998 1_555
O23 Ta8 1.969309 1_555
O23 Ta9 1.969309 1_555
O24 Ta8 1.936419 1_565
O24 Ta9 1.936419 1_555
O25 Ta1 1.978412 1_656
O25 Ta9 2.275027 1_555
O26 Ta0 1.978412 1_666
O26 Ta8 2.275027 1_565
O27 Ta6 1.978412 1_555
O27 Ta11 2.275027 1_545
O28 Ta7 1.978412 1_555
O28 Ta10 2.275027 1_555
O29 Ta10 1.936419 1_555
O29 Ta11 1.936419 1_545
O30 Ta11 1.969309 1_555
O30 Ta10 1.969309 1_555
O31 Ta9 1.987490 1_555
O31 Ta3 2.068998 1_655
O32 Ta8 1.987490 1_565
O32 Ta2 2.068998 1_665
O33 Ta1 2.025247 1_655
O33 Ta0 2.025247 1_655
O34 Ta1 2.013302 1_655
O34 Ta10 2.081216 1_555
O34 Ta4 2.129618 1_655
O35 Ta0 2.013302 1_665
O35 Ta11 2.081216 1_555
O35 Ta5 2.129618 1_655
