# generated using pymatgen
data_CaPr(MoO3)2
_symmetry_space_group_name_H-M   'P 1'
_cell_length_a   5.89726700
_cell_length_b   5.59928600
_cell_length_c   9.74215525
_cell_angle_alpha   55.36664039
_cell_angle_beta   90.00000000
_cell_angle_gamma   90.00000000
_symmetry_Int_Tables_number   1
_chemical_formula_structural   CaPr(MoO3)2
_chemical_formula_sum   'Ca2 Pr2 Mo4 O12'
_cell_volume   264.68890212
_cell_formula_units_Z   2
loop_
 _symmetry_equiv_pos_site_id
 _symmetry_equiv_pos_as_xyz
  1  'x, y, z'
loop_
 _atom_site_type_symbol
 _atom_site_label
 _atom_site_symmetry_multiplicity
 _atom_site_fract_x
 _atom_site_fract_y
 _atom_site_fract_z
 _atom_site_occupancy
  Ca  Ca0  1  0.80555800  0.23323600  0.24936800  1
  Ca  Ca1  1  0.19444200  0.23323600  0.74936800  1
  Pr  Pr0  1  0.30822200  0.76840800  0.25059000  1
  Pr  Pr1  1  0.69177800  0.76840800  0.75059000  1
  Mo  Mo0  1  0.75360500  0.99943600  0.00055500  1
  Mo  Mo1  1  0.75183500  0.50111500  0.49943400  1
  Mo  Mo2  1  0.24639500  0.99943600  0.50055500  1
  Mo  Mo3  1  0.24816500  0.50111500  0.99943400  1
  O  O0  1  0.79801800  0.35251000  0.75713100  1
  O  O1  1  0.04869400  0.13189100  0.06250700  1
  O  O2  1  0.05360500  0.75613400  0.44786000  1
  O  O3  1  0.54580300  0.86734000  0.43756900  1
  O  O4  1  0.55422400  0.24163600  0.05273600  1
  O  O5  1  0.29434500  0.64741600  0.74274300  1
  O  O6  1  0.20198200  0.35251000  0.25713100  1
  O  O7  1  0.94639500  0.75613400  0.94786000  1
  O  O8  1  0.95130600  0.13189100  0.56250700  1
  O  O9  1  0.45419700  0.86734000  0.93756900  1
  O  O10  1  0.44577600  0.24163600  0.55273600  1
  O  O11  1  0.70565500  0.64741600  0.24274300  1
loop_
_geom_bond_atom_site_label_1
_geom_bond_atom_site_label_2
_geom_bond_distance
_geom_bond_site_symmetry_2
Ca0 O11 2.357842 1_555
Ca0 O3 2.374018 1_545
Ca0 O4 2.401305 1_555
Ca0 O6 2.444288 1_655
Ca0 O1 2.620313 1_655
Ca0 O2 2.672813 1_645
Ca0 O7 2.848656 1_554
Ca0 O8 2.898200 1_555
Ca1 O5 2.357842 1_555
Ca1 O9 2.374018 1_545
Ca1 O10 2.401305 1_555
Ca1 O0 2.444288 1_455
Ca1 O8 2.620313 1_455
Ca1 O7 2.672813 1_445
Ca1 O2 2.848656 1_555
Ca1 O1 2.898200 1_556
Mo0 O7 2.051097 1_554
Mo0 O11 2.060557 1_555
Mo0 O4 2.064868 1_565
Mo0 O0 2.066861 1_564
Mo0 O1 2.109850 1_665
Mo0 O9 2.134745 1_554
Mo1 O8 2.142780 1_555
Mo1 O3 2.154000 1_555
Mo1 O2 2.154756 1_655
Mo1 O11 2.161104 1_555
Mo1 O0 2.166762 1_555
Mo1 O10 2.186485 1_555
Mo2 O2 2.051097 1_555
Mo2 O5 2.060557 1_555
Mo2 O10 2.064868 1_565
Mo2 O6 2.066861 1_565
Mo2 O8 2.109850 1_465
Mo2 O3 2.134745 1_555
Mo3 O1 2.142780 1_556
Mo3 O9 2.154000 1_555
Mo3 O7 2.154756 1_455
Mo3 O5 2.161104 1_555
Mo3 O6 2.166762 1_556
Mo3 O4 2.186485 1_556
O0 Pr1 2.377165 1_555
O1 Pr0 2.367126 1_545
O2 Pr0 2.408875 1_555
O3 Pr0 2.595183 1_555
O3 Pr1 2.902977 1_555
O4 Pr0 2.652502 1_545
O4 Pr1 2.855493 1_554
O5 Pr1 2.452942 1_555
O6 Pr0 2.377165 1_555
O7 Pr1 2.408875 1_555
O8 Pr1 2.367126 1_545
O9 Pr1 2.595183 1_555
O9 Pr0 2.902977 1_556
O10 Pr1 2.652502 1_545
O10 Pr0 2.855493 1_555
O11 Pr0 2.452942 1_555
