# generated using pymatgen
data_Er2TlCu3S5
_symmetry_space_group_name_H-M   'P 1'
_cell_length_a   7.17991349
_cell_length_b   7.17991349
_cell_length_c   16.31123300
_cell_angle_alpha   90.00000000
_cell_angle_beta   90.00000000
_cell_angle_gamma   148.40422328
_symmetry_Int_Tables_number   1
_chemical_formula_structural   Er2TlCu3S5
_chemical_formula_sum   'Er4 Tl2 Cu6 S10'
_cell_volume   440.54754113
_cell_formula_units_Z   2
loop_
 _symmetry_equiv_pos_site_id
 _symmetry_equiv_pos_as_xyz
  1  'x, y, z'
loop_
 _atom_site_type_symbol
 _atom_site_label
 _atom_site_symmetry_multiplicity
 _atom_site_fract_x
 _atom_site_fract_y
 _atom_site_fract_z
 _atom_site_occupancy
  Er  Er0  1  0.80833000  0.19167000  0.09371900  1
  Er  Er1  1  0.19167000  0.80833000  0.90628100  1
  Er  Er2  1  0.80833000  0.19167000  0.40628100  1
  Er  Er3  1  0.19167000  0.80833000  0.59371900  1
  Tl  Tl0  1  0.07093600  0.92906400  0.25000000  1
  Tl  Tl1  1  0.92906400  0.07093600  0.75000000  1
  Cu  Cu0  1  0.35282800  0.64717200  0.25000000  1
  Cu  Cu1  1  0.64717200  0.35282800  0.75000000  1
  Cu  Cu2  1  0.58287400  0.41712600  0.45907700  1
  Cu  Cu3  1  0.41712600  0.58287400  0.54092300  1
  Cu  Cu4  1  0.58287400  0.41712600  0.04092300  1
  Cu  Cu5  1  0.41712600  0.58287400  0.95907700  1
  S  S0  1  0.75888800  0.24111200  0.25000000  1
  S  S1  1  0.24111200  0.75888800  0.75000000  1
  S  S2  1  0.56148700  0.43851300  0.88473700  1
  S  S3  1  0.43851300  0.56148700  0.11526300  1
  S  S4  1  0.56148700  0.43851300  0.61526300  1
  S  S5  1  0.43851300  0.56148700  0.38473700  1
  S  S6  1  0.83163600  0.16836400  0.92981300  1
  S  S7  1  0.16836400  0.83163600  0.07018700  1
  S  S8  1  0.83163600  0.16836400  0.57018700  1
  S  S9  1  0.16836400  0.83163600  0.42981300  1
loop_
_geom_bond_atom_site_label_1
_geom_bond_atom_site_label_2
_geom_bond_distance
_geom_bond_site_symmetry_2
Er0 S0 2.639091 1_555
Er0 S3 2.679548 1_655
Er0 S3 2.679548 1_545
Er0 S6 2.692834 1_554
Er0 S7 2.776400 1_655
Er0 S7 2.776400 1_545
Er1 S1 2.639091 1_555
Er1 S2 2.679548 1_565
Er1 S2 2.679548 1_455
Er1 S7 2.692834 1_556
Er1 S6 2.776400 1_565
Er1 S6 2.776400 1_455
Er2 S0 2.639091 1_555
Er2 S5 2.679548 1_655
Er2 S5 2.679548 1_545
Er2 S8 2.692834 1_555
Er2 S9 2.776400 1_655
Er2 S9 2.776400 1_545
Er3 S1 2.639091 1_555
Er3 S4 2.679548 1_565
Er3 S4 2.679548 1_455
Er3 S9 2.692834 1_555
Er3 S8 2.776400 1_565
Er3 S8 2.776400 1_455
Cu0 S0 2.346414 1_455
Cu0 S0 2.346414 1_565
Cu0 S5 2.496344 1_555
Cu0 S3 2.496344 1_555
Cu1 S1 2.346414 1_545
Cu1 S1 2.346414 1_655
Cu1 S2 2.496344 1_555
Cu1 S4 2.496344 1_555
Cu2 S9 2.333245 1_655
Cu2 S9 2.333245 1_545
Cu2 S5 2.334344 1_555
Cu2 S4 2.564668 1_555
Cu3 S8 2.333245 1_565
Cu3 S8 2.333245 1_455
Cu3 S4 2.334344 1_555
Cu3 S5 2.564668 1_555
Cu4 S7 2.333245 1_655
Cu4 S7 2.333245 1_545
Cu4 S3 2.334344 1_555
Cu4 S2 2.564668 1_554
Cu5 S6 2.333245 1_565
Cu5 S6 2.333245 1_455
Cu5 S2 2.334344 1_555
Cu5 S3 2.564668 1_556
S0 Tl0 3.250432 1_655
S0 Tl0 3.250432 1_545
S1 Tl1 3.250432 1_565
S1 Tl1 3.250432 1_455
S6 Tl1 3.227164 1_555
S7 Tl0 3.227164 1_555
S8 Tl1 3.227164 1_555
S9 Tl0 3.227164 1_555
