# generated using pymatgen
data_LiMnV(PO4)3
_symmetry_space_group_name_H-M   'P 1'
_cell_length_a   8.88197551
_cell_length_b   8.29904355
_cell_length_c   8.40318086
_cell_angle_alpha   59.68852157
_cell_angle_beta   63.81118405
_cell_angle_gamma   90.54006686
_symmetry_Int_Tables_number   1
_chemical_formula_structural   LiMnV(PO4)3
_chemical_formula_sum   'Li2 Mn2 V2 P6 O24'
_cell_volume   457.78736908
_cell_formula_units_Z   2
loop_
 _symmetry_equiv_pos_site_id
 _symmetry_equiv_pos_as_xyz
  1  'x, y, z'
loop_
 _atom_site_type_symbol
 _atom_site_label
 _atom_site_symmetry_multiplicity
 _atom_site_fract_x
 _atom_site_fract_y
 _atom_site_fract_z
 _atom_site_occupancy
  Li  Li0  1  0.13763100  0.32952500  0.93610800  1
  Li  Li1  1  0.87422300  0.92576600  0.37422100  1
  Mn  Mn0  1  0.56909700  0.86166100  0.27906700  1
  Mn  Mn1  1  0.43449400  0.13790000  0.71093500  1
  V  V0  1  0.05068300  0.35384500  0.31323600  1
  V  V1  1  0.95127300  0.65180100  0.70368100  1
  P  P0  1  0.24533100  0.04431300  0.21965400  1
  P  P1  1  0.25800300  0.46965800  0.50005000  1
  P  P2  1  0.24993800  0.75007500  0.79330400  1
  P  P3  1  0.75144400  0.24868000  0.20729600  1
  P  P4  1  0.75208200  0.53051300  0.50148700  1
  P  P5  1  0.74960500  0.95812000  0.78479500  1
  O  O0  1  0.09116100  0.84516200  0.39033000  1
  O  O1  1  0.25100100  0.13111900  0.00819200  1
  O  O2  1  0.18585500  0.18772700  0.29313300  1
  O  O3  1  0.18497100  0.47699400  0.35651500  1
  O  O4  1  0.11558700  0.49365200  0.67499700  1
  O  O5  1  0.09728100  0.77471500  0.73658300  1
  O  O6  1  0.41687200  0.02232700  0.20996800  1
  O  O7  1  0.27392900  0.26694100  0.62468800  1
  O  O8  1  0.43015300  0.63363700  0.34811200  1
  O  O9  1  0.17905600  0.53252000  0.99962500  1
  O  O10  1  0.26003000  0.89266800  0.85431100  1
  O  O11  1  0.41443000  0.77155600  0.61101400  1
  O  O12  1  0.58932000  0.23324500  0.38396600  1
  O  O13  1  0.73705600  0.10094700  0.15116500  1
  O  O14  1  0.82262100  0.46039000  0.99240600  1
  O  O15  1  0.58056500  0.36805900  0.64430700  1
  O  O16  1  0.73559200  0.73634900  0.38289900  1
  O  O17  1  0.57597700  0.97546900  0.79379900  1
  O  O18  1  0.91085600  0.21777100  0.24719700  1
  O  O19  1  0.89669400  0.50656100  0.32602900  1
  O  O20  1  0.82480300  0.52716900  0.64336900  1
  O  O21  1  0.80994900  0.82210200  0.70018500  1
  O  O22  1  0.74549700  0.88224300  0.99081800  1
  O  O23  1  0.89639700  0.16422900  0.60139100  1
loop_
_geom_bond_atom_site_label_1
_geom_bond_atom_site_label_2
_geom_bond_distance
_geom_bond_site_symmetry_2
Li0 O1 1.911793 1_556
Li0 O4 2.018776 1_555
Li0 O9 2.080299 1_555
Li0 O18 2.149615 1_456
Li1 O16 1.939362 1_555
Li1 O18 2.045840 1_565
Li1 O0 2.083656 1_655
Li1 O21 2.191060 1_555
Mn0 O8 1.912178 1_555
Mn0 O13 1.923208 1_565
Mn0 O6 1.971939 1_565
Mn0 O16 2.069213 1_555
Mn0 O22 2.139775 1_554
Mn0 O11 2.172559 1_555
Mn1 O17 1.933391 1_545
Mn1 O10 1.952528 1_545
Mn1 O7 1.965615 1_555
Mn1 O15 1.969219 1_555
Mn1 O12 2.125164 1_555
Mn1 O1 2.271984 1_556
O0 P0 1.579503 1_565
O0 V1 1.965151 1_455
O1 P0 1.518963 1_555
O2 P0 1.594566 1_555
O2 V0 1.859522 1_555
O3 P1 1.580027 1_555
O3 V0 1.826063 1_555
O4 P1 1.568371 1_555
O4 V1 1.988870 1_455
O5 P2 1.607710 1_555
O5 V1 1.837117 1_455
O6 P0 1.507354 1_555
O7 P1 1.517878 1_555
O8 P1 1.517833 1_555
O9 P2 1.586662 1_555
O9 V0 1.953260 1_556
O10 P2 1.523870 1_555
O11 P2 1.502280 1_555
O12 P3 1.487142 1_555
O13 P3 1.541421 1_555
O14 P3 1.586300 1_556
O14 V1 1.828661 1_555
O15 P4 1.514279 1_555
O16 P4 1.532265 1_555
O17 P5 1.522137 1_555
O18 P3 1.588094 1_555
O18 V0 2.083295 1_655
O19 P4 1.578686 1_555
O19 V0 1.878551 1_655
O20 P4 1.576742 1_555
O20 V1 1.896902 1_555
O21 P5 1.597556 1_555
O21 V1 1.896861 1_555
O22 P5 1.496150 1_555
O23 P5 1.588815 1_545
O23 V0 1.844375 1_655
