# generated using pymatgen
data_AlVNi2
_symmetry_space_group_name_H-M   'P 1'
_cell_length_a   5.29629600
_cell_length_b   5.29629600
_cell_length_c   13.71212200
_cell_angle_alpha   90.00000000
_cell_angle_beta   90.00000000
_cell_angle_gamma   90.00000000
_symmetry_Int_Tables_number   1
_chemical_formula_structural   AlVNi2
_chemical_formula_sum   'Al8 V8 Ni16'
_cell_volume   384.63532429
_cell_formula_units_Z   8
loop_
 _symmetry_equiv_pos_site_id
 _symmetry_equiv_pos_as_xyz
  1  'x, y, z'
loop_
 _atom_site_type_symbol
 _atom_site_label
 _atom_site_symmetry_multiplicity
 _atom_site_fract_x
 _atom_site_fract_y
 _atom_site_fract_z
 _atom_site_occupancy
  Al  Al0_0  1  0.00000000  0.00000000  0.00000000  1
  Al  Al0_1  1  0.00000000  0.00000000  0.50000000  1
  Al  Al0_2  1  0.00000000  0.50000000  0.00000000  1
  Al  Al0_3  1  0.00000000  0.50000000  0.50000000  1
  Al  Al0_4  1  0.50000000  0.00000000  0.00000000  1
  Al  Al0_5  1  0.50000000  0.00000000  0.50000000  1
  Al  Al0_6  1  0.50000000  0.50000000  0.00000000  1
  Al  Al0_7  1  0.50000000  0.50000000  0.50000000  1
  V  V0_0  1  0.00000000  0.00000000  0.25000000  1
  V  V0_1  1  0.00000000  0.00000000  0.75000000  1
  V  V0_2  1  0.00000000  0.50000000  0.25000000  1
  V  V0_3  1  0.00000000  0.50000000  0.75000000  1
  V  V0_4  1  0.50000000  0.00000000  0.25000000  1
  V  V0_5  1  0.50000000  0.00000000  0.75000000  1
  V  V0_6  1  0.50000000  0.50000000  0.25000000  1
  V  V0_7  1  0.50000000  0.50000000  0.75000000  1
  Ni  Ni0_0  1  0.25000000  0.25000000  0.11955150  1
  Ni  Ni0_1  1  0.25000000  0.25000000  0.61955150  1
  Ni  Ni0_2  1  0.25000000  0.75000000  0.11955150  1
  Ni  Ni0_3  1  0.25000000  0.75000000  0.61955150  1
  Ni  Ni0_4  1  0.75000000  0.25000000  0.11955150  1
  Ni  Ni0_5  1  0.75000000  0.25000000  0.61955150  1
  Ni  Ni0_6  1  0.75000000  0.75000000  0.11955150  1
  Ni  Ni0_7  1  0.75000000  0.75000000  0.61955150  1
  Ni  Ni1_0  1  0.25000000  0.25000000  0.38044850  1
  Ni  Ni1_1  1  0.25000000  0.25000000  0.88044850  1
  Ni  Ni1_2  1  0.25000000  0.75000000  0.38044850  1
  Ni  Ni1_3  1  0.25000000  0.75000000  0.88044850  1
  Ni  Ni1_4  1  0.75000000  0.25000000  0.38044850  1
  Ni  Ni1_5  1  0.75000000  0.25000000  0.88044850  1
  Ni  Ni1_6  1  0.75000000  0.75000000  0.38044850  1
  Ni  Ni1_7  1  0.75000000  0.75000000  0.88044850  1
loop_
_geom_bond_atom_site_label_1
_geom_bond_atom_site_label_2
_geom_bond_distance
_geom_bond_site_symmetry_2
Al0_0 Ni0_2 2.488707 1_545
Al0_0 Ni0_6 2.488707 1_445
Al0_0 Ni0_0 2.488707 1_555
Al0_0 Ni0_4 2.488707 1_455
Al0_0 Ni1_7 2.488707 1_444
Al0_0 Ni1_3 2.488707 1_544
Al0_0 Ni1_5 2.488707 1_454
Al0_0 Ni1_1 2.488707 1_554
Al0_0 Al0_2 2.648148 1_555
Al0_0 Al0_2 2.648148 1_545
Al0_0 Al0_4 2.648148 1_455
Al0_0 Al0_4 2.648148 1_555
Al0_1 Ni0_7 2.488707 1_445
Al0_1 Ni0_1 2.488707 1_555
Al0_1 Ni0_5 2.488707 1_455
Al0_1 Ni0_3 2.488707 1_545
Al0_1 Ni1_2 2.488707 1_545
Al0_1 Ni1_4 2.488707 1_455
Al0_1 Ni1_0 2.488707 1_555
Al0_1 Ni1_6 2.488707 1_445
Al0_1 Al0_5 2.648148 1_555
Al0_1 Al0_5 2.648148 1_455
Al0_1 Al0_3 2.648148 1_555
Al0_1 Al0_3 2.648148 1_545
Al0_2 Ni0_2 2.488707 1_555
Al0_2 Ni0_6 2.488707 1_455
Al0_2 Ni0_0 2.488707 1_555
Al0_2 Ni0_4 2.488707 1_455
Al0_2 Ni1_7 2.488707 1_454
Al0_2 Ni1_5 2.488707 1_454
Al0_2 Ni1_3 2.488707 1_554
Al0_2 Ni1_1 2.488707 1_554
Al0_2 Al0_6 2.648148 1_555
Al0_2 Al0_6 2.648148 1_455
Al0_3 Ni0_1 2.488707 1_555
Al0_3 Ni0_5 2.488707 1_455
Al0_3 Ni0_3 2.488707 1_555
Al0_3 Ni0_7 2.488707 1_455
Al0_3 Ni1_4 2.488707 1_455
Al0_3 Ni1_0 2.488707 1_555
Al0_3 Ni1_2 2.488707 1_555
Al0_3 Ni1_6 2.488707 1_455
Al0_3 Al0_7 2.648148 1_455
Al0_3 Al0_7 2.648148 1_555
Al0_4 Ni0_2 2.488707 1_545
Al0_4 Ni0_0 2.488707 1_555
Al0_4 Ni0_6 2.488707 1_545
Al0_4 Ni0_4 2.488707 1_555
Al0_4 Ni1_3 2.488707 1_544
Al0_4 Ni1_5 2.488707 1_554
Al0_4 Ni1_1 2.488707 1_554
Al0_4 Ni1_7 2.488707 1_544
Al0_4 Al0_6 2.648148 1_545
Al0_4 Al0_6 2.648148 1_555
Al0_5 Ni0_7 2.488707 1_545
Al0_5 Ni0_1 2.488707 1_555
Al0_5 Ni0_5 2.488707 1_555
Al0_5 Ni0_3 2.488707 1_545
Al0_5 Ni1_2 2.488707 1_545
Al0_5 Ni1_6 2.488707 1_545
Al0_5 Ni1_0 2.488707 1_555
Al0_5 Ni1_4 2.488707 1_555
Al0_5 Al0_7 2.648148 1_555
Al0_5 Al0_7 2.648148 1_545
Al0_6 Ni0_2 2.488707 1_555
Al0_6 Ni0_6 2.488707 1_555
Al0_6 Ni0_0 2.488707 1_555
Al0_6 Ni0_4 2.488707 1_555
Al0_6 Ni1_5 2.488707 1_554
Al0_6 Ni1_3 2.488707 1_554
Al0_6 Ni1_1 2.488707 1_554
Al0_6 Ni1_7 2.488707 1_554
Al0_7 Ni0_7 2.488707 1_555
Al0_7 Ni0_1 2.488707 1_555
Al0_7 Ni0_5 2.488707 1_555
Al0_7 Ni0_3 2.488707 1_555
Al0_7 Ni1_0 2.488707 1_555
Al0_7 Ni1_6 2.488707 1_555
Al0_7 Ni1_2 2.488707 1_555
Al0_7 Ni1_4 2.488707 1_555
V0_0 V0_4 2.648148 1_455
V0_0 V0_2 2.648148 1_555
V0_0 V0_4 2.648148 1_555
V0_0 V0_2 2.648148 1_545
V0_1 V0_5 2.648148 1_455
V0_1 V0_5 2.648148 1_555
V0_1 V0_3 2.648148 1_545
V0_1 V0_3 2.648148 1_555
V0_2 V0_6 2.648148 1_555
V0_2 V0_6 2.648148 1_455
V0_3 V0_7 2.648148 1_455
V0_3 V0_7 2.648148 1_555
V0_4 V0_6 2.648148 1_555
V0_4 V0_6 2.648148 1_545
V0_5 V0_7 2.648148 1_555
V0_5 V0_7 2.648148 1_545
Ni0_0 V0_0 2.589572 1_555
Ni0_0 V0_2 2.589572 1_555
Ni0_0 V0_4 2.589572 1_555
Ni0_0 V0_6 2.589572 1_555
Ni0_0 Ni0_4 2.648148 1_555
Ni0_0 Ni0_4 2.648148 1_455
Ni0_0 Ni0_2 2.648148 1_545
Ni0_0 Ni0_2 2.648148 1_555
Ni0_1 V0_5 2.589572 1_555
Ni0_1 V0_7 2.589572 1_555
Ni0_1 V0_3 2.589572 1_555
Ni0_1 V0_1 2.589572 1_555
Ni0_1 Ni0_3 2.648148 1_545
Ni0_1 Ni0_5 2.648148 1_455
Ni0_1 Ni0_5 2.648148 1_555
Ni0_1 Ni0_3 2.648148 1_555
Ni0_2 V0_4 2.589572 1_565
Ni0_2 V0_2 2.589572 1_555
Ni0_2 V0_6 2.589572 1_555
Ni0_2 V0_0 2.589572 1_565
Ni0_2 Ni0_6 2.648148 1_555
Ni0_2 Ni0_6 2.648148 1_455
Ni0_3 V0_7 2.589572 1_555
Ni0_3 V0_3 2.589572 1_555
Ni0_3 V0_1 2.589572 1_565
Ni0_3 V0_5 2.589572 1_565
Ni0_3 Ni0_7 2.648148 1_455
Ni0_3 Ni0_7 2.648148 1_555
Ni0_4 V0_2 2.589572 1_655
Ni0_4 V0_4 2.589572 1_555
Ni0_4 V0_6 2.589572 1_555
Ni0_4 V0_0 2.589572 1_655
Ni0_4 Ni0_6 2.648148 1_545
Ni0_4 Ni0_6 2.648148 1_555
Ni0_5 V0_5 2.589572 1_555
Ni0_5 V0_7 2.589572 1_555
Ni0_5 V0_1 2.589572 1_655
Ni0_5 V0_3 2.589572 1_655
Ni0_5 Ni0_7 2.648148 1_555
Ni0_5 Ni0_7 2.648148 1_545
Ni0_6 V0_0 2.589572 1_665
Ni0_6 V0_4 2.589572 1_565
Ni0_6 V0_2 2.589572 1_655
Ni0_6 V0_6 2.589572 1_555
Ni0_7 V0_7 2.589572 1_555
Ni0_7 V0_1 2.589572 1_665
Ni0_7 V0_5 2.589572 1_565
Ni0_7 V0_3 2.589572 1_655
Ni1_0 V0_6 2.589572 1_555
Ni1_0 V0_0 2.589572 1_555
Ni1_0 V0_4 2.589572 1_555
Ni1_0 V0_2 2.589572 1_555
Ni1_0 Ni1_4 2.648148 1_555
Ni1_0 Ni1_2 2.648148 1_545
Ni1_0 Ni1_4 2.648148 1_455
Ni1_0 Ni1_2 2.648148 1_555
Ni1_1 V0_5 2.589572 1_555
Ni1_1 V0_1 2.589572 1_555
Ni1_1 V0_3 2.589572 1_555
Ni1_1 V0_7 2.589572 1_555
Ni1_1 Ni1_5 2.648148 1_455
Ni1_1 Ni1_3 2.648148 1_555
Ni1_1 Ni1_3 2.648148 1_545
Ni1_1 Ni1_5 2.648148 1_555
Ni1_2 V0_6 2.589572 1_555
Ni1_2 V0_0 2.589572 1_565
Ni1_2 V0_4 2.589572 1_565
Ni1_2 V0_2 2.589572 1_555
Ni1_2 Ni1_6 2.648148 1_455
Ni1_2 Ni1_6 2.648148 1_555
Ni1_3 V0_3 2.589572 1_555
Ni1_3 V0_1 2.589572 1_565
Ni1_3 V0_5 2.589572 1_565
Ni1_3 V0_7 2.589572 1_555
Ni1_3 Ni1_7 2.648148 1_455
Ni1_3 Ni1_7 2.648148 1_555
Ni1_4 V0_6 2.589572 1_555
Ni1_4 V0_0 2.589572 1_655
Ni1_4 V0_2 2.589572 1_655
Ni1_4 V0_4 2.589572 1_555
Ni1_4 Ni1_6 2.648148 1_545
Ni1_4 Ni1_6 2.648148 1_555
Ni1_5 V0_5 2.589572 1_555
Ni1_5 V0_1 2.589572 1_655
Ni1_5 V0_3 2.589572 1_655
Ni1_5 V0_7 2.589572 1_555
Ni1_5 Ni1_7 2.648148 1_555
Ni1_5 Ni1_7 2.648148 1_545
Ni1_6 V0_6 2.589572 1_555
Ni1_6 V0_4 2.589572 1_565
Ni1_6 V0_0 2.589572 1_665
Ni1_6 V0_2 2.589572 1_655
Ni1_7 V0_1 2.589572 1_665
Ni1_7 V0_3 2.589572 1_655
Ni1_7 V0_5 2.589572 1_565
Ni1_7 V0_7 2.589572 1_555
