# generated using pymatgen
data_SmTiFe11
_symmetry_space_group_name_H-M   'P 1'
_cell_length_a   4.71178800
_cell_length_b   6.48591216
_cell_length_c   6.48591216
_cell_angle_alpha   97.20522105
_cell_angle_beta   111.29884729
_cell_angle_gamma   68.70115271
_symmetry_Int_Tables_number   1
_chemical_formula_structural   SmTiFe11
_chemical_formula_sum   'Sm1 Ti1 Fe11'
_cell_volume   172.05466981
_cell_formula_units_Z   1
loop_
 _symmetry_equiv_pos_site_id
 _symmetry_equiv_pos_as_xyz
  1  'x, y, z'
loop_
 _atom_site_type_symbol
 _atom_site_label
 _atom_site_symmetry_multiplicity
 _atom_site_fract_x
 _atom_site_fract_y
 _atom_site_fract_z
 _atom_site_occupancy
  Sm  Sm0  1  0.00484200  0.99515800  0.00484200  1
  Ti  Ti0  1  0.63202300  0.36797700  0.63202300  1
  Fe  Fe0  1  0.49987400  0.99793000  0.49961900  1
  Fe  Fe1  1  0.00181500  0.99793000  0.49961900  1
  Fe  Fe2  1  0.49987400  0.50038100  0.00207000  1
  Fe  Fe3  1  0.00181500  0.50038100  0.00207000  1
  Fe  Fe4  1  0.73080400  0.76919600  0.23080400  1
  Fe  Fe5  1  0.27445000  0.22555000  0.77445000  1
  Fe  Fe6  1  0.49923000  0.77552200  0.77398100  1
  Fe  Fe7  1  0.49923000  0.22601900  0.22447800  1
  Fe  Fe8  1  0.35440700  0.64559300  0.35440700  1
  Fe  Fe9  1  0.00081800  0.35589700  0.35753400  1
  Fe  Fe10  1  0.00081800  0.64246600  0.64410300  1
loop_
_geom_bond_atom_site_label_1
_geom_bond_atom_site_label_2
_geom_bond_distance
_geom_bond_site_symmetry_2
Sm0 Ti0 3.174124 1_464
Fe0 Fe1 2.346748 1_555
Fe0 Fe1 2.365040 1_655
Fe0 Fe6 2.428675 1_555
Fe0 Fe4 2.445679 1_555
Fe0 Fe7 2.455230 1_565
Fe0 Fe5 2.461961 1_565
Fe0 Fe8 2.590002 1_555
Fe0 Fe10 2.597418 1_655
Fe0 Fe9 2.601043 1_565
Fe0 Ti0 2.658157 1_565
Fe0 Sm0 3.212057 1_555
Fe0 Sm0 3.273957 1_656
Fe1 Fe6 2.428677 1_555
Fe1 Fe4 2.445679 1_455
Fe1 Fe7 2.455228 1_465
Fe1 Fe5 2.461961 1_565
Fe1 Fe8 2.590002 1_555
Fe1 Fe10 2.597420 1_555
Fe1 Fe9 2.601041 1_565
Fe1 Ti0 2.658157 1_465
Fe1 Sm0 3.212057 1_555
Fe1 Sm0 3.273957 1_556
Fe2 Fe3 2.346748 1_555
Fe2 Fe3 2.365040 1_655
Fe2 Fe7 2.428675 1_555
Fe2 Fe4 2.445679 1_555
Fe2 Fe6 2.455230 1_554
Fe2 Fe5 2.461961 1_554
Fe2 Fe8 2.590002 1_555
Fe2 Fe9 2.597418 1_655
Fe2 Ti0 2.658157 1_554
Fe2 Sm0 3.212057 1_555
Fe2 Sm0 3.273957 1_645
Fe3 Fe7 2.428677 1_555
Fe3 Fe4 2.445679 1_455
Fe3 Fe6 2.455228 1_454
Fe3 Fe5 2.461961 1_554
Fe3 Fe8 2.590002 1_555
Fe3 Fe9 2.597420 1_555
Fe3 Ti0 2.658157 1_454
Fe3 Sm0 3.212057 1_555
Fe3 Sm0 3.273957 1_545
Fe4 Fe8 2.580242 1_655
Fe4 Fe8 2.580242 1_555
Fe4 Fe9 2.606805 1_655
Fe4 Fe7 2.760520 1_565
Fe4 Fe6 2.760520 1_554
Fe4 Sm0 3.041589 1_655
Fe4 Sm0 3.041589 1_555
Fe5 Fe9 2.634002 1_555
Fe5 Ti0 2.649649 1_555
Fe5 Ti0 2.649649 1_455
Fe5 Fe7 2.719504 1_556
Fe5 Fe6 2.719504 1_545
Fe5 Sm0 3.065584 1_646
Fe5 Sm0 3.065584 1_546
Fe6 Ti0 2.613959 1_555
Fe6 Fe8 2.659858 1_555
Fe6 Sm0 3.047264 1_656
Fe6 Sm0 3.047267 1_556
Fe7 Fe9 2.611925 1_655
Fe7 Fe9 2.611933 1_555
Fe7 Ti0 2.613959 1_555
Fe7 Fe8 2.659858 1_555
Fe7 Sm0 3.047264 1_645
Fe7 Sm0 3.047267 1_545
Fe8 Ti0 2.363580 1_555
Fe8 Fe9 2.935084 1_655
Fe8 Fe9 2.935087 1_555
Fe8 Sm0 2.976143 1_555
Fe9 Ti0 2.882482 1_455
Fe9 Ti0 2.882486 1_555
Fe9 Sm0 3.060089 1_545
Fe10 Fe9 2.458183 1_555
Fe10 Fe3 2.601041 1_556
Fe10 Fe2 2.601043 1_556
Fe10 Fe4 2.606805 1_455
Fe10 Fe6 2.611925 1_455
Fe10 Fe6 2.611933 1_555
Fe10 Fe5 2.634002 1_555
Fe10 Ti0 2.882482 1_455
Fe10 Ti0 2.882486 1_555
Fe10 Fe8 2.935084 1_455
Fe10 Fe8 2.935087 1_555
Fe10 Sm0 3.060089 1_556
