# generated using pymatgen
data_ScZnPd
_symmetry_space_group_name_H-M   'P 1'
_cell_length_a   5.03891994
_cell_length_b   5.03891994
_cell_length_c   5.25138069
_cell_angle_alpha   90.00000000
_cell_angle_beta   90.00000000
_cell_angle_gamma   129.57347063
_symmetry_Int_Tables_number   1
_chemical_formula_structural   ScZnPd
_chemical_formula_sum   'Sc2 Zn2 Pd2'
_cell_volume   102.77673173
_cell_formula_units_Z   2
loop_
 _symmetry_equiv_pos_site_id
 _symmetry_equiv_pos_as_xyz
  1  'x, y, z'
loop_
 _atom_site_type_symbol
 _atom_site_label
 _atom_site_symmetry_multiplicity
 _atom_site_fract_x
 _atom_site_fract_y
 _atom_site_fract_z
 _atom_site_occupancy
  Sc  Sc0  1  0.70683443  0.29316557  0.25000000  1
  Sc  Sc1  1  0.29316557  0.70683443  0.75000000  1
  Zn  Zn0  1  0.00000000  -0.00000000  0.50000000  1
  Zn  Zn1  1  0.00000000  -0.00000000  -0.00000000  1
  Pd  Pd0  1  0.40354371  0.59645629  0.25000000  1
  Pd  Pd1  1  0.59645629  0.40354371  0.75000000  1
loop_
_geom_bond_atom_site_label_1
_geom_bond_atom_site_label_2
_geom_bond_distance
_geom_bond_site_symmetry_2
Sc0 Zn1 2.978000 1_655
Sc0 Zn0 2.978000 1_655
Sc0 Zn0 3.144452 1_555
Sc0 Zn1 3.144452 1_555
Sc0 Zn1 3.144452 1_665
Sc0 Zn0 3.144452 1_665
Sc1 Zn1 2.978000 1_566
Sc1 Zn0 2.978000 1_565
Sc1 Zn1 3.144452 1_666
Sc1 Zn0 3.144452 1_665
Sc1 Zn0 3.144452 1_555
Sc1 Zn1 3.144452 1_556
Zn0 Zn1 2.625690 1_555
Zn0 Zn1 2.625690 1_556
Pd0 Zn1 2.665441 1_555
Pd0 Zn0 2.665441 1_665
Pd0 Zn1 2.665441 1_665
Pd0 Zn0 2.665441 1_555
Pd0 Sc0 2.765316 1_555
Pd0 Sc0 2.797202 1_565
Pd0 Sc0 2.797202 1_455
Pd0 Sc1 2.811953 1_554
Pd0 Sc1 2.811953 1_555
Pd1 Zn1 2.665441 1_666
Pd1 Zn1 2.665441 1_556
Pd1 Zn0 2.665441 1_665
Pd1 Zn0 2.665441 1_555
Pd1 Sc1 2.765316 1_555
Pd1 Sc1 2.797202 1_545
Pd1 Sc1 2.797202 1_655
Pd1 Sc0 2.811953 1_555
Pd1 Sc0 2.811953 1_556
