# generated using pymatgen
data_CeHgPd
_symmetry_space_group_name_H-M   'P 1'
_cell_length_a   7.80573158
_cell_length_b   7.80784897
_cell_length_c   3.96341113
_cell_angle_alpha   90.00000000
_cell_angle_beta   90.00000000
_cell_angle_gamma   120.00830831
_symmetry_Int_Tables_number   1
_chemical_formula_structural   CeHgPd
_chemical_formula_sum   'Ce3 Hg3 Pd3'
_cell_volume   209.17434022
_cell_formula_units_Z   3
loop_
 _symmetry_equiv_pos_site_id
 _symmetry_equiv_pos_as_xyz
  1  'x, y, z'
loop_
 _atom_site_type_symbol
 _atom_site_label
 _atom_site_symmetry_multiplicity
 _atom_site_fract_x
 _atom_site_fract_y
 _atom_site_fract_z
 _atom_site_occupancy
  Ce  Ce0  1  0.39954316  0.39980377  0.50000000  1
  Ce  Ce1  1  0.60018094  -0.00024227  0.50000000  1
  Ce  Ce2  1  0.00022968  0.60043685  0.50000000  1
  Hg  Hg0  1  0.73768436  0.73754207  0.00000000  1
  Hg  Hg1  1  0.26243163  0.00012171  -0.00000000  1
  Hg  Hg2  1  -0.00006319  0.26233580  -0.00000000  1
  Pd  Pd0  1  0.66680541  0.33340888  0.00000000  1
  Pd  Pd1  1  0.33318602  0.66669784  0.00000000  1
  Pd  Pd2  1  0.00000300  -0.00010364  0.50000000  1
loop_
_geom_bond_atom_site_label_1
_geom_bond_atom_site_label_2
_geom_bond_distance
_geom_bond_site_symmetry_2
Ce0 Pd1 3.101225 1_555
Ce0 Pd1 3.101225 1_556
Ce0 Pd0 3.103189 1_555
Ce0 Pd0 3.103189 1_556
Ce0 Pd2 3.120170 1_555
Ce0 Hg0 3.299340 1_555
Ce0 Hg0 3.299340 1_556
Ce0 Hg2 3.385253 1_555
Ce0 Hg2 3.385253 1_556
Ce0 Hg1 3.386793 1_556
Ce0 Hg1 3.386793 1_555
Ce1 Pd1 3.100338 1_545
Ce1 Pd1 3.100338 1_546
Ce1 Pd0 3.103066 1_555
Ce1 Pd0 3.103066 1_556
Ce1 Pd2 3.120362 1_655
Ce1 Hg1 3.299267 1_555
Ce1 Hg1 3.299267 1_556
Ce1 Hg2 3.386479 1_655
Ce1 Hg2 3.386479 1_656
Ce1 Hg0 3.386555 1_545
Ce1 Hg0 3.386555 1_546
Ce2 Pd1 3.099116 1_556
Ce2 Pd1 3.099116 1_555
Ce2 Pd0 3.101621 1_455
Ce2 Pd0 3.101621 1_456
Ce2 Pd2 3.119805 1_565
Ce2 Hg2 3.299984 1_555
Ce2 Hg2 3.299984 1_556
Ce2 Hg1 3.386157 1_565
Ce2 Hg1 3.386157 1_566
Ce2 Hg0 3.386351 1_455
Ce2 Hg0 3.386351 1_456
Hg0 Pd2 2.849637 1_665
Hg0 Pd2 2.849637 1_664
Hg0 Pd0 2.918306 1_555
Hg0 Pd1 2.920316 1_555
Hg1 Pd2 2.849507 1_554
Hg1 Pd2 2.849507 1_555
Hg1 Pd0 2.918715 1_555
Hg1 Pd1 2.918984 1_545
Hg2 Pd2 2.850785 1_555
Hg2 Pd2 2.850785 1_554
Hg2 Pd0 2.917712 1_455
Hg2 Pd1 2.918850 1_555
