# generated using pymatgen
data_Tb2Se3
_symmetry_space_group_name_H-M   'P 1'
_cell_length_a   4.03345508
_cell_length_b   11.00728583
_cell_length_c   11.15221221
_cell_angle_alpha   90.00000000
_cell_angle_beta   90.00000000
_cell_angle_gamma   90.00000000
_symmetry_Int_Tables_number   1
_chemical_formula_structural   Tb2Se3
_chemical_formula_sum   'Tb8 Se12'
_cell_volume   495.12914773
_cell_formula_units_Z   4
loop_
 _symmetry_equiv_pos_site_id
 _symmetry_equiv_pos_as_xyz
  1  'x, y, z'
loop_
 _atom_site_type_symbol
 _atom_site_label
 _atom_site_symmetry_multiplicity
 _atom_site_fract_x
 _atom_site_fract_y
 _atom_site_fract_z
 _atom_site_occupancy
  Tb  Tb0  1  0.25000000  0.18734973  0.48763666  1
  Tb  Tb1  1  0.75000000  0.81265027  0.51236334  1
  Tb  Tb2  1  0.75000000  0.68734973  0.01236334  1
  Tb  Tb3  1  0.25000000  0.31265027  0.98763666  1
  Tb  Tb4  1  0.25000000  -0.00234178  0.80673198  1
  Tb  Tb5  1  0.75000000  0.00234178  0.19326802  1
  Tb  Tb6  1  0.75000000  0.49765822  0.69326802  1
  Tb  Tb7  1  0.25000000  0.50234178  0.30673198  1
  Se  Se0  1  0.25000000  0.30463634  0.72636152  1
  Se  Se1  1  0.75000000  0.69536366  0.27363848  1
  Se  Se2  1  0.75000000  0.80463634  0.77363848  1
  Se  Se3  1  0.25000000  0.19536366  0.22636152  1
  Se  Se4  1  0.25000000  0.62592680  0.54537346  1
  Se  Se5  1  0.75000000  0.37407320  0.45462654  1
  Se  Se6  1  0.75000000  0.12592680  0.95462654  1
  Se  Se7  1  0.25000000  0.87407320  0.04537346  1
  Se  Se8  1  0.25000000  0.55585136  0.88135837  1
  Se  Se9  1  0.75000000  0.44414864  0.11864163  1
  Se  Se10  1  0.75000000  0.05585136  0.61864163  1
  Se  Se11  1  0.25000000  0.94414864  0.38135837  1
loop_
_geom_bond_atom_site_label_1
_geom_bond_atom_site_label_2
_geom_bond_distance
_geom_bond_site_symmetry_2
Se0 Tb3 2.915131 1_555
Se0 Tb6 2.952545 1_455
Se0 Tb6 2.952545 1_555
Se0 Tb0 2.958817 1_555
Se0 Tb4 3.495852 1_555
Se1 Tb2 2.915131 1_555
Se1 Tb7 2.952545 1_655
Se1 Tb7 2.952545 1_555
Se1 Tb1 2.958817 1_555
Se1 Tb5 3.495852 1_565
Se2 Tb1 2.915131 1_555
Se2 Tb4 2.952545 1_665
Se2 Tb4 2.952545 1_565
Se2 Tb2 2.958817 1_556
Se2 Tb6 3.495852 1_555
Se3 Tb0 2.915131 1_555
Se3 Tb5 2.952545 1_555
Se3 Tb5 2.952545 1_455
Se3 Tb3 2.958817 1_554
Se3 Tb7 3.495852 1_555
Se4 Tb1 2.902938 1_455
Se4 Tb1 2.902938 1_555
Se4 Tb6 2.963272 1_455
Se4 Tb6 2.963272 1_555
Se4 Tb7 2.988889 1_555
Se5 Tb0 2.902938 1_555
Se5 Tb0 2.902938 1_655
Se5 Tb7 2.963272 1_655
Se5 Tb7 2.963272 1_555
Se5 Tb6 2.988889 1_555
Se6 Tb3 2.902938 1_555
Se6 Tb3 2.902938 1_655
Se6 Tb4 2.963272 1_555
Se6 Tb4 2.963272 1_655
Se6 Tb5 2.988889 1_556
Se7 Tb2 2.902938 1_455
Se7 Tb2 2.902938 1_555
Se7 Tb5 2.963272 1_565
Se7 Tb5 2.963272 1_465
Se7 Tb4 2.988889 1_564
Se8 Tb2 2.880413 1_456
Se8 Tb2 2.880413 1_556
Se8 Tb3 2.927633 1_555
Se8 Tb6 2.979516 1_455
Se8 Tb6 2.979516 1_555
Se9 Tb3 2.880413 1_654
Se9 Tb3 2.880413 1_554
Se9 Tb2 2.927633 1_555
Se9 Tb7 2.979516 1_655
Se9 Tb7 2.979516 1_555
Se10 Tb0 2.880413 1_555
Se10 Tb0 2.880413 1_655
Se10 Tb1 2.927633 1_545
Se10 Tb4 2.979516 1_555
Se10 Tb4 2.979516 1_655
Se11 Tb1 2.880413 1_455
Se11 Tb1 2.880413 1_555
Se11 Tb0 2.927633 1_565
Se11 Tb5 2.979516 1_565
Se11 Tb5 2.979516 1_465
