# generated using pymatgen
data_SrEuSi4
_symmetry_space_group_name_H-M   'P 1'
_cell_length_a   7.52612437
_cell_length_b   7.52612242
_cell_length_c   7.52396234
_cell_angle_alpha   146.21577614
_cell_angle_beta   146.21583318
_cell_angle_gamma   48.52101077
_symmetry_Int_Tables_number   1
_chemical_formula_structural   SrEuSi4
_chemical_formula_sum   'Sr1 Eu1 Si4'
_cell_volume   131.21911768
_cell_formula_units_Z   1
loop_
 _symmetry_equiv_pos_site_id
 _symmetry_equiv_pos_as_xyz
  1  'x, y, z'
loop_
 _atom_site_type_symbol
 _atom_site_label
 _atom_site_symmetry_multiplicity
 _atom_site_fract_x
 _atom_site_fract_y
 _atom_site_fract_z
 _atom_site_occupancy
  Sr  Sr0  1  0.00007197  0.99992758  -0.00000034  1
  Eu  Eu0  1  0.24994232  0.75005826  0.49999981  1
  Si  Si0  1  0.66694917  0.16673686  0.50031521  1
  Si  Si1  1  0.58502750  0.58525377  -0.00035135  1
  Si  Si2  1  0.83326261  0.33305081  0.49968588  1
  Si  Si3  1  0.41474642  0.41497271  0.00035080  1
loop_
_geom_bond_atom_site_label_1
_geom_bond_atom_site_label_2
_geom_bond_distance
_geom_bond_site_symmetry_2
Eu0 Si1 3.143066 1_556
Eu0 Si3 3.143067 1_555
Eu0 Si3 3.146091 1_566
Eu0 Si1 3.146093 1_455
Eu0 Si2 3.296010 1_465
Eu0 Si0 3.296017 1_465
Eu0 Si2 3.296599 1_566
Eu0 Si0 3.296602 1_454
Eu0 Si2 3.296854 1_454
Eu0 Si0 3.296866 1_566
Eu0 Si2 3.297912 1_555
Eu0 Si0 3.297920 1_555
Si0 Si2 2.286629 1_555
Si0 Si1 2.454217 1_556
Si0 Si1 2.456131 1_545
Si0 Sr0 3.162980 1_646
Si0 Sr0 3.165771 1_545
Si1 Si3 2.341573 1_555
Si1 Sr0 3.305521 1_555
Si1 Sr0 3.306144 1_544
Si1 Sr0 3.306575 1_656
Si1 Sr0 3.307665 1_645
Si2 Si3 2.454224 1_555
Si2 Si3 2.456134 1_656
Si2 Sr0 3.162994 1_645
Si2 Sr0 3.165776 1_656
Si3 Sr0 3.305518 1_555
Si3 Sr0 3.306140 1_656
Si3 Sr0 3.306573 1_544
Si3 Sr0 3.307663 1_645
