# generated using pymatgen
data_Na2CaMg5Si8(O11F)2
_symmetry_space_group_name_H-M   'P 1'
_cell_length_a   5.32982900
_cell_length_b   9.97529675
_cell_length_c   10.38607962
_cell_angle_alpha   61.33675789
_cell_angle_beta   83.42323151
_cell_angle_gamma   76.22973041
_symmetry_Int_Tables_number   1
_chemical_formula_structural   Na2CaMg5Si8(O11F)2
_chemical_formula_sum   'Na2 Ca1 Mg5 Si8 O22 F2'
_cell_volume   470.59756396
_cell_formula_units_Z   1
loop_
 _symmetry_equiv_pos_site_id
 _symmetry_equiv_pos_as_xyz
  1  'x, y, z'
loop_
 _atom_site_type_symbol
 _atom_site_label
 _atom_site_symmetry_multiplicity
 _atom_site_fract_x
 _atom_site_fract_y
 _atom_site_fract_z
 _atom_site_occupancy
  Na  Na0  1  0.08381200  0.45596100  0.02351700  1
  Na  Na1  1  0.49996900  0.27574500  0.44986600  1
  Ca  Ca0  1  0.50015000  0.72421100  0.55257400  1
  Mg  Mg0  1  0.50066400  0.91103200  0.17629300  1
  Mg  Mg1  1  0.50046400  0.09015500  0.81855800  1
  Mg  Mg2  1  0.99989000  0.82170400  0.35585800  1
  Mg  Mg3  1  0.99960600  0.18236400  0.63545300  1
  Mg  Mg4  1  0.00003700  0.99988600  0.99894800  1
  Si  Si0  1  0.70706300  0.19404900  0.16866100  1
  Si  Si1  1  0.29364800  0.63719800  0.16879100  1
  Si  Si2  1  0.29233700  0.80572700  0.83229700  1
  Si  Si3  1  0.70821500  0.36181400  0.83210400  1
  Si  Si4  1  0.20191300  0.11549800  0.34232300  1
  Si  Si5  1  0.79839900  0.54189600  0.34116400  1
  Si  Si6  1  0.80038700  0.88450800  0.65990100  1
  Si  Si7  1  0.19991500  0.45538800  0.65912900  1
  O  O0  1  0.92153400  0.21876500  0.25249100  1
  O  O1  1  0.08066200  0.52775300  0.25335800  1
  O  O2  1  0.08709200  0.78090700  0.74225000  1
  O  O3  1  0.91445300  0.47611000  0.74323900  1
  O  O4  1  0.70493000  0.34041900  0.00015000  1
  O  O5  1  0.29471100  0.65898700  0.00012200  1
  O  O6  1  0.27713300  0.94752800  0.33956900  1
  O  O7  1  0.72387500  0.71255400  0.33961700  1
  O  O8  1  0.72910500  0.04781500  0.66601900  1
  O  O9  1  0.27183500  0.28577400  0.66621700  1
  O  O10  1  0.41435100  0.22564800  0.23227600  1
  O  O11  1  0.58199400  0.54108200  0.23558600  1
  O  O12  1  0.57878300  0.77598600  0.76021800  1
  O  O13  1  0.41859900  0.46276700  0.76299900  1
  O  O14  1  0.20306600  0.11206200  0.49643600  1
  O  O15  1  0.79844300  0.39187600  0.49655800  1
  O  O16  1  0.79698000  0.88023800  0.50692700  1
  O  O17  1  0.20405700  0.61297100  0.50733200  1
  O  O18  1  0.78350300  0.02597200  0.17027100  1
  O  O19  1  0.21605800  0.80432600  0.16968800  1
  O  O20  1  0.21757700  0.97232000  0.83218500  1
  O  O21  1  0.78260200  0.19566500  0.83173300  1
  F  F0  1  0.28872000  0.10196200  0.00079100  1
  F  F1  1  0.70946800  0.89937500  0.00053200  1
loop_
_geom_bond_atom_site_label_1
_geom_bond_atom_site_label_2
_geom_bond_distance
_geom_bond_site_symmetry_2
Na0 O5 2.444024 1_555
Na0 O4 2.637006 1_455
Na0 O0 2.665917 1_455
Na0 O10 2.693033 1_555
Na0 O1 2.799414 1_555
Na1 O15 2.387638 1_555
Na1 O14 2.387708 1_555
Na1 O9 2.463640 1_555
Na1 O8 2.471927 1_555
Na1 O11 2.612811 1_555
Na1 O10 2.644494 1_555
Ca0 O16 2.332943 1_555
Ca0 O17 2.333736 1_555
Ca0 O6 2.425614 1_555
Ca0 O7 2.429808 1_555
Ca0 O12 2.544001 1_555
Ca0 O13 2.573139 1_555
Ca0 O2 2.920627 1_555
Ca0 O3 2.936143 1_555
Mg0 O19 2.073942 1_555
Mg0 O18 2.079293 1_565
Mg0 O7 2.081292 1_555
Mg0 O6 2.085818 1_555
Mg1 O8 2.031748 1_555
Mg1 O9 2.035651 1_555
Mg1 O20 2.076099 1_545
Mg1 O21 2.080017 1_555
Mg2 O16 2.040071 1_555
Mg2 O17 2.040990 1_655
Mg2 O7 2.091334 1_555
Mg2 O6 2.099859 1_655
Mg2 O19 2.193708 1_655
Mg2 O18 2.195466 1_565
Mg3 O15 1.998431 1_555
Mg3 O14 2.000770 1_655
Mg3 O8 2.094840 1_555
Mg3 O9 2.099117 1_655
Mg3 O21 2.271001 1_555
Mg3 O20 2.278737 1_645
Mg4 O20 2.065167 1_555
Mg4 O21 2.074383 1_465
Mg4 O19 2.087011 1_556
Mg4 O18 2.096812 1_466
O0 Si0 1.641215 1_555
O0 Si4 1.682059 1_655
O1 Si1 1.641247 1_555
O1 Si5 1.680163 1_455
O2 Si2 1.648651 1_555
O2 Si6 1.683518 1_455
O3 Si3 1.647655 1_555
O3 Si7 1.685159 1_655
O4 Si3 1.652121 1_554
O4 Si0 1.655378 1_555
O5 Si2 1.652150 1_554
O5 Si1 1.658057 1_555
O6 Si4 1.640907 1_565
O7 Si5 1.646023 1_555
O8 Si6 1.612846 1_545
O9 Si7 1.610364 1_555
O10 Si0 1.642981 1_555
O10 Si4 1.699037 1_555
O11 Si1 1.633116 1_555
O11 Si5 1.683900 1_555
O12 Si2 1.647699 1_555
O12 Si6 1.702132 1_555
O13 Si3 1.652985 1_555
O13 Si7 1.712538 1_555
O14 Si4 1.585166 1_555
O15 Si5 1.589718 1_555
O16 Si6 1.611933 1_555
O17 Si7 1.608772 1_555
O18 Si0 1.620739 1_555
O19 Si1 1.623669 1_555
O20 Si2 1.613512 1_555
O21 Si3 1.611548 1_555
F0 Mg4 2.043488 1_544
F0 Mg0 2.083996 1_545
F0 Mg1 2.128628 1_554
F1 Mg4 2.030146 1_654
F1 Mg0 2.064229 1_555
F1 Mg1 2.111223 1_564
