# generated using pymatgen
data_Bi7O5F11
_symmetry_space_group_name_H-M   'P 1'
_cell_length_a   7.26683796
_cell_length_b   7.26683796
_cell_length_c   9.14882979
_cell_angle_alpha   84.79899037
_cell_angle_beta   84.79899037
_cell_angle_gamma   44.59016819
_symmetry_Int_Tables_number   1
_chemical_formula_structural   Bi7O5F11
_chemical_formula_sum   'Bi7 O5 F11'
_cell_volume   337.53455472
_cell_formula_units_Z   1
loop_
 _symmetry_equiv_pos_site_id
 _symmetry_equiv_pos_as_xyz
  1  'x, y, z'
loop_
 _atom_site_type_symbol
 _atom_site_label
 _atom_site_symmetry_multiplicity
 _atom_site_fract_x
 _atom_site_fract_y
 _atom_site_fract_z
 _atom_site_occupancy
  Bi  Bi0  1  0.56969640  0.56986081  0.78860569  1
  Bi  Bi1  1  0.43013919  0.43030360  0.21139431  1
  Bi  Bi2  1  0.31890128  0.29408741  0.63995382  1
  Bi  Bi3  1  0.70591259  0.68109872  0.36004618  1
  Bi  Bi4  1  0.10254843  0.89745157  0.50000000  1
  Bi  Bi5  1  0.95429509  0.79307772  0.92120201  1
  Bi  Bi6  1  0.20692228  0.04570491  0.07879799  1
  O  O0  1  0.29630292  0.70369708  -0.00000000  1
  O  O1  1  0.22444141  0.65805144  0.72465435  1
  O  O2  1  0.34194856  0.77555859  0.27534565  1
  O  O3  1  0.48367353  0.73291055  0.55196417  1
  O  O4  1  0.26708945  0.51632647  0.44803583  1
  F  F0  1  0.80266691  0.19733309  -0.00000000  1
  F  F1  1  0.71624994  0.16506859  0.71865281  1
  F  F2  1  0.83493141  0.28375006  0.28134719  1
  F  F3  1  0.68633568  0.96084052  0.48103879  1
  F  F4  1  0.03915948  0.31366432  0.51896121  1
  F  F5  1  0.64214087  0.73784899  0.03637041  1
  F  F6  1  0.26215101  0.35785913  0.96362959  1
  F  F7  1  0.27516205  0.01063724  0.80984632  1
  F  F8  1  0.98936276  0.72483795  0.19015368  1
  F  F9  1  0.89120899  0.61643921  0.74304978  1
  F  F10  1  0.38356079  0.10879101  0.25695022  1
loop_
_geom_bond_atom_site_label_1
_geom_bond_atom_site_label_2
_geom_bond_distance
_geom_bond_site_symmetry_2
Bi0 O1 2.226147 1_555
Bi0 F7 2.269667 1_565
Bi0 O3 2.281931 1_555
Bi0 O0 2.350673 1_556
Bi0 F1 2.439752 1_555
Bi0 F9 2.582862 1_555
Bi0 F0 2.655513 1_556
Bi1 O2 2.226147 1_555
Bi1 F8 2.269667 1_455
Bi1 O4 2.281931 1_555
Bi1 O0 2.350673 1_555
Bi1 F2 2.439752 1_555
Bi1 F10 2.582862 1_555
Bi1 F0 2.655513 1_555
Bi2 O4 2.138349 1_555
Bi2 F4 2.312035 1_555
Bi2 F9 2.352885 1_455
Bi2 O1 2.399235 1_555
Bi2 F3 2.415068 1_545
Bi2 F1 2.476616 1_555
Bi2 F7 2.649927 1_555
Bi3 O3 2.138349 1_555
Bi3 F3 2.312035 1_555
Bi3 F10 2.352885 1_565
Bi3 O2 2.399235 1_555
Bi3 F4 2.415068 1_655
Bi3 F2 2.476616 1_555
Bi3 F8 2.649927 1_555
Bi4 O4 2.178363 1_555
Bi4 O3 2.178363 1_555
Bi4 O1 2.349993 1_555
Bi4 O2 2.349993 1_555
Bi4 F3 2.736141 1_455
Bi4 F4 2.736141 1_565
Bi4 F2 2.752376 1_465
Bi4 F1 2.752376 1_465
Bi5 O1 2.233027 1_655
Bi5 F6 2.239518 1_655
Bi5 O0 2.249256 1_656
Bi5 F9 2.422235 1_555
Bi5 F0 2.448124 1_566
Bi5 F8 2.465328 1_556
Bi5 F1 2.597385 1_565
Bi5 F5 2.683924 1_556
Bi6 O2 2.233027 1_545
Bi6 F5 2.239518 1_545
Bi6 O0 2.249256 1_545
Bi6 F10 2.422235 1_555
Bi6 F0 2.448124 1_455
Bi6 F7 2.465328 1_554
Bi6 F2 2.597385 1_455
Bi6 F6 2.683924 1_554
