# generated using pymatgen
data_LaMg6W
_symmetry_space_group_name_H-M   'P 1'
_cell_length_a   5.15207700
_cell_length_b   6.01254800
_cell_length_c   11.76512600
_cell_angle_alpha   90.00000000
_cell_angle_beta   90.00000000
_cell_angle_gamma   90.00000000
_symmetry_Int_Tables_number   1
_chemical_formula_structural   LaMg6W
_chemical_formula_sum   'La2 Mg12 W2'
_cell_volume   364.44960535
_cell_formula_units_Z   2
loop_
 _symmetry_equiv_pos_site_id
 _symmetry_equiv_pos_as_xyz
  1  'x, y, z'
loop_
 _atom_site_type_symbol
 _atom_site_label
 _atom_site_symmetry_multiplicity
 _atom_site_fract_x
 _atom_site_fract_y
 _atom_site_fract_z
 _atom_site_occupancy
  La  La0  1  0.50000000  0.00000000  0.17436100  1
  La  La1  1  0.50000000  0.50000000  0.67436100  1
  Mg  Mg0  1  0.50000000  0.25085800  0.42276800  1
  Mg  Mg1  1  0.50000000  0.74914200  0.42276800  1
  Mg  Mg2  1  0.00000000  0.73280600  0.08328000  1
  Mg  Mg3  1  0.00000000  0.26719400  0.08328000  1
  Mg  Mg4  1  0.00000000  0.00000000  0.34185700  1
  Mg  Mg5  1  0.00000000  0.50000000  0.30670800  1
  Mg  Mg6  1  0.50000000  0.75085800  0.92276800  1
  Mg  Mg7  1  0.50000000  0.24914200  0.92276800  1
  Mg  Mg8  1  0.00000000  0.23280600  0.58328000  1
  Mg  Mg9  1  0.00000000  0.76719400  0.58328000  1
  Mg  Mg10  1  0.00000000  0.50000000  0.84185700  1
  Mg  Mg11  1  0.00000000  0.00000000  0.80670800  1
  W  W0  1  0.50000000  0.50000000  0.16497200  1
  W  W1  1  0.50000000  0.00000000  0.66497200  1
loop_
_geom_bond_atom_site_label_1
_geom_bond_atom_site_label_2
_geom_bond_distance
_geom_bond_site_symmetry_2
La0 W0 3.008303 1_545
La0 W0 3.008303 1_555
La0 Mg2 3.219496 1_645
La0 Mg2 3.219496 1_545
La0 Mg3 3.219496 1_655
La0 Mg3 3.219496 1_555
La0 Mg4 3.243345 1_655
La0 Mg4 3.243345 1_555
La0 Mg0 3.288798 1_555
La0 Mg1 3.288798 1_545
La0 Mg6 3.317481 1_544
La0 Mg7 3.317481 1_554
La1 W1 3.008303 1_555
La1 W1 3.008303 1_565
La1 Mg9 3.219496 1_655
La1 Mg8 3.219496 1_555
La1 Mg8 3.219496 1_655
La1 Mg9 3.219496 1_555
La1 Mg10 3.243345 1_555
La1 Mg10 3.243345 1_655
La1 Mg7 3.288798 1_555
La1 Mg6 3.288798 1_555
La1 Mg1 3.317481 1_555
La1 Mg0 3.317481 1_555
Mg0 Mg1 2.995956 1_555
Mg0 Mg1 3.016592 1_545
Mg0 Mg4 3.133225 1_555
Mg0 Mg4 3.133225 1_655
Mg0 Mg8 3.195931 1_555
Mg0 Mg8 3.195931 1_655
Mg0 W1 3.224120 1_555
Mg0 Mg5 3.277864 1_555
Mg0 Mg5 3.277864 1_655
Mg0 W0 3.382757 1_555
Mg1 Mg4 3.133225 1_565
Mg1 Mg4 3.133225 1_665
Mg1 Mg9 3.195931 1_555
Mg1 Mg9 3.195931 1_655
Mg1 W1 3.224120 1_565
Mg1 Mg5 3.277864 1_555
Mg1 Mg5 3.277864 1_655
Mg1 W0 3.382757 1_555
Mg2 W0 3.085294 1_455
Mg2 W0 3.085294 1_555
Mg2 Mg6 3.195931 1_554
Mg2 Mg6 3.195931 1_454
Mg2 Mg4 3.440323 1_565
Mg3 W0 3.085294 1_555
Mg3 W0 3.085294 1_455
Mg3 Mg7 3.195931 1_454
Mg3 Mg7 3.195931 1_554
Mg3 Mg4 3.440323 1_555
Mg4 Mg5 3.034583 1_545
Mg4 Mg5 3.034583 1_555
Mg4 Mg8 3.166549 1_555
Mg4 Mg9 3.166549 1_545
Mg5 W0 3.068659 1_455
Mg5 W0 3.068659 1_555
Mg6 Mg7 2.995956 1_565
Mg6 Mg7 3.016592 1_555
Mg6 W0 3.224120 1_556
Mg6 W1 3.382757 1_565
Mg7 W0 3.224120 1_556
Mg7 W1 3.382757 1_555
Mg8 W1 3.085294 1_555
Mg8 W1 3.085294 1_455
Mg9 W1 3.085294 1_565
Mg9 W1 3.085294 1_465
Mg10 Mg11 3.034583 1_565
Mg10 Mg11 3.034583 1_555
Mg10 Mg7 3.133225 1_455
Mg10 Mg6 3.133225 1_455
Mg10 Mg6 3.133225 1_555
Mg10 Mg7 3.133225 1_555
Mg10 Mg3 3.166549 1_556
Mg10 Mg2 3.166549 1_556
Mg10 Mg9 3.440323 1_555
Mg10 Mg8 3.440323 1_555
Mg11 W1 3.068659 1_555
Mg11 W1 3.068659 1_455
Mg11 Mg6 3.277864 1_445
Mg11 Mg6 3.277864 1_545
Mg11 Mg7 3.277864 1_555
Mg11 Mg7 3.277864 1_455
