# generated using pymatgen
data_SrCo6O11
_symmetry_space_group_name_H-M   'P 1'
_cell_length_a   5.58514051
_cell_length_b   5.58514056
_cell_length_c   12.29948065
_cell_angle_alpha   89.99993678
_cell_angle_beta   90.00003998
_cell_angle_gamma   120.00006226
_symmetry_Int_Tables_number   1
_chemical_formula_structural   SrCo6O11
_chemical_formula_sum   'Sr2 Co12 O22'
_cell_volume   332.26557203
_cell_formula_units_Z   2
loop_
 _symmetry_equiv_pos_site_id
 _symmetry_equiv_pos_as_xyz
  1  'x, y, z'
loop_
 _atom_site_type_symbol
 _atom_site_label
 _atom_site_symmetry_multiplicity
 _atom_site_fract_x
 _atom_site_fract_y
 _atom_site_fract_z
 _atom_site_occupancy
  Sr  Sr0  1  0.66666556  0.33333436  0.74999235  1
  Sr  Sr1  1  0.33333433  0.66666542  0.25000699  1
  Co  Co0  1  0.33333339  0.66666682  0.74999451  1
  Co  Co1  1  0.66666679  0.33333316  0.25000438  1
  Co  Co2  1  0.00000072  0.99999884  0.35341310  1
  Co  Co3  1  -0.00000001  -0.00000016  0.85341632  1
  Co  Co4  1  0.99999951  0.00000085  0.64657934  1
  Co  Co5  1  -0.00000077  0.00000088  0.14659247  1
  Co  Co6  1  0.50000100  0.50000015  0.49999546  1
  Co  Co7  1  -0.00000028  0.49999934  0.00000396  1
  Co  Co8  1  0.49999955  0.00000033  0.00000396  1
  Co  Co9  1  0.49999987  0.00000064  0.49999546  1
  Co  Co10  1  -0.00000063  0.49999903  0.49999548  1
  Co  Co11  1  0.50000097  0.50000015  0.00000401  1
  O  O0  1  0.66666661  0.33333342  0.08516829  1
  O  O1  1  0.33333324  0.66666675  0.58516292  1
  O  O2  1  0.33333362  0.66666654  0.91483457  1
  O  O3  1  0.66666696  0.33333313  0.41483304  1
  O  O4  1  0.85474926  0.14525010  0.25000433  1
  O  O5  1  0.70949983  0.85474963  0.74999703  1
  O  O6  1  0.14525101  0.29050029  0.74999704  1
  O  O7  1  0.85474885  0.70949850  0.25000369  1
  O  O8  1  0.29050138  0.14525151  0.25000370  1
  O  O9  1  0.14524936  0.85475026  0.74999656  1
  O  O10  1  0.17474225  0.34948177  0.42063517  1
  O  O11  1  0.65051851  0.82525818  0.42063549  1
  O  O12  1  0.17474100  0.82525830  0.42063596  1
  O  O13  1  0.82525522  0.17474416  0.92063463  1
  O  O14  1  0.17474255  0.82525713  0.07936849  1
  O  O15  1  0.34948201  0.17474230  0.57936192  1
  O  O16  1  0.82525812  0.65051775  0.57936221  1
  O  O17  1  0.17474074  0.34948317  0.07936671  1
  O  O18  1  0.65051678  0.82525970  0.07936684  1
  O  O19  1  0.34948641  0.17474254  0.92063603  1
  O  O20  1  0.82525785  0.65051372  0.92063617  1
  O  O21  1  0.82525849  0.17474135  0.57936143  1
loop_
_geom_bond_atom_site_label_1
_geom_bond_atom_site_label_2
_geom_bond_distance
_geom_bond_site_symmetry_2
Co0 O5 1.819468 1_555
Co0 O6 1.819469 1_555
Co0 O9 1.819475 1_555
Co0 O1 2.027343 1_555
Co0 O2 2.027447 1_555
Co1 O7 1.819463 1_555
Co1 O8 1.819463 1_555
Co1 O4 1.819466 1_555
Co1 O3 2.027307 1_555
Co1 O0 2.027398 1_555
Co2 O12 1.881765 1_555
Co2 O11 1.881768 1_455
Co2 O10 1.881770 1_565
Co2 O7 1.895265 1_455
Co2 O8 1.895265 1_565
Co2 O4 1.895267 1_465
Co3 O20 1.881771 1_445
Co3 O19 1.881772 1_555
Co3 O13 1.881778 1_455
Co3 O5 1.895345 1_445
Co3 O6 1.895345 1_555
Co3 O9 1.895346 1_545
Co4 O21 1.881742 1_555
Co4 O15 1.881743 1_655
Co4 O16 1.881744 1_545
Co4 O9 1.895329 1_645
Co4 O6 1.895330 1_655
Co4 O5 1.895330 1_545
Co5 O17 1.881786 1_555
Co5 O18 1.881787 1_445
Co5 O14 1.881800 1_545
Co5 O4 1.895282 1_455
Co5 O8 1.895285 1_555
Co5 O7 1.895285 1_445
Co6 O11 1.852667 1_555
Co6 O10 1.852672 1_555
Co6 O16 1.852707 1_555
Co6 O15 1.852708 1_555
Co6 O3 1.922665 1_555
Co6 O1 1.922705 1_555
Co7 O17 1.852682 1_555
Co7 O14 1.852697 1_555
Co7 O20 1.852712 1_454
Co7 O13 1.852718 1_454
Co7 O0 1.922676 1_455
Co7 O2 1.922714 1_554
Co8 O18 1.852686 1_545
Co8 O14 1.852693 1_545
Co8 O19 1.852709 1_554
Co8 O13 1.852719 1_554
Co8 O0 1.922677 1_555
Co8 O2 1.922714 1_544
Co9 O12 1.852668 1_545
Co9 O11 1.852682 1_545
Co9 O21 1.852708 1_555
Co9 O15 1.852718 1_555
Co9 O3 1.922660 1_555
Co9 O1 1.922700 1_545
Co10 O12 1.852669 1_555
Co10 O10 1.852681 1_555
Co10 O21 1.852704 1_455
Co10 O16 1.852721 1_455
Co10 O3 1.922661 1_455
Co10 O1 1.922700 1_555
Co11 O18 1.852693 1_555
Co11 O17 1.852695 1_555
Co11 O20 1.852715 1_554
Co11 O19 1.852719 1_554
Co11 O0 1.922673 1_555
Co11 O2 1.922713 1_554
O4 Sr1 2.800240 1_545
O4 Sr1 2.800242 1_655
O5 Sr0 2.800235 1_555
O5 Sr0 2.800256 1_565
O6 Sr0 2.800231 1_555
O6 Sr0 2.800259 1_455
O7 Sr1 2.800233 1_555
O7 Sr1 2.800256 1_655
O8 Sr1 2.800230 1_555
O8 Sr1 2.800259 1_545
O9 Sr0 2.800241 1_455
O9 Sr0 2.800243 1_565
O10 Sr1 2.599610 1_555
O11 Sr1 2.599616 1_555
O12 Sr1 2.599628 1_555
O13 Sr0 2.599740 1_555
O14 Sr1 2.599713 1_555
O15 Sr0 2.599633 1_555
O16 Sr0 2.599629 1_555
O17 Sr1 2.599728 1_555
O18 Sr1 2.599727 1_555
O19 Sr0 2.599752 1_555
O20 Sr0 2.599755 1_555
O21 Sr0 2.599647 1_555
