# generated using pymatgen
data_ZrAlRh
_symmetry_space_group_name_H-M   'P 1'
_cell_length_a   5.33532350
_cell_length_b   5.33532350
_cell_length_c   8.28078200
_cell_angle_alpha   90.00000000
_cell_angle_beta   90.00000000
_cell_angle_gamma   119.34150974
_symmetry_Int_Tables_number   1
_chemical_formula_structural   ZrAlRh
_chemical_formula_sum   'Zr4 Al4 Rh4'
_cell_volume   205.47885329
_cell_formula_units_Z   4
loop_
 _symmetry_equiv_pos_site_id
 _symmetry_equiv_pos_as_xyz
  1  'x, y, z'
loop_
 _atom_site_type_symbol
 _atom_site_label
 _atom_site_symmetry_multiplicity
 _atom_site_fract_x
 _atom_site_fract_y
 _atom_site_fract_z
 _atom_site_occupancy
  Zr  Zr0  1  0.66584700  0.33415300  0.29059300  1
  Zr  Zr1  1  0.33099800  0.66900200  0.17865800  1
  Zr  Zr2  1  0.33099800  0.66900200  0.82134200  1
  Zr  Zr3  1  0.66584700  0.33415300  0.70940700  1
  Al  Al0  1  0.00492800  0.99507200  0.24422300  1
  Al  Al1  1  0.00492800  0.99507200  0.75577700  1
  Al  Al2  1  0.65395900  0.83100900  0.50000000  1
  Al  Al3  1  0.16899100  0.34604100  0.50000000  1
  Rh  Rh0  1  0.16855700  0.83144300  0.50000000  1
  Rh  Rh1  1  0.33860900  0.16806900  0.00000000  1
  Rh  Rh2  1  0.83193100  0.66139100  0.00000000  1
  Rh  Rh3  1  0.83441800  0.16558200  0.00000000  1
loop_
_geom_bond_atom_site_label_1
_geom_bond_atom_site_label_2
_geom_bond_distance
_geom_bond_site_symmetry_2
Zr0 Zr1 3.220320 1_555
Zr0 Zr1 3.229767 1_655
Zr0 Zr1 3.229767 1_545
Zr0 Zr3 3.468107 1_555
Zr1 Zr2 2.958856 1_554
Zr2 Zr3 3.220320 1_555
Zr2 Zr3 3.229767 1_455
Zr2 Zr3 3.229767 1_565
Al0 Rh2 2.549690 1_455
Al0 Rh1 2.549690 1_565
Al0 Rh3 2.560509 1_465
Al0 Rh0 2.599481 1_555
Al0 Al2 2.674378 1_455
Al0 Al3 2.674378 1_565
Al0 Zr1 3.051865 1_555
Al0 Zr0 3.098809 1_565
Al0 Zr0 3.098809 1_455
Al0 Zr0 3.146534 1_465
Al0 Zr1 3.181120 1_565
Al0 Zr1 3.181120 1_455
Al1 Rh2 2.549690 1_456
Al1 Rh1 2.549690 1_566
Al1 Rh3 2.560509 1_466
Al1 Rh0 2.599481 1_555
Al1 Al3 2.674378 1_565
Al1 Al2 2.674378 1_455
Al1 Zr2 3.051865 1_555
Al1 Zr3 3.098809 1_565
Al1 Zr3 3.098809 1_455
Al1 Zr3 3.146534 1_465
Al1 Zr2 3.181120 1_565
Al1 Zr2 3.181120 1_455
Al2 Rh0 2.590912 1_555
Al2 Al3 2.613172 1_555
Al2 Rh0 2.744413 1_655
Al2 Al3 2.775166 1_665
Al2 Zr2 3.055697 1_555
Al2 Zr1 3.055697 1_555
Al2 Zr3 3.170221 1_565
Al2 Zr0 3.170221 1_565
Al2 Zr3 3.194205 1_555
Al2 Zr0 3.194205 1_555
Al3 Rh0 2.590912 1_555
Al3 Rh0 2.744413 1_545
Al3 Zr2 3.055697 1_555
Al3 Zr1 3.055697 1_555
Al3 Zr3 3.170221 1_455
Al3 Zr0 3.170221 1_455
Al3 Zr3 3.194205 1_555
Al3 Zr0 3.194205 1_555
Rh0 Zr2 3.052720 1_555
Rh0 Zr1 3.052720 1_555
Rh0 Zr3 3.204077 1_455
Rh0 Zr0 3.204077 1_455
Rh0 Zr3 3.204077 1_565
Rh0 Zr0 3.204077 1_565
Rh1 Rh3 2.651829 1_555
Rh1 Rh2 2.658186 1_555
Rh1 Rh3 2.683545 1_455
Rh1 Rh2 2.730152 1_445
Rh1 Zr3 2.847404 1_554
Rh1 Zr0 2.847404 1_555
Rh1 Zr1 3.028907 1_545
Rh1 Zr2 3.028907 1_544
Rh1 Zr1 3.072413 1_555
Rh1 Zr2 3.072413 1_554
Rh2 Rh3 2.651829 1_555
Rh2 Rh3 2.683545 1_565
Rh2 Zr3 2.847404 1_554
Rh2 Zr0 2.847404 1_555
Rh2 Zr1 3.028907 1_655
Rh2 Zr2 3.028907 1_654
Rh2 Zr1 3.072413 1_555
Rh2 Zr2 3.072413 1_554
Rh3 Zr3 2.863732 1_554
Rh3 Zr0 2.863732 1_555
Rh3 Zr1 3.073800 1_545
Rh3 Zr1 3.073800 1_655
Rh3 Zr2 3.073800 1_544
Rh3 Zr2 3.073800 1_654
