# generated using pymatgen
data_Ti8N5
_symmetry_space_group_name_H-M   'P 1'
_cell_length_a   4.18815303
_cell_length_b   4.18815303
_cell_length_c   8.59513915
_cell_angle_alpha   90.00000000
_cell_angle_beta   90.00000000
_cell_angle_gamma   90.00000000
_symmetry_Int_Tables_number   1
_chemical_formula_structural   Ti8N5
_chemical_formula_sum   'Ti8 N5'
_cell_volume   150.76411955
_cell_formula_units_Z   1
loop_
 _symmetry_equiv_pos_site_id
 _symmetry_equiv_pos_as_xyz
  1  'x, y, z'
loop_
 _atom_site_type_symbol
 _atom_site_label
 _atom_site_symmetry_multiplicity
 _atom_site_fract_x
 _atom_site_fract_y
 _atom_site_fract_z
 _atom_site_occupancy
  Ti  Ti0  1  -0.00000000  0.00000000  0.74400741  1
  Ti  Ti1  1  0.50000000  0.50000000  0.24139498  1
  Ti  Ti2  1  -0.00000000  0.50000000  0.01556421  1
  Ti  Ti3  1  0.50000000  -0.00000000  0.51421652  1
  Ti  Ti4  1  0.00000000  0.00000000  0.25599259  1
  Ti  Ti5  1  0.50000000  0.50000000  0.75860502  1
  Ti  Ti6  1  0.50000000  0.00000000  0.98443579  1
  Ti  Ti7  1  0.00000000  0.50000000  0.48578348  1
  N  N0  1  0.50000000  0.50000000  -0.00000000  1
  N  N1  1  0.00000000  0.00000000  0.50000000  1
  N  N2  1  0.50000000  -0.00000000  0.75098268  1
  N  N3  1  -0.00000000  0.50000000  0.24901732  1
  N  N4  1  -0.00000000  0.00000000  -0.00000000  1
loop_
_geom_bond_atom_site_label_1
_geom_bond_atom_site_label_2
_geom_bond_distance
_geom_bond_site_symmetry_2
N0 Ti1 2.074823 1_555
N0 Ti5 2.074823 1_554
N0 Ti2 2.098345 1_655
N0 Ti6 2.098345 1_564
N0 Ti6 2.098345 1_554
N0 Ti2 2.098345 1_555
N1 Ti4 2.097278 1_555
N1 Ti0 2.097278 1_555
N1 Ti3 2.097639 1_455
N1 Ti3 2.097639 1_555
N1 Ti7 2.097639 1_555
N1 Ti7 2.097639 1_545
N2 Ti6 2.006562 1_555
N2 Ti3 2.035038 1_555
N2 Ti0 2.094935 1_655
N2 Ti0 2.094935 1_555
N2 Ti5 2.095101 1_555
N2 Ti5 2.095101 1_545
N3 Ti2 2.006562 1_555
N3 Ti7 2.035038 1_555
N3 Ti4 2.094935 1_565
N3 Ti4 2.094935 1_555
N3 Ti1 2.095101 1_455
N3 Ti1 2.095101 1_555
N4 Ti6 2.098345 1_454
N4 Ti2 2.098345 1_545
N4 Ti6 2.098345 1_554
N4 Ti2 2.098345 1_555
N4 Ti0 2.200292 1_554
N4 Ti4 2.200292 1_555
