# generated using pymatgen
data_Mg2Si
_symmetry_space_group_name_H-M   'P 1'
_cell_length_a   6.29912900
_cell_length_b   6.58946688
_cell_length_c   7.26508319
_cell_angle_alpha   67.36626552
_cell_angle_beta   75.61786926
_cell_angle_gamma   63.60496801
_symmetry_Int_Tables_number   1
_chemical_formula_structural   Mg2Si
_chemical_formula_sum   'Mg8 Si4'
_cell_volume   248.22504105
_cell_formula_units_Z   4
loop_
 _symmetry_equiv_pos_site_id
 _symmetry_equiv_pos_as_xyz
  1  'x, y, z'
loop_
 _atom_site_type_symbol
 _atom_site_label
 _atom_site_symmetry_multiplicity
 _atom_site_fract_x
 _atom_site_fract_y
 _atom_site_fract_z
 _atom_site_occupancy
  Mg  Mg0  1  0.13404900  0.08455800  0.19962200  1
  Mg  Mg1  1  0.78812600  0.47083700  0.78807800  1
  Mg  Mg2  1  0.85272300  0.01304400  0.63671600  1
  Mg  Mg3  1  0.63387500  0.69185000  0.13787300  1
  Mg  Mg4  1  0.33633900  0.98246900  0.71005400  1
  Mg  Mg5  1  0.32080300  0.57056100  0.53963500  1
  Mg  Mg6  1  0.16414800  0.58544500  0.98259100  1
  Mg  Mg7  1  0.52399400  0.24830000  0.27152600  1
  Si  Si0  1  0.47903900  0.18845600  0.89998900  1
  Si  Si1  1  0.87032100  0.00630200  0.01984800  1
  Si  Si2  1  0.03938000  0.36791300  0.42514000  1
  Si  Si3  1  0.85755800  0.78979700  0.38893000  1
loop_
_geom_bond_atom_site_label_1
_geom_bond_atom_site_label_2
_geom_bond_distance
_geom_bond_site_symmetry_2
Mg0 Si1 2.662595 1_455
Mg0 Si2 2.721303 1_555
Mg0 Si0 2.784896 1_554
Mg0 Si3 2.908473 1_445
Mg1 Si1 2.744111 1_556
Mg1 Si2 2.875125 1_655
Mg1 Si3 2.917884 1_555
Mg1 Si0 3.030582 1_555
Mg2 Si3 2.716039 1_545
Mg2 Si0 2.753388 1_555
Mg2 Si1 2.795672 1_556
Mg2 Si2 2.827277 1_655
Mg3 Si1 2.826490 1_565
Mg3 Si0 2.879802 1_564
Mg3 Si3 2.952963 1_555
Mg3 Si2 3.131817 1_655
Mg4 Si0 2.774360 1_565
Mg4 Si2 2.808457 1_565
Mg4 Si1 3.207405 1_466
Mg5 Si0 2.859806 1_555
Mg5 Si3 2.902133 1_455
Mg5 Si2 3.051189 1_555
Mg6 Si1 2.637213 1_466
Mg6 Si0 2.672305 1_555
Mg6 Si2 3.034595 1_556
Mg7 Si3 2.744659 1_545
Mg7 Si1 2.795510 1_555
Mg7 Si2 2.833855 1_555
Mg7 Si0 2.969831 1_554
Si0 Si1 2.430076 1_556
Si1 Si3 2.506451 1_545
Si2 Si3 2.421813 1_455
