# generated using pymatgen
data_Li7Mn5O12
_symmetry_space_group_name_H-M   'P 1'
_cell_length_a   6.93562748
_cell_length_b   7.63827334
_cell_length_c   9.79952559
_cell_angle_alpha   107.11835119
_cell_angle_beta   104.17318803
_cell_angle_gamma   64.60350179
_symmetry_Int_Tables_number   1
_chemical_formula_structural   Li7Mn5O12
_chemical_formula_sum   'Li14 Mn10 O24'
_cell_volume   443.94643560
_cell_formula_units_Z   2
loop_
 _symmetry_equiv_pos_site_id
 _symmetry_equiv_pos_as_xyz
  1  'x, y, z'
loop_
 _atom_site_type_symbol
 _atom_site_label
 _atom_site_symmetry_multiplicity
 _atom_site_fract_x
 _atom_site_fract_y
 _atom_site_fract_z
 _atom_site_occupancy
  Li  Li0  1  0.08376800  0.58338900  0.91669100  1
  Li  Li1  1  0.58333100  0.08327800  0.41648000  1
  Li  Li2  1  0.97612300  0.20588600  0.53920200  1
  Li  Li3  1  0.47226400  0.70898300  0.03627600  1
  Li  Li4  1  0.19081000  0.96018200  0.29402500  1
  Li  Li5  1  0.69347400  0.45805200  0.79692400  1
  Li  Li6  1  0.28952900  0.53695900  0.19371500  1
  Li  Li7  1  0.77500000  0.04765600  0.70948700  1
  Li  Li8  1  0.87791600  0.63021400  0.63964200  1
  Li  Li9  1  0.39121500  0.11839600  0.12378900  1
  Li  Li10  1  0.12020800  0.37113500  0.37769100  1
  Li  Li11  1  0.64373600  0.85977700  0.86980200  1
  Li  Li12  1  0.52230400  0.30679500  0.96327800  1
  Li  Li13  1  0.04687000  0.79598300  0.45613900  1
  Mn  Mn0  1  0.83335500  0.83236600  0.16689500  1
  Mn  Mn1  1  0.33321500  0.33388800  0.66611200  1
  Mn  Mn2  1  0.50072300  0.49741100  0.50074000  1
  Mn  Mn3  1  0.98997700  0.99832900  0.99832600  1
  Mn  Mn4  1  0.17523200  0.16858100  0.83534900  1
  Mn  Mn5  1  0.66703000  0.66911700  0.33234000  1
  Mn  Mn6  1  0.24159700  0.75031100  0.75309000  1
  Mn  Mn7  1  0.74065700  0.25169000  0.25321300  1
  Mn  Mn8  1  0.42643700  0.91449400  0.58002300  1
  Mn  Mn9  1  0.92493100  0.41718200  0.08059700  1
  O  O0  1  0.10221900  0.79026800  0.10832400  1
  O  O1  1  0.60607000  0.29098600  0.60724700  1
  O  O2  1  0.06509600  0.37536900  0.72550200  1
  O  O3  1  0.56020400  0.87593700  0.22558800  1
  O  O4  1  0.48079200  0.10357100  0.75200700  1
  O  O5  1  0.97877800  0.60696500  0.25789900  1
  O  O6  1  0.18763800  0.56026700  0.57549000  1
  O  O7  1  0.68608700  0.06268600  0.08125800  1
  O  O8  1  0.30615200  0.93325500  0.92515800  1
  O  O9  1  0.80901500  0.43209700  0.42128500  1
  O  O10  1  0.35778700  0.73480100  0.41188400  1
  O  O11  1  0.86056800  0.23343400  0.90842200  1
  O  O12  1  0.38851400  0.51893000  0.83988500  1
  O  O13  1  0.88487200  0.02338800  0.34148600  1
  O  O14  1  0.28174400  0.14310200  0.49194400  1
  O  O15  1  0.77792100  0.64828300  0.99344100  1
  O  O16  1  0.22989000  0.33751300  0.01254200  1
  O  O17  1  0.69679400  0.84939300  0.51685300  1
  O  O18  1  0.46986400  0.31768100  0.31651400  1
  O  O19  1  0.93613300  0.82925800  0.82095400  1
  O  O20  1  0.55932900  0.69015600  0.67313400  1
  O  O21  1  0.02077900  0.19675100  0.18421300  1
  O  O22  1  0.14585000  0.97011500  0.64941000  1
  O  O23  1  0.60820700  0.47573700  0.15974000  1
loop_
_geom_bond_atom_site_label_1
_geom_bond_atom_site_label_2
_geom_bond_distance
_geom_bond_site_symmetry_2
Li0 O0 2.085377 1_556
Li0 O2 2.087303 1_555
Li0 O19 2.091151 1_455
Li0 O16 2.091941 1_556
Li0 O12 2.223623 1_555
Li0 O15 2.229565 1_455
Li1 O17 2.056155 1_545
Li1 O18 2.056949 1_555
Li1 O3 2.088098 1_545
Li1 O1 2.088287 1_555
Li1 O13 2.203935 1_555
Li1 O14 2.206713 1_555
Li2 O2 2.032702 1_655
Li2 O14 2.101311 1_655
Li2 O9 2.113251 1_555
Li2 O22 2.121146 1_645
Li2 O13 2.159620 1_555
Li2 O1 2.570264 1_555
Li3 O3 2.039662 1_555
Li3 O8 2.058755 1_554
Li3 O15 2.088866 1_554
Li3 O12 2.163275 1_554
Li3 O23 2.190058 1_555
Li3 O0 2.594871 1_555
Li4 O0 2.029686 1_555
Li4 O13 2.103362 1_465
Li4 O10 2.108112 1_555
Li4 O21 2.123512 1_565
Li4 O14 2.161750 1_565
Li4 O3 2.569210 1_555
Li5 O1 2.041137 1_555
Li5 O11 2.063607 1_555
Li5 O12 2.084288 1_555
Li5 O15 2.166402 1_555
Li5 O20 2.186047 1_555
Li6 O16 2.057337 1_555
Li6 O0 2.096726 1_555
Li6 O18 2.114316 1_555
Li6 O23 2.144015 1_555
Li6 O5 2.191795 1_455
Li6 O10 2.301009 1_555
Li7 O4 2.020844 1_555
Li7 O19 2.025028 1_545
Li7 O1 2.117669 1_555
Li7 O17 2.161320 1_545
Li7 O11 2.166455 1_555
Li7 O22 2.557839 1_645
Li8 O19 2.053390 1_555
Li8 O2 2.108102 1_655
Li8 O17 2.114340 1_555
Li8 O20 2.144431 1_555
Li8 O6 2.184998 1_655
Li8 O9 2.304425 1_555
Li9 O7 2.025795 1_555
Li9 O16 2.027823 1_555
Li9 O3 2.109937 1_545
Li9 O8 2.160910 1_544
Li9 O18 2.167213 1_555
Li9 O21 2.554810 1_555
Li10 O14 2.098204 1_555
Li10 O21 2.122602 1_555
Li10 O9 2.128387 1_455
Li10 O6 2.133070 1_555
Li10 O5 2.179536 1_455
Li10 O18 2.475014 1_555
Li11 O15 2.062584 1_555
Li11 O20 2.088960 1_555
Li11 O19 2.097686 1_555
Li11 O4 2.213319 1_565
Li11 O7 2.232499 1_566
Li11 O8 2.325253 1_555
Li12 O12 2.064698 1_555
Li12 O23 2.088520 1_556
Li12 O16 2.099003 1_556
Li12 O7 2.216486 1_556
Li12 O4 2.231224 1_555
Li12 O11 2.328017 1_555
Li13 O13 2.097266 1_465
Li13 O22 2.119189 1_555
Li13 O10 2.128569 1_555
Li13 O5 2.136788 1_455
Li13 O6 2.176114 1_555
Li13 O17 2.475982 1_455
Mn0 O7 1.936629 1_565
Mn0 O5 1.936659 1_555
Mn0 O15 1.936690 1_554
Mn0 O0 1.952242 1_655
Mn0 O13 1.965201 1_565
Mn0 O3 1.977550 1_555
Mn1 O4 1.938125 1_555
Mn1 O6 1.940455 1_555
Mn1 O12 1.942391 1_555
Mn1 O2 1.952734 1_555
Mn1 O14 1.961575 1_555
Mn1 O1 1.978072 1_555
Mn2 O1 1.927809 1_555
Mn2 O18 1.947681 1_555
Mn2 O20 1.974729 1_555
Mn2 O10 1.998430 1_555
Mn2 O9 2.258021 1_555
Mn2 O6 2.271540 1_555
Mn3 O19 1.898098 1_555
Mn3 O0 1.957023 1_656
Mn3 O11 1.992051 1_565
Mn3 O21 2.030469 1_666
Mn3 O7 2.249290 1_566
Mn3 O8 2.279274 1_655
Mn4 O16 1.897903 1_556
Mn4 O2 1.949465 1_555
Mn4 O8 1.992471 1_545
Mn4 O22 2.028976 1_545
Mn4 O4 2.260754 1_555
Mn4 O11 2.269397 1_455
Mn5 O3 1.930872 1_555
Mn5 O17 1.950234 1_555
Mn5 O23 1.979213 1_555
Mn5 O9 1.996619 1_555
Mn5 O5 2.262868 1_555
Mn5 O10 2.263835 1_555
Mn6 O8 1.943242 1_555
Mn6 O12 1.949630 1_555
Mn6 O6 1.983925 1_555
Mn6 O22 2.002377 1_555
Mn6 O19 2.156933 1_455
Mn6 O20 2.333731 1_555
Mn7 O9 1.917875 1_555
Mn7 O18 1.934072 1_555
Mn7 O13 1.938525 1_555
Mn7 O23 1.942642 1_555
Mn7 O7 1.947087 1_555
Mn7 O21 2.045682 1_655
Mn8 O10 1.915847 1_555
Mn8 O17 1.932327 1_555
Mn8 O14 1.939379 1_565
Mn8 O20 1.942219 1_555
Mn8 O4 1.947128 1_565
Mn8 O22 2.049073 1_555
Mn9 O11 1.946895 1_554
Mn9 O15 1.949951 1_554
Mn9 O5 1.980799 1_555
Mn9 O21 2.005900 1_655
Mn9 O16 2.153248 1_655
Mn9 O23 2.326864 1_555
