# generated using pymatgen
data_NaSc(SeO3)2
_symmetry_space_group_name_H-M   'P 1'
_cell_length_a   5.57198900
_cell_length_b   8.29111700
_cell_length_c   13.03045600
_cell_angle_alpha   90.00000000
_cell_angle_beta   90.00000000
_cell_angle_gamma   90.00000000
_symmetry_Int_Tables_number   1
_chemical_formula_structural   NaSc(SeO3)2
_chemical_formula_sum   'Na4 Sc4 Se8 O24'
_cell_volume   601.98117206
_cell_formula_units_Z   4
loop_
 _symmetry_equiv_pos_site_id
 _symmetry_equiv_pos_as_xyz
  1  'x, y, z'
loop_
 _atom_site_type_symbol
 _atom_site_label
 _atom_site_symmetry_multiplicity
 _atom_site_fract_x
 _atom_site_fract_y
 _atom_site_fract_z
 _atom_site_occupancy
  Na  Na0  1  0.25000000  0.01167500  0.88765300  1
  Na  Na1  1  0.25000000  0.48832500  0.38765300  1
  Na  Na2  1  0.75000000  0.98832500  0.11234700  1
  Na  Na3  1  0.75000000  0.51167500  0.61234700  1
  Sc  Sc0  1  0.25000000  0.20001100  0.59998000  1
  Sc  Sc1  1  0.25000000  0.29998900  0.09998000  1
  Sc  Sc2  1  0.75000000  0.79998900  0.40002000  1
  Sc  Sc3  1  0.75000000  0.70001100  0.90002000  1
  Se  Se0  1  0.25000000  0.78193300  0.56964300  1
  Se  Se1  1  0.25000000  0.71806700  0.06964300  1
  Se  Se2  1  0.75000000  0.21806700  0.43035700  1
  Se  Se3  1  0.75000000  0.28193300  0.93035700  1
  Se  Se4  1  0.25000000  0.49561200  0.79242800  1
  Se  Se5  1  0.25000000  0.00438800  0.29242800  1
  Se  Se6  1  0.75000000  0.50438800  0.20757200  1
  Se  Se7  1  0.75000000  0.99561200  0.70757200  1
  O  O0  1  0.25000000  0.97756900  0.52679000  1
  O  O1  1  0.25000000  0.52243100  0.02679000  1
  O  O2  1  0.75000000  0.02243100  0.47321000  1
  O  O3  1  0.75000000  0.47756900  0.97321000  1
  O  O4  1  0.25000000  0.43633600  0.66551500  1
  O  O5  1  0.25000000  0.06366400  0.16551500  1
  O  O6  1  0.75000000  0.56366400  0.33448500  1
  O  O7  1  0.75000000  0.93633600  0.83448500  1
  O  O8  1  0.48875300  0.69951200  0.50273700  1
  O  O9  1  0.01124700  0.80048800  0.00273700  1
  O  O10  1  0.98875300  0.30048800  0.49726300  1
  O  O11  1  0.51124700  0.19951200  0.99726300  1
  O  O12  1  0.51124700  0.30048800  0.49726300  1
  O  O13  1  0.98875300  0.19951200  0.99726300  1
  O  O14  1  0.01124700  0.69951200  0.50273700  1
  O  O15  1  0.48875300  0.80048800  0.00273700  1
  O  O16  1  0.50746400  0.12492700  0.71037600  1
  O  O17  1  0.99253600  0.37507300  0.21037600  1
  O  O18  1  0.00746400  0.87507300  0.28962400  1
  O  O19  1  0.49253600  0.62492700  0.78962400  1
  O  O20  1  0.49253600  0.87507300  0.28962400  1
  O  O21  1  0.00746400  0.62492700  0.78962400  1
  O  O22  1  0.99253600  0.12492700  0.71037600  1
  O  O23  1  0.50746400  0.37507300  0.21037600  1
loop_
_geom_bond_atom_site_label_1
_geom_bond_atom_site_label_2
_geom_bond_distance
_geom_bond_site_symmetry_2
Na0 O13 2.565997 1_455
Na0 O11 2.565997 1_555
Na0 O9 2.661669 1_546
Na0 O15 2.661669 1_546
Na0 O22 2.876775 1_455
Na0 O16 2.876775 1_555
Na0 O7 2.938013 1_545
Na0 O7 2.938013 1_445
Na1 O10 2.565997 1_455
Na1 O12 2.565997 1_555
Na1 O8 2.661669 1_555
Na1 O14 2.661669 1_555
Na1 O17 2.876775 1_455
Na1 O23 2.876775 1_555
Na1 O6 2.938013 1_455
Na1 O6 2.938013 1_555
Na2 O9 2.565997 1_655
Na2 O15 2.565997 1_555
Na2 O13 2.661669 1_564
Na2 O11 2.661669 1_564
Na2 O20 2.876775 1_555
Na2 O18 2.876775 1_655
Na2 O5 2.938013 1_565
Na2 O5 2.938013 1_665
Na3 O8 2.565997 1_555
Na3 O14 2.565997 1_655
Na3 O10 2.661669 1_555
Na3 O12 2.661669 1_555
Na3 O21 2.876775 1_655
Na3 O19 2.876775 1_555
Na3 O4 2.938013 1_555
Na3 O4 2.938013 1_655
O0 Se0 1.715465 1_555
O0 Sc0 2.076284 1_565
O1 Se1 1.715465 1_555
O1 Sc1 2.076284 1_555
O2 Se2 1.715465 1_555
O2 Sc2 2.076284 1_545
O3 Se3 1.715465 1_555
O3 Sc3 2.076284 1_555
O4 Se4 1.725217 1_555
O4 Sc0 2.137399 1_555
O5 Se5 1.725217 1_555
O5 Sc1 2.137399 1_555
O6 Se6 1.725217 1_555
O6 Sc2 2.137399 1_555
O7 Se7 1.725217 1_555
O7 Sc3 2.137399 1_555
O8 Se0 1.731133 1_555
O8 Sc2 2.145789 1_555
O9 Se1 1.731133 1_555
O9 Sc3 2.145789 1_454
O10 Se2 1.731133 1_555
O10 Sc0 2.145789 1_655
O11 Se3 1.731133 1_555
O11 Sc1 2.145789 1_556
O12 Se2 1.731133 1_555
O12 Sc0 2.145789 1_555
O13 Se3 1.731133 1_555
O13 Sc1 2.145789 1_656
O14 Se0 1.731133 1_555
O14 Sc2 2.145789 1_455
O15 Se1 1.731133 1_555
O15 Sc3 2.145789 1_554
O16 Se7 1.725450 1_545
O16 Sc0 2.124828 1_555
O17 Se6 1.725450 1_555
O17 Sc1 2.124828 1_655
O18 Se5 1.725450 1_565
O18 Sc2 2.124828 1_455
O19 Se4 1.725450 1_555
O19 Sc3 2.124828 1_555
O20 Se5 1.725450 1_565
O20 Sc2 2.124828 1_555
O21 Se4 1.725450 1_555
O21 Sc3 2.124828 1_455
O22 Se7 1.725450 1_545
O22 Sc0 2.124828 1_655
O23 Se6 1.725450 1_555
O23 Sc1 2.124828 1_555
