# generated using pymatgen
data_BPb3
_symmetry_space_group_name_H-M   'P 1'
_cell_length_a   6.49707172
_cell_length_b   6.49497121
_cell_length_c   5.89979600
_cell_angle_alpha   90.00000000
_cell_angle_beta   90.00000000
_cell_angle_gamma   120.17548087
_symmetry_Int_Tables_number   1
_chemical_formula_structural   BPb3
_chemical_formula_sum   'B2 Pb6'
_cell_volume   215.22457189
_cell_formula_units_Z   2
loop_
 _symmetry_equiv_pos_site_id
 _symmetry_equiv_pos_as_xyz
  1  'x, y, z'
loop_
 _atom_site_type_symbol
 _atom_site_label
 _atom_site_symmetry_multiplicity
 _atom_site_fract_x
 _atom_site_fract_y
 _atom_site_fract_z
 _atom_site_occupancy
  B  B0  1  0.33326100  0.66672400  0.75000100  1
  B  B1  1  0.66674300  0.33327000  0.25000100  1
  Pb  Pb0  1  0.16965600  0.33948600  0.25000100  1
  Pb  Pb1  1  0.66051700  0.83034500  0.25000100  1
  Pb  Pb2  1  0.16985100  0.83021100  0.25000100  1
  Pb  Pb3  1  0.83034000  0.66051300  0.75000100  1
  Pb  Pb4  1  0.33948400  0.16965600  0.75000100  1
  Pb  Pb5  1  0.83014900  0.16979200  0.75000100  1
loop_
_geom_bond_atom_site_label_1
_geom_bond_atom_site_label_2
_geom_bond_distance
_geom_bond_site_symmetry_2
Pb0 Pb1 3.180176 1_555
Pb0 Pb2 3.186608 1_555
Pb0 Pb1 3.298608 1_445
Pb0 Pb2 3.308363 1_545
Pb0 Pb5 3.512575 1_455
Pb0 Pb5 3.512575 1_454
Pb0 Pb4 3.515620 1_554
Pb0 Pb4 3.515620 1_555
Pb1 Pb2 3.187455 1_555
Pb1 Pb2 3.309617 1_655
Pb1 Pb5 3.512057 1_564
Pb1 Pb5 3.512057 1_565
Pb1 Pb3 3.515611 1_554
Pb1 Pb3 3.515611 1_555
Pb2 Pb4 3.512050 1_564
Pb2 Pb4 3.512050 1_565
Pb2 Pb3 3.512587 1_455
Pb2 Pb3 3.512587 1_454
Pb3 Pb4 3.180153 1_555
Pb3 Pb5 3.186595 1_555
Pb3 Pb4 3.298631 1_665
Pb3 Pb5 3.308376 1_565
Pb4 Pb5 3.187442 1_555
Pb4 Pb5 3.309630 1_455
