# generated using pymatgen
data_Fe2S3(NO6)2
_symmetry_space_group_name_H-M   'P 1'
_cell_length_a   9.89335000
_cell_length_b   9.89335000
_cell_length_c   9.89335000
_cell_angle_alpha   90.00000000
_cell_angle_beta   90.00000000
_cell_angle_gamma   90.00000000
_symmetry_Int_Tables_number   1
_chemical_formula_structural   Fe2S3(NO6)2
_chemical_formula_sum   'Fe8 S12 N8 O48'
_cell_volume   968.34501361
_cell_formula_units_Z   4
loop_
 _symmetry_equiv_pos_site_id
 _symmetry_equiv_pos_as_xyz
  1  'x, y, z'
loop_
 _atom_site_type_symbol
 _atom_site_label
 _atom_site_symmetry_multiplicity
 _atom_site_fract_x
 _atom_site_fract_y
 _atom_site_fract_z
 _atom_site_occupancy
  Fe  Fe0  1  0.33653700  0.33653700  0.33653700  1
  Fe  Fe1  1  0.16346300  0.66346300  0.83653700  1
  Fe  Fe2  1  0.66346300  0.83653700  0.16346300  1
  Fe  Fe3  1  0.83653700  0.16346300  0.66346300  1
  Fe  Fe4  1  0.60211000  0.60211000  0.60211000  1
  Fe  Fe5  1  0.89789000  0.39789000  0.10211000  1
  Fe  Fe6  1  0.39789000  0.10211000  0.89789000  1
  Fe  Fe7  1  0.10211000  0.89789000  0.39789000  1
  S  S0  1  0.01844900  0.21459200  0.37610200  1
  S  S1  1  0.48155100  0.78540800  0.87610200  1
  S  S2  1  0.98155100  0.71459200  0.12389800  1
  S  S3  1  0.37610200  0.01844900  0.21459200  1
  S  S4  1  0.51844900  0.28540800  0.62389800  1
  S  S5  1  0.87610200  0.48155100  0.78540800  1
  S  S6  1  0.12389800  0.98155100  0.71459200  1
  S  S7  1  0.62389800  0.51844900  0.28540800  1
  S  S8  1  0.21459200  0.37610200  0.01844900  1
  S  S9  1  0.71459200  0.12389800  0.98155100  1
  S  S10  1  0.28540800  0.62389800  0.51844900  1
  S  S11  1  0.78540800  0.87610200  0.48155100  1
  N  N0  1  0.04617800  0.04617800  0.04617800  1
  N  N1  1  0.45382200  0.95382200  0.54617800  1
  N  N2  1  0.95382200  0.54617800  0.45382200  1
  N  N3  1  0.54617800  0.45382200  0.95382200  1
  N  N4  1  0.81452400  0.81452400  0.81452400  1
  N  N5  1  0.68547600  0.18547600  0.31452400  1
  N  N6  1  0.18547600  0.31452400  0.68547600  1
  N  N7  1  0.31452400  0.68547600  0.18547600  1
  O  O0  1  0.01027000  0.06993300  0.33317100  1
  O  O1  1  0.48973000  0.93006700  0.83317100  1
  O  O2  1  0.98973000  0.56993300  0.16682900  1
  O  O3  1  0.33317100  0.01027000  0.06993300  1
  O  O4  1  0.51027000  0.43006700  0.66682900  1
  O  O5  1  0.83317100  0.48973000  0.93006700  1
  O  O6  1  0.16682900  0.98973000  0.56993300  1
  O  O7  1  0.66682900  0.51027000  0.43006700  1
  O  O8  1  0.06993300  0.33317100  0.01027000  1
  O  O9  1  0.56993300  0.16682900  0.98973000  1
  O  O10  1  0.43006700  0.66682900  0.51027000  1
  O  O11  1  0.93006700  0.83317100  0.48973000  1
  O  O12  1  0.26615400  0.49731900  0.44119900  1
  O  O13  1  0.23384600  0.50268100  0.94119900  1
  O  O14  1  0.73384600  0.99731900  0.05880100  1
  O  O15  1  0.44119900  0.26615400  0.49731900  1
  O  O16  1  0.76615400  0.00268100  0.55880100  1
  O  O17  1  0.94119900  0.23384600  0.50268100  1
  O  O18  1  0.05880100  0.73384600  0.99731900  1
  O  O19  1  0.55880100  0.76615400  0.00268100  1
  O  O20  1  0.49731900  0.44119900  0.26615400  1
  O  O21  1  0.99731900  0.05880100  0.73384600  1
  O  O22  1  0.00268100  0.55880100  0.76615400  1
  O  O23  1  0.50268100  0.94119900  0.23384600  1
  O  O24  1  0.04100100  0.80142400  0.22894200  1
  O  O25  1  0.45899900  0.19857600  0.72894200  1
  O  O26  1  0.95899900  0.30142400  0.27105800  1
  O  O27  1  0.22894200  0.04100100  0.80142400  1
  O  O28  1  0.54100100  0.69857600  0.77105800  1
  O  O29  1  0.72894200  0.45899900  0.19857600  1
  O  O30  1  0.27105800  0.95899900  0.30142400  1
  O  O31  1  0.77105800  0.54100100  0.69857600  1
  O  O32  1  0.80142400  0.22894200  0.04100100  1
  O  O33  1  0.30142400  0.27105800  0.95899900  1
  O  O34  1  0.69857600  0.77105800  0.54100100  1
  O  O35  1  0.19857600  0.72894200  0.45899900  1
  O  O36  1  0.16179500  0.25116600  0.39881500  1
  O  O37  1  0.33820500  0.74883400  0.89881500  1
  O  O38  1  0.83820500  0.75116600  0.10118500  1
  O  O39  1  0.39881500  0.16179500  0.25116600  1
  O  O40  1  0.66179500  0.24883400  0.60118500  1
  O  O41  1  0.89881500  0.33820500  0.74883400  1
  O  O42  1  0.10118500  0.83820500  0.75116600  1
  O  O43  1  0.60118500  0.66179500  0.24883400  1
  O  O44  1  0.25116600  0.39881500  0.16179500  1
  O  O45  1  0.75116600  0.10118500  0.83820500  1
  O  O46  1  0.24883400  0.60118500  0.66179500  1
  O  O47  1  0.74883400  0.89881500  0.33820500  1
loop_
_geom_bond_atom_site_label_1
_geom_bond_atom_site_label_2
_geom_bond_distance
_geom_bond_site_symmetry_2
Fe0 O44 2.020316 1_555
Fe0 O36 2.020316 1_555
Fe0 O39 2.020316 1_555
Fe0 O20 2.021702 1_555
Fe0 O15 2.021702 1_555
Fe0 O12 2.021702 1_555
Fe1 O42 2.020316 1_555
Fe1 O46 2.020316 1_555
Fe1 O37 2.020316 1_555
Fe1 O18 2.021702 1_555
Fe1 O22 2.021702 1_555
Fe1 O13 2.021702 1_555
Fe2 O38 2.020316 1_555
Fe2 O43 2.020316 1_555
Fe2 O47 2.020316 1_555
Fe2 O19 2.021702 1_555
Fe2 O14 2.021702 1_555
Fe2 O23 2.021702 1_555
Fe3 O45 2.020316 1_555
Fe3 O40 2.020316 1_555
Fe3 O41 2.020316 1_555
Fe3 O21 2.021702 1_555
Fe3 O17 2.021702 1_555
Fe3 O16 2.021702 1_555
Fe4 O34 2.017453 1_555
Fe4 O31 2.017453 1_555
Fe4 O28 2.017453 1_555
Fe4 O4 2.032883 1_555
Fe4 O10 2.032883 1_555
Fe4 O7 2.032883 1_555
Fe5 O29 2.017453 1_555
Fe5 O32 2.017453 1_555
Fe5 O26 2.017453 1_555
Fe5 O5 2.032883 1_554
Fe5 O2 2.032883 1_555
Fe5 O8 2.032883 1_655
Fe6 O25 2.017453 1_555
Fe6 O27 2.017453 1_555
Fe6 O33 2.017453 1_555
Fe6 O9 2.032883 1_555
Fe6 O1 2.032883 1_545
Fe6 O3 2.032883 1_556
Fe7 O24 2.017453 1_555
Fe7 O35 2.017453 1_555
Fe7 O30 2.017453 1_555
Fe7 O11 2.032883 1_455
Fe7 O6 2.032883 1_555
Fe7 O0 2.032883 1_565
O0 S0 1.495048 1_555
O1 S1 1.495048 1_555
O2 S2 1.495048 1_555
O3 S3 1.495048 1_555
O4 S4 1.495048 1_555
O5 S5 1.495048 1_555
O6 S6 1.495048 1_555
O7 S7 1.495048 1_555
O8 S8 1.495048 1_555
O9 S9 1.495048 1_555
O10 S10 1.495048 1_555
O11 S11 1.495048 1_555
O12 S10 1.479396 1_555
O13 S8 1.479396 1_556
O14 S9 1.479396 1_564
O15 S4 1.479396 1_555
O16 S11 1.479396 1_545
O17 S0 1.479396 1_655
O18 S2 1.479396 1_456
O19 S1 1.479396 1_554
O20 S7 1.479396 1_555
O21 S6 1.479396 1_645
O22 S5 1.479396 1_455
O23 S3 1.479396 1_565
O24 S2 1.471030 1_455
O25 S4 1.471030 1_555
O26 S0 1.471030 1_655
O27 S6 1.471030 1_545
O28 S1 1.471030 1_555
O29 S7 1.471030 1_555
O30 S3 1.471030 1_565
O31 S5 1.471030 1_555
O32 S9 1.471030 1_554
O33 S8 1.471030 1_556
O34 S11 1.471030 1_555
O35 S10 1.471030 1_555
O36 S0 1.480754 1_555
O37 S1 1.480754 1_555
O38 S2 1.480754 1_555
O39 S3 1.480754 1_555
O40 S4 1.480754 1_555
O41 S5 1.480754 1_555
O42 S6 1.480754 1_555
O43 S7 1.480754 1_555
O44 S8 1.480754 1_555
O45 S9 1.480754 1_555
O46 S10 1.480754 1_555
O47 S11 1.480754 1_555
