# generated using pymatgen
data_NaCaN
_symmetry_space_group_name_H-M   'P 1'
_cell_length_a   8.42432700
_cell_length_b   4.07818400
_cell_length_c   6.17129100
_cell_angle_alpha   90.00000000
_cell_angle_beta   90.00000000
_cell_angle_gamma   90.00000000
_symmetry_Int_Tables_number   1
_chemical_formula_structural   NaCaN
_chemical_formula_sum   'Na4 Ca4 N4'
_cell_volume   212.02059948
_cell_formula_units_Z   4
loop_
 _symmetry_equiv_pos_site_id
 _symmetry_equiv_pos_as_xyz
  1  'x, y, z'
loop_
 _atom_site_type_symbol
 _atom_site_label
 _atom_site_symmetry_multiplicity
 _atom_site_fract_x
 _atom_site_fract_y
 _atom_site_fract_z
 _atom_site_occupancy
  Na  Na0  1  0.60898200  0.25000000  0.90223300  1
  Na  Na1  1  0.10898200  0.25000000  0.59776700  1
  Na  Na2  1  0.39101800  0.75000000  0.09776700  1
  Na  Na3  1  0.89101800  0.75000000  0.40223300  1
  Ca  Ca0  1  0.63786600  0.25000000  0.42835200  1
  Ca  Ca1  1  0.13786600  0.25000000  0.07164800  1
  Ca  Ca2  1  0.36213400  0.75000000  0.57164800  1
  Ca  Ca3  1  0.86213400  0.75000000  0.92835200  1
  N  N0  1  0.85443700  0.25000000  0.15897000  1
  N  N1  1  0.35443700  0.25000000  0.34103000  1
  N  N2  1  0.14556300  0.75000000  0.84103000  1
  N  N3  1  0.64556300  0.75000000  0.65897000  1
loop_
_geom_bond_atom_site_label_1
_geom_bond_atom_site_label_2
_geom_bond_distance
_geom_bond_site_symmetry_2
Ca0 N1 2.447755 1_555
Ca0 N0 2.468271 1_555
Ca0 N3 2.487495 1_545
Ca0 N3 2.487495 1_555
Ca1 N0 2.447755 1_455
Ca1 N1 2.468271 1_555
Ca1 N2 2.487495 1_554
Ca1 N2 2.487495 1_544
Ca2 N3 2.447755 1_555
Ca2 N2 2.468271 1_555
Ca2 N1 2.487495 1_565
Ca2 N1 2.487495 1_555
Ca3 N2 2.447755 1_655
Ca3 N3 2.468271 1_555
Ca3 N0 2.487495 1_566
Ca3 N0 2.487495 1_556
N0 Na3 2.550805 1_545
N0 Na3 2.550805 1_555
N0 Na0 2.605012 1_554
N1 Na2 2.550805 1_555
N1 Na2 2.550805 1_545
N1 Na1 2.605012 1_555
N2 Na1 2.550805 1_565
N2 Na1 2.550805 1_555
N2 Na2 2.605012 1_556
N3 Na0 2.550805 1_565
N3 Na0 2.550805 1_555
N3 Na3 2.605012 1_555
