# generated using pymatgen
data_NbFe7(PO4)12
_symmetry_space_group_name_H-M   'P 1'
_cell_length_a   8.80642100
_cell_length_b   8.83490697
_cell_length_c   12.30886837
_cell_angle_alpha   90.12726695
_cell_angle_beta   90.00015361
_cell_angle_gamma   90.17449645
_symmetry_Int_Tables_number   1
_chemical_formula_structural   NbFe7(PO4)12
_chemical_formula_sum   'Nb1 Fe7 P12 O48'
_cell_volume   957.67128631
_cell_formula_units_Z   1
loop_
 _symmetry_equiv_pos_site_id
 _symmetry_equiv_pos_as_xyz
  1  'x, y, z'
loop_
 _atom_site_type_symbol
 _atom_site_label
 _atom_site_symmetry_multiplicity
 _atom_site_fract_x
 _atom_site_fract_y
 _atom_site_fract_z
 _atom_site_occupancy
  Nb  Nb0  1  0.74709100  0.46513000  0.61813300  1
  Fe  Fe0  1  0.25062600  0.96411100  0.61918400  1
  Fe  Fe1  1  0.25253000  0.53286800  0.38244700  1
  Fe  Fe2  1  0.24844500  0.03490000  0.11879000  1
  Fe  Fe3  1  0.24956100  0.46461500  0.88168900  1
  Fe  Fe4  1  0.75098300  0.53760200  0.11906000  1
  Fe  Fe5  1  0.75210400  0.96332000  0.88081100  1
  Fe  Fe6  1  0.74999600  0.03841300  0.38065700  1
  P  P0  1  0.03443200  0.24785500  0.49854000  1
  P  P1  1  0.46960600  0.74967700  0.00044900  1
  P  P2  1  0.53094900  0.25046500  0.00078100  1
  P  P3  1  0.96869700  0.75117000  0.49867000  1
  P  P4  1  0.10812300  0.39379800  0.14415800  1
  P  P5  1  0.11030900  0.10638300  0.85624900  1
  P  P6  1  0.38504400  0.60532000  0.64585300  1
  P  P7  1  0.38874900  0.89421700  0.35539100  1
  P  P8  1  0.61018700  0.10270400  0.64402800  1
  P  P9  1  0.61028500  0.39394000  0.35262700  1
  P  P10  1  0.89200400  0.60940900  0.85824600  1
  P  P11  1  0.88951400  0.89464900  0.14477400  1
  O  O0  1  0.06529900  0.65452100  0.42223300  1
  O  O1  1  0.06581800  0.84018700  0.58060300  1
  O  O2  1  0.06371000  0.91107600  0.14370200  1
  O  O3  1  0.06457000  0.59055000  0.86150000  1
  O  O4  1  0.12827600  0.14257200  0.57034700  1
  O  O5  1  0.13976000  0.35136100  0.43397700  1
  O  O6  1  0.17888300  0.44644200  0.03631600  1
  O  O7  1  0.17688000  0.05530300  0.96582200  1
  O  O8  1  0.14775400  0.22643900  0.16372400  1
  O  O9  1  0.14769700  0.27457400  0.83722900  1
  O  O10  1  0.17342700  0.49512400  0.23381400  1
  O  O11  1  0.18272000  0.00548700  0.76900600  1
  O  O12  1  0.31999400  0.99691100  0.26855300  1
  O  O13  1  0.31152800  0.50459800  0.73115900  1
  O  O14  1  0.35537800  0.77434300  0.66446100  1
  O  O15  1  0.35047600  0.72663900  0.33474200  1
  O  O16  1  0.32913800  0.56007500  0.53231300  1
  O  O17  1  0.32313700  0.93989000  0.46669700  1
  O  O18  1  0.36533800  0.85204500  0.06818900  1
  O  O19  1  0.37106000  0.64476100  0.93021200  1
  O  O20  1  0.43623100  0.09215500  0.64025800  1
  O  O21  1  0.43759800  0.41307100  0.34725000  1
  O  O22  1  0.43313600  0.15626400  0.07926100  1
  O  O23  1  0.43556400  0.34218300  0.91949900  1
  O  O24  1  0.56543400  0.65831000  0.08173200  1
  O  O25  1  0.56744700  0.84318100  0.92161100  1
  O  O26  1  0.56104000  0.58104000  0.65091000  1
  O  O27  1  0.56232900  0.91348200  0.35791500  1
  O  O28  1  0.62869700  0.35500200  0.07182600  1
  O  O29  1  0.63530400  0.14793200  0.93315900  1
  O  O30  1  0.67684200  0.05897300  0.53331400  1
  O  O31  1  0.66702800  0.43717100  0.46870700  1
  O  O32  1  0.64963800  0.22731700  0.33126600  1
  O  O33  1  0.65208100  0.27279800  0.66587400  1
  O  O34  1  0.68926200  0.49867100  0.27145800  1
  O  O35  1  0.67677100  0.00274100  0.73262100  1
  O  O36  1  0.81879400  0.99626400  0.23183300  1
  O  O37  1  0.82708100  0.50789900  0.76418900  1
  O  O38  1  0.85298900  0.72671700  0.16511500  1
  O  O39  1  0.85352300  0.77459200  0.83343900  1
  O  O40  1  0.81900600  0.55612500  0.96401400  1
  O  O41  1  0.82496100  0.94274000  0.03402700  1
  O  O42  1  0.86037300  0.64694800  0.56492200  1
  O  O43  1  0.86923100  0.85751800  0.43166900  1
  O  O44  1  0.93655700  0.08939700  0.85751600  1
  O  O45  1  0.93425000  0.40862400  0.13853900  1
  O  O46  1  0.93771700  0.15585500  0.41823900  1
  O  O47  1  0.93103600  0.34358400  0.57470600  1
loop_
_geom_bond_atom_site_label_1
_geom_bond_atom_site_label_2
_geom_bond_distance
_geom_bond_site_symmetry_2
Nb0 O37 1.966310 1_555
Nb0 O26 1.975941 1_555
Nb0 O33 1.982060 1_555
Nb0 O31 1.984426 1_555
Nb0 O42 1.999867 1_555
Nb0 O47 2.017671 1_555
Fe0 O11 1.972419 1_565
Fe0 O17 1.993871 1_555
Fe0 O14 1.996517 1_555
Fe0 O20 2.001525 1_565
Fe0 O4 2.005687 1_565
Fe0 O1 2.014897 1_555
Fe1 O16 1.978081 1_555
Fe1 O10 1.984798 1_555
Fe1 O5 1.988693 1_555
Fe1 O21 1.993131 1_555
Fe1 O15 2.003756 1_555
Fe1 O0 2.030301 1_555
Fe2 O12 1.977843 1_545
Fe2 O2 1.981947 1_545
Fe2 O8 1.990180 1_555
Fe2 O7 1.994255 1_554
Fe2 O22 2.005874 1_555
Fe2 O18 2.015723 1_545
Fe3 O13 1.964023 1_555
Fe3 O9 1.977362 1_555
Fe3 O3 1.991469 1_555
Fe3 O19 2.005011 1_555
Fe3 O6 2.009086 1_556
Fe3 O23 2.020582 1_555
Fe4 O38 1.976507 1_555
Fe4 O34 1.983501 1_555
Fe4 O45 1.993273 1_555
Fe4 O40 2.007130 1_554
Fe4 O24 2.007792 1_555
Fe4 O28 2.021281 1_555
Fe5 O35 1.973019 1_565
Fe5 O39 1.980569 1_555
Fe5 O44 1.987945 1_565
Fe5 O41 2.000907 1_556
Fe5 O25 2.003769 1_555
Fe5 O29 2.034451 1_565
Fe6 O36 1.964633 1_545
Fe6 O32 1.987353 1_555
Fe6 O30 1.994491 1_555
Fe6 O46 2.002724 1_555
Fe6 O27 2.003866 1_545
Fe6 O43 2.016363 1_545
O0 P3 1.529348 1_455
O1 P3 1.536061 1_455
O2 P11 1.540512 1_455
O3 P10 1.529834 1_455
O4 P0 1.528966 1_555
O5 P0 1.525198 1_555
O6 P4 1.538712 1_555
O7 P5 1.539710 1_555
O8 P4 1.539738 1_555
O9 P5 1.539427 1_555
O10 P4 1.530507 1_555
O11 P5 1.534157 1_555
O12 P7 1.529687 1_555
O13 P6 1.521249 1_555
O14 P6 1.533468 1_555
O15 P7 1.538011 1_555
O16 P6 1.533505 1_555
O17 P7 1.540355 1_555
O18 P1 1.535592 1_555
O19 P1 1.533392 1_556
O20 P8 1.535174 1_555
O21 P9 1.532076 1_555
O22 P2 1.538505 1_555
O23 P2 1.539786 1_556
O24 P1 1.540295 1_555
O25 P1 1.538104 1_556
O26 P6 1.566572 1_555
O27 P7 1.537856 1_555
O28 P2 1.533059 1_555
O29 P2 1.536126 1_556
O30 P8 1.532973 1_555
O31 P9 1.559968 1_555
O32 P9 1.535480 1_555
O33 P8 1.568933 1_555
O34 P9 1.529142 1_555
O35 P8 1.523279 1_555
O36 P11 1.530129 1_555
O37 P10 1.569651 1_555
O38 P11 1.538230 1_555
O39 P10 1.530636 1_555
O40 P10 1.526649 1_555
O41 P11 1.538170 1_555
O42 P3 1.555918 1_555
O43 P3 1.529269 1_555
O44 P5 1.537102 1_655
O45 P4 1.538757 1_655
O46 P0 1.534682 1_655
O47 P0 1.557085 1_655
