# generated using pymatgen
data_Li3(FeO3)2
_symmetry_space_group_name_H-M   'P 1'
_cell_length_a   5.11561264
_cell_length_b   5.03088199
_cell_length_c   5.07103492
_cell_angle_alpha   100.74811157
_cell_angle_beta   98.94855314
_cell_angle_gamma   120.13407068
_symmetry_Int_Tables_number   1
_chemical_formula_structural   Li3(FeO3)2
_chemical_formula_sum   'Li3 Fe2 O6'
_cell_volume   106.01512795
_cell_formula_units_Z   1
loop_
 _symmetry_equiv_pos_site_id
 _symmetry_equiv_pos_as_xyz
  1  'x, y, z'
loop_
 _atom_site_type_symbol
 _atom_site_label
 _atom_site_symmetry_multiplicity
 _atom_site_fract_x
 _atom_site_fract_y
 _atom_site_fract_z
 _atom_site_occupancy
  Li  Li0  1  0.02187700  0.49909900  0.01190800  1
  Li  Li1  1  0.64574900  0.84717700  0.00063100  1
  Li  Li2  1  0.35231800  0.15420100  0.99189300  1
  Fe  Fe0  1  0.16993700  0.34052500  0.49983400  1
  Fe  Fe1  1  0.83263900  0.67152900  0.49909900  1
  O  O0  1  0.79843200  0.29666900  0.26953000  1
  O  O1  1  0.21368700  0.69978500  0.74209600  1
  O  O2  1  0.39779200  0.53087500  0.26560300  1
  O  O3  1  0.96434000  0.08488300  0.72945100  1
  O  O4  1  0.56797800  0.45258600  0.72228800  1
  O  O5  1  0.03525100  0.92267200  0.26766700  1
loop_
_geom_bond_atom_site_label_1
_geom_bond_atom_site_label_2
_geom_bond_distance
_geom_bond_site_symmetry_2
Li0 O1 1.947410 1_554
Li0 O0 1.960209 1_455
Li0 O2 2.055159 1_555
Li0 O3 2.149532 1_454
Li0 O5 2.241183 1_555
Li0 O4 2.422535 1_454
Li1 O4 2.019551 1_554
Li1 O5 2.038902 1_655
Li1 O1 2.060165 1_554
Li1 O0 2.080447 1_565
Li1 O2 2.290789 1_555
Li1 O3 2.308916 1_564
Li2 O2 2.011858 1_556
Li2 O3 2.035244 1_455
Li2 O1 2.084810 1_545
Li2 O0 2.164680 1_556
Li2 O4 2.216216 1_555
Li2 O5 2.315074 1_546
Fe0 O2 1.849538 1_555
Fe0 O1 1.872475 1_555
Fe0 O4 1.905830 1_555
Fe0 O5 1.910552 1_545
Fe0 O3 1.922880 1_455
Fe0 O0 1.953671 1_455
Fe1 O3 1.893490 1_565
Fe1 O5 1.914317 1_655
Fe1 O0 1.931014 1_555
Fe1 O4 1.942068 1_555
Fe1 O2 2.034399 1_555
Fe1 O1 2.060965 1_655
