# generated using pymatgen
data_CaSi2SnO6
_symmetry_space_group_name_H-M   'P 1'
_cell_length_a   7.23800613
_cell_length_b   7.23800613
_cell_length_c   5.42505511
_cell_angle_alpha   79.57461957
_cell_angle_beta   79.57461957
_cell_angle_gamma   84.57744745
_symmetry_Int_Tables_number   1
_chemical_formula_structural   CaSi2SnO6
_chemical_formula_sum   'Ca2 Si4 Sn2 O12'
_cell_volume   274.34447346
_cell_formula_units_Z   2
loop_
 _symmetry_equiv_pos_site_id
 _symmetry_equiv_pos_as_xyz
  1  'x, y, z'
loop_
 _atom_site_type_symbol
 _atom_site_label
 _atom_site_symmetry_multiplicity
 _atom_site_fract_x
 _atom_site_fract_y
 _atom_site_fract_z
 _atom_site_occupancy
  Ca  Ca0  1  0.67859400  0.32140600  0.25000000  1
  Ca  Ca1  1  0.32140600  0.67859400  0.75000000  1
  Si  Si0  1  0.81216100  0.61664400  0.73801800  1
  Si  Si1  1  0.38335600  0.18783900  0.76198200  1
  Si  Si2  1  0.61664400  0.81216100  0.23801800  1
  Si  Si3  1  0.18783900  0.38335600  0.26198200  1
  Sn  Sn0  1  0.88740800  0.11259200  0.75000000  1
  Sn  Sn1  1  0.11259200  0.88740800  0.25000000  1
  O  O0  1  0.68943400  0.66194300  0.49188400  1
  O  O1  1  0.33805700  0.31056600  0.00811600  1
  O  O2  1  0.31056600  0.33805700  0.50811600  1
  O  O3  1  0.66194300  0.68943400  0.99188400  1
  O  O4  1  0.82492800  0.39194000  0.84270900  1
  O  O5  1  0.60806000  0.17507200  0.65729100  1
  O  O6  1  0.17507200  0.60806000  0.15729100  1
  O  O7  1  0.39194000  0.82492800  0.34270900  1
  O  O8  1  0.70815600  0.01260600  0.16515600  1
  O  O9  1  0.98739400  0.29184400  0.33484400  1
  O  O10  1  0.01260600  0.70815600  0.66515600  1
  O  O11  1  0.29184400  0.98739400  0.83484400  1
loop_
_geom_bond_atom_site_label_1
_geom_bond_atom_site_label_2
_geom_bond_distance
_geom_bond_site_symmetry_2
Ca0 O5 2.260899 1_555
Ca0 O4 2.260899 1_554
Ca0 O9 2.345121 1_555
Ca0 O8 2.345121 1_555
Ca0 O3 2.778770 1_554
Ca0 O2 2.778770 1_555
Ca0 O0 3.007951 1_555
Ca0 O1 3.007951 1_555
Ca1 O7 2.260899 1_555
Ca1 O6 2.260899 1_556
Ca1 O11 2.345121 1_555
Ca1 O10 2.345121 1_555
Ca1 O0 2.778770 1_555
Ca1 O1 2.778770 1_556
Ca1 O3 3.007951 1_555
Ca1 O2 3.007951 1_555
O0 Si0 1.701575 1_555
O0 Si2 1.723059 1_555
O1 Si1 1.701575 1_554
O1 Si3 1.723059 1_555
O2 Si3 1.701575 1_555
O2 Si1 1.723059 1_555
O3 Si2 1.701575 1_556
O3 Si0 1.723059 1_555
O4 Si0 1.622529 1_555
O4 Sn0 2.158367 1_555
O5 Si1 1.622529 1_555
O5 Sn0 2.158367 1_555
O6 Si3 1.622529 1_555
O6 Sn1 2.158367 1_555
O7 Si2 1.622529 1_555
O7 Sn1 2.158367 1_555
O8 Si2 1.605982 1_545
O8 Sn0 2.410329 1_554
O9 Si3 1.605982 1_655
O9 Sn0 2.410329 1_555
O10 Si0 1.605982 1_455
O10 Sn1 2.410329 1_555
O11 Si1 1.605982 1_565
O11 Sn1 2.410329 1_556
