# generated using pymatgen
data_ThCl3O8
_symmetry_space_group_name_H-M   'P 1'
_cell_length_a   6.09145800
_cell_length_b   7.77099639
_cell_length_c   9.32615025
_cell_angle_alpha   95.06536209
_cell_angle_beta   103.77721510
_cell_angle_gamma   105.44510570
_symmetry_Int_Tables_number   1
_chemical_formula_structural   ThCl3O8
_chemical_formula_sum   'Th2 Cl6 O16'
_cell_volume   407.81986710
_cell_formula_units_Z   2
loop_
 _symmetry_equiv_pos_site_id
 _symmetry_equiv_pos_as_xyz
  1  'x, y, z'
loop_
 _atom_site_type_symbol
 _atom_site_label
 _atom_site_symmetry_multiplicity
 _atom_site_fract_x
 _atom_site_fract_y
 _atom_site_fract_z
 _atom_site_occupancy
  Th  Th0  1  0.37227500  0.32040000  0.35108500  1
  Th  Th1  1  0.62772500  0.67960000  0.64891500  1
  Cl  Cl0  1  0.71743600  0.42864900  0.02234000  1
  Cl  Cl1  1  0.28256400  0.57135100  0.97766000  1
  Cl  Cl2  1  0.28100800  0.01426300  0.72446400  1
  Cl  Cl3  1  0.71899200  0.98573700  0.27553600  1
  Cl  Cl4  1  0.09116600  0.66275800  0.39006500  1
  Cl  Cl5  1  0.90883400  0.33724200  0.60993500  1
  O  O0  1  0.99553700  0.08200200  0.31371800  1
  O  O1  1  0.00446300  0.91799800  0.68628200  1
  O  O2  1  0.14050400  0.18066900  0.01979500  1
  O  O3  1  0.85949600  0.81933100  0.98020500  1
  O  O4  1  0.56822200  0.11899300  0.23546600  1
  O  O5  1  0.43177800  0.88100700  0.76453400  1
  O  O6  1  0.34666300  0.43392300  0.56896200  1
  O  O7  1  0.65333700  0.56607700  0.43103800  1
  O  O8  1  0.05063000  0.81824800  0.06384900  1
  O  O9  1  0.94937000  0.18175200  0.93615100  1
  O  O10  1  0.64615200  0.21344300  0.55654300  1
  O  O11  1  0.35384800  0.78655700  0.44345700  1
  O  O12  1  0.06833600  0.47845900  0.29190000  1
  O  O13  1  0.93166400  0.52154100  0.70810000  1
  O  O14  1  0.42999700  0.54743300  0.13590700  1
  O  O15  1  0.57000300  0.45256700  0.86409300  1
loop_
_geom_bond_atom_site_label_1
_geom_bond_atom_site_label_2
_geom_bond_distance
_geom_bond_site_symmetry_2
Cl0 O15 1.589102 1_554
Cl1 O14 1.589102 1_556
Cl2 O5 1.570628 1_545
Cl2 O1 1.587517 1_545
Cl3 O4 1.570628 1_565
Cl3 O0 1.587517 1_565
Cl4 O11 1.565196 1_555
Cl4 O12 1.584420 1_555
Cl5 O10 1.565196 1_555
Cl5 O13 1.584420 1_555
O0 Th0 2.461837 1_655
O1 Th1 2.461837 1_455
O2 O9 1.240138 1_454
O2 Th0 3.038377 1_555
O3 O8 1.240138 1_656
O3 Th1 3.038377 1_555
O4 Th0 2.519334 1_555
O5 Th1 2.519334 1_555
O6 Th1 2.128777 1_555
O6 Th0 2.199816 1_555
O7 Th0 2.128777 1_555
O7 Th1 2.199816 1_555
O10 Th0 2.577378 1_555
O11 Th1 2.577378 1_555
O12 Th0 2.466849 1_555
O13 Th1 2.466849 1_555
O14 Th0 2.809685 1_555
O15 Th1 2.809685 1_555
