# generated using pymatgen
data_CaCuP4(RuO7)2
_symmetry_space_group_name_H-M   'P 1'
_cell_length_a   5.11968705
_cell_length_b   6.83575998
_cell_length_c   8.58453342
_cell_angle_alpha   93.49987502
_cell_angle_beta   92.80450924
_cell_angle_gamma   106.39326735
_symmetry_Int_Tables_number   1
_chemical_formula_structural   CaCuP4(RuO7)2
_chemical_formula_sum   'Ca1 Cu1 P4 Ru2 O14'
_cell_volume   286.99408634
_cell_formula_units_Z   1
loop_
 _symmetry_equiv_pos_site_id
 _symmetry_equiv_pos_as_xyz
  1  'x, y, z'
loop_
 _atom_site_type_symbol
 _atom_site_label
 _atom_site_symmetry_multiplicity
 _atom_site_fract_x
 _atom_site_fract_y
 _atom_site_fract_z
 _atom_site_occupancy
  Ca  Ca0  1  0.44273900  0.23141000  0.82578800  1
  Cu  Cu0  1  0.97081400  0.01360200  0.46540500  1
  P  P0  1  0.40540100  0.75412200  0.80696400  1
  P  P1  1  0.61653100  0.24177200  0.20499800  1
  P  P2  1  0.00521100  0.65098800  0.27145300  1
  P  P3  1  0.98531700  0.35472100  0.71521800  1
  Ru  Ru0  1  0.49667900  0.51208100  0.49349200  1
  Ru  Ru1  1  0.99457600  0.99218300  0.01007700  1
  O  O0  1  0.12385500  0.81896700  0.16531500  1
  O  O1  1  0.87725000  0.18454300  0.82544900  1
  O  O2  1  0.47983200  0.76373200  0.63642600  1
  O  O3  1  0.52875400  0.25135300  0.37268900  1
  O  O4  1  0.22043600  0.51600700  0.82732900  1
  O  O5  1  0.78625700  0.47009300  0.16336600  1
  O  O6  1  0.21643800  0.89155500  0.83277500  1
  O  O7  1  0.79837200  0.09949800  0.18913600  1
  O  O8  1  0.21777600  0.55706300  0.33544700  1
  O  O9  1  0.75908200  0.44535800  0.66767400  1
  O  O10  1  0.63313700  0.77523200  0.93168500  1
  O  O11  1  0.37760100  0.20352200  0.07881200  1
  O  O12  1  0.14771800  0.27935100  0.58610100  1
  O  O13  1  0.83288900  0.72432700  0.39908900  1
loop_
_geom_bond_atom_site_label_1
_geom_bond_atom_site_label_2
_geom_bond_distance
_geom_bond_site_symmetry_2
Ca0 O11 2.225106 1_556
Ca0 O6 2.290754 1_545
Ca0 O1 2.335405 1_555
Ca0 O9 2.392652 1_555
Ca0 O4 2.515620 1_555
Ca0 O12 2.584584 1_555
Ca0 O1 2.821334 1_455
Cu0 O13 1.941119 1_545
Cu0 O12 1.985830 1_655
O0 P2 1.518504 1_555
O0 Ru1 2.040765 1_455
O1 P3 1.541802 1_555
O1 Ru1 2.282326 1_546
O2 P0 1.531337 1_555
O2 Ru0 2.075716 1_555
O3 P1 1.531976 1_555
O3 Ru0 2.057940 1_555
O4 P3 1.612060 1_455
O4 P0 1.660604 1_555
O5 P2 1.619358 1_655
O5 P1 1.628404 1_555
O6 P0 1.541486 1_555
O6 Ru1 2.135972 1_456
O7 P1 1.529184 1_555
O7 Ru1 2.083104 1_545
O8 P2 1.509074 1_555
O8 Ru0 2.020736 1_555
O9 P3 1.510523 1_555
O9 Ru0 2.116886 1_555
O10 P0 1.513466 1_555
O10 Ru1 2.069707 1_556
O11 P1 1.547042 1_555
O11 Ru1 2.112874 1_445
O12 P3 1.564470 1_455
O12 Ru0 2.245858 1_555
O13 P2 1.583477 1_655
O13 Ru0 2.143597 1_555
