# generated using pymatgen
data_NaNd3Ti3MnO12
_symmetry_space_group_name_H-M   'P 1'
_cell_length_a   5.49919500
_cell_length_b   5.65696092
_cell_length_c   7.88551310
_cell_angle_alpha   89.87481354
_cell_angle_beta   89.76130544
_cell_angle_gamma   89.87754794
_symmetry_Int_Tables_number   1
_chemical_formula_structural   NaNd3Ti3MnO12
_chemical_formula_sum   'Na1 Nd3 Ti3 Mn1 O12'
_cell_volume   245.30503763
_cell_formula_units_Z   1
loop_
 _symmetry_equiv_pos_site_id
 _symmetry_equiv_pos_as_xyz
  1  'x, y, z'
loop_
 _atom_site_type_symbol
 _atom_site_label
 _atom_site_symmetry_multiplicity
 _atom_site_fract_x
 _atom_site_fract_y
 _atom_site_fract_z
 _atom_site_occupancy
  Na  Na0  1  0.49725800  0.48186800  0.24979500  1
  Nd  Nd0  1  0.01704100  0.94963800  0.24161500  1
  Nd  Nd1  1  0.51251400  0.55089300  0.76291600  1
  Nd  Nd2  1  0.98859900  0.05129800  0.75450600  1
  Ti  Ti0  1  0.49835700  0.02109000  0.50380200  1
  Ti  Ti1  1  0.00989300  0.51168600  0.49145100  1
  Ti  Ti2  1  0.50360700  0.00421000  0.01633600  1
  Mn  Mn0  1  0.00403300  0.49580600  0.00675000  1
  O  O0  1  0.58741100  0.02311300  0.25380400  1
  O  O1  1  0.91646200  0.51849400  0.26688600  1
  O  O2  1  0.41366300  0.97188900  0.73866300  1
  O  O3  1  0.09389500  0.47224900  0.73417500  1
  O  O4  1  0.78459900  0.80414700  0.95289200  1
  O  O5  1  0.70751000  0.27294000  0.55598300  1
  O  O6  1  0.20398700  0.19723000  0.45967900  1
  O  O7  1  0.31124900  0.72050600  0.03902700  1
  O  O8  1  0.20460700  0.17701100  0.03035500  1
  O  O9  1  0.27007600  0.72372100  0.45333100  1
  O  O10  1  0.77642000  0.78069600  0.54906000  1
  O  O11  1  0.69881900  0.27151300  0.93897500  1
loop_
_geom_bond_atom_site_label_1
_geom_bond_atom_site_label_2
_geom_bond_distance
_geom_bond_site_symmetry_2
Na0 O1 2.319522 1_555
Na0 O7 2.372652 1_555
Na0 O9 2.448306 1_555
Na0 O0 2.641195 1_555
Na0 O6 2.812483 1_555
Na0 O5 2.927155 1_555
Na0 O8 2.933682 1_555
Na0 O11 2.938772 1_554
Nd0 O8 2.339983 1_565
Nd0 O0 2.399594 1_465
Nd0 O6 2.450892 1_565
Nd0 O1 2.509364 1_455
Nd0 O9 2.521737 1_555
Nd0 O7 2.613106 1_555
Nd0 O4 2.744399 1_454
Nd0 O10 2.917251 1_455
Nd1 O11 2.338849 1_555
Nd1 O3 2.357534 1_555
Nd1 O2 2.448926 1_555
Nd1 O5 2.504860 1_555
Nd1 O4 2.563715 1_555
Nd1 O10 2.572561 1_555
Nd1 O7 2.621197 1_556
Nd2 O4 2.375512 1_545
Nd2 O2 2.382158 1_645
Nd2 O3 2.456634 1_655
Nd2 O11 2.487446 1_555
Nd2 O10 2.522604 1_545
Nd2 O5 2.532864 1_555
Nd2 O8 2.584611 1_656
Nd2 O6 2.731718 1_655
Mn0 O1 2.109240 1_455
Mn0 O8 2.120207 1_555
Mn0 O7 2.132817 1_555
Mn0 O4 2.161259 1_454
Mn0 O11 2.175361 1_454
Mn0 O3 2.207708 1_554
O0 Ti2 1.933538 1_555
O0 Ti0 2.029314 1_555
O1 Ti1 1.846195 1_655
O2 Ti0 1.927539 1_565
O2 Ti2 2.254675 1_566
O3 Ti1 1.982834 1_555
O4 Ti2 1.976724 1_566
O5 Ti0 1.880294 1_555
O5 Ti1 2.201741 1_655
O6 Ti0 1.931501 1_555
O6 Ti1 2.087581 1_555
O7 Ti2 1.931612 1_565
O8 Ti2 1.914016 1_555
O9 Ti1 1.891680 1_555
O9 Ti0 2.140153 1_565
O10 Ti1 2.039711 1_655
O10 Ti0 2.075680 1_565
O11 Ti2 1.951544 1_556
