# generated using pymatgen
data_Tb(Ni2B)6
_symmetry_space_group_name_H-M   'P 1'
_cell_length_a   6.02682981
_cell_length_b   6.02682981
_cell_length_c   10.96144600
_cell_angle_alpha   90.00000000
_cell_angle_beta   90.00000000
_cell_angle_gamma   104.77146483
_symmetry_Int_Tables_number   1
_chemical_formula_structural   Tb(Ni2B)6
_chemical_formula_sum   'Tb2 Ni24 B12'
_cell_volume   384.99043666
_cell_formula_units_Z   2
loop_
 _symmetry_equiv_pos_site_id
 _symmetry_equiv_pos_as_xyz
  1  'x, y, z'
loop_
 _atom_site_type_symbol
 _atom_site_label
 _atom_site_symmetry_multiplicity
 _atom_site_fract_x
 _atom_site_fract_y
 _atom_site_fract_z
 _atom_site_occupancy
  Tb  Tb0  1  0.83320100  0.83320100  0.00357600  1
  Tb  Tb1  1  0.16679900  0.16679900  0.50357600  1
  Ni  Ni0  1  0.99759400  0.63170600  0.56273200  1
  Ni  Ni1  1  0.73068800  0.34260200  0.43217500  1
  Ni  Ni2  1  0.34260200  0.73068800  0.43217500  1
  Ni  Ni3  1  0.65739800  0.26931200  0.93217500  1
  Ni  Ni4  1  0.00240600  0.36829400  0.06273200  1
  Ni  Ni5  1  0.36829400  0.00240600  0.06273200  1
  Ni  Ni6  1  0.63170600  0.99759400  0.56273200  1
  Ni  Ni7  1  0.43320700  0.43320700  0.08154500  1
  Ni  Ni8  1  0.21252100  0.47399300  0.72348700  1
  Ni  Ni9  1  0.78747900  0.52600700  0.22348700  1
  Ni  Ni10  1  0.52600700  0.78747900  0.22348700  1
  Ni  Ni11  1  0.47399300  0.21252100  0.72348700  1
  Ni  Ni12  1  0.56679300  0.56679300  0.58154500  1
  Ni  Ni13  1  0.21761600  0.21761600  0.90082100  1
  Ni  Ni14  1  0.14577200  0.88232400  0.74435700  1
  Ni  Ni15  1  0.85422800  0.11767600  0.24435700  1
  Ni  Ni16  1  0.11767600  0.85422800  0.24435700  1
  Ni  Ni17  1  0.88232400  0.14577200  0.74435700  1
  Ni  Ni18  1  0.54421300  0.80557500  0.76676200  1
  Ni  Ni19  1  0.45578700  0.19442500  0.26676200  1
  Ni  Ni20  1  0.19442500  0.45578700  0.26676200  1
  Ni  Ni21  1  0.80557500  0.54421300  0.76676200  1
  Ni  Ni22  1  0.78238400  0.78238400  0.40082100  1
  Ni  Ni23  1  0.26931200  0.65739800  0.93217500  1
  B  B0  1  0.40010400  0.98752200  0.87746400  1
  B  B1  1  0.59989600  0.01247800  0.37746400  1
  B  B2  1  0.01247800  0.59989600  0.37746400  1
  B  B3  1  0.98752200  0.40010400  0.87746400  1
  B  B4  1  0.32759100  0.75860600  0.61513400  1
  B  B5  1  0.67240900  0.24139400  0.11513400  1
  B  B6  1  0.24139400  0.67240900  0.11513400  1
  B  B7  1  0.75860600  0.32759100  0.61513400  1
  B  B8  1  0.51232900  0.51232900  0.34479600  1
  B  B9  1  0.48767100  0.48767100  0.84479600  1
  B  B10  1  0.16344400  0.16344400  0.16204100  1
  B  B11  1  0.83655600  0.83655600  0.66204100  1
loop_
_geom_bond_atom_site_label_1
_geom_bond_atom_site_label_2
_geom_bond_distance
_geom_bond_site_symmetry_2
Ni0 Tb1 3.191157 1_665
Ni0 Tb1 3.281486 1_655
Ni1 Tb1 3.172310 1_655
Ni1 Tb1 3.383574 1_555
Ni2 Tb1 3.172310 1_565
Ni2 Tb1 3.383574 1_555
Ni3 Tb0 3.172310 1_546
Ni3 Tb0 3.383574 1_556
Ni4 Tb0 3.191157 1_445
Ni4 Tb0 3.281486 1_455
Ni5 Tb0 3.191157 1_445
Ni5 Tb0 3.281486 1_545
Ni6 Tb1 3.191157 1_665
Ni6 Tb1 3.281486 1_565
Ni7 Tb0 3.064297 1_555
Ni8 Tb1 3.009020 1_555
Ni9 Tb0 3.009020 1_555
Ni10 Tb0 3.009020 1_555
Ni11 Tb1 3.009020 1_555
Ni12 Tb1 3.064297 1_555
Ni13 Tb0 3.044130 1_446
Ni14 Tb1 3.132198 1_565
Ni14 Tb0 3.380184 1_456
Ni15 Tb0 3.132198 1_545
Ni15 Tb1 3.380184 1_655
Ni16 Tb0 3.132198 1_455
Ni16 Tb1 3.380184 1_565
Ni17 Tb1 3.132198 1_655
Ni17 Tb0 3.380184 1_546
Ni18 Tb0 3.106703 1_556
Ni19 Tb1 3.106703 1_555
Ni20 Tb1 3.106703 1_555
Ni21 Tb0 3.106703 1_556
Ni22 Tb1 3.044130 1_665
Ni23 Tb0 3.172310 1_456
Ni23 Tb0 3.383574 1_556
B0 Ni18 1.978611 1_555
B0 Ni13 1.993973 1_565
B0 Ni23 2.034647 1_555
B0 Ni5 2.043952 1_566
B0 Ni3 2.074982 1_565
B0 Ni14 2.093979 1_555
B0 Ni11 2.139604 1_565
B0 Tb0 3.290449 1_556
B1 Ni19 1.978611 1_555
B1 Ni22 1.993973 1_545
B1 Ni1 2.034647 1_555
B1 Ni6 2.043952 1_545
B1 Ni2 2.074982 1_545
B1 Ni15 2.093979 1_555
B1 Ni10 2.139604 1_545
B1 Tb1 3.290449 1_555
B2 Ni20 1.978611 1_555
B2 Ni22 1.993973 1_455
B2 Ni2 2.034647 1_555
B2 Ni0 2.043952 1_455
B2 Ni1 2.074982 1_455
B2 Ni16 2.093979 1_555
B2 Ni9 2.139604 1_455
B2 Tb1 3.290449 1_555
B3 Ni21 1.978611 1_555
B3 Ni13 1.993973 1_655
B3 Ni3 2.034647 1_555
B3 Ni4 2.043952 1_656
B3 Ni23 2.074982 1_655
B3 Ni17 2.093979 1_555
B3 Ni8 2.139604 1_655
B3 Tb0 3.290449 1_556
B4 Ni2 2.016499 1_555
B4 Ni0 2.023535 1_455
B4 Ni14 2.044443 1_555
B4 Ni8 2.056039 1_555
B4 Ni18 2.087720 1_555
B4 Ni12 2.097635 1_555
B4 Ni6 2.101828 1_555
B4 Tb1 3.114841 1_565
B5 Ni3 2.016499 1_554
B5 Ni4 2.023535 1_655
B5 Ni15 2.044443 1_555
B5 Ni9 2.056039 1_555
B5 Ni19 2.087720 1_555
B5 Ni7 2.097635 1_555
B5 Ni5 2.101828 1_555
B5 Tb0 3.114841 1_545
B6 Ni23 2.016499 1_554
B6 Ni5 2.023535 1_565
B6 Ni16 2.044443 1_555
B6 Ni10 2.056039 1_555
B6 Ni20 2.087720 1_555
B6 Ni7 2.097635 1_555
B6 Ni4 2.101828 1_555
B6 Tb0 3.114841 1_455
B7 Ni1 2.016499 1_555
B7 Ni6 2.023535 1_545
B7 Ni17 2.044443 1_555
B7 Ni11 2.056039 1_555
B7 Ni21 2.087720 1_555
B7 Ni12 2.097635 1_555
B7 Ni0 2.101828 1_555
B7 Tb1 3.114841 1_655
B8 Ni19 2.045903 1_555
B8 Ni20 2.045903 1_555
B8 Ni22 2.079505 1_555
B8 Ni2 2.093341 1_555
B8 Ni1 2.093341 1_555
B8 Ni10 2.110722 1_555
B8 Ni9 2.110722 1_555
B8 Tb1 3.080753 1_555
B9 Ni18 2.045903 1_555
B9 Ni21 2.045903 1_555
B9 Ni13 2.079505 1_555
B9 Ni3 2.093341 1_555
B9 Ni23 2.093341 1_555
B9 Ni8 2.110722 1_555
B9 Ni11 2.110722 1_555
B9 Tb0 3.080753 1_556
B10 Ni16 2.025113 1_545
B10 Ni15 2.025113 1_455
B10 Ni4 2.064508 1_555
B10 Ni5 2.064508 1_555
B10 Ni19 2.071006 1_555
B10 Ni20 2.071006 1_555
B10 Ni7 2.171916 1_555
B10 Tb0 2.986622 1_445
B11 Ni17 2.025113 1_565
B11 Ni14 2.025113 1_655
B11 Ni0 2.064508 1_555
B11 Ni6 2.064508 1_555
B11 Ni21 2.071006 1_555
B11 Ni18 2.071006 1_555
B11 Ni12 2.171916 1_555
B11 Tb1 2.986622 1_665
