# generated using pymatgen
data_Ca3V2(Si2O7)2
_symmetry_space_group_name_H-M   'P 1'
_cell_length_a   9.44762264
_cell_length_b   9.44762264
_cell_length_c   10.19837995
_cell_angle_alpha   59.07631693
_cell_angle_beta   59.07631693
_cell_angle_gamma   48.50669507
_symmetry_Int_Tables_number   1
_chemical_formula_structural   Ca3V2(Si2O7)2
_chemical_formula_sum   'Ca6 V4 Si8 O28'
_cell_volume   563.20517253
_cell_formula_units_Z   2
loop_
 _symmetry_equiv_pos_site_id
 _symmetry_equiv_pos_as_xyz
  1  'x, y, z'
loop_
 _atom_site_type_symbol
 _atom_site_label
 _atom_site_symmetry_multiplicity
 _atom_site_fract_x
 _atom_site_fract_y
 _atom_site_fract_z
 _atom_site_occupancy
  Ca  Ca0  1  0.23588900  0.16433500  0.53654700  1
  Ca  Ca1  1  0.83566500  0.76411100  0.96345300  1
  Ca  Ca2  1  0.16433500  0.23588900  0.03654700  1
  Ca  Ca3  1  0.64996500  0.35003500  0.25000000  1
  Ca  Ca4  1  0.76411100  0.83566500  0.46345300  1
  Ca  Ca5  1  0.35003500  0.64996500  0.75000000  1
  V  V0  1  0.20329200  0.79670800  0.25000000  1
  V  V1  1  0.79670800  0.20329200  0.75000000  1
  V  V2  1  0.00000000  0.00000000  0.00000000  1
  V  V3  1  0.00000000  0.00000000  0.50000000  1
  Si  Si0  1  0.11547400  0.53489600  0.65279900  1
  Si  Si1  1  0.53489600  0.11547400  0.15279900  1
  Si  Si2  1  0.21534600  0.53184000  0.14716700  1
  Si  Si3  1  0.53184000  0.21534600  0.64716700  1
  Si  Si4  1  0.46510400  0.88452600  0.84720100  1
  Si  Si5  1  0.78465400  0.46816000  0.85283300  1
  Si  Si6  1  0.46816000  0.78465400  0.35283300  1
  Si  Si7  1  0.88452600  0.46510400  0.34720100  1
  O  O0  1  0.29030800  0.87870000  0.50106800  1
  O  O1  1  0.89262000  0.96079200  0.72676400  1
  O  O2  1  0.64777700  0.46197200  0.80885900  1
  O  O3  1  0.96079200  0.89262000  0.22676400  1
  O  O4  1  0.92965300  0.26591100  0.49409700  1
  O  O5  1  0.49973000  0.05226300  0.81849000  1
  O  O6  1  0.46197200  0.64777700  0.30885900  1
  O  O7  1  0.73408900  0.07034700  0.00590300  1
  O  O8  1  0.50027000  0.94773700  0.18151000  1
  O  O9  1  0.67184700  0.65801900  0.41016000  1
  O  O10  1  0.10738000  0.03920800  0.27323600  1
  O  O11  1  0.07034700  0.73408900  0.50590300  1
  O  O12  1  0.94773700  0.50027000  0.68151000  1
  O  O13  1  0.87870000  0.29030800  0.00106800  1
  O  O14  1  0.65801900  0.67184700  0.91016000  1
  O  O15  1  0.26591100  0.92965300  0.99409700  1
  O  O16  1  0.46928500  0.89411700  0.68284400  1
  O  O17  1  0.32815300  0.34198100  0.58984000  1
  O  O18  1  0.10588300  0.53071500  0.81715600  1
  O  O19  1  0.34198100  0.32815300  0.08984000  1
  O  O20  1  0.05226300  0.49973000  0.31849000  1
  O  O21  1  0.03920800  0.10738000  0.77323600  1
  O  O22  1  0.89411700  0.46928500  0.18284400  1
  O  O23  1  0.35222300  0.53802800  0.19114100  1
  O  O24  1  0.53071500  0.10588300  0.31715600  1
  O  O25  1  0.53802800  0.35222300  0.69114100  1
  O  O26  1  0.12130000  0.70969200  0.99893200  1
  O  O27  1  0.70969200  0.12130000  0.49893200  1
loop_
_geom_bond_atom_site_label_1
_geom_bond_atom_site_label_2
_geom_bond_distance
_geom_bond_site_symmetry_2
Ca0 O21 2.224614 1_555
Ca0 O16 2.369177 1_545
Ca0 O24 2.428149 1_555
Ca0 O0 2.579046 1_545
Ca0 O4 2.580758 1_455
Ca0 O17 2.689792 1_555
Ca0 O20 2.726590 1_555
Ca0 O12 2.984446 1_455
Ca1 O1 2.224614 1_555
Ca1 O18 2.369177 1_655
Ca1 O22 2.428149 1_556
Ca1 O26 2.579046 1_655
Ca1 O7 2.580758 1_566
Ca1 O14 2.689792 1_555
Ca1 O8 2.726590 1_556
Ca1 O5 2.984446 1_565
Ca2 O10 2.224614 1_555
Ca2 O22 2.369177 1_455
Ca2 O18 2.428149 1_554
Ca2 O13 2.579046 1_455
Ca2 O15 2.580758 1_544
Ca2 O19 2.689792 1_555
Ca2 O5 2.726590 1_554
Ca2 O8 2.984446 1_545
Ca3 O23 2.333906 1_555
Ca3 O6 2.333906 1_555
Ca3 O27 2.377245 1_555
Ca3 O13 2.377245 1_555
Ca3 O24 2.843551 1_555
Ca3 O22 2.843551 1_555
Ca4 O3 2.224614 1_555
Ca4 O24 2.369177 1_565
Ca4 O16 2.428149 1_555
Ca4 O27 2.579046 1_565
Ca4 O11 2.580758 1_655
Ca4 O9 2.689792 1_555
Ca4 O12 2.726590 1_555
Ca4 O20 2.984446 1_655
Ca5 O25 2.333906 1_555
Ca5 O2 2.333906 1_555
Ca5 O26 2.377245 1_555
Ca5 O0 2.377245 1_555
Ca5 O18 2.843551 1_555
Ca5 O16 2.843551 1_555
O0 Si6 1.640037 1_555
O0 V3 2.165396 1_565
O1 V1 1.926811 1_565
O1 V3 1.928935 1_665
O2 Si5 1.612446 1_555
O2 V1 2.096664 1_555
O3 V0 1.926811 1_655
O3 V2 1.928935 1_665
O4 Si7 1.631963 1_555
O4 V3 2.104731 1_655
O4 V1 2.183413 1_555
O5 Si4 1.677990 1_545
O5 Si3 1.681200 1_555
O6 Si6 1.612446 1_555
O6 V0 2.096664 1_555
O7 Si1 1.631963 1_555
O7 V2 2.104731 1_655
O7 V1 2.183413 1_554
O8 Si1 1.677990 1_565
O8 Si6 1.681200 1_555
O9 Si7 1.672011 1_555
O9 Si6 1.692057 1_555
O10 V0 1.926811 1_545
O10 V3 1.928935 1_555
O11 Si0 1.631963 1_555
O11 V3 2.104731 1_565
O11 V0 2.183413 1_555
O12 Si0 1.677990 1_655
O12 Si5 1.681200 1_555
O13 Si5 1.640037 1_554
O13 V2 2.165396 1_655
O14 Si4 1.672011 1_555
O14 Si5 1.692057 1_555
O15 Si4 1.631963 1_555
O15 V2 2.104731 1_566
O15 V0 2.183413 1_556
O16 Si4 1.612428 1_555
O17 Si0 1.672011 1_555
O17 Si3 1.692057 1_555
O18 Si0 1.612428 1_555
O19 Si1 1.672011 1_555
O19 Si2 1.692057 1_555
O20 Si7 1.677990 1_455
O20 Si2 1.681200 1_555
O21 V1 1.926811 1_455
O21 V2 1.928935 1_556
O22 Si7 1.612428 1_555
O23 Si2 1.612446 1_555
O23 V0 2.096664 1_555
O24 Si1 1.612428 1_555
O25 Si3 1.612446 1_555
O25 V1 2.096664 1_555
O26 Si2 1.640037 1_556
O26 V2 2.165396 1_566
O27 Si3 1.640037 1_555
O27 V3 2.165396 1_655
