# generated using pymatgen
data_CeGaGe
_symmetry_space_group_name_H-M   'P 1'
_cell_length_a   7.94563961
_cell_length_b   7.94563961
_cell_length_c   7.94563961
_cell_angle_alpha   148.90439682
_cell_angle_beta   148.90439682
_cell_angle_gamma   44.55204817
_symmetry_Int_Tables_number   1
_chemical_formula_structural   CeGaGe
_chemical_formula_sum   'Ce2 Ga2 Ge2'
_cell_volume   133.40365150
_cell_formula_units_Z   2
loop_
 _symmetry_equiv_pos_site_id
 _symmetry_equiv_pos_as_xyz
  1  'x, y, z'
loop_
 _atom_site_type_symbol
 _atom_site_label
 _atom_site_symmetry_multiplicity
 _atom_site_fract_x
 _atom_site_fract_y
 _atom_site_fract_z
 _atom_site_occupancy
  Ce  Ce0  1  0.58209200  0.58209200  0.00000000  1
  Ce  Ce1  1  0.33209200  0.83209200  0.50000000  1
  Ga  Ga0  1  0.16563700  0.16563700  0.00000000  1
  Ga  Ga1  1  0.91563700  0.41563700  0.50000000  1
  Ge  Ge0  1  0.99927000  0.99927000  0.00000000  1
  Ge  Ge1  1  0.74927000  0.24927000  0.50000000  1
loop_
_geom_bond_atom_site_label_1
_geom_bond_atom_site_label_2
_geom_bond_distance
_geom_bond_site_symmetry_2
Ce0 Ga1 3.244608 1_555
Ce0 Ga1 3.244608 1_454
Ce0 Ge0 3.248869 1_455
Ce0 Ge0 3.248869 1_444
Ce0 Ge0 3.248869 1_545
Ce0 Ge0 3.248869 1_556
Ce0 Ge1 3.252636 1_554
Ce0 Ge1 3.252636 1_565
Ce0 Ga0 3.252869 1_655
Ce0 Ga0 3.252869 1_565
Ce0 Ga0 3.252869 1_554
Ce0 Ga0 3.252869 1_666
Ce1 Ga0 3.244608 1_555
Ce1 Ga0 3.244608 1_566
Ce1 Ge1 3.248869 1_555
Ce1 Ge1 3.248869 1_566
Ce1 Ge1 3.248869 1_454
Ce1 Ge1 3.248869 1_465
Ce1 Ge0 3.252636 1_556
Ce1 Ge0 3.252636 1_455
Ce1 Ga1 3.252869 1_555
Ce1 Ga1 3.252869 1_454
Ce1 Ga1 3.252869 1_566
Ce1 Ga1 3.252869 1_465
Ga0 Ge0 2.446475 1_445
Ga0 Ge1 2.459356 1_454
Ga0 Ge1 2.459356 1_555
Ga1 Ge1 2.446475 1_555
Ga1 Ge0 2.459356 1_556
Ga1 Ge0 2.459356 1_545
