# generated using pymatgen
data_Li9Mn7O16
_symmetry_space_group_name_H-M   'P 1'
_cell_length_a   6.04288100
_cell_length_b   6.49331077
_cell_length_c   8.15041121
_cell_angle_alpha   87.99436817
_cell_angle_beta   105.41002943
_cell_angle_gamma   104.74271355
_symmetry_Int_Tables_number   1
_chemical_formula_structural   Li9Mn7O16
_chemical_formula_sum   'Li9 Mn7 O16'
_cell_volume   297.97814254
_cell_formula_units_Z   1
loop_
 _symmetry_equiv_pos_site_id
 _symmetry_equiv_pos_as_xyz
  1  'x, y, z'
loop_
 _atom_site_type_symbol
 _atom_site_label
 _atom_site_symmetry_multiplicity
 _atom_site_fract_x
 _atom_site_fract_y
 _atom_site_fract_z
 _atom_site_occupancy
  Li  Li0  1  0.00000000  0.00000000  0.00000000  1
  Li  Li1  1  0.63325600  0.62766400  0.86855100  1
  Li  Li2  1  0.86886300  0.88114900  0.64239200  1
  Li  Li3  1  0.50000000  0.50000000  0.50000000  1
  Li  Li4  1  0.74457700  0.76394200  0.23667600  1
  Li  Li5  1  0.36674400  0.37233600  0.13144900  1
  Li  Li6  1  0.25542300  0.23605800  0.76332400  1
  Li  Li7  1  0.13113700  0.11885100  0.35760800  1
  Li  Li8  1  0.50000000  0.00000000  0.00000000  1
  Mn  Mn0  1  0.87286400  0.36831200  0.12374500  1
  Mn  Mn1  1  0.12713600  0.63168800  0.87625500  1
  Mn  Mn2  1  0.74601400  0.25025000  0.75498000  1
  Mn  Mn3  1  0.37302100  0.87885400  0.63175500  1
  Mn  Mn4  1  0.00000000  0.50000000  0.50000000  1
  Mn  Mn5  1  0.62697900  0.12114600  0.36824500  1
  Mn  Mn6  1  0.25398600  0.74975000  0.24502000  1
  O  O0  1  0.81921300  0.08159500  0.18835900  1
  O  O1  1  0.40109500  0.68770300  0.07496100  1
  O  O2  1  0.68158000  0.94973600  0.80016400  1
  O  O3  1  0.30439400  0.57351700  0.67290900  1
  O  O4  1  0.55581100  0.82054600  0.41655200  1
  O  O5  1  0.18115300  0.44983500  0.30263700  1
  O  O6  1  0.05472800  0.32076600  0.92074500  1
  O  O7  1  0.90521000  0.20138100  0.57435600  1
  O  O8  1  0.18078700  0.91840500  0.81164100  1
  O  O9  1  0.81884700  0.55016500  0.69736300  1
  O  O10  1  0.09479000  0.79861900  0.42564400  1
  O  O11  1  0.69560600  0.42648300  0.32709100  1
  O  O12  1  0.94527200  0.67923400  0.07925500  1
  O  O13  1  0.59890500  0.31229700  0.92503900  1
  O  O14  1  0.44418900  0.17945400  0.58344800  1
  O  O15  1  0.31842000  0.05026400  0.19983600  1
loop_
_geom_bond_atom_site_label_1
_geom_bond_atom_site_label_2
_geom_bond_distance
_geom_bond_site_symmetry_2
Li0 O2 2.124571 1_444
Li0 O15 2.124571 1_555
Li0 O6 2.129227 1_554
Li0 O12 2.129227 1_445
Li0 O0 2.252536 1_455
Li0 O8 2.252536 1_544
Li1 O13 2.053509 1_555
Li1 O2 2.112731 1_555
Li1 O12 2.148125 1_556
Li1 O3 2.148268 1_555
Li1 O9 2.150750 1_555
Li1 O1 2.555187 1_556
Li2 O8 1.980847 1_655
Li2 O2 2.050058 1_555
Li2 O7 2.105011 1_565
Li2 O9 2.141269 1_555
Li2 O4 2.223266 1_555
Li3 O5 2.115689 1_555
Li3 O9 2.115689 1_555
Li3 O14 2.138718 1_555
Li3 O4 2.138718 1_555
Li3 O11 2.197884 1_555
Li3 O3 2.197884 1_555
Li4 O0 2.043762 1_565
Li4 O1 2.087893 1_555
Li4 O12 2.153007 1_555
Li4 O4 2.173814 1_555
Li4 O10 2.225092 1_655
Li4 O11 2.259410 1_555
Li5 O1 2.053509 1_555
Li5 O15 2.112731 1_555
Li5 O6 2.148125 1_554
Li5 O11 2.148268 1_555
Li5 O5 2.150750 1_555
Li5 O13 2.555187 1_554
Li6 O8 2.043762 1_545
Li6 O13 2.087893 1_555
Li6 O6 2.153007 1_555
Li6 O14 2.173814 1_555
Li6 O7 2.225092 1_455
Li6 O3 2.259410 1_555
Li7 O0 1.980847 1_455
Li7 O15 2.050058 1_555
Li7 O10 2.105011 1_545
Li7 O5 2.141269 1_555
Li7 O14 2.223266 1_555
Li8 O8 2.078806 1_544
Li8 O0 2.078806 1_555
Li8 O1 2.081615 1_545
Li8 O13 2.081615 1_554
Li8 O2 2.265524 1_544
Li8 O15 2.265524 1_555
Mn0 O0 1.887709 1_555
Mn0 O13 1.950833 1_554
Mn0 O12 1.995601 1_555
Mn0 O5 1.996310 1_655
Mn0 O6 2.283710 1_654
Mn0 O11 2.286933 1_555
Mn1 O8 1.887709 1_555
Mn1 O1 1.950833 1_556
Mn1 O6 1.995601 1_555
Mn1 O9 1.996310 1_455
Mn1 O12 2.283710 1_456
Mn1 O3 2.286933 1_555
Mn2 O2 1.932389 1_545
Mn2 O13 1.936468 1_555
Mn2 O14 1.937931 1_555
Mn2 O6 1.945315 1_655
Mn2 O9 1.953550 1_555
Mn2 O7 2.033252 1_555
Mn3 O14 1.938763 1_565
Mn3 O2 1.954439 1_555
Mn3 O3 1.955578 1_555
Mn3 O10 2.008652 1_555
Mn3 O8 2.155989 1_555
Mn3 O4 2.393513 1_555
Mn4 O3 1.954465 1_555
Mn4 O11 1.954465 1_455
Mn4 O10 1.998035 1_555
Mn4 O7 1.998035 1_455
Mn4 O9 2.246329 1_455
Mn4 O5 2.246329 1_555
Mn5 O4 1.938763 1_545
Mn5 O15 1.954439 1_555
Mn5 O11 1.955578 1_555
Mn5 O7 2.008652 1_555
Mn5 O0 2.155989 1_555
Mn5 O14 2.393513 1_555
Mn6 O15 1.932389 1_565
Mn6 O1 1.936468 1_555
Mn6 O4 1.937931 1_555
Mn6 O12 1.945315 1_455
Mn6 O5 1.953550 1_555
Mn6 O10 2.033252 1_555
