# generated using pymatgen
data_Y2Ge2Ru
_symmetry_space_group_name_H-M   'P 1'
_cell_length_a   5.79409228
_cell_length_b   5.79409228
_cell_length_c   10.18105929
_cell_angle_alpha   63.77768909
_cell_angle_beta   63.77768909
_cell_angle_gamma   43.39767983
_symmetry_Int_Tables_number   1
_chemical_formula_structural   Y2Ge2Ru
_chemical_formula_sum   'Y4 Ge4 Ru2'
_cell_volume   206.57867399
_cell_formula_units_Z   2
loop_
 _symmetry_equiv_pos_site_id
 _symmetry_equiv_pos_as_xyz
  1  'x, y, z'
loop_
 _atom_site_type_symbol
 _atom_site_label
 _atom_site_symmetry_multiplicity
 _atom_site_fract_x
 _atom_site_fract_y
 _atom_site_fract_z
 _atom_site_occupancy
  Y  Y0  1  0.81603506  0.81603506  0.11136403  1
  Y  Y1  1  0.18396494  0.18396494  0.88863597  1
  Y  Y2  1  0.00002166  0.00002166  0.32761893  1
  Y  Y3  1  0.99997834  0.99997834  0.67238107  1
  Ge  Ge0  1  0.64672522  0.64672522  0.43508210  1
  Ge  Ge1  1  0.35327478  0.35327478  0.56491790  1
  Ge  Ge2  1  0.51102687  0.51102687  0.12443862  1
  Ge  Ge3  1  0.48897313  0.48897313  0.87556138  1
  Ru  Ru0  1  0.72913746  0.72913746  0.62781838  1
  Ru  Ru1  1  0.27086254  0.27086254  0.37218162  1
loop_
_geom_bond_atom_site_label_1
_geom_bond_atom_site_label_2
_geom_bond_distance
_geom_bond_site_symmetry_2
Ge0 Ru1 2.443700 1_655
Ge0 Ru1 2.443700 1_565
Ge0 Ru0 2.508760 1_555
Ge0 Ge1 2.785322 1_555
Ge0 Y0 2.910515 1_555
Ge0 Y3 3.048258 1_545
Ge0 Y3 3.048258 1_455
Ge0 Y2 3.150384 1_565
Ge0 Y2 3.150384 1_655
Ge0 Y2 3.421806 1_665
Ge1 Ru0 2.443700 1_455
Ge1 Ru0 2.443700 1_545
Ge1 Ru1 2.508760 1_555
Ge1 Y1 2.910515 1_555
Ge1 Y2 3.048258 1_655
Ge1 Y2 3.048258 1_565
Ge1 Y3 3.150384 1_545
Ge1 Y3 3.150384 1_455
Ge1 Y3 3.421806 1_445
Ge2 Ru1 2.616338 1_555
Ge2 Ge3 2.654986 1_554
Ge2 Y2 2.940946 1_565
Ge2 Y2 2.940946 1_655
Ge2 Y0 3.046399 1_545
Ge2 Y0 3.046399 1_455
Ge2 Y1 3.093244 1_654
Ge2 Y1 3.093244 1_564
Ge2 Y0 3.222863 1_555
Ge3 Ru0 2.616338 1_555
Ge3 Y3 2.940946 1_455
Ge3 Y3 2.940946 1_545
Ge3 Y1 3.046399 1_565
Ge3 Y1 3.046399 1_655
Ge3 Y0 3.093244 1_456
Ge3 Y0 3.093244 1_546
Ge3 Y1 3.222863 1_555
Ru0 Y2 3.060979 1_665
Ru0 Y3 3.133404 1_545
Ru0 Y3 3.133404 1_455
Ru0 Y3 3.157240 1_555
Ru0 Y1 3.263207 1_655
Ru0 Y1 3.263207 1_565
Ru1 Y3 3.060979 1_445
Ru1 Y2 3.133404 1_565
Ru1 Y2 3.133404 1_655
Ru1 Y2 3.157240 1_555
Ru1 Y0 3.263207 1_545
Ru1 Y0 3.263207 1_455
