# generated using pymatgen
data_TmCoC
_symmetry_space_group_name_H-M   'P 1'
_cell_length_a   3.60212886
_cell_length_b   3.60224689
_cell_length_c   6.69056211
_cell_angle_alpha   90.00000000
_cell_angle_beta   90.00000000
_cell_angle_gamma   90.00000000
_symmetry_Int_Tables_number   1
_chemical_formula_structural   TmCoC
_chemical_formula_sum   'Tm2 Co2 C2'
_cell_volume   86.81511137
_cell_formula_units_Z   2
loop_
 _symmetry_equiv_pos_site_id
 _symmetry_equiv_pos_as_xyz
  1  'x, y, z'
loop_
 _atom_site_type_symbol
 _atom_site_label
 _atom_site_symmetry_multiplicity
 _atom_site_fract_x
 _atom_site_fract_y
 _atom_site_fract_z
 _atom_site_occupancy
  Tm  Tm0  1  0.00000000  -0.00000000  0.74998708  1
  Tm  Tm1  1  0.00000000  -0.00000000  0.25001292  1
  Co  Co0  1  0.50000000  0.50000000  0.00000000  1
  Co  Co1  1  0.50000000  0.50000000  0.50000000  1
  C  C0  1  0.50000000  -0.00000000  0.50000000  1
  C  C1  1  0.00000000  0.50000000  0.00000000  1
loop_
_geom_bond_atom_site_label_1
_geom_bond_atom_site_label_2
_geom_bond_distance
_geom_bond_site_symmetry_2
C0 Co1 1.801123 1_545
C0 Co1 1.801123 1_555
C0 Tm1 2.457900 1_655
C0 Tm1 2.457900 1_555
C0 Tm0 2.457900 1_555
C0 Tm0 2.457900 1_655
C1 Co0 1.801064 1_555
C1 Co0 1.801064 1_455
C1 Tm0 2.458060 1_564
C1 Tm1 2.458060 1_565
C1 Tm1 2.458060 1_555
C1 Tm0 2.458060 1_554
