# generated using pymatgen
data_Pr2MgSe4
_symmetry_space_group_name_H-M   'P 1'
_cell_length_a   6.97783700
_cell_length_b   8.62661300
_cell_length_c   14.72078900
_cell_angle_alpha   90.00000000
_cell_angle_beta   90.00000000
_cell_angle_gamma   90.00000000
_symmetry_Int_Tables_number   1
_chemical_formula_structural   Pr2MgSe4
_chemical_formula_sum   'Pr8 Mg4 Se16'
_cell_volume   886.11935675
_cell_formula_units_Z   4
loop_
 _symmetry_equiv_pos_site_id
 _symmetry_equiv_pos_as_xyz
  1  'x, y, z'
loop_
 _atom_site_type_symbol
 _atom_site_label
 _atom_site_symmetry_multiplicity
 _atom_site_fract_x
 _atom_site_fract_y
 _atom_site_fract_z
 _atom_site_occupancy
  Pr  Pr0  1  0.50000000  0.00000000  0.00000000  1
  Pr  Pr1  1  0.00000000  0.00000000  0.50000000  1
  Pr  Pr2  1  0.00000000  0.50000000  0.50000000  1
  Pr  Pr3  1  0.50000000  0.50000000  0.00000000  1
  Pr  Pr4  1  0.00021100  0.75000000  0.23265500  1
  Pr  Pr5  1  0.99978900  0.25000000  0.76734500  1
  Pr  Pr6  1  0.50021100  0.25000000  0.26734500  1
  Pr  Pr7  1  0.49978900  0.75000000  0.73265500  1
  Mg  Mg0  1  0.91851200  0.25000000  0.09223400  1
  Mg  Mg1  1  0.08148800  0.75000000  0.90776600  1
  Mg  Mg2  1  0.41851200  0.75000000  0.40776600  1
  Mg  Mg3  1  0.58148800  0.25000000  0.59223400  1
  Se  Se0  1  0.74829400  0.01494600  0.16822100  1
  Se  Se1  1  0.25170600  0.98505400  0.83177900  1
  Se  Se2  1  0.24829400  0.98505400  0.33177900  1
  Se  Se3  1  0.75170600  0.01494600  0.66822100  1
  Se  Se4  1  0.75170600  0.48505400  0.66822100  1
  Se  Se5  1  0.24829400  0.51494600  0.33177900  1
  Se  Se6  1  0.25170600  0.51494600  0.83177900  1
  Se  Se7  1  0.74829400  0.48505400  0.16822100  1
  Se  Se8  1  0.24317600  0.75000000  0.06802800  1
  Se  Se9  1  0.75682400  0.25000000  0.93197200  1
  Se  Se10  1  0.74317600  0.25000000  0.43197200  1
  Se  Se11  1  0.25682400  0.75000000  0.56802800  1
  Se  Se12  1  0.28282600  0.25000000  0.09227300  1
  Se  Se13  1  0.71717400  0.75000000  0.90772700  1
  Se  Se14  1  0.78282600  0.75000000  0.40772700  1
  Se  Se15  1  0.21717400  0.25000000  0.59227300  1
loop_
_geom_bond_atom_site_label_1
_geom_bond_atom_site_label_2
_geom_bond_distance
_geom_bond_site_symmetry_2
Pr0 Se13 2.965243 1_544
Pr0 Se12 2.965243 1_555
Pr0 Se8 2.977506 1_545
Pr0 Se9 2.977506 1_554
Pr0 Se0 3.025006 1_555
Pr0 Se1 3.025006 1_544
Pr1 Se15 2.965243 1_555
Pr1 Se14 2.965243 1_445
Pr1 Se11 2.977506 1_545
Pr1 Se10 2.977506 1_455
Pr1 Se3 3.025006 1_455
Pr1 Se2 3.025006 1_545
Pr2 Se15 2.965243 1_555
Pr2 Se14 2.965243 1_455
Pr2 Se11 2.977506 1_555
Pr2 Se10 2.977506 1_455
Pr2 Se4 3.025006 1_455
Pr2 Se5 3.025006 1_555
Pr3 Se13 2.965243 1_554
Pr3 Se12 2.965243 1_555
Pr3 Se8 2.977506 1_555
Pr3 Se9 2.977506 1_554
Pr3 Se7 3.025006 1_555
Pr3 Se6 3.025006 1_554
Pr4 Se8 2.957590 1_555
Pr4 Se14 2.990462 1_455
Pr4 Se0 3.035388 1_465
Pr4 Se7 3.035388 1_455
Pr4 Se2 3.039328 1_555
Pr4 Se5 3.039328 1_555
Pr5 Se9 2.957590 1_555
Pr5 Se15 2.990462 1_655
Pr5 Se6 3.035388 1_655
Pr5 Se1 3.035388 1_645
Pr5 Se3 3.039328 1_555
Pr5 Se4 3.039328 1_555
Pr6 Se10 2.957590 1_555
Pr6 Se12 2.990462 1_555
Pr6 Se5 3.035388 1_555
Pr6 Se2 3.035388 1_545
Pr6 Se0 3.039328 1_555
Pr6 Se7 3.039328 1_555
Pr7 Se11 2.957590 1_555
Pr7 Se13 2.990462 1_555
Pr7 Se3 3.035388 1_565
Pr7 Se4 3.035388 1_555
Pr7 Se1 3.039328 1_555
Pr7 Se6 3.039328 1_555
Mg0 Se12 2.542124 1_655
Mg0 Se7 2.602623 1_555
Mg0 Se0 2.602623 1_555
Mg0 Se9 2.615082 1_554
Mg1 Se13 2.542124 1_455
Mg1 Se6 2.602623 1_555
Mg1 Se1 2.602623 1_555
Mg1 Se8 2.615082 1_556
Mg2 Se14 2.542124 1_555
Mg2 Se2 2.602623 1_555
Mg2 Se5 2.602623 1_555
Mg2 Se11 2.615082 1_555
Mg3 Se15 2.542124 1_555
Mg3 Se3 2.602623 1_555
Mg3 Se4 2.602623 1_555
Mg3 Se10 2.615082 1_555
