# generated using pymatgen
data_CaMn4O8
_symmetry_space_group_name_H-M   'P 1'
_cell_length_a   6.14338300
_cell_length_b   9.61391900
_cell_length_c   14.06027938
_cell_angle_alpha   47.31259903
_cell_angle_beta   90.00000000
_cell_angle_gamma   90.00000000
_symmetry_Int_Tables_number   1
_chemical_formula_structural   CaMn4O8
_chemical_formula_sum   'Ca4 Mn16 O32'
_cell_volume   610.41750243
_cell_formula_units_Z   4
loop_
 _symmetry_equiv_pos_site_id
 _symmetry_equiv_pos_as_xyz
  1  'x, y, z'
loop_
 _atom_site_type_symbol
 _atom_site_label
 _atom_site_symmetry_multiplicity
 _atom_site_fract_x
 _atom_site_fract_y
 _atom_site_fract_z
 _atom_site_occupancy
  Ca  Ca0  1  0.86672900  0.11375400  0.14210800  1
  Ca  Ca1  1  0.36672900  0.88624600  0.35789200  1
  Ca  Ca2  1  0.63327100  0.11375400  0.64210800  1
  Ca  Ca3  1  0.13327100  0.88624600  0.85789200  1
  Mn  Mn0  1  0.88333000  0.18413900  0.90146300  1
  Mn  Mn1  1  0.37733000  0.18486100  0.91183800  1
  Mn  Mn2  1  0.86903600  0.47997000  0.10205200  1
  Mn  Mn3  1  0.37004200  0.46618900  0.10788500  1
  Mn  Mn4  1  0.36903600  0.52003000  0.39794800  1
  Mn  Mn5  1  0.87004200  0.53381100  0.39211500  1
  Mn  Mn6  1  0.38333000  0.81586100  0.59853700  1
  Mn  Mn7  1  0.87733000  0.81513900  0.58816200  1
  Mn  Mn8  1  0.12267000  0.18486100  0.41183800  1
  Mn  Mn9  1  0.61667000  0.18413900  0.40146300  1
  Mn  Mn10  1  0.12995800  0.46618900  0.60788500  1
  Mn  Mn11  1  0.63096400  0.47997000  0.60205200  1
  Mn  Mn12  1  0.13096400  0.52003000  0.89794800  1
  Mn  Mn13  1  0.62995800  0.53381100  0.89211500  1
  Mn  Mn14  1  0.11667000  0.81586100  0.09853700  1
  Mn  Mn15  1  0.62267000  0.81513900  0.08816200  1
  O  O0  1  0.14178800  0.72466000  0.71554100  1
  O  O1  1  0.62794100  0.73604000  0.70921300  1
  O  O2  1  0.12407800  0.39517800  0.39986900  1
  O  O3  1  0.61038400  0.38569500  0.40153300  1
  O  O4  1  0.11038400  0.61430500  0.09846700  1
  O  O5  1  0.62407800  0.60482200  0.10013100  1
  O  O6  1  0.12794100  0.26396000  0.79078700  1
  O  O7  1  0.64178800  0.27534000  0.78445900  1
  O  O8  1  0.35821200  0.72466000  0.21554100  1
  O  O9  1  0.87205900  0.73604000  0.20921300  1
  O  O10  1  0.37592200  0.39517800  0.89986900  1
  O  O11  1  0.88961600  0.38569500  0.90153300  1
  O  O12  1  0.87592200  0.60482200  0.60013100  1
  O  O13  1  0.38961600  0.61430500  0.59846700  1
  O  O14  1  0.85821200  0.27534000  0.28445900  1
  O  O15  1  0.37205900  0.26396000  0.29078700  1
  O  O16  1  0.85995700  0.06705600  0.53383600  1
  O  O17  1  0.39582000  0.06220900  0.54528600  1
  O  O18  1  0.39394900  0.34574300  0.59291700  1
  O  O19  1  0.85541300  0.35570700  0.58198500  1
  O  O20  1  0.35995700  0.93294400  0.96616400  1
  O  O21  1  0.89582000  0.93779100  0.95471400  1
  O  O22  1  0.89394900  0.65425700  0.90708300  1
  O  O23  1  0.35541300  0.64429300  0.91801500  1
  O  O24  1  0.10418000  0.06220900  0.04528600  1
  O  O25  1  0.64004300  0.06705600  0.03383600  1
  O  O26  1  0.10605100  0.34574300  0.09291700  1
  O  O27  1  0.64458700  0.35570700  0.08198500  1
  O  O28  1  0.14004300  0.93294400  0.46616400  1
  O  O29  1  0.60418000  0.93779100  0.45471400  1
  O  O30  1  0.14458700  0.64429300  0.41801500  1
  O  O31  1  0.60605100  0.65425700  0.40708300  1
loop_
_geom_bond_atom_site_label_1
_geom_bond_atom_site_label_2
_geom_bond_distance
_geom_bond_site_symmetry_2
Ca0 O24 2.267501 1_655
Ca0 O27 2.306827 1_555
Ca0 O25 2.320605 1_555
Ca0 O26 2.350022 1_655
Ca0 O11 2.510973 1_554
Ca1 O29 2.267501 1_555
Ca1 O30 2.306827 1_555
Ca1 O28 2.320605 1_555
Ca1 O31 2.350022 1_555
Ca1 O13 2.510973 1_555
Ca2 O17 2.267501 1_555
Ca2 O19 2.306827 1_555
Ca2 O16 2.320605 1_555
Ca2 O18 2.350022 1_555
Ca2 O3 2.510973 1_555
Ca3 O21 2.267501 1_455
Ca3 O23 2.306827 1_555
Ca3 O20 2.320605 1_555
Ca3 O22 2.350022 1_455
Ca3 O4 2.510973 1_556
Mn0 O6 1.910337 1_655
Mn0 O7 1.929027 1_555
Mn0 O11 1.938795 1_555
Mn0 O21 1.941938 1_545
Mn0 O24 2.022337 1_656
Mn0 O25 2.030792 1_556
Mn1 O10 1.911898 1_555
Mn1 O20 1.987955 1_545
Mn1 O6 2.016773 1_555
Mn1 O25 2.048305 1_556
Mn1 O7 2.119271 1_555
Mn1 O24 2.174114 1_556
Mn2 O14 1.900167 1_555
Mn2 O5 1.913678 1_555
Mn2 O4 1.944372 1_655
Mn2 O27 1.966004 1_555
Mn2 O26 2.006652 1_655
Mn2 O22 2.029119 1_554
Mn3 O15 1.900987 1_555
Mn3 O23 1.966831 1_554
Mn3 O5 2.006694 1_555
Mn3 O4 2.081861 1_555
Mn3 O26 2.084667 1_555
Mn3 O27 2.151754 1_555
Mn4 O8 1.900167 1_555
Mn4 O2 1.913678 1_555
Mn4 O3 1.944372 1_555
Mn4 O30 1.966004 1_555
Mn4 O31 2.006652 1_555
Mn4 O18 2.029119 1_555
Mn5 O9 1.900987 1_555
Mn5 O19 1.966831 1_555
Mn5 O2 2.006694 1_655
Mn5 O3 2.081861 1_555
Mn5 O31 2.084667 1_555
Mn5 O30 2.151754 1_655
Mn6 O1 1.910337 1_555
Mn6 O0 1.929027 1_555
Mn6 O13 1.938795 1_555
Mn6 O17 1.941938 1_565
Mn6 O29 2.022337 1_555
Mn6 O28 2.030792 1_555
Mn7 O12 1.911898 1_555
Mn7 O16 1.987955 1_565
Mn7 O1 2.016773 1_555
Mn7 O28 2.048305 1_655
Mn7 O0 2.119271 1_655
Mn7 O29 2.174114 1_555
Mn8 O2 1.911898 1_555
Mn8 O28 1.987955 1_545
Mn8 O15 2.016773 1_555
Mn8 O16 2.048305 1_455
Mn8 O14 2.119271 1_455
Mn8 O17 2.174114 1_555
Mn9 O15 1.910337 1_555
Mn9 O14 1.929027 1_555
Mn9 O3 1.938795 1_555
Mn9 O29 1.941938 1_545
Mn9 O17 2.022337 1_555
Mn9 O16 2.030792 1_555
Mn10 O6 1.900987 1_555
Mn10 O30 1.966831 1_555
Mn10 O12 2.006694 1_455
Mn10 O13 2.081861 1_555
Mn10 O18 2.084667 1_555
Mn10 O19 2.151754 1_455
Mn11 O7 1.900167 1_555
Mn11 O12 1.913678 1_555
Mn11 O13 1.944372 1_555
Mn11 O19 1.966004 1_555
Mn11 O18 2.006652 1_555
Mn11 O31 2.029119 1_555
Mn12 O0 1.900167 1_555
Mn12 O10 1.913678 1_555
Mn12 O11 1.944372 1_455
Mn12 O23 1.966004 1_555
Mn12 O22 2.006652 1_455
Mn12 O26 2.029119 1_556
Mn13 O1 1.900987 1_555
Mn13 O27 1.966831 1_556
Mn13 O10 2.006694 1_555
Mn13 O11 2.081861 1_555
Mn13 O22 2.084667 1_555
Mn13 O23 2.151754 1_555
Mn14 O9 1.910337 1_455
Mn14 O8 1.929027 1_555
Mn14 O4 1.938795 1_555
Mn14 O24 1.941938 1_565
Mn14 O21 2.022337 1_454
Mn14 O20 2.030792 1_554
Mn15 O5 1.911898 1_555
Mn15 O25 1.987955 1_565
Mn15 O9 2.016773 1_555
Mn15 O20 2.048305 1_554
Mn15 O8 2.119271 1_555
Mn15 O21 2.174114 1_554
