# generated using pymatgen
data_Pr7(BrO6)3
_symmetry_space_group_name_H-M   'P 1'
_cell_length_a   15.91249843
_cell_length_b   15.91249843
_cell_length_c   4.37874700
_cell_angle_alpha   90.00000000
_cell_angle_beta   90.00000000
_cell_angle_gamma   120.00000178
_symmetry_Int_Tables_number   1
_chemical_formula_structural   Pr7(BrO6)3
_chemical_formula_sum   'Pr14 Br6 O36'
_cell_volume   960.19010072
_cell_formula_units_Z   2
loop_
 _symmetry_equiv_pos_site_id
 _symmetry_equiv_pos_as_xyz
  1  'x, y, z'
loop_
 _atom_site_type_symbol
 _atom_site_label
 _atom_site_symmetry_multiplicity
 _atom_site_fract_x
 _atom_site_fract_y
 _atom_site_fract_z
 _atom_site_occupancy
  Pr  Pr0  1  0.65336600  0.54079700  0.75000000  1
  Pr  Pr1  1  0.34663400  0.45920300  0.25000000  1
  Pr  Pr2  1  0.88743000  0.34663400  0.75000000  1
  Pr  Pr3  1  0.11257000  0.65336600  0.25000000  1
  Pr  Pr4  1  0.45920300  0.11257000  0.75000000  1
  Pr  Pr5  1  0.54079700  0.88743000  0.25000000  1
  Pr  Pr6  1  0.74020300  0.89324200  0.75000000  1
  Pr  Pr7  1  0.25979700  0.10675800  0.25000000  1
  Pr  Pr8  1  0.15303800  0.25979700  0.75000000  1
  Pr  Pr9  1  0.84696200  0.74020300  0.25000000  1
  Pr  Pr10  1  0.10675800  0.84696200  0.75000000  1
  Pr  Pr11  1  0.89324200  0.15303800  0.25000000  1
  Pr  Pr12  1  0.33333300  0.66666700  0.75000000  1
  Pr  Pr13  1  0.66666700  0.33333300  0.25000000  1
  Br  Br0  1  0.93795500  0.55581800  0.75000000  1
  Br  Br1  1  0.06204500  0.44418200  0.25000000  1
  Br  Br2  1  0.61786200  0.06204500  0.75000000  1
  Br  Br3  1  0.38213800  0.93795500  0.25000000  1
  Br  Br4  1  0.44418200  0.38213800  0.75000000  1
  Br  Br5  1  0.55581800  0.61786200  0.25000000  1
  O  O0  1  0.47458800  0.83535700  0.75000000  1
  O  O1  1  0.52541200  0.16464300  0.25000000  1
  O  O2  1  0.36076900  0.52541200  0.75000000  1
  O  O3  1  0.63923100  0.47458800  0.25000000  1
  O  O4  1  0.16464300  0.63923100  0.75000000  1
  O  O5  1  0.83535700  0.36076900  0.25000000  1
  O  O6  1  0.74916800  0.72251700  0.75000000  1
  O  O7  1  0.25083200  0.27748300  0.25000000  1
  O  O8  1  0.97334900  0.25083200  0.75000000  1
  O  O9  1  0.02665100  0.74916800  0.25000000  1
  O  O10  1  0.27748300  0.02665100  0.75000000  1
  O  O11  1  0.72251700  0.97334900  0.25000000  1
  O  O12  1  0.84068600  0.81472300  0.75000000  1
  O  O13  1  0.15931400  0.18527700  0.25000000  1
  O  O14  1  0.97403700  0.15931400  0.75000000  1
  O  O15  1  0.02596300  0.84068600  0.25000000  1
  O  O16  1  0.18527700  0.02596300  0.75000000  1
  O  O17  1  0.81472300  0.97403700  0.25000000  1
  O  O18  1  0.56224400  0.82366700  0.75000000  1
  O  O19  1  0.43775600  0.17633300  0.25000000  1
  O  O20  1  0.26142400  0.43775600  0.75000000  1
  O  O21  1  0.73857600  0.56224400  0.25000000  1
  O  O22  1  0.17633300  0.73857600  0.75000000  1
  O  O23  1  0.82366700  0.26142400  0.25000000  1
  O  O24  1  0.92192600  0.73459500  0.75000000  1
  O  O25  1  0.07807400  0.26540500  0.25000000  1
  O  O26  1  0.81266800  0.07807400  0.75000000  1
  O  O27  1  0.18733200  0.92192600  0.25000000  1
  O  O28  1  0.26540500  0.18733200  0.75000000  1
  O  O29  1  0.73459500  0.81266800  0.25000000  1
  O  O30  1  0.71988300  0.42804400  0.75000000  1
  O  O31  1  0.28011700  0.57195600  0.25000000  1
  O  O32  1  0.70816200  0.28011700  0.75000000  1
  O  O33  1  0.29183800  0.71988300  0.25000000  1
  O  O34  1  0.57195600  0.29183800  0.75000000  1
  O  O35  1  0.42804400  0.70816200  0.25000000  1
loop_
_geom_bond_atom_site_label_1
_geom_bond_atom_site_label_2
_geom_bond_distance
_geom_bond_site_symmetry_2
Br0 Pr2 3.008333 1_555
Br0 Pr3 3.257332 1_656
Br0 Pr3 3.257332 1_655
Br1 Pr3 3.008333 1_555
Br1 Pr2 3.257332 1_455
Br1 Pr2 3.257332 1_454
Br2 Pr4 3.008333 1_555
Br2 Pr5 3.257333 1_546
Br2 Pr5 3.257333 1_545
Br3 Pr5 3.008333 1_555
Br3 Pr4 3.257333 1_565
Br3 Pr4 3.257333 1_564
Br4 Pr0 3.008333 1_555
Br4 Pr1 3.257312 1_556
Br4 Pr1 3.257312 1_555
Br5 Pr1 3.008333 1_555
Br5 Pr0 3.257312 1_555
Br5 Pr0 3.257312 1_554
O0 O18 1.496530 1_555
O0 Pr5 2.391012 1_555
O0 Pr5 2.391012 1_556
O0 Pr12 2.494813 1_555
O1 O19 1.496530 1_555
O1 Pr4 2.391012 1_554
O1 Pr4 2.391012 1_555
O1 Pr13 2.494813 1_555
O2 O20 1.496521 1_555
O2 Pr1 2.391014 1_556
O2 Pr1 2.391014 1_555
O2 Pr12 2.494823 1_555
O3 Pr0 2.391014 1_554
O3 Pr0 2.391014 1_555
O3 Pr13 2.494823 1_555
O4 Pr3 2.391008 1_556
O4 Pr3 2.391008 1_555
O4 Pr12 2.494807 1_555
O5 Pr2 2.391008 1_555
O5 Pr2 2.391008 1_554
O5 Pr13 2.494807 1_555
O6 Pr0 2.505450 1_555
O6 Pr9 2.618436 1_555
O6 Pr9 2.618436 1_556
O6 Pr6 2.790725 1_555
O7 Pr1 2.505450 1_555
O7 Pr8 2.618436 1_555
O7 Pr8 2.618436 1_554
O7 Pr7 2.790725 1_555
O8 Pr2 2.505464 1_555
O8 Pr11 2.618433 1_555
O8 Pr11 2.618433 1_556
O8 Pr8 2.790709 1_655
O9 Pr3 2.505464 1_555
O9 Pr10 2.618433 1_555
O9 Pr10 2.618433 1_554
O9 Pr9 2.790709 1_455
O10 O16 1.461785 1_555
O10 Pr4 2.505450 1_555
O10 Pr7 2.618427 1_555
O10 Pr7 2.618427 1_556
O10 Pr10 2.790716 1_545
O11 O17 1.461785 1_555
O11 Pr5 2.505450 1_555
O11 Pr6 2.618427 1_554
O11 Pr6 2.618427 1_555
O11 Pr11 2.790716 1_565
O12 O6 1.461785 1_555
O12 Pr6 2.472942 1_555
O12 Pr9 2.515526 1_556
O12 Pr9 2.515526 1_555
O13 O7 1.461785 1_555
O13 Pr7 2.472942 1_555
O13 Pr8 2.515526 1_554
O13 Pr8 2.515526 1_555
O14 O8 1.461785 1_555
O14 Pr8 2.472929 1_655
O14 Pr11 2.515518 1_556
O14 Pr11 2.515518 1_555
O15 O9 1.461785 1_555
O15 Pr9 2.472929 1_455
O15 Pr10 2.515518 1_554
O15 Pr10 2.515518 1_555
O16 Pr10 2.472928 1_545
O16 Pr7 2.515522 1_556
O16 Pr7 2.515522 1_555
O17 Pr11 2.472928 1_565
O17 Pr6 2.515522 1_554
O17 Pr6 2.515522 1_555
O18 Pr6 2.471749 1_555
O18 Pr5 2.507103 1_555
O18 Pr5 2.507103 1_556
O19 Pr7 2.471749 1_555
O19 Pr4 2.507103 1_555
O19 Pr4 2.507103 1_554
O20 Pr8 2.471753 1_555
O20 Pr1 2.507103 1_555
O20 Pr1 2.507103 1_556
O21 O3 1.496521 1_555
O21 Pr9 2.471753 1_555
O21 Pr0 2.507103 1_555
O21 Pr0 2.507103 1_554
O22 O4 1.496515 1_555
O22 Pr10 2.471778 1_555
O22 Pr3 2.507103 1_555
O22 Pr3 2.507103 1_556
O23 O5 1.496515 1_555
O23 Pr11 2.471778 1_555
O23 Pr2 2.507103 1_554
O23 Pr2 2.507103 1_555
O24 Pr9 2.516087 1_556
O24 Pr9 2.516087 1_555
O24 Pr10 2.566809 1_655
O25 Pr8 2.516087 1_554
O25 Pr8 2.516087 1_555
O25 Pr11 2.566809 1_455
O26 Pr11 2.516096 1_556
O26 Pr11 2.516096 1_555
O26 Pr6 2.566809 1_545
O27 Pr10 2.516096 1_554
O27 Pr10 2.516096 1_555
O27 Pr7 2.566809 1_565
O28 Pr7 2.516103 1_555
O28 Pr7 2.516103 1_556
O28 Pr8 2.566810 1_555
O29 Pr6 2.516103 1_554
O29 Pr6 2.516103 1_555
O29 Pr9 2.566810 1_555
O30 Pr0 2.497692 1_555
O30 Pr13 2.550596 1_556
O30 Pr13 2.550596 1_555
O31 Pr1 2.497692 1_555
O31 Pr12 2.550596 1_555
O31 Pr12 2.550596 1_554
O32 Pr2 2.497662 1_555
O32 Pr13 2.550596 1_555
O32 Pr13 2.550596 1_556
O33 Pr3 2.497662 1_555
O33 Pr12 2.550596 1_555
O33 Pr12 2.550596 1_554
O34 Pr4 2.497667 1_555
O34 Pr13 2.550596 1_556
O34 Pr13 2.550596 1_555
O35 Pr5 2.497667 1_555
O35 Pr12 2.550596 1_555
O35 Pr12 2.550596 1_554
