# generated using pymatgen
data_Tb2Fe12P7
_symmetry_space_group_name_H-M   'P 1'
_cell_length_a   3.63726900
_cell_length_b   8.96581116
_cell_length_c   8.97277228
_cell_angle_alpha   119.95142050
_cell_angle_beta   90.00000000
_cell_angle_gamma   90.00000000
_symmetry_Int_Tables_number   1
_chemical_formula_structural   Tb2Fe12P7
_chemical_formula_sum   'Tb2 Fe12 P7'
_cell_volume   253.53310417
_cell_formula_units_Z   1
loop_
 _symmetry_equiv_pos_site_id
 _symmetry_equiv_pos_as_xyz
  1  'x, y, z'
loop_
 _atom_site_type_symbol
 _atom_site_label
 _atom_site_symmetry_multiplicity
 _atom_site_fract_x
 _atom_site_fract_y
 _atom_site_fract_z
 _atom_site_occupancy
  Tb  Tb0  1  0.00000000  0.66669100  0.33334800  1
  Tb  Tb1  1  0.50000000  0.33337000  0.66651300  1
  Fe  Fe0  1  0.00000000  0.37291400  0.94493900  1
  Fe  Fe1  1  0.00000000  0.05516300  0.42780900  1
  Fe  Fe2  1  0.00000000  0.57239900  0.62745200  1
  Fe  Fe3  1  0.00000000  0.88073800  0.72556900  1
  Fe  Fe4  1  0.00000000  0.27406100  0.15465300  1
  Fe  Fe5  1  0.00000000  0.84489400  0.11931200  1
  Fe  Fe6  1  0.50000000  0.95176100  0.56877000  1
  Fe  Fe7  1  0.50000000  0.43135700  0.38317300  1
  Fe  Fe8  1  0.50000000  0.61668300  0.04813100  1
  Fe  Fe9  1  0.50000000  0.12030700  0.90307100  1
  Fe  Fe10  1  0.50000000  0.09691500  0.21736100  1
  Fe  Fe11  1  0.50000000  0.78267900  0.87954000  1
  P  P0  1  0.00000000  0.11322200  0.70420600  1
  P  P1  1  0.00000000  0.29589300  0.40889400  1
  P  P2  1  0.00000000  0.59123600  0.88687700  1
  P  P3  1  0.50000000  0.70995800  0.59922500  1
  P  P4  1  0.50000000  0.40070200  0.11121500  1
  P  P5  1  0.50000000  0.88904800  0.28992100  1
  P  P6  1  0.00000000  0.00000900  0.00002000  1
loop_
_geom_bond_atom_site_label_1
_geom_bond_atom_site_label_2
_geom_bond_distance
_geom_bond_site_symmetry_2
Fe0 P0 2.250566 1_555
Fe0 P2 2.263017 1_555
Fe0 P4 2.285667 1_456
Fe0 P4 2.285667 1_556
Fe0 Tb1 2.964787 1_555
Fe0 Tb1 2.964787 1_455
Fe0 Tb0 3.149213 1_556
Fe1 P1 2.247890 1_555
Fe1 P0 2.265507 1_555
Fe1 P5 2.283941 1_545
Fe1 P5 2.283941 1_445
Fe1 Tb1 2.963451 1_455
Fe1 Tb1 2.963451 1_555
Fe1 Tb0 3.146696 1_545
Fe2 P2 2.248208 1_555
Fe2 P1 2.266537 1_555
Fe2 P3 2.281357 1_555
Fe2 P3 2.281357 1_455
Fe2 Tb1 2.961945 1_455
Fe2 Tb1 2.961945 1_555
Fe2 Tb0 3.147433 1_555
Fe3 P6 2.139705 1_566
Fe3 P0 2.186427 1_565
Fe3 P3 2.281193 1_555
Fe3 P3 2.281193 1_455
Fe3 Tb0 3.053605 1_555
Fe4 P6 2.135010 1_555
Fe4 P1 2.190096 1_555
Fe4 P4 2.278259 1_555
Fe4 P4 2.278259 1_455
Fe4 Tb0 3.054007 1_555
Fe5 P6 2.136884 1_565
Fe5 P2 2.187625 1_554
Fe5 P5 2.280894 1_555
Fe5 P5 2.280894 1_455
Fe5 Tb0 3.050409 1_555
Fe6 P0 2.263456 1_665
Fe6 P0 2.263456 1_565
Fe6 P5 2.274122 1_555
Fe6 P3 2.316524 1_555
Fe6 Tb0 2.985141 1_555
Fe6 Tb0 2.985141 1_655
Fe6 Tb1 3.078816 1_565
Fe7 P1 2.261792 1_555
Fe7 P1 2.261792 1_655
Fe7 P3 2.272067 1_555
Fe7 P4 2.315275 1_555
Fe7 Tb0 2.983479 1_655
Fe7 Tb0 2.983479 1_555
Fe7 Tb1 3.076620 1_555
Fe8 P2 2.263485 1_554
Fe8 P2 2.263485 1_654
Fe8 P4 2.272600 1_555
Fe8 P5 2.319469 1_555
Fe8 Tb0 2.985321 1_555
Fe8 Tb0 2.985321 1_655
Fe8 Tb1 3.080933 1_554
Fe9 P4 2.262700 1_556
Fe9 P6 2.482809 1_556
Fe9 P6 2.482809 1_656
Fe9 P0 2.526314 1_655
Fe9 P0 2.526314 1_555
Fe10 P5 2.260277 1_545
Fe10 P6 2.484658 1_555
Fe10 P6 2.484658 1_655
Fe10 P1 2.526294 1_555
Fe10 P1 2.526294 1_655
Fe11 P3 2.261381 1_555
Fe11 P6 2.483854 1_566
Fe11 P6 2.483854 1_666
Fe11 P2 2.524039 1_555
Fe11 P2 2.524039 1_655
P0 Tb1 2.825652 1_455
P0 Tb1 2.825652 1_555
P1 Tb1 2.826316 1_455
P1 Tb1 2.826316 1_555
P2 Tb1 2.828001 1_555
P2 Tb1 2.828001 1_455
P3 Tb0 2.867955 1_655
P3 Tb0 2.867955 1_555
P4 Tb0 2.867244 1_555
P4 Tb0 2.867244 1_655
P5 Tb0 2.865212 1_555
P5 Tb0 2.865212 1_655
