# generated using pymatgen
data_Sr4Ca4Mn7FeO24
_symmetry_space_group_name_H-M   'P 1'
_cell_length_a   7.70911784
_cell_length_b   7.70911784
_cell_length_c   7.70816145
_cell_angle_alpha   89.98616666
_cell_angle_beta   89.98616666
_cell_angle_gamma   90.00413072
_symmetry_Int_Tables_number   1
_chemical_formula_structural   Sr4Ca4Mn7FeO24
_chemical_formula_sum   'Sr4 Ca4 Mn7 Fe1 O24'
_cell_volume   458.09984503
_cell_formula_units_Z   1
loop_
 _symmetry_equiv_pos_site_id
 _symmetry_equiv_pos_as_xyz
  1  'x, y, z'
loop_
 _atom_site_type_symbol
 _atom_site_label
 _atom_site_symmetry_multiplicity
 _atom_site_fract_x
 _atom_site_fract_y
 _atom_site_fract_z
 _atom_site_occupancy
  Sr  Sr0  1  0.24988800  0.75014700  0.75008400  1
  Sr  Sr1  1  0.24982200  0.24982200  0.75010800  1
  Sr  Sr2  1  0.75014700  0.24988800  0.75008400  1
  Sr  Sr3  1  0.75018200  0.75018200  0.24989900  1
  Ca  Ca0  1  0.24989000  0.75008100  0.24998500  1
  Ca  Ca1  1  0.24994300  0.24994300  0.25001400  1
  Ca  Ca2  1  0.75005200  0.75005200  0.74997600  1
  Ca  Ca3  1  0.75008100  0.24989000  0.24998500  1
  Mn  Mn0  1  0.99996200  0.50004100  0.00116500  1
  Mn  Mn1  1  0.99998300  0.99998300  0.49904400  1
  Mn  Mn2  1  0.99995000  0.50006300  0.49901700  1
  Mn  Mn3  1  0.50004100  0.99996200  0.00116500  1
  Mn  Mn4  1  0.50007100  0.50007100  0.00105900  1
  Mn  Mn5  1  0.50006300  0.99995000  0.49901700  1
  Mn  Mn6  1  0.50005800  0.50005800  0.49900900  1
  Fe  Fe0  1  0.99998100  0.99998100  0.00120800  1
  O  O0  1  0.25475200  0.99997100  0.00501800  1
  O  O1  1  0.25065200  0.50004200  0.00560100  1
  O  O2  1  0.25062600  0.99994200  0.49446500  1
  O  O3  1  0.25007400  0.50001300  0.49444500  1
  O  O4  1  0.74524600  0.00002500  0.00088300  1
  O  O5  1  0.74933200  0.49995500  0.00053200  1
  O  O6  1  0.74935200  0.00005100  0.49926800  1
  O  O7  1  0.74992400  0.49998800  0.49941400  1
  O  O8  1  0.99788200  0.99788200  0.74530600  1
  O  O9  1  0.99741300  0.50244500  0.74932100  1
  O  O10  1  0.00199300  0.00199300  0.25480000  1
  O  O11  1  0.00253300  0.49763300  0.25060200  1
  O  O12  1  0.50244500  0.99741300  0.74932100  1
  O  O13  1  0.50255600  0.50255600  0.74992800  1
  O  O14  1  0.49763300  0.00253300  0.25060200  1
  O  O15  1  0.49748700  0.49748700  0.25005100  1
  O  O16  1  0.00002500  0.74524600  0.00088300  1
  O  O17  1  0.99997100  0.25475200  0.00501800  1
  O  O18  1  0.00005100  0.74935200  0.49926800  1
  O  O19  1  0.99994200  0.25062600  0.49446500  1
  O  O20  1  0.49995500  0.74933200  0.00053200  1
  O  O21  1  0.50004200  0.25065200  0.00560100  1
  O  O22  1  0.49998800  0.74992400  0.49941400  1
  O  O23  1  0.50001300  0.25007400  0.49444500  1
loop_
_geom_bond_atom_site_label_1
_geom_bond_atom_site_label_2
_geom_bond_distance
_geom_bond_site_symmetry_2
Ca0 O2 2.695065 1_555
Ca0 O3 2.695441 1_555
Ca0 O1 2.695527 1_555
Ca0 O0 2.697445 1_555
Ca0 O18 2.720308 1_555
Ca0 O16 2.720377 1_555
Ca0 O20 2.722470 1_555
Ca0 O22 2.723169 1_555
Ca0 O11 2.724567 1_555
Ca0 O10 2.724983 1_565
Ca0 O14 2.726676 1_565
Ca0 O15 2.726860 1_555
Ca1 O19 2.695029 1_455
Ca1 O2 2.695029 1_545
Ca1 O21 2.695363 1_555
Ca1 O1 2.695363 1_555
Ca1 O3 2.695946 1_555
Ca1 O23 2.695946 1_555
Ca1 O17 2.698703 1_455
Ca1 O0 2.698703 1_545
Ca1 O15 2.698711 1_555
Ca1 O14 2.698976 1_555
Ca1 O11 2.698976 1_555
Ca1 O10 2.703377 1_555
Ca2 O13 2.698188 1_555
Ca2 O12 2.698257 1_555
Ca2 O9 2.698257 1_555
Ca2 O8 2.702057 1_555
Ca2 O5 2.728651 1_556
Ca2 O20 2.728651 1_556
Ca2 O6 2.728949 1_565
Ca2 O18 2.728949 1_655
Ca2 O7 2.729159 1_555
Ca2 O22 2.729159 1_555
Ca2 O16 2.730793 1_656
Ca2 O4 2.730793 1_566
Ca3 O19 2.695065 1_555
Ca3 O23 2.695441 1_555
Ca3 O21 2.695527 1_555
Ca3 O17 2.697445 1_555
Ca3 O6 2.720308 1_555
Ca3 O4 2.720377 1_555
Ca3 O5 2.722470 1_555
Ca3 O7 2.723169 1_555
Ca3 O14 2.724567 1_555
Ca3 O10 2.724983 1_655
Ca3 O11 2.726676 1_655
Ca3 O15 2.726860 1_555
Mn0 O16 1.890315 1_655
Mn0 O17 1.891188 1_555
Mn0 O11 1.922893 1_655
Mn0 O5 1.932144 1_555
Mn0 O1 1.932909 1_655
Mn0 O9 1.941442 1_554
Mn1 O10 1.882792 1_665
Mn1 O8 1.898358 1_555
Mn1 O6 1.932144 1_565
Mn1 O18 1.932144 1_655
Mn1 O2 1.932550 1_655
Mn1 O19 1.932550 1_565
Mn2 O11 1.915018 1_655
Mn2 O18 1.921800 1_655
Mn2 O19 1.923268 1_555
Mn2 O7 1.927482 1_555
Mn2 O3 1.928549 1_655
Mn2 O9 1.929570 1_555
Mn3 O4 1.890315 1_565
Mn3 O0 1.891188 1_555
Mn3 O14 1.922893 1_565
Mn3 O20 1.932144 1_555
Mn3 O21 1.932909 1_565
Mn3 O12 1.941442 1_554
Mn4 O15 1.919468 1_555
Mn4 O20 1.921586 1_555
Mn4 O5 1.921586 1_555
Mn4 O1 1.923111 1_555
Mn4 O21 1.923111 1_555
Mn4 O13 1.935939 1_554
Mn5 O14 1.915018 1_565
Mn5 O6 1.921800 1_565
Mn5 O2 1.923268 1_555
Mn5 O22 1.927482 1_555
Mn5 O23 1.928549 1_565
Mn5 O12 1.929570 1_555
Mn6 O15 1.919223 1_555
Mn6 O7 1.926250 1_555
Mn6 O22 1.926250 1_555
Mn6 O3 1.927486 1_555
Mn6 O23 1.927486 1_555
Mn6 O13 1.934325 1_555
Fe0 O10 1.954859 1_665
Fe0 O16 1.963784 1_655
Fe0 O4 1.963784 1_565
Fe0 O0 1.964286 1_655
Fe0 O17 1.964286 1_565
Fe0 O8 1.972674 1_554
O0 Sr1 2.751441 1_564
O0 Sr0 2.752080 1_554
O1 Sr0 2.755889 1_554
O1 Sr1 2.757043 1_554
O2 Sr0 2.754778 1_555
O2 Sr1 2.756035 1_565
O3 Sr1 2.757150 1_555
O3 Sr0 2.757376 1_555
O4 Sr3 2.719147 1_545
O4 Sr2 2.728952 1_554
O5 Sr3 2.723545 1_555
O5 Sr2 2.728559 1_554
O6 Sr3 2.721599 1_545
O6 Sr2 2.729317 1_555
O7 Sr3 2.723504 1_555
O7 Sr2 2.729286 1_555
O8 Sr0 2.724620 1_655
O8 Sr2 2.724620 1_565
O8 Sr1 2.746898 1_665
O9 Sr2 2.724679 1_555
O9 Sr0 2.726584 1_655
O9 Sr1 2.753121 1_655
O10 Sr3 2.745503 1_445
O11 Sr3 2.752400 1_455
O12 Sr0 2.724679 1_555
O12 Sr2 2.726584 1_565
O12 Sr1 2.753121 1_565
O13 Sr0 2.727236 1_555
O13 Sr2 2.727236 1_555
O13 Sr1 2.755292 1_555
O14 Sr3 2.752400 1_545
O15 Sr3 2.754867 1_555
O16 Sr3 2.719147 1_455
O16 Sr0 2.728952 1_554
O17 Sr1 2.751441 1_654
O17 Sr2 2.752080 1_554
O18 Sr3 2.721599 1_455
O18 Sr0 2.729317 1_555
O19 Sr2 2.754778 1_555
O19 Sr1 2.756035 1_655
O20 Sr3 2.723545 1_555
O20 Sr0 2.728559 1_554
O21 Sr2 2.755889 1_554
O21 Sr1 2.757043 1_554
O22 Sr3 2.723504 1_555
O22 Sr0 2.729286 1_555
O23 Sr1 2.757150 1_555
O23 Sr2 2.757376 1_555
