# generated using pymatgen
data_Sr4Cu2Bi4O13
_symmetry_space_group_name_H-M   'P 1'
_cell_length_a   12.75397201
_cell_length_b   12.75397201
_cell_length_c   5.64290578
_cell_angle_alpha   89.53081441
_cell_angle_beta   89.53081441
_cell_angle_gamma   154.10455133
_symmetry_Int_Tables_number   1
_chemical_formula_structural   Sr4Cu2Bi4O13
_chemical_formula_sum   'Sr4 Cu2 Bi4 O13'
_cell_volume   400.60543897
_cell_formula_units_Z   1
loop_
 _symmetry_equiv_pos_site_id
 _symmetry_equiv_pos_as_xyz
  1  'x, y, z'
loop_
 _atom_site_type_symbol
 _atom_site_label
 _atom_site_symmetry_multiplicity
 _atom_site_fract_x
 _atom_site_fract_y
 _atom_site_fract_z
 _atom_site_occupancy
  Sr  Sr0  1  0.44121600  0.06862700  0.24916800  1
  Sr  Sr1  1  0.58532100  0.93391200  0.26056000  1
  Sr  Sr2  1  0.06608800  0.41467900  0.73944000  1
  Sr  Sr3  1  0.93137300  0.55878400  0.75083200  1
  Cu  Cu0  1  0.00311000  0.50171900  0.24775600  1
  Cu  Cu1  1  0.49828100  0.99689000  0.75224400  1
  Bi  Bi0  1  0.82364200  0.67869900  0.25765100  1
  Bi  Bi1  1  0.18101200  0.31299500  0.22862300  1
  Bi  Bi2  1  0.68700500  0.81898800  0.77137700  1
  Bi  Bi3  1  0.32130100  0.17635800  0.74234900  1
  O  O0  1  0.24834700  0.75165300  0.50000000  1
  O  O1  1  0.75586800  0.24413200  0.50000000  1
  O  O2  1  0.75942700  0.24057300  0.00000000  1
  O  O3  1  0.24608800  0.75391200  0.00000000  1
  O  O4  1  0.84257200  0.53225900  0.20755600  1
  O  O5  1  0.21013000  0.49920100  0.26300500  1
  O  O6  1  0.50079900  0.78987000  0.73699500  1
  O  O7  1  0.46774100  0.15742800  0.79244400  1
  O  O8  1  0.10141300  0.89858700  0.50000000  1
  O  O9  1  0.91542800  0.08457200  0.50000000  1
  O  O10  1  0.90089800  0.09910200  0.00000000  1
  O  O11  1  0.03674900  0.96325100  0.00000000  1
  O  O12  1  0.53119200  0.46880800  0.50000000  1
loop_
_geom_bond_atom_site_label_1
_geom_bond_atom_site_label_2
_geom_bond_distance
_geom_bond_site_symmetry_2
Cu0 O3 1.955873 1_555
Cu0 O1 1.993411 1_455
Cu0 O0 2.044262 1_555
Cu0 O2 2.056776 1_455
Cu0 O4 2.415875 1_455
Cu0 O5 2.671329 1_555
Cu1 O3 1.955873 1_556
Cu1 O1 1.993411 1_565
Cu1 O0 2.044262 1_555
Cu1 O2 2.056776 1_566
Cu1 O7 2.415875 1_565
Cu1 O6 2.671329 1_555
Bi0 O4 2.108386 1_555
Bi0 O8 2.133660 1_655
Bi0 O11 2.184907 1_655
Bi0 O12 2.200115 1_555
Bi1 O5 2.058512 1_555
Bi1 O9 2.096025 1_455
Bi1 O10 2.113745 1_455
Bi2 O6 2.058512 1_555
Bi2 O9 2.096025 1_565
Bi2 O10 2.113745 1_566
Bi3 O7 2.108386 1_555
Bi3 O8 2.133660 1_545
Bi3 O11 2.184907 1_546
Bi3 O12 2.200115 1_555
O0 Sr3 2.520916 1_455
O0 Sr0 2.520916 1_565
O0 Sr1 2.752974 1_555
O0 Sr2 2.752974 1_555
O1 Sr1 2.619698 1_545
O1 Sr2 2.619698 1_655
O1 Sr3 2.664899 1_555
O1 Sr0 2.664899 1_555
O2 Sr1 2.572230 1_545
O2 Sr2 2.572230 1_654
O2 Sr0 2.664620 1_555
O2 Sr3 2.664620 1_554
O3 Sr3 2.541435 1_454
O3 Sr0 2.541435 1_565
O3 Sr1 2.905214 1_555
O3 Sr2 2.905214 1_554
O4 Sr0 2.592679 1_555
O4 Sr3 2.699618 1_554
O5 Sr1 2.429366 1_555
O5 Sr2 2.841392 1_555
O5 Sr2 3.137458 1_554
O6 Sr2 2.429366 1_555
O6 Sr1 2.841392 1_555
O6 Sr1 3.137458 1_556
O7 Sr3 2.592679 1_555
O7 Sr0 2.699618 1_556
O8 Sr3 2.903097 1_455
O8 Sr0 2.903097 1_565
O9 Sr2 2.970489 1_655
O9 Sr1 2.970489 1_545
O10 Sr2 2.719535 1_654
O10 Sr1 2.719535 1_545
