# generated using pymatgen
data_K6Mo6C5Se8N5
_symmetry_space_group_name_H-M   'P 1'
_cell_length_a   9.56609711
_cell_length_b   9.56609711
_cell_length_c   9.56609711
_cell_angle_alpha   104.69940530
_cell_angle_beta   104.69940530
_cell_angle_gamma   119.50530805
_symmetry_Int_Tables_number   1
_chemical_formula_structural   K6Mo6C5Se8N5
_chemical_formula_sum   'K6 Mo6 C5 Se8 N5'
_cell_volume   658.14433429
_cell_formula_units_Z   1
loop_
 _symmetry_equiv_pos_site_id
 _symmetry_equiv_pos_as_xyz
  1  'x, y, z'
loop_
 _atom_site_type_symbol
 _atom_site_label
 _atom_site_symmetry_multiplicity
 _atom_site_fract_x
 _atom_site_fract_y
 _atom_site_fract_z
 _atom_site_occupancy
  K  K0  1  0.27398500  0.63192400  0.90664900  1
  K  K1  1  0.72527500  0.36733600  0.09335100  1
  K  K2  1  0.63192400  0.72527500  0.35793900  1
  K  K3  1  0.36733600  0.27398500  0.64206100  1
  K  K4  1  0.74990900  0.24990900  0.50000000  1
  K  K5  1  0.24990900  0.74990900  0.50000000  1
  Mo  Mo0  1  0.15369500  0.94674800  0.10049600  1
  Mo  Mo1  1  0.84625300  0.05320000  0.89950400  1
  Mo  Mo2  1  0.94674800  0.84625300  0.79305300  1
  Mo  Mo3  1  0.05320000  0.15369500  0.20694700  1
  Mo  Mo4  1  0.79189400  0.79189400  0.00000000  1
  Mo  Mo5  1  0.20469800  0.20469800  0.00000000  1
  C  C0  1  0.56549200  0.56549200  0.00000000  1
  C  C1  1  0.10549300  0.33204200  0.43810300  1
  C  C2  1  0.89393900  0.66739100  0.56189700  1
  C  C3  1  0.33204200  0.89393900  0.22654900  1
  C  C4  1  0.66739100  0.10549300  0.77345100  1
  Se  Se0  1  0.39078100  0.28704700  0.29463200  1
  Se  Se1  1  0.99241500  0.09614800  0.70536800  1
  Se  Se2  1  0.28704700  0.99241500  0.89626600  1
  Se  Se3  1  0.09614800  0.39078100  0.10373400  1
  Se  Se4  1  0.60900000  0.71268800  0.70542600  1
  Se  Se5  1  0.00726100  0.90357400  0.29457400  1
  Se  Se6  1  0.71268800  0.00726100  0.10368800  1
  Se  Se7  1  0.90357400  0.60900000  0.89631200  1
  N  N0  1  0.13194700  0.43037000  0.56218700  1
  N  N1  1  0.86818300  0.56976100  0.43781300  1
  N  N2  1  0.43037000  0.86818300  0.29842200  1
  N  N3  1  0.56976100  0.13194700  0.70157800  1
  N  N4  1  0.44164200  0.44164200  0.00000000  1
loop_
_geom_bond_atom_site_label_1
_geom_bond_atom_site_label_2
_geom_bond_distance
_geom_bond_site_symmetry_2
K0 N0 2.888730 1_555
K0 Se7 3.414564 1_455
K0 Se2 3.416616 1_555
K0 Se3 3.426259 1_556
K0 Se6 3.430063 1_566
K1 N1 2.888731 1_555
K1 Se6 3.414573 1_555
K1 Se3 3.416606 1_655
K1 Se2 3.426256 1_544
K1 Se7 3.430066 1_554
K2 N2 2.888731 1_555
K2 Se4 3.414564 1_555
K2 Se1 3.416613 1_565
K2 Se0 3.426256 1_555
K2 Se5 3.430058 1_655
K3 N3 2.888739 1_555
K3 Se5 3.414566 1_545
K3 Se0 3.416616 1_555
K3 Se1 3.426256 1_455
K3 Se4 3.430066 1_555
K4 N2 2.972679 1_545
K4 N3 2.972681 1_555
K4 N0 2.975114 1_655
K4 N1 2.975123 1_555
K4 Se0 3.730859 1_555
K4 Se1 3.730867 1_555
K4 Se7 3.731282 1_555
K4 Se6 3.731285 1_555
K5 N0 2.972678 1_555
K5 N1 2.972679 1_455
K5 N3 2.975117 1_565
K5 N2 2.975123 1_555
K5 Se3 3.730856 1_555
K5 Se2 3.730859 1_555
K5 Se4 3.731282 1_555
K5 Se5 3.731288 1_555
Mo0 Se0 2.590727 1_565
Mo0 Se5 2.592060 1_555
Mo0 Se2 2.604619 1_554
Mo0 Se7 2.605729 1_454
Mo1 Se1 2.590719 1_555
Mo1 Se4 2.592060 1_545
Mo1 Se3 2.604611 1_656
Mo1 Se6 2.605737 1_556
Mo2 Se2 2.590729 1_655
Mo2 Se7 2.592062 1_555
Mo2 Se1 2.604601 1_565
Mo2 Se4 2.605727 1_555
Mo3 Se3 2.590730 1_555
Mo3 Se6 2.592060 1_455
Mo3 Se0 2.604610 1_555
Mo3 Se5 2.605725 1_545
Mo4 Se6 2.585421 1_565
Mo4 Se5 2.585426 1_655
Mo4 Se7 2.585429 1_554
Mo4 Se4 2.585429 1_554
Mo5 N4 2.283556 1_555
Mo5 Se1 2.584350 1_454
Mo5 Se2 2.584353 1_544
Mo5 Se0 2.584353 1_555
Mo5 Se3 2.584361 1_555
C0 N4 1.193609 1_555
C0 Mo4 2.181957 1_555
C1 N0 1.185003 1_555
C1 Mo3 2.175783 1_555
C2 N1 1.185003 1_555
C2 Mo2 2.175779 1_555
C3 N2 1.184999 1_555
C3 Mo0 2.175779 1_555
C4 N3 1.184999 1_555
C4 Mo1 2.175772 1_555
