# generated using pymatgen
data_Y2NiB10
_symmetry_space_group_name_H-M   'P 1'
_cell_length_a   4.14146734
_cell_length_b   5.53691593
_cell_length_c   11.05920209
_cell_angle_alpha   90.00000000
_cell_angle_beta   90.00000000
_cell_angle_gamma   90.00000000
_symmetry_Int_Tables_number   1
_chemical_formula_structural   Y2NiB10
_chemical_formula_sum   'Y4 Ni2 B20'
_cell_volume   253.59808192
_cell_formula_units_Z   2
loop_
 _symmetry_equiv_pos_site_id
 _symmetry_equiv_pos_as_xyz
  1  'x, y, z'
loop_
 _atom_site_type_symbol
 _atom_site_label
 _atom_site_symmetry_multiplicity
 _atom_site_fract_x
 _atom_site_fract_y
 _atom_site_fract_z
 _atom_site_occupancy
  Y  Y0  1  0.50000000  0.18516661  0.36264668  1
  Y  Y1  1  0.50000000  0.81483339  0.63735332  1
  Y  Y2  1  0.50000000  0.31483339  0.86264668  1
  Y  Y3  1  0.50000000  0.68516661  0.13735332  1
  Ni  Ni0  1  0.00000000  -0.00000000  0.00000000  1
  Ni  Ni1  1  0.00000000  0.50000000  0.50000000  1
  B  B0  1  0.00000000  0.37338406  0.04088809  1
  B  B1  1  0.00000000  0.62661594  0.95911191  1
  B  B2  1  0.00000000  0.12661594  0.54088809  1
  B  B3  1  0.00000000  0.87338406  0.45911191  1
  B  B4  1  0.00000000  0.33907467  0.19860725  1
  B  B5  1  0.00000000  0.66092533  0.80139275  1
  B  B6  1  0.00000000  0.16092533  0.69860725  1
  B  B7  1  0.00000000  0.83907467  0.30139275  1
  B  B8  1  0.00000000  0.02738167  0.18585844  1
  B  B9  1  0.00000000  0.97261833  0.81414156  1
  B  B10  1  0.00000000  0.47261833  0.68585844  1
  B  B11  1  0.00000000  0.52738167  0.31414156  1
  B  B12  1  0.30131291  0.19966223  0.11433098  1
  B  B13  1  0.69868709  0.80033777  0.88566902  1
  B  B14  1  0.30131291  0.80033777  0.88566902  1
  B  B15  1  0.69868709  0.30033777  0.61433098  1
  B  B16  1  0.69868709  0.19966223  0.11433098  1
  B  B17  1  0.30131291  0.69966223  0.38566902  1
  B  B18  1  0.69868709  0.69966223  0.38566902  1
  B  B19  1  0.30131291  0.30033777  0.61433098  1
loop_
_geom_bond_atom_site_label_1
_geom_bond_atom_site_label_2
_geom_bond_distance
_geom_bond_site_symmetry_2
Ni0 Y3 3.103888 1_545
Ni0 Y2 3.103888 1_554
Ni0 Y3 3.103888 1_445
Ni0 Y2 3.103888 1_454
Ni1 Y0 3.103888 1_455
Ni1 Y1 3.103888 1_455
Ni1 Y0 3.103888 1_555
Ni1 Y1 3.103888 1_555
B0 B1 1.668488 1_554
B0 B4 1.754562 1_555
B0 B16 1.772602 1_455
B0 B12 1.772602 1_555
B0 Ni0 2.116271 1_555
B0 Y2 2.877273 1_454
B0 Y2 2.877273 1_554
B0 Y3 2.899348 1_455
B0 Y3 2.899348 1_555
B1 B5 1.754562 1_555
B1 B14 1.772602 1_555
B1 B13 1.772602 1_455
B1 Ni0 2.116271 1_566
B1 Y3 2.877273 1_456
B1 Y3 2.877273 1_556
B1 Y2 2.899348 1_455
B1 Y2 2.899348 1_555
B2 B3 1.668488 1_545
B2 B6 1.754562 1_555
B2 Ni1 2.116271 1_555
B2 Y0 2.877273 1_455
B2 Y0 2.877273 1_555
B2 Y1 2.899348 1_445
B2 Y1 2.899348 1_545
B3 B7 1.754562 1_555
B3 Ni1 2.116271 1_555
B3 Y1 2.877273 1_555
B3 Y1 2.877273 1_455
B3 Y0 2.899348 1_565
B3 Y0 2.899348 1_465
B4 B8 1.731568 1_555
B4 Y0 2.881886 1_455
B4 Y0 2.881886 1_555
B4 Y3 2.901546 1_555
B4 Y3 2.901546 1_455
B5 B9 1.731568 1_555
B5 Y1 2.881886 1_555
B5 Y1 2.881886 1_455
B5 Y2 2.901546 1_455
B5 Y2 2.901546 1_555
B6 B9 1.649139 1_545
B6 Y2 2.881886 1_455
B6 Y2 2.881886 1_555
B6 Y1 2.901546 1_545
B6 Y1 2.901546 1_445
B7 B8 1.649139 1_565
B7 Y3 2.881886 1_455
B7 Y3 2.881886 1_555
B7 Y0 2.901546 1_565
B7 Y0 2.901546 1_465
B8 Ni0 2.061030 1_555
B8 Y3 2.857625 1_545
B8 Y3 2.857625 1_445
B8 Y0 2.978884 1_455
B8 Y0 2.978884 1_555
B9 Ni0 2.061030 1_566
B9 Y2 2.857625 1_565
B9 Y2 2.857625 1_465
B9 Y1 2.978884 1_555
B9 Y1 2.978884 1_455
B10 B5 1.649139 1_555
B10 B6 1.731568 1_555
B10 B19 1.758655 1_555
B10 B15 1.758655 1_455
B10 Ni1 2.061030 1_555
B10 Y1 2.857625 1_555
B10 Y1 2.857625 1_455
B10 Y2 2.978884 1_455
B10 Y2 2.978884 1_555
B11 B4 1.649139 1_555
B11 B7 1.731568 1_555
B11 B17 1.758655 1_555
B11 B18 1.758655 1_455
B11 Ni1 2.061030 1_555
B11 Y0 2.857625 1_455
B11 Y0 2.857625 1_555
B11 Y3 2.978884 1_455
B11 Y3 2.978884 1_555
B12 B16 1.645712 1_555
B12 B4 1.738312 1_555
B12 B8 1.758655 1_555
B12 Ni0 2.092388 1_555
B12 Y3 2.822821 1_555
B12 Y0 2.867927 1_555
B12 Y2 2.971736 1_554
B12 Y3 2.976091 1_545
B13 B14 1.645712 1_555
B13 B5 1.738312 1_655
B13 B9 1.758655 1_655
B13 Ni0 2.092388 1_666
B13 Y2 2.822821 1_555
B13 Y1 2.867927 1_555
B13 Y3 2.971736 1_556
B13 Y2 2.976091 1_565
B14 B5 1.738312 1_555
B14 B9 1.758655 1_555
B14 Ni0 2.092388 1_566
B14 Y2 2.822821 1_555
B14 Y1 2.867927 1_555
B14 Y3 2.971736 1_556
B14 Y2 2.976091 1_565
B15 B19 1.645712 1_555
B15 B6 1.738312 1_655
B15 B2 1.772602 1_655
B15 Ni1 2.092388 1_655
B15 Y1 2.822821 1_545
B15 Y2 2.867927 1_555
B15 Y0 2.971736 1_555
B15 Y1 2.976091 1_555
B16 B4 1.738312 1_655
B16 B8 1.758655 1_655
B16 Ni0 2.092388 1_655
B16 Y3 2.822821 1_555
B16 Y0 2.867927 1_555
B16 Y2 2.971736 1_554
B16 Y3 2.976091 1_545
B17 B18 1.645712 1_555
B17 B7 1.738312 1_555
B17 B3 1.772602 1_555
B17 Ni1 2.092388 1_555
B17 Y0 2.822821 1_565
B17 Y3 2.867927 1_555
B17 Y1 2.971736 1_555
B17 Y0 2.976091 1_555
B18 B7 1.738312 1_655
B18 B3 1.772602 1_655
B18 Ni1 2.092388 1_655
B18 Y0 2.822821 1_565
B18 Y3 2.867927 1_555
B18 Y1 2.971736 1_555
B18 Y0 2.976091 1_555
B19 B6 1.738312 1_555
B19 B2 1.772602 1_555
B19 Ni1 2.092388 1_555
B19 Y1 2.822821 1_545
B19 Y2 2.867927 1_555
B19 Y0 2.971736 1_555
B19 Y1 2.976091 1_555
