# generated using pymatgen
data_YMg7
_symmetry_space_group_name_H-M   'P 1'
_cell_length_a   6.58606412
_cell_length_b   6.58606360
_cell_length_c   5.15444305
_cell_angle_alpha   90.00000000
_cell_angle_beta   90.00000000
_cell_angle_gamma   120.00011184
_symmetry_Int_Tables_number   1
_chemical_formula_structural   YMg7
_chemical_formula_sum   'Y1 Mg7'
_cell_volume   193.62603964
_cell_formula_units_Z   1
loop_
 _symmetry_equiv_pos_site_id
 _symmetry_equiv_pos_as_xyz
  1  'x, y, z'
loop_
 _atom_site_type_symbol
 _atom_site_label
 _atom_site_symmetry_multiplicity
 _atom_site_fract_x
 _atom_site_fract_y
 _atom_site_fract_z
 _atom_site_occupancy
  Y  Y0  1  0.16666700  0.33333300  0.25000000  1
  Mg  Mg0  1  0.17508025  0.83753962  0.25000000  1
  Mg  Mg1  1  0.66246038  0.32491975  0.25000000  1
  Mg  Mg2  1  0.66246038  0.83753862  0.25000000  1
  Mg  Mg3  1  0.33637464  0.16362536  0.75000000  1
  Mg  Mg4  1  0.33637464  0.67275027  0.75000000  1
  Mg  Mg5  1  0.82724973  0.16362536  0.75000000  1
  Mg  Mg6  1  0.83333300  0.66666700  0.75000000  1
loop_
_geom_bond_atom_site_label_1
_geom_bond_atom_site_label_2
_geom_bond_distance
_geom_bond_site_symmetry_2
Mg0 Mg4 3.178266 1_555
Mg0 Mg4 3.178266 1_554
Mg0 Mg3 3.178271 1_564
Mg0 Mg3 3.178271 1_565
Mg0 Mg1 3.209911 1_565
Mg0 Mg2 3.209920 1_555
Mg0 Mg6 3.231336 1_455
Mg0 Mg6 3.231336 1_454
Mg0 Y0 3.293381 1_555
Mg0 Y0 3.293382 1_565
Mg0 Mg1 3.376141 1_455
Mg0 Mg2 3.376144 1_455
Mg1 Mg5 3.178266 1_554
Mg1 Mg5 3.178266 1_555
Mg1 Mg3 3.178271 1_554
Mg1 Mg3 3.178271 1_555
Mg1 Mg2 3.209923 1_545
Mg1 Mg6 3.231336 1_554
Mg1 Mg6 3.231336 1_555
Mg1 Y0 3.293382 1_655
Mg1 Y0 3.293382 1_555
Mg1 Mg2 3.376140 1_555
Mg2 Mg4 3.178271 1_555
Mg2 Mg4 3.178271 1_554
Mg2 Mg5 3.178274 1_565
Mg2 Mg5 3.178274 1_564
Mg2 Mg6 3.231328 1_555
Mg2 Mg6 3.231328 1_554
Mg2 Y0 3.293373 1_555
Mg2 Y0 3.293379 1_665
Mg3 Y0 3.223332 1_556
Mg3 Y0 3.223332 1_555
Mg3 Mg4 3.232935 1_545
Mg3 Mg5 3.232935 1_555
Mg3 Mg6 3.293209 1_555
Mg3 Mg6 3.293209 1_445
Mg3 Mg4 3.353129 1_555
Mg3 Mg5 3.353129 1_455
Mg4 Y0 3.223337 1_555
Mg4 Y0 3.223337 1_556
Mg4 Mg5 3.232929 1_565
Mg4 Mg6 3.293215 1_455
Mg4 Mg6 3.293215 1_555
Mg4 Mg5 3.353124 1_455
Mg5 Y0 3.223337 1_655
Mg5 Y0 3.223337 1_656
Mg5 Mg6 3.293215 1_555
Mg5 Mg6 3.293215 1_545
