# generated using pymatgen
data_Sr2UO5
_symmetry_space_group_name_H-M   'P 1'
_cell_length_a   5.68778583
_cell_length_b   8.08989526
_cell_length_c   11.92607877
_cell_angle_alpha   71.56425489
_cell_angle_beta   90.00000000
_cell_angle_gamma   90.00000000
_symmetry_Int_Tables_number   1
_chemical_formula_structural   Sr2UO5
_chemical_formula_sum   'Sr8 U4 O20'
_cell_volume   520.59866507
_cell_formula_units_Z   4
loop_
 _symmetry_equiv_pos_site_id
 _symmetry_equiv_pos_as_xyz
  1  'x, y, z'
loop_
 _atom_site_type_symbol
 _atom_site_label
 _atom_site_symmetry_multiplicity
 _atom_site_fract_x
 _atom_site_fract_y
 _atom_site_fract_z
 _atom_site_occupancy
  Sr  Sr0  1  0.93249876  0.15660803  0.68121565  1
  Sr  Sr1  1  0.43249876  0.84339197  0.81878435  1
  Sr  Sr2  1  0.06750124  0.84339197  0.31878435  1
  Sr  Sr3  1  0.56750124  0.15660803  0.18121565  1
  Sr  Sr4  1  0.50018928  0.33881098  0.86221702  1
  Sr  Sr5  1  0.00018928  0.66118902  0.63778298  1
  Sr  Sr6  1  0.49981072  0.66118902  0.13778298  1
  Sr  Sr7  1  0.99981072  0.33881098  0.36221702  1
  U  U0  1  0.00000000  -0.00000000  -0.00000000  1
  U  U1  1  0.50000000  -0.00000000  0.50000000  1
  U  U2  1  0.00000000  0.50000000  -0.00000000  1
  U  U3  1  0.50000000  0.50000000  0.50000000  1
  O  O0  1  0.65218752  0.25063627  0.50165076  1
  O  O1  1  0.15218752  0.74936373  0.99834924  1
  O  O2  1  0.34781248  0.74936373  0.49834924  1
  O  O3  1  0.84781248  0.25063627  0.00165076  1
  O  O4  1  0.75938903  0.01939641  0.37894186  1
  O  O5  1  0.25938903  0.98060359  0.12105814  1
  O  O6  1  0.24061097  0.98060359  0.62105814  1
  O  O7  1  0.74061097  0.01939641  0.87894186  1
  O  O8  1  0.79856294  0.60476020  0.42556700  1
  O  O9  1  0.29856294  0.39523980  0.07443300  1
  O  O10  1  0.20143706  0.39523980  0.57443300  1
  O  O11  1  0.70143706  0.60476020  0.92556700  1
  O  O12  1  0.66994104  0.44566112  0.66447502  1
  O  O13  1  0.16994104  0.55433888  0.83552498  1
  O  O14  1  0.33005896  0.55433888  0.33552498  1
  O  O15  1  0.83005896  0.44566112  0.16447502  1
  O  O16  1  0.70948678  0.89211993  0.64139489  1
  O  O17  1  0.20948678  0.10788007  0.85860511  1
  O  O18  1  0.29051322  0.10788007  0.35860511  1
  O  O19  1  0.79051322  0.89211993  0.14139489  1
loop_
_geom_bond_atom_site_label_1
_geom_bond_atom_site_label_2
_geom_bond_distance
_geom_bond_site_symmetry_2
O0 U3 2.189556 1_555
O0 U1 2.210467 1_555
O0 Sr7 2.536368 1_555
O0 Sr0 2.583857 1_555
O1 U2 2.189556 1_556
O1 U0 2.210467 1_566
O1 Sr6 2.536368 1_556
O1 Sr1 2.583857 1_555
O2 U3 2.189556 1_555
O2 U1 2.210467 1_565
O2 Sr5 2.536368 1_555
O2 Sr2 2.583857 1_555
O3 U2 2.189556 1_655
O3 U0 2.210467 1_655
O3 Sr4 2.536368 1_554
O3 Sr3 2.583857 1_555
O4 U1 2.035289 1_555
O4 Sr2 2.501874 1_645
O4 Sr3 2.515636 1_555
O4 Sr7 2.874191 1_555
O5 U0 2.035289 1_565
O5 Sr3 2.501874 1_565
O5 Sr2 2.515636 1_555
O5 Sr6 2.874191 1_555
O6 U1 2.035289 1_565
O6 Sr0 2.501874 1_465
O6 Sr1 2.515636 1_555
O6 Sr5 2.874191 1_555
O7 U0 2.035289 1_656
O7 Sr1 2.501874 1_545
O7 Sr0 2.515636 1_555
O7 Sr4 2.874191 1_555
O8 U3 1.978429 1_555
O8 Sr2 2.476604 1_655
O8 Sr7 2.745559 1_555
O8 Sr5 2.942752 1_655
O9 U2 1.978429 1_555
O9 Sr3 2.476604 1_555
O9 Sr6 2.745559 1_555
O9 Sr4 2.942752 1_554
O10 U3 1.978429 1_555
O10 Sr0 2.476604 1_455
O10 Sr5 2.745559 1_555
O10 Sr7 2.942752 1_455
O11 U2 1.978429 1_656
O11 Sr1 2.476604 1_555
O11 Sr4 2.745559 1_555
O11 Sr6 2.942752 1_556
O12 U3 2.104710 1_555
O12 Sr4 2.439590 1_555
O12 Sr5 2.513709 1_655
O12 Sr0 2.728167 1_555
O13 U2 2.104710 1_556
O13 Sr5 2.439590 1_555
O13 Sr4 2.513709 1_555
O13 Sr1 2.728167 1_555
O14 U3 2.104710 1_555
O14 Sr6 2.439590 1_555
O14 Sr7 2.513709 1_455
O14 Sr2 2.728167 1_555
O15 U2 2.104710 1_655
O15 Sr7 2.439590 1_555
O15 Sr6 2.513709 1_555
O15 Sr3 2.728167 1_555
O16 U1 2.023396 1_565
O16 Sr5 2.505366 1_655
O16 Sr1 2.566236 1_555
O16 Sr0 2.656203 1_565
O17 U0 2.023396 1_556
O17 Sr4 2.505366 1_555
O17 Sr0 2.566236 1_455
O17 Sr1 2.656203 1_545
O18 U1 2.023396 1_555
O18 Sr7 2.505366 1_455
O18 Sr3 2.566236 1_555
O18 Sr2 2.656203 1_545
O19 U0 2.023396 1_665
O19 Sr6 2.505366 1_555
O19 Sr2 2.566236 1_655
O19 Sr3 2.656203 1_565
