# generated using pymatgen
data_YbCu2Ni3
_symmetry_space_group_name_H-M   'P 1'
_cell_length_a   4.84357197
_cell_length_b   4.84357197
_cell_length_c   3.92609509
_cell_angle_alpha   90.00000000
_cell_angle_beta   90.00000000
_cell_angle_gamma   119.99999494
_symmetry_Int_Tables_number   1
_chemical_formula_structural   YbCu2Ni3
_chemical_formula_sum   'Yb1 Cu2 Ni3'
_cell_volume   79.76694913
_cell_formula_units_Z   1
loop_
 _symmetry_equiv_pos_site_id
 _symmetry_equiv_pos_as_xyz
  1  'x, y, z'
loop_
 _atom_site_type_symbol
 _atom_site_label
 _atom_site_symmetry_multiplicity
 _atom_site_fract_x
 _atom_site_fract_y
 _atom_site_fract_z
 _atom_site_occupancy
  Yb  Yb0  1  0.00000000  0.00000000  0.00000000  1
  Cu  Cu0  1  0.66666700  0.33333300  0.00000000  1
  Cu  Cu1  1  0.33333300  0.66666700  0.00000000  1
  Ni  Ni0  1  0.50000000  0.50000000  0.50000000  1
  Ni  Ni1  1  0.50000000  0.00000000  0.50000000  1
  Ni  Ni2  1  0.00000000  0.50000000  0.50000000  1
loop_
_geom_bond_atom_site_label_1
_geom_bond_atom_site_label_2
_geom_bond_distance
_geom_bond_site_symmetry_2
Cu0 Ni1 2.410097 1_554
Cu0 Ni1 2.410097 1_555
Cu0 Ni2 2.410097 1_654
Cu0 Ni2 2.410097 1_655
Cu0 Ni0 2.410099 1_555
Cu0 Ni0 2.410099 1_554
Cu0 Yb0 2.796435 1_655
Cu0 Cu1 2.796435 1_545
Cu0 Cu1 2.796435 1_655
Cu0 Yb0 2.796439 1_555
Cu0 Yb0 2.796439 1_665
Cu0 Cu1 2.796443 1_555
Cu1 Ni2 2.410097 1_555
Cu1 Ni2 2.410097 1_554
Cu1 Ni1 2.410097 1_565
Cu1 Ni1 2.410097 1_564
Cu1 Ni0 2.410099 1_555
Cu1 Ni0 2.410099 1_554
Cu1 Yb0 2.796435 1_565
Cu1 Yb0 2.796439 1_555
Cu1 Yb0 2.796439 1_665
Ni0 Ni2 2.421786 1_655
Ni0 Ni1 2.421786 1_555
Ni0 Ni1 2.421786 1_565
Ni0 Ni2 2.421786 1_555
Ni0 Yb0 3.117468 1_555
Ni0 Yb0 3.117468 1_556
Ni0 Yb0 3.117468 1_666
Ni0 Yb0 3.117468 1_665
Ni1 Ni2 2.421786 1_545
Ni1 Ni2 2.421786 1_655
Ni1 Yb0 3.117467 1_555
Ni1 Yb0 3.117467 1_556
Ni1 Yb0 3.117467 1_655
Ni1 Yb0 3.117467 1_656
Ni2 Yb0 3.117467 1_555
Ni2 Yb0 3.117467 1_556
Ni2 Yb0 3.117467 1_566
Ni2 Yb0 3.117467 1_565
