# generated using pymatgen
data_Mn5Cu(PO4)4
_symmetry_space_group_name_H-M   'P 1'
_cell_length_a   6.17167009
_cell_length_b   8.97209083
_cell_length_c   11.74032800
_cell_angle_alpha   90.00000000
_cell_angle_beta   90.00000000
_cell_angle_gamma   98.73389474
_symmetry_Int_Tables_number   1
_chemical_formula_structural   Mn5Cu(PO4)4
_chemical_formula_sum   'Mn10 Cu2 P8 O32'
_cell_volume   642.55630706
_cell_formula_units_Z   2
loop_
 _symmetry_equiv_pos_site_id
 _symmetry_equiv_pos_as_xyz
  1  'x, y, z'
loop_
 _atom_site_type_symbol
 _atom_site_label
 _atom_site_symmetry_multiplicity
 _atom_site_fract_x
 _atom_site_fract_y
 _atom_site_fract_z
 _atom_site_occupancy
  Mn  Mn0  1  0.12315200  0.87076200  0.19367500  1
  Mn  Mn1  1  0.37684800  0.12923800  0.69367500  1
  Mn  Mn2  1  0.87666400  0.13066900  0.80513200  1
  Mn  Mn3  1  0.62333600  0.86933100  0.30513200  1
  Mn  Mn4  1  0.34006800  0.44660200  0.38756900  1
  Mn  Mn5  1  0.15993200  0.55339800  0.88756900  1
  Mn  Mn6  1  0.66322300  0.55763000  0.61503400  1
  Mn  Mn7  1  0.83677700  0.44237000  0.11503400  1
  Mn  Mn8  1  0.83030600  0.22841500  0.42907000  1
  Mn  Mn9  1  0.66969400  0.77158500  0.92907000  1
  Cu  Cu0  1  0.17258700  0.79966500  0.55090900  1
  Cu  Cu1  1  0.32741300  0.20033500  0.05090900  1
  P  P0  1  0.30437900  0.10829100  0.41427400  1
  P  P1  1  0.19562100  0.89170900  0.91427400  1
  P  P2  1  0.69180600  0.89255800  0.57968400  1
  P  P3  1  0.80819400  0.10744200  0.07968400  1
  P  P4  1  0.89194500  0.59293600  0.36182700  1
  P  P5  1  0.60805500  0.40706400  0.86182700  1
  P  P6  1  0.10985700  0.40905700  0.64156100  1
  P  P7  1  0.39014300  0.59094300  0.14156100  1
  O  O0  1  0.51007000  0.22932300  0.42136600  1
  O  O1  1  0.98993000  0.77067700  0.92136600  1
  O  O2  1  0.47836800  0.77406700  0.57445000  1
  O  O3  1  0.02163200  0.22593300  0.07445000  1
  O  O4  1  0.91076400  0.44667700  0.29341400  1
  O  O5  1  0.58923600  0.55332300  0.79341400  1
  O  O6  1  0.08607200  0.54822200  0.71453800  1
  O  O7  1  0.41392800  0.45177800  0.21453800  1
  O  O8  1  0.67659900  0.57108400  0.43275600  1
  O  O9  1  0.82340100  0.42891600  0.93275600  1
  O  O10  1  0.32516700  0.43118500  0.56975400  1
  O  O11  1  0.17483300  0.56881500  0.06975400  1
  O  O12  1  0.25424800  0.03296000  0.53435700  1
  O  O13  1  0.24575200  0.96704000  0.03435700  1
  O  O14  1  0.74194700  0.97245000  0.46288700  1
  O  O15  1  0.75805300  0.02755000  0.96288700  1
  O  O16  1  0.87563000  0.72749400  0.27936000  1
  O  O17  1  0.62437000  0.27250600  0.77936000  1
  O  O18  1  0.12653600  0.26927300  0.71931400  1
  O  O19  1  0.37346400  0.73072700  0.21931400  1
  O  O20  1  0.10417700  0.62743300  0.43544000  1
  O  O21  1  0.39582300  0.37256700  0.93544000  1
  O  O22  1  0.89853600  0.37483300  0.56759000  1
  O  O23  1  0.60146400  0.62516700  0.06759000  1
  O  O24  1  0.12688300  0.20120100  0.37580800  1
  O  O25  1  0.37311700  0.79879900  0.87580800  1
  O  O26  1  0.87465600  0.79524300  0.61042900  1
  O  O27  1  0.62534400  0.20475700  0.11042900  1
  O  O28  1  0.32892600  0.98393800  0.32583900  1
  O  O29  1  0.17107400  0.01606200  0.82583900  1
  O  O30  1  0.67278400  0.01132000  0.67440400  1
  O  O31  1  0.82721600  0.98868000  0.17440400  1
loop_
_geom_bond_atom_site_label_1
_geom_bond_atom_site_label_2
_geom_bond_distance
_geom_bond_site_symmetry_2
Mn0 O16 2.097990 1_455
Mn0 O13 2.149131 1_555
Mn0 O19 2.155262 1_555
Mn0 O28 2.158679 1_555
Mn0 O31 2.256794 1_455
Mn1 O17 2.097990 1_555
Mn1 O12 2.149131 1_555
Mn1 O18 2.155262 1_555
Mn1 O29 2.158679 1_555
Mn1 O30 2.256794 1_555
Mn2 O18 2.087424 1_655
Mn2 O15 2.148587 1_555
Mn2 O30 2.162474 1_555
Mn2 O17 2.176520 1_555
Mn2 O29 2.232784 1_655
Mn3 O19 2.087424 1_555
Mn3 O14 2.148587 1_555
Mn3 O31 2.162474 1_555
Mn3 O16 2.176520 1_555
Mn3 O28 2.232784 1_555
Mn4 O7 2.080930 1_555
Mn4 O10 2.144451 1_555
Mn4 O8 2.266741 1_555
Mn4 O0 2.383223 1_555
Mn4 O24 2.391264 1_555
Mn4 O20 2.405192 1_555
Mn5 O6 2.080930 1_555
Mn5 O11 2.144451 1_556
Mn5 O9 2.266741 1_455
Mn5 O1 2.383223 1_455
Mn5 O25 2.391264 1_555
Mn5 O21 2.405192 1_555
Mn6 O5 2.142540 1_555
Mn6 O8 2.144289 1_555
Mn6 O10 2.281175 1_555
Mn6 O26 2.325032 1_555
Mn6 O22 2.415064 1_555
Mn6 O2 2.443839 1_555
Mn7 O4 2.142540 1_555
Mn7 O9 2.144289 1_554
Mn7 O11 2.281175 1_655
Mn7 O27 2.325032 1_555
Mn7 O23 2.415064 1_555
Mn7 O3 2.443839 1_655
Mn8 O0 1.979712 1_555
Mn8 O24 1.984095 1_655
Mn8 O22 2.092802 1_555
Mn8 O14 2.312742 1_545
Mn8 O4 2.514477 1_555
Mn9 O1 1.979712 1_555
Mn9 O25 1.984095 1_555
Mn9 O23 2.092802 1_556
Mn9 O15 2.312742 1_565
Mn9 O5 2.514477 1_555
Cu0 O2 1.955046 1_555
Cu0 O26 1.961799 1_455
Cu0 O20 2.050801 1_555
Cu0 O12 2.086300 1_565
Cu1 O3 1.955046 1_555
Cu1 O27 1.961799 1_555
Cu1 O21 2.050801 1_554
Cu1 O13 2.086300 1_545
O0 P0 1.542404 1_555
O1 P1 1.542404 1_655
O2 P2 1.563295 1_555
O3 P3 1.563295 1_455
O4 P4 1.557847 1_555
O5 P5 1.557847 1_555
O6 P6 1.539570 1_555
O7 P7 1.539570 1_555
O8 P4 1.555347 1_555
O9 P5 1.555347 1_555
O10 P6 1.560698 1_555
O11 P7 1.560698 1_555
O12 P0 1.573722 1_555
O13 P1 1.573722 1_554
O14 P2 1.556433 1_555
O15 P3 1.556433 1_556
O16 P4 1.562671 1_555
O17 P5 1.562671 1_555
O18 P6 1.567161 1_555
O19 P7 1.567161 1_555
O20 P4 1.560524 1_455
O21 P5 1.560524 1_555
O22 P6 1.558143 1_655
O23 P7 1.558143 1_555
O24 P0 1.541477 1_555
O25 P1 1.541477 1_555
O26 P2 1.570142 1_555
O27 P3 1.570142 1_555
O28 P0 1.548244 1_565
O29 P1 1.548244 1_545
O30 P2 1.556855 1_545
O31 P3 1.556855 1_565
