# generated using pymatgen
data_LaFeWO6
_symmetry_space_group_name_H-M   'P 1'
_cell_length_a   5.52297761
_cell_length_b   7.82525748
_cell_length_c   5.57537300
_cell_angle_alpha   90.00088161
_cell_angle_beta   90.00130078
_cell_angle_gamma   89.99175607
_symmetry_Int_Tables_number   1
_chemical_formula_structural   LaFeWO6
_chemical_formula_sum   'La2 Fe2 W2 O12'
_cell_volume   240.96049255
_cell_formula_units_Z   2
loop_
 _symmetry_equiv_pos_site_id
 _symmetry_equiv_pos_as_xyz
  1  'x, y, z'
loop_
 _atom_site_type_symbol
 _atom_site_label
 _atom_site_symmetry_multiplicity
 _atom_site_fract_x
 _atom_site_fract_y
 _atom_site_fract_z
 _atom_site_occupancy
  La  La0  1  0.99160200  0.24797000  0.03497500  1
  La  La1  1  0.49143600  0.74805300  0.46509000  1
  Fe  Fe0  1  0.49660700  0.49911900  0.99524400  1
  Fe  Fe1  1  0.99654200  0.99929300  0.50463900  1
  W  W0  1  0.99831600  0.49873200  0.50837500  1
  W  W1  1  0.49835200  0.99868700  0.99162200  1
  O  O0  1  0.54996900  0.75521500  0.01022000  1
  O  O1  1  0.05001800  0.25520600  0.48975200  1
  O  O2  1  0.23536900  0.97366100  0.22280700  1
  O  O3  1  0.73537500  0.47362900  0.27721900  1
  O  O4  1  0.22593500  0.52937100  0.23931600  1
  O  O5  1  0.72593600  0.02939000  0.26069200  1
  O  O6  1  0.92675800  0.74483300  0.50972700  1
  O  O7  1  0.42678000  0.24484000  0.99028700  1
  O  O8  1  0.27618500  0.53673600  0.71467700  1
  O  O9  1  0.77615900  0.03675200  0.78533700  1
  O  O10  1  0.28891500  0.96447700  0.71828700  1
  O  O11  1  0.78895100  0.46441400  0.78173500  1
loop_
_geom_bond_atom_site_label_1
_geom_bond_atom_site_label_2
_geom_bond_distance
_geom_bond_site_symmetry_2
La0 O7 2.416484 1_654
La0 O9 2.466838 1_554
La0 O11 2.472722 1_554
La0 O1 2.556615 1_655
La0 O5 2.581294 1_555
La0 O3 2.635188 1_555
La0 O2 2.741546 1_645
La0 O4 2.796888 1_655
La1 O6 2.417242 1_555
La1 O8 2.466745 1_555
La1 O10 2.472152 1_555
La1 O0 2.557215 1_555
La1 O4 2.581402 1_555
La1 O2 2.634553 1_555
La1 O3 2.742798 1_555
La1 O5 2.797102 1_565
Fe0 O8 2.003854 1_555
Fe0 O11 2.024278 1_555
Fe0 O7 2.027069 1_555
Fe0 O0 2.027333 1_556
Fe0 O4 2.035325 1_556
Fe0 O3 2.061594 1_556
Fe1 O9 2.004148 1_565
Fe1 O10 2.024940 1_655
Fe1 O1 2.025992 1_665
Fe1 O6 2.028426 1_555
Fe1 O5 2.034411 1_565
Fe1 O2 2.061344 1_655
O0 W1 1.929191 1_554
O1 W0 1.929682 1_455
O2 W1 1.951796 1_554
O3 W0 1.951530 1_555
O4 W0 1.971894 1_455
O5 W1 1.971830 1_544
O6 W0 1.965897 1_555
O7 W1 1.966311 1_545
O8 W0 1.940789 1_455
O9 W1 1.940582 1_545
O10 W1 1.931854 1_555
O11 W0 1.931891 1_555
