# generated using pymatgen
data_Yb9Mn4Bi9
_symmetry_space_group_name_H-M   'P 1'
_cell_length_a   12.38908000
_cell_length_b   22.25227600
_cell_length_c   4.76245100
_cell_angle_alpha   90.00000000
_cell_angle_beta   90.00000000
_cell_angle_gamma   90.00000000
_symmetry_Int_Tables_number   1
_chemical_formula_structural   Yb9Mn4Bi9
_chemical_formula_sum   'Yb18 Mn8 Bi18'
_cell_volume   1312.93738761
_cell_formula_units_Z   2
loop_
 _symmetry_equiv_pos_site_id
 _symmetry_equiv_pos_as_xyz
  1  'x, y, z'
loop_
 _atom_site_type_symbol
 _atom_site_label
 _atom_site_symmetry_multiplicity
 _atom_site_fract_x
 _atom_site_fract_y
 _atom_site_fract_z
 _atom_site_occupancy
  Yb  Yb0  1  0.50000000  0.50000000  0.50000000  1
  Yb  Yb1  1  0.00000000  0.00000000  0.50000000  1
  Yb  Yb2  1  0.63681400  0.36035900  0.00000000  1
  Yb  Yb3  1  0.36318600  0.63964100  0.00000000  1
  Yb  Yb4  1  0.86318600  0.86035900  0.00000000  1
  Yb  Yb5  1  0.13681400  0.13964100  0.00000000  1
  Yb  Yb6  1  0.93515500  0.40964200  0.00000000  1
  Yb  Yb7  1  0.06484500  0.59035800  0.00000000  1
  Yb  Yb8  1  0.56484500  0.90964200  0.00000000  1
  Yb  Yb9  1  0.43515500  0.09035800  0.00000000  1
  Yb  Yb10  1  0.88062400  0.23547800  0.00000000  1
  Yb  Yb11  1  0.11937600  0.76452200  0.00000000  1
  Yb  Yb12  1  0.61937600  0.73547800  0.00000000  1
  Yb  Yb13  1  0.38062400  0.26452200  0.00000000  1
  Yb  Yb14  1  0.71433600  0.10077900  0.50000000  1
  Yb  Yb15  1  0.28566400  0.89922100  0.50000000  1
  Yb  Yb16  1  0.78566400  0.60077900  0.50000000  1
  Yb  Yb17  1  0.21433600  0.39922100  0.50000000  1
  Mn  Mn0  1  0.77590000  0.45337700  0.50000000  1
  Mn  Mn1  1  0.22410000  0.54662300  0.50000000  1
  Mn  Mn2  1  0.72410000  0.95337700  0.50000000  1
  Mn  Mn3  1  0.27590000  0.04662300  0.50000000  1
  Mn  Mn4  1  0.61386300  0.25869700  0.50000000  1
  Mn  Mn5  1  0.38613700  0.74130300  0.50000000  1
  Mn  Mn6  1  0.88613700  0.75869700  0.50000000  1
  Mn  Mn7  1  0.11386300  0.24130300  0.50000000  1
  Bi  Bi0  1  0.00000000  0.50000000  0.50000000  1
  Bi  Bi1  1  0.50000000  0.00000000  0.50000000  1
  Bi  Bi2  1  0.80504100  0.00519400  0.00000000  1
  Bi  Bi3  1  0.19495900  0.99480600  0.00000000  1
  Bi  Bi4  1  0.69495900  0.50519400  0.00000000  1
  Bi  Bi5  1  0.30504100  0.49480600  0.00000000  1
  Bi  Bi6  1  0.62426800  0.19210100  0.00000000  1
  Bi  Bi7  1  0.37573200  0.80789900  0.00000000  1
  Bi  Bi8  1  0.87573200  0.69210100  0.00000000  1
  Bi  Bi9  1  0.12426800  0.30789900  0.00000000  1
  Bi  Bi10  1  0.96116000  0.14727300  0.50000000  1
  Bi  Bi11  1  0.03884000  0.85272700  0.50000000  1
  Bi  Bi12  1  0.53884000  0.64727300  0.50000000  1
  Bi  Bi13  1  0.46116000  0.35272700  0.50000000  1
  Bi  Bi14  1  0.81503600  0.32936200  0.50000000  1
  Bi  Bi15  1  0.18496400  0.67063800  0.50000000  1
  Bi  Bi16  1  0.68496400  0.82936200  0.50000000  1
  Bi  Bi17  1  0.31503600  0.17063800  0.50000000  1
loop_
_geom_bond_atom_site_label_1
_geom_bond_atom_site_label_2
_geom_bond_distance
_geom_bond_site_symmetry_2
Mn0 Yb6 3.241941 1_556
Mn0 Yb6 3.241941 1_555
Mn0 Yb16 3.282260 1_555
Mn0 Yb0 3.572124 1_555
Mn0 Yb2 3.594969 1_556
Mn0 Yb2 3.594969 1_555
Mn1 Yb7 3.241941 1_555
Mn1 Yb7 3.241941 1_556
Mn1 Yb17 3.282260 1_555
Mn1 Yb0 3.572124 1_555
Mn1 Yb3 3.594969 1_555
Mn1 Yb3 3.594969 1_556
Mn2 Yb8 3.241941 1_555
Mn2 Yb8 3.241941 1_556
Mn2 Yb14 3.282260 1_565
Mn2 Yb1 3.572124 1_665
Mn2 Yb4 3.594969 1_555
Mn2 Yb4 3.594969 1_556
Mn3 Yb9 3.241941 1_555
Mn3 Yb9 3.241941 1_556
Mn3 Yb15 3.282260 1_545
Mn3 Yb1 3.572124 1_555
Mn3 Yb5 3.594969 1_556
Mn3 Yb5 3.594969 1_555
Mn4 Yb2 3.296769 1_556
Mn4 Yb2 3.296769 1_555
Mn5 Yb3 3.296769 1_555
Mn5 Yb3 3.296769 1_556
Mn6 Yb4 3.296769 1_555
Mn6 Yb4 3.296769 1_556
Mn7 Yb5 3.296769 1_556
Mn7 Yb5 3.296769 1_555
Bi0 Mn1 2.963899 1_555
Bi0 Mn0 2.963899 1_455
Bi0 Yb6 3.218453 1_455
Bi0 Yb6 3.218453 1_456
Bi0 Yb7 3.218453 1_556
Bi0 Yb7 3.218453 1_555
Bi0 Yb16 3.475683 1_455
Bi0 Yb17 3.475683 1_555
Bi1 Mn2 2.963899 1_545
Bi1 Mn3 2.963899 1_555
Bi1 Yb9 3.218453 1_555
Bi1 Yb9 3.218453 1_556
Bi1 Yb8 3.218453 1_545
Bi1 Yb8 3.218453 1_546
Bi1 Yb14 3.475683 1_555
Bi1 Yb15 3.475683 1_545
Bi2 Mn2 2.829369 1_545
Bi2 Mn2 2.829369 1_544
Bi2 Yb4 3.302433 1_545
Bi2 Yb14 3.384836 1_555
Bi2 Yb14 3.384836 1_554
Bi2 Yb1 3.393755 1_654
Bi2 Yb1 3.393755 1_655
Bi2 Yb8 3.657372 1_545
Bi3 Mn3 2.829369 1_565
Bi3 Mn3 2.829369 1_564
Bi3 Yb5 3.302433 1_565
Bi3 Yb15 3.384836 1_555
Bi3 Yb15 3.384836 1_554
Bi3 Yb1 3.393755 1_564
Bi3 Yb1 3.393755 1_565
Bi3 Yb9 3.657372 1_565
Bi4 Mn0 2.829369 1_554
Bi4 Mn0 2.829369 1_555
Bi4 Yb2 3.302433 1_555
Bi4 Yb16 3.384836 1_555
Bi4 Yb16 3.384836 1_554
Bi4 Yb0 3.393755 1_555
Bi4 Yb0 3.393755 1_554
Bi4 Yb6 3.657372 1_555
Bi5 Mn1 2.829369 1_554
Bi5 Mn1 2.829369 1_555
Bi5 Yb3 3.302433 1_555
Bi5 Yb17 3.384836 1_554
Bi5 Yb17 3.384836 1_555
Bi5 Yb0 3.393755 1_555
Bi5 Yb0 3.393755 1_554
Bi5 Yb7 3.657372 1_555
Bi6 Mn4 2.807653 1_555
Bi6 Mn4 2.807653 1_554
Bi6 Yb9 3.258083 1_555
Bi6 Yb10 3.319451 1_555
Bi6 Yb14 3.323387 1_554
Bi6 Yb14 3.323387 1_555
Bi6 Yb13 3.421773 1_555
Bi6 Yb2 3.747348 1_555
Bi7 Mn5 2.807653 1_554
Bi7 Mn5 2.807653 1_555
Bi7 Yb8 3.258083 1_555
Bi7 Yb11 3.319451 1_555
Bi7 Yb15 3.323387 1_555
Bi7 Yb15 3.323387 1_554
Bi7 Yb12 3.421773 1_555
Bi7 Yb3 3.747348 1_555
Bi8 Mn6 2.807653 1_555
Bi8 Mn6 2.807653 1_554
Bi8 Yb7 3.258083 1_655
Bi8 Yb12 3.319451 1_555
Bi8 Yb16 3.323387 1_555
Bi8 Yb16 3.323387 1_554
Bi8 Yb11 3.421773 1_655
Bi8 Yb4 3.747348 1_555
Bi9 Mn7 2.807653 1_555
Bi9 Mn7 2.807653 1_554
Bi9 Yb6 3.258083 1_455
Bi9 Yb13 3.319451 1_555
Bi9 Yb17 3.323387 1_555
Bi9 Yb17 3.323387 1_554
Bi9 Yb10 3.421773 1_455
Bi9 Yb5 3.747348 1_555
Bi10 Mn7 2.820843 1_655
Bi10 Yb14 3.228201 1_555
Bi10 Yb5 3.230307 1_656
Bi10 Yb5 3.230307 1_655
Bi10 Yb10 3.243179 1_556
Bi10 Yb10 3.243179 1_555
Bi10 Yb1 3.312298 1_655
Bi11 Mn6 2.820843 1_455
Bi11 Yb15 3.228201 1_555
Bi11 Yb4 3.230307 1_456
Bi11 Yb4 3.230307 1_455
Bi11 Yb11 3.243179 1_555
Bi11 Yb11 3.243179 1_556
Bi11 Yb1 3.312298 1_565
Bi12 Mn5 2.820843 1_555
Bi12 Yb16 3.228201 1_555
Bi12 Yb3 3.230307 1_555
Bi12 Yb3 3.230307 1_556
Bi12 Yb12 3.243179 1_556
Bi12 Yb12 3.243179 1_555
Bi12 Yb0 3.312298 1_555
Bi13 Mn4 2.820843 1_555
Bi13 Yb17 3.228201 1_555
Bi13 Yb2 3.230307 1_556
Bi13 Yb2 3.230307 1_555
Bi13 Yb13 3.243179 1_555
Bi13 Yb13 3.243179 1_556
Bi13 Yb0 3.312298 1_555
Bi14 Mn0 2.801887 1_555
Bi14 Mn4 2.946934 1_555
Bi14 Yb10 3.270319 1_556
Bi14 Yb10 3.270319 1_555
Bi14 Yb2 3.319833 1_556
Bi14 Yb2 3.319833 1_555
Bi14 Yb6 3.328083 1_555
Bi14 Yb6 3.328083 1_556
Bi15 Mn1 2.801887 1_555
Bi15 Mn5 2.946934 1_555
Bi15 Yb11 3.270319 1_555
Bi15 Yb11 3.270319 1_556
Bi15 Yb3 3.319833 1_555
Bi15 Yb3 3.319833 1_556
Bi15 Yb7 3.328083 1_555
Bi15 Yb7 3.328083 1_556
Bi16 Mn2 2.801887 1_555
Bi16 Mn6 2.946934 1_555
Bi16 Yb12 3.270319 1_556
Bi16 Yb12 3.270319 1_555
Bi16 Yb4 3.319833 1_555
Bi16 Yb4 3.319833 1_556
Bi16 Yb8 3.328083 1_556
Bi16 Yb8 3.328083 1_555
Bi17 Mn3 2.801887 1_555
Bi17 Mn7 2.946934 1_555
Bi17 Yb13 3.270319 1_555
Bi17 Yb13 3.270319 1_556
Bi17 Yb5 3.319833 1_556
Bi17 Yb5 3.319833 1_555
Bi17 Yb9 3.328083 1_555
Bi17 Yb9 3.328083 1_556
