# generated using pymatgen
data_CaCO4
_symmetry_space_group_name_H-M   'P 1'
_cell_length_a   11.18607378
_cell_length_b   11.18607378
_cell_length_c   8.00002100
_cell_angle_alpha   90.00000000
_cell_angle_beta   90.00000000
_cell_angle_gamma   119.99999871
_symmetry_Int_Tables_number   1
_chemical_formula_structural   CaCO4
_chemical_formula_sum   'Ca9 C9 O36'
_cell_volume   866.91620952
_cell_formula_units_Z   9
loop_
 _symmetry_equiv_pos_site_id
 _symmetry_equiv_pos_as_xyz
  1  'x, y, z'
loop_
 _atom_site_type_symbol
 _atom_site_label
 _atom_site_symmetry_multiplicity
 _atom_site_fract_x
 _atom_site_fract_y
 _atom_site_fract_z
 _atom_site_occupancy
  Ca  Ca0  1  0.89459900  0.78549100  0.70528100  1
  Ca  Ca1  1  0.21450900  0.10910800  0.03861400  1
  Ca  Ca2  1  0.89089200  0.10540100  0.37194800  1
  Ca  Ca3  1  0.54874500  0.76628700  0.07546600  1
  Ca  Ca4  1  0.23371300  0.78245800  0.40880000  1
  Ca  Ca5  1  0.21754200  0.45125500  0.74213300  1
  Ca  Ca6  1  0.56344800  0.11808800  0.73962200  1
  Ca  Ca7  1  0.88191200  0.44536000  0.07295500  1
  Ca  Ca8  1  0.55464000  0.43655200  0.40628800  1
  C  C0  1  0.83481800  0.93126000  0.02271700  1
  C  C1  1  0.06874000  0.90355800  0.35605100  1
  C  C2  1  0.09644200  0.16518200  0.68938400  1
  C  C3  1  0.39910400  0.82972800  0.76367300  1
  C  C4  1  0.17027200  0.56937600  0.09700700  1
  C  C5  1  0.43062400  0.60089600  0.43034000  1
  C  C6  1  0.50259800  0.23893400  0.08039900  1
  C  C7  1  0.76106600  0.26366500  0.41373300  1
  C  C8  1  0.73633500  0.49740200  0.74706600  1
  O  O0  1  0.31457900  0.69793000  0.78917500  1
  O  O1  1  0.30207000  0.61664900  0.12250900  1
  O  O2  1  0.38335100  0.68542100  0.45584200  1
  O  O3  1  0.43020200  0.84479200  0.24444800  1
  O  O4  1  0.15520800  0.58541100  0.57778100  1
  O  O5  1  0.41458900  0.56979800  0.91111400  1
  O  O6  1  0.65344900  0.36614600  0.77313500  1
  O  O7  1  0.63385400  0.28730400  0.10646800  1
  O  O8  1  0.71269600  0.34655100  0.43980100  1
  O  O9  1  0.51075000  0.89137500  0.85189300  1
  O  O10  1  0.10862500  0.61937500  0.18522600  1
  O  O11  1  0.38062500  0.48925000  0.51855900  1
  O  O12  1  0.77049400  0.81882400  0.93644700  1
  O  O13  1  0.18117600  0.95167000  0.26978100  1
  O  O14  1  0.04833000  0.22950600  0.60311400  1
  O  O15  1  0.77157600  0.96340100  0.13321300  1
  O  O16  1  0.03659900  0.80817500  0.46654600  1
  O  O17  1  0.19182500  0.22842400  0.79987900  1
  O  O18  1  0.43746300  0.28469700  0.16847500  1
  O  O19  1  0.71530300  0.15276500  0.50180800  1
  O  O20  1  0.84723500  0.56253700  0.83514200  1
  O  O21  1  0.09416200  0.91629600  0.86448200  1
  O  O22  1  0.08370400  0.17786600  0.19781500  1
  O  O23  1  0.82213400  0.90583800  0.53114800  1
  O  O24  1  0.43910300  0.14279100  0.97122200  1
  O  O25  1  0.85720900  0.29631200  0.30455500  1
  O  O26  1  0.70368800  0.56089700  0.63788800  1
  O  O27  1  0.76453300  0.25444800  0.89403000  1
  O  O28  1  0.74555200  0.51008500  0.22736400  1
  O  O29  1  0.48991500  0.23546700  0.56069700  1
  O  O30  1  0.96604600  0.01554100  0.99192600  1
  O  O31  1  0.98445900  0.95050500  0.32525900  1
  O  O32  1  0.04949500  0.03395400  0.65859200  1
  O  O33  1  0.36811600  0.89642100  0.65659600  1
  O  O34  1  0.10357900  0.47169500  0.98992900  1
  O  O35  1  0.52830500  0.63188400  0.32326300  1
loop_
_geom_bond_atom_site_label_1
_geom_bond_atom_site_label_2
_geom_bond_distance
_geom_bond_site_symmetry_2
Ca0 O21 2.340935 1_655
Ca0 O23 2.345469 1_555
Ca0 O26 2.407867 1_555
Ca0 O16 2.414970 1_655
Ca0 O12 2.450290 1_555
Ca0 O32 2.459809 1_665
Ca0 O20 2.501716 1_555
Ca1 O22 2.340935 1_555
Ca1 O21 2.345465 1_544
Ca1 O24 2.407865 1_554
Ca1 O17 2.414970 1_554
Ca1 O13 2.450296 1_545
Ca1 O30 2.459808 1_454
Ca1 O18 2.501713 1_555
Ca2 O23 2.340931 1_545
Ca2 O22 2.345469 1_655
Ca2 O25 2.407867 1_555
Ca2 O15 2.414970 1_545
Ca2 O14 2.450290 1_655
Ca2 O31 2.459809 1_545
Ca2 O19 2.501703 1_555
Ca3 O5 2.348047 1_554
Ca3 O3 2.349792 1_555
Ca3 O15 2.406699 1_555
Ca3 O35 2.428724 1_555
Ca3 O9 2.435625 1_554
Ca3 O1 2.436923 1_555
Ca3 O12 2.505473 1_554
Ca4 O3 2.348046 1_555
Ca4 O4 2.349779 1_555
Ca4 O16 2.406697 1_555
Ca4 O33 2.428717 1_555
Ca4 O10 2.435631 1_555
Ca4 O2 2.436922 1_555
Ca4 O13 2.505473 1_555
Ca5 O4 2.348054 1_555
Ca5 O5 2.349780 1_555
Ca5 O17 2.406697 1_555
Ca5 O34 2.428717 1_555
Ca5 O11 2.435631 1_555
Ca5 O0 2.436922 1_555
Ca5 O14 2.505473 1_555
Ca6 O27 2.341175 1_555
Ca6 O29 2.351490 1_555
Ca6 O24 2.414186 1_555
Ca6 O33 2.438409 1_545
Ca6 O6 2.447730 1_555
Ca6 O19 2.448791 1_555
Ca6 O9 2.467933 1_545
Ca7 O28 2.341179 1_555
Ca7 O27 2.351490 1_554
Ca7 O25 2.414186 1_555
Ca7 O34 2.438409 1_654
Ca7 O7 2.447728 1_555
Ca7 O20 2.448778 1_554
Ca7 O10 2.467933 1_655
Ca8 O29 2.341179 1_555
Ca8 O28 2.351485 1_555
Ca8 O26 2.414186 1_555
Ca8 O35 2.438407 1_555
Ca8 O8 2.447720 1_555
Ca8 O18 2.448783 1_555
Ca8 O11 2.467933 1_555
C0 O15 1.290530 1_555
C0 O12 1.292646 1_554
C0 O30 1.311634 1_564
C1 O16 1.290524 1_555
C1 O13 1.292646 1_555
C1 O31 1.311636 1_455
C2 O17 1.290524 1_555
C2 O14 1.292646 1_555
C2 O32 1.311636 1_555
C3 O33 1.291942 1_555
C3 O9 1.293105 1_555
C3 O0 1.309660 1_555
C4 O34 1.291948 1_554
C4 O10 1.293101 1_555
C4 O1 1.309660 1_555
C5 O35 1.291942 1_555
C5 O11 1.293101 1_555
C5 O2 1.309660 1_555
C6 O24 1.288445 1_554
C6 O18 1.289329 1_555
C6 O7 1.302903 1_555
C7 O25 1.288452 1_555
C7 O19 1.289342 1_555
C7 O8 1.302902 1_555
C8 O26 1.288444 1_555
C8 O20 1.289344 1_555
C8 O6 1.302903 1_555
