# generated using pymatgen
data_TeMoSe
_symmetry_space_group_name_H-M   'P 1'
_cell_length_a   3.43926041
_cell_length_b   3.43926041
_cell_length_c   14.24481100
_cell_angle_alpha   90.00000000
_cell_angle_beta   90.00000000
_cell_angle_gamma   120.00000783
_symmetry_Int_Tables_number   1
_chemical_formula_structural   TeMoSe
_chemical_formula_sum   'Te2 Mo2 Se2'
_cell_volume   145.92086956
_cell_formula_units_Z   2
loop_
 _symmetry_equiv_pos_site_id
 _symmetry_equiv_pos_as_xyz
  1  'x, y, z'
loop_
 _atom_site_type_symbol
 _atom_site_label
 _atom_site_symmetry_multiplicity
 _atom_site_fract_x
 _atom_site_fract_y
 _atom_site_fract_z
 _atom_site_occupancy
  Te  Te0  1  0.33333300  0.66666700  0.87475400  1
  Te  Te1  1  0.66666700  0.33333300  0.12524600  1
  Mo  Mo0  1  0.33333300  0.66666700  0.25625400  1
  Mo  Mo1  1  0.66666700  0.33333300  0.74374600  1
  Se  Se0  1  0.66666700  0.33333300  0.36983600  1
  Se  Se1  1  0.33333300  0.66666700  0.63016400  1
loop_
_geom_bond_atom_site_label_1
_geom_bond_atom_site_label_2
_geom_bond_distance
_geom_bond_site_symmetry_2
Mo0 Se0 2.561368 1_455
Mo0 Se0 2.561368 1_565
Mo0 Se0 2.561372 1_555
Mo0 Te1 2.724972 1_455
Mo0 Te1 2.724972 1_565
Mo0 Te1 2.724977 1_555
Mo1 Se1 2.561368 1_545
Mo1 Se1 2.561368 1_655
Mo1 Se1 2.561372 1_555
Mo1 Te0 2.724972 1_545
Mo1 Te0 2.724972 1_655
Mo1 Te0 2.724977 1_555
