# generated using pymatgen
data_Li2Fe3WO8
_symmetry_space_group_name_H-M   'P 1'
_cell_length_a   5.93299073
_cell_length_b   5.93299073
_cell_length_c   9.61106342
_cell_angle_alpha   89.06892987
_cell_angle_beta   89.06892987
_cell_angle_gamma   119.70823633
_symmetry_Int_Tables_number   1
_chemical_formula_structural   Li2Fe3WO8
_chemical_formula_sum   'Li4 Fe6 W2 O16'
_cell_volume   293.69144086
_cell_formula_units_Z   2
loop_
 _symmetry_equiv_pos_site_id
 _symmetry_equiv_pos_as_xyz
  1  'x, y, z'
loop_
 _atom_site_type_symbol
 _atom_site_label
 _atom_site_symmetry_multiplicity
 _atom_site_fract_x
 _atom_site_fract_y
 _atom_site_fract_z
 _atom_site_occupancy
  Li  Li0  1  0.67299200  0.34020100  0.90568500  1
  Li  Li1  1  0.99278500  0.99240800  0.99050900  1
  Li  Li2  1  0.99240800  0.99278500  0.49050900  1
  Li  Li3  1  0.34020100  0.67299200  0.40568500  1
  Fe  Fe0  1  0.33642200  0.16793300  0.21458500  1
  Fe  Fe1  1  0.82689800  0.65858900  0.21491800  1
  Fe  Fe2  1  0.82562100  0.16884900  0.21434700  1
  Fe  Fe3  1  0.16884900  0.82562100  0.71434700  1
  Fe  Fe4  1  0.16793300  0.33642200  0.71458500  1
  Fe  Fe5  1  0.65858900  0.82689800  0.71491800  1
  W  W0  1  0.66981800  0.33113900  0.48757200  1
  W  W1  1  0.33113900  0.66981800  0.98757200  1
  O  O0  1  0.34030700  0.15309400  0.58153300  1
  O  O1  1  0.53936000  0.49864400  0.35347800  1
  O  O2  1  0.68442800  0.34696400  0.11401000  1
  O  O3  1  0.98021500  0.98811500  0.30008700  1
  O  O4  1  0.98811500  0.98021500  0.80008700  1
  O  O5  1  0.83182800  0.64808900  0.59454000  1
  O  O6  1  0.54212000  0.04271500  0.35023200  1
  O  O7  1  0.96522200  0.47868800  0.34272200  1
  O  O8  1  0.15838500  0.81785400  0.08970200  1
  O  O9  1  0.81785400  0.15838500  0.58970200  1
  O  O10  1  0.04271500  0.54212000  0.85023200  1
  O  O11  1  0.47868800  0.96522200  0.84272200  1
  O  O12  1  0.34696400  0.68442800  0.61401000  1
  O  O13  1  0.15309400  0.34030700  0.08153300  1
  O  O14  1  0.49864400  0.53936000  0.85347800  1
  O  O15  1  0.64808900  0.83182800  0.09454000  1
loop_
_geom_bond_atom_site_label_1
_geom_bond_atom_site_label_2
_geom_bond_distance
_geom_bond_site_symmetry_2
Li0 O10 1.966608 1_655
Li0 O14 1.981672 1_555
Li0 O2 2.004855 1_556
Li0 O11 2.041821 1_545
Li1 O4 1.832878 1_555
Li1 O8 1.988363 1_656
Li1 O15 2.015224 1_556
Li1 O13 2.017494 1_666
Li2 O3 1.832878 1_555
Li2 O9 1.988363 1_565
Li2 O5 2.015224 1_555
Li2 O0 2.017494 1_665
Li3 O6 1.966608 1_565
Li3 O1 1.981672 1_555
Li3 O12 2.004855 1_555
Li3 O7 2.041821 1_455
Fe0 O3 1.990011 1_445
Fe0 O2 2.013380 1_555
Fe0 O6 2.158671 1_555
Fe0 O8 2.195002 1_545
Fe0 O1 2.208465 1_555
Fe0 O13 2.229227 1_555
Fe1 O2 1.899815 1_555
Fe1 O3 1.906126 1_555
Fe1 O1 1.965905 1_555
Fe1 O7 2.044483 1_555
Fe1 O8 2.062350 1_655
Fe1 O15 2.145329 1_555
Fe2 O2 1.902363 1_555
Fe2 O3 1.908091 1_545
Fe2 O6 1.934954 1_555
Fe2 O7 2.045819 1_555
Fe2 O13 2.087414 1_655
Fe2 O15 2.111925 1_545
Fe3 O12 1.902363 1_555
Fe3 O4 1.908091 1_455
Fe3 O10 1.934954 1_555
Fe3 O11 2.045819 1_555
Fe3 O0 2.087414 1_565
Fe3 O5 2.111925 1_455
Fe4 O4 1.990011 1_445
Fe4 O12 2.013380 1_555
Fe4 O10 2.158671 1_555
Fe4 O9 2.195002 1_455
Fe4 O14 2.208465 1_555
Fe4 O0 2.229227 1_555
Fe5 O12 1.899815 1_555
Fe5 O4 1.906126 1_555
Fe5 O14 1.965905 1_555
Fe5 O11 2.044483 1_555
Fe5 O9 2.062350 1_565
Fe5 O5 2.145329 1_555
O0 W0 1.902126 1_555
O1 W0 2.000229 1_555
O5 W0 1.954582 1_555
O6 W0 2.016312 1_555
O7 W0 2.033851 1_555
O8 W1 1.916506 1_554
O9 W0 1.916506 1_555
O10 W1 2.016312 1_555
O11 W1 2.033851 1_555
O13 W1 1.902126 1_554
O14 W1 2.000229 1_555
O15 W1 1.954582 1_554
