# generated using pymatgen
data_CaFe(GeO3)4
_symmetry_space_group_name_H-M   'P 1'
_cell_length_a   5.24663174
_cell_length_b   5.24663174
_cell_length_c   7.43841564
_cell_angle_alpha   90.00000000
_cell_angle_beta   90.00000000
_cell_angle_gamma   83.50457720
_symmetry_Int_Tables_number   1
_chemical_formula_structural   CaFe(GeO3)4
_chemical_formula_sum   'Ca1 Fe1 Ge4 O12'
_cell_volume   203.44397770
_cell_formula_units_Z   1
loop_
 _symmetry_equiv_pos_site_id
 _symmetry_equiv_pos_as_xyz
  1  'x, y, z'
loop_
 _atom_site_type_symbol
 _atom_site_label
 _atom_site_symmetry_multiplicity
 _atom_site_fract_x
 _atom_site_fract_y
 _atom_site_fract_z
 _atom_site_occupancy
  Ca  Ca0  1  0.56178756  0.43821244  0.50000000  1
  Fe  Fe0  1  0.93089530  0.06910470  0.00000000  1
  Ge  Ge0  1  0.46976280  0.97657548  0.24536163  1
  Ge  Ge1  1  0.46976280  0.97657548  0.75463837  1
  Ge  Ge2  1  0.02342452  0.53023720  0.75463837  1
  Ge  Ge3  1  0.02342452  0.53023720  0.24536163  1
  O  O0  1  0.32236586  0.31120969  0.26025447  1
  O  O1  1  0.68879031  0.67763414  0.26025447  1
  O  O2  1  0.68879031  0.67763414  0.73974553  1
  O  O3  1  0.32236586  0.31120969  0.73974553  1
  O  O4  1  0.16230518  0.83769482  0.18564726  1
  O  O5  1  0.80980622  0.19019378  0.26057705  1
  O  O6  1  0.80980622  0.19019378  0.73942295  1
  O  O7  1  0.16230518  0.83769482  0.81435274  1
  O  O8  1  0.57121833  0.00402733  -0.00000000  1
  O  O9  1  0.45208250  0.95666616  0.50000000  1
  O  O10  1  0.99597267  0.42878167  -0.00000000  1
  O  O11  1  0.04333384  0.54791750  0.50000000  1
loop_
_geom_bond_atom_site_label_1
_geom_bond_atom_site_label_2
_geom_bond_distance
_geom_bond_site_symmetry_2
Ca0 O3 2.321975 1_555
Ca0 O1 2.321975 1_555
Ca0 O0 2.321975 1_555
Ca0 O2 2.321975 1_555
Ca0 O5 2.484989 1_555
Ca0 O6 2.484989 1_555
Ca0 O11 2.653957 1_655
Ca0 O9 2.653957 1_545
Ca0 O11 2.715917 1_555
Ca0 O9 2.715917 1_555
Fe0 O8 1.955371 1_555
Fe0 O10 1.955371 1_555
Fe0 O6 2.114911 1_554
Fe0 O5 2.114911 1_555
Fe0 O7 2.126410 1_644
Fe0 O4 2.126410 1_645
Ge0 O1 1.839847 1_555
Ge0 O0 1.840007 1_565
Ge0 O4 1.896395 1_555
Ge0 O9 1.899828 1_555
Ge0 O8 1.911133 1_565
Ge0 O5 2.214564 1_565
Ge1 O2 1.839847 1_555
Ge1 O3 1.840007 1_565
Ge1 O7 1.896395 1_555
Ge1 O9 1.899828 1_555
Ge1 O8 1.911133 1_566
Ge1 O6 2.214564 1_565
Ge2 O3 1.839847 1_555
Ge2 O2 1.840007 1_455
Ge2 O7 1.896395 1_555
Ge2 O11 1.899828 1_555
Ge2 O10 1.911133 1_456
Ge2 O6 2.214564 1_455
Ge3 O0 1.839847 1_555
Ge3 O1 1.840007 1_455
Ge3 O4 1.896395 1_555
Ge3 O11 1.899828 1_555
Ge3 O10 1.911133 1_455
Ge3 O5 2.214564 1_455
