# generated using pymatgen
data_SrCa(FeO3)4
_symmetry_space_group_name_H-M   'P 1'
_cell_length_a   5.40908150
_cell_length_b   5.40908150
_cell_length_c   7.69032987
_cell_angle_alpha   90.00000000
_cell_angle_beta   90.00000000
_cell_angle_gamma   90.00000000
_symmetry_Int_Tables_number   1
_chemical_formula_structural   SrCa(FeO3)4
_chemical_formula_sum   'Sr1 Ca1 Fe4 O12'
_cell_volume   225.00492235
_cell_formula_units_Z   1
loop_
 _symmetry_equiv_pos_site_id
 _symmetry_equiv_pos_as_xyz
  1  'x, y, z'
loop_
 _atom_site_type_symbol
 _atom_site_label
 _atom_site_symmetry_multiplicity
 _atom_site_fract_x
 _atom_site_fract_y
 _atom_site_fract_z
 _atom_site_occupancy
  Sr  Sr0  1  0.00000000  0.00000000  0.50000000  1
  Ca  Ca0  1  0.50000000  0.50000000  0.00000000  1
  Fe  Fe0  1  0.00000000  0.50000000  0.75090931  1
  Fe  Fe1  1  -0.00000000  0.50000000  0.24909069  1
  Fe  Fe2  1  0.50000000  0.00000000  0.24909069  1
  Fe  Fe3  1  0.50000000  -0.00000000  0.75090931  1
  O  O0  1  0.25262730  0.25262730  0.24679997  1
  O  O1  1  0.25262730  0.25262730  0.75320003  1
  O  O2  1  0.74737270  0.74737270  0.75320003  1
  O  O3  1  0.74737270  0.74737270  0.24679997  1
  O  O4  1  0.74737270  0.25262730  0.75320003  1
  O  O5  1  0.74737270  0.25262730  0.24679997  1
  O  O6  1  0.25262730  0.74737270  0.75320003  1
  O  O7  1  0.25262730  0.74737270  0.24679997  1
  O  O8  1  0.00000000  0.50000000  0.50000000  1
  O  O9  1  -0.00000000  0.50000000  -0.00000000  1
  O  O10  1  0.50000000  -0.00000000  0.50000000  1
  O  O11  1  0.50000000  0.00000000  -0.00000000  1
loop_
_geom_bond_atom_site_label_1
_geom_bond_atom_site_label_2
_geom_bond_distance
_geom_bond_site_symmetry_2
Ca0 O4 2.680132 1_554
Ca0 O6 2.680132 1_554
Ca0 O1 2.680132 1_554
Ca0 O2 2.680132 1_554
Ca0 O7 2.680132 1_555
Ca0 O0 2.680132 1_555
Ca0 O5 2.680132 1_555
Ca0 O3 2.680132 1_555
Ca0 O11 2.704541 1_555
Ca0 O11 2.704541 1_565
Ca0 O9 2.704541 1_555
Ca0 O9 2.704541 1_655
Fe0 O6 1.912586 1_555
Fe0 O4 1.912586 1_455
Fe0 O1 1.912586 1_555
Fe0 O2 1.912586 1_455
Fe0 O9 1.915590 1_556
Fe0 O8 1.929575 1_555
Fe1 O3 1.912586 1_455
Fe1 O5 1.912586 1_455
Fe1 O7 1.912586 1_555
Fe1 O0 1.912586 1_555
Fe1 O9 1.915590 1_555
Fe1 O8 1.929575 1_555
Fe2 O7 1.912586 1_545
Fe2 O3 1.912586 1_545
Fe2 O0 1.912586 1_555
Fe2 O5 1.912586 1_555
Fe2 O11 1.915590 1_555
Fe2 O10 1.929575 1_555
Fe3 O2 1.912586 1_545
Fe3 O1 1.912586 1_555
Fe3 O4 1.912586 1_555
Fe3 O6 1.912586 1_545
Fe3 O11 1.915590 1_556
Fe3 O10 1.929575 1_555
O0 Sr0 2.743374 1_555
O1 Sr0 2.743374 1_555
O2 Sr0 2.743374 1_665
O3 Sr0 2.743374 1_665
O4 Sr0 2.743374 1_655
O5 Sr0 2.743374 1_655
O6 Sr0 2.743374 1_565
O7 Sr0 2.743374 1_565
O8 Sr0 2.704541 1_555
O8 Sr0 2.704541 1_565
O10 Sr0 2.704541 1_555
O10 Sr0 2.704541 1_655
