# generated using pymatgen
data_ReN2
_symmetry_space_group_name_H-M   'P 1'
_cell_length_a   4.96552800
_cell_length_b   4.96552800
_cell_length_c   4.96552800
_cell_angle_alpha   90.00000000
_cell_angle_beta   90.00000000
_cell_angle_gamma   90.00000000
_symmetry_Int_Tables_number   1
_chemical_formula_structural   ReN2
_chemical_formula_sum   'Re4 N8'
_cell_volume   122.43238382
_cell_formula_units_Z   4
loop_
 _symmetry_equiv_pos_site_id
 _symmetry_equiv_pos_as_xyz
  1  'x, y, z'
loop_
 _atom_site_type_symbol
 _atom_site_label
 _atom_site_symmetry_multiplicity
 _atom_site_fract_x
 _atom_site_fract_y
 _atom_site_fract_z
 _atom_site_occupancy
  Re  Re0  1  0.50000000  0.50000000  0.00000000  1
  Re  Re1  1  0.50000000  0.00000000  0.50000000  1
  Re  Re2  1  0.00000000  0.50000000  0.50000000  1
  Re  Re3  1  0.00000000  0.00000000  0.00000000  1
  N  N0  1  0.14435900  0.85564100  0.35564100  1
  N  N1  1  0.85564100  0.35564100  0.14435900  1
  N  N2  1  0.35564100  0.14435900  0.85564100  1
  N  N3  1  0.64435900  0.64435900  0.64435900  1
  N  N4  1  0.85564100  0.14435900  0.64435900  1
  N  N5  1  0.14435900  0.64435900  0.85564100  1
  N  N6  1  0.64435900  0.85564100  0.14435900  1
  N  N7  1  0.35564100  0.35564100  0.35564100  1
loop_
_geom_bond_atom_site_label_1
_geom_bond_atom_site_label_2
_geom_bond_distance
_geom_bond_site_symmetry_2
N0 Re2 2.036227 1_555
N0 Re3 2.036227 1_565
N0 Re1 2.036227 1_565
N1 Re3 2.036227 1_655
N1 Re0 2.036227 1_555
N1 Re2 2.036227 1_655
N2 Re1 2.036227 1_555
N2 Re3 2.036227 1_556
N2 Re0 2.036227 1_556
N3 Re0 2.036227 1_556
N3 Re1 2.036227 1_565
N3 Re2 2.036227 1_655
N4 Re1 2.036227 1_555
N4 Re3 2.036227 1_656
N4 Re2 2.036227 1_655
N5 Re2 2.036227 1_555
N5 Re3 2.036227 1_566
N5 Re0 2.036227 1_556
N6 Re0 2.036227 1_555
N6 Re3 2.036227 1_665
N6 Re1 2.036227 1_565
N7 Re2 2.036227 1_555
N7 Re0 2.036227 1_555
N7 Re1 2.036227 1_555
