# generated using pymatgen
data_K4Li(CO3)2
_symmetry_space_group_name_H-M   'P 1'
_cell_length_a   6.09465400
_cell_length_b   6.56033813
_cell_length_c   8.06030836
_cell_angle_alpha   77.24310855
_cell_angle_beta   90.00000000
_cell_angle_gamma   117.67837008
_symmetry_Int_Tables_number   1
_chemical_formula_structural   K4Li(CO3)2
_chemical_formula_sum   'K4 Li1 C2 O6'
_cell_volume   276.38242074
_cell_formula_units_Z   1
loop_
 _symmetry_equiv_pos_site_id
 _symmetry_equiv_pos_as_xyz
  1  'x, y, z'
loop_
 _atom_site_type_symbol
 _atom_site_label
 _atom_site_symmetry_multiplicity
 _atom_site_fract_x
 _atom_site_fract_y
 _atom_site_fract_z
 _atom_site_occupancy
  K  K0  1  0.72083500  0.44166900  0.82916600  1
  K  K1  1  0.27916500  0.55833000  0.17083400  1
  K  K2  1  0.00000000  0.00000000  0.50000000  1
  K  K3  1  0.00000000  0.00000000  0.00000000  1
  Li  Li0  1  0.50000000  0.00000000  0.50000000  1
  C  C0  1  0.32651800  0.65303700  0.73048700  1
  C  C1  1  0.67348200  0.34696300  0.26951300  1
  O  O0  1  0.56122900  0.75548100  0.66663500  1
  O  O1  1  0.43877100  0.24451900  0.33336500  1
  O  O2  1  0.77016600  0.54033300  0.14805700  1
  O  O3  1  0.19425200  0.75548100  0.66663500  1
  O  O4  1  0.22983400  0.45966700  0.85194300  1
  O  O5  1  0.80574800  0.24451900  0.33336500  1
loop_
_geom_bond_atom_site_label_1
_geom_bond_atom_site_label_2
_geom_bond_distance
_geom_bond_site_symmetry_2
K0 O3 2.751381 1_655
K0 O0 2.751386 1_555
K0 O2 2.769486 1_556
K0 O4 3.056209 1_655
K0 O4 3.056209 1_555
K1 O5 2.751380 1_455
K1 O1 2.751380 1_555
K1 O4 2.769484 1_554
K1 O2 3.056206 1_555
K1 O2 3.056212 1_455
K2 O1 2.567419 1_555
K2 O0 2.567419 1_445
K2 O3 2.567419 1_545
K2 O5 2.567419 1_455
K3 O2 2.639396 1_445
K3 O4 2.639396 1_554
Li0 O5 2.030045 1_555
Li0 O3 2.030045 1_545
Li0 O0 2.030045 1_545
Li0 O1 2.030045 1_555
C0 O4 1.293049 1_555
C0 O3 1.310317 1_555
C0 O0 1.310322 1_555
C1 O2 1.293049 1_555
C1 O5 1.310317 1_555
C1 O1 1.310322 1_555
