# generated using pymatgen
data_Tm4CrSe7
_symmetry_space_group_name_H-M   'P 1'
_cell_length_a   6.75965835
_cell_length_b   6.75965835
_cell_length_c   11.86938647
_cell_angle_alpha   75.27301885
_cell_angle_beta   75.27301885
_cell_angle_gamma   33.72363658
_symmetry_Int_Tables_number   1
_chemical_formula_structural   Tm4CrSe7
_chemical_formula_sum   'Tm4 Cr1 Se7'
_cell_volume   290.28720181
_cell_formula_units_Z   1
loop_
 _symmetry_equiv_pos_site_id
 _symmetry_equiv_pos_as_xyz
  1  'x, y, z'
loop_
 _atom_site_type_symbol
 _atom_site_label
 _atom_site_symmetry_multiplicity
 _atom_site_fract_x
 _atom_site_fract_y
 _atom_site_fract_z
 _atom_site_occupancy
  Tm  Tm0  1  0.69427600  0.69427600  0.20568600  1
  Tm  Tm1  1  0.30627500  0.30627500  0.80299400  1
  Tm  Tm2  1  0.99847200  0.99847200  0.00699000  1
  Tm  Tm3  1  0.11321100  0.11321100  0.56389700  1
  Cr  Cr0  1  0.88506500  0.88506500  0.42429300  1
  Se  Se0  1  0.74641700  0.74641700  0.63558100  1
  Se  Se1  1  0.27037000  0.27037000  0.35253800  1
  Se  Se2  1  0.33656800  0.33656800  0.05070100  1
  Se  Se3  1  0.65945700  0.65945700  0.94928500  1
  Se  Se4  1  0.03235300  0.03235300  0.22850900  1
  Se  Se5  1  0.96396100  0.96396100  0.78485500  1
  Se  Se6  1  0.49357700  0.49357700  0.49467100  1
loop_
_geom_bond_atom_site_label_1
_geom_bond_atom_site_label_2
_geom_bond_distance
_geom_bond_site_symmetry_2
Cr0 Se4 2.584371 1_665
Cr0 Se0 2.667809 1_555
Cr0 Se6 2.671401 1_565
Cr0 Se6 2.671401 1_655
Cr0 Se1 2.728252 1_565
Cr0 Se1 2.728252 1_655
Se0 Tm3 2.884038 1_565
Se0 Tm3 2.884038 1_655
Se0 Tm1 3.034856 1_565
Se0 Tm1 3.034856 1_655
Se1 Tm3 2.778134 1_555
Se1 Tm0 2.960343 1_545
Se1 Tm0 2.960343 1_455
Se2 Tm2 2.814990 1_455
Se2 Tm2 2.814990 1_545
Se2 Tm0 2.969605 1_455
Se2 Tm0 2.969605 1_545
Se2 Tm1 3.067601 1_554
Se3 Tm2 2.809612 1_456
Se3 Tm2 2.809612 1_546
Se3 Tm1 2.952200 1_565
Se3 Tm1 2.952200 1_655
Se3 Tm0 3.192666 1_556
Se4 Tm2 2.778069 1_445
Se4 Tm0 2.829361 1_545
Se4 Tm0 2.829361 1_455
Se5 Tm2 2.788638 1_556
Se5 Tm1 2.796376 1_565
Se5 Tm1 2.796376 1_655
Se5 Tm3 2.813627 1_665
Se6 Tm3 2.755194 1_655
Se6 Tm3 2.755194 1_565
