# generated using pymatgen
data_Lu5(In2Pt)2
_symmetry_space_group_name_H-M   'P 1'
_cell_length_a   7.15313212
_cell_length_b   15.77845872
_cell_length_c   35.65369810
_cell_angle_alpha   90.00000000
_cell_angle_beta   90.00000000
_cell_angle_gamma   90.00000000
_symmetry_Int_Tables_number   1
_chemical_formula_structural   Lu5(In2Pt)2
_chemical_formula_sum   'Lu80 In64 Pt32'
_cell_volume   4024.06889305
_cell_formula_units_Z   16
loop_
 _symmetry_equiv_pos_site_id
 _symmetry_equiv_pos_as_xyz
  1  'x, y, z'
loop_
 _atom_site_type_symbol
 _atom_site_label
 _atom_site_symmetry_multiplicity
 _atom_site_fract_x
 _atom_site_fract_y
 _atom_site_fract_z
 _atom_site_occupancy
  Lu  Lu0_0  1  0.00000000  0.05750228  0.20765191  1
  Lu  Lu0_1  1  0.00000000  0.05750228  0.70765191  1
  Lu  Lu0_2  1  0.00000000  0.55750228  0.20765191  1
  Lu  Lu0_3  1  0.00000000  0.55750228  0.70765191  1
  Lu  Lu0_4  1  0.50000000  0.05750228  0.20765191  1
  Lu  Lu0_5  1  0.50000000  0.05750228  0.70765191  1
  Lu  Lu0_6  1  0.50000000  0.55750228  0.20765191  1
  Lu  Lu0_7  1  0.50000000  0.55750228  0.70765191  1
  Lu  Lu1_0  1  0.00000000  0.44249772  0.29234809  1
  Lu  Lu1_1  1  0.00000000  0.44249772  0.79234809  1
  Lu  Lu1_2  1  0.00000000  0.94249772  0.29234809  1
  Lu  Lu1_3  1  0.00000000  0.94249772  0.79234809  1
  Lu  Lu1_4  1  0.50000000  0.44249772  0.29234809  1
  Lu  Lu1_5  1  0.50000000  0.44249772  0.79234809  1
  Lu  Lu1_6  1  0.50000000  0.94249772  0.29234809  1
  Lu  Lu1_7  1  0.50000000  0.94249772  0.79234809  1
  Lu  Lu2_0  1  0.00000000  0.19249772  0.45765191  1
  Lu  Lu2_1  1  0.00000000  0.19249772  0.95765191  1
  Lu  Lu2_2  1  0.00000000  0.69249772  0.45765191  1
  Lu  Lu2_3  1  0.00000000  0.69249772  0.95765191  1
  Lu  Lu2_4  1  0.50000000  0.19249772  0.45765191  1
  Lu  Lu2_5  1  0.50000000  0.19249772  0.95765191  1
  Lu  Lu2_6  1  0.50000000  0.69249772  0.45765191  1
  Lu  Lu2_7  1  0.50000000  0.69249772  0.95765191  1
  Lu  Lu3_0  1  0.00000000  0.30750228  0.04234809  1
  Lu  Lu3_1  1  0.00000000  0.30750228  0.54234809  1
  Lu  Lu3_2  1  0.00000000  0.80750228  0.04234809  1
  Lu  Lu3_3  1  0.00000000  0.80750228  0.54234809  1
  Lu  Lu3_4  1  0.50000000  0.30750228  0.04234809  1
  Lu  Lu3_5  1  0.50000000  0.30750228  0.54234809  1
  Lu  Lu3_6  1  0.50000000  0.80750228  0.04234809  1
  Lu  Lu3_7  1  0.50000000  0.80750228  0.54234809  1
  Lu  Lu4_0  1  0.00000000  0.12251293  0.11054762  1
  Lu  Lu4_1  1  0.00000000  0.12251293  0.61054762  1
  Lu  Lu4_2  1  0.00000000  0.62251293  0.11054762  1
  Lu  Lu4_3  1  0.00000000  0.62251293  0.61054762  1
  Lu  Lu4_4  1  0.50000000  0.12251293  0.11054762  1
  Lu  Lu4_5  1  0.50000000  0.12251293  0.61054762  1
  Lu  Lu4_6  1  0.50000000  0.62251293  0.11054762  1
  Lu  Lu4_7  1  0.50000000  0.62251293  0.61054762  1
  Lu  Lu5_0  1  0.00000000  0.37748707  0.38945237  1
  Lu  Lu5_1  1  0.00000000  0.37748707  0.88945237  1
  Lu  Lu5_2  1  0.00000000  0.87748707  0.38945237  1
  Lu  Lu5_3  1  0.00000000  0.87748707  0.88945237  1
  Lu  Lu5_4  1  0.50000000  0.37748707  0.38945237  1
  Lu  Lu5_5  1  0.50000000  0.37748707  0.88945237  1
  Lu  Lu5_6  1  0.50000000  0.87748707  0.38945237  1
  Lu  Lu5_7  1  0.50000000  0.87748707  0.88945237  1
  Lu  Lu6_0  1  0.00000000  0.12748707  0.36054762  1
  Lu  Lu6_1  1  0.00000000  0.12748707  0.86054762  1
  Lu  Lu6_2  1  0.00000000  0.62748707  0.36054762  1
  Lu  Lu6_3  1  0.00000000  0.62748707  0.86054762  1
  Lu  Lu6_4  1  0.50000000  0.12748707  0.36054762  1
  Lu  Lu6_5  1  0.50000000  0.12748707  0.86054762  1
  Lu  Lu6_6  1  0.50000000  0.62748707  0.36054762  1
  Lu  Lu6_7  1  0.50000000  0.62748707  0.86054762  1
  Lu  Lu7_0  1  0.00000000  0.37251293  0.13945237  1
  Lu  Lu7_1  1  0.00000000  0.37251293  0.63945237  1
  Lu  Lu7_2  1  0.00000000  0.87251293  0.13945237  1
  Lu  Lu7_3  1  0.00000000  0.87251293  0.63945237  1
  Lu  Lu7_4  1  0.50000000  0.37251293  0.13945237  1
  Lu  Lu7_5  1  0.50000000  0.37251293  0.63945237  1
  Lu  Lu7_6  1  0.50000000  0.87251293  0.13945237  1
  Lu  Lu7_7  1  0.50000000  0.87251293  0.63945237  1
  Lu  Lu8_0  1  0.00000000  0.00000000  0.00000000  1
  Lu  Lu8_1  1  0.00000000  0.00000000  0.50000000  1
  Lu  Lu8_2  1  0.00000000  0.50000000  0.00000000  1
  Lu  Lu8_3  1  0.00000000  0.50000000  0.50000000  1
  Lu  Lu8_4  1  0.50000000  0.00000000  0.00000000  1
  Lu  Lu8_5  1  0.50000000  0.00000000  0.50000000  1
  Lu  Lu8_6  1  0.50000000  0.50000000  0.00000000  1
  Lu  Lu8_7  1  0.50000000  0.50000000  0.50000000  1
  Lu  Lu9_0  1  0.00000000  0.25000000  0.25000000  1
  Lu  Lu9_1  1  0.00000000  0.25000000  0.75000000  1
  Lu  Lu9_2  1  0.00000000  0.75000000  0.25000000  1
  Lu  Lu9_3  1  0.00000000  0.75000000  0.75000000  1
  Lu  Lu9_4  1  0.50000000  0.25000000  0.25000000  1
  Lu  Lu9_5  1  0.50000000  0.25000000  0.75000000  1
  Lu  Lu9_6  1  0.50000000  0.75000000  0.25000000  1
  Lu  Lu9_7  1  0.50000000  0.75000000  0.75000000  1
  In  In0_0  1  0.25000000  0.21254671  0.17617958  1
  In  In0_1  1  0.25000000  0.21254671  0.67617957  1
  In  In0_2  1  0.25000000  0.71254671  0.17617958  1
  In  In0_3  1  0.25000000  0.71254671  0.67617957  1
  In  In0_4  1  0.75000000  0.21254671  0.17617958  1
  In  In0_5  1  0.75000000  0.21254671  0.67617957  1
  In  In0_6  1  0.75000000  0.71254671  0.17617958  1
  In  In0_7  1  0.75000000  0.71254671  0.67617957  1
  In  In1_0  1  0.25000000  0.28745329  0.32382042  1
  In  In1_1  1  0.25000000  0.28745329  0.82382042  1
  In  In1_2  1  0.25000000  0.78745329  0.32382042  1
  In  In1_3  1  0.25000000  0.78745329  0.82382042  1
  In  In1_4  1  0.75000000  0.28745329  0.32382042  1
  In  In1_5  1  0.75000000  0.28745329  0.82382042  1
  In  In1_6  1  0.75000000  0.78745329  0.32382042  1
  In  In1_7  1  0.75000000  0.78745329  0.82382042  1
  In  In2_0  1  0.25000000  0.03745329  0.42617958  1
  In  In2_1  1  0.25000000  0.03745329  0.92617957  1
  In  In2_2  1  0.25000000  0.53745329  0.42617958  1
  In  In2_3  1  0.25000000  0.53745329  0.92617957  1
  In  In2_4  1  0.75000000  0.03745329  0.42617958  1
  In  In2_5  1  0.75000000  0.03745329  0.92617957  1
  In  In2_6  1  0.75000000  0.53745329  0.42617958  1
  In  In2_7  1  0.75000000  0.53745329  0.92617957  1
  In  In3_0  1  0.25000000  0.46254671  0.07382042  1
  In  In3_1  1  0.25000000  0.46254671  0.57382042  1
  In  In3_2  1  0.25000000  0.96254671  0.07382042  1
  In  In3_3  1  0.25000000  0.96254671  0.57382042  1
  In  In3_4  1  0.75000000  0.46254671  0.07382042  1
  In  In3_5  1  0.75000000  0.46254671  0.57382042  1
  In  In3_6  1  0.75000000  0.96254671  0.07382042  1
  In  In3_7  1  0.75000000  0.96254671  0.57382042  1
  In  In4_0  1  0.25000000  0.14514039  0.03316904  1
  In  In4_1  1  0.25000000  0.14514039  0.53316904  1
  In  In4_2  1  0.25000000  0.64514039  0.03316904  1
  In  In4_3  1  0.25000000  0.64514039  0.53316904  1
  In  In4_4  1  0.75000000  0.14514039  0.03316904  1
  In  In4_5  1  0.75000000  0.14514039  0.53316904  1
  In  In4_6  1  0.75000000  0.64514039  0.03316904  1
  In  In4_7  1  0.75000000  0.64514039  0.53316904  1
  In  In5_0  1  0.25000000  0.35485962  0.46683096  1
  In  In5_1  1  0.25000000  0.35485962  0.96683096  1
  In  In5_2  1  0.25000000  0.85485962  0.46683096  1
  In  In5_3  1  0.25000000  0.85485962  0.96683096  1
  In  In5_4  1  0.75000000  0.35485962  0.46683096  1
  In  In5_5  1  0.75000000  0.35485962  0.96683096  1
  In  In5_6  1  0.75000000  0.85485962  0.46683096  1
  In  In5_7  1  0.75000000  0.85485962  0.96683096  1
  In  In6_0  1  0.25000000  0.10485962  0.28316904  1
  In  In6_1  1  0.25000000  0.10485962  0.78316904  1
  In  In6_2  1  0.25000000  0.60485962  0.28316904  1
  In  In6_3  1  0.25000000  0.60485962  0.78316904  1
  In  In6_4  1  0.75000000  0.10485962  0.28316904  1
  In  In6_5  1  0.75000000  0.10485962  0.78316904  1
  In  In6_6  1  0.75000000  0.60485962  0.28316904  1
  In  In6_7  1  0.75000000  0.60485962  0.78316904  1
  In  In7_0  1  0.25000000  0.39514039  0.21683096  1
  In  In7_1  1  0.25000000  0.39514039  0.71683096  1
  In  In7_2  1  0.25000000  0.89514039  0.21683096  1
  In  In7_3  1  0.25000000  0.89514039  0.71683096  1
  In  In7_4  1  0.75000000  0.39514039  0.21683096  1
  In  In7_5  1  0.75000000  0.39514039  0.71683096  1
  In  In7_6  1  0.75000000  0.89514039  0.21683096  1
  In  In7_7  1  0.75000000  0.89514039  0.71683096  1
  Pt  Pt0_0  1  0.25000000  0.01397563  0.15196401  1
  Pt  Pt0_1  1  0.25000000  0.01397563  0.65196401  1
  Pt  Pt0_2  1  0.25000000  0.51397563  0.15196401  1
  Pt  Pt0_3  1  0.25000000  0.51397563  0.65196401  1
  Pt  Pt0_4  1  0.75000000  0.01397563  0.15196401  1
  Pt  Pt0_5  1  0.75000000  0.01397563  0.65196401  1
  Pt  Pt0_6  1  0.75000000  0.51397563  0.15196401  1
  Pt  Pt0_7  1  0.75000000  0.51397563  0.65196401  1
  Pt  Pt1_0  1  0.25000000  0.48602438  0.34803599  1
  Pt  Pt1_1  1  0.25000000  0.48602438  0.84803599  1
  Pt  Pt1_2  1  0.25000000  0.98602438  0.34803599  1
  Pt  Pt1_3  1  0.25000000  0.98602438  0.84803599  1
  Pt  Pt1_4  1  0.75000000  0.48602438  0.34803599  1
  Pt  Pt1_5  1  0.75000000  0.48602438  0.84803599  1
  Pt  Pt1_6  1  0.75000000  0.98602438  0.34803599  1
  Pt  Pt1_7  1  0.75000000  0.98602438  0.84803599  1
  Pt  Pt2_0  1  0.25000000  0.23602438  0.40196401  1
  Pt  Pt2_1  1  0.25000000  0.23602438  0.90196401  1
  Pt  Pt2_2  1  0.25000000  0.73602438  0.40196401  1
  Pt  Pt2_3  1  0.25000000  0.73602438  0.90196401  1
  Pt  Pt2_4  1  0.75000000  0.23602438  0.40196401  1
  Pt  Pt2_5  1  0.75000000  0.23602438  0.90196401  1
  Pt  Pt2_6  1  0.75000000  0.73602438  0.40196401  1
  Pt  Pt2_7  1  0.75000000  0.73602438  0.90196401  1
  Pt  Pt3_0  1  0.25000000  0.26397562  0.09803599  1
  Pt  Pt3_1  1  0.25000000  0.26397562  0.59803599  1
  Pt  Pt3_2  1  0.25000000  0.76397562  0.09803599  1
  Pt  Pt3_3  1  0.25000000  0.76397562  0.59803599  1
  Pt  Pt3_4  1  0.75000000  0.26397562  0.09803599  1
  Pt  Pt3_5  1  0.75000000  0.26397562  0.59803599  1
  Pt  Pt3_6  1  0.75000000  0.76397562  0.09803599  1
  Pt  Pt3_7  1  0.75000000  0.76397562  0.59803599  1
loop_
_geom_bond_atom_site_label_1
_geom_bond_atom_site_label_2
_geom_bond_distance
_geom_bond_site_symmetry_2
Lu0_0 Pt0_4 2.758941 1_455
Lu0_0 Pt0_0 2.758941 1_555
Lu0_0 Lu9_0 3.391901 1_555
Lu0_1 Pt0_1 2.758941 1_555
Lu0_1 Pt0_5 2.758941 1_455
Lu0_1 Lu9_1 3.391901 1_555
Lu0_2 Pt0_6 2.758941 1_455
Lu0_2 Pt0_2 2.758941 1_555
Lu0_2 Lu9_2 3.391901 1_555
Lu0_3 Pt0_7 2.758941 1_455
Lu0_3 Pt0_3 2.758941 1_555
Lu0_3 Lu9_3 3.391901 1_555
Lu0_4 Pt0_0 2.758941 1_555
Lu0_4 Pt0_4 2.758941 1_555
Lu0_4 Lu9_4 3.391901 1_555
Lu0_5 Pt0_1 2.758941 1_555
Lu0_5 Pt0_5 2.758941 1_555
Lu0_5 Lu9_5 3.391901 1_555
Lu0_6 Pt0_2 2.758941 1_555
Lu0_6 Pt0_6 2.758941 1_555
Lu0_6 Lu9_6 3.391901 1_555
Lu0_7 Pt0_3 2.758941 1_555
Lu0_7 Pt0_7 2.758941 1_555
Lu0_7 Lu9_7 3.391901 1_555
Lu1_0 Pt1_0 2.758941 1_555
Lu1_0 Pt1_4 2.758941 1_455
Lu1_0 Lu9_0 3.391901 1_555
Lu1_1 Pt1_1 2.758941 1_555
Lu1_1 Pt1_5 2.758941 1_455
Lu1_1 Lu9_1 3.391901 1_555
Lu1_2 Pt1_2 2.758941 1_555
Lu1_2 Pt1_6 2.758941 1_455
Lu1_2 Lu9_2 3.391901 1_555
Lu1_3 Pt1_3 2.758941 1_555
Lu1_3 Pt1_7 2.758941 1_455
Lu1_3 Lu9_3 3.391901 1_555
Lu1_4 Pt1_0 2.758941 1_555
Lu1_4 Pt1_4 2.758941 1_555
Lu1_4 Lu9_4 3.391901 1_555
Lu1_5 Pt1_1 2.758941 1_555
Lu1_5 Pt1_5 2.758941 1_555
Lu1_5 Lu9_5 3.391901 1_555
Lu1_6 Pt1_2 2.758941 1_555
Lu1_6 Pt1_6 2.758941 1_555
Lu1_6 Lu9_6 3.391901 1_555
Lu1_7 Pt1_3 2.758941 1_555
Lu1_7 Pt1_7 2.758941 1_555
Lu1_7 Lu9_7 3.391901 1_555
Lu2_0 Pt2_4 2.758941 1_455
Lu2_0 Pt2_0 2.758941 1_555
Lu2_0 Lu8_1 3.391901 1_555
Lu2_1 Pt2_5 2.758941 1_455
Lu2_1 Pt2_1 2.758941 1_555
Lu2_1 Lu8_0 3.391901 1_556
Lu2_2 Pt2_2 2.758941 1_555
Lu2_2 Pt2_6 2.758941 1_455
Lu2_2 Lu8_3 3.391901 1_555
Lu2_3 Pt2_3 2.758941 1_555
Lu2_3 Pt2_7 2.758941 1_455
Lu2_3 Lu8_2 3.391901 1_556
Lu2_4 Pt2_4 2.758941 1_555
Lu2_4 Pt2_0 2.758941 1_555
Lu2_4 Lu8_5 3.391901 1_555
Lu2_5 Pt2_1 2.758941 1_555
Lu2_5 Pt2_5 2.758941 1_555
Lu2_5 Lu8_4 3.391901 1_556
Lu2_6 Pt2_2 2.758941 1_555
Lu2_6 Pt2_6 2.758941 1_555
Lu2_6 Lu8_7 3.391901 1_555
Lu2_7 Pt2_7 2.758941 1_555
Lu2_7 Pt2_3 2.758941 1_555
Lu2_7 Lu8_6 3.391901 1_556
Lu3_0 Pt3_0 2.758941 1_555
Lu3_0 Pt3_4 2.758941 1_455
Lu3_0 Lu8_2 3.391901 1_555
Lu3_1 Pt3_5 2.758941 1_455
Lu3_1 Pt3_1 2.758941 1_555
Lu3_1 Lu8_3 3.391901 1_555
Lu3_2 Pt3_2 2.758941 1_555
Lu3_2 Pt3_6 2.758941 1_455
Lu3_2 Lu8_0 3.391901 1_565
Lu3_3 Pt3_7 2.758941 1_455
Lu3_3 Pt3_3 2.758941 1_555
Lu3_3 Lu8_1 3.391901 1_565
Lu3_4 Pt3_4 2.758941 1_555
Lu3_4 Pt3_0 2.758941 1_555
Lu3_4 Lu8_6 3.391901 1_555
Lu3_5 Pt3_1 2.758941 1_555
Lu3_5 Pt3_5 2.758941 1_555
Lu3_5 Lu8_7 3.391901 1_555
Lu3_6 Pt3_2 2.758941 1_555
Lu3_6 Pt3_6 2.758941 1_555
Lu3_6 Lu8_4 3.391901 1_565
Lu3_7 Pt3_3 2.758941 1_555
Lu3_7 Pt3_7 2.758941 1_555
Lu3_7 Lu8_5 3.391901 1_565
Lu4_0 Pt0_0 2.882928 1_555
Lu4_0 Pt0_4 2.882928 1_455
Lu4_0 Pt3_0 2.894660 1_555
Lu4_0 Pt3_4 2.894660 1_455
Lu4_1 Pt0_5 2.882928 1_455
Lu4_1 Pt0_1 2.882928 1_555
Lu4_1 Pt3_1 2.894660 1_555
Lu4_1 Pt3_5 2.894660 1_455
Lu4_2 Pt0_6 2.882928 1_455
Lu4_2 Pt0_2 2.882928 1_555
Lu4_2 Pt3_6 2.894660 1_455
Lu4_2 Pt3_2 2.894660 1_555
Lu4_3 Pt0_3 2.882928 1_555
Lu4_3 Pt0_7 2.882928 1_455
Lu4_3 Pt3_3 2.894660 1_555
Lu4_3 Pt3_7 2.894660 1_455
Lu4_4 Pt0_0 2.882928 1_555
Lu4_4 Pt0_4 2.882928 1_555
Lu4_4 Pt3_0 2.894660 1_555
Lu4_4 Pt3_4 2.894660 1_555
Lu4_5 Pt0_5 2.882928 1_555
Lu4_5 Pt0_1 2.882928 1_555
Lu4_5 Pt3_5 2.894660 1_555
Lu4_5 Pt3_1 2.894660 1_555
Lu4_6 Pt0_2 2.882928 1_555
Lu4_6 Pt0_6 2.882928 1_555
Lu4_6 Pt3_6 2.894660 1_555
Lu4_6 Pt3_2 2.894660 1_555
Lu4_7 Pt0_3 2.882928 1_555
Lu4_7 Pt0_7 2.882928 1_555
Lu4_7 Pt3_3 2.894660 1_555
Lu4_7 Pt3_7 2.894660 1_555
Lu5_0 Pt1_0 2.882928 1_555
Lu5_0 Pt1_4 2.882928 1_455
Lu5_0 Pt2_0 2.894660 1_555
Lu5_0 Pt2_4 2.894660 1_455
Lu5_1 Pt1_1 2.882928 1_555
Lu5_1 Pt1_5 2.882928 1_455
Lu5_1 Pt2_1 2.894660 1_555
Lu5_1 Pt2_5 2.894660 1_455
Lu5_2 Pt1_6 2.882928 1_455
Lu5_2 Pt1_2 2.882928 1_555
Lu5_2 Pt2_2 2.894660 1_555
Lu5_2 Pt2_6 2.894660 1_455
Lu5_3 Pt1_3 2.882928 1_555
Lu5_3 Pt1_7 2.882928 1_455
Lu5_3 Pt2_7 2.894660 1_455
Lu5_3 Pt2_3 2.894660 1_555
Lu5_4 Pt1_0 2.882928 1_555
Lu5_4 Pt1_4 2.882928 1_555
Lu5_4 Pt2_0 2.894660 1_555
Lu5_4 Pt2_4 2.894660 1_555
Lu5_5 Pt1_1 2.882928 1_555
Lu5_5 Pt1_5 2.882928 1_555
Lu5_5 Pt2_1 2.894660 1_555
Lu5_5 Pt2_5 2.894660 1_555
Lu5_6 Pt1_6 2.882928 1_555
Lu5_6 Pt1_2 2.882928 1_555
Lu5_6 Pt2_2 2.894660 1_555
Lu5_6 Pt2_6 2.894660 1_555
Lu5_7 Pt1_3 2.882928 1_555
Lu5_7 Pt1_7 2.882928 1_555
Lu5_7 Pt2_3 2.894660 1_555
Lu5_7 Pt2_7 2.894660 1_555
Lu6_0 Pt2_4 2.882928 1_455
Lu6_0 Pt2_0 2.882928 1_555
Lu6_0 Pt1_6 2.894660 1_445
Lu6_0 Pt1_2 2.894660 1_545
Lu6_1 Pt2_1 2.882928 1_555
Lu6_1 Pt2_5 2.882928 1_455
Lu6_1 Pt1_3 2.894660 1_545
Lu6_1 Pt1_7 2.894660 1_445
Lu6_2 Pt2_2 2.882928 1_555
Lu6_2 Pt2_6 2.882928 1_455
Lu6_2 Pt1_0 2.894660 1_555
Lu6_2 Pt1_4 2.894660 1_455
Lu6_3 Pt2_7 2.882928 1_455
Lu6_3 Pt2_3 2.882928 1_555
Lu6_3 Pt1_1 2.894660 1_555
Lu6_3 Pt1_5 2.894660 1_455
Lu6_4 Pt2_4 2.882928 1_555
Lu6_4 Pt2_0 2.882928 1_555
Lu6_4 Pt1_2 2.894660 1_545
Lu6_4 Pt1_6 2.894660 1_545
Lu6_5 Pt2_1 2.882928 1_555
Lu6_5 Pt2_5 2.882928 1_555
Lu6_5 Pt1_3 2.894660 1_545
Lu6_5 Pt1_7 2.894660 1_545
Lu6_6 Pt2_2 2.882928 1_555
Lu6_6 Pt2_6 2.882928 1_555
Lu6_6 Pt1_0 2.894660 1_555
Lu6_6 Pt1_4 2.894660 1_555
Lu6_7 Pt2_7 2.882928 1_555
Lu6_7 Pt2_3 2.882928 1_555
Lu6_7 Pt1_1 2.894660 1_555
Lu6_7 Pt1_5 2.894660 1_555
Lu7_0 Pt3_4 2.882928 1_455
Lu7_0 Pt3_0 2.882928 1_555
Lu7_0 Pt0_6 2.894660 1_455
Lu7_0 Pt0_2 2.894660 1_555
Lu7_1 Pt3_5 2.882928 1_455
Lu7_1 Pt3_1 2.882928 1_555
Lu7_1 Pt0_3 2.894660 1_555
Lu7_1 Pt0_7 2.894660 1_455
Lu7_2 Pt3_6 2.882928 1_455
Lu7_2 Pt3_2 2.882928 1_555
Lu7_2 Pt0_0 2.894660 1_565
Lu7_2 Pt0_4 2.894660 1_465
Lu7_3 Pt3_7 2.882928 1_455
Lu7_3 Pt3_3 2.882928 1_555
Lu7_3 Pt0_1 2.894660 1_565
Lu7_3 Pt0_5 2.894660 1_465
Lu7_4 Pt3_0 2.882928 1_555
Lu7_4 Pt3_4 2.882928 1_555
Lu7_4 Pt0_2 2.894660 1_555
Lu7_4 Pt0_6 2.894660 1_555
Lu7_5 Pt3_5 2.882928 1_555
Lu7_5 Pt3_1 2.882928 1_555
Lu7_5 Pt0_3 2.894660 1_555
Lu7_5 Pt0_7 2.894660 1_555
Lu7_6 Pt3_6 2.882928 1_555
Lu7_6 Pt3_2 2.882928 1_555
Lu7_6 Pt0_0 2.894660 1_565
Lu7_6 Pt0_4 2.894660 1_565
Lu7_7 Pt3_3 2.882928 1_555
Lu7_7 Pt3_7 2.882928 1_555
Lu7_7 Pt0_1 2.894660 1_565
Lu7_7 Pt0_5 2.894660 1_565
Lu8_0 Lu8_4 3.576566 1_455
Lu8_0 Lu8_4 3.576566 1_555
Lu8_1 Lu8_5 3.576566 1_455
Lu8_1 Lu8_5 3.576566 1_555
Lu8_2 Lu8_6 3.576566 1_455
Lu8_2 Lu8_6 3.576566 1_555
Lu8_3 Lu8_7 3.576566 1_555
Lu8_3 Lu8_7 3.576566 1_455
Lu9_0 Lu9_4 3.576566 1_455
Lu9_0 Lu9_4 3.576566 1_555
Lu9_1 Lu9_5 3.576566 1_455
Lu9_1 Lu9_5 3.576566 1_555
Lu9_2 Lu9_6 3.576566 1_555
Lu9_2 Lu9_6 3.576566 1_455
Lu9_3 Lu9_7 3.576566 1_455
Lu9_3 Lu9_7 3.576566 1_555
In0_0 Pt3_0 2.901875 1_555
In0_0 In7_0 3.225075 1_555
In0_0 Lu0_4 3.231372 1_555
In0_0 Lu0_0 3.231372 1_555
In0_0 Lu9_4 3.236426 1_555
In0_0 Lu9_0 3.236426 1_555
In0_0 Pt0_0 3.249926 1_555
In0_0 Lu4_4 3.269824 1_555
In0_0 Lu4_0 3.269824 1_555
In0_0 Lu7_0 3.359066 1_555
In0_0 Lu7_4 3.359066 1_555
In0_1 Pt3_1 2.901875 1_555
In0_1 In7_1 3.225075 1_555
In0_1 Lu0_1 3.231372 1_555
In0_1 Lu0_5 3.231372 1_555
In0_1 Lu9_1 3.236426 1_555
In0_1 Lu9_5 3.236426 1_555
In0_1 Pt0_1 3.249926 1_555
In0_1 Lu4_1 3.269824 1_555
In0_1 Lu4_5 3.269824 1_555
In0_1 Lu7_5 3.359066 1_555
In0_1 Lu7_1 3.359066 1_555
In0_2 Pt3_2 2.901875 1_555
In0_2 In7_2 3.225075 1_555
In0_2 Lu0_6 3.231372 1_555
In0_2 Lu0_2 3.231372 1_555
In0_2 Lu9_2 3.236426 1_555
In0_2 Lu9_6 3.236426 1_555
In0_2 Pt0_2 3.249926 1_555
In0_2 Lu4_2 3.269824 1_555
In0_2 Lu4_6 3.269824 1_555
In0_2 Lu7_2 3.359066 1_555
In0_2 Lu7_6 3.359066 1_555
In0_3 Pt3_3 2.901875 1_555
In0_3 In7_3 3.225075 1_555
In0_3 Lu0_3 3.231372 1_555
In0_3 Lu0_7 3.231372 1_555
In0_3 Lu9_3 3.236426 1_555
In0_3 Lu9_7 3.236426 1_555
In0_3 Pt0_3 3.249926 1_555
In0_3 Lu4_3 3.269824 1_555
In0_3 Lu4_7 3.269824 1_555
In0_3 Lu7_3 3.359066 1_555
In0_3 Lu7_7 3.359066 1_555
In0_4 Pt3_4 2.901875 1_555
In0_4 In7_4 3.225075 1_555
In0_4 Lu0_4 3.231372 1_555
In0_4 Lu0_0 3.231372 1_655
In0_4 Lu9_4 3.236426 1_555
In0_4 Lu9_0 3.236426 1_655
In0_4 Pt0_4 3.249926 1_555
In0_4 Lu4_4 3.269824 1_555
In0_4 Lu4_0 3.269824 1_655
In0_4 Lu7_0 3.359066 1_655
In0_4 Lu7_4 3.359066 1_555
In0_5 Pt3_5 2.901875 1_555
In0_5 In7_5 3.225075 1_555
In0_5 Lu0_1 3.231372 1_655
In0_5 Lu0_5 3.231372 1_555
In0_5 Lu9_1 3.236426 1_655
In0_5 Lu9_5 3.236426 1_555
In0_5 Pt0_5 3.249926 1_555
In0_5 Lu4_5 3.269824 1_555
In0_5 Lu4_1 3.269824 1_655
In0_5 Lu7_1 3.359066 1_655
In0_5 Lu7_5 3.359066 1_555
In0_6 Pt3_6 2.901875 1_555
In0_6 In7_6 3.225075 1_555
In0_6 Lu0_6 3.231372 1_555
In0_6 Lu0_2 3.231372 1_655
In0_6 Lu9_6 3.236426 1_555
In0_6 Lu9_2 3.236426 1_655
In0_6 Pt0_6 3.249926 1_555
In0_6 Lu4_2 3.269824 1_655
In0_6 Lu4_6 3.269824 1_555
In0_6 Lu7_2 3.359066 1_655
In0_6 Lu7_6 3.359066 1_555
In0_7 Pt3_7 2.901875 1_555
In0_7 In7_7 3.225075 1_555
In0_7 Lu0_7 3.231372 1_555
In0_7 Lu0_3 3.231372 1_655
In0_7 Lu9_3 3.236426 1_655
In0_7 Lu9_7 3.236426 1_555
In0_7 Pt0_7 3.249926 1_555
In0_7 Lu4_3 3.269824 1_655
In0_7 Lu4_7 3.269824 1_555
In0_7 Lu7_3 3.359066 1_655
In0_7 Lu7_7 3.359066 1_555
In1_0 Pt2_0 2.901875 1_555
In1_0 In6_0 3.225075 1_555
In1_0 Lu1_0 3.231372 1_555
In1_0 Lu1_4 3.231372 1_555
In1_0 Lu9_0 3.236426 1_555
In1_0 Lu9_4 3.236426 1_555
In1_0 Pt1_0 3.249926 1_555
In1_0 Lu5_4 3.269824 1_555
In1_0 Lu5_0 3.269824 1_555
In1_0 Lu6_4 3.359066 1_555
In1_0 Lu6_0 3.359066 1_555
In1_1 Pt2_1 2.901875 1_555
In1_1 In6_1 3.225075 1_555
In1_1 Lu1_1 3.231372 1_555
In1_1 Lu1_5 3.231372 1_555
In1_1 Lu9_1 3.236426 1_555
In1_1 Lu9_5 3.236426 1_555
In1_1 Pt1_1 3.249926 1_555
In1_1 Lu5_5 3.269824 1_555
In1_1 Lu5_1 3.269824 1_555
In1_1 Lu6_1 3.359066 1_555
In1_1 Lu6_5 3.359066 1_555
In1_2 Pt2_2 2.901875 1_555
In1_2 In6_2 3.225075 1_555
In1_2 Lu1_6 3.231372 1_555
In1_2 Lu1_2 3.231372 1_555
In1_2 Lu9_6 3.236426 1_555
In1_2 Lu9_2 3.236426 1_555
In1_2 Pt1_2 3.249926 1_555
In1_2 Lu5_2 3.269824 1_555
In1_2 Lu5_6 3.269824 1_555
In1_2 Lu6_6 3.359066 1_555
In1_2 Lu6_2 3.359066 1_555
In1_3 Pt2_3 2.901875 1_555
In1_3 In6_3 3.225075 1_555
In1_3 Lu1_3 3.231372 1_555
In1_3 Lu1_7 3.231372 1_555
In1_3 Lu9_3 3.236426 1_555
In1_3 Lu9_7 3.236426 1_555
In1_3 Pt1_3 3.249926 1_555
In1_3 Lu5_3 3.269824 1_555
In1_3 Lu5_7 3.269824 1_555
In1_3 Lu6_7 3.359066 1_555
In1_3 Lu6_3 3.359066 1_555
In1_4 Pt2_4 2.901875 1_555
In1_4 In6_4 3.225075 1_555
In1_4 Lu1_0 3.231372 1_655
In1_4 Lu1_4 3.231372 1_555
In1_4 Lu9_4 3.236426 1_555
In1_4 Lu9_0 3.236426 1_655
In1_4 Pt1_4 3.249926 1_555
In1_4 Lu5_0 3.269824 1_655
In1_4 Lu5_4 3.269824 1_555
In1_4 Lu6_0 3.359066 1_655
In1_4 Lu6_4 3.359066 1_555
In1_5 Pt2_5 2.901875 1_555
In1_5 In6_5 3.225075 1_555
In1_5 Lu1_5 3.231372 1_555
In1_5 Lu1_1 3.231372 1_655
In1_5 Lu9_1 3.236426 1_655
In1_5 Lu9_5 3.236426 1_555
In1_5 Pt1_5 3.249926 1_555
In1_5 Lu5_5 3.269824 1_555
In1_5 Lu5_1 3.269824 1_655
In1_5 Lu6_1 3.359066 1_655
In1_5 Lu6_5 3.359066 1_555
In1_6 Pt2_6 2.901875 1_555
In1_6 In6_6 3.225075 1_555
In1_6 Lu1_6 3.231372 1_555
In1_6 Lu1_2 3.231372 1_655
In1_6 Lu9_2 3.236426 1_655
In1_6 Lu9_6 3.236426 1_555
In1_6 Pt1_6 3.249926 1_555
In1_6 Lu5_2 3.269824 1_655
In1_6 Lu5_6 3.269824 1_555
In1_6 Lu6_2 3.359066 1_655
In1_6 Lu6_6 3.359066 1_555
In1_7 Pt2_7 2.901875 1_555
In1_7 In6_7 3.225075 1_555
In1_7 Lu1_7 3.231372 1_555
In1_7 Lu1_3 3.231372 1_655
In1_7 Lu9_3 3.236426 1_655
In1_7 Lu9_7 3.236426 1_555
In1_7 Pt1_7 3.249926 1_555
In1_7 Lu5_3 3.269824 1_655
In1_7 Lu5_7 3.269824 1_555
In1_7 Lu6_3 3.359066 1_655
In1_7 Lu6_7 3.359066 1_555
In2_0 Pt1_2 2.901875 1_545
In2_0 In5_2 3.225075 1_545
In2_0 Lu2_4 3.231372 1_555
In2_0 Lu2_0 3.231372 1_555
In2_0 Lu8_1 3.236426 1_555
In2_0 Lu8_5 3.236426 1_555
In2_0 Pt2_0 3.249926 1_555
In2_0 Lu6_0 3.269824 1_555
In2_0 Lu6_4 3.269824 1_555
In2_0 Lu5_2 3.359066 1_545
In2_0 Lu5_6 3.359066 1_545
In2_1 Pt1_3 2.901875 1_545
In2_1 In5_3 3.225075 1_545
In2_1 Lu2_5 3.231372 1_555
In2_1 Lu2_1 3.231372 1_555
In2_1 Lu8_0 3.236426 1_556
In2_1 Lu8_4 3.236426 1_556
In2_1 Pt2_1 3.249926 1_555
In2_1 Lu6_1 3.269824 1_555
In2_1 Lu6_5 3.269824 1_555
In2_1 Lu5_3 3.359066 1_545
In2_1 Lu5_7 3.359066 1_545
In2_2 Pt1_0 2.901875 1_555
In2_2 In5_0 3.225075 1_555
In2_2 Lu2_6 3.231372 1_555
In2_2 Lu2_2 3.231372 1_555
In2_2 Lu8_7 3.236426 1_555
In2_2 Lu8_3 3.236426 1_555
In2_2 Pt2_2 3.249926 1_555
In2_2 Lu6_6 3.269824 1_555
In2_2 Lu6_2 3.269824 1_555
In2_2 Lu5_4 3.359066 1_555
In2_2 Lu5_0 3.359066 1_555
In2_3 Pt1_1 2.901875 1_555
In2_3 In5_1 3.225075 1_555
In2_3 Lu2_7 3.231372 1_555
In2_3 Lu2_3 3.231372 1_555
In2_3 Lu8_6 3.236426 1_556
In2_3 Lu8_2 3.236426 1_556
In2_3 Pt2_3 3.249926 1_555
In2_3 Lu6_7 3.269824 1_555
In2_3 Lu6_3 3.269824 1_555
In2_3 Lu5_1 3.359066 1_555
In2_3 Lu5_5 3.359066 1_555
In2_4 Pt1_6 2.901875 1_545
In2_4 In5_6 3.225075 1_545
In2_4 Lu2_4 3.231372 1_555
In2_4 Lu2_0 3.231372 1_655
In2_4 Lu8_1 3.236426 1_655
In2_4 Lu8_5 3.236426 1_555
In2_4 Pt2_4 3.249926 1_555
In2_4 Lu6_0 3.269824 1_655
In2_4 Lu6_4 3.269824 1_555
In2_4 Lu5_6 3.359066 1_545
In2_4 Lu5_2 3.359066 1_645
In2_5 Pt1_7 2.901875 1_545
In2_5 In5_7 3.225075 1_545
In2_5 Lu2_5 3.231372 1_555
In2_5 Lu2_1 3.231372 1_655
In2_5 Lu8_4 3.236426 1_556
In2_5 Lu8_0 3.236426 1_656
In2_5 Pt2_5 3.249926 1_555
In2_5 Lu6_1 3.269824 1_655
In2_5 Lu6_5 3.269824 1_555
In2_5 Lu5_3 3.359066 1_645
In2_5 Lu5_7 3.359066 1_545
In2_6 Pt1_4 2.901875 1_555
In2_6 In5_4 3.225075 1_555
In2_6 Lu2_6 3.231372 1_555
In2_6 Lu2_2 3.231372 1_655
In2_6 Lu8_3 3.236426 1_655
In2_6 Lu8_7 3.236426 1_555
In2_6 Pt2_6 3.249926 1_555
In2_6 Lu6_6 3.269824 1_555
In2_6 Lu6_2 3.269824 1_655
In2_6 Lu5_4 3.359066 1_555
In2_6 Lu5_0 3.359066 1_655
In2_7 Pt1_5 2.901875 1_555
In2_7 In5_5 3.225075 1_555
In2_7 Lu2_7 3.231372 1_555
In2_7 Lu2_3 3.231372 1_655
In2_7 Lu8_2 3.236426 1_656
In2_7 Lu8_6 3.236426 1_556
In2_7 Pt2_7 3.249926 1_555
In2_7 Lu6_7 3.269824 1_555
In2_7 Lu6_3 3.269824 1_655
In2_7 Lu5_1 3.359066 1_655
In2_7 Lu5_5 3.359066 1_555
In3_0 Pt0_2 2.901875 1_555
In3_0 In4_2 3.225075 1_555
In3_0 Lu3_4 3.231372 1_555
In3_0 Lu3_0 3.231372 1_555
In3_0 Lu8_6 3.236426 1_555
In3_0 Lu8_2 3.236426 1_555
In3_0 Pt3_0 3.249926 1_555
In3_0 Lu7_0 3.269824 1_555
In3_0 Lu7_4 3.269824 1_555
In3_0 Lu4_6 3.359066 1_555
In3_0 Lu4_2 3.359066 1_555
In3_1 Pt0_3 2.901875 1_555
In3_1 In4_3 3.225075 1_555
In3_1 Lu3_1 3.231372 1_555
In3_1 Lu3_5 3.231372 1_555
In3_1 Lu8_3 3.236426 1_555
In3_1 Lu8_7 3.236426 1_555
In3_1 Pt3_1 3.249926 1_555
In3_1 Lu7_1 3.269824 1_555
In3_1 Lu7_5 3.269824 1_555
In3_1 Lu4_3 3.359066 1_555
In3_1 Lu4_7 3.359066 1_555
In3_2 Pt0_0 2.901875 1_565
In3_2 In4_0 3.225075 1_565
In3_2 Lu3_2 3.231372 1_555
In3_2 Lu3_6 3.231372 1_555
In3_2 Lu8_0 3.236426 1_565
In3_2 Lu8_4 3.236426 1_565
In3_2 Pt3_2 3.249926 1_555
In3_2 Lu7_2 3.269824 1_555
In3_2 Lu7_6 3.269824 1_555
In3_2 Lu4_0 3.359066 1_565
In3_2 Lu4_4 3.359066 1_565
In3_3 Pt0_1 2.901875 1_565
In3_3 In4_1 3.225075 1_565
In3_3 Lu3_7 3.231372 1_555
In3_3 Lu3_3 3.231372 1_555
In3_3 Lu8_1 3.236426 1_565
In3_3 Lu8_5 3.236426 1_565
In3_3 Pt3_3 3.249926 1_555
In3_3 Lu7_3 3.269824 1_555
In3_3 Lu7_7 3.269824 1_555
In3_3 Lu4_5 3.359066 1_565
In3_3 Lu4_1 3.359066 1_565
In3_4 Pt0_6 2.901875 1_555
In3_4 In4_6 3.225075 1_555
In3_4 Lu3_4 3.231372 1_555
In3_4 Lu3_0 3.231372 1_655
In3_4 Lu8_6 3.236426 1_555
In3_4 Lu8_2 3.236426 1_655
In3_4 Pt3_4 3.249926 1_555
In3_4 Lu7_4 3.269824 1_555
In3_4 Lu7_0 3.269824 1_655
In3_4 Lu4_6 3.359066 1_555
In3_4 Lu4_2 3.359066 1_655
In3_5 Pt0_7 2.901875 1_555
In3_5 In4_7 3.225075 1_555
In3_5 Lu3_1 3.231372 1_655
In3_5 Lu3_5 3.231372 1_555
In3_5 Lu8_3 3.236426 1_655
In3_5 Lu8_7 3.236426 1_555
In3_5 Pt3_5 3.249926 1_555
In3_5 Lu7_1 3.269824 1_655
In3_5 Lu7_5 3.269824 1_555
In3_5 Lu4_7 3.359066 1_555
In3_5 Lu4_3 3.359066 1_655
In3_6 Pt0_4 2.901875 1_565
In3_6 In4_4 3.225075 1_565
In3_6 Lu3_2 3.231372 1_655
In3_6 Lu3_6 3.231372 1_555
In3_6 Lu8_0 3.236426 1_665
In3_6 Lu8_4 3.236426 1_565
In3_6 Pt3_6 3.249926 1_555
In3_6 Lu7_2 3.269824 1_655
In3_6 Lu7_6 3.269824 1_555
In3_6 Lu4_0 3.359066 1_665
In3_6 Lu4_4 3.359066 1_565
In3_7 Pt0_5 2.901875 1_565
In3_7 In4_5 3.225075 1_565
In3_7 Lu3_7 3.231372 1_555
In3_7 Lu3_3 3.231372 1_655
In3_7 Lu8_1 3.236426 1_665
In3_7 Lu8_5 3.236426 1_565
In3_7 Pt3_7 3.249926 1_555
In3_7 Lu7_7 3.269824 1_555
In3_7 Lu7_3 3.269824 1_655
In3_7 Lu4_1 3.359066 1_665
In3_7 Lu4_5 3.359066 1_565
In4_0 Pt3_0 2.977341 1_555
In4_0 Lu8_4 3.137039 1_555
In4_0 Lu8_0 3.137039 1_555
In4_0 Lu3_4 3.141335 1_555
In4_0 Lu3_0 3.141335 1_555
In4_0 Lu4_0 3.307050 1_555
In4_0 Lu4_4 3.307050 1_555
In4_0 Lu2_1 3.317479 1_554
In4_0 Lu2_5 3.317479 1_554
In4_1 Pt3_1 2.977341 1_555
In4_1 Lu8_1 3.137039 1_555
In4_1 Lu8_5 3.137039 1_555
In4_1 Lu3_1 3.141335 1_555
In4_1 Lu3_5 3.141335 1_555
In4_1 Lu4_1 3.307050 1_555
In4_1 Lu4_5 3.307050 1_555
In4_1 Lu2_4 3.317479 1_555
In4_1 Lu2_0 3.317479 1_555
In4_2 Pt3_2 2.977341 1_555
In4_2 Lu8_2 3.137039 1_555
In4_2 Lu8_6 3.137039 1_555
In4_2 Lu3_6 3.141335 1_555
In4_2 Lu3_2 3.141335 1_555
In4_2 Lu4_6 3.307050 1_555
In4_2 Lu4_2 3.307050 1_555
In4_2 Lu2_7 3.317479 1_554
In4_2 Lu2_3 3.317479 1_554
In4_3 Pt3_3 2.977341 1_555
In4_3 Lu8_3 3.137039 1_555
In4_3 Lu8_7 3.137039 1_555
In4_3 Lu3_3 3.141335 1_555
In4_3 Lu3_7 3.141335 1_555
In4_3 Lu4_7 3.307050 1_555
In4_3 Lu4_3 3.307050 1_555
In4_3 Lu2_2 3.317479 1_555
In4_3 Lu2_6 3.317479 1_555
In4_4 Pt3_4 2.977341 1_555
In4_4 Lu8_4 3.137039 1_555
In4_4 Lu8_0 3.137039 1_655
In4_4 Lu3_0 3.141335 1_655
In4_4 Lu3_4 3.141335 1_555
In4_4 Lu4_0 3.307050 1_655
In4_4 Lu4_4 3.307050 1_555
In4_4 Lu2_5 3.317479 1_554
In4_4 Lu2_1 3.317479 1_654
In4_5 Pt3_5 2.977341 1_555
In4_5 Lu8_1 3.137039 1_655
In4_5 Lu8_5 3.137039 1_555
In4_5 Lu3_1 3.141335 1_655
In4_5 Lu3_5 3.141335 1_555
In4_5 Lu4_5 3.307050 1_555
In4_5 Lu4_1 3.307050 1_655
In4_5 Lu2_0 3.317479 1_655
In4_5 Lu2_4 3.317479 1_555
In4_6 Pt3_6 2.977341 1_555
In4_6 Lu8_6 3.137039 1_555
In4_6 Lu8_2 3.137039 1_655
In4_6 Lu3_2 3.141335 1_655
In4_6 Lu3_6 3.141335 1_555
In4_6 Lu4_2 3.307050 1_655
In4_6 Lu4_6 3.307050 1_555
In4_6 Lu2_7 3.317479 1_554
In4_6 Lu2_3 3.317479 1_654
In4_7 Pt3_7 2.977341 1_555
In4_7 Lu8_3 3.137039 1_655
In4_7 Lu8_7 3.137039 1_555
In4_7 Lu3_3 3.141335 1_655
In4_7 Lu3_7 3.141335 1_555
In4_7 Lu4_7 3.307050 1_555
In4_7 Lu4_3 3.307050 1_655
In4_7 Lu2_6 3.317479 1_555
In4_7 Lu2_2 3.317479 1_655
In5_0 Pt2_0 2.977341 1_555
In5_0 Lu8_7 3.137039 1_555
In5_0 Lu8_3 3.137039 1_555
In5_0 Lu2_4 3.141335 1_555
In5_0 Lu2_0 3.141335 1_555
In5_0 Lu5_0 3.307050 1_555
In5_0 Lu5_4 3.307050 1_555
In5_0 Lu3_1 3.317479 1_555
In5_0 Lu3_5 3.317479 1_555
In5_1 Pt2_1 2.977341 1_555
In5_1 Lu8_6 3.137039 1_556
In5_1 Lu8_2 3.137039 1_556
In5_1 Lu2_1 3.141335 1_555
In5_1 Lu2_5 3.141335 1_555
In5_1 Lu5_5 3.307050 1_555
In5_1 Lu5_1 3.307050 1_555
In5_1 Lu3_0 3.317479 1_556
In5_1 Lu3_4 3.317479 1_556
In5_2 Pt2_2 2.977341 1_555
In5_2 Lu8_1 3.137039 1_565
In5_2 Lu8_5 3.137039 1_565
In5_2 Lu2_2 3.141335 1_555
In5_2 Lu2_6 3.141335 1_555
In5_2 Lu5_2 3.307050 1_555
In5_2 Lu5_6 3.307050 1_555
In5_2 Lu3_7 3.317479 1_555
In5_2 Lu3_3 3.317479 1_555
In5_3 Pt2_3 2.977341 1_555
In5_3 Lu8_0 3.137039 1_566
In5_3 Lu8_4 3.137039 1_566
In5_3 Lu2_3 3.141335 1_555
In5_3 Lu2_7 3.141335 1_555
In5_3 Lu5_3 3.307050 1_555
In5_3 Lu5_7 3.307050 1_555
In5_3 Lu3_6 3.317479 1_556
In5_3 Lu3_2 3.317479 1_556
In5_4 Pt2_4 2.977341 1_555
In5_4 Lu8_7 3.137039 1_555
In5_4 Lu8_3 3.137039 1_655
In5_4 Lu2_4 3.141335 1_555
In5_4 Lu2_0 3.141335 1_655
In5_4 Lu5_4 3.307050 1_555
In5_4 Lu5_0 3.307050 1_655
In5_4 Lu3_1 3.317479 1_655
In5_4 Lu3_5 3.317479 1_555
In5_5 Pt2_5 2.977341 1_555
In5_5 Lu8_2 3.137039 1_656
In5_5 Lu8_6 3.137039 1_556
In5_5 Lu2_1 3.141335 1_655
In5_5 Lu2_5 3.141335 1_555
In5_5 Lu5_5 3.307050 1_555
In5_5 Lu5_1 3.307050 1_655
In5_5 Lu3_0 3.317479 1_656
In5_5 Lu3_4 3.317479 1_556
In5_6 Pt2_6 2.977341 1_555
In5_6 Lu8_5 3.137039 1_565
In5_6 Lu8_1 3.137039 1_665
In5_6 Lu2_6 3.141335 1_555
In5_6 Lu2_2 3.141335 1_655
In5_6 Lu5_6 3.307050 1_555
In5_6 Lu5_2 3.307050 1_655
In5_6 Lu3_3 3.317479 1_655
In5_6 Lu3_7 3.317479 1_555
In5_7 Pt2_7 2.977341 1_555
In5_7 Lu8_0 3.137039 1_666
In5_7 Lu8_4 3.137039 1_566
In5_7 Lu2_3 3.141335 1_655
In5_7 Lu2_7 3.141335 1_555
In5_7 Lu5_3 3.307050 1_655
In5_7 Lu5_7 3.307050 1_555
In5_7 Lu3_2 3.317479 1_656
In5_7 Lu3_6 3.317479 1_556
In6_0 Pt1_2 2.977341 1_545
In6_0 Lu9_0 3.137039 1_555
In6_0 Lu9_4 3.137039 1_555
In6_0 Lu1_2 3.141335 1_545
In6_0 Lu1_6 3.141335 1_545
In6_0 Lu6_4 3.307050 1_555
In6_0 Lu6_0 3.307050 1_555
In6_0 Lu0_4 3.317479 1_555
In6_0 Lu0_0 3.317479 1_555
In6_1 Pt1_3 2.977341 1_545
In6_1 Lu9_1 3.137039 1_555
In6_1 Lu9_5 3.137039 1_555
In6_1 Lu1_3 3.141335 1_545
In6_1 Lu1_7 3.141335 1_545
In6_1 Lu6_5 3.307050 1_555
In6_1 Lu6_1 3.307050 1_555
In6_1 Lu0_1 3.317479 1_555
In6_1 Lu0_5 3.317479 1_555
In6_2 Pt1_0 2.977341 1_555
In6_2 Lu9_2 3.137039 1_555
In6_2 Lu9_6 3.137039 1_555
In6_2 Lu1_4 3.141335 1_555
In6_2 Lu1_0 3.141335 1_555
In6_2 Lu6_6 3.307050 1_555
In6_2 Lu6_2 3.307050 1_555
In6_2 Lu0_6 3.317479 1_555
In6_2 Lu0_2 3.317479 1_555
In6_3 Pt1_1 2.977341 1_555
In6_3 Lu9_3 3.137039 1_555
In6_3 Lu9_7 3.137039 1_555
In6_3 Lu1_1 3.141335 1_555
In6_3 Lu1_5 3.141335 1_555
In6_3 Lu6_3 3.307050 1_555
In6_3 Lu6_7 3.307050 1_555
In6_3 Lu0_7 3.317479 1_555
In6_3 Lu0_3 3.317479 1_555
In6_4 Pt1_6 2.977341 1_545
In6_4 Lu9_4 3.137039 1_555
In6_4 Lu9_0 3.137039 1_655
In6_4 Lu1_6 3.141335 1_545
In6_4 Lu1_2 3.141335 1_645
In6_4 Lu6_0 3.307050 1_655
In6_4 Lu6_4 3.307050 1_555
In6_4 Lu0_4 3.317479 1_555
In6_4 Lu0_0 3.317479 1_655
In6_5 Pt1_7 2.977341 1_545
In6_5 Lu9_1 3.137039 1_655
In6_5 Lu9_5 3.137039 1_555
In6_5 Lu1_3 3.141335 1_645
In6_5 Lu1_7 3.141335 1_545
In6_5 Lu6_5 3.307050 1_555
In6_5 Lu6_1 3.307050 1_655
In6_5 Lu0_1 3.317479 1_655
In6_5 Lu0_5 3.317479 1_555
In6_6 Pt1_4 2.977341 1_555
In6_6 Lu9_2 3.137039 1_655
In6_6 Lu9_6 3.137039 1_555
In6_6 Lu1_4 3.141335 1_555
In6_6 Lu1_0 3.141335 1_655
In6_6 Lu6_6 3.307050 1_555
In6_6 Lu6_2 3.307050 1_655
In6_6 Lu0_2 3.317479 1_655
In6_6 Lu0_6 3.317479 1_555
In6_7 Pt1_5 2.977341 1_555
In6_7 Lu9_3 3.137039 1_655
In6_7 Lu9_7 3.137039 1_555
In6_7 Lu1_5 3.141335 1_555
In6_7 Lu1_1 3.141335 1_655
In6_7 Lu6_7 3.307050 1_555
In6_7 Lu6_3 3.307050 1_655
In6_7 Lu0_7 3.317479 1_555
In6_7 Lu0_3 3.317479 1_655
In7_0 Pt0_2 2.977341 1_555
In7_0 Lu9_4 3.137039 1_555
In7_0 Lu9_0 3.137039 1_555
In7_0 Lu0_6 3.141335 1_555
In7_0 Lu0_2 3.141335 1_555
In7_0 Lu7_0 3.307050 1_555
In7_0 Lu7_4 3.307050 1_555
In7_0 Lu1_0 3.317479 1_555
In7_0 Lu1_4 3.317479 1_555
In7_1 Pt0_3 2.977341 1_555
In7_1 Lu9_1 3.137039 1_555
In7_1 Lu9_5 3.137039 1_555
In7_1 Lu0_3 3.141335 1_555
In7_1 Lu0_7 3.141335 1_555
In7_1 Lu7_1 3.307050 1_555
In7_1 Lu7_5 3.307050 1_555
In7_1 Lu1_1 3.317479 1_555
In7_1 Lu1_5 3.317479 1_555
In7_2 Pt0_0 2.977341 1_565
In7_2 Lu9_2 3.137039 1_555
In7_2 Lu9_6 3.137039 1_555
In7_2 Lu0_4 3.141335 1_565
In7_2 Lu0_0 3.141335 1_565
In7_2 Lu7_2 3.307050 1_555
In7_2 Lu7_6 3.307050 1_555
In7_2 Lu1_2 3.317479 1_555
In7_2 Lu1_6 3.317479 1_555
In7_3 Pt0_1 2.977341 1_565
In7_3 Lu9_3 3.137039 1_555
In7_3 Lu9_7 3.137039 1_555
In7_3 Lu0_5 3.141335 1_565
In7_3 Lu0_1 3.141335 1_565
In7_3 Lu7_7 3.307050 1_555
In7_3 Lu7_3 3.307050 1_555
In7_3 Lu1_7 3.317479 1_555
In7_3 Lu1_3 3.317479 1_555
In7_4 Pt0_6 2.977341 1_555
In7_4 Lu9_0 3.137039 1_655
In7_4 Lu9_4 3.137039 1_555
In7_4 Lu0_2 3.141335 1_655
In7_4 Lu0_6 3.141335 1_555
In7_4 Lu7_0 3.307050 1_655
In7_4 Lu7_4 3.307050 1_555
In7_4 Lu1_0 3.317479 1_655
In7_4 Lu1_4 3.317479 1_555
In7_5 Pt0_7 2.977341 1_555
In7_5 Lu9_5 3.137039 1_555
In7_5 Lu9_1 3.137039 1_655
In7_5 Lu0_7 3.141335 1_555
In7_5 Lu0_3 3.141335 1_655
In7_5 Lu7_1 3.307050 1_655
In7_5 Lu7_5 3.307050 1_555
In7_5 Lu1_5 3.317479 1_555
In7_5 Lu1_1 3.317479 1_655
In7_6 Pt0_4 2.977341 1_565
In7_6 Lu9_2 3.137039 1_655
In7_6 Lu9_6 3.137039 1_555
In7_6 Lu0_0 3.141335 1_665
In7_6 Lu0_4 3.141335 1_565
In7_6 Lu7_2 3.307050 1_655
In7_6 Lu7_6 3.307050 1_555
In7_6 Lu1_2 3.317479 1_655
In7_6 Lu1_6 3.317479 1_555
In7_7 Pt0_5 2.977341 1_565
In7_7 Lu9_3 3.137039 1_655
In7_7 Lu9_7 3.137039 1_555
In7_7 Lu0_5 3.141335 1_565
In7_7 Lu0_1 3.141335 1_665
In7_7 Lu7_3 3.307050 1_655
In7_7 Lu7_7 3.307050 1_555
In7_7 Lu1_7 3.317479 1_555
In7_7 Lu1_3 3.317479 1_655
