# generated using pymatgen
data_CaLaFeCuO6
_symmetry_space_group_name_H-M   'P 1'
_cell_length_a   5.52497988
_cell_length_b   7.61517951
_cell_length_c   5.53136301
_cell_angle_alpha   89.99462032
_cell_angle_beta   89.99803734
_cell_angle_gamma   89.38965469
_symmetry_Int_Tables_number   1
_chemical_formula_structural   CaLaFeCuO6
_chemical_formula_sum   'Ca2 La2 Fe2 Cu2 O12'
_cell_volume   232.71177750
_cell_formula_units_Z   2
loop_
 _symmetry_equiv_pos_site_id
 _symmetry_equiv_pos_as_xyz
  1  'x, y, z'
loop_
 _atom_site_type_symbol
 _atom_site_label
 _atom_site_symmetry_multiplicity
 _atom_site_fract_x
 _atom_site_fract_y
 _atom_site_fract_z
 _atom_site_occupancy
  Ca  Ca0  1  0.50878000  0.25054300  0.54329200  1
  Ca  Ca1  1  0.00882100  0.75045000  0.95668300  1
  La  La0  1  0.99398200  0.24942700  0.03072300  1
  La  La1  1  0.49410100  0.74950900  0.46920300  1
  Fe  Fe0  1  0.49931100  0.50046400  0.99985200  1
  Fe  Fe1  1  0.99927800  0.00045800  0.50011300  1
  Cu  Cu0  1  0.50029400  0.99961100  0.00087600  1
  Cu  Cu1  1  0.00039700  0.49963600  0.49907700  1
  O  O0  1  0.58228800  0.75531400  0.01672700  1
  O  O1  1  0.08213400  0.25541100  0.48322500  1
  O  O2  1  0.20963600  0.95829000  0.21788900  1
  O  O3  1  0.70964100  0.45829300  0.28220800  1
  O  O4  1  0.21699900  0.54229800  0.21159800  1
  O  O5  1  0.71697000  0.04227600  0.28833700  1
  O  O6  1  0.92792700  0.74452400  0.52090600  1
  O  O7  1  0.42782400  0.24452400  0.97919800  1
  O  O8  1  0.28435600  0.53657200  0.72299900  1
  O  O9  1  0.78429500  0.03658800  0.77703200  1
  O  O10  1  0.27642900  0.96287800  0.71758500  1
  O  O11  1  0.77653000  0.46293900  0.78247500  1
loop_
_geom_bond_atom_site_label_1
_geom_bond_atom_site_label_2
_geom_bond_distance
_geom_bond_site_symmetry_2
Ca0 O1 2.380420 1_555
Ca0 O5 2.405967 1_555
Ca0 O3 2.420099 1_555
Ca0 O7 2.452788 1_555
Ca0 O9 2.567152 1_555
Ca0 O11 2.570276 1_555
Ca0 O8 2.685648 1_555
Ca0 O10 2.726843 1_545
Ca1 O0 2.379762 1_456
Ca1 O4 2.405105 1_556
Ca1 O2 2.421058 1_556
Ca1 O6 2.452048 1_455
Ca1 O8 2.566794 1_555
Ca1 O10 2.569524 1_555
Ca1 O9 2.686338 1_465
Ca1 O11 2.725746 1_455
La0 O7 2.413737 1_654
La0 O11 2.435298 1_554
La0 O9 2.445169 1_554
La0 O1 2.550418 1_655
La0 O3 2.622955 1_555
La0 O5 2.629113 1_555
La0 O2 2.711121 1_645
La0 O4 2.748151 1_655
La1 O6 2.413787 1_555
La1 O10 2.435712 1_555
La1 O8 2.445934 1_555
La1 O0 2.550246 1_555
La1 O2 2.622370 1_555
La1 O4 2.629873 1_555
La1 O3 2.711106 1_555
La1 O5 2.746929 1_565
Fe0 O8 1.955569 1_555
Fe0 O11 1.965682 1_555
Fe0 O3 1.971009 1_556
Fe0 O4 1.973711 1_556
Fe0 O7 1.996048 1_555
Fe0 O0 2.001076 1_556
Fe1 O9 1.955948 1_555
Fe1 O10 1.965800 1_645
Fe1 O2 1.970503 1_645
Fe1 O5 1.973802 1_555
Fe1 O6 1.995869 1_545
Fe1 O1 2.001664 1_655
Cu0 O7 1.907140 1_564
Cu0 O0 1.912037 1_555
Cu0 O10 2.017690 1_554
Cu0 O5 2.018777 1_565
Cu0 O9 2.020798 1_564
Cu0 O2 2.032076 1_555
Cu1 O6 1.907027 1_455
Cu1 O1 1.911199 1_555
Cu1 O11 2.018010 1_455
Cu1 O4 2.018495 1_555
Cu1 O8 2.020934 1_555
Cu1 O3 2.032162 1_455
