# generated using pymatgen
data_Sr3MgRhO6
_symmetry_space_group_name_H-M   'P 1'
_cell_length_a   6.73585394
_cell_length_b   6.73585394
_cell_length_c   6.73585371
_cell_angle_alpha   92.58943907
_cell_angle_beta   92.58943907
_cell_angle_gamma   92.58943440
_symmetry_Int_Tables_number   1
_chemical_formula_structural   Sr3MgRhO6
_chemical_formula_sum   'Sr6 Mg2 Rh2 O12'
_cell_volume   304.65191186
_cell_formula_units_Z   2
loop_
 _symmetry_equiv_pos_site_id
 _symmetry_equiv_pos_as_xyz
  1  'x, y, z'
loop_
 _atom_site_type_symbol
 _atom_site_label
 _atom_site_symmetry_multiplicity
 _atom_site_fract_x
 _atom_site_fract_y
 _atom_site_fract_z
 _atom_site_occupancy
  Sr  Sr0  1  0.61544600  0.25000000  0.88455400  1
  Sr  Sr1  1  0.88455400  0.61544600  0.25000000  1
  Sr  Sr2  1  0.75000000  0.11544600  0.38455400  1
  Sr  Sr3  1  0.38455400  0.75000000  0.11544600  1
  Sr  Sr4  1  0.11544600  0.38455400  0.75000000  1
  Sr  Sr5  1  0.25000000  0.88455400  0.61544600  1
  Mg  Mg0  1  0.25000000  0.25000000  0.25000000  1
  Mg  Mg1  1  0.75000000  0.75000000  0.75000000  1
  Rh  Rh0  1  0.00000000  0.00000000  0.00000000  1
  Rh  Rh1  1  0.50000000  0.50000000  0.50000000  1
  O  O0  1  0.59366800  0.78748700  0.46294800  1
  O  O1  1  0.46294800  0.59366800  0.78748700  1
  O  O2  1  0.78748700  0.46294800  0.59366800  1
  O  O3  1  0.90633200  0.03705200  0.71251300  1
  O  O4  1  0.71251300  0.90633200  0.03705200  1
  O  O5  1  0.03705200  0.71251300  0.90633200  1
  O  O6  1  0.40633200  0.21251300  0.53705200  1
  O  O7  1  0.53705200  0.40633200  0.21251300  1
  O  O8  1  0.21251300  0.53705200  0.40633200  1
  O  O9  1  0.09366800  0.96294800  0.28748700  1
  O  O10  1  0.96294800  0.28748700  0.09366800  1
  O  O11  1  0.28748700  0.09366800  0.96294800  1
loop_
_geom_bond_atom_site_label_1
_geom_bond_atom_site_label_2
_geom_bond_distance
_geom_bond_site_symmetry_2
Mg0 O11 2.189835 1_554
Mg0 O6 2.189835 1_555
Mg0 O10 2.189835 1_455
Mg0 O8 2.189835 1_555
Mg0 O9 2.189835 1_545
Mg0 O7 2.189835 1_555
Mg1 O0 2.189835 1_555
Mg1 O4 2.189835 1_556
Mg1 O2 2.189835 1_555
Mg1 O5 2.189835 1_655
Mg1 O1 2.189835 1_555
Mg1 O3 2.189835 1_565
O0 Rh1 2.039065 1_555
O0 Sr2 2.492632 1_565
O0 Sr5 2.670641 1_555
O0 Sr3 2.672701 1_555
O0 Sr1 2.747438 1_555
O1 Rh1 2.039065 1_555
O1 Sr3 2.492632 1_556
O1 Sr0 2.670641 1_555
O1 Sr4 2.672701 1_555
O1 Sr5 2.747438 1_555
O2 Rh1 2.039065 1_555
O2 Sr4 2.492632 1_655
O2 Sr1 2.670641 1_555
O2 Sr2 2.672701 1_555
O2 Sr0 2.747438 1_555
O3 Rh0 2.039065 1_656
O3 Sr2 2.492632 1_555
O3 Sr5 2.670641 1_645
O3 Sr4 2.672701 1_655
O3 Sr0 2.747438 1_555
O4 Rh0 2.039065 1_665
O4 Sr3 2.492632 1_555
O4 Sr0 2.670641 1_564
O4 Sr2 2.672701 1_565
O4 Sr1 2.747438 1_555
O5 Rh0 2.039065 1_566
O5 Sr4 2.492632 1_555
O5 Sr1 2.670641 1_456
O5 Sr3 2.672701 1_556
O5 Sr5 2.747438 1_555
O6 Rh1 2.039065 1_555
O6 Sr5 2.492632 1_545
O6 Sr2 2.670641 1_555
O6 Sr0 2.672701 1_555
O6 Sr4 2.747438 1_555
O7 Rh1 2.039065 1_555
O7 Sr0 2.492632 1_554
O7 Sr3 2.670641 1_555
O7 Sr1 2.672701 1_555
O7 Sr2 2.747438 1_555
O8 Rh1 2.039065 1_555
O8 Sr1 2.492632 1_455
O8 Sr4 2.670641 1_555
O8 Sr5 2.672701 1_555
O8 Sr3 2.747438 1_555
O9 Rh0 2.039065 1_565
O9 Sr5 2.492632 1_555
O9 Sr2 2.670641 1_465
O9 Sr1 2.672701 1_455
O9 Sr3 2.747438 1_555
O10 Rh0 2.039065 1_655
O10 Sr1 2.492632 1_555
O10 Sr4 2.670641 1_654
O10 Sr0 2.672701 1_554
O10 Sr2 2.747438 1_555
O11 Rh0 2.039065 1_556
O11 Sr0 2.492632 1_555
O11 Sr3 2.670641 1_546
O11 Sr5 2.672701 1_545
O11 Sr4 2.747438 1_555
