# generated using pymatgen
data_NaCoO2
_symmetry_space_group_name_H-M   'P 1'
_cell_length_a   5.74343653
_cell_length_b   5.74343653
_cell_length_c   5.74343614
_cell_angle_alpha   30.47616507
_cell_angle_beta   30.47616507
_cell_angle_gamma   30.47615493
_symmetry_Int_Tables_number   1
_chemical_formula_structural   NaCoO2
_chemical_formula_sum   'Na1 Co1 O2'
_cell_volume   43.19913658
_cell_formula_units_Z   1
loop_
 _symmetry_equiv_pos_site_id
 _symmetry_equiv_pos_as_xyz
  1  'x, y, z'
loop_
 _atom_site_type_symbol
 _atom_site_label
 _atom_site_symmetry_multiplicity
 _atom_site_fract_x
 _atom_site_fract_y
 _atom_site_fract_z
 _atom_site_occupancy
  Na  Na0  1  0.83102500  0.83102500  0.83102500  1
  Co  Co0  1  0.00056500  0.00056500  0.00056500  1
  O  O0  1  0.60167200  0.60167200  0.60167200  1
  O  O1  1  0.39909400  0.39909400  0.39909400  1
loop_
_geom_bond_atom_site_label_1
_geom_bond_atom_site_label_2
_geom_bond_distance
_geom_bond_site_symmetry_2
Na0 O1 2.378790 1_655
Na0 O1 2.378790 1_565
Na0 O1 2.378791 1_556
Na0 O0 2.439785 1_556
Na0 O0 2.439785 1_565
Na0 O0 2.439785 1_655
Co0 O1 2.045480 1_545
Co0 O1 2.045480 1_455
Co0 O1 2.045481 1_554
Co0 O0 2.048614 1_454
Co0 O0 2.048614 1_544
Co0 O0 2.048614 1_445
