# generated using pymatgen
data_SrMg6Bi
_symmetry_space_group_name_H-M   'P 1'
_cell_length_a   5.24559200
_cell_length_b   6.99989000
_cell_length_c   11.83252500
_cell_angle_alpha   90.00000000
_cell_angle_beta   90.00000000
_cell_angle_gamma   90.00000000
_symmetry_Int_Tables_number   1
_chemical_formula_structural   SrMg6Bi
_chemical_formula_sum   'Sr2 Mg12 Bi2'
_cell_volume   434.47336181
_cell_formula_units_Z   2
loop_
 _symmetry_equiv_pos_site_id
 _symmetry_equiv_pos_as_xyz
  1  'x, y, z'
loop_
 _atom_site_type_symbol
 _atom_site_label
 _atom_site_symmetry_multiplicity
 _atom_site_fract_x
 _atom_site_fract_y
 _atom_site_fract_z
 _atom_site_occupancy
  Sr  Sr0  1  0.00000000  0.50000000  0.32956300  1
  Sr  Sr1  1  0.00000000  0.00000000  0.82956300  1
  Mg  Mg0  1  0.00000000  0.24179200  0.07776000  1
  Mg  Mg1  1  0.00000000  0.75820800  0.07776000  1
  Mg  Mg2  1  0.00000000  0.50000000  0.83995300  1
  Mg  Mg3  1  0.50000000  0.27509500  0.92439100  1
  Mg  Mg4  1  0.50000000  0.72490500  0.92439100  1
  Mg  Mg5  1  0.50000000  0.50000000  0.66879200  1
  Mg  Mg6  1  0.00000000  0.74179200  0.57776000  1
  Mg  Mg7  1  0.00000000  0.25820800  0.57776000  1
  Mg  Mg8  1  0.00000000  0.00000000  0.33995300  1
  Mg  Mg9  1  0.50000000  0.77509500  0.42439100  1
  Mg  Mg10  1  0.50000000  0.22490500  0.42439100  1
  Mg  Mg11  1  0.50000000  0.00000000  0.16879200  1
  Bi  Bi0  1  0.50000000  0.50000000  0.15738900  1
  Bi  Bi1  1  0.50000000  0.00000000  0.65738900  1
loop_
_geom_bond_atom_site_label_1
_geom_bond_atom_site_label_2
_geom_bond_distance
_geom_bond_site_symmetry_2
Mg0 Mg3 3.197920 1_554
Mg0 Mg3 3.197920 1_454
Mg0 Mg11 3.302106 1_455
Mg0 Mg11 3.302106 1_555
Mg0 Mg2 3.344337 1_554
Mg0 Mg1 3.385035 1_545
Mg0 Sr1 3.389601 1_554
Mg0 Sr0 3.484825 1_555
Mg0 Mg8 3.534053 1_555
Mg1 Mg4 3.197920 1_554
Mg1 Mg4 3.197920 1_454
Mg1 Mg11 3.302106 1_465
Mg1 Mg11 3.302106 1_565
Mg1 Mg2 3.344337 1_554
Mg1 Sr1 3.389601 1_564
Mg1 Sr0 3.484825 1_555
Mg1 Mg8 3.534053 1_565
Mg2 Mg4 3.218034 1_455
Mg2 Mg3 3.218034 1_555
Mg2 Mg4 3.218034 1_555
Mg2 Mg3 3.218034 1_455
Mg2 Mg5 3.313724 1_455
Mg2 Mg5 3.313724 1_555
Mg2 Sr1 3.502104 1_565
Mg2 Sr1 3.502104 1_555
Mg2 Mg6 3.534053 1_555
Mg2 Mg7 3.534053 1_555
Mg3 Mg4 3.148621 1_555
Mg3 Mg5 3.409595 1_555
Mg3 Sr1 3.441821 1_655
Mg3 Sr1 3.441821 1_555
Mg4 Mg5 3.409595 1_555
Mg4 Sr1 3.441821 1_565
Mg4 Sr1 3.441821 1_665
Mg5 Mg6 3.302106 1_655
Mg5 Mg7 3.302106 1_655
Mg5 Mg6 3.302106 1_555
Mg5 Mg7 3.302106 1_555
Mg5 Mg9 3.474341 1_555
Mg6 Mg9 3.197920 1_455
Mg6 Mg9 3.197920 1_555
Mg6 Mg8 3.344337 1_565
Mg6 Mg7 3.385035 1_555
Mg6 Sr0 3.389601 1_555
Mg6 Sr1 3.484825 1_565
Mg7 Mg8 3.344337 1_555
Mg7 Sr0 3.389601 1_555
Mg7 Sr1 3.484825 1_555
Mg8 Mg9 3.218034 1_445
Mg8 Mg9 3.218034 1_545
Mg8 Sr0 3.502104 1_545
Mg8 Sr0 3.502104 1_555
Mg9 Sr0 3.441821 1_655
Mg9 Sr0 3.441821 1_555
Mg10 Mg9 3.148621 1_545
Mg10 Mg7 3.197920 1_655
Mg10 Mg7 3.197920 1_555
Mg10 Mg8 3.218034 1_555
Mg10 Mg8 3.218034 1_655
Mg10 Mg11 3.409595 1_555
Mg10 Sr0 3.441821 1_655
Mg10 Sr0 3.441821 1_555
Mg10 Mg5 3.474341 1_555
Mg11 Mg8 3.313724 1_655
Mg11 Mg8 3.313724 1_555
Mg11 Mg9 3.409595 1_545
Mg11 Mg4 3.474341 1_544
Mg11 Mg3 3.474341 1_554
Bi0 Mg3 3.174784 1_554
Bi0 Mg4 3.174784 1_554
Bi0 Sr0 3.321063 1_655
Bi0 Sr0 3.321063 1_555
Bi0 Mg1 3.321689 1_555
Bi0 Mg1 3.321689 1_655
Bi0 Mg0 3.321689 1_555
Bi0 Mg0 3.321689 1_655
Bi0 Mg11 3.502545 1_565
Bi0 Mg11 3.502545 1_555
Bi1 Mg10 3.174784 1_555
Bi1 Mg9 3.174784 1_545
Bi1 Sr1 3.321063 1_655
Bi1 Sr1 3.321063 1_555
Bi1 Mg7 3.321689 1_655
Bi1 Mg6 3.321689 1_645
Bi1 Mg6 3.321689 1_545
Bi1 Mg7 3.321689 1_555
Bi1 Mg5 3.502545 1_555
Bi1 Mg5 3.502545 1_545
