# generated using pymatgen
data_BaCaNdSbO6
_symmetry_space_group_name_H-M   'P 1'
_cell_length_a   5.96322022
_cell_length_b   6.02514912
_cell_length_c   8.51756007
_cell_angle_alpha   90.32758318
_cell_angle_beta   90.63852286
_cell_angle_gamma   89.97218323
_symmetry_Int_Tables_number   1
_chemical_formula_structural   BaCaNdSbO6
_chemical_formula_sum   'Ba2 Ca2 Nd2 Sb2 O12'
_cell_volume   306.00586235
_cell_formula_units_Z   2
loop_
 _symmetry_equiv_pos_site_id
 _symmetry_equiv_pos_as_xyz
  1  'x, y, z'
loop_
 _atom_site_type_symbol
 _atom_site_label
 _atom_site_symmetry_multiplicity
 _atom_site_fract_x
 _atom_site_fract_y
 _atom_site_fract_z
 _atom_site_occupancy
  Ba  Ba0  1  0.50613513  0.53000342  0.25001823  1
  Ba  Ba1  1  0.49386487  0.46999658  0.74998177  1
  Ca  Ca0  1  0.99118159  0.03754506  0.25474654  1
  Ca  Ca1  1  0.00881841  0.96245494  0.74525346  1
  Nd  Nd0  1  0.00000000  0.50000000  -0.00000000  1
  Nd  Nd1  1  0.50000000  -0.00000000  0.50000000  1
  Sb  Sb0  1  0.50000000  -0.00000000  -0.00000000  1
  Sb  Sb1  1  0.00000000  0.50000000  0.50000000  1
  O  O0  1  0.22962184  0.18860724  0.93772570  1
  O  O1  1  0.27144664  0.69343171  0.52452210  1
  O  O2  1  0.77037816  0.81139276  0.06227430  1
  O  O3  1  0.72855336  0.30656829  0.47547790  1
  O  O4  1  0.30550229  0.73322613  0.96275447  1
  O  O5  1  0.17895631  0.22018703  0.55555709  1
  O  O6  1  0.69449771  0.26677387  0.03724553  1
  O  O7  1  0.82104369  0.77981297  0.44444291  1
  O  O8  1  0.39411890  0.00350143  0.22865072  1
  O  O9  1  0.06005599  0.43971799  0.27004544  1
  O  O10  1  0.60588110  0.99649857  0.77134928  1
  O  O11  1  0.93994401  0.56028201  0.72995456  1
loop_
_geom_bond_atom_site_label_1
_geom_bond_atom_site_label_2
_geom_bond_distance
_geom_bond_site_symmetry_2
Ba0 O6 2.659378 1_555
Ba0 O3 2.688931 1_555
Ba0 O9 2.722785 1_555
Ba0 O2 2.829191 1_555
Ba0 O7 2.905027 1_555
Ba0 O1 2.905200 1_555
Ba0 O8 2.935934 1_565
Ba0 O4 2.980778 1_554
Ba0 O8 3.245805 1_555
Ba0 O9 3.350013 1_655
Ba1 O4 2.659378 1_555
Ba1 O1 2.688931 1_555
Ba1 O11 2.722785 1_555
Ba1 O0 2.829191 1_555
Ba1 O5 2.905027 1_555
Ba1 O3 2.905200 1_555
Ba1 O10 2.935934 1_545
Ba1 O6 2.980778 1_556
Ba1 O10 3.245805 1_555
Ba1 O11 3.350013 1_455
Ca0 O8 2.424015 1_655
Ca0 O9 2.460385 1_655
Ca0 O7 2.473495 1_545
Ca0 O2 2.491200 1_545
Ca0 O6 2.902319 1_555
Ca0 O3 2.939914 1_555
Ca0 O5 2.989070 1_655
Ca1 O10 2.424015 1_455
Ca1 O11 2.460385 1_455
Ca1 O5 2.473495 1_565
Ca1 O0 2.491200 1_565
Ca1 O4 2.902319 1_555
Ca1 O1 2.939914 1_555
Ca1 O7 2.989070 1_455
Nd0 O6 2.326936 1_455
Nd0 O4 2.326936 1_554
Nd0 O11 2.354110 1_454
Nd0 O9 2.354110 1_555
Nd0 O0 2.383000 1_554
Nd0 O2 2.383000 1_455
Nd1 O1 2.307859 1_545
Nd1 O3 2.307859 1_555
Nd1 O7 2.378999 1_545
Nd1 O5 2.378999 1_555
Nd1 O8 2.389335 1_555
Nd1 O10 2.389335 1_545
O0 Sb0 2.039208 1_556
O1 Sb1 2.003397 1_555
O2 Sb0 2.039208 1_565
O3 Sb1 2.003397 1_655
O4 Sb0 2.004299 1_566
O5 Sb1 2.049678 1_555
O6 Sb0 2.004299 1_555
O7 Sb1 2.049678 1_655
O8 Sb0 2.054011 1_555
O9 Sb1 2.025800 1_555
O10 Sb0 2.054011 1_566
O11 Sb1 2.025800 1_655
