# generated using pymatgen
data_Ca3Si4
_symmetry_space_group_name_H-M   'P 1'
_cell_length_a   8.53594114
_cell_length_b   8.53594114
_cell_length_c   14.90513477
_cell_angle_alpha   90.00000000
_cell_angle_beta   90.00000000
_cell_angle_gamma   119.99999235
_symmetry_Int_Tables_number   1
_chemical_formula_structural   Ca3Si4
_chemical_formula_sum   'Ca18 Si24'
_cell_volume   940.52294733
_cell_formula_units_Z   6
loop_
 _symmetry_equiv_pos_site_id
 _symmetry_equiv_pos_as_xyz
  1  'x, y, z'
loop_
 _atom_site_type_symbol
 _atom_site_label
 _atom_site_symmetry_multiplicity
 _atom_site_fract_x
 _atom_site_fract_y
 _atom_site_fract_z
 _atom_site_occupancy
  Ca  Ca0  1  -0.00000000  -0.00000000  -0.00000000  1
  Ca  Ca1  1  -0.00000000  -0.00000000  0.50000000  1
  Ca  Ca2  1  0.66666700  0.33333300  0.75000000  1
  Ca  Ca3  1  0.33333300  0.66666700  0.25000000  1
  Ca  Ca4  1  0.57856263  0.90636345  0.90257140  1
  Ca  Ca5  1  0.42143737  0.09363655  0.09742860  1
  Ca  Ca6  1  0.32780182  0.42143737  0.90257140  1
  Ca  Ca7  1  0.42143737  0.09363655  0.40257140  1
  Ca  Ca8  1  0.67219818  0.57856263  0.09742860  1
  Ca  Ca9  1  0.57856263  0.90636345  0.59742860  1
  Ca  Ca10  1  0.09363655  0.67219818  0.90257140  1
  Ca  Ca11  1  0.67219818  0.57856263  0.40257140  1
  Ca  Ca12  1  0.90636345  0.32780182  0.09742860  1
  Ca  Ca13  1  0.32780182  0.42143737  0.59742860  1
  Ca  Ca14  1  0.90636345  0.32780182  0.40257140  1
  Ca  Ca15  1  0.09363655  0.67219818  0.59742860  1
  Ca  Ca16  1  -0.00000000  -0.00000000  0.75000000  1
  Ca  Ca17  1  -0.00000000  -0.00000000  0.25000000  1
  Si  Si0  1  0.61733410  0.67348526  0.75000000  1
  Si  Si1  1  0.38266590  0.32651474  0.25000000  1
  Si  Si2  1  0.05615016  0.38266590  0.75000000  1
  Si  Si3  1  0.94384984  0.61733410  0.25000000  1
  Si  Si4  1  0.32651474  0.94384984  0.75000000  1
  Si  Si5  1  0.67348526  0.05615016  0.25000000  1
  Si  Si6  1  0.33333300  0.66666700  0.75000000  1
  Si  Si7  1  0.66666700  0.33333300  0.25000000  1
  Si  Si8  1  0.66666700  0.33333300  0.94203663  1
  Si  Si9  1  0.33333300  0.66666700  0.05796337  1
  Si  Si10  1  0.33333300  0.66666700  0.44203663  1
  Si  Si11  1  0.66666700  0.33333300  0.55796337  1
  Si  Si12  1  0.90891701  0.26399941  0.88932607  1
  Si  Si13  1  0.09108299  0.73600059  0.11067393  1
  Si  Si14  1  0.35508240  0.09108299  0.88932607  1
  Si  Si15  1  0.09108299  0.73600059  0.38932607  1
  Si  Si16  1  0.64491760  0.90891701  0.11067393  1
  Si  Si17  1  0.90891701  0.26399941  0.61067393  1
  Si  Si18  1  0.73600059  0.64491760  0.88932607  1
  Si  Si19  1  0.64491760  0.90891701  0.38932607  1
  Si  Si20  1  0.26399941  0.35508240  0.11067393  1
  Si  Si21  1  0.35508240  0.09108299  0.61067393  1
  Si  Si22  1  0.26399941  0.35508240  0.38932607  1
  Si  Si23  1  0.73600059  0.64491760  0.61067393  1
loop_
_geom_bond_atom_site_label_1
_geom_bond_atom_site_label_2
_geom_bond_distance
_geom_bond_site_symmetry_2
Ca0 Si12 3.186834 1_454
Ca0 Si13 3.186834 1_545
Ca0 Si16 3.186834 1_445
Ca0 Si14 3.186834 1_554
Ca0 Si20 3.186834 1_555
Ca0 Si18 3.186834 1_444
Ca1 Si17 3.186834 1_455
Ca1 Si15 3.186834 1_545
Ca1 Si19 3.186834 1_445
Ca1 Si21 3.186834 1_555
Ca1 Si22 3.186834 1_555
Ca1 Si23 3.186834 1_445
Ca2 Si11 2.862332 1_555
Ca2 Si8 2.862332 1_555
Ca2 Si2 3.135335 1_655
Ca2 Si4 3.135342 1_545
Ca2 Si0 3.135352 1_555
Ca2 Si17 3.187877 1_555
Ca2 Si12 3.187877 1_555
Ca2 Si14 3.187882 1_555
Ca2 Si21 3.187882 1_555
Ca2 Si23 3.187884 1_555
Ca2 Si18 3.187884 1_555
Ca3 Si9 2.862332 1_555
Ca3 Si10 2.862332 1_555
Ca3 Si3 3.135335 1_455
Ca3 Si5 3.135342 1_565
Ca3 Si1 3.135352 1_555
Ca3 Si13 3.187877 1_555
Ca3 Si15 3.187877 1_555
Ca3 Si16 3.187882 1_555
Ca3 Si19 3.187882 1_555
Ca3 Si20 3.187884 1_555
Ca3 Si22 3.187884 1_555
Ca4 Si12 2.949854 1_565
Ca4 Si14 3.028525 1_565
Ca4 Si6 3.075166 1_555
Ca4 Si9 3.106384 1_556
Ca4 Si18 3.134412 1_555
Ca4 Si0 3.144902 1_555
Ca4 Si16 3.151203 1_556
Ca4 Si4 3.254403 1_555
Ca4 Si8 3.384331 1_565
Ca5 Si13 2.949854 1_545
Ca5 Si16 3.028525 1_545
Ca5 Si7 3.075166 1_555
Ca5 Si8 3.106384 1_554
Ca5 Si20 3.134412 1_555
Ca5 Si1 3.144902 1_555
Ca5 Si14 3.151203 1_554
Ca5 Si5 3.254403 1_555
Ca5 Si9 3.384331 1_545
Ca6 Si14 2.949849 1_555
Ca6 Si18 3.028518 1_555
Ca6 Si6 3.075171 1_555
Ca6 Si9 3.106390 1_556
Ca6 Si12 3.134420 1_455
Ca6 Si2 3.144914 1_555
Ca6 Si20 3.151204 1_556
Ca6 Si0 3.254396 1_555
Ca6 Si8 3.384331 1_555
Ca7 Si15 2.949854 1_545
Ca7 Si19 3.028525 1_545
Ca7 Si7 3.075166 1_555
Ca7 Si11 3.106384 1_555
Ca7 Si22 3.134412 1_555
Ca7 Si1 3.144902 1_555
Ca7 Si21 3.151203 1_555
Ca7 Si5 3.254403 1_555
Ca7 Si10 3.384331 1_545
Ca8 Si16 2.949849 1_555
Ca8 Si20 3.028518 1_555
Ca8 Si7 3.075171 1_555
Ca8 Si8 3.106390 1_554
Ca8 Si13 3.134420 1_655
Ca8 Si3 3.144914 1_555
Ca8 Si18 3.151204 1_554
Ca8 Si1 3.254396 1_555
Ca8 Si9 3.384331 1_555
Ca9 Si17 2.949854 1_565
Ca9 Si21 3.028525 1_565
Ca9 Si6 3.075166 1_555
Ca9 Si10 3.106384 1_555
Ca9 Si23 3.134412 1_555
Ca9 Si0 3.144902 1_555
Ca9 Si19 3.151203 1_555
Ca9 Si4 3.254403 1_555
Ca9 Si11 3.384331 1_565
Ca10 Si18 2.949858 1_455
Ca10 Si12 3.028518 1_455
Ca10 Si6 3.075160 1_555
Ca10 Si9 3.106378 1_556
Ca10 Si14 3.134419 1_565
Ca10 Si4 3.144909 1_555
Ca10 Si13 3.151205 1_556
Ca10 Si2 3.254391 1_555
Ca10 Si8 3.384331 1_455
Ca11 Si19 2.949849 1_555
Ca11 Si22 3.028518 1_555
Ca11 Si7 3.075171 1_555
Ca11 Si11 3.106390 1_555
Ca11 Si15 3.134420 1_655
Ca11 Si3 3.144914 1_555
Ca11 Si23 3.151204 1_555
Ca11 Si1 3.254396 1_555
Ca11 Si10 3.384331 1_555
Ca12 Si20 2.949858 1_655
Ca12 Si13 3.028518 1_655
Ca12 Si7 3.075160 1_555
Ca12 Si8 3.106378 1_554
Ca12 Si16 3.134419 1_545
Ca12 Si5 3.144909 1_555
Ca12 Si12 3.151205 1_554
Ca12 Si3 3.254391 1_555
Ca12 Si9 3.384331 1_655
Ca13 Si21 2.949849 1_555
Ca13 Si23 3.028518 1_555
Ca13 Si6 3.075171 1_555
Ca13 Si10 3.106390 1_555
Ca13 Si17 3.134420 1_455
Ca13 Si2 3.144914 1_555
Ca13 Si22 3.151204 1_555
Ca13 Si0 3.254396 1_555
Ca13 Si11 3.384331 1_555
Ca14 Si22 2.949858 1_655
Ca14 Si15 3.028518 1_655
Ca14 Si7 3.075160 1_555
Ca14 Si11 3.106378 1_555
Ca14 Si19 3.134419 1_545
Ca14 Si5 3.144909 1_555
Ca14 Si17 3.151205 1_555
Ca14 Si3 3.254391 1_555
Ca14 Si10 3.384331 1_655
Ca15 Si23 2.949858 1_455
Ca15 Si17 3.028518 1_455
Ca15 Si6 3.075160 1_555
Ca15 Si10 3.106378 1_555
Ca15 Si21 3.134419 1_565
Ca15 Si4 3.144909 1_555
Ca15 Si15 3.151205 1_555
Ca15 Si2 3.254391 1_555
Ca15 Si11 3.384331 1_455
Ca16 Si4 3.055087 1_545
Ca16 Si0 3.055092 1_445
Ca16 Si2 3.055095 1_555
Ca16 Si17 3.427429 1_455
Ca16 Si12 3.427429 1_455
Ca16 Si14 3.427429 1_555
Ca16 Si21 3.427429 1_555
Ca16 Si18 3.427430 1_445
Ca16 Si23 3.427430 1_445
Ca17 Si5 3.055087 1_455
Ca17 Si1 3.055092 1_555
Ca17 Si3 3.055095 1_445
Ca17 Si13 3.427429 1_545
Ca17 Si15 3.427429 1_545
Ca17 Si16 3.427429 1_445
Ca17 Si19 3.427429 1_445
Ca17 Si20 3.427430 1_555
Ca17 Si22 3.427430 1_555
Si0 Si18 2.375936 1_555
Si0 Si23 2.375936 1_555
Si0 Si6 2.395647 1_555
Si1 Si20 2.375936 1_555
Si1 Si22 2.375936 1_555
Si1 Si7 2.395647 1_555
Si2 Si6 2.395647 1_555
Si3 Si7 2.395647 1_555
Si4 Si6 2.395647 1_555
Si5 Si7 2.395647 1_555
Si10 Si15 2.543078 1_555
Si10 Si19 2.543084 1_555
Si10 Si22 2.543086 1_555
Si11 Si17 2.543078 1_555
Si11 Si21 2.543084 1_555
Si11 Si23 2.543086 1_555
Si12 Si2 2.375933 1_655
Si12 Si8 2.543078 1_555
Si13 Si3 2.375933 1_455
Si13 Si9 2.543078 1_555
Si14 Si4 2.375932 1_545
Si14 Si8 2.543084 1_555
Si15 Si3 2.375933 1_455
Si16 Si5 2.375932 1_565
Si16 Si9 2.543084 1_555
Si17 Si2 2.375933 1_655
Si18 Si8 2.543086 1_555
Si19 Si5 2.375932 1_565
Si20 Si9 2.543086 1_555
Si21 Si4 2.375932 1_545
