# generated using pymatgen
data_Nd2In3Cu
_symmetry_space_group_name_H-M   'P 1'
_cell_length_a   4.80676423
_cell_length_b   4.80676423
_cell_length_c   7.72979700
_cell_angle_alpha   90.00000000
_cell_angle_beta   90.00000000
_cell_angle_gamma   120.00000317
_symmetry_Int_Tables_number   1
_chemical_formula_structural   Nd2In3Cu
_chemical_formula_sum   'Nd2 In3 Cu1'
_cell_volume   154.66938114
_cell_formula_units_Z   1
loop_
 _symmetry_equiv_pos_site_id
 _symmetry_equiv_pos_as_xyz
  1  'x, y, z'
loop_
 _atom_site_type_symbol
 _atom_site_label
 _atom_site_symmetry_multiplicity
 _atom_site_fract_x
 _atom_site_fract_y
 _atom_site_fract_z
 _atom_site_occupancy
  Nd  Nd0  1  0.00000000  0.00000000  0.72515000  1
  Nd  Nd1  1  0.00000000  0.00000000  0.26335700  1
  In  In0  1  0.33333300  0.66666700  0.48326500  1
  In  In1  1  0.33333300  0.66666700  0.04971900  1
  In  In2  1  0.66666700  0.33333300  0.93786500  1
  Cu  Cu0  1  0.66666700  0.33333300  0.54064400  1
loop_
_geom_bond_atom_site_label_1
_geom_bond_atom_site_label_2
_geom_bond_distance
_geom_bond_site_symmetry_2
Nd0 Nd1 3.569566 1_555
Nd0 Nd1 4.160231 1_556
In0 Nd1 3.254399 1_565
In0 Nd1 3.254403 1_555
In0 Nd1 3.254403 1_665
In0 Nd0 3.346267 1_565
In0 Nd0 3.346271 1_555
In0 Nd0 3.346271 1_665
In0 In1 3.351223 1_555
In1 In2 2.906750 1_454
In1 In2 2.906750 1_564
In1 In2 2.906758 1_554
In1 Nd1 3.229349 1_565
In1 Nd1 3.229353 1_665
In1 Nd1 3.229353 1_555
In1 Nd0 3.741121 1_564
In1 Nd0 3.741124 1_554
In1 Nd0 3.741124 1_664
In2 Nd0 3.225707 1_655
In2 Nd0 3.225710 1_665
In2 Nd0 3.225710 1_555
Cu0 In0 2.810402 1_545
Cu0 In0 2.810402 1_655
Cu0 In0 2.810411 1_555
Cu0 In2 3.070438 1_555
Cu0 Nd0 3.120204 1_655
Cu0 Nd0 3.120208 1_665
Cu0 Nd0 3.120208 1_555
Cu0 Nd1 3.506521 1_655
Cu0 Nd1 3.506524 1_555
Cu0 Nd1 3.506524 1_665
