# generated using pymatgen
data_TbFeO3
_symmetry_space_group_name_H-M   'P 1'
_cell_length_a   5.30188447
_cell_length_b   5.62729075
_cell_length_c   7.63675994
_cell_angle_alpha   90.00000000
_cell_angle_beta   90.00000000
_cell_angle_gamma   90.00000000
_symmetry_Int_Tables_number   1
_chemical_formula_structural   TbFeO3
_chemical_formula_sum   'Tb4 Fe4 O12'
_cell_volume   227.84460714
_cell_formula_units_Z   4
loop_
 _symmetry_equiv_pos_site_id
 _symmetry_equiv_pos_as_xyz
  1  'x, y, z'
loop_
 _atom_site_type_symbol
 _atom_site_label
 _atom_site_symmetry_multiplicity
 _atom_site_fract_x
 _atom_site_fract_y
 _atom_site_fract_z
 _atom_site_occupancy
  Tb  Tb0  1  0.01845928  0.92972006  0.75000000  1
  Tb  Tb1  1  0.51845928  0.57027994  0.25000000  1
  Tb  Tb2  1  0.48154072  0.42972006  0.75000000  1
  Tb  Tb3  1  0.98154072  0.07027994  0.25000000  1
  Fe  Fe0  1  0.50000000  0.00000000  0.50000000  1
  Fe  Fe1  1  0.00000000  0.50000000  0.50000000  1
  Fe  Fe2  1  0.00000000  0.50000000  0.00000000  1
  Fe  Fe3  1  0.50000000  0.00000000  0.00000000  1
  O  O0  1  0.69107556  0.30610526  0.44259605  1
  O  O1  1  0.19107556  0.19389474  0.55740395  1
  O  O2  1  0.80892444  0.80610526  0.05740395  1
  O  O3  1  0.30892444  0.69389474  0.94259605  1
  O  O4  1  0.30892444  0.69389474  0.55740395  1
  O  O5  1  0.80892444  0.80610526  0.44259605  1
  O  O6  1  0.19107556  0.19389474  0.94259605  1
  O  O7  1  0.69107556  0.30610526  0.05740395  1
  O  O8  1  0.11245165  0.46070280  0.25000000  1
  O  O9  1  0.61245165  0.03929720  0.75000000  1
  O  O10  1  0.38754835  0.96070280  0.25000000  1
  O  O11  1  0.88754835  0.53929720  0.75000000  1
loop_
_geom_bond_atom_site_label_1
_geom_bond_atom_site_label_2
_geom_bond_distance
_geom_bond_site_symmetry_2
Fe0 O10 2.012304 1_545
Fe0 O9 2.012304 1_555
Fe0 O5 2.016268 1_545
Fe0 O1 2.016268 1_555
Fe0 O4 2.045880 1_545
Fe0 O0 2.045880 1_555
Fe1 O11 2.012304 1_455
Fe1 O8 2.012304 1_555
Fe1 O0 2.016268 1_455
Fe1 O4 2.016268 1_555
Fe1 O1 2.045880 1_555
Fe1 O5 2.045880 1_455
Fe2 O11 2.012304 1_454
Fe2 O8 2.012304 1_555
Fe2 O7 2.016268 1_455
Fe2 O3 2.016268 1_554
Fe2 O6 2.045880 1_554
Fe2 O2 2.045880 1_455
Fe3 O9 2.012304 1_554
Fe3 O10 2.012304 1_545
Fe3 O2 2.016268 1_545
Fe3 O6 2.016268 1_554
Fe3 O3 2.045880 1_544
Fe3 O7 2.045880 1_555
O0 Tb1 2.282718 1_555
O0 Tb3 2.509184 1_555
O0 Tb2 2.688705 1_555
O1 Tb0 2.282718 1_545
O1 Tb2 2.509184 1_555
O1 Tb3 2.688705 1_455
O2 Tb3 2.282718 1_565
O2 Tb1 2.509184 1_555
O2 Tb0 2.688705 1_654
O3 Tb2 2.282718 1_555
O3 Tb0 2.509184 1_555
O3 Tb1 2.688705 1_556
O4 Tb2 2.282718 1_555
O4 Tb0 2.509184 1_555
O4 Tb1 2.688705 1_555
O5 Tb3 2.282718 1_565
O5 Tb1 2.509184 1_555
O5 Tb0 2.688705 1_655
O6 Tb0 2.282718 1_545
O6 Tb2 2.509184 1_555
O6 Tb3 2.688705 1_456
O7 Tb1 2.282718 1_555
O7 Tb3 2.509184 1_555
O7 Tb2 2.688705 1_554
O8 Tb1 2.239182 1_555
O8 Tb3 2.304051 1_455
O9 Tb0 2.239182 1_645
O9 Tb2 2.304051 1_555
O10 Tb3 2.239182 1_465
O10 Tb1 2.304051 1_555
O11 Tb2 2.239182 1_555
O11 Tb0 2.304051 1_655
