# generated using pymatgen
data_Hg3Bi
_symmetry_space_group_name_H-M   'P 1'
_cell_length_a   6.74212206
_cell_length_b   6.74212206
_cell_length_c   5.51865000
_cell_angle_alpha   90.00000000
_cell_angle_beta   90.00000000
_cell_angle_gamma   120.00000062
_symmetry_Int_Tables_number   1
_chemical_formula_structural   Hg3Bi
_chemical_formula_sum   'Hg6 Bi2'
_cell_volume   217.24845787
_cell_formula_units_Z   2
loop_
 _symmetry_equiv_pos_site_id
 _symmetry_equiv_pos_as_xyz
  1  'x, y, z'
loop_
 _atom_site_type_symbol
 _atom_site_label
 _atom_site_symmetry_multiplicity
 _atom_site_fract_x
 _atom_site_fract_y
 _atom_site_fract_z
 _atom_site_occupancy
  Hg  Hg0  1  0.16534600  0.33069200  0.25000000  1
  Hg  Hg1  1  0.66930800  0.83465400  0.25000000  1
  Hg  Hg2  1  0.16534600  0.83465400  0.25000000  1
  Hg  Hg3  1  0.83465400  0.66930800  0.75000000  1
  Hg  Hg4  1  0.33069200  0.16534600  0.75000000  1
  Hg  Hg5  1  0.83465400  0.16534600  0.75000000  1
  Bi  Bi0  1  0.33333300  0.66666700  0.75000000  1
  Bi  Bi1  1  0.66666700  0.33333300  0.25000000  1
loop_
_geom_bond_atom_site_label_1
_geom_bond_atom_site_label_2
_geom_bond_distance
_geom_bond_site_symmetry_2
Hg0 Hg1 3.344349 1_445
Hg0 Hg2 3.344349 1_545
Hg0 Hg5 3.367803 1_454
Hg0 Hg5 3.367803 1_455
Hg0 Hg4 3.367803 1_554
Hg0 Hg4 3.367803 1_555
Hg0 Hg1 3.397773 1_555
Hg0 Hg2 3.397773 1_555
Hg1 Hg2 3.344349 1_655
Hg1 Hg5 3.367803 1_565
Hg1 Hg5 3.367803 1_564
Hg1 Hg3 3.367803 1_554
Hg1 Hg3 3.367803 1_555
Hg1 Hg2 3.397773 1_555
Hg2 Hg3 3.367803 1_454
Hg2 Hg4 3.367803 1_565
Hg2 Hg4 3.367803 1_564
Hg2 Hg3 3.367803 1_455
Hg3 Hg4 3.344349 1_665
Hg3 Hg5 3.344349 1_565
Hg3 Hg4 3.397773 1_555
Hg3 Hg5 3.397773 1_555
Hg4 Hg5 3.344349 1_455
Hg4 Hg5 3.397773 1_555
Bi0 Hg3 3.371093 1_455
Bi0 Hg4 3.371093 1_565
Bi0 Hg5 3.371096 1_565
Bi0 Hg5 3.371096 1_455
Bi0 Hg4 3.371100 1_555
Bi0 Hg3 3.371100 1_555
Bi0 Hg2 3.385579 1_556
Bi0 Hg2 3.385579 1_555
Bi0 Hg0 3.385583 1_556
Bi0 Hg1 3.385583 1_555
Bi0 Hg1 3.385583 1_556
Bi0 Hg0 3.385583 1_555
Bi1 Hg0 3.371093 1_655
Bi1 Hg1 3.371093 1_545
Bi1 Hg2 3.371096 1_545
Bi1 Hg2 3.371096 1_655
Bi1 Hg0 3.371100 1_555
Bi1 Hg1 3.371100 1_555
Bi1 Hg5 3.385579 1_555
Bi1 Hg5 3.385579 1_554
Bi1 Hg3 3.385583 1_555
Bi1 Hg4 3.385583 1_554
Bi1 Hg4 3.385583 1_555
Bi1 Hg3 3.385583 1_554
