# generated using pymatgen
data_Mg2B4H22C2S
_symmetry_space_group_name_H-M   'P 1'
_cell_length_a   7.92104560
_cell_length_b   7.92104560
_cell_length_c   12.50885228
_cell_angle_alpha   83.64897945
_cell_angle_beta   83.64897945
_cell_angle_gamma   122.34113502
_symmetry_Int_Tables_number   1
_chemical_formula_structural   Mg2B4H22C2S
_chemical_formula_sum   'Mg4 B8 H44 C4 S2'
_cell_volume   645.41223114
_cell_formula_units_Z   2
loop_
 _symmetry_equiv_pos_site_id
 _symmetry_equiv_pos_as_xyz
  1  'x, y, z'
loop_
 _atom_site_type_symbol
 _atom_site_label
 _atom_site_symmetry_multiplicity
 _atom_site_fract_x
 _atom_site_fract_y
 _atom_site_fract_z
 _atom_site_occupancy
  Mg  Mg0  1  0.57244800  0.39807800  0.94344500  1
  Mg  Mg1  1  0.39807800  0.57244800  0.44344500  1
  Mg  Mg2  1  0.77001800  0.29961800  0.29902200  1
  Mg  Mg3  1  0.29961800  0.77001800  0.79902200  1
  B  B0  1  0.69499400  0.37283000  0.12001800  1
  B  B1  1  0.37283000  0.69499400  0.62001800  1
  B  B2  1  0.61204800  0.93075200  0.32688300  1
  B  B3  1  0.93075200  0.61204800  0.82688300  1
  B  B4  1  0.64148800  0.47056200  0.39436600  1
  B  B5  1  0.47056200  0.64148800  0.89436600  1
  B  B6  1  0.09925900  0.43713900  0.35109200  1
  B  B7  1  0.43713900  0.09925900  0.85109200  1
  H  H0  1  0.15851300  0.85920800  0.09089200  1
  H  H1  1  0.85920800  0.15851300  0.59089200  1
  H  H2  1  0.99083900  0.85765300  0.20104100  1
  H  H3  1  0.85765300  0.99083900  0.70104100  1
  H  H4  1  0.25474800  0.97209000  0.20482300  1
  H  H5  1  0.97209000  0.25474800  0.70482300  1
  H  H6  1  0.98359600  0.97743400  0.97180600  1
  H  H7  1  0.97743400  0.98359600  0.47180600  1
  H  H8  1  0.06164000  0.23812800  0.93725100  1
  H  H9  1  0.23812800  0.06164000  0.43725100  1
  H  H10  1  0.86913800  0.07378700  0.05668600  1
  H  H11  1  0.07378700  0.86913800  0.55668600  1
  H  H12  1  0.67224600  0.51044700  0.08996600  1
  H  H13  1  0.51044700  0.67224600  0.58996600  1
  H  H14  1  0.68267100  0.26803200  0.05229800  1
  H  H15  1  0.26803200  0.68267100  0.55229800  1
  H  H16  1  0.86957500  0.45634700  0.13715300  1
  H  H17  1  0.45634700  0.86957500  0.63715300  1
  H  H18  1  0.56056800  0.26119600  0.20156200  1
  H  H19  1  0.26119600  0.56056800  0.70156200  1
  H  H20  1  0.76067300  0.04878800  0.25254600  1
  H  H21  1  0.04878800  0.76067300  0.75254600  1
  H  H22  1  0.48924600  0.79523900  0.28554400  1
  H  H23  1  0.79523900  0.48924600  0.78554400  1
  H  H24  1  0.67322700  0.87344600  0.39906400  1
  H  H25  1  0.87344600  0.67322700  0.89906400  1
  H  H26  1  0.52683900  0.00750600  0.36799600  1
  H  H27  1  0.00750600  0.52683900  0.86799600  1
  H  H28  1  0.65882700  0.56241100  0.46887200  1
  H  H29  1  0.56241100  0.65882700  0.96887200  1
  H  H30  1  0.60177400  0.30250600  0.43700600  1
  H  H31  1  0.30250600  0.60177400  0.93700600  1
  H  H32  1  0.50679100  0.44304200  0.34455000  1
  H  H33  1  0.44304200  0.50679100  0.84455000  1
  H  H34  1  0.80340900  0.57283400  0.32763400  1
  H  H35  1  0.57283400  0.80340900  0.82763400  1
  H  H36  1  0.08584500  0.49030400  0.25800800  1
  H  H37  1  0.49030400  0.08584500  0.75800800  1
  H  H38  1  0.21594800  0.38208600  0.33770600  1
  H  H39  1  0.38208600  0.21594800  0.83770600  1
  H  H40  1  0.15767900  0.58421900  0.39516400  1
  H  H41  1  0.58421900  0.15767900  0.89516400  1
  H  H42  1  0.93857500  0.29337600  0.40983700  1
  H  H43  1  0.29337600  0.93857500  0.90983700  1
  C  C0  1  0.14573300  0.94426200  0.15119700  1
  C  C1  1  0.94426200  0.14573300  0.65119700  1
  C  C2  1  0.00961100  0.10967900  0.00503800  1
  C  C3  1  0.10967900  0.00961100  0.50503800  1
  S  S0  1  0.20844000  0.19019100  0.08393500  1
  S  S1  1  0.19019100  0.20844000  0.58393500  1
loop_
_geom_bond_atom_site_label_1
_geom_bond_atom_site_label_2
_geom_bond_distance
_geom_bond_site_symmetry_2
Mg0 S0 2.696724 1_556
Mg1 S1 2.696724 1_555
B0 H12 1.223320 1_555
B0 H14 1.226116 1_555
B0 H18 1.228381 1_555
B0 H16 1.230469 1_555
B1 H13 1.223320 1_555
B1 H15 1.226116 1_555
B1 H19 1.228381 1_555
B1 H17 1.230469 1_555
B2 H22 1.217677 1_555
B2 H24 1.223763 1_555
B2 H20 1.229869 1_565
B2 H26 1.233320 1_565
B3 H23 1.217677 1_555
B3 H25 1.223763 1_555
B3 H21 1.229869 1_655
B3 H27 1.233320 1_655
B4 H28 1.219916 1_555
B4 H34 1.224719 1_555
B4 H32 1.225761 1_555
B4 H30 1.230141 1_555
B5 H29 1.219916 1_555
B5 H35 1.224719 1_555
B5 H33 1.225761 1_555
B5 H31 1.230141 1_555
B6 H38 1.218889 1_555
B6 H40 1.223549 1_555
B6 H36 1.229294 1_555
B6 H42 1.230423 1_455
B7 H39 1.218889 1_555
B7 H41 1.223549 1_555
B7 H37 1.229294 1_555
B7 H43 1.230423 1_545
H12 Mg0 2.169097 1_554
H13 Mg1 2.169097 1_555
H14 Mg0 2.142976 1_554
H15 Mg1 2.142976 1_555
H16 Mg2 2.075102 1_555
H17 Mg3 2.075102 1_555
H18 Mg2 2.078625 1_555
H19 Mg3 2.078625 1_555
H20 Mg2 2.097306 1_555
H21 Mg3 2.097306 1_555
H22 Mg1 2.255400 1_555
H23 Mg0 2.255400 1_555
H24 Mg1 2.150026 1_555
H25 Mg0 2.150026 1_555
H26 Mg2 2.056851 1_555
H27 Mg3 2.056851 1_555
H28 Mg1 2.165367 1_555
H29 Mg0 2.165367 1_555
H30 Mg2 2.070781 1_555
H31 Mg3 2.070781 1_555
H32 Mg1 2.076485 1_555
H33 Mg0 2.076485 1_555
H34 Mg2 2.112228 1_555
H35 Mg3 2.112228 1_555
H36 Mg2 2.074805 1_455
H37 Mg3 2.074805 1_545
H38 Mg1 2.154150 1_555
H39 Mg0 2.154150 1_555
H40 Mg1 2.105087 1_555
H41 Mg0 2.105087 1_555
H42 Mg2 2.042412 1_555
H43 Mg3 2.042412 1_555
C0 H2 1.095576 1_455
C0 H4 1.096097 1_555
C0 H0 1.096217 1_555
C0 S0 1.805290 1_565
C1 H3 1.095576 1_545
C1 H5 1.096097 1_555
C1 H1 1.096217 1_555
C1 S1 1.805290 1_655
C2 H6 1.094029 1_444
C2 H10 1.094609 1_455
C2 H8 1.098741 1_554
C2 S0 1.808209 1_555
C3 H7 1.094029 1_445
C3 H11 1.094609 1_545
C3 H9 1.098741 1_555
C3 S1 1.808209 1_555
