# generated using pymatgen
data_YGa3Ni2
_symmetry_space_group_name_H-M   'P 1'
_cell_length_a   3.80384200
_cell_length_b   9.35787500
_cell_length_c   9.36353748
_cell_angle_alpha   119.98000099
_cell_angle_beta   90.00000000
_cell_angle_gamma   90.00000000
_symmetry_Int_Tables_number   1
_chemical_formula_structural   YGa3Ni2
_chemical_formula_sum   'Y3 Ga9 Ni6'
_cell_volume   288.70730936
_cell_formula_units_Z   3
loop_
 _symmetry_equiv_pos_site_id
 _symmetry_equiv_pos_as_xyz
  1  'x, y, z'
loop_
 _atom_site_type_symbol
 _atom_site_label
 _atom_site_symmetry_multiplicity
 _atom_site_fract_x
 _atom_site_fract_y
 _atom_site_fract_z
 _atom_site_occupancy
  Y  Y0  1  0.50000000  0.50000000  0.00000000  1
  Y  Y1  1  0.00000000  0.83303400  0.66606800  1
  Y  Y2  1  0.00000000  0.16696600  0.33393200  1
  Ga  Ga0  1  0.50000000  0.68425400  0.36850900  1
  Ga  Ga1  1  0.50000000  0.13154800  0.81603000  1
  Ga  Ga2  1  0.50000000  0.68448100  0.81603000  1
  Ga  Ga3  1  0.50000000  0.31574600  0.63149100  1
  Ga  Ga4  1  0.50000000  0.31551900  0.18397000  1
  Ga  Ga5  1  0.50000000  0.86845200  0.18397000  1
  Ga  Ga6  1  0.50000000  0.00000000  0.00000000  1
  Ga  Ga7  1  0.50000000  0.50000000  0.50000000  1
  Ga  Ga8  1  0.50000000  0.00000000  0.50000000  1
  Ni  Ni0  1  0.00000000  0.21086900  0.00000000  1
  Ni  Ni1  1  0.00000000  0.50023300  0.71244900  1
  Ni  Ni2  1  0.00000000  0.78778400  0.28755100  1
  Ni  Ni3  1  0.00000000  0.78913100  0.00000000  1
  Ni  Ni4  1  0.00000000  0.49976700  0.28755100  1
  Ni  Ni5  1  0.00000000  0.21221600  0.71244900  1
loop_
_geom_bond_atom_site_label_1
_geom_bond_atom_site_label_2
_geom_bond_distance
_geom_bond_site_symmetry_2
Ga0 Ni4 2.421675 1_655
Ga0 Ni4 2.421675 1_555
Ga0 Ni2 2.421680 1_655
Ga0 Ni2 2.421680 1_555
Ga0 Ga7 2.571085 1_555
Ga0 Ga8 2.571094 1_565
Ga0 Y0 2.988864 1_555
Ga0 Y1 3.072760 1_555
Ga0 Y1 3.072760 1_655
Ga1 Ni0 2.420286 1_556
Ga1 Ni0 2.420286 1_656
Ga1 Ni5 2.420647 1_555
Ga1 Ni5 2.420647 1_655
Ga1 Ga6 2.569443 1_556
Ga1 Ga8 2.575161 1_555
Ga1 Y0 2.986595 1_556
Ga1 Y1 3.077707 1_645
Ga1 Y1 3.077707 1_545
Ga2 Ni3 2.420286 1_556
Ga2 Ni3 2.420286 1_656
Ga2 Ni1 2.420642 1_555
Ga2 Ni1 2.420642 1_655
Ga2 Ga6 2.569451 1_566
Ga2 Ga7 2.575160 1_555
Ga2 Y0 2.986587 1_556
Ga2 Y1 3.077714 1_555
Ga2 Y1 3.077714 1_655
Ga3 Ni1 2.421675 1_555
Ga3 Ni1 2.421675 1_655
Ga3 Ni5 2.421680 1_555
Ga3 Ni5 2.421680 1_655
Ga3 Ga7 2.571085 1_555
Ga3 Ga8 2.571094 1_555
Ga3 Y0 2.988864 1_556
Ga3 Y2 3.072760 1_655
Ga3 Y2 3.072760 1_555
Ga4 Ni0 2.420286 1_555
Ga4 Ni0 2.420286 1_655
Ga4 Ni4 2.420642 1_555
Ga4 Ni4 2.420642 1_655
Ga4 Ga6 2.569451 1_555
Ga4 Ga7 2.575160 1_555
Ga4 Y0 2.986587 1_555
Ga4 Y2 3.077714 1_555
Ga4 Y2 3.077714 1_655
Ga5 Ni3 2.420286 1_555
Ga5 Ni3 2.420286 1_655
Ga5 Ni2 2.420647 1_655
Ga5 Ni2 2.420647 1_555
Ga5 Ga6 2.569443 1_565
Ga5 Ga8 2.575161 1_565
Ga5 Y0 2.986595 1_555
Ga5 Y2 3.077707 1_565
Ga5 Y2 3.077707 1_665
Ga6 Ni0 2.740650 1_655
Ga6 Ni0 2.740650 1_555
Ga6 Ni3 2.740650 1_545
Ga6 Ni3 2.740650 1_645
Ga6 Y2 3.309508 1_655
Ga6 Y2 3.309508 1_555
Ga6 Y1 3.309508 1_644
Ga6 Y1 3.309508 1_544
Ga7 Ni4 2.751397 1_555
Ga7 Ni4 2.751397 1_655
Ga7 Ni1 2.751397 1_555
Ga7 Ni1 2.751397 1_655
Ga7 Y1 3.302216 1_655
Ga7 Y1 3.302216 1_555
Ga7 Y2 3.302216 1_655
Ga7 Y2 3.302216 1_555
Ga8 Ni5 2.751397 1_555
Ga8 Ni5 2.751397 1_655
Ga8 Ni2 2.751397 1_645
Ga8 Ni2 2.751397 1_545
Ga8 Y2 3.302216 1_555
Ga8 Y2 3.302216 1_655
Ga8 Y1 3.302216 1_645
Ga8 Y1 3.302216 1_545
Ni0 Ni4 2.698815 1_555
Ni0 Ni5 2.698815 1_554
Ni0 Y0 3.307243 1_555
Ni0 Y0 3.307243 1_455
Ni0 Y1 3.351029 1_544
Ni0 Y2 3.351030 1_555
Ni1 Ni5 2.695227 1_555
Ni1 Ni3 2.698815 1_556
Ni1 Y0 3.297378 1_456
Ni1 Y0 3.297378 1_556
Ni1 Y1 3.352496 1_555
Ni1 Y2 3.352787 1_555
Ni2 Ni4 2.695227 1_555
Ni2 Ni3 2.698815 1_555
Ni2 Y0 3.297378 1_455
Ni2 Y0 3.297378 1_555
Ni2 Y2 3.352496 1_565
Ni2 Y1 3.352787 1_555
Ni3 Y0 3.307243 1_455
Ni3 Y0 3.307243 1_555
Ni3 Y2 3.351029 1_565
Ni3 Y1 3.351030 1_554
Ni4 Y0 3.297378 1_455
Ni4 Y0 3.297378 1_555
Ni4 Y2 3.352496 1_555
Ni4 Y1 3.352787 1_555
Ni5 Y0 3.297378 1_456
Ni5 Y0 3.297378 1_556
Ni5 Y1 3.352496 1_545
Ni5 Y2 3.352787 1_555
