# generated using pymatgen
data_Mg2TiAl3S8
_symmetry_space_group_name_H-M   'P 1'
_cell_length_a   7.28223821
_cell_length_b   7.28828490
_cell_length_c   7.28046600
_cell_angle_alpha   60.03911396
_cell_angle_beta   60.01009968
_cell_angle_gamma   60.02735084
_symmetry_Int_Tables_number   1
_chemical_formula_structural   Mg2TiAl3S8
_chemical_formula_sum   'Mg2 Ti1 Al3 S8'
_cell_volume   273.39182957
_cell_formula_units_Z   1
loop_
 _symmetry_equiv_pos_site_id
 _symmetry_equiv_pos_as_xyz
  1  'x, y, z'
loop_
 _atom_site_type_symbol
 _atom_site_label
 _atom_site_symmetry_multiplicity
 _atom_site_fract_x
 _atom_site_fract_y
 _atom_site_fract_z
 _atom_site_occupancy
  Mg  Mg0  1  0.87488900  0.87541600  0.87486200  1
  Mg  Mg1  1  0.12512400  0.12458000  0.12513300  1
  Ti  Ti0  1  0.50000100  0.99999700  0.50001200  1
  Al  Al0  1  0.50000000  0.50001400  0.49998200  1
  Al  Al1  1  0.49999900  0.49999100  0.99999900  1
  Al  Al2  1  0.99999600  0.49998900  0.50001400  1
  S  S0  1  0.74118200  0.73355600  0.74124800  1
  S  S1  1  0.25883900  0.26647000  0.71594400  1
  S  S2  1  0.26234000  0.71256300  0.26253000  1
  S  S3  1  0.71583800  0.26669500  0.25873800  1
  S  S4  1  0.73764800  0.28744000  0.73746700  1
  S  S5  1  0.28416100  0.73330400  0.74125700  1
  S  S6  1  0.25881500  0.26644300  0.25875700  1
  S  S7  1  0.74117200  0.73353500  0.28405800  1
loop_
_geom_bond_atom_site_label_1
_geom_bond_atom_site_label_2
_geom_bond_distance
_geom_bond_site_symmetry_2
Mg0 S0 2.433243 1_555
Mg0 S7 2.433475 1_556
Mg0 S5 2.434237 1_655
Mg0 S4 2.453066 1_565
Mg1 S6 2.433226 1_555
Mg1 S1 2.433434 1_554
Mg1 S3 2.434320 1_455
Mg1 S2 2.453024 1_545
Al0 S3 2.449448 1_555
Al0 S5 2.449460 1_555
Al0 S7 2.450849 1_555
Al0 S1 2.450895 1_555
Al0 S2 2.453776 1_555
Al0 S4 2.453876 1_555
Al1 S3 2.449597 1_556
Al1 S5 2.449607 1_555
Al1 S6 2.451054 1_556
Al1 S0 2.451128 1_555
Al1 S4 2.453572 1_555
Al1 S2 2.453669 1_556
Al2 S1 2.450635 1_655
Al2 S7 2.450659 1_555
Al2 S0 2.450709 1_555
Al2 S6 2.450722 1_655
Al2 S4 2.453321 1_555
Al2 S2 2.453422 1_655
S0 Ti0 2.491926 1_555
S1 Ti0 2.491816 1_545
S3 Ti0 2.493289 1_545
S5 Ti0 2.493276 1_555
S6 Ti0 2.492046 1_545
S7 Ti0 2.491863 1_555
