# generated using pymatgen
data_Cu2WO4
_symmetry_space_group_name_H-M   'P 1'
_cell_length_a   7.14439100
_cell_length_b   8.27253872
_cell_length_c   8.50663843
_cell_angle_alpha   111.06129269
_cell_angle_beta   97.23004550
_cell_angle_gamma   113.77280404
_symmetry_Int_Tables_number   1
_chemical_formula_structural   Cu2WO4
_chemical_formula_sum   'Cu8 W4 O16'
_cell_volume   407.22277128
_cell_formula_units_Z   4
loop_
 _symmetry_equiv_pos_site_id
 _symmetry_equiv_pos_as_xyz
  1  'x, y, z'
loop_
 _atom_site_type_symbol
 _atom_site_label
 _atom_site_symmetry_multiplicity
 _atom_site_fract_x
 _atom_site_fract_y
 _atom_site_fract_z
 _atom_site_occupancy
  Cu  Cu0  1  0.23280100  0.45898400  0.07941000  1
  Cu  Cu1  1  0.97950000  0.57736000  0.11266400  1
  Cu  Cu2  1  0.02050000  0.42264000  0.88733600  1
  Cu  Cu3  1  0.33475000  0.79148900  0.79874900  1
  Cu  Cu4  1  0.76719900  0.54101600  0.92059000  1
  Cu  Cu5  1  0.22202000  0.46438200  0.53417300  1
  Cu  Cu6  1  0.66525000  0.20851100  0.20125100  1
  Cu  Cu7  1  0.77798000  0.53561800  0.46582700  1
  W  W0  1  0.23066300  0.83537300  0.20357700  1
  W  W1  1  0.76933700  0.16462700  0.79642300  1
  W  W2  1  0.71603000  0.86032600  0.17499900  1
  W  W3  1  0.28397000  0.13967400  0.82500100  1
  O  O0  1  0.03063600  0.88369000  0.07283900  1
  O  O1  1  0.53267700  0.36621300  0.17106600  1
  O  O2  1  0.01942500  0.80817700  0.39581300  1
  O  O3  1  0.96936400  0.11631000  0.92716100  1
  O  O4  1  0.46732300  0.63378700  0.82893400  1
  O  O5  1  0.73573700  0.01533600  0.28718000  1
  O  O6  1  0.42926700  0.11066500  0.98247300  1
  O  O7  1  0.34222600  0.71063700  0.33394900  1
  O  O8  1  0.63626000  0.61753500  0.32119700  1
  O  O9  1  0.98057500  0.19182300  0.60418700  1
  O  O10  1  0.69753300  0.71380200  0.80740000  1
  O  O11  1  0.26426300  0.98466400  0.71282000  1
  O  O12  1  0.57073300  0.88933500  0.01752700  1
  O  O13  1  0.65777400  0.28936300  0.66605100  1
  O  O14  1  0.36374000  0.38246500  0.67880300  1
  O  O15  1  0.30246700  0.28619800  0.19260000  1
loop_
_geom_bond_atom_site_label_1
_geom_bond_atom_site_label_2
_geom_bond_distance
_geom_bond_site_symmetry_2
Cu0 O7 2.157654 1_555
Cu0 O15 2.158726 1_555
Cu0 O3 2.387858 1_454
Cu1 W0 1.936542 1_655
Cu1 O2 2.368817 1_655
Cu2 W1 1.936542 1_455
Cu2 O9 2.368817 1_455
Cu3 O4 1.959786 1_555
Cu3 O12 1.997119 1_556
Cu3 O11 2.176555 1_555
Cu3 O6 2.280616 1_565
Cu4 O13 2.157654 1_555
Cu4 O10 2.158726 1_555
Cu4 O0 2.387858 1_656
Cu5 O14 1.958807 1_555
Cu5 O9 2.549950 1_455
Cu6 O1 1.959786 1_555
Cu6 O6 1.997119 1_554
Cu6 O5 2.176555 1_555
Cu6 O12 2.280616 1_545
Cu7 O8 1.958807 1_555
Cu7 O2 2.549950 1_655
O0 W0 1.954184 1_555
O0 W2 2.471181 1_455
O1 O15 1.569089 1_555
O1 O8 1.764790 1_555
O2 W0 2.369436 1_555
O3 W1 1.954184 1_555
O3 W3 2.471181 1_655
O5 W2 1.231238 1_545
O6 W3 1.735352 1_555
O7 W0 2.047709 1_555
O8 W2 2.637497 1_555
O9 W1 2.369436 1_555
O10 O4 1.569089 1_555
O11 W3 1.231238 1_565
O12 W2 1.735352 1_555
O13 W1 2.047709 1_555
O14 O4 1.764790 1_555
O14 W3 2.637497 1_555
