# generated using pymatgen
data_Li2CoNiO4
_symmetry_space_group_name_H-M   'P 1'
_cell_length_a   5.12924765
_cell_length_b   5.12927892
_cell_length_c   5.77920561
_cell_angle_alpha   90.08921764
_cell_angle_beta   90.08933605
_cell_angle_gamma   111.79298391
_symmetry_Int_Tables_number   1
_chemical_formula_structural   Li2CoNiO4
_chemical_formula_sum   'Li4 Co2 Ni2 O8'
_cell_volume   141.17994198
_cell_formula_units_Z   2
loop_
 _symmetry_equiv_pos_site_id
 _symmetry_equiv_pos_as_xyz
  1  'x, y, z'
loop_
 _atom_site_type_symbol
 _atom_site_label
 _atom_site_symmetry_multiplicity
 _atom_site_fract_x
 _atom_site_fract_y
 _atom_site_fract_z
 _atom_site_occupancy
  Li  Li0  1  0.99972800  0.50026600  0.75000100  1
  Li  Li1  1  0.50000700  0.99999600  0.25000100  1
  Li  Li2  1  0.50052400  0.50013800  0.99814000  1
  Li  Li3  1  0.99985600  0.99948400  0.50186100  1
  Co  Co0  1  0.49968100  0.00031100  0.74999900  1
  Co  Co1  1  0.99997700  0.50002100  0.25000000  1
  Ni  Ni0  1  0.99971500  0.99988900  0.99684100  1
  Ni  Ni1  1  0.50010800  0.50028700  0.50315900  1
  O  O0  1  0.22241800  0.27757900  0.24999800  1
  O  O1  1  0.73643600  0.76356600  0.75000000  1
  O  O2  1  0.77734800  0.72265600  0.24999900  1
  O  O3  1  0.26474900  0.23525800  0.75000000  1
  O  O4  1  0.23444600  0.77534500  0.99898900  1
  O  O5  1  0.72465800  0.26555700  0.50101300  1
  O  O6  1  0.76330900  0.22295800  0.99722800  1
  O  O7  1  0.27704200  0.73668800  0.50277300  1
loop_
_geom_bond_atom_site_label_1
_geom_bond_atom_site_label_2
_geom_bond_distance
_geom_bond_site_symmetry_2
Li0 O5 2.058555 1_555
Li0 O4 2.058594 1_655
Li0 O6 2.065460 1_555
Li0 O7 2.065482 1_655
Li0 O1 2.236522 1_555
Li0 O3 2.251120 1_655
Li1 O4 2.027505 1_554
Li1 O5 2.027507 1_565
Li1 O6 2.032341 1_564
Li1 O7 2.032357 1_555
Li1 O2 2.355821 1_555
Li1 O0 2.357906 1_565
Li2 O3 2.033094 1_555
Li2 O1 2.035655 1_555
Li2 O2 2.054868 1_556
Li2 O0 2.063767 1_556
Li2 O6 2.293699 1_555
Li2 O4 2.299081 1_555
Li3 O3 2.033116 1_665
Li3 O1 2.035643 1_555
Li3 O2 2.054878 1_555
Li3 O0 2.063767 1_665
Li3 O7 2.293771 1_655
Li3 O5 2.299021 1_565
Co0 O3 1.995653 1_555
Co0 O7 2.004059 1_545
Co0 O6 2.004094 1_555
Co0 O1 2.011032 1_545
Co0 O4 2.024506 1_545
Co0 O5 2.024535 1_555
Co1 O0 1.889491 1_655
Co1 O2 1.891109 1_555
Co1 O5 2.072624 1_555
Co1 O4 2.072638 1_654
Co1 O6 2.081899 1_554
Co1 O7 2.081905 1_655
Ni0 O4 1.950875 1_655
Ni0 O6 1.951843 1_565
Ni0 O1 2.025139 1_555
Ni0 O3 2.033072 1_665
Ni0 O0 2.062604 1_666
Ni0 O2 2.066625 1_556
Ni1 O5 1.950896 1_555
Ni1 O7 1.951810 1_555
Ni1 O1 2.025149 1_555
Ni1 O3 2.033044 1_555
Ni1 O0 2.062626 1_555
Ni1 O2 2.066652 1_555
