# generated using pymatgen
data_Rb3Ge4Au
_symmetry_space_group_name_H-M   'P 1'
_cell_length_a   6.12868855
_cell_length_b   6.94421090
_cell_length_c   12.49180891
_cell_angle_alpha   90.00000000
_cell_angle_beta   90.00000000
_cell_angle_gamma   90.00000000
_symmetry_Int_Tables_number   1
_chemical_formula_structural   Rb3Ge4Au
_chemical_formula_sum   'Rb6 Ge8 Au2'
_cell_volume   531.63771907
_cell_formula_units_Z   2
loop_
 _symmetry_equiv_pos_site_id
 _symmetry_equiv_pos_as_xyz
  1  'x, y, z'
loop_
 _atom_site_type_symbol
 _atom_site_label
 _atom_site_symmetry_multiplicity
 _atom_site_fract_x
 _atom_site_fract_y
 _atom_site_fract_z
 _atom_site_occupancy
  Rb  Rb0  1  0.42863771  0.75000000  0.75000000  1
  Rb  Rb1  1  0.57136229  0.25000000  0.25000000  1
  Rb  Rb2  1  0.16383500  0.25000000  0.01532700  1
  Rb  Rb3  1  0.16383500  0.25000000  0.48467300  1
  Rb  Rb4  1  0.83616500  0.75000000  0.98467300  1
  Rb  Rb5  1  0.83616500  0.75000000  0.51532700  1
  Ge  Ge0  1  0.32976518  0.75000000  0.35989817  1
  Ge  Ge1  1  0.32976518  0.75000000  0.14010183  1
  Ge  Ge2  1  0.05980458  0.55408149  0.25000000  1
  Ge  Ge3  1  0.05980458  0.94591851  0.25000000  1
  Ge  Ge4  1  0.94019542  0.05408149  0.75000000  1
  Ge  Ge5  1  0.94019542  0.44591851  0.75000000  1
  Ge  Ge6  1  0.67023482  0.25000000  0.64010183  1
  Ge  Ge7  1  0.67023482  0.25000000  0.85989817  1
  Au  Au0  1  0.69288620  0.75000000  0.25000000  1
  Au  Au1  1  0.30711380  0.25000000  0.75000000  1
loop_
_geom_bond_atom_site_label_1
_geom_bond_atom_site_label_2
_geom_bond_distance
_geom_bond_site_symmetry_2
Ge0 Rb5 3.594596 1_455
Ge0 Rb5 3.660859 1_555
Ge1 Rb4 3.594596 1_454
Ge1 Rb4 3.660859 1_554
Ge2 Rb1 3.663330 1_455
Ge2 Rb2 3.668652 1_555
Ge2 Rb3 3.668652 1_555
Ge2 Rb1 3.779976 1_555
Ge3 Rb1 3.663330 1_465
Ge3 Rb2 3.668652 1_565
Ge3 Rb3 3.668652 1_565
Ge3 Rb1 3.779976 1_565
Ge4 Rb0 3.663330 1_645
Ge4 Rb4 3.668652 1_545
Ge4 Rb5 3.668652 1_545
Ge4 Rb0 3.779976 1_545
Ge5 Rb0 3.663330 1_655
Ge5 Rb5 3.668652 1_555
Ge5 Rb4 3.668652 1_555
Ge5 Rb0 3.779976 1_555
Ge6 Rb3 3.594596 1_655
Ge6 Rb3 3.660859 1_555
Ge7 Rb2 3.594596 1_656
Ge7 Rb2 3.660859 1_556
Au0 Ge1 2.614824 1_555
Au0 Ge0 2.614824 1_555
Au0 Ge3 2.628258 1_655
Au0 Ge2 2.628258 1_655
Au0 Rb4 3.428764 1_554
Au0 Rb5 3.428764 1_555
Au0 Rb1 3.551087 1_565
Au0 Rb1 3.551087 1_555
Au1 Ge6 2.614824 1_555
Au1 Ge7 2.614824 1_555
Au1 Ge5 2.628258 1_455
Au1 Ge4 2.628258 1_455
Au1 Rb3 3.428764 1_555
Au1 Rb2 3.428764 1_556
Au1 Rb0 3.551087 1_555
Au1 Rb0 3.551087 1_545
