# generated using pymatgen
data_Mg14MnCo
_symmetry_space_group_name_H-M   'P 1'
_cell_length_a   6.23025365
_cell_length_b   6.23025316
_cell_length_c   9.84968406
_cell_angle_alpha   90.00000000
_cell_angle_beta   90.00000000
_cell_angle_gamma   120.00000255
_symmetry_Int_Tables_number   1
_chemical_formula_structural   Mg14MnCo
_chemical_formula_sum   'Mg14 Mn1 Co1'
_cell_volume   331.10393579
_cell_formula_units_Z   1
loop_
 _symmetry_equiv_pos_site_id
 _symmetry_equiv_pos_as_xyz
  1  'x, y, z'
loop_
 _atom_site_type_symbol
 _atom_site_label
 _atom_site_symmetry_multiplicity
 _atom_site_fract_x
 _atom_site_fract_y
 _atom_site_fract_z
 _atom_site_occupancy
  Mg  Mg0  1  0.17041981  0.83520941  0.12500000  1
  Mg  Mg1  1  0.16476575  0.83238237  0.62500000  1
  Mg  Mg2  1  0.66479059  0.32958019  0.12500000  1
  Mg  Mg3  1  0.66761763  0.33523425  0.62500000  1
  Mg  Mg4  1  0.66479059  0.83520941  0.12500000  1
  Mg  Mg5  1  0.66761763  0.83238237  0.62500000  1
  Mg  Mg6  1  0.32547671  0.17452329  0.38214379  1
  Mg  Mg7  1  0.32547671  0.17452329  0.86785621  1
  Mg  Mg8  1  0.32547671  0.65095441  0.38214379  1
  Mg  Mg9  1  0.32547671  0.65095441  0.86785621  1
  Mg  Mg10  1  0.84904559  0.17452329  0.38214379  1
  Mg  Mg11  1  0.84904559  0.17452329  0.86785621  1
  Mg  Mg12  1  0.83333300  0.66666700  0.37276945  1
  Mg  Mg13  1  0.83333300  0.66666700  0.87723055  1
  Mn  Mn0  1  0.16666700  0.33333300  0.12500000  1
  Co  Co0  1  0.16666700  0.33333300  0.62500000  1
loop_
_geom_bond_atom_site_label_1
_geom_bond_atom_site_label_2
_geom_bond_distance
_geom_bond_site_symmetry_2
Mg0 Mg13 3.043638 1_454
Mg0 Mg12 3.043638 1_455
Mg0 Mg2 3.080055 1_565
Mg0 Mg4 3.080055 1_555
Mg0 Mn0 3.115192 1_565
Mg0 Mn0 3.115192 1_555
Mg0 Mg8 3.126502 1_555
Mg0 Mg9 3.126502 1_554
Mg0 Mg6 3.126509 1_565
Mg0 Mg7 3.126509 1_564
Mg0 Mg2 3.150198 1_455
Mg0 Mg4 3.150198 1_455
Mg1 Mg9 3.022239 1_555
Mg1 Mg8 3.022239 1_555
Mg1 Mg6 3.022246 1_565
Mg1 Mg7 3.022246 1_565
Mg1 Mg12 3.061060 1_455
Mg1 Mg13 3.061060 1_455
Mg1 Mg3 3.097359 1_455
Mg1 Mg5 3.097359 1_455
Mg1 Mg3 3.132895 1_565
Mg1 Mg5 3.132895 1_555
Mg2 Mg4 3.080055 1_545
Mg2 Mn0 3.115193 1_555
Mg2 Mn0 3.115193 1_655
Mg2 Mg7 3.126509 1_554
Mg2 Mg6 3.126509 1_555
Mg2 Mg4 3.150198 1_555
Mg3 Mg6 3.022246 1_555
Mg3 Mg7 3.022246 1_555
Mg3 Mg5 3.097359 1_555
Mg3 Mg5 3.132895 1_545
Mg4 Mn0 3.115192 1_555
Mg4 Mn0 3.115192 1_665
Mg4 Mg8 3.126509 1_555
Mg4 Mg9 3.126509 1_554
Mg5 Mg9 3.022246 1_555
Mg5 Mg8 3.022246 1_555
Mg6 Mg8 2.968286 1_555
Mg6 Mn0 3.058085 1_555
Mg6 Mg8 3.261967 1_545
Mg7 Mg9 2.968286 1_555
Mg7 Mn0 3.058085 1_556
Mg7 Mg9 3.261967 1_545
Mg8 Mn0 3.058091 1_555
Mg9 Mn0 3.058091 1_556
Mg10 Mg8 2.968286 1_655
Mg10 Mg6 2.968287 1_655
Mg10 Mg3 3.022239 1_555
Mg10 Mg5 3.022245 1_545
Mg10 Mn0 3.058091 1_655
Mg10 Mg12 3.117648 1_545
Mg10 Mg12 3.117648 1_555
Mg10 Mg2 3.126502 1_555
Mg10 Mg4 3.126508 1_545
Mg10 Mg8 3.261967 1_545
Mg10 Mg6 3.261967 1_555
Mg11 Mg9 2.968286 1_655
Mg11 Mg7 2.968287 1_655
Mg11 Mg3 3.022239 1_555
Mg11 Mg5 3.022245 1_545
Mg11 Mn0 3.058091 1_656
Mg11 Mg13 3.117648 1_545
Mg11 Mg13 3.117648 1_555
Mg11 Mg2 3.126502 1_556
Mg11 Mg4 3.126508 1_546
Mg11 Mg9 3.261967 1_545
Mg11 Mg7 3.261967 1_555
Mg12 Mg4 3.043631 1_555
Mg12 Mg2 3.043637 1_555
Mg12 Mg5 3.061054 1_555
Mg12 Mg3 3.061060 1_555
Mg12 Mg6 3.117648 1_665
Mg12 Mg6 3.117648 1_555
Mg12 Mg8 3.117648 1_555
Mg12 Mg8 3.117648 1_655
Mg13 Mg4 3.043631 1_556
Mg13 Mg2 3.043637 1_556
Mg13 Mg5 3.061054 1_555
Mg13 Mg3 3.061060 1_555
Mg13 Mg7 3.117648 1_665
Mg13 Mg7 3.117648 1_555
Mg13 Mg9 3.117648 1_555
Mg13 Mg9 3.117648 1_655
Co0 Mg6 2.942587 1_555
Co0 Mg7 2.942587 1_555
Co0 Mg8 2.942594 1_555
Co0 Mg9 2.942594 1_555
Co0 Mg11 2.942594 1_455
Co0 Mg10 2.942594 1_455
Co0 Mg1 3.115143 1_555
Co0 Mg5 3.115143 1_445
Co0 Mg5 3.115143 1_555
Co0 Mg1 3.115144 1_545
Co0 Mg3 3.115144 1_455
Co0 Mg3 3.115144 1_555
