# generated using pymatgen
data_CaV5O7
_symmetry_space_group_name_H-M   'P 1'
_cell_length_a   3.11409302
_cell_length_b   5.30672407
_cell_length_c   18.01402902
_cell_angle_alpha   89.99547958
_cell_angle_beta   89.99792744
_cell_angle_gamma   107.07694077
_symmetry_Int_Tables_number   1
_chemical_formula_structural   CaV5O7
_chemical_formula_sum   'Ca2 V10 O14'
_cell_volume   284.56830644
_cell_formula_units_Z   2
loop_
 _symmetry_equiv_pos_site_id
 _symmetry_equiv_pos_as_xyz
  1  'x, y, z'
loop_
 _atom_site_type_symbol
 _atom_site_label
 _atom_site_symmetry_multiplicity
 _atom_site_fract_x
 _atom_site_fract_y
 _atom_site_fract_z
 _atom_site_occupancy
  Ca  Ca0  1  0.78969400  0.57958000  0.75073400  1
  Ca  Ca1  1  0.21050200  0.42042100  0.25071000  1
  V  V0  1  0.72590600  0.45180900  0.42900600  1
  V  V1  1  0.27418100  0.54824600  0.92902000  1
  V  V2  1  0.45983400  0.91990600  0.14973200  1
  V  V3  1  0.54007500  0.08005300  0.64977800  1
  V  V4  1  0.00297300  0.00584500  0.49797800  1
  V  V5  1  0.99695200  0.99413400  0.99798600  1
  V  V6  1  0.27510900  0.54990100  0.57442800  1
  V  V7  1  0.72462000  0.45003000  0.07442600  1
  V  V8  1  0.54022700  0.08040600  0.84886100  1
  V  V9  1  0.45987100  0.91965400  0.34881700  1
  O  O0  1  0.46002900  0.91998500  0.74935000  1
  O  O1  1  0.54011800  0.08002100  0.24930900  1
  O  O2  1  0.63017200  0.26043200  0.96044400  1
  O  O3  1  0.36770200  0.73581100  0.04121300  1
  O  O4  1  0.36981400  0.73956300  0.46042500  1
  O  O5  1  0.63216900  0.26415800  0.54121500  1
  O  O6  1  0.16827900  0.33654400  0.82896500  1
  O  O7  1  0.83374000  0.66668600  0.17289800  1
  O  O8  1  0.83181900  0.66350500  0.32892900  1
  O  O9  1  0.16650000  0.33329700  0.67292200  1
  O  O10  1  0.91257700  0.82495800  0.88754500  1
  O  O11  1  0.08477100  0.17082200  0.10888500  1
  O  O12  1  0.08751000  0.17505800  0.38752000  1
  O  O13  1  0.91485800  0.82917400  0.60890300  1
loop_
_geom_bond_atom_site_label_1
_geom_bond_atom_site_label_2
_geom_bond_distance
_geom_bond_site_symmetry_2
Ca0 O0 2.325235 1_655
Ca0 O0 2.325278 1_555
Ca0 O6 2.434723 1_555
Ca0 O6 2.435603 1_655
Ca0 O9 2.439264 1_555
Ca0 O9 2.439400 1_655
Ca0 O10 2.761124 1_555
Ca0 O13 2.851357 1_555
Ca1 O1 2.325157 1_555
Ca1 O1 2.325332 1_455
Ca1 O8 2.434677 1_555
Ca1 O8 2.435913 1_455
Ca1 O7 2.439123 1_555
Ca1 O7 2.439178 1_455
Ca1 O12 2.760866 1_555
Ca1 O11 2.851485 1_555
O0 V8 1.968730 1_565
O0 V3 1.968853 1_565
O1 V9 1.968429 1_545
O1 V2 1.969172 1_545
O2 V5 2.169320 1_445
O2 V5 2.169536 1_545
O2 V8 2.207865 1_555
O2 V1 2.208182 1_655
O2 V1 2.208291 1_555
O2 V7 2.267452 1_556
O3 V2 2.166552 1_555
O3 V5 2.178867 1_554
O3 V5 2.178994 1_454
O3 V7 2.209794 1_555
O3 V7 2.210079 1_455
O3 V1 2.233897 1_554
O4 V4 2.169327 1_665
O4 V4 2.169709 1_565
O4 V0 2.207900 1_455
O4 V9 2.208256 1_555
O4 V0 2.208264 1_555
O4 V6 2.267769 1_555
O5 V3 2.167132 1_555
O5 V4 2.178920 1_555
O5 V4 2.179185 1_655
O5 V6 2.209786 1_655
O5 V6 2.209980 1_555
O5 V0 2.234182 1_555
O6 V8 2.059069 1_455
O6 V8 2.059673 1_555
O6 V1 2.098160 1_555
O7 V2 2.059701 1_655
O7 V2 2.062650 1_555
O7 V7 2.086842 1_555
O8 V9 2.059128 1_655
O8 V9 2.059719 1_555
O8 V0 2.098312 1_555
O9 V3 2.060519 1_455
O9 V3 2.061921 1_555
O9 V6 2.086863 1_555
O10 V8 2.141766 1_665
O10 V8 2.142622 1_565
O10 V5 2.166765 1_555
O10 V1 2.225295 1_555
O10 V1 2.225663 1_655
O11 V2 2.140002 1_445
O11 V2 2.142876 1_545
O11 V5 2.189667 1_444
O11 V7 2.194183 1_455
O11 V7 2.194718 1_555
O12 V9 2.141883 1_445
O12 V9 2.142616 1_545
O12 V4 2.166972 1_555
O12 V0 2.225570 1_555
O12 V0 2.225947 1_455
O13 V3 2.140860 1_665
O13 V3 2.142305 1_565
O13 V4 2.189905 1_665
O13 V6 2.194814 1_655
O13 V6 2.194826 1_555
