# generated using pymatgen
data_CdAsPd5
_symmetry_space_group_name_H-M   'P 1'
_cell_length_a   4.00840770
_cell_length_b   4.00840770
_cell_length_c   7.06352198
_cell_angle_alpha   90.00000000
_cell_angle_beta   90.00000000
_cell_angle_gamma   90.00000000
_symmetry_Int_Tables_number   1
_chemical_formula_structural   CdAsPd5
_chemical_formula_sum   'Cd1 As1 Pd5'
_cell_volume   113.49195479
_cell_formula_units_Z   1
loop_
 _symmetry_equiv_pos_site_id
 _symmetry_equiv_pos_as_xyz
  1  'x, y, z'
loop_
 _atom_site_type_symbol
 _atom_site_label
 _atom_site_symmetry_multiplicity
 _atom_site_fract_x
 _atom_site_fract_y
 _atom_site_fract_z
 _atom_site_occupancy
  Cd  Cd0  1  0.50000000  0.50000000  0.00000000  1
  As  As0  1  -0.00000000  0.00000000  0.50000000  1
  Pd  Pd0  1  0.00000000  0.50000000  0.28983760  1
  Pd  Pd1  1  -0.00000000  0.50000000  0.71016240  1
  Pd  Pd2  1  0.50000000  0.00000000  0.28983760  1
  Pd  Pd3  1  0.50000000  -0.00000000  0.71016240  1
  Pd  Pd4  1  -0.00000000  0.00000000  0.00000000  1
loop_
_geom_bond_atom_site_label_1
_geom_bond_atom_site_label_2
_geom_bond_distance
_geom_bond_site_symmetry_2
Cd0 Pd4 2.834372 1_565
Cd0 Pd4 2.834372 1_655
Cd0 Pd4 2.834372 1_665
Cd0 Pd4 2.834372 1_555
Cd0 Pd1 2.864990 1_654
Cd0 Pd1 2.864990 1_554
Cd0 Pd0 2.864990 1_655
Cd0 Pd0 2.864990 1_555
Cd0 Pd3 2.864990 1_564
Cd0 Pd3 2.864990 1_554
Cd0 Pd2 2.864990 1_555
Cd0 Pd2 2.864990 1_565
As0 Pd3 2.494100 1_455
As0 Pd1 2.494100 1_555
As0 Pd1 2.494100 1_545
As0 Pd3 2.494100 1_555
As0 Pd2 2.494100 1_455
As0 Pd0 2.494100 1_555
As0 Pd0 2.494100 1_545
As0 Pd2 2.494100 1_555
Pd0 Pd4 2.864990 1_565
Pd0 Pd4 2.864990 1_555
Pd1 Pd4 2.864990 1_556
Pd1 Pd4 2.864990 1_566
Pd2 Pd4 2.864990 1_655
Pd2 Pd4 2.864990 1_555
Pd3 Pd4 2.864990 1_556
Pd3 Pd4 2.864990 1_656
