# generated using pymatgen
data_Ca(CuO2)2
_symmetry_space_group_name_H-M   'P 1'
_cell_length_a   6.27522190
_cell_length_b   6.27522190
_cell_length_c   21.12264493
_cell_angle_alpha   77.76694768
_cell_angle_beta   77.76694768
_cell_angle_gamma   58.18402477
_symmetry_Int_Tables_number   1
_chemical_formula_structural   Ca(CuO2)2
_chemical_formula_sum   'Ca8 Cu16 O32'
_cell_volume   685.70487656
_cell_formula_units_Z   8
loop_
 _symmetry_equiv_pos_site_id
 _symmetry_equiv_pos_as_xyz
  1  'x, y, z'
loop_
 _atom_site_type_symbol
 _atom_site_label
 _atom_site_symmetry_multiplicity
 _atom_site_fract_x
 _atom_site_fract_y
 _atom_site_fract_z
 _atom_site_occupancy
  Ca  Ca0  1  0.63711200  0.63711200  0.02145200  1
  Ca  Ca1  1  0.13110100  0.13110100  0.12309300  1
  Ca  Ca2  1  0.89341800  0.89341800  0.28343100  1
  Ca  Ca3  1  0.36031400  0.36031400  0.37805600  1
  Ca  Ca4  1  0.61900800  0.61900800  0.62707300  1
  Ca  Ca5  1  0.51167600  0.51167600  0.49594700  1
  Ca  Ca6  1  0.88487800  0.88487800  0.87836700  1
  Ca  Ca7  1  0.74263000  0.74263000  0.75287700  1
  Cu  Cu0  1  0.62705300  0.12438200  0.12879100  1
  Cu  Cu1  1  0.25300000  0.25300000  0.24875500  1
  Cu  Cu2  1  0.12438200  0.62705300  0.12879100  1
  Cu  Cu3  1  0.14872200  0.14872200  0.53549800  1
  Cu  Cu4  1  0.87127100  0.36027900  0.36889300  1
  Cu  Cu5  1  0.61067600  0.61067600  0.21943500  1
  Cu  Cu6  1  0.37727000  0.37727000  0.77769300  1
  Cu  Cu7  1  0.36027900  0.87127100  0.36889300  1
  Cu  Cu8  1  0.12555400  0.61863800  0.62262400  1
  Cu  Cu9  1  0.90933900  0.90933900  0.48172800  1
  Cu  Cu10  1  0.61863800  0.12555400  0.62262400  1
  Cu  Cu11  1  0.88548700  0.37378800  0.87949400  1
  Cu  Cu12  1  0.37378800  0.88548700  0.87949400  1
  Cu  Cu13  1  0.10602500  0.10602500  0.68308100  1
  Cu  Cu14  1  0.00131500  0.00131500  0.00541300  1
  Cu  Cu15  1  0.35845600  0.35845600  0.97656600  1
  O  O0  1  0.24620400  0.80735800  0.06851900  1
  O  O1  1  0.91684700  0.91684700  0.17397400  1
  O  O2  1  0.80735800  0.24620400  0.06851900  1
  O  O3  1  0.82625500  0.82625500  0.04664500  1
  O  O4  1  0.46565200  0.46565200  0.19151000  1
  O  O5  1  0.48520800  0.06252100  0.31024700  1
  O  O6  1  0.44478100  0.99326500  0.19083300  1
  O  O7  1  0.16844000  0.16844000  0.44596400  1
  O  O8  1  0.06252100  0.48520800  0.31024700  1
  O  O9  1  0.34347400  0.34347400  0.08078000  1
  O  O10  1  0.06561800  0.06561800  0.32750000  1
  O  O11  1  0.99326500  0.44478100  0.19083300  1
  O  O12  1  0.79483900  0.28450300  0.56931400  1
  O  O13  1  0.67579200  0.67579200  0.40448700  1
  O  O14  1  0.71288800  0.19996500  0.42860000  1
  O  O15  1  0.40911800  0.40911800  0.67563900  1
  O  O16  1  0.28450300  0.79483900  0.56931400  1
  O  O17  1  0.56220400  0.56220400  0.30899500  1
  O  O18  1  0.30338300  0.30338300  0.55864200  1
  O  O19  1  0.19996500  0.71288800  0.42860000  1
  O  O20  1  0.94273800  0.94273800  0.68468100  1
  O  O21  1  0.04509000  0.53540300  0.82280700  1
  O  O22  1  0.96794500  0.45132300  0.67796200  1
  O  O23  1  0.67298100  0.67298100  0.91488300  1
  O  O24  1  0.53540300  0.04509000  0.82280700  1
  O  O25  1  0.82881200  0.82881200  0.57002900  1
  O  O26  1  0.53167400  0.53167400  0.79302400  1
  O  O27  1  0.45132300  0.96794500  0.67796200  1
  O  O28  1  0.18804000  0.18804000  0.97266200  1
  O  O29  1  0.21507700  0.73023000  0.94389000  1
  O  O30  1  0.09092100  0.09092100  0.83816900  1
  O  O31  1  0.73023000  0.21507700  0.94389000  1
loop_
_geom_bond_atom_site_label_1
_geom_bond_atom_site_label_2
_geom_bond_distance
_geom_bond_site_symmetry_2
Ca0 O23 2.189155 1_554
Ca0 O2 2.191012 1_555
Ca0 O0 2.191012 1_555
Ca0 O3 2.263053 1_555
Ca1 O2 2.251702 1_455
Ca1 O0 2.251702 1_545
Ca1 O9 2.283428 1_555
Ca1 O1 2.334877 1_445
Ca1 O6 2.354576 1_545
Ca1 O11 2.354576 1_455
Ca2 O5 2.186884 1_565
Ca2 O8 2.186884 1_655
Ca2 O1 2.263485 1_555
Ca2 O10 2.299037 1_665
Ca3 O7 2.240928 1_555
Ca3 O19 2.290371 1_555
Ca3 O14 2.290371 1_555
Ca3 O8 2.296121 1_555
Ca3 O5 2.296121 1_555
Ca3 O17 2.337525 1_555
Ca4 O27 2.268478 1_555
Ca4 O22 2.268478 1_555
Ca4 O16 2.277024 1_555
Ca4 O12 2.277024 1_555
Ca4 O15 2.281631 1_555
Ca4 O25 2.324139 1_555
Ca5 O12 2.269605 1_555
Ca5 O16 2.269605 1_555
Ca5 O14 2.293024 1_555
Ca5 O19 2.293024 1_555
Ca5 O13 2.299005 1_555
Ca5 O18 2.346270 1_555
Ca6 O30 2.212842 1_665
Ca6 O23 2.264096 1_555
Ca6 O24 2.337389 1_565
Ca6 O21 2.337389 1_655
Ca6 O31 2.382578 1_565
Ca6 O29 2.382578 1_655
Ca7 O26 2.262803 1_555
Ca7 O24 2.290630 1_565
Ca7 O21 2.290630 1_655
Ca7 O20 2.314770 1_555
Ca7 O27 2.323200 1_555
Ca7 O22 2.323200 1_555
Cu0 O2 1.836982 1_555
Cu0 O6 1.898096 1_545
Cu0 O1 1.904098 1_545
Cu0 O9 1.918235 1_555
Cu0 O4 2.390357 1_555
Cu0 O3 2.462507 1_545
Cu1 O8 1.883292 1_555
Cu1 O5 1.883292 1_555
Cu1 O11 1.937692 1_455
Cu1 O6 1.937692 1_545
Cu1 O10 2.309129 1_555
Cu1 O4 2.352345 1_555
Cu2 O0 1.836982 1_555
Cu2 O11 1.898096 1_455
Cu2 O1 1.904098 1_455
Cu2 O9 1.918235 1_555
Cu2 O4 2.390357 1_555
Cu2 O3 2.462507 1_455
Cu3 O7 1.850689 1_555
Cu3 O18 1.875670 1_555
Cu3 O12 1.938644 1_455
Cu3 O16 1.938644 1_545
Cu4 O10 1.877864 1_655
Cu4 O8 1.881462 1_655
Cu4 O14 1.890977 1_555
Cu4 O13 1.915528 1_555
Cu4 O17 2.176501 1_555
Cu4 O7 2.380313 1_655
Cu5 O4 1.825526 1_555
Cu5 O17 1.836734 1_555
Cu5 O6 2.056532 1_555
Cu5 O11 2.056532 1_555
Cu6 O26 1.799520 1_555
Cu6 O24 1.901546 1_555
Cu6 O21 1.901546 1_555
Cu6 O15 2.098496 1_555
Cu7 O10 1.877864 1_565
Cu7 O5 1.881462 1_565
Cu7 O19 1.890977 1_555
Cu7 O13 1.915528 1_555
Cu7 O17 2.176501 1_555
Cu7 O7 2.380313 1_565
Cu8 O22 1.879294 1_455
Cu8 O16 1.909107 1_555
Cu8 O15 1.975527 1_555
Cu8 O25 2.026676 1_455
Cu8 O18 2.269718 1_555
Cu8 O20 2.281020 1_455
Cu9 O14 1.858368 1_565
Cu9 O19 1.858368 1_655
Cu9 O25 1.860083 1_555
Cu10 O27 1.879294 1_545
Cu10 O12 1.909107 1_555
Cu10 O15 1.975527 1_555
Cu10 O25 2.026676 1_545
Cu10 O18 2.269718 1_555
Cu10 O20 2.281020 1_545
Cu11 O30 1.828016 1_655
Cu11 O23 1.842426 1_555
Cu11 O21 1.874436 1_655
Cu11 O31 1.917995 1_555
Cu12 O30 1.828016 1_565
Cu12 O23 1.842426 1_555
Cu12 O24 1.874436 1_565
Cu12 O29 1.917995 1_555
Cu13 O20 1.782888 1_445
Cu13 O22 1.848890 1_455
Cu13 O27 1.848890 1_545
Cu14 O3 1.906207 1_445
Cu14 O2 1.956568 1_455
Cu14 O0 1.956568 1_545
Cu14 O28 1.996283 1_554
Cu14 O31 2.043050 1_454
Cu14 O29 2.043050 1_544
Cu15 O28 1.890655 1_555
Cu15 O29 2.023910 1_555
Cu15 O31 2.023910 1_555
Cu15 O9 2.167304 1_556
