# generated using pymatgen
data_Zr2IrRh
_symmetry_space_group_name_H-M   'P 1'
_cell_length_a   10.57726957
_cell_length_b   10.57726957
_cell_length_c   10.57726957
_cell_angle_alpha   126.86903471
_cell_angle_beta   117.78871714
_cell_angle_gamma   86.20422122
_symmetry_Int_Tables_number   1
_chemical_formula_structural   Zr2IrRh
_chemical_formula_sum   'Zr2 Ir1 Rh1'
_cell_volume   798.50179531
_cell_formula_units_Z   1
loop_
 _symmetry_equiv_pos_site_id
 _symmetry_equiv_pos_as_xyz
  1  'x, y, z'
loop_
 _atom_site_type_symbol
 _atom_site_label
 _atom_site_symmetry_multiplicity
 _atom_site_fract_x
 _atom_site_fract_y
 _atom_site_fract_z
 _atom_site_occupancy
  Zr  Zr0  1  0.00000000  0.24962900  0.24962900  1
  Zr  Zr1  1  0.00000000  0.75037100  0.75037100  1
  Ir  Ir0  1  0.00000000  0.50000000  0.50000000  1
  Rh  Rh0  1  0.00000000  0.00000000  0.00000000  1
loop_
_geom_bond_atom_site_label_1
_geom_bond_atom_site_label_2
_geom_bond_distance
_geom_bond_site_symmetry_2
Ir0 Zr0 2.368695 1_555
Ir0 Zr1 2.368695 1_555
Rh0 Zr1 2.361675 1_544
Rh0 Zr0 2.361675 1_555
