# generated using pymatgen
data_CaEuYNbO6
_symmetry_space_group_name_H-M   'P 1'
_cell_length_a   8.17493803
_cell_length_b   8.27308787
_cell_length_c   8.20142045
_cell_angle_alpha   90.00000000
_cell_angle_beta   90.00000000
_cell_angle_gamma   90.00000000
_symmetry_Int_Tables_number   1
_chemical_formula_structural   CaEuYNbO6
_chemical_formula_sum   'Ca4 Eu4 Y4 Nb4 O24'
_cell_volume   554.67830921
_cell_formula_units_Z   4
loop_
 _symmetry_equiv_pos_site_id
 _symmetry_equiv_pos_as_xyz
  1  'x, y, z'
loop_
 _atom_site_type_symbol
 _atom_site_label
 _atom_site_symmetry_multiplicity
 _atom_site_fract_x
 _atom_site_fract_y
 _atom_site_fract_z
 _atom_site_occupancy
  Ca  Ca0  1  -0.00000000  0.00000000  -0.00000000  1
  Ca  Ca1  1  0.50000000  0.50000000  0.50000000  1
  Ca  Ca2  1  -0.00000000  0.50000000  0.50000000  1
  Ca  Ca3  1  0.50000000  0.00000000  -0.00000000  1
  Eu  Eu0  1  0.50000000  0.00000000  0.50000000  1
  Eu  Eu1  1  0.50000000  0.50000000  -0.00000000  1
  Eu  Eu2  1  -0.00000000  0.50000000  -0.00000000  1
  Eu  Eu3  1  -0.00000000  0.00000000  0.50000000  1
  Y  Y0  1  0.25000000  0.25000000  0.25000000  1
  Y  Y1  1  0.75000000  0.75000000  0.25000000  1
  Y  Y2  1  0.75000000  0.25000000  0.75000000  1
  Y  Y3  1  0.25000000  0.75000000  0.75000000  1
  Nb  Nb0  1  0.75000000  0.75000000  0.75000000  1
  Nb  Nb1  1  0.25000000  0.25000000  0.75000000  1
  Nb  Nb2  1  0.25000000  0.75000000  0.25000000  1
  Nb  Nb3  1  0.75000000  0.25000000  0.25000000  1
  O  O0  1  0.98057213  0.20344837  0.28746846  1
  O  O1  1  0.01942787  0.79655163  0.28746846  1
  O  O2  1  0.01942787  0.20344837  0.71253154  1
  O  O3  1  0.98057213  0.79655163  0.71253154  1
  O  O4  1  0.28974606  0.98108612  0.20340859  1
  O  O5  1  0.28974606  0.01891388  0.79659141  1
  O  O6  1  0.71025394  0.01891388  0.20340859  1
  O  O7  1  0.71025394  0.98108612  0.79659141  1
  O  O8  1  0.20416209  0.28903693  0.98109227  1
  O  O9  1  0.79583791  0.28903693  0.01890773  1
  O  O10  1  0.20416209  0.71096307  0.01890773  1
  O  O11  1  0.79583791  0.71096307  0.98109227  1
  O  O12  1  0.51942787  0.29655163  0.21253154  1
  O  O13  1  0.48057213  0.70344837  0.21253154  1
  O  O14  1  0.48057213  0.29655163  0.78746846  1
  O  O15  1  0.51942787  0.70344837  0.78746846  1
  O  O16  1  0.21025394  0.51891388  0.29659141  1
  O  O17  1  0.21025394  0.48108612  0.70340859  1
  O  O18  1  0.78974606  0.48108612  0.29659141  1
  O  O19  1  0.78974606  0.51891388  0.70340859  1
  O  O20  1  0.29583791  0.21096307  0.51890773  1
  O  O21  1  0.70416209  0.21096307  0.48109227  1
  O  O22  1  0.29583791  0.78903693  0.48109227  1
  O  O23  1  0.70416209  0.78903693  0.51890773  1
loop_
_geom_bond_atom_site_label_1
_geom_bond_atom_site_label_2
_geom_bond_distance
_geom_bond_site_symmetry_2
Ca0 O1 2.901158 1_545
Ca0 O3 2.901158 1_444
Ca0 O0 2.901158 1_455
Ca0 O2 2.901158 1_554
Ca0 O5 2.901386 1_554
Ca0 O7 2.901386 1_444
Ca0 O6 2.901386 1_455
Ca0 O4 2.901386 1_545
Ca0 O11 2.920209 1_444
Ca0 O10 2.920209 1_545
Ca0 O8 2.920209 1_554
Ca0 O9 2.920209 1_455
Ca1 O13 2.901158 1_555
Ca1 O15 2.901158 1_555
Ca1 O14 2.901158 1_555
Ca1 O12 2.901158 1_555
Ca1 O17 2.901386 1_555
Ca1 O18 2.901386 1_555
Ca1 O19 2.901386 1_555
Ca1 O16 2.901386 1_555
Ca1 O22 2.920209 1_555
Ca1 O20 2.920209 1_555
Ca1 O23 2.920209 1_555
Ca1 O21 2.920209 1_555
Ca2 O18 2.400380 1_455
Ca2 O19 2.400380 1_455
Ca2 O16 2.400380 1_555
Ca2 O17 2.400380 1_555
Ca3 O4 2.400380 1_545
Ca3 O6 2.400380 1_555
Ca3 O7 2.400380 1_544
Ca3 O5 2.400380 1_554
Eu0 O23 2.419871 1_545
Eu0 O21 2.419871 1_555
Eu0 O20 2.419871 1_555
Eu0 O22 2.419871 1_545
Eu1 O14 2.428264 1_554
Eu1 O15 2.428264 1_554
Eu1 O12 2.428264 1_555
Eu1 O13 2.428264 1_555
Eu1 O11 2.986487 1_554
Eu1 O9 2.986487 1_555
Eu1 O10 2.986487 1_555
Eu1 O8 2.986487 1_554
Eu2 O9 2.419871 1_455
Eu2 O8 2.419871 1_554
Eu2 O11 2.419871 1_454
Eu2 O10 2.419871 1_555
Eu3 O3 2.428264 1_445
Eu3 O1 2.428264 1_545
Eu3 O2 2.428264 1_555
Eu3 O0 2.428264 1_455
Eu3 O20 2.986487 1_555
Eu3 O22 2.986487 1_545
Eu3 O21 2.986487 1_455
Eu3 O23 2.986487 1_445
Nb0 O15 1.948242 1_555
Nb0 O3 1.948242 1_555
Nb0 O23 1.958781 1_555
Nb0 O11 1.958781 1_555
Nb0 O19 1.976499 1_555
Nb0 O7 1.976499 1_555
Nb1 O2 1.948242 1_555
Nb1 O14 1.948242 1_555
Nb1 O8 1.958781 1_555
Nb1 O20 1.958781 1_555
Nb1 O17 1.976499 1_555
Nb1 O5 1.976499 1_555
Nb2 O13 1.948242 1_555
Nb2 O1 1.948242 1_555
Nb2 O22 1.958781 1_555
Nb2 O10 1.958781 1_555
Nb2 O16 1.976499 1_555
Nb2 O4 1.976499 1_555
Nb3 O0 1.948242 1_555
Nb3 O12 1.948242 1_555
Nb3 O21 1.958781 1_555
Nb3 O9 1.958781 1_555
Nb3 O18 1.976499 1_555
Nb3 O6 1.976499 1_555
O0 Y0 2.256990 1_655
O1 Y1 2.256990 1_455
O2 Y2 2.256990 1_455
O3 Y3 2.256990 1_655
O4 Y0 2.280590 1_565
O5 Y3 2.280590 1_545
O6 Y1 2.280590 1_545
O7 Y2 2.280590 1_565
O8 Y0 2.260225 1_556
O9 Y2 2.260225 1_554
O10 Y3 2.260225 1_554
O11 Y1 2.260225 1_556
O12 Y0 2.256990 1_555
O13 Y1 2.256990 1_555
O14 Y2 2.256990 1_555
O15 Y3 2.256990 1_555
O16 Y0 2.280590 1_555
O17 Y3 2.280590 1_555
O18 Y1 2.280590 1_555
O19 Y2 2.280590 1_555
O20 Y0 2.260225 1_555
O21 Y2 2.260225 1_555
O22 Y3 2.260225 1_555
O23 Y1 2.260225 1_555
