# generated using pymatgen
data_Na2Cd(GeS3)2
_symmetry_space_group_name_H-M   'P 1'
_cell_length_a   7.43731759
_cell_length_b   7.43731759
_cell_length_c   11.74496727
_cell_angle_alpha   85.48376957
_cell_angle_beta   85.48376957
_cell_angle_gamma   119.93125696
_symmetry_Int_Tables_number   1
_chemical_formula_structural   Na2Cd(GeS3)2
_chemical_formula_sum   'Na4 Cd2 Ge4 S12'
_cell_volume   555.99850019
_cell_formula_units_Z   2
loop_
 _symmetry_equiv_pos_site_id
 _symmetry_equiv_pos_as_xyz
  1  'x, y, z'
loop_
 _atom_site_type_symbol
 _atom_site_label
 _atom_site_symmetry_multiplicity
 _atom_site_fract_x
 _atom_site_fract_y
 _atom_site_fract_z
 _atom_site_occupancy
  Na  Na0  1  0.16707700  0.76557400  0.11965900  1
  Na  Na1  1  0.76557400  0.16707700  0.61965900  1
  Na  Na2  1  0.58030000  0.55753500  0.98645300  1
  Na  Na3  1  0.55753500  0.58030000  0.48645300  1
  Cd  Cd0  1  0.65030900  0.15242700  0.27925800  1
  Cd  Cd1  1  0.15242700  0.65030900  0.77925800  1
  Ge  Ge0  1  0.23571900  0.18680500  0.75379200  1
  Ge  Ge1  1  0.18680500  0.23571900  0.25379200  1
  Ge  Ge2  1  0.16472000  0.88919900  0.50137500  1
  Ge  Ge3  1  0.88919900  0.16472000  0.00137500  1
  S  S0  1  0.40394800  0.03134900  0.80730700  1
  S  S1  1  0.03134900  0.40394800  0.30730700  1
  S  S2  1  0.92391900  0.61021100  0.61811200  1
  S  S3  1  0.61021100  0.92391900  0.11811200  1
  S  S4  1  0.02328100  0.89009600  0.33654000  1
  S  S5  1  0.89009600  0.02328100  0.83654000  1
  S  S6  1  0.91760400  0.47589400  0.97370100  1
  S  S7  1  0.47589400  0.91760400  0.47370100  1
  S  S8  1  0.52541400  0.41612500  0.26253000  1
  S  S9  1  0.41612500  0.52541400  0.76253000  1
  S  S10  1  0.18031100  0.17988200  0.56470200  1
  S  S11  1  0.17988200  0.18031100  0.06470200  1
loop_
_geom_bond_atom_site_label_1
_geom_bond_atom_site_label_2
_geom_bond_distance
_geom_bond_site_symmetry_2
Na0 S6 2.848924 1_454
Na0 S3 2.891895 1_555
Na0 S1 3.019382 1_555
Na0 S11 3.053467 1_565
Na0 S4 3.069336 1_555
Na1 S7 2.848924 1_545
Na1 S2 2.891895 1_555
Na1 S0 3.019382 1_555
Na1 S10 3.053467 1_655
Na1 S5 3.069336 1_555
Na2 S6 2.856497 1_555
Na2 S11 2.899941 1_556
Na2 S9 2.962815 1_555
Na2 S3 3.158894 1_556
Na2 S8 3.257717 1_556
Na2 S5 3.292967 1_565
Na3 S7 2.856497 1_555
Na3 S10 2.899941 1_555
Na3 S8 2.962815 1_555
Na3 S2 3.158894 1_555
Na3 S9 3.257717 1_555
Na3 S4 3.292967 1_655
Cd0 S8 2.556122 1_555
Cd0 S1 2.567637 1_655
Cd0 S7 2.567643 1_545
Cd0 S3 2.578566 1_545
Cd1 S9 2.556122 1_555
Cd1 S0 2.567637 1_565
Cd1 S6 2.567643 1_455
Cd1 S2 2.578566 1_455
Ge0 S0 2.179495 1_555
Ge0 S9 2.200749 1_555
Ge0 S10 2.290334 1_555
Ge0 S5 2.309085 1_455
Ge1 S1 2.179495 1_555
Ge1 S8 2.200749 1_555
Ge1 S11 2.290334 1_555
Ge1 S4 2.309085 1_545
Ge2 S2 2.202162 1_455
Ge2 S7 2.211128 1_555
Ge2 S4 2.276028 1_555
Ge2 S10 2.292839 1_565
Ge3 S3 2.202162 1_545
Ge3 S6 2.211128 1_554
Ge3 S5 2.276028 1_554
Ge3 S11 2.292839 1_655
