# generated using pymatgen
data_Sr2LiO12
_symmetry_space_group_name_H-M   'P 1'
_cell_length_a   5.34378291
_cell_length_b   5.16079554
_cell_length_c   8.69968631
_cell_angle_alpha   101.47369152
_cell_angle_beta   87.00061388
_cell_angle_gamma   103.67884433
_symmetry_Int_Tables_number   1
_chemical_formula_structural   Sr2LiO12
_chemical_formula_sum   'Sr2 Li1 O12'
_cell_volume   228.45434155
_cell_formula_units_Z   1
loop_
 _symmetry_equiv_pos_site_id
 _symmetry_equiv_pos_as_xyz
  1  'x, y, z'
loop_
 _atom_site_type_symbol
 _atom_site_label
 _atom_site_symmetry_multiplicity
 _atom_site_fract_x
 _atom_site_fract_y
 _atom_site_fract_z
 _atom_site_occupancy
  Sr  Sr0  1  0.78617100  0.94273800  0.77598200  1
  Sr  Sr1  1  0.16902200  0.09569300  0.23309700  1
  Li  Li0  1  0.18113500  0.59668800  0.58199100  1
  O  O0  1  0.17413800  0.91974900  0.92663800  1
  O  O1  1  0.93717700  0.22641900  0.56941500  1
  O  O2  1  0.76415200  0.09894700  0.07441300  1
  O  O3  1  0.12967000  0.77482200  0.41622200  1
  O  O4  1  0.28851600  0.94877100  0.78604900  1
  O  O5  1  0.92448100  0.40812400  0.70807300  1
  O  O6  1  0.66248200  0.99488900  0.19830200  1
  O  O7  1  0.10937800  0.60335800  0.27551900  1
  O  O8  1  0.54304300  0.58034300  0.55973000  1
  O  O9  1  0.50193600  0.48290700  0.90544200  1
  O  O10  1  0.53261100  0.37472300  0.44345100  1
  O  O11  1  0.45858700  0.46432900  0.04567700  1
loop_
_geom_bond_atom_site_label_1
_geom_bond_atom_site_label_2
_geom_bond_distance
_geom_bond_site_symmetry_2
Li0 O5 1.914977 1_455
Li0 O3 1.920692 1_555
Li0 O8 1.953529 1_555
Li0 O1 2.028920 1_455
Li0 O4 2.261091 1_555
O0 O4 1.357677 1_555
O0 Sr0 2.548072 1_455
O0 Sr1 2.640894 1_566
O1 O5 1.382237 1_555
O1 Sr0 2.521933 1_545
O1 Sr1 3.127528 1_655
O2 O6 1.332744 1_545
O2 Sr0 2.566030 1_544
O2 Sr1 2.631717 1_655
O3 O7 1.353043 1_555
O3 Sr1 2.484803 1_565
O4 Sr0 2.663558 1_555
O4 Sr0 2.683049 1_455
O5 Sr0 2.518530 1_545
O5 Sr0 2.962744 1_555
O6 Sr1 2.654494 1_665
O6 Sr1 2.796134 1_565
O7 Sr1 2.582904 1_565
O7 Sr1 2.664566 1_555
O8 Sr0 2.536129 1_555
O9 Sr0 2.895960 1_555
O10 O8 1.305125 1_555
O10 Sr1 2.682916 1_555
O11 O9 1.248082 1_554
O11 Sr1 2.872272 1_555
