# generated using pymatgen
data_Nb20N17
_symmetry_space_group_name_H-M   'P 1'
_cell_length_a   8.28385745
_cell_length_b   8.28385745
_cell_length_c   10.35817115
_cell_angle_alpha   62.70946778
_cell_angle_beta   62.70946778
_cell_angle_gamma   44.48321365
_symmetry_Int_Tables_number   1
_chemical_formula_structural   Nb20N17
_chemical_formula_sum   'Nb20 N17'
_cell_volume   432.65773377
_cell_formula_units_Z   1
loop_
 _symmetry_equiv_pos_site_id
 _symmetry_equiv_pos_as_xyz
  1  'x, y, z'
loop_
 _atom_site_type_symbol
 _atom_site_label
 _atom_site_symmetry_multiplicity
 _atom_site_fract_x
 _atom_site_fract_y
 _atom_site_fract_z
 _atom_site_occupancy
  Nb  Nb0  1  0.00000000  0.50000000  0.00000000  1
  Nb  Nb1  1  0.60861600  0.08876800  0.19513900  1
  Nb  Nb2  1  0.71404200  0.18997600  0.40405700  1
  Nb  Nb3  1  0.18997600  0.71404200  0.40405700  1
  Nb  Nb4  1  0.28595800  0.81002400  0.59594300  1
  Nb  Nb5  1  0.85981500  0.85981500  0.68731800  1
  Nb  Nb6  1  0.81002400  0.28595800  0.59594300  1
  Nb  Nb7  1  0.91123200  0.39138400  0.80486100  1
  Nb  Nb8  1  0.44991100  0.44991100  0.90011500  1
  Nb  Nb9  1  0.39138400  0.91123200  0.80486100  1
  Nb  Nb10  1  0.50000000  0.00000000  0.00000000  1
  Nb  Nb11  1  0.05721700  0.05721700  0.09151300  1
  Nb  Nb12  1  0.14018500  0.14018500  0.31268200  1
  Nb  Nb13  1  0.08876800  0.60861600  0.19513900  1
  Nb  Nb14  1  0.65688400  0.65688400  0.29175400  1
  Nb  Nb15  1  0.75111800  0.75111800  0.49941800  1
  Nb  Nb16  1  0.24888200  0.24888200  0.50058200  1
  Nb  Nb17  1  0.34311600  0.34311600  0.70824600  1
  Nb  Nb18  1  0.94278300  0.94278300  0.90848700  1
  Nb  Nb19  1  0.55008900  0.55008900  0.09988500  1
  N  N0  1  0.39928200  0.39928200  0.30087500  1
  N  N1  1  0.50000000  0.50000000  0.50000000  1
  N  N2  1  0.09569100  0.09569100  0.70572500  1
  N  N3  1  0.64912100  0.14981900  0.79996700  1
  N  N4  1  0.60071800  0.60071800  0.69912500  1
  N  N5  1  0.70455900  0.70455900  0.89443100  1
  N  N6  1  0.24839200  0.75160800  0.00000000  1
  N  N7  1  0.35087900  0.85018100  0.20003300  1
  N  N8  1  0.29544100  0.29544100  0.10556900  1
  N  N9  1  0.85018100  0.35087900  0.20003300  1
  N  N10  1  0.94999100  0.45046400  0.39888000  1
  N  N11  1  0.90430900  0.90430900  0.29427500  1
  N  N12  1  0.45046400  0.94999100  0.39888000  1
  N  N13  1  0.54953600  0.05000900  0.60112000  1
  N  N14  1  0.05000900  0.54953600  0.60112000  1
  N  N15  1  0.14981900  0.64912100  0.79996700  1
  N  N16  1  0.75160800  0.24839200  0.00000000  1
loop_
_geom_bond_atom_site_label_1
_geom_bond_atom_site_label_2
_geom_bond_distance
_geom_bond_site_symmetry_2
N0 Nb16 2.207218 1_555
N0 Nb19 2.216429 1_555
N0 Nb1 2.302198 1_555
N0 Nb13 2.302198 1_555
N0 Nb3 2.313535 1_555
N0 Nb2 2.313535 1_555
N1 Nb6 2.225768 1_555
N1 Nb4 2.225768 1_555
N1 Nb2 2.225768 1_555
N1 Nb3 2.225768 1_555
N1 Nb14 2.302067 1_555
N1 Nb17 2.302067 1_555
N2 Nb4 2.208898 1_545
N2 Nb6 2.208898 1_455
N2 Nb7 2.217250 1_455
N2 Nb9 2.217250 1_545
N2 Nb18 2.242830 1_445
N2 Nb16 2.255755 1_555
N3 Nb10 2.200403 1_556
N3 Nb6 2.211540 1_555
N3 Nb5 2.213384 1_545
N3 Nb18 2.215664 1_545
N3 Nb17 2.216734 1_555
N3 Nb8 2.218205 1_555
N4 Nb15 2.207218 1_555
N4 Nb8 2.216429 1_555
N4 Nb7 2.302198 1_555
N4 Nb9 2.302198 1_555
N4 Nb6 2.313535 1_555
N4 Nb4 2.313535 1_555
N5 Nb10 2.212276 1_566
N5 Nb0 2.212276 1_656
N5 Nb9 2.221519 1_555
N5 Nb7 2.221519 1_555
N5 Nb19 2.268439 1_556
N5 Nb5 2.282664 1_555
N6 Nb9 2.196740 1_554
N6 Nb13 2.196740 1_555
N6 Nb18 2.217836 1_454
N6 Nb11 2.217836 1_565
N6 Nb19 2.222031 1_555
N6 Nb8 2.222031 1_554
N7 Nb10 2.200403 1_565
N7 Nb3 2.211540 1_555
N7 Nb12 2.213384 1_565
N7 Nb11 2.215664 1_565
N7 Nb14 2.216734 1_555
N7 Nb19 2.218205 1_555
N8 Nb0 2.212276 1_555
N8 Nb10 2.212276 1_555
N8 Nb1 2.221519 1_555
N8 Nb13 2.221519 1_555
N8 Nb8 2.268439 1_554
N8 Nb12 2.282664 1_555
N9 Nb0 2.200403 1_655
N9 Nb2 2.211540 1_555
N9 Nb12 2.213384 1_655
N9 Nb11 2.215664 1_655
N9 Nb14 2.216734 1_555
N9 Nb19 2.218205 1_555
N10 Nb14 2.203867 1_555
N10 Nb13 2.209223 1_655
N10 Nb6 2.213934 1_555
N10 Nb16 2.215335 1_655
N10 Nb12 2.218560 1_655
N10 Nb15 2.225300 1_555
N11 Nb3 2.208898 1_655
N11 Nb2 2.208898 1_565
N11 Nb13 2.217250 1_655
N11 Nb1 2.217250 1_565
N11 Nb11 2.242830 1_665
N11 Nb15 2.255755 1_555
N12 Nb14 2.203867 1_555
N12 Nb1 2.209223 1_565
N12 Nb4 2.213934 1_555
N12 Nb16 2.215335 1_565
N12 Nb12 2.218560 1_565
N12 Nb15 2.225300 1_555
N13 Nb17 2.203867 1_555
N13 Nb9 2.209223 1_545
N13 Nb2 2.213934 1_555
N13 Nb15 2.215335 1_545
N13 Nb5 2.218560 1_545
N13 Nb16 2.225300 1_555
N14 Nb17 2.203867 1_555
N14 Nb7 2.209223 1_455
N14 Nb3 2.213934 1_555
N14 Nb15 2.215335 1_455
N14 Nb5 2.218560 1_455
N14 Nb16 2.225300 1_555
N15 Nb0 2.200403 1_556
N15 Nb4 2.211540 1_555
N15 Nb5 2.213384 1_455
N15 Nb18 2.215664 1_455
N15 Nb17 2.216734 1_555
N15 Nb8 2.218205 1_555
N16 Nb7 2.196740 1_554
N16 Nb1 2.196740 1_555
N16 Nb18 2.217836 1_544
N16 Nb11 2.217836 1_655
N16 Nb8 2.222031 1_554
N16 Nb19 2.222031 1_555
