# generated using pymatgen
data_Li4MnCo2O7
_symmetry_space_group_name_H-M   'P 1'
_cell_length_a   2.98264532
_cell_length_b   5.96135060
_cell_length_c   14.31714736
_cell_angle_alpha   82.98939104
_cell_angle_beta   95.37947361
_cell_angle_gamma   93.99838466
_symmetry_Int_Tables_number   1
_chemical_formula_structural   Li4MnCo2O7
_chemical_formula_sum   'Li8 Mn2 Co4 O14'
_cell_volume   251.11332873
_cell_formula_units_Z   2
loop_
 _symmetry_equiv_pos_site_id
 _symmetry_equiv_pos_as_xyz
  1  'x, y, z'
loop_
 _atom_site_type_symbol
 _atom_site_label
 _atom_site_symmetry_multiplicity
 _atom_site_fract_x
 _atom_site_fract_y
 _atom_site_fract_z
 _atom_site_occupancy
  Li  Li0  1  0.99940700  0.49968900  0.99681100  1
  Li  Li1  1  0.57040200  0.21681500  0.14570600  1
  Li  Li2  1  0.14906800  0.93835700  0.29410900  1
  Li  Li3  1  0.42851400  0.78468300  0.85412500  1
  Li  Li4  1  0.85472300  0.07237900  0.71243300  1
  Li  Li5  1  0.28200900  0.35125000  0.56585800  1
  Li  Li6  1  0.72427000  0.62809200  0.43145200  1
  Li  Li7  1  0.70080500  0.15575500  0.43128200  1
  Mn  Mn0  1  0.99940300  0.00440500  0.99869200  1
  Mn  Mn1  1  0.58328000  0.70659400  0.14475600  1
  Co  Co0  1  0.14991300  0.41863900  0.29177000  1
  Co  Co1  1  0.27658000  0.86720500  0.56509800  1
  Co  Co2  1  0.85679600  0.57183100  0.71136900  1
  Co  Co3  1  0.42474700  0.29087200  0.85436500  1
  O  O0  1  0.46444700  0.24993400  0.99190900  1
  O  O1  1  0.04418300  0.95631100  0.14039700  1
  O  O2  1  0.66150800  0.64409100  0.28382700  1
  O  O3  1  0.89443000  0.52956400  0.84759400  1
  O  O4  1  0.32233300  0.81023500  0.70188900  1
  O  O5  1  0.75316700  0.08717700  0.57191400  1
  O  O6  1  0.20276900  0.39802600  0.41773500  1
  O  O7  1  0.53789100  0.75422300  0.00546300  1
  O  O8  1  0.11013400  0.46705100  0.15299100  1
  O  O9  1  0.62840300  0.21254800  0.28841000  1
  O  O10  1  0.95893100  0.04795100  0.86012000  1
  O  O11  1  0.38670600  0.33399100  0.72015400  1
  O  O12  1  0.81365900  0.61786500  0.57769000  1
  O  O13  1  0.22151900  0.88446400  0.44208000  1
loop_
_geom_bond_atom_site_label_1
_geom_bond_atom_site_label_2
_geom_bond_distance
_geom_bond_site_symmetry_2
Li0 O0 2.107325 1_555
Li0 O0 2.115974 1_655
Li0 O3 2.117374 1_555
Li0 O7 2.136829 1_656
Li0 O7 2.140501 1_556
Li0 O8 2.216111 1_656
Li1 O9 2.031390 1_555
Li1 O8 2.114527 1_555
Li1 O8 2.121162 1_655
Li1 O1 2.132461 1_545
Li1 O0 2.181621 1_554
Li1 O1 2.183885 1_645
Li2 O9 2.094238 1_565
Li2 O13 2.096604 1_555
Li2 O1 2.184161 1_555
Li2 O2 2.209267 1_455
Li2 O9 2.321157 1_465
Li2 O2 2.431911 1_555
Li3 O3 2.127971 1_455
Li3 O3 2.146326 1_555
Li3 O7 2.147974 1_556
Li3 O10 2.152793 1_565
Li3 O4 2.161099 1_555
Li3 O10 2.189551 1_465
Li4 O5 1.998284 1_555
Li4 O10 2.096821 1_555
Li4 O11 2.150864 1_655
Li4 O4 2.157086 1_545
Li4 O11 2.183503 1_555
Li4 O4 2.193438 1_645
Li5 O6 2.098055 1_555
Li5 O5 2.149369 1_455
Li5 O5 2.170929 1_555
Li5 O12 2.175601 1_555
Li5 O11 2.192665 1_555
Li5 O12 2.219450 1_455
Li6 O6 2.012459 1_555
Li6 O13 2.063229 1_655
Li6 O12 2.079631 1_555
Li6 O6 2.085125 1_655
Li6 O2 2.095330 1_555
Li6 O13 2.242022 1_555
Li7 O5 1.998627 1_555
Li7 O6 2.012357 1_655
Li7 O9 2.025766 1_555
Li7 O13 2.083509 1_545
Li7 O6 2.122948 1_555
Li7 O13 2.301260 1_645
Mn0 O0 1.945038 1_655
Mn0 O7 1.957547 1_546
Mn0 O10 1.962597 1_555
Mn0 O1 2.007151 1_646
Mn0 O0 2.227023 1_555
Mn0 O7 2.254534 1_646
Mn1 O8 1.937449 1_555
Mn1 O1 1.953924 1_655
Mn1 O7 1.972969 1_555
Mn1 O2 1.975264 1_555
Mn1 O8 2.181637 1_655
Mn1 O1 2.257819 1_555
Co0 O6 1.785417 1_555
Co0 O9 1.914453 1_455
Co0 O9 1.954571 1_555
Co0 O2 1.963895 1_555
Co0 O8 1.966167 1_555
Co0 O2 2.036177 1_455
Co1 O13 1.744564 1_555
Co1 O5 1.869497 1_565
Co1 O4 1.939976 1_555
Co1 O12 1.960449 1_455
Co1 O5 2.124056 1_465
Co1 O12 2.240653 1_555
Co2 O12 1.893522 1_555
Co2 O4 1.918157 1_655
Co2 O11 1.924663 1_555
Co2 O3 1.929482 1_555
Co2 O11 2.180804 1_655
Co2 O4 2.192658 1_555
Co3 O11 1.901000 1_555
Co3 O3 1.926249 1_555
Co3 O10 1.935452 1_455
Co3 O0 1.947940 1_555
Co3 O3 2.188035 1_455
Co3 O10 2.215956 1_555
