# generated using pymatgen
data_MgCr2P2O9
_symmetry_space_group_name_H-M   'P 1'
_cell_length_a   6.31151200
_cell_length_b   7.29632500
_cell_length_c   14.13482700
_cell_angle_alpha   90.00000000
_cell_angle_beta   90.00000000
_cell_angle_gamma   90.00000000
_symmetry_Int_Tables_number   1
_chemical_formula_structural   MgCr2P2O9
_chemical_formula_sum   'Mg4 Cr8 P8 O36'
_cell_volume   650.92069609
_cell_formula_units_Z   4
loop_
 _symmetry_equiv_pos_site_id
 _symmetry_equiv_pos_as_xyz
  1  'x, y, z'
loop_
 _atom_site_type_symbol
 _atom_site_label
 _atom_site_symmetry_multiplicity
 _atom_site_fract_x
 _atom_site_fract_y
 _atom_site_fract_z
 _atom_site_occupancy
  Mg  Mg0  1  0.75000000  0.91776700  0.77447700  1
  Mg  Mg1  1  0.75000000  0.58223300  0.27447700  1
  Mg  Mg2  1  0.25000000  0.41776800  0.72552300  1
  Mg  Mg3  1  0.25000000  0.08223300  0.22552300  1
  Cr  Cr0  1  0.75000000  0.35585300  0.87723400  1
  Cr  Cr1  1  0.25000000  0.64414700  0.12276600  1
  Cr  Cr2  1  0.25000000  0.85585300  0.62276600  1
  Cr  Cr3  1  0.75000000  0.14414700  0.37723400  1
  Cr  Cr4  1  0.50000000  0.00000000  0.00000000  1
  Cr  Cr5  1  0.50000000  0.50000000  0.50000000  1
  Cr  Cr6  1  0.00000000  0.50000000  0.50000000  1
  Cr  Cr7  1  0.00000000  0.00000000  0.00000000  1
  P  P0  1  0.25000000  0.36492800  0.92806700  1
  P  P1  1  0.75000000  0.63507200  0.07193300  1
  P  P2  1  0.75000000  0.86492800  0.57193300  1
  P  P3  1  0.25000000  0.13507200  0.42806700  1
  P  P4  1  0.75000000  0.38832100  0.69296300  1
  P  P5  1  0.75000000  0.11167900  0.19296300  1
  P  P6  1  0.25000000  0.88832100  0.80703700  1
  P  P7  1  0.25000000  0.61167900  0.30703700  1
  O  O0  1  0.04007200  0.60610200  0.36572600  1
  O  O1  1  0.54007200  0.39389800  0.63427400  1
  O  O2  1  0.95992800  0.10610200  0.13427400  1
  O  O3  1  0.45992800  0.89389800  0.86572600  1
  O  O4  1  0.95992800  0.39389800  0.63427400  1
  O  O5  1  0.45992800  0.60610200  0.36572600  1
  O  O6  1  0.04007200  0.89389800  0.86572600  1
  O  O7  1  0.54007200  0.10610200  0.13427400  1
  O  O8  1  0.25000000  0.32886900  0.47658500  1
  O  O9  1  0.75000000  0.67113100  0.52341500  1
  O  O10  1  0.75000000  0.82886900  0.02341500  1
  O  O11  1  0.25000000  0.17113100  0.97658500  1
  O  O12  1  0.75000000  0.12851000  0.94647300  1
  O  O13  1  0.25000000  0.87149000  0.05352700  1
  O  O14  1  0.25000000  0.62851000  0.55352700  1
  O  O15  1  0.75000000  0.37149000  0.44647300  1
  O  O16  1  0.75000000  0.20832800  0.75391100  1
  O  O17  1  0.25000000  0.79167200  0.24608900  1
  O  O18  1  0.25000000  0.70832800  0.74608900  1
  O  O19  1  0.75000000  0.29167200  0.25391100  1
  O  O20  1  0.43716900  0.12596500  0.35746300  1
  O  O21  1  0.93716900  0.87403500  0.64253700  1
  O  O22  1  0.56283100  0.62596500  0.14253700  1
  O  O23  1  0.06283100  0.37403500  0.85746300  1
  O  O24  1  0.56283100  0.87403500  0.64253700  1
  O  O25  1  0.06283100  0.12596500  0.35746300  1
  O  O26  1  0.43716900  0.37403500  0.85746300  1
  O  O27  1  0.93716900  0.62596500  0.14253700  1
  O  O28  1  0.75000000  0.48966900  0.99726900  1
  O  O29  1  0.25000000  0.04596600  0.73299900  1
  O  O30  1  0.25000000  0.45403400  0.23299900  1
  O  O31  1  0.75000000  0.54596600  0.76700100  1
  O  O32  1  0.75000000  0.01033100  0.49726900  1
  O  O33  1  0.25000000  0.98966900  0.50273100  1
  O  O34  1  0.25000000  0.51033100  0.00273100  1
  O  O35  1  0.75000000  0.95403400  0.26700100  1
loop_
_geom_bond_atom_site_label_1
_geom_bond_atom_site_label_2
_geom_bond_distance
_geom_bond_site_symmetry_2
Mg0 O16 2.139865 1_565
Mg0 O21 2.230552 1_555
Mg0 O24 2.230552 1_555
Mg0 O6 2.246261 1_655
Mg0 O3 2.246261 1_555
Mg0 O31 2.714838 1_555
Mg1 O19 2.139865 1_555
Mg1 O27 2.230552 1_555
Mg1 O22 2.230552 1_555
Mg1 O0 2.246261 1_655
Mg1 O5 2.246261 1_555
Mg1 O35 2.714838 1_555
Mg2 O18 2.139858 1_555
Mg2 O23 2.230554 1_555
Mg2 O26 2.230554 1_555
Mg2 O4 2.246262 1_455
Mg2 O1 2.246262 1_555
Mg2 O29 2.714846 1_555
Mg3 O17 2.139865 1_545
Mg3 O25 2.230552 1_555
Mg3 O20 2.230552 1_555
Mg3 O7 2.246261 1_555
Mg3 O2 2.246261 1_455
Mg3 O30 2.714838 1_555
Cr0 O12 1.925962 1_555
Cr0 O28 1.957547 1_555
Cr0 O26 1.998524 1_555
Cr0 O23 1.998524 1_655
Cr0 O16 2.048703 1_555
Cr0 O31 2.086114 1_555
Cr1 O13 1.925962 1_555
Cr1 O34 1.957547 1_555
Cr1 O22 1.998524 1_555
Cr1 O27 1.998524 1_455
Cr1 O17 2.048703 1_555
Cr1 O30 2.086114 1_555
Cr2 O14 1.925962 1_555
Cr2 O33 1.957547 1_555
Cr2 O24 1.998524 1_555
Cr2 O21 1.998524 1_455
Cr2 O18 2.048703 1_555
Cr2 O29 2.086114 1_565
Cr3 O15 1.925962 1_555
Cr3 O32 1.957547 1_555
Cr3 O20 1.998524 1_555
Cr3 O25 1.998524 1_655
Cr3 O19 2.048703 1_555
Cr3 O35 2.086114 1_545
Cr4 O13 1.985277 1_545
Cr4 O12 1.985277 1_554
Cr4 O10 2.039193 1_545
Cr4 O11 2.039193 1_554
Cr4 O7 2.065298 1_555
Cr4 O3 2.065298 1_544
Cr5 O14 1.985277 1_555
Cr5 O15 1.985277 1_555
Cr5 O9 2.039193 1_555
Cr5 O8 2.039193 1_555
Cr5 O5 2.065298 1_555
Cr5 O1 2.065298 1_555
Cr6 O14 1.985277 1_555
Cr6 O15 1.985277 1_455
Cr6 O9 2.039193 1_455
Cr6 O8 2.039193 1_555
Cr6 O0 2.065298 1_555
Cr6 O4 2.065298 1_455
Cr7 O13 1.985277 1_545
Cr7 O12 1.985277 1_454
Cr7 O10 2.039193 1_445
Cr7 O11 2.039193 1_554
Cr7 O6 2.065298 1_544
Cr7 O2 2.065298 1_455
O0 P7 1.563762 1_555
O1 P4 1.563762 1_555
O2 P5 1.563762 1_555
O3 P6 1.563762 1_555
O4 P4 1.563762 1_555
O5 P7 1.563762 1_555
O6 P6 1.563762 1_555
O7 P5 1.563762 1_555
O8 P3 1.571536 1_555
O9 P2 1.571536 1_555
O10 P1 1.571536 1_555
O11 P0 1.571536 1_555
O16 P4 1.570633 1_555
O17 P7 1.570633 1_555
O18 P6 1.570633 1_555
O19 P5 1.570633 1_555
O20 P3 1.547865 1_555
O21 P2 1.547865 1_555
O22 P1 1.547865 1_555
O23 P0 1.547865 1_555
O24 P2 1.547865 1_555
O25 P3 1.547865 1_555
O26 P0 1.547865 1_555
O27 P1 1.547865 1_555
O28 P1 1.496434 1_556
O29 P6 1.555062 1_545
O30 P7 1.555062 1_555
O31 P4 1.555062 1_555
O32 P2 1.496434 1_545
O33 P3 1.496434 1_565
O34 P0 1.496434 1_554
O35 P5 1.555062 1_565
