# generated using pymatgen
data_Cs2NaTbF6
_symmetry_space_group_name_H-M   'P 1'
_cell_length_a   6.37348714
_cell_length_b   6.37348714
_cell_length_c   6.37348714
_cell_angle_alpha   60.00000000
_cell_angle_beta   60.00000000
_cell_angle_gamma   60.00000000
_symmetry_Int_Tables_number   1
_chemical_formula_structural   Cs2NaTbF6
_chemical_formula_sum   'Cs2 Na1 Tb1 F6'
_cell_volume   183.06964726
_cell_formula_units_Z   1
loop_
 _symmetry_equiv_pos_site_id
 _symmetry_equiv_pos_as_xyz
  1  'x, y, z'
loop_
 _atom_site_type_symbol
 _atom_site_label
 _atom_site_symmetry_multiplicity
 _atom_site_fract_x
 _atom_site_fract_y
 _atom_site_fract_z
 _atom_site_occupancy
  Cs  Cs0  1  0.75000000  0.75000000  0.75000000  1
  Cs  Cs1  1  0.25000000  0.25000000  0.25000000  1
  Na  Na0  1  0.50000000  0.50000000  0.50000000  1
  Tb  Tb0  1  -0.00000000  -0.00000000  0.00000000  1
  F  F0  1  0.75702715  0.75702715  0.24297285  1
  F  F1  1  0.24297285  0.24297285  0.75702715  1
  F  F2  1  0.75702715  0.24297285  0.75702715  1
  F  F3  1  0.24297285  0.75702715  0.24297285  1
  F  F4  1  0.24297285  0.75702715  0.75702715  1
  F  F5  1  0.75702715  0.24297285  0.24297285  1
loop_
_geom_bond_atom_site_label_1
_geom_bond_atom_site_label_2
_geom_bond_distance
_geom_bond_site_symmetry_2
Cs0 F0 3.187373 1_555
Cs0 F4 3.187373 1_555
Cs0 F2 3.187373 1_555
Cs0 F1 3.187373 1_655
Cs0 F5 3.187373 1_556
Cs0 F5 3.187373 1_565
Cs0 F1 3.187373 1_565
Cs0 F3 3.187373 1_556
Cs0 F0 3.187373 1_556
Cs0 F3 3.187373 1_655
Cs0 F2 3.187373 1_565
Cs0 F4 3.187373 1_655
Cs1 F3 3.187373 1_555
Cs1 F0 3.187373 1_455
Cs1 F4 3.187373 1_554
Cs1 F3 3.187373 1_545
Cs1 F1 3.187373 1_555
Cs1 F1 3.187373 1_554
Cs1 F0 3.187373 1_545
Cs1 F5 3.187373 1_555
Cs1 F2 3.187373 1_554
Cs1 F5 3.187373 1_455
Cs1 F2 3.187373 1_455
Cs1 F4 3.187373 1_545
F0 Tb0 2.190029 1_665
F0 Na0 2.316707 1_555
F1 Tb0 2.190029 1_556
F1 Na0 2.316707 1_555
F2 Tb0 2.190029 1_656
F2 Na0 2.316707 1_555
F3 Tb0 2.190029 1_565
F3 Na0 2.316707 1_555
F4 Tb0 2.190029 1_566
F4 Na0 2.316707 1_555
F5 Tb0 2.190029 1_655
F5 Na0 2.316707 1_555
