# generated using pymatgen
data_La4Nd4S4O7
_symmetry_space_group_name_H-M   'P 1'
_cell_length_a   7.98253937
_cell_length_b   7.98253937
_cell_length_c   9.80908336
_cell_angle_alpha   52.67132928
_cell_angle_beta   52.67132928
_cell_angle_gamma   60.63015255
_symmetry_Int_Tables_number   1
_chemical_formula_structural   La4Nd4S4O7
_chemical_formula_sum   'La4 Nd4 S4 O7'
_cell_volume   387.69476257
_cell_formula_units_Z   1
loop_
 _symmetry_equiv_pos_site_id
 _symmetry_equiv_pos_as_xyz
  1  'x, y, z'
loop_
 _atom_site_type_symbol
 _atom_site_label
 _atom_site_symmetry_multiplicity
 _atom_site_fract_x
 _atom_site_fract_y
 _atom_site_fract_z
 _atom_site_occupancy
  La  La0  1  0.18835500  0.18835500  0.83343000  1
  La  La1  1  0.69449100  0.69449100  0.82115700  1
  La  La2  1  0.17544700  0.69469200  0.33958300  1
  La  La3  1  0.69469200  0.17544700  0.33958300  1
  Nd  Nd0  1  0.80246800  0.30120000  0.66690100  1
  Nd  Nd1  1  0.30120000  0.80246800  0.66690100  1
  Nd  Nd2  1  0.29615400  0.29615400  0.16692100  1
  Nd  Nd3  1  0.80177800  0.80177800  0.16597400  1
  S  S0  1  0.99360800  0.49814600  0.00028900  1
  S  S1  1  0.49814600  0.99360800  0.00028900  1
  S  S2  1  0.49805500  0.49805500  0.49809600  1
  S  S3  1  0.00046500  0.00046500  0.50140900  1
  O  O0  1  0.01162300  0.01162300  0.83453900  1
  O  O1  1  0.51312300  0.51312300  0.83918200  1
  O  O2  1  0.51400800  0.02063900  0.32987300  1
  O  O3  1  0.02063900  0.51400800  0.32987300  1
  O  O4  1  0.97611200  0.47245300  0.66744700  1
  O  O5  1  0.47245300  0.97611200  0.66744700  1
  O  O6  1  0.97586400  0.97586400  0.16445600  1
loop_
_geom_bond_atom_site_label_1
_geom_bond_atom_site_label_2
_geom_bond_distance
_geom_bond_site_symmetry_2
La0 O6 2.400137 1_446
La0 O5 2.400608 1_545
La0 O4 2.400608 1_455
La0 O0 2.428102 1_555
La0 S1 3.043510 1_546
La0 S0 3.043510 1_456
La0 S2 3.051870 1_555
La1 O1 2.378759 1_555
La1 O4 2.385473 1_555
La1 O5 2.385473 1_555
La1 S3 3.006461 1_665
La1 S0 3.053289 1_556
La1 S1 3.053289 1_556
La2 O6 2.379590 1_455
La2 O4 2.380216 1_455
La2 O3 2.382038 1_555
La2 S3 3.015656 1_565
La2 S1 3.066983 1_555
La2 S2 3.073186 1_555
La3 O6 2.379590 1_545
La3 O5 2.380216 1_545
La3 O2 2.382038 1_555
La3 S3 3.015656 1_655
La3 S0 3.066983 1_555
La3 S2 3.073186 1_555
Nd0 O4 2.380480 1_555
Nd0 O0 2.401863 1_655
Nd0 O1 2.439899 1_555
Nd0 O3 2.440600 1_655
Nd0 S3 2.964638 1_655
Nd0 S2 3.015715 1_555
Nd0 S1 3.017056 1_546
Nd1 O5 2.380480 1_555
Nd1 O0 2.401863 1_565
Nd1 O1 2.439899 1_555
Nd1 O2 2.440600 1_565
Nd1 S3 2.964638 1_565
Nd1 S2 3.015715 1_555
Nd1 S0 3.017056 1_456
Nd2 O1 2.402398 1_554
Nd2 O2 2.402553 1_555
Nd2 O3 2.402553 1_555
Nd2 S3 2.930545 1_555
Nd2 S0 2.979187 1_455
Nd2 S1 2.979187 1_545
Nd3 O6 2.388827 1_555
Nd3 O0 2.392596 1_664
Nd3 O2 2.429959 1_565
Nd3 O3 2.429959 1_655
Nd3 S2 2.996190 1_555
Nd3 S1 2.996546 1_555
Nd3 S0 2.996546 1_555
