# generated using pymatgen
data_NaN3
_symmetry_space_group_name_H-M   'P 1'
_cell_length_a   4.62095429
_cell_length_b   4.62095429
_cell_length_c   4.74301941
_cell_angle_alpha   68.83426219
_cell_angle_beta   68.83426219
_cell_angle_gamma   75.96203592
_symmetry_Int_Tables_number   1
_chemical_formula_structural   NaN3
_chemical_formula_sum   'Na1 N3'
_cell_volume   87.33901092
_cell_formula_units_Z   1
loop_
 _symmetry_equiv_pos_site_id
 _symmetry_equiv_pos_as_xyz
  1  'x, y, z'
loop_
 _atom_site_type_symbol
 _atom_site_label
 _atom_site_symmetry_multiplicity
 _atom_site_fract_x
 _atom_site_fract_y
 _atom_site_fract_z
 _atom_site_occupancy
  Na  Na0  1  0.00000000  0.00000000  0.00000000  1
  N  N0  1  0.00000000  0.00000000  0.50000000  1
  N  N1  1  0.54346900  0.54346900  0.36748600  1
  N  N2  1  0.45653100  0.45653100  0.63251400  1
loop_
_geom_bond_atom_site_label_1
_geom_bond_atom_site_label_2
_geom_bond_distance
_geom_bond_site_symmetry_2
N0 Na0 2.371510 1_555
N0 Na0 2.371510 1_556
N1 N2 1.118867 1_555
N1 Na0 2.964346 1_665
N2 Na0 2.964346 1_556
