# generated using pymatgen
data_KPrMnNbO6
_symmetry_space_group_name_H-M   'P 1'
_cell_length_a   5.66603251
_cell_length_b   5.66603251
_cell_length_c   5.66603251
_cell_angle_alpha   60.00000000
_cell_angle_beta   60.00000000
_cell_angle_gamma   60.00000000
_symmetry_Int_Tables_number   1
_chemical_formula_structural   KPrMnNbO6
_chemical_formula_sum   'K1 Pr1 Mn1 Nb1 O6'
_cell_volume   128.62405239
_cell_formula_units_Z   1
loop_
 _symmetry_equiv_pos_site_id
 _symmetry_equiv_pos_as_xyz
  1  'x, y, z'
loop_
 _atom_site_type_symbol
 _atom_site_label
 _atom_site_symmetry_multiplicity
 _atom_site_fract_x
 _atom_site_fract_y
 _atom_site_fract_z
 _atom_site_occupancy
  K  K0  1  0.75000000  0.75000000  0.75000000  1
  Pr  Pr0  1  0.25000000  0.25000000  0.25000000  1
  Mn  Mn0  1  0.00000000  -0.00000000  -0.00000000  1
  Nb  Nb0  1  0.50000000  0.50000000  0.50000000  1
  O  O0  1  0.74905900  0.25094100  0.25094100  1
  O  O1  1  0.25094100  0.74905900  0.74905900  1
  O  O2  1  0.74905900  0.25094100  0.74905900  1
  O  O3  1  0.25094100  0.74905900  0.25094100  1
  O  O4  1  0.74905900  0.74905900  0.25094100  1
  O  O5  1  0.25094100  0.25094100  0.74905900  1
loop_
_geom_bond_atom_site_label_1
_geom_bond_atom_site_label_2
_geom_bond_distance
_geom_bond_site_symmetry_2
K0 O4 2.833026 1_555
K0 O2 2.833026 1_555
K0 O0 2.833026 1_565
K0 O5 2.833026 1_655
K0 O5 2.833026 1_565
K0 O3 2.833026 1_556
K0 O0 2.833026 1_556
K0 O1 2.833026 1_555
K0 O3 2.833026 1_655
K0 O2 2.833026 1_565
K0 O4 2.833026 1_556
K0 O1 2.833026 1_655
Mn0 O4 2.010785 1_445
Mn0 O1 2.010785 1_544
Mn0 O2 2.010785 1_454
Mn0 O3 2.010785 1_545
Mn0 O5 2.010785 1_554
Mn0 O0 2.010785 1_455
Nb0 O0 1.995705 1_555
Nb0 O3 1.995705 1_555
Nb0 O5 1.995705 1_555
Nb0 O2 1.995705 1_555
Nb0 O1 1.995705 1_555
Nb0 O4 1.995705 1_555
O0 Pr0 2.833026 1_655
O0 Pr0 2.833026 1_555
O1 Pr0 2.833026 1_565
O1 Pr0 2.833026 1_556
O2 Pr0 2.833026 1_655
O2 Pr0 2.833026 1_556
O3 Pr0 2.833026 1_565
O3 Pr0 2.833026 1_555
O4 Pr0 2.833026 1_655
O4 Pr0 2.833026 1_565
O5 Pr0 2.833026 1_556
O5 Pr0 2.833026 1_555
