# generated using pymatgen
data_ZnNi3B2
_symmetry_space_group_name_H-M   'P 1'
_cell_length_a   5.77811600
_cell_length_b   9.90573036
_cell_length_c   16.87484150
_cell_angle_alpha   100.80966611
_cell_angle_beta   90.00000000
_cell_angle_gamma   106.95707784
_symmetry_Int_Tables_number   1
_chemical_formula_structural   ZnNi3B2
_chemical_formula_sum   'Zn16 Ni48 B32'
_cell_volume   905.93156465
_cell_formula_units_Z   16
loop_
 _symmetry_equiv_pos_site_id
 _symmetry_equiv_pos_as_xyz
  1  'x, y, z'
loop_
 _atom_site_type_symbol
 _atom_site_label
 _atom_site_symmetry_multiplicity
 _atom_site_fract_x
 _atom_site_fract_y
 _atom_site_fract_z
 _atom_site_occupancy
  Zn  Zn0_0  1  0.06919550  0.13839150  0.26264700  1
  Zn  Zn0_1  1  0.06919550  0.13839150  0.76264700  1
  Zn  Zn0_2  1  0.06919550  0.63839150  0.26264700  1
  Zn  Zn0_3  1  0.06919550  0.63839150  0.76264700  1
  Zn  Zn0_4  1  0.56919550  0.13839150  0.26264700  1
  Zn  Zn0_5  1  0.56919550  0.13839150  0.76264700  1
  Zn  Zn0_6  1  0.56919550  0.63839150  0.26264700  1
  Zn  Zn0_7  1  0.56919550  0.63839150  0.76264700  1
  Zn  Zn1_0  1  0.43080450  0.36160850  0.23735300  1
  Zn  Zn1_1  1  0.43080450  0.36160850  0.73735300  1
  Zn  Zn1_2  1  0.43080450  0.86160850  0.23735300  1
  Zn  Zn1_3  1  0.43080450  0.86160850  0.73735300  1
  Zn  Zn1_4  1  0.93080450  0.36160850  0.23735300  1
  Zn  Zn1_5  1  0.93080450  0.36160850  0.73735300  1
  Zn  Zn1_6  1  0.93080450  0.86160850  0.23735300  1
  Zn  Zn1_7  1  0.93080450  0.86160850  0.73735300  1
  Ni  Ni0_0  1  0.10948400  0.21896800  0.12528650  1
  Ni  Ni0_1  1  0.10948400  0.21896800  0.62528650  1
  Ni  Ni0_2  1  0.10948400  0.71896800  0.12528650  1
  Ni  Ni0_3  1  0.10948400  0.71896800  0.62528650  1
  Ni  Ni0_4  1  0.60948400  0.21896800  0.12528650  1
  Ni  Ni0_5  1  0.60948400  0.21896800  0.62528650  1
  Ni  Ni0_6  1  0.60948400  0.71896800  0.12528650  1
  Ni  Ni0_7  1  0.60948400  0.71896800  0.62528650  1
  Ni  Ni1_0  1  0.39051600  0.28103200  0.37471350  1
  Ni  Ni1_1  1  0.39051600  0.28103200  0.87471350  1
  Ni  Ni1_2  1  0.39051600  0.78103200  0.37471350  1
  Ni  Ni1_3  1  0.39051600  0.78103200  0.87471350  1
  Ni  Ni1_4  1  0.89051600  0.28103200  0.37471350  1
  Ni  Ni1_5  1  0.89051600  0.28103200  0.87471350  1
  Ni  Ni1_6  1  0.89051600  0.78103200  0.37471350  1
  Ni  Ni1_7  1  0.89051600  0.78103200  0.87471350  1
  Ni  Ni2_0  1  0.24779750  0.49559500  0.14385650  1
  Ni  Ni2_1  1  0.24779750  0.49559500  0.64385650  1
  Ni  Ni2_2  1  0.24779750  0.99559500  0.14385650  1
  Ni  Ni2_3  1  0.24779750  0.99559500  0.64385650  1
  Ni  Ni2_4  1  0.74779750  0.49559500  0.14385650  1
  Ni  Ni2_5  1  0.74779750  0.49559500  0.64385650  1
  Ni  Ni2_6  1  0.74779750  0.99559500  0.14385650  1
  Ni  Ni2_7  1  0.74779750  0.99559500  0.64385650  1
  Ni  Ni3_0  1  0.25220250  0.00440500  0.35614350  1
  Ni  Ni3_1  1  0.25220250  0.00440500  0.85614350  1
  Ni  Ni3_2  1  0.25220250  0.50440500  0.35614350  1
  Ni  Ni3_3  1  0.25220250  0.50440500  0.85614350  1
  Ni  Ni3_4  1  0.75220250  0.00440500  0.35614350  1
  Ni  Ni3_5  1  0.75220250  0.00440500  0.85614350  1
  Ni  Ni3_6  1  0.75220250  0.50440500  0.35614350  1
  Ni  Ni3_7  1  0.75220250  0.50440500  0.85614350  1
  Ni  Ni4_0  1  0.31934100  0.13868250  0.00137450  1
  Ni  Ni4_1  1  0.31934100  0.13868250  0.50137450  1
  Ni  Ni4_2  1  0.31934100  0.63868250  0.00137450  1
  Ni  Ni4_3  1  0.31934100  0.63868250  0.50137450  1
  Ni  Ni4_4  1  0.81934100  0.13868250  0.00137450  1
  Ni  Ni4_5  1  0.81934100  0.13868250  0.50137450  1
  Ni  Ni4_6  1  0.81934100  0.63868250  0.00137450  1
  Ni  Ni4_7  1  0.81934100  0.63868250  0.50137450  1
  Ni  Ni5_0  1  0.18065900  0.36131750  0.49862550  1
  Ni  Ni5_1  1  0.18065900  0.36131750  0.99862550  1
  Ni  Ni5_2  1  0.18065900  0.86131750  0.49862550  1
  Ni  Ni5_3  1  0.18065900  0.86131750  0.99862550  1
  Ni  Ni5_4  1  0.68065900  0.36131750  0.49862550  1
  Ni  Ni5_5  1  0.68065900  0.36131750  0.99862550  1
  Ni  Ni5_6  1  0.68065900  0.86131750  0.49862550  1
  Ni  Ni5_7  1  0.68065900  0.86131750  0.99862550  1
  B  B0_0  1  0.07765850  0.15531700  0.40795600  1
  B  B0_1  1  0.07765850  0.15531700  0.90795600  1
  B  B0_2  1  0.07765850  0.65531700  0.40795600  1
  B  B0_3  1  0.07765850  0.65531700  0.90795600  1
  B  B0_4  1  0.57765850  0.15531700  0.40795600  1
  B  B0_5  1  0.57765850  0.15531700  0.90795600  1
  B  B0_6  1  0.57765850  0.65531700  0.40795600  1
  B  B0_7  1  0.57765850  0.65531700  0.90795600  1
  B  B1_0  1  0.42234150  0.34468300  0.09204400  1
  B  B1_1  1  0.42234150  0.34468300  0.59204400  1
  B  B1_2  1  0.42234150  0.84468300  0.09204400  1
  B  B1_3  1  0.42234150  0.84468300  0.59204400  1
  B  B1_4  1  0.92234150  0.34468300  0.09204400  1
  B  B1_5  1  0.92234150  0.34468300  0.59204400  1
  B  B1_6  1  0.92234150  0.84468300  0.09204400  1
  B  B1_7  1  0.92234150  0.84468300  0.59204400  1
  B  B2_0  1  0.00743050  0.01486150  0.05563150  1
  B  B2_1  1  0.00743050  0.01486150  0.55563150  1
  B  B2_2  1  0.00743050  0.51486150  0.05563150  1
  B  B2_3  1  0.00743050  0.51486150  0.55563150  1
  B  B2_4  1  0.50743050  0.01486150  0.05563150  1
  B  B2_5  1  0.50743050  0.01486150  0.55563150  1
  B  B2_6  1  0.50743050  0.51486150  0.05563150  1
  B  B2_7  1  0.50743050  0.51486150  0.55563150  1
  B  B3_0  1  0.49256950  0.48513850  0.44436850  1
  B  B3_1  1  0.49256950  0.48513850  0.94436850  1
  B  B3_2  1  0.49256950  0.98513850  0.44436850  1
  B  B3_3  1  0.49256950  0.98513850  0.94436850  1
  B  B3_4  1  0.99256950  0.48513850  0.44436850  1
  B  B3_5  1  0.99256950  0.48513850  0.94436850  1
  B  B3_6  1  0.99256950  0.98513850  0.44436850  1
  B  B3_7  1  0.99256950  0.98513850  0.94436850  1
loop_
_geom_bond_atom_site_label_1
_geom_bond_atom_site_label_2
_geom_bond_distance
_geom_bond_site_symmetry_2
Zn0_0 Zn1_6 2.573116 1_445
Zn0_0 Zn1_4 2.663842 1_455
Zn0_0 Zn1_0 2.663845 1_555
Zn0_0 Zn0_4 2.889058 1_555
Zn0_0 Zn0_4 2.889058 1_455
Zn0_1 Zn1_7 2.573116 1_445
Zn0_1 Zn1_5 2.663842 1_455
Zn0_1 Zn1_1 2.663845 1_555
Zn0_1 Zn0_5 2.889058 1_555
Zn0_1 Zn0_5 2.889058 1_455
Zn0_2 Zn1_4 2.573116 1_455
Zn0_2 Zn1_6 2.663842 1_455
Zn0_2 Zn1_2 2.663845 1_555
Zn0_2 Zn0_6 2.889058 1_555
Zn0_2 Zn0_6 2.889058 1_455
Zn0_3 Zn1_5 2.573116 1_455
Zn0_3 Zn1_7 2.663842 1_455
Zn0_3 Zn1_3 2.663845 1_555
Zn0_3 Zn0_7 2.889058 1_555
Zn0_3 Zn0_7 2.889058 1_455
Zn0_4 Zn1_2 2.573116 1_545
Zn0_4 Zn1_0 2.663842 1_555
Zn0_4 Zn1_4 2.663845 1_555
Zn0_5 Zn1_3 2.573116 1_545
Zn0_5 Zn1_1 2.663842 1_555
Zn0_5 Zn1_5 2.663845 1_555
Zn0_6 Zn1_0 2.573116 1_555
Zn0_6 Zn1_2 2.663842 1_555
Zn0_6 Zn1_6 2.663845 1_555
Zn0_7 Zn1_1 2.573116 1_555
Zn0_7 Zn1_3 2.663842 1_555
Zn0_7 Zn1_7 2.663845 1_555
Zn1_0 Zn1_4 2.889058 1_455
Zn1_0 Zn1_4 2.889058 1_555
Zn1_1 Zn1_5 2.889058 1_455
Zn1_1 Zn1_5 2.889058 1_555
Zn1_2 Zn1_6 2.889058 1_555
Zn1_2 Zn1_6 2.889058 1_455
Zn1_3 Zn1_7 2.889058 1_455
Zn1_3 Zn1_7 2.889058 1_555
Ni0_0 Zn1_4 2.547016 1_455
Ni0_0 Zn1_0 2.547018 1_555
Ni0_0 Zn0_0 2.578697 1_555
Ni0_1 Zn1_5 2.547016 1_455
Ni0_1 Zn1_1 2.547018 1_555
Ni0_1 Zn0_1 2.578697 1_555
Ni0_2 Zn1_6 2.547016 1_455
Ni0_2 Zn1_2 2.547018 1_555
Ni0_2 Zn0_2 2.578697 1_555
Ni0_3 Zn1_7 2.547016 1_455
Ni0_3 Zn1_3 2.547018 1_555
Ni0_3 Zn0_3 2.578697 1_555
Ni0_4 Zn1_0 2.547016 1_555
Ni0_4 Zn1_4 2.547018 1_555
Ni0_4 Zn0_4 2.578697 1_555
Ni0_5 Zn1_1 2.547016 1_555
Ni0_5 Zn1_5 2.547018 1_555
Ni0_5 Zn0_5 2.578697 1_555
Ni0_6 Zn1_2 2.547016 1_555
Ni0_6 Zn1_6 2.547018 1_555
Ni0_6 Zn0_6 2.578697 1_555
Ni0_7 Zn1_3 2.547016 1_555
Ni0_7 Zn1_7 2.547018 1_555
Ni0_7 Zn0_7 2.578697 1_555
Ni1_0 Zn0_4 2.547016 1_555
Ni1_0 Zn0_0 2.547018 1_555
Ni1_0 Zn1_0 2.578697 1_555
Ni1_1 Zn0_5 2.547016 1_555
Ni1_1 Zn0_1 2.547018 1_555
Ni1_1 Zn1_1 2.578697 1_555
Ni1_2 Zn0_6 2.547016 1_555
Ni1_2 Zn0_2 2.547018 1_555
Ni1_2 Zn1_2 2.578697 1_555
Ni1_3 Zn0_7 2.547016 1_555
Ni1_3 Zn0_3 2.547018 1_555
Ni1_3 Zn1_3 2.578697 1_555
Ni1_4 Zn0_0 2.547016 1_655
Ni1_4 Zn0_4 2.547018 1_555
Ni1_4 Zn1_4 2.578697 1_555
Ni1_5 Zn0_1 2.547016 1_655
Ni1_5 Zn0_5 2.547018 1_555
Ni1_5 Zn1_5 2.578697 1_555
Ni1_6 Zn0_2 2.547016 1_655
Ni1_6 Zn0_6 2.547018 1_555
Ni1_6 Zn1_6 2.578697 1_555
Ni1_7 Zn0_3 2.547016 1_655
Ni1_7 Zn0_7 2.547018 1_555
Ni1_7 Zn1_7 2.578697 1_555
Ni2_0 Zn0_6 2.621454 1_555
Ni2_0 Zn0_2 2.621455 1_555
Ni2_0 Zn1_4 2.640660 1_455
Ni2_0 Zn1_0 2.640661 1_555
Ni2_1 Zn0_7 2.621454 1_555
Ni2_1 Zn0_3 2.621455 1_555
Ni2_1 Zn1_5 2.640660 1_455
Ni2_1 Zn1_1 2.640661 1_555
Ni2_2 Zn0_4 2.621454 1_565
Ni2_2 Zn0_0 2.621455 1_565
Ni2_2 Zn1_6 2.640660 1_455
Ni2_2 Zn1_2 2.640661 1_555
Ni2_3 Zn0_5 2.621454 1_565
Ni2_3 Zn0_1 2.621455 1_565
Ni2_3 Zn1_7 2.640660 1_455
Ni2_3 Zn1_3 2.640661 1_555
Ni2_4 Zn0_2 2.621454 1_655
Ni2_4 Zn0_6 2.621455 1_555
Ni2_4 Zn1_0 2.640660 1_555
Ni2_4 Zn1_4 2.640661 1_555
Ni2_5 Zn0_3 2.621454 1_655
Ni2_5 Zn0_7 2.621455 1_555
Ni2_5 Zn1_1 2.640660 1_555
Ni2_5 Zn1_5 2.640661 1_555
Ni2_6 Zn0_0 2.621454 1_665
Ni2_6 Zn0_4 2.621455 1_565
Ni2_6 Zn1_2 2.640660 1_555
Ni2_6 Zn1_6 2.640661 1_555
Ni2_7 Zn0_1 2.621454 1_665
Ni2_7 Zn0_5 2.621455 1_565
Ni2_7 Zn1_3 2.640660 1_555
Ni2_7 Zn1_7 2.640661 1_555
Ni3_0 Zn1_6 2.621454 1_445
Ni3_0 Zn1_2 2.621455 1_545
Ni3_0 Zn0_4 2.640660 1_555
Ni3_0 Zn0_0 2.640661 1_555
Ni3_1 Zn1_7 2.621454 1_445
Ni3_1 Zn1_3 2.621455 1_545
Ni3_1 Zn0_5 2.640660 1_555
Ni3_1 Zn0_1 2.640661 1_555
Ni3_2 Zn1_4 2.621454 1_455
Ni3_2 Zn1_0 2.621455 1_555
Ni3_2 Zn0_6 2.640660 1_555
Ni3_2 Zn0_2 2.640661 1_555
Ni3_3 Zn1_5 2.621454 1_455
Ni3_3 Zn1_1 2.621455 1_555
Ni3_3 Zn0_7 2.640660 1_555
Ni3_3 Zn0_3 2.640661 1_555
Ni3_4 Zn1_2 2.621454 1_545
Ni3_4 Zn1_6 2.621455 1_545
Ni3_4 Zn0_0 2.640660 1_655
Ni3_4 Zn0_4 2.640661 1_555
Ni3_5 Zn1_3 2.621454 1_545
Ni3_5 Zn1_7 2.621455 1_545
Ni3_5 Zn0_1 2.640660 1_655
Ni3_5 Zn0_5 2.640661 1_555
Ni3_6 Zn1_0 2.621454 1_555
Ni3_6 Zn1_4 2.621455 1_555
Ni3_6 Zn0_2 2.640660 1_655
Ni3_6 Zn0_6 2.640661 1_555
Ni3_7 Zn1_1 2.621454 1_555
Ni3_7 Zn1_5 2.621455 1_555
Ni3_7 Zn0_3 2.640660 1_655
Ni3_7 Zn0_7 2.640661 1_555
B0_0 B3_6 1.834689 1_445
B0_0 Ni1_0 2.020452 1_555
B0_0 Ni1_4 2.020452 1_455
B0_0 Ni3_0 2.098921 1_555
B0_0 Ni3_4 2.098921 1_455
B0_0 Ni4_1 2.166574 1_555
B0_0 Ni4_5 2.166576 1_455
B0_0 Ni5_0 2.231521 1_555
B0_0 Zn0_0 2.425725 1_555
B0_1 B3_7 1.834689 1_445
B0_1 Ni1_5 2.020452 1_455
B0_1 Ni1_1 2.020452 1_555
B0_1 Ni3_1 2.098921 1_555
B0_1 Ni3_5 2.098921 1_455
B0_1 Ni4_0 2.166574 1_556
B0_1 Ni4_4 2.166576 1_456
B0_1 Ni5_1 2.231521 1_555
B0_1 Zn0_1 2.425725 1_555
B0_2 B3_4 1.834689 1_455
B0_2 Ni1_2 2.020452 1_555
B0_2 Ni1_6 2.020452 1_455
B0_2 Ni3_6 2.098921 1_455
B0_2 Ni3_2 2.098921 1_555
B0_2 Ni4_3 2.166574 1_555
B0_2 Ni4_7 2.166576 1_455
B0_2 Ni5_2 2.231521 1_555
B0_2 Zn0_2 2.425725 1_555
B0_3 B3_5 1.834689 1_455
B0_3 Ni1_3 2.020452 1_555
B0_3 Ni1_7 2.020452 1_455
B0_3 Ni3_3 2.098921 1_555
B0_3 Ni3_7 2.098921 1_455
B0_3 Ni4_2 2.166574 1_556
B0_3 Ni4_6 2.166576 1_456
B0_3 Ni5_3 2.231521 1_555
B0_3 Zn0_3 2.425725 1_555
B0_4 B3_2 1.834689 1_545
B0_4 Ni1_4 2.020452 1_555
B0_4 Ni1_0 2.020452 1_555
B0_4 Ni3_4 2.098921 1_555
B0_4 Ni3_0 2.098921 1_555
B0_4 Ni4_5 2.166574 1_555
B0_4 Ni4_1 2.166576 1_555
B0_4 Ni5_4 2.231521 1_555
B0_4 Zn0_4 2.425725 1_555
B0_5 B3_3 1.834689 1_545
B0_5 Ni1_5 2.020452 1_555
B0_5 Ni1_1 2.020452 1_555
B0_5 Ni3_5 2.098921 1_555
B0_5 Ni3_1 2.098921 1_555
B0_5 Ni4_4 2.166574 1_556
B0_5 Ni4_0 2.166576 1_556
B0_5 Ni5_5 2.231521 1_555
B0_5 Zn0_5 2.425725 1_555
B0_6 B3_0 1.834689 1_555
B0_6 Ni1_6 2.020452 1_555
B0_6 Ni1_2 2.020452 1_555
B0_6 Ni3_2 2.098921 1_555
B0_6 Ni3_6 2.098921 1_555
B0_6 Ni4_7 2.166574 1_555
B0_6 Ni4_3 2.166576 1_555
B0_6 Ni5_6 2.231521 1_555
B0_6 Zn0_6 2.425725 1_555
B0_7 B3_1 1.834689 1_555
B0_7 Ni1_7 2.020452 1_555
B0_7 Ni1_3 2.020452 1_555
B0_7 Ni3_7 2.098921 1_555
B0_7 Ni3_3 2.098921 1_555
B0_7 Ni4_6 2.166574 1_556
B0_7 Ni4_2 2.166576 1_556
B0_7 Ni5_7 2.231521 1_555
B0_7 Zn0_7 2.425725 1_555
B1_0 B2_6 1.834689 1_555
B1_0 Ni0_0 2.020452 1_555
B1_0 Ni0_4 2.020452 1_555
B1_0 Ni2_0 2.098921 1_555
B1_0 Ni2_4 2.098921 1_555
B1_0 Ni5_1 2.166574 1_554
B1_0 Ni5_5 2.166576 1_554
B1_0 Ni4_0 2.231521 1_555
B1_0 Zn1_0 2.425725 1_555
B1_1 B2_7 1.834689 1_555
B1_1 Ni0_1 2.020452 1_555
B1_1 Ni0_5 2.020452 1_555
B1_1 Ni2_1 2.098921 1_555
B1_1 Ni2_5 2.098921 1_555
B1_1 Ni5_0 2.166574 1_555
B1_1 Ni5_4 2.166576 1_555
B1_1 Ni4_1 2.231521 1_555
B1_1 Zn1_1 2.425725 1_555
B1_2 B2_4 1.834689 1_565
B1_2 Ni0_2 2.020452 1_555
B1_2 Ni0_6 2.020452 1_555
B1_2 Ni2_2 2.098921 1_555
B1_2 Ni2_6 2.098921 1_555
B1_2 Ni5_3 2.166574 1_554
B1_2 Ni5_7 2.166576 1_554
B1_2 Ni4_2 2.231521 1_555
B1_2 Zn1_2 2.425725 1_555
B1_3 B2_5 1.834689 1_565
B1_3 Ni0_3 2.020452 1_555
B1_3 Ni0_7 2.020452 1_555
B1_3 Ni2_3 2.098921 1_555
B1_3 Ni2_7 2.098921 1_555
B1_3 Ni5_2 2.166574 1_555
B1_3 Ni5_6 2.166576 1_555
B1_3 Ni4_3 2.231521 1_555
B1_3 Zn1_3 2.425725 1_555
B1_4 B2_2 1.834689 1_655
B1_4 Ni0_4 2.020452 1_555
B1_4 Ni0_0 2.020452 1_655
B1_4 Ni2_4 2.098921 1_555
B1_4 Ni2_0 2.098921 1_655
B1_4 Ni5_5 2.166574 1_554
B1_4 Ni5_1 2.166576 1_654
B1_4 Ni4_4 2.231521 1_555
B1_4 Zn1_4 2.425725 1_555
B1_5 B2_3 1.834689 1_655
B1_5 Ni0_1 2.020452 1_655
B1_5 Ni0_5 2.020452 1_555
B1_5 Ni2_1 2.098921 1_655
B1_5 Ni2_5 2.098921 1_555
B1_5 Ni5_4 2.166574 1_555
B1_5 Ni5_0 2.166576 1_655
B1_5 Ni4_5 2.231521 1_555
B1_5 Zn1_5 2.425725 1_555
B1_6 B2_0 1.834689 1_665
B1_6 Ni0_6 2.020452 1_555
B1_6 Ni0_2 2.020452 1_655
B1_6 Ni2_6 2.098921 1_555
B1_6 Ni2_2 2.098921 1_655
B1_6 Ni5_7 2.166574 1_554
B1_6 Ni5_3 2.166576 1_654
B1_6 Ni4_6 2.231521 1_555
B1_6 Zn1_6 2.425725 1_555
B1_7 B2_1 1.834689 1_665
B1_7 Ni0_7 2.020452 1_555
B1_7 Ni0_3 2.020452 1_655
B1_7 Ni2_7 2.098921 1_555
B1_7 Ni2_3 2.098921 1_655
B1_7 Ni5_6 2.166574 1_555
B1_7 Ni5_2 2.166576 1_655
B1_7 Ni4_7 2.231521 1_555
B1_7 Zn1_7 2.425725 1_555
B2_0 B3_7 1.843133 1_444
B2_0 Ni0_0 2.056758 1_555
B2_0 Ni2_6 2.107851 1_445
B2_0 Ni2_2 2.107853 1_545
B2_0 Ni5_7 2.140044 1_444
B2_0 Ni5_3 2.140047 1_544
B2_0 Ni4_0 2.173155 1_555
B2_0 Ni4_4 2.173155 1_455
B2_1 B3_6 1.843133 1_445
B2_1 Ni0_1 2.056758 1_555
B2_1 Ni2_7 2.107851 1_445
B2_1 Ni2_3 2.107853 1_545
B2_1 Ni5_6 2.140044 1_445
B2_1 Ni5_2 2.140047 1_545
B2_1 Ni4_1 2.173155 1_555
B2_1 Ni4_5 2.173155 1_455
B2_2 B3_5 1.843133 1_454
B2_2 Ni0_2 2.056758 1_555
B2_2 Ni2_4 2.107851 1_455
B2_2 Ni2_0 2.107853 1_555
B2_2 Ni5_5 2.140044 1_454
B2_2 Ni5_1 2.140047 1_554
B2_2 Ni4_2 2.173155 1_555
B2_2 Ni4_6 2.173155 1_455
B2_3 B3_4 1.843133 1_455
B2_3 Ni0_3 2.056758 1_555
B2_3 Ni2_5 2.107851 1_455
B2_3 Ni2_1 2.107853 1_555
B2_3 Ni5_4 2.140044 1_455
B2_3 Ni5_0 2.140047 1_555
B2_3 Ni4_3 2.173155 1_555
B2_3 Ni4_7 2.173155 1_455
B2_4 B3_3 1.843133 1_544
B2_4 Ni0_4 2.056758 1_555
B2_4 Ni2_2 2.107851 1_545
B2_4 Ni2_6 2.107853 1_545
B2_4 Ni5_3 2.140044 1_544
B2_4 Ni5_7 2.140047 1_544
B2_4 Ni4_4 2.173155 1_555
B2_4 Ni4_0 2.173155 1_555
B2_5 B3_2 1.843133 1_545
B2_5 Ni0_5 2.056758 1_555
B2_5 Ni2_3 2.107851 1_545
B2_5 Ni2_7 2.107853 1_545
B2_5 Ni5_2 2.140044 1_545
B2_5 Ni5_6 2.140047 1_545
B2_5 Ni4_1 2.173155 1_555
B2_5 Ni4_5 2.173155 1_555
B2_6 B3_1 1.843133 1_554
B2_6 Ni0_6 2.056758 1_555
B2_6 Ni2_0 2.107851 1_555
B2_6 Ni2_4 2.107853 1_555
B2_6 Ni5_1 2.140044 1_554
B2_6 Ni5_5 2.140047 1_554
B2_6 Ni4_2 2.173155 1_555
B2_6 Ni4_6 2.173155 1_555
B2_7 B3_0 1.843133 1_555
B2_7 Ni0_7 2.056758 1_555
B2_7 Ni2_1 2.107851 1_555
B2_7 Ni2_5 2.107853 1_555
B2_7 Ni5_0 2.140044 1_555
B2_7 Ni5_4 2.140047 1_555
B2_7 Ni4_3 2.173155 1_555
B2_7 Ni4_7 2.173155 1_555
B3_0 Ni1_0 2.056758 1_555
B3_0 Ni3_6 2.107851 1_555
B3_0 Ni3_2 2.107853 1_555
B3_0 Ni4_7 2.140044 1_555
B3_0 Ni4_3 2.140047 1_555
B3_0 Ni5_0 2.173155 1_555
B3_0 Ni5_4 2.173155 1_555
B3_1 Ni1_1 2.056758 1_555
B3_1 Ni3_7 2.107851 1_555
B3_1 Ni3_3 2.107853 1_555
B3_1 Ni4_6 2.140044 1_556
B3_1 Ni4_2 2.140047 1_556
B3_1 Ni5_1 2.173155 1_555
B3_1 Ni5_5 2.173155 1_555
B3_2 Ni1_2 2.056758 1_555
B3_2 Ni3_4 2.107851 1_565
B3_2 Ni3_0 2.107853 1_565
B3_2 Ni4_5 2.140044 1_565
B3_2 Ni4_1 2.140047 1_565
B3_2 Ni5_2 2.173155 1_555
B3_2 Ni5_6 2.173155 1_555
B3_3 Ni1_3 2.056758 1_555
B3_3 Ni3_5 2.107851 1_565
B3_3 Ni3_1 2.107853 1_565
B3_3 Ni4_4 2.140044 1_566
B3_3 Ni4_0 2.140047 1_566
B3_3 Ni5_7 2.173155 1_555
B3_3 Ni5_3 2.173155 1_555
B3_4 Ni1_4 2.056758 1_555
B3_4 Ni3_2 2.107851 1_655
B3_4 Ni3_6 2.107853 1_555
B3_4 Ni4_3 2.140044 1_655
B3_4 Ni4_7 2.140047 1_555
B3_4 Ni5_0 2.173155 1_655
B3_4 Ni5_4 2.173155 1_555
B3_5 Ni1_5 2.056758 1_555
B3_5 Ni3_3 2.107851 1_655
B3_5 Ni3_7 2.107853 1_555
B3_5 Ni4_2 2.140044 1_656
B3_5 Ni4_6 2.140047 1_556
B3_5 Ni5_5 2.173155 1_555
B3_5 Ni5_1 2.173155 1_655
B3_6 Ni1_6 2.056758 1_555
B3_6 Ni3_0 2.107851 1_665
B3_6 Ni3_4 2.107853 1_565
B3_6 Ni4_1 2.140044 1_665
B3_6 Ni4_5 2.140047 1_565
B3_6 Ni5_2 2.173155 1_655
B3_6 Ni5_6 2.173155 1_555
B3_7 Ni1_7 2.056758 1_555
B3_7 Ni3_1 2.107851 1_665
B3_7 Ni3_5 2.107853 1_565
B3_7 Ni4_0 2.140044 1_666
B3_7 Ni4_4 2.140047 1_566
B3_7 Ni5_3 2.173155 1_655
B3_7 Ni5_7 2.173155 1_555
