# generated using pymatgen
data_NaYMg14
_symmetry_space_group_name_H-M   'P 1'
_cell_length_a   6.56417002
_cell_length_b   6.53519110
_cell_length_c   10.41771391
_cell_angle_alpha   90.00000000
_cell_angle_beta   90.00000000
_cell_angle_gamma   119.85407531
_symmetry_Int_Tables_number   1
_chemical_formula_structural   NaYMg14
_chemical_formula_sum   'Na1 Y1 Mg14'
_cell_volume   387.59475948
_cell_formula_units_Z   1
loop_
 _symmetry_equiv_pos_site_id
 _symmetry_equiv_pos_as_xyz
  1  'x, y, z'
loop_
 _atom_site_type_symbol
 _atom_site_label
 _atom_site_symmetry_multiplicity
 _atom_site_fract_x
 _atom_site_fract_y
 _atom_site_fract_z
 _atom_site_occupancy
  Na  Na0  1  0.16995214  0.83497557  0.12500000  1
  Y  Y0  1  0.16669694  0.33334797  0.12500000  1
  Mg  Mg0  1  0.16624073  0.33311987  0.62500000  1
  Mg  Mg1  1  0.16685021  0.83342460  0.62500000  1
  Mg  Mg2  1  0.66087399  0.32454032  0.12500000  1
  Mg  Mg3  1  0.66702613  0.33368793  0.62500000  1
  Mg  Mg4  1  0.66087399  0.83633267  0.12500000  1
  Mg  Mg5  1  0.66702613  0.83333720  0.62500000  1
  Mg  Mg6  1  0.33671584  0.16970966  0.38192143  1
  Mg  Mg7  1  0.33671584  0.16970966  0.86807857  1
  Mg  Mg8  1  0.33671584  0.66700718  0.38192143  1
  Mg  Mg9  1  0.33671584  0.66700718  0.86807857  1
  Mg  Mg10  1  0.83286684  0.16643392  0.37801849  1
  Mg  Mg11  1  0.83286684  0.16643392  0.87198151  1
  Mg  Mg12  1  0.83093134  0.66546617  0.37562269  1
  Mg  Mg13  1  0.83093134  0.66546617  0.87437731  1
loop_
_geom_bond_atom_site_label_1
_geom_bond_atom_site_label_2
_geom_bond_distance
_geom_bond_site_symmetry_2
Na0 Y0 3.267648 1_555
Na0 Y0 3.267648 1_565
Mg0 Mg6 3.161500 1_555
Mg0 Mg7 3.161500 1_555
Mg0 Mg8 3.161507 1_555
Mg0 Mg9 3.161507 1_555
Mg0 Mg10 3.197242 1_455
Mg0 Mg11 3.197242 1_455
Mg0 Mg1 3.267597 1_555
Mg0 Mg1 3.267597 1_545
Mg0 Mg5 3.278779 1_445
Mg0 Mg3 3.278779 1_455
Mg0 Mg5 3.285394 1_555
Mg0 Mg3 3.285394 1_555
Mg1 Mg8 3.169553 1_555
Mg1 Mg9 3.169553 1_555
Mg1 Mg7 3.169560 1_565
Mg1 Mg6 3.169560 1_565
Mg1 Mg13 3.225930 1_455
Mg1 Mg12 3.225930 1_455
Mg1 Mg3 3.280646 1_455
Mg1 Mg5 3.280646 1_455
Mg1 Mg3 3.283524 1_565
Mg1 Mg5 3.283524 1_555
Mg2 Mg4 3.190530 1_545
Mg2 Na0 3.218089 1_545
Mg2 Mg7 3.251429 1_554
Mg2 Mg6 3.251429 1_555
Mg2 Y0 3.272896 1_555
Mg2 Y0 3.292034 1_655
Mg2 Mg4 3.344661 1_555
Mg2 Na0 3.346099 1_655
Mg3 Mg7 3.154193 1_555
Mg3 Mg6 3.154193 1_555
Mg3 Mg5 3.265303 1_555
Mg3 Mg5 3.269888 1_545
Mg4 Na0 3.218089 1_555
Mg4 Mg9 3.251429 1_554
Mg4 Mg8 3.251429 1_555
Mg4 Y0 3.272895 1_555
Mg4 Y0 3.292033 1_665
Mg4 Na0 3.346099 1_655
Mg5 Mg8 3.154193 1_555
Mg5 Mg9 3.154193 1_555
Mg6 Mg8 3.249934 1_555
Mg6 Y0 3.277380 1_555
Mg6 Na0 3.280768 1_545
Mg6 Mg8 3.285257 1_545
Mg7 Mg9 3.249934 1_555
Mg7 Y0 3.277380 1_556
Mg7 Na0 3.280768 1_546
Mg7 Mg9 3.285257 1_545
Mg8 Y0 3.277387 1_555
Mg8 Na0 3.280762 1_555
Mg9 Y0 3.277387 1_556
Mg9 Na0 3.280762 1_556
Mg10 Mg3 3.191343 1_555
Mg10 Mg5 3.191349 1_545
Mg10 Mg2 3.232871 1_555
Mg10 Mg4 3.232877 1_545
Mg10 Y0 3.249587 1_655
Mg10 Mg12 3.267709 1_545
Mg10 Mg12 3.267709 1_555
Mg10 Mg8 3.267781 1_545
Mg10 Mg6 3.267782 1_555
Mg10 Mg8 3.296997 1_655
Mg10 Mg6 3.296997 1_655
Mg11 Mg3 3.191343 1_555
Mg11 Mg5 3.191349 1_545
Mg11 Mg2 3.232871 1_556
Mg11 Mg4 3.232877 1_546
Mg11 Y0 3.249587 1_656
Mg11 Mg13 3.267709 1_545
Mg11 Mg13 3.267709 1_555
Mg11 Mg9 3.267781 1_545
Mg11 Mg7 3.267782 1_555
Mg11 Mg9 3.296997 1_655
Mg11 Mg7 3.296997 1_655
Mg12 Mg5 3.207110 1_555
Mg12 Mg3 3.207116 1_555
Mg12 Na0 3.246854 1_655
Mg12 Mg4 3.248209 1_555
Mg12 Mg2 3.248216 1_555
Mg12 Mg6 3.249802 1_555
Mg12 Mg8 3.249802 1_555
Mg12 Mg6 3.315703 1_665
Mg12 Mg8 3.315703 1_655
Mg13 Mg5 3.207110 1_555
Mg13 Mg3 3.207116 1_555
Mg13 Na0 3.246854 1_656
Mg13 Mg4 3.248209 1_556
Mg13 Mg2 3.248216 1_556
Mg13 Mg7 3.249802 1_555
Mg13 Mg9 3.249802 1_555
Mg13 Mg7 3.315703 1_665
Mg13 Mg9 3.315703 1_655
