# generated using pymatgen
data_Ni3Mo
_symmetry_space_group_name_H-M   'P 1'
_cell_length_a   4.20168179
_cell_length_b   4.42774148
_cell_length_c   4.97046978
_cell_angle_alpha   90.00000000
_cell_angle_beta   90.00000000
_cell_angle_gamma   90.00000000
_symmetry_Int_Tables_number   1
_chemical_formula_structural   Ni3Mo
_chemical_formula_sum   'Ni6 Mo2'
_cell_volume   92.47042468
_cell_formula_units_Z   2
loop_
 _symmetry_equiv_pos_site_id
 _symmetry_equiv_pos_as_xyz
  1  'x, y, z'
loop_
 _atom_site_type_symbol
 _atom_site_label
 _atom_site_symmetry_multiplicity
 _atom_site_fract_x
 _atom_site_fract_y
 _atom_site_fract_z
 _atom_site_occupancy
  Ni  Ni0  1  0.75000000  0.84067319  0.00147354  1
  Ni  Ni1  1  0.25000000  0.15932681  0.99852646  1
  Ni  Ni2  1  0.75000000  0.33370827  0.25000000  1
  Ni  Ni3  1  0.25000000  0.66629173  0.75000000  1
  Ni  Ni4  1  0.25000000  0.15932681  0.50147354  1
  Ni  Ni5  1  0.75000000  0.84067319  0.49852646  1
  Mo  Mo0  1  0.75000000  0.34555782  0.75000000  1
  Mo  Mo1  1  0.25000000  0.65444218  0.25000000  1
loop_
_geom_bond_atom_site_label_1
_geom_bond_atom_site_label_2
_geom_bond_distance
_geom_bond_site_symmetry_2
Ni0 Ni5 2.470587 1_555
Ni0 Ni5 2.499883 1_554
Ni0 Ni2 2.508302 1_565
Ni0 Ni1 2.530698 1_664
Ni0 Ni1 2.530698 1_564
Ni0 Ni2 2.562161 1_555
Ni0 Ni3 2.563601 1_654
Ni0 Ni3 2.563601 1_554
Ni1 Ni4 2.470587 1_555
Ni1 Ni4 2.499883 1_556
Ni1 Ni3 2.508302 1_545
Ni1 Ni3 2.562161 1_555
Ni1 Ni2 2.563601 1_456
Ni1 Ni2 2.563601 1_556
Ni2 Ni5 2.508302 1_545
Ni2 Ni5 2.562161 1_555
Ni2 Ni4 2.563601 1_655
Ni2 Ni4 2.563601 1_555
Ni3 Ni4 2.508302 1_565
Ni3 Ni4 2.562161 1_555
Ni3 Ni5 2.563601 1_555
Ni3 Ni5 2.563601 1_455
Ni4 Ni5 2.530698 1_545
Ni4 Ni5 2.530698 1_445
Mo0 Ni2 2.485789 1_556
Mo0 Ni2 2.485789 1_555
Mo0 Ni5 2.523546 1_555
Mo0 Ni0 2.523546 1_556
Mo0 Ni3 2.535802 1_655
Mo0 Ni3 2.535802 1_555
Mo0 Ni5 2.561212 1_545
Mo0 Ni0 2.561212 1_546
Mo0 Ni1 2.572823 1_655
Mo0 Ni4 2.572823 1_655
Mo0 Ni4 2.572823 1_555
Mo0 Ni1 2.572823 1_555
Mo1 Ni3 2.485789 1_554
Mo1 Ni3 2.485789 1_555
Mo1 Ni4 2.523546 1_555
Mo1 Ni1 2.523546 1_554
Mo1 Ni2 2.535802 1_455
Mo1 Ni2 2.535802 1_555
Mo1 Ni4 2.561212 1_565
Mo1 Ni1 2.561212 1_564
Mo1 Ni0 2.572823 1_555
Mo1 Ni0 2.572823 1_455
Mo1 Ni5 2.572823 1_455
Mo1 Ni5 2.572823 1_555
