# generated using pymatgen
data_Ho5(Sn3Rh)6
_symmetry_space_group_name_H-M   'P 1'
_cell_length_a   9.89485349
_cell_length_b   9.89485349
_cell_length_c   9.89485349
_cell_angle_alpha   60.00000000
_cell_angle_beta   60.00000000
_cell_angle_gamma   60.00000000
_symmetry_Int_Tables_number   1
_chemical_formula_structural   Ho5(Sn3Rh)6
_chemical_formula_sum   'Ho5 Sn18 Rh6'
_cell_volume   685.03554433
_cell_formula_units_Z   1
loop_
 _symmetry_equiv_pos_site_id
 _symmetry_equiv_pos_as_xyz
  1  'x, y, z'
loop_
 _atom_site_type_symbol
 _atom_site_label
 _atom_site_symmetry_multiplicity
 _atom_site_fract_x
 _atom_site_fract_y
 _atom_site_fract_z
 _atom_site_occupancy
  Ho  Ho0  1  0.00000000  0.00000000  0.00000000  1
  Ho  Ho1  1  0.37013000  0.37013000  0.88961100  1
  Ho  Ho2  1  0.37013000  0.88961100  0.37013000  1
  Ho  Ho3  1  0.88961100  0.37013000  0.37013000  1
  Ho  Ho4  1  0.37013000  0.37013000  0.37013000  1
  Sn  Sn0  1  0.58816900  0.58816900  0.23549400  1
  Sn  Sn1  1  0.58816900  0.23549400  0.58816900  1
  Sn  Sn2  1  0.23549400  0.58816900  0.58816900  1
  Sn  Sn3  1  0.58816900  0.58816900  0.58816900  1
  Sn  Sn4  1  0.75000000  0.75000000  0.75000000  1
  Sn  Sn5  1  0.99242000  0.35726600  0.65789300  1
  Sn  Sn6  1  0.99242000  0.99242000  0.65789300  1
  Sn  Sn7  1  0.35726600  0.99242000  0.65789300  1
  Sn  Sn8  1  0.99242000  0.65789300  0.35726600  1
  Sn  Sn9  1  0.35726600  0.65789300  0.99242000  1
  Sn  Sn10  1  0.99242000  0.65789300  0.99242000  1
  Sn  Sn11  1  0.65789300  0.99242000  0.99242000  1
  Sn  Sn12  1  0.65789300  0.35726600  0.99242000  1
  Sn  Sn13  1  0.65789300  0.99242000  0.35726600  1
  Sn  Sn14  1  0.35726600  0.99242000  0.99242000  1
  Sn  Sn15  1  0.99242000  0.99242000  0.35726600  1
  Sn  Sn16  1  0.99242000  0.35726600  0.99242000  1
  Sn  Sn17  1  0.25000000  0.25000000  0.25000000  1
  Rh  Rh0  1  0.25411100  0.25411100  0.74588900  1
  Rh  Rh1  1  0.74588900  0.25411100  0.74588900  1
  Rh  Rh2  1  0.25411100  0.74588900  0.74588900  1
  Rh  Rh3  1  0.74588900  0.74588900  0.25411100  1
  Rh  Rh4  1  0.25411100  0.74588900  0.25411100  1
  Rh  Rh5  1  0.74588900  0.25411100  0.25411100  1
loop_
_geom_bond_atom_site_label_1
_geom_bond_atom_site_label_2
_geom_bond_distance
_geom_bond_site_symmetry_2
Ho0 Sn16 3.461717 1_454
Ho0 Sn15 3.461717 1_445
Ho0 Sn14 3.461717 1_544
Ho0 Sn7 3.461722 1_544
Ho0 Sn5 3.461722 1_454
Ho0 Sn13 3.461722 1_445
Ho0 Sn9 3.461722 1_544
Ho0 Sn12 3.461722 1_454
Ho0 Sn8 3.461722 1_445
Ho0 Sn11 3.461727 1_444
Ho0 Sn6 3.461727 1_444
Ho0 Sn10 3.461727 1_444
Ho0 Rh3 3.555886 1_445
Ho0 Rh5 3.555886 1_455
Ho0 Rh1 3.555886 1_454
Ho0 Rh4 3.555886 1_545
Ho0 Rh2 3.555886 1_544
Ho0 Rh0 3.555886 1_554
Ho1 Sn17 2.911624 1_556
Ho1 Rh2 3.039922 1_555
Ho1 Rh1 3.039922 1_555
Ho1 Rh0 3.039930 1_555
Ho1 Sn2 3.160752 1_555
Ho1 Sn1 3.160752 1_555
Ho1 Sn3 3.160752 1_555
Ho1 Sn12 3.400477 1_555
Ho1 Sn9 3.400477 1_555
Ho1 Sn11 3.400488 1_545
Ho1 Sn10 3.400488 1_455
Ho1 Sn14 3.400496 1_545
Ho1 Sn16 3.400496 1_455
Ho2 Sn17 2.911624 1_565
Ho2 Rh2 3.039922 1_555
Ho2 Rh3 3.039922 1_555
Ho2 Rh4 3.039930 1_555
Ho2 Sn2 3.160752 1_555
Ho2 Sn0 3.160752 1_555
Ho2 Sn3 3.160752 1_555
Ho2 Sn13 3.400477 1_555
Ho2 Sn7 3.400477 1_555
Ho2 Sn6 3.400488 1_455
Ho2 Sn11 3.400488 1_554
Ho2 Sn15 3.400496 1_455
Ho2 Sn14 3.400496 1_554
Ho3 Sn17 2.911624 1_655
Ho3 Rh1 3.039922 1_555
Ho3 Rh3 3.039922 1_555
Ho3 Rh5 3.039930 1_555
Ho3 Sn1 3.160752 1_555
Ho3 Sn0 3.160752 1_555
Ho3 Sn3 3.160752 1_555
Ho3 Sn8 3.400477 1_555
Ho3 Sn5 3.400477 1_555
Ho3 Sn10 3.400488 1_554
Ho3 Sn6 3.400488 1_545
Ho3 Sn16 3.400496 1_554
Ho3 Sn15 3.400496 1_545
Ho4 Sn17 2.911632 1_555
Ho4 Rh4 3.039922 1_555
Ho4 Rh0 3.039922 1_555
Ho4 Rh5 3.039922 1_555
Ho4 Sn2 3.160752 1_555
Ho4 Sn0 3.160752 1_555
Ho4 Sn1 3.160752 1_555
Ho4 Sn9 3.400491 1_554
Ho4 Sn7 3.400491 1_545
Ho4 Sn8 3.400491 1_455
Ho4 Sn5 3.400491 1_455
Ho4 Sn13 3.400491 1_545
Ho4 Sn12 3.400491 1_554
Rh0 Sn14 2.688450 1_545
Rh0 Sn16 2.688450 1_455
Rh0 Sn7 2.688456 1_545
Rh0 Sn5 2.688456 1_455
Rh0 Sn1 2.813454 1_555
Rh0 Sn2 2.813454 1_555
Rh1 Sn5 2.688447 1_555
Rh1 Sn12 2.688447 1_555
Rh1 Sn11 2.688453 1_545
Rh1 Sn6 2.688453 1_545
Rh1 Sn1 2.813445 1_555
Rh1 Sn3 2.813451 1_555
Rh2 Sn9 2.688447 1_555
Rh2 Sn7 2.688447 1_555
Rh2 Sn10 2.688453 1_455
Rh2 Sn6 2.688453 1_455
Rh2 Sn2 2.813445 1_555
Rh2 Sn3 2.813451 1_555
Rh3 Sn8 2.688447 1_555
Rh3 Sn13 2.688447 1_555
Rh3 Sn10 2.688453 1_554
Rh3 Sn11 2.688453 1_554
Rh3 Sn0 2.813445 1_555
Rh3 Sn3 2.813451 1_555
Rh4 Sn14 2.688450 1_554
Rh4 Sn15 2.688450 1_455
Rh4 Sn9 2.688456 1_554
Rh4 Sn8 2.688456 1_455
Rh4 Sn2 2.813454 1_555
Rh4 Sn0 2.813454 1_555
Rh5 Sn16 2.688450 1_554
Rh5 Sn15 2.688450 1_545
Rh5 Sn13 2.688456 1_545
Rh5 Sn12 2.688456 1_554
Rh5 Sn1 2.813454 1_555
Rh5 Sn0 2.813454 1_555
