# generated using pymatgen
data_Na11(CoO2)13
_symmetry_space_group_name_H-M   'P 1'
_cell_length_a   10.74584700
_cell_length_b   10.74584633
_cell_length_c   11.00938300
_cell_angle_alpha   90.00000000
_cell_angle_beta   90.00000000
_cell_angle_gamma   119.99999899
_symmetry_Int_Tables_number   1
_chemical_formula_structural   Na11(CoO2)13
_chemical_formula_sum   'Na22 Co26 O52'
_cell_volume   1100.96850370
_cell_formula_units_Z   2
loop_
 _symmetry_equiv_pos_site_id
 _symmetry_equiv_pos_as_xyz
  1  'x, y, z'
loop_
 _atom_site_type_symbol
 _atom_site_label
 _atom_site_symmetry_multiplicity
 _atom_site_fract_x
 _atom_site_fract_y
 _atom_site_fract_z
 _atom_site_occupancy
  Na  Na0  1  0.09366700  0.35572700  0.84343700  1
  Na  Na1  1  0.64427300  0.73794100  0.84343700  1
  Na  Na2  1  0.26205900  0.90633300  0.84343700  1
  Na  Na3  1  0.46409700  0.60833700  0.34320100  1
  Na  Na4  1  0.39166300  0.85575900  0.34320100  1
  Na  Na5  1  0.14424100  0.53590300  0.34320100  1
  Na  Na6  1  0.33057400  0.09307700  0.34303800  1
  Na  Na7  1  0.90692300  0.23749700  0.34303800  1
  Na  Na8  1  0.76250300  0.66942600  0.34303800  1
  Na  Na9  1  0.18909000  0.13075100  0.84351200  1
  Na  Na10  1  0.86924900  0.05834000  0.84351200  1
  Na  Na11  1  0.94166000  0.81091000  0.84351200  1
  Na  Na12  1  0.42640900  0.42927600  0.84360200  1
  Na  Na13  1  0.57072400  0.99713300  0.84360200  1
  Na  Na14  1  0.00286700  0.57359100  0.84360200  1
  Na  Na15  1  0.66666700  0.33333300  0.34053500  1
  Na  Na16  1  0.33333300  0.66666700  0.84306500  1
  Na  Na17  1  0.23972300  0.31101500  0.34330200  1
  Na  Na18  1  0.68898500  0.92870800  0.34330200  1
  Na  Na19  1  0.07129200  0.76027700  0.34330200  1
  Na  Na20  1  0.00000000  0.00000000  0.34355100  1
  Na  Na21  1  0.66666700  0.33333300  0.84602500  1
  Co  Co0  1  0.27885900  0.48732400  0.09096700  1
  Co  Co1  1  0.51267600  0.79153500  0.09096700  1
  Co  Co2  1  0.20846500  0.72114100  0.09096700  1
  Co  Co3  1  0.36163900  0.25776200  0.09292200  1
  Co  Co4  1  0.74223800  0.10387600  0.09292200  1
  Co  Co5  1  0.89612400  0.63836100  0.09292200  1
  Co  Co6  1  0.43733000  0.02846100  0.09367500  1
  Co  Co7  1  0.97153900  0.40886900  0.09367500  1
  Co  Co8  1  0.59113100  0.56267000  0.09367500  1
  Co  Co9  1  0.66666700  0.33333300  0.09331100  1
  Co  Co10  1  0.05453000  0.17951100  0.09570900  1
  Co  Co11  1  0.82048900  0.87501900  0.09570900  1
  Co  Co12  1  0.12498100  0.94547000  0.09570900  1
  Co  Co13  1  0.36046400  0.25704800  0.59304600  1
  Co  Co14  1  0.74295200  0.10341600  0.59304600  1
  Co  Co15  1  0.89658400  0.63953600  0.59304600  1
  Co  Co16  1  0.43638100  0.02689300  0.59351300  1
  Co  Co17  1  0.97310700  0.40948800  0.59351300  1
  Co  Co18  1  0.59051200  0.56361900  0.59351300  1
  Co  Co19  1  0.05254500  0.17869700  0.59150500  1
  Co  Co20  1  0.82130300  0.87384800  0.59150500  1
  Co  Co21  1  0.12615200  0.94745500  0.59150500  1
  Co  Co22  1  0.20721600  0.71966700  0.59526800  1
  Co  Co23  1  0.28033300  0.48754800  0.59526800  1
  Co  Co24  1  0.51245200  0.79278400  0.59526800  1
  Co  Co25  1  0.66666700  0.33333300  0.59320100  1
  O  O0  1  0.15453800  0.53470600  0.99342300  1
  O  O1  1  0.46529400  0.61983100  0.99342300  1
  O  O2  1  0.38016900  0.84546200  0.99342300  1
  O  O3  1  0.23264000  0.30736500  0.99341900  1
  O  O4  1  0.69263500  0.92527500  0.99341900  1
  O  O5  1  0.07472500  0.76736000  0.99341900  1
  O  O6  1  0.46533300  0.62064900  0.69339500  1
  O  O7  1  0.37935100  0.84468300  0.69339500  1
  O  O8  1  0.15531700  0.53466700  0.69339500  1
  O  O9  1  0.49408700  0.21266400  0.50285800  1
  O  O10  1  0.78733600  0.28142200  0.50285800  1
  O  O11  1  0.71857800  0.50591300  0.50285800  1
  O  O12  1  0.30484000  0.07499400  0.00198600  1
  O  O13  1  0.92500600  0.22984600  0.00198600  1
  O  O14  1  0.77015400  0.69516000  0.00198600  1
  O  O15  1  0.30006600  0.07156900  0.68582000  1
  O  O16  1  0.92843100  0.22849600  0.68582000  1
  O  O17  1  0.77150400  0.69993400  0.68582000  1
  O  O18  1  0.07351000  0.76501000  0.69258300  1
  O  O19  1  0.23499000  0.30850000  0.69258300  1
  O  O20  1  0.69150000  0.92649000  0.69258300  1
  O  O21  1  0.33333300  0.66666700  0.49600300  1
  O  O22  1  0.09886800  0.35845000  0.49373300  1
  O  O23  1  0.64155000  0.74041800  0.49373300  1
  O  O24  1  0.25958200  0.90113200  0.49373300  1
  O  O25  1  0.17834500  0.13237600  0.49328000  1
  O  O26  1  0.86762400  0.04596900  0.49328000  1
  O  O27  1  0.95403100  0.82165500  0.49328000  1
  O  O28  1  0.00000000  0.00000000  0.69150100  1
  O  O29  1  0.03307000  0.59451600  0.50096200  1
  O  O30  1  0.40548400  0.43855400  0.50096200  1
  O  O31  1  0.56144600  0.96693000  0.50096200  1
  O  O32  1  0.17889200  0.13186700  0.19321500  1
  O  O33  1  0.86813300  0.04702400  0.19321500  1
  O  O34  1  0.95297600  0.82110800  0.19321500  1
  O  O35  1  0.10067100  0.35923800  0.19308000  1
  O  O36  1  0.64076200  0.74143400  0.19308000  1
  O  O37  1  0.25856600  0.89932900  0.19308000  1
  O  O38  1  0.54601500  0.38306900  0.00234700  1
  O  O39  1  0.61693100  0.16294600  0.00234700  1
  O  O40  1  0.83705400  0.45398500  0.00234700  1
  O  O41  1  0.02859400  0.59160400  0.18466100  1
  O  O42  1  0.40839600  0.43699000  0.18466100  1
  O  O43  1  0.56301000  0.97140600  0.18466100  1
  O  O44  1  0.00000000  0.00000000  0.99526600  1
  O  O45  1  0.33333300  0.66666700  0.19167000  1
  O  O46  1  0.78724000  0.28361700  0.18440000  1
  O  O47  1  0.71638300  0.50362300  0.18440000  1
  O  O48  1  0.49637700  0.21276000  0.18440000  1
  O  O49  1  0.54552800  0.38478200  0.68363800  1
  O  O50  1  0.61521800  0.16074700  0.68363800  1
  O  O51  1  0.83925300  0.45447200  0.68363800  1
loop_
_geom_bond_atom_site_label_1
_geom_bond_atom_site_label_2
_geom_bond_distance
_geom_bond_site_symmetry_2
Na0 O8 2.364549 1_555
Na0 O0 2.365474 1_555
Na0 O16 2.367603 1_455
Na0 O13 2.389525 1_456
Na0 O3 2.450073 1_555
Na0 O19 2.468358 1_555
Na1 O6 2.364552 1_555
Na1 O1 2.365477 1_555
Na1 O17 2.367613 1_555
Na1 O14 2.389530 1_556
Na1 O4 2.450065 1_555
Na1 O20 2.468350 1_555
Na2 O7 2.364564 1_555
Na2 O2 2.365489 1_555
Na2 O15 2.367599 1_565
Na2 O12 2.389523 1_566
Na2 O5 2.450068 1_555
Na2 O18 2.468352 1_555
Na3 O30 2.364929 1_555
Na3 O36 2.380320 1_555
Na3 O23 2.385523 1_555
Na3 O42 2.385991 1_555
Na3 O45 2.455862 1_555
Na3 O21 2.465388 1_555
Na4 O31 2.364930 1_555
Na4 O37 2.380331 1_555
Na4 O24 2.385529 1_555
Na4 O43 2.385993 1_555
Na4 O45 2.455846 1_555
Na4 O21 2.465373 1_555
Na5 O29 2.364936 1_555
Na5 O35 2.380316 1_555
Na5 O22 2.385521 1_555
Na5 O41 2.385998 1_555
Na5 O45 2.455850 1_555
Na5 O21 2.465377 1_555
Na6 O9 2.361500 1_555
Na6 O48 2.363753 1_555
Na6 O24 2.452613 1_545
Na6 O37 2.459272 1_545
Na6 O32 2.496121 1_555
Na6 O25 2.506201 1_555
Na7 O10 2.361495 1_555
Na7 O46 2.363753 1_555
Na7 O22 2.452613 1_655
Na7 O35 2.459273 1_655
Na7 O33 2.496129 1_555
Na7 O26 2.506201 1_555
Na8 O11 2.361501 1_555
Na8 O47 2.363753 1_555
Na8 O23 2.452613 1_555
Na8 O36 2.459279 1_555
Na8 O34 2.496126 1_555
Na8 O27 2.506201 1_555
Na9 O15 2.366219 1_555
Na9 O3 2.378341 1_555
Na9 O12 2.386490 1_556
Na9 O19 2.389675 1_555
Na9 O44 2.457485 1_555
Na9 O28 2.459409 1_555
Na10 O16 2.366205 1_555
Na10 O4 2.378343 1_545
Na10 O13 2.386483 1_556
Na10 O20 2.389677 1_545
Na10 O44 2.457490 1_655
Na10 O28 2.459415 1_655
Na11 O17 2.366208 1_555
Na11 O5 2.378348 1_655
Na11 O14 2.386485 1_556
Na11 O18 2.389682 1_655
Na11 O44 2.457483 1_665
Na11 O28 2.459407 1_665
Na12 O49 2.362329 1_555
Na12 O38 2.364538 1_556
Na12 O19 2.451569 1_555
Na12 O3 2.458562 1_555
Na12 O1 2.496515 1_555
Na12 O6 2.505697 1_555
Na13 O50 2.362336 1_565
Na13 O39 2.364538 1_566
Na13 O20 2.451569 1_555
Na13 O4 2.458562 1_555
Na13 O2 2.496518 1_555
Na13 O7 2.505700 1_555
Na14 O51 2.362335 1_455
Na14 O40 2.364538 1_456
Na14 O18 2.451569 1_555
Na14 O5 2.458562 1_555
Na14 O0 2.496523 1_555
Na14 O8 2.505705 1_555
Na15 O46 2.368782 1_555
Na15 O48 2.368787 1_555
Na15 O47 2.368789 1_555
Na15 O11 2.430956 1_555
Na15 O10 2.430956 1_555
Na15 O9 2.430956 1_555
Na16 O7 2.381817 1_555
Na16 O8 2.381822 1_555
Na16 O6 2.381833 1_555
Na16 O2 2.391216 1_555
Na16 O0 2.391220 1_555
Na16 O1 2.391231 1_555
Na17 O25 2.362250 1_555
Na17 O32 2.367532 1_555
Na17 O30 2.371225 1_555
Na17 O42 2.390515 1_555
Na17 O35 2.451691 1_555
Na17 O22 2.462762 1_555
Na18 O26 2.362250 1_565
Na18 O33 2.367531 1_565
Na18 O31 2.371225 1_555
Na18 O43 2.390515 1_555
Na18 O36 2.451683 1_555
Na18 O23 2.462762 1_555
Na19 O27 2.362250 1_455
Na19 O34 2.367525 1_455
Na19 O29 2.371225 1_555
Na19 O41 2.390515 1_555
Na19 O37 2.451685 1_555
Na19 O24 2.462762 1_555
Na20 O27 2.384843 1_445
Na20 O26 2.384843 1_455
Na20 O25 2.384843 1_555
Na20 O33 2.391383 1_455
Na20 O32 2.391388 1_555
Na20 O34 2.391390 1_445
Na21 O39 2.370936 1_556
Na21 O40 2.370938 1_556
Na21 O38 2.370943 1_556
Na21 O50 2.432275 1_555
Na21 O51 2.432279 1_555
Na21 O49 2.432289 1_555
Co0 O0 1.969119 1_554
Co0 O42 2.011739 1_555
Co0 O45 2.039062 1_555
Co0 O3 2.044310 1_554
Co0 O35 2.046749 1_555
Co0 O1 2.083681 1_554
Co1 O1 1.969127 1_554
Co1 O43 2.011739 1_555
Co1 O45 2.039060 1_555
Co1 O4 2.044310 1_554
Co1 O36 2.046742 1_555
Co1 O2 2.083674 1_554
Co2 O2 1.969125 1_554
Co2 O41 2.011739 1_555
Co2 O45 2.039054 1_555
Co2 O5 2.044310 1_554
Co2 O37 2.046751 1_555
Co2 O0 2.083683 1_554
Co3 O42 2.003535 1_555
Co3 O12 2.008328 1_555
Co3 O48 2.011130 1_555
Co3 O38 2.016211 1_555
Co3 O3 2.035831 1_554
Co3 O32 2.061332 1_555
Co4 O43 2.003533 1_545
Co4 O13 2.008330 1_555
Co4 O46 2.011139 1_555
Co4 O39 2.016218 1_555
Co4 O4 2.035822 1_544
Co4 O33 2.061332 1_555
Co5 O41 2.003526 1_655
Co5 O14 2.008337 1_555
Co5 O47 2.011137 1_555
Co5 O40 2.016209 1_555
Co5 O5 2.035824 1_654
Co5 O34 2.061332 1_555
Co6 O12 2.001970 1_555
Co6 O43 2.007803 1_545
Co6 O39 2.008756 1_555
Co6 O48 2.016388 1_555
Co6 O37 2.036599 1_545
Co6 O2 2.062673 1_544
Co7 O13 2.001970 1_555
Co7 O41 2.007803 1_655
Co7 O40 2.008756 1_555
Co7 O46 2.016388 1_555
Co7 O35 2.036592 1_655
Co7 O0 2.062671 1_654
Co8 O14 2.001970 1_555
Co8 O42 2.007803 1_555
Co8 O38 2.008755 1_555
Co8 O47 2.016388 1_555
Co8 O36 2.036601 1_555
Co8 O1 2.062664 1_554
Co9 O46 1.913639 1_555
Co9 O48 1.913646 1_555
Co9 O47 1.913648 1_555
Co9 O39 1.913736 1_555
Co9 O40 1.913738 1_555
Co9 O38 1.913745 1_555
Co10 O32 1.970931 1_555
Co10 O13 2.011794 1_455
Co10 O44 2.038844 1_554
Co10 O35 2.041424 1_555
Co10 O3 2.046809 1_554
Co10 O33 2.083169 1_455
Co11 O33 1.970922 1_565
Co11 O14 2.011793 1_555
Co11 O44 2.038844 1_664
Co11 O36 2.041422 1_555
Co11 O4 2.046809 1_554
Co11 O34 2.083175 1_555
Co12 O34 1.970925 1_455
Co12 O12 2.011794 1_565
Co12 O44 2.038844 1_564
Co12 O37 2.041415 1_555
Co12 O5 2.046808 1_554
Co12 O32 2.083166 1_565
Co13 O9 1.989970 1_555
Co13 O19 2.017429 1_555
Co13 O49 2.025815 1_555
Co13 O30 2.030376 1_555
Co13 O15 2.035542 1_555
Co13 O25 2.051662 1_555
Co14 O10 1.989961 1_555
Co14 O20 2.017429 1_545
Co14 O50 2.025822 1_555
Co14 O31 2.030377 1_545
Co14 O16 2.035540 1_555
Co14 O26 2.051661 1_555
Co15 O11 1.989964 1_555
Co15 O18 2.017429 1_655
Co15 O51 2.025813 1_555
Co15 O29 2.030377 1_655
Co15 O17 2.035533 1_555
Co15 O27 2.051661 1_555
Co16 O50 1.995586 1_555
Co16 O24 2.018666 1_545
Co16 O15 2.027846 1_555
Co16 O31 2.031137 1_545
Co16 O9 2.031707 1_555
Co16 O7 2.053925 1_545
Co17 O51 1.995592 1_555
Co17 O22 2.018666 1_655
Co17 O16 2.027855 1_555
Co17 O29 2.031137 1_655
Co17 O10 2.031709 1_555
Co17 O8 2.053923 1_655
Co18 O49 1.995583 1_555
Co18 O23 2.018666 1_555
Co18 O17 2.027852 1_555
Co18 O30 2.031138 1_555
Co18 O11 2.031716 1_555
Co18 O6 2.053916 1_555
Co19 O16 1.963933 1_455
Co19 O25 1.979268 1_555
Co19 O28 2.033199 1_555
Co19 O22 2.043527 1_555
Co19 O19 2.071946 1_555
Co19 O26 2.078023 1_455
Co20 O17 1.963941 1_555
Co20 O26 1.979268 1_565
Co20 O28 2.033199 1_665
Co20 O23 2.043527 1_555
Co20 O20 2.071946 1_555
Co20 O27 2.078023 1_555
Co21 O15 1.963939 1_565
Co21 O27 1.979268 1_455
Co21 O28 2.033199 1_565
Co21 O24 2.043527 1_555
Co21 O18 2.071946 1_555
Co21 O25 2.078022 1_565
Co22 O29 1.967701 1_555
Co22 O7 1.976968 1_555
Co22 O21 2.031547 1_555
Co22 O18 2.037077 1_555
Co22 O24 2.066736 1_555
Co22 O8 2.078819 1_555
Co23 O30 1.967694 1_555
Co23 O8 1.976968 1_555
Co23 O21 2.031564 1_555
Co23 O19 2.037068 1_555
Co23 O22 2.066734 1_555
Co23 O6 2.078820 1_555
Co24 O31 1.967703 1_555
Co24 O6 1.976968 1_555
Co24 O21 2.031560 1_555
Co24 O20 2.037071 1_555
Co24 O23 2.066727 1_555
Co24 O7 2.078820 1_555
Co25 O11 1.924884 1_555
Co25 O10 1.924884 1_555
Co25 O9 1.924884 1_555
Co25 O50 1.926430 1_555
Co25 O51 1.926435 1_555
Co25 O49 1.926448 1_555
