# generated using pymatgen
data_Mo2W(Se2S)2
_symmetry_space_group_name_H-M   'P 1'
_cell_length_a   3.27428526
_cell_length_b   3.27428526
_cell_length_c   30.21925700
_cell_angle_alpha   90.00000000
_cell_angle_beta   90.00000000
_cell_angle_gamma   119.99998503
_symmetry_Int_Tables_number   1
_chemical_formula_structural   Mo2W(Se2S)2
_chemical_formula_sum   'Mo2 W1 Se4 S2'
_cell_volume   280.57405265
_cell_formula_units_Z   1
loop_
 _symmetry_equiv_pos_site_id
 _symmetry_equiv_pos_as_xyz
  1  'x, y, z'
loop_
 _atom_site_type_symbol
 _atom_site_label
 _atom_site_symmetry_multiplicity
 _atom_site_fract_x
 _atom_site_fract_y
 _atom_site_fract_z
 _atom_site_occupancy
  Mo  Mo0  1  0.00000000  0.00000000  0.88436500  1
  Mo  Mo1  1  0.33333300  0.66666700  0.65299900  1
  W  W0  1  0.00000000  0.00000000  0.42167800  1
  Se  Se0  1  0.00000000  0.00000000  0.59705200  1
  Se  Se1  1  0.33333300  0.66666700  0.94034400  1
  Se  Se2  1  0.33333300  0.66666700  0.82838200  1
  Se  Se3  1  0.00000000  0.00000000  0.70897500  1
  S  S0  1  0.33333300  0.66666700  0.47278700  1
  S  S1  1  0.33333300  0.66666700  0.37057700  1
loop_
_geom_bond_atom_site_label_1
_geom_bond_atom_site_label_2
_geom_bond_distance
_geom_bond_site_symmetry_2
Mo0 Se1 2.536789 1_545
Mo0 Se1 2.536792 1_555
Mo0 Se1 2.536792 1_445
Mo0 Se2 2.536870 1_545
Mo0 Se2 2.536872 1_555
Mo0 Se2 2.536872 1_445
Mo1 Se0 2.536144 1_565
Mo1 Se0 2.536147 1_555
Mo1 Se0 2.536147 1_665
Mo1 Se3 2.536729 1_565
Mo1 Se3 2.536731 1_665
Mo1 Se3 2.536731 1_555
S0 W0 2.441116 1_565
S0 W0 2.441118 1_555
S0 W0 2.441118 1_665
S1 W0 2.440963 1_565
S1 W0 2.440965 1_555
S1 W0 2.440965 1_665
