# generated using pymatgen
data_EuBO3
_symmetry_space_group_name_H-M   'P 1'
_cell_length_a   4.04207483
_cell_length_b   4.04207483
_cell_length_c   8.96960000
_cell_angle_alpha   90.00000000
_cell_angle_beta   90.00000000
_cell_angle_gamma   118.49722623
_symmetry_Int_Tables_number   1
_chemical_formula_structural   EuBO3
_chemical_formula_sum   'Eu2 B2 O6'
_cell_volume   128.79283262
_cell_formula_units_Z   2
loop_
 _symmetry_equiv_pos_site_id
 _symmetry_equiv_pos_as_xyz
  1  'x, y, z'
loop_
 _atom_site_type_symbol
 _atom_site_label
 _atom_site_symmetry_multiplicity
 _atom_site_fract_x
 _atom_site_fract_y
 _atom_site_fract_z
 _atom_site_occupancy
  Eu  Eu0  1  0.97159900  0.97159900  0.50000000  1
  Eu  Eu1  1  0.97159900  0.97159900  0.00000000  1
  B  B0  1  0.24278000  0.49345700  0.75000000  1
  B  B1  1  0.49345700  0.24278000  0.25000000  1
  O  O0  1  0.32132400  0.65412900  0.60925600  1
  O  O1  1  0.65412900  0.32132400  0.39074400  1
  O  O2  1  0.65412900  0.32132400  0.10925600  1
  O  O3  1  0.32132400  0.65412900  0.89074400  1
  O  O4  1  0.04880000  0.10390000  0.75000000  1
  O  O5  1  0.10390000  0.04880000  0.25000000  1
loop_
_geom_bond_atom_site_label_1
_geom_bond_atom_site_label_2
_geom_bond_distance
_geom_bond_site_symmetry_2
Eu0 O4 2.291828 1_665
Eu0 O5 2.291828 1_665
Eu0 O1 2.509442 1_555
Eu0 O0 2.509442 1_555
Eu0 O1 2.517211 1_565
Eu0 O0 2.517211 1_655
Eu0 O0 2.616947 1_665
Eu0 O1 2.616947 1_665
Eu1 O4 2.291828 1_664
Eu1 O5 2.291828 1_665
Eu1 O2 2.509442 1_555
Eu1 O3 2.509442 1_554
Eu1 O3 2.517211 1_654
Eu1 O2 2.517211 1_565
Eu1 O2 2.616947 1_665
Eu1 O3 2.616947 1_664
B0 O4 1.384227 1_555
B0 O3 1.385469 1_555
B0 O0 1.385469 1_555
B1 O5 1.384227 1_555
B1 O1 1.385469 1_555
B1 O2 1.385469 1_555
