# generated using pymatgen
data_Pr2Te2O7
_symmetry_space_group_name_H-M   'P 1'
_cell_length_a   7.80079352
_cell_length_b   7.80079352
_cell_length_c   7.80079352
_cell_angle_alpha   60.00000000
_cell_angle_beta   60.00000000
_cell_angle_gamma   60.00000000
_symmetry_Int_Tables_number   1
_chemical_formula_structural   Pr2Te2O7
_chemical_formula_sum   'Pr4 Te4 O14'
_cell_volume   335.66136085
_cell_formula_units_Z   2
loop_
 _symmetry_equiv_pos_site_id
 _symmetry_equiv_pos_as_xyz
  1  'x, y, z'
loop_
 _atom_site_type_symbol
 _atom_site_label
 _atom_site_symmetry_multiplicity
 _atom_site_fract_x
 _atom_site_fract_y
 _atom_site_fract_z
 _atom_site_occupancy
  Pr  Pr0  1  0.12500000  0.12500000  0.12500000  1
  Pr  Pr1  1  0.62500000  0.12500000  0.12500000  1
  Pr  Pr2  1  0.12500000  0.12500000  0.62500000  1
  Pr  Pr3  1  0.12500000  0.62500000  0.12500000  1
  Te  Te0  1  0.62500000  0.62500000  0.62500000  1
  Te  Te1  1  0.12500000  0.62500000  0.62500000  1
  Te  Te2  1  0.62500000  0.62500000  0.12500000  1
  Te  Te3  1  0.62500000  0.12500000  0.62500000  1
  O  O0  1  0.28329100  0.28329100  0.71670900  1
  O  O1  1  0.53329100  0.53329100  0.96670900  1
  O  O2  1  0.71670900  0.28329100  0.71670900  1
  O  O3  1  0.71670900  0.28329100  0.28329100  1
  O  O4  1  0.28329100  0.71670900  0.71670900  1
  O  O5  1  0.28329100  0.71670900  0.28329100  1
  O  O6  1  0.53329100  0.96670900  0.53329100  1
  O  O7  1  0.96670900  0.53329100  0.96670900  1
  O  O8  1  0.25000000  0.25000000  0.25000000  1
  O  O9  1  0.00000000  0.00000000  0.00000000  1
  O  O10  1  0.71670900  0.71670900  0.28329100  1
  O  O11  1  0.96670900  0.53329100  0.53329100  1
  O  O12  1  0.53329100  0.96670900  0.96670900  1
  O  O13  1  0.96670900  0.96670900  0.53329100  1
loop_
_geom_bond_atom_site_label_1
_geom_bond_atom_site_label_2
_geom_bond_distance
_geom_bond_site_symmetry_2
O0 Te3 2.197015 1_555
O0 Te1 2.197015 1_555
O0 Pr0 2.617769 1_556
O0 Pr2 2.617769 1_555
O1 Te2 2.197015 1_556
O1 Te0 2.197015 1_555
O1 Pr1 2.617769 1_556
O1 Pr3 2.617769 1_556
O2 Te0 2.197015 1_555
O2 Te3 2.197015 1_555
O2 Pr2 2.617769 1_655
O2 Pr1 2.617769 1_556
O3 Te3 2.197015 1_555
O3 Te2 2.197015 1_555
O3 Pr0 2.617769 1_655
O3 Pr1 2.617769 1_555
O4 Te0 2.197015 1_555
O4 Te1 2.197015 1_555
O4 Pr2 2.617769 1_565
O4 Pr3 2.617769 1_556
O5 Te2 2.197015 1_555
O5 Te1 2.197015 1_555
O5 Pr0 2.617769 1_565
O5 Pr3 2.617769 1_555
O6 Te3 2.197015 1_565
O6 Te0 2.197015 1_555
O6 Pr1 2.617769 1_565
O6 Pr2 2.617769 1_565
O7 Te1 2.197015 1_655
O7 Te2 2.197015 1_556
O7 Pr0 2.617769 1_656
O7 Pr3 2.617769 1_656
O8 Pr0 2.388495 1_555
O8 Pr2 2.388495 1_555
O8 Pr3 2.388495 1_555
O8 Pr1 2.388495 1_555
O9 Pr0 2.388495 1_555
O9 Pr2 2.388495 1_554
O9 Pr3 2.388495 1_545
O9 Pr1 2.388495 1_455
O10 Te0 2.197015 1_555
O10 Te2 2.197015 1_555
O10 Pr1 2.617769 1_565
O10 Pr3 2.617769 1_655
O11 Te1 2.197015 1_655
O11 Te0 2.197015 1_555
O11 Pr2 2.617769 1_655
O11 Pr3 2.617769 1_655
O12 Te2 2.197015 1_556
O12 Te3 2.197015 1_565
O12 Pr1 2.617769 1_566
O12 Pr0 2.617769 1_566
O13 Te1 2.197015 1_655
O13 Te3 2.197015 1_565
O13 Pr0 2.617769 1_665
O13 Pr2 2.617769 1_665
