# generated using pymatgen
data_Nd2(BiO2)7
_symmetry_space_group_name_H-M   'P 1'
_cell_length_a   10.68918214
_cell_length_b   10.68918214
_cell_length_c   10.73284414
_cell_angle_alpha   66.11708106
_cell_angle_beta   66.11708106
_cell_angle_gamma   21.41409298
_symmetry_Int_Tables_number   1
_chemical_formula_structural   Nd2(BiO2)7
_chemical_formula_sum   'Nd2 Bi7 O14'
_cell_volume   407.96161352
_cell_formula_units_Z   1
loop_
 _symmetry_equiv_pos_site_id
 _symmetry_equiv_pos_as_xyz
  1  'x, y, z'
loop_
 _atom_site_type_symbol
 _atom_site_label
 _atom_site_symmetry_multiplicity
 _atom_site_fract_x
 _atom_site_fract_y
 _atom_site_fract_z
 _atom_site_occupancy
  Nd  Nd0  1  0.99998600  0.99998600  0.00315700  1
  Nd  Nd1  1  0.66877700  0.66877700  0.98588300  1
  Bi  Bi0  1  0.32817900  0.32817900  0.01676100  1
  Bi  Bi1  1  0.48737800  0.48737800  0.31398000  1
  Bi  Bi2  1  0.84345900  0.84345900  0.67806500  1
  Bi  Bi3  1  0.17740600  0.17740600  0.68791900  1
  Bi  Bi4  1  0.81872100  0.81872100  0.31213800  1
  Bi  Bi5  1  0.15530600  0.15530600  0.32729100  1
  Bi  Bi6  1  0.50868200  0.50868200  0.69206600  1
  O  O0  1  0.46592000  0.46592000  0.90859700  1
  O  O1  1  0.94406100  0.94406100  0.69136000  1
  O  O2  1  0.34416700  0.34416700  0.59229900  1
  O  O3  1  0.93349000  0.93349000  0.25941200  1
  O  O4  1  0.79334800  0.79334800  0.89695900  1
  O  O5  1  0.29139700  0.29139700  0.24972300  1
  O  O6  1  0.13071200  0.13071200  0.91079100  1
  O  O7  1  0.71083800  0.71083800  0.74117400  1
  O  O8  1  0.86442800  0.86442800  0.08831500  1
  O  O9  1  0.06553700  0.06553700  0.73231100  1
  O  O10  1  0.20265200  0.20265200  0.10261400  1
  O  O11  1  0.67482400  0.67482400  0.39563000  1
  O  O12  1  0.05231200  0.05231200  0.31642000  1
  O  O13  1  0.53841000  0.53841000  0.09713500  1
loop_
_geom_bond_atom_site_label_1
_geom_bond_atom_site_label_2
_geom_bond_distance
_geom_bond_site_symmetry_2
Nd0 O0 2.466669 1_564
Nd0 O0 2.466669 1_654
Nd0 O6 2.506027 1_664
Nd0 O13 2.506716 1_565
Nd0 O13 2.506716 1_655
Nd0 O3 2.519839 1_555
Nd0 O8 2.607518 1_555
Nd0 O9 2.654762 1_664
Nd1 O4 2.387510 1_555
Nd1 O6 2.400802 1_565
Nd1 O6 2.400802 1_655
Nd1 O7 2.401335 1_555
Nd1 O13 2.496098 1_556
Nd1 O10 2.598950 1_656
Nd1 O10 2.598950 1_566
Bi0 O5 2.292743 1_555
Bi0 O8 2.365453 1_545
Bi0 O8 2.365453 1_455
Bi0 O10 2.408258 1_555
Bi0 O4 2.628271 1_544
Bi0 O4 2.628271 1_454
Bi0 O0 2.636559 1_554
Bi1 O13 2.123620 1_555
Bi1 O12 2.415475 1_565
Bi1 O12 2.415475 1_655
Bi1 O3 2.472770 1_545
Bi1 O3 2.472770 1_455
Bi2 O4 2.142320 1_555
Bi2 O1 2.175946 1_555
Bi2 O2 2.186355 1_565
Bi2 O2 2.186355 1_655
Bi2 O7 2.581622 1_555
Bi3 O6 2.179557 1_555
Bi3 O9 2.196940 1_555
Bi3 O7 2.257111 1_545
Bi3 O7 2.257111 1_455
Bi4 O8 2.189053 1_555
Bi4 O3 2.237894 1_555
Bi4 O5 2.244754 1_565
Bi4 O5 2.244754 1_655
Bi4 O11 2.776271 1_555
Bi5 O10 2.197204 1_555
Bi5 O11 2.213089 1_545
Bi5 O11 2.213089 1_455
Bi5 O12 2.214139 1_555
Bi5 O5 2.627593 1_555
Bi6 O0 2.118371 1_555
Bi6 O1 2.407289 1_545
Bi6 O1 2.407289 1_455
Bi6 O9 2.445798 1_565
Bi6 O9 2.445798 1_655
