# generated using pymatgen
data_INO4
_symmetry_space_group_name_H-M   'P 1'
_cell_length_a   9.54876385
_cell_length_b   9.54876385
_cell_length_c   9.54876385
_cell_angle_alpha   152.73348905
_cell_angle_beta   152.73348905
_cell_angle_gamma   38.94312131
_symmetry_Int_Tables_number   1
_chemical_formula_structural   INO4
_chemical_formula_sum   'I2 N2 O8'
_cell_volume   182.41743773
_cell_formula_units_Z   2
loop_
 _symmetry_equiv_pos_site_id
 _symmetry_equiv_pos_as_xyz
  1  'x, y, z'
loop_
 _atom_site_type_symbol
 _atom_site_label
 _atom_site_symmetry_multiplicity
 _atom_site_fract_x
 _atom_site_fract_y
 _atom_site_fract_z
 _atom_site_occupancy
  I  I0  1  0.75000000  0.25000000  0.50000000  1
  I  I1  1  0.00000000  0.00000000  0.00000000  1
  N  N0  1  0.25000000  0.75000000  0.50000000  1
  N  N1  1  0.50000000  0.50000000  0.00000000  1
  O  O0  1  0.71907200  0.72556000  0.35345200  1
  O  O1  1  0.37210900  0.36562000  0.64654800  1
  O  O2  1  0.37789100  0.88438000  0.85345200  1
  O  O3  1  0.03092800  0.52444000  0.14654800  1
  O  O4  1  0.27444000  0.62789100  0.99351100  1
  O  O5  1  0.63438000  0.28092800  0.00648900  1
  O  O6  1  0.11562000  0.96907200  0.49351100  1
  O  O7  1  0.47556000  0.62210900  0.50648900  1
loop_
_geom_bond_atom_site_label_1
_geom_bond_atom_site_label_2
_geom_bond_distance
_geom_bond_site_symmetry_2
I0 O3 2.215712 1_656
I0 O7 2.215715 1_555
I0 O2 2.215716 1_544
I0 O6 2.215716 1_645
I1 O0 2.215712 1_444
I1 O4 2.215715 1_544
I1 O5 2.215716 1_455
I1 O1 2.215716 1_555
N0 O7 1.392811 1_555
N0 O3 1.392813 1_555
N0 O2 1.392819 1_555
N0 O6 1.392819 1_555
N1 O4 1.392811 1_554
N1 O0 1.392813 1_555
N1 O5 1.392819 1_555
N1 O1 1.392819 1_554
