# generated using pymatgen
data_Li9Mn2Co5O16
_symmetry_space_group_name_H-M   'P 1'
_cell_length_a   5.81018100
_cell_length_b   5.17123300
_cell_length_c   9.76897973
_cell_angle_alpha   80.69980063
_cell_angle_beta   90.00000000
_cell_angle_gamma   90.00000000
_symmetry_Int_Tables_number   1
_chemical_formula_structural   Li9Mn2Co5O16
_chemical_formula_sum   'Li9 Mn2 Co5 O16'
_cell_volume   289.65857535
_cell_formula_units_Z   1
loop_
 _symmetry_equiv_pos_site_id
 _symmetry_equiv_pos_as_xyz
  1  'x, y, z'
loop_
 _atom_site_type_symbol
 _atom_site_label
 _atom_site_symmetry_multiplicity
 _atom_site_fract_x
 _atom_site_fract_y
 _atom_site_fract_z
 _atom_site_occupancy
  Li  Li0  1  0.74300700  0.50000000  0.00000000  1
  Li  Li1  1  0.50000000  0.25362100  0.23696500  1
  Li  Li2  1  0.24757600  0.00000000  0.50000000  1
  Li  Li3  1  0.50000000  0.74637900  0.76303500  1
  Li  Li4  1  0.25699300  0.50000000  0.00000000  1
  Li  Li5  1  0.00000000  0.24867100  0.24674400  1
  Li  Li6  1  0.00000000  0.75132900  0.75325600  1
  Li  Li7  1  0.75242400  0.00000000  0.50000000  1
  Li  Li8  1  0.50000000  0.00000000  0.00000000  1
  Mn  Mn0  1  0.00000000  0.00000000  0.00000000  1
  Mn  Mn1  1  0.50000000  0.50000000  0.50000000  1
  Co  Co0  1  0.74538100  0.76349500  0.24305200  1
  Co  Co1  1  0.25461900  0.23650500  0.75694800  1
  Co  Co2  1  0.25461900  0.76349500  0.24305200  1
  Co  Co3  1  0.00000000  0.50000000  0.50000000  1
  Co  Co4  1  0.74538100  0.23650500  0.75694800  1
  O  O0  1  0.76374500  0.88981500  0.87863500  1
  O  O1  1  0.50000000  0.62786500  0.14077500  1
  O  O2  1  0.25670100  0.38490400  0.38665900  1
  O  O3  1  0.50000000  0.15833500  0.61946200  1
  O  O4  1  0.23625500  0.88981500  0.87863500  1
  O  O5  1  0.00000000  0.65989500  0.11644200  1
  O  O6  1  0.00000000  0.14471700  0.63433000  1
  O  O7  1  0.74329900  0.38490400  0.38665900  1
  O  O8  1  0.76374500  0.11018500  0.12136500  1
  O  O9  1  0.50000000  0.84166500  0.38053800  1
  O  O10  1  0.25670100  0.61509600  0.61334100  1
  O  O11  1  0.50000000  0.37213500  0.85922500  1
  O  O12  1  0.23625500  0.11018500  0.12136500  1
  O  O13  1  0.00000000  0.85528300  0.36567000  1
  O  O14  1  0.00000000  0.34010500  0.88355800  1
  O  O15  1  0.74329900  0.61509600  0.61334100  1
loop_
_geom_bond_atom_site_label_1
_geom_bond_atom_site_label_2
_geom_bond_distance
_geom_bond_site_symmetry_2
Li0 O5 2.123962 1_655
Li0 O14 2.123962 1_654
Li0 O11 2.148459 1_554
Li0 O1 2.148459 1_555
Li0 O0 2.170545 1_554
Li0 O8 2.170545 1_555
Li1 O1 2.010126 1_555
Li1 O12 2.108196 1_555
Li1 O8 2.108196 1_555
Li1 O2 2.217785 1_555
Li1 O7 2.217785 1_555
Li1 O9 2.353659 1_545
Li2 O2 2.116187 1_555
Li2 O10 2.116187 1_545
Li2 O3 2.119481 1_555
Li2 O9 2.119481 1_545
Li2 O6 2.160713 1_555
Li2 O13 2.160713 1_545
Li3 O11 2.010126 1_555
Li3 O4 2.108196 1_555
Li3 O0 2.108196 1_555
Li3 O15 2.217785 1_555
Li3 O10 2.217785 1_555
Li3 O3 2.353659 1_565
Li4 O5 2.123962 1_555
Li4 O14 2.123962 1_554
Li4 O11 2.148459 1_554
Li4 O1 2.148459 1_555
Li4 O4 2.170545 1_554
Li4 O12 2.170545 1_555
Li5 O8 2.044707 1_455
Li5 O12 2.044707 1_555
Li5 O13 2.173530 1_545
Li5 O7 2.213654 1_455
Li5 O2 2.213654 1_555
Li5 O5 2.295117 1_555
Li6 O4 2.044707 1_555
Li6 O0 2.044707 1_455
Li6 O6 2.173530 1_565
Li6 O15 2.213654 1_455
Li6 O10 2.213654 1_555
Li6 O14 2.295117 1_555
Li7 O15 2.116187 1_545
Li7 O7 2.116187 1_555
Li7 O3 2.119481 1_555
Li7 O9 2.119481 1_545
Li7 O6 2.160713 1_655
Li7 O13 2.160713 1_645
Li8 O0 2.072910 1_544
Li8 O4 2.072910 1_544
Li8 O8 2.072910 1_555
Li8 O12 2.072910 1_555
Li8 O1 2.176964 1_545
Li8 O11 2.176964 1_554
Mn0 O5 1.934054 1_545
Mn0 O14 1.934054 1_554
Mn0 O4 1.957792 1_544
Mn0 O0 1.957792 1_444
Mn0 O12 1.957792 1_555
Mn0 O8 1.957792 1_455
Mn1 O2 1.947176 1_555
Mn1 O15 1.947176 1_555
Mn1 O7 1.947176 1_555
Mn1 O10 1.947176 1_555
Mn1 O3 1.953761 1_555
Mn1 O9 1.953761 1_555
Co0 O1 1.936325 1_555
Co0 O8 1.987429 1_565
Co0 O13 2.008107 1_655
Co0 O9 2.043390 1_555
Co0 O5 2.054157 1_655
Co0 O7 2.216628 1_555
Co1 O11 1.936325 1_555
Co1 O4 1.987429 1_545
Co1 O6 2.008107 1_555
Co1 O3 2.043390 1_555
Co1 O14 2.054157 1_555
Co1 O10 2.216628 1_555
Co2 O1 1.936325 1_555
Co2 O12 1.987429 1_565
Co2 O13 2.008107 1_555
Co2 O9 2.043390 1_555
Co2 O5 2.054157 1_555
Co2 O2 2.216628 1_555
Co3 O7 2.004423 1_455
Co3 O10 2.004423 1_555
Co3 O2 2.004423 1_555
Co3 O15 2.004423 1_455
Co3 O6 2.078047 1_555
Co3 O13 2.078047 1_555
Co4 O11 1.936325 1_555
Co4 O0 1.987429 1_545
Co4 O6 2.008107 1_655
Co4 O3 2.043390 1_555
Co4 O14 2.054157 1_655
Co4 O15 2.216628 1_555
