# generated using pymatgen
data_Mn5(Bi2Rh)2
_symmetry_space_group_name_H-M   'P 1'
_cell_length_a   8.70046670
_cell_length_b   8.70046670
_cell_length_c   8.70046670
_cell_angle_alpha   90.00000000
_cell_angle_beta   60.00000000
_cell_angle_gamma   120.00000000
_symmetry_Int_Tables_number   1
_chemical_formula_structural   Mn5(Bi2Rh)2
_chemical_formula_sum   'Mn10 Bi8 Rh4'
_cell_volume   465.70687469
_cell_formula_units_Z   2
loop_
 _symmetry_equiv_pos_site_id
 _symmetry_equiv_pos_as_xyz
  1  'x, y, z'
loop_
 _atom_site_type_symbol
 _atom_site_label
 _atom_site_symmetry_multiplicity
 _atom_site_fract_x
 _atom_site_fract_y
 _atom_site_fract_z
 _atom_site_occupancy
  Mn  Mn0  1  0.00138600  0.00069300  0.49930700  1
  Mn  Mn1  1  0.50000000  0.49930700  0.49930700  1
  Mn  Mn2  1  0.50000000  0.00069300  0.49930700  1
  Mn  Mn3  1  0.99861400  0.49930700  0.00069300  1
  Mn  Mn4  1  0.50000000  0.00069300  0.00069300  1
  Mn  Mn5  1  0.50000000  0.49930700  0.00069300  1
  Mn  Mn6  1  0.17920000  0.08960000  0.73120000  1
  Mn  Mn7  1  0.82080000  0.08960000  0.08960000  1
  Mn  Mn8  1  0.82080000  0.73120000  0.08960000  1
  Mn  Mn9  1  0.17920000  0.08960000  0.08960000  1
  Bi  Bi0  1  0.50000000  0.25000000  0.25000000  1
  Bi  Bi1  1  0.50000000  0.75000000  0.75000000  1
  Bi  Bi2  1  0.57776200  0.28888100  0.71111900  1
  Bi  Bi3  1  0.00000000  0.71111900  0.71111900  1
  Bi  Bi4  1  0.00000000  0.28888100  0.71111900  1
  Bi  Bi5  1  0.42223800  0.71111900  0.28888100  1
  Bi  Bi6  1  0.00000000  0.28888100  0.28888100  1
  Bi  Bi7  1  0.00000000  0.71111900  0.28888100  1
  Rh  Rh0  1  0.75782300  0.87891100  0.36326600  1
  Rh  Rh1  1  0.24217700  0.87891100  0.87891100  1
  Rh  Rh2  1  0.24217700  0.36326600  0.87891100  1
  Rh  Rh3  1  0.75782300  0.87891100  0.87891100  1
loop_
_geom_bond_atom_site_label_1
_geom_bond_atom_site_label_2
_geom_bond_distance
_geom_bond_site_symmetry_2
Mn0 Rh3 2.697620 1_445
Mn0 Rh0 2.697620 1_445
Mn0 Mn9 2.997832 1_555
Mn0 Mn6 2.997832 1_555
Mn1 Rh0 2.697620 1_555
Mn1 Rh2 2.697620 1_555
Mn1 Mn6 2.997832 1_555
Mn1 Mn8 2.997832 1_555
Mn2 Rh1 2.697620 1_545
Mn2 Rh0 2.697628 1_545
Mn2 Mn6 2.997832 1_555
Mn2 Mn7 2.997832 1_555
Mn3 Rh1 2.697620 1_654
Mn3 Rh2 2.697620 1_654
Mn3 Mn7 2.997832 1_555
Mn3 Mn8 2.997832 1_555
Mn4 Rh3 2.697628 1_544
Mn4 Rh1 2.697628 1_544
Mn4 Mn9 2.997832 1_555
Mn4 Mn7 2.997832 1_555
Mn5 Rh3 2.697620 1_554
Mn5 Rh2 2.697628 1_554
Mn5 Mn8 2.997832 1_555
Mn5 Mn9 2.997832 1_555
Mn6 Rh2 2.649652 1_555
Mn6 Rh1 2.649652 1_545
Mn6 Rh3 2.649652 1_445
Mn7 Rh2 2.649652 1_654
Mn7 Rh0 2.649657 1_545
Mn7 Rh3 2.649657 1_544
Mn8 Rh3 2.649652 1_554
Mn8 Rh0 2.649652 1_555
Mn8 Rh1 2.649652 1_654
Mn9 Rh0 2.649652 1_445
Mn9 Rh1 2.649657 1_544
Mn9 Rh2 2.649657 1_554
Bi0 Mn1 3.067553 1_555
Bi0 Mn5 3.067553 1_555
Bi0 Mn2 3.067553 1_555
Bi0 Mn3 3.067553 1_555
Bi0 Mn0 3.067553 1_555
Bi0 Mn4 3.067553 1_555
Bi0 Mn6 3.418397 1_555
Bi0 Mn8 3.418397 1_555
Bi0 Mn9 3.418397 1_555
Bi0 Mn7 3.418397 1_555
Bi1 Rh2 2.747320 1_555
Bi1 Rh3 2.747320 1_555
Bi1 Rh1 2.747320 1_555
Bi1 Rh0 2.747320 1_555
Bi1 Mn1 3.084606 1_555
Bi1 Mn3 3.084606 1_456
Bi1 Mn2 3.084606 1_565
Bi1 Mn5 3.084606 1_556
Bi1 Mn4 3.084606 1_566
Bi1 Mn0 3.084606 1_665
Bi2 Mn6 2.905728 1_555
Bi2 Mn9 2.905728 1_556
Bi2 Rh2 2.949941 1_555
Bi2 Rh1 2.949941 1_545
Bi2 Mn1 3.113071 1_555
Bi2 Mn2 3.113071 1_555
Bi2 Mn5 3.113071 1_556
Bi2 Mn4 3.113071 1_556
Bi3 Mn6 2.905728 1_565
Bi3 Mn8 2.905728 1_456
Bi3 Rh3 2.949933 1_455
Bi3 Rh1 2.949933 1_555
Bi3 Mn2 3.113071 1_565
Bi3 Mn5 3.113071 1_456
Bi3 Mn0 3.113071 1_565
Bi3 Mn3 3.113071 1_456
Bi4 Mn7 2.905728 1_456
Bi4 Mn6 2.905728 1_555
Bi4 Rh2 2.949933 1_555
Bi4 Rh3 2.949941 1_445
Bi4 Mn4 3.113071 1_456
Bi4 Mn1 3.113071 1_555
Bi4 Mn0 3.113071 1_555
Bi4 Mn3 3.113071 1_456
Bi5 Mn7 2.905728 1_565
Bi5 Mn8 2.905728 1_555
Bi5 Rh0 2.949941 1_555
Bi5 Rh3 2.949941 1_554
Bi5 Mn1 3.113071 1_555
Bi5 Mn5 3.113071 1_555
Bi5 Mn2 3.113071 1_565
Bi5 Mn4 3.113071 1_565
Bi6 Mn9 2.905728 1_555
Bi6 Mn7 2.905728 1_455
Bi6 Rh0 2.949941 1_445
Bi6 Rh2 2.949941 1_554
Bi6 Mn5 3.113071 1_555
Bi6 Mn2 3.113071 1_455
Bi6 Mn3 3.113071 1_455
Bi6 Mn0 3.113071 1_555
Bi7 Mn9 2.905728 1_565
Bi7 Mn8 2.905728 1_455
Bi7 Rh0 2.949933 1_455
Bi7 Rh1 2.949941 1_554
Bi7 Mn3 3.113071 1_455
Bi7 Mn4 3.113071 1_565
Bi7 Mn1 3.113071 1_455
Bi7 Mn0 3.113071 1_565
