# generated using pymatgen
data_NaPO
_symmetry_space_group_name_H-M   'P 1'
_cell_length_a   5.76775624
_cell_length_b   5.76775624
_cell_length_c   5.76775624
_cell_angle_alpha   148.86517709
_cell_angle_beta   115.97310660
_cell_angle_gamma   72.90827896
_symmetry_Int_Tables_number   1
_chemical_formula_structural   NaPO
_chemical_formula_sum   'Na2 P2 O2'
_cell_volume   87.82664986
_cell_formula_units_Z   2
loop_
 _symmetry_equiv_pos_site_id
 _symmetry_equiv_pos_as_xyz
  1  'x, y, z'
loop_
 _atom_site_type_symbol
 _atom_site_label
 _atom_site_symmetry_multiplicity
 _atom_site_fract_x
 _atom_site_fract_y
 _atom_site_fract_z
 _atom_site_occupancy
  Na  Na0  1  0.50000000  0.00000000  0.50000000  1
  Na  Na1  1  0.00000000  0.50000000  0.50000000  1
  P  P0  1  0.00000000  0.00000000  0.50000000  1
  P  P1  1  0.50000000  0.00000000  0.00000000  1
  O  O0  1  0.25000000  0.50717200  0.25717200  1
  O  O1  1  0.75000000  0.49282800  0.74282800  1
loop_
_geom_bond_atom_site_label_1
_geom_bond_atom_site_label_2
_geom_bond_distance
_geom_bond_site_symmetry_2
Na0 O1 2.438372 1_555
Na0 O0 2.438372 1_545
Na1 O0 2.438372 1_555
Na1 O1 2.438372 1_455
O0 P1 2.159857 1_566
O0 P0 2.159857 1_565
O0 P0 2.191450 1_554
O0 P1 2.191450 1_555
O1 P0 2.159857 1_655
O1 P1 2.159857 1_555
O1 P1 2.191450 1_566
O1 P0 2.191450 1_666
