# generated using pymatgen
data_LaMgCrCuO6
_symmetry_space_group_name_H-M   'P 1'
_cell_length_a   5.39030800
_cell_length_b   5.31081200
_cell_length_c   9.39237086
_cell_angle_alpha   55.42954264
_cell_angle_beta   90.00000000
_cell_angle_gamma   90.00000000
_symmetry_Int_Tables_number   1
_chemical_formula_structural   LaMgCrCuO6
_chemical_formula_sum   'La2 Mg2 Cr2 Cu2 O12'
_cell_volume   221.39913786
_cell_formula_units_Z   2
loop_
 _symmetry_equiv_pos_site_id
 _symmetry_equiv_pos_as_xyz
  1  'x, y, z'
loop_
 _atom_site_type_symbol
 _atom_site_label
 _atom_site_symmetry_multiplicity
 _atom_site_fract_x
 _atom_site_fract_y
 _atom_site_fract_z
 _atom_site_occupancy
  La  La0  1  0.20663400  0.74592300  0.24991900  1
  La  La1  1  0.79336600  0.74592300  0.74991900  1
  Mg  Mg0  1  0.69005900  0.28121500  0.24307500  1
  Mg  Mg1  1  0.30994100  0.28121500  0.74307500  1
  Cr  Cr0  1  0.25526000  0.01030600  0.49891400  1
  Cr  Cr1  1  0.74474000  0.01030600  0.99891400  1
  Cu  Cu0  1  0.24954400  0.50396700  0.00067900  1
  Cu  Cu1  1  0.75045600  0.50396700  0.50067900  1
  O  O0  1  0.69085500  0.16974500  0.75137000  1
  O  O1  1  0.49628200  0.71898500  0.06374100  1
  O  O2  1  0.47625300  0.32191300  0.44769100  1
  O  O3  1  0.94170800  0.63092100  0.05756800  1
  O  O4  1  0.95756700  0.22884100  0.43904100  1
  O  O5  1  0.22369200  0.88818400  0.74800300  1
  O  O6  1  0.30914500  0.16974500  0.25137000  1
  O  O7  1  0.50371800  0.71898500  0.56374100  1
  O  O8  1  0.52374700  0.32191300  0.94769100  1
  O  O9  1  0.05829200  0.63092100  0.55756800  1
  O  O10  1  0.04243300  0.22884100  0.93904100  1
  O  O11  1  0.77630800  0.88818400  0.24800300  1
loop_
_geom_bond_atom_site_label_1
_geom_bond_atom_site_label_2
_geom_bond_distance
_geom_bond_site_symmetry_2
La0 O6 2.325210 1_565
La0 O1 2.408274 1_555
La0 O2 2.426213 1_555
La0 O11 2.436432 1_455
La0 O3 2.632187 1_455
La0 O4 2.638789 1_455
La0 O9 2.712774 1_555
La0 O10 2.718159 1_564
La1 O0 2.325210 1_565
La1 O7 2.408274 1_555
La1 O8 2.426213 1_555
La1 O5 2.436432 1_655
La1 O9 2.632187 1_655
La1 O10 2.638789 1_655
La1 O3 2.712774 1_556
La1 O4 2.718159 1_565
Mg0 O11 2.113178 1_545
Mg0 O6 2.126029 1_555
Mg0 O3 2.157035 1_555
Mg0 O1 2.211176 1_555
Mg0 O4 2.227859 1_555
Mg0 O2 2.353667 1_555
Mg1 O5 2.113178 1_545
Mg1 O0 2.126029 1_555
Mg1 O9 2.157035 1_555
Mg1 O7 2.211176 1_555
Mg1 O10 2.227859 1_555
Mg1 O8 2.353667 1_555
Cr0 O2 1.866973 1_555
Cr0 O7 1.867884 1_545
Cr0 O4 1.870156 1_455
Cr0 O6 1.993218 1_555
Cr0 O5 2.049654 1_545
Cr0 O9 2.056862 1_545
Cr1 O8 1.866973 1_555
Cr1 O1 1.867884 1_546
Cr1 O10 1.870156 1_655
Cr1 O0 1.993218 1_555
Cr1 O11 2.049654 1_546
Cr1 O3 2.056862 1_546
Cu0 O3 1.975423 1_455
Cu0 O8 1.978172 1_554
Cu0 O6 2.013694 1_555
Cu0 O1 2.047254 1_555
Cu0 O5 2.078397 1_554
Cu0 O10 2.162494 1_554
Cu1 O9 1.975423 1_655
Cu1 O2 1.978172 1_555
Cu1 O0 2.013694 1_555
Cu1 O7 2.047254 1_555
Cu1 O11 2.078397 1_555
Cu1 O4 2.162494 1_555
