# generated using pymatgen
data_Y3Al2(Ni2H3)3
_symmetry_space_group_name_H-M   'P 1'
_cell_length_a   7.94882629
_cell_length_b   7.94882629
_cell_length_c   7.94882629
_cell_angle_alpha   109.47122063
_cell_angle_beta   109.47122063
_cell_angle_gamma   109.47122063
_symmetry_Int_Tables_number   1
_chemical_formula_structural   Y3Al2(Ni2H3)3
_chemical_formula_sum   'Y6 Al4 Ni12 H18'
_cell_volume   386.62250323
_cell_formula_units_Z   2
loop_
 _symmetry_equiv_pos_site_id
 _symmetry_equiv_pos_as_xyz
  1  'x, y, z'
loop_
 _atom_site_type_symbol
 _atom_site_label
 _atom_site_symmetry_multiplicity
 _atom_site_fract_x
 _atom_site_fract_y
 _atom_site_fract_z
 _atom_site_occupancy
  Y  Y0  1  0.73115600  0.73115600  0.00000000  1
  Y  Y1  1  0.26884400  0.00000000  0.26884400  1
  Y  Y2  1  0.00000000  0.26884400  0.26884400  1
  Y  Y3  1  0.26884400  0.26884400  0.00000000  1
  Y  Y4  1  0.73115600  0.00000000  0.73115600  1
  Y  Y5  1  0.00000000  0.73115600  0.73115600  1
  Al  Al0  1  0.00000000  0.00000000  0.50000000  1
  Al  Al1  1  0.00000000  0.50000000  0.00000000  1
  Al  Al2  1  0.50000000  0.00000000  0.00000000  1
  Al  Al3  1  0.50000000  0.50000000  0.50000000  1
  Ni  Ni0  1  0.33921700  0.33921700  0.67843300  1
  Ni  Ni1  1  0.66078300  0.00000000  0.33921700  1
  Ni  Ni2  1  0.00000000  0.66078300  0.33921700  1
  Ni  Ni3  1  0.66078300  0.33921700  0.00000000  1
  Ni  Ni4  1  0.33921700  0.67843300  0.33921700  1
  Ni  Ni5  1  0.00000000  0.33921700  0.66078300  1
  Ni  Ni6  1  0.33921700  0.66078300  0.00000000  1
  Ni  Ni7  1  0.33921700  0.00000000  0.66078300  1
  Ni  Ni8  1  0.67843300  0.33921700  0.33921700  1
  Ni  Ni9  1  0.66078300  0.66078300  0.32156700  1
  Ni  Ni10  1  0.66078300  0.32156700  0.66078300  1
  Ni  Ni11  1  0.32156700  0.66078300  0.66078300  1
  H  H0  1  0.00000000  0.00000000  0.73477000  1
  H  H1  1  0.00000000  0.73477000  0.00000000  1
  H  H2  1  0.73477000  0.00000000  0.00000000  1
  H  H3  1  0.26523000  0.26523000  0.26523000  1
  H  H4  1  0.00000000  0.00000000  0.26523000  1
  H  H5  1  0.00000000  0.26523000  0.00000000  1
  H  H6  1  0.26523000  0.00000000  0.00000000  1
  H  H7  1  0.73477000  0.73477000  0.73477000  1
  H  H8  1  0.50000000  0.75000000  0.25000000  1
  H  H9  1  0.25000000  0.75000000  0.50000000  1
  H  H10  1  0.25000000  0.50000000  0.75000000  1
  H  H11  1  0.50000000  0.25000000  0.75000000  1
  H  H12  1  0.75000000  0.50000000  0.25000000  1
  H  H13  1  0.75000000  0.25000000  0.50000000  1
  H  H14  1  0.50000000  0.50000000  0.00000000  1
  H  H15  1  0.50000000  0.00000000  0.50000000  1
  H  H16  1  0.00000000  0.50000000  0.50000000  1
  H  H17  1  0.00000000  0.00000000  0.00000000  1
loop_
_geom_bond_atom_site_label_1
_geom_bond_atom_site_label_2
_geom_bond_distance
_geom_bond_site_symmetry_2
Al0 H4 1.866146 1_555
Al0 H0 1.866146 1_555
Al1 H5 1.866146 1_555
Al1 H1 1.866146 1_555
Al2 H6 1.866146 1_555
Al2 H2 1.866146 1_555
Al3 H3 1.866146 1_555
Al3 H7 1.866146 1_555
H0 Y4 2.127591 1_455
H0 Y5 2.127591 1_545
H0 Y3 2.127591 1_556
H1 Y5 2.127591 1_554
H1 Y0 2.127591 1_455
H1 Y1 2.127591 1_565
H2 Y4 2.127591 1_554
H2 Y0 2.127591 1_545
H2 Y2 2.127591 1_655
H3 Y1 2.127591 1_555
H3 Y3 2.127591 1_555
H3 Y2 2.127591 1_555
H4 Y0 2.127591 1_445
H4 Y1 2.127591 1_555
H4 Y2 2.127591 1_555
H5 Y4 2.127591 1_454
H5 Y3 2.127591 1_555
H5 Y2 2.127591 1_555
H6 Y5 2.127591 1_544
H6 Y1 2.127591 1_555
H6 Y3 2.127591 1_555
H7 Y0 2.127591 1_556
H7 Y4 2.127591 1_565
H7 Y5 2.127591 1_655
H8 Ni1 1.687720 1_565
H8 Ni6 1.687720 1_555
H8 Ni4 1.687722 1_555
H8 Ni9 1.687722 1_555
H9 Ni2 1.687720 1_555
H9 Ni7 1.687720 1_565
H9 Ni4 1.687722 1_555
H9 Ni11 1.687722 1_555
H10 Ni5 1.687720 1_555
H10 Ni6 1.687720 1_556
H10 Ni11 1.687722 1_555
H10 Ni0 1.687722 1_555
H11 Ni7 1.687720 1_555
H11 Ni3 1.687720 1_556
H11 Ni10 1.687722 1_555
H11 Ni0 1.687722 1_555
H12 Ni3 1.687720 1_555
H12 Ni2 1.687720 1_655
H12 Ni9 1.687722 1_555
H12 Ni8 1.687722 1_555
H13 Ni5 1.687720 1_655
H13 Ni1 1.687720 1_555
H13 Ni10 1.687722 1_555
H13 Ni8 1.687722 1_555
H14 Ni6 2.087024 1_555
H14 Ni3 2.087024 1_555
H14 Ni9 2.087031 1_555
H14 Ni0 2.087031 1_554
H14 Y3 2.121669 1_555
H14 Y0 2.121669 1_555
H15 Ni1 2.087024 1_555
H15 Ni7 2.087024 1_555
H15 Ni10 2.087031 1_555
H15 Ni4 2.087031 1_545
H15 Y1 2.121669 1_555
H15 Y4 2.121669 1_555
H16 Ni2 2.087024 1_555
H16 Ni5 2.087024 1_555
H16 Ni11 2.087031 1_555
H16 Ni8 2.087031 1_455
H16 Y2 2.121669 1_555
H16 Y5 2.121669 1_555
H17 Y4 2.467588 1_454
H17 Y5 2.467588 1_544
H17 Y0 2.467588 1_445
H17 Y3 2.467588 1_555
H17 Y1 2.467588 1_555
H17 Y2 2.467588 1_555
