# generated using pymatgen
data_Nb5Cr3Se20
_symmetry_space_group_name_H-M   'P 1'
_cell_length_a   3.53564700
_cell_length_b   9.56559270
_cell_length_c   19.05481918
_cell_angle_alpha   88.42375180
_cell_angle_beta   90.00000000
_cell_angle_gamma   90.00000000
_symmetry_Int_Tables_number   1
_chemical_formula_structural   Nb5Cr3Se20
_chemical_formula_sum   'Nb5 Cr3 Se20'
_cell_volume   644.20078379
_cell_formula_units_Z   1
loop_
 _symmetry_equiv_pos_site_id
 _symmetry_equiv_pos_as_xyz
  1  'x, y, z'
loop_
 _atom_site_type_symbol
 _atom_site_label
 _atom_site_symmetry_multiplicity
 _atom_site_fract_x
 _atom_site_fract_y
 _atom_site_fract_z
 _atom_site_occupancy
  Nb  Nb0  1  0.75000000  0.40591600  0.31683200  1
  Nb  Nb1  1  0.75000000  0.90510100  0.81878400  1
  Nb  Nb2  1  0.25000000  0.09621400  0.18025200  1
  Nb  Nb3  1  0.25000000  0.59752300  0.68069300  1
  Nb  Nb4  1  0.25000000  0.09736400  0.45726600  1
  Cr  Cr0  1  0.25000000  0.61799300  0.94533000  1
  Cr  Cr1  1  0.75000000  0.38245000  0.05383600  1
  Cr  Cr2  1  0.75000000  0.89184300  0.55222500  1
  Se  Se0  1  0.25000000  0.57760100  0.37708500  1
  Se  Se1  1  0.25000000  0.07329900  0.88040800  1
  Se  Se2  1  0.75000000  0.92632500  0.11948900  1
  Se  Se3  1  0.75000000  0.42754000  0.62013200  1
  Se  Se4  1  0.25000000  0.19742600  0.31669000  1
  Se  Se5  1  0.25000000  0.69798400  0.81579900  1
  Se  Se6  1  0.75000000  0.30361700  0.18244400  1
  Se  Se7  1  0.75000000  0.80463100  0.68106500  1
  Se  Se8  1  0.25000000  0.57856600  0.25292900  1
  Se  Se9  1  0.25000000  0.07812600  0.75577200  1
  Se  Se10  1  0.75000000  0.92511500  0.24420400  1
  Se  Se11  1  0.75000000  0.42500300  0.74468000  1
  Se  Se12  1  0.75000000  0.30427700  0.45394900  1
  Se  Se13  1  0.75000000  0.80595000  0.95496700  1
  Se  Se14  1  0.25000000  0.19448200  0.04419700  1
  Se  Se15  1  0.25000000  0.70492100  0.54477800  1
  Se  Se16  1  0.75000000  0.91545100  0.42029200  1
  Se  Se17  1  0.75000000  0.43620700  0.92595100  1
  Se  Se18  1  0.25000000  0.56370000  0.07320100  1
  Se  Se19  1  0.25000000  0.06537400  0.58675000  1
loop_
_geom_bond_atom_site_label_1
_geom_bond_atom_site_label_2
_geom_bond_distance
_geom_bond_site_symmetry_2
Nb0 Se4 2.665119 1_555
Nb0 Se4 2.665119 1_655
Nb0 Se8 2.687883 1_555
Nb0 Se8 2.687883 1_655
Nb0 Se0 2.691493 1_655
Nb0 Se0 2.691493 1_555
Nb0 Se12 2.762590 1_555
Nb0 Se6 2.766370 1_555
Nb1 Se5 2.657024 1_655
Nb1 Se5 2.657024 1_555
Nb1 Se1 2.682641 1_565
Nb1 Se1 2.682641 1_665
Nb1 Se9 2.682690 1_565
Nb1 Se9 2.682690 1_665
Nb1 Se13 2.738223 1_555
Nb1 Se7 2.819371 1_555
Nb2 Se6 2.658475 1_555
Nb2 Se6 2.658475 1_455
Nb2 Se10 2.679387 1_545
Nb2 Se10 2.679387 1_445
Nb2 Se2 2.685180 1_445
Nb2 Se2 2.685180 1_545
Nb2 Se14 2.733238 1_555
Nb2 Se4 2.799064 1_555
Nb3 Se7 2.655339 1_555
Nb3 Se7 2.655339 1_455
Nb3 Se3 2.684014 1_555
Nb3 Se3 2.684014 1_455
Nb3 Se11 2.687833 1_555
Nb3 Se11 2.687833 1_455
Nb3 Se15 2.759760 1_555
Nb3 Se5 2.772581 1_555
Nb4 Se19 2.477830 1_555
Nb4 Se16 2.591714 1_545
Nb4 Se16 2.591714 1_445
Nb4 Se12 2.653248 1_455
Nb4 Se12 2.653248 1_555
Nb4 Se4 2.819620 1_555
Cr0 Se18 2.477281 1_556
Cr0 Se17 2.514085 1_455
Cr0 Se17 2.514085 1_555
Cr0 Se13 2.531719 1_455
Cr0 Se13 2.531719 1_555
Cr0 Se5 2.563890 1_555
Cr1 Se17 2.476611 1_554
Cr1 Se18 2.510476 1_655
Cr1 Se18 2.510476 1_555
Cr1 Se14 2.531797 1_655
Cr1 Se14 2.531797 1_555
Cr1 Se6 2.544097 1_555
Cr2 Se16 2.517887 1_555
Cr2 Se15 2.521172 1_555
Cr2 Se15 2.521172 1_655
Cr2 Se19 2.524564 1_565
Cr2 Se19 2.524564 1_665
Cr2 Se7 2.571072 1_555
Se0 Se8 2.365534 1_555
Se1 Se9 2.374095 1_555
Se10 Se2 2.376132 1_555
Se11 Se3 2.372696 1_555
