# generated using pymatgen
data_CrN2
_symmetry_space_group_name_H-M   'P 1'
_cell_length_a   5.36250400
_cell_length_b   9.29904300
_cell_length_c   11.40417200
_cell_angle_alpha   90.00000000
_cell_angle_beta   90.00000000
_cell_angle_gamma   90.00000000
_symmetry_Int_Tables_number   1
_chemical_formula_structural   CrN2
_chemical_formula_sum   'Cr12 N24'
_cell_volume   568.68221183
_cell_formula_units_Z   12
loop_
 _symmetry_equiv_pos_site_id
 _symmetry_equiv_pos_as_xyz
  1  'x, y, z'
loop_
 _atom_site_type_symbol
 _atom_site_label
 _atom_site_symmetry_multiplicity
 _atom_site_fract_x
 _atom_site_fract_y
 _atom_site_fract_z
 _atom_site_occupancy
  Cr  Cr0  1  0.75000000  0.50000000  0.71462000  1
  Cr  Cr1  1  0.75000000  0.00000000  0.21462000  1
  Cr  Cr2  1  0.25000000  0.50000000  0.28538000  1
  Cr  Cr3  1  0.25000000  0.00000000  0.78538000  1
  Cr  Cr4  1  0.93881600  0.70482400  0.08373100  1
  Cr  Cr5  1  0.56118400  0.29517600  0.08373100  1
  Cr  Cr6  1  0.56118400  0.20482400  0.58373100  1
  Cr  Cr7  1  0.93881600  0.79517600  0.58373100  1
  Cr  Cr8  1  0.06118400  0.20482400  0.41626900  1
  Cr  Cr9  1  0.43881600  0.79517600  0.41626900  1
  Cr  Cr10  1  0.43881600  0.70482400  0.91626900  1
  Cr  Cr11  1  0.06118400  0.29517600  0.91626900  1
  N  N0  1  0.85776200  0.32756900  0.03081800  1
  N  N1  1  0.64223800  0.67243100  0.03081800  1
  N  N2  1  0.64223800  0.82756900  0.53081800  1
  N  N3  1  0.85776200  0.17243100  0.53081800  1
  N  N4  1  0.14223800  0.82756900  0.46918200  1
  N  N5  1  0.35776200  0.17243100  0.46918200  1
  N  N6  1  0.35776200  0.32756900  0.96918200  1
  N  N7  1  0.14223800  0.67243100  0.96918200  1
  N  N8  1  0.95249500  0.09586500  0.30079600  1
  N  N9  1  0.54750500  0.90413500  0.30079600  1
  N  N10  1  0.54750500  0.59586500  0.80079600  1
  N  N11  1  0.95249500  0.40413500  0.80079600  1
  N  N12  1  0.07309200  0.38074300  0.37127500  1
  N  N13  1  0.42690800  0.61925700  0.37127500  1
  N  N14  1  0.42690800  0.88074300  0.87127500  1
  N  N15  1  0.07309200  0.11925700  0.87127500  1
  N  N16  1  0.92690800  0.88074300  0.12872500  1
  N  N17  1  0.57309200  0.11925700  0.12872500  1
  N  N18  1  0.57309200  0.38074300  0.62872500  1
  N  N19  1  0.92690800  0.61925700  0.62872500  1
  N  N20  1  0.04750500  0.59586500  0.19920400  1
  N  N21  1  0.45249500  0.40413500  0.19920400  1
  N  N22  1  0.45249500  0.09586500  0.69920400  1
  N  N23  1  0.04750500  0.90413500  0.69920400  1
loop_
_geom_bond_atom_site_label_1
_geom_bond_atom_site_label_2
_geom_bond_distance
_geom_bond_site_symmetry_2
Cr0 N10 1.714542 1_555
Cr0 N11 1.714542 1_555
Cr0 N19 1.757653 1_555
Cr0 N18 1.757653 1_555
Cr1 N9 1.714542 1_545
Cr1 N8 1.714542 1_555
Cr1 N16 1.757653 1_545
Cr1 N17 1.757653 1_555
Cr2 N21 1.714542 1_555
Cr2 N20 1.714542 1_555
Cr2 N13 1.757653 1_555
Cr2 N12 1.757653 1_555
Cr3 N22 1.714542 1_555
Cr3 N23 1.714542 1_545
Cr3 N14 1.757653 1_545
Cr3 N15 1.757653 1_555
Cr4 N16 1.715654 1_555
Cr4 N1 1.727494 1_555
Cr4 N7 1.728354 1_654
Cr4 N20 1.760815 1_655
Cr5 N17 1.715654 1_555
Cr5 N0 1.727494 1_555
Cr5 N6 1.728354 1_554
Cr5 N21 1.760815 1_555
Cr6 N18 1.715654 1_555
Cr6 N3 1.727494 1_555
Cr6 N5 1.728354 1_555
Cr6 N22 1.760815 1_555
Cr7 N19 1.715654 1_555
Cr7 N2 1.727494 1_555
Cr7 N4 1.728354 1_655
Cr7 N23 1.760815 1_655
Cr8 N12 1.715654 1_555
Cr8 N5 1.727494 1_555
Cr8 N3 1.728354 1_455
Cr8 N8 1.760815 1_455
Cr9 N13 1.715654 1_555
Cr9 N4 1.727494 1_555
Cr9 N2 1.728354 1_555
Cr9 N9 1.760815 1_555
Cr10 N14 1.715654 1_555
Cr10 N7 1.727494 1_555
Cr10 N1 1.728354 1_556
Cr10 N10 1.760815 1_555
Cr11 N15 1.715654 1_555
Cr11 N6 1.727494 1_555
Cr11 N0 1.728354 1_456
Cr11 N11 1.760815 1_455
