# generated using pymatgen
data_La2CoNiO6
_symmetry_space_group_name_H-M   'P 1'
_cell_length_a   5.42741630
_cell_length_b   5.42741630
_cell_length_c   5.42741624
_cell_angle_alpha   61.60239341
_cell_angle_beta   61.60239341
_cell_angle_gamma   61.60238939
_symmetry_Int_Tables_number   1
_chemical_formula_structural   La2CoNiO6
_chemical_formula_sum   'La2 Co1 Ni1 O6'
_cell_volume   117.11177299
_cell_formula_units_Z   1
loop_
 _symmetry_equiv_pos_site_id
 _symmetry_equiv_pos_as_xyz
  1  'x, y, z'
loop_
 _atom_site_type_symbol
 _atom_site_label
 _atom_site_symmetry_multiplicity
 _atom_site_fract_x
 _atom_site_fract_y
 _atom_site_fract_z
 _atom_site_occupancy
  La  La0  1  0.25130000  0.25130000  0.25130000  1
  La  La1  1  0.74870000  0.74870000  0.74870000  1
  Co  Co0  1  0.50000000  0.50000000  0.50000000  1
  Ni  Ni0  1  0.00000000  0.00000000  0.00000000  1
  O  O0  1  0.67418000  0.80596800  0.26577700  1
  O  O1  1  0.26577700  0.67418000  0.80596800  1
  O  O2  1  0.80596800  0.26577700  0.67418000  1
  O  O3  1  0.73422300  0.32582000  0.19403200  1
  O  O4  1  0.19403200  0.73422300  0.32582000  1
  O  O5  1  0.32582000  0.19403200  0.73422300  1
loop_
_geom_bond_atom_site_label_1
_geom_bond_atom_site_label_2
_geom_bond_distance
_geom_bond_site_symmetry_2
La0 O0 2.414568 1_545
La0 O2 2.414568 1_455
La0 O1 2.414568 1_554
La0 O5 2.691434 1_555
La0 O4 2.691434 1_555
La0 O3 2.691434 1_555
La0 O5 2.786846 1_554
La0 O3 2.786846 1_455
La0 O4 2.786846 1_545
La1 O5 2.414568 1_565
La1 O4 2.414568 1_655
La1 O3 2.414568 1_556
La1 O0 2.691434 1_555
La1 O2 2.691434 1_555
La1 O1 2.691434 1_555
La1 O0 2.786846 1_556
La1 O1 2.786846 1_655
La1 O2 2.786846 1_565
Co0 O2 1.899876 1_555
Co0 O4 1.899876 1_555
Co0 O1 1.899876 1_555
Co0 O3 1.899876 1_555
Co0 O5 1.899876 1_555
Co0 O0 1.899876 1_555
Ni0 O3 2.053533 1_455
Ni0 O1 2.053533 1_544
Ni0 O4 2.053533 1_545
Ni0 O2 2.053533 1_454
Ni0 O0 2.053533 1_445
Ni0 O5 2.053533 1_554
