# generated using pymatgen
data_Se2N2O5
_symmetry_space_group_name_H-M   'P 1'
_cell_length_a   6.54403400
_cell_length_b   7.34604500
_cell_length_c   14.43805500
_cell_angle_alpha   90.00000000
_cell_angle_beta   90.00000000
_cell_angle_gamma   90.00000000
_symmetry_Int_Tables_number   1
_chemical_formula_structural   Se2N2O5
_chemical_formula_sum   'Se8 N8 O20'
_cell_volume   694.07727193
_cell_formula_units_Z   4
loop_
 _symmetry_equiv_pos_site_id
 _symmetry_equiv_pos_as_xyz
  1  'x, y, z'
loop_
 _atom_site_type_symbol
 _atom_site_label
 _atom_site_symmetry_multiplicity
 _atom_site_fract_x
 _atom_site_fract_y
 _atom_site_fract_z
 _atom_site_occupancy
  Se  Se0  1  0.97605800  0.41859200  0.20918300  1
  Se  Se1  1  0.52394200  0.58140800  0.70918300  1
  Se  Se2  1  0.02394200  0.91859200  0.29081700  1
  Se  Se3  1  0.47605800  0.08140800  0.79081700  1
  Se  Se4  1  0.70810400  0.18797500  0.05408500  1
  Se  Se5  1  0.79189600  0.81202500  0.55408500  1
  Se  Se6  1  0.29189600  0.68797500  0.44591500  1
  Se  Se7  1  0.20810400  0.31202500  0.94591500  1
  N  N0  1  0.48766700  0.36854200  0.30124100  1
  N  N1  1  0.01233300  0.63145800  0.80124100  1
  N  N2  1  0.51233300  0.86854200  0.19875900  1
  N  N3  1  0.98766700  0.13145800  0.69875900  1
  N  N4  1  0.06950100  0.80099000  0.98034100  1
  N  N5  1  0.43049900  0.19901000  0.48034100  1
  N  N6  1  0.93049900  0.30099000  0.51965900  1
  N  N7  1  0.56950100  0.69901000  0.01965900  1
  O  O0  1  0.84191500  0.58938800  0.16407000  1
  O  O1  1  0.65808500  0.41061200  0.66407000  1
  O  O2  1  0.15808500  0.08938800  0.33593000  1
  O  O3  1  0.34191500  0.91061200  0.83593000  1
  O  O4  1  0.64479500  0.29783200  0.30858900  1
  O  O5  1  0.85520500  0.70216800  0.80858900  1
  O  O6  1  0.35520500  0.79783200  0.19141100  1
  O  O7  1  0.14479500  0.20216800  0.69141100  1
  O  O8  1  0.92975600  0.21453300  0.13169800  1
  O  O9  1  0.57024400  0.78546700  0.63169800  1
  O  O10  1  0.07024400  0.71453300  0.36830200  1
  O  O11  1  0.42975600  0.28546700  0.86830200  1
  O  O12  1  0.98769000  0.92989000  0.95379500  1
  O  O13  1  0.51231000  0.07011000  0.45379500  1
  O  O14  1  0.01231000  0.42989000  0.54620500  1
  O  O15  1  0.48769000  0.57011000  0.04620500  1
  O  O16  1  0.51127200  0.10977400  0.11996900  1
  O  O17  1  0.98872800  0.89022600  0.61996900  1
  O  O18  1  0.48872800  0.60977400  0.38003100  1
  O  O19  1  0.01127200  0.39022600  0.88003100  1
loop_
_geom_bond_atom_site_label_1
_geom_bond_atom_site_label_2
_geom_bond_distance
_geom_bond_site_symmetry_2
N0 O4 1.156880 1_555
N1 O5 1.156880 1_455
N2 O6 1.156880 1_555
N3 O7 1.156880 1_655
N4 O12 1.153322 1_455
N5 O13 1.153322 1_555
N6 O14 1.153322 1_655
N7 O15 1.153322 1_555
O0 Se0 1.664048 1_555
O1 Se1 1.664048 1_555
O2 Se2 1.664048 1_545
O3 Se3 1.664048 1_565
O8 Se4 1.843288 1_555
O8 Se0 1.894849 1_555
O9 Se5 1.843288 1_555
O9 Se1 1.894849 1_555
O10 Se6 1.843288 1_555
O10 Se2 1.894849 1_555
O11 Se7 1.843288 1_555
O11 Se3 1.894849 1_555
O16 Se4 1.701177 1_555
O17 Se5 1.701177 1_555
O18 Se6 1.701177 1_555
O19 Se7 1.701177 1_555
