# generated using pymatgen
data_Ca2BiN3
_symmetry_space_group_name_H-M   'P 1'
_cell_length_a   6.57158614
_cell_length_b   11.71719774
_cell_length_c   11.67343900
_cell_angle_alpha   90.00000000
_cell_angle_beta   90.00000000
_cell_angle_gamma   26.93707549
_symmetry_Int_Tables_number   1
_chemical_formula_structural   Ca2BiN3
_chemical_formula_sum   'Ca8 Bi4 N12'
_cell_volume   407.19476775
_cell_formula_units_Z   4
loop_
 _symmetry_equiv_pos_site_id
 _symmetry_equiv_pos_as_xyz
  1  'x, y, z'
loop_
 _atom_site_type_symbol
 _atom_site_label
 _atom_site_symmetry_multiplicity
 _atom_site_fract_x
 _atom_site_fract_y
 _atom_site_fract_z
 _atom_site_occupancy
  Ca  Ca0  1  0.00000000  0.47497500  0.64677300  1
  Ca  Ca1  1  0.00000000  0.52502500  0.35322700  1
  Ca  Ca2  1  0.00000000  0.02502500  0.14677300  1
  Ca  Ca3  1  0.00000000  0.97497500  0.85322700  1
  Ca  Ca4  1  0.00000000  0.12540100  0.58190600  1
  Ca  Ca5  1  0.00000000  0.87459900  0.41809400  1
  Ca  Ca6  1  0.00000000  0.37459900  0.08190600  1
  Ca  Ca7  1  0.00000000  0.62540100  0.91809400  1
  Bi  Bi0  1  0.00000000  0.25467300  0.84650900  1
  Bi  Bi1  1  0.00000000  0.74532700  0.15349100  1
  Bi  Bi2  1  0.00000000  0.24532700  0.34650900  1
  Bi  Bi3  1  0.00000000  0.75467300  0.65349100  1
  N  N0  1  0.00000000  0.15169000  0.99460900  1
  N  N1  1  0.00000000  0.84831000  0.00539100  1
  N  N2  1  0.00000000  0.34831000  0.49460900  1
  N  N3  1  0.00000000  0.65169000  0.50539100  1
  N  N4  1  0.00000000  0.43467500  0.85604600  1
  N  N5  1  0.00000000  0.56532500  0.14395400  1
  N  N6  1  0.00000000  0.06532500  0.35604600  1
  N  N7  1  0.00000000  0.93467500  0.64395400  1
  N  N8  1  0.50000000  0.41101300  0.75000000  1
  N  N9  1  0.50000000  0.08898700  0.25000000  1
  N  N10  1  0.50000000  0.58898700  0.25000000  1
  N  N11  1  0.50000000  0.91101300  0.75000000  1
loop_
_geom_bond_atom_site_label_1
_geom_bond_atom_site_label_2
_geom_bond_distance
_geom_bond_site_symmetry_2
Ca0 N2 2.314711 1_555
Ca0 N4 2.488154 1_555
Ca0 N3 2.647880 1_555
Ca0 N11 2.901623 1_455
Ca0 N8 2.901624 1_555
Ca0 N7 3.014402 1_645
Ca0 N7 3.014402 1_455
Ca1 N3 2.314711 1_555
Ca1 N5 2.488154 1_555
Ca1 N2 2.647880 1_555
Ca1 N9 2.901623 1_555
Ca1 N10 2.901624 1_455
Ca1 N6 3.014402 1_465
Ca1 N6 3.014402 1_655
Ca2 N0 2.314711 1_554
Ca2 N6 2.488154 1_555
Ca2 N1 2.647880 1_545
Ca2 N10 2.901623 1_545
Ca2 N9 2.901624 1_455
Ca2 N5 3.014402 1_455
Ca2 N5 3.014402 1_645
Ca3 N1 2.314711 1_556
Ca3 N7 2.488154 1_555
Ca3 N0 2.647880 1_565
Ca3 N8 2.901623 1_465
Ca3 N11 2.901624 1_555
Ca3 N4 3.014402 1_655
Ca3 N4 3.014402 1_465
Ca4 N7 2.349222 1_545
Ca4 N8 2.498024 1_455
Ca4 N11 2.498024 1_545
Ca4 N6 2.728914 1_555
Ca4 N2 2.803629 1_555
Ca4 N3 3.123338 1_455
Ca4 N3 3.123338 1_645
Ca5 N6 2.349222 1_565
Ca5 N10 2.498024 1_555
Ca5 N9 2.498024 1_465
Ca5 N7 2.728914 1_555
Ca5 N3 2.803629 1_555
Ca5 N2 3.123338 1_655
Ca5 N2 3.123338 1_465
Ca6 N5 2.349222 1_555
Ca6 N9 2.498024 1_555
Ca6 N10 2.498024 1_455
Ca6 N4 2.728914 1_554
Ca6 N0 2.803629 1_554
Ca6 N1 3.123338 1_645
Ca6 N1 3.123338 1_455
Ca7 N4 2.349222 1_555
Ca7 N11 2.498024 1_455
Ca7 N8 2.498024 1_555
Ca7 N5 2.728914 1_556
Ca7 N1 2.803629 1_556
Ca7 N0 3.123338 1_465
Ca7 N0 3.123338 1_655
Bi0 N0 2.108301 1_555
Bi0 N4 2.112055 1_555
Bi0 N11 2.165458 1_545
Bi0 N8 2.165458 1_455
Bi1 N1 2.108301 1_555
Bi1 N5 2.112055 1_555
Bi1 N9 2.165458 1_465
Bi1 N10 2.165458 1_555
Bi2 N2 2.108301 1_555
Bi2 N6 2.112055 1_555
Bi2 N10 2.165458 1_455
Bi2 N9 2.165458 1_555
Bi3 N3 2.108301 1_555
Bi3 N7 2.112055 1_555
Bi3 N8 2.165458 1_555
Bi3 N11 2.165458 1_455
