# generated using pymatgen
data_CaFe5O7
_symmetry_space_group_name_H-M   'P 1'
_cell_length_a   5.39499771
_cell_length_b   6.16721836
_cell_length_c   18.02394100
_cell_angle_alpha   90.00000000
_cell_angle_beta   90.00000000
_cell_angle_gamma   106.70444981
_symmetry_Int_Tables_number   1
_chemical_formula_structural   CaFe5O7
_chemical_formula_sum   'Ca4 Fe20 O28'
_cell_volume   574.38786959
_cell_formula_units_Z   4
loop_
 _symmetry_equiv_pos_site_id
 _symmetry_equiv_pos_as_xyz
  1  'x, y, z'
loop_
 _atom_site_type_symbol
 _atom_site_label
 _atom_site_symmetry_multiplicity
 _atom_site_fract_x
 _atom_site_fract_y
 _atom_site_fract_z
 _atom_site_occupancy
  Ca  Ca0  1  0.58304700  0.89522000  0.25000000  1
  Ca  Ca1  1  0.41695300  0.10478000  0.75000000  1
  Ca  Ca2  1  0.57878400  0.39415000  0.25000000  1
  Ca  Ca3  1  0.42121600  0.60585000  0.75000000  1
  Fe  Fe0  1  0.55111300  0.13893400  0.07455000  1
  Fe  Fe1  1  0.44888700  0.86106600  0.57455000  1
  Fe  Fe2  1  0.44888700  0.86106600  0.92545000  1
  Fe  Fe3  1  0.55111300  0.13893400  0.42545000  1
  Fe  Fe4  1  0.91910000  0.22924300  0.84829600  1
  Fe  Fe5  1  0.08090000  0.77075700  0.34829600  1
  Fe  Fe6  1  0.08090000  0.77075700  0.15170400  1
  Fe  Fe7  1  0.91910000  0.22924300  0.65170400  1
  Fe  Fe8  1  0.00000000  0.00000000  0.00000000  1
  Fe  Fe9  1  0.00000000  0.00000000  0.50000000  1
  Fe  Fe10  1  0.54891400  0.63681000  0.07364700  1
  Fe  Fe11  1  0.45108600  0.36319000  0.57364700  1
  Fe  Fe12  1  0.45108600  0.36319000  0.92635300  1
  Fe  Fe13  1  0.54891400  0.63681000  0.42635300  1
  Fe  Fe14  1  0.91633000  0.72741000  0.84532100  1
  Fe  Fe15  1  0.08367000  0.27259000  0.34532100  1
  Fe  Fe16  1  0.08367000  0.27259000  0.15467900  1
  Fe  Fe17  1  0.91633000  0.72741000  0.65467900  1
  Fe  Fe18  1  0.00000000  0.50000000  0.00000000  1
  Fe  Fe19  1  0.00000000  0.50000000  0.50000000  1
  O  O0  1  0.89973100  0.22531200  0.25000000  1
  O  O1  1  0.10026900  0.77468800  0.75000000  1
  O  O2  1  0.84900400  0.95706800  0.39464900  1
  O  O3  1  0.15099600  0.04293200  0.89464900  1
  O  O4  1  0.15099600  0.04293200  0.60535100  1
  O  O5  1  0.84900400  0.95706800  0.10535100  1
  O  O6  1  0.25857000  0.82705900  0.46819200  1
  O  O7  1  0.74143000  0.17294100  0.96819200  1
  O  O8  1  0.74143000  0.17294100  0.53180800  1
  O  O9  1  0.25857000  0.82705900  0.03180800  1
  O  O10  1  0.34439900  0.08015200  0.32991100  1
  O  O11  1  0.65560100  0.91984800  0.82991100  1
  O  O12  1  0.65560100  0.91984800  0.67008900  1
  O  O13  1  0.34439900  0.08015200  0.17008900  1
  O  O14  1  0.91767900  0.72994600  0.25000000  1
  O  O15  1  0.08232100  0.27005400  0.75000000  1
  O  O16  1  0.84497500  0.46935200  0.39129900  1
  O  O17  1  0.15502500  0.53064800  0.89129900  1
  O  O18  1  0.15502500  0.53064800  0.60870100  1
  O  O19  1  0.84497500  0.46935200  0.10870100  1
  O  O20  1  0.26568700  0.30419500  0.46876100  1
  O  O21  1  0.73431300  0.69580500  0.96876100  1
  O  O22  1  0.73431300  0.69580500  0.53123900  1
  O  O23  1  0.26568700  0.30419500  0.03123900  1
  O  O24  1  0.34408100  0.59391900  0.33106500  1
  O  O25  1  0.65591900  0.40608100  0.83106500  1
  O  O26  1  0.65591900  0.40608100  0.66893500  1
  O  O27  1  0.34408100  0.59391900  0.16893500  1
loop_
_geom_bond_atom_site_label_1
_geom_bond_atom_site_label_2
_geom_bond_distance
_geom_bond_site_symmetry_2
Ca0 O0 2.250295 1_565
Ca0 O14 2.314309 1_555
Ca0 O24 2.423352 1_555
Ca0 O27 2.423352 1_555
Ca0 O13 2.424272 1_565
Ca0 O10 2.424272 1_565
Ca1 O1 2.250295 1_545
Ca1 O15 2.314309 1_555
Ca1 O25 2.423352 1_555
Ca1 O26 2.423352 1_555
Ca1 O11 2.424272 1_545
Ca1 O12 2.424272 1_545
Ca2 O0 2.262478 1_555
Ca2 O14 2.335572 1_555
Ca2 O13 2.452711 1_555
Ca2 O10 2.452711 1_555
Ca2 O27 2.480491 1_555
Ca2 O24 2.480491 1_555
Ca2 O16 2.894927 1_555
Ca2 O19 2.894927 1_555
Ca3 O1 2.262478 1_555
Ca3 O15 2.335572 1_555
Ca3 O11 2.452711 1_555
Ca3 O12 2.452711 1_555
Ca3 O25 2.480491 1_555
Ca3 O26 2.480491 1_555
Ca3 O17 2.894927 1_555
Ca3 O18 2.894927 1_555
Fe0 O13 2.026813 1_555
Fe0 O7 2.156219 1_554
Fe0 O23 2.218466 1_555
Fe0 O9 2.244725 1_545
Fe0 O5 2.277120 1_545
Fe0 O19 2.277631 1_555
Fe1 O12 2.026813 1_555
Fe1 O6 2.156219 1_555
Fe1 O22 2.218466 1_555
Fe1 O8 2.244725 1_565
Fe1 O4 2.277120 1_565
Fe1 O18 2.277631 1_555
Fe2 O11 2.026813 1_555
Fe2 O9 2.156219 1_556
Fe2 O21 2.218466 1_555
Fe2 O7 2.244725 1_565
Fe2 O3 2.277120 1_565
Fe2 O17 2.277631 1_555
Fe3 O10 2.026813 1_555
Fe3 O8 2.156219 1_555
Fe3 O20 2.218466 1_555
Fe3 O6 2.244725 1_545
Fe3 O2 2.277120 1_545
Fe3 O16 2.277631 1_555
Fe4 O15 1.962195 1_655
Fe4 O25 2.047449 1_555
Fe4 O11 2.052367 1_545
Fe4 O17 2.077487 1_655
Fe4 O3 2.099959 1_655
Fe4 O7 2.349027 1_555
Fe5 O14 1.962195 1_455
Fe5 O24 2.047449 1_555
Fe5 O10 2.052367 1_565
Fe5 O16 2.077487 1_455
Fe5 O2 2.099959 1_455
Fe5 O6 2.349027 1_555
Fe6 O14 1.962195 1_455
Fe6 O27 2.047449 1_555
Fe6 O13 2.052367 1_565
Fe6 O19 2.077487 1_455
Fe6 O5 2.099959 1_455
Fe6 O9 2.349027 1_555
Fe7 O15 1.962195 1_655
Fe7 O26 2.047449 1_555
Fe7 O12 2.052367 1_545
Fe7 O18 2.077487 1_655
Fe7 O4 2.099959 1_655
Fe7 O8 2.349027 1_555
Fe8 O5 2.053123 1_445
Fe8 O3 2.053123 1_554
Fe8 O9 2.065802 1_545
Fe8 O7 2.065802 1_454
Fe8 O21 2.084527 1_444
Fe8 O23 2.084527 1_555
Fe9 O4 2.053123 1_555
Fe9 O2 2.053123 1_445
Fe9 O8 2.065802 1_455
Fe9 O6 2.065802 1_545
Fe9 O20 2.084527 1_555
Fe9 O22 2.084527 1_445
Fe10 O27 2.018119 1_555
Fe10 O21 2.120722 1_554
Fe10 O19 2.228282 1_555
Fe10 O5 2.238399 1_555
Fe10 O23 2.307606 1_555
Fe10 O9 2.335698 1_555
Fe11 O26 2.018119 1_555
Fe11 O20 2.120722 1_555
Fe11 O18 2.228282 1_555
Fe11 O4 2.238399 1_555
Fe11 O22 2.307606 1_555
Fe11 O8 2.335698 1_555
Fe12 O25 2.018119 1_555
Fe12 O23 2.120722 1_556
Fe12 O17 2.228282 1_555
Fe12 O3 2.238399 1_555
Fe12 O21 2.307606 1_555
Fe12 O7 2.335698 1_555
Fe13 O24 2.018119 1_555
Fe13 O22 2.120722 1_555
Fe13 O16 2.228282 1_555
Fe13 O2 2.238399 1_555
Fe13 O20 2.307606 1_555
Fe13 O6 2.335698 1_555
Fe14 O1 1.963459 1_655
Fe14 O25 2.089608 1_555
Fe14 O11 2.103321 1_555
Fe14 O17 2.171617 1_655
Fe14 O3 2.182560 1_665
Fe14 O21 2.417089 1_555
Fe15 O0 1.963459 1_455
Fe15 O24 2.089608 1_555
Fe15 O10 2.103321 1_555
Fe15 O16 2.171617 1_455
Fe15 O2 2.182560 1_445
Fe15 O20 2.417089 1_555
Fe16 O0 1.963459 1_455
Fe16 O27 2.089608 1_555
Fe16 O13 2.103321 1_555
Fe16 O19 2.171617 1_455
Fe16 O5 2.182560 1_445
Fe16 O23 2.417089 1_555
Fe17 O1 1.963459 1_655
Fe17 O26 2.089608 1_555
Fe17 O12 2.103321 1_555
Fe17 O18 2.171617 1_655
Fe17 O4 2.182560 1_665
Fe17 O22 2.417089 1_555
Fe18 O19 2.117284 1_455
Fe18 O17 2.117284 1_554
Fe18 O9 2.173843 1_555
Fe18 O7 2.173843 1_454
Fe18 O21 2.196562 1_454
Fe18 O23 2.196562 1_555
Fe19 O18 2.117284 1_555
Fe19 O16 2.117284 1_455
Fe19 O6 2.173843 1_555
Fe19 O8 2.173843 1_455
Fe19 O20 2.196562 1_555
Fe19 O22 2.196562 1_455
