# generated using pymatgen
data_Rb2PrH8N5O19
_symmetry_space_group_name_H-M   'P 1'
_cell_length_a   7.19575808
_cell_length_b   7.19575808
_cell_length_c   18.52709917
_cell_angle_alpha   80.94478580
_cell_angle_beta   80.94478580
_cell_angle_gamma   78.07156839
_symmetry_Int_Tables_number   1
_chemical_formula_structural   Rb2PrH8N5O19
_chemical_formula_sum   'Rb4 Pr2 H16 N10 O38'
_cell_volume   919.12948321
_cell_formula_units_Z   2
loop_
 _symmetry_equiv_pos_site_id
 _symmetry_equiv_pos_as_xyz
  1  'x, y, z'
loop_
 _atom_site_type_symbol
 _atom_site_label
 _atom_site_symmetry_multiplicity
 _atom_site_fract_x
 _atom_site_fract_y
 _atom_site_fract_z
 _atom_site_occupancy
  Rb  Rb0  1  0.05357000  0.86758500  0.62264000  1
  Rb  Rb1  1  0.86758500  0.05357000  0.12264000  1
  Rb  Rb2  1  0.64315600  0.45617500  0.57054800  1
  Rb  Rb3  1  0.45617500  0.64315600  0.07054800  1
  Pr  Pr0  1  0.30527600  0.20036700  0.39864400  1
  Pr  Pr1  1  0.20036700  0.30527600  0.89864400  1
  H  H0  1  0.10076000  0.83395800  0.42111200  1
  H  H1  1  0.83395800  0.10076000  0.92111200  1
  H  H2  1  0.93353900  0.00559600  0.43871600  1
  H  H3  1  0.00559600  0.93353900  0.93871600  1
  H  H4  1  0.67227200  0.40531600  0.37284600  1
  H  H5  1  0.40531600  0.67227200  0.87284600  1
  H  H6  1  0.50285300  0.57753500  0.35833200  1
  H  H7  1  0.57753500  0.50285300  0.85833200  1
  H  H8  1  0.78162300  0.47875700  0.18126300  1
  H  H9  1  0.47875700  0.78162300  0.68126300  1
  H  H10  1  0.62495500  0.37880100  0.23007000  1
  H  H11  1  0.37880100  0.62495500  0.73007000  1
  H  H12  1  0.23252000  0.88892700  0.20889700  1
  H  H13  1  0.88892700  0.23252000  0.70889700  1
  H  H14  1  0.19227000  0.67947700  0.22495900  1
  H  H15  1  0.67947700  0.19227000  0.72495900  1
  N  N0  1  0.95466700  0.54010200  0.40208800  1
  N  N1  1  0.54010200  0.95466700  0.90208800  1
  N  N2  1  0.91741200  0.56763400  0.79963000  1
  N  N3  1  0.56763400  0.91741200  0.29963000  1
  N  N4  1  0.36286400  0.15639700  0.05093300  1
  N  N5  1  0.15639700  0.36286400  0.55093300  1
  N  N6  1  0.29790700  0.17773500  0.74227100  1
  N  N7  1  0.17773500  0.29790700  0.24227100  1
  N  N8  1  0.96504100  0.58161200  0.00855100  1
  N  N9  1  0.58161200  0.96504100  0.50855100  1
  O  O0  1  0.81167300  0.66454500  0.41599900  1
  O  O1  1  0.66454500  0.81167300  0.91599900  1
  O  O2  1  0.56641000  0.12433200  0.90458100  1
  O  O3  1  0.12433200  0.56641000  0.40458100  1
  O  O4  1  0.37699400  0.93932600  0.88604200  1
  O  O5  1  0.93932600  0.37699400  0.38604200  1
  O  O6  1  0.81595100  0.66231900  0.75359300  1
  O  O7  1  0.66231900  0.81595100  0.25359300  1
  O  O8  1  0.09472500  0.57706100  0.79592700  1
  O  O9  1  0.57706100  0.09472500  0.29592700  1
  O  O10  1  0.85145300  0.45314400  0.85360000  1
  O  O11  1  0.45314400  0.85145300  0.35360000  1
  O  O12  1  0.45737700  0.08483500  0.10263800  1
  O  O13  1  0.08483500  0.45737700  0.60263800  1
  O  O14  1  0.26177400  0.05960600  0.02587700  1
  O  O15  1  0.05960600  0.26177400  0.52587700  1
  O  O16  1  0.36385600  0.32695800  0.01922900  1
  O  O17  1  0.32695800  0.36385600  0.51922900  1
  O  O18  1  0.34311300  0.11202800  0.68255900  1
  O  O19  1  0.11202800  0.34311300  0.18255900  1
  O  O20  1  0.13268800  0.17729100  0.77971400  1
  O  O21  1  0.17729100  0.13268800  0.27971400  1
  O  O22  1  0.41624100  0.24922300  0.77006400  1
  O  O23  1  0.24922300  0.41624100  0.27006400  1
  O  O24  1  0.87710300  0.68345200  0.05611300  1
  O  O25  1  0.68345200  0.87710300  0.55611300  1
  O  O26  1  0.94229700  0.40947200  0.01019300  1
  O  O27  1  0.40947200  0.94229700  0.51019300  1
  O  O28  1  0.08272000  0.64488000  0.95549700  1
  O  O29  1  0.64488000  0.08272000  0.45549700  1
  O  O30  1  0.07288500  0.96195000  0.43734300  1
  O  O31  1  0.96195000  0.07288500  0.93734300  1
  O  O32  1  0.53824400  0.43639500  0.36267700  1
  O  O33  1  0.43639500  0.53824400  0.86267700  1
  O  O34  1  0.67671800  0.41427400  0.17890300  1
  O  O35  1  0.41427400  0.67671800  0.67890300  1
  O  O36  1  0.18354400  0.79470200  0.18826900  1
  O  O37  1  0.79470200  0.18354400  0.68826900  1
loop_
_geom_bond_atom_site_label_1
_geom_bond_atom_site_label_2
_geom_bond_distance
_geom_bond_site_symmetry_2
H0 O30 0.985255 1_555
H1 O31 0.985255 1_555
H2 O30 0.984378 1_645
H3 O31 0.984378 1_465
H4 O32 0.985095 1_555
H5 O33 0.985095 1_555
H6 O32 0.988230 1_555
H7 O33 0.988230 1_555
H8 O34 0.973966 1_555
H9 O35 0.973966 1_555
H10 O34 0.977006 1_555
H11 O35 0.977006 1_555
H12 O36 0.976067 1_555
H13 O37 0.976067 1_555
H14 O36 0.983859 1_555
H15 O37 0.983859 1_555
N0 O0 1.239074 1_555
N0 O3 1.282393 1_655
N0 O5 1.285232 1_555
N1 O1 1.239074 1_555
N1 O2 1.282393 1_565
N1 O4 1.285232 1_555
N2 O6 1.237819 1_555
N2 O8 1.282183 1_655
N2 O10 1.287150 1_555
N3 O7 1.237819 1_555
N3 O9 1.282183 1_565
N3 O11 1.287150 1_555
N4 O12 1.245142 1_555
N4 O16 1.275443 1_555
N4 O14 1.283441 1_555
N5 O13 1.245142 1_555
N5 O17 1.275443 1_555
N5 O15 1.283441 1_555
N6 O18 1.241385 1_555
N6 O20 1.279038 1_555
N6 O22 1.287355 1_555
N7 O19 1.241385 1_555
N7 O21 1.279038 1_555
N7 O23 1.287355 1_555
N8 O24 1.244981 1_555
N8 O26 1.277656 1_555
N8 O28 1.283349 1_654
N9 O25 1.244981 1_555
N9 O27 1.277656 1_555
N9 O29 1.283349 1_565
O0 Rb2 3.197588 1_555
O1 Rb3 3.197588 1_556
O2 Pr1 2.696951 1_555
O3 Pr0 2.696951 1_555
O4 Pr1 2.705676 1_565
O5 Pr0 2.705676 1_655
O6 Rb0 3.098673 1_655
O7 Rb1 3.098673 1_565
O8 Pr1 2.587181 1_555
O9 Pr0 2.587181 1_555
O10 Pr1 2.721749 1_655
O11 Pr0 2.721749 1_565
O12 Rb1 2.990715 1_555
O12 Rb3 3.326013 1_545
O13 Rb0 2.990715 1_555
O13 Rb2 3.326013 1_455
O14 Pr1 2.751407 1_554
O14 Rb3 3.077778 1_545
O14 Rb1 3.112433 1_455
O15 Pr0 2.751407 1_555
O15 Rb2 3.077778 1_455
O15 Rb0 3.112433 1_545
O16 Pr1 2.722567 1_554
O16 Rb3 2.833163 1_555
O17 Pr0 2.722567 1_555
O17 Rb2 2.833163 1_555
O18 Rb0 3.394820 1_545
O19 Rb1 3.394820 1_455
O20 Pr1 2.665021 1_555
O21 Pr0 2.665021 1_555
O22 Pr1 2.670066 1_555
O23 Pr0 2.670066 1_555
O24 Rb3 3.068139 1_555
O24 Rb1 3.090023 1_565
O25 Rb2 3.068139 1_555
O25 Rb0 3.090023 1_655
O26 Pr1 2.643094 1_654
O26 Rb1 3.118502 1_555
O27 Pr0 2.643094 1_565
O27 Rb0 3.118502 1_555
O28 Pr1 2.733537 1_555
O29 Pr0 2.733537 1_555
O30 Pr0 2.583604 1_565
O30 Rb0 3.379504 1_555
O31 Pr1 2.583604 1_655
O31 Rb1 3.379504 1_556
O32 Pr0 2.570593 1_555
O33 Pr1 2.570593 1_555
O34 Rb3 2.853546 1_555
O34 Rb1 2.938893 1_555
O35 Rb2 2.853546 1_555
O35 Rb0 2.938893 1_555
O36 Rb3 2.883079 1_555
O36 Rb1 2.919576 1_465
O37 Rb2 2.883079 1_555
O37 Rb0 2.919576 1_645
