# generated using pymatgen
data_NdZnSn
_symmetry_space_group_name_H-M   'P 1'
_cell_length_a   4.85931951
_cell_length_b   4.85931951
_cell_length_c   7.41988200
_cell_angle_alpha   90.00000000
_cell_angle_beta   90.00000000
_cell_angle_gamma   119.99999334
_symmetry_Int_Tables_number   1
_chemical_formula_structural   NdZnSn
_chemical_formula_sum   'Nd2 Zn2 Sn2'
_cell_volume   151.73248519
_cell_formula_units_Z   2
loop_
 _symmetry_equiv_pos_site_id
 _symmetry_equiv_pos_as_xyz
  1  'x, y, z'
loop_
 _atom_site_type_symbol
 _atom_site_label
 _atom_site_symmetry_multiplicity
 _atom_site_fract_x
 _atom_site_fract_y
 _atom_site_fract_z
 _atom_site_occupancy
  Nd  Nd0  1  0.00000000  0.00000000  0.23321900  1
  Nd  Nd1  1  0.00000000  0.00000000  0.76678100  1
  Zn  Zn0  1  0.33333300  0.66666700  0.00639600  1
  Zn  Zn1  1  0.66666700  0.33333300  0.99360400  1
  Sn  Sn0  1  0.66666700  0.33333300  0.53180500  1
  Sn  Sn1  1  0.33333300  0.66666700  0.46819500  1
loop_
_geom_bond_atom_site_label_1
_geom_bond_atom_site_label_2
_geom_bond_distance
_geom_bond_site_symmetry_2
Nd0 Zn0 3.271615 1_545
Nd0 Zn0 3.271619 1_445
Nd0 Zn0 3.271619 1_555
Nd0 Sn1 3.303143 1_545
Nd0 Sn1 3.303146 1_445
Nd0 Sn1 3.303146 1_555
Nd0 Zn1 3.321440 1_454
Nd0 Zn1 3.321443 1_444
Nd0 Zn1 3.321443 1_554
Nd0 Nd1 3.460915 1_554
Nd0 Sn0 3.574815 1_455
Nd0 Sn0 3.574818 1_445
Nd0 Sn0 3.574818 1_555
Nd0 Nd1 3.958967 1_555
Nd1 Zn1 3.271615 1_455
Nd1 Zn1 3.271619 1_555
Nd1 Zn1 3.271619 1_445
Nd1 Sn0 3.303143 1_455
Nd1 Sn0 3.303146 1_445
Nd1 Sn0 3.303146 1_555
Nd1 Zn0 3.321440 1_546
Nd1 Zn0 3.321443 1_446
Nd1 Zn0 3.321443 1_556
Nd1 Sn1 3.574815 1_545
Nd1 Sn1 3.574818 1_445
Nd1 Sn1 3.574818 1_555
Zn0 Zn1 2.807132 1_454
Zn0 Zn1 2.807132 1_564
Zn0 Zn1 2.807140 1_554
Sn0 Sn1 2.844951 1_545
Sn0 Sn1 2.844951 1_655
Sn0 Sn1 2.844959 1_555
