# generated using pymatgen
data_PtC8(NCl3)2
_symmetry_space_group_name_H-M   'P 1'
_cell_length_a   7.67338844
_cell_length_b   7.67338844
_cell_length_c   7.67338844
_cell_angle_alpha   60.00000000
_cell_angle_beta   60.00000000
_cell_angle_gamma   60.00000000
_symmetry_Int_Tables_number   1
_chemical_formula_structural   PtC8(NCl3)2
_chemical_formula_sum   'Pt1 C8 N2 Cl6'
_cell_volume   319.48211620
_cell_formula_units_Z   1
loop_
 _symmetry_equiv_pos_site_id
 _symmetry_equiv_pos_as_xyz
  1  'x, y, z'
loop_
 _atom_site_type_symbol
 _atom_site_label
 _atom_site_symmetry_multiplicity
 _atom_site_fract_x
 _atom_site_fract_y
 _atom_site_fract_z
 _atom_site_occupancy
  Pt  Pt0  1  0.00000000  0.00000000  0.00000000  1
  C  C0  1  0.67322900  0.67322900  0.98031300  1
  C  C1  1  0.67322900  0.98031300  0.67322900  1
  C  C2  1  0.98031300  0.67322900  0.67322900  1
  C  C3  1  0.67322900  0.67322900  0.67322900  1
  C  C4  1  0.32677100  0.32677100  0.01968700  1
  C  C5  1  0.32677100  0.01968700  0.32677100  1
  C  C6  1  0.01968700  0.32677100  0.32677100  1
  C  C7  1  0.32677100  0.32677100  0.32677100  1
  N  N0  1  0.75000000  0.75000000  0.75000000  1
  N  N1  1  0.25000000  0.25000000  0.25000000  1
  Cl  Cl0  1  0.78487400  0.78487400  0.21512600  1
  Cl  Cl1  1  0.21512600  0.78487400  0.21512600  1
  Cl  Cl2  1  0.78487400  0.21512600  0.21512600  1
  Cl  Cl3  1  0.21512600  0.21512600  0.78487400  1
  Cl  Cl4  1  0.78487400  0.21512600  0.78487400  1
  Cl  Cl5  1  0.21512600  0.78487400  0.78487400  1
loop_
_geom_bond_atom_site_label_1
_geom_bond_atom_site_label_2
_geom_bond_distance
_geom_bond_site_symmetry_2
C0 N0 1.442979 1_555
C1 N0 1.442979 1_555
C2 N0 1.442979 1_555
C3 N0 1.442979 1_555
C4 N1 1.442979 1_555
C5 N1 1.442979 1_555
C6 N1 1.442979 1_555
C7 N1 1.442979 1_555
Cl0 Pt0 2.334506 1_665
Cl1 Pt0 2.334506 1_565
Cl2 Pt0 2.334506 1_655
Cl3 Pt0 2.334506 1_556
Cl4 Pt0 2.334506 1_656
Cl5 Pt0 2.334506 1_566
