# generated using pymatgen
data_Sr2LiGe3
_symmetry_space_group_name_H-M   'P 1'
_cell_length_a   4.63608100
_cell_length_b   11.18236000
_cell_length_c   11.91317000
_cell_angle_alpha   90.00000000
_cell_angle_beta   90.00000000
_cell_angle_gamma   90.00000000
_symmetry_Int_Tables_number   1
_chemical_formula_structural   Sr2LiGe3
_chemical_formula_sum   'Sr8 Li4 Ge12'
_cell_volume   617.60645154
_cell_formula_units_Z   4
loop_
 _symmetry_equiv_pos_site_id
 _symmetry_equiv_pos_as_xyz
  1  'x, y, z'
loop_
 _atom_site_type_symbol
 _atom_site_label
 _atom_site_symmetry_multiplicity
 _atom_site_fract_x
 _atom_site_fract_y
 _atom_site_fract_z
 _atom_site_occupancy
  Sr  Sr0  1  0.50000000  0.54976500  0.84904600  1
  Sr  Sr1  1  0.50000000  0.45023500  0.15095400  1
  Sr  Sr2  1  0.00000000  0.04976500  0.65095400  1
  Sr  Sr3  1  0.00000000  0.95023500  0.34904600  1
  Sr  Sr4  1  0.50000000  0.82140200  0.07291200  1
  Sr  Sr5  1  0.50000000  0.17859800  0.92708800  1
  Sr  Sr6  1  0.00000000  0.32140200  0.42708800  1
  Sr  Sr7  1  0.00000000  0.67859800  0.57291200  1
  Li  Li0  1  0.50000000  0.13923300  0.21515900  1
  Li  Li1  1  0.50000000  0.86076700  0.78484100  1
  Li  Li2  1  0.00000000  0.63923300  0.28484100  1
  Li  Li3  1  0.00000000  0.36076700  0.71515900  1
  Ge  Ge0  1  0.50000000  0.53232300  0.39946600  1
  Ge  Ge1  1  0.50000000  0.46767700  0.60053400  1
  Ge  Ge2  1  0.00000000  0.03232300  0.10053400  1
  Ge  Ge3  1  0.00000000  0.96767700  0.89946600  1
  Ge  Ge4  1  0.50000000  0.75420700  0.36320400  1
  Ge  Ge5  1  0.50000000  0.24579300  0.63679600  1
  Ge  Ge6  1  0.00000000  0.25420700  0.13679600  1
  Ge  Ge7  1  0.00000000  0.74579300  0.86320400  1
  Ge  Ge8  1  0.50000000  0.11009500  0.45774200  1
  Ge  Ge9  1  0.50000000  0.88990500  0.54225800  1
  Ge  Ge10  1  0.00000000  0.61009500  0.04225800  1
  Ge  Ge11  1  0.00000000  0.38990500  0.95774200  1
loop_
_geom_bond_atom_site_label_1
_geom_bond_atom_site_label_2
_geom_bond_distance
_geom_bond_site_symmetry_2
Li0 Sr5 3.459955 1_554
Li1 Sr4 3.459955 1_556
Li2 Sr7 3.459955 1_555
Li3 Sr6 3.459955 1_555
Ge0 Ge1 2.502062 1_555
Ge0 Ge4 2.518513 1_555
Ge0 Li2 2.944022 1_555
Ge0 Li2 2.944022 1_655
Ge0 Sr1 3.099606 1_555
Ge0 Sr6 3.323336 1_555
Ge0 Sr6 3.323336 1_655
Ge0 Sr7 3.509756 1_555
Ge0 Sr7 3.509756 1_655
Ge1 Ge5 2.518513 1_555
Ge1 Li3 2.944022 1_555
Ge1 Li3 2.944022 1_655
Ge1 Sr0 3.099606 1_555
Ge1 Sr7 3.323336 1_555
Ge1 Sr7 3.323336 1_655
Ge1 Sr6 3.509756 1_655
Ge1 Sr6 3.509756 1_555
Ge2 Ge3 2.502062 1_544
Ge2 Ge6 2.518513 1_555
Ge2 Li0 2.944022 1_555
Ge2 Li0 2.944022 1_455
Ge2 Sr3 3.099606 1_545
Ge2 Sr4 3.323336 1_545
Ge2 Sr4 3.323336 1_445
Ge2 Sr5 3.509756 1_454
Ge2 Sr5 3.509756 1_554
Ge3 Ge7 2.518513 1_555
Ge3 Li1 2.944022 1_455
Ge3 Li1 2.944022 1_555
Ge3 Sr2 3.099606 1_565
Ge3 Sr5 3.323336 1_565
Ge3 Sr5 3.323336 1_465
Ge3 Sr4 3.509756 1_556
Ge3 Sr4 3.509756 1_456
Ge4 Ge9 2.617765 1_555
Ge4 Li2 2.810303 1_555
Ge4 Li2 2.810303 1_655
Ge4 Sr3 3.194819 1_655
Ge4 Sr3 3.194819 1_555
Ge4 Sr7 3.511353 1_555
Ge4 Sr7 3.511353 1_655
Ge4 Sr4 3.538986 1_555
Ge5 Ge8 2.617765 1_555
Ge5 Li3 2.810303 1_555
Ge5 Li3 2.810303 1_655
Ge5 Sr2 3.194819 1_555
Ge5 Sr2 3.194819 1_655
Ge5 Sr6 3.511353 1_555
Ge5 Sr6 3.511353 1_655
Ge5 Sr5 3.538986 1_555
Ge6 Li0 2.810303 1_455
Ge6 Li0 2.810303 1_555
Ge6 Sr1 3.194819 1_455
Ge6 Sr1 3.194819 1_555
Ge6 Sr5 3.511353 1_454
Ge6 Sr5 3.511353 1_554
Ge6 Sr6 3.538986 1_555
Ge7 Li1 2.810303 1_455
Ge7 Li1 2.810303 1_555
Ge7 Sr0 3.194819 1_555
Ge7 Sr0 3.194819 1_455
Ge7 Sr4 3.511353 1_456
Ge7 Sr4 3.511353 1_556
Ge7 Sr7 3.538986 1_555
Ge8 Ge9 2.660150 1_545
Ge8 Li0 2.908243 1_555
Ge8 Sr3 3.200886 1_645
Ge8 Sr3 3.200886 1_545
Ge8 Sr6 3.330168 1_555
Ge8 Sr6 3.330168 1_655
Ge8 Sr2 3.335652 1_555
Ge8 Sr2 3.335652 1_655
Ge9 Li1 2.908243 1_555
Ge9 Sr2 3.200886 1_565
Ge9 Sr2 3.200886 1_665
Ge9 Sr7 3.330168 1_555
Ge9 Sr7 3.330168 1_655
Ge9 Sr3 3.335652 1_555
Ge9 Sr3 3.335652 1_655
Ge10 Ge7 2.617765 1_554
Ge10 Ge11 2.660150 1_554
Ge10 Li2 2.908243 1_555
Ge10 Sr1 3.200886 1_455
Ge10 Sr1 3.200886 1_555
Ge10 Sr4 3.330168 1_455
Ge10 Sr4 3.330168 1_555
Ge10 Sr0 3.335652 1_454
Ge10 Sr0 3.335652 1_554
Ge11 Ge6 2.617765 1_556
Ge11 Li3 2.908243 1_555
Ge11 Sr0 3.200886 1_455
Ge11 Sr0 3.200886 1_555
Ge11 Sr5 3.330168 1_455
Ge11 Sr5 3.330168 1_555
Ge11 Sr1 3.335652 1_456
Ge11 Sr1 3.335652 1_556
