# generated using pymatgen
data_Sr4MgMn2Ga2O11
_symmetry_space_group_name_H-M   'P 1'
_cell_length_a   5.88393684
_cell_length_b   5.93702490
_cell_length_c   8.74181124
_cell_angle_alpha   75.22085458
_cell_angle_beta   72.40044418
_cell_angle_gamma   99.93316320
_symmetry_Int_Tables_number   1
_chemical_formula_structural   Sr4MgMn2Ga2O11
_chemical_formula_sum   'Sr4 Mg1 Mn2 Ga2 O11'
_cell_volume   270.93414942
_cell_formula_units_Z   1
loop_
 _symmetry_equiv_pos_site_id
 _symmetry_equiv_pos_as_xyz
  1  'x, y, z'
loop_
 _atom_site_type_symbol
 _atom_site_label
 _atom_site_symmetry_multiplicity
 _atom_site_fract_x
 _atom_site_fract_y
 _atom_site_fract_z
 _atom_site_occupancy
  Sr  Sr0  1  0.11761900  0.62049800  0.75563500  1
  Sr  Sr1  1  0.60365600  0.10789200  0.75557100  1
  Sr  Sr2  1  0.40496600  0.80617200  0.28415400  1
  Sr  Sr3  1  0.79938600  0.45702400  0.23568800  1
  Mg  Mg0  1  0.07081700  0.10813300  0.26491700  1
  Mn  Mn0  1  0.22532200  0.24532300  0.51898000  1
  Mn  Mn1  1  0.76683900  0.71169200  0.52926600  1
  Ga  Ga0  1  0.49539200  0.49012500  0.99232100  1
  Ga  Ga1  1  0.96739900  0.04850200  0.98551600  1
  O  O0  1  0.16265900  0.08795500  0.75955300  1
  O  O1  1  0.54800700  0.68014900  0.76990900  1
  O  O2  1  0.33626300  0.36348900  0.26894200  1
  O  O3  1  0.08704900  0.86496200  0.14540100  1
  O  O4  1  0.70418700  0.00890400  0.40193400  1
  O  O5  1  0.95080600  0.45584300  0.54988400  1
  O  O6  1  0.08513200  0.93293000  0.49896200  1
  O  O7  1  0.49747900  0.50355300  0.49863100  1
  O  O8  1  0.70322200  0.26555500  0.97959400  1
  O  O9  1  0.69977500  0.76533400  0.02554100  1
  O  O10  1  0.14307500  0.34501200  0.02960300  1
loop_
_geom_bond_atom_site_label_1
_geom_bond_atom_site_label_2
_geom_bond_distance
_geom_bond_site_symmetry_2
Mg0 O3 1.985393 1_545
Mg0 O2 1.995651 1_555
Mg0 O4 2.018508 1_455
Mg0 O10 2.044263 1_555
Mg0 O6 2.079366 1_545
Mn0 O7 1.946288 1_555
Mn0 O0 1.959961 1_555
Mn0 O6 1.968746 1_545
Mn0 O2 1.973011 1_555
Mn0 O5 2.202045 1_455
Mn1 O7 1.964808 1_555
Mn1 O4 1.989735 1_565
Mn1 O6 1.994158 1_655
Mn1 O5 2.014211 1_555
Mn1 O1 2.048454 1_555
Ga0 O1 1.882891 1_555
Ga0 O8 1.959920 1_555
Ga0 O9 1.993892 1_556
Ga0 O10 1.994459 1_556
Ga0 O2 2.179418 1_556
Ga1 O0 1.890887 1_655
Ga1 O3 1.928533 1_646
Ga1 O9 1.970226 1_546
Ga1 O10 2.067663 1_656
Ga1 O8 2.187497 1_555
O0 Sr1 2.566226 1_555
O0 Sr0 2.752083 1_545
O1 Sr1 2.469413 1_565
O1 Sr0 2.541288 1_555
O2 Sr3 2.595183 1_555
O2 Sr2 2.633043 1_555
O3 Sr3 2.481171 1_455
O3 Sr2 2.544325 1_555
O4 Sr3 2.554413 1_555
O4 Sr2 2.570192 1_545
O5 Sr1 2.470019 1_555
O5 Sr0 2.605321 1_655
O5 Sr2 2.954104 1_655
O5 Sr3 3.132097 1_555
O6 Sr2 2.589712 1_555
O6 Sr0 2.601943 1_555
O7 Sr2 2.505109 1_555
O7 Sr3 2.557242 1_555
O7 Sr0 2.969809 1_555
O7 Sr1 3.101030 1_555
O8 Sr1 2.548420 1_555
O8 Sr0 2.730321 1_655
O8 Sr3 2.909767 1_556
O8 Sr2 3.070065 1_546
O9 Sr2 2.496397 1_555
O9 Sr3 2.524780 1_555
O10 Sr3 2.578644 1_455
O10 Sr0 2.595456 1_554
