# generated using pymatgen
data_Pr6S3(OF4)2
_symmetry_space_group_name_H-M   'P 1'
_cell_length_a   3.91881600
_cell_length_b   13.71663400
_cell_length_c   13.81659384
_cell_angle_alpha   60.28748258
_cell_angle_beta   90.00000000
_cell_angle_gamma   90.00000000
_symmetry_Int_Tables_number   1
_chemical_formula_structural   Pr6S3(OF4)2
_chemical_formula_sum   'Pr12 S6 O4 F16'
_cell_volume   645.03735127
_cell_formula_units_Z   2
loop_
 _symmetry_equiv_pos_site_id
 _symmetry_equiv_pos_as_xyz
  1  'x, y, z'
loop_
 _atom_site_type_symbol
 _atom_site_label
 _atom_site_symmetry_multiplicity
 _atom_site_fract_x
 _atom_site_fract_y
 _atom_site_fract_z
 _atom_site_occupancy
  Pr  Pr0  1  0.50000000  0.38842900  0.13843800  1
  Pr  Pr1  1  0.50000000  0.47342800  0.39642900  1
  Pr  Pr2  1  0.50000000  0.13783200  0.47634600  1
  Pr  Pr3  1  0.00000000  0.60197700  0.86032000  1
  Pr  Pr4  1  0.00000000  0.52482500  0.60183800  1
  Pr  Pr5  1  0.00000000  0.85755000  0.53639600  1
  Pr  Pr6  1  0.50000000  0.05506200  0.22700500  1
  Pr  Pr7  1  0.50000000  0.71807100  0.05591100  1
  Pr  Pr8  1  0.50000000  0.23651200  0.71243900  1
  Pr  Pr9  1  0.00000000  0.94720300  0.76218600  1
  Pr  Pr10  1  0.00000000  0.29159200  0.94632800  1
  Pr  Pr11  1  0.00000000  0.76352500  0.29291600  1
  S  S0  1  0.50000000  0.72851300  0.47053900  1
  S  S1  1  0.50000000  0.80243600  0.72202800  1
  S  S2  1  0.50000000  0.47246900  0.81010000  1
  S  S3  1  0.00000000  0.27582600  0.53125600  1
  S  S4  1  0.00000000  0.18659900  0.28066300  1
  S  S5  1  0.00000000  0.53433600  0.18311200  1
  O  O0  1  0.50000000  0.43310700  0.58725300  1
  O  O1  1  0.00000000  0.01692400  0.56497500  1
  O  O2  1  0.00000000  0.41630000  0.02133900  1
  O  O3  1  0.00000000  0.56813500  0.41140000  1
  F  F0  1  0.50000000  0.89359800  0.20313600  1
  F  F1  1  0.50000000  0.90210100  0.89171400  1
  F  F2  1  0.50000000  0.20628400  0.90361600  1
  F  F3  1  0.00000000  0.10656600  0.79548200  1
  F  F4  1  0.00000000  0.09622300  0.10439600  1
  F  F5  1  0.00000000  0.79985200  0.09732400  1
  F  F6  1  0.50000000  0.24658200  0.07233800  1
  F  F7  1  0.50000000  0.68284200  0.24730700  1
  F  F8  1  0.50000000  0.06997400  0.68152100  1
  F  F9  1  0.00000000  0.74763800  0.92856200  1
  F  F10  1  0.00000000  0.32057400  0.75404900  1
  F  F11  1  0.00000000  0.93250400  0.32224000  1
  F  F12  1  0.50000000  0.33401900  0.33339000  1
  F  F13  1  0.00000000  0.66213700  0.66640500  1
  F  F14  1  0.50000000  0.97794900  0.43334800  1
  F  F15  1  0.50000000  0.59050800  0.97595600  1
loop_
_geom_bond_atom_site_label_1
_geom_bond_atom_site_label_2
_geom_bond_distance
_geom_bond_site_symmetry_2
Pr0 S5 3.074126 1_555
Pr0 S5 3.074126 1_655
Pr0 S4 3.157873 1_655
Pr0 S4 3.157873 1_555
Pr1 S3 3.106566 1_555
Pr1 S3 3.106566 1_655
Pr1 S5 3.283750 1_655
Pr1 S5 3.283750 1_555
Pr2 S3 3.069385 1_655
Pr2 S3 3.069385 1_555
Pr2 S4 3.131099 1_555
Pr2 S4 3.131099 1_655
Pr3 S2 2.949280 1_555
Pr3 S2 2.949280 1_455
Pr3 S1 3.137280 1_455
Pr3 S1 3.137280 1_555
Pr4 S0 3.148312 1_455
Pr4 S0 3.148312 1_555
Pr4 S2 3.253674 1_455
Pr4 S2 3.253674 1_555
Pr5 S1 3.011135 1_555
Pr5 S1 3.011135 1_455
Pr5 S0 3.065366 1_455
Pr5 S0 3.065366 1_555
Pr6 S4 2.995026 1_655
Pr6 S4 2.995026 1_555
Pr7 S5 2.981419 1_555
Pr7 S5 2.981419 1_655
Pr8 S3 3.009744 1_655
Pr8 S3 3.009744 1_555
Pr9 S1 3.030245 1_455
Pr9 S1 3.030245 1_555
Pr10 S2 2.984678 1_555
Pr10 S2 2.984678 1_455
Pr11 S0 2.987374 1_555
Pr11 S0 2.987374 1_455
O0 Pr8 2.374834 1_555
O0 Pr4 2.390381 1_555
O0 Pr4 2.390381 1_655
O0 Pr1 2.410751 1_555
O1 Pr9 2.399145 1_545
O1 Pr5 2.406352 1_545
O1 Pr2 2.464971 1_455
O1 Pr2 2.464971 1_555
O2 Pr10 2.399497 1_554
O2 Pr3 2.412296 1_554
O2 Pr0 2.447432 1_455
O2 Pr0 2.447432 1_555
O3 Pr11 2.348099 1_555
O3 Pr4 2.393041 1_555
O3 Pr1 2.415781 1_555
O3 Pr1 2.415781 1_455
F0 Pr6 2.395388 1_565
F0 Pr11 2.523358 1_555
F0 Pr11 2.523358 1_655
F1 Pr7 2.416994 1_556
F1 Pr9 2.515409 1_555
F1 Pr9 2.515409 1_655
F2 Pr8 2.462381 1_555
F2 Pr10 2.498258 1_655
F2 Pr10 2.498258 1_555
F3 Pr9 2.446784 1_545
F3 Pr8 2.511069 1_455
F3 Pr8 2.511069 1_555
F4 Pr6 2.465704 1_455
F4 Pr6 2.465704 1_555
F4 Pr10 2.479796 1_554
F5 Pr7 2.461969 1_555
F5 Pr7 2.461969 1_455
F5 Pr11 2.493288 1_555
F6 Pr6 2.429576 1_555
F6 Pr10 2.487186 1_554
F6 Pr10 2.487186 1_654
F6 Pr0 2.526093 1_555
F7 Pr7 2.441278 1_555
F7 Pr11 2.480422 1_555
F7 Pr11 2.480422 1_655
F7 Pr1 2.574742 1_555
F8 Pr9 2.461053 1_645
F8 Pr9 2.461053 1_545
F8 Pr2 2.507373 1_555
F8 Pr8 2.523496 1_555
F9 Pr7 2.528303 1_456
F9 Pr7 2.528303 1_556
F9 Pr9 2.557274 1_555
F9 Pr3 2.597762 1_555
F10 Pr8 2.481219 1_455
F10 Pr8 2.481219 1_555
F10 Pr10 2.483718 1_555
F10 Pr4 2.535994 1_555
F11 Pr6 2.490774 1_465
F11 Pr6 2.490774 1_565
F11 Pr11 2.543102 1_555
F11 Pr5 2.607015 1_555
F12 Pr0 2.412375 1_555
F12 Pr2 2.423620 1_555
F12 Pr1 2.462971 1_555
F13 Pr5 2.374522 1_555
F13 Pr3 2.380681 1_555
F13 Pr4 2.451296 1_555
F14 Pr6 2.501490 1_565
F14 Pr5 2.502580 1_655
F14 Pr5 2.502580 1_555
F14 Pr2 2.540465 1_565
F15 Pr3 2.483446 1_655
F15 Pr3 2.483446 1_555
F15 Pr7 2.489592 1_556
F15 Pr0 2.560160 1_556
