# generated using pymatgen
data_Sm2Fe17N2
_symmetry_space_group_name_H-M   'P 1'
_cell_length_a   6.49406107
_cell_length_b   6.49406107
_cell_length_c   6.53845094
_cell_angle_alpha   83.75573327
_cell_angle_beta   83.75573327
_cell_angle_gamma   83.49318368
_symmetry_Int_Tables_number   1
_chemical_formula_structural   Sm2Fe17N2
_chemical_formula_sum   'Sm2 Fe17 N2'
_cell_volume   271.04185622
_cell_formula_units_Z   1
loop_
 _symmetry_equiv_pos_site_id
 _symmetry_equiv_pos_as_xyz
  1  'x, y, z'
loop_
 _atom_site_type_symbol
 _atom_site_label
 _atom_site_symmetry_multiplicity
 _atom_site_fract_x
 _atom_site_fract_y
 _atom_site_fract_z
 _atom_site_occupancy
  Sm  Sm0  1  0.65810000  0.65810000  0.65757500  1
  Sm  Sm1  1  0.34190000  0.34190000  0.34242500  1
  Fe  Fe0  1  0.28506200  0.71493800  0.00000000  1
  Fe  Fe1  1  0.71609000  0.00031500  0.28281500  1
  Fe  Fe2  1  0.99968500  0.28391000  0.71718500  1
  Fe  Fe3  1  0.28391000  0.99968500  0.71718500  1
  Fe  Fe4  1  0.00031500  0.71609000  0.28281500  1
  Fe  Fe5  1  0.71493800  0.28506200  0.00000000  1
  Fe  Fe6  1  0.00000000  0.00000000  0.50000000  1
  Fe  Fe7  1  0.00000000  0.50000000  0.00000000  1
  Fe  Fe8  1  0.50000000  0.00000000  0.00000000  1
  Fe  Fe9  1  0.34506000  0.34506000  0.85687300  1
  Fe  Fe10  1  0.34389100  0.85353500  0.33891800  1
  Fe  Fe11  1  0.85353500  0.34389100  0.33891800  1
  Fe  Fe12  1  0.65494000  0.65494000  0.14312700  1
  Fe  Fe13  1  0.65610900  0.14646500  0.66108200  1
  Fe  Fe14  1  0.14646500  0.65610900  0.66108200  1
  Fe  Fe15  1  0.90427700  0.90427700  0.90613900  1
  Fe  Fe16  1  0.09572300  0.09572300  0.09386100  1
  N  N0  1  0.50000000  0.00000000  0.50000000  1
  N  N1  1  0.00000000  0.50000000  0.50000000  1
loop_
_geom_bond_atom_site_label_1
_geom_bond_atom_site_label_2
_geom_bond_distance
_geom_bond_site_symmetry_2
Fe0 Fe7 2.441501 1_555
Fe0 Fe8 2.441501 1_565
Fe0 Fe4 2.468792 1_555
Fe0 Fe3 2.468792 1_554
Fe0 Fe14 2.561774 1_554
Fe0 Fe10 2.561774 1_555
Fe0 Fe9 2.644768 1_554
Fe0 Fe12 2.644768 1_555
Fe0 Fe15 2.735014 1_454
Fe0 Fe16 2.735014 1_565
Fe0 Sm1 3.132880 1_555
Fe0 Sm0 3.132880 1_554
Fe1 N0 1.884764 1_555
Fe1 Fe8 2.440217 1_555
Fe1 Fe6 2.446212 1_655
Fe1 Fe5 2.468792 1_555
Fe1 Fe12 2.597850 1_545
Fe1 Fe15 2.730367 1_544
Fe1 Fe16 2.739591 1_655
Fe2 N1 1.884764 1_655
Fe2 Fe7 2.440217 1_656
Fe2 Fe6 2.446212 1_655
Fe2 Fe5 2.468792 1_556
Fe2 Fe9 2.597850 1_655
Fe3 N0 1.884764 1_565
Fe3 Fe8 2.440217 1_566
Fe3 Fe6 2.446212 1_565
Fe3 Fe9 2.597850 1_565
Fe4 N1 1.884764 1_555
Fe4 Fe7 2.440217 1_555
Fe4 Fe6 2.446212 1_565
Fe5 Fe8 2.441501 1_555
Fe5 Fe7 2.441501 1_655
Fe5 Fe9 2.644768 1_554
Fe5 Sm1 3.132880 1_555
Fe5 Sm0 3.132880 1_554
Fe6 Sm0 3.323130 1_445
Fe6 Sm1 3.323130 1_555
Fe7 Fe9 2.479355 1_554
Fe7 Sm0 3.325874 1_454
Fe7 Sm1 3.325874 1_555
Fe8 Fe9 2.479355 1_554
Fe8 Sm0 3.325874 1_544
Fe8 Sm1 3.325874 1_555
Fe9 Sm0 3.122107 1_555
Fe9 Sm1 3.170439 1_556
Fe9 Sm1 3.368293 1_555
Fe10 N0 1.926257 1_565
Fe10 Fe8 2.472737 1_565
Fe10 Fe6 2.495237 1_565
Fe10 Fe12 2.566829 1_555
Fe10 Fe16 2.660331 1_565
Fe11 N1 1.926257 1_655
Fe11 Fe7 2.472737 1_655
Fe11 Fe6 2.495237 1_655
Fe11 Fe5 2.561774 1_555
Fe11 Fe12 2.566829 1_555
Fe11 Fe16 2.660331 1_655
Fe12 Fe8 2.479355 1_565
Fe12 Fe7 2.479355 1_655
Fe12 Fe4 2.597850 1_655
Fe12 Fe5 2.644768 1_555
Fe12 Fe15 2.673455 1_554
Fe12 Sm1 3.122107 1_555
Fe12 Sm0 3.170439 1_554
Fe12 Sm0 3.368293 1_555
Fe13 N0 1.926257 1_555
Fe13 Fe8 2.472737 1_556
Fe13 Fe6 2.495237 1_655
Fe13 Fe5 2.561774 1_556
Fe13 Fe9 2.566829 1_555
Fe13 Fe15 2.660331 1_545
Fe14 N1 1.926257 1_555
Fe14 Fe7 2.472737 1_556
Fe14 Fe6 2.495237 1_565
Fe14 Fe9 2.566829 1_555
Fe14 Fe15 2.660331 1_455
Fe15 Fe16 2.369003 1_666
Fe15 Fe7 2.649224 1_656
Fe15 Fe8 2.649224 1_566
Fe15 Fe6 2.682168 1_665
Fe15 Fe4 2.730367 1_656
Fe15 Fe5 2.735014 1_566
Fe15 Fe3 2.739591 1_655
Fe15 Fe2 2.739591 1_565
Fe15 Sm0 3.076138 1_555
Fe16 Fe8 2.649224 1_555
Fe16 Fe7 2.649224 1_555
Fe16 Fe9 2.673455 1_554
Fe16 Fe6 2.682168 1_555
Fe16 Fe2 2.730367 1_454
Fe16 Fe3 2.730367 1_544
Fe16 Fe5 2.735014 1_455
Fe16 Fe4 2.739591 1_545
Fe16 Sm1 3.076138 1_555
N0 Sm0 2.502256 1_545
N0 Sm1 2.502256 1_555
N1 Sm0 2.502256 1_455
N1 Sm1 2.502256 1_555
