# generated using pymatgen
data_Li4MnCo2O7
_symmetry_space_group_name_H-M   'P 1'
_cell_length_a   7.79813629
_cell_length_b   7.79813629
_cell_length_c   12.91930622
_cell_angle_alpha   61.91757307
_cell_angle_beta   61.91757307
_cell_angle_gamma   21.45000224
_symmetry_Int_Tables_number   1
_chemical_formula_structural   Li4MnCo2O7
_chemical_formula_sum   'Li8 Mn2 Co4 O14'
_cell_volume   252.17733021
_cell_formula_units_Z   2
loop_
 _symmetry_equiv_pos_site_id
 _symmetry_equiv_pos_as_xyz
  1  'x, y, z'
loop_
 _atom_site_type_symbol
 _atom_site_label
 _atom_site_symmetry_multiplicity
 _atom_site_fract_x
 _atom_site_fract_y
 _atom_site_fract_z
 _atom_site_occupancy
  Li  Li0  1  0.64202500  0.64202500  0.79063600  1
  Li  Li1  1  0.93472300  0.93472300  0.34260000  1
  Li  Li2  1  0.21155300  0.21155300  0.94278500  1
  Li  Li3  1  0.06778500  0.06778500  0.64297800  1
  Li  Li4  1  0.36153400  0.36153400  0.21060900  1
  Li  Li5  1  0.50752400  0.50752400  0.49270400  1
  Li  Li6  1  0.78090000  0.78090000  0.07529200  1
  Li  Li7  1  0.56859200  0.56859200  0.14361900  1
  Mn  Mn0  1  0.00025700  0.00025700  0.00776600  1
  Mn  Mn1  1  0.28606000  0.28606000  0.57157600  1
  Co  Co0  1  0.85826800  0.85826800  0.71700800  1
  Co  Co1  1  0.14124700  0.14124700  0.26731200  1
  Co  Co2  1  0.42966800  0.42966800  0.85733700  1
  Co  Co3  1  0.71059000  0.71059000  0.42386700  1
  O  O0  1  0.59523200  0.59523200  0.96822300  1
  O  O1  1  0.88044000  0.88044000  0.54194400  1
  O  O2  1  0.17977900  0.17977900  0.11246300  1
  O  O3  1  0.02707900  0.02707900  0.83361300  1
  O  O4  1  0.31174900  0.31174900  0.40698400  1
  O  O5  1  0.46076800  0.46076800  0.68459600  1
  O  O6  1  0.73894300  0.73894300  0.25855800  1
  O  O7  1  0.69093200  0.69093200  0.60291100  1
  O  O8  1  0.96473600  0.96473600  0.16465600  1
  O  O9  1  0.25677800  0.25677800  0.73684900  1
  O  O10  1  0.11536400  0.11536400  0.46397400  1
  O  O11  1  0.40607100  0.40607100  0.02942500  1
  O  O12  1  0.54228600  0.54228600  0.32062800  1
  O  O13  1  0.82911600  0.82911600  0.88908400  1
loop_
_geom_bond_atom_site_label_1
_geom_bond_atom_site_label_2
_geom_bond_distance
_geom_bond_site_symmetry_2
Li0 O0 2.049776 1_555
Li0 O9 2.123706 1_655
Li0 O9 2.123706 1_565
Li0 O3 2.140023 1_565
Li0 O3 2.140023 1_655
Li0 O7 2.168401 1_555
Li1 O12 2.110695 1_655
Li1 O12 2.110695 1_565
Li1 O8 2.117402 1_555
Li1 O4 2.201583 1_565
Li1 O4 2.201583 1_655
Li1 O1 2.296036 1_555
Li2 O2 2.004924 1_556
Li2 O13 2.152934 1_545
Li2 O13 2.152934 1_455
Li2 O0 2.197704 1_455
Li2 O0 2.197704 1_545
Li2 O9 2.406662 1_555
Li3 O5 2.058998 1_545
Li3 O5 2.058998 1_455
Li3 O10 2.064962 1_555
Li3 O3 2.232206 1_555
Li3 O7 2.235843 1_455
Li3 O7 2.235843 1_545
Li4 O8 2.014885 1_455
Li4 O8 2.014885 1_545
Li4 O11 2.101001 1_555
Li4 O6 2.214413 1_455
Li4 O6 2.214413 1_545
Li4 O4 2.272421 1_555
Li5 O12 2.022671 1_555
Li5 O10 2.094475 1_565
Li5 O10 2.094475 1_655
Li5 O5 2.226502 1_555
Li5 O1 2.261856 1_455
Li5 O1 2.261856 1_545
Li6 O2 2.006161 1_655
Li6 O2 2.006161 1_565
Li6 O6 2.135546 1_555
Li6 O13 2.151745 1_554
Li6 O11 2.246574 1_655
Li6 O11 2.246574 1_565
Li7 O8 2.073200 1_545
Li7 O8 2.073200 1_455
Li7 O0 2.101187 1_554
Li7 O12 2.123388 1_555
Li7 O2 2.124572 1_655
Li7 O2 2.124572 1_565
Mn0 O8 1.829606 1_445
Mn0 O0 1.942331 1_544
Mn0 O0 1.942331 1_454
Mn0 O11 1.969866 1_545
Mn0 O11 1.969866 1_455
Mn0 O3 2.084472 1_554
Mn1 O1 1.952862 1_545
Mn1 O1 1.952862 1_455
Mn1 O7 1.956872 1_455
Mn1 O7 1.956872 1_545
Mn1 O9 1.960206 1_555
Mn1 O4 1.968376 1_555
Co0 O5 2.029325 1_655
Co0 O5 2.029325 1_565
Co0 O13 2.046981 1_555
Co0 O9 2.051433 1_565
Co0 O9 2.051433 1_655
Co0 O1 2.120004 1_555
Co1 O2 1.794136 1_555
Co1 O12 1.969562 1_455
Co1 O12 1.969562 1_545
Co1 O6 2.048845 1_455
Co1 O6 2.048845 1_545
Co1 O10 2.376349 1_555
Co2 O3 1.997423 1_565
Co2 O3 1.997423 1_655
Co2 O13 2.010676 1_455
Co2 O13 2.010676 1_545
Co2 O5 2.046571 1_555
Co2 O11 2.074438 1_556
Co3 O10 1.944038 1_655
Co3 O10 1.944038 1_565
Co3 O6 1.964880 1_555
Co3 O4 2.057306 1_655
Co3 O4 2.057306 1_565
Co3 O7 2.184857 1_555
