# generated using pymatgen
data_HoMg(SnO3)2
_symmetry_space_group_name_H-M   'P 1'
_cell_length_a   5.49797700
_cell_length_b   5.75116400
_cell_length_c   8.11175700
_cell_angle_alpha   90.00000000
_cell_angle_beta   90.00000000
_cell_angle_gamma   90.00000000
_symmetry_Int_Tables_number   1
_chemical_formula_structural   HoMg(SnO3)2
_chemical_formula_sum   'Ho2 Mg2 Sn4 O12'
_cell_volume   256.49186951
_cell_formula_units_Z   2
loop_
 _symmetry_equiv_pos_site_id
 _symmetry_equiv_pos_as_xyz
  1  'x, y, z'
loop_
 _atom_site_type_symbol
 _atom_site_label
 _atom_site_symmetry_multiplicity
 _atom_site_fract_x
 _atom_site_fract_y
 _atom_site_fract_z
 _atom_site_occupancy
  Ho  Ho0  1  0.01839400  0.68346400  0.00000000  1
  Ho  Ho1  1  0.51839400  0.31653600  0.50000000  1
  Mg  Mg0  1  0.50134600  0.22452700  0.00000000  1
  Mg  Mg1  1  0.00134600  0.77547300  0.50000000  1
  Sn  Sn0  1  0.00237300  0.23963900  0.74956700  1
  Sn  Sn1  1  0.00237300  0.23963900  0.25043300  1
  Sn  Sn2  1  0.50237300  0.76036100  0.24956700  1
  Sn  Sn3  1  0.50237300  0.76036100  0.75043300  1
  O  O0  1  0.13719100  0.16137300  0.50000000  1
  O  O1  1  0.17317400  0.92806800  0.81780200  1
  O  O2  1  0.17317400  0.92806800  0.18219800  1
  O  O3  1  0.31544400  0.43612800  0.82615000  1
  O  O4  1  0.31544400  0.43612800  0.17385000  1
  O  O5  1  0.35679200  0.68108400  0.50000000  1
  O  O6  1  0.63719100  0.83862700  0.00000000  1
  O  O7  1  0.67317400  0.07193200  0.31780200  1
  O  O8  1  0.67317400  0.07193200  0.68219800  1
  O  O9  1  0.81544400  0.56387200  0.67385000  1
  O  O10  1  0.81544400  0.56387200  0.32615000  1
  O  O11  1  0.85679200  0.31891600  0.00000000  1
loop_
_geom_bond_atom_site_label_1
_geom_bond_atom_site_label_2
_geom_bond_distance
_geom_bond_site_symmetry_2
Ho0 O2 2.210758 1_555
Ho0 O1 2.210758 1_554
Ho0 O11 2.277067 1_455
Ho0 O6 2.277913 1_455
Ho0 O3 2.584458 1_554
Ho0 O4 2.584458 1_555
Ho0 O9 2.952552 1_454
Ho0 O10 2.952552 1_455
Ho1 O8 2.210758 1_555
Ho1 O7 2.210758 1_555
Ho1 O5 2.277067 1_555
Ho1 O0 2.277913 1_555
Ho1 O10 2.584458 1_555
Ho1 O9 2.584458 1_555
Ho1 O4 2.952552 1_555
Ho1 O3 2.952552 1_555
Mg0 O11 2.028229 1_555
Mg0 O3 2.124706 1_554
Mg0 O4 2.124706 1_555
Mg0 O6 2.341675 1_545
Mg1 O5 2.028229 1_555
Mg1 O10 2.124706 1_455
Mg1 O9 2.124706 1_455
Mg1 O0 2.341675 1_565
O0 Sn0 2.202346 1_555
O0 Sn1 2.202346 1_555
O1 Sn0 2.097402 1_565
O1 Sn3 2.122443 1_555
O2 Sn1 2.097402 1_565
O2 Sn2 2.122443 1_555
O3 Sn0 2.150729 1_555
O3 Sn3 2.215997 1_555
O4 Sn1 2.150729 1_555
O4 Sn2 2.215997 1_555
O5 Sn3 2.230541 1_555
O5 Sn2 2.230541 1_555
O6 Sn2 2.202346 1_555
O6 Sn3 2.202346 1_554
O7 Sn2 2.097402 1_545
O7 Sn1 2.122443 1_655
O8 Sn3 2.097402 1_545
O8 Sn0 2.122443 1_655
O9 Sn3 2.150729 1_555
O9 Sn0 2.215997 1_655
O10 Sn2 2.150729 1_555
O10 Sn1 2.215997 1_655
O11 Sn1 2.230541 1_655
O11 Sn0 2.230541 1_654
