# generated using pymatgen
data_Sn3IF5
_symmetry_space_group_name_H-M   'P 1'
_cell_length_a   12.99625704
_cell_length_b   4.30042396
_cell_length_c   13.81522101
_cell_angle_alpha   71.11831867
_cell_angle_beta   90.00000000
_cell_angle_gamma   90.00000000
_symmetry_Int_Tables_number   1
_chemical_formula_structural   Sn3IF5
_chemical_formula_sum   'Sn12 I4 F20'
_cell_volume   730.57572645
_cell_formula_units_Z   4
loop_
 _symmetry_equiv_pos_site_id
 _symmetry_equiv_pos_as_xyz
  1  'x, y, z'
loop_
 _atom_site_type_symbol
 _atom_site_label
 _atom_site_symmetry_multiplicity
 _atom_site_fract_x
 _atom_site_fract_y
 _atom_site_fract_z
 _atom_site_occupancy
  Sn  Sn0  1  0.65226933  0.20137527  0.87028771  1
  Sn  Sn1  1  0.34773067  0.79862473  0.12971229  1
  Sn  Sn2  1  0.15226933  0.79862473  0.62971229  1
  Sn  Sn3  1  0.84773067  0.20137527  0.37028771  1
  Sn  Sn4  1  0.37710447  0.76930976  0.85142624  1
  Sn  Sn5  1  0.62289553  0.23069024  0.14857376  1
  Sn  Sn6  1  0.87710447  0.23069024  0.64857376  1
  Sn  Sn7  1  0.12289553  0.76930976  0.35142624  1
  Sn  Sn8  1  0.10813248  0.16218955  0.89366269  1
  Sn  Sn9  1  0.89186752  0.83781045  0.10633731  1
  Sn  Sn10  1  0.60813248  0.83781045  0.60633731  1
  Sn  Sn11  1  0.39186752  0.16218955  0.39366269  1
  I  I0  1  0.37845792  0.38809098  0.62304651  1
  I  I1  1  0.62154208  0.61190902  0.37695349  1
  I  I2  1  0.87845792  0.61190902  0.87695349  1
  I  I3  1  0.12154208  0.38809098  0.12304651  1
  F  F0  1  0.11456974  0.55867220  0.51710828  1
  F  F1  1  0.88543026  0.44132780  0.48289172  1
  F  F2  1  0.61456974  0.44132780  0.98289172  1
  F  F3  1  0.38543026  0.55867220  0.01710828  1
  F  F4  1  0.27681604  0.10191784  0.89830892  1
  F  F5  1  0.72318396  0.89808216  0.10169108  1
  F  F6  1  0.77681604  0.89808216  0.60169108  1
  F  F7  1  0.22318396  0.10191784  0.39830892  1
  F  F8  1  0.10130885  0.31153838  0.72527234  1
  F  F9  1  0.89869115  0.68846162  0.27472766  1
  F  F10  1  0.60130885  0.68846162  0.77472766  1
  F  F11  1  0.39869115  0.31153838  0.22527234  1
  F  F12  1  0.16325577  0.66720492  0.83808551  1
  F  F13  1  0.83674423  0.33279508  0.16191449  1
  F  F14  1  0.66325577  0.33279508  0.66191449  1
  F  F15  1  0.33674423  0.66720492  0.33808551  1
  F  F16  1  0.48751785  0.11124481  0.87996344  1
  F  F17  1  0.51248215  0.88875519  0.12003656  1
  F  F18  1  0.98751785  0.88875519  0.62003656  1
  F  F19  1  0.01248215  0.11124481  0.37996344  1
loop_
_geom_bond_atom_site_label_1
_geom_bond_atom_site_label_2
_geom_bond_distance
_geom_bond_site_symmetry_2
I0 Sn4 3.406181 1_545
I0 Sn2 3.445558 1_555
I0 Sn10 3.523396 1_555
I1 Sn5 3.406181 1_565
I1 Sn3 3.445558 1_555
I1 Sn11 3.523396 1_555
I2 Sn6 3.406181 1_565
I2 Sn0 3.445558 1_555
I2 Sn8 3.523396 1_655
I3 Sn7 3.406181 1_545
I3 Sn1 3.445558 1_555
I3 Sn9 3.523396 1_455
F0 Sn7 2.174741 1_555
F0 Sn2 2.182634 1_555
F1 Sn6 2.174741 1_555
F1 Sn3 2.182634 1_555
F2 Sn5 2.174741 1_556
F2 Sn0 2.182634 1_555
F3 Sn4 2.174741 1_554
F3 Sn1 2.182634 1_555
F4 Sn4 2.182619 1_545
F4 Sn8 2.206018 1_555
F5 Sn5 2.182619 1_565
F5 Sn9 2.206018 1_555
F6 Sn6 2.182619 1_565
F6 Sn10 2.206018 1_555
F7 Sn7 2.182619 1_545
F7 Sn11 2.206018 1_555
F8 Sn2 2.186177 1_555
F8 Sn8 2.205726 1_555
F9 Sn3 2.186177 1_555
F9 Sn9 2.205726 1_555
F10 Sn0 2.186177 1_555
F10 Sn10 2.205726 1_555
F11 Sn1 2.186177 1_555
F11 Sn11 2.205726 1_555
F12 Sn8 2.177182 1_555
F12 Sn8 2.586834 1_565
F13 Sn9 2.177182 1_555
F13 Sn9 2.586834 1_545
F14 Sn10 2.177182 1_555
F14 Sn10 2.586834 1_545
F15 Sn11 2.177182 1_555
F15 Sn11 2.586834 1_565
F16 Sn0 2.172349 1_555
F16 Sn4 2.179915 1_545
F17 Sn1 2.172349 1_555
F17 Sn5 2.179915 1_565
F18 Sn2 2.172349 1_655
F18 Sn6 2.179915 1_565
F19 Sn3 2.172349 1_455
F19 Sn7 2.179915 1_545
