# generated using pymatgen
data_Zr5CoSb3
_symmetry_space_group_name_H-M   'P 1'
_cell_length_a   5.78751832
_cell_length_b   8.62429809
_cell_length_c   8.62430104
_cell_angle_alpha   120.00007582
_cell_angle_beta   90.00034041
_cell_angle_gamma   90.00033810
_symmetry_Int_Tables_number   1
_chemical_formula_structural   Zr5CoSb3
_chemical_formula_sum   'Zr10 Co2 Sb6'
_cell_volume   372.79522855
_cell_formula_units_Z   2
loop_
 _symmetry_equiv_pos_site_id
 _symmetry_equiv_pos_as_xyz
  1  'x, y, z'
loop_
 _atom_site_type_symbol
 _atom_site_label
 _atom_site_symmetry_multiplicity
 _atom_site_fract_x
 _atom_site_fract_y
 _atom_site_fract_z
 _atom_site_occupancy
  Zr  Zr0  1  0.75001253  0.74652658  0.74650289  1
  Zr  Zr1  1  0.24998730  0.25349681  0.25347320  1
  Zr  Zr2  1  0.75001260  -0.00002318  0.25347432  1
  Zr  Zr3  1  0.24998749  0.99997601  0.74650201  1
  Zr  Zr4  1  0.75001268  0.25349876  0.00002441  1
  Zr  Zr5  1  0.24998726  0.74652581  0.00002406  1
  Zr  Zr6  1  0.00000012  0.66666692  0.33333220  1
  Zr  Zr7  1  0.00000008  0.33333326  0.66666688  1
  Zr  Zr8  1  0.49999995  0.33333305  0.66666688  1
  Zr  Zr9  1  0.49999989  0.66666694  0.33333224  1
  Co  Co0  1  -0.00000030  0.00000035  0.00000051  1
  Co  Co1  1  0.50000044  0.00000012  0.00000042  1
  Sb  Sb0  1  0.75001124  0.39050136  0.39052250  1
  Sb  Sb1  1  0.24998944  0.60947529  0.60949733  1
  Sb  Sb2  1  0.75002688  0.00002016  0.60949322  1
  Sb  Sb3  1  0.24997293  0.00001934  0.39052666  1
  Sb  Sb4  1  0.75002641  0.60947566  -0.00001896  1
  Sb  Sb5  1  0.24997307  0.39050577  -0.00001978  1
loop_
_geom_bond_atom_site_label_1
_geom_bond_atom_site_label_2
_geom_bond_distance
_geom_bond_site_symmetry_2
Co0 Zr1 2.621511 1_555
Co0 Zr0 2.621517 1_444
Co0 Zr2 2.621540 1_455
Co0 Zr4 2.621546 1_455
Co0 Zr5 2.621546 1_545
Co0 Zr3 2.621548 1_544
Co1 Zr2 2.621606 1_555
Co1 Zr5 2.621612 1_545
Co1 Zr4 2.621613 1_555
Co1 Zr3 2.621614 1_544
Co1 Zr1 2.621622 1_555
Co1 Zr0 2.621624 1_544
Sb0 Zr4 2.959519 1_555
Sb0 Zr2 2.959665 1_555
Sb0 Zr7 3.030232 1_655
Sb0 Zr8 3.030306 1_555
Sb0 Zr6 3.030496 1_655
Sb0 Zr9 3.030569 1_555
Sb0 Zr0 3.070271 1_555
Sb0 Zr1 3.125648 1_655
Sb0 Zr1 3.125879 1_555
Sb1 Zr3 2.959536 1_555
Sb1 Zr5 2.959681 1_556
Sb1 Zr7 3.030222 1_555
Sb1 Zr8 3.030293 1_555
Sb1 Zr6 3.030501 1_555
Sb1 Zr9 3.030570 1_555
Sb1 Zr1 3.070258 1_555
Sb1 Zr0 3.125658 1_455
Sb1 Zr0 3.125879 1_555
Sb2 Zr0 2.959552 1_545
Sb2 Zr4 2.959712 1_556
Sb2 Zr7 3.030173 1_655
Sb2 Zr8 3.030339 1_555
Sb2 Zr6 3.030446 1_645
Sb2 Zr9 3.030564 1_545
Sb2 Zr2 3.070227 1_555
Sb2 Zr3 3.125560 1_645
Sb2 Zr3 3.125995 1_545
Sb3 Zr5 2.959545 1_545
Sb3 Zr1 2.959712 1_555
Sb3 Zr7 3.030200 1_555
Sb3 Zr8 3.030319 1_555
Sb3 Zr6 3.030410 1_545
Sb3 Zr9 3.030578 1_545
Sb3 Zr3 3.070225 1_545
Sb3 Zr2 3.125559 1_455
Sb3 Zr2 3.125997 1_555
Sb4 Zr2 2.959534 1_565
Sb4 Zr0 2.959701 1_554
Sb4 Zr7 3.030210 1_654
Sb4 Zr8 3.030327 1_554
Sb4 Zr6 3.030412 1_655
Sb4 Zr9 3.030578 1_555
Sb4 Zr4 3.070238 1_555
Sb4 Zr5 3.125553 1_655
Sb4 Zr5 3.125986 1_555
Sb5 Zr1 2.959543 1_555
Sb5 Zr3 2.959701 1_544
Sb5 Zr7 3.030178 1_554
Sb5 Zr8 3.030345 1_554
Sb5 Zr6 3.030440 1_555
Sb5 Zr9 3.030559 1_555
Sb5 Zr5 3.070234 1_555
Sb5 Zr4 3.125553 1_455
Sb5 Zr4 3.125990 1_555
