# generated using pymatgen
data_HfMg6Al
_symmetry_space_group_name_H-M   'P 1'
_cell_length_a   5.02586600
_cell_length_b   6.08842100
_cell_length_c   11.17783900
_cell_angle_alpha   90.00000000
_cell_angle_beta   90.00000000
_cell_angle_gamma   90.00000000
_symmetry_Int_Tables_number   1
_chemical_formula_structural   HfMg6Al
_chemical_formula_sum   'Hf2 Mg12 Al2'
_cell_volume   342.03726922
_cell_formula_units_Z   2
loop_
 _symmetry_equiv_pos_site_id
 _symmetry_equiv_pos_as_xyz
  1  'x, y, z'
loop_
 _atom_site_type_symbol
 _atom_site_label
 _atom_site_symmetry_multiplicity
 _atom_site_fract_x
 _atom_site_fract_y
 _atom_site_fract_z
 _atom_site_occupancy
  Hf  Hf0  1  0.50000000  0.50000000  0.17124200  1
  Hf  Hf1  1  0.50000000  0.00000000  0.67124200  1
  Mg  Mg0  1  0.50000000  0.25076900  0.41899300  1
  Mg  Mg1  1  0.50000000  0.74923100  0.41899300  1
  Mg  Mg2  1  0.00000000  0.74797100  0.08290700  1
  Mg  Mg3  1  0.00000000  0.25202900  0.08290700  1
  Mg  Mg4  1  0.00000000  0.00000000  0.32850900  1
  Mg  Mg5  1  0.00000000  0.50000000  0.32980500  1
  Mg  Mg6  1  0.50000000  0.75076900  0.91899300  1
  Mg  Mg7  1  0.50000000  0.24923100  0.91899300  1
  Mg  Mg8  1  0.00000000  0.24797100  0.58290700  1
  Mg  Mg9  1  0.00000000  0.75202900  0.58290700  1
  Mg  Mg10  1  0.00000000  0.50000000  0.82850900  1
  Mg  Mg11  1  0.00000000  0.00000000  0.82980500  1
  Al  Al0  1  0.50000000  0.00000000  0.16664000  1
  Al  Al1  1  0.50000000  0.50000000  0.66664000  1
loop_
_geom_bond_atom_site_label_1
_geom_bond_atom_site_label_2
_geom_bond_distance
_geom_bond_site_symmetry_2
Hf0 Mg5 3.075094 1_655
Hf0 Mg5 3.075094 1_555
Hf0 Mg2 3.093401 1_555
Hf0 Mg2 3.093401 1_655
Hf0 Mg3 3.093401 1_655
Hf0 Mg3 3.093401 1_555
Hf0 Mg1 3.157802 1_555
Hf0 Mg0 3.157802 1_555
Hf0 Mg6 3.206434 1_554
Hf0 Mg7 3.206434 1_554
Hf1 Mg11 3.075094 1_655
Hf1 Mg11 3.075094 1_555
Hf1 Mg9 3.093401 1_645
Hf1 Mg8 3.093401 1_655
Hf1 Mg8 3.093401 1_555
Hf1 Mg9 3.093401 1_545
Hf1 Mg7 3.157802 1_555
Hf1 Mg6 3.157802 1_545
Hf1 Mg0 3.206434 1_555
Hf1 Mg1 3.206434 1_545
Mg0 Mg1 3.034847 1_555
Mg0 Mg1 3.053574 1_545
Mg0 Mg5 3.100205 1_655
Mg0 Mg5 3.100205 1_555
Mg0 Mg4 3.109481 1_555
Mg0 Mg4 3.109481 1_655
Mg0 Mg8 3.109999 1_555
Mg0 Mg8 3.109999 1_655
Mg1 Mg5 3.100205 1_555
Mg1 Mg5 3.100205 1_655
Mg1 Mg4 3.109481 1_565
Mg1 Mg4 3.109481 1_665
Mg1 Mg9 3.109999 1_555
Mg1 Mg9 3.109999 1_655
Mg2 Mg3 3.019504 1_555
Mg2 Mg3 3.068917 1_565
Mg2 Mg6 3.109999 1_454
Mg2 Mg6 3.109999 1_554
Mg2 Mg4 3.145033 1_565
Mg2 Mg5 3.145754 1_555
Mg3 Mg7 3.109999 1_554
Mg3 Mg7 3.109999 1_454
Mg3 Mg4 3.145033 1_555
Mg3 Mg5 3.145754 1_555
Mg4 Mg5 3.044245 1_555
Mg4 Mg5 3.044245 1_545
Mg4 Mg8 3.219553 1_555
Mg4 Mg9 3.219553 1_545
Mg5 Mg9 3.218472 1_555
Mg5 Mg8 3.218472 1_555
Mg6 Mg7 3.034847 1_565
Mg6 Mg7 3.053574 1_555
Mg8 Mg9 3.019504 1_545
Mg8 Mg9 3.068917 1_555
Mg10 Mg11 3.044245 1_555
Mg10 Mg11 3.044245 1_565
Mg10 Mg6 3.109481 1_455
Mg10 Mg6 3.109481 1_555
Mg10 Mg7 3.109481 1_555
Mg10 Mg7 3.109481 1_455
Mg10 Mg8 3.145033 1_555
Mg10 Mg9 3.145033 1_555
Mg10 Mg2 3.219553 1_556
Mg10 Mg3 3.219553 1_556
Mg11 Mg7 3.100205 1_455
Mg11 Mg7 3.100205 1_555
Mg11 Mg6 3.100205 1_445
Mg11 Mg6 3.100205 1_545
Mg11 Mg8 3.145754 1_555
Mg11 Mg9 3.145754 1_545
Mg11 Mg3 3.218472 1_556
Mg11 Mg2 3.218472 1_546
Al0 Hf0 3.044645 1_555
Al0 Hf0 3.044645 1_545
Al0 Mg3 3.089564 1_555
Al0 Mg3 3.089564 1_655
Al0 Mg2 3.089564 1_545
Al0 Mg2 3.089564 1_645
Al0 Mg4 3.096541 1_655
Al0 Mg4 3.096541 1_555
Al0 Mg7 3.156782 1_554
Al0 Mg6 3.156782 1_544
Al0 Mg0 3.207456 1_555
Al0 Mg1 3.207456 1_545
Al1 Hf1 3.044645 1_555
Al1 Hf1 3.044645 1_565
Al1 Mg9 3.089564 1_655
Al1 Mg8 3.089564 1_555
Al1 Mg8 3.089564 1_655
Al1 Mg9 3.089564 1_555
Al1 Mg10 3.096541 1_555
Al1 Mg10 3.096541 1_655
Al1 Mg1 3.156782 1_555
Al1 Mg0 3.156782 1_555
Al1 Mg6 3.207456 1_555
Al1 Mg7 3.207456 1_555
