# generated using pymatgen
data_Cs2ZnBr4
_symmetry_space_group_name_H-M   'P 1'
_cell_length_a   7.76227197
_cell_length_b   10.26984703
_cell_length_c   13.57518590
_cell_angle_alpha   90.00000000
_cell_angle_beta   90.00000000
_cell_angle_gamma   90.00000000
_symmetry_Int_Tables_number   1
_chemical_formula_structural   Cs2ZnBr4
_chemical_formula_sum   'Cs8 Zn4 Br16'
_cell_volume   1082.17778784
_cell_formula_units_Z   4
loop_
 _symmetry_equiv_pos_site_id
 _symmetry_equiv_pos_as_xyz
  1  'x, y, z'
loop_
 _atom_site_type_symbol
 _atom_site_label
 _atom_site_symmetry_multiplicity
 _atom_site_fract_x
 _atom_site_fract_y
 _atom_site_fract_z
 _atom_site_occupancy
  Cs  Cs0  1  0.25000000  0.13542600  0.90057494  1
  Cs  Cs1  1  0.25000000  0.63542600  0.59942506  1
  Cs  Cs2  1  0.75000000  0.86457400  0.09942506  1
  Cs  Cs3  1  0.75000000  0.36457400  0.40057494  1
  Cs  Cs4  1  0.25000000  0.97644443  0.32986752  1
  Cs  Cs5  1  0.25000000  0.47644443  0.17013248  1
  Cs  Cs6  1  0.75000000  0.02355557  0.67013248  1
  Cs  Cs7  1  0.75000000  0.52355557  0.82986752  1
  Zn  Zn0  1  0.25000000  0.23572047  0.57757510  1
  Zn  Zn1  1  0.25000000  0.73572047  0.92242490  1
  Zn  Zn2  1  0.75000000  0.76427953  0.42242490  1
  Zn  Zn3  1  0.75000000  0.26427953  0.07757510  1
  Br  Br0  1  0.25000000  0.00286173  0.59961273  1
  Br  Br1  1  0.25000000  0.50286173  0.90038727  1
  Br  Br2  1  0.75000000  0.99713827  0.40038727  1
  Br  Br3  1  0.75000000  0.49713827  0.09961273  1
  Br  Br4  1  0.25000000  0.31086596  0.40909154  1
  Br  Br5  1  0.25000000  0.81086596  0.09090846  1
  Br  Br6  1  0.75000000  0.68913404  0.59090846  1
  Br  Br7  1  0.75000000  0.18913404  0.90909154  1
  Br  Br8  1  0.50305481  0.32751709  0.65289095  1
  Br  Br9  1  0.99694519  0.82751709  0.84710905  1
  Br  Br10  1  0.00305481  0.67248291  0.34710905  1
  Br  Br11  1  0.49694519  0.17248291  0.15289095  1
  Br  Br12  1  0.49694519  0.67248291  0.34710905  1
  Br  Br13  1  0.00305481  0.17248291  0.15289095  1
  Br  Br14  1  0.99694519  0.32751709  0.65289095  1
  Br  Br15  1  0.50305481  0.82751709  0.84710905  1
loop_
_geom_bond_atom_site_label_1
_geom_bond_atom_site_label_2
_geom_bond_distance
_geom_bond_site_symmetry_2
Br0 Zn0 2.410064 1_555
Br0 Cs4 3.671878 1_545
Br0 Cs1 3.773510 1_545
Br0 Cs6 4.003104 1_455
Br0 Cs6 4.003104 1_555
Br1 Zn1 2.410064 1_555
Br1 Cs5 3.671878 1_556
Br1 Cs0 3.773510 1_555
Br1 Cs7 4.003104 1_455
Br1 Cs7 4.003104 1_555
Br2 Zn2 2.410064 1_555
Br2 Cs6 3.671878 1_565
Br2 Cs3 3.773510 1_565
Br2 Cs4 4.003104 1_555
Br2 Cs4 4.003104 1_655
Br3 Zn3 2.410064 1_555
Br3 Cs7 3.671878 1_554
Br3 Cs2 3.773510 1_555
Br3 Cs5 4.003104 1_555
Br3 Cs5 4.003104 1_655
Br4 Zn0 2.413884 1_555
Br4 Cs4 3.598911 1_545
Br4 Cs5 3.662589 1_555
Br4 Cs3 3.921838 1_555
Br4 Cs3 3.921838 1_455
Br5 Zn1 2.413884 1_554
Br5 Cs5 3.598911 1_555
Br5 Cs4 3.662589 1_555
Br5 Cs2 3.921838 1_555
Br5 Cs2 3.921838 1_455
Br6 Zn2 2.413884 1_555
Br6 Cs6 3.598911 1_565
Br6 Cs7 3.662589 1_555
Br6 Cs1 3.921838 1_655
Br6 Cs1 3.921838 1_555
Br7 Zn3 2.413884 1_556
Br7 Cs7 3.598911 1_555
Br7 Cs6 3.662589 1_555
Br7 Cs0 3.921838 1_655
Br7 Cs0 3.921838 1_555
Br8 Zn0 2.406763 1_555
Br8 Cs6 3.670660 1_555
Br8 Cs7 3.674182 1_555
Br8 Cs1 3.792699 1_555
Br8 Cs3 3.943528 1_555
Br9 Zn1 2.406763 1_655
Br9 Cs7 3.670660 1_555
Br9 Cs6 3.674182 1_565
Br9 Cs0 3.792699 1_665
Br9 Cs2 3.943528 1_556
Br10 Zn2 2.406763 1_455
Br10 Cs4 3.670660 1_555
Br10 Cs5 3.674182 1_555
Br10 Cs3 3.792699 1_455
Br10 Cs1 3.943528 1_555
Br11 Zn3 2.406763 1_555
Br11 Cs5 3.670660 1_555
Br11 Cs4 3.674182 1_545
Br11 Cs2 3.792699 1_545
Br11 Cs0 3.943528 1_554
Br12 Zn2 2.406763 1_555
Br12 Cs4 3.670660 1_555
Br12 Cs5 3.674182 1_555
Br12 Cs3 3.792699 1_555
Br12 Cs1 3.943528 1_555
Br13 Zn3 2.406763 1_455
Br13 Cs5 3.670660 1_555
Br13 Cs4 3.674182 1_545
Br13 Cs2 3.792699 1_445
Br13 Cs0 3.943528 1_554
Br14 Zn0 2.406763 1_655
Br14 Cs6 3.670660 1_555
Br14 Cs7 3.674182 1_555
Br14 Cs1 3.792699 1_655
Br14 Cs3 3.943528 1_555
Br15 Zn1 2.406763 1_555
Br15 Cs7 3.670660 1_555
Br15 Cs6 3.674182 1_565
Br15 Cs0 3.792699 1_565
Br15 Cs2 3.943528 1_556
