# generated using pymatgen
data_Sm2MgSe4
_symmetry_space_group_name_H-M   'P 1'
_cell_length_a   8.29779700
_cell_length_b   7.76863900
_cell_length_c   12.29110400
_cell_angle_alpha   90.00000000
_cell_angle_beta   90.00000000
_cell_angle_gamma   90.00000000
_symmetry_Int_Tables_number   1
_chemical_formula_structural   Sm2MgSe4
_chemical_formula_sum   'Sm8 Mg4 Se16'
_cell_volume   792.31639028
_cell_formula_units_Z   4
loop_
 _symmetry_equiv_pos_site_id
 _symmetry_equiv_pos_as_xyz
  1  'x, y, z'
loop_
 _atom_site_type_symbol
 _atom_site_label
 _atom_site_symmetry_multiplicity
 _atom_site_fract_x
 _atom_site_fract_y
 _atom_site_fract_z
 _atom_site_occupancy
  Sm  Sm0  1  0.05308400  0.75000000  0.31342700  1
  Sm  Sm1  1  0.94691600  0.25000000  0.68657300  1
  Sm  Sm2  1  0.44691600  0.25000000  0.81342700  1
  Sm  Sm3  1  0.55308400  0.75000000  0.18657300  1
  Sm  Sm4  1  0.06127300  0.25000000  0.02745400  1
  Sm  Sm5  1  0.93872700  0.75000000  0.97254600  1
  Sm  Sm6  1  0.43872700  0.75000000  0.52745400  1
  Sm  Sm7  1  0.56127300  0.25000000  0.47254600  1
  Mg  Mg0  1  0.17942400  0.25000000  0.40941600  1
  Mg  Mg1  1  0.82057600  0.75000000  0.59058400  1
  Mg  Mg2  1  0.32057600  0.75000000  0.90941600  1
  Mg  Mg3  1  0.67942400  0.25000000  0.09058400  1
  Se  Se0  1  0.13633100  0.50009600  0.84364400  1
  Se  Se1  1  0.86366900  0.49990400  0.15635600  1
  Se  Se2  1  0.36366900  0.49990400  0.34364400  1
  Se  Se3  1  0.63633100  0.50009600  0.65635600  1
  Se  Se4  1  0.63633100  0.99990400  0.65635600  1
  Se  Se5  1  0.36366900  0.00009600  0.34364400  1
  Se  Se6  1  0.86366900  0.00009600  0.15635600  1
  Se  Se7  1  0.13633100  0.99990400  0.84364400  1
  Se  Se8  1  0.89137600  0.25000000  0.45384300  1
  Se  Se9  1  0.10862400  0.75000000  0.54615700  1
  Se  Se10  1  0.60862400  0.75000000  0.95384300  1
  Se  Se11  1  0.39137600  0.25000000  0.04615700  1
  Se  Se12  1  0.22409800  0.75000000  0.11226000  1
  Se  Se13  1  0.77590200  0.25000000  0.88774000  1
  Se  Se14  1  0.27590200  0.25000000  0.61226000  1
  Se  Se15  1  0.72409800  0.75000000  0.38774000  1
loop_
_geom_bond_atom_site_label_1
_geom_bond_atom_site_label_2
_geom_bond_distance
_geom_bond_site_symmetry_2
Mg0 Se8 2.451747 1_455
Mg0 Se2 2.599986 1_555
Mg0 Se5 2.599986 1_555
Mg0 Se14 2.618553 1_555
Mg1 Se9 2.451747 1_655
Mg1 Se4 2.599986 1_555
Mg1 Se3 2.599986 1_555
Mg1 Se15 2.618553 1_555
Mg2 Se10 2.451747 1_555
Mg2 Se7 2.599986 1_555
Mg2 Se0 2.599986 1_555
Mg2 Se12 2.618553 1_556
Mg3 Se11 2.451747 1_555
Mg3 Se1 2.599986 1_555
Mg3 Se6 2.599986 1_555
Mg3 Se13 2.618553 1_554
Se0 Sm5 2.994627 1_455
Se0 Sm4 3.044157 1_556
Se0 Sm1 3.157900 1_455
Se0 Sm2 3.248789 1_555
Se1 Sm4 2.994627 1_655
Se1 Sm5 3.044157 1_554
Se1 Sm0 3.157900 1_655
Se1 Sm3 3.248789 1_555
Se2 Sm7 2.994627 1_555
Se2 Sm6 3.044157 1_555
Se2 Sm3 3.157900 1_555
Se2 Sm0 3.248789 1_555
Se3 Sm6 2.994627 1_555
Se3 Sm7 3.044157 1_555
Se3 Sm2 3.157900 1_555
Se3 Sm1 3.248789 1_555
Se4 Sm6 2.994627 1_555
Se4 Sm7 3.044157 1_565
Se4 Sm2 3.157900 1_565
Se4 Sm1 3.248789 1_565
Se5 Sm7 2.994627 1_555
Se5 Sm6 3.044157 1_545
Se5 Sm3 3.157900 1_545
Se5 Sm0 3.248789 1_545
Se6 Sm4 2.994627 1_655
Se6 Sm5 3.044157 1_544
Se6 Sm0 3.157900 1_645
Se6 Sm3 3.248789 1_545
Se7 Sm5 2.994627 1_455
Se7 Sm4 3.044157 1_566
Se7 Sm1 3.157900 1_465
Se7 Sm2 3.248789 1_565
Se8 Sm7 2.748757 1_555
Se8 Sm1 2.897396 1_555
Se9 Sm6 2.748757 1_555
Se9 Sm0 2.897396 1_555
Se10 Sm5 2.748757 1_555
Se10 Sm3 2.897396 1_556
Se11 Sm4 2.748757 1_555
Se11 Sm2 2.897396 1_554
Se12 Sm0 2.850833 1_555
Se12 Sm3 2.878612 1_555
Se12 Sm5 2.925081 1_454
Se13 Sm1 2.850833 1_555
Se13 Sm2 2.878612 1_555
Se13 Sm4 2.925081 1_656
Se14 Sm2 2.850833 1_555
Se14 Sm1 2.878612 1_455
Se14 Sm7 2.925081 1_555
Se15 Sm3 2.850833 1_555
Se15 Sm0 2.878612 1_655
Se15 Sm6 2.925081 1_555
