# generated using pymatgen
data_Mg6GaSn
_symmetry_space_group_name_H-M   'P 1'
_cell_length_a   5.18897400
_cell_length_b   6.38310000
_cell_length_c   10.75953400
_cell_angle_alpha   90.00000000
_cell_angle_beta   90.00000000
_cell_angle_gamma   90.00000000
_symmetry_Int_Tables_number   1
_chemical_formula_structural   Mg6GaSn
_chemical_formula_sum   'Mg12 Ga2 Sn2'
_cell_volume   356.37448702
_cell_formula_units_Z   2
loop_
 _symmetry_equiv_pos_site_id
 _symmetry_equiv_pos_as_xyz
  1  'x, y, z'
loop_
 _atom_site_type_symbol
 _atom_site_label
 _atom_site_symmetry_multiplicity
 _atom_site_fract_x
 _atom_site_fract_y
 _atom_site_fract_z
 _atom_site_occupancy
  Mg  Mg0  1  0.50000000  0.24990700  0.08355400  1
  Mg  Mg1  1  0.50000000  0.75009300  0.08355400  1
  Mg  Mg2  1  0.00000000  0.25357200  0.91632100  1
  Mg  Mg3  1  0.00000000  0.74642800  0.91632100  1
  Mg  Mg4  1  0.00000000  0.50000000  0.16604200  1
  Mg  Mg5  1  0.00000000  0.50000000  0.66794900  1
  Mg  Mg6  1  0.50000000  0.74990700  0.58355400  1
  Mg  Mg7  1  0.50000000  0.25009300  0.58355400  1
  Mg  Mg8  1  0.00000000  0.75357200  0.41632100  1
  Mg  Mg9  1  0.00000000  0.24642800  0.41632100  1
  Mg  Mg10  1  0.00000000  0.00000000  0.66604200  1
  Mg  Mg11  1  0.00000000  0.00000000  0.16794900  1
  Ga  Ga0  1  0.50000000  0.50000000  0.83290800  1
  Ga  Ga1  1  0.50000000  0.00000000  0.33290800  1
  Sn  Sn0  1  0.50000000  0.50000000  0.33335500  1
  Sn  Sn1  1  0.50000000  0.00000000  0.83335500  1
loop_
_geom_bond_atom_site_label_1
_geom_bond_atom_site_label_2
_geom_bond_distance
_geom_bond_site_symmetry_2
Mg0 Sn0 3.126076 1_555
Mg0 Sn1 3.129153 1_554
Mg0 Mg2 3.157462 1_654
Mg0 Mg2 3.157462 1_554
Mg0 Mg4 3.172928 1_655
Mg0 Mg4 3.172928 1_555
Mg0 Mg11 3.178132 1_555
Mg0 Mg11 3.178132 1_655
Mg0 Mg1 3.190363 1_545
Mg0 Mg1 3.192737 1_555
Mg1 Sn0 3.126076 1_555
Mg1 Sn1 3.129153 1_564
Mg1 Mg3 3.157462 1_654
Mg1 Mg3 3.157462 1_554
Mg1 Mg4 3.172928 1_655
Mg1 Mg4 3.172928 1_555
Mg1 Mg11 3.178132 1_565
Mg1 Mg11 3.178132 1_665
Mg2 Mg5 3.100934 1_555
Mg2 Mg4 3.113452 1_556
Mg2 Mg3 3.145949 1_555
Mg2 Sn1 3.185596 1_455
Mg2 Sn1 3.185596 1_555
Mg2 Mg3 3.237151 1_545
Mg3 Mg5 3.100934 1_555
Mg3 Mg4 3.113452 1_556
Mg3 Sn1 3.185596 1_465
Mg3 Sn1 3.185596 1_565
Mg4 Mg9 3.141881 1_555
Mg4 Mg8 3.141881 1_555
Mg4 Sn0 3.157866 1_455
Mg4 Sn0 3.157866 1_555
Mg5 Mg9 3.154331 1_555
Mg5 Mg8 3.154331 1_555
Mg5 Mg6 3.178132 1_455
Mg5 Mg6 3.178132 1_555
Mg5 Mg7 3.178132 1_455
Mg5 Mg7 3.178132 1_555
Mg6 Sn1 3.126076 1_565
Mg6 Sn0 3.129153 1_555
Mg6 Mg8 3.157462 1_655
Mg6 Mg8 3.157462 1_555
Mg6 Mg7 3.190363 1_555
Mg6 Mg7 3.192737 1_565
Mg7 Sn1 3.126076 1_555
Mg7 Sn0 3.129153 1_555
Mg7 Mg9 3.157462 1_555
Mg7 Mg9 3.157462 1_655
Mg8 Mg9 3.145949 1_565
Mg8 Sn0 3.185596 1_555
Mg8 Sn0 3.185596 1_455
Mg8 Mg9 3.237151 1_555
Mg9 Sn0 3.185596 1_555
Mg9 Sn0 3.185596 1_455
Mg10 Mg9 3.113452 1_555
Mg10 Mg8 3.113452 1_545
Mg10 Mg3 3.141881 1_545
Mg10 Mg2 3.141881 1_555
Mg10 Sn1 3.157866 1_455
Mg10 Sn1 3.157866 1_555
Mg10 Mg6 3.172928 1_445
Mg10 Mg7 3.172928 1_455
Mg10 Mg6 3.172928 1_545
Mg10 Mg7 3.172928 1_555
Mg10 Mg5 3.191616 1_545
Mg10 Mg5 3.191616 1_555
Mg11 Mg8 3.100934 1_545
Mg11 Mg9 3.100934 1_555
Mg11 Mg2 3.154331 1_554
Mg11 Mg3 3.154331 1_544
Mg11 Mg4 3.191616 1_555
Mg11 Mg4 3.191616 1_545
Ga0 Mg7 3.121335 1_555
Ga0 Mg6 3.121335 1_555
Ga0 Mg0 3.133897 1_556
Ga0 Mg1 3.133897 1_556
Ga0 Mg5 3.143496 1_655
Ga0 Mg5 3.143496 1_555
Ga0 Mg2 3.164031 1_655
Ga0 Mg3 3.164031 1_555
Ga0 Mg3 3.164031 1_655
Ga0 Mg2 3.164031 1_555
Ga0 Sn1 3.191554 1_555
Ga0 Sn1 3.191554 1_565
Ga1 Mg1 3.121335 1_545
Ga1 Mg0 3.121335 1_555
Ga1 Mg6 3.133897 1_545
Ga1 Mg7 3.133897 1_555
Ga1 Mg11 3.143496 1_655
Ga1 Mg11 3.143496 1_555
Ga1 Mg8 3.164031 1_545
Ga1 Mg9 3.164031 1_555
Ga1 Mg9 3.164031 1_655
Ga1 Mg8 3.164031 1_645
Ga1 Sn0 3.191554 1_555
Ga1 Sn0 3.191554 1_545
