# generated using pymatgen
data_Ca3Al2O12
_symmetry_space_group_name_H-M   'P 1'
_cell_length_a   11.24907937
_cell_length_b   11.24907937
_cell_length_c   11.24907937
_cell_angle_alpha   109.47122063
_cell_angle_beta   109.47122063
_cell_angle_gamma   109.47122063
_symmetry_Int_Tables_number   1
_chemical_formula_structural   Ca3Al2O12
_chemical_formula_sum   'Ca12 Al8 O48'
_cell_volume   1095.79433744
_cell_formula_units_Z   4
loop_
 _symmetry_equiv_pos_site_id
 _symmetry_equiv_pos_as_xyz
  1  'x, y, z'
loop_
 _atom_site_type_symbol
 _atom_site_label
 _atom_site_symmetry_multiplicity
 _atom_site_fract_x
 _atom_site_fract_y
 _atom_site_fract_z
 _atom_site_occupancy
  Ca  Ca0  1  0.63198300  0.25000000  0.88198300  1
  Ca  Ca1  1  0.86801700  0.75000000  0.61801700  1
  Ca  Ca2  1  0.38198300  0.75000000  0.13198300  1
  Ca  Ca3  1  0.11801700  0.25000000  0.36801700  1
  Ca  Ca4  1  0.25000000  0.88198300  0.63198300  1
  Ca  Ca5  1  0.75000000  0.61801700  0.86801700  1
  Ca  Ca6  1  0.75000000  0.13198300  0.38198300  1
  Ca  Ca7  1  0.25000000  0.36801700  0.11801700  1
  Ca  Ca8  1  0.88198300  0.63198300  0.25000000  1
  Ca  Ca9  1  0.61801700  0.86801700  0.75000000  1
  Ca  Ca10  1  0.13198300  0.38198300  0.75000000  1
  Ca  Ca11  1  0.36801700  0.11801700  0.25000000  1
  Al  Al0  1  0.50503800  0.50000000  0.00000000  1
  Al  Al1  1  0.50000000  0.00000000  0.50503800  1
  Al  Al2  1  0.00000000  0.50503800  0.50000000  1
  Al  Al3  1  0.99496200  0.99496200  0.99496200  1
  Al  Al4  1  0.50000000  0.00000000  0.00503800  1
  Al  Al5  1  0.00503800  0.50000000  0.00000000  1
  Al  Al6  1  0.00000000  0.00503800  0.50000000  1
  Al  Al7  1  0.49496200  0.49496200  0.49496200  1
  O  O0  1  0.57285500  0.93182000  0.38953800  1
  O  O1  1  0.45771800  0.56818000  0.14103500  1
  O  O2  1  0.04228200  0.18331700  0.11046200  1
  O  O3  1  0.92714500  0.31668300  0.35896500  1
  O  O4  1  0.88953800  0.43182000  0.07285500  1
  O  O5  1  0.64103500  0.06818000  0.95771800  1
  O  O6  1  0.61046200  0.68331700  0.54228200  1
  O  O7  1  0.85896500  0.81668300  0.42714500  1
  O  O8  1  0.93182000  0.38953800  0.57285500  1
  O  O9  1  0.56818000  0.14103500  0.45771800  1
  O  O10  1  0.18331700  0.11046200  0.04228200  1
  O  O11  1  0.31668300  0.35896500  0.92714500  1
  O  O12  1  0.43182000  0.07285500  0.88953800  1
  O  O13  1  0.06818000  0.95771800  0.64103500  1
  O  O14  1  0.68331700  0.54228200  0.61046200  1
  O  O15  1  0.81668300  0.42714500  0.85896500  1
  O  O16  1  0.38953800  0.57285500  0.93182000  1
  O  O17  1  0.14103500  0.45771800  0.56818000  1
  O  O18  1  0.11046200  0.04228200  0.18331700  1
  O  O19  1  0.35896500  0.92714500  0.31668300  1
  O  O20  1  0.07285500  0.88953800  0.43182000  1
  O  O21  1  0.95771800  0.64103500  0.06818000  1
  O  O22  1  0.54228200  0.61046200  0.68331700  1
  O  O23  1  0.42714500  0.85896500  0.81668300  1
  O  O24  1  0.62481300  0.43265600  0.07370700  1
  O  O25  1  0.64105100  0.06734400  0.69215700  1
  O  O26  1  0.85894900  0.55110700  0.42629300  1
  O  O27  1  0.87518700  0.94889300  0.80784300  1
  O  O28  1  0.57370700  0.93265600  0.12481300  1
  O  O29  1  0.19215700  0.56734400  0.14105100  1
  O  O30  1  0.92629300  0.05110700  0.35894900  1
  O  O31  1  0.30784300  0.44889300  0.37518700  1
  O  O32  1  0.43265600  0.07370700  0.62481300  1
  O  O33  1  0.06734400  0.69215700  0.64105100  1
  O  O34  1  0.55110700  0.42629300  0.85894900  1
  O  O35  1  0.94889300  0.80784300  0.87518700  1
  O  O36  1  0.93265600  0.12481300  0.57370700  1
  O  O37  1  0.56734400  0.14105100  0.19215700  1
  O  O38  1  0.05110700  0.35894900  0.92629300  1
  O  O39  1  0.44889300  0.37518700  0.30784300  1
  O  O40  1  0.07370700  0.62481300  0.43265600  1
  O  O41  1  0.69215700  0.64105100  0.06734400  1
  O  O42  1  0.42629300  0.85894900  0.55110700  1
  O  O43  1  0.80784300  0.87518700  0.94889300  1
  O  O44  1  0.12481300  0.57370700  0.93265600  1
  O  O45  1  0.14105100  0.19215700  0.56734400  1
  O  O46  1  0.35894900  0.92629300  0.05110700  1
  O  O47  1  0.37518700  0.30784300  0.44889300  1
loop_
_geom_bond_atom_site_label_1
_geom_bond_atom_site_label_2
_geom_bond_distance
_geom_bond_site_symmetry_2
Ca0 O25 2.480311 1_555
Ca0 O24 2.480311 1_556
Ca0 O4 2.482367 1_556
Ca0 O5 2.482367 1_555
Ca0 O34 2.493167 1_555
Ca0 O32 2.493174 1_555
Ca0 O15 2.509439 1_555
Ca0 O12 2.509439 1_555
Ca1 O27 2.480304 1_555
Ca1 O26 2.480304 1_555
Ca1 O7 2.482367 1_555
Ca1 O6 2.482367 1_555
Ca1 O33 2.493174 1_655
Ca1 O35 2.493175 1_555
Ca1 O13 2.509439 1_655
Ca1 O14 2.509439 1_555
Ca2 O29 2.480311 1_555
Ca2 O28 2.480311 1_555
Ca2 O1 2.482367 1_555
Ca2 O0 2.482367 1_555
Ca2 O46 2.493167 1_555
Ca2 O44 2.493174 1_554
Ca2 O19 2.509439 1_555
Ca2 O16 2.509439 1_554
Ca3 O31 2.480304 1_555
Ca3 O30 2.480304 1_455
Ca3 O3 2.482367 1_455
Ca3 O2 2.482367 1_555
Ca3 O45 2.493174 1_555
Ca3 O47 2.493175 1_555
Ca3 O17 2.509439 1_555
Ca3 O18 2.509439 1_555
Ca4 O33 2.480311 1_555
Ca4 O32 2.480311 1_565
Ca4 O12 2.482367 1_565
Ca4 O13 2.482367 1_555
Ca4 O42 2.493167 1_555
Ca4 O40 2.493174 1_555
Ca4 O20 2.509439 1_555
Ca4 O23 2.509439 1_555
Ca5 O35 2.480304 1_555
Ca5 O34 2.480304 1_555
Ca5 O15 2.482367 1_555
Ca5 O14 2.482367 1_555
Ca5 O41 2.493174 1_556
Ca5 O43 2.493175 1_555
Ca5 O21 2.509439 1_556
Ca5 O22 2.509439 1_555
Ca6 O37 2.480311 1_555
Ca6 O36 2.480311 1_555
Ca6 O9 2.482367 1_555
Ca6 O8 2.482367 1_555
Ca6 O30 2.493167 1_555
Ca6 O28 2.493174 1_545
Ca6 O3 2.509439 1_555
Ca6 O0 2.509439 1_545
Ca7 O39 2.480304 1_555
Ca7 O38 2.480304 1_554
Ca7 O11 2.482367 1_554
Ca7 O10 2.482367 1_555
Ca7 O29 2.493174 1_555
Ca7 O31 2.493175 1_555
Ca7 O1 2.509439 1_555
Ca7 O2 2.509439 1_555
Ca8 O41 2.480311 1_555
Ca8 O40 2.480311 1_655
Ca8 O20 2.482367 1_655
Ca8 O21 2.482367 1_555
Ca8 O26 2.493167 1_555
Ca8 O24 2.493174 1_555
Ca8 O4 2.509439 1_555
Ca8 O7 2.509439 1_555
Ca9 O43 2.480304 1_555
Ca9 O42 2.480304 1_555
Ca9 O23 2.482367 1_555
Ca9 O22 2.482367 1_555
Ca9 O25 2.493174 1_565
Ca9 O27 2.493175 1_555
Ca9 O5 2.509439 1_565
Ca9 O6 2.509439 1_555
Ca10 O45 2.480311 1_555
Ca10 O44 2.480311 1_555
Ca10 O17 2.482367 1_555
Ca10 O16 2.482367 1_555
Ca10 O38 2.493167 1_555
Ca10 O36 2.493174 1_455
Ca10 O11 2.509439 1_555
Ca10 O8 2.509439 1_455
Ca11 O47 2.480304 1_555
Ca11 O46 2.480304 1_545
Ca11 O19 2.482367 1_545
Ca11 O18 2.482367 1_555
Ca11 O37 2.493174 1_555
Ca11 O39 2.493175 1_555
Ca11 O9 2.509439 1_555
Ca11 O10 2.509439 1_555
Al0 O16 1.847320 1_554
Al0 O11 1.847320 1_554
Al0 O1 1.847320 1_555
Al0 O41 1.852346 1_555
Al0 O24 1.852346 1_555
Al0 O34 1.852354 1_554
Al1 O0 1.847320 1_545
Al1 O19 1.847320 1_545
Al1 O9 1.847320 1_555
Al1 O25 1.852346 1_555
Al1 O32 1.852346 1_555
Al1 O42 1.852354 1_545
Al2 O8 1.847320 1_455
Al2 O3 1.847320 1_455
Al2 O17 1.847320 1_555
Al2 O33 1.852346 1_555
Al2 O40 1.852346 1_555
Al2 O26 1.852354 1_455
Al3 O2 1.847320 1_666
Al3 O18 1.847320 1_666
Al3 O10 1.847320 1_666
Al3 O27 1.852342 1_555
Al3 O35 1.852342 1_555
Al3 O43 1.852342 1_555
Al4 O5 1.847320 1_554
Al4 O23 1.847320 1_544
Al4 O12 1.847320 1_554
Al4 O37 1.852346 1_555
Al4 O28 1.852346 1_545
Al4 O46 1.852354 1_545
Al5 O21 1.847320 1_455
Al5 O4 1.847320 1_455
Al5 O15 1.847320 1_454
Al5 O29 1.852346 1_555
Al5 O44 1.852346 1_554
Al5 O38 1.852354 1_554
Al6 O13 1.847320 1_545
Al6 O20 1.847320 1_545
Al6 O7 1.847320 1_445
Al6 O45 1.852346 1_555
Al6 O36 1.852346 1_455
Al6 O30 1.852354 1_455
Al7 O14 1.847320 1_555
Al7 O6 1.847320 1_555
Al7 O22 1.847320 1_555
Al7 O39 1.852342 1_555
Al7 O31 1.852342 1_555
Al7 O47 1.852342 1_555
