# generated using pymatgen
data_Li9Mn2Co5O16
_symmetry_space_group_name_H-M   'P 1'
_cell_length_a   5.00612600
_cell_length_b   6.63210025
_cell_length_c   8.82966702
_cell_angle_alpha   98.05848146
_cell_angle_beta   95.15285648
_cell_angle_gamma   97.68256645
_symmetry_Int_Tables_number   1
_chemical_formula_structural   Li9Mn2Co5O16
_chemical_formula_sum   'Li9 Mn2 Co5 O16'
_cell_volume   285.88906668
_cell_formula_units_Z   1
loop_
 _symmetry_equiv_pos_site_id
 _symmetry_equiv_pos_as_xyz
  1  'x, y, z'
loop_
 _atom_site_type_symbol
 _atom_site_label
 _atom_site_symmetry_multiplicity
 _atom_site_fract_x
 _atom_site_fract_y
 _atom_site_fract_z
 _atom_site_occupancy
  Li  Li0  1  0.25602400  0.30405600  0.67849500  1
  Li  Li1  1  0.24959500  0.57195800  0.44093900  1
  Li  Li2  1  0.73424700  0.18145700  0.79725300  1
  Li  Li3  1  0.75040500  0.42804200  0.55906100  1
  Li  Li4  1  0.24731000  0.06633800  0.93503800  1
  Li  Li5  1  0.26575300  0.81854300  0.20274700  1
  Li  Li6  1  0.74397600  0.69594400  0.32150500  1
  Li  Li7  1  0.75269000  0.93366200  0.06496200  1
  Li  Li8  1  0.50000000  0.00000000  0.50000000  1
  Mn  Mn0  1  0.00031500  0.62187100  0.87372800  1
  Mn  Mn1  1  0.99968500  0.37812900  0.12627200  1
  Co  Co0  1  0.01118000  0.88446500  0.62332800  1
  Co  Co1  1  0.98882000  0.11553500  0.37667200  1
  Co  Co2  1  0.50000000  0.50000000  0.00000000  1
  Co  Co3  1  0.50602300  0.75250800  0.74115000  1
  Co  Co4  1  0.49397700  0.24749200  0.25885000  1
  O  O0  1  0.12160500  0.59690400  0.67413900  1
  O  O1  1  0.11294900  0.85148700  0.41104800  1
  O  O2  1  0.63949800  0.47821700  0.80065700  1
  O  O3  1  0.63311800  0.71973700  0.54954800  1
  O  O4  1  0.13350000  0.36561600  0.92060500  1
  O  O5  1  0.12247000  0.11936500  0.15149900  1
  O  O6  1  0.63995000  0.98333200  0.27782200  1
  O  O7  1  0.63572000  0.24821600  0.04209300  1
  O  O8  1  0.36005000  0.01666800  0.72217800  1
  O  O9  1  0.36688200  0.28026300  0.45045200  1
  O  O10  1  0.87753000  0.88063500  0.84850100  1
  O  O11  1  0.88705100  0.14851300  0.58895200  1
  O  O12  1  0.36428000  0.75178400  0.95790700  1
  O  O13  1  0.36050200  0.52178300  0.19934300  1
  O  O14  1  0.87839500  0.40309600  0.32586100  1
  O  O15  1  0.86650000  0.63438400  0.07939500  1
loop_
_geom_bond_atom_site_label_1
_geom_bond_atom_site_label_2
_geom_bond_distance
_geom_bond_site_symmetry_2
Li0 O11 2.025012 1_455
Li0 O8 2.118529 1_555
Li0 O9 2.126571 1_555
Li0 O0 2.142932 1_555
Li0 O2 2.206543 1_555
Li0 O4 2.273912 1_555
Li1 O1 2.101960 1_555
Li1 O9 2.105870 1_555
Li1 O3 2.114029 1_555
Li1 O14 2.127253 1_455
Li1 O0 2.201711 1_555
Li1 O13 2.243371 1_555
Li2 O8 2.041924 1_555
Li2 O11 2.049487 1_555
Li2 O2 2.082078 1_555
Li2 O7 2.257100 1_556
Li2 O4 2.292630 1_655
Li2 O10 2.297182 1_545
Li3 O11 2.101960 1_555
Li3 O3 2.105870 1_555
Li3 O9 2.114029 1_555
Li3 O0 2.127253 1_655
Li3 O14 2.201711 1_555
Li3 O2 2.243371 1_555
Li4 O8 2.006533 1_555
Li4 O5 2.062067 1_556
Li4 O10 2.097618 1_445
Li4 O4 2.154224 1_555
Li4 O7 2.202815 1_556
Li4 O12 2.271382 1_545
Li5 O6 2.041924 1_555
Li5 O1 2.049487 1_555
Li5 O13 2.082078 1_555
Li5 O12 2.257100 1_554
Li5 O15 2.292630 1_455
Li5 O5 2.297182 1_565
Li6 O1 2.025012 1_655
Li6 O6 2.118529 1_555
Li6 O3 2.126571 1_555
Li6 O14 2.142932 1_555
Li6 O13 2.206543 1_555
Li6 O15 2.273912 1_555
Li7 O6 2.006533 1_555
Li7 O10 2.062067 1_554
Li7 O5 2.097618 1_665
Li7 O15 2.154224 1_555
Li7 O12 2.202815 1_554
Li7 O7 2.271382 1_565
Li8 O1 2.083479 1_545
Li8 O11 2.083479 1_555
Li8 O6 2.135030 1_545
Li8 O8 2.135030 1_555
Li8 O9 2.144104 1_555
Li8 O3 2.144104 1_545
Mn0 O0 1.907642 1_555
Mn0 O10 1.933193 1_455
Mn0 O2 1.935167 1_455
Mn0 O12 1.942199 1_555
Mn0 O15 1.986083 1_456
Mn0 O4 1.988670 1_555
Mn1 O14 1.907642 1_555
Mn1 O5 1.933193 1_655
Mn1 O13 1.935167 1_655
Mn1 O7 1.942199 1_555
Mn1 O4 1.986083 1_654
Mn1 O15 1.988670 1_555
Co0 O8 1.919109 1_565
Co0 O1 1.976616 1_555
Co0 O11 1.987724 1_465
Co0 O3 2.055753 1_455
Co0 O0 2.149709 1_555
Co0 O10 2.156342 1_455
Co1 O6 1.919109 1_545
Co1 O11 1.976616 1_555
Co1 O1 1.987724 1_645
Co1 O9 2.055753 1_655
Co1 O14 2.149709 1_555
Co1 O5 2.156342 1_655
Co2 O13 1.945018 1_555
Co2 O2 1.945018 1_554
Co2 O15 1.951574 1_555
Co2 O4 1.951574 1_554
Co2 O7 1.954527 1_555
Co2 O12 1.954527 1_554
Co3 O3 1.855105 1_555
Co3 O8 2.008467 1_565
Co3 O10 2.028402 1_555
Co3 O0 2.052278 1_555
Co3 O12 2.100506 1_555
Co3 O2 2.135810 1_555
Co4 O9 1.855105 1_555
Co4 O6 2.008467 1_545
Co4 O5 2.028402 1_555
Co4 O14 2.052278 1_555
Co4 O7 2.100506 1_555
Co4 O13 2.135810 1_555
