# generated using pymatgen
data_Nd6Al43Mo4
_symmetry_space_group_name_H-M   'P 1'
_cell_length_a   11.10450438
_cell_length_b   11.10450438
_cell_length_c   17.82631400
_cell_angle_alpha   90.00000000
_cell_angle_beta   90.00000000
_cell_angle_gamma   120.00000227
_symmetry_Int_Tables_number   1
_chemical_formula_structural   Nd6Al43Mo4
_chemical_formula_sum   'Nd12 Al86 Mo8'
_cell_volume   1903.66503585
_cell_formula_units_Z   2
loop_
 _symmetry_equiv_pos_site_id
 _symmetry_equiv_pos_as_xyz
  1  'x, y, z'
loop_
 _atom_site_type_symbol
 _atom_site_label
 _atom_site_symmetry_multiplicity
 _atom_site_fract_x
 _atom_site_fract_y
 _atom_site_fract_z
 _atom_site_occupancy
  Nd  Nd0  1  0.47029100  0.47029100  0.90486100  1
  Nd  Nd1  1  0.52970900  0.00000000  0.90486100  1
  Nd  Nd2  1  0.00000000  0.52970900  0.90486100  1
  Nd  Nd3  1  0.52970900  0.52970900  0.09513900  1
  Nd  Nd4  1  0.47029100  0.00000000  0.09513900  1
  Nd  Nd5  1  0.00000000  0.47029100  0.09513900  1
  Nd  Nd6  1  0.52970900  0.52970900  0.40486100  1
  Nd  Nd7  1  0.47029100  0.00000000  0.40486100  1
  Nd  Nd8  1  0.00000000  0.47029100  0.40486100  1
  Nd  Nd9  1  0.47029100  0.47029100  0.59513900  1
  Nd  Nd10  1  0.52970900  0.00000000  0.59513900  1
  Nd  Nd11  1  0.00000000  0.52970900  0.59513900  1
  Al  Al0  1  0.84180000  0.23451800  0.83494900  1
  Al  Al1  1  0.76548200  0.60728200  0.83494900  1
  Al  Al2  1  0.39271800  0.15820000  0.83494900  1
  Al  Al3  1  0.23451800  0.84180000  0.83494900  1
  Al  Al4  1  0.60728200  0.76548200  0.83494900  1
  Al  Al5  1  0.15820000  0.39271800  0.83494900  1
  Al  Al6  1  0.15820000  0.76548200  0.16505100  1
  Al  Al7  1  0.23451800  0.39271800  0.16505100  1
  Al  Al8  1  0.60728200  0.84180000  0.16505100  1
  Al  Al9  1  0.76548200  0.15820000  0.16505100  1
  Al  Al10  1  0.39271800  0.23451800  0.16505100  1
  Al  Al11  1  0.84180000  0.60728200  0.16505100  1
  Al  Al12  1  0.15820000  0.76548200  0.33494900  1
  Al  Al13  1  0.23451800  0.39271800  0.33494900  1
  Al  Al14  1  0.60728200  0.84180000  0.33494900  1
  Al  Al15  1  0.76548200  0.15820000  0.33494900  1
  Al  Al16  1  0.39271800  0.23451800  0.33494900  1
  Al  Al17  1  0.84180000  0.60728200  0.33494900  1
  Al  Al18  1  0.84180000  0.23451800  0.66505100  1
  Al  Al19  1  0.76548200  0.60728200  0.66505100  1
  Al  Al20  1  0.39271800  0.15820000  0.66505100  1
  Al  Al21  1  0.23451800  0.84180000  0.66505100  1
  Al  Al22  1  0.60728200  0.76548200  0.66505100  1
  Al  Al23  1  0.15820000  0.39271800  0.66505100  1
  Al  Al24  1  0.84301600  0.84301600  0.38429300  1
  Al  Al25  1  0.15698400  0.00000000  0.38429300  1
  Al  Al26  1  0.00000000  0.15698400  0.38429300  1
  Al  Al27  1  0.15698400  0.15698400  0.61570700  1
  Al  Al28  1  0.84301600  0.00000000  0.61570700  1
  Al  Al29  1  0.00000000  0.84301600  0.61570700  1
  Al  Al30  1  0.15698400  0.15698400  0.88429300  1
  Al  Al31  1  0.84301600  0.00000000  0.88429300  1
  Al  Al32  1  0.00000000  0.84301600  0.88429300  1
  Al  Al33  1  0.84301600  0.84301600  0.11570700  1
  Al  Al34  1  0.15698400  0.00000000  0.11570700  1
  Al  Al35  1  0.00000000  0.15698400  0.11570700  1
  Al  Al36  1  0.74945500  0.74945500  0.96865800  1
  Al  Al37  1  0.25054500  0.00000000  0.96865800  1
  Al  Al38  1  0.00000000  0.25054500  0.96865800  1
  Al  Al39  1  0.25054500  0.25054500  0.03134200  1
  Al  Al40  1  0.74945500  0.00000000  0.03134200  1
  Al  Al41  1  0.00000000  0.74945500  0.03134200  1
  Al  Al42  1  0.25054500  0.25054500  0.46865800  1
  Al  Al43  1  0.74945500  0.00000000  0.46865800  1
  Al  Al44  1  0.00000000  0.74945500  0.46865800  1
  Al  Al45  1  0.74945500  0.74945500  0.53134200  1
  Al  Al46  1  0.25054500  0.00000000  0.53134200  1
  Al  Al47  1  0.00000000  0.25054500  0.53134200  1
  Al  Al48  1  0.85203600  0.44865800  0.75000000  1
  Al  Al49  1  0.55134200  0.40337800  0.75000000  1
  Al  Al50  1  0.59662200  0.14796400  0.75000000  1
  Al  Al51  1  0.44865800  0.85203600  0.75000000  1
  Al  Al52  1  0.40337800  0.55134200  0.75000000  1
  Al  Al53  1  0.14796400  0.59662200  0.75000000  1
  Al  Al54  1  0.14796400  0.55134200  0.25000000  1
  Al  Al55  1  0.44865800  0.59662200  0.25000000  1
  Al  Al56  1  0.40337800  0.85203600  0.25000000  1
  Al  Al57  1  0.55134200  0.14796400  0.25000000  1
  Al  Al58  1  0.59662200  0.44865800  0.25000000  1
  Al  Al59  1  0.85203600  0.40337800  0.25000000  1
  Al  Al60  1  0.75296500  0.24703500  0.00000000  1
  Al  Al61  1  0.75296500  0.50593000  0.00000000  1
  Al  Al62  1  0.49407000  0.24703500  0.00000000  1
  Al  Al63  1  0.24703500  0.75296500  0.00000000  1
  Al  Al64  1  0.50593000  0.75296500  0.00000000  1
  Al  Al65  1  0.24703500  0.49407000  0.00000000  1
  Al  Al66  1  0.24703500  0.75296500  0.50000000  1
  Al  Al67  1  0.24703500  0.49407000  0.50000000  1
  Al  Al68  1  0.50593000  0.75296500  0.50000000  1
  Al  Al69  1  0.75296500  0.24703500  0.50000000  1
  Al  Al70  1  0.49407000  0.24703500  0.50000000  1
  Al  Al71  1  0.75296500  0.50593000  0.50000000  1
  Al  Al72  1  0.66666700  0.33333300  0.87276400  1
  Al  Al73  1  0.33333300  0.66666700  0.87276400  1
  Al  Al74  1  0.33333300  0.66666700  0.12723600  1
  Al  Al75  1  0.66666700  0.33333300  0.12723600  1
  Al  Al76  1  0.33333300  0.66666700  0.37276400  1
  Al  Al77  1  0.66666700  0.33333300  0.37276400  1
  Al  Al78  1  0.66666700  0.33333300  0.62723600  1
  Al  Al79  1  0.33333300  0.66666700  0.62723600  1
  Al  Al80  1  0.85412900  0.85412900  0.75000000  1
  Al  Al81  1  0.14587100  0.00000000  0.75000000  1
  Al  Al82  1  0.00000000  0.14587100  0.75000000  1
  Al  Al83  1  0.14587100  0.14587100  0.25000000  1
  Al  Al84  1  0.85412900  0.00000000  0.25000000  1
  Al  Al85  1  0.00000000  0.85412900  0.25000000  1
  Mo  Mo0  1  0.26857000  0.26857000  0.75000000  1
  Mo  Mo1  1  0.73143000  0.00000000  0.75000000  1
  Mo  Mo2  1  0.00000000  0.73143000  0.75000000  1
  Mo  Mo3  1  0.73143000  0.73143000  0.25000000  1
  Mo  Mo4  1  0.26857000  0.00000000  0.25000000  1
  Mo  Mo5  1  0.00000000  0.26857000  0.25000000  1
  Mo  Mo6  1  0.00000000  0.00000000  0.00000000  1
  Mo  Mo7  1  0.00000000  0.00000000  0.50000000  1
loop_
_geom_bond_atom_site_label_1
_geom_bond_atom_site_label_2
_geom_bond_distance
_geom_bond_site_symmetry_2
Nd0 Nd3 3.455533 1_556
Nd1 Nd4 3.455533 1_556
Nd2 Nd5 3.455533 1_556
Nd6 Nd9 3.455533 1_555
Nd10 Nd7 3.455533 1_555
Nd11 Nd8 3.455533 1_555
Al0 Mo1 2.717620 1_555
Al0 Al72 2.752190 1_555
Al0 Al48 2.773142 1_555
Al0 Al50 2.830661 1_555
Al0 Al38 2.913141 1_655
Al0 Nd2 3.102544 1_655
Al0 Nd1 3.364580 1_555
Al1 Mo2 2.717620 1_655
Al1 Al72 2.752200 1_555
Al1 Al49 2.773142 1_555
Al1 Al48 2.830661 1_555
Al1 Al36 2.913141 1_555
Al1 Nd0 3.102544 1_555
Al1 Nd2 3.364581 1_655
Al2 Mo0 2.717620 1_555
Al2 Al72 2.752198 1_555
Al2 Al50 2.773142 1_555
Al2 Al49 2.830661 1_555
Al2 Al37 2.913141 1_555
Al2 Nd1 3.102544 1_555
Al2 Nd0 3.364580 1_555
Al3 Mo2 2.717620 1_555
Al3 Al73 2.752190 1_555
Al3 Al51 2.773142 1_555
Al3 Al53 2.830661 1_555
Al3 Al37 2.913141 1_565
Al3 Nd1 3.102544 1_565
Al3 Nd2 3.364580 1_555
Al4 Mo1 2.717620 1_565
Al4 Al73 2.752200 1_555
Al4 Al52 2.773142 1_555
Al4 Al51 2.830661 1_555
Al4 Nd0 3.102544 1_555
Al4 Nd1 3.364581 1_565
Al5 Mo0 2.717620 1_555
Al5 Al73 2.752198 1_555
Al5 Al53 2.773142 1_555
Al5 Al52 2.830661 1_555
Al5 Nd2 3.102544 1_555
Al5 Nd0 3.364580 1_555
Al6 Mo4 2.717620 1_565
Al6 Al74 2.752190 1_555
Al6 Nd5 3.102544 1_555
Al6 Nd4 3.364580 1_565
Al7 Mo5 2.717620 1_555
Al7 Al74 2.752200 1_555
Al7 Nd3 3.102544 1_555
Al7 Nd5 3.364581 1_555
Al8 Mo3 2.717620 1_555
Al8 Nd4 3.102544 1_565
Al8 Nd3 3.364580 1_555
Al9 Mo5 2.717620 1_655
Al9 Nd4 3.102544 1_555
Al9 Nd5 3.364580 1_655
Al10 Mo4 2.717620 1_555
Al10 Al75 2.752200 1_555
Al10 Al58 2.773142 1_555
Al10 Al57 2.830661 1_555
Al10 Al39 2.913141 1_555
Al10 Nd3 3.102544 1_555
Al10 Nd4 3.364581 1_555
Al11 Mo3 2.717620 1_555
Al11 Al75 2.752198 1_555
Al11 Al59 2.773142 1_555
Al11 Al58 2.830661 1_555
Al11 Al41 2.913141 1_655
Al11 Nd5 3.102544 1_655
Al11 Nd3 3.364580 1_555
Al12 Mo4 2.717620 1_565
Al12 Al76 2.752190 1_555
Al12 Al54 2.773142 1_555
Al12 Al56 2.830661 1_555
Al12 Al44 2.913141 1_555
Al12 Nd8 3.102544 1_555
Al12 Nd7 3.364580 1_565
Al13 Mo5 2.717620 1_555
Al13 Al76 2.752200 1_555
Al13 Al55 2.773142 1_555
Al13 Al54 2.830661 1_555
Al13 Al42 2.913141 1_555
Al13 Nd6 3.102544 1_555
Al13 Nd8 3.364581 1_555
Al14 Mo3 2.717620 1_555
Al14 Al76 2.752198 1_555
Al14 Al56 2.773142 1_555
Al14 Al55 2.830661 1_555
Al14 Al43 2.913141 1_565
Al14 Nd7 3.102544 1_565
Al14 Nd6 3.364580 1_555
Al15 Mo5 2.717620 1_655
Al15 Al77 2.752190 1_555
Al15 Al57 2.773142 1_555
Al15 Al59 2.830661 1_555
Al15 Al43 2.913141 1_555
Al15 Nd7 3.102544 1_555
Al15 Nd8 3.364580 1_655
Al16 Mo4 2.717620 1_555
Al16 Al77 2.752200 1_555
Al16 Al58 2.773142 1_555
Al16 Al57 2.830661 1_555
Al16 Al42 2.913141 1_555
Al16 Nd6 3.102544 1_555
Al16 Nd7 3.364581 1_555
Al17 Mo3 2.717620 1_555
Al17 Al77 2.752198 1_555
Al17 Al59 2.773142 1_555
Al17 Al58 2.830661 1_555
Al17 Al44 2.913141 1_655
Al17 Nd8 3.102544 1_655
Al17 Nd6 3.364580 1_555
Al18 Mo1 2.717620 1_555
Al18 Al78 2.752190 1_555
Al18 Al48 2.773142 1_555
Al18 Al50 2.830661 1_555
Al18 Al47 2.913141 1_655
Al18 Nd11 3.102544 1_655
Al18 Nd10 3.364580 1_555
Al19 Mo2 2.717620 1_655
Al19 Al78 2.752200 1_555
Al19 Al49 2.773142 1_555
Al19 Al48 2.830661 1_555
Al19 Al45 2.913141 1_555
Al19 Nd9 3.102544 1_555
Al19 Nd11 3.364581 1_655
Al20 Mo0 2.717620 1_555
Al20 Al78 2.752198 1_555
Al20 Al50 2.773142 1_555
Al20 Al49 2.830661 1_555
Al20 Al46 2.913141 1_555
Al20 Nd10 3.102544 1_555
Al20 Nd9 3.364580 1_555
Al21 Mo2 2.717620 1_555
Al21 Al79 2.752190 1_555
Al21 Al51 2.773142 1_555
Al21 Al53 2.830661 1_555
Al21 Al46 2.913141 1_565
Al21 Nd10 3.102544 1_565
Al21 Nd11 3.364580 1_555
Al22 Mo1 2.717620 1_565
Al22 Al79 2.752200 1_555
Al22 Al52 2.773142 1_555
Al22 Al51 2.830661 1_555
Al22 Al45 2.913141 1_555
Al22 Nd9 3.102544 1_555
Al22 Nd10 3.364581 1_565
Al23 Mo0 2.717620 1_555
Al23 Al79 2.752198 1_555
Al23 Al53 2.773142 1_555
Al23 Al52 2.830661 1_555
Al23 Al47 2.913141 1_555
Al23 Nd11 3.102544 1_555
Al23 Nd9 3.364580 1_555
Al24 Mo3 2.695622 1_555
Al24 Mo7 2.700609 1_665
Al24 Al45 2.819724 1_555
Al24 Al43 2.862019 1_565
Al24 Al44 2.862019 1_655
Al24 Nd6 3.498386 1_555
Al25 Mo4 2.695622 1_555
Al25 Mo7 2.700609 1_555
Al25 Al46 2.819724 1_555
Al25 Al44 2.862019 1_545
Al25 Al42 2.862019 1_555
Al25 Nd7 3.498386 1_555
Al26 Mo5 2.695622 1_555
Al26 Mo7 2.700609 1_555
Al26 Al47 2.819724 1_555
Al26 Al43 2.862019 1_455
Al26 Al42 2.862019 1_555
Al26 Nd8 3.498386 1_555
Al27 Mo0 2.695622 1_555
Al27 Mo7 2.700609 1_555
Al27 Al42 2.819724 1_555
Al27 Al46 2.862019 1_555
Al27 Al47 2.862019 1_555
Al27 Nd9 3.498386 1_555
Al28 Mo1 2.695622 1_555
Al28 Mo7 2.700609 1_655
Al28 Al43 2.819724 1_555
Al28 Al47 2.862019 1_655
Al28 Al45 2.862019 1_545
Al28 Nd10 3.498386 1_555
Al29 Mo2 2.695622 1_555
Al29 Mo7 2.700609 1_565
Al29 Al44 2.819724 1_555
Al29 Al46 2.862019 1_565
Al29 Al45 2.862019 1_455
Al29 Nd11 3.498386 1_555
Al30 Mo0 2.695622 1_555
Al30 Mo6 2.700609 1_556
Al30 Al39 2.819724 1_556
Al30 Al37 2.862019 1_555
Al30 Al38 2.862019 1_555
Al30 Nd0 3.498386 1_555
Al31 Mo1 2.695622 1_555
Al31 Mo6 2.700609 1_656
Al31 Al40 2.819724 1_556
Al31 Al38 2.862019 1_655
Al31 Al36 2.862019 1_545
Al31 Nd1 3.498386 1_555
Al32 Mo2 2.695622 1_555
Al32 Mo6 2.700609 1_566
Al32 Al41 2.819724 1_556
Al32 Al37 2.862019 1_565
Al32 Al36 2.862019 1_455
Al32 Nd2 3.498386 1_555
Al33 Mo3 2.695622 1_555
Al33 Mo6 2.700609 1_665
Al33 Al36 2.819724 1_554
Al33 Al40 2.862019 1_565
Al33 Al41 2.862019 1_655
Al33 Nd3 3.498386 1_555
Al34 Mo4 2.695622 1_555
Al34 Mo6 2.700609 1_555
Al34 Al37 2.819724 1_554
Al34 Al41 2.862019 1_545
Al34 Al39 2.862019 1_555
Al34 Nd4 3.498386 1_555
Al35 Mo5 2.695622 1_555
Al35 Mo6 2.700609 1_555
Al35 Al38 2.819724 1_554
Al35 Al40 2.862019 1_455
Al35 Al39 2.862019 1_555
Al35 Nd5 3.498386 1_555
Al36 Al64 2.780631 1_556
Al36 Al61 2.780631 1_556
Al36 Mo6 2.837723 1_666
Al36 Al4 2.913141 1_555
Al36 Al40 2.998192 1_566
Al36 Al41 2.998192 1_656
Al36 Nd0 3.302005 1_555
Al36 Nd3 3.322357 1_556
Al37 Al62 2.780631 1_556
Al37 Al63 2.780631 1_546
Al37 Mo6 2.837723 1_556
Al37 Al41 2.998191 1_546
Al37 Al39 2.998192 1_556
Al37 Nd1 3.302005 1_555
Al37 Nd4 3.322357 1_556
Al38 Al65 2.780631 1_556
Al38 Al60 2.780631 1_456
Al38 Mo6 2.837723 1_556
Al38 Al5 2.913141 1_555
Al38 Al40 2.998191 1_456
Al38 Al39 2.998192 1_556
Al38 Nd2 3.302005 1_555
Al38 Nd5 3.322357 1_556
Al39 Al62 2.780631 1_555
Al39 Al65 2.780631 1_555
Al39 Mo6 2.837723 1_555
Al39 Al7 2.913141 1_555
Al39 Nd3 3.302005 1_555
Al39 Nd0 3.322357 1_554
Al40 Al64 2.780631 1_545
Al40 Al60 2.780631 1_555
Al40 Mo6 2.837723 1_655
Al40 Al8 2.913141 1_545
Al40 Al9 2.913141 1_555
Al40 Nd4 3.302005 1_555
Al40 Nd1 3.322357 1_554
Al41 Al61 2.780631 1_455
Al41 Al63 2.780631 1_555
Al41 Mo6 2.837723 1_565
Al41 Al6 2.913141 1_555
Al41 Nd5 3.302005 1_555
Al41 Nd2 3.322357 1_554
Al42 Al67 2.780631 1_555
Al42 Al70 2.780631 1_555
Al42 Mo7 2.837723 1_555
Al42 Al46 2.998192 1_555
Al42 Al47 2.998192 1_555
Al42 Nd6 3.302005 1_555
Al42 Nd9 3.322357 1_555
Al43 Al68 2.780631 1_545
Al43 Al69 2.780631 1_555
Al43 Mo7 2.837723 1_655
Al43 Al47 2.998191 1_655
Al43 Al45 2.998192 1_545
Al43 Nd7 3.302005 1_555
Al43 Nd10 3.322357 1_555
Al44 Al71 2.780631 1_455
Al44 Al66 2.780631 1_555
Al44 Mo7 2.837723 1_565
Al44 Al46 2.998191 1_565
Al44 Al45 2.998192 1_455
Al44 Nd8 3.302005 1_555
Al44 Nd11 3.322357 1_555
Al45 Al71 2.780631 1_555
Al45 Al68 2.780631 1_555
Al45 Mo7 2.837723 1_665
Al45 Nd9 3.302005 1_555
Al45 Nd6 3.322357 1_555
Al46 Al70 2.780631 1_555
Al46 Al66 2.780631 1_545
Al46 Mo7 2.837723 1_555
Al46 Nd10 3.302005 1_555
Al46 Nd7 3.322357 1_555
Al47 Al67 2.780631 1_555
Al47 Al69 2.780631 1_455
Al47 Mo7 2.837723 1_555
Al47 Nd11 3.302005 1_555
Al47 Nd8 3.322357 1_555
Al48 Mo2 2.720338 1_655
Al48 Al72 2.833776 1_555
Al48 Al78 2.833776 1_555
Al48 Al53 2.845875 1_655
Al48 Nd2 3.106739 1_655
Al48 Nd11 3.106739 1_655
Al49 Mo0 2.720338 1_555
Al49 Al72 2.833781 1_555
Al49 Al78 2.833781 1_555
Al49 Al52 2.845875 1_555
Al49 Nd0 3.106740 1_555
Al49 Nd9 3.106740 1_555
Al50 Mo1 2.720338 1_555
Al50 Al78 2.833775 1_555
Al50 Al72 2.833775 1_555
Al50 Al51 2.845875 1_545
Al50 Nd1 3.106739 1_555
Al50 Nd10 3.106739 1_555
Al51 Mo1 2.720338 1_565
Al51 Al79 2.833776 1_555
Al51 Al73 2.833776 1_555
Al51 Nd1 3.106739 1_565
Al51 Nd10 3.106739 1_565
Al52 Mo0 2.720338 1_555
Al52 Al79 2.833781 1_555
Al52 Al73 2.833781 1_555
Al52 Nd0 3.106740 1_555
Al52 Nd9 3.106740 1_555
Al53 Mo2 2.720338 1_555
Al53 Al73 2.833775 1_555
Al53 Al79 2.833775 1_555
Al53 Nd2 3.106739 1_555
Al53 Nd11 3.106739 1_555
Al54 Mo5 2.720338 1_555
Al54 Al6 2.773142 1_555
Al54 Al7 2.830661 1_555
Al54 Al76 2.833776 1_555
Al54 Al74 2.833776 1_555
Al54 Al59 2.845875 1_455
Al54 Nd8 3.106739 1_555
Al54 Nd5 3.106739 1_555
Al55 Mo3 2.720338 1_555
Al55 Al7 2.773142 1_555
Al55 Al8 2.830661 1_555
Al55 Al76 2.833781 1_555
Al55 Al74 2.833781 1_555
Al55 Al58 2.845875 1_555
Al55 Nd6 3.106740 1_555
Al55 Nd3 3.106740 1_555
Al56 Mo4 2.720338 1_565
Al56 Al8 2.773142 1_555
Al56 Al6 2.830661 1_555
Al56 Al76 2.833775 1_555
Al56 Al74 2.833775 1_555
Al56 Al57 2.845875 1_565
Al56 Nd7 3.106739 1_565
Al56 Nd4 3.106739 1_565
Al57 Mo4 2.720338 1_555
Al57 Al9 2.773142 1_555
Al57 Al77 2.833776 1_555
Al57 Al75 2.833776 1_555
Al57 Nd7 3.106739 1_555
Al57 Nd4 3.106739 1_555
Al58 Mo3 2.720338 1_555
Al58 Al75 2.833781 1_555
Al58 Al77 2.833781 1_555
Al58 Nd6 3.106740 1_555
Al58 Nd3 3.106740 1_555
Al59 Mo5 2.720338 1_655
Al59 Al9 2.830661 1_555
Al59 Al77 2.833775 1_555
Al59 Al75 2.833775 1_555
Al59 Nd8 3.106739 1_655
Al59 Nd5 3.106739 1_655
Al60 Al75 2.810604 1_555
Al60 Al72 2.810604 1_554
Al60 Al62 2.874901 1_555
Al60 Al61 2.874901 1_555
Al60 Nd5 3.121997 1_655
Al60 Nd1 3.121997 1_554
Al60 Nd4 3.412293 1_555
Al60 Nd2 3.412293 1_654
Al61 Al75 2.810610 1_555
Al61 Al72 2.810610 1_554
Al61 Al62 2.874901 1_555
Al61 Nd2 3.121997 1_654
Al61 Nd3 3.121997 1_555
Al61 Nd0 3.412293 1_554
Al61 Nd5 3.412293 1_655
Al62 Al75 2.810610 1_555
Al62 Al72 2.810610 1_554
Al62 Nd4 3.121997 1_555
Al62 Nd0 3.121997 1_554
Al62 Nd3 3.412293 1_555
Al62 Nd1 3.412293 1_554
Al63 Al74 2.810604 1_555
Al63 Al73 2.810604 1_554
Al63 Al65 2.874901 1_555
Al63 Al64 2.874901 1_555
Al63 Nd4 3.121997 1_565
Al63 Nd2 3.121997 1_554
Al63 Nd5 3.412293 1_555
Al63 Nd1 3.412293 1_564
Al64 Al74 2.810610 1_555
Al64 Al73 2.810610 1_554
Al64 Al65 2.874901 1_555
Al64 Nd1 3.121997 1_564
Al64 Nd3 3.121997 1_555
Al64 Nd0 3.412293 1_554
Al64 Nd4 3.412293 1_565
Al65 Al74 2.810610 1_555
Al65 Al73 2.810610 1_554
Al65 Nd5 3.121997 1_555
Al65 Nd0 3.121997 1_554
Al65 Nd3 3.412293 1_555
Al65 Nd2 3.412293 1_554
Al66 Al79 2.810604 1_555
Al66 Al76 2.810604 1_555
Al66 Al67 2.874901 1_555
Al66 Al68 2.874901 1_555
Al66 Nd11 3.121997 1_555
Al66 Nd7 3.121997 1_565
Al66 Nd10 3.412293 1_565
Al66 Nd8 3.412293 1_555
Al67 Al79 2.810610 1_555
Al67 Al76 2.810610 1_555
Al67 Al68 2.874901 1_555
Al67 Nd8 3.121997 1_555
Al67 Nd9 3.121997 1_555
Al67 Nd6 3.412293 1_555
Al67 Nd11 3.412293 1_555
Al68 Al79 2.810610 1_555
Al68 Al76 2.810610 1_555
Al68 Nd10 3.121997 1_565
Al68 Nd6 3.121997 1_555
Al68 Nd9 3.412293 1_555
Al68 Nd7 3.412293 1_565
Al69 Al77 2.810604 1_555
Al69 Al78 2.810604 1_555
Al69 Al70 2.874901 1_555
Al69 Al71 2.874901 1_555
Al69 Nd10 3.121997 1_555
Al69 Nd8 3.121997 1_655
Al69 Nd11 3.412293 1_655
Al69 Nd7 3.412293 1_555
Al70 Al77 2.810610 1_555
Al70 Al78 2.810610 1_555
Al70 Al71 2.874901 1_555
Al70 Nd7 3.121997 1_555
Al70 Nd9 3.121997 1_555
Al70 Nd6 3.412293 1_555
Al70 Nd10 3.412293 1_555
Al71 Al77 2.810610 1_555
Al71 Al78 2.810610 1_555
Al71 Nd11 3.121997 1_655
Al71 Nd6 3.121997 1_555
Al71 Nd9 3.412293 1_555
Al71 Nd8 3.412293 1_655
Al72 Nd1 3.272923 1_555
Al72 Nd2 3.272924 1_655
Al72 Nd0 3.272933 1_555
Al73 Nd2 3.272923 1_555
Al73 Nd1 3.272924 1_565
Al73 Nd0 3.272933 1_555
Al74 Al8 2.752198 1_555
Al74 Nd4 3.272923 1_565
Al74 Nd5 3.272924 1_555
Al74 Nd3 3.272933 1_555
Al75 Al9 2.752190 1_555
Al75 Nd5 3.272923 1_655
Al75 Nd4 3.272924 1_555
Al75 Nd3 3.272933 1_555
Al76 Nd7 3.272923 1_565
Al76 Nd8 3.272924 1_555
Al76 Nd6 3.272933 1_555
Al77 Nd8 3.272923 1_655
Al77 Nd7 3.272924 1_555
Al77 Nd6 3.272933 1_555
Al78 Nd10 3.272923 1_555
Al78 Nd11 3.272924 1_655
Al78 Nd9 3.272933 1_555
Al79 Nd11 3.272923 1_555
Al79 Nd10 3.272924 1_565
Al79 Nd9 3.272933 1_555
Al80 Mo2 2.585982 1_655
Al80 Mo1 2.585982 1_565
Al81 Mo2 2.585982 1_545
Al81 Mo0 2.585982 1_555
Al82 Mo1 2.585982 1_455
Al82 Mo0 2.585982 1_555
Al83 Mo4 2.585982 1_555
Al83 Mo5 2.585982 1_555
Al84 Mo5 2.585982 1_655
Al84 Mo3 2.585982 1_545
Al85 Mo4 2.585982 1_565
Al85 Mo3 2.585982 1_455
Mo0 Nd0 3.555077 1_555
Mo0 Nd9 3.555077 1_555
Mo1 Nd1 3.555077 1_555
Mo1 Nd10 3.555077 1_555
Mo2 Nd2 3.555077 1_555
Mo2 Nd11 3.555077 1_555
Mo3 Nd6 3.555077 1_555
Mo3 Nd3 3.555077 1_555
Mo4 Nd7 3.555077 1_555
Mo4 Nd4 3.555077 1_555
Mo5 Nd8 3.555077 1_555
Mo5 Nd5 3.555077 1_555
