# generated using pymatgen
data_Ba2CeZrO6
_symmetry_space_group_name_H-M   'P 1'
_cell_length_a   8.71455965
_cell_length_b   8.71455965
_cell_length_c   8.71455965
_cell_angle_alpha   90.00000000
_cell_angle_beta   90.00000000
_cell_angle_gamma   90.00000000
_symmetry_Int_Tables_number   1
_chemical_formula_structural   Ba2CeZrO6
_chemical_formula_sum   'Ba8 Ce4 Zr4 O24'
_cell_volume   661.81459558
_cell_formula_units_Z   4
loop_
 _symmetry_equiv_pos_site_id
 _symmetry_equiv_pos_as_xyz
  1  'x, y, z'
loop_
 _atom_site_type_symbol
 _atom_site_label
 _atom_site_symmetry_multiplicity
 _atom_site_fract_x
 _atom_site_fract_y
 _atom_site_fract_z
 _atom_site_occupancy
  Ba  Ba0  1  0.50000000  0.50000000  0.50000000  1
  Ba  Ba1  1  0.00000000  0.00000000  0.00000000  1
  Ba  Ba2  1  0.00000000  0.00000000  0.50000000  1
  Ba  Ba3  1  0.00000000  0.50000000  0.00000000  1
  Ba  Ba4  1  0.50000000  0.00000000  0.00000000  1
  Ba  Ba5  1  0.50000000  0.50000000  0.00000000  1
  Ba  Ba6  1  0.50000000  0.00000000  0.50000000  1
  Ba  Ba7  1  0.00000000  0.50000000  0.50000000  1
  Ce  Ce0  1  0.75000000  0.75000000  0.75000000  1
  Ce  Ce1  1  0.75000000  0.25000000  0.25000000  1
  Ce  Ce2  1  0.25000000  0.75000000  0.25000000  1
  Ce  Ce3  1  0.25000000  0.25000000  0.75000000  1
  Zr  Zr0  1  0.25000000  0.25000000  0.25000000  1
  Zr  Zr1  1  0.25000000  0.75000000  0.75000000  1
  Zr  Zr2  1  0.75000000  0.25000000  0.75000000  1
  Zr  Zr3  1  0.75000000  0.75000000  0.25000000  1
  O  O0  1  0.23019077  0.27162357  0.49286640  1
  O  O1  1  0.23019077  0.72837643  0.50713360  1
  O  O2  1  0.76980923  0.27162357  0.50713360  1
  O  O3  1  0.76980923  0.72837643  0.49286640  1
  O  O4  1  0.27162357  0.49286640  0.23019077  1
  O  O5  1  0.72837643  0.50713360  0.23019077  1
  O  O6  1  0.27162357  0.50713360  0.76980923  1
  O  O7  1  0.72837643  0.49286640  0.76980923  1
  O  O8  1  0.49286640  0.23019077  0.27162357  1
  O  O9  1  0.50713360  0.23019077  0.72837643  1
  O  O10  1  0.50713360  0.76980923  0.27162357  1
  O  O11  1  0.49286640  0.76980923  0.72837643  1
  O  O12  1  0.26980923  0.22837643  0.00713360  1
  O  O13  1  0.26980923  0.77162357  0.99286640  1
  O  O14  1  0.73019077  0.22837643  0.99286640  1
  O  O15  1  0.73019077  0.77162357  0.00713360  1
  O  O16  1  0.22837643  0.00713360  0.26980923  1
  O  O17  1  0.77162357  0.99286640  0.26980923  1
  O  O18  1  0.22837643  0.99286640  0.73019077  1
  O  O19  1  0.77162357  0.00713360  0.73019077  1
  O  O20  1  0.00713360  0.26980923  0.22837643  1
  O  O21  1  0.99286640  0.26980923  0.77162357  1
  O  O22  1  0.99286640  0.73019077  0.22837643  1
  O  O23  1  0.00713360  0.73019077  0.77162357  1
loop_
_geom_bond_atom_site_label_1
_geom_bond_atom_site_label_2
_geom_bond_distance
_geom_bond_site_symmetry_2
Ba0 O11 3.081108 1_555
Ba0 O7 3.081108 1_555
Ba0 O5 3.081108 1_555
Ba0 O9 3.081108 1_555
Ba0 O3 3.081108 1_555
Ba0 O1 3.081108 1_555
Ba0 O10 3.081108 1_555
Ba0 O2 3.081108 1_555
Ba0 O4 3.081108 1_555
Ba0 O6 3.081108 1_555
Ba0 O8 3.081108 1_555
Ba0 O0 3.081108 1_555
Ba1 O17 3.081108 1_445
Ba1 O22 3.081108 1_445
Ba1 O14 3.081108 1_454
Ba1 O23 3.081108 1_544
Ba1 O19 3.081108 1_454
Ba1 O15 3.081108 1_445
Ba1 O16 3.081108 1_555
Ba1 O21 3.081108 1_454
Ba1 O18 3.081108 1_544
Ba1 O12 3.081108 1_555
Ba1 O20 3.081108 1_555
Ba1 O13 3.081108 1_544
Ba2 O17 2.826454 1_445
Ba2 O19 2.826454 1_455
Ba2 O16 2.826454 1_555
Ba2 O18 2.826454 1_545
Ba2 O0 3.103387 1_555
Ba2 O2 3.103387 1_455
Ba2 O1 3.103387 1_545
Ba2 O3 3.103387 1_445
Ba2 O20 3.336974 1_555
Ba2 O22 3.336974 1_445
Ba2 O21 3.336974 1_455
Ba2 O23 3.336974 1_545
Ba3 O21 2.826454 1_454
Ba3 O22 2.826454 1_455
Ba3 O20 2.826454 1_555
Ba3 O23 2.826454 1_554
Ba3 O6 3.103387 1_554
Ba3 O4 3.103387 1_555
Ba3 O5 3.103387 1_455
Ba3 O7 3.103387 1_454
Ba3 O14 3.336974 1_454
Ba3 O13 3.336974 1_554
Ba3 O12 3.336974 1_555
Ba3 O15 3.336974 1_455
Ba4 O13 2.826454 1_544
Ba4 O15 2.826454 1_545
Ba4 O12 2.826454 1_555
Ba4 O14 2.826454 1_554
Ba4 O10 3.103387 1_545
Ba4 O8 3.103387 1_555
Ba4 O9 3.103387 1_554
Ba4 O11 3.103387 1_544
Ba4 O17 3.336974 1_545
Ba4 O16 3.336974 1_555
Ba4 O18 3.336974 1_544
Ba4 O19 3.336974 1_554
Ba5 O5 2.826454 1_555
Ba5 O7 2.826454 1_554
Ba5 O6 2.826454 1_554
Ba5 O4 2.826454 1_555
Ba5 O15 3.103387 1_555
Ba5 O12 3.103387 1_555
Ba5 O13 3.103387 1_554
Ba5 O14 3.103387 1_554
Ba5 O8 3.336974 1_555
Ba5 O10 3.336974 1_555
Ba5 O9 3.336974 1_554
Ba5 O11 3.336974 1_554
Ba6 O10 2.826454 1_545
Ba6 O9 2.826454 1_555
Ba6 O11 2.826454 1_545
Ba6 O8 2.826454 1_555
Ba6 O17 3.103387 1_545
Ba6 O16 3.103387 1_555
Ba6 O19 3.103387 1_555
Ba6 O18 3.103387 1_545
Ba6 O2 3.336974 1_555
Ba6 O0 3.336974 1_555
Ba6 O1 3.336974 1_545
Ba6 O3 3.336974 1_545
Ba7 O1 2.826454 1_555
Ba7 O3 2.826454 1_455
Ba7 O2 2.826454 1_455
Ba7 O0 2.826454 1_555
Ba7 O21 3.103387 1_455
Ba7 O22 3.103387 1_455
Ba7 O23 3.103387 1_555
Ba7 O20 3.103387 1_555
Ba7 O4 3.336974 1_555
Ba7 O6 3.336974 1_555
Ba7 O7 3.336974 1_455
Ba7 O5 3.336974 1_455
Ce0 O19 2.255332 1_565
Ce0 O23 2.255332 1_655
Ce0 O15 2.255332 1_556
Ce0 O7 2.255332 1_555
Ce0 O3 2.255332 1_555
Ce0 O11 2.255332 1_555
Ce1 O2 2.255332 1_555
Ce1 O17 2.255332 1_545
Ce1 O14 2.255332 1_554
Ce1 O20 2.255332 1_655
Ce1 O5 2.255332 1_555
Ce1 O8 2.255332 1_555
Ce2 O13 2.255332 1_554
Ce2 O10 2.255332 1_555
Ce2 O1 2.255332 1_555
Ce2 O16 2.255332 1_565
Ce2 O22 2.255332 1_455
Ce2 O4 2.255332 1_555
Ce3 O18 2.255332 1_545
Ce3 O21 2.255332 1_455
Ce3 O12 2.255332 1_556
Ce3 O6 2.255332 1_555
Ce3 O9 2.255332 1_555
Ce3 O0 2.255332 1_555
O0 Zr0 2.131847 1_555
O1 Zr1 2.131847 1_555
O2 Zr2 2.131847 1_555
O3 Zr3 2.131847 1_555
O4 Zr0 2.131847 1_555
O5 Zr3 2.131847 1_555
O6 Zr1 2.131847 1_555
O7 Zr2 2.131847 1_555
O8 Zr0 2.131847 1_555
O9 Zr2 2.131847 1_555
O10 Zr3 2.131847 1_555
O11 Zr1 2.131847 1_555
O12 Zr0 2.131847 1_555
O13 Zr1 2.131847 1_555
O14 Zr2 2.131847 1_555
O15 Zr3 2.131847 1_555
O16 Zr0 2.131847 1_555
O17 Zr3 2.131847 1_555
O18 Zr1 2.131847 1_555
O19 Zr2 2.131847 1_555
O20 Zr0 2.131847 1_555
O21 Zr2 2.131847 1_555
O22 Zr3 2.131847 1_555
O23 Zr1 2.131847 1_555
