# generated using pymatgen
data_Tb(BIr)2
_symmetry_space_group_name_H-M   'P 1'
_cell_length_a   7.16830528
_cell_length_b   6.17071802
_cell_length_c   5.47422246
_cell_angle_alpha   75.72356219
_cell_angle_beta   56.53768512
_cell_angle_gamma   47.73875269
_symmetry_Int_Tables_number   1
_chemical_formula_structural   Tb(BIr)2
_chemical_formula_sum   'Tb2 B4 Ir4'
_cell_volume   146.44699575
_cell_formula_units_Z   2
loop_
 _symmetry_equiv_pos_site_id
 _symmetry_equiv_pos_as_xyz
  1  'x, y, z'
loop_
 _atom_site_type_symbol
 _atom_site_label
 _atom_site_symmetry_multiplicity
 _atom_site_fract_x
 _atom_site_fract_y
 _atom_site_fract_z
 _atom_site_occupancy
  Tb  Tb0  1  0.50000000  0.50000000  0.50000000  1
  Tb  Tb1  1  0.75000000  0.75000000  0.75000000  1
  B  B0  1  0.18000882  0.81999118  0.18000882  1
  B  B1  1  0.06999118  0.43000882  0.06999118  1
  B  B2  1  0.81999118  0.18000782  0.81999118  1
  B  B3  1  0.43000882  0.06999118  0.43000882  1
  Ir  Ir0  1  0.87294018  0.87294018  0.12705982  1
  Ir  Ir1  1  0.12705982  0.12705982  0.87294018  1
  Ir  Ir2  1  0.37705982  0.37705982  0.12294018  1
  Ir  Ir3  1  0.12294018  0.12294018  0.37705982  1
loop_
_geom_bond_atom_site_label_1
_geom_bond_atom_site_label_2
_geom_bond_distance
_geom_bond_site_symmetry_2
B0 Ir3 2.074842 1_565
B0 Ir2 2.074842 1_555
B0 Ir1 2.173806 1_564
B0 Ir0 2.173806 1_455
B0 Tb0 2.976914 1_555
B0 Tb1 3.153319 1_554
B0 Tb1 3.153319 1_455
B0 Tb0 3.336849 1_465
B0 Tb0 3.336849 1_554
B1 Ir1 2.074842 1_554
B1 Ir0 2.074842 1_455
B1 Ir2 2.173806 1_555
B1 Ir3 2.173806 1_555
B1 Tb1 2.976914 1_454
B1 Tb0 3.153319 1_554
B1 Tb0 3.153319 1_455
B1 Tb1 3.336849 1_544
B1 Tb1 3.336849 1_455
B2 Ir2 2.074840 1_556
B2 Ir3 2.074843 1_655
B2 Ir0 2.173803 1_546
B2 Ir1 2.173810 1_655
B2 Tb0 2.976914 1_555
B2 Tb1 3.153313 1_545
B2 Tb1 3.153325 1_555
B2 Tb0 3.336847 1_645
B2 Tb0 3.336852 1_556
B3 Ir0 2.074842 1_545
B3 Ir1 2.074842 1_555
B3 Ir2 2.173806 1_555
B3 Ir3 2.173806 1_555
B3 Tb1 2.976914 1_545
B3 Tb0 3.153319 1_555
B3 Tb0 3.153319 1_545
B3 Tb1 3.336849 1_455
B3 Tb1 3.336849 1_544
Ir0 Tb1 3.047989 1_555
Ir0 Tb1 3.047989 1_554
Ir0 Tb0 3.201740 1_565
Ir0 Tb0 3.201740 1_654
Ir1 Tb1 3.047989 1_455
Ir1 Tb1 3.047989 1_545
Ir1 Tb0 3.201740 1_545
Ir1 Tb0 3.201740 1_456
Ir2 Tb0 3.047989 1_554
Ir2 Tb0 3.047989 1_555
Ir2 Tb1 3.201740 1_455
Ir2 Tb1 3.201740 1_544
Ir3 Tb0 3.047989 1_545
Ir3 Tb0 3.047989 1_455
Ir3 Tb1 3.201740 1_544
Ir3 Tb1 3.201740 1_455
