# generated using pymatgen
data_Sc6Sn5
_symmetry_space_group_name_H-M   'P 1'
_cell_length_a   6.11095595
_cell_length_b   8.86265398
_cell_length_c   10.95433272
_cell_angle_alpha   113.85543141
_cell_angle_beta   106.19728098
_cell_angle_gamma   89.99970826
_symmetry_Int_Tables_number   1
_chemical_formula_structural   Sc6Sn5
_chemical_formula_sum   'Sc12 Sn10'
_cell_volume   516.74100957
_cell_formula_units_Z   2
loop_
 _symmetry_equiv_pos_site_id
 _symmetry_equiv_pos_as_xyz
  1  'x, y, z'
loop_
 _atom_site_type_symbol
 _atom_site_label
 _atom_site_symmetry_multiplicity
 _atom_site_fract_x
 _atom_site_fract_y
 _atom_site_fract_z
 _atom_site_occupancy
  Sc  Sc0  1  0.55621343  0.30639649  0.61249638  1
  Sc  Sc1  1  0.44381799  0.69363187  0.38755820  1
  Sc  Sc2  1  0.94385932  0.69388085  0.38757291  1
  Sc  Sc3  1  0.05616648  0.30614676  0.61248145  1
  Sc  Sc4  1  0.43874695  0.67792468  0.87763185  1
  Sc  Sc5  1  0.56122513  0.32206515  0.12230905  1
  Sc  Sc6  1  0.93873790  0.19958280  0.87753893  1
  Sc  Sc7  1  0.06123758  0.80037046  0.12240933  1
  Sc  Sc8  1  0.14147068  0.25703278  0.28267824  1
  Sc  Sc9  1  0.85853360  0.74296851  0.71732997  1
  Sc  Sc10  1  0.64148057  0.02569110  0.28275254  1
  Sc  Sc11  1  0.35852395  0.97431548  0.71725526  1
  Sn  Sn0  1  0.29212393  0.59600208  0.58438918  1
  Sn  Sn1  1  0.70790124  0.40402133  0.41565874  1
  Sn  Sn2  1  0.79206412  0.98843937  0.58432532  1
  Sn  Sn3  1  0.20795144  0.01158617  0.41571701  1
  Sn  Sn4  1  0.25001374  0.99998776  -0.00001033  1
  Sn  Sn5  1  0.74996343  0.00000026  -0.00001701  1
  Sn  Sn6  1  0.07249489  0.47660489  0.14489561  1
  Sn  Sn7  1  0.92749267  0.52337002  0.85506634  1
  Sn  Sn8  1  0.57260422  0.66837763  0.14497057  1
  Sn  Sn9  1  0.42737672  0.33160456  0.85498946  1
loop_
_geom_bond_atom_site_label_1
_geom_bond_atom_site_label_2
_geom_bond_distance
_geom_bond_site_symmetry_2
Sc0 Sn7 2.899970 1_555
Sc0 Sn9 2.900468 1_555
Sc0 Sn1 2.980142 1_555
Sc0 Sn3 2.981222 1_555
Sc0 Sc3 3.055237 1_655
Sc0 Sc3 3.055720 1_555
Sc0 Sn0 3.106293 1_555
Sc0 Sn2 3.107734 1_545
Sc1 Sn6 2.900686 1_555
Sc1 Sn8 2.901180 1_555
Sc1 Sn0 2.980119 1_555
Sc1 Sn2 2.981135 1_555
Sc1 Sc2 3.055271 1_455
Sc1 Sc2 3.055686 1_555
Sc1 Sn1 3.106291 1_555
Sc1 Sn3 3.107779 1_565
Sc2 Sn8 2.900213 1_555
Sc2 Sn6 2.901405 1_655
Sc2 Sn0 2.980445 1_655
Sc2 Sn2 2.980787 1_555
Sc2 Sn3 3.106143 1_665
Sc2 Sn1 3.108056 1_555
Sc3 Sn9 2.899497 1_555
Sc3 Sn7 2.900659 1_455
Sc3 Sn1 2.980471 1_455
Sc3 Sn3 2.980826 1_555
Sc3 Sn2 3.106135 1_445
Sc3 Sn0 3.108062 1_555
Sc4 Sn8 2.848943 1_556
Sc4 Sn0 2.855957 1_555
Sc4 Sn9 2.976853 1_555
Sc4 Sn4 3.006960 1_556
Sc4 Sn5 3.007434 1_566
Sc4 Sn7 3.315664 1_455
Sc4 Sn7 3.315980 1_555
Sc5 Sn9 2.848712 1_554
Sc5 Sn1 2.856993 1_555
Sc5 Sn8 2.976714 1_555
Sc5 Sn5 3.006929 1_555
Sc5 Sn4 3.007471 1_545
Sc5 Sn6 3.315619 1_655
Sc5 Sn6 3.315879 1_555
Sc6 Sn6 2.849857 1_656
Sc6 Sn2 2.855524 1_545
Sc6 Sn7 2.976905 1_555
Sc6 Sn5 3.006808 1_556
Sc6 Sn4 3.007076 1_646
Sc6 Sn9 3.315399 1_655
Sc6 Sn9 3.316354 1_555
Sc7 Sn7 2.849681 1_454
Sc7 Sn3 2.856448 1_565
Sc7 Sn6 2.976783 1_555
Sc7 Sn4 3.006838 1_555
Sc7 Sn5 3.007172 1_465
Sc7 Sn8 3.315331 1_455
Sc7 Sn8 3.316281 1_555
Sc8 Sn6 2.874609 1_555
Sc8 Sn3 3.042172 1_555
Sc8 Sn4 3.264787 1_545
Sc8 Sn5 3.265536 1_455
Sc8 Sn0 3.326757 1_555
Sc8 Sn1 3.384170 1_555
Sc8 Sn1 3.384861 1_455
Sc9 Sn7 2.874433 1_555
Sc9 Sn2 3.042094 1_555
Sc9 Sn5 3.264546 1_566
Sc9 Sn4 3.265242 1_656
Sc9 Sn1 3.326419 1_555
Sc9 Sn0 3.384018 1_555
Sc9 Sn0 3.384720 1_655
Sc10 Sn8 2.874548 1_545
Sc10 Sn1 3.041189 1_555
Sc10 Sn5 3.265163 1_555
Sc10 Sn4 3.265641 1_545
Sc10 Sn2 3.324954 1_545
Sc10 Sn3 3.384478 1_655
Sc10 Sn3 3.384649 1_555
Sc11 Sn9 2.874335 1_565
Sc11 Sn0 3.041056 1_555
Sc11 Sn4 3.264917 1_556
Sc11 Sn5 3.265339 1_566
Sc11 Sn3 3.324676 1_565
Sc11 Sn2 3.384392 1_455
Sc11 Sn2 3.384495 1_555
Sn4 Sn5 3.055191 1_565
Sn4 Sn5 3.055765 1_465
Sn6 Sn7 3.245260 1_454
Sn8 Sn9 3.247299 1_554
