# generated using pymatgen
data_LiTi3Zn2O8
_symmetry_space_group_name_H-M   'P 1'
_cell_length_a   8.48733800
_cell_length_b   8.48733800
_cell_length_c   8.48733800
_cell_angle_alpha   90.00000000
_cell_angle_beta   90.00000000
_cell_angle_gamma   90.00000000
_symmetry_Int_Tables_number   1
_chemical_formula_structural   LiTi3Zn2O8
_chemical_formula_sum   'Li4 Ti12 Zn8 O32'
_cell_volume   611.38459779
_cell_formula_units_Z   4
loop_
 _symmetry_equiv_pos_site_id
 _symmetry_equiv_pos_as_xyz
  1  'x, y, z'
loop_
 _atom_site_type_symbol
 _atom_site_label
 _atom_site_symmetry_multiplicity
 _atom_site_fract_x
 _atom_site_fract_y
 _atom_site_fract_z
 _atom_site_occupancy
  Li  Li0  1  0.37500000  0.37500000  0.37500000  1
  Li  Li1  1  0.12500000  0.62500000  0.87500000  1
  Li  Li2  1  0.62500000  0.87500000  0.12500000  1
  Li  Li3  1  0.87500000  0.12500000  0.62500000  1
  Ti  Ti0  1  0.12500000  0.13033600  0.38033600  1
  Ti  Ti1  1  0.37500000  0.86966400  0.88033600  1
  Ti  Ti2  1  0.87500000  0.63033600  0.11966400  1
  Ti  Ti3  1  0.38033600  0.12500000  0.13033600  1
  Ti  Ti4  1  0.88033600  0.37500000  0.86966400  1
  Ti  Ti5  1  0.62500000  0.36966400  0.61966400  1
  Ti  Ti6  1  0.61966400  0.62500000  0.36966400  1
  Ti  Ti7  1  0.11966400  0.87500000  0.63033600  1
  Ti  Ti8  1  0.13033600  0.38033600  0.12500000  1
  Ti  Ti9  1  0.63033600  0.11966400  0.87500000  1
  Ti  Ti10  1  0.36966400  0.61966400  0.62500000  1
  Ti  Ti11  1  0.86966400  0.88033600  0.37500000  1
  Zn  Zn0  1  0.74923500  0.74923500  0.74923500  1
  Zn  Zn1  1  0.75076500  0.25076500  0.24923500  1
  Zn  Zn2  1  0.25076500  0.24923500  0.75076500  1
  Zn  Zn3  1  0.49923500  0.99923500  0.50076500  1
  Zn  Zn4  1  0.24923500  0.75076500  0.25076500  1
  Zn  Zn5  1  0.00076500  0.00076500  0.00076500  1
  Zn  Zn6  1  0.99923500  0.50076500  0.49923500  1
  Zn  Zn7  1  0.50076500  0.49923500  0.99923500  1
  O  O0  1  0.13658700  0.13658700  0.13658700  1
  O  O1  1  0.36341300  0.86341300  0.63658700  1
  O  O2  1  0.86341300  0.63658700  0.36341300  1
  O  O3  1  0.88658700  0.38658700  0.11341300  1
  O  O4  1  0.63658700  0.36341300  0.86341300  1
  O  O5  1  0.61341300  0.61341300  0.61341300  1
  O  O6  1  0.38658700  0.11341300  0.88658700  1
  O  O7  1  0.11341300  0.88658700  0.38658700  1
  O  O8  1  0.12347300  0.35865300  0.36094300  1
  O  O9  1  0.37652700  0.64134700  0.86094300  1
  O  O10  1  0.87652700  0.85865300  0.13905700  1
  O  O11  1  0.36094300  0.12347300  0.35865300  1
  O  O12  1  0.10865300  0.37347300  0.88905700  1
  O  O13  1  0.62347300  0.14134700  0.63905700  1
  O  O14  1  0.86094300  0.37652700  0.64134700  1
  O  O15  1  0.39134700  0.62652700  0.38905700  1
  O  O16  1  0.13905700  0.87652700  0.85865300  1
  O  O17  1  0.60865300  0.12652700  0.11094300  1
  O  O18  1  0.63905700  0.62347300  0.14134700  1
  O  O19  1  0.89134700  0.87347300  0.61094300  1
  O  O20  1  0.35865300  0.36094300  0.12347300  1
  O  O21  1  0.87347300  0.61094300  0.89134700  1
  O  O22  1  0.85865300  0.13905700  0.87652700  1
  O  O23  1  0.62652700  0.38905700  0.39134700  1
  O  O24  1  0.14134700  0.63905700  0.62347300  1
  O  O25  1  0.37347300  0.88905700  0.10865300  1
  O  O26  1  0.64134700  0.86094300  0.37652700  1
  O  O27  1  0.12652700  0.11094300  0.60865300  1
  O  O28  1  0.88905700  0.10865300  0.37347300  1
  O  O29  1  0.38905700  0.39134700  0.62652700  1
  O  O30  1  0.61094300  0.89134700  0.87347300  1
  O  O31  1  0.11094300  0.60865300  0.12652700  1
loop_
_geom_bond_atom_site_label_1
_geom_bond_atom_site_label_2
_geom_bond_distance
_geom_bond_site_symmetry_2
Li0 O29 2.142623 1_555
Li0 O15 2.142623 1_555
Li0 O23 2.142623 1_555
Li0 O11 2.142623 1_555
Li0 O8 2.142623 1_555
Li0 O20 2.142623 1_555
Li1 O16 2.142623 1_555
Li1 O21 2.142623 1_455
Li1 O24 2.142623 1_555
Li1 O12 2.142623 1_555
Li1 O9 2.142623 1_555
Li1 O31 2.142623 1_556
Li2 O18 2.142623 1_555
Li2 O10 2.142623 1_555
Li2 O30 2.142623 1_554
Li2 O26 2.142623 1_555
Li2 O25 2.142623 1_555
Li2 O17 2.142623 1_565
Li3 O22 2.142623 1_555
Li3 O13 2.142623 1_555
Li3 O19 2.142623 1_545
Li3 O14 2.142623 1_555
Li3 O28 2.142623 1_555
Li3 O27 2.142623 1_655
O0 Zn5 1.996651 1_555
O0 Ti8 2.071796 1_555
O0 Ti0 2.071796 1_555
O0 Ti3 2.071796 1_555
O1 Zn3 1.996651 1_555
O1 Ti10 2.071796 1_555
O1 Ti1 2.071796 1_555
O1 Ti7 2.071796 1_555
O2 Zn6 1.996651 1_555
O2 Ti6 2.071796 1_555
O2 Ti2 2.071796 1_555
O2 Ti11 2.071796 1_555
O3 Zn1 1.996651 1_555
O3 Ti2 2.071796 1_555
O3 Ti8 2.071796 1_655
O3 Ti4 2.071796 1_554
O4 Zn7 1.996651 1_555
O4 Ti9 2.071796 1_555
O4 Ti5 2.071796 1_555
O4 Ti4 2.071796 1_555
O5 Zn0 1.996651 1_555
O5 Ti6 2.071796 1_555
O5 Ti10 2.071796 1_555
O5 Ti5 2.071796 1_555
O6 Zn2 1.996651 1_555
O6 Ti9 2.071796 1_555
O6 Ti1 2.071796 1_545
O6 Ti3 2.071796 1_556
O7 Zn4 1.996651 1_555
O7 Ti11 2.071796 1_455
O7 Ti7 2.071796 1_555
O7 Ti0 2.071796 1_565
O8 Ti0 1.944824 1_555
O8 Zn6 1.986029 1_455
O8 Ti8 2.011810 1_555
O9 Ti1 1.944824 1_555
O9 Zn7 1.986029 1_555
O9 Ti10 2.011810 1_555
O10 Ti2 1.944824 1_555
O10 Zn5 1.986029 1_665
O10 Ti11 2.011810 1_555
O11 Ti3 1.944824 1_555
O11 Zn3 1.986029 1_545
O11 Ti0 2.011810 1_555
O12 Ti4 1.944824 1_455
O12 Zn2 1.986029 1_555
O12 Ti8 2.011810 1_556
O13 Ti5 1.944824 1_555
O13 Zn3 1.986029 1_545
O13 Ti9 2.011810 1_555
O14 Ti4 1.944824 1_555
O14 Zn6 1.986029 1_555
O14 Ti5 2.011810 1_555
O15 Ti6 1.944824 1_555
O15 Zn4 1.986029 1_555
O15 Ti10 2.011810 1_555
O16 Ti7 1.944824 1_555
O16 Zn5 1.986029 1_566
O16 Ti1 2.011810 1_555
O17 Ti3 1.944824 1_555
O17 Zn1 1.986029 1_555
O17 Ti9 2.011810 1_554
O18 Ti6 1.944824 1_555
O18 Zn7 1.986029 1_554
O18 Ti2 2.011810 1_555
O19 Ti7 1.944824 1_655
O19 Zn0 1.986029 1_555
O19 Ti11 2.011810 1_555
O20 Ti8 1.944824 1_555
O20 Zn7 1.986029 1_554
O20 Ti3 2.011810 1_555
O21 Ti2 1.944824 1_556
O21 Zn0 1.986029 1_555
O21 Ti4 2.011810 1_555
O22 Ti9 1.944824 1_555
O22 Zn5 1.986029 1_656
O22 Ti4 2.011810 1_555
O23 Ti5 1.944824 1_555
O23 Zn1 1.986029 1_555
O23 Ti6 2.011810 1_555
O24 Ti10 1.944824 1_555
O24 Zn6 1.986029 1_455
O24 Ti7 2.011810 1_555
O25 Ti1 1.944824 1_554
O25 Zn4 1.986029 1_555
O25 Ti3 2.011810 1_565
O26 Ti11 1.944824 1_555
O26 Zn3 1.986029 1_555
O26 Ti6 2.011810 1_555
O27 Ti0 1.944824 1_555
O27 Zn2 1.986029 1_555
O27 Ti7 2.011810 1_545
O28 Ti11 1.944824 1_545
O28 Zn1 1.986029 1_555
O28 Ti0 2.011810 1_655
O29 Ti10 1.944824 1_555
O29 Zn2 1.986029 1_555
O29 Ti5 2.011810 1_555
O30 Ti9 1.944824 1_565
O30 Zn0 1.986029 1_555
O30 Ti1 2.011810 1_555
O31 Ti8 1.944824 1_555
O31 Zn4 1.986029 1_555
O31 Ti2 2.011810 1_455
