# generated using pymatgen
data_Li7Co5O12
_symmetry_space_group_name_H-M   'P 1'
_cell_length_a   5.78638000
_cell_length_b   5.87331016
_cell_length_c   7.72088461
_cell_angle_alpha   112.05077858
_cell_angle_beta   79.49127875
_cell_angle_gamma   119.50316866
_symmetry_Int_Tables_number   1
_chemical_formula_structural   Li7Co5O12
_chemical_formula_sum   'Li7 Co5 O12'
_cell_volume   211.66458510
_cell_formula_units_Z   1
loop_
 _symmetry_equiv_pos_site_id
 _symmetry_equiv_pos_as_xyz
  1  'x, y, z'
loop_
 _atom_site_type_symbol
 _atom_site_label
 _atom_site_symmetry_multiplicity
 _atom_site_fract_x
 _atom_site_fract_y
 _atom_site_fract_z
 _atom_site_occupancy
  Li  Li0  1  0.66501600  0.16575800  0.16851100  1
  Li  Li1  1  0.16410400  0.16207500  0.16961700  1
  Li  Li2  1  0.33498400  0.83424200  0.83148900  1
  Li  Li3  1  0.83589600  0.83792500  0.83038300  1
  Li  Li4  1  0.00000000  0.50000000  0.50000000  1
  Li  Li5  1  0.50000000  0.50000000  0.50000000  1
  Li  Li6  1  0.00000000  0.00000000  0.50000000  1
  Co  Co0  1  0.16452800  0.67100300  0.17216800  1
  Co  Co1  1  0.50000000  0.00000000  0.50000000  1
  Co  Co2  1  0.67425000  0.67640900  0.17468800  1
  Co  Co3  1  0.83547200  0.32899700  0.82783200  1
  Co  Co4  1  0.32575000  0.32359100  0.82531200  1
  O  O0  1  0.83699200  0.58623400  0.31447000  1
  O  O1  1  0.34697200  0.61482500  0.34381200  1
  O  O2  1  0.50834300  0.26845300  0.99045600  1
  O  O3  1  0.00670100  0.26141200  0.99844000  1
  O  O4  1  0.20114700  0.93709400  0.65718700  1
  O  O5  1  0.65956300  0.94042700  0.65926200  1
  O  O6  1  0.49165700  0.73154700  0.00954400  1
  O  O7  1  0.99329900  0.73858800  0.00156000  1
  O  O8  1  0.16300800  0.41376600  0.68553000  1
  O  O9  1  0.65302800  0.38517500  0.65618800  1
  O  O10  1  0.79885300  0.06290600  0.34281300  1
  O  O11  1  0.34043700  0.05957300  0.34073800  1
loop_
_geom_bond_atom_site_label_1
_geom_bond_atom_site_label_2
_geom_bond_distance
_geom_bond_site_symmetry_2
Li0 O10 2.055990 1_555
Li0 O11 2.059754 1_555
Li0 O0 2.063481 1_555
Li0 O3 2.112282 1_654
Li0 O6 2.143744 1_545
Li0 O2 2.165958 1_554
Li1 O3 2.111428 1_554
Li1 O7 2.114289 1_445
Li1 O2 2.165542 1_554
Li1 O11 2.200699 1_555
Li1 O10 2.221636 1_455
Li1 O1 2.249876 1_555
Li2 O4 2.055990 1_555
Li2 O5 2.059754 1_555
Li2 O8 2.063481 1_555
Li2 O7 2.112282 1_456
Li2 O2 2.143744 1_565
Li2 O6 2.165958 1_556
Li3 O7 2.111428 1_556
Li3 O3 2.114289 1_665
Li3 O6 2.165542 1_556
Li3 O5 2.200699 1_555
Li3 O4 2.221636 1_655
Li3 O9 2.249876 1_555
Li4 O1 2.081783 1_555
Li4 O9 2.081783 1_455
Li4 O4 2.156601 1_555
Li4 O10 2.156601 1_455
Li4 O0 2.169392 1_455
Li4 O8 2.169392 1_555
Li5 O9 2.069164 1_555
Li5 O1 2.069164 1_555
Li5 O0 2.159613 1_555
Li5 O8 2.159613 1_555
Li5 O5 2.174689 1_555
Li5 O11 2.174689 1_555
Li6 O4 2.059021 1_545
Li6 O10 2.059021 1_455
Li6 O5 2.067740 1_445
Li6 O11 2.067740 1_555
Li6 O8 2.113930 1_555
Li6 O0 2.113930 1_445
Co0 O0 1.941329 1_455
Co0 O11 1.975693 1_565
Co0 O6 2.022708 1_555
Co0 O7 2.032345 1_455
Co0 O1 2.039940 1_555
Co0 O3 2.068930 1_554
Co1 O10 1.881923 1_555
Co1 O4 1.881923 1_545
Co1 O11 1.882095 1_555
Co1 O5 1.882095 1_545
Co1 O1 1.929812 1_545
Co1 O9 1.929812 1_555
Co2 O0 1.903464 1_555
Co2 O10 1.968415 1_565
Co2 O6 1.996347 1_555
Co2 O7 2.032411 1_555
Co2 O1 2.049431 1_555
Co2 O2 2.087924 1_554
Co3 O8 1.941329 1_655
Co3 O5 1.975693 1_545
Co3 O2 2.022708 1_555
Co3 O3 2.032345 1_655
Co3 O9 2.039940 1_555
Co3 O7 2.068930 1_556
Co4 O8 1.903464 1_555
Co4 O4 1.968415 1_545
Co4 O2 1.996347 1_555
Co4 O3 2.032411 1_555
Co4 O9 2.049431 1_555
Co4 O6 2.087924 1_556
