# generated using pymatgen
data_MgFe6Sb10(IO3)6
_symmetry_space_group_name_H-M   'P 1'
_cell_length_a   8.31027765
_cell_length_b   9.25583354
_cell_length_c   12.74310552
_cell_angle_alpha   79.89426484
_cell_angle_beta   82.37054210
_cell_angle_gamma   71.77762343
_symmetry_Int_Tables_number   1
_chemical_formula_structural   MgFe6Sb10(IO3)6
_chemical_formula_sum   'Mg1 Fe6 Sb10 I6 O18'
_cell_volume   913.39506729
_cell_formula_units_Z   1
loop_
 _symmetry_equiv_pos_site_id
 _symmetry_equiv_pos_as_xyz
  1  'x, y, z'
loop_
 _atom_site_type_symbol
 _atom_site_label
 _atom_site_symmetry_multiplicity
 _atom_site_fract_x
 _atom_site_fract_y
 _atom_site_fract_z
 _atom_site_occupancy
  Mg  Mg0  1  0.25595332  0.08418966  0.81644953  1
  Fe  Fe0  1  0.70506788  0.98868095  0.35649368  1
  Fe  Fe1  1  0.30030951  0.01051642  0.60888309  1
  Fe  Fe2  1  0.03585707  0.98421378  0.12136318  1
  Fe  Fe3  1  0.93248955  0.04686866  0.86997375  1
  Fe  Fe4  1  0.64009783  0.08285740  0.08716094  1
  Fe  Fe5  1  0.41207552  0.88453770  0.99804989  1
  Sb  Sb0  1  0.89154165  0.17623166  0.50233502  1
  Sb  Sb1  1  0.08809727  0.80534002  0.49139931  1
  Sb  Sb2  1  0.25179880  0.15048232  0.26159457  1
  Sb  Sb3  1  0.75150340  0.82474428  0.75708217  1
  Sb  Sb4  1  0.54474261  0.21108931  0.73283937  1
  Sb  Sb5  1  0.46853384  0.78632959  0.26200891  1
  Sb  Sb6  1  0.21502463  0.26972400  0.99613887  1
  Sb  Sb7  1  0.81924640  0.73690918  0.02346822  1
  Sb  Sb8  1  0.80913748  0.30719760  0.21526890  1
  Sb  Sb9  1  0.18742390  0.71357868  0.77368757  1
  I  I0  1  0.74665457  0.32833209  0.93944049  1
  I  I1  1  0.27431346  0.64889753  0.06890707  1
  I  I2  1  0.87057699  0.67601546  0.31259020  1
  I  I3  1  0.10896452  0.34806768  0.66805869  1
  I  I4  1  0.49627247  0.29756740  0.40782221  1
  I  I5  1  0.49558030  0.70639875  0.57739053  1
  O  O0  1  0.19003305  0.05631186  0.98285611  1
  O  O1  1  0.86334508  0.93613942  0.03026905  1
  O  O2  1  0.85364748  0.97237806  0.47414663  1
  O  O3  1  0.13210495  0.01839744  0.50776253  1
  O  O4  1  0.79517472  0.09608692  0.20544896  1
  O  O5  1  0.17451200  0.93175886  0.76960244  1
  O  O6  1  0.41792462  0.17257814  0.87767011  1
  O  O7  1  0.57741143  0.85260135  0.11396413  1
  O  O8  1  0.76427022  0.04017809  0.75791341  1
  O  O9  1  0.23132653  0.94741703  0.22583790  1
  O  O10  1  0.46112579  0.04222173  0.70038904  1
  O  O11  1  0.49189549  0.97397565  0.30782544  1
  O  O12  1  0.05413928  0.23441772  0.14341219  1
  O  O13  1  0.95067610  0.74962101  0.85812236  1
  O  O14  1  0.03405311  0.76833454  0.65208626  1
  O  O15  1  0.94295453  0.23348506  0.34542985  1
  O  O16  1  0.63562242  0.81219435  0.91407226  1
  O  O17  1  0.38633220  0.18598864  0.10770219  1
loop_
_geom_bond_atom_site_label_1
_geom_bond_atom_site_label_2
_geom_bond_distance
_geom_bond_site_symmetry_2
Mg0 O5 1.950656 1_545
Mg0 O6 2.069111 1_555
Mg0 O10 2.088828 1_555
Mg0 O0 2.109807 1_555
Fe0 O11 2.003397 1_555
Fe0 O2 2.022566 1_555
Fe0 O4 2.159896 1_565
Fe0 I2 2.907637 1_555
Fe0 I4 2.977383 1_565
Fe1 O3 2.000308 1_555
Fe1 O10 2.002758 1_555
Fe1 O5 2.281009 1_545
Fe1 I5 2.843337 1_545
Fe1 I3 3.203095 1_555
Fe2 O9 2.143887 1_555
Fe2 O1 2.150093 1_455
Fe2 O0 2.173268 1_564
Fe2 O4 2.178510 1_465
Fe2 O12 2.434112 1_565
Fe2 I1 3.245938 1_555
Fe3 O8 2.147678 1_555
Fe3 O1 2.207943 1_546
Fe3 O5 2.295928 1_645
Fe3 I0 2.808140 1_555
Fe4 O17 2.027101 1_555
Fe4 O1 2.055327 1_545
Fe4 O4 2.151100 1_555
Fe4 O7 2.306894 1_545
Fe4 I0 2.967273 1_554
Fe5 O16 1.997584 1_555
Fe5 O0 2.030327 1_565
Fe5 O7 2.070926 1_556
Fe5 I1 2.734768 1_556
I2 Sb5 3.290626 1_555
I3 Mg0 2.856552 1_555
I4 Sb8 3.341089 1_555
I4 Sb0 3.430796 1_555
O0 Sb6 2.087310 1_555
O1 Sb7 2.007353 1_555
O2 Sb1 2.084529 1_655
O2 Sb0 2.104244 1_565
O3 Sb0 2.076124 1_455
O3 Sb1 2.163725 1_545
O4 Sb8 2.019585 1_555
O5 Sb9 1.980260 1_555
O6 Sb4 2.032626 1_555
O6 Sb6 2.186992 1_555
O7 Sb5 2.059552 1_555
O7 Sb7 2.233278 1_555
O8 Sb4 2.026146 1_555
O8 Sb3 2.031626 1_545
O9 Sb2 2.071313 1_565
O9 Sb5 2.117383 1_555
O10 Sb4 2.019711 1_555
O10 Sb3 2.704006 1_545
O11 Sb5 1.997986 1_555
O11 Sb2 2.221015 1_565
O12 Sb8 2.073963 1_455
O12 Sb6 2.192762 1_554
O12 Sb2 2.240079 1_555
O13 Sb9 2.071999 1_655
O13 Sb3 2.100680 1_555
O13 Sb7 2.242457 1_556
O14 Sb1 2.029233 1_555
O14 Sb9 2.031595 1_555
O14 Sb3 2.494074 1_455
O15 Sb0 2.001034 1_555
O15 Sb8 2.017779 1_555
O15 Sb2 2.577914 1_655
O16 Sb7 2.077604 1_556
O16 Sb3 2.102353 1_555
O17 Sb6 2.027110 1_554
O17 Sb2 2.150623 1_555
