# generated using pymatgen
data_LaZn(BO2)5
_symmetry_space_group_name_H-M   'P 1'
_cell_length_a   7.68635400
_cell_length_b   8.87083200
_cell_length_c   12.78809923
_cell_angle_alpha   48.56743763
_cell_angle_beta   90.00000000
_cell_angle_gamma   90.00000000
_symmetry_Int_Tables_number   1
_chemical_formula_structural   LaZn(BO2)5
_chemical_formula_sum   'La4 Zn4 B20 O40'
_cell_volume   653.73025429
_cell_formula_units_Z   4
loop_
 _symmetry_equiv_pos_site_id
 _symmetry_equiv_pos_as_xyz
  1  'x, y, z'
loop_
 _atom_site_type_symbol
 _atom_site_label
 _atom_site_symmetry_multiplicity
 _atom_site_fract_x
 _atom_site_fract_y
 _atom_site_fract_z
 _atom_site_occupancy
  La  La0  1  0.18481400  0.05301400  0.26474300  1
  La  La1  1  0.31518600  0.05301400  0.76474300  1
  La  La2  1  0.81518600  0.94698600  0.73525700  1
  La  La3  1  0.68481400  0.94698600  0.23525700  1
  Zn  Zn0  1  0.91213200  0.48975400  0.12062000  1
  Zn  Zn1  1  0.58786800  0.48975400  0.62062000  1
  Zn  Zn2  1  0.08786800  0.51024600  0.87938000  1
  Zn  Zn3  1  0.41213200  0.51024600  0.37938000  1
  B  B0  1  0.08265900  0.64518700  0.26621800  1
  B  B1  1  0.41734100  0.64518700  0.76621800  1
  B  B2  1  0.91734100  0.35481300  0.73378200  1
  B  B3  1  0.58265900  0.35481300  0.23378200  1
  B  B4  1  0.81586700  0.51209700  0.41493500  1
  B  B5  1  0.68413300  0.51209700  0.91493500  1
  B  B6  1  0.18413300  0.48790300  0.58506500  1
  B  B7  1  0.31586700  0.48790300  0.08506500  1
  B  B8  1  0.32739500  0.90489000  0.10947100  1
  B  B9  1  0.17260500  0.90489000  0.60947100  1
  B  B10  1  0.67260500  0.09511000  0.89052900  1
  B  B11  1  0.82739500  0.09511000  0.39052900  1
  B  B12  1  0.53374800  0.73134400  0.05229800  1
  B  B13  1  0.96625200  0.73134400  0.55229800  1
  B  B14  1  0.46625200  0.26865600  0.94770200  1
  B  B15  1  0.03374800  0.26865600  0.44770200  1
  B  B16  1  0.09527600  0.84407500  0.00576300  1
  B  B17  1  0.40472400  0.84407500  0.50576300  1
  B  B18  1  0.90472400  0.15592500  0.99423700  1
  B  B19  1  0.59527600  0.15592500  0.49423700  1
  O  O0  1  0.21912500  0.78624700  0.23879700  1
  O  O1  1  0.28087500  0.78624700  0.73879700  1
  O  O2  1  0.78087500  0.21375300  0.76120300  1
  O  O3  1  0.71912500  0.21375300  0.26120300  1
  O  O4  1  0.91942200  0.67346100  0.31275300  1
  O  O5  1  0.58057800  0.67346100  0.81275300  1
  O  O6  1  0.08057800  0.32653900  0.68724700  1
  O  O7  1  0.41942200  0.32653900  0.18724700  1
  O  O8  1  0.03676000  0.68043300  0.13707700  1
  O  O9  1  0.46324000  0.68043300  0.63707700  1
  O  O10  1  0.96324000  0.31956700  0.86292300  1
  O  O11  1  0.53676000  0.31956700  0.36292300  1
  O  O12  1  0.47701100  0.77207700  0.14298800  1
  O  O13  1  0.02298900  0.77207700  0.64298800  1
  O  O14  1  0.52298900  0.22792300  0.85701200  1
  O  O15  1  0.97701100  0.22792300  0.35701200  1
  O  O16  1  0.39245700  0.08501600  0.08463700  1
  O  O17  1  0.10754300  0.08501600  0.58463700  1
  O  O18  1  0.60754300  0.91498400  0.91536300  1
  O  O19  1  0.89245700  0.91498400  0.41536300  1
  O  O20  1  0.22156900  0.96995100  0.99031800  1
  O  O21  1  0.27843100  0.96995100  0.49031800  1
  O  O22  1  0.77843100  0.03004900  0.00968200  1
  O  O23  1  0.72156900  0.03004900  0.50968200  1
  O  O24  1  0.65298000  0.55924600  0.12845400  1
  O  O25  1  0.84702000  0.55924600  0.62845400  1
  O  O26  1  0.34702000  0.44075400  0.87154600  1
  O  O27  1  0.15298000  0.44075400  0.37154600  1
  O  O28  1  0.87436400  0.31871900  0.48995500  1
  O  O29  1  0.62563600  0.31871900  0.98995500  1
  O  O30  1  0.12563600  0.68128100  0.51004500  1
  O  O31  1  0.37436400  0.68128100  0.01004500  1
  O  O32  1  0.65421800  0.56362600  0.43140900  1
  O  O33  1  0.84578200  0.56362600  0.93140900  1
  O  O34  1  0.34578200  0.43637400  0.56859100  1
  O  O35  1  0.15421800  0.43637400  0.06859100  1
  O  O36  1  0.03993600  0.88235300  0.88966100  1
  O  O37  1  0.46006400  0.88235300  0.38966100  1
  O  O38  1  0.96006400  0.11764700  0.11033900  1
  O  O39  1  0.53993600  0.11764700  0.61033900  1
loop_
_geom_bond_atom_site_label_1
_geom_bond_atom_site_label_2
_geom_bond_distance
_geom_bond_site_symmetry_2
La0 O38 2.390292 1_455
La0 O37 2.473691 1_545
La0 O21 2.563000 1_545
La0 O35 2.573432 1_555
La0 O0 2.611299 1_545
La0 O7 2.634176 1_555
La0 O16 2.658440 1_555
La0 O19 2.671640 1_445
La0 O30 2.689032 1_545
La0 O15 2.962077 1_455
La1 O39 2.390292 1_555
La1 O36 2.473691 1_545
La1 O20 2.563000 1_545
La1 O34 2.573432 1_555
La1 O1 2.611299 1_545
La1 O6 2.634176 1_555
La1 O17 2.658440 1_555
La1 O18 2.671640 1_545
La1 O31 2.689032 1_546
La1 O14 2.962077 1_555
La2 O36 2.390292 1_655
La2 O39 2.473691 1_565
La2 O23 2.563000 1_565
La2 O33 2.573432 1_555
La2 O2 2.611299 1_565
La2 O5 2.634176 1_555
La2 O18 2.658440 1_555
La2 O17 2.671640 1_665
La2 O28 2.689032 1_565
La2 O13 2.962077 1_655
La3 O37 2.390292 1_555
La3 O38 2.473691 1_565
La3 O22 2.563000 1_565
La3 O32 2.573432 1_555
La3 O3 2.611299 1_565
La3 O4 2.634176 1_555
La3 O19 2.658440 1_555
La3 O16 2.671640 1_565
La3 O29 2.689032 1_564
La3 O12 2.962077 1_555
B0 O27 1.470491 1_555
B0 O4 1.479476 1_455
B0 O0 1.486029 1_555
B0 O8 1.505387 1_555
B1 O26 1.470491 1_555
B1 O5 1.479476 1_555
B1 O1 1.486029 1_555
B1 O9 1.505387 1_555
B2 O25 1.470491 1_555
B2 O6 1.479476 1_655
B2 O2 1.486029 1_555
B2 O10 1.505387 1_555
B3 O24 1.470491 1_555
B3 O7 1.479476 1_555
B3 O3 1.486029 1_555
B3 O11 1.505387 1_555
B4 O28 1.373739 1_555
B4 O4 1.383664 1_555
B4 O32 1.387286 1_555
B5 O29 1.373739 1_555
B5 O5 1.383664 1_555
B5 O33 1.387286 1_555
B6 O30 1.373739 1_555
B6 O6 1.383664 1_555
B6 O34 1.387286 1_555
B7 O31 1.373739 1_555
B7 O7 1.383664 1_555
B7 O35 1.387286 1_555
B8 O20 1.467187 1_554
B8 O12 1.491962 1_555
B8 O0 1.493909 1_555
B8 O16 1.494165 1_565
B9 O21 1.467187 1_555
B9 O13 1.491962 1_555
B9 O1 1.493909 1_555
B9 O17 1.494165 1_565
B10 O22 1.467187 1_556
B10 O14 1.491962 1_555
B10 O2 1.493909 1_555
B10 O18 1.494165 1_545
B11 O23 1.467187 1_555
B11 O15 1.491962 1_555
B11 O3 1.493909 1_555
B11 O19 1.494165 1_545
B12 O24 1.466729 1_555
B12 O12 1.490097 1_555
B12 O18 1.505504 1_554
B12 O31 1.519078 1_555
B13 O25 1.466729 1_555
B13 O13 1.490097 1_655
B13 O19 1.505504 1_555
B13 O30 1.519078 1_655
B14 O26 1.466729 1_555
B14 O14 1.490097 1_555
B14 O16 1.505504 1_556
B14 O29 1.519078 1_555
B15 O27 1.466729 1_555
B15 O15 1.490097 1_455
B15 O17 1.505504 1_555
B15 O28 1.519078 1_455
B16 O36 1.354034 1_554
B16 O8 1.379584 1_555
B16 O20 1.391508 1_554
B17 O37 1.354034 1_555
B17 O9 1.379584 1_555
B17 O21 1.391508 1_555
B18 O38 1.354034 1_556
B18 O10 1.379584 1_555
B18 O22 1.391508 1_556
B19 O39 1.354034 1_555
B19 O11 1.379584 1_555
B19 O23 1.391508 1_555
O0 Zn3 2.366830 1_555
O1 Zn2 2.366830 1_555
O2 Zn1 2.366830 1_555
O3 Zn0 2.366830 1_555
O8 Zn0 2.072238 1_455
O9 Zn1 2.072238 1_555
O10 Zn2 2.072238 1_655
O11 Zn3 2.072238 1_555
O12 Zn3 2.342929 1_555
O13 Zn2 2.342929 1_555
O14 Zn1 2.342929 1_555
O15 Zn0 2.342929 1_555
O24 Zn0 2.107032 1_555
O25 Zn1 2.107032 1_555
O26 Zn2 2.107032 1_555
O27 Zn3 2.107032 1_555
O32 Zn1 2.108483 1_555
O32 Zn3 2.132210 1_555
O33 Zn0 2.108483 1_556
O33 Zn2 2.132210 1_655
O34 Zn3 2.108483 1_555
O34 Zn1 2.132210 1_555
O35 Zn2 2.108483 1_554
O35 Zn0 2.132210 1_455
