# generated using pymatgen
data_Cs2NaIrF6
_symmetry_space_group_name_H-M   'P 1'
_cell_length_a   6.30328561
_cell_length_b   6.30328561
_cell_length_c   6.30328561
_cell_angle_alpha   60.00000000
_cell_angle_beta   60.00000000
_cell_angle_gamma   60.00000000
_symmetry_Int_Tables_number   1
_chemical_formula_structural   Cs2NaIrF6
_chemical_formula_sum   'Cs2 Na1 Ir1 F6'
_cell_volume   177.08670639
_cell_formula_units_Z   1
loop_
 _symmetry_equiv_pos_site_id
 _symmetry_equiv_pos_as_xyz
  1  'x, y, z'
loop_
 _atom_site_type_symbol
 _atom_site_label
 _atom_site_symmetry_multiplicity
 _atom_site_fract_x
 _atom_site_fract_y
 _atom_site_fract_z
 _atom_site_occupancy
  Cs  Cs0  1  0.75000000  0.75000000  0.75000000  1
  Cs  Cs1  1  0.25000000  0.25000000  0.25000000  1
  Na  Na0  1  0.50000000  0.50000000  0.50000000  1
  Ir  Ir0  1  0.00000000  0.00000000  0.00000000  1
  F  F0  1  0.76941500  0.23058500  0.23058500  1
  F  F1  1  0.23058500  0.23058500  0.76941500  1
  F  F2  1  0.23058500  0.76941500  0.76941500  1
  F  F3  1  0.23058500  0.76941500  0.23058500  1
  F  F4  1  0.76941500  0.23058500  0.76941500  1
  F  F5  1  0.76941500  0.76941500  0.23058500  1
loop_
_geom_bond_atom_site_label_1
_geom_bond_atom_site_label_2
_geom_bond_distance
_geom_bond_site_symmetry_2
Cs0 F1 3.156391 1_655
Cs0 F0 3.156391 1_565
Cs0 F5 3.156391 1_555
Cs0 F2 3.156391 1_555
Cs0 F4 3.156391 1_565
Cs0 F5 3.156391 1_556
Cs0 F0 3.156391 1_556
Cs0 F3 3.156391 1_655
Cs0 F1 3.156391 1_565
Cs0 F3 3.156391 1_556
Cs0 F2 3.156391 1_655
Cs0 F4 3.156391 1_555
Cs1 F2 3.156391 1_545
Cs1 F5 3.156391 1_455
Cs1 F2 3.156391 1_554
Cs1 F4 3.156391 1_554
Cs1 F5 3.156391 1_545
Cs1 F0 3.156391 1_455
Cs1 F0 3.156391 1_555
Cs1 F4 3.156391 1_455
Cs1 F3 3.156391 1_555
Cs1 F3 3.156391 1_545
Cs1 F1 3.156391 1_555
Cs1 F1 3.156391 1_554
F0 Ir0 2.055479 1_655
F0 Na0 2.401617 1_555
F1 Ir0 2.055479 1_556
F1 Na0 2.401617 1_555
F2 Ir0 2.055479 1_566
F2 Na0 2.401617 1_555
F3 Ir0 2.055479 1_565
F3 Na0 2.401617 1_555
F4 Ir0 2.055479 1_656
F4 Na0 2.401617 1_555
F5 Ir0 2.055479 1_665
F5 Na0 2.401617 1_555
