# generated using pymatgen
data_Dy3(Si3Ru)4
_symmetry_space_group_name_H-M   'P 1'
_cell_length_a   10.11286556
_cell_length_b   10.11286556
_cell_length_c   8.13710200
_cell_angle_alpha   90.00000000
_cell_angle_beta   90.00000000
_cell_angle_gamma   132.55779595
_symmetry_Int_Tables_number   1
_chemical_formula_structural   Dy3(Si3Ru)4
_chemical_formula_sum   'Dy6 Si24 Ru8'
_cell_volume   612.98136793
_cell_formula_units_Z   2
loop_
 _symmetry_equiv_pos_site_id
 _symmetry_equiv_pos_as_xyz
  1  'x, y, z'
loop_
 _atom_site_type_symbol
 _atom_site_label
 _atom_site_symmetry_multiplicity
 _atom_site_fract_x
 _atom_site_fract_y
 _atom_site_fract_z
 _atom_site_occupancy
  Dy  Dy0  1  0.50000000  0.50000000  0.50000000  1
  Dy  Dy1  1  0.00000000  0.00000000  0.00000000  1
  Dy  Dy2  1  0.50365700  0.00365700  0.75000000  1
  Dy  Dy3  1  0.99634300  0.49634300  0.25000000  1
  Dy  Dy4  1  0.49634300  0.99634300  0.25000000  1
  Dy  Dy5  1  0.00365700  0.50365700  0.75000000  1
  Si  Si0  1  0.79528100  0.20471900  0.50000000  1
  Si  Si1  1  0.29528100  0.70471900  0.00000000  1
  Si  Si2  1  0.20471900  0.79528100  0.50000000  1
  Si  Si3  1  0.70471900  0.29528100  0.00000000  1
  Si  Si4  1  0.33324100  0.33324100  0.83331200  1
  Si  Si5  1  0.66675900  0.66675900  0.16668800  1
  Si  Si6  1  0.16675900  0.16675900  0.33331200  1
  Si  Si7  1  0.83324100  0.83324100  0.66668800  1
  Si  Si8  1  0.12331900  0.88895800  0.72861700  1
  Si  Si9  1  0.11104200  0.87668100  0.27138300  1
  Si  Si10  1  0.61104200  0.37668100  0.22861700  1
  Si  Si11  1  0.62331900  0.38895800  0.77138300  1
  Si  Si12  1  0.87668100  0.11104200  0.27138300  1
  Si  Si13  1  0.88895800  0.12331900  0.72861700  1
  Si  Si14  1  0.38895800  0.62331900  0.77138300  1
  Si  Si15  1  0.37668100  0.61104200  0.22861700  1
  Si  Si16  1  0.34639200  0.11212900  0.50703600  1
  Si  Si17  1  0.88787100  0.65360800  0.49296400  1
  Si  Si18  1  0.38787100  0.15360800  0.00703600  1
  Si  Si19  1  0.84639200  0.61212900  0.99296400  1
  Si  Si20  1  0.65360800  0.88787100  0.49296400  1
  Si  Si21  1  0.11212900  0.34639200  0.50703600  1
  Si  Si22  1  0.61212900  0.84639200  0.99296400  1
  Si  Si23  1  0.15360800  0.38787100  0.00703600  1
  Ru  Ru0  1  0.66927100  0.33072900  0.50000000  1
  Ru  Ru1  1  0.16927100  0.83072900  0.00000000  1
  Ru  Ru2  1  0.33072900  0.66927100  0.50000000  1
  Ru  Ru3  1  0.83072900  0.16927100  0.00000000  1
  Ru  Ru4  1  0.12743700  0.12743700  0.62733600  1
  Ru  Ru5  1  0.87256300  0.87256300  0.37266400  1
  Ru  Ru6  1  0.37256300  0.37256300  0.12733600  1
  Ru  Ru7  1  0.62743700  0.62743700  0.87266400  1
loop_
_geom_bond_atom_site_label_1
_geom_bond_atom_site_label_2
_geom_bond_distance
_geom_bond_site_symmetry_2
Dy0 Si6 3.031748 1_555
Dy0 Si7 3.031748 1_555
Dy0 Si4 3.032655 1_555
Dy0 Si5 3.032655 1_555
Dy0 Si20 3.091947 1_555
Dy0 Si17 3.091947 1_555
Dy0 Si16 3.091947 1_555
Dy0 Si21 3.091947 1_555
Dy0 Si15 3.096304 1_555
Dy0 Si10 3.096304 1_555
Dy0 Si14 3.096304 1_555
Dy0 Si11 3.096304 1_555
Dy0 Ru0 3.134383 1_555
Dy0 Ru2 3.134383 1_555
Dy0 Ru4 3.203553 1_555
Dy0 Ru5 3.203553 1_555
Dy0 Ru6 3.204782 1_555
Dy0 Ru7 3.204782 1_555
Dy1 Si5 3.031748 1_445
Dy1 Si4 3.031748 1_554
Dy1 Si6 3.032655 1_555
Dy1 Si7 3.032655 1_444
Dy1 Si23 3.091947 1_555
Dy1 Si18 3.091947 1_555
Dy1 Si22 3.091947 1_444
Dy1 Si19 3.091947 1_444
Dy1 Si12 3.096304 1_455
Dy1 Si8 3.096304 1_544
Dy1 Si9 3.096304 1_545
Dy1 Si13 3.096304 1_454
Dy1 Ru3 3.134383 1_455
Dy1 Ru1 3.134383 1_545
Dy1 Ru7 3.203553 1_444
Dy1 Ru6 3.203553 1_555
Dy1 Ru5 3.204782 1_445
Dy1 Ru4 3.204782 1_554
Dy2 Si3 2.976375 1_556
Dy2 Si0 2.976375 1_555
Dy2 Si1 3.016772 1_546
Dy2 Si2 3.016772 1_545
Dy2 Si22 3.162466 1_545
Dy2 Si16 3.162466 1_555
Dy2 Si14 3.183539 1_545
Dy2 Si8 3.183539 1_545
Dy2 Si13 3.209237 1_555
Dy2 Si11 3.209237 1_555
Dy2 Ru3 3.223410 1_556
Dy2 Ru0 3.223410 1_555
Dy2 Si20 3.232179 1_545
Dy2 Si18 3.232179 1_556
Dy2 Ru2 3.260748 1_545
Dy2 Ru1 3.260748 1_546
Dy3 Si3 2.976375 1_555
Dy3 Si0 2.976375 1_555
Dy3 Si1 3.016772 1_655
Dy3 Si2 3.016772 1_655
Dy3 Si17 3.162466 1_555
Dy3 Si23 3.162466 1_655
Dy3 Si9 3.183539 1_655
Dy3 Si15 3.183539 1_655
Dy3 Si12 3.209237 1_555
Dy3 Si10 3.209237 1_555
Dy3 Ru3 3.223410 1_555
Dy3 Ru0 3.223410 1_555
Dy3 Si21 3.232179 1_655
Dy3 Si19 3.232179 1_554
Dy3 Ru1 3.260748 1_655
Dy3 Ru2 3.260748 1_655
Dy4 Si1 2.976375 1_555
Dy4 Si2 2.976375 1_555
Dy4 Si3 3.016772 1_565
Dy4 Si0 3.016772 1_565
Dy4 Si20 3.162466 1_555
Dy4 Si18 3.162466 1_565
Dy4 Si12 3.183539 1_565
Dy4 Si10 3.183539 1_565
Dy4 Si9 3.209237 1_555
Dy4 Si15 3.209237 1_555
Dy4 Ru1 3.223410 1_555
Dy4 Ru2 3.223410 1_555
Dy4 Si16 3.232179 1_565
Dy4 Si22 3.232179 1_554
Dy4 Ru3 3.260748 1_565
Dy4 Ru0 3.260748 1_565
Dy5 Si1 2.976375 1_556
Dy5 Si2 2.976375 1_555
Dy5 Si3 3.016772 1_456
Dy5 Si0 3.016772 1_455
Dy5 Si19 3.162466 1_455
Dy5 Si21 3.162466 1_555
Dy5 Si11 3.183539 1_455
Dy5 Si13 3.183539 1_455
Dy5 Si8 3.209237 1_555
Dy5 Si14 3.209237 1_555
Dy5 Ru1 3.223410 1_556
Dy5 Ru2 3.223410 1_555
Dy5 Si17 3.232179 1_455
Dy5 Si23 3.232179 1_556
Dy5 Ru0 3.260748 1_455
Dy5 Ru3 3.260748 1_456
Si0 Si13 2.467914 1_555
Si0 Si12 2.467914 1_555
Si0 Si21 2.472515 1_655
Si0 Si20 2.472515 1_545
Si1 Si15 2.467914 1_555
Si1 Si14 2.467914 1_554
Si1 Si22 2.472515 1_554
Si1 Si23 2.472515 1_555
Si2 Si8 2.467914 1_555
Si2 Si9 2.467914 1_555
Si6 Si9 2.634600 1_545
Si7 Si8 2.634600 1_655
Si10 Si3 2.467914 1_555
Si10 Si18 2.558654 1_555
Si10 Si5 2.634600 1_555
Si10 Si19 2.710241 1_554
Si11 Si3 2.467914 1_556
Si11 Si19 2.558654 1_555
Si11 Si4 2.634600 1_555
Si11 Si18 2.710241 1_556
Si12 Si20 2.558654 1_545
Si12 Si6 2.634600 1_655
Si12 Si21 2.710241 1_655
Si13 Si21 2.558654 1_655
Si13 Si7 2.634600 1_545
Si13 Si20 2.710241 1_545
Si14 Si22 2.558654 1_555
Si14 Si4 2.634600 1_555
Si14 Si23 2.710241 1_556
Si15 Si23 2.558654 1_555
Si15 Si5 2.634600 1_555
Si15 Si22 2.710241 1_554
Si16 Si2 2.472515 1_545
Si16 Si8 2.558654 1_545
Si16 Si6 2.638393 1_555
Si16 Si9 2.710241 1_545
Si17 Si2 2.472515 1_655
Si17 Si9 2.558654 1_655
Si17 Si7 2.638393 1_555
Si17 Si8 2.710241 1_655
Si18 Si3 2.472515 1_555
Si18 Si4 2.638393 1_554
Si19 Si3 2.472515 1_556
Si19 Si5 2.638393 1_556
Si20 Si7 2.638393 1_555
Si21 Si6 2.638393 1_555
Si22 Si5 2.638393 1_556
Si23 Si4 2.638393 1_554
Ru0 Si0 2.333321 1_555
Ru0 Si16 2.405837 1_555
Ru0 Si17 2.405837 1_555
Ru0 Si11 2.410254 1_555
Ru0 Si10 2.410254 1_555
Ru1 Si1 2.333321 1_555
Ru1 Si18 2.405837 1_565
Ru1 Si19 2.405837 1_454
Ru1 Si9 2.410254 1_555
Ru1 Si8 2.410254 1_554
Ru2 Si2 2.333321 1_555
Ru2 Si21 2.405837 1_555
Ru2 Si20 2.405837 1_555
Ru2 Si14 2.410254 1_555
Ru2 Si15 2.410254 1_555
Ru3 Si3 2.333321 1_555
Ru3 Si23 2.405837 1_655
Ru3 Si22 2.405837 1_544
Ru3 Si12 2.410254 1_555
Ru3 Si13 2.410254 1_554
Ru4 Si4 2.369214 1_555
Ru4 Si6 2.413801 1_555
Ru4 Si7 2.415051 1_445
Ru4 Si16 2.519688 1_555
Ru4 Si21 2.519688 1_555
Ru4 Si8 2.522182 1_545
Ru4 Si13 2.522182 1_455
Ru5 Si5 2.369214 1_555
Ru5 Si7 2.413801 1_555
Ru5 Si6 2.415051 1_665
Ru5 Si20 2.519688 1_555
Ru5 Si17 2.519688 1_555
Ru5 Si9 2.522182 1_655
Ru5 Si12 2.522182 1_565
Ru6 Si6 2.369214 1_555
Ru6 Si4 2.413801 1_554
Ru6 Si5 2.415051 1_555
Ru6 Si23 2.519688 1_555
Ru6 Si18 2.519688 1_555
Ru6 Si15 2.522182 1_555
Ru6 Si10 2.522182 1_555
Ru7 Si7 2.369214 1_555
Ru7 Si5 2.413801 1_556
Ru7 Si4 2.415051 1_555
Ru7 Si22 2.519688 1_555
Ru7 Si19 2.519688 1_555
Ru7 Si14 2.522182 1_555
Ru7 Si11 2.522182 1_555
