# generated using pymatgen
data_Mn2ZnO4
_symmetry_space_group_name_H-M   'P 1'
_cell_length_a   6.13032264
_cell_length_b   6.13032264
_cell_length_c   6.13032264
_cell_angle_alpha   121.18528927
_cell_angle_beta   121.07129734
_cell_angle_gamma   88.05663074
_symmetry_Int_Tables_number   1
_chemical_formula_structural   Mn2ZnO4
_chemical_formula_sum   'Mn4 Zn2 O8'
_cell_volume   160.02685639
_cell_formula_units_Z   2
loop_
 _symmetry_equiv_pos_site_id
 _symmetry_equiv_pos_as_xyz
  1  'x, y, z'
loop_
 _atom_site_type_symbol
 _atom_site_label
 _atom_site_symmetry_multiplicity
 _atom_site_fract_x
 _atom_site_fract_y
 _atom_site_fract_z
 _atom_site_occupancy
  Mn  Mn0  1  0.63816200  0.88816200  0.75000000  1
  Mn  Mn1  1  0.36183800  0.11183800  0.25000000  1
  Mn  Mn2  1  0.00000000  0.00000000  0.50000000  1
  Mn  Mn3  1  0.00000000  0.50000000  0.00000000  1
  Zn  Zn0  1  0.50000000  0.50000000  0.00000000  1
  Zn  Zn1  1  0.00000000  0.50000000  0.50000000  1
  O  O0  1  0.22093400  0.23694600  0.51601200  1
  O  O1  1  0.21713000  0.24810200  0.96902800  1
  O  O2  1  0.22093400  0.70492200  0.98398800  1
  O  O3  1  0.77907400  0.24810200  0.53097200  1
  O  O4  1  0.22092600  0.75189800  0.46902800  1
  O  O5  1  0.78287000  0.75189800  0.03097200  1
  O  O6  1  0.77906600  0.29507800  0.01601200  1
  O  O7  1  0.77906600  0.76305400  0.48398800  1
loop_
_geom_bond_atom_site_label_1
_geom_bond_atom_site_label_2
_geom_bond_distance
_geom_bond_site_symmetry_2
Mn0 O7 2.026687 1_555
Mn0 O6 2.026687 1_566
Mn0 O5 2.077064 1_556
Mn0 O4 2.077064 1_555
Mn1 O2 2.026687 1_544
Mn1 O0 2.026687 1_555
Mn1 O3 2.077064 1_555
Mn1 O1 2.077064 1_554
Mn2 O0 1.949997 1_555
Mn2 O7 1.949997 1_445
Mn2 O4 2.002558 1_545
Mn2 O1 2.002558 1_555
Mn2 O5 2.002558 1_445
Mn2 O3 2.002558 1_455
Mn3 O2 1.949997 1_554
Mn3 O6 1.949997 1_455
Mn3 O5 2.002558 1_455
Mn3 O3 2.002558 1_454
Mn3 O4 2.002558 1_555
Mn3 O1 2.002558 1_554
O0 Zn0 2.079204 1_556
O0 Zn1 2.079204 1_555
O1 Zn0 2.228414 1_556
O2 Zn0 2.079204 1_556
O2 Zn1 2.079204 1_555
O3 Zn1 2.228414 1_655
O4 Zn1 2.228414 1_555
O5 Zn0 2.228414 1_555
O6 Zn0 2.079204 1_555
O6 Zn1 2.079204 1_655
O7 Zn0 2.079204 1_555
O7 Zn1 2.079204 1_655
