# generated using pymatgen
data_Cs5YO4
_symmetry_space_group_name_H-M   'P 1'
_cell_length_a   13.09120435
_cell_length_b   7.46183788
_cell_length_c   11.79920842
_cell_angle_alpha   79.29673712
_cell_angle_beta   90.00000000
_cell_angle_gamma   90.00000000
_symmetry_Int_Tables_number   1
_chemical_formula_structural   Cs5YO4
_chemical_formula_sum   'Cs20 Y4 O16'
_cell_volume   1132.54645736
_cell_formula_units_Z   4
loop_
 _symmetry_equiv_pos_site_id
 _symmetry_equiv_pos_as_xyz
  1  'x, y, z'
loop_
 _atom_site_type_symbol
 _atom_site_label
 _atom_site_symmetry_multiplicity
 _atom_site_fract_x
 _atom_site_fract_y
 _atom_site_fract_z
 _atom_site_occupancy
  Cs  Cs0  1  0.92289365  0.24066457  0.00033639  1
  Cs  Cs1  1  0.57710635  0.74066457  0.00033639  1
  Cs  Cs2  1  0.17769094  0.17161589  0.15426305  1
  Cs  Cs3  1  0.32230906  0.67161589  0.15426305  1
  Cs  Cs4  1  0.69645620  0.98895079  0.22024693  1
  Cs  Cs5  1  0.80354380  0.48895079  0.22024693  1
  Cs  Cs6  1  0.06743834  0.42929283  0.37359554  1
  Cs  Cs7  1  0.43256166  0.92929283  0.37359554  1
  Cs  Cs8  1  0.83624861  0.09445664  0.49349709  1
  Cs  Cs9  1  0.33624861  0.40554336  0.50650291  1
  Cs  Cs10  1  0.66375139  0.59445664  0.49349709  1
  Cs  Cs11  1  0.16375139  0.90554336  0.50650291  1
  Cs  Cs12  1  0.56743834  0.07070717  0.62640446  1
  Cs  Cs13  1  0.93256166  0.57070717  0.62640446  1
  Cs  Cs14  1  0.19645620  0.51104921  0.77975307  1
  Cs  Cs15  1  0.30354380  0.01104921  0.77975307  1
  Cs  Cs16  1  0.67769094  0.32838411  0.84573695  1
  Cs  Cs17  1  0.82230906  0.82838411  0.84573695  1
  Cs  Cs18  1  0.42289365  0.25933543  0.99966361  1
  Cs  Cs19  1  0.07710635  0.75933543  0.99966361  1
  Y  Y0  1  0.53791788  0.38652053  0.25978057  1
  Y  Y1  1  0.96208212  0.88652053  0.25978057  1
  Y  Y2  1  0.03791788  0.11347947  0.74021943  1
  Y  Y3  1  0.46208212  0.61347947  0.74021943  1
  O  O0  1  0.60877987  0.35583769  0.09830753  1
  O  O1  1  0.89122013  0.85583769  0.09830753  1
  O  O2  1  0.37798574  0.31057883  0.25605738  1
  O  O3  1  0.95666837  0.17125427  0.26520587  1
  O  O4  1  0.12201426  0.81057883  0.25605738  1
  O  O5  1  0.54333163  0.67125427  0.26520587  1
  O  O6  1  0.62662090  0.23106256  0.39726087  1
  O  O7  1  0.87337910  0.73106256  0.39726087  1
  O  O8  1  0.12662090  0.26893744  0.60273913  1
  O  O9  1  0.37337910  0.76893744  0.60273913  1
  O  O10  1  0.45666837  0.32874573  0.73479413  1
  O  O11  1  0.87798574  0.18942117  0.74394262  1
  O  O12  1  0.04333163  0.82874573  0.73479413  1
  O  O13  1  0.62201426  0.68942117  0.74394262  1
  O  O14  1  0.10877987  0.14416231  0.90169247  1
  O  O15  1  0.39122013  0.64416231  0.90169247  1
loop_
_geom_bond_atom_site_label_1
_geom_bond_atom_site_label_2
_geom_bond_distance
_geom_bond_site_symmetry_2
Cs0 O14 2.847164 1_654
Cs0 O1 2.919049 1_545
Cs0 O3 3.103175 1_555
Cs0 O11 3.173894 1_554
Cs1 O15 2.847164 1_554
Cs1 O0 2.919049 1_555
Cs1 O5 3.103175 1_555
Cs1 O13 3.173894 1_554
Cs2 O4 2.833658 1_545
Cs2 O2 3.139402 1_555
Cs2 O14 3.156542 1_554
Cs2 O3 3.175584 1_455
Cs3 O2 2.833658 1_555
Cs3 O4 3.139402 1_555
Cs3 O15 3.156542 1_554
Cs3 O5 3.175584 1_555
Cs4 O0 3.069068 1_565
Cs4 O5 3.074476 1_555
Cs4 O6 3.140627 1_565
Cs4 O1 3.176235 1_555
Cs4 O7 3.454986 1_555
Cs5 O1 3.069068 1_555
Cs5 O3 3.074476 1_555
Cs5 O7 3.140627 1_555
Cs5 O0 3.176235 1_555
Cs5 O6 3.454986 1_555
Cs6 O8 2.853136 1_555
Cs6 O3 2.891443 1_455
Cs6 O4 3.010443 1_555
Cs6 O7 3.440336 1_455
Cs7 O9 2.853136 1_555
Cs7 O5 2.891443 1_555
Cs7 O2 3.010443 1_565
Cs7 O6 3.440336 1_565
Cs8 O6 3.070758 1_555
Cs8 O3 3.081553 1_555
Cs8 O7 3.165764 1_545
Cs8 O11 3.211050 1_555
Cs9 O8 3.070758 1_555
Cs9 O10 3.081553 1_555
Cs9 O9 3.165764 1_555
Cs9 O2 3.211050 1_555
Cs10 O7 3.070758 1_555
Cs10 O5 3.081553 1_555
Cs10 O6 3.165764 1_555
Cs10 O13 3.211050 1_555
Cs11 O9 3.070758 1_555
Cs11 O12 3.081553 1_555
Cs11 O8 3.165764 1_565
Cs11 O4 3.211050 1_555
Cs12 O6 2.853136 1_555
Cs12 O10 2.891443 1_555
Cs12 O13 3.010443 1_545
Cs12 O9 3.440336 1_545
Cs13 O7 2.853136 1_555
Cs13 O12 2.891443 1_655
Cs13 O11 3.010443 1_555
Cs13 O8 3.440336 1_655
Cs14 O14 3.069068 1_555
Cs14 O12 3.074476 1_555
Cs14 O8 3.140627 1_555
Cs14 O15 3.176235 1_555
Cs14 O9 3.454986 1_555
Cs15 O15 3.069068 1_545
Cs15 O10 3.074476 1_555
Cs15 O9 3.140627 1_545
Cs15 O14 3.176235 1_555
Cs15 O8 3.454986 1_555
Cs16 O13 2.833658 1_555
Cs16 O11 3.139402 1_555
Cs16 O0 3.156542 1_556
Cs16 O10 3.175584 1_555
Cs17 O11 2.833658 1_565
Cs17 O13 3.139402 1_555
Cs17 O1 3.156542 1_556
Cs17 O12 3.175584 1_655
Cs18 O0 2.847164 1_556
Cs18 O15 2.919049 1_555
Cs18 O10 3.103175 1_555
Cs18 O2 3.173894 1_556
Cs19 O1 2.847164 1_456
Cs19 O14 2.919049 1_565
Cs19 O12 3.103175 1_555
Cs19 O4 3.173894 1_556
O0 Y0 2.169103 1_555
O1 Y1 2.169103 1_555
O2 Y0 2.171608 1_555
O3 Y1 2.138626 1_545
O4 Y1 2.171608 1_455
O5 Y0 2.138626 1_555
O6 Y0 2.150932 1_555
O7 Y1 2.150932 1_555
O8 Y2 2.150932 1_555
O9 Y3 2.150932 1_555
O10 Y3 2.138626 1_555
O11 Y2 2.171608 1_655
O12 Y2 2.138626 1_565
O13 Y3 2.171608 1_555
O14 Y2 2.169103 1_555
O15 Y3 2.169103 1_555
