# generated using pymatgen
data_Pr2Ni3P4
_symmetry_space_group_name_H-M   'P 1'
_cell_length_a   3.97346911
_cell_length_b   3.97346911
_cell_length_c   9.25341952
_cell_angle_alpha   90.00000000
_cell_angle_beta   90.00000000
_cell_angle_gamma   90.00000000
_symmetry_Int_Tables_number   1
_chemical_formula_structural   Pr2Ni3P4
_chemical_formula_sum   'Pr2 Ni3 P4'
_cell_volume   146.09721405
_cell_formula_units_Z   1
loop_
 _symmetry_equiv_pos_site_id
 _symmetry_equiv_pos_as_xyz
  1  'x, y, z'
loop_
 _atom_site_type_symbol
 _atom_site_label
 _atom_site_symmetry_multiplicity
 _atom_site_fract_x
 _atom_site_fract_y
 _atom_site_fract_z
 _atom_site_occupancy
  Pr  Pr0  1  0.50000000  0.00000000  0.76325997  1
  Pr  Pr1  1  -0.00000000  0.50000000  0.23674003  1
  Ni  Ni0  1  0.00000000  0.00000000  0.50000000  1
  Ni  Ni1  1  -0.00000000  -0.00000000  -0.00000000  1
  Ni  Ni2  1  0.50000000  0.50000000  0.50000000  1
  P  P0  1  -0.00000000  0.50000000  0.87825284  1
  P  P1  1  0.50000000  0.00000000  0.37815791  1
  P  P2  1  0.50000000  -0.00000000  0.12174716  1
  P  P3  1  -0.00000000  0.50000000  0.62184209  1
loop_
_geom_bond_atom_site_label_1
_geom_bond_atom_site_label_2
_geom_bond_distance
_geom_bond_site_symmetry_2
Ni0 P3 2.284354 1_555
Ni0 P1 2.284354 1_555
Ni0 P1 2.284354 1_455
Ni0 P3 2.284354 1_545
Ni0 Pr0 3.143482 1_455
Ni0 Pr1 3.143482 1_545
Ni0 Pr1 3.143482 1_555
Ni0 Pr0 3.143482 1_555
Ni1 P2 2.283920 1_455
Ni1 P0 2.283920 1_554
Ni1 P2 2.283920 1_555
Ni1 P0 2.283920 1_544
Ni1 Pr1 2.957378 1_545
Ni1 Pr1 2.957378 1_555
Ni1 Pr0 2.957378 1_554
Ni1 Pr0 2.957378 1_454
Ni2 P3 2.284354 1_555
Ni2 P1 2.284354 1_565
Ni2 P1 2.284354 1_555
Ni2 P3 2.284354 1_655
Ni2 Pr1 3.143482 1_655
Ni2 Pr1 3.143482 1_555
Ni2 Pr0 3.143482 1_565
Ni2 Pr0 3.143482 1_555
P0 P3 2.372676 1_555
P0 Pr0 3.004412 1_455
P0 Pr0 3.004412 1_565
P0 Pr0 3.004412 1_555
P0 Pr0 3.004412 1_465
P0 Pr1 3.317232 1_556
P1 P2 2.372676 1_555
P1 Pr1 3.099461 1_655
P1 Pr1 3.099461 1_545
P1 Pr1 3.099461 1_555
P1 Pr1 3.099461 1_645
P2 Pr1 3.004412 1_545
P2 Pr1 3.004412 1_645
P2 Pr1 3.004412 1_555
P2 Pr1 3.004412 1_655
P2 Pr0 3.317232 1_554
P3 Pr0 3.099461 1_465
P3 Pr0 3.099461 1_455
P3 Pr0 3.099461 1_565
P3 Pr0 3.099461 1_555
