# generated using pymatgen
data_Na5Si34
_symmetry_space_group_name_H-M   'P 1'
_cell_length_a   10.38325457
_cell_length_b   10.38325457
_cell_length_c   10.38325361
_cell_angle_alpha   60.05956196
_cell_angle_beta   60.05956196
_cell_angle_gamma   60.05956430
_symmetry_Int_Tables_number   1
_chemical_formula_structural   Na5Si34
_chemical_formula_sum   'Na5 Si34'
_cell_volume   792.63152090
_cell_formula_units_Z   1
loop_
 _symmetry_equiv_pos_site_id
 _symmetry_equiv_pos_as_xyz
  1  'x, y, z'
loop_
 _atom_site_type_symbol
 _atom_site_label
 _atom_site_symmetry_multiplicity
 _atom_site_fract_x
 _atom_site_fract_y
 _atom_site_fract_z
 _atom_site_occupancy
  Na  Na0  1  0.37498130  0.37498130  0.37498130  1
  Na  Na1  1  0.62501870  0.62501870  0.62501870  1
  Na  Na2  1  0.50000000  0.00000000  -0.00000000  1
  Na  Na3  1  -0.00000000  0.00000000  0.50000000  1
  Na  Na4  1  -0.00000000  0.50000000  -0.00000000  1
  Si  Si0  1  0.78246685  0.78246685  0.78246685  1
  Si  Si1  1  0.15349149  0.78245086  0.78245086  1
  Si  Si2  1  0.78245086  0.78245086  0.15349149  1
  Si  Si3  1  0.78245086  0.15349149  0.78245086  1
  Si  Si4  1  0.21753315  0.21753315  0.21753315  1
  Si  Si5  1  0.84650851  0.21754914  0.21754914  1
  Si  Si6  1  0.21754914  0.21754914  0.84650851  1
  Si  Si7  1  0.21754914  0.84650851  0.21754914  1
  Si  Si8  1  0.87543701  0.87543701  0.87543701  1
  Si  Si9  1  0.12456299  0.12456299  0.12456299  1
  Si  Si10  1  0.62845994  0.00567400  0.62845994  1
  Si  Si11  1  0.23626506  0.62887542  0.00602142  1
  Si  Si12  1  0.00602142  0.62887542  0.23626506  1
  Si  Si13  1  0.62928347  0.23632384  0.62928347  1
  Si  Si14  1  0.62887542  0.00602142  0.23626506  1
  Si  Si15  1  0.00567400  0.62845994  0.62845994  1
  Si  Si16  1  0.23632384  0.62928347  0.62928347  1
  Si  Si17  1  0.62887542  0.23626506  0.00602142  1
  Si  Si18  1  0.23626506  0.00602142  0.62887542  1
  Si  Si19  1  0.62928347  0.62928347  0.23632384  1
  Si  Si20  1  0.62845994  0.62845994  0.00567400  1
  Si  Si21  1  0.00602142  0.23626506  0.62887542  1
  Si  Si22  1  0.37154006  0.99432600  0.37154006  1
  Si  Si23  1  0.76373494  0.37112458  0.99397858  1
  Si  Si24  1  0.99397858  0.37112458  0.76373494  1
  Si  Si25  1  0.37071653  0.76367616  0.37071653  1
  Si  Si26  1  0.37112458  0.99397858  0.76373494  1
  Si  Si27  1  0.99432600  0.37154006  0.37154006  1
  Si  Si28  1  0.76367616  0.37071653  0.37071653  1
  Si  Si29  1  0.37112458  0.76373494  0.99397858  1
  Si  Si30  1  0.76373494  0.99397858  0.37112458  1
  Si  Si31  1  0.37071653  0.37071653  0.76367616  1
  Si  Si32  1  0.37154006  0.37154006  0.99432600  1
  Si  Si33  1  0.99397858  0.76373494  0.37112458  1
loop_
_geom_bond_atom_site_label_1
_geom_bond_atom_site_label_2
_geom_bond_distance
_geom_bond_site_symmetry_2
Na2 Si9 3.185311 1_555
Na2 Si8 3.185311 1_544
Na2 Si0 3.266913 1_544
Na2 Si4 3.266913 1_555
Na2 Si7 3.271523 1_545
Na2 Si3 3.271523 1_554
Na2 Si6 3.271523 1_554
Na2 Si2 3.271523 1_545
Na2 Si26 3.365439 1_544
Na2 Si14 3.365439 1_555
Na2 Si17 3.365439 1_555
Na2 Si29 3.365439 1_544
Na2 Si13 3.367747 1_554
Na2 Si25 3.367747 1_545
Na2 Si19 3.367747 1_545
Na2 Si31 3.367747 1_554
Na2 Si22 3.373477 1_545
Na2 Si10 3.373477 1_554
Na2 Si32 3.373477 1_554
Na2 Si20 3.373477 1_545
Na3 Si9 3.185310 1_555
Na3 Si8 3.185310 1_445
Na3 Si0 3.266913 1_445
Na3 Si4 3.266913 1_555
Na3 Si7 3.271523 1_545
Na3 Si5 3.271523 1_455
Na3 Si1 3.271523 1_545
Na3 Si3 3.271523 1_455
Na3 Si18 3.365439 1_555
Na3 Si21 3.365439 1_555
Na3 Si33 3.365439 1_445
Na3 Si30 3.365439 1_445
Na3 Si25 3.367747 1_545
Na3 Si28 3.367747 1_455
Na3 Si16 3.367747 1_545
Na3 Si13 3.367747 1_455
Na3 Si22 3.373477 1_545
Na3 Si27 3.373477 1_455
Na3 Si15 3.373477 1_545
Na3 Si10 3.373477 1_455
Na4 Si9 3.185311 1_555
Na4 Si8 3.185311 1_454
Na4 Si0 3.266913 1_454
Na4 Si4 3.266913 1_555
Na4 Si5 3.271523 1_455
Na4 Si1 3.271523 1_554
Na4 Si2 3.271523 1_455
Na4 Si6 3.271523 1_554
Na4 Si12 3.365439 1_555
Na4 Si24 3.365439 1_454
Na4 Si11 3.365439 1_555
Na4 Si23 3.365439 1_454
Na4 Si16 3.367747 1_554
Na4 Si28 3.367747 1_455
Na4 Si31 3.367747 1_554
Na4 Si19 3.367747 1_455
Na4 Si27 3.373477 1_455
Na4 Si15 3.373477 1_554
Na4 Si32 3.373477 1_554
Na4 Si20 3.373477 1_455
Si0 Si8 2.363508 1_555
Si0 Si20 2.374704 1_556
Si0 Si10 2.374704 1_565
Si0 Si15 2.374704 1_655
Si1 Si8 2.359095 1_455
Si1 Si16 2.364807 1_555
Si1 Si11 2.366172 1_556
Si1 Si18 2.366172 1_565
Si2 Si8 2.359095 1_554
Si3 Si8 2.359095 1_545
Si4 Si9 2.363508 1_555
Si5 Si9 2.359095 1_655
Si6 Si9 2.359095 1_556
Si7 Si9 2.359095 1_565
Si10 Si30 2.352540 1_545
Si10 Si26 2.352540 1_545
Si10 Si13 2.403462 1_555
Si11 Si32 2.352540 1_554
Si11 Si29 2.354761 1_554
Si11 Si12 2.392830 1_555
Si12 Si27 2.352540 1_455
Si12 Si33 2.354761 1_455
Si12 Si2 2.366172 1_455
Si13 Si28 2.359414 1_555
Si13 Si31 2.359415 1_555
Si13 Si3 2.364807 1_555
Si14 Si22 2.352540 1_545
Si14 Si30 2.354761 1_545
Si14 Si2 2.366172 1_545
Si14 Si17 2.392830 1_555
Si15 Si33 2.352540 1_455
Si15 Si24 2.352540 1_455
Si15 Si16 2.403462 1_555
Si16 Si25 2.359414 1_555
Si16 Si31 2.359415 1_555
Si17 Si32 2.352540 1_554
Si17 Si23 2.354761 1_554
Si17 Si3 2.366172 1_554
Si18 Si22 2.352540 1_545
Si18 Si26 2.354761 1_545
Si18 Si21 2.392830 1_555
Si19 Si28 2.359415 1_555
Si19 Si25 2.359415 1_555
Si19 Si2 2.364807 1_555
Si19 Si20 2.403462 1_555
Si20 Si29 2.352540 1_554
Si20 Si23 2.352540 1_554
Si21 Si27 2.352540 1_455
Si21 Si24 2.354761 1_455
Si21 Si3 2.366172 1_455
Si22 Si4 2.374704 1_565
Si22 Si25 2.403462 1_555
Si23 Si5 2.366172 1_556
Si23 Si24 2.392830 1_555
Si24 Si6 2.366172 1_655
Si25 Si7 2.364807 1_555
Si26 Si6 2.366172 1_565
Si26 Si29 2.392830 1_555
Si27 Si4 2.374704 1_655
Si27 Si28 2.403462 1_555
Si28 Si5 2.364807 1_555
Si29 Si7 2.366172 1_556
Si30 Si5 2.366172 1_565
Si30 Si33 2.392830 1_555
Si31 Si6 2.364807 1_555
Si31 Si32 2.403462 1_555
Si32 Si4 2.374704 1_556
Si33 Si7 2.366172 1_655
