# generated using pymatgen
data_K5AlCr4(MoO4)10
_symmetry_space_group_name_H-M   'P 1'
_cell_length_a   5.76641048
_cell_length_b   40.41787755
_cell_length_c   9.39492169
_cell_angle_alpha   96.21548931
_cell_angle_beta   72.08737285
_cell_angle_gamma   89.99913674
_symmetry_Int_Tables_number   1
_chemical_formula_structural   K5AlCr4(MoO4)10
_chemical_formula_sum   'K10 Al2 Cr8 Mo20 O80'
_cell_volume   2069.96610528
_cell_formula_units_Z   2
loop_
 _symmetry_equiv_pos_site_id
 _symmetry_equiv_pos_as_xyz
  1  'x, y, z'
loop_
 _atom_site_type_symbol
 _atom_site_label
 _atom_site_symmetry_multiplicity
 _atom_site_fract_x
 _atom_site_fract_y
 _atom_site_fract_z
 _atom_site_occupancy
  K  K0  1  0.96288070  0.15001419  0.70000105  1
  K  K1  1  0.16282729  0.35000110  0.29971481  1
  K  K2  1  0.36282646  0.54998209  0.89973380  1
  K  K3  1  0.56293478  0.75000239  0.49998544  1
  K  K4  1  0.76289834  0.94999802  0.10002146  1
  K  K5  1  0.23706522  0.04999761  0.90001456  1
  K  K6  1  0.43717354  0.25001791  0.50026620  1
  K  K7  1  0.63717271  0.44999890  0.10028519  1
  K  K8  1  0.83711930  0.64998581  0.69999895  1
  K  K9  1  0.03710166  0.85000198  0.29997854  1
  Al  Al0  1  0.30001110  0.30000040  0.90000046  1
  Al  Al1  1  0.49998890  0.49999960  0.49999954  1
  Cr  Cr0  1  0.49990580  0.00003904  0.50007730  1
  Cr  Cr1  1  0.69980610  0.20008111  0.09987709  1
  Cr  Cr2  1  0.90000000  0.40000000  0.70000000  1
  Cr  Cr3  1  0.10019390  0.59991889  0.30012291  1
  Cr  Cr4  1  0.30009420  0.79996096  0.89992270  1
  Cr  Cr5  1  0.10003012  0.10000973  0.29999824  1
  Cr  Cr6  1  0.69996988  0.69999027  0.10000176  1
  Cr  Cr7  1  0.90000000  0.90000000  0.70000000  1
  Mo  Mo0  1  0.56803578  0.14691390  0.40712775  1
  Mo  Mo1  1  0.76855062  0.34624523  0.00664723  1
  Mo  Mo2  1  0.96853528  0.54623424  0.60665610  1
  Mo  Mo3  1  0.16800519  0.74690272  0.20716541  1
  Mo  Mo4  1  0.36803549  0.94690910  0.80712253  1
  Mo  Mo5  1  0.27509659  0.15310109  0.99284924  1
  Mo  Mo6  1  0.47352287  0.35273335  0.59583735  1
  Mo  Mo7  1  0.67360328  0.55272234  0.19581822  1
  Mo  Mo8  1  0.87518412  0.75308504  0.79284362  1
  Mo  Mo9  1  0.07515242  0.95309587  0.39283330  1
  Mo  Mo10  1  0.63199481  0.05309728  0.19283459  1
  Mo  Mo11  1  0.83146472  0.25376576  0.79334390  1
  Mo  Mo12  1  0.03144938  0.45375477  0.39335277  1
  Mo  Mo13  1  0.23196422  0.65308610  0.99287225  1
  Mo  Mo14  1  0.43196451  0.85309090  0.59287747  1
  Mo  Mo15  1  0.92481588  0.04691496  0.60715638  1
  Mo  Mo16  1  0.12639672  0.24727766  0.20418178  1
  Mo  Mo17  1  0.32647713  0.44726665  0.80416265  1
  Mo  Mo18  1  0.52490341  0.64689891  0.40715076  1
  Mo  Mo19  1  0.72484758  0.84690413  0.00716670  1
  O  O0  1  0.66079010  0.16387003  0.23052471  1
  O  O1  1  0.85995312  0.36379417  0.83168080  1
  O  O2  1  0.05999975  0.56376104  0.43170563  1
  O  O3  1  0.26087040  0.76382199  0.03054650  1
  O  O4  1  0.46083560  0.96385163  0.63054966  1
  O  O5  1  0.19139626  0.13616669  0.16943681  1
  O  O6  1  0.38883283  0.33483772  0.77130930  1
  O  O7  1  0.58883918  0.53483519  0.37131096  1
  O  O8  1  0.79137724  0.73615920  0.96944609  1
  O  O9  1  0.99140279  0.93616419  0.56943308  1
  O  O10  1  0.53912960  0.03617801  0.36945350  1
  O  O11  1  0.74000025  0.23623896  0.96829437  1
  O  O12  1  0.94004688  0.43620583  0.56831920  1
  O  O13  1  0.13920990  0.63612997  0.16947529  1
  O  O14  1  0.33916440  0.83614837  0.76945034  1
  O  O15  1  0.00862276  0.06384080  0.43055391  1
  O  O16  1  0.21116082  0.26516481  0.02868904  1
  O  O17  1  0.41116717  0.46516228  0.62869070  1
  O  O18  1  0.60860374  0.66383331  0.23056319  1
  O  O19  1  0.80859721  0.86383581  0.83056692  1
  O  O20  1  0.44384434  0.17858299  0.55312479  1
  O  O21  1  0.64557739  0.37815595  0.15210489  1
  O  O22  1  0.84560832  0.57815698  0.75211207  1
  O  O23  1  0.04386785  0.77858407  0.35313896  1
  O  O24  1  0.24386582  0.97858513  0.95313282  1
  O  O25  1  0.29705054  0.12141700  0.84687816  1
  O  O26  1  0.49688105  0.32154471  0.44772519  1
  O  O27  1  0.69689522  0.52154144  0.04771629  1
  O  O28  1  0.89704591  0.72141265  0.64687359  1
  O  O29  1  0.09706167  0.92141529  0.24686725  1
  O  O30  1  0.75613215  0.02141593  0.04686104  1
  O  O31  1  0.95439168  0.22184302  0.64788793  1
  O  O32  1  0.15442261  0.42184405  0.24789511  1
  O  O33  1  0.35615566  0.62141701  0.84687521  1
  O  O34  1  0.55613418  0.82141487  0.44686718  1
  O  O35  1  0.90295409  0.07858735  0.75312641  1
  O  O36  1  0.10310478  0.27845856  0.35228371  1
  O  O37  1  0.30311895  0.47845529  0.95227481  1
  O  O38  1  0.50294946  0.67858300  0.55312184  1
  O  O39  1  0.70293833  0.87858471  0.15313275  1
  O  O40  1  0.83050485  0.12895024  0.44569106  1
  O  O41  1  0.03783151  0.32799789  0.03864861  1
  O  O42  1  0.23783807  0.52799326  0.63863996  1
  O  O43  1  0.43051599  0.72894239  0.24567971  1
  O  O44  1  0.63050977  0.92894724  0.84567886  1
  O  O45  1  0.57621693  0.17105775  0.95436673  1
  O  O46  1  0.77450326  0.37093319  0.55516026  1
  O  O47  1  0.97453311  0.57093173  0.15512534  1
  O  O48  1  0.17627694  0.77104547  0.75426364  1
  O  O49  1  0.37621501  0.97106892  0.35438456  1
  O  O50  1  0.36948401  0.07105761  0.15432029  1
  O  O51  1  0.56216193  0.27200674  0.76136004  1
  O  O52  1  0.76216849  0.47200211  0.36135139  1
  O  O53  1  0.96949515  0.67104976  0.95430894  1
  O  O54  1  0.16949023  0.87105276  0.55432114  1
  O  O55  1  0.62372306  0.02895453  0.64573636  1
  O  O56  1  0.82546689  0.22906827  0.24487466  1
  O  O57  1  0.02549674  0.42906681  0.84483974  1
  O  O58  1  0.22378307  0.62894225  0.44563327  1
  O  O59  1  0.42378499  0.82893108  0.04561544  1
  O  O60  1  0.33228322  0.11650133  0.41167411  1
  O  O61  1  0.52773199  0.31655217  0.00754685  1
  O  O62  1  0.72771564  0.51654846  0.60753794  1
  O  O63  1  0.93226503  0.71649566  0.21164396  1
  O  O64  1  0.13228815  0.91649784  0.81165372  1
  O  O65  1  0.04387804  0.18351411  0.98835675  1
  O  O66  1  0.24463128  0.38333332  0.58896631  1
  O  O67  1  0.44473468  0.58332141  0.18894504  1
  O  O68  1  0.64403741  0.78349542  0.78828860  1
  O  O69  1  0.84392514  0.98351038  0.38836739  1
  O  O70  1  0.86773497  0.08350434  0.18835604  1
  O  O71  1  0.07228436  0.28345154  0.79246206  1
  O  O72  1  0.27226801  0.48344783  0.39245315  1
  O  O73  1  0.46771678  0.68349867  0.98832589  1
  O  O74  1  0.66771185  0.88350216  0.58834628  1
  O  O75  1  0.15596259  0.01650458  0.61171140  1
  O  O76  1  0.35526532  0.21667859  0.21105496  1
  O  O77  1  0.55536872  0.41666668  0.81103369  1
  O  O78  1  0.75612196  0.61648589  0.41164325  1
  O  O79  1  0.95607486  0.81648962  0.01163261  1
loop_
_geom_bond_atom_site_label_1
_geom_bond_atom_site_label_2
_geom_bond_distance
_geom_bond_site_symmetry_2
K0 O45 2.772703 1_555
K0 O40 2.774402 1_555
K0 O35 2.984757 1_555
K0 O20 2.986691 1_655
K0 O25 2.989013 1_655
K0 O31 2.998835 1_555
K0 O60 3.060366 1_655
K0 O65 3.061804 1_655
K1 O46 2.782811 1_455
K1 O41 2.818031 1_555
K1 O36 2.988059 1_555
K1 O21 2.989052 1_555
K1 O26 2.993492 1_555
K1 O32 2.998614 1_555
K1 O66 3.068890 1_555
K1 O61 3.071366 1_555
K2 O47 2.782570 1_456
K2 O42 2.818117 1_555
K2 O33 2.984378 1_555
K2 O37 2.987365 1_555
K2 O22 2.989570 1_555
K2 O27 2.993099 1_556
K2 O67 3.068910 1_556
K2 O62 3.071283 1_555
K3 O48 2.772202 1_555
K3 O43 2.774465 1_555
K3 O34 2.984205 1_555
K3 O38 2.984507 1_555
K3 O23 2.986719 1_655
K3 O28 2.988688 1_555
K3 O63 3.060188 1_555
K3 O68 3.061529 1_555
K4 O49 2.772986 1_555
K4 O44 2.774607 1_554
K4 O39 2.984200 1_555
K4 O30 2.984518 1_565
K4 O24 2.987057 1_654
K4 O29 2.988522 1_655
K4 O64 3.060396 1_654
K4 O69 3.061969 1_555
K5 O55 2.772202 1_555
K5 O50 2.774465 1_556
K5 O24 2.984205 1_545
K5 O25 2.984507 1_555
K5 O30 2.986719 1_456
K5 O35 2.988688 1_455
K5 O70 3.060188 1_456
K5 O75 3.061529 1_555
K6 O56 2.782570 1_555
K6 O51 2.818117 1_555
K6 O20 2.984378 1_555
K6 O26 2.987365 1_555
K6 O31 2.989570 1_455
K6 O36 2.993099 1_555
K6 O76 3.068910 1_555
K6 O71 3.071283 1_555
K7 O57 2.782811 1_654
K7 O52 2.818031 1_555
K7 O27 2.988059 1_555
K7 O32 2.989052 1_555
K7 O37 2.993492 1_554
K7 O21 2.998614 1_555
K7 O77 3.068890 1_554
K7 O72 3.071366 1_555
K8 O58 2.772703 1_655
K8 O53 2.774402 1_555
K8 O28 2.984757 1_555
K8 O33 2.986691 1_555
K8 O38 2.989013 1_555
K8 O22 2.998835 1_555
K8 O73 3.060366 1_555
K8 O78 3.061804 1_555
K9 O59 2.772986 1_555
K9 O54 2.774607 1_555
K9 O29 2.984200 1_555
K9 O23 2.984518 1_555
K9 O34 2.987057 1_455
K9 O39 2.988522 1_455
K9 O74 3.060396 1_455
K9 O79 3.061969 1_455
Al0 O16 1.922037 1_556
Al0 O6 1.922096 1_555
Al0 O51 1.931712 1_555
Al0 O41 1.931914 1_556
Al0 O71 1.965281 1_555
Al0 O61 1.965338 1_556
Al1 O7 1.922037 1_555
Al1 O17 1.922096 1_555
Al1 O42 1.931712 1_555
Al1 O52 1.931914 1_555
Al1 O62 1.965281 1_555
Al1 O72 1.965338 1_555
Cr0 O10 1.976897 1_555
Cr0 O4 1.977597 1_545
Cr0 O55 2.000759 1_555
Cr0 O49 2.001704 1_545
Cr0 O75 2.011393 1_555
Cr0 O69 2.012587 1_545
Cr1 O0 1.979488 1_555
Cr1 O11 1.983092 1_554
Cr1 O45 2.001223 1_554
Cr1 O56 2.003755 1_555
Cr1 O65 2.012941 1_654
Cr1 O76 2.014935 1_555
Cr2 O1 1.985330 1_555
Cr2 O12 1.985330 1_555
Cr2 O57 2.003786 1_655
Cr2 O46 2.003786 1_555
Cr2 O77 2.015900 1_555
Cr2 O66 2.015900 1_655
Cr3 O13 1.979488 1_555
Cr3 O2 1.983092 1_555
Cr3 O58 2.001223 1_555
Cr3 O47 2.003755 1_455
Cr3 O78 2.012941 1_455
Cr3 O67 2.014935 1_555
Cr4 O3 1.976897 1_556
Cr4 O14 1.977597 1_555
Cr4 O48 2.000759 1_555
Cr4 O59 2.001704 1_556
Cr4 O68 2.011393 1_555
Cr4 O79 2.012587 1_456
Cr5 O5 1.976983 1_555
Cr5 O15 1.977358 1_555
Cr5 O50 2.000440 1_555
Cr5 O40 2.000487 1_455
Cr5 O60 2.012875 1_555
Cr5 O70 2.013010 1_455
Cr6 O18 1.976983 1_555
Cr6 O8 1.977358 1_554
Cr6 O43 2.000440 1_555
Cr6 O53 2.000487 1_554
Cr6 O73 2.012875 1_554
Cr6 O63 2.013010 1_555
Cr7 O19 1.977267 1_555
Cr7 O9 1.977267 1_555
Cr7 O44 2.000461 1_555
Cr7 O54 2.000461 1_655
Cr7 O64 2.012967 1_655
Cr7 O74 2.012967 1_555
Mo0 O20 1.745907 1_555
Mo0 O0 1.791354 1_555
Mo0 O60 1.826631 1_555
Mo0 O40 1.828480 1_555
Mo1 O21 1.748157 1_555
Mo1 O1 1.789550 1_554
Mo1 O61 1.834063 1_555
Mo1 O41 1.838645 1_655
Mo2 O22 1.748421 1_555
Mo2 O2 1.788981 1_655
Mo2 O62 1.833901 1_555
Mo2 O42 1.838573 1_655
Mo3 O23 1.746048 1_555
Mo3 O3 1.790775 1_555
Mo3 O63 1.826512 1_455
Mo3 O43 1.828409 1_555
Mo4 O24 1.746140 1_555
Mo4 O4 1.790845 1_555
Mo4 O64 1.826592 1_555
Mo4 O44 1.828444 1_555
Mo5 O25 1.746309 1_555
Mo5 O5 1.790847 1_556
Mo5 O65 1.826549 1_555
Mo5 O45 1.828435 1_555
Mo6 O26 1.745954 1_555
Mo6 O6 1.800650 1_555
Mo6 O66 1.829083 1_555
Mo6 O46 1.830926 1_555
Mo7 O27 1.745753 1_555
Mo7 O7 1.800645 1_555
Mo7 O67 1.828968 1_555
Mo7 O47 1.830827 1_555
Mo8 O28 1.746085 1_555
Mo8 O8 1.790794 1_555
Mo8 O68 1.826360 1_555
Mo8 O48 1.828311 1_655
Mo9 O29 1.746228 1_555
Mo9 O9 1.790891 1_455
Mo9 O69 1.826546 1_455
Mo9 O49 1.828432 1_555
Mo10 O30 1.746048 1_555
Mo10 O10 1.790775 1_555
Mo10 O70 1.826512 1_555
Mo10 O50 1.828409 1_555
Mo11 O31 1.748421 1_555
Mo11 O11 1.788981 1_555
Mo11 O71 1.833901 1_655
Mo11 O51 1.838573 1_555
Mo12 O32 1.748157 1_555
Mo12 O12 1.789550 1_455
Mo12 O72 1.834063 1_555
Mo12 O52 1.838645 1_455
Mo13 O33 1.745907 1_555
Mo13 O13 1.791354 1_556
Mo13 O73 1.826631 1_555
Mo13 O53 1.828480 1_455
Mo14 O34 1.746140 1_555
Mo14 O14 1.790845 1_555
Mo14 O74 1.826592 1_555
Mo14 O54 1.828444 1_555
Mo15 O35 1.746085 1_555
Mo15 O15 1.790794 1_655
Mo15 O75 1.826360 1_655
Mo15 O55 1.828311 1_555
Mo16 O36 1.745753 1_555
Mo16 O16 1.800645 1_555
Mo16 O76 1.828968 1_555
Mo16 O56 1.830827 1_455
Mo17 O37 1.745954 1_555
Mo17 O17 1.800650 1_555
Mo17 O77 1.829083 1_555
Mo17 O57 1.830926 1_555
Mo18 O38 1.746309 1_555
Mo18 O18 1.790847 1_555
Mo18 O78 1.826549 1_555
Mo18 O58 1.828435 1_555
Mo19 O39 1.746228 1_555
Mo19 O19 1.790891 1_554
Mo19 O79 1.826546 1_555
Mo19 O59 1.828432 1_555
