# generated using pymatgen
data_Mg14CrMo
_symmetry_space_group_name_H-M   'P 1'
_cell_length_a   6.25599117
_cell_length_b   6.25599253
_cell_length_c   9.97878820
_cell_angle_alpha   90.00000000
_cell_angle_beta   90.00000000
_cell_angle_gamma   120.00025309
_symmetry_Int_Tables_number   1
_chemical_formula_structural   Mg14CrMo
_chemical_formula_sum   'Mg14 Cr1 Mo1'
_cell_volume   338.22030551
_cell_formula_units_Z   1
loop_
 _symmetry_equiv_pos_site_id
 _symmetry_equiv_pos_as_xyz
  1  'x, y, z'
loop_
 _atom_site_type_symbol
 _atom_site_label
 _atom_site_symmetry_multiplicity
 _atom_site_fract_x
 _atom_site_fract_y
 _atom_site_fract_z
 _atom_site_occupancy
  Mg  Mg0  1  0.16786322  0.83393122  0.12500000  1
  Mg  Mg1  1  0.16835697  0.83417806  0.62500000  1
  Mg  Mg2  1  0.66606889  0.33213628  0.12500000  1
  Mg  Mg3  1  0.66582203  0.33164302  0.62500000  1
  Mg  Mg4  1  0.66606837  0.83393157  0.12500000  1
  Mg  Mg5  1  0.66582174  0.83417825  0.62500000  1
  Mg  Mg6  1  0.32735171  0.17264796  0.37866460  1
  Mg  Mg7  1  0.32735171  0.17264796  0.87133540  1
  Mg  Mg8  1  0.32735226  0.65470485  0.37866461  1
  Mg  Mg9  1  0.32735226  0.65470485  0.87133539  1
  Mg  Mg10  1  0.84529516  0.17264767  0.37866455  1
  Mg  Mg11  1  0.84529516  0.17264767  0.87133545  1
  Mg  Mg12  1  0.83333293  0.66666720  0.37551287  1
  Mg  Mg13  1  0.83333293  0.66666720  0.87448713  1
  Cr  Cr0  1  0.16666806  0.33333345  0.12500000  1
  Mo  Mo0  1  0.16666655  0.33333283  0.62500000  1
loop_
_geom_bond_atom_site_label_1
_geom_bond_atom_site_label_2
_geom_bond_distance
_geom_bond_site_symmetry_2
Mg0 Mg13 3.087714 1_454
Mg0 Mg12 3.087714 1_455
Mg0 Mg2 3.116757 1_565
Mg0 Mg4 3.116766 1_555
Mg0 Mg9 3.127099 1_554
Mg0 Mg8 3.127099 1_555
Mg0 Mg7 3.127099 1_564
Mg0 Mg6 3.127099 1_565
Mg0 Mg2 3.139211 1_455
Mg0 Mg4 3.139225 1_455
Mg1 Mg8 3.067446 1_555
Mg1 Mg9 3.067446 1_555
Mg1 Mg7 3.067447 1_565
Mg1 Mg6 3.067447 1_565
Mg1 Mg12 3.081008 1_455
Mg1 Mg13 3.081008 1_455
Mg1 Mg3 3.112125 1_565
Mg1 Mg5 3.112135 1_555
Mg1 Mo0 3.128010 1_565
Mg1 Mo0 3.128010 1_555
Mg1 Mg3 3.143843 1_455
Mg1 Mg5 3.143857 1_455
Mg2 Mg4 3.116763 1_545
Mg2 Mg6 3.127101 1_555
Mg2 Mg7 3.127101 1_554
Mg2 Mg4 3.139229 1_555
Mg3 Mg6 3.067448 1_555
Mg3 Mg7 3.067448 1_555
Mg3 Mg5 3.112135 1_545
Mg3 Mo0 3.128007 1_655
Mg3 Mo0 3.128011 1_555
Mg3 Mg5 3.143858 1_555
Mg4 Mg9 3.127097 1_554
Mg4 Mg8 3.127097 1_555
Mg5 Mg8 3.067444 1_555
Mg5 Mg9 3.067444 1_555
Mg5 Mo0 3.127995 1_665
Mg5 Mo0 3.127999 1_555
Mg6 Mo0 3.012300 1_555
Mg6 Mg8 3.015743 1_555
Mg6 Mg8 3.240250 1_545
Mg7 Mo0 3.012300 1_555
Mg7 Mg9 3.015743 1_555
Mg7 Mg9 3.240250 1_545
Mg8 Mo0 3.012303 1_555
Mg9 Mo0 3.012303 1_555
Mg10 Mo0 3.012301 1_655
Mg10 Mg8 3.015734 1_655
Mg10 Mg6 3.015741 1_655
Mg10 Mg5 3.067445 1_545
Mg10 Mg3 3.067446 1_555
Mg10 Mg4 3.127097 1_545
Mg10 Mg2 3.127097 1_555
Mg10 Mg12 3.128821 1_545
Mg10 Mg12 3.128830 1_555
Mg10 Mg8 3.240234 1_545
Mg10 Mg6 3.240251 1_555
Mg11 Mo0 3.012301 1_655
Mg11 Mg9 3.015734 1_655
Mg11 Mg7 3.015741 1_655
Mg11 Mg5 3.067445 1_545
Mg11 Mg3 3.067446 1_555
Mg11 Mg4 3.127097 1_546
Mg11 Mg2 3.127097 1_556
Mg11 Mg13 3.128821 1_545
Mg11 Mg13 3.128830 1_555
Mg11 Mg9 3.240234 1_545
Mg11 Mg7 3.240251 1_555
Mg12 Mg5 3.081006 1_555
Mg12 Mg3 3.081008 1_555
Mg12 Mg4 3.087713 1_555
Mg12 Mg2 3.087716 1_555
Mg12 Mg6 3.128812 1_665
Mg12 Mg6 3.128815 1_555
Mg12 Mg8 3.128822 1_555
Mg12 Mg8 3.128828 1_655
Mg13 Mg5 3.081006 1_555
Mg13 Mg3 3.081008 1_555
Mg13 Mg4 3.087713 1_556
Mg13 Mg2 3.087716 1_556
Mg13 Mg7 3.128812 1_665
Mg13 Mg7 3.128815 1_555
Mg13 Mg9 3.128822 1_555
Mg13 Mg9 3.128828 1_655
Cr0 Mg7 3.072270 1_554
Cr0 Mg6 3.072270 1_555
Cr0 Mg9 3.072273 1_554
Cr0 Mg8 3.072273 1_555
Cr0 Mg11 3.072277 1_454
Cr0 Mg10 3.072277 1_455
Cr0 Mg4 3.127986 1_555
Cr0 Mg4 3.127996 1_445
Cr0 Mg2 3.127999 1_555
Cr0 Mg0 3.128002 1_545
Cr0 Mg0 3.128004 1_555
Cr0 Mg2 3.128006 1_455
