# generated using pymatgen
data_MgZn
_symmetry_space_group_name_H-M   'P 1'
_cell_length_a   9.17429996
_cell_length_b   6.21964792
_cell_length_c   29.28652554
_cell_angle_alpha   90.00000000
_cell_angle_beta   90.00000000
_cell_angle_gamma   90.00000000
_symmetry_Int_Tables_number   1
_chemical_formula_structural   MgZn
_chemical_formula_sum   'Mg48 Zn48'
_cell_volume   1671.11596392
_cell_formula_units_Z   48
loop_
 _symmetry_equiv_pos_site_id
 _symmetry_equiv_pos_as_xyz
  1  'x, y, z'
loop_
 _atom_site_type_symbol
 _atom_site_label
 _atom_site_symmetry_multiplicity
 _atom_site_fract_x
 _atom_site_fract_y
 _atom_site_fract_z
 _atom_site_occupancy
  Mg  Mg0_0  1  0.00000000  0.25000000  0.09101938  1
  Mg  Mg0_1  1  0.00000000  0.25000000  0.59101938  1
  Mg  Mg0_2  1  0.00000000  0.75000000  0.09101938  1
  Mg  Mg0_3  1  0.00000000  0.75000000  0.59101938  1
  Mg  Mg0_4  1  0.50000000  0.25000000  0.09101938  1
  Mg  Mg0_5  1  0.50000000  0.25000000  0.59101938  1
  Mg  Mg0_6  1  0.50000000  0.75000000  0.09101938  1
  Mg  Mg0_7  1  0.50000000  0.75000000  0.59101938  1
  Mg  Mg1_0  1  0.25000000  0.25000000  0.18638884  1
  Mg  Mg1_1  1  0.25000000  0.25000000  0.68638884  1
  Mg  Mg1_2  1  0.25000000  0.75000000  0.18638884  1
  Mg  Mg1_3  1  0.25000000  0.75000000  0.68638884  1
  Mg  Mg1_4  1  0.75000000  0.25000000  0.18638884  1
  Mg  Mg1_5  1  0.75000000  0.25000000  0.68638884  1
  Mg  Mg1_6  1  0.75000000  0.75000000  0.18638884  1
  Mg  Mg1_7  1  0.75000000  0.75000000  0.68638884  1
  Mg  Mg2_0  1  0.25000000  0.25000000  0.02611556  1
  Mg  Mg2_1  1  0.25000000  0.25000000  0.52611556  1
  Mg  Mg2_2  1  0.25000000  0.75000000  0.02611556  1
  Mg  Mg2_3  1  0.25000000  0.75000000  0.52611556  1
  Mg  Mg2_4  1  0.75000000  0.25000000  0.02611556  1
  Mg  Mg2_5  1  0.75000000  0.25000000  0.52611556  1
  Mg  Mg2_6  1  0.75000000  0.75000000  0.02611556  1
  Mg  Mg2_7  1  0.75000000  0.75000000  0.52611556  1
  Mg  Mg3_0  1  0.00000000  0.00000000  0.34101938  1
  Mg  Mg3_1  1  0.00000000  0.00000000  0.84101938  1
  Mg  Mg3_2  1  0.00000000  0.50000000  0.34101938  1
  Mg  Mg3_3  1  0.00000000  0.50000000  0.84101938  1
  Mg  Mg3_4  1  0.50000000  0.00000000  0.34101938  1
  Mg  Mg3_5  1  0.50000000  0.00000000  0.84101938  1
  Mg  Mg3_6  1  0.50000000  0.50000000  0.34101938  1
  Mg  Mg3_7  1  0.50000000  0.50000000  0.84101938  1
  Mg  Mg4_0  1  0.25000000  0.00000000  0.43638884  1
  Mg  Mg4_1  1  0.25000000  0.00000000  0.93638884  1
  Mg  Mg4_2  1  0.25000000  0.50000000  0.43638884  1
  Mg  Mg4_3  1  0.25000000  0.50000000  0.93638884  1
  Mg  Mg4_4  1  0.75000000  0.00000000  0.43638884  1
  Mg  Mg4_5  1  0.75000000  0.00000000  0.93638884  1
  Mg  Mg4_6  1  0.75000000  0.50000000  0.43638884  1
  Mg  Mg4_7  1  0.75000000  0.50000000  0.93638884  1
  Mg  Mg5_0  1  0.25000000  0.00000000  0.27611556  1
  Mg  Mg5_1  1  0.25000000  0.00000000  0.77611555  1
  Mg  Mg5_2  1  0.25000000  0.50000000  0.27611556  1
  Mg  Mg5_3  1  0.25000000  0.50000000  0.77611555  1
  Mg  Mg5_4  1  0.75000000  0.00000000  0.27611556  1
  Mg  Mg5_5  1  0.75000000  0.00000000  0.77611555  1
  Mg  Mg5_6  1  0.75000000  0.50000000  0.27611556  1
  Mg  Mg5_7  1  0.75000000  0.50000000  0.77611555  1
  Zn  Zn0_0  1  0.00000000  0.00000000  0.49862065  1
  Zn  Zn0_1  1  0.00000000  0.00000000  0.99862065  1
  Zn  Zn0_2  1  0.00000000  0.50000000  0.49862065  1
  Zn  Zn0_3  1  0.00000000  0.50000000  0.99862065  1
  Zn  Zn0_4  1  0.50000000  0.00000000  0.49862065  1
  Zn  Zn0_5  1  0.50000000  0.00000000  0.99862065  1
  Zn  Zn0_6  1  0.50000000  0.50000000  0.49862065  1
  Zn  Zn0_7  1  0.50000000  0.50000000  0.99862065  1
  Zn  Zn1_0  1  0.00000000  0.00000000  0.17239122  1
  Zn  Zn1_1  1  0.00000000  0.00000000  0.67239122  1
  Zn  Zn1_2  1  0.00000000  0.50000000  0.17239122  1
  Zn  Zn1_3  1  0.00000000  0.50000000  0.67239122  1
  Zn  Zn1_4  1  0.50000000  0.00000000  0.17239122  1
  Zn  Zn1_5  1  0.50000000  0.00000000  0.67239122  1
  Zn  Zn1_6  1  0.50000000  0.50000000  0.17239122  1
  Zn  Zn1_7  1  0.50000000  0.50000000  0.67239122  1
  Zn  Zn2_0  1  0.25000000  0.00000000  0.10879736  1
  Zn  Zn2_1  1  0.25000000  0.00000000  0.60879736  1
  Zn  Zn2_2  1  0.25000000  0.50000000  0.10879736  1
  Zn  Zn2_3  1  0.25000000  0.50000000  0.60879736  1
  Zn  Zn2_4  1  0.75000000  0.00000000  0.10879736  1
  Zn  Zn2_5  1  0.75000000  0.00000000  0.60879736  1
  Zn  Zn2_6  1  0.75000000  0.50000000  0.10879736  1
  Zn  Zn2_7  1  0.75000000  0.50000000  0.60879736  1
  Zn  Zn3_0  1  0.00000000  0.25000000  0.24862065  1
  Zn  Zn3_1  1  0.00000000  0.25000000  0.74862065  1
  Zn  Zn3_2  1  0.00000000  0.75000000  0.24862065  1
  Zn  Zn3_3  1  0.00000000  0.75000000  0.74862065  1
  Zn  Zn3_4  1  0.50000000  0.25000000  0.24862065  1
  Zn  Zn3_5  1  0.50000000  0.25000000  0.74862065  1
  Zn  Zn3_6  1  0.50000000  0.75000000  0.24862065  1
  Zn  Zn3_7  1  0.50000000  0.75000000  0.74862065  1
  Zn  Zn4_0  1  0.00000000  0.25000000  0.42239122  1
  Zn  Zn4_1  1  0.00000000  0.25000000  0.92239122  1
  Zn  Zn4_2  1  0.00000000  0.75000000  0.42239122  1
  Zn  Zn4_3  1  0.00000000  0.75000000  0.92239122  1
  Zn  Zn4_4  1  0.50000000  0.25000000  0.42239122  1
  Zn  Zn4_5  1  0.50000000  0.25000000  0.92239122  1
  Zn  Zn4_6  1  0.50000000  0.75000000  0.42239122  1
  Zn  Zn4_7  1  0.50000000  0.75000000  0.92239122  1
  Zn  Zn5_0  1  0.25000000  0.25000000  0.35879736  1
  Zn  Zn5_1  1  0.25000000  0.25000000  0.85879736  1
  Zn  Zn5_2  1  0.25000000  0.75000000  0.35879736  1
  Zn  Zn5_3  1  0.25000000  0.75000000  0.85879736  1
  Zn  Zn5_4  1  0.75000000  0.25000000  0.35879736  1
  Zn  Zn5_5  1  0.75000000  0.25000000  0.85879736  1
  Zn  Zn5_6  1  0.75000000  0.75000000  0.35879736  1
  Zn  Zn5_7  1  0.75000000  0.75000000  0.85879736  1
loop_
_geom_bond_atom_site_label_1
_geom_bond_atom_site_label_2
_geom_bond_distance
_geom_bond_site_symmetry_2
Mg0_0 Zn2_4 2.819454 1_455
Mg0_0 Zn2_2 2.819454 1_555
Mg0_0 Zn2_6 2.819454 1_455
Mg0_0 Zn2_0 2.819454 1_555
Mg0_0 Zn1_2 2.845507 1_555
Mg0_0 Zn1_0 2.845507 1_555
Mg0_0 Mg2_4 2.978851 1_455
Mg0_0 Mg2_0 2.978851 1_555
Mg0_0 Mg0_2 3.109824 1_545
Mg0_0 Mg0_2 3.109824 1_555
Mg0_0 Zn0_1 3.120960 1_554
Mg0_0 Zn0_3 3.120960 1_554
Mg0_1 Zn2_1 2.819454 1_555
Mg0_1 Zn2_7 2.819454 1_455
Mg0_1 Zn2_5 2.819454 1_455
Mg0_1 Zn2_3 2.819454 1_555
Mg0_1 Zn1_3 2.845507 1_555
Mg0_1 Zn1_1 2.845507 1_555
Mg0_1 Mg2_5 2.978851 1_455
Mg0_1 Mg2_1 2.978851 1_555
Mg0_1 Mg0_3 3.109824 1_545
Mg0_1 Mg0_3 3.109824 1_555
Mg0_1 Zn0_0 3.120960 1_555
Mg0_1 Zn0_2 3.120960 1_555
Mg0_2 Zn2_2 2.819454 1_555
Mg0_2 Zn2_4 2.819454 1_465
Mg0_2 Zn2_6 2.819454 1_455
Mg0_2 Zn2_0 2.819454 1_565
Mg0_2 Zn1_2 2.845507 1_555
Mg0_2 Zn1_0 2.845507 1_565
Mg0_2 Mg2_2 2.978851 1_555
Mg0_2 Mg2_6 2.978851 1_455
Mg0_2 Zn0_1 3.120960 1_564
Mg0_2 Zn0_3 3.120960 1_554
Mg0_3 Zn2_1 2.819454 1_565
Mg0_3 Zn2_7 2.819454 1_455
Mg0_3 Zn2_5 2.819454 1_465
Mg0_3 Zn2_3 2.819454 1_555
Mg0_3 Zn1_3 2.845507 1_555
Mg0_3 Zn1_1 2.845507 1_565
Mg0_3 Mg2_7 2.978851 1_455
Mg0_3 Mg2_3 2.978851 1_555
Mg0_3 Zn0_0 3.120960 1_565
Mg0_3 Zn0_2 3.120960 1_555
Mg0_4 Zn2_2 2.819454 1_555
Mg0_4 Zn2_0 2.819454 1_555
Mg0_4 Zn2_4 2.819454 1_555
Mg0_4 Zn2_6 2.819454 1_555
Mg0_4 Zn1_4 2.845507 1_555
Mg0_4 Zn1_6 2.845507 1_555
Mg0_4 Mg2_4 2.978851 1_555
Mg0_4 Mg2_0 2.978851 1_555
Mg0_4 Mg0_6 3.109824 1_555
Mg0_4 Mg0_6 3.109824 1_545
Mg0_4 Zn0_7 3.120960 1_554
Mg0_4 Zn0_5 3.120960 1_554
Mg0_5 Zn2_7 2.819454 1_555
Mg0_5 Zn2_1 2.819454 1_555
Mg0_5 Zn2_5 2.819454 1_555
Mg0_5 Zn2_3 2.819454 1_555
Mg0_5 Zn1_7 2.845507 1_555
Mg0_5 Zn1_5 2.845507 1_555
Mg0_5 Mg2_5 2.978851 1_555
Mg0_5 Mg2_1 2.978851 1_555
Mg0_5 Mg0_7 3.109824 1_555
Mg0_5 Mg0_7 3.109824 1_545
Mg0_5 Zn0_6 3.120960 1_555
Mg0_5 Zn0_4 3.120960 1_555
Mg0_6 Zn2_4 2.819454 1_565
Mg0_6 Zn2_2 2.819454 1_555
Mg0_6 Zn2_0 2.819454 1_565
Mg0_6 Zn2_6 2.819454 1_555
Mg0_6 Zn1_4 2.845507 1_565
Mg0_6 Zn1_6 2.845507 1_555
Mg0_6 Mg2_6 2.978851 1_555
Mg0_6 Mg2_2 2.978851 1_555
Mg0_6 Zn0_7 3.120960 1_554
Mg0_6 Zn0_5 3.120960 1_564
Mg0_7 Zn2_7 2.819454 1_555
Mg0_7 Zn2_1 2.819454 1_565
Mg0_7 Zn2_5 2.819454 1_565
Mg0_7 Zn2_3 2.819454 1_555
Mg0_7 Zn1_7 2.845507 1_555
Mg0_7 Zn1_5 2.845507 1_565
Mg0_7 Mg2_7 2.978851 1_555
Mg0_7 Mg2_3 2.978851 1_555
Mg0_7 Zn0_6 3.120960 1_555
Mg0_7 Zn0_4 3.120960 1_565
Mg1_0 Zn2_2 2.753450 1_555
Mg1_0 Zn2_0 2.753450 1_555
Mg1_0 Zn1_2 2.801123 1_555
Mg1_0 Zn1_6 2.801123 1_555
Mg1_0 Zn1_0 2.801123 1_555
Mg1_0 Zn1_4 2.801123 1_555
Mg1_0 Zn3_0 2.929537 1_555
Mg1_0 Zn3_4 2.929537 1_555
Mg1_0 Mg5_0 3.053359 1_555
Mg1_0 Mg5_2 3.053359 1_555
Mg1_0 Mg1_2 3.109824 1_555
Mg1_0 Mg1_2 3.109824 1_545
Mg1_1 Zn2_3 2.753450 1_555
Mg1_1 Zn2_1 2.753450 1_555
Mg1_1 Zn1_5 2.801123 1_555
Mg1_1 Zn1_3 2.801123 1_555
Mg1_1 Zn1_1 2.801123 1_555
Mg1_1 Zn1_7 2.801123 1_555
Mg1_1 Zn3_1 2.929537 1_555
Mg1_1 Zn3_5 2.929537 1_555
Mg1_1 Mg5_1 3.053359 1_555
Mg1_1 Mg5_3 3.053359 1_555
Mg1_1 Mg1_3 3.109824 1_545
Mg1_1 Mg1_3 3.109824 1_555
Mg1_2 Zn2_2 2.753450 1_555
Mg1_2 Zn2_0 2.753450 1_565
Mg1_2 Zn1_0 2.801123 1_565
Mg1_2 Zn1_2 2.801123 1_555
Mg1_2 Zn1_6 2.801123 1_555
Mg1_2 Zn1_4 2.801123 1_565
Mg1_2 Zn3_2 2.929537 1_555
Mg1_2 Zn3_6 2.929537 1_555
Mg1_2 Mg5_0 3.053359 1_565
Mg1_2 Mg5_2 3.053359 1_555
Mg1_3 Zn2_1 2.753450 1_565
Mg1_3 Zn2_3 2.753450 1_555
Mg1_3 Zn1_3 2.801123 1_555
Mg1_3 Zn1_1 2.801123 1_565
Mg1_3 Zn1_5 2.801123 1_565
Mg1_3 Zn1_7 2.801123 1_555
Mg1_3 Zn3_3 2.929537 1_555
Mg1_3 Zn3_7 2.929537 1_555
Mg1_3 Mg5_3 3.053359 1_555
Mg1_3 Mg5_1 3.053359 1_565
Mg1_4 Zn2_6 2.753450 1_555
Mg1_4 Zn2_4 2.753450 1_555
Mg1_4 Zn1_0 2.801123 1_655
Mg1_4 Zn1_6 2.801123 1_555
Mg1_4 Zn1_2 2.801123 1_655
Mg1_4 Zn1_4 2.801123 1_555
Mg1_4 Zn3_0 2.929537 1_655
Mg1_4 Zn3_4 2.929537 1_555
Mg1_4 Mg5_6 3.053359 1_555
Mg1_4 Mg5_4 3.053359 1_555
Mg1_4 Mg1_6 3.109824 1_545
Mg1_4 Mg1_6 3.109824 1_555
Mg1_5 Zn2_5 2.753450 1_555
Mg1_5 Zn2_7 2.753450 1_555
Mg1_5 Zn1_1 2.801123 1_655
Mg1_5 Zn1_3 2.801123 1_655
Mg1_5 Zn1_5 2.801123 1_555
Mg1_5 Zn1_7 2.801123 1_555
Mg1_5 Zn3_5 2.929537 1_555
Mg1_5 Zn3_1 2.929537 1_655
Mg1_5 Mg5_7 3.053359 1_555
Mg1_5 Mg5_5 3.053359 1_555
Mg1_5 Mg1_7 3.109824 1_555
Mg1_5 Mg1_7 3.109824 1_545
Mg1_6 Zn2_6 2.753450 1_555
Mg1_6 Zn2_4 2.753450 1_565
Mg1_6 Zn1_0 2.801123 1_665
Mg1_6 Zn1_6 2.801123 1_555
Mg1_6 Zn1_2 2.801123 1_655
Mg1_6 Zn1_4 2.801123 1_565
Mg1_6 Zn3_2 2.929537 1_655
Mg1_6 Zn3_6 2.929537 1_555
Mg1_6 Mg5_6 3.053359 1_555
Mg1_6 Mg5_4 3.053359 1_565
Mg1_7 Zn2_7 2.753450 1_555
Mg1_7 Zn2_5 2.753450 1_565
Mg1_7 Zn1_3 2.801123 1_655
Mg1_7 Zn1_1 2.801123 1_665
Mg1_7 Zn1_5 2.801123 1_565
Mg1_7 Zn1_7 2.801123 1_555
Mg1_7 Zn3_3 2.929537 1_655
Mg1_7 Zn3_7 2.929537 1_555
Mg1_7 Mg5_5 3.053359 1_565
Mg1_7 Mg5_7 3.053359 1_555
Mg2_0 Zn2_2 2.877713 1_555
Mg2_0 Zn2_0 2.877713 1_555
Mg2_0 Zn0_7 2.885591 1_554
Mg2_0 Zn0_1 2.885591 1_554
Mg2_0 Zn0_5 2.885591 1_554
Mg2_0 Zn0_3 2.885591 1_554
Mg2_0 Mg4_3 3.053359 1_554
Mg2_0 Mg4_1 3.053359 1_554
Mg2_0 Mg2_2 3.109824 1_555
Mg2_0 Mg2_2 3.109824 1_545
Mg2_1 Zn2_1 2.877713 1_555
Mg2_1 Zn2_3 2.877713 1_555
Mg2_1 Zn0_6 2.885591 1_555
Mg2_1 Zn0_0 2.885591 1_555
Mg2_1 Zn0_4 2.885591 1_555
Mg2_1 Zn0_2 2.885591 1_555
Mg2_1 Mg4_2 3.053359 1_555
Mg2_1 Mg4_0 3.053359 1_555
Mg2_1 Mg2_3 3.109824 1_555
Mg2_1 Mg2_3 3.109824 1_545
Mg2_2 Zn2_2 2.877713 1_555
Mg2_2 Zn2_0 2.877713 1_565
Mg2_2 Zn0_7 2.885591 1_554
Mg2_2 Zn0_1 2.885591 1_564
Mg2_2 Zn0_5 2.885591 1_564
Mg2_2 Zn0_3 2.885591 1_554
Mg2_2 Mg4_1 3.053359 1_564
Mg2_2 Mg4_3 3.053359 1_554
Mg2_3 Zn2_1 2.877713 1_565
Mg2_3 Zn2_3 2.877713 1_555
Mg2_3 Zn0_6 2.885591 1_555
Mg2_3 Zn0_0 2.885591 1_565
Mg2_3 Zn0_4 2.885591 1_565
Mg2_3 Zn0_2 2.885591 1_555
Mg2_3 Mg4_2 3.053359 1_555
Mg2_3 Mg4_0 3.053359 1_565
Mg2_4 Zn2_4 2.877713 1_555
Mg2_4 Zn2_6 2.877713 1_555
Mg2_4 Zn0_7 2.885591 1_554
Mg2_4 Zn0_3 2.885591 1_654
Mg2_4 Zn0_5 2.885591 1_554
Mg2_4 Zn0_1 2.885591 1_654
Mg2_4 Mg4_7 3.053359 1_554
Mg2_4 Mg4_5 3.053359 1_554
Mg2_4 Mg2_6 3.109824 1_555
Mg2_4 Mg2_6 3.109824 1_545
Mg2_5 Zn2_5 2.877713 1_555
Mg2_5 Zn2_7 2.877713 1_555
Mg2_5 Zn0_6 2.885591 1_555
Mg2_5 Zn0_4 2.885591 1_555
Mg2_5 Zn0_0 2.885591 1_655
Mg2_5 Zn0_2 2.885591 1_655
Mg2_5 Mg4_6 3.053359 1_555
Mg2_5 Mg4_4 3.053359 1_555
Mg2_5 Mg2_7 3.109824 1_545
Mg2_5 Mg2_7 3.109824 1_555
Mg2_6 Zn2_4 2.877713 1_565
Mg2_6 Zn2_6 2.877713 1_555
Mg2_6 Zn0_7 2.885591 1_554
Mg2_6 Zn0_5 2.885591 1_564
Mg2_6 Zn0_3 2.885591 1_654
Mg2_6 Zn0_1 2.885591 1_664
Mg2_6 Mg4_5 3.053359 1_564
Mg2_6 Mg4_7 3.053359 1_554
Mg2_7 Zn2_5 2.877713 1_565
Mg2_7 Zn2_7 2.877713 1_555
Mg2_7 Zn0_6 2.885591 1_555
Mg2_7 Zn0_0 2.885591 1_665
Mg2_7 Zn0_4 2.885591 1_565
Mg2_7 Zn0_2 2.885591 1_655
Mg2_7 Mg4_4 3.053359 1_565
Mg2_7 Mg4_6 3.053359 1_555
Mg3_0 Zn5_4 2.819454 1_455
Mg3_0 Zn5_2 2.819454 1_545
Mg3_0 Zn5_6 2.819454 1_445
Mg3_0 Zn5_0 2.819454 1_555
Mg3_0 Zn4_2 2.845507 1_545
Mg3_0 Zn4_0 2.845507 1_555
Mg3_0 Mg5_0 2.978851 1_555
Mg3_0 Mg5_4 2.978851 1_455
Mg3_0 Mg3_2 3.109824 1_555
Mg3_0 Mg3_2 3.109824 1_545
Mg3_0 Zn3_2 3.120960 1_545
Mg3_0 Zn3_0 3.120960 1_555
Mg3_1 Zn5_3 2.819454 1_545
Mg3_1 Zn5_7 2.819454 1_445
Mg3_1 Zn5_1 2.819454 1_555
Mg3_1 Zn5_5 2.819454 1_455
Mg3_1 Zn4_1 2.845507 1_555
Mg3_1 Zn4_3 2.845507 1_545
Mg3_1 Mg5_5 2.978851 1_455
Mg3_1 Mg5_1 2.978851 1_555
Mg3_1 Mg3_3 3.109824 1_555
Mg3_1 Mg3_3 3.109824 1_545
Mg3_1 Zn3_3 3.120960 1_545
Mg3_1 Zn3_1 3.120960 1_555
Mg3_2 Zn5_4 2.819454 1_455
Mg3_2 Zn5_6 2.819454 1_455
Mg3_2 Zn5_0 2.819454 1_555
Mg3_2 Zn5_2 2.819454 1_555
Mg3_2 Zn4_2 2.845507 1_555
Mg3_2 Zn4_0 2.845507 1_555
Mg3_2 Mg5_2 2.978851 1_555
Mg3_2 Mg5_6 2.978851 1_455
Mg3_2 Zn3_2 3.120960 1_555
Mg3_2 Zn3_0 3.120960 1_555
Mg3_3 Zn5_3 2.819454 1_555
Mg3_3 Zn5_7 2.819454 1_455
Mg3_3 Zn5_1 2.819454 1_555
Mg3_3 Zn5_5 2.819454 1_455
Mg3_3 Zn4_1 2.845507 1_555
Mg3_3 Zn4_3 2.845507 1_555
Mg3_3 Mg5_3 2.978851 1_555
Mg3_3 Mg5_7 2.978851 1_455
Mg3_3 Zn3_1 3.120960 1_555
Mg3_3 Zn3_3 3.120960 1_555
Mg3_4 Zn5_2 2.819454 1_545
Mg3_4 Zn5_6 2.819454 1_545
Mg3_4 Zn5_0 2.819454 1_555
Mg3_4 Zn5_4 2.819454 1_555
Mg3_4 Zn4_4 2.845507 1_555
Mg3_4 Zn4_6 2.845507 1_545
Mg3_4 Mg5_0 2.978851 1_555
Mg3_4 Mg5_4 2.978851 1_555
Mg3_4 Mg3_6 3.109824 1_545
Mg3_4 Mg3_6 3.109824 1_555
Mg3_4 Zn3_4 3.120960 1_555
Mg3_4 Zn3_6 3.120960 1_545
Mg3_5 Zn5_3 2.819454 1_545
Mg3_5 Zn5_7 2.819454 1_545
Mg3_5 Zn5_1 2.819454 1_555
Mg3_5 Zn5_5 2.819454 1_555
Mg3_5 Zn4_5 2.845507 1_555
Mg3_5 Zn4_7 2.845507 1_545
Mg3_5 Mg5_1 2.978851 1_555
Mg3_5 Mg5_5 2.978851 1_555
Mg3_5 Mg3_7 3.109824 1_545
Mg3_5 Mg3_7 3.109824 1_555
Mg3_5 Zn3_7 3.120960 1_545
Mg3_5 Zn3_5 3.120960 1_555
Mg3_6 Zn5_6 2.819454 1_555
Mg3_6 Zn5_0 2.819454 1_555
Mg3_6 Zn5_4 2.819454 1_555
Mg3_6 Zn5_2 2.819454 1_555
Mg3_6 Zn4_4 2.845507 1_555
Mg3_6 Zn4_6 2.845507 1_555
Mg3_6 Mg5_6 2.978851 1_555
Mg3_6 Mg5_2 2.978851 1_555
Mg3_6 Zn3_4 3.120960 1_555
Mg3_6 Zn3_6 3.120960 1_555
Mg3_7 Zn5_3 2.819454 1_555
Mg3_7 Zn5_7 2.819454 1_555
Mg3_7 Zn5_1 2.819454 1_555
Mg3_7 Zn5_5 2.819454 1_555
Mg3_7 Zn4_5 2.845507 1_555
Mg3_7 Zn4_7 2.845507 1_555
Mg3_7 Mg5_3 2.978851 1_555
Mg3_7 Mg5_7 2.978851 1_555
Mg3_7 Zn3_7 3.120960 1_555
Mg3_7 Zn3_5 3.120960 1_555
Mg4_0 Zn5_2 2.753450 1_545
Mg4_0 Zn5_0 2.753450 1_555
Mg4_0 Zn4_6 2.801123 1_545
Mg4_0 Zn4_0 2.801123 1_555
Mg4_0 Zn4_4 2.801123 1_555
Mg4_0 Zn4_2 2.801123 1_545
Mg4_0 Zn0_0 2.929537 1_555
Mg4_0 Zn0_4 2.929537 1_555
Mg4_0 Mg4_2 3.109824 1_545
Mg4_0 Mg4_2 3.109824 1_555
Mg4_1 Zn5_1 2.753450 1_555
Mg4_1 Zn5_3 2.753450 1_545
Mg4_1 Zn4_3 2.801123 1_545
Mg4_1 Zn4_5 2.801123 1_555
Mg4_1 Zn4_1 2.801123 1_555
Mg4_1 Zn4_7 2.801123 1_545
Mg4_1 Zn0_1 2.929537 1_555
Mg4_1 Zn0_5 2.929537 1_555
Mg4_1 Mg4_3 3.109824 1_555
Mg4_1 Mg4_3 3.109824 1_545
Mg4_2 Zn5_0 2.753450 1_555
Mg4_2 Zn5_2 2.753450 1_555
Mg4_2 Zn4_0 2.801123 1_555
Mg4_2 Zn4_4 2.801123 1_555
Mg4_2 Zn4_2 2.801123 1_555
Mg4_2 Zn4_6 2.801123 1_555
Mg4_2 Zn0_2 2.929537 1_555
Mg4_2 Zn0_6 2.929537 1_555
Mg4_3 Zn5_1 2.753450 1_555
Mg4_3 Zn5_3 2.753450 1_555
Mg4_3 Zn4_7 2.801123 1_555
Mg4_3 Zn4_3 2.801123 1_555
Mg4_3 Zn4_5 2.801123 1_555
Mg4_3 Zn4_1 2.801123 1_555
Mg4_3 Zn0_3 2.929537 1_555
Mg4_3 Zn0_7 2.929537 1_555
Mg4_4 Zn5_6 2.753450 1_545
Mg4_4 Zn5_4 2.753450 1_555
Mg4_4 Zn4_0 2.801123 1_655
Mg4_4 Zn4_6 2.801123 1_545
Mg4_4 Zn4_2 2.801123 1_645
Mg4_4 Zn4_4 2.801123 1_555
Mg4_4 Zn0_0 2.929537 1_655
Mg4_4 Zn0_4 2.929537 1_555
Mg4_4 Mg4_6 3.109824 1_545
Mg4_4 Mg4_6 3.109824 1_555
Mg4_5 Zn5_5 2.753450 1_555
Mg4_5 Zn5_7 2.753450 1_545
Mg4_5 Zn4_1 2.801123 1_655
Mg4_5 Zn4_3 2.801123 1_645
Mg4_5 Zn4_5 2.801123 1_555
Mg4_5 Zn4_7 2.801123 1_545
Mg4_5 Zn0_1 2.929537 1_655
Mg4_5 Zn0_5 2.929537 1_555
Mg4_5 Mg4_7 3.109824 1_555
Mg4_5 Mg4_7 3.109824 1_545
Mg4_6 Zn5_6 2.753450 1_555
Mg4_6 Zn5_4 2.753450 1_555
Mg4_6 Zn4_0 2.801123 1_655
Mg4_6 Zn4_4 2.801123 1_555
Mg4_6 Zn4_2 2.801123 1_655
Mg4_6 Zn4_6 2.801123 1_555
Mg4_6 Zn0_2 2.929537 1_655
Mg4_6 Zn0_6 2.929537 1_555
Mg4_7 Zn5_7 2.753450 1_555
Mg4_7 Zn5_5 2.753450 1_555
Mg4_7 Zn4_7 2.801123 1_555
Mg4_7 Zn4_1 2.801123 1_655
Mg4_7 Zn4_3 2.801123 1_655
Mg4_7 Zn4_5 2.801123 1_555
Mg4_7 Zn0_3 2.929537 1_655
Mg4_7 Zn0_7 2.929537 1_555
Mg5_0 Zn5_2 2.877713 1_545
Mg5_0 Zn5_0 2.877713 1_555
Mg5_0 Zn3_2 2.885591 1_545
Mg5_0 Zn3_6 2.885591 1_545
Mg5_0 Zn3_0 2.885591 1_555
Mg5_0 Zn3_4 2.885591 1_555
Mg5_0 Mg5_2 3.109824 1_555
Mg5_0 Mg5_2 3.109824 1_545
Mg5_1 Zn5_1 2.877713 1_555
Mg5_1 Zn5_3 2.877713 1_545
Mg5_1 Zn3_1 2.885591 1_555
Mg5_1 Zn3_7 2.885591 1_545
Mg5_1 Zn3_3 2.885591 1_545
Mg5_1 Zn3_5 2.885591 1_555
Mg5_1 Mg5_3 3.109824 1_545
Mg5_1 Mg5_3 3.109824 1_555
Mg5_2 Zn5_0 2.877713 1_555
Mg5_2 Zn5_2 2.877713 1_555
Mg5_2 Zn3_6 2.885591 1_555
Mg5_2 Zn3_2 2.885591 1_555
Mg5_2 Zn3_0 2.885591 1_555
Mg5_2 Zn3_4 2.885591 1_555
Mg5_3 Zn5_3 2.877713 1_555
Mg5_3 Zn5_1 2.877713 1_555
Mg5_3 Zn3_1 2.885591 1_555
Mg5_3 Zn3_3 2.885591 1_555
Mg5_3 Zn3_7 2.885591 1_555
Mg5_3 Zn3_5 2.885591 1_555
Mg5_4 Zn5_6 2.877713 1_545
Mg5_4 Zn5_4 2.877713 1_555
Mg5_4 Zn3_6 2.885591 1_545
Mg5_4 Zn3_2 2.885591 1_645
Mg5_4 Zn3_0 2.885591 1_655
Mg5_4 Zn3_4 2.885591 1_555
Mg5_4 Mg5_6 3.109824 1_555
Mg5_4 Mg5_6 3.109824 1_545
Mg5_5 Zn5_5 2.877713 1_555
Mg5_5 Zn5_7 2.877713 1_545
Mg5_5 Zn3_1 2.885591 1_655
Mg5_5 Zn3_7 2.885591 1_545
Mg5_5 Zn3_3 2.885591 1_645
Mg5_5 Zn3_5 2.885591 1_555
Mg5_5 Mg5_7 3.109824 1_555
Mg5_5 Mg5_7 3.109824 1_545
Mg5_6 Zn5_6 2.877713 1_555
Mg5_6 Zn5_4 2.877713 1_555
Mg5_6 Zn3_6 2.885591 1_555
Mg5_6 Zn3_0 2.885591 1_655
Mg5_6 Zn3_2 2.885591 1_655
Mg5_6 Zn3_4 2.885591 1_555
Mg5_7 Zn5_7 2.877713 1_555
Mg5_7 Zn5_5 2.877713 1_555
Mg5_7 Zn3_1 2.885591 1_655
Mg5_7 Zn3_3 2.885591 1_655
Mg5_7 Zn3_7 2.885591 1_555
Mg5_7 Zn3_5 2.885591 1_555
Zn0_0 Zn4_2 2.720622 1_545
Zn0_0 Zn4_0 2.720622 1_555
Zn0_0 Zn0_2 3.109824 1_555
Zn0_0 Zn0_2 3.109824 1_545
Zn0_1 Zn4_3 2.720622 1_545
Zn0_1 Zn4_1 2.720622 1_555
Zn0_1 Zn0_3 3.109824 1_555
Zn0_1 Zn0_3 3.109824 1_545
Zn0_2 Zn4_2 2.720622 1_555
Zn0_2 Zn4_0 2.720622 1_555
Zn0_3 Zn4_3 2.720622 1_555
Zn0_3 Zn4_1 2.720622 1_555
Zn0_4 Zn4_4 2.720622 1_555
Zn0_4 Zn4_6 2.720622 1_545
Zn0_4 Zn0_6 3.109824 1_545
Zn0_4 Zn0_6 3.109824 1_555
Zn0_5 Zn4_7 2.720622 1_545
Zn0_5 Zn4_5 2.720622 1_555
Zn0_5 Zn0_7 3.109824 1_555
Zn0_5 Zn0_7 3.109824 1_545
Zn0_6 Zn4_4 2.720622 1_555
Zn0_6 Zn4_6 2.720622 1_555
Zn0_7 Zn4_7 2.720622 1_555
Zn0_7 Zn4_5 2.720622 1_555
Zn1_0 Zn3_2 2.720622 1_545
Zn1_0 Zn3_0 2.720622 1_555
Zn1_0 Zn2_4 2.954519 1_455
Zn1_0 Zn2_0 2.954519 1_555
Zn1_0 Zn1_2 3.109824 1_545
Zn1_0 Zn1_2 3.109824 1_555
Zn1_1 Zn3_3 2.720622 1_545
Zn1_1 Zn3_1 2.720622 1_555
Zn1_1 Zn2_5 2.954519 1_455
Zn1_1 Zn2_1 2.954519 1_555
Zn1_1 Zn1_3 3.109824 1_545
Zn1_1 Zn1_3 3.109824 1_555
Zn1_2 Zn3_2 2.720622 1_555
Zn1_2 Zn3_0 2.720622 1_555
Zn1_2 Zn2_2 2.954519 1_555
Zn1_2 Zn2_6 2.954519 1_455
Zn1_3 Zn3_3 2.720622 1_555
Zn1_3 Zn3_1 2.720622 1_555
Zn1_3 Zn2_3 2.954519 1_555
Zn1_3 Zn2_7 2.954519 1_455
Zn1_4 Zn3_6 2.720622 1_545
Zn1_4 Zn3_4 2.720622 1_555
Zn1_4 Zn2_4 2.954519 1_555
Zn1_4 Zn2_0 2.954519 1_555
Zn1_4 Zn1_6 3.109824 1_555
Zn1_4 Zn1_6 3.109824 1_545
Zn1_5 Zn3_7 2.720622 1_545
Zn1_5 Zn3_5 2.720622 1_555
Zn1_5 Zn2_1 2.954519 1_555
Zn1_5 Zn2_5 2.954519 1_555
Zn1_5 Zn1_7 3.109824 1_555
Zn1_5 Zn1_7 3.109824 1_545
Zn1_6 Zn3_4 2.720622 1_555
Zn1_6 Zn3_6 2.720622 1_555
Zn1_6 Zn2_6 2.954519 1_555
Zn1_6 Zn2_2 2.954519 1_555
Zn1_7 Zn3_7 2.720622 1_555
Zn1_7 Zn3_5 2.720622 1_555
Zn1_7 Zn2_3 2.954519 1_555
Zn1_7 Zn2_7 2.954519 1_555
Zn2_0 Zn2_2 3.109824 1_555
Zn2_0 Zn2_2 3.109824 1_545
Zn2_1 Zn2_3 3.109824 1_555
Zn2_1 Zn2_3 3.109824 1_545
Zn2_4 Zn2_6 3.109824 1_555
Zn2_4 Zn2_6 3.109824 1_545
Zn2_5 Zn2_7 3.109824 1_555
Zn2_5 Zn2_7 3.109824 1_545
Zn3_0 Zn3_2 3.109824 1_545
Zn3_0 Zn3_2 3.109824 1_555
Zn3_1 Zn3_3 3.109824 1_555
Zn3_1 Zn3_3 3.109824 1_545
Zn3_4 Zn3_6 3.109824 1_555
Zn3_4 Zn3_6 3.109824 1_545
Zn3_5 Zn3_7 3.109824 1_555
Zn3_5 Zn3_7 3.109824 1_545
Zn4_0 Zn5_4 2.954519 1_455
Zn4_0 Zn5_0 2.954519 1_555
Zn4_0 Zn4_2 3.109824 1_555
Zn4_0 Zn4_2 3.109824 1_545
Zn4_1 Zn5_1 2.954519 1_555
Zn4_1 Zn5_5 2.954519 1_455
Zn4_1 Zn4_3 3.109824 1_545
Zn4_1 Zn4_3 3.109824 1_555
Zn4_2 Zn5_2 2.954519 1_555
Zn4_2 Zn5_6 2.954519 1_455
Zn4_3 Zn5_3 2.954519 1_555
Zn4_3 Zn5_7 2.954519 1_455
Zn4_4 Zn5_4 2.954519 1_555
Zn4_4 Zn5_0 2.954519 1_555
Zn4_4 Zn4_6 3.109824 1_555
Zn4_4 Zn4_6 3.109824 1_545
Zn4_5 Zn5_1 2.954519 1_555
Zn4_5 Zn5_5 2.954519 1_555
Zn4_5 Zn4_7 3.109824 1_555
Zn4_5 Zn4_7 3.109824 1_545
Zn4_6 Zn5_2 2.954519 1_555
Zn4_6 Zn5_6 2.954519 1_555
Zn4_7 Zn5_3 2.954519 1_555
Zn4_7 Zn5_7 2.954519 1_555
Zn5_0 Zn5_2 3.109824 1_555
Zn5_0 Zn5_2 3.109824 1_545
Zn5_1 Zn5_3 3.109824 1_555
Zn5_1 Zn5_3 3.109824 1_545
Zn5_4 Zn5_6 3.109824 1_555
Zn5_4 Zn5_6 3.109824 1_545
Zn5_5 Zn5_7 3.109824 1_545
Zn5_5 Zn5_7 3.109824 1_555
