# generated using pymatgen
data_Tm12In2Fe3
_symmetry_space_group_name_H-M   'P 1'
_cell_length_a   8.23614285
_cell_length_b   8.23614285
_cell_length_c   8.23614285
_cell_angle_alpha   108.93559300
_cell_angle_beta   108.93559300
_cell_angle_gamma   110.54787033
_symmetry_Int_Tables_number   1
_chemical_formula_structural   Tm12In2Fe3
_chemical_formula_sum   'Tm12 In2 Fe3'
_cell_volume   429.96632645
_cell_formula_units_Z   1
loop_
 _symmetry_equiv_pos_site_id
 _symmetry_equiv_pos_as_xyz
  1  'x, y, z'
loop_
 _atom_site_type_symbol
 _atom_site_label
 _atom_site_symmetry_multiplicity
 _atom_site_fract_x
 _atom_site_fract_y
 _atom_site_fract_z
 _atom_site_occupancy
  Tm  Tm0  1  0.19073933  0.43044101  0.23970168  1
  Tm  Tm1  1  0.80926067  0.56955899  0.76029832  1
  Tm  Tm2  1  0.19073933  0.95103766  0.76029832  1
  Tm  Tm3  1  0.95103766  0.19073933  0.76029832  1
  Tm  Tm4  1  0.80926067  0.04896234  0.23970168  1
  Tm  Tm5  1  0.04896234  0.80926067  0.23970168  1
  Tm  Tm6  1  0.43044101  0.19073933  0.23970168  1
  Tm  Tm7  1  0.56955899  0.80926067  0.76029832  1
  Tm  Tm8  1  0.30830402  0.30830402  0.61660805  1
  Tm  Tm9  1  0.69169598  0.69169598  0.38339195  1
  Tm  Tm10  1  0.69169598  0.30830402  -0.00000000  1
  Tm  Tm11  1  0.30830402  0.69169598  0.00000000  1
  In  In0  1  0.00000000  0.50000000  0.50000000  1
  In  In1  1  0.50000000  0.00000000  0.50000000  1
  Fe  Fe0  1  0.37999144  0.37999144  -0.00000000  1
  Fe  Fe1  1  0.62000856  0.62000856  0.00000000  1
  Fe  Fe2  1  0.00000000  0.00000000  -0.00000000  1
loop_
_geom_bond_atom_site_label_1
_geom_bond_atom_site_label_2
_geom_bond_distance
_geom_bond_site_symmetry_2
Tm0 Tm6 3.245159 1_555
Tm0 Tm3 3.245159 1_454
Tm0 Tm11 3.464120 1_555
Tm0 Tm9 3.464120 1_555
Tm0 Tm10 3.513615 1_455
Tm0 Tm8 3.513615 1_555
Tm0 Tm4 3.579603 1_455
Tm0 Tm7 3.695330 1_555
Tm0 Tm5 3.695330 1_555
Tm1 Tm7 3.245159 1_555
Tm1 Tm5 3.245159 1_656
Tm1 Tm10 3.464120 1_556
Tm1 Tm8 3.464120 1_555
Tm1 Tm11 3.513615 1_656
Tm1 Tm9 3.513615 1_555
Tm1 Tm2 3.579603 1_655
Tm1 Tm6 3.695330 1_555
Tm1 Tm3 3.695330 1_555
Tm2 Tm3 3.245159 1_465
Tm2 Tm6 3.245159 1_566
Tm2 Tm8 3.464120 1_565
Tm2 Tm9 3.513615 1_455
Tm2 Tm5 3.695330 1_555
Tm2 Tm7 3.695330 1_555
Tm3 Tm8 3.464120 1_655
Tm3 Tm9 3.513615 1_545
Tm3 Tm7 3.579603 1_545
Tm3 Tm4 3.695330 1_555
Tm4 Tm5 3.245159 1_645
Tm4 Tm7 3.245159 1_544
Tm4 Tm9 3.464120 1_545
Tm4 Tm8 3.513615 1_655
Tm4 Tm6 3.695330 1_555
Tm5 Tm9 3.464120 1_455
Tm5 Tm8 3.513615 1_565
Tm5 Tm6 3.579603 1_565
Tm6 Tm9 3.464120 1_555
Tm6 Tm8 3.513615 1_555
Tm7 Tm8 3.464120 1_555
Tm7 Tm9 3.513615 1_555
Tm10 Tm5 3.464120 1_655
Tm10 Tm2 3.464120 1_544
Tm10 Tm6 3.464120 1_555
Tm10 Tm7 3.513615 1_544
Tm10 Tm4 3.513615 1_555
Tm10 Tm3 3.513615 1_554
Tm11 Tm3 3.464120 1_454
Tm11 Tm4 3.464120 1_565
Tm11 Tm7 3.464120 1_554
Tm11 Tm6 3.513615 1_565
Tm11 Tm5 3.513615 1_555
Tm11 Tm2 3.513615 1_554
In0 Tm0 3.068010 1_555
In0 Tm1 3.068010 1_455
In0 Tm2 3.068011 1_555
In0 Tm4 3.068011 1_455
In0 Tm10 3.475406 1_455
In0 Tm11 3.475406 1_556
In0 Tm9 3.475406 1_455
In0 Tm8 3.475406 1_555
In0 Tm5 3.824995 1_555
In0 Tm3 3.824995 1_455
In0 Tm6 3.824995 1_455
In0 Tm7 3.824995 1_555
In1 Tm7 3.068010 1_545
In1 Tm6 3.068010 1_555
In1 Tm3 3.068011 1_555
In1 Tm5 3.068011 1_545
In1 Tm11 3.475406 1_545
In1 Tm10 3.475406 1_556
In1 Tm8 3.475406 1_555
In1 Tm9 3.475406 1_545
In1 Tm4 3.824995 1_555
In1 Tm2 3.824995 1_545
In1 Tm0 3.824995 1_545
In1 Tm1 3.824995 1_555
Fe0 Fe1 2.252199 1_555
Fe0 Tm8 2.829025 1_554
Fe0 Tm9 2.829025 1_555
Fe0 Tm11 2.829025 1_555
Fe0 Tm10 2.829025 1_555
Fe0 Tm3 2.901579 1_454
Fe0 Tm2 2.901579 1_544
Fe0 Tm0 2.901579 1_555
Fe0 Tm6 2.901579 1_555
Fe1 Tm9 2.829025 1_555
Fe1 Tm8 2.829025 1_554
Fe1 Tm10 2.829025 1_555
Fe1 Tm11 2.829025 1_555
Fe1 Tm5 2.901579 1_655
Fe1 Tm4 2.901579 1_565
Fe1 Tm7 2.901579 1_554
Fe1 Tm1 2.901579 1_554
Fe2 Tm5 2.910141 1_545
Fe2 Tm3 2.910141 1_454
Fe2 Tm2 2.910141 1_544
Fe2 Tm4 2.910141 1_455
Fe2 Tm6 2.910141 1_555
Fe2 Tm0 2.910141 1_555
Fe2 Tm7 2.910141 1_444
Fe2 Tm1 2.910141 1_444
