# generated using pymatgen
data_TeMoWSe2S
_symmetry_space_group_name_H-M   'P 1'
_cell_length_a   3.34560618
_cell_length_b   3.34560618
_cell_length_c   38.12488400
_cell_angle_alpha   90.00000000
_cell_angle_beta   90.00000000
_cell_angle_gamma   120.00000365
_symmetry_Int_Tables_number   1
_chemical_formula_structural   TeMoWSe2S
_chemical_formula_sum   'Te2 Mo2 W2 Se4 S2'
_cell_volume   369.56325471
_cell_formula_units_Z   2
loop_
 _symmetry_equiv_pos_site_id
 _symmetry_equiv_pos_as_xyz
  1  'x, y, z'
loop_
 _atom_site_type_symbol
 _atom_site_label
 _atom_site_symmetry_multiplicity
 _atom_site_fract_x
 _atom_site_fract_y
 _atom_site_fract_z
 _atom_site_occupancy
  Te  Te0  1  0.33333300  0.66666700  0.70762600  1
  Te  Te1  1  0.33333300  0.66666700  0.60752400  1
  Mo  Mo0  1  0.33333300  0.66666700  0.09391500  1
  Mo  Mo1  1  0.66666700  0.33333300  0.28179400  1
  W  W0  1  0.33333300  0.66666700  0.46961700  1
  W  W1  1  0.66666700  0.33333300  0.65759300  1
  Se  Se0  1  0.66666700  0.33333300  0.05018600  1
  Se  Se1  1  0.66666700  0.33333300  0.42566900  1
  Se  Se2  1  0.66666700  0.33333300  0.13765900  1
  Se  Se3  1  0.66666700  0.33333300  0.51357600  1
  S  S0  1  0.33333300  0.66666700  0.32159700  1
  S  S1  1  0.33333300  0.66666700  0.24199300  1
loop_
_geom_bond_atom_site_label_1
_geom_bond_atom_site_label_2
_geom_bond_distance
_geom_bond_site_symmetry_2
Te0 W1 2.714698 1_455
Te0 W1 2.714698 1_565
Te0 W1 2.714702 1_555
Te1 W1 2.715662 1_455
Te1 W1 2.715662 1_565
Te1 W1 2.715667 1_555
Mo0 Se0 2.551559 1_455
Mo0 Se0 2.551559 1_565
Mo0 Se0 2.551563 1_555
Mo0 Se2 2.551932 1_455
Mo0 Se2 2.551932 1_565
Mo0 Se2 2.551937 1_555
Mo1 S1 2.456328 1_655
Mo1 S1 2.456328 1_545
Mo1 S1 2.456333 1_555
Mo1 S0 2.456375 1_545
Mo1 S0 2.456375 1_655
Mo1 S0 2.456380 1_555
Se1 W0 2.557022 1_545
Se1 W0 2.557022 1_655
Se1 W0 2.557026 1_555
Se3 W0 2.557297 1_545
Se3 W0 2.557297 1_655
Se3 W0 2.557301 1_555
