# generated using pymatgen
data_NaMn2Si3BH2O11
_symmetry_space_group_name_H-M   'P 1'
_cell_length_a   6.92119200
_cell_length_b   7.63549469
_cell_length_c   9.02099888
_cell_angle_alpha   100.28772706
_cell_angle_beta   102.32185671
_cell_angle_gamma   102.70941122
_symmetry_Int_Tables_number   1
_chemical_formula_structural   NaMn2Si3BH2O11
_chemical_formula_sum   'Na2 Mn4 Si6 B2 H4 O22'
_cell_volume   441.43048650
_cell_formula_units_Z   2
loop_
 _symmetry_equiv_pos_site_id
 _symmetry_equiv_pos_as_xyz
  1  'x, y, z'
loop_
 _atom_site_type_symbol
 _atom_site_label
 _atom_site_symmetry_multiplicity
 _atom_site_fract_x
 _atom_site_fract_y
 _atom_site_fract_z
 _atom_site_occupancy
  Na  Na0  1  0.11255500  0.35133100  0.18515800  1
  Na  Na1  1  0.88744500  0.64866900  0.81484200  1
  Mn  Mn0  1  0.87070200  0.12453500  0.39033800  1
  Mn  Mn1  1  0.12929800  0.87546500  0.60966200  1
  Mn  Mn2  1  0.38100100  0.13047800  0.40156700  1
  Mn  Mn3  1  0.61899900  0.86952200  0.59843300  1
  Si  Si0  1  0.26890000  0.47157700  0.61705300  1
  Si  Si1  1  0.73110000  0.52842300  0.38294700  1
  Si  Si2  1  0.53843900  0.25679000  0.78385100  1
  Si  Si3  1  0.46156100  0.74321000  0.21614900  1
  Si  Si4  1  0.98259200  0.25894700  0.77264900  1
  Si  Si5  1  0.01740800  0.74105300  0.22735100  1
  B  B0  1  0.27813100  0.12705000  0.96680500  1
  B  B1  1  0.72186900  0.87295000  0.03319500  1
  H  H0  1  0.70281800  0.13726400  0.08357300  1
  H  H1  1  0.29718200  0.86273600  0.91642700  1
  H  H2  1  0.45265000  0.23787100  0.18265600  1
  H  H3  1  0.54735000  0.76212900  0.81734400  1
  O  O0  1  0.55963300  0.92210100  0.36419500  1
  O  O1  1  0.44036700  0.07789900  0.63580500  1
  O  O2  1  0.18726300  0.31452400  0.45243800  1
  O  O3  1  0.81273700  0.68547600  0.54756200  1
  O  O4  1  0.47749700  0.21416400  0.94039200  1
  O  O5  1  0.52250300  0.78583600  0.05960800  1
  O  O6  1  0.91388800  0.07776700  0.62784800  1
  O  O7  1  0.08611200  0.92223300  0.37215200  1
  O  O8  1  0.12628500  0.22783200  0.92645500  1
  O  O9  1  0.87371500  0.77216800  0.07354500  1
  O  O10  1  0.67344700  0.31463300  0.39572700  1
  O  O11  1  0.32655300  0.68536700  0.60427300  1
  O  O12  1  0.09209800  0.44414800  0.71802100  1
  O  O13  1  0.90790200  0.55585200  0.28197900  1
  O  O14  1  0.79128800  0.32103100  0.82872800  1
  O  O15  1  0.20871200  0.67896900  0.17127200  1
  O  O16  1  0.47547200  0.43780300  0.73079600  1
  O  O17  1  0.52452800  0.56219700  0.26920400  1
  O  O18  1  0.80335200  0.07159300  0.12452500  1
  O  O19  1  0.19664800  0.92840700  0.87547500  1
  O  O20  1  0.32157300  0.14181500  0.13955600  1
  O  O21  1  0.67842700  0.85818500  0.86044400  1
loop_
_geom_bond_atom_site_label_1
_geom_bond_atom_site_label_2
_geom_bond_distance
_geom_bond_site_symmetry_2
Na0 O8 2.385939 1_554
Na0 O20 2.420438 1_555
Na0 O2 2.435934 1_555
Na0 O15 2.476274 1_555
Na0 O13 2.494385 1_455
Na0 O18 2.552065 1_455
Na0 O17 2.813996 1_555
Na1 O9 2.385939 1_556
Na1 O21 2.420438 1_555
Na1 O3 2.435934 1_555
Na1 O14 2.476274 1_555
Na1 O12 2.494385 1_655
Na1 O19 2.552065 1_655
Na1 O16 2.813996 1_555
Mn0 O10 2.201849 1_555
Mn0 O6 2.203273 1_555
Mn0 O2 2.237405 1_655
Mn0 O18 2.285697 1_555
Mn0 O0 2.295395 1_545
Mn0 O7 2.379686 1_645
Mn1 O11 2.201849 1_555
Mn1 O7 2.203273 1_555
Mn1 O3 2.237405 1_455
Mn1 O19 2.285697 1_555
Mn1 O1 2.295395 1_565
Mn1 O6 2.379686 1_465
Mn2 O1 2.190902 1_555
Mn2 O2 2.201101 1_555
Mn2 O10 2.212797 1_555
Mn2 O7 2.225866 1_545
Mn2 O0 2.241772 1_545
Mn2 O20 2.331758 1_555
Mn3 O0 2.190902 1_555
Mn3 O3 2.201101 1_555
Mn3 O11 2.212797 1_555
Mn3 O6 2.225866 1_565
Mn3 O1 2.241772 1_565
Mn3 O21 2.331758 1_555
B0 O8 1.456637 1_555
B0 O4 1.481985 1_555
B0 O20 1.501342 1_556
B0 O19 1.508742 1_545
B1 O9 1.456637 1_555
B1 O5 1.481985 1_555
B1 O21 1.501342 1_554
B1 O18 1.508742 1_565
H0 O18 0.990981 1_555
H1 O19 0.990981 1_555
H2 O20 0.983335 1_555
H3 O21 0.983335 1_555
O0 Si3 1.632069 1_555
O1 Si2 1.632069 1_555
O2 Si0 1.634065 1_555
O3 Si1 1.634065 1_555
O4 Si2 1.623578 1_555
O5 Si3 1.623578 1_555
O6 Si4 1.626709 1_555
O7 Si5 1.626709 1_555
O8 Si4 1.613505 1_455
O9 Si5 1.613505 1_655
O10 Si1 1.624027 1_555
O11 Si0 1.624027 1_555
O12 Si4 1.659426 1_455
O12 Si0 1.673901 1_555
O13 Si5 1.659426 1_655
O13 Si1 1.673901 1_555
O14 Si4 1.646255 1_555
O14 Si2 1.648040 1_555
O15 Si5 1.646255 1_555
O15 Si3 1.648040 1_555
O16 Si2 1.655762 1_555
O16 Si0 1.671545 1_555
O17 Si3 1.655762 1_555
O17 Si1 1.671545 1_555
