# generated using pymatgen
data_Cu2PbSe2(ClO3)2
_symmetry_space_group_name_H-M   'P 1'
_cell_length_a   8.11778605
_cell_length_b   8.11778605
_cell_length_c   6.91300093
_cell_angle_alpha   89.17039714
_cell_angle_beta   89.17039714
_cell_angle_gamma   72.31589837
_symmetry_Int_Tables_number   1
_chemical_formula_structural   Cu2PbSe2(ClO3)2
_chemical_formula_sum   'Cu4 Pb2 Se4 Cl4 O12'
_cell_volume   433.95932097
_cell_formula_units_Z   2
loop_
 _symmetry_equiv_pos_site_id
 _symmetry_equiv_pos_as_xyz
  1  'x, y, z'
loop_
 _atom_site_type_symbol
 _atom_site_label
 _atom_site_symmetry_multiplicity
 _atom_site_fract_x
 _atom_site_fract_y
 _atom_site_fract_z
 _atom_site_occupancy
  Cu  Cu0  1  0.88955067  0.11044933  0.75000000  1
  Cu  Cu1  1  0.11044933  0.88955067  0.25000000  1
  Cu  Cu2  1  -0.00000000  0.50000000  0.00000000  1
  Cu  Cu3  1  0.50000000  0.00000000  0.50000000  1
  Pb  Pb0  1  0.65758408  0.34241592  0.25000000  1
  Pb  Pb1  1  0.34241592  0.65758408  0.75000000  1
  Se  Se0  1  0.73218621  0.93221716  0.08784606  1
  Se  Se1  1  0.06778284  0.26781379  0.41215394  1
  Se  Se2  1  0.26781379  0.06778284  0.91215394  1
  Se  Se3  1  0.93221716  0.73218621  0.58784606  1
  Cl  Cl0  1  0.27178653  0.47402371  0.11760586  1
  Cl  Cl1  1  0.52597629  0.72821347  0.38239414  1
  Cl  Cl2  1  0.72821347  0.52597629  0.88239414  1
  Cl  Cl3  1  0.47402371  0.27178653  0.61760586  1
  O  O0  1  0.80096508  0.10441019  0.00784859  1
  O  O1  1  0.89558981  0.19903492  0.49215141  1
  O  O2  1  0.19903492  0.89558981  0.99215141  1
  O  O3  1  0.10441019  0.80096508  0.50784859  1
  O  O4  1  0.94882223  0.37216919  0.21533131  1
  O  O5  1  0.62783081  0.05117777  0.28466869  1
  O  O6  1  0.05117777  0.62783081  0.78466869  1
  O  O7  1  0.37216919  0.94882223  0.71533131  1
  O  O8  1  0.91889845  0.79747493  0.17852727  1
  O  O9  1  0.20252507  0.08110155  0.32147273  1
  O  O10  1  0.08110155  0.20252507  0.82147273  1
  O  O11  1  0.79747493  0.91889845  0.67852727  1
loop_
_geom_bond_atom_site_label_1
_geom_bond_atom_site_label_2
_geom_bond_distance
_geom_bond_site_symmetry_2
Cu0 O1 1.917977 1_555
Cu0 O0 1.917977 1_556
Cu0 O11 1.989924 1_545
Cu0 O10 1.989924 1_655
Cu1 O3 1.917977 1_555
Cu1 O2 1.917977 1_554
Cu1 O8 1.989924 1_455
Cu1 O9 1.989924 1_565
Cu2 O6 1.914312 1_554
Cu2 O4 1.914312 1_455
Cu2 O10 2.623913 1_554
Cu2 O8 2.623913 1_455
Cu3 O5 1.914312 1_555
Cu3 O7 1.914312 1_545
Cu3 O9 2.623913 1_555
Cu3 O11 2.623913 1_545
Cl0 Cu2 2.310315 1_555
Cl0 Pb1 3.061756 1_554
Cl0 Pb0 3.131978 1_555
Cl1 Cu3 2.310315 1_565
Cl1 Pb1 3.061756 1_555
Cl1 Pb0 3.131978 1_555
Cl2 Cu2 2.310315 1_656
Cl2 Pb0 3.061756 1_556
Cl2 Pb1 3.131978 1_555
Cl3 Cu3 2.310315 1_555
Cl3 Pb0 3.061756 1_555
Cl3 Pb1 3.131978 1_555
O0 Se0 1.736178 1_545
O0 Pb0 2.561431 1_555
O1 Se1 1.736178 1_655
O1 Pb0 2.561431 1_555
O2 Se2 1.736178 1_565
O2 Pb1 2.561431 1_555
O3 Se3 1.736178 1_455
O3 Pb1 2.561431 1_555
O4 Se1 1.734703 1_655
O4 Pb0 2.456440 1_555
O5 Se0 1.734703 1_545
O5 Pb0 2.456440 1_555
O6 Se3 1.734703 1_455
O6 Pb1 2.456440 1_555
O7 Se2 1.734703 1_565
O7 Pb1 2.456440 1_555
O8 Se0 1.699161 1_555
O9 Se1 1.699161 1_555
O10 Se2 1.699161 1_555
O11 Se3 1.699161 1_555
