# generated using pymatgen
data_LiMnCo3O8
_symmetry_space_group_name_H-M   'P 1'
_cell_length_a   5.67969802
_cell_length_b   5.96586771
_cell_length_c   9.82995950
_cell_angle_alpha   106.29766471
_cell_angle_beta   89.86619931
_cell_angle_gamma   118.10742328
_symmetry_Int_Tables_number   1
_chemical_formula_structural   LiMnCo3O8
_chemical_formula_sum   'Li2 Mn2 Co6 O16'
_cell_volume   278.65618876
_cell_formula_units_Z   2
loop_
 _symmetry_equiv_pos_site_id
 _symmetry_equiv_pos_as_xyz
  1  'x, y, z'
loop_
 _atom_site_type_symbol
 _atom_site_label
 _atom_site_symmetry_multiplicity
 _atom_site_fract_x
 _atom_site_fract_y
 _atom_site_fract_z
 _atom_site_occupancy
  Li  Li0  1  0.74839800  0.49271500  0.24138600  1
  Li  Li1  1  0.25403800  0.50744000  0.75764800  1
  Mn  Mn0  1  0.99977500  0.00312800  0.00264600  1
  Mn  Mn1  1  0.49993700  0.99820200  0.49815800  1
  Co  Co0  1  0.74844600  0.99816500  0.24978800  1
  Co  Co1  1  0.99955000  0.99930800  0.49922800  1
  Co  Co2  1  0.75021400  0.00175500  0.75049900  1
  Co  Co3  1  0.25105100  0.00087500  0.75054500  1
  Co  Co4  1  0.50013800  0.00118900  0.00044700  1
  Co  Co5  1  0.25079100  0.99732600  0.24888500  1
  O  O0  1  0.59380900  0.18857300  0.86156700  1
  O  O1  1  0.09225900  0.18227400  0.36737100  1
  O  O2  1  0.40296000  0.81224400  0.13494600  1
  O  O3  1  0.90771600  0.81427700  0.63651600  1
  O  O4  1  0.65697600  0.79972800  0.38458600  1
  O  O5  1  0.15602700  0.80496100  0.87921700  1
  O  O6  1  0.90436600  0.80111200  0.13451100  1
  O  O7  1  0.40285200  0.80257300  0.63790100  1
  O  O8  1  0.14606000  0.79941600  0.38250600  1
  O  O9  1  0.65101200  0.80518200  0.87951800  1
  O  O10  1  0.85146300  0.19775800  0.61735600  1
  O  O11  1  0.35131700  0.19974500  0.12053900  1
  O  O12  1  0.09911600  0.20078800  0.86324400  1
  O  O13  1  0.59437300  0.19588100  0.36483100  1
  O  O14  1  0.34260900  0.19626200  0.61762400  1
  O  O15  1  0.84474600  0.19912500  0.11853800  1
loop_
_geom_bond_atom_site_label_1
_geom_bond_atom_site_label_2
_geom_bond_distance
_geom_bond_site_symmetry_2
Li0 O15 2.130370 1_555
Li0 O11 2.164574 1_555
Li0 O6 2.195063 1_555
Li0 O4 2.247558 1_555
Li0 O8 2.251577 1_655
Li0 O13 2.261673 1_555
Li1 O5 2.150790 1_555
Li1 O9 2.172228 1_555
Li1 O12 2.177916 1_555
Li1 O7 2.226311 1_555
Li1 O14 2.244236 1_555
Li1 O10 2.268826 1_455
Mn0 O15 1.912635 1_555
Mn0 O6 1.919507 1_545
Mn0 O11 1.935611 1_655
Mn0 O9 1.946321 1_544
Mn0 O5 1.958542 1_644
Mn0 O12 1.965467 1_654
Mn1 O13 1.914250 1_565
Mn1 O4 1.921583 1_555
Mn1 O8 1.935620 1_555
Mn1 O10 1.940316 1_565
Mn1 O14 1.945486 1_565
Mn1 O7 1.960361 1_555
Co0 O2 1.900498 1_555
Co0 O1 1.905950 1_665
Co0 O15 1.909992 1_565
Co0 O13 1.911881 1_565
Co0 O6 1.918055 1_555
Co0 O4 1.929993 1_555
Co1 O1 1.843382 1_665
Co1 O4 1.883534 1_555
Co1 O8 1.895695 1_655
Co1 O3 1.897929 1_555
Co1 O14 1.901971 1_665
Co1 O10 1.902527 1_565
Co2 O0 1.862456 1_555
Co2 O9 1.873510 1_545
Co2 O3 1.881846 1_545
Co2 O7 1.895389 1_545
Co2 O12 1.902549 1_655
Co2 O10 1.905986 1_555
Co3 O5 1.867980 1_545
Co3 O0 1.872109 1_555
Co3 O3 1.887521 1_445
Co3 O7 1.894848 1_545
Co3 O14 1.901810 1_555
Co3 O12 1.902134 1_555
Co4 O2 1.889465 1_545
Co4 O15 1.906915 1_555
Co4 O11 1.914459 1_555
Co4 O9 1.916772 1_544
Co4 O5 1.918970 1_544
Co4 O0 1.920744 1_554
Co5 O2 1.849645 1_555
Co5 O11 1.891585 1_565
Co5 O13 1.893372 1_565
Co5 O1 1.895965 1_565
Co5 O6 1.899253 1_455
Co5 O8 1.917850 1_555
