# generated using pymatgen
data_SrTh(PS4)2
_symmetry_space_group_name_H-M   'P 1'
_cell_length_a   11.24240300
_cell_length_b   11.24240300
_cell_length_c   9.76439300
_cell_angle_alpha   90.00000000
_cell_angle_beta   90.00000000
_cell_angle_gamma   90.00000000
_symmetry_Int_Tables_number   1
_chemical_formula_structural   SrTh(PS4)2
_chemical_formula_sum   'Sr4 Th4 P8 S32'
_cell_volume   1234.13750050
_cell_formula_units_Z   4
loop_
 _symmetry_equiv_pos_site_id
 _symmetry_equiv_pos_as_xyz
  1  'x, y, z'
loop_
 _atom_site_type_symbol
 _atom_site_label
 _atom_site_symmetry_multiplicity
 _atom_site_fract_x
 _atom_site_fract_y
 _atom_site_fract_z
 _atom_site_occupancy
  Sr  Sr0  1  0.50000000  0.00000000  0.75000000  1
  Sr  Sr1  1  0.00000000  0.50000000  0.25000000  1
  Sr  Sr2  1  0.00000000  0.50000000  0.75000000  1
  Sr  Sr3  1  0.50000000  0.00000000  0.25000000  1
  Th  Th0  1  0.50000000  0.50000000  0.75000000  1
  Th  Th1  1  0.50000000  0.50000000  0.25000000  1
  Th  Th2  1  0.00000000  0.00000000  0.75000000  1
  Th  Th3  1  0.00000000  0.00000000  0.25000000  1
  P  P0  1  0.46471100  0.25924400  0.50000000  1
  P  P1  1  0.74075600  0.46471100  0.00000000  1
  P  P2  1  0.96471100  0.24075600  0.50000000  1
  P  P3  1  0.75924400  0.96471100  0.00000000  1
  P  P4  1  0.53528900  0.74075600  0.50000000  1
  P  P5  1  0.25924400  0.53528900  0.00000000  1
  P  P6  1  0.03528900  0.75924400  0.50000000  1
  P  P7  1  0.24075600  0.03528900  0.00000000  1
  S  S0  1  0.26585300  0.43068800  0.82705900  1
  S  S1  1  0.56931200  0.26585300  0.32705900  1
  S  S2  1  0.76585300  0.06931200  0.82705900  1
  S  S3  1  0.93068800  0.76585300  0.32705900  1
  S  S4  1  0.26585300  0.43068800  0.17294100  1
  S  S5  1  0.56931200  0.26585300  0.67294100  1
  S  S6  1  0.76585300  0.06931200  0.17294100  1
  S  S7  1  0.93068800  0.76585300  0.67294100  1
  S  S8  1  0.73414700  0.56931200  0.17294100  1
  S  S9  1  0.43068800  0.73414700  0.67294100  1
  S  S10  1  0.23414700  0.93068800  0.17294100  1
  S  S11  1  0.06931200  0.23414700  0.67294100  1
  S  S12  1  0.73414700  0.56931200  0.82705900  1
  S  S13  1  0.43068800  0.73414700  0.32705900  1
  S  S14  1  0.23414700  0.93068800  0.82705900  1
  S  S15  1  0.06931200  0.23414700  0.32705900  1
  S  S16  1  0.36671200  0.41666700  0.50000000  1
  S  S17  1  0.58333300  0.36671200  0.00000000  1
  S  S18  1  0.86671200  0.08333300  0.50000000  1
  S  S19  1  0.91666700  0.86671200  0.00000000  1
  S  S20  1  0.63328800  0.58333300  0.50000000  1
  S  S21  1  0.41666700  0.63328800  0.00000000  1
  S  S22  1  0.13328800  0.91666700  0.50000000  1
  S  S23  1  0.08333300  0.13328800  0.00000000  1
  S  S24  1  0.36579700  0.11019400  0.50000000  1
  S  S25  1  0.88980600  0.36579700  0.00000000  1
  S  S26  1  0.86579700  0.38980600  0.50000000  1
  S  S27  1  0.61019400  0.86579700  0.00000000  1
  S  S28  1  0.63420300  0.88980600  0.50000000  1
  S  S29  1  0.11019400  0.63420300  0.00000000  1
  S  S30  1  0.13420300  0.61019400  0.50000000  1
  S  S31  1  0.38980600  0.13420300  0.00000000  1
loop_
_geom_bond_atom_site_label_1
_geom_bond_atom_site_label_2
_geom_bond_distance
_geom_bond_site_symmetry_2
P0 S24 2.011098 1_555
P0 S1 2.059127 1_555
P0 S5 2.059127 1_555
P0 S16 2.084725 1_555
P1 S25 2.011098 1_555
P1 S8 2.059127 1_555
P1 S12 2.059127 1_554
P1 S17 2.084725 1_555
P2 S26 2.011098 1_555
P2 S11 2.059127 1_655
P2 S15 2.059127 1_655
P2 S18 2.084725 1_555
P3 S27 2.011098 1_555
P3 S6 2.059127 1_565
P3 S2 2.059127 1_564
P3 S19 2.084725 1_555
P4 S28 2.011098 1_555
P4 S9 2.059127 1_555
P4 S13 2.059127 1_555
P4 S20 2.084725 1_555
P5 S29 2.011098 1_555
P5 S4 2.059127 1_555
P5 S0 2.059127 1_554
P5 S21 2.084725 1_555
P6 S30 2.011098 1_555
P6 S7 2.059127 1_455
P6 S3 2.059127 1_455
P6 S22 2.084725 1_555
P7 S31 2.011098 1_555
P7 S10 2.059127 1_545
P7 S14 2.059127 1_544
P7 S23 2.084725 1_555
S0 Th0 2.846535 1_555
S0 Sr2 3.179064 1_555
S1 Th1 2.846535 1_555
S1 Sr3 3.179064 1_555
S2 Th2 2.846535 1_655
S2 Sr0 3.179064 1_555
S3 Th3 2.846535 1_665
S3 Sr1 3.179064 1_655
S4 Th1 2.846535 1_555
S4 Sr1 3.179064 1_555
S5 Th0 2.846535 1_555
S5 Sr0 3.179064 1_555
S6 Th3 2.846535 1_655
S6 Sr3 3.179064 1_555
S7 Th2 2.846535 1_665
S7 Sr2 3.179064 1_655
S8 Th1 2.846535 1_555
S8 Sr1 3.179064 1_655
S9 Th0 2.846535 1_555
S9 Sr0 3.179064 1_565
S10 Th3 2.846535 1_565
S10 Sr3 3.179064 1_565
S11 Th2 2.846535 1_555
S11 Sr2 3.179064 1_555
S12 Th0 2.846535 1_555
S12 Sr2 3.179064 1_655
S13 Th1 2.846535 1_555
S13 Sr3 3.179064 1_565
S14 Th2 2.846535 1_565
S14 Sr0 3.179064 1_565
S15 Th3 2.846535 1_555
S15 Sr1 3.179064 1_555
S16 Th0 3.013654 1_555
S16 Th1 3.013654 1_555
S17 Th0 3.013654 1_554
S17 Th1 3.013654 1_555
S18 Th3 3.013654 1_655
S18 Th2 3.013654 1_655
S19 Th3 3.013654 1_665
S19 Th2 3.013654 1_664
S20 Th0 3.013654 1_555
S20 Th1 3.013654 1_555
S21 Th1 3.013654 1_555
S21 Th0 3.013654 1_554
S22 Th3 3.013654 1_565
S22 Th2 3.013654 1_565
S23 Th3 3.013654 1_555
S23 Th2 3.013654 1_554
S24 Sr3 3.125711 1_555
S24 Sr0 3.125711 1_555
S25 Sr2 3.125711 1_654
S25 Sr1 3.125711 1_655
S26 Sr2 3.125711 1_655
S26 Sr1 3.125711 1_655
S27 Sr3 3.125711 1_565
S27 Sr0 3.125711 1_564
S28 Sr0 3.125711 1_565
S28 Sr3 3.125711 1_565
S29 Sr2 3.125711 1_554
S29 Sr1 3.125711 1_555
S30 Sr2 3.125711 1_555
S30 Sr1 3.125711 1_555
S31 Sr3 3.125711 1_555
S31 Sr0 3.125711 1_554
