# generated using pymatgen
data_Yb2AlNi2
_symmetry_space_group_name_H-M   'P 1'
_cell_length_a   4.13858383
_cell_length_b   5.23742281
_cell_length_c   5.23742281
_cell_angle_alpha   60.58817653
_cell_angle_beta   66.72794312
_cell_angle_gamma   66.72794312
_symmetry_Int_Tables_number   1
_chemical_formula_structural   Yb2AlNi2
_chemical_formula_sum   'Yb2 Al1 Ni2'
_cell_volume   87.93159961
_cell_formula_units_Z   1
loop_
 _symmetry_equiv_pos_site_id
 _symmetry_equiv_pos_as_xyz
  1  'x, y, z'
loop_
 _atom_site_type_symbol
 _atom_site_label
 _atom_site_symmetry_multiplicity
 _atom_site_fract_x
 _atom_site_fract_y
 _atom_site_fract_z
 _atom_site_occupancy
  Yb  Yb0  1  0.20216836  0.29783164  0.29783164  1
  Yb  Yb1  1  0.79783164  0.70216836  0.70216836  1
  Al  Al0  1  0.00000000  0.00000000  0.00000000  1
  Ni  Ni0  1  0.50000000  0.26606290  0.73393710  1
  Ni  Ni1  1  0.50000000  0.73393710  0.26606290  1
loop_
_geom_bond_atom_site_label_1
_geom_bond_atom_site_label_2
_geom_bond_distance
_geom_bond_site_symmetry_2
Al0 Ni0 2.501678 1_554
Al0 Ni1 2.501678 1_545
Al0 Ni1 2.501678 1_445
Al0 Ni0 2.501678 1_454
Al0 Yb1 3.102149 1_445
Al0 Yb1 3.102149 1_454
Al0 Yb0 3.102149 1_545
Al0 Yb0 3.102149 1_554
Al0 Yb0 3.165257 1_455
Al0 Yb1 3.165257 1_544
Al0 Yb0 3.165258 1_555
Al0 Yb1 3.165258 1_444
Ni0 Ni1 2.472208 1_555
Ni0 Yb0 2.777285 1_556
Ni0 Yb1 2.777285 1_545
Ni0 Yb0 2.907458 1_655
Ni0 Yb1 2.907458 1_455
Ni0 Yb1 2.907458 1_555
Ni0 Yb0 2.907458 1_555
Ni1 Yb0 2.777285 1_565
Ni1 Yb1 2.777285 1_554
Ni1 Yb0 2.907458 1_655
Ni1 Yb1 2.907458 1_455
Ni1 Yb1 2.907458 1_555
Ni1 Yb0 2.907458 1_555
