# generated using pymatgen
data_NaMg6Cu
_symmetry_space_group_name_H-M   'P 1'
_cell_length_a   5.04963300
_cell_length_b   6.32066700
_cell_length_c   10.93196200
_cell_angle_alpha   90.00000000
_cell_angle_beta   90.00000000
_cell_angle_gamma   90.00000000
_symmetry_Int_Tables_number   1
_chemical_formula_structural   NaMg6Cu
_chemical_formula_sum   'Na2 Mg12 Cu2'
_cell_volume   348.91596316
_cell_formula_units_Z   2
loop_
 _symmetry_equiv_pos_site_id
 _symmetry_equiv_pos_as_xyz
  1  'x, y, z'
loop_
 _atom_site_type_symbol
 _atom_site_label
 _atom_site_symmetry_multiplicity
 _atom_site_fract_x
 _atom_site_fract_y
 _atom_site_fract_z
 _atom_site_occupancy
  Na  Na0  1  0.50000000  0.50000000  0.16975600  1
  Na  Na1  1  0.50000000  0.00000000  0.66975600  1
  Mg  Mg0  1  0.00000000  0.24394500  0.07898700  1
  Mg  Mg1  1  0.00000000  0.75605500  0.07898700  1
  Mg  Mg2  1  0.00000000  0.50000000  0.83283300  1
  Mg  Mg3  1  0.50000000  0.23895600  0.91201800  1
  Mg  Mg4  1  0.50000000  0.76104400  0.91201800  1
  Mg  Mg5  1  0.50000000  0.50000000  0.66446800  1
  Mg  Mg6  1  0.00000000  0.74394500  0.57898700  1
  Mg  Mg7  1  0.00000000  0.25605500  0.57898700  1
  Mg  Mg8  1  0.00000000  0.00000000  0.33283300  1
  Mg  Mg9  1  0.50000000  0.73895600  0.41201800  1
  Mg  Mg10  1  0.50000000  0.26104400  0.41201800  1
  Mg  Mg11  1  0.50000000  0.00000000  0.16446800  1
  Cu  Cu0  1  0.00000000  0.50000000  0.35093200  1
  Cu  Cu1  1  0.00000000  0.00000000  0.85093200  1
loop_
_geom_bond_atom_site_label_1
_geom_bond_atom_site_label_2
_geom_bond_distance
_geom_bond_site_symmetry_2
Mg0 Mg1 3.083790 1_545
Mg0 Mg11 3.102480 1_555
Mg0 Mg11 3.102480 1_455
Mg0 Mg3 3.115671 1_554
Mg0 Mg3 3.115671 1_454
Mg0 Mg2 3.140149 1_554
Mg0 Na0 3.158903 1_555
Mg0 Na0 3.158903 1_455
Mg0 Mg8 3.174627 1_555
Mg0 Mg1 3.236877 1_555
Mg1 Mg11 3.102480 1_465
Mg1 Mg11 3.102480 1_565
Mg1 Mg4 3.115671 1_454
Mg1 Mg4 3.115671 1_554
Mg1 Mg2 3.140149 1_554
Mg1 Na0 3.158903 1_555
Mg1 Na0 3.158903 1_455
Mg1 Mg8 3.174627 1_565
Mg2 Mg5 3.124477 1_455
Mg2 Mg5 3.124477 1_555
Mg2 Mg4 3.137906 1_455
Mg2 Mg4 3.137906 1_555
Mg2 Mg3 3.137906 1_455
Mg2 Mg3 3.137906 1_555
Mg2 Mg6 3.174627 1_555
Mg2 Mg7 3.174627 1_555
Mg3 Mg4 3.020723 1_545
Mg3 Na1 3.048804 1_555
Mg3 Mg5 3.169537 1_555
Mg3 Na0 3.265146 1_556
Mg3 Mg4 3.299944 1_555
Mg4 Na1 3.048804 1_565
Mg4 Mg5 3.169537 1_555
Mg4 Na0 3.265146 1_556
Mg5 Mg7 3.102480 1_655
Mg5 Mg6 3.102480 1_555
Mg5 Mg7 3.102480 1_555
Mg5 Mg6 3.102480 1_655
Mg5 Mg9 3.146036 1_555
Mg5 Na1 3.160862 1_565
Mg5 Na1 3.160862 1_555
Mg6 Mg7 3.083790 1_555
Mg6 Mg9 3.115671 1_455
Mg6 Mg9 3.115671 1_555
Mg6 Mg8 3.140149 1_565
Mg6 Na1 3.158903 1_565
Mg6 Na1 3.158903 1_465
Mg6 Mg7 3.236877 1_565
Mg7 Mg8 3.140149 1_555
Mg7 Na1 3.158903 1_455
Mg7 Na1 3.158903 1_555
Mg8 Mg9 3.137906 1_545
Mg8 Mg9 3.137906 1_445
Mg9 Na0 3.048804 1_555
Mg9 Na1 3.265146 1_565
Mg10 Mg9 3.020723 1_555
Mg10 Na0 3.048804 1_555
Mg10 Mg7 3.115671 1_555
Mg10 Mg7 3.115671 1_655
Mg10 Mg8 3.137906 1_555
Mg10 Mg8 3.137906 1_655
Mg10 Mg5 3.146036 1_555
Mg10 Mg11 3.169537 1_555
Mg10 Na1 3.265146 1_555
Mg10 Mg9 3.299944 1_545
Mg11 Mg8 3.124477 1_555
Mg11 Mg8 3.124477 1_655
Mg11 Mg3 3.146036 1_554
Mg11 Mg4 3.146036 1_544
Mg11 Na0 3.160862 1_555
Mg11 Na0 3.160862 1_545
Mg11 Mg9 3.169537 1_545
Cu0 Mg6 2.931370 1_555
Cu0 Mg7 2.931370 1_555
Cu0 Mg9 3.016924 1_455
Cu0 Mg9 3.016924 1_555
Cu0 Mg10 3.016924 1_555
Cu0 Mg10 3.016924 1_455
Cu0 Mg8 3.166521 1_565
Cu0 Mg8 3.166521 1_555
Cu0 Na0 3.208974 1_455
Cu0 Na0 3.208974 1_555
Cu0 Mg1 3.384883 1_555
Cu0 Mg0 3.384883 1_555
Cu1 Mg0 2.931370 1_556
Cu1 Mg1 2.931370 1_546
Cu1 Mg3 3.016924 1_455
Cu1 Mg3 3.016924 1_555
Cu1 Mg4 3.016924 1_545
Cu1 Mg4 3.016924 1_445
Cu1 Mg2 3.166521 1_555
Cu1 Mg2 3.166521 1_545
Cu1 Na1 3.208974 1_455
Cu1 Na1 3.208974 1_555
Cu1 Mg7 3.384883 1_555
Cu1 Mg6 3.384883 1_545
