# generated using pymatgen
data_Na2Al2Si3H6O13
_symmetry_space_group_name_H-M   'P 1'
_cell_length_a   10.21727956
_cell_length_b   10.21727956
_cell_length_c   9.96313367
_cell_angle_alpha   84.19415621
_cell_angle_beta   84.19415621
_cell_angle_gamma   142.30090086
_symmetry_Int_Tables_number   1
_chemical_formula_structural   Na2Al2Si3H6O13
_chemical_formula_sum   'Na4 Al4 Si6 H12 O26'
_cell_volume   604.04452972
_cell_formula_units_Z   2
loop_
 _symmetry_equiv_pos_site_id
 _symmetry_equiv_pos_as_xyz
  1  'x, y, z'
loop_
 _atom_site_type_symbol
 _atom_site_label
 _atom_site_symmetry_multiplicity
 _atom_site_fract_x
 _atom_site_fract_y
 _atom_site_fract_z
 _atom_site_occupancy
  Na  Na0  1  0.57444200  0.85753800  0.04860600  1
  Na  Na1  1  0.85753800  0.57444200  0.54860600  1
  Na  Na2  1  0.01542400  0.35366700  0.11132300  1
  Na  Na3  1  0.35366700  0.01542400  0.61132300  1
  Al  Al0  1  0.30296000  0.73336400  0.42860400  1
  Al  Al1  1  0.73336400  0.30296000  0.92860400  1
  Al  Al2  1  0.40170800  0.47768700  0.60122300  1
  Al  Al3  1  0.47768700  0.40170800  0.10122300  1
  Si  Si0  1  0.74550400  0.00314400  0.50219400  1
  Si  Si1  1  0.00314400  0.74550400  0.00219400  1
  Si  Si2  1  0.99158300  0.32996300  0.69770900  1
  Si  Si3  1  0.32996300  0.99158300  0.19770900  1
  Si  Si4  1  0.24663100  0.40814500  0.33313600  1
  Si  Si5  1  0.40814500  0.24663100  0.83313600  1
  H  H0  1  0.66260000  0.20525200  0.41358700  1
  H  H1  1  0.20525200  0.66260000  0.91358700  1
  H  H2  1  0.61567700  0.30919400  0.34743400  1
  H  H3  1  0.30919400  0.61567700  0.84743400  1
  H  H4  1  0.05402600  0.92598500  0.70887500  1
  H  H5  1  0.92598500  0.05402600  0.20887500  1
  H  H6  1  0.02551200  0.10283300  0.05158600  1
  H  H7  1  0.10283300  0.02551200  0.55158600  1
  H  H8  1  0.76220200  0.88422000  0.77904300  1
  H  H9  1  0.88422000  0.76220200  0.27904300  1
  H  H10  1  0.78406900  0.80012300  0.90745000  1
  H  H11  1  0.80012300  0.78406900  0.40745000  1
  O  O0  1  0.56323100  0.96125800  0.46627500  1
  O  O1  1  0.96125800  0.56323100  0.96627500  1
  O  O2  1  0.64832400  0.77531500  0.53635600  1
  O  O3  1  0.77531500  0.64832400  0.03635600  1
  O  O4  1  0.25263300  0.84740600  0.35323900  1
  O  O5  1  0.84740600  0.25263300  0.85323900  1
  O  O6  1  0.35667200  0.44519500  0.17968900  1
  O  O7  1  0.44519500  0.35667200  0.67968900  1
  O  O8  1  0.32427100  0.62496800  0.31779400  1
  O  O9  1  0.62496800  0.32427100  0.81779400  1
  O  O10  1  0.20427900  0.41408600  0.71524200  1
  O  O11  1  0.41408600  0.20427900  0.21524200  1
  O  O12  1  0.07971100  0.53373300  0.58774700  1
  O  O13  1  0.53373300  0.07971100  0.08774700  1
  O  O14  1  0.29399900  0.35584900  0.46358800  1
  O  O15  1  0.35584900  0.29399900  0.96358800  1
  O  O16  1  0.82579800  0.11201200  0.63307900  1
  O  O17  1  0.11201200  0.82579800  0.13307900  1
  O  O18  1  0.96680200  0.18527800  0.35737300  1
  O  O19  1  0.18527800  0.96680200  0.85737300  1
  O  O20  1  0.67375500  0.31018600  0.42091600  1
  O  O21  1  0.31018600  0.67375500  0.92091600  1
  O  O22  1  0.04434900  0.89924100  0.61606500  1
  O  O23  1  0.89924100  0.04434900  0.11606500  1
  O  O24  1  0.73770400  0.85149000  0.88026500  1
  O  O25  1  0.85149000  0.73770400  0.38026500  1
loop_
_geom_bond_atom_site_label_1
_geom_bond_atom_site_label_2
_geom_bond_distance
_geom_bond_site_symmetry_2
Na0 O24 2.284169 1_554
Na0 O21 2.364236 1_554
Na0 O23 2.407268 1_565
Na0 O8 2.661762 1_555
Na0 O13 2.668032 1_565
Na0 O5 2.712682 1_564
Na0 O6 2.805477 1_555
Na1 O25 2.284169 1_555
Na1 O20 2.364236 1_555
Na1 O22 2.407268 1_655
Na1 O9 2.661762 1_555
Na1 O12 2.668032 1_655
Na1 O4 2.712682 1_655
Na1 O7 2.805477 1_555
Na2 O21 2.316710 1_554
Na2 O23 2.328320 1_455
Na2 O18 2.600792 1_455
Na3 O20 2.316710 1_555
Na3 O22 2.328320 1_545
Na3 O19 2.600792 1_545
Al0 O4 1.742167 1_555
Al0 O8 1.753053 1_555
Al0 O12 1.768847 1_555
Al0 O0 1.792872 1_555
Al1 O5 1.742167 1_555
Al1 O9 1.753053 1_555
Al1 O13 1.768847 1_556
Al1 O1 1.792872 1_555
Al2 O7 1.755408 1_555
Al2 O10 1.759117 1_555
Al2 O14 1.767458 1_555
Al2 O2 1.778081 1_555
Al3 O6 1.755408 1_555
Al3 O11 1.759117 1_555
Al3 O15 1.767458 1_554
Al3 O3 1.778081 1_555
H0 O20 0.995971 1_555
H1 O21 0.995971 1_555
H2 O20 0.983915 1_555
H3 O21 0.983915 1_555
H4 O22 0.983023 1_555
H5 O23 0.983023 1_555
H6 O23 0.984342 1_455
H7 O22 0.984342 1_545
H8 O24 0.969418 1_555
H9 O25 0.969418 1_555
H10 O24 0.981764 1_555
H11 O25 0.981764 1_555
O0 Si0 1.638320 1_565
O1 Si1 1.638320 1_656
O2 Si0 1.622998 1_565
O3 Si1 1.622998 1_655
O4 Si3 1.626065 1_555
O5 Si2 1.626065 1_555
O6 Si4 1.614406 1_555
O7 Si5 1.614406 1_555
O8 Si4 1.639015 1_555
O9 Si5 1.639015 1_555
O10 Si2 1.625825 1_455
O11 Si3 1.625825 1_545
O12 Si2 1.648637 1_455
O13 Si3 1.648637 1_545
O14 Si4 1.613989 1_555
O15 Si5 1.613989 1_555
O16 Si0 1.636041 1_555
O16 Si2 1.668662 1_555
O17 Si1 1.636041 1_555
O17 Si3 1.668662 1_555
O18 Si0 1.671993 1_555
O18 Si4 1.692461 1_655
O19 Si1 1.671993 1_556
O19 Si5 1.692461 1_565
