# generated using pymatgen
data_CaFeF5
_symmetry_space_group_name_H-M   'P 1'
_cell_length_a   5.56514238
_cell_length_b   5.56514238
_cell_length_c   7.63676416
_cell_angle_alpha   69.70895504
_cell_angle_beta   69.70895504
_cell_angle_gamma   71.31681877
_symmetry_Int_Tables_number   1
_chemical_formula_structural   CaFeF5
_chemical_formula_sum   'Ca2 Fe2 F10'
_cell_volume   202.62032696
_cell_formula_units_Z   2
loop_
 _symmetry_equiv_pos_site_id
 _symmetry_equiv_pos_as_xyz
  1  'x, y, z'
loop_
 _atom_site_type_symbol
 _atom_site_label
 _atom_site_symmetry_multiplicity
 _atom_site_fract_x
 _atom_site_fract_y
 _atom_site_fract_z
 _atom_site_occupancy
  Ca  Ca0  1  0.54601530  0.45398470  0.75000000  1
  Ca  Ca1  1  0.45398470  0.54601430  0.25000000  1
  Fe  Fe0  1  0.00000000  -0.00000000  -0.00000000  1
  Fe  Fe1  1  0.00000000  -0.00000000  0.50000000  1
  F  F0  1  0.08177404  0.91822596  0.25000000  1
  F  F1  1  0.91822596  0.08177404  0.75000000  1
  F  F2  1  0.20979636  0.24925395  0.38058111  1
  F  F3  1  0.75074605  0.79020364  0.11941889  1
  F  F4  1  0.71539738  0.30721432  0.03145726  1
  F  F5  1  0.69278568  0.28460262  0.46854274  1
  F  F6  1  0.28460262  0.69278568  0.96854274  1
  F  F7  1  0.30721432  0.71539738  0.53145726  1
  F  F8  1  0.24925395  0.20979636  0.88058111  1
  F  F9  1  0.79020364  0.75074605  0.61941889  1
loop_
_geom_bond_atom_site_label_1
_geom_bond_atom_site_label_2
_geom_bond_distance
_geom_bond_site_symmetry_2
Ca0 F9 2.219093 1_555
Ca0 F8 2.219093 1_555
Ca0 F6 2.298627 1_555
Ca0 F7 2.298627 1_555
Ca0 F1 2.415058 1_555
Ca0 F5 2.422820 1_555
Ca0 F4 2.422820 1_556
Ca1 F2 2.219088 1_555
Ca1 F3 2.219096 1_555
Ca1 F4 2.298624 1_555
Ca1 F5 2.298626 1_555
Ca1 F0 2.415061 1_555
Ca1 F6 2.422819 1_554
Ca1 F7 2.422823 1_555
F0 Fe1 1.981547 1_565
F0 Fe0 1.981547 1_565
F1 Fe0 1.981547 1_656
F1 Fe1 1.981547 1_655
F2 Fe1 1.881673 1_555
F3 Fe0 1.881673 1_665
F4 Fe0 1.943051 1_655
F5 Fe1 1.943051 1_655
F6 Fe0 1.943051 1_566
F7 Fe1 1.943051 1_565
F8 Fe0 1.881673 1_556
F9 Fe1 1.881673 1_665
