# generated using pymatgen
data_Sr3(GaIr)4
_symmetry_space_group_name_H-M   'P 1'
_cell_length_a   6.71987226
_cell_length_b   6.71989491
_cell_length_c   6.71987226
_cell_angle_alpha   109.47122213
_cell_angle_beta   109.47108112
_cell_angle_gamma   109.47122213
_symmetry_Int_Tables_number   1
_chemical_formula_structural   Sr3(GaIr)4
_chemical_formula_sum   'Sr3 Ga4 Ir4'
_cell_volume   233.59490040
_cell_formula_units_Z   1
loop_
 _symmetry_equiv_pos_site_id
 _symmetry_equiv_pos_as_xyz
  1  'x, y, z'
loop_
 _atom_site_type_symbol
 _atom_site_label
 _atom_site_symmetry_multiplicity
 _atom_site_fract_x
 _atom_site_fract_y
 _atom_site_fract_z
 _atom_site_occupancy
  Sr  Sr0  1  0.00000061  0.50000000  0.50000061  1
  Sr  Sr1  1  0.50000110  -0.00000000  0.50000110  1
  Sr  Sr2  1  0.50000061  0.50000000  0.00000061  1
  Ga  Ga0  1  0.61733952  0.61733995  0.61733952  1
  Ga  Ga1  1  -0.00000035  -0.00000000  0.38265962  1
  Ga  Ga2  1  -0.00000042  0.38266005  -0.00000042  1
  Ga  Ga3  1  0.38265962  -0.00000000  -0.00000035  1
  Ir  Ir0  1  0.25625869  0.25625865  0.25625869  1
  Ir  Ir1  1  -0.00000002  -0.00000000  0.74374159  1
  Ir  Ir2  1  0.00000004  0.74374135  0.00000004  1
  Ir  Ir3  1  0.74374159  -0.00000000  -0.00000002  1
loop_
_geom_bond_atom_site_label_1
_geom_bond_atom_site_label_2
_geom_bond_distance
_geom_bond_site_symmetry_2
Ga0 Ir0 2.426426 1_555
Ga0 Ir3 2.574024 1_566
Ga0 Ir1 2.574024 1_665
Ga0 Ir2 2.574026 1_656
Ga0 Sr1 3.185073 1_565
Ga0 Sr2 3.185077 1_556
Ga0 Sr0 3.185077 1_655
Ga1 Ir1 2.426424 1_555
Ga1 Ir3 2.574018 1_455
Ga1 Ir0 2.574018 1_555
Ga1 Ir2 2.574018 1_545
Ga1 Sr0 3.185081 1_555
Ga1 Sr2 3.185081 1_445
Ga1 Sr1 3.185083 1_555
Ga2 Ir2 2.426426 1_555
Ga2 Ir3 2.574024 1_455
Ga2 Ir1 2.574024 1_554
Ga2 Ir0 2.574026 1_555
Ga2 Sr1 3.185073 1_454
Ga2 Sr2 3.185076 1_555
Ga2 Sr0 3.185076 1_555
Ga3 Ir3 2.426424 1_555
Ga3 Ir1 2.574018 1_554
Ga3 Ir0 2.574018 1_555
Ga3 Ir2 2.574018 1_545
Ga3 Sr2 3.185081 1_555
Ga3 Sr0 3.185081 1_544
Ga3 Sr1 3.185083 1_555
Ir0 Sr0 3.209839 1_555
Ir0 Sr2 3.209839 1_555
Ir0 Sr1 3.209854 1_555
Ir1 Sr1 3.209836 1_455
Ir1 Sr0 3.209852 1_545
Ir1 Sr2 3.209852 1_556
Ir2 Sr2 3.209839 1_455
Ir2 Sr0 3.209839 1_554
Ir2 Sr1 3.209854 1_565
Ir3 Sr1 3.209836 1_554
Ir3 Sr0 3.209852 1_655
Ir3 Sr2 3.209852 1_545
