# generated using pymatgen
data_Eu3(Ga2Ge3)2
_symmetry_space_group_name_H-M   'P 1'
_cell_length_a   12.13113490
_cell_length_b   12.13113490
_cell_length_c   10.85576438
_cell_angle_alpha   88.45585606
_cell_angle_beta   88.45585606
_cell_angle_gamma   21.20956546
_symmetry_Int_Tables_number   1
_chemical_formula_structural   Eu3(Ga2Ge3)2
_chemical_formula_sum   'Eu6 Ga8 Ge12'
_cell_volume   577.75646769
_cell_formula_units_Z   2
loop_
 _symmetry_equiv_pos_site_id
 _symmetry_equiv_pos_as_xyz
  1  'x, y, z'
loop_
 _atom_site_type_symbol
 _atom_site_label
 _atom_site_symmetry_multiplicity
 _atom_site_fract_x
 _atom_site_fract_y
 _atom_site_fract_z
 _atom_site_occupancy
  Eu  Eu0  1  0.17327800  0.17327800  0.45612600  1
  Eu  Eu1  1  0.82672200  0.82672200  0.54387400  1
  Eu  Eu2  1  0.47697000  0.47697000  0.83162000  1
  Eu  Eu3  1  0.52303000  0.52303000  0.16838000  1
  Eu  Eu4  1  0.64481200  0.64481200  0.89957800  1
  Eu  Eu5  1  0.35518800  0.35518800  0.10042200  1
  Ga  Ga0  1  0.42372800  0.42372800  0.58315900  1
  Ga  Ga1  1  0.57627200  0.57627200  0.41684100  1
  Ga  Ga2  1  0.24023700  0.24023700  0.74254400  1
  Ga  Ga3  1  0.75976300  0.75976300  0.25745600  1
  Ga  Ga4  1  0.06629800  0.06629800  0.72588000  1
  Ga  Ga5  1  0.93370200  0.93370200  0.27412000  1
  Ga  Ga6  1  0.86206000  0.86206000  0.87822700  1
  Ga  Ga7  1  0.13794000  0.13794000  0.12177300  1
  Ge  Ge0  1  0.02490400  0.02490400  0.39705700  1
  Ge  Ge1  1  0.97509600  0.97509600  0.60294300  1
  Ge  Ge2  1  0.22846800  0.22846800  0.97889200  1
  Ge  Ge3  1  0.77153200  0.77153200  0.02110800  1
  Ge  Ge4  1  0.29067200  0.29067200  0.35638600  1
  Ge  Ge5  1  0.70932800  0.70932800  0.64361400  1
  Ge  Ge6  1  0.34804100  0.34804100  0.76336300  1
  Ge  Ge7  1  0.65195900  0.65195900  0.23663700  1
  Ge  Ge8  1  0.60381400  0.60381400  0.63753900  1
  Ge  Ge9  1  0.39618600  0.39618600  0.36246100  1
  Ge  Ge10  1  0.05216500  0.05216500  0.96545700  1
  Ge  Ge11  1  0.94783500  0.94783500  0.03454300  1
loop_
_geom_bond_atom_site_label_1
_geom_bond_atom_site_label_2
_geom_bond_distance
_geom_bond_site_symmetry_2
Eu0 Ge4 2.973868 1_555
Eu0 Ge5 3.156234 1_455
Eu0 Ge5 3.156234 1_545
Eu0 Ga1 3.251451 1_455
Eu0 Ga1 3.251451 1_545
Eu0 Ge7 3.314585 1_455
Eu0 Ge7 3.314585 1_545
Eu0 Ge8 3.380531 1_545
Eu0 Ge8 3.380531 1_455
Eu0 Ga2 3.534086 1_555
Eu0 Ge0 3.613295 1_555
Eu0 Ga3 3.693990 1_455
Eu0 Ga3 3.693990 1_545
Eu0 Ga7 3.748644 1_555
Eu0 Ga4 3.830751 1_555
Eu1 Ge5 2.973868 1_555
Eu1 Ge4 3.156234 1_565
Eu1 Ge4 3.156234 1_655
Eu1 Ga0 3.251451 1_655
Eu1 Ga0 3.251451 1_565
Eu1 Ge6 3.314585 1_565
Eu1 Ge6 3.314585 1_655
Eu1 Ge9 3.380531 1_565
Eu1 Ge9 3.380531 1_655
Eu1 Ga3 3.534086 1_555
Eu1 Ge1 3.613295 1_555
Eu1 Ga2 3.693990 1_655
Eu1 Ga2 3.693990 1_565
Eu1 Ga6 3.748644 1_555
Eu1 Ga5 3.830751 1_555
Eu2 Ga0 3.012476 1_555
Eu2 Ge6 3.182396 1_555
Eu2 Ge11 3.199335 1_546
Eu2 Ge11 3.199335 1_456
Eu2 Ge10 3.233219 1_655
Eu2 Ge10 3.233219 1_565
Eu2 Ga4 3.271984 1_655
Eu2 Ga4 3.271984 1_565
Eu2 Ge1 3.339897 1_545
Eu2 Ge1 3.339897 1_455
Eu2 Ga6 3.560020 1_545
Eu2 Ga6 3.560020 1_455
Eu2 Ge8 3.638673 1_555
Eu3 Ga1 3.012476 1_555
Eu3 Ge7 3.182396 1_555
Eu3 Ge10 3.199335 1_564
Eu3 Ge10 3.199335 1_654
Eu3 Ge11 3.233219 1_455
Eu3 Ge11 3.233219 1_545
Eu3 Ga5 3.271984 1_545
Eu3 Ga5 3.271984 1_455
Eu3 Ge0 3.339897 1_655
Eu3 Ge0 3.339897 1_565
Eu3 Ga7 3.560020 1_565
Eu3 Ga7 3.560020 1_655
Eu3 Ge9 3.638673 1_555
Eu4 Ge8 3.033210 1_555
Eu4 Ge2 3.130468 1_655
Eu4 Ge2 3.130468 1_565
Eu4 Ge5 3.139088 1_555
Eu4 Ge10 3.207901 1_655
Eu4 Ge10 3.207901 1_565
Eu4 Ga7 3.287492 1_656
Eu4 Ga7 3.287492 1_566
Eu4 Ge3 3.330414 1_556
Eu4 Ga4 3.498460 1_655
Eu4 Ga4 3.498460 1_565
Eu4 Ga2 3.585570 1_565
Eu4 Ga2 3.585570 1_655
Eu4 Ge7 3.667665 1_556
Eu5 Ge9 3.033210 1_555
Eu5 Ge3 3.130468 1_455
Eu5 Ge3 3.130468 1_545
Eu5 Ge4 3.139088 1_555
Eu5 Ge11 3.207901 1_455
Eu5 Ge11 3.207901 1_545
Eu5 Ga6 3.287492 1_544
Eu5 Ga6 3.287492 1_454
Eu5 Ge2 3.330414 1_554
Eu5 Ga5 3.498460 1_545
Eu5 Ga5 3.498460 1_455
Eu5 Ga3 3.585570 1_545
Eu5 Ga3 3.585570 1_455
Eu5 Ge6 3.667665 1_554
Ga0 Ge9 2.501553 1_555
Ga0 Ge1 2.558403 1_455
Ga0 Ge1 2.558403 1_545
Ga0 Ge6 2.625118 1_555
Ga1 Ge8 2.501553 1_555
Ga1 Ge0 2.558403 1_565
Ga1 Ge0 2.558403 1_655
Ga1 Ge7 2.625118 1_555
Ga2 Ge2 2.573383 1_555
Ga2 Ge6 2.586976 1_555
Ga2 Ge5 2.593134 1_455
Ga2 Ge5 2.593134 1_545
Ga3 Ge3 2.573383 1_555
Ga3 Ge7 2.586976 1_555
Ga3 Ge4 2.593134 1_565
Ga3 Ge4 2.593134 1_655
Ga4 Ge8 2.580176 1_545
Ga4 Ge8 2.580176 1_455
Ga4 Ge1 2.582781 1_445
Ga4 Ge10 2.613360 1_555
Ga5 Ge9 2.580176 1_655
Ga5 Ge9 2.580176 1_565
Ga5 Ge0 2.582781 1_665
Ga5 Ge11 2.613360 1_555
Ga6 Ge6 2.583348 1_565
Ga6 Ge6 2.583348 1_655
Ga6 Ge3 2.623566 1_556
Ga6 Ge11 2.693358 1_556
Ga7 Ge7 2.583348 1_455
Ga7 Ge7 2.583348 1_545
Ga7 Ge2 2.623566 1_554
Ga7 Ge10 2.693358 1_554
Ge0 Ge1 2.502156 1_445
Ge2 Ge3 2.504943 1_546
Ge2 Ge3 2.504943 1_456
Ge4 Ge9 2.518955 1_555
Ge5 Ge8 2.518955 1_555
Ge10 Ge11 2.578865 1_446
