# generated using pymatgen
data_Cr3(W10C3)2
_symmetry_space_group_name_H-M   'P 1'
_cell_length_a   8.20218976
_cell_length_b   8.20218976
_cell_length_c   8.20218976
_cell_angle_alpha   60.00000000
_cell_angle_beta   60.00000000
_cell_angle_gamma   60.00000000
_symmetry_Int_Tables_number   1
_chemical_formula_structural   Cr3(W10C3)2
_chemical_formula_sum   'Cr3 W20 C6'
_cell_volume   390.18847724
_cell_formula_units_Z   1
loop_
 _symmetry_equiv_pos_site_id
 _symmetry_equiv_pos_as_xyz
  1  'x, y, z'
loop_
 _atom_site_type_symbol
 _atom_site_label
 _atom_site_symmetry_multiplicity
 _atom_site_fract_x
 _atom_site_fract_y
 _atom_site_fract_z
 _atom_site_occupancy
  Cr  Cr0  1  0.00000000  0.00000000  0.00000000  1
  Cr  Cr1  1  0.75000000  0.75000000  0.75000000  1
  Cr  Cr2  1  0.25000000  0.25000000  0.25000000  1
  W  W0  1  0.00000000  0.00000000  0.33524300  1
  W  W1  1  0.66475700  0.00000000  0.33524300  1
  W  W2  1  0.00000000  0.66475700  0.33524300  1
  W  W3  1  0.66475700  0.33524300  0.00000000  1
  W  W4  1  0.00000000  0.33524300  0.00000000  1
  W  W5  1  0.00000000  0.33524300  0.66475700  1
  W  W6  1  0.33524300  0.66475700  0.00000000  1
  W  W7  1  0.33524300  0.00000000  0.66475700  1
  W  W8  1  0.33524300  0.00000000  0.00000000  1
  W  W9  1  0.00000000  0.00000000  0.66475700  1
  W  W10  1  0.00000000  0.66475700  0.00000000  1
  W  W11  1  0.66475700  0.00000000  0.00000000  1
  W  W12  1  0.61922400  0.61922400  0.14232900  1
  W  W13  1  0.61922400  0.14232900  0.61922400  1
  W  W14  1  0.14232900  0.61922400  0.61922400  1
  W  W15  1  0.61922400  0.61922400  0.61922400  1
  W  W16  1  0.38077600  0.38077600  0.85767100  1
  W  W17  1  0.38077600  0.85767100  0.38077600  1
  W  W18  1  0.85767100  0.38077600  0.38077600  1
  W  W19  1  0.38077600  0.38077600  0.38077600  1
  C  C0  1  0.72207400  0.72207400  0.27792600  1
  C  C1  1  0.27792600  0.72207400  0.27792600  1
  C  C2  1  0.72207400  0.27792600  0.27792600  1
  C  C3  1  0.27792600  0.27792600  0.72207400  1
  C  C4  1  0.72207400  0.27792600  0.72207400  1
  C  C5  1  0.27792600  0.72207400  0.72207400  1
loop_
_geom_bond_atom_site_label_1
_geom_bond_atom_site_label_2
_geom_bond_distance
_geom_bond_site_symmetry_2
Cr0 W10 2.749727 1_545
Cr0 W11 2.749727 1_455
Cr0 W9 2.749727 1_554
Cr0 W7 2.749727 1_554
Cr0 W3 2.749727 1_455
Cr0 W1 2.749727 1_455
Cr0 W2 2.749727 1_545
Cr0 W5 2.749727 1_554
Cr0 W6 2.749727 1_545
Cr0 W0 2.749727 1_555
Cr0 W4 2.749727 1_555
Cr0 W8 2.749727 1_555
Cr1 W15 2.627444 1_555
Cr1 W12 2.627451 1_556
Cr1 W14 2.627451 1_655
Cr1 W13 2.627451 1_565
Cr2 W19 2.627444 1_555
Cr2 W18 2.627451 1_455
Cr2 W17 2.627451 1_545
Cr2 W16 2.627451 1_554
C0 W12 2.290941 1_555
C0 W17 2.290948 1_555
C0 W18 2.290948 1_555
C0 W15 2.290948 1_555
C0 W11 2.327574 1_565
C0 W10 2.327574 1_655
C0 W2 2.327574 1_655
C0 W1 2.327574 1_565
C1 W17 2.290941 1_555
C1 W12 2.290948 1_555
C1 W14 2.290948 1_555
C1 W19 2.290948 1_555
C1 W6 2.327574 1_555
C1 W2 2.327574 1_555
C1 W0 2.327574 1_565
C1 W8 2.327574 1_565
C2 W18 2.290941 1_555
C2 W12 2.290948 1_555
C2 W13 2.290948 1_555
C2 W19 2.290948 1_555
C2 W3 2.327574 1_555
C2 W1 2.327574 1_555
C2 W4 2.327574 1_655
C2 W0 2.327574 1_655
C3 W16 2.290941 1_555
C3 W13 2.290948 1_555
C3 W14 2.290948 1_555
C3 W19 2.290948 1_555
C3 W5 2.327574 1_555
C3 W7 2.327574 1_555
C3 W4 2.327574 1_556
C3 W8 2.327574 1_556
C4 W13 2.290941 1_555
C4 W16 2.290948 1_555
C4 W18 2.290948 1_555
C4 W15 2.290948 1_555
C4 W5 2.327574 1_655
C4 W11 2.327574 1_556
C4 W9 2.327574 1_655
C4 W3 2.327574 1_556
C5 W14 2.290941 1_555
C5 W16 2.290948 1_555
C5 W17 2.290948 1_555
C5 W15 2.290948 1_555
C5 W9 2.327574 1_565
C5 W10 2.327574 1_556
C5 W7 2.327574 1_565
C5 W6 2.327574 1_556
