# generated using pymatgen
data_Ba2SmNb4FeO15
_symmetry_space_group_name_H-M   'P 1'
_cell_length_a   4.07701689
_cell_length_b   12.71338313
_cell_length_c   12.60942605
_cell_angle_alpha   90.00000000
_cell_angle_beta   90.00000000
_cell_angle_gamma   90.21421088
_symmetry_Int_Tables_number   1
_chemical_formula_structural   Ba2SmNb4FeO15
_chemical_formula_sum   'Ba4 Sm2 Nb8 Fe2 O30'
_cell_volume   653.57574864
_cell_formula_units_Z   2
loop_
 _symmetry_equiv_pos_site_id
 _symmetry_equiv_pos_as_xyz
  1  'x, y, z'
loop_
 _atom_site_type_symbol
 _atom_site_label
 _atom_site_symmetry_multiplicity
 _atom_site_fract_x
 _atom_site_fract_y
 _atom_site_fract_z
 _atom_site_occupancy
  Ba  Ba0  1  0.35574092  0.67879940  0.84111656  1
  Ba  Ba1  1  0.35564655  0.32783584  0.17684660  1
  Ba  Ba2  1  0.35564655  0.82783584  0.32315340  1
  Ba  Ba3  1  0.35574092  0.17879940  0.65888344  1
  Sm  Sm0  1  0.37350839  0.47761416  0.48813380  1
  Sm  Sm1  1  0.37350839  0.97761416  0.01186620  1
  Nb  Nb0  1  0.87149045  0.50378640  0.99975037  1
  Nb  Nb1  1  0.87149045  0.00378640  0.50024963  1
  Nb  Nb2  1  0.86972720  0.07811561  0.21393628  1
  Nb  Nb3  1  0.86718179  0.92325029  0.79056998  1
  Nb  Nb4  1  0.86718179  0.42325029  0.70943002  1
  Nb  Nb5  1  0.86972720  0.57811561  0.28606372  1
  Nb  Nb6  1  0.86352561  0.21077444  0.92833085  1
  Nb  Nb7  1  0.86352561  0.71077444  0.57166915  1
  Fe  Fe0  1  0.84256267  0.78670160  0.07664653  1
  Fe  Fe1  1  0.84256267  0.28670160  0.42335347  1
  O  O0  1  0.82178692  0.98891129  0.33882143  1
  O  O1  1  0.81786182  0.00871948  0.65822809  1
  O  O2  1  0.81786182  0.50871948  0.84177191  1
  O  O3  1  0.82178692  0.48891129  0.16117857  1
  O  O4  1  0.81557788  0.85804988  0.92856317  1
  O  O5  1  0.80448833  0.14653261  0.06978232  1
  O  O6  1  0.80448833  0.64653261  0.43021768  1
  O  O7  1  0.81557788  0.35804988  0.57143683  1
  O  O8  1  0.82809715  0.65462036  0.99561745  1
  O  O9  1  0.81691572  0.34396167  0.00458105  1
  O  O10  1  0.81691572  0.84396167  0.49541895  1
  O  O11  1  0.82809715  0.15462036  0.50438255  1
  O  O12  1  0.82956186  0.78076293  0.71822632  1
  O  O13  1  0.84308853  0.21845552  0.27754551  1
  O  O14  1  0.84308853  0.71845552  0.22245449  1
  O  O15  1  0.82956186  0.28076293  0.78177368  1
  O  O16  1  0.32150289  0.69962688  0.57612276  1
  O  O17  1  0.33439025  0.31088482  0.42510517  1
  O  O18  1  0.33439025  0.81088482  0.07489483  1
  O  O19  1  0.32150289  0.19962688  0.92387724  1
  O  O20  1  0.32787173  0.49946375  0.00202212  1
  O  O21  1  0.32787173  0.99946375  0.49797788  1
  O  O22  1  0.83661797  0.94644157  0.11848204  1
  O  O23  1  0.80939675  0.06061004  0.87259106  1
  O  O24  1  0.80939675  0.56061004  0.62740894  1
  O  O25  1  0.83661797  0.44644157  0.38151796  1
  O  O26  1  0.33458205  0.57104774  0.30414248  1
  O  O27  1  0.32917656  0.42503369  0.69870673  1
  O  O28  1  0.32917656  0.92503369  0.80129327  1
  O  O29  1  0.33458205  0.07104774  0.19585752  1
loop_
_geom_bond_atom_site_label_1
_geom_bond_atom_site_label_2
_geom_bond_distance
_geom_bond_site_symmetry_2
Ba0 O8 2.757354 1_555
Ba0 O12 2.791884 1_555
Ba0 O2 2.873286 1_555
Ba0 O8 2.917640 1_455
Ba0 O12 2.950328 1_455
Ba0 O20 3.053809 1_556
Ba0 O2 3.073941 1_455
Ba0 O4 3.145143 1_555
Ba0 O28 3.172738 1_555
Ba0 O16 3.354841 1_555
Ba0 O4 3.361039 1_455
Ba0 O18 3.393839 1_556
Ba1 O13 2.741549 1_555
Ba1 O3 2.795573 1_555
Ba1 O13 2.809124 1_455
Ba1 O9 2.879954 1_555
Ba1 O3 3.000549 1_455
Ba1 O9 3.096443 1_455
Ba1 O20 3.104063 1_555
Ba1 O17 3.138982 1_555
Ba1 O5 3.242788 1_555
Ba1 O29 3.274241 1_555
Ba2 O14 2.741549 1_555
Ba2 O0 2.795573 1_555
Ba2 O14 2.809124 1_455
Ba2 O10 2.879954 1_555
Ba2 O0 3.000549 1_455
Ba2 O10 3.096443 1_455
Ba2 O21 3.104063 1_555
Ba2 O18 3.138982 1_555
Ba2 O6 3.242788 1_555
Ba2 O26 3.274241 1_555
Ba3 O11 2.757354 1_555
Ba3 O15 2.791884 1_555
Ba3 O1 2.873286 1_555
Ba3 O11 2.917640 1_455
Ba3 O15 2.950328 1_455
Ba3 O21 3.053809 1_545
Ba3 O1 3.073941 1_455
Ba3 O7 3.145143 1_555
Ba3 O27 3.172738 1_555
Ba3 O19 3.354841 1_555
Ba3 O7 3.361039 1_455
Ba3 O17 3.393839 1_555
Nb0 O20 1.861911 1_656
Nb0 O8 1.927117 1_555
Nb0 O2 2.004988 1_555
Nb0 O9 2.044140 1_556
Nb0 O3 2.054232 1_556
Nb0 O20 2.217004 1_556
Nb1 O21 1.861911 1_645
Nb1 O11 1.927117 1_555
Nb1 O1 2.004988 1_555
Nb1 O10 2.044140 1_545
Nb1 O0 2.054232 1_545
Nb1 O21 2.217004 1_545
Nb2 O29 1.911329 1_655
Nb2 O0 1.949994 1_545
Nb2 O13 1.959572 1_555
Nb2 O5 2.032997 1_555
Nb2 O22 2.065815 1_545
Nb2 O29 2.195178 1_555
Nb3 O28 1.888459 1_655
Nb3 O4 1.938483 1_555
Nb3 O1 2.001878 1_565
Nb3 O12 2.033494 1_555
Nb3 O23 2.043971 1_565
Nb3 O28 2.197822 1_555
Nb4 O27 1.888459 1_655
Nb4 O7 1.938483 1_555
Nb4 O2 2.001878 1_555
Nb4 O15 2.033494 1_555
Nb4 O24 2.043971 1_555
Nb4 O27 2.197822 1_555
Nb5 O26 1.911329 1_655
Nb5 O3 1.949994 1_555
Nb5 O14 1.959572 1_555
Nb5 O6 2.032997 1_555
Nb5 O25 2.065815 1_555
Nb5 O26 2.195178 1_555
Nb6 O19 1.873922 1_655
Nb6 O9 1.957058 1_556
Nb6 O5 1.976062 1_556
Nb6 O23 2.045531 1_555
Nb6 O15 2.055951 1_555
Nb6 O19 2.214559 1_555
Nb7 O16 1.873922 1_655
Nb7 O10 1.957058 1_555
Nb7 O6 1.976062 1_555
Nb7 O24 2.045531 1_555
Nb7 O12 2.055951 1_555
Nb7 O16 2.214559 1_555
Fe0 O8 1.966312 1_554
Fe0 O18 2.027607 1_655
Fe0 O14 2.033002 1_555
Fe0 O4 2.079002 1_554
Fe0 O18 2.095769 1_555
Fe0 O22 2.098458 1_555
Fe1 O11 1.966312 1_555
Fe1 O17 2.027607 1_655
Fe1 O13 2.033002 1_555
Fe1 O7 2.079002 1_555
Fe1 O17 2.095769 1_555
Fe1 O25 2.098458 1_555
O4 Sm1 2.585113 1_556
O4 Sm1 2.926144 1_656
O5 Sm1 2.864335 1_545
O5 Sm1 3.250291 1_645
O6 Sm0 2.864335 1_555
O6 Sm0 3.250291 1_655
O7 Sm0 2.585113 1_555
O7 Sm0 2.926144 1_655
O16 Sm0 3.040903 1_555
O17 Sm0 2.268842 1_555
O18 Sm1 2.268842 1_555
O19 Sm1 3.040903 1_546
O22 Sm1 2.352640 1_555
O22 Sm1 2.597927 1_655
O23 Sm1 2.709553 1_546
O23 Sm1 3.083047 1_646
O24 Sm0 2.709553 1_555
O24 Sm0 3.083047 1_655
O25 Sm0 2.352640 1_555
O25 Sm0 2.597927 1_655
O26 Sm0 2.611535 1_555
O27 Sm0 2.743853 1_555
O28 Sm1 2.743853 1_556
O29 Sm1 2.611535 1_545
