# generated using pymatgen
data_BaLaFeO4
_symmetry_space_group_name_H-M   'P 1'
_cell_length_a   7.09055692
_cell_length_b   7.09055692
_cell_length_c   7.09055692
_cell_angle_alpha   147.16541532
_cell_angle_beta   147.16541532
_cell_angle_gamma   47.11892013
_symmetry_Int_Tables_number   1
_chemical_formula_structural   BaLaFeO4
_chemical_formula_sum   'Ba1 La1 Fe1 O4'
_cell_volume   104.40999603
_cell_formula_units_Z   1
loop_
 _symmetry_equiv_pos_site_id
 _symmetry_equiv_pos_as_xyz
  1  'x, y, z'
loop_
 _atom_site_type_symbol
 _atom_site_label
 _atom_site_symmetry_multiplicity
 _atom_site_fract_x
 _atom_site_fract_y
 _atom_site_fract_z
 _atom_site_occupancy
  Ba  Ba0  1  0.64521000  0.64521000  0.00000000  1
  La  La0  1  0.36150200  0.36150200  0.00000000  1
  Fe  Fe0  1  0.99875200  0.99875200  0.00000000  1
  O  O0  1  0.84055600  0.84055600  0.00000000  1
  O  O1  1  0.17553500  0.17553500  0.00000000  1
  O  O2  1  0.48922200  0.98922200  0.50000000  1
  O  O3  1  0.98922200  0.48922200  0.50000000  1
loop_
_geom_bond_atom_site_label_1
_geom_bond_atom_site_label_2
_geom_bond_distance
_geom_bond_site_symmetry_2
Ba0 O0 2.539314 1_555
Ba0 O3 2.850897 1_555
Ba0 O2 2.850897 1_555
Ba0 O2 2.850897 1_544
Ba0 O3 2.850897 1_454
Ba0 O1 2.861383 1_554
Ba0 O1 2.861383 1_666
Ba0 O1 2.861383 1_655
Ba0 O1 2.861383 1_565
La0 O1 2.417396 1_555
La0 O3 2.602394 1_555
La0 O2 2.602394 1_555
La0 O3 2.602394 1_454
La0 O2 2.602394 1_544
La0 O0 2.847149 1_455
La0 O0 2.847149 1_556
La0 O0 2.847149 1_444
La0 O0 2.847149 1_545
Fe0 O2 2.007836 1_554
Fe0 O3 2.007836 1_554
Fe0 O2 2.007836 1_655
Fe0 O3 2.007836 1_565
Fe0 O0 2.056399 1_555
Fe0 O1 2.298012 1_665
