# generated using pymatgen
data_K9Ni2O7
_symmetry_space_group_name_H-M   'P 1'
_cell_length_a   11.02154605
_cell_length_b   11.02154605
_cell_length_c   11.02154605
_cell_angle_alpha   90.00000000
_cell_angle_beta   90.00000000
_cell_angle_gamma   90.00000000
_symmetry_Int_Tables_number   1
_chemical_formula_structural   K9Ni2O7
_chemical_formula_sum   'K36 Ni8 O28'
_cell_volume   1338.83654582
_cell_formula_units_Z   4
loop_
 _symmetry_equiv_pos_site_id
 _symmetry_equiv_pos_as_xyz
  1  'x, y, z'
loop_
 _atom_site_type_symbol
 _atom_site_label
 _atom_site_symmetry_multiplicity
 _atom_site_fract_x
 _atom_site_fract_y
 _atom_site_fract_z
 _atom_site_occupancy
  O  O0  1  0.19820918  0.30179075  0.69820911  1
  O  O1  1  0.30179075  0.69820911  0.19820918  1
  O  O2  1  0.69820911  0.19820918  0.30179075  1
  O  O3  1  0.80179068  0.80179068  0.80179068  1
  O  O4  1  0.91975308  0.55720990  0.18256708  1
  O  O5  1  0.41975315  0.94278988  0.81743278  1
  O  O6  1  0.08024678  0.05720997  0.31743285  1
  O  O7  1  0.94278988  0.81743278  0.41975315  1
  O  O8  1  0.31743285  0.08024678  0.05720997  1
  O  O9  1  0.81743278  0.41975315  0.94278988  1
  O  O10  1  0.55720990  0.18256708  0.91975308  1
  O  O11  1  0.18256708  0.91975308  0.55720990  1
  O  O12  1  0.05720997  0.31743285  0.08024678  1
  O  O13  1  0.44278996  0.68256700  0.58024671  1
  O  O14  1  0.68256700  0.58024671  0.44278996  1
  O  O15  1  0.58024671  0.44278996  0.68256700  1
  O  O16  1  0.56491143  0.65824505  0.09158765  1
  O  O17  1  0.06491150  0.84175564  0.90841311  1
  O  O18  1  0.43508843  0.15824422  0.40841319  1
  O  O19  1  0.84175564  0.90841311  0.06491150  1
  O  O20  1  0.40841319  0.43508843  0.15824422  1
  O  O21  1  0.90841311  0.06491150  0.84175564  1
  O  O22  1  0.65824505  0.09158765  0.56491143  1
  O  O23  1  0.09158765  0.56491143  0.65824505  1
  O  O24  1  0.15824422  0.40841319  0.43508843  1
  O  O25  1  0.34175571  0.59158758  0.93508836  1
  O  O26  1  0.59158758  0.93508836  0.34175571  1
  O  O27  1  0.93508836  0.34175571  0.59158758  1
  K  K0  1  0.00364629  0.28965763  0.83794308  1
  K  K1  1  0.46112413  0.21751167  0.66601178  1
  K  K2  1  0.78248819  0.16601186  0.03887580  1
  K  K3  1  0.28248826  0.33398807  0.96112406  1
  K  K4  1  0.03887580  0.78248819  0.16601186  1
  K  K5  1  0.33398807  0.96112406  0.28248826  1
  K  K6  1  0.16601186  0.03887580  0.78248819  1
  K  K7  1  0.66601178  0.46112413  0.21751167  1
  K  K8  1  0.40226610  0.40226610  0.40226610  1
  K  K9  1  0.09773383  0.59773375  0.90226603  1
  K  K10  1  0.90226603  0.09773383  0.59773375  1
  K  K11  1  0.59773375  0.90226603  0.09773383  1
  K  K12  1  0.06609824  0.06609824  0.06609824  1
  K  K13  1  0.43390169  0.93390162  0.56609817  1
  K  K14  1  0.56609817  0.43390169  0.93390162  1
  K  K15  1  0.93390162  0.56609817  0.43390169  1
  K  K16  1  0.96112406  0.28248826  0.33398807  1
  K  K17  1  0.53887573  0.71751160  0.83398800  1
  K  K18  1  0.71751160  0.83398800  0.53887573  1
  K  K19  1  0.83398800  0.53887573  0.71751160  1
  K  K20  1  0.78965756  0.66205762  0.99635357  1
  K  K21  1  0.28965763  0.83794308  0.00364629  1
  K  K22  1  0.22861901  0.22861901  0.22861901  1
  K  K23  1  0.83794308  0.00364629  0.28965763  1
  K  K24  1  0.50364622  0.21034230  0.16205678  1
  K  K25  1  0.21751167  0.66601178  0.46112413  1
  K  K26  1  0.66205762  0.99635357  0.78965756  1
  K  K27  1  0.99635357  0.78965756  0.66205762  1
  K  K28  1  0.16205678  0.50364622  0.21034230  1
  K  K29  1  0.33794315  0.49635364  0.71034223  1
  K  K30  1  0.49635364  0.71034223  0.33794315  1
  K  K31  1  0.71034223  0.33794315  0.49635364  1
  K  K32  1  0.77138085  0.72861893  0.27138092  1
  K  K33  1  0.72861893  0.27138092  0.77138085  1
  K  K34  1  0.27138092  0.77138085  0.72861893  1
  K  K35  1  0.21034230  0.16205678  0.50364622  1
  Ni  Ni0  1  0.42490480  0.07509513  0.92490473  1
  Ni  Ni1  1  0.07509513  0.92490473  0.42490480  1
  Ni  Ni2  1  0.92490473  0.42490480  0.07509513  1
  Ni  Ni3  1  0.57509505  0.57509505  0.57509505  1
  Ni  Ni4  1  0.09704194  0.40295799  0.59704187  1
  Ni  Ni5  1  0.40295799  0.59704187  0.09704194  1
  Ni  Ni6  1  0.59704187  0.09704194  0.40295799  1
  Ni  Ni7  1  0.90295883  0.90295883  0.90295883  1
loop_
_geom_bond_atom_site_label_1
_geom_bond_atom_site_label_2
_geom_bond_distance
_geom_bond_site_symmetry_2
K0 O0 2.643506 1_555
K0 O21 2.690583 1_455
K0 O12 2.752114 1_556
K0 O9 2.757439 1_455
K0 O27 2.876295 1_455
K1 O22 2.808544 1_555
K1 O15 2.814588 1_555
K1 O18 2.927409 1_555
K1 O10 3.015118 1_555
K1 O0 3.063591 1_555
K2 O21 2.808543 1_554
K2 O10 2.814589 1_554
K2 O19 2.927411 1_545
K2 O9 3.015119 1_554
K2 O2 3.063591 1_555
K3 O20 2.808543 1_556
K3 O12 2.814589 1_556
K3 O25 2.927419 1_555
K3 O8 3.015119 1_556
K3 O0 3.063591 1_555
K4 O19 2.808543 1_455
K4 O4 2.814589 1_455
K4 O17 2.927411 1_554
K4 O7 3.015119 1_455
K4 O1 3.063591 1_555
K5 O18 2.808543 1_565
K5 O8 2.814589 1_565
K5 O26 2.927419 1_555
K5 O6 3.015119 1_565
K5 O1 3.063591 1_555
K6 O17 2.808543 1_545
K6 O11 2.814589 1_545
K6 O21 2.927411 1_455
K6 O5 3.015119 1_545
K6 O0 3.063591 1_555
K7 O16 2.808544 1_555
K7 O14 2.814588 1_555
K7 O20 2.927409 1_555
K7 O4 3.015118 1_555
K7 O2 3.063591 1_555
K8 O24 2.714564 1_555
K8 O18 2.714564 1_555
K8 O20 2.714564 1_555
K9 O23 2.714554 1_555
K9 O25 2.714564 1_555
K9 O17 2.714564 1_555
K10 O22 2.714554 1_555
K10 O27 2.714564 1_555
K10 O21 2.714564 1_555
K11 O16 2.714554 1_555
K11 O26 2.714564 1_555
K11 O19 2.714564 1_555
K12 O8 2.776211 1_555
K12 O12 2.776211 1_555
K12 O6 2.776211 1_555
K12 O17 3.022308 1_544
K12 O21 3.022308 1_454
K12 O19 3.022308 1_445
K13 O5 2.776211 1_555
K13 O11 2.776211 1_555
K13 O13 2.776211 1_555
K13 O18 3.022307 1_565
K13 O26 3.022312 1_555
K13 O22 3.022321 1_565
K14 O9 2.776211 1_555
K14 O10 2.776211 1_555
K14 O15 2.776211 1_555
K14 O20 3.022307 1_556
K14 O25 3.022312 1_555
K14 O16 3.022321 1_556
K15 O7 2.776211 1_555
K15 O4 2.776211 1_555
K15 O14 2.776211 1_555
K15 O24 3.022307 1_655
K15 O27 3.022312 1_555
K15 O23 3.022321 1_655
K16 O24 2.808543 1_655
K16 O6 2.814589 1_655
K16 O27 2.927419 1_555
K16 O12 3.015119 1_655
K16 O2 3.063591 1_555
K17 O25 2.808537 1_555
K17 O5 2.814588 1_555
K17 O16 2.927418 1_556
K17 O13 3.015118 1_555
K17 O3 3.063591 1_555
K18 O26 2.808537 1_555
K18 O7 2.814588 1_555
K18 O22 2.927418 1_565
K18 O14 3.015118 1_555
K18 O3 3.063591 1_555
K19 O27 2.808537 1_555
K19 O9 2.814588 1_555
K19 O23 2.927418 1_655
K19 O15 3.015118 1_555
K19 O3 3.063591 1_555
K20 O3 2.643500 1_555
K20 O16 2.690587 1_556
K20 O9 2.752122 1_555
K20 O4 2.757444 1_556
K20 O19 2.876295 1_556
K21 O1 2.643506 1_555
K21 O17 2.690583 1_554
K21 O8 2.752114 1_565
K21 O5 2.757439 1_554
K21 O25 2.876295 1_554
K22 O6 2.683543 1_555
K22 O8 2.683543 1_555
K22 O12 2.683543 1_555
K22 O20 3.115574 1_555
K22 O24 3.115574 1_555
K22 O18 3.115574 1_555
K23 O2 2.643506 1_555
K23 O19 2.690583 1_545
K23 O6 2.752114 1_655
K23 O7 2.757439 1_545
K23 O26 2.876295 1_545
K24 O2 2.643506 1_555
K24 O20 2.690582 1_555
K24 O10 2.752114 1_554
K24 O8 2.757438 1_555
K24 O18 2.876304 1_555
K25 O23 2.808544 1_555
K25 O13 2.814588 1_555
K25 O24 2.927409 1_555
K25 O11 3.015118 1_555
K25 O1 3.063591 1_555
K26 O3 2.643500 1_555
K26 O22 2.690587 1_565
K26 O5 2.752122 1_555
K26 O10 2.757444 1_565
K26 O21 2.876295 1_565
K27 O3 2.643500 1_555
K27 O23 2.690587 1_655
K27 O7 2.752122 1_555
K27 O11 2.757444 1_655
K27 O17 2.876295 1_655
K28 O1 2.643506 1_555
K28 O24 2.690582 1_555
K28 O4 2.752114 1_455
K28 O12 2.757438 1_555
K28 O20 2.876304 1_555
K29 O0 2.643506 1_555
K29 O25 2.690586 1_555
K29 O15 2.752112 1_555
K29 O13 2.757438 1_555
K29 O23 2.876292 1_555
K30 O1 2.643506 1_555
K30 O26 2.690586 1_555
K30 O13 2.752112 1_555
K30 O14 2.757438 1_555
K30 O16 2.876292 1_555
K31 O2 2.643506 1_555
K31 O27 2.690586 1_555
K31 O14 2.752112 1_555
K31 O15 2.757438 1_555
K31 O22 2.876292 1_555
K32 O4 2.683543 1_555
K32 O7 2.683543 1_555
K32 O14 2.683543 1_555
K32 O16 3.115566 1_555
K32 O26 3.115568 1_555
K32 O19 3.115574 1_555
K33 O10 2.683543 1_555
K33 O9 2.683543 1_555
K33 O15 2.683543 1_555
K33 O22 3.115566 1_555
K33 O27 3.115568 1_555
K33 O21 3.115574 1_555
K34 O11 2.683543 1_555
K34 O5 2.683543 1_555
K34 O13 2.683543 1_555
K34 O23 3.115566 1_555
K34 O25 3.115568 1_555
K34 O17 3.115574 1_555
K35 O0 2.643506 1_555
K35 O18 2.690582 1_555
K35 O11 2.752114 1_545
K35 O6 2.757438 1_555
K35 O24 2.876304 1_555
Ni0 O10 1.879534 1_555
Ni0 O8 1.879535 1_556
Ni0 O5 1.879535 1_545
Ni1 O11 1.879534 1_555
Ni1 O6 1.879535 1_565
Ni1 O7 1.879535 1_455
Ni2 O4 1.879534 1_555
Ni2 O12 1.879535 1_655
Ni2 O9 1.879535 1_554
Ni3 O14 1.879534 1_555
Ni3 O15 1.879534 1_555
Ni3 O13 1.879534 1_555
Ni4 O24 1.909128 1_555
Ni4 O27 1.909129 1_455
Ni4 O23 1.909131 1_555
Ni4 O0 1.931270 1_555
Ni5 O20 1.909128 1_555
Ni5 O25 1.909129 1_554
Ni5 O16 1.909131 1_555
Ni5 O1 1.931270 1_555
Ni6 O18 1.909128 1_555
Ni6 O26 1.909129 1_545
Ni6 O22 1.909131 1_555
Ni6 O2 1.931270 1_555
Ni7 O19 1.909123 1_556
Ni7 O17 1.909123 1_655
Ni7 O21 1.909123 1_565
Ni7 O3 1.931288 1_555
