# generated using pymatgen
data_K3Rh
_symmetry_space_group_name_H-M   'P 1'
_cell_length_a   5.80222230
_cell_length_b   5.80222230
_cell_length_c   6.27840400
_cell_angle_alpha   90.00000000
_cell_angle_beta   90.00000000
_cell_angle_gamma   120.00000345
_symmetry_Int_Tables_number   1
_chemical_formula_structural   K3Rh
_chemical_formula_sum   'K3 Rh1'
_cell_volume   183.04952354
_cell_formula_units_Z   1
loop_
 _symmetry_equiv_pos_site_id
 _symmetry_equiv_pos_as_xyz
  1  'x, y, z'
loop_
 _atom_site_type_symbol
 _atom_site_label
 _atom_site_symmetry_multiplicity
 _atom_site_fract_x
 _atom_site_fract_y
 _atom_site_fract_z
 _atom_site_occupancy
  K  K0  1  0.00000000  0.00000000  0.50000000  1
  K  K1  1  0.33333300  0.66666700  0.89288500  1
  K  K2  1  0.66666700  0.33333300  0.10711500  1
  Rh  Rh0  1  0.00000000  0.00000000  0.00000000  1
loop_
_geom_bond_atom_site_label_1
_geom_bond_atom_site_label_2
_geom_bond_distance
_geom_bond_site_symmetry_2
K0 Rh0 3.139202 1_556
K0 Rh0 3.139202 1_555
K1 Rh0 3.416750 1_566
K1 Rh0 3.416754 1_556
K1 Rh0 3.416754 1_666
K2 Rh0 3.416750 1_655
K2 Rh0 3.416754 1_555
K2 Rh0 3.416754 1_665
