# generated using pymatgen
data_MgNiSnP2O9
_symmetry_space_group_name_H-M   'P 1'
_cell_length_a   6.41811700
_cell_length_b   7.71022700
_cell_length_c   14.35121300
_cell_angle_alpha   90.00000000
_cell_angle_beta   90.00000000
_cell_angle_gamma   90.00000000
_symmetry_Int_Tables_number   1
_chemical_formula_structural   MgNiSnP2O9
_chemical_formula_sum   'Mg4 Ni4 Sn4 P8 O36'
_cell_volume   710.17176987
_cell_formula_units_Z   4
loop_
 _symmetry_equiv_pos_site_id
 _symmetry_equiv_pos_as_xyz
  1  'x, y, z'
loop_
 _atom_site_type_symbol
 _atom_site_label
 _atom_site_symmetry_multiplicity
 _atom_site_fract_x
 _atom_site_fract_y
 _atom_site_fract_z
 _atom_site_occupancy
  Mg  Mg0  1  0.75000000  0.46698900  0.30855600  1
  Mg  Mg1  1  0.75000000  0.03301100  0.80855600  1
  Mg  Mg2  1  0.25000000  0.53301100  0.69144400  1
  Mg  Mg3  1  0.25000000  0.96698900  0.19144400  1
  Ni  Ni0  1  0.50000000  0.50000000  0.50000000  1
  Ni  Ni1  1  0.50000000  0.00000000  0.00000000  1
  Ni  Ni2  1  0.00000000  0.00000000  0.00000000  1
  Ni  Ni3  1  0.00000000  0.50000000  0.50000000  1
  Sn  Sn0  1  0.75000000  0.85550300  0.38304700  1
  Sn  Sn1  1  0.25000000  0.14449700  0.61695300  1
  Sn  Sn2  1  0.25000000  0.35550300  0.11695300  1
  Sn  Sn3  1  0.75000000  0.64449700  0.88304700  1
  P  P0  1  0.25000000  0.85329600  0.42868600  1
  P  P1  1  0.75000000  0.14670400  0.57131400  1
  P  P2  1  0.75000000  0.35329600  0.07131400  1
  P  P3  1  0.25000000  0.64670400  0.92868600  1
  P  P4  1  0.75000000  0.87693000  0.19016600  1
  P  P5  1  0.25000000  0.12307000  0.80983400  1
  P  P6  1  0.25000000  0.37693000  0.30983400  1
  P  P7  1  0.75000000  0.62307000  0.69016600  1
  O  O0  1  0.04474200  0.10937300  0.86659400  1
  O  O1  1  0.54474200  0.89062700  0.13340600  1
  O  O2  1  0.95525800  0.60937300  0.63340600  1
  O  O3  1  0.45525800  0.39062700  0.36659400  1
  O  O4  1  0.95525800  0.89062700  0.13340600  1
  O  O5  1  0.45525800  0.10937300  0.86659400  1
  O  O6  1  0.04474200  0.39062700  0.36659400  1
  O  O7  1  0.54474200  0.60937300  0.63340600  1
  O  O8  1  0.25000000  0.82409000  0.97643400  1
  O  O9  1  0.75000000  0.17591000  0.02356600  1
  O  O10  1  0.75000000  0.32409000  0.52356600  1
  O  O11  1  0.25000000  0.67591000  0.47643400  1
  O  O12  1  0.75000000  0.61514900  0.43345600  1
  O  O13  1  0.25000000  0.38485100  0.56654400  1
  O  O14  1  0.25000000  0.11514900  0.06654400  1
  O  O15  1  0.75000000  0.88485100  0.93345600  1
  O  O16  1  0.75000000  0.70381500  0.24805800  1
  O  O17  1  0.25000000  0.29618500  0.75194200  1
  O  O18  1  0.25000000  0.20381500  0.25194200  1
  O  O19  1  0.75000000  0.79618500  0.74805800  1
  O  O20  1  0.43499900  0.62494100  0.86016800  1
  O  O21  1  0.93499900  0.37505900  0.13983200  1
  O  O22  1  0.56500100  0.12494100  0.63983200  1
  O  O23  1  0.06500100  0.87505900  0.36016800  1
  O  O24  1  0.56500100  0.37505900  0.13983200  1
  O  O25  1  0.06500100  0.62494100  0.86016800  1
  O  O26  1  0.43499900  0.87505900  0.36016800  1
  O  O27  1  0.93499900  0.12494100  0.63983200  1
  O  O28  1  0.75000000  0.47892100  0.76794700  1
  O  O29  1  0.25000000  0.52107900  0.23205300  1
  O  O30  1  0.25000000  0.97892100  0.73205300  1
  O  O31  1  0.75000000  0.02107900  0.26794700  1
  O  O32  1  0.75000000  0.50272300  0.00048800  1
  O  O33  1  0.25000000  0.49727700  0.99951200  1
  O  O34  1  0.25000000  0.00272300  0.49951200  1
  O  O35  1  0.75000000  0.99727700  0.50048800  1
loop_
_geom_bond_atom_site_label_1
_geom_bond_atom_site_label_2
_geom_bond_distance
_geom_bond_site_symmetry_2
Mg0 O16 2.021884 1_555
Mg0 O12 2.125534 1_555
Mg0 O3 2.149159 1_555
Mg0 O6 2.149159 1_655
Mg1 O19 2.021884 1_545
Mg1 O15 2.125534 1_545
Mg1 O5 2.149159 1_555
Mg1 O0 2.149159 1_655
Mg2 O17 2.021884 1_555
Mg2 O13 2.125534 1_555
Mg2 O2 2.149159 1_455
Mg2 O7 2.149159 1_555
Mg3 O18 2.021884 1_565
Mg3 O14 2.125534 1_565
Mg3 O4 2.149159 1_455
Mg3 O1 2.149159 1_555
Ni0 O12 2.067546 1_555
Ni0 O13 2.067546 1_555
Ni0 O3 2.111647 1_555
Ni0 O7 2.111647 1_555
Ni0 O11 2.128018 1_555
Ni0 O10 2.128018 1_555
Ni1 O14 2.067546 1_555
Ni1 O15 2.067546 1_544
Ni1 O5 2.111647 1_554
Ni1 O1 2.111647 1_545
Ni1 O9 2.128018 1_555
Ni1 O8 2.128018 1_544
Ni2 O14 2.067546 1_555
Ni2 O15 2.067546 1_444
Ni2 O4 2.111647 1_445
Ni2 O0 2.111647 1_554
Ni2 O9 2.128018 1_455
Ni2 O8 2.128018 1_544
Ni3 O12 2.067546 1_455
Ni3 O13 2.067546 1_555
Ni3 O6 2.111647 1_555
Ni3 O2 2.111647 1_455
Ni3 O10 2.128018 1_455
Ni3 O11 2.128018 1_555
O0 P5 1.552465 1_555
O1 P4 1.552465 1_555
O2 P7 1.552465 1_555
O3 P6 1.552465 1_555
O4 P4 1.552465 1_555
O5 P5 1.552465 1_555
O6 P6 1.552465 1_555
O7 P7 1.552465 1_555
O8 P3 1.529746 1_555
O9 P2 1.529746 1_555
O10 P1 1.529746 1_555
O11 P0 1.529746 1_555
O12 Sn0 1.989382 1_555
O13 Sn1 1.989382 1_555
O14 Sn2 1.989382 1_555
O15 Sn3 1.989382 1_555
O16 P4 1.572207 1_555
O16 Sn0 2.262920 1_555
O17 P5 1.572207 1_555
O17 Sn1 2.262920 1_555
O18 P6 1.572207 1_555
O18 Sn2 2.262920 1_555
O19 P7 1.572207 1_555
O19 Sn3 2.262920 1_555
O20 P3 1.550760 1_555
O20 Sn3 2.053745 1_555
O21 P2 1.550760 1_555
O21 Sn2 2.053745 1_655
O22 P1 1.550760 1_555
O22 Sn1 2.053745 1_555
O23 P0 1.550760 1_555
O23 Sn0 2.053745 1_455
O24 P2 1.550760 1_555
O24 Sn2 2.053745 1_555
O25 P3 1.550760 1_555
O25 Sn3 2.053745 1_455
O26 P0 1.550760 1_555
O26 Sn0 2.053745 1_555
O27 P1 1.550760 1_555
O27 Sn1 2.053745 1_655
O28 P7 1.575207 1_555
O28 Sn3 2.087655 1_555
O29 P6 1.575207 1_555
O29 Sn2 2.087655 1_555
O30 P5 1.575207 1_565
O30 Sn1 2.087655 1_565
O31 P4 1.575207 1_545
O31 Sn0 2.087655 1_545
O32 P2 1.536398 1_555
O32 Sn3 2.008863 1_554
O33 P3 1.536398 1_555
O33 Sn2 2.008863 1_556
O34 P0 1.536398 1_545
O34 Sn1 2.008863 1_555
O35 P1 1.536398 1_565
O35 Sn0 2.008863 1_555
