# generated using pymatgen
data_ZrFe4Si
_symmetry_space_group_name_H-M   'P 1'
_cell_length_a   4.74202637
_cell_length_b   4.74202637
_cell_length_c   4.74202637
_cell_angle_alpha   60.00000000
_cell_angle_beta   60.00000000
_cell_angle_gamma   60.00000000
_symmetry_Int_Tables_number   1
_chemical_formula_structural   ZrFe4Si
_chemical_formula_sum   'Zr1 Fe4 Si1'
_cell_volume   75.40096346
_cell_formula_units_Z   1
loop_
 _symmetry_equiv_pos_site_id
 _symmetry_equiv_pos_as_xyz
  1  'x, y, z'
loop_
 _atom_site_type_symbol
 _atom_site_label
 _atom_site_symmetry_multiplicity
 _atom_site_fract_x
 _atom_site_fract_y
 _atom_site_fract_z
 _atom_site_occupancy
  Zr  Zr0  1  0.25000000  0.25000000  0.25000000  1
  Fe  Fe0  1  0.62660800  0.62660800  0.12017700  1
  Fe  Fe1  1  0.62660800  0.12017700  0.62660800  1
  Fe  Fe2  1  0.12017700  0.62660800  0.62660800  1
  Fe  Fe3  1  0.62660800  0.62660800  0.62660800  1
  Si  Si0  1  0.00000000  0.00000000  0.00000000  1
loop_
_geom_bond_atom_site_label_1
_geom_bond_atom_site_label_2
_geom_bond_distance
_geom_bond_site_symmetry_2
Fe0 Fe3 2.340517 1_554
Fe0 Fe2 2.340517 1_654
Fe0 Fe1 2.340517 1_564
Fe0 Fe2 2.401509 1_555
Fe0 Fe3 2.401509 1_555
Fe0 Fe1 2.401509 1_555
Fe0 Si0 2.777067 1_665
Fe0 Si0 2.777071 1_655
Fe0 Si0 2.777071 1_565
Fe0 Zr0 2.783570 1_565
Fe0 Zr0 2.783570 1_655
Fe0 Zr0 2.783574 1_555
Fe1 Fe2 2.340517 1_645
Fe1 Fe3 2.340517 1_545
Fe1 Fe2 2.401509 1_555
Fe1 Fe3 2.401509 1_555
Fe1 Si0 2.777067 1_656
Fe1 Si0 2.777071 1_655
Fe1 Si0 2.777071 1_556
Fe1 Zr0 2.783570 1_556
Fe1 Zr0 2.783570 1_655
Fe1 Zr0 2.783574 1_555
Fe2 Fe3 2.340517 1_455
Fe2 Fe3 2.401509 1_555
Fe2 Si0 2.777067 1_566
Fe2 Si0 2.777071 1_565
Fe2 Si0 2.777071 1_556
Fe2 Zr0 2.783570 1_565
Fe2 Zr0 2.783570 1_556
Fe2 Zr0 2.783574 1_555
Fe3 Si0 2.777069 1_665
Fe3 Si0 2.777069 1_656
Fe3 Si0 2.777069 1_566
Fe3 Zr0 2.783572 1_655
Fe3 Zr0 2.783572 1_565
Fe3 Zr0 2.783572 1_556
Si0 Zr0 2.903886 1_545
Si0 Zr0 2.903886 1_455
Si0 Zr0 2.903886 1_555
Si0 Zr0 2.903886 1_554
