# generated using pymatgen
data_BaPb3O4
_symmetry_space_group_name_H-M   'P 1'
_cell_length_a   7.88598080
_cell_length_b   7.88598080
_cell_length_c   6.25971655
_cell_angle_alpha   90.00000000
_cell_angle_beta   90.00000000
_cell_angle_gamma   119.99999813
_symmetry_Int_Tables_number   1
_chemical_formula_structural   BaPb3O4
_chemical_formula_sum   'Ba2 Pb6 O8'
_cell_volume   337.12948599
_cell_formula_units_Z   2
loop_
 _symmetry_equiv_pos_site_id
 _symmetry_equiv_pos_as_xyz
  1  'x, y, z'
loop_
 _atom_site_type_symbol
 _atom_site_label
 _atom_site_symmetry_multiplicity
 _atom_site_fract_x
 _atom_site_fract_y
 _atom_site_fract_z
 _atom_site_occupancy
  Ba  Ba0  1  0.66666700  0.33333300  0.25000000  1
  Ba  Ba1  1  0.33333300  0.66666700  0.75000000  1
  Pb  Pb0  1  0.16651259  0.34477420  0.25000000  1
  Pb  Pb1  1  0.65522580  0.82173839  0.25000000  1
  Pb  Pb2  1  0.34477420  0.16651259  0.75000000  1
  Pb  Pb3  1  0.17826161  0.83348741  0.25000000  1
  Pb  Pb4  1  0.82173839  0.65522580  0.75000000  1
  Pb  Pb5  1  0.83348741  0.17826161  0.75000000  1
  O  O0  1  0.33333300  0.66666700  0.25000000  1
  O  O1  1  0.66666700  0.33333300  0.75000000  1
  O  O2  1  0.39346713  0.00000000  -0.00000000  1
  O  O3  1  0.00000000  0.39346713  0.00000000  1
  O  O4  1  0.39346713  0.00000000  0.50000000  1
  O  O5  1  0.60653287  0.60653287  0.00000000  1
  O  O6  1  0.00000000  0.39346713  0.50000000  1
  O  O7  1  0.60653287  0.60653287  0.50000000  1
loop_
_geom_bond_atom_site_label_1
_geom_bond_atom_site_label_2
_geom_bond_distance
_geom_bond_site_symmetry_2
Ba0 O6 2.887416 1_655
Ba0 O3 2.887416 1_655
Ba0 O2 2.887419 1_555
Ba0 O4 2.887419 1_555
Ba0 O7 2.887423 1_555
Ba0 O5 2.887423 1_555
Ba0 O1 3.129858 1_555
Ba0 O1 3.129858 1_554
Ba1 O4 2.887416 1_565
Ba1 O2 2.887416 1_566
Ba1 O6 2.887419 1_555
Ba1 O3 2.887419 1_556
Ba1 O7 2.887423 1_555
Ba1 O5 2.887423 1_556
Ba1 O0 3.129858 1_555
Ba1 O0 3.129858 1_556
O0 Pb3 2.198835 1_555
O0 Pb0 2.198842 1_555
O0 Pb1 2.198842 1_555
O1 Pb5 2.198835 1_555
O1 Pb2 2.198842 1_555
O1 Pb4 2.198842 1_555
O2 Pb2 2.196577 1_554
O2 Pb3 2.196577 1_545
O3 Pb0 2.196577 1_555
O3 Pb5 2.196577 1_454
O4 Pb2 2.196577 1_555
O4 Pb3 2.196577 1_545
O5 Pb1 2.196577 1_555
O5 Pb4 2.196577 1_554
O6 Pb0 2.196577 1_555
O6 Pb5 2.196577 1_455
O7 Pb1 2.196577 1_555
O7 Pb4 2.196577 1_555
