# generated using pymatgen
data_Mn2ZnO4
_symmetry_space_group_name_H-M   'P 1'
_cell_length_a   6.02585027
_cell_length_b   6.02585027
_cell_length_c   6.02585027
_cell_angle_alpha   118.60190591
_cell_angle_beta   118.60190591
_cell_angle_gamma   92.43912319
_symmetry_Int_Tables_number   1
_chemical_formula_structural   Mn2ZnO4
_chemical_formula_sum   'Mn4 Zn2 O8'
_cell_volume   157.83250458
_cell_formula_units_Z   2
loop_
 _symmetry_equiv_pos_site_id
 _symmetry_equiv_pos_as_xyz
  1  'x, y, z'
loop_
 _atom_site_type_symbol
 _atom_site_label
 _atom_site_symmetry_multiplicity
 _atom_site_fract_x
 _atom_site_fract_y
 _atom_site_fract_z
 _atom_site_occupancy
  Mn  Mn0  1  0.37500000  0.12500000  0.75000000  1
  Mn  Mn1  1  0.37500000  0.62500000  0.25000000  1
  Mn  Mn2  1  0.87500000  0.62500000  0.25000000  1
  Mn  Mn3  1  0.37500000  0.62500000  0.75000000  1
  Zn  Zn0  1  0.75000000  0.25000000  0.50000000  1
  Zn  Zn1  1  0.00000000  0.00000000  0.00000000  1
  O  O0  1  0.11247800  0.87271400  0.70532400  1
  O  O1  1  0.59284600  0.88752200  0.76023600  1
  O  O2  1  0.12728600  0.83261000  0.23976400  1
  O  O3  1  0.58261000  0.84284600  0.20532400  1
  O  O4  1  0.62271400  0.41739000  0.26023600  1
  O  O5  1  0.15715400  0.36247800  0.73976400  1
  O  O6  1  0.16739000  0.40715400  0.29467600  1
  O  O7  1  0.63752200  0.37728600  0.79467600  1
loop_
_geom_bond_atom_site_label_1
_geom_bond_atom_site_label_2
_geom_bond_distance
_geom_bond_site_symmetry_2
Mn0 O7 1.970222 1_555
Mn0 O0 1.970222 1_545
Mn0 O1 1.985362 1_545
Mn0 O5 1.985362 1_555
Mn0 O4 2.231825 1_556
Mn0 O2 2.231825 1_545
Mn1 O3 1.970222 1_555
Mn1 O6 1.970222 1_555
Mn1 O2 1.985362 1_555
Mn1 O4 1.985362 1_555
Mn1 O1 2.231825 1_555
Mn1 O5 2.231825 1_554
Mn2 O2 1.970222 1_655
Mn2 O4 1.970222 1_555
Mn2 O0 1.985362 1_655
Mn2 O7 1.985362 1_554
Mn2 O6 2.231825 1_655
Mn2 O3 2.231825 1_555
Mn3 O1 1.970222 1_555
Mn3 O5 1.970222 1_555
Mn3 O6 1.985362 1_555
Mn3 O3 1.985362 1_556
Mn3 O0 2.231825 1_555
Mn3 O7 2.231825 1_555
O0 Zn1 2.023176 1_566
O1 Zn1 2.023176 1_666
O2 Zn1 2.023176 1_565
O3 Zn0 2.023176 1_565
O4 Zn0 2.023176 1_555
O5 Zn0 2.023176 1_455
O6 Zn1 2.023176 1_555
O7 Zn0 2.023176 1_555
