# generated using pymatgen
data_SbH36S4N11
_symmetry_space_group_name_H-M   'P 1'
_cell_length_a   12.91658100
_cell_length_b   8.71996600
_cell_length_c   9.75689111
_cell_angle_alpha   80.14884471
_cell_angle_beta   90.00000000
_cell_angle_gamma   90.00000000
_symmetry_Int_Tables_number   1
_chemical_formula_structural   SbH36S4N11
_chemical_formula_sum   'Sb2 H72 S8 N22'
_cell_volume   1082.73632221
_cell_formula_units_Z   2
loop_
 _symmetry_equiv_pos_site_id
 _symmetry_equiv_pos_as_xyz
  1  'x, y, z'
loop_
 _atom_site_type_symbol
 _atom_site_label
 _atom_site_symmetry_multiplicity
 _atom_site_fract_x
 _atom_site_fract_y
 _atom_site_fract_z
 _atom_site_occupancy
  Sb  Sb0  1  0.87233300  0.28370800  0.32256400  1
  Sb  Sb1  1  0.37233300  0.71629200  0.67743600  1
  H  H0  1  0.90994600  0.86646300  0.85426200  1
  H  H1  1  0.40994600  0.13353700  0.14573800  1
  H  H2  1  0.89549900  0.77999800  0.01623300  1
  H  H3  1  0.39549900  0.22000200  0.98376700  1
  H  H4  1  0.80023200  0.78267500  0.90593100  1
  H  H5  1  0.30023200  0.21732500  0.09406900  1
  H  H6  1  0.84291300  0.65116500  0.60267300  1
  H  H7  1  0.34291300  0.34883500  0.39732700  1
  H  H8  1  0.75275000  0.56064000  0.71948600  1
  H  H9  1  0.25275000  0.43936000  0.28051400  1
  H  H10  1  0.72593500  0.57505100  0.54580200  1
  H  H11  1  0.22593500  0.42494900  0.45419800  1
  H  H12  1  0.82282100  0.45497100  0.61783300  1
  H  H13  1  0.32282100  0.54502900  0.38216700  1
  H  H14  1  0.71726200  0.85300600  0.21014900  1
  H  H15  1  0.21726200  0.14699400  0.78985100  1
  H  H16  1  0.75133300  0.85000600  0.37900800  1
  H  H17  1  0.25133300  0.14999400  0.62099200  1
  H  H18  1  0.81672600  0.73057800  0.27957200  1
  H  H19  1  0.31672600  0.26942200  0.72042800  1
  H  H20  1  0.83595300  0.92555000  0.24981900  1
  H  H21  1  0.33595300  0.07445000  0.75018100  1
  H  H22  1  0.09405000  0.88741000  0.26880800  1
  H  H23  1  0.59405000  0.11259000  0.73119200  1
  H  H24  1  0.09085900  0.69659200  0.28082900  1
  H  H25  1  0.59085900  0.30340800  0.71917100  1
  H  H26  1  0.18774600  0.78123000  0.35335400  1
  H  H27  1  0.68774600  0.21877000  0.64664600  1
  H  H28  1  0.01815700  0.77536400  0.62724000  1
  H  H29  1  0.51815700  0.22463600  0.37276000  1
  H  H30  1  0.97267900  0.78363400  0.47072800  1
  H  H31  1  0.47267900  0.21636600  0.52927200  1
  H  H32  1  0.93717600  0.91519800  0.56175200  1
  H  H33  1  0.43717600  0.08480200  0.43824800  1
  H  H34  1  0.56016200  0.51265800  0.51037800  1
  H  H35  1  0.06016200  0.48734200  0.48962200  1
  H  H36  1  0.58514000  0.65709200  0.38693800  1
  H  H37  1  0.08514000  0.34290800  0.61306200  1
  H  H38  1  0.63281300  0.48148700  0.37615300  1
  H  H39  1  0.13281300  0.51851300  0.62384700  1
  H  H40  1  0.62824200  0.88003100  0.57803300  1
  H  H41  1  0.12824200  0.11996900  0.42196700  1
  H  H42  1  0.67709700  0.02946800  0.47160200  1
  H  H43  1  0.17709700  0.97053200  0.52839800  1
  H  H44  1  0.74858000  0.93747100  0.59564600  1
  H  H45  1  0.24858000  0.06252900  0.40435400  1
  H  H46  1  0.85384900  0.25702200  0.91476300  1
  H  H47  1  0.35384900  0.74297800  0.08523700  1
  H  H48  1  0.82216700  0.06022100  0.95033600  1
  H  H49  1  0.32216700  0.93977900  0.04966400  1
  H  H50  1  0.73384100  0.19159000  0.86618800  1
  H  H51  1  0.23384100  0.80841000  0.13381200  1
  H  H52  1  0.76606300  0.19288000  0.03783500  1
  H  H53  1  0.26606300  0.80712000  0.96216500  1
  H  H54  1  0.95488600  0.45190400  0.99357900  1
  H  H55  1  0.45488600  0.54809600  0.00642100  1
  H  H56  1  0.88415000  0.53013500  0.86250200  1
  H  H57  1  0.38415000  0.46986500  0.13749800  1
  H  H58  1  0.00015800  0.46652800  0.83405900  1
  H  H59  1  0.50015800  0.53347200  0.16594100  1
  H  H60  1  0.59711900  0.02658900  0.13720100  1
  H  H61  1  0.09711900  0.97341100  0.86279900  1
  H  H62  1  0.53061400  0.87074100  0.20397500  1
  H  H63  1  0.03061400  0.12925900  0.79602500  1
  H  H64  1  0.55935200  0.90091300  0.03703600  1
  H  H65  1  0.05935200  0.09908700  0.96296400  1
  H  H66  1  0.10940700  0.49128200  0.14500600  1
  H  H67  1  0.60940700  0.50871800  0.85499400  1
  H  H68  1  0.14077000  0.33020700  0.09721600  1
  H  H69  1  0.64077000  0.66979300  0.90278400  1
  H  H70  1  0.18994800  0.49500000  0.01332700  1
  H  H71  1  0.68994800  0.50500000  0.98667300  1
  S  S0  1  0.88149300  0.21260000  0.56729600  1
  S  S1  1  0.38149300  0.78740000  0.43270400  1
  S  S2  1  0.93558800  0.54100300  0.25405700  1
  S  S3  1  0.43558800  0.45899700  0.74594300  1
  S  S4  1  0.97329100  0.10986800  0.21784100  1
  S  S5  1  0.47329100  0.89013200  0.78215900  1
  S  S6  1  0.69925100  0.27561800  0.23987200  1
  S  S7  1  0.19925100  0.72438200  0.76012800  1
  N  N0  1  0.85865700  0.84935800  0.93517000  1
  N  N1  1  0.35865700  0.15064200  0.06483000  1
  N  N2  1  0.78705000  0.56141300  0.62188000  1
  N  N3  1  0.28705000  0.43858700  0.37812000  1
  N  N4  1  0.78090000  0.83809700  0.27897000  1
  N  N5  1  0.28090000  0.16190300  0.72103000  1
  N  N6  1  0.13971900  0.79095000  0.26834300  1
  N  N7  1  0.63971900  0.20905000  0.73165700  1
  N  N8  1  0.95181900  0.79775400  0.56912300  1
  N  N9  1  0.45181900  0.20224600  0.43087700  1
  N  N10  1  0.61746400  0.55862500  0.44256200  1
  N  N11  1  0.11746400  0.44137500  0.55743800  1
  N  N12  1  0.69384600  0.91986000  0.52417700  1
  N  N13  1  0.19384600  0.08014000  0.47582300  1
  N  N14  1  0.79437100  0.17471300  0.94208300  1
  N  N15  1  0.29437100  0.82528700  0.05791700  1
  N  N16  1  0.93517500  0.44164300  0.89358300  1
  N  N17  1  0.43517500  0.55835700  0.10641700  1
  N  N18  1  0.58757700  0.91052800  0.13358300  1
  N  N19  1  0.08757700  0.08947200  0.86641700  1
  N  N20  1  0.17190900  0.43487900  0.11052300  1
  N  N21  1  0.67190900  0.56512100  0.88947700  1
loop_
_geom_bond_atom_site_label_1
_geom_bond_atom_site_label_2
_geom_bond_distance
_geom_bond_site_symmetry_2
H0 N0 1.021765 1_555
H1 N1 1.021765 1_555
H2 N0 1.026709 1_554
H3 N1 1.026709 1_556
H4 N0 1.022623 1_555
H5 N1 1.022623 1_555
H6 N2 1.057401 1_555
H7 N3 1.057401 1_555
H8 N2 1.049317 1_555
H9 N3 1.049317 1_555
H10 N2 1.076137 1_555
H11 N3 1.076137 1_555
H12 N2 1.043590 1_555
H13 N3 1.043590 1_555
H14 N4 1.055260 1_555
H15 N5 1.055260 1_555
H16 N4 1.069585 1_555
H17 N5 1.069585 1_555
H18 N4 1.044658 1_555
H19 N5 1.044658 1_555
H20 N4 1.045885 1_555
H21 N5 1.045885 1_555
H22 N6 1.028003 1_555
H23 N7 1.028003 1_555
H24 N6 1.027537 1_555
H25 N7 1.027537 1_555
H26 N6 1.027585 1_555
H27 N7 1.027585 1_555
H28 N8 1.027610 1_455
H29 N9 1.027610 1_555
H30 N8 1.024627 1_555
H31 N9 1.024627 1_555
H32 N8 1.031765 1_555
H33 N9 1.031765 1_555
H34 N10 1.027395 1_555
H35 N11 1.027395 1_555
H36 N10 1.023060 1_555
H37 N11 1.023060 1_555
H38 N10 1.029911 1_555
H39 N11 1.029911 1_555
H40 N12 1.025838 1_555
H41 N13 1.025838 1_555
H42 N12 1.027466 1_545
H43 N13 1.027466 1_565
H44 N12 1.022883 1_555
H45 N13 1.022883 1_555
H46 N14 1.054011 1_555
H47 N15 1.054011 1_555
H48 N14 1.051006 1_555
H49 N15 1.051006 1_555
H50 N14 1.069571 1_555
H51 N15 1.069571 1_555
H52 N14 1.040308 1_554
H53 N15 1.040308 1_556
H54 N16 1.026933 1_555
H55 N17 1.026933 1_555
H56 N16 1.020638 1_555
H57 N17 1.020638 1_555
H58 N16 1.022634 1_455
H59 N17 1.022634 1_555
H60 N18 1.026110 1_545
H61 N19 1.026110 1_565
H62 N18 1.025617 1_555
H63 N19 1.025617 1_555
H64 N18 1.026805 1_555
H65 N19 1.026805 1_555
H66 N20 1.031247 1_555
H67 N21 1.031247 1_555
H68 N20 1.025801 1_555
H69 N21 1.025801 1_555
H70 N20 1.028758 1_555
H71 N21 1.028758 1_555
S0 Sb0 2.365068 1_555
S1 Sb1 2.365068 1_555
S2 Sb0 2.373802 1_555
S3 Sb1 2.373802 1_555
S4 Sb0 2.360593 1_555
S5 Sb1 2.360593 1_555
S6 Sb0 2.381898 1_555
S7 Sb1 2.381898 1_555
