# generated using pymatgen
data_Hf2CoRu
_symmetry_space_group_name_H-M   'P 1'
_cell_length_a   10.52106354
_cell_length_b   10.52106354
_cell_length_c   10.52106354
_cell_angle_alpha   130.01136337
_cell_angle_beta   116.88739637
_cell_angle_gamma   84.53843220
_symmetry_Int_Tables_number   1
_chemical_formula_structural   Hf2CoRu
_chemical_formula_sum   'Hf2 Co1 Ru1'
_cell_volume   762.25963823
_cell_formula_units_Z   1
loop_
 _symmetry_equiv_pos_site_id
 _symmetry_equiv_pos_as_xyz
  1  'x, y, z'
loop_
 _atom_site_type_symbol
 _atom_site_label
 _atom_site_symmetry_multiplicity
 _atom_site_fract_x
 _atom_site_fract_y
 _atom_site_fract_z
 _atom_site_occupancy
  Hf  Hf0  1  0.00000000  0.24738100  0.24738100  1
  Hf  Hf1  1  0.00000000  0.75261900  0.75261900  1
  Co  Co0  1  0.00000000  0.00000000  0.00000000  1
  Ru  Ru0  1  0.00000000  0.50000000  0.50000000  1
loop_
_geom_bond_atom_site_label_1
_geom_bond_atom_site_label_2
_geom_bond_distance
_geom_bond_site_symmetry_2
Hf0 Ru0 2.246009 1_555
Hf1 Ru0 2.246009 1_555
Co0 Hf0 2.199439 1_555
Co0 Hf1 2.199439 1_544
