# generated using pymatgen
data_Ca2NiSbO6
_symmetry_space_group_name_H-M   'P 1'
_cell_length_a   5.52848271
_cell_length_b   5.62289240
_cell_length_c   7.71394800
_cell_angle_alpha   90.00000000
_cell_angle_beta   90.00000000
_cell_angle_gamma   92.60023179
_symmetry_Int_Tables_number   1
_chemical_formula_structural   Ca2NiSbO6
_chemical_formula_sum   'Ca4 Ni2 Sb2 O12'
_cell_volume   239.54937904
_cell_formula_units_Z   2
loop_
 _symmetry_equiv_pos_site_id
 _symmetry_equiv_pos_as_xyz
  1  'x, y, z'
loop_
 _atom_site_type_symbol
 _atom_site_label
 _atom_site_symmetry_multiplicity
 _atom_site_fract_x
 _atom_site_fract_y
 _atom_site_fract_z
 _atom_site_occupancy
  Ca  Ca0  1  0.52054700  0.56355600  0.75000000  1
  Ca  Ca1  1  0.47945300  0.43644400  0.25000000  1
  Ca  Ca2  1  0.00222800  0.03950300  0.75000000  1
  Ca  Ca3  1  0.99777200  0.96049700  0.25000000  1
  Ni  Ni0  1  0.50000000  0.00000000  0.50000000  1
  Ni  Ni1  1  0.50000000  0.00000000  0.00000000  1
  Sb  Sb0  1  0.00000000  0.50000000  0.50000000  1
  Sb  Sb1  1  0.00000000  0.50000000  0.00000000  1
  O  O0  1  0.30182400  0.70029500  0.45250700  1
  O  O1  1  0.18592900  0.21559500  0.05021800  1
  O  O2  1  0.69817600  0.29970500  0.95250700  1
  O  O3  1  0.81407100  0.78440500  0.55021800  1
  O  O4  1  0.18592900  0.21559500  0.44978200  1
  O  O5  1  0.81407100  0.78440500  0.94978200  1
  O  O6  1  0.89685000  0.53850000  0.25000000  1
  O  O7  1  0.30182400  0.70029500  0.04749300  1
  O  O8  1  0.41494000  0.96339400  0.75000000  1
  O  O9  1  0.69817600  0.29970500  0.54749300  1
  O  O10  1  0.10315000  0.46150000  0.75000000  1
  O  O11  1  0.58506000  0.03660600  0.25000000  1
loop_
_geom_bond_atom_site_label_1
_geom_bond_atom_site_label_2
_geom_bond_distance
_geom_bond_site_symmetry_2
Ca0 O8 2.348316 1_555
Ca0 O10 2.352455 1_555
Ca0 O2 2.395388 1_555
Ca0 O9 2.395388 1_555
Ca0 O5 2.523402 1_555
Ca0 O3 2.523402 1_555
Ca0 O0 2.721031 1_555
Ca0 O7 2.721031 1_556
Ca1 O11 2.348316 1_555
Ca1 O6 2.352455 1_555
Ca1 O0 2.395388 1_555
Ca1 O7 2.395388 1_555
Ca1 O1 2.523402 1_555
Ca1 O4 2.523402 1_555
Ca1 O9 2.721031 1_555
Ca1 O2 2.721031 1_554
Ca2 O5 2.319303 1_445
Ca2 O3 2.319303 1_445
Ca2 O8 2.340462 1_545
Ca2 O10 2.412792 1_555
Ca2 O4 2.698852 1_555
Ca2 O1 2.698852 1_556
Ca2 O9 2.762173 1_455
Ca2 O2 2.762173 1_455
Ca3 O1 2.319303 1_665
Ca3 O4 2.319303 1_665
Ca3 O11 2.340462 1_565
Ca3 O6 2.412792 1_555
Ca3 O5 2.698852 1_554
Ca3 O3 2.698852 1_555
Ca3 O7 2.762173 1_655
Ca3 O0 2.762173 1_655
Ni0 O11 1.993435 1_555
Ni0 O8 1.993435 1_545
Ni0 O0 2.001747 1_545
Ni0 O9 2.001747 1_555
Ni0 O4 2.196703 1_555
Ni0 O3 2.196703 1_545
Ni1 O11 1.993435 1_555
Ni1 O8 1.993435 1_544
Ni1 O2 2.001747 1_554
Ni1 O7 2.001747 1_545
Ni1 O5 2.196703 1_544
Ni1 O1 2.196703 1_555
O0 Sb0 2.004105 1_555
O1 Sb1 1.978174 1_555
O2 Sb1 2.004105 1_656
O3 Sb0 1.978174 1_655
O4 Sb0 1.978174 1_555
O5 Sb1 1.978174 1_656
O6 Sb1 2.025420 1_655
O6 Sb0 2.025420 1_655
O7 Sb1 2.004105 1_555
O9 Sb0 2.004105 1_655
O10 Sb0 2.025420 1_555
O10 Sb1 2.025420 1_556
