# generated using pymatgen
data_Li2V18O39
_symmetry_space_group_name_H-M   'P 1'
_cell_length_a   11.28158220
_cell_length_b   11.28158220
_cell_length_c   17.47936126
_cell_angle_alpha   75.26557636
_cell_angle_beta   75.26557636
_cell_angle_gamma   19.12269736
_symmetry_Int_Tables_number   1
_chemical_formula_structural   Li2V18O39
_chemical_formula_sum   'Li2 V18 O39'
_cell_volume   704.12664731
_cell_formula_units_Z   1
loop_
 _symmetry_equiv_pos_site_id
 _symmetry_equiv_pos_as_xyz
  1  'x, y, z'
loop_
 _atom_site_type_symbol
 _atom_site_label
 _atom_site_symmetry_multiplicity
 _atom_site_fract_x
 _atom_site_fract_y
 _atom_site_fract_z
 _atom_site_occupancy
  Li  Li0  1  0.73993400  0.73993400  0.65956900  1
  Li  Li1  1  0.26006600  0.26006600  0.34043100  1
  V  V0  1  0.11879800  0.11879800  0.76258600  1
  V  V1  1  0.88120200  0.88120200  0.23741400  1
  V  V2  1  0.44804500  0.44804500  0.09874600  1
  V  V3  1  0.55195500  0.55195500  0.90125400  1
  V  V4  1  0.79809200  0.79809200  0.44895600  1
  V  V5  1  0.20190800  0.20190800  0.55104400  1
  V  V6  1  0.25933000  0.25933000  0.84824000  1
  V  V7  1  0.74067000  0.74067000  0.15176000  1
  V  V8  1  0.58899700  0.58899700  0.17540600  1
  V  V9  1  0.41100300  0.41100300  0.82459400  1
  V  V10  1  0.93433800  0.93433800  0.52750900  1
  V  V11  1  0.06566200  0.06566200  0.47249100  1
  V  V12  1  0.36125900  0.36125900  0.65493500  1
  V  V13  1  0.63874100  0.63874100  0.34506500  1
  V  V14  1  0.69158900  0.69158900  0.97805200  1
  V  V15  1  0.30841100  0.30841100  0.02194800  1
  V  V16  1  0.02261900  0.02261900  0.30894500  1
  V  V17  1  0.97738100  0.97738100  0.69105500  1
  O  O0  1  0.39083200  0.39083200  0.21155700  1
  O  O1  1  0.60916800  0.60916800  0.78844300  1
  O  O2  1  0.06457000  0.06457000  0.87547700  1
  O  O3  1  0.93543000  0.93543000  0.12452300  1
  O  O4  1  0.72956200  0.72956200  0.54880500  1
  O  O5  1  0.27043800  0.27043800  0.45119500  1
  O  O6  1  0.42149600  0.42149600  0.54595800  1
  O  O7  1  0.57850400  0.57850400  0.45404200  1
  O  O8  1  0.08425100  0.08425100  0.20451200  1
  O  O9  1  0.91574900  0.91574900  0.79548800  1
  O  O10  1  0.75619600  0.75619600  0.87431100  1
  O  O11  1  0.24380400  0.24380400  0.12568900  1
  O  O12  1  0.55057600  0.55057600  0.29765200  1
  O  O13  1  0.44942400  0.44942400  0.70234800  1
  O  O14  1  0.22101300  0.22101300  0.96700200  1
  O  O15  1  0.77898700  0.77898700  0.03299800  1
  O  O16  1  0.88776700  0.88776700  0.64560000  1
  O  O17  1  0.11223300  0.11223300  0.35440000  1
  O  O18  1  0.50000000  0.50000000  0.00000000  1
  O  O19  1  0.83038900  0.83038900  0.33353600  1
  O  O20  1  0.16961100  0.16961100  0.66646400  1
  O  O21  1  0.52602800  0.52602800  0.13953400  1
  O  O22  1  0.47397200  0.47397200  0.86046600  1
  O  O23  1  0.20084600  0.20084600  0.80311200  1
  O  O24  1  0.79915400  0.79915400  0.19688800  1
  O  O25  1  0.86332400  0.86332400  0.48023900  1
  O  O26  1  0.13667600  0.13667600  0.51976100  1
  O  O27  1  0.62594600  0.62594600  0.94665100  1
  O  O28  1  0.37405400  0.37405400  0.05334900  1
  O  O29  1  0.29188000  0.29188000  0.63202600  1
  O  O30  1  0.70812000  0.70812000  0.36797400  1
  O  O31  1  0.95400300  0.95400300  0.28275200  1
  O  O32  1  0.04599700  0.04599700  0.71724800  1
  O  O33  1  0.65417000  0.65417000  0.09265500  1
  O  O34  1  0.34583000  0.34583000  0.90734500  1
  O  O35  1  0.32764400  0.32764400  0.76986000  1
  O  O36  1  0.67235600  0.67235600  0.23014000  1
  O  O37  1  0.00626400  0.00626400  0.57162800  1
  O  O38  1  0.99373600  0.99373600  0.42837200  1
loop_
_geom_bond_atom_site_label_1
_geom_bond_atom_site_label_2
_geom_bond_distance
_geom_bond_site_symmetry_2
Li0 O4 2.008023 1_555
Li0 O29 2.189092 1_655
Li0 O29 2.189092 1_565
Li0 O20 2.424248 1_565
Li0 O20 2.424248 1_655
Li1 O5 2.008023 1_555
Li1 O30 2.189092 1_545
Li1 O30 2.189092 1_455
Li1 O19 2.424248 1_545
Li1 O19 2.424248 1_455
O0 V1 1.926595 1_545
O0 V1 1.926595 1_455
O0 V2 2.052772 1_555
O1 V0 1.926595 1_655
O1 V0 1.926595 1_565
O1 V3 2.052772 1_555
O2 V3 1.930828 1_545
O2 V3 1.930828 1_455
O2 V0 2.030122 1_555
O3 V2 1.930828 1_565
O3 V2 1.930828 1_655
O3 V1 2.030122 1_555
O4 V5 1.969578 1_655
O4 V5 1.969578 1_565
O4 V4 1.999560 1_555
O5 V4 1.969578 1_455
O5 V4 1.969578 1_545
O5 V5 1.999560 1_555
O6 V10 1.910404 1_455
O6 V10 1.910404 1_545
O6 V12 2.026769 1_555
O7 V11 1.910404 1_655
O7 V11 1.910404 1_565
O7 V13 2.026769 1_555
O8 V8 1.937476 1_455
O8 V8 1.937476 1_545
O8 V16 1.980242 1_555
O9 V9 1.937476 1_565
O9 V9 1.937476 1_655
O9 V17 1.980242 1_555
O10 V6 1.925534 1_655
O10 V6 1.925534 1_565
O10 V14 2.002475 1_555
O11 V7 1.925534 1_545
O11 V7 1.925534 1_455
O11 V15 2.002475 1_555
O12 V16 1.968272 1_655
O12 V16 1.968272 1_565
O12 V8 2.086709 1_555
O12 V13 2.318081 1_555
O13 V17 1.968272 1_455
O13 V17 1.968272 1_545
O13 V9 2.086709 1_555
O13 V12 2.318081 1_555
O14 V14 1.977933 1_545
O14 V14 1.977933 1_455
O14 V6 2.030565 1_555
O14 V15 2.380589 1_556
O15 V15 1.977933 1_655
O15 V15 1.977933 1_565
O15 V7 2.030565 1_555
O15 V14 2.380589 1_554
O16 V12 1.958669 1_655
O16 V12 1.958669 1_565
O16 V10 2.056967 1_555
O16 V17 2.328959 1_555
O17 V13 1.958669 1_545
O17 V13 1.958669 1_455
O17 V11 2.056967 1_555
O17 V16 2.328959 1_555
O18 V3 1.812787 1_554
O18 V2 1.812787 1_555
O19 V1 1.766704 1_555
O19 V4 1.959264 1_555
O20 V0 1.766704 1_555
O20 V5 1.959264 1_555
O21 V8 1.676077 1_555
O21 V2 2.038869 1_555
O22 V9 1.676077 1_555
O22 V3 2.038869 1_555
O23 V6 1.686701 1_555
O23 V0 2.121667 1_555
O24 V7 1.686701 1_555
O24 V1 2.121667 1_555
O25 V4 1.677776 1_555
O25 V10 1.962819 1_555
O26 V5 1.677776 1_555
O26 V11 1.962819 1_555
O27 V14 1.687588 1_555
O27 V3 2.003438 1_555
O28 V15 1.687588 1_555
O28 V2 2.003438 1_555
O29 V12 1.691776 1_555
O30 V13 1.691776 1_555
O31 V16 1.703217 1_665
O31 V1 1.978371 1_555
O32 V17 1.703217 1_445
O32 V0 1.978371 1_555
O33 V8 1.764356 1_555
O33 V14 1.961022 1_554
O33 V7 2.407716 1_555
O34 V9 1.764356 1_555
O34 V15 1.961022 1_556
O34 V6 2.407716 1_555
O35 V6 1.764396 1_555
O35 V12 1.954407 1_555
O35 V9 2.295779 1_555
O36 V7 1.764396 1_555
O36 V13 1.954407 1_555
O36 V8 2.295779 1_555
O37 V11 1.888923 1_555
O37 V10 1.947407 1_445
O37 V17 2.019570 1_445
O38 V10 1.888923 1_555
O38 V11 1.947407 1_665
O38 V16 2.019570 1_665
