# generated using pymatgen
data_FeSb3Pb4O13
_symmetry_space_group_name_H-M   'P 1'
_cell_length_a   10.64195851
_cell_length_b   12.95997838
_cell_length_c   10.64195851
_cell_angle_alpha   113.71927344
_cell_angle_beta   89.61404698
_cell_angle_gamma   66.28070723
_symmetry_Int_Tables_number   1
_chemical_formula_structural   FeSb3Pb4O13
_chemical_formula_sum   'Fe4 Sb12 Pb16 O52'
_cell_volume   1205.11166652
_cell_formula_units_Z   4
loop_
 _symmetry_equiv_pos_site_id
 _symmetry_equiv_pos_as_xyz
  1  'x, y, z'
loop_
 _atom_site_type_symbol
 _atom_site_label
 _atom_site_symmetry_multiplicity
 _atom_site_fract_x
 _atom_site_fract_y
 _atom_site_fract_z
 _atom_site_occupancy
  Fe  Fe0  1  0.74961500  0.99920200  0.75046600  1
  Fe  Fe1  1  0.99953600  0.49919400  0.00038500  1
  Fe  Fe2  1  0.24962100  0.99919200  0.25046000  1
  Fe  Fe3  1  0.49953400  0.49920700  0.50037500  1
  Sb  Sb0  1  0.37451800  0.75026200  0.37486500  1
  Sb  Sb1  1  0.87451800  0.75026200  0.87486600  1
  Sb  Sb2  1  0.12452000  0.25025800  0.12486600  1
  Sb  Sb3  1  0.62451800  0.25026400  0.62486400  1
  Sb  Sb4  1  0.12513600  0.75026400  0.12548200  1
  Sb  Sb5  1  0.62513400  0.75025900  0.62548100  1
  Sb  Sb6  1  0.87513400  0.25026100  0.87548200  1
  Sb  Sb7  1  0.37513500  0.25026200  0.37548200  1
  Sb  Sb8  1  0.00041400  0.99965600  0.49958600  1
  Sb  Sb9  1  0.50040900  0.99965500  0.99959100  1
  Sb  Sb10  1  0.75040900  0.49965400  0.24959100  1
  Sb  Sb11  1  0.25041400  0.49965600  0.74958600  1
  Pb  Pb0  1  0.24931900  0.99855100  0.75068200  1
  Pb  Pb1  1  0.74932000  0.99854700  0.25068000  1
  Pb  Pb2  1  0.99931900  0.49854900  0.50068000  1
  Pb  Pb3  1  0.49931900  0.49854900  0.00068100  1
  Pb  Pb4  1  0.37318200  0.75148900  0.87425100  1
  Pb  Pb5  1  0.87318300  0.75148900  0.37425100  1
  Pb  Pb6  1  0.12318500  0.25148600  0.62424900  1
  Pb  Pb7  1  0.62318200  0.25149000  0.12425500  1
  Pb  Pb8  1  0.12575100  0.75148500  0.62681500  1
  Pb  Pb9  1  0.62574500  0.75149000  0.12681700  1
  Pb  Pb10  1  0.87574900  0.25148900  0.37681800  1
  Pb  Pb11  1  0.37575000  0.25148800  0.87681800  1
  Pb  Pb12  1  0.00203900  0.99892700  0.99797100  1
  Pb  Pb13  1  0.50203400  0.99892600  0.49796500  1
  Pb  Pb14  1  0.75203100  0.49892700  0.74796300  1
  Pb  Pb15  1  0.25203500  0.49892700  0.24796600  1
  O  O0  1  0.56209800  0.62420200  0.93790200  1
  O  O1  1  0.06209900  0.62420200  0.43790100  1
  O  O2  1  0.31209800  0.12420300  0.68790300  1
  O  O3  1  0.81209800  0.12420300  0.18790300  1
  O  O4  1  0.36318200  0.62775400  0.43611900  1
  O  O5  1  0.86317200  0.62775800  0.93611800  1
  O  O6  1  0.11317200  0.12776100  0.18610900  1
  O  O7  1  0.61316300  0.12776400  0.68610600  1
  O  O8  1  0.56389100  0.62776200  0.63682800  1
  O  O9  1  0.06389300  0.62776400  0.13683700  1
  O  O10  1  0.31388100  0.12775300  0.38681800  1
  O  O11  1  0.81388200  0.12775800  0.88682800  1
  O  O12  1  0.66422600  0.42706100  0.33576700  1
  O  O13  1  0.16423300  0.42705300  0.83575900  1
  O  O14  1  0.41423300  0.92706000  0.08577400  1
  O  O15  1  0.91424100  0.92705300  0.58576600  1
  O  O16  1  0.01092300  0.12411100  0.68794400  1
  O  O17  1  0.51092300  0.12411100  0.18794500  1
  O  O18  1  0.76092400  0.62410700  0.43794600  1
  O  O19  1  0.26092500  0.62410700  0.93794600  1
  O  O20  1  0.56205600  0.62411100  0.23907700  1
  O  O21  1  0.06205600  0.62411100  0.73907700  1
  O  O22  1  0.31205400  0.12410700  0.98907600  1
  O  O23  1  0.81205400  0.12410700  0.48907500  1
  O  O24  1  0.46262200  0.82297300  0.53738000  1
  O  O25  1  0.96262100  0.82297400  0.03738100  1
  O  O26  1  0.21261900  0.32297300  0.28737900  1
  O  O27  1  0.71261900  0.32297400  0.78737900  1
  O  O28  1  0.38421900  0.87265700  0.31366700  1
  O  O29  1  0.88422900  0.87265300  0.81366800  1
  O  O30  1  0.13423700  0.37264700  0.06368000  1
  O  O31  1  0.63422700  0.37265000  0.56367800  1
  O  O32  1  0.18632200  0.87265000  0.11577200  1
  O  O33  1  0.68632000  0.87264700  0.61576400  1
  O  O34  1  0.93633300  0.37265300  0.86577000  1
  O  O35  1  0.43633400  0.37265700  0.36578100  1
  O  O36  1  0.08736600  0.07055800  0.41263700  1
  O  O37  1  0.58735800  0.07056600  0.91264500  1
  O  O38  1  0.83735400  0.57056600  0.16264100  1
  O  O39  1  0.33736300  0.57055800  0.66263400  1
  O  O40  1  0.74112500  0.37608600  0.06196600  1
  O  O41  1  0.24112600  0.37608600  0.56196400  1
  O  O42  1  0.49112200  0.87609000  0.81196600  1
  O  O43  1  0.99112400  0.87608900  0.31196500  1
  O  O44  1  0.18803500  0.87608600  0.50887400  1
  O  O45  1  0.68803400  0.87608600  0.00887500  1
  O  O46  1  0.93803500  0.37609000  0.25887800  1
  O  O47  1  0.43803400  0.37609000  0.75887600  1
  O  O48  1  0.28650400  0.67916400  0.21349500  1
  O  O49  1  0.78650400  0.67916200  0.71349400  1
  O  O50  1  0.03650600  0.17916300  0.96349600  1
  O  O51  1  0.53650600  0.17916300  0.46349600  1
loop_
_geom_bond_atom_site_label_1
_geom_bond_atom_site_label_2
_geom_bond_distance
_geom_bond_site_symmetry_2
Fe0 O29 2.050531 1_555
Fe0 O37 2.050994 1_565
Fe0 O33 2.051585 1_555
Fe0 O11 2.081931 1_565
Fe0 O15 2.082762 1_555
Fe0 O7 2.082991 1_565
Fe1 O34 2.050475 1_554
Fe1 O38 2.050984 1_555
Fe1 O30 2.051513 1_655
Fe1 O5 2.082006 1_554
Fe1 O13 2.082765 1_654
Fe1 O9 2.083038 1_655
Fe2 O28 2.050383 1_555
Fe2 O36 2.050960 1_565
Fe2 O32 2.051447 1_555
Fe2 O10 2.081908 1_565
Fe2 O14 2.082617 1_555
Fe2 O6 2.082976 1_565
Fe3 O35 2.050445 1_555
Fe3 O39 2.050990 1_555
Fe3 O31 2.051621 1_555
Fe3 O4 2.081738 1_555
Fe3 O12 2.082590 1_555
Fe3 O8 2.082916 1_555
O0 Pb3 2.299808 1_556
O0 Pb9 2.339025 1_556
O0 Pb4 2.339049 1_555
O0 Pb14 2.339194 1_555
O1 Pb2 2.299814 1_455
O1 Pb8 2.339019 1_555
O1 Pb5 2.339043 1_455
O1 Pb15 2.339188 1_555
O2 Pb0 2.299796 1_545
O2 Pb6 2.339025 1_555
O2 Pb11 2.339038 1_555
O2 Pb13 2.339206 1_545
O3 Pb1 2.299826 1_545
O3 Pb7 2.339031 1_555
O3 Pb10 2.339038 1_555
O3 Pb12 2.339200 1_644
O4 Sb0 1.986440 1_555
O4 Pb15 2.669652 1_555
O4 Pb8 2.669703 1_555
O5 Sb1 1.986418 1_555
O5 Pb14 2.669644 1_555
O5 Pb9 2.669689 1_556
O6 Sb2 1.986277 1_555
O6 Pb12 2.669513 1_544
O6 Pb10 2.669718 1_455
O7 Sb3 1.986335 1_555
O7 Pb13 2.669526 1_545
O7 Pb11 2.669664 1_555
O8 Sb5 1.986273 1_555
O8 Pb14 2.669545 1_555
O8 Pb4 2.669719 1_555
O9 Sb4 1.986342 1_555
O9 Pb15 2.669524 1_555
O9 Pb5 2.669660 1_455
O10 Sb7 1.986453 1_555
O10 Pb13 2.669652 1_545
O10 Pb6 2.669701 1_555
O11 Sb6 1.986405 1_555
O11 Pb12 2.669669 1_645
O11 Pb7 2.669694 1_556
O12 Sb10 1.986027 1_555
O12 Pb7 2.669669 1_555
O12 Pb10 2.669773 1_555
O13 Sb11 1.986102 1_555
O13 Pb6 2.669650 1_555
O13 Pb11 2.669732 1_555
O14 Sb9 1.986049 1_554
O14 Pb9 2.669656 1_555
O14 Pb4 2.669766 1_554
O15 Sb8 1.986096 1_655
O15 Pb8 2.669663 1_655
O15 Pb5 2.669709 1_555
O16 Sb8 2.044293 1_545
O16 Sb6 2.044416 1_455
O16 Pb6 2.662282 1_555
O16 Pb0 2.665645 1_545
O17 Sb9 2.044290 1_544
O17 Sb7 2.044406 1_555
O17 Pb7 2.662280 1_555
O17 Pb1 2.665654 1_545
O18 Sb10 2.044285 1_555
O18 Sb5 2.044402 1_555
O18 Pb5 2.662342 1_555
O18 Pb2 2.665608 1_555
O19 Sb11 2.044293 1_555
O19 Sb4 2.044413 1_556
O19 Pb4 2.662327 1_555
O19 Pb3 2.665606 1_556
O20 Sb10 2.044288 1_555
O20 Sb0 2.044413 1_555
O20 Pb9 2.662282 1_555
O20 Pb3 2.665649 1_555
O21 Sb11 2.044292 1_555
O21 Sb1 2.044417 1_455
O21 Pb8 2.662271 1_555
O21 Pb2 2.665657 1_455
O22 Sb9 2.044279 1_545
O22 Sb2 2.044394 1_556
O22 Pb11 2.662328 1_555
O22 Pb0 2.665598 1_545
O23 Sb8 2.044293 1_645
O23 Sb3 2.044413 1_555
O23 Pb10 2.662327 1_555
O23 Pb1 2.665617 1_545
O24 Sb5 2.044398 1_555
O24 Sb0 2.044428 1_555
O24 Pb13 2.662412 1_555
O24 Pb0 2.665109 1_555
O25 Sb4 2.044403 1_655
O25 Sb1 2.044425 1_554
O25 Pb12 2.662417 1_654
O25 Pb1 2.665072 1_555
O26 Sb2 2.044395 1_555
O26 Sb7 2.044428 1_555
O26 Pb15 2.662435 1_555
O26 Pb2 2.665083 1_455
O27 Sb3 2.044403 1_555
O27 Sb6 2.044429 1_555
O27 Pb14 2.662417 1_555
O27 Pb3 2.665087 1_556
O28 Sb0 1.978106 1_555
O28 Pb9 2.682947 1_555
O28 Pb13 2.682955 1_555
O29 Sb1 1.978096 1_555
O29 Pb8 2.682931 1_655
O29 Pb12 2.682976 1_655
O30 Sb2 1.978012 1_555
O30 Pb15 2.682835 1_555
O30 Pb11 2.682922 1_554
O31 Sb3 1.977943 1_555
O31 Pb14 2.682856 1_555
O31 Pb10 2.682977 1_555
O32 Sb4 1.977947 1_555
O32 Pb12 2.682822 1_554
O32 Pb4 2.682970 1_554
O33 Sb5 1.978000 1_555
O33 Pb13 2.682835 1_555
O33 Pb5 2.682928 1_555
O34 Sb6 1.978120 1_555
O34 Pb6 2.682920 1_655
O34 Pb14 2.682947 1_555
O35 Sb7 1.978113 1_555
O35 Pb7 2.682937 1_555
O35 Pb15 2.682967 1_555
O36 Sb8 1.978224 1_545
O36 Pb6 2.682779 1_555
O36 Pb10 2.682827 1_455
O37 Sb9 1.978281 1_545
O37 Pb11 2.682753 1_555
O37 Pb7 2.682764 1_556
O38 Sb10 1.978292 1_555
O38 Pb9 2.682758 1_555
O38 Pb5 2.682783 1_555
O39 Sb11 1.978224 1_555
O39 Pb8 2.682770 1_555
O39 Pb4 2.682828 1_555
O40 Sb10 2.029438 1_555
O40 Sb6 2.029482 1_554
O40 Pb7 2.665095 1_555
O40 Pb3 2.671285 1_555
O41 Sb11 2.029444 1_555
O41 Sb7 2.029467 1_555
O41 Pb6 2.665105 1_555
O41 Pb2 2.671287 1_455
O42 Sb9 2.029434 1_555
O42 Sb5 2.029511 1_555
O42 Pb4 2.665109 1_555
O42 Pb0 2.671249 1_555
O43 Sb8 2.029428 1_655
O43 Sb4 2.029487 1_655
O43 Pb5 2.665111 1_555
O43 Pb1 2.671250 1_555
O44 Sb8 2.029436 1_555
O44 Sb0 2.029473 1_555
O44 Pb8 2.665112 1_555
O44 Pb0 2.671304 1_555
O45 Sb9 2.029443 1_554
O45 Sb1 2.029480 1_554
O45 Pb9 2.665087 1_555
O45 Pb1 2.671275 1_555
O46 Sb10 2.029436 1_555
O46 Sb2 2.029512 1_655
O46 Pb10 2.665114 1_555
O46 Pb2 2.671233 1_555
O47 Sb11 2.029416 1_555
O47 Sb3 2.029496 1_555
O47 Pb11 2.665131 1_555
O47 Pb3 2.671262 1_556
O48 Sb4 2.029369 1_555
O48 Sb0 2.029383 1_555
O48 Pb15 2.665015 1_555
O48 Pb3 2.671798 1_555
O49 Sb5 2.029372 1_555
O49 Sb1 2.029405 1_555
O49 Pb14 2.664999 1_555
O49 Pb2 2.671793 1_555
O50 Sb2 2.029371 1_556
O50 Sb6 2.029397 1_455
O50 Pb12 2.665012 1_545
O50 Pb0 2.671780 1_545
O51 Sb3 2.029367 1_555
O51 Sb7 2.029394 1_555
O51 Pb13 2.665020 1_545
O51 Pb1 2.671805 1_545
