# generated using pymatgen
data_BaMg30BiO32
_symmetry_space_group_name_H-M   'P 1'
_cell_length_a   8.74842000
_cell_length_b   8.74842000
_cell_length_c   8.91026800
_cell_angle_alpha   90.00000000
_cell_angle_beta   90.00000000
_cell_angle_gamma   90.00000000
_symmetry_Int_Tables_number   1
_chemical_formula_structural   BaMg30BiO32
_chemical_formula_sum   'Ba1 Mg30 Bi1 O32'
_cell_volume   681.94604708
_cell_formula_units_Z   1
loop_
 _symmetry_equiv_pos_site_id
 _symmetry_equiv_pos_as_xyz
  1  'x, y, z'
loop_
 _atom_site_type_symbol
 _atom_site_label
 _atom_site_symmetry_multiplicity
 _atom_site_fract_x
 _atom_site_fract_y
 _atom_site_fract_z
 _atom_site_occupancy
  Ba  Ba0  1  0.00000000  0.00000000  0.00000000  1
  Mg  Mg0  1  0.00000000  0.50000000  0.00000000  1
  Mg  Mg1  1  0.00000000  0.50000000  0.50000000  1
  Mg  Mg2  1  0.50000000  0.00000000  0.00000000  1
  Mg  Mg3  1  0.50000000  0.00000000  0.50000000  1
  Mg  Mg4  1  0.50000000  0.50000000  0.00000000  1
  Mg  Mg5  1  0.50000000  0.50000000  0.50000000  1
  Mg  Mg6  1  0.00000000  0.26510000  0.24936200  1
  Mg  Mg7  1  0.00000000  0.26510000  0.75063800  1
  Mg  Mg8  1  0.00000000  0.73490000  0.24936200  1
  Mg  Mg9  1  0.00000000  0.73490000  0.75063800  1
  Mg  Mg10  1  0.50000000  0.25271100  0.24975800  1
  Mg  Mg11  1  0.50000000  0.25271100  0.75024200  1
  Mg  Mg12  1  0.50000000  0.74728900  0.24975800  1
  Mg  Mg13  1  0.50000000  0.74728900  0.75024200  1
  Mg  Mg14  1  0.26510000  0.00000000  0.24936200  1
  Mg  Mg15  1  0.26510000  0.00000000  0.75063800  1
  Mg  Mg16  1  0.25271100  0.50000000  0.24975800  1
  Mg  Mg17  1  0.25271100  0.50000000  0.75024200  1
  Mg  Mg18  1  0.73490000  0.00000000  0.24936200  1
  Mg  Mg19  1  0.73490000  0.00000000  0.75063800  1
  Mg  Mg20  1  0.74728900  0.50000000  0.24975800  1
  Mg  Mg21  1  0.74728900  0.50000000  0.75024200  1
  Mg  Mg22  1  0.25886200  0.25886200  0.00000000  1
  Mg  Mg23  1  0.25810600  0.25810600  0.50000000  1
  Mg  Mg24  1  0.25886200  0.74113800  0.00000000  1
  Mg  Mg25  1  0.25810600  0.74189400  0.50000000  1
  Mg  Mg26  1  0.74113800  0.25886200  0.00000000  1
  Mg  Mg27  1  0.74189400  0.25810600  0.50000000  1
  Mg  Mg28  1  0.74113800  0.74113800  0.00000000  1
  Mg  Mg29  1  0.74189400  0.74189400  0.50000000  1
  Bi  Bi0  1  0.00000000  0.00000000  0.50000000  1
  O  O0  1  0.28004100  0.00000000  0.00000000  1
  O  O1  1  0.26897800  0.00000000  0.50000000  1
  O  O2  1  0.25645100  0.50000000  0.00000000  1
  O  O3  1  0.25389200  0.50000000  0.50000000  1
  O  O4  1  0.71995900  0.00000000  0.00000000  1
  O  O5  1  0.73102200  0.00000000  0.50000000  1
  O  O6  1  0.74354900  0.50000000  0.00000000  1
  O  O7  1  0.74610800  0.50000000  0.50000000  1
  O  O8  1  0.24924800  0.24924800  0.25041700  1
  O  O9  1  0.24924800  0.24924800  0.74958300  1
  O  O10  1  0.24924800  0.75075200  0.25041700  1
  O  O11  1  0.24924800  0.75075200  0.74958300  1
  O  O12  1  0.75075200  0.24924800  0.25041700  1
  O  O13  1  0.75075200  0.24924800  0.74958300  1
  O  O14  1  0.75075200  0.75075200  0.25041700  1
  O  O15  1  0.75075200  0.75075200  0.74958300  1
  O  O16  1  0.00000000  0.00000000  0.25832400  1
  O  O17  1  0.00000000  0.00000000  0.74167600  1
  O  O18  1  0.00000000  0.50000000  0.25420600  1
  O  O19  1  0.00000000  0.50000000  0.74579400  1
  O  O20  1  0.50000000  0.00000000  0.25420600  1
  O  O21  1  0.50000000  0.00000000  0.74579400  1
  O  O22  1  0.50000000  0.50000000  0.25147400  1
  O  O23  1  0.50000000  0.50000000  0.74852600  1
  O  O24  1  0.00000000  0.28004100  0.00000000  1
  O  O25  1  0.00000000  0.26897800  0.50000000  1
  O  O26  1  0.00000000  0.71995900  0.00000000  1
  O  O27  1  0.00000000  0.73102200  0.50000000  1
  O  O28  1  0.50000000  0.25645100  0.00000000  1
  O  O29  1  0.50000000  0.25389200  0.50000000  1
  O  O30  1  0.50000000  0.74354900  0.00000000  1
  O  O31  1  0.50000000  0.74610800  0.50000000  1
loop_
_geom_bond_atom_site_label_1
_geom_bond_atom_site_label_2
_geom_bond_distance
_geom_bond_site_symmetry_2
Ba0 O17 2.301736 1_554
Ba0 O16 2.301736 1_555
Ba0 O0 2.449916 1_555
Ba0 O4 2.449916 1_455
Ba0 O26 2.449916 1_545
Ba0 O24 2.449916 1_555
Mg0 O26 1.924294 1_555
Mg0 O24 1.924294 1_555
Mg0 O2 2.243541 1_555
Mg0 O6 2.243541 1_455
Mg0 O18 2.265044 1_555
Mg0 O19 2.265044 1_554
Mg1 O27 2.021077 1_555
Mg1 O25 2.021077 1_555
Mg1 O19 2.190090 1_555
Mg1 O18 2.190090 1_555
Mg1 O3 2.221154 1_555
Mg1 O7 2.221154 1_455
Mg2 O4 1.924294 1_555
Mg2 O0 1.924294 1_555
Mg2 O28 2.243541 1_555
Mg2 O30 2.243541 1_545
Mg2 O20 2.265044 1_555
Mg2 O21 2.265044 1_554
Mg3 O5 2.021077 1_555
Mg3 O1 2.021077 1_555
Mg3 O21 2.190090 1_555
Mg3 O20 2.190090 1_555
Mg3 O31 2.221154 1_545
Mg3 O29 2.221154 1_555
Mg4 O30 2.130669 1_555
Mg4 O2 2.130669 1_555
Mg4 O28 2.130669 1_555
Mg4 O6 2.130669 1_555
Mg4 O22 2.240701 1_555
Mg4 O23 2.240701 1_554
Mg5 O3 2.153056 1_555
Mg5 O29 2.153056 1_555
Mg5 O7 2.153056 1_555
Mg5 O31 2.153056 1_555
Mg5 O22 2.214433 1_555
Mg5 O23 2.214433 1_555
Mg6 O18 2.055457 1_555
Mg6 O12 2.184952 1_455
Mg6 O8 2.184952 1_555
Mg6 O24 2.225724 1_555
Mg6 O25 2.233509 1_555
Mg6 O16 2.320580 1_555
Mg7 O19 2.055457 1_555
Mg7 O9 2.184952 1_555
Mg7 O13 2.184952 1_455
Mg7 O24 2.225724 1_556
Mg7 O25 2.233509 1_555
Mg7 O17 2.320580 1_555
Mg8 O18 2.055457 1_555
Mg8 O10 2.184952 1_555
Mg8 O14 2.184952 1_455
Mg8 O26 2.225724 1_555
Mg8 O27 2.233509 1_555
Mg8 O16 2.320580 1_565
Mg9 O19 2.055457 1_555
Mg9 O11 2.184952 1_555
Mg9 O15 2.184952 1_455
Mg9 O26 2.225724 1_556
Mg9 O27 2.233509 1_555
Mg9 O17 2.320580 1_565
Mg10 O22 2.163442 1_555
Mg10 O12 2.193901 1_555
Mg10 O8 2.193901 1_555
Mg10 O20 2.211177 1_555
Mg10 O28 2.225651 1_555
Mg10 O29 2.229747 1_555
Mg11 O23 2.163442 1_555
Mg11 O13 2.193901 1_555
Mg11 O9 2.193901 1_555
Mg11 O21 2.211177 1_555
Mg11 O28 2.225651 1_556
Mg11 O29 2.229747 1_555
Mg12 O22 2.163442 1_555
Mg12 O10 2.193901 1_555
Mg12 O14 2.193901 1_555
Mg12 O20 2.211177 1_565
Mg12 O30 2.225651 1_555
Mg12 O31 2.229747 1_555
Mg13 O23 2.163442 1_555
Mg13 O11 2.193901 1_555
Mg13 O15 2.193901 1_555
Mg13 O21 2.211177 1_565
Mg13 O30 2.225651 1_556
Mg13 O31 2.229747 1_555
Mg14 O20 2.055457 1_555
Mg14 O8 2.184952 1_555
Mg14 O10 2.184952 1_545
Mg14 O0 2.225724 1_555
Mg14 O1 2.233509 1_555
Mg14 O16 2.320580 1_555
Mg15 O21 2.055457 1_555
Mg15 O9 2.184952 1_555
Mg15 O11 2.184952 1_545
Mg15 O0 2.225724 1_556
Mg15 O1 2.233509 1_555
Mg15 O17 2.320580 1_555
Mg16 O22 2.163442 1_555
Mg16 O10 2.193901 1_555
Mg16 O8 2.193901 1_555
Mg16 O18 2.211177 1_555
Mg16 O2 2.225651 1_555
Mg16 O3 2.229747 1_555
Mg17 O23 2.163442 1_555
Mg17 O11 2.193901 1_555
Mg17 O9 2.193901 1_555
Mg17 O19 2.211177 1_555
Mg17 O2 2.225651 1_556
Mg17 O3 2.229747 1_555
Mg18 O20 2.055457 1_555
Mg18 O14 2.184952 1_545
Mg18 O12 2.184952 1_555
Mg18 O4 2.225724 1_555
Mg18 O5 2.233509 1_555
Mg18 O16 2.320580 1_655
Mg19 O21 2.055457 1_555
Mg19 O15 2.184952 1_545
Mg19 O13 2.184952 1_555
Mg19 O4 2.225724 1_556
Mg19 O5 2.233509 1_555
Mg19 O17 2.320580 1_655
Mg20 O22 2.163442 1_555
Mg20 O12 2.193901 1_555
Mg20 O14 2.193901 1_555
Mg20 O18 2.211177 1_655
Mg20 O6 2.225651 1_555
Mg20 O7 2.229747 1_555
Mg21 O23 2.163442 1_555
Mg21 O13 2.193901 1_555
Mg21 O15 2.193901 1_555
Mg21 O19 2.211177 1_655
Mg21 O6 2.225651 1_556
Mg21 O7 2.229747 1_555
Mg22 O2 2.109682 1_555
Mg22 O28 2.109682 1_555
Mg22 O8 2.234451 1_555
Mg22 O9 2.234451 1_554
Mg22 O24 2.272200 1_555
Mg22 O0 2.272200 1_555
Mg23 O29 2.116511 1_555
Mg23 O3 2.116511 1_555
Mg23 O8 2.226550 1_555
Mg23 O9 2.226550 1_555
Mg23 O1 2.260022 1_555
Mg23 O25 2.260022 1_555
Mg24 O2 2.109682 1_555
Mg24 O30 2.109682 1_555
Mg24 O10 2.234451 1_555
Mg24 O11 2.234451 1_554
Mg24 O26 2.272200 1_555
Mg24 O0 2.272200 1_565
Mg25 O31 2.116511 1_555
Mg25 O3 2.116511 1_555
Mg25 O11 2.226550 1_555
Mg25 O10 2.226550 1_555
Mg25 O1 2.260022 1_565
Mg25 O27 2.260022 1_555
Mg26 O28 2.109682 1_555
Mg26 O6 2.109682 1_555
Mg26 O12 2.234451 1_555
Mg26 O13 2.234451 1_554
Mg26 O4 2.272200 1_555
Mg26 O24 2.272200 1_655
Mg27 O7 2.116511 1_555
Mg27 O29 2.116511 1_555
Mg27 O12 2.226550 1_555
Mg27 O13 2.226550 1_555
Mg27 O25 2.260022 1_655
Mg27 O5 2.260022 1_555
Mg28 O6 2.109682 1_555
Mg28 O30 2.109682 1_555
Mg28 O14 2.234451 1_555
Mg28 O15 2.234451 1_554
Mg28 O26 2.272200 1_655
Mg28 O4 2.272200 1_565
Mg29 O7 2.116511 1_555
Mg29 O31 2.116511 1_555
Mg29 O14 2.226550 1_555
Mg29 O15 2.226550 1_555
Mg29 O5 2.260022 1_565
Mg29 O27 2.260022 1_655
Bi0 O16 2.153398 1_555
Bi0 O17 2.153398 1_555
Bi0 O1 2.353133 1_555
Bi0 O25 2.353133 1_555
Bi0 O5 2.353133 1_455
Bi0 O27 2.353133 1_545
