# generated using pymatgen
data_InCu3
_symmetry_space_group_name_H-M   'P 1'
_cell_length_a   5.44114482
_cell_length_b   5.44114482
_cell_length_c   4.32130110
_cell_angle_alpha   90.00000000
_cell_angle_beta   90.00000000
_cell_angle_gamma   119.99999877
_symmetry_Int_Tables_number   1
_chemical_formula_structural   InCu3
_chemical_formula_sum   'In2 Cu6'
_cell_volume   110.79642190
_cell_formula_units_Z   2
loop_
 _symmetry_equiv_pos_site_id
 _symmetry_equiv_pos_as_xyz
  1  'x, y, z'
loop_
 _atom_site_type_symbol
 _atom_site_label
 _atom_site_symmetry_multiplicity
 _atom_site_fract_x
 _atom_site_fract_y
 _atom_site_fract_z
 _atom_site_occupancy
  In  In0  1  0.66666700  0.33333300  0.25000000  1
  In  In1  1  0.33333300  0.66666700  0.75000000  1
  Cu  Cu0  1  0.84361404  0.15638596  0.75000000  1
  Cu  Cu1  1  0.31277192  0.15638596  0.75000000  1
  Cu  Cu2  1  0.84361404  0.68722808  0.75000000  1
  Cu  Cu3  1  0.15638596  0.84361404  0.25000000  1
  Cu  Cu4  1  0.68722808  0.84361404  0.25000000  1
  Cu  Cu5  1  0.15638596  0.31277192  0.25000000  1
loop_
_geom_bond_atom_site_label_1
_geom_bond_atom_site_label_2
_geom_bond_distance
_geom_bond_site_symmetry_2
Cu0 Cu2 2.552756 1_545
Cu0 Cu1 2.552756 1_655
Cu0 Cu5 2.615454 1_655
Cu0 Cu5 2.615454 1_656
Cu0 Cu4 2.615454 1_545
Cu0 Cu4 2.615454 1_546
Cu0 In1 2.722297 1_545
Cu0 In1 2.722297 1_655
Cu0 In0 2.729346 1_556
Cu0 In0 2.729346 1_555
Cu0 Cu1 2.888389 1_555
Cu0 Cu2 2.888389 1_555
Cu1 Cu2 2.552756 1_445
Cu1 Cu5 2.615454 1_555
Cu1 Cu5 2.615454 1_556
Cu1 Cu3 2.615454 1_546
Cu1 Cu3 2.615454 1_545
Cu1 In1 2.722294 1_545
Cu1 In1 2.722300 1_555
Cu1 In0 2.729349 1_556
Cu1 In0 2.729349 1_555
Cu1 Cu2 2.888389 1_555
Cu2 Cu4 2.615454 1_555
Cu2 Cu4 2.615454 1_556
Cu2 Cu3 2.615454 1_655
Cu2 Cu3 2.615454 1_656
Cu2 In1 2.722294 1_655
Cu2 In1 2.722300 1_555
Cu2 In0 2.729349 1_556
Cu2 In0 2.729349 1_555
Cu3 Cu4 2.552756 1_455
Cu3 Cu5 2.552756 1_565
Cu3 In0 2.722297 1_455
Cu3 In0 2.722297 1_565
Cu3 In1 2.729346 1_555
Cu3 In1 2.729346 1_554
Cu3 Cu5 2.888389 1_555
Cu3 Cu4 2.888389 1_555
Cu4 Cu5 2.552756 1_665
Cu4 In0 2.722294 1_565
Cu4 In0 2.722300 1_555
Cu4 In1 2.729349 1_554
Cu4 In1 2.729349 1_555
Cu4 Cu5 2.888389 1_555
Cu5 In0 2.722294 1_455
Cu5 In0 2.722300 1_555
Cu5 In1 2.729349 1_554
Cu5 In1 2.729349 1_555
