# generated using pymatgen
data_HfMg6Si
_symmetry_space_group_name_H-M   'P 1'
_cell_length_a   5.10097300
_cell_length_b   5.85820200
_cell_length_c   11.12112100
_cell_angle_alpha   90.00000000
_cell_angle_beta   90.00000000
_cell_angle_gamma   90.00000000
_symmetry_Int_Tables_number   1
_chemical_formula_structural   HfMg6Si
_chemical_formula_sum   'Hf2 Mg12 Si2'
_cell_volume   332.32723448
_cell_formula_units_Z   2
loop_
 _symmetry_equiv_pos_site_id
 _symmetry_equiv_pos_as_xyz
  1  'x, y, z'
loop_
 _atom_site_type_symbol
 _atom_site_label
 _atom_site_symmetry_multiplicity
 _atom_site_fract_x
 _atom_site_fract_y
 _atom_site_fract_z
 _atom_site_occupancy
  Hf  Hf0  1  0.50000000  0.50000000  0.17484000  1
  Hf  Hf1  1  0.50000000  0.00000000  0.67484000  1
  Mg  Mg0  1  0.50000000  0.25043200  0.42201800  1
  Mg  Mg1  1  0.50000000  0.74956800  0.42201800  1
  Mg  Mg2  1  0.00000000  0.74861200  0.07999600  1
  Mg  Mg3  1  0.00000000  0.25138800  0.07999600  1
  Mg  Mg4  1  0.00000000  0.00000000  0.32274100  1
  Mg  Mg5  1  0.00000000  0.50000000  0.33113400  1
  Mg  Mg6  1  0.50000000  0.75043200  0.92201800  1
  Mg  Mg7  1  0.50000000  0.24956800  0.92201800  1
  Mg  Mg8  1  0.00000000  0.24861200  0.57999600  1
  Mg  Mg9  1  0.00000000  0.75138800  0.57999600  1
  Mg  Mg10  1  0.00000000  0.50000000  0.82274100  1
  Mg  Mg11  1  0.00000000  0.00000000  0.83113400  1
  Si  Si0  1  0.50000000  0.00000000  0.16725400  1
  Si  Si1  1  0.50000000  0.50000000  0.66725400  1
loop_
_geom_bond_atom_site_label_1
_geom_bond_atom_site_label_2
_geom_bond_distance
_geom_bond_site_symmetry_2
Hf0 Si0 2.930316 1_565
Hf0 Si0 2.930316 1_555
Hf0 Mg5 3.086454 1_655
Hf0 Mg5 3.086454 1_555
Hf0 Mg1 3.113508 1_555
Hf0 Mg0 3.113508 1_555
Hf0 Mg3 3.120686 1_555
Hf0 Mg2 3.120686 1_555
Hf0 Mg3 3.120686 1_655
Hf0 Mg2 3.120686 1_655
Hf0 Mg7 3.171401 1_554
Hf0 Mg6 3.171401 1_554
Hf1 Si1 2.930316 1_555
Hf1 Si1 2.930316 1_545
Hf1 Mg11 3.086454 1_555
Hf1 Mg11 3.086454 1_655
Hf1 Mg6 3.113508 1_545
Hf1 Mg7 3.113508 1_555
Hf1 Mg9 3.120686 1_645
Hf1 Mg8 3.120686 1_655
Hf1 Mg8 3.120686 1_555
Hf1 Mg9 3.120686 1_545
Hf1 Mg0 3.171401 1_555
Hf1 Mg1 3.171401 1_545
Mg0 Mg1 2.924040 1_555
Mg0 Mg1 2.934162 1_545
Mg0 Si1 3.094457 1_555
Mg0 Mg8 3.097058 1_655
Mg0 Mg8 3.097058 1_555
Mg0 Mg5 3.108707 1_655
Mg0 Mg5 3.108707 1_555
Mg0 Mg4 3.142655 1_555
Mg0 Mg4 3.142655 1_655
Mg0 Si0 3.190564 1_555
Mg1 Si1 3.094457 1_555
Mg1 Mg9 3.097058 1_555
Mg1 Mg9 3.097058 1_655
Mg1 Mg5 3.108707 1_655
Mg1 Mg5 3.108707 1_555
Mg1 Mg4 3.142655 1_665
Mg1 Mg4 3.142655 1_565
Mg1 Si0 3.190564 1_565
Mg2 Mg3 2.912839 1_555
Mg2 Mg3 2.945363 1_565
Mg2 Mg4 3.075161 1_565
Mg2 Mg6 3.097058 1_454
Mg2 Mg6 3.097058 1_554
Mg2 Si0 3.100881 1_565
Mg2 Si0 3.100881 1_465
Mg2 Mg5 3.149865 1_555
Mg3 Mg4 3.075161 1_555
Mg3 Mg7 3.097058 1_554
Mg3 Mg7 3.097058 1_454
Mg3 Si0 3.100881 1_555
Mg3 Si0 3.100881 1_455
Mg3 Mg5 3.149865 1_555
Mg4 Mg5 2.930588 1_545
Mg4 Mg5 2.930588 1_555
Mg4 Si0 3.081409 1_555
Mg4 Si0 3.081409 1_455
Mg4 Mg8 3.210338 1_555
Mg4 Mg9 3.210338 1_545
Mg5 Mg9 3.135050 1_555
Mg5 Mg8 3.135050 1_555
Mg6 Mg7 2.924040 1_565
Mg6 Mg7 2.934162 1_555
Mg6 Si0 3.094457 1_566
Mg6 Si1 3.190564 1_555
Mg7 Si0 3.094457 1_556
Mg7 Si1 3.190564 1_555
Mg8 Mg9 2.912839 1_545
Mg8 Mg9 2.945363 1_555
Mg8 Si1 3.100881 1_455
Mg8 Si1 3.100881 1_555
Mg9 Si1 3.100881 1_455
Mg9 Si1 3.100881 1_555
Mg10 Mg11 2.930588 1_555
Mg10 Mg11 2.930588 1_565
Mg10 Mg8 3.075161 1_555
Mg10 Mg9 3.075161 1_555
Mg10 Si1 3.081409 1_455
Mg10 Si1 3.081409 1_555
Mg10 Mg6 3.142655 1_455
Mg10 Mg6 3.142655 1_555
Mg10 Mg7 3.142655 1_455
Mg10 Mg7 3.142655 1_555
Mg10 Mg3 3.210338 1_556
Mg10 Mg2 3.210338 1_556
Mg11 Mg6 3.108707 1_545
Mg11 Mg7 3.108707 1_455
Mg11 Mg7 3.108707 1_555
Mg11 Mg6 3.108707 1_445
Mg11 Mg2 3.135050 1_546
Mg11 Mg3 3.135050 1_556
Mg11 Mg8 3.149865 1_555
Mg11 Mg9 3.149865 1_545
