# generated using pymatgen
data_BaSrMg6
_symmetry_space_group_name_H-M   'P 1'
_cell_length_a   5.51425300
_cell_length_b   7.23252800
_cell_length_c   12.36449700
_cell_angle_alpha   90.00000000
_cell_angle_beta   90.00000000
_cell_angle_gamma   90.00000000
_symmetry_Int_Tables_number   1
_chemical_formula_structural   BaSrMg6
_chemical_formula_sum   'Ba2 Sr2 Mg12'
_cell_volume   493.12073608
_cell_formula_units_Z   2
loop_
 _symmetry_equiv_pos_site_id
 _symmetry_equiv_pos_as_xyz
  1  'x, y, z'
loop_
 _atom_site_type_symbol
 _atom_site_label
 _atom_site_symmetry_multiplicity
 _atom_site_fract_x
 _atom_site_fract_y
 _atom_site_fract_z
 _atom_site_occupancy
  Ba  Ba0  1  0.50000000  0.50000000  0.15529300  1
  Ba  Ba1  1  0.50000000  0.00000000  0.65529300  1
  Sr  Sr0  1  0.00000000  0.50000000  0.34599400  1
  Sr  Sr1  1  0.00000000  0.00000000  0.84599400  1
  Mg  Mg0  1  0.00000000  0.23163600  0.08526800  1
  Mg  Mg1  1  0.00000000  0.76836400  0.08526800  1
  Mg  Mg2  1  0.00000000  0.50000000  0.83598600  1
  Mg  Mg3  1  0.50000000  0.25791800  0.91536900  1
  Mg  Mg4  1  0.50000000  0.74208200  0.91536900  1
  Mg  Mg5  1  0.50000000  0.50000000  0.66145400  1
  Mg  Mg6  1  0.00000000  0.73163600  0.58526800  1
  Mg  Mg7  1  0.00000000  0.26836400  0.58526800  1
  Mg  Mg8  1  0.00000000  0.00000000  0.33598600  1
  Mg  Mg9  1  0.50000000  0.75791800  0.41536900  1
  Mg  Mg10  1  0.50000000  0.24208200  0.41536900  1
  Mg  Mg11  1  0.50000000  0.00000000  0.16145400  1
loop_
_geom_bond_atom_site_label_1
_geom_bond_atom_site_label_2
_geom_bond_distance
_geom_bond_site_symmetry_2
Ba0 Mg3 3.444689 1_554
Ba0 Mg4 3.444689 1_554
Ba0 Mg1 3.481190 1_655
Ba0 Mg1 3.481190 1_555
Ba0 Mg0 3.481190 1_555
Ba0 Mg0 3.481190 1_655
Ba0 Mg11 3.617066 1_565
Ba0 Mg11 3.617066 1_555
Ba0 Sr0 3.627884 1_555
Ba0 Sr0 3.627884 1_655
Ba0 Mg9 3.717593 1_555
Ba0 Mg10 3.717593 1_555
Ba1 Mg9 3.444689 1_545
Ba1 Mg10 3.444689 1_555
Ba1 Mg6 3.481190 1_545
Ba1 Mg7 3.481190 1_555
Ba1 Mg7 3.481190 1_655
Ba1 Mg6 3.481190 1_645
Ba1 Mg5 3.617066 1_545
Ba1 Mg5 3.617066 1_555
Ba1 Sr1 3.627884 1_655
Ba1 Sr1 3.627884 1_555
Ba1 Mg4 3.717593 1_545
Ba1 Mg3 3.717593 1_555
Mg0 Mg1 3.350628 1_545
Mg0 Mg11 3.360921 1_455
Mg0 Mg11 3.360921 1_555
Mg0 Sr1 3.399914 1_554
Mg0 Mg3 3.471439 1_454
Mg0 Mg3 3.471439 1_554
Mg0 Mg8 3.523732 1_555
Mg0 Sr0 3.762954 1_555
Mg1 Mg11 3.360921 1_565
Mg1 Mg11 3.360921 1_465
Mg1 Sr1 3.399914 1_564
Mg1 Mg4 3.471439 1_554
Mg1 Mg4 3.471439 1_454
Mg1 Mg8 3.523732 1_565
Mg1 Sr0 3.762954 1_555
Mg2 Mg3 3.410378 1_455
Mg2 Mg3 3.410378 1_555
Mg2 Mg4 3.410378 1_455
Mg2 Mg4 3.410378 1_555
Mg2 Mg5 3.501244 1_455
Mg2 Mg5 3.501244 1_555
Mg2 Mg6 3.523732 1_555
Mg2 Mg7 3.523732 1_555
Mg2 Sr1 3.618381 1_555
Mg2 Sr1 3.618381 1_565
Mg3 Sr1 3.437624 1_555
Mg3 Sr1 3.437624 1_655
Mg3 Mg4 3.501730 1_555
Mg3 Mg5 3.594744 1_555
Mg4 Sr1 3.437624 1_665
Mg4 Sr1 3.437624 1_565
Mg4 Mg5 3.594744 1_555
Mg5 Mg6 3.360921 1_555
Mg5 Mg6 3.360921 1_655
Mg5 Mg7 3.360921 1_555
Mg5 Mg7 3.360921 1_655
Mg5 Mg9 3.569011 1_555
Mg6 Mg7 3.350628 1_555
Mg6 Sr0 3.399914 1_555
Mg6 Mg9 3.471439 1_455
Mg6 Mg9 3.471439 1_555
Mg6 Sr1 3.762954 1_565
Mg7 Sr0 3.399914 1_555
Mg7 Sr1 3.762954 1_555
Mg8 Mg9 3.410378 1_545
Mg8 Mg9 3.410378 1_445
Mg8 Sr0 3.618381 1_555
Mg8 Sr0 3.618381 1_545
Mg9 Sr0 3.437624 1_655
Mg9 Sr0 3.437624 1_555
Mg10 Mg8 3.410378 1_655
Mg10 Mg8 3.410378 1_555
Mg10 Sr0 3.437624 1_555
Mg10 Sr0 3.437624 1_655
Mg10 Mg7 3.471439 1_555
Mg10 Mg7 3.471439 1_655
Mg10 Mg9 3.501730 1_545
Mg10 Mg5 3.569011 1_555
Mg10 Mg11 3.594744 1_555
Mg11 Mg8 3.501244 1_555
Mg11 Mg8 3.501244 1_655
Mg11 Mg4 3.569011 1_544
Mg11 Mg3 3.569011 1_554
Mg11 Mg9 3.594744 1_545
