# generated using pymatgen
data_Ag3C2(NO3)2
_symmetry_space_group_name_H-M   'P 1'
_cell_length_a   12.57688400
_cell_length_b   5.20197800
_cell_length_c   7.46146941
_cell_angle_alpha   54.40090414
_cell_angle_beta   90.00000000
_cell_angle_gamma   90.00000000
_symmetry_Int_Tables_number   1
_chemical_formula_structural   Ag3C2(NO3)2
_chemical_formula_sum   'Ag6 C4 N4 O12'
_cell_volume   396.93116929
_cell_formula_units_Z   2
loop_
 _symmetry_equiv_pos_site_id
 _symmetry_equiv_pos_as_xyz
  1  'x, y, z'
loop_
 _atom_site_type_symbol
 _atom_site_label
 _atom_site_symmetry_multiplicity
 _atom_site_fract_x
 _atom_site_fract_y
 _atom_site_fract_z
 _atom_site_occupancy
  Ag  Ag0  1  0.00000000  0.00000000  0.00000000  1
  Ag  Ag1  1  0.50000000  0.00000000  0.50000000  1
  Ag  Ag2  1  0.39650300  0.60173000  0.16907700  1
  Ag  Ag3  1  0.60349700  0.39827000  0.83092300  1
  Ag  Ag4  1  0.89650300  0.39827000  0.33092300  1
  Ag  Ag5  1  0.10349700  0.60173000  0.66907700  1
  C  C0  1  0.98711600  0.57449900  0.04031100  1
  C  C1  1  0.01288400  0.42550100  0.95968900  1
  C  C2  1  0.48711600  0.42550100  0.45968900  1
  C  C3  1  0.51288400  0.57449900  0.54031100  1
  N  N0  1  0.67384000  0.69078600  0.06502700  1
  N  N1  1  0.32616000  0.30921400  0.93497300  1
  N  N2  1  0.17384000  0.30921400  0.43497300  1
  N  N3  1  0.82616000  0.69078600  0.56502700  1
  O  O0  1  0.90335700  0.86471400  0.43903900  1
  O  O1  1  0.09664300  0.13528600  0.56096100  1
  O  O2  1  0.40335700  0.13528600  0.06096100  1
  O  O3  1  0.59664300  0.86471400  0.93903900  1
  O  O4  1  0.68567200  0.41730200  0.10684400  1
  O  O5  1  0.31432800  0.58269800  0.89315600  1
  O  O6  1  0.18567200  0.58269800  0.39315600  1
  O  O7  1  0.81432800  0.41730200  0.60684400  1
  O  O8  1  0.73492000  0.78893500  0.14452300  1
  O  O9  1  0.26508000  0.21106500  0.85547700  1
  O  O10  1  0.23492000  0.21106500  0.35547700  1
  O  O11  1  0.76508000  0.78893500  0.64452300  1
loop_
_geom_bond_atom_site_label_1
_geom_bond_atom_site_label_2
_geom_bond_distance
_geom_bond_site_symmetry_2
Ag0 C1 2.059365 1_554
Ag0 C0 2.059365 1_445
Ag1 C2 2.059365 1_555
Ag1 C3 2.059365 1_545
Ag2 C2 2.127627 1_555
Ag2 O5 2.356649 1_554
Ag2 O2 2.398983 1_565
Ag2 O10 2.627469 1_555
Ag3 C3 2.127627 1_555
Ag3 O4 2.356649 1_556
Ag3 O3 2.398983 1_545
Ag3 O11 2.627469 1_555
Ag4 C0 2.127627 1_555
Ag4 O7 2.356649 1_555
Ag4 O0 2.398983 1_545
Ag4 O8 2.627469 1_555
Ag5 C1 2.127627 1_555
Ag5 O6 2.356649 1_555
Ag5 O1 2.398983 1_565
Ag5 O9 2.627469 1_555
C0 C1 1.269049 1_654
C2 C3 1.269049 1_555
N0 O8 1.247086 1_555
N0 O4 1.275408 1_555
N0 O3 1.286369 1_554
N1 O9 1.247086 1_555
N1 O5 1.275408 1_555
N1 O2 1.286369 1_556
N2 O10 1.247086 1_555
N2 O6 1.275408 1_555
N2 O1 1.286369 1_555
N3 O11 1.247086 1_555
N3 O7 1.275408 1_555
N3 O0 1.286369 1_555
