# generated using pymatgen
data_HoAgSn
_symmetry_space_group_name_H-M   'P 1'
_cell_length_a   6.93891000
_cell_length_b   9.66856800
_cell_length_c   9.66692822
_cell_angle_alpha   59.99438860
_cell_angle_beta   90.00000000
_cell_angle_gamma   90.00000000
_symmetry_Int_Tables_number   1
_chemical_formula_structural   HoAgSn
_chemical_formula_sum   'Ho8 Ag8 Sn8'
_cell_volume   561.62699800
_cell_formula_units_Z   8
loop_
 _symmetry_equiv_pos_site_id
 _symmetry_equiv_pos_as_xyz
  1  'x, y, z'
loop_
 _atom_site_type_symbol
 _atom_site_label
 _atom_site_symmetry_multiplicity
 _atom_site_fract_x
 _atom_site_fract_y
 _atom_site_fract_z
 _atom_site_occupancy
  Ho  Ho0_0  1  0.25000000  0.00002300  0.49995400  1
  Ho  Ho0_1  1  0.25000000  0.00002300  0.99995400  1
  Ho  Ho0_2  1  0.25000000  0.50002300  0.49995400  1
  Ho  Ho0_3  1  0.25000000  0.50002300  0.99995400  1
  Ho  Ho0_4  1  0.75000000  0.00002300  0.49995400  1
  Ho  Ho0_5  1  0.75000000  0.00002300  0.99995400  1
  Ho  Ho0_6  1  0.75000000  0.50002300  0.49995400  1
  Ho  Ho0_7  1  0.75000000  0.50002300  0.99995400  1
  Ag  Ag0_0  1  0.00000000  0.33333900  0.33332200  1
  Ag  Ag0_1  1  0.00000000  0.33333900  0.83332200  1
  Ag  Ag0_2  1  0.00000000  0.83333900  0.33332200  1
  Ag  Ag0_3  1  0.00000000  0.83333900  0.83332200  1
  Ag  Ag0_4  1  0.50000000  0.33333900  0.33332200  1
  Ag  Ag0_5  1  0.50000000  0.33333900  0.83332200  1
  Ag  Ag0_6  1  0.50000000  0.83333900  0.33332200  1
  Ag  Ag0_7  1  0.50000000  0.83333900  0.83332200  1
  Sn  Sn0_0  1  0.00000000  0.16663800  0.16672400  1
  Sn  Sn0_1  1  0.00000000  0.16663800  0.66672400  1
  Sn  Sn0_2  1  0.00000000  0.66663800  0.16672400  1
  Sn  Sn0_3  1  0.00000000  0.66663800  0.66672400  1
  Sn  Sn0_4  1  0.50000000  0.16663800  0.16672400  1
  Sn  Sn0_5  1  0.50000000  0.16663800  0.66672400  1
  Sn  Sn0_6  1  0.50000000  0.66663800  0.16672400  1
  Sn  Sn0_7  1  0.50000000  0.66663800  0.66672400  1
loop_
_geom_bond_atom_site_label_1
_geom_bond_atom_site_label_2
_geom_bond_distance
_geom_bond_site_symmetry_2
Ho0_0 Sn0_0 3.284970 1_555
Ho0_0 Sn0_4 3.284970 1_555
Ho0_0 Sn0_1 3.286474 1_555
Ho0_0 Sn0_5 3.286474 1_555
Ho0_0 Sn0_3 3.286474 1_545
Ho0_0 Sn0_7 3.286474 1_545
Ho0_0 Ho0_4 3.469455 1_555
Ho0_0 Ho0_4 3.469455 1_455
Ho0_1 Sn0_1 3.284970 1_555
Ho0_1 Sn0_5 3.284970 1_555
Ho0_1 Sn0_4 3.286474 1_556
Ho0_1 Sn0_0 3.286474 1_556
Ho0_1 Sn0_6 3.286474 1_546
Ho0_1 Sn0_2 3.286474 1_546
Ho0_1 Ho0_5 3.469455 1_555
Ho0_1 Ho0_5 3.469455 1_455
Ho0_2 Sn0_6 3.284970 1_555
Ho0_2 Sn0_2 3.284970 1_555
Ho0_2 Sn0_3 3.286474 1_555
Ho0_2 Sn0_7 3.286474 1_555
Ho0_2 Sn0_1 3.286474 1_555
Ho0_2 Sn0_5 3.286474 1_555
Ho0_2 Ho0_6 3.469455 1_555
Ho0_2 Ho0_6 3.469455 1_455
Ho0_3 Sn0_3 3.284970 1_555
Ho0_3 Sn0_7 3.284970 1_555
Ho0_3 Sn0_2 3.286474 1_556
Ho0_3 Sn0_6 3.286474 1_556
Ho0_3 Sn0_4 3.286474 1_556
Ho0_3 Sn0_0 3.286474 1_556
Ho0_3 Ho0_7 3.469455 1_455
Ho0_3 Ho0_7 3.469455 1_555
Ho0_4 Sn0_0 3.284970 1_655
Ho0_4 Sn0_4 3.284970 1_555
Ho0_4 Sn0_5 3.286474 1_555
Ho0_4 Sn0_1 3.286474 1_655
Ho0_4 Sn0_3 3.286474 1_645
Ho0_4 Sn0_7 3.286474 1_545
Ho0_5 Sn0_5 3.284970 1_555
Ho0_5 Sn0_1 3.284970 1_655
Ho0_5 Sn0_4 3.286474 1_556
Ho0_5 Sn0_0 3.286474 1_656
Ho0_5 Sn0_6 3.286474 1_546
Ho0_5 Sn0_2 3.286474 1_646
Ho0_6 Sn0_6 3.284970 1_555
Ho0_6 Sn0_2 3.284970 1_655
Ho0_6 Sn0_7 3.286474 1_555
Ho0_6 Sn0_3 3.286474 1_655
Ho0_6 Sn0_1 3.286474 1_655
Ho0_6 Sn0_5 3.286474 1_555
Ho0_7 Sn0_7 3.284970 1_555
Ho0_7 Sn0_3 3.284970 1_655
Ho0_7 Sn0_2 3.286474 1_656
Ho0_7 Sn0_6 3.286474 1_556
Ho0_7 Sn0_4 3.286474 1_556
Ho0_7 Sn0_0 3.286474 1_656
Ag0_0 Sn0_2 2.790630 1_555
Ag0_0 Sn0_0 2.790630 1_555
Ag0_0 Sn0_1 2.791019 1_555
Ag0_0 Ho0_3 3.285951 1_554
Ag0_0 Ho0_7 3.285951 1_454
Ag0_0 Ho0_6 3.285984 1_455
Ag0_0 Ho0_2 3.285984 1_555
Ag0_0 Ho0_0 3.285984 1_555
Ag0_0 Ho0_4 3.285984 1_455
Ag0_0 Ag0_4 3.469455 1_455
Ag0_0 Ag0_4 3.469455 1_555
Ag0_1 Sn0_3 2.790630 1_555
Ag0_1 Sn0_1 2.790630 1_555
Ag0_1 Sn0_0 2.791019 1_556
Ag0_1 Ho0_6 3.285951 1_455
Ag0_1 Ho0_2 3.285951 1_555
Ag0_1 Ho0_3 3.285984 1_555
Ag0_1 Ho0_7 3.285984 1_455
Ag0_1 Ho0_1 3.285984 1_555
Ag0_1 Ho0_5 3.285984 1_455
Ag0_1 Ag0_5 3.469455 1_455
Ag0_1 Ag0_5 3.469455 1_555
Ag0_2 Sn0_0 2.790630 1_565
Ag0_2 Sn0_2 2.790630 1_555
Ag0_2 Sn0_3 2.791019 1_555
Ag0_2 Ho0_5 3.285951 1_464
Ag0_2 Ho0_1 3.285951 1_564
Ag0_2 Ho0_4 3.285984 1_465
Ag0_2 Ho0_0 3.285984 1_565
Ag0_2 Ho0_6 3.285984 1_455
Ag0_2 Ho0_2 3.285984 1_555
Ag0_2 Ag0_6 3.469455 1_455
Ag0_2 Ag0_6 3.469455 1_555
Ag0_3 Sn0_1 2.790630 1_565
Ag0_3 Sn0_3 2.790630 1_555
Ag0_3 Sn0_2 2.791019 1_556
Ag0_3 Ho0_4 3.285951 1_465
Ag0_3 Ho0_0 3.285951 1_565
Ag0_3 Ho0_5 3.285984 1_465
Ag0_3 Ho0_1 3.285984 1_565
Ag0_3 Ho0_3 3.285984 1_555
Ag0_3 Ho0_7 3.285984 1_455
Ag0_3 Ag0_7 3.469455 1_455
Ag0_3 Ag0_7 3.469455 1_555
Ag0_4 Sn0_6 2.790630 1_555
Ag0_4 Sn0_4 2.790630 1_555
Ag0_4 Sn0_5 2.791019 1_555
Ag0_4 Ho0_3 3.285951 1_554
Ag0_4 Ho0_7 3.285951 1_554
Ag0_4 Ho0_6 3.285984 1_555
Ag0_4 Ho0_2 3.285984 1_555
Ag0_4 Ho0_4 3.285984 1_555
Ag0_4 Ho0_0 3.285984 1_555
Ag0_5 Sn0_7 2.790630 1_555
Ag0_5 Sn0_5 2.790630 1_555
Ag0_5 Sn0_4 2.791019 1_556
Ag0_5 Ho0_6 3.285951 1_555
Ag0_5 Ho0_2 3.285951 1_555
Ag0_5 Ho0_3 3.285984 1_555
Ag0_5 Ho0_7 3.285984 1_555
Ag0_5 Ho0_1 3.285984 1_555
Ag0_5 Ho0_5 3.285984 1_555
Ag0_6 Sn0_4 2.790630 1_565
Ag0_6 Sn0_6 2.790630 1_555
Ag0_6 Sn0_7 2.791019 1_555
Ag0_6 Ho0_5 3.285951 1_564
Ag0_6 Ho0_1 3.285951 1_564
Ag0_6 Ho0_4 3.285984 1_565
Ag0_6 Ho0_0 3.285984 1_565
Ag0_6 Ho0_6 3.285984 1_555
Ag0_6 Ho0_2 3.285984 1_555
Ag0_7 Sn0_5 2.790630 1_565
Ag0_7 Sn0_7 2.790630 1_555
Ag0_7 Sn0_6 2.791019 1_556
Ag0_7 Ho0_4 3.285951 1_565
Ag0_7 Ho0_0 3.285951 1_565
Ag0_7 Ho0_5 3.285984 1_565
Ag0_7 Ho0_1 3.285984 1_565
Ag0_7 Ho0_3 3.285984 1_555
Ag0_7 Ho0_7 3.285984 1_555
