# generated using pymatgen
data_NaH2BrO5
_symmetry_space_group_name_H-M   'P 1'
_cell_length_a   9.22554138
_cell_length_b   9.22554138
_cell_length_c   12.35626372
_cell_angle_alpha   80.86737384
_cell_angle_beta   80.86737384
_cell_angle_gamma   37.42752068
_symmetry_Int_Tables_number   1
_chemical_formula_structural   NaH2BrO5
_chemical_formula_sum   'Na4 H8 Br4 O20'
_cell_volume   630.10903744
_cell_formula_units_Z   4
loop_
 _symmetry_equiv_pos_site_id
 _symmetry_equiv_pos_as_xyz
  1  'x, y, z'
loop_
 _atom_site_type_symbol
 _atom_site_label
 _atom_site_symmetry_multiplicity
 _atom_site_fract_x
 _atom_site_fract_y
 _atom_site_fract_z
 _atom_site_occupancy
  Na  Na0  1  0.00000000  0.50000000  0.50000000  1
  Na  Na1  1  0.50000000  0.00000000  0.00000000  1
  Na  Na2  1  0.39512500  0.60487500  0.25000000  1
  Na  Na3  1  0.60487500  0.39512500  0.75000000  1
  H  H0  1  0.48817200  0.65587400  0.91762900  1
  H  H1  1  0.34412600  0.51182800  0.58237100  1
  H  H2  1  0.51182800  0.34412600  0.08237100  1
  H  H3  1  0.65587400  0.48817200  0.41762900  1
  H  H4  1  0.06435200  0.19026900  0.04585000  1
  H  H5  1  0.80973100  0.93564800  0.45415000  1
  H  H6  1  0.93564800  0.80973100  0.95415000  1
  H  H7  1  0.19026900  0.06435200  0.54585000  1
  Br  Br0  1  0.82451900  0.96501100  0.20344600  1
  Br  Br1  1  0.03498900  0.17548100  0.29655400  1
  Br  Br2  1  0.17548100  0.03498900  0.79655400  1
  Br  Br3  1  0.96501100  0.82451900  0.70344600  1
  O  O0  1  0.78194300  0.87426100  0.41598600  1
  O  O1  1  0.12573900  0.21805700  0.08401400  1
  O  O2  1  0.21805700  0.12573900  0.58401400  1
  O  O3  1  0.87426100  0.78194300  0.91598600  1
  O  O4  1  0.72776700  0.90797200  0.14249600  1
  O  O5  1  0.09202800  0.27223300  0.35750400  1
  O  O6  1  0.27223300  0.09202800  0.85750400  1
  O  O7  1  0.90797200  0.72776700  0.64249600  1
  O  O8  1  0.07727000  0.82700700  0.13532900  1
  O  O9  1  0.17299300  0.92273000  0.36467100  1
  O  O10  1  0.92273000  0.17299300  0.86467100  1
  O  O11  1  0.82700700  0.07727000  0.63532900  1
  O  O12  1  0.61248600  0.30094800  0.13404400  1
  O  O13  1  0.69905200  0.38751400  0.36595600  1
  O  O14  1  0.38751400  0.69905200  0.86595600  1
  O  O15  1  0.30094800  0.61248600  0.63404400  1
  O  O16  1  0.29287700  0.00593300  0.15916700  1
  O  O17  1  0.99406700  0.70712300  0.34083300  1
  O  O18  1  0.70712300  0.99406700  0.84083300  1
  O  O19  1  0.00593300  0.29287700  0.65916700  1
loop_
_geom_bond_atom_site_label_1
_geom_bond_atom_site_label_2
_geom_bond_distance
_geom_bond_site_symmetry_2
Na0 O0 2.353602 1_455
Na0 O2 2.353602 1_555
Na0 O7 2.470382 1_455
Na0 O5 2.470382 1_555
Na0 O19 2.489435 1_555
Na0 O17 2.489435 1_455
Na1 O3 2.353602 1_544
Na1 O1 2.353602 1_555
Na1 O6 2.470382 1_554
Na1 O4 2.470382 1_545
Na1 O18 2.489435 1_544
Na1 O16 2.489435 1_555
Na2 O13 2.317111 1_555
Na2 O12 2.317111 1_555
Na2 O9 2.378873 1_555
Na2 O8 2.378873 1_555
Na3 O14 2.317111 1_555
Na3 O15 2.317111 1_555
Na3 O11 2.378873 1_555
Na3 O10 2.378873 1_555
H0 O14 0.973989 1_555
H1 O15 0.973989 1_555
H2 O12 0.973989 1_555
H3 O13 0.973989 1_555
H4 O1 0.981101 1_555
H5 O0 0.981101 1_555
H6 O3 0.981101 1_555
H7 O2 0.981101 1_555
Br0 O4 1.651055 1_555
Br0 O8 1.663909 1_655
Br0 O12 2.055986 1_565
Br0 O17 2.153865 1_555
Br1 O5 1.651055 1_555
Br1 O9 1.663909 1_545
Br1 O13 2.055986 1_455
Br1 O16 2.153865 1_555
Br2 O6 1.651055 1_555
Br2 O10 1.663909 1_455
Br2 O14 2.055986 1_545
Br2 O19 2.153865 1_555
Br3 O7 1.651055 1_555
Br3 O11 1.663909 1_565
Br3 O15 2.055986 1_655
Br3 O18 2.153865 1_555
O0 O17 1.467887 1_555
O1 O16 1.467887 1_555
O18 O3 1.467887 1_555
O19 O2 1.467887 1_555
