# generated using pymatgen
data_AcSm3
_symmetry_space_group_name_H-M   'P 1'
_cell_length_a   7.59513966
_cell_length_b   7.59513911
_cell_length_c   5.93289688
_cell_angle_alpha   90.00000000
_cell_angle_beta   90.00000000
_cell_angle_gamma   120.00000711
_symmetry_Int_Tables_number   1
_chemical_formula_structural   AcSm3
_chemical_formula_sum   'Ac2 Sm6'
_cell_volume   296.39365167
_cell_formula_units_Z   2
loop_
 _symmetry_equiv_pos_site_id
 _symmetry_equiv_pos_as_xyz
  1  'x, y, z'
loop_
 _atom_site_type_symbol
 _atom_site_label
 _atom_site_symmetry_multiplicity
 _atom_site_fract_x
 _atom_site_fract_y
 _atom_site_fract_z
 _atom_site_occupancy
  Ac  Ac0  1  0.33333300  0.66666700  0.75000000  1
  Ac  Ac1  1  0.66666700  0.33333300  0.25000000  1
  Sm  Sm0  1  0.16321255  0.32642609  0.25000000  1
  Sm  Sm1  1  0.67357391  0.83678745  0.25000000  1
  Sm  Sm2  1  0.16321255  0.83678645  0.25000000  1
  Sm  Sm3  1  0.83678745  0.67357391  0.75000000  1
  Sm  Sm4  1  0.32642609  0.16321255  0.75000000  1
  Sm  Sm5  1  0.83678745  0.16321355  0.75000000  1
loop_
_geom_bond_atom_site_label_1
_geom_bond_atom_site_label_2
_geom_bond_distance
_geom_bond_site_symmetry_2
Ac0 Sm2 3.715947 1_556
Ac0 Sm2 3.715947 1_555
Ac0 Sm0 3.715951 1_555
Ac0 Sm0 3.715951 1_556
Ac0 Sm1 3.715951 1_556
Ac0 Sm1 3.715951 1_555
Ac0 Sm4 3.797834 1_565
Ac0 Sm3 3.797834 1_455
Ac0 Sm5 3.797837 1_455
Ac0 Sm5 3.797845 1_565
Ac0 Sm4 3.797849 1_555
Ac0 Sm3 3.797849 1_555
Ac1 Sm5 3.715947 1_554
Ac1 Sm5 3.715947 1_555
Ac1 Sm3 3.715951 1_554
Ac1 Sm3 3.715951 1_555
Ac1 Sm4 3.715951 1_555
Ac1 Sm4 3.715951 1_554
Ac1 Sm1 3.797834 1_545
Ac1 Sm0 3.797834 1_655
Ac1 Sm2 3.797837 1_655
Ac1 Sm2 3.797845 1_545
Ac1 Sm1 3.797849 1_555
Ac1 Sm0 3.797849 1_555
Sm0 Sm5 3.661940 1_455
Sm0 Sm5 3.661940 1_454
Sm0 Sm4 3.661948 1_554
Sm0 Sm4 3.661948 1_555
Sm0 Sm1 3.718873 1_445
Sm0 Sm2 3.718881 1_545
Sm0 Sm2 3.876258 1_555
Sm0 Sm1 3.876265 1_555
Sm1 Sm5 3.661944 1_565
Sm1 Sm5 3.661944 1_564
Sm1 Sm3 3.661948 1_554
Sm1 Sm3 3.661948 1_555
Sm1 Sm2 3.718878 1_655
Sm1 Sm2 3.876262 1_555
Sm2 Sm3 3.661940 1_454
Sm2 Sm3 3.661940 1_455
Sm2 Sm4 3.661944 1_565
Sm2 Sm4 3.661944 1_564
Sm3 Sm4 3.718873 1_665
Sm3 Sm5 3.718881 1_565
Sm3 Sm5 3.876258 1_555
Sm3 Sm4 3.876265 1_555
Sm4 Sm5 3.718878 1_455
Sm4 Sm5 3.876262 1_555
