# generated using pymatgen
data_Y2S3
_symmetry_space_group_name_H-M   'P 1'
_cell_length_a   3.86935145
_cell_length_b   10.50628676
_cell_length_c   10.63199354
_cell_angle_alpha   90.00000000
_cell_angle_beta   90.00000000
_cell_angle_gamma   90.00000000
_symmetry_Int_Tables_number   1
_chemical_formula_structural   Y2S3
_chemical_formula_sum   'Y8 S12'
_cell_volume   432.21728653
_cell_formula_units_Z   4
loop_
 _symmetry_equiv_pos_site_id
 _symmetry_equiv_pos_as_xyz
  1  'x, y, z'
loop_
 _atom_site_type_symbol
 _atom_site_label
 _atom_site_symmetry_multiplicity
 _atom_site_fract_x
 _atom_site_fract_y
 _atom_site_fract_z
 _atom_site_occupancy
  Y  Y0  1  0.25000000  0.18718055  0.49035686  1
  Y  Y1  1  0.25000000  0.31281945  0.99035686  1
  Y  Y2  1  0.75000000  0.81281945  0.50964314  1
  Y  Y3  1  0.75000000  0.68718055  0.00964314  1
  Y  Y4  1  0.75000000  0.49541432  0.69184495  1
  Y  Y5  1  0.75000000  0.00458568  0.19184495  1
  Y  Y6  1  0.25000000  0.50458568  0.30815505  1
  Y  Y7  1  0.25000000  0.99541432  0.80815505  1
  S  S0  1  0.25000000  0.62685471  0.54628661  1
  S  S1  1  0.25000000  0.87314529  0.04628661  1
  S  S2  1  0.75000000  0.37314529  0.45371339  1
  S  S3  1  0.75000000  0.12685471  0.95371339  1
  S  S4  1  0.75000000  0.05514452  0.61877254  1
  S  S5  1  0.75000000  0.44485548  0.11877254  1
  S  S6  1  0.25000000  0.94485548  0.38122746  1
  S  S7  1  0.25000000  0.55514452  0.88122746  1
  S  S8  1  0.25000000  0.30478124  0.72734083  1
  S  S9  1  0.25000000  0.19521776  0.22734083  1
  S  S10  1  0.75000000  0.69521776  0.27265917  1
  S  S11  1  0.75000000  0.80478224  0.77265917  1
loop_
_geom_bond_atom_site_label_1
_geom_bond_atom_site_label_2
_geom_bond_distance
_geom_bond_site_symmetry_2
S0 Y2 2.777064 1_455
S0 Y2 2.777064 1_555
S0 Y4 2.836368 1_555
S0 Y4 2.836368 1_455
S0 Y6 2.839059 1_555
S1 Y3 2.777064 1_455
S1 Y3 2.777064 1_555
S1 Y5 2.836368 1_565
S1 Y5 2.836368 1_465
S1 Y7 2.839059 1_554
S2 Y0 2.777064 1_555
S2 Y0 2.777064 1_655
S2 Y6 2.836368 1_655
S2 Y6 2.836368 1_555
S2 Y4 2.839059 1_555
S3 Y1 2.777064 1_555
S3 Y1 2.777064 1_655
S3 Y7 2.836368 1_645
S3 Y7 2.836368 1_545
S3 Y5 2.839059 1_556
S4 Y0 2.744340 1_555
S4 Y0 2.744340 1_655
S4 Y2 2.797857 1_545
S4 Y7 2.861995 1_645
S4 Y7 2.861995 1_545
S5 Y1 2.744340 1_554
S5 Y1 2.744340 1_654
S5 Y3 2.797857 1_555
S5 Y6 2.861995 1_555
S5 Y6 2.861995 1_655
S6 Y2 2.744340 1_455
S6 Y2 2.744340 1_555
S6 Y0 2.797857 1_565
S6 Y5 2.861995 1_465
S6 Y5 2.861995 1_565
S7 Y3 2.744340 1_456
S7 Y3 2.744340 1_556
S7 Y1 2.797857 1_555
S7 Y4 2.861995 1_455
S7 Y4 2.861995 1_555
S8 Y1 2.797660 1_555
S8 Y0 2.806247 1_555
S8 Y4 2.810122 1_455
S8 Y4 2.810122 1_555
S8 Y7 3.361947 1_545
S9 Y0 2.797659 1_555
S9 Y1 2.806251 1_554
S9 Y5 2.810115 1_555
S9 Y5 2.810115 1_455
S9 Y6 3.361957 1_555
S10 Y3 2.797659 1_555
S10 Y2 2.806251 1_555
S10 Y6 2.810115 1_555
S10 Y6 2.810115 1_655
S10 Y5 3.361957 1_565
S11 Y2 2.797659 1_555
S11 Y3 2.806251 1_556
S11 Y7 2.810115 1_655
S11 Y7 2.810115 1_555
S11 Y4 3.361957 1_555
