# generated using pymatgen
data_Li3H24Ru(ClO2)6
_symmetry_space_group_name_H-M   'P 1'
_cell_length_a   12.78198109
_cell_length_b   12.68429315
_cell_length_c   12.68429302
_cell_angle_alpha   46.49910329
_cell_angle_beta   46.19148209
_cell_angle_gamma   46.19148140
_symmetry_Int_Tables_number   1
_chemical_formula_structural   Li3H24Ru(ClO2)6
_chemical_formula_sum   'Li6 H48 Ru2 Cl12 O24'
_cell_volume   980.83983154
_cell_formula_units_Z   2
loop_
 _symmetry_equiv_pos_site_id
 _symmetry_equiv_pos_as_xyz
  1  'x, y, z'
loop_
 _atom_site_type_symbol
 _atom_site_label
 _atom_site_symmetry_multiplicity
 _atom_site_fract_x
 _atom_site_fract_y
 _atom_site_fract_z
 _atom_site_occupancy
  Li  Li0  1  0.16483183  0.16485675  0.16442379  1
  Li  Li1  1  0.66483183  0.66442379  0.66485675  1
  Li  Li2  1  0.83517595  0.83513665  0.83556764  1
  Li  Li3  1  0.33517595  0.33556764  0.33513665  1
  Li  Li4  1  0.24999554  0.24986873  0.25013043  1
  Li  Li5  1  0.74999554  0.75013043  0.74986873  1
  H  H0  1  0.84531090  0.28794979  0.27442505  1
  H  H1  1  0.28653168  0.27447252  0.84364876  1
  H  H2  1  0.27274980  0.84397071  0.28846663  1
  H  H3  1  0.34531090  0.77442505  0.78794979  1
  H  H4  1  0.77274980  0.78846663  0.34397071  1
  H  H5  1  0.78653168  0.34364876  0.77447252  1
  H  H6  1  0.15468501  0.71205527  0.72557395  1
  H  H7  1  0.71347204  0.72552058  0.15635032  1
  H  H8  1  0.72723932  0.15602852  0.71153951  1
  H  H9  1  0.65468501  0.22557395  0.21205527  1
  H  H10  1  0.22723932  0.21153951  0.65602852  1
  H  H11  1  0.21347204  0.65635032  0.22552058  1
  H  H12  1  0.92659595  0.22440800  0.15397444  1
  H  H13  1  0.22658123  0.15266528  0.92485027  1
  H  H14  1  0.15650837  0.92381651  0.22351230  1
  H  H15  1  0.42659595  0.65397444  0.72440800  1
  H  H16  1  0.65650837  0.72351230  0.42381651  1
  H  H17  1  0.72658123  0.42485027  0.65266528  1
  H  H18  1  0.07339791  0.77560055  0.84602184  1
  H  H19  1  0.77342653  0.84732716  0.07514149  1
  H  H20  1  0.84348608  0.07618425  0.77648786  1
  H  H21  1  0.57339791  0.34602184  0.27560055  1
  H  H22  1  0.34348608  0.27648786  0.57618425  1
  H  H23  1  0.27342653  0.57514149  0.34732716  1
  H  H24  1  0.43981381  0.16247356  0.01120796  1
  H  H25  1  0.16180148  0.01109972  0.44133639  1
  H  H26  1  0.01137559  0.44123200  0.16302166  1
  H  H27  1  0.93981381  0.51120796  0.66247356  1
  H  H28  1  0.51137559  0.66302166  0.94123200  1
  H  H29  1  0.66180148  0.94133639  0.51109972  1
  H  H30  1  0.56019301  0.83751899  0.98878940  1
  H  H31  1  0.83819977  0.98889673  0.55866118  1
  H  H32  1  0.98862257  0.55877820  0.83695655  1
  H  H33  1  0.06019301  0.48878940  0.33751899  1
  H  H34  1  0.48862257  0.33695655  0.05877820  1
  H  H35  1  0.33819977  0.05866118  0.48889673  1
  H  H36  1  0.47935398  0.99652221  0.14815064  1
  H  H37  1  0.99663422  0.14852332  0.47969467  1
  H  H38  1  0.14701767  0.48002269  0.99660372  1
  H  H39  1  0.97935398  0.64815064  0.49652221  1
  H  H40  1  0.64701767  0.49660372  0.98002269  1
  H  H41  1  0.49663422  0.97969467  0.64852332  1
  H  H42  1  0.52064555  0.00347243  0.85185199  1
  H  H43  1  0.00336423  0.85147004  0.52030655  1
  H  H44  1  0.85300750  0.51995566  0.00339046  1
  H  H45  1  0.02064555  0.35185199  0.50347243  1
  H  H46  1  0.35300750  0.50339046  0.01995566  1
  H  H47  1  0.50336423  0.02030655  0.35147004  1
  Ru  Ru0  1  0.49998786  0.50000383  0.50001020  1
  Ru  Ru1  1  0.99998786  0.00001020  0.00000383  1
  Cl  Cl0  1  0.49475430  0.37706784  0.75380925  1
  Cl  Cl1  1  0.37795947  0.75454832  0.49323581  1
  Cl  Cl2  1  0.75105006  0.49505375  0.37839693  1
  Cl  Cl3  1  0.99475430  0.25380925  0.87706784  1
  Cl  Cl4  1  0.25105006  0.87839693  0.99505375  1
  Cl  Cl5  1  0.87795947  0.99323581  0.25454832  1
  Cl  Cl6  1  0.50521182  0.62294036  0.24621879  1
  Cl  Cl7  1  0.62202027  0.24545861  0.50678136  1
  Cl  Cl8  1  0.24892649  0.50493749  0.62163556  1
  Cl  Cl9  1  0.00521182  0.74621879  0.12294036  1
  Cl  Cl10  1  0.74892649  0.12163556  0.00493749  1
  Cl  Cl11  1  0.12202027  0.00678136  0.74545861  1
  O  O0  1  0.93293036  0.28541102  0.16951523  1
  O  O1  1  0.28516023  0.17010158  0.93171540  1
  O  O2  1  0.16902431  0.93230893  0.28525541  1
  O  O3  1  0.43293036  0.66951523  0.78541102  1
  O  O4  1  0.66902431  0.78525541  0.43230893  1
  O  O5  1  0.78516023  0.43171540  0.67010158  1
  O  O6  1  0.06705726  0.71460470  0.83047823  1
  O  O7  1  0.71483835  0.82989310  0.06828587  1
  O  O8  1  0.83096466  0.06768910  0.71475108  1
  O  O9  1  0.56705726  0.33047823  0.21460470  1
  O  O10  1  0.33096466  0.21475108  0.56768910  1
  O  O11  1  0.21483835  0.56828587  0.32989310  1
  O  O12  1  0.39342257  0.10364781  0.12662981  1
  O  O13  1  0.10400775  0.12672718  0.39401140  1
  O  O14  1  0.12675308  0.39417066  0.10352673  1
  O  O15  1  0.89342257  0.62662981  0.60364781  1
  O  O16  1  0.62675308  0.60352673  0.89417066  1
  O  O17  1  0.60400775  0.89401140  0.62672718  1
  O  O18  1  0.60657710  0.89634616  0.87336801  1
  O  O19  1  0.89598963  0.87326895  0.60598746  1
  O  O20  1  0.87324693  0.60582270  0.89647311  1
  O  O21  1  0.10657710  0.37336801  0.39634616  1
  O  O22  1  0.37324693  0.39647311  0.10582270  1
  O  O23  1  0.39598963  0.10598746  0.37326895  1
loop_
_geom_bond_atom_site_label_1
_geom_bond_atom_site_label_2
_geom_bond_distance
_geom_bond_site_symmetry_2
Li0 O1 2.160694 1_554
Li0 O2 2.173357 1_545
Li0 O0 2.173521 1_455
Li0 O14 2.182029 1_555
Li0 O13 2.183101 1_555
Li0 O12 2.191385 1_555
Li1 O5 2.160694 1_555
Li1 O4 2.173357 1_555
Li1 O3 2.173521 1_555
Li1 O16 2.182029 1_555
Li1 O17 2.183101 1_555
Li1 O15 2.191385 1_555
Li2 O7 2.160782 1_556
Li2 O8 2.173345 1_565
Li2 O6 2.173374 1_655
Li2 O20 2.182031 1_555
Li2 O19 2.183052 1_555
Li2 O18 2.191442 1_555
Li3 O11 2.160782 1_555
Li3 O10 2.173345 1_555
Li3 O9 2.173374 1_555
Li3 O22 2.182031 1_555
Li3 O23 2.183052 1_555
Li3 O21 2.191442 1_555
Li4 O21 2.137991 1_555
Li4 O12 2.138027 1_555
Li4 O13 2.155989 1_555
Li4 O23 2.156022 1_555
Li4 O14 2.160429 1_555
Li4 O22 2.160502 1_555
Li5 O18 2.137991 1_555
Li5 O15 2.138027 1_555
Li5 O17 2.155988 1_555
Li5 O19 2.156022 1_555
Li5 O16 2.160429 1_555
Li5 O20 2.160502 1_555
H0 O0 0.985806 1_555
H1 O1 0.984792 1_555
H2 O2 0.984948 1_555
H3 O3 0.985806 1_555
H4 O4 0.984948 1_555
H5 O5 0.984792 1_555
H6 O6 0.985807 1_555
H7 O7 0.984787 1_555
H8 O8 0.984950 1_555
H9 O9 0.985807 1_555
H10 O10 0.984950 1_555
H11 O11 0.984787 1_555
H12 O0 0.981315 1_555
H13 O1 0.981423 1_555
H14 O2 0.981844 1_555
H15 O3 0.981315 1_555
H16 O4 0.981844 1_555
H17 O5 0.981423 1_555
H18 O6 0.981315 1_555
H19 O7 0.981422 1_555
H20 O8 0.981847 1_555
H21 O9 0.981315 1_555
H22 O10 0.981847 1_555
H23 O11 0.981422 1_555
H24 O12 0.979019 1_555
H25 O13 0.979258 1_555
H26 O14 0.980433 1_555
H27 O15 0.979019 1_555
H28 O16 0.980433 1_555
H29 O17 0.979258 1_555
H30 O18 0.979010 1_555
H31 O19 0.979255 1_555
H32 O20 0.980440 1_555
H33 O21 0.979010 1_555
H34 O22 0.980440 1_555
H35 O23 0.979255 1_555
H36 O12 0.982558 1_565
H37 O13 0.982060 1_655
H38 O14 0.981422 1_556
H39 O15 0.982558 1_555
H40 O16 0.981422 1_555
H41 O17 0.982059 1_555
H42 O18 0.982556 1_545
H43 O19 0.982058 1_455
H44 O20 0.981432 1_554
H45 O21 0.982556 1_555
H46 O22 0.981432 1_555
H47 O23 0.982058 1_555
Cl0 Ru0 2.394748 1_555
Cl1 Ru0 2.386643 1_555
Cl2 Ru0 2.383777 1_555
Cl3 Ru1 2.394748 1_556
Cl4 Ru1 2.383777 1_466
Cl5 Ru1 2.386643 1_565
Cl6 Ru0 2.394716 1_555
Cl7 Ru0 2.386656 1_555
Cl8 Ru0 2.383823 1_555
Cl9 Ru1 2.394717 1_465
Cl10 Ru1 2.383823 1_555
Cl11 Ru1 2.386656 1_456
