# generated using pymatgen
data_Ho5Bi2Pd
_symmetry_space_group_name_H-M   'P 1'
_cell_length_a   8.02565300
_cell_length_b   9.04951600
_cell_length_c   12.29774100
_cell_angle_alpha   90.00000000
_cell_angle_beta   90.00000000
_cell_angle_gamma   90.00000000
_symmetry_Int_Tables_number   1
_chemical_formula_structural   Ho5Bi2Pd
_chemical_formula_sum   'Ho20 Bi8 Pd4'
_cell_volume   893.16371810
_cell_formula_units_Z   4
loop_
 _symmetry_equiv_pos_site_id
 _symmetry_equiv_pos_as_xyz
  1  'x, y, z'
loop_
 _atom_site_type_symbol
 _atom_site_label
 _atom_site_symmetry_multiplicity
 _atom_site_fract_x
 _atom_site_fract_y
 _atom_site_fract_z
 _atom_site_occupancy
  Ho  Ho0  1  0.16606600  0.75000000  0.21281600  1
  Ho  Ho1  1  0.33393400  0.75000000  0.71281600  1
  Ho  Ho2  1  0.83393400  0.25000000  0.78718400  1
  Ho  Ho3  1  0.66606600  0.25000000  0.28718400  1
  Ho  Ho4  1  0.45912100  0.75000000  0.00018700  1
  Ho  Ho5  1  0.04087900  0.75000000  0.50018700  1
  Ho  Ho6  1  0.54087900  0.25000000  0.99981300  1
  Ho  Ho7  1  0.95912100  0.25000000  0.49981300  1
  Ho  Ho8  1  0.63062900  0.75000000  0.30282400  1
  Ho  Ho9  1  0.86937100  0.75000000  0.80282400  1
  Ho  Ho10  1  0.36937100  0.25000000  0.69717600  1
  Ho  Ho11  1  0.13062900  0.25000000  0.19717600  1
  Ho  Ho12  1  0.82131600  0.55074000  0.06687500  1
  Ho  Ho13  1  0.67868400  0.94926000  0.56687500  1
  Ho  Ho14  1  0.17868400  0.05074000  0.93312500  1
  Ho  Ho15  1  0.32131600  0.44926000  0.43312500  1
  Ho  Ho16  1  0.17868400  0.44926000  0.93312500  1
  Ho  Ho17  1  0.32131600  0.05074000  0.43312500  1
  Ho  Ho18  1  0.82131600  0.94926000  0.06687500  1
  Ho  Ho19  1  0.67868400  0.55074000  0.56687500  1
  Bi  Bi0  1  0.93207700  0.50833800  0.32667500  1
  Bi  Bi1  1  0.56792300  0.99166200  0.82667500  1
  Bi  Bi2  1  0.06792300  0.00833800  0.67332500  1
  Bi  Bi3  1  0.43207700  0.49166200  0.17332500  1
  Bi  Bi4  1  0.06792300  0.49166200  0.67332500  1
  Bi  Bi5  1  0.43207700  0.00833800  0.17332500  1
  Bi  Bi6  1  0.93207700  0.99166200  0.32667500  1
  Bi  Bi7  1  0.56792300  0.50833800  0.82667500  1
  Pd  Pd0  1  0.41245100  0.75000000  0.48586600  1
  Pd  Pd1  1  0.08754900  0.75000000  0.98586600  1
  Pd  Pd2  1  0.58754900  0.25000000  0.51413400  1
  Pd  Pd3  1  0.91245100  0.25000000  0.01413400  1
loop_
_geom_bond_atom_site_label_1
_geom_bond_atom_site_label_2
_geom_bond_distance
_geom_bond_site_symmetry_2
Ho0 Pd1 2.861226 1_554
Ho1 Pd0 2.861226 1_555
Ho2 Pd3 2.861226 1_556
Ho3 Pd2 2.861226 1_555
Ho4 Pd1 2.987304 1_554
Ho5 Pd0 2.987304 1_555
Ho6 Pd3 2.987304 1_556
Ho7 Pd2 2.987304 1_555
Ho8 Pd0 2.851857 1_555
Ho9 Pd1 2.851857 1_655
Ho10 Pd2 2.851857 1_555
Ho11 Pd3 2.851857 1_455
Ho12 Pd3 2.891797 1_555
Ho12 Pd1 2.968077 1_654
Ho13 Pd2 2.891797 1_565
Ho13 Pd0 2.968077 1_555
Ho14 Pd1 2.891797 1_545
Ho14 Pd3 2.968077 1_456
Ho15 Pd0 2.891797 1_555
Ho15 Pd2 2.968077 1_555
Ho16 Pd1 2.891797 1_555
Ho16 Pd3 2.968077 1_456
Ho17 Pd0 2.891797 1_545
Ho17 Pd2 2.968077 1_555
Ho18 Pd3 2.891797 1_565
Ho18 Pd1 2.968077 1_654
Ho19 Pd2 2.891797 1_555
Ho19 Pd0 2.968077 1_555
Bi0 Ho7 3.169558 1_555
Bi0 Ho5 3.177775 1_655
Bi0 Ho3 3.202994 1_555
Bi0 Ho0 3.204650 1_655
Bi0 Ho11 3.246681 1_655
Bi0 Ho8 3.274411 1_555
Bi0 Ho12 3.338437 1_555
Bi0 Ho15 3.429036 1_655
Bi0 Ho19 3.606740 1_555
Bi1 Ho6 3.169558 1_565
Bi1 Ho4 3.177775 1_556
Bi1 Ho2 3.202994 1_565
Bi1 Ho1 3.204650 1_555
Bi1 Ho10 3.246681 1_565
Bi1 Ho9 3.274411 1_555
Bi1 Ho13 3.338437 1_555
Bi1 Ho14 3.429036 1_565
Bi1 Ho18 3.606740 1_556
Bi2 Ho5 3.169558 1_545
Bi2 Ho7 3.177775 1_455
Bi2 Ho1 3.202994 1_545
Bi2 Ho2 3.204650 1_455
Bi2 Ho9 3.246681 1_445
Bi2 Ho10 3.274411 1_555
Bi2 Ho14 3.338437 1_555
Bi2 Ho13 3.429036 1_445
Bi2 Ho17 3.606740 1_555
Bi3 Ho4 3.169558 1_555
Bi3 Ho6 3.177775 1_554
Bi3 Ho0 3.202994 1_555
Bi3 Ho3 3.204650 1_555
Bi3 Ho8 3.246681 1_555
Bi3 Ho11 3.274411 1_555
Bi3 Ho15 3.338437 1_555
Bi3 Ho12 3.429036 1_555
Bi3 Ho16 3.606740 1_554
Bi4 Ho5 3.169558 1_555
Bi4 Ho7 3.177775 1_455
Bi4 Ho1 3.202994 1_555
Bi4 Ho2 3.204650 1_455
Bi4 Ho9 3.246681 1_455
Bi4 Ho10 3.274411 1_555
Bi4 Ho16 3.338437 1_555
Bi4 Ho19 3.429036 1_455
Bi4 Ho15 3.606740 1_555
Bi5 Ho4 3.169558 1_545
Bi5 Ho6 3.177775 1_554
Bi5 Ho0 3.202994 1_545
Bi5 Ho3 3.204650 1_555
Bi5 Ho8 3.246681 1_545
Bi5 Ho11 3.274411 1_555
Bi5 Ho17 3.338437 1_555
Bi5 Ho18 3.429036 1_545
Bi5 Ho14 3.606740 1_554
Bi6 Ho7 3.169558 1_565
Bi6 Ho5 3.177775 1_655
Bi6 Ho3 3.202994 1_565
Bi6 Ho0 3.204650 1_655
Bi6 Ho11 3.246681 1_665
Bi6 Ho8 3.274411 1_555
Bi6 Ho18 3.338437 1_555
Bi6 Ho17 3.429036 1_665
Bi6 Ho13 3.606740 1_555
Bi7 Ho6 3.169558 1_555
Bi7 Ho4 3.177775 1_556
Bi7 Ho2 3.202994 1_555
Bi7 Ho1 3.204650 1_555
Bi7 Ho10 3.246681 1_555
Bi7 Ho9 3.274411 1_555
Bi7 Ho19 3.338437 1_555
Bi7 Ho16 3.429036 1_555
Bi7 Ho12 3.606740 1_556
