# generated using pymatgen
data_V3FeNi2(PO4)6
_symmetry_space_group_name_H-M   'P 1'
_cell_length_a   8.45598131
_cell_length_b   8.45598131
_cell_length_c   8.45598161
_cell_angle_alpha   61.21984897
_cell_angle_beta   61.21984897
_cell_angle_gamma   61.21984328
_symmetry_Int_Tables_number   1
_chemical_formula_structural   V3FeNi2(PO4)6
_chemical_formula_sum   'V3 Fe1 Ni2 P6 O24'
_cell_volume   439.27018353
_cell_formula_units_Z   1
loop_
 _symmetry_equiv_pos_site_id
 _symmetry_equiv_pos_as_xyz
  1  'x, y, z'
loop_
 _atom_site_type_symbol
 _atom_site_label
 _atom_site_symmetry_multiplicity
 _atom_site_fract_x
 _atom_site_fract_y
 _atom_site_fract_z
 _atom_site_occupancy
  V  V0  1  0.35710400  0.35710400  0.35710400  1
  V  V1  1  0.14197200  0.14197200  0.14197200  1
  V  V2  1  0.64231100  0.64231100  0.64231100  1
  Fe  Fe0  1  0.85645400  0.85645400  0.85645400  1
  Ni  Ni0  1  0.99915700  0.99915700  0.99915700  1
  Ni  Ni1  1  0.49956800  0.49956800  0.49956800  1
  P  P0  1  0.75041500  0.04430200  0.45545700  1
  P  P1  1  0.04430200  0.45545700  0.75041500  1
  P  P2  1  0.45545700  0.75041500  0.04430200  1
  P  P3  1  0.54545400  0.24968500  0.95622900  1
  P  P4  1  0.95622900  0.54545400  0.24968500  1
  P  P5  1  0.24968500  0.95622900  0.54545400  1
  O  O0  1  0.88431200  0.49611600  0.68366900  1
  O  O1  1  0.49611600  0.68366900  0.88431200  1
  O  O2  1  0.68366900  0.88431200  0.49611600  1
  O  O3  1  0.90923000  0.05956700  0.25594000  1
  O  O4  1  0.81591300  0.00743600  0.61165300  1
  O  O5  1  0.58854600  0.24309700  0.43797500  1
  O  O6  1  0.05956700  0.25594000  0.90923000  1
  O  O7  1  0.24309700  0.43797500  0.58854600  1
  O  O8  1  0.38577700  0.18422800  0.99575100  1
  O  O9  1  0.43797500  0.58854600  0.24309700  1
  O  O10  1  0.74218900  0.09178300  0.94463600  1
  O  O11  1  0.99575100  0.38577700  0.18422800  1
  O  O12  1  0.00743600  0.61165300  0.81591300  1
  O  O13  1  0.25594000  0.90923000  0.05956700  1
  O  O14  1  0.55969800  0.41131000  0.75724500  1
  O  O15  1  0.61165300  0.81591300  0.00743600  1
  O  O16  1  0.75724500  0.55969800  0.41131000  1
  O  O17  1  0.94463600  0.74218900  0.09178300  1
  O  O18  1  0.41131000  0.75724500  0.55969800  1
  O  O19  1  0.18422800  0.99575100  0.38577700  1
  O  O20  1  0.09178300  0.94463600  0.74218900  1
  O  O21  1  0.32251400  0.11355700  0.49975800  1
  O  O22  1  0.49975800  0.32251400  0.11355700  1
  O  O23  1  0.11355700  0.49975800  0.32251400  1
loop_
_geom_bond_atom_site_label_1
_geom_bond_atom_site_label_2
_geom_bond_distance
_geom_bond_site_symmetry_2
Fe0 O12 1.936397 1_655
Fe0 O15 1.936397 1_556
Fe0 O4 1.936397 1_565
Fe0 O10 2.081608 1_565
Fe0 O17 2.081608 1_556
Fe0 O20 2.081608 1_655
Ni0 O10 2.127372 1_565
Ni0 O17 2.127372 1_556
Ni0 O20 2.127372 1_655
Ni0 O13 2.158256 1_656
Ni0 O6 2.158256 1_665
Ni0 O3 2.158256 1_566
Ni1 O5 2.163280 1_555
Ni1 O7 2.163280 1_555
Ni1 O9 2.163280 1_555
Ni1 O18 2.167659 1_555
Ni1 O16 2.167659 1_555
Ni1 O14 2.167659 1_555
O0 P1 1.538679 1_655
O0 V2 1.917039 1_555
O1 P2 1.538679 1_556
O1 V2 1.917039 1_555
O2 P0 1.538679 1_565
O2 V2 1.917039 1_555
O3 P0 1.562716 1_555
O3 V1 2.033510 1_655
O4 P0 1.513302 1_555
O5 P0 1.568810 1_555
O5 V0 2.016016 1_555
O6 P1 1.562716 1_555
O6 V1 2.033510 1_556
O7 P1 1.568810 1_555
O7 V0 2.016016 1_555
O8 P3 1.532375 1_555
O8 V1 1.932904 1_556
O9 P2 1.568810 1_555
O9 V0 2.016016 1_555
O10 P3 1.545994 1_555
O11 P4 1.532375 1_555
O11 V1 1.932904 1_655
O12 P1 1.513302 1_555
O13 P2 1.562716 1_555
O13 V1 2.033510 1_565
O14 P3 1.569266 1_555
O14 V2 2.019975 1_555
O15 P2 1.513302 1_555
O16 P4 1.569266 1_555
O16 V2 2.019975 1_555
O17 P4 1.545994 1_555
O18 P5 1.569265 1_555
O18 V2 2.019975 1_555
O19 P5 1.532375 1_555
O19 V1 1.932904 1_565
O20 P5 1.545994 1_555
O21 P5 1.537273 1_545
O21 V0 1.905285 1_555
O22 P3 1.537273 1_554
O22 V0 1.905285 1_555
O23 P4 1.537273 1_455
O23 V0 1.905285 1_555
