# generated using pymatgen
data_Mg14CrCdO16
_symmetry_space_group_name_H-M   'P 1'
_cell_length_a   8.69811454
_cell_length_b   8.58729918
_cell_length_c   4.31165015
_cell_angle_alpha   90.00000000
_cell_angle_beta   90.00000000
_cell_angle_gamma   90.00000000
_symmetry_Int_Tables_number   1
_chemical_formula_structural   Mg14CrCdO16
_chemical_formula_sum   'Mg14 Cr1 Cd1 O16'
_cell_volume   322.05142927
_cell_formula_units_Z   1
loop_
 _symmetry_equiv_pos_site_id
 _symmetry_equiv_pos_as_xyz
  1  'x, y, z'
loop_
 _atom_site_type_symbol
 _atom_site_label
 _atom_site_symmetry_multiplicity
 _atom_site_fract_x
 _atom_site_fract_y
 _atom_site_fract_z
 _atom_site_occupancy
  Mg  Mg0  1  0.50000000  0.00000000  0.00000000  1
  Mg  Mg1  1  0.50000000  0.50000000  0.00000000  1
  Mg  Mg2  1  0.00000000  0.24560993  0.50000000  1
  Mg  Mg3  1  0.00000000  0.75439007  0.50000000  1
  Mg  Mg4  1  0.50000000  0.24874037  0.50000000  1
  Mg  Mg5  1  0.50000000  0.75125963  0.50000000  1
  Mg  Mg6  1  0.25290974  0.00000000  0.50000000  1
  Mg  Mg7  1  0.25581598  0.50000000  0.50000000  1
  Mg  Mg8  1  0.74709026  0.00000000  0.50000000  1
  Mg  Mg9  1  0.74418402  0.50000000  0.50000000  1
  Mg  Mg10  1  0.25474241  0.24683727  0.00000000  1
  Mg  Mg11  1  0.25474241  0.75316273  0.00000000  1
  Mg  Mg12  1  0.74525759  0.24683727  0.00000000  1
  Mg  Mg13  1  0.74525759  0.75316273  0.00000000  1
  Cr  Cr0  1  0.00000000  0.00000000  0.00000000  1
  Cd  Cd0  1  0.00000000  0.50000000  0.00000000  1
  O  O0  1  0.26479509  0.00000000  0.00000000  1
  O  O1  1  0.26469706  0.50000000  0.00000000  1
  O  O2  1  0.73520491  0.00000000  0.00000000  1
  O  O3  1  0.73530294  0.50000000  0.00000000  1
  O  O4  1  0.24845774  0.25028400  0.50000000  1
  O  O5  1  0.24845774  0.74971600  0.50000000  1
  O  O6  1  0.75154226  0.25028400  0.50000000  1
  O  O7  1  0.75154226  0.74971600  0.50000000  1
  O  O8  1  0.00000000  0.00000000  0.50000000  1
  O  O9  1  0.00000000  0.50000000  0.50000000  1
  O  O10  1  0.50000000  0.00000000  0.50000000  1
  O  O11  1  0.50000000  0.50000000  0.50000000  1
  O  O12  1  0.00000000  0.23650379  0.00000000  1
  O  O13  1  0.00000000  0.76349621  0.00000000  1
  O  O14  1  0.50000000  0.25004644  0.00000000  1
  O  O15  1  0.50000000  0.74995356  0.00000000  1
loop_
_geom_bond_atom_site_label_1
_geom_bond_atom_site_label_2
_geom_bond_distance
_geom_bond_site_symmetry_2
Mg0 O2 2.045839 1_555
Mg0 O0 2.045839 1_555
Mg0 O14 2.147224 1_555
Mg0 O15 2.147224 1_545
Mg0 O10 2.155825 1_554
Mg0 O10 2.155825 1_555
Mg1 O3 2.046692 1_555
Mg1 O1 2.046692 1_555
Mg1 O15 2.146426 1_555
Mg1 O14 2.146426 1_555
Mg1 O11 2.155825 1_554
Mg1 O11 2.155825 1_555
Mg2 O8 2.109126 1_555
Mg2 O12 2.157243 1_555
Mg2 O12 2.157243 1_556
Mg2 O4 2.161487 1_555
Mg2 O6 2.161487 1_455
Mg2 O9 2.184524 1_555
Mg3 O8 2.109126 1_565
Mg3 O13 2.157243 1_555
Mg3 O13 2.157243 1_556
Mg3 O7 2.161487 1_455
Mg3 O5 2.161487 1_555
Mg3 O9 2.184524 1_555
Mg4 O10 2.136008 1_555
Mg4 O14 2.155854 1_555
Mg4 O14 2.155854 1_556
Mg4 O11 2.157642 1_555
Mg4 O6 2.187984 1_555
Mg4 O4 2.187984 1_555
Mg5 O10 2.136008 1_565
Mg5 O15 2.155854 1_556
Mg5 O15 2.155854 1_555
Mg5 O11 2.157642 1_555
Mg5 O5 2.187984 1_555
Mg5 O7 2.187984 1_555
Mg6 O10 2.149219 1_555
Mg6 O5 2.149612 1_545
Mg6 O4 2.149612 1_555
Mg6 O0 2.158302 1_555
Mg6 O0 2.158302 1_556
Mg6 O8 2.199838 1_555
Mg7 O11 2.123941 1_555
Mg7 O4 2.145341 1_555
Mg7 O5 2.145341 1_555
Mg7 O1 2.157209 1_555
Mg7 O1 2.157209 1_556
Mg7 O9 2.225117 1_555
Mg8 O10 2.149219 1_555
Mg8 O7 2.149612 1_545
Mg8 O6 2.149612 1_555
Mg8 O2 2.158302 1_555
Mg8 O2 2.158302 1_556
Mg8 O8 2.199838 1_655
Mg9 O11 2.123941 1_555
Mg9 O6 2.145341 1_555
Mg9 O7 2.145341 1_555
Mg9 O3 2.157209 1_556
Mg9 O3 2.157209 1_555
Mg9 O9 2.225117 1_655
Mg10 O0 2.121468 1_555
Mg10 O14 2.133457 1_555
Mg10 O4 2.156721 1_554
Mg10 O4 2.156721 1_555
Mg10 O1 2.175708 1_555
Mg10 O12 2.217555 1_555
Mg11 O0 2.121468 1_565
Mg11 O15 2.133457 1_555
Mg11 O5 2.156721 1_554
Mg11 O5 2.156721 1_555
Mg11 O1 2.175708 1_555
Mg11 O13 2.217555 1_555
Mg12 O2 2.121468 1_555
Mg12 O14 2.133457 1_555
Mg12 O6 2.156721 1_554
Mg12 O6 2.156721 1_555
Mg12 O3 2.175708 1_555
Mg12 O12 2.217555 1_655
Mg13 O2 2.121468 1_565
Mg13 O15 2.133457 1_555
Mg13 O7 2.156721 1_554
Mg13 O7 2.156721 1_555
Mg13 O3 2.175708 1_555
Mg13 O13 2.217555 1_655
Cr0 O13 2.030929 1_545
Cr0 O12 2.030929 1_555
Cr0 O8 2.155825 1_554
Cr0 O8 2.155825 1_555
Cr0 O0 2.303218 1_555
Cr0 O2 2.303218 1_455
Cd0 O9 2.155825 1_554
Cd0 O9 2.155825 1_555
Cd0 O12 2.262721 1_555
Cd0 O13 2.262721 1_555
Cd0 O1 2.302365 1_555
Cd0 O3 2.302365 1_455
