# generated using pymatgen
data_Sm3Bi4Au3
_symmetry_space_group_name_H-M   'P 1'
_cell_length_a   8.83634648
_cell_length_b   8.83634648
_cell_length_c   8.83634648
_cell_angle_alpha   109.47122063
_cell_angle_beta   109.47122063
_cell_angle_gamma   109.47122063
_symmetry_Int_Tables_number   1
_chemical_formula_structural   Sm3Bi4Au3
_chemical_formula_sum   'Sm6 Bi8 Au6'
_cell_volume   531.12448037
_cell_formula_units_Z   2
loop_
 _symmetry_equiv_pos_site_id
 _symmetry_equiv_pos_as_xyz
  1  'x, y, z'
loop_
 _atom_site_type_symbol
 _atom_site_label
 _atom_site_symmetry_multiplicity
 _atom_site_fract_x
 _atom_site_fract_y
 _atom_site_fract_z
 _atom_site_occupancy
  Sm  Sm0  1  0.87500000  0.25000000  0.12500000  1
  Sm  Sm1  1  0.62500000  0.75000000  0.37500000  1
  Sm  Sm2  1  0.25000000  0.12500000  0.87500000  1
  Sm  Sm3  1  0.75000000  0.37500000  0.62500000  1
  Sm  Sm4  1  0.12500000  0.87500000  0.25000000  1
  Sm  Sm5  1  0.37500000  0.62500000  0.75000000  1
  Bi  Bi0  1  0.67825289  0.50000000  0.00000000  1
  Bi  Bi1  1  0.50000000  -0.00000000  0.67825289  1
  Bi  Bi2  1  0.00000000  0.67825289  0.50000000  1
  Bi  Bi3  1  0.82174711  0.82174711  0.82174711  1
  Bi  Bi4  1  0.50000000  -0.00000000  0.17825289  1
  Bi  Bi5  1  0.17825289  0.50000000  0.00000000  1
  Bi  Bi6  1  0.00000000  0.17825289  0.50000000  1
  Bi  Bi7  1  0.32174711  0.32174711  0.32174711  1
  Au  Au0  1  0.37500000  0.25000000  0.62500000  1
  Au  Au1  1  0.12500000  0.75000000  0.87500000  1
  Au  Au2  1  0.25000000  0.62500000  0.37500000  1
  Au  Au3  1  0.75000000  0.87500000  0.12500000  1
  Au  Au4  1  0.62500000  0.37500000  0.25000000  1
  Au  Au5  1  0.87500000  0.12500000  0.75000000  1
loop_
_geom_bond_atom_site_label_1
_geom_bond_atom_site_label_2
_geom_bond_distance
_geom_bond_site_symmetry_2
Bi0 Sm4 3.468346 1_655
Bi0 Sm3 3.468346 1_554
Bi0 Sm0 3.468346 1_555
Bi0 Sm5 3.596399 1_554
Bi0 Sm2 3.596399 1_554
Bi0 Sm1 3.596399 1_555
Bi1 Sm2 3.468346 1_555
Bi1 Sm5 3.468346 1_545
Bi1 Sm0 3.468346 1_556
Bi1 Sm4 3.596399 1_545
Bi1 Sm1 3.596399 1_545
Bi1 Sm3 3.596399 1_555
Bi2 Sm1 3.468346 1_455
Bi2 Sm4 3.468346 1_555
Bi2 Sm2 3.468346 1_565
Bi2 Sm0 3.596399 1_455
Bi2 Sm5 3.596399 1_555
Bi2 Sm3 3.596399 1_455
Bi3 Sm5 3.468346 1_555
Bi3 Sm3 3.468346 1_555
Bi3 Sm1 3.468346 1_555
Bi3 Sm0 3.596399 1_566
Bi3 Sm4 3.596399 1_656
Bi3 Sm2 3.596399 1_665
Bi4 Sm4 3.468346 1_545
Bi4 Sm1 3.468346 1_545
Bi4 Sm3 3.468346 1_555
Bi4 Sm5 3.596399 1_544
Bi4 Sm0 3.596399 1_555
Bi4 Sm2 3.596399 1_554
Bi5 Sm1 3.468346 1_555
Bi5 Sm2 3.468346 1_554
Bi5 Sm5 3.468346 1_554
Bi5 Sm4 3.596399 1_555
Bi5 Sm3 3.596399 1_454
Bi5 Sm0 3.596399 1_455
Bi6 Sm3 3.468346 1_455
Bi6 Sm5 3.468346 1_555
Bi6 Sm0 3.468346 1_455
Bi6 Sm1 3.596399 1_445
Bi6 Sm4 3.596399 1_545
Bi6 Sm2 3.596399 1_555
Bi7 Sm0 3.468346 1_455
Bi7 Sm2 3.468346 1_554
Bi7 Sm4 3.468346 1_545
Bi7 Sm3 3.596399 1_555
Bi7 Sm5 3.596399 1_555
Bi7 Sm1 3.596399 1_555
Au0 Bi6 2.880052 1_555
Au0 Bi1 2.880052 1_555
Au0 Bi7 2.880052 1_555
Au0 Bi0 2.880052 1_556
Au0 Sm5 3.124120 1_555
Au0 Sm3 3.124120 1_555
Au0 Sm2 3.124120 1_555
Au0 Sm4 3.124120 1_545
Au1 Bi4 2.880052 1_566
Au1 Bi2 2.880052 1_555
Au1 Bi5 2.880052 1_556
Au1 Bi3 2.880052 1_455
Au1 Sm3 3.124120 1_455
Au1 Sm5 3.124120 1_555
Au1 Sm4 3.124120 1_556
Au1 Sm2 3.124120 1_565
Au2 Bi2 2.880052 1_555
Au2 Bi5 2.880052 1_555
Au2 Bi1 2.880052 1_565
Au2 Bi7 2.880052 1_555
Au2 Sm4 3.124120 1_555
Au2 Sm0 3.124120 1_455
Au2 Sm1 3.124120 1_555
Au2 Sm5 3.124120 1_555
Au3 Bi0 2.880052 1_555
Au3 Bi4 2.880052 1_565
Au3 Bi6 2.880052 1_665
Au3 Bi3 2.880052 1_554
Au3 Sm4 3.124120 1_655
Au3 Sm1 3.124120 1_555
Au3 Sm0 3.124120 1_565
Au3 Sm5 3.124120 1_554
Au4 Bi2 2.880052 1_655
Au4 Bi4 2.880052 1_555
Au4 Bi7 2.880052 1_555
Au4 Bi0 2.880052 1_555
Au4 Sm1 3.124120 1_555
Au4 Sm3 3.124120 1_555
Au4 Sm0 3.124120 1_555
Au4 Sm2 3.124120 1_554
Au5 Bi5 2.880052 1_656
Au5 Bi1 2.880052 1_555
Au5 Bi6 2.880052 1_655
Au5 Bi3 2.880052 1_545
Au5 Sm2 3.124120 1_655
Au5 Sm3 3.124120 1_555
Au5 Sm1 3.124120 1_545
Au5 Sm0 3.124120 1_556
