# generated using pymatgen
data_Mg3Hg
_symmetry_space_group_name_H-M   'P 1'
_cell_length_a   6.24893357
_cell_length_b   6.24893357
_cell_length_c   4.86706011
_cell_angle_alpha   90.00000000
_cell_angle_beta   90.00000000
_cell_angle_gamma   119.99999739
_symmetry_Int_Tables_number   1
_chemical_formula_structural   Mg3Hg
_chemical_formula_sum   'Mg6 Hg2'
_cell_volume   164.59216934
_cell_formula_units_Z   2
loop_
 _symmetry_equiv_pos_site_id
 _symmetry_equiv_pos_as_xyz
  1  'x, y, z'
loop_
 _atom_site_type_symbol
 _atom_site_label
 _atom_site_symmetry_multiplicity
 _atom_site_fract_x
 _atom_site_fract_y
 _atom_site_fract_z
 _atom_site_occupancy
  Mg  Mg0  1  0.16822974  0.33645849  0.25000000  1
  Mg  Mg1  1  0.16822974  0.83177026  0.25000000  1
  Mg  Mg2  1  0.66354151  0.83177026  0.25000000  1
  Mg  Mg3  1  0.33645849  0.16822974  0.75000000  1
  Mg  Mg4  1  0.83177026  0.16822974  0.75000000  1
  Mg  Mg5  1  0.83177026  0.66354151  0.75000000  1
  Hg  Hg0  1  0.66666700  0.33333300  0.25000000  1
  Hg  Hg1  1  0.33333300  0.66666700  0.75000000  1
loop_
_geom_bond_atom_site_label_1
_geom_bond_atom_site_label_2
_geom_bond_distance
_geom_bond_site_symmetry_2
Mg0 Mg3 3.039317 1_555
Mg0 Mg3 3.039317 1_554
Mg0 Mg4 3.039324 1_455
Mg0 Mg4 3.039324 1_454
Mg0 Mg1 3.095170 1_555
Mg0 Mg2 3.095170 1_555
Mg0 Mg1 3.153763 1_545
Mg0 Mg2 3.153763 1_445
Mg1 Mg5 3.039324 1_455
Mg1 Mg5 3.039324 1_454
Mg1 Mg3 3.039324 1_565
Mg1 Mg3 3.039324 1_564
Mg1 Mg2 3.095170 1_555
Mg1 Mg2 3.153763 1_455
Mg2 Mg5 3.039317 1_555
Mg2 Mg5 3.039317 1_554
Mg2 Mg4 3.039324 1_564
Mg2 Mg4 3.039324 1_565
Mg3 Mg4 3.095170 1_555
Mg3 Mg5 3.095170 1_555
Mg3 Mg4 3.153763 1_455
Mg3 Mg5 3.153763 1_445
Mg4 Mg5 3.095170 1_555
Mg4 Mg5 3.153763 1_545
Hg0 Mg4 3.019173 1_554
Hg0 Mg4 3.019173 1_555
Hg0 Mg3 3.019179 1_555
Hg0 Mg3 3.019179 1_554
Hg0 Mg5 3.019179 1_554
Hg0 Mg5 3.019179 1_555
Hg0 Mg2 3.124513 1_545
Hg0 Mg0 3.124513 1_655
Hg0 Mg2 3.124513 1_555
Hg0 Mg0 3.124513 1_555
Hg0 Mg1 3.124513 1_545
Hg0 Mg1 3.124513 1_655
Hg1 Mg1 3.019173 1_556
Hg1 Mg1 3.019173 1_555
Hg1 Mg2 3.019179 1_555
Hg1 Mg0 3.019179 1_555
Hg1 Mg0 3.019179 1_556
Hg1 Mg2 3.019179 1_556
Hg1 Mg5 3.124513 1_455
Hg1 Mg3 3.124513 1_565
Hg1 Mg5 3.124513 1_555
Hg1 Mg3 3.124513 1_555
Hg1 Mg4 3.124513 1_455
Hg1 Mg4 3.124513 1_565
