# generated using pymatgen
data_Sr3(NbN2)2
_symmetry_space_group_name_H-M   'P 1'
_cell_length_a   6.15832400
_cell_length_b   10.80419200
_cell_length_c   9.97470100
_cell_angle_alpha   90.00000000
_cell_angle_beta   90.00000000
_cell_angle_gamma   90.00000000
_symmetry_Int_Tables_number   1
_chemical_formula_structural   Sr3(NbN2)2
_chemical_formula_sum   'Sr12 Nb8 N16'
_cell_volume   663.67386189
_cell_formula_units_Z   4
loop_
 _symmetry_equiv_pos_site_id
 _symmetry_equiv_pos_as_xyz
  1  'x, y, z'
loop_
 _atom_site_type_symbol
 _atom_site_label
 _atom_site_symmetry_multiplicity
 _atom_site_fract_x
 _atom_site_fract_y
 _atom_site_fract_z
 _atom_site_occupancy
  Sr  Sr0  1  0.61430400  0.15782300  0.42095200  1
  Sr  Sr1  1  0.88569600  0.84217700  0.42095200  1
  Sr  Sr2  1  0.61430400  0.34217700  0.07904800  1
  Sr  Sr3  1  0.88569600  0.65782300  0.07904800  1
  Sr  Sr4  1  0.38569600  0.84217700  0.57904800  1
  Sr  Sr5  1  0.11430400  0.15782300  0.57904800  1
  Sr  Sr6  1  0.38569600  0.65782300  0.92095200  1
  Sr  Sr7  1  0.11430400  0.34217700  0.92095200  1
  Sr  Sr8  1  0.75000000  0.50000000  0.40039600  1
  Sr  Sr9  1  0.75000000  0.00000000  0.09960400  1
  Sr  Sr10  1  0.25000000  0.50000000  0.59960400  1
  Sr  Sr11  1  0.25000000  0.00000000  0.90039600  1
  Nb  Nb0  1  0.75000000  0.50000000  0.73533000  1
  Nb  Nb1  1  0.75000000  0.00000000  0.76467000  1
  Nb  Nb2  1  0.25000000  0.50000000  0.26467000  1
  Nb  Nb3  1  0.25000000  0.00000000  0.23533000  1
  Nb  Nb4  1  0.61661200  0.25000000  0.75000000  1
  Nb  Nb5  1  0.88338800  0.75000000  0.75000000  1
  Nb  Nb6  1  0.38338800  0.75000000  0.25000000  1
  Nb  Nb7  1  0.11661200  0.25000000  0.25000000  1
  N  N0  1  0.81958300  0.34729600  0.62242000  1
  N  N1  1  0.68041700  0.65270400  0.62242000  1
  N  N2  1  0.81958300  0.15270400  0.87758000  1
  N  N3  1  0.68041700  0.84729600  0.87758000  1
  N  N4  1  0.18041700  0.65270400  0.37758000  1
  N  N5  1  0.31958300  0.34729600  0.37758000  1
  N  N6  1  0.18041700  0.84729600  0.12242000  1
  N  N7  1  0.31958300  0.15270400  0.12242000  1
  N  N8  1  0.50026500  0.42102900  0.83700800  1
  N  N9  1  0.99973500  0.57897100  0.83700800  1
  N  N10  1  0.50026500  0.07897100  0.66299200  1
  N  N11  1  0.99973500  0.92102900  0.66299200  1
  N  N12  1  0.49973500  0.57897100  0.16299200  1
  N  N13  1  0.00026500  0.42102900  0.16299200  1
  N  N14  1  0.49973500  0.92102900  0.33700800  1
  N  N15  1  0.00026500  0.07897100  0.33700800  1
loop_
_geom_bond_atom_site_label_1
_geom_bond_atom_site_label_2
_geom_bond_distance
_geom_bond_site_symmetry_2
N0 Nb0 2.043045 1_555
N0 Nb4 2.070477 1_555
N0 Sr5 2.769832 1_655
N0 Sr8 2.794667 1_555
N0 Sr10 3.130449 1_655
N0 Sr0 3.134835 1_555
N1 Nb0 2.043045 1_555
N1 Nb5 2.070477 1_555
N1 Sr4 2.769832 1_555
N1 Sr8 2.794667 1_555
N1 Sr10 3.130449 1_555
N1 Sr1 3.134835 1_555
N2 Nb1 2.043045 1_555
N2 Nb4 2.070477 1_555
N2 Sr7 2.769832 1_655
N2 Sr9 2.794667 1_556
N2 Sr11 3.130449 1_655
N2 Sr2 3.134835 1_556
N3 Nb1 2.043045 1_565
N3 Nb5 2.070477 1_555
N3 Sr6 2.769832 1_555
N3 Sr9 2.794667 1_566
N3 Sr11 3.130449 1_565
N3 Sr3 3.134835 1_556
N4 Nb2 2.043045 1_555
N4 Nb6 2.070477 1_555
N4 Sr1 2.769832 1_455
N4 Sr10 2.794667 1_555
N4 Sr8 3.130449 1_455
N4 Sr4 3.134835 1_555
N5 Nb2 2.043045 1_555
N5 Nb7 2.070477 1_555
N5 Sr0 2.769832 1_555
N5 Sr10 2.794667 1_555
N5 Sr8 3.130449 1_555
N5 Sr5 3.134835 1_555
N6 Nb3 2.043045 1_565
N6 Nb6 2.070477 1_555
N6 Sr3 2.769832 1_455
N6 Sr11 2.794667 1_564
N6 Sr9 3.130449 1_465
N6 Sr6 3.134835 1_554
N7 Nb3 2.043045 1_555
N7 Nb7 2.070477 1_555
N7 Sr2 2.769832 1_555
N7 Sr11 2.794667 1_554
N7 Sr9 3.130449 1_555
N7 Sr7 3.134835 1_554
N8 Nb0 2.030243 1_555
N8 Nb4 2.163577 1_555
N8 Sr2 2.654756 1_556
N8 Sr7 2.660153 1_555
N8 Sr6 2.782831 1_555
N8 Sr10 2.951424 1_555
N9 Nb0 2.030243 1_555
N9 Nb5 2.163577 1_555
N9 Sr3 2.654756 1_556
N9 Sr6 2.660153 1_655
N9 Sr7 2.782831 1_655
N9 Sr10 2.951424 1_655
N10 Nb1 2.030243 1_555
N10 Nb4 2.163577 1_555
N10 Sr0 2.654756 1_555
N10 Sr5 2.660153 1_555
N10 Sr4 2.782831 1_545
N10 Sr11 2.951424 1_555
N11 Nb1 2.030243 1_565
N11 Nb5 2.163577 1_555
N11 Sr1 2.654756 1_555
N11 Sr4 2.660153 1_655
N11 Sr5 2.782831 1_665
N11 Sr11 2.951424 1_665
N12 Nb2 2.030243 1_555
N12 Nb6 2.163577 1_555
N12 Sr6 2.654756 1_554
N12 Sr3 2.660153 1_555
N12 Sr2 2.782831 1_555
N12 Sr8 2.951424 1_555
N13 Nb2 2.030243 1_555
N13 Nb7 2.163577 1_555
N13 Sr7 2.654756 1_554
N13 Sr2 2.660153 1_455
N13 Sr3 2.782831 1_455
N13 Sr8 2.951424 1_455
N14 Nb3 2.030243 1_565
N14 Nb6 2.163577 1_555
N14 Sr4 2.654756 1_555
N14 Sr1 2.660153 1_555
N14 Sr0 2.782831 1_565
N14 Sr9 2.951424 1_565
N15 Nb3 2.030243 1_555
N15 Nb7 2.163577 1_555
N15 Sr5 2.654756 1_555
N15 Sr0 2.660153 1_455
N15 Sr1 2.782831 1_445
N15 Sr9 2.951424 1_455
