# generated using pymatgen
data_Pr5Mg
_symmetry_space_group_name_H-M   'P 1'
_cell_length_a   6.83537204
_cell_length_b   6.83537204
_cell_length_c   6.83537178
_cell_angle_alpha   55.81059254
_cell_angle_beta   55.81059254
_cell_angle_gamma   55.81059092
_symmetry_Int_Tables_number   1
_chemical_formula_structural   Pr5Mg
_chemical_formula_sum   'Pr5 Mg1'
_cell_volume   203.88841126
_cell_formula_units_Z   1
loop_
 _symmetry_equiv_pos_site_id
 _symmetry_equiv_pos_as_xyz
  1  'x, y, z'
loop_
 _atom_site_type_symbol
 _atom_site_label
 _atom_site_symmetry_multiplicity
 _atom_site_fract_x
 _atom_site_fract_y
 _atom_site_fract_z
 _atom_site_occupancy
  Pr  Pr0  1  0.12101755  0.87898245  0.50000000  1
  Pr  Pr1  1  0.50000000  0.12101755  0.87898245  1
  Pr  Pr2  1  0.87898245  0.50000000  0.12101755  1
  Pr  Pr3  1  0.65505802  0.65505802  0.65505802  1
  Pr  Pr4  1  0.34494198  0.34494198  0.34494198  1
  Mg  Mg0  1  -0.00000000  -0.00000000  0.00000000  1
loop_
_geom_bond_atom_site_label_1
_geom_bond_atom_site_label_2
_geom_bond_distance
_geom_bond_site_symmetry_2
Pr0 Pr1 3.468765 1_465
Pr0 Pr2 3.468765 1_465
Pr0 Pr2 3.468765 1_456
Pr0 Pr1 3.468765 1_564
Pr0 Pr4 3.610667 1_555
Pr0 Pr3 3.610667 1_555
Pr0 Pr3 3.670442 1_455
Pr0 Pr4 3.670442 1_565
Pr1 Pr2 3.468765 1_546
Pr1 Pr2 3.468765 1_456
Pr1 Pr4 3.610667 1_555
Pr1 Pr3 3.610667 1_555
Pr1 Pr4 3.670442 1_556
Pr1 Pr3 3.670442 1_545
Pr2 Pr3 3.610667 1_555
Pr2 Pr4 3.610667 1_555
Pr2 Pr3 3.670442 1_554
Pr2 Pr4 3.670442 1_655
Pr3 Pr4 3.715582 1_556
Pr3 Pr4 3.715582 1_565
Pr3 Pr4 3.715582 1_655
Mg0 Pr0 3.504295 1_545
Mg0 Pr0 3.504295 1_544
Mg0 Pr2 3.504295 1_455
Mg0 Pr1 3.504295 1_454
Mg0 Pr2 3.504295 1_445
Mg0 Pr1 3.504295 1_554
Mg0 Pr4 3.699351 1_545
Mg0 Pr4 3.699351 1_455
Mg0 Pr3 3.699351 1_454
Mg0 Pr3 3.699351 1_544
Mg0 Pr4 3.699351 1_554
Mg0 Pr3 3.699351 1_445
