# generated using pymatgen
data_GaCuS2
_symmetry_space_group_name_H-M   'P 1'
_cell_length_a   6.27899323
_cell_length_b   6.27899323
_cell_length_c   6.27899402
_cell_angle_alpha   34.59371126
_cell_angle_beta   34.59371126
_cell_angle_gamma   34.59371474
_symmetry_Int_Tables_number   1
_chemical_formula_structural   GaCuS2
_chemical_formula_sum   'Ga1 Cu1 S2'
_cell_volume   71.20051472
_cell_formula_units_Z   1
loop_
 _symmetry_equiv_pos_site_id
 _symmetry_equiv_pos_as_xyz
  1  'x, y, z'
loop_
 _atom_site_type_symbol
 _atom_site_label
 _atom_site_symmetry_multiplicity
 _atom_site_fract_x
 _atom_site_fract_y
 _atom_site_fract_z
 _atom_site_occupancy
  Ga  Ga0  1  0.99612400  0.99612400  0.99612400  1
  Cu  Cu0  1  0.13677700  0.13677700  0.13677700  1
  S  S0  1  0.26577900  0.26577900  0.26577900  1
  S  S1  1  0.75431900  0.75431900  0.75431900  1
loop_
_geom_bond_atom_site_label_1
_geom_bond_atom_site_label_2
_geom_bond_distance
_geom_bond_site_symmetry_2
Ga0 S0 2.432333 1_656
Ga0 S0 2.432333 1_566
Ga0 S0 2.432334 1_665
Ga0 S1 2.696150 1_565
Ga0 S1 2.696150 1_655
Ga0 S1 2.696151 1_556
Cu0 S0 2.282310 1_555
Cu0 S1 2.324302 1_445
Cu0 S1 2.324302 1_544
Cu0 S1 2.324302 1_454
Cu0 Ga0 2.488440 1_444
