# generated using pymatgen
data_In3Hg
_symmetry_space_group_name_H-M   'P 1'
_cell_length_a   6.57310789
_cell_length_b   6.57310789
_cell_length_c   5.57775755
_cell_angle_alpha   90.00000000
_cell_angle_beta   90.00000000
_cell_angle_gamma   119.99999145
_symmetry_Int_Tables_number   1
_chemical_formula_structural   In3Hg
_chemical_formula_sum   'In6 Hg2'
_cell_volume   208.70450493
_cell_formula_units_Z   2
loop_
 _symmetry_equiv_pos_site_id
 _symmetry_equiv_pos_as_xyz
  1  'x, y, z'
loop_
 _atom_site_type_symbol
 _atom_site_label
 _atom_site_symmetry_multiplicity
 _atom_site_fract_x
 _atom_site_fract_y
 _atom_site_fract_z
 _atom_site_occupancy
  In  In0  1  0.16723104  0.33446107  0.25000000  1
  In  In1  1  0.66553893  0.83276896  0.25000000  1
  In  In2  1  0.16723104  0.83276896  0.25000000  1
  In  In3  1  0.83276896  0.66553893  0.75000000  1
  In  In4  1  0.33446107  0.16723104  0.75000000  1
  In  In5  1  0.83276896  0.16723104  0.75000000  1
  Hg  Hg0  1  0.33333300  0.66666700  0.75000000  1
  Hg  Hg1  1  0.66666700  0.33333300  0.25000000  1
loop_
_geom_bond_atom_site_label_1
_geom_bond_atom_site_label_2
_geom_bond_distance
_geom_bond_site_symmetry_2
In0 In2 3.275432 1_555
In0 In1 3.275432 1_555
In0 In2 3.297676 1_545
In0 In1 3.297677 1_445
In0 In4 3.376789 1_554
In0 In4 3.376789 1_555
In0 In5 3.376796 1_455
In0 In5 3.376796 1_454
In1 In2 3.275432 1_555
In1 In2 3.297676 1_655
In1 In3 3.376789 1_554
In1 In3 3.376789 1_555
In1 In5 3.376796 1_564
In1 In5 3.376796 1_565
In2 In4 3.376796 1_564
In2 In4 3.376796 1_565
In2 In3 3.376796 1_455
In2 In3 3.376796 1_454
In3 In5 3.275432 1_555
In3 In4 3.275432 1_555
In3 In5 3.297676 1_565
In3 In4 3.297677 1_665
In4 In5 3.275432 1_555
In4 In5 3.297676 1_455
Hg0 In3 3.286560 1_555
Hg0 In4 3.286560 1_555
Hg0 In4 3.286560 1_565
Hg0 In3 3.286560 1_455
Hg0 In5 3.286561 1_565
Hg0 In5 3.286561 1_455
Hg0 In2 3.369565 1_556
Hg0 In2 3.369565 1_555
Hg0 In1 3.369571 1_556
Hg0 In1 3.369571 1_555
Hg0 In0 3.369571 1_556
Hg0 In0 3.369571 1_555
Hg1 In0 3.286560 1_555
Hg1 In1 3.286560 1_555
Hg1 In0 3.286560 1_655
Hg1 In1 3.286560 1_545
Hg1 In2 3.286561 1_655
Hg1 In2 3.286561 1_545
Hg1 In5 3.369565 1_555
Hg1 In5 3.369565 1_554
Hg1 In4 3.369571 1_554
Hg1 In4 3.369571 1_555
Hg1 In3 3.369571 1_554
Hg1 In3 3.369571 1_555
