# generated using pymatgen
data_TiNiGe
_symmetry_space_group_name_H-M   'P 1'
_cell_length_a   3.72218625
_cell_length_b   6.22804138
_cell_length_c   7.09715317
_cell_angle_alpha   90.00000000
_cell_angle_beta   90.00000000
_cell_angle_gamma   90.00000000
_symmetry_Int_Tables_number   1
_chemical_formula_structural   TiNiGe
_chemical_formula_sum   'Ti4 Ni4 Ge4'
_cell_volume   164.52570791
_cell_formula_units_Z   4
loop_
 _symmetry_equiv_pos_site_id
 _symmetry_equiv_pos_as_xyz
  1  'x, y, z'
loop_
 _atom_site_type_symbol
 _atom_site_label
 _atom_site_symmetry_multiplicity
 _atom_site_fract_x
 _atom_site_fract_y
 _atom_site_fract_z
 _atom_site_occupancy
  Ti  Ti0  1  0.75000000  0.47513492  0.68767611  1
  Ti  Ti1  1  0.25000000  0.52486508  0.31232389  1
  Ti  Ti2  1  0.25000000  0.02486508  0.18767611  1
  Ti  Ti3  1  0.75000000  0.97513492  0.81232389  1
  Ni  Ni0  1  0.75000000  0.86256190  0.43952294  1
  Ni  Ni1  1  0.75000000  0.36256190  0.06047706  1
  Ni  Ni2  1  0.25000000  0.13743810  0.56047706  1
  Ni  Ni3  1  0.25000000  0.63743810  0.93952294  1
  Ge  Ge0  1  0.75000000  0.24273361  0.37981502  1
  Ge  Ge1  1  0.25000000  0.75726639  0.62018498  1
  Ge  Ge2  1  0.75000000  0.74273361  0.12018498  1
  Ge  Ge3  1  0.25000000  0.25726639  0.87981502  1
loop_
_geom_bond_atom_site_label_1
_geom_bond_atom_site_label_2
_geom_bond_distance
_geom_bond_site_symmetry_2
Ni0 Ni2 2.670451 1_565
Ni0 Ni2 2.670451 1_665
Ni0 Ti3 2.737142 1_555
Ni0 Ti2 2.771323 1_565
Ni0 Ti2 2.771323 1_665
Ni0 Ti1 2.949921 1_555
Ni0 Ti1 2.949921 1_655
Ni0 Ti0 2.987290 1_555
Ni1 Ni3 2.670451 1_654
Ni1 Ni3 2.670451 1_554
Ni1 Ti0 2.737142 1_554
Ni1 Ti1 2.771323 1_555
Ni1 Ti1 2.771323 1_655
Ni1 Ti2 2.949921 1_655
Ni1 Ti2 2.949921 1_555
Ni1 Ti3 2.987290 1_544
Ni2 Ti2 2.737142 1_555
Ni2 Ti3 2.771323 1_545
Ni2 Ti3 2.771323 1_445
Ni2 Ti0 2.949921 1_555
Ni2 Ti0 2.949921 1_455
Ni2 Ti1 2.987290 1_555
Ni3 Ti1 2.737142 1_556
Ni3 Ti0 2.771323 1_455
Ni3 Ti0 2.771323 1_555
Ni3 Ti3 2.949921 1_455
Ni3 Ti3 2.949921 1_555
Ni3 Ti2 2.987290 1_566
Ge0 Ni2 2.353237 1_655
Ge0 Ni2 2.353237 1_555
Ge0 Ni1 2.386102 1_555
Ge0 Ni0 2.405346 1_545
Ge0 Ti1 2.603958 1_555
Ge0 Ti1 2.603958 1_655
Ge0 Ti0 2.620865 1_555
Ge0 Ti2 2.676629 1_555
Ge0 Ti2 2.676629 1_655
Ge1 Ni0 2.353237 1_455
Ge1 Ni0 2.353237 1_555
Ge1 Ni3 2.386102 1_555
Ge1 Ni2 2.405346 1_565
Ge1 Ti0 2.603958 1_455
Ge1 Ti0 2.603958 1_555
Ge1 Ti1 2.620865 1_555
Ge1 Ti3 2.676629 1_455
Ge1 Ti3 2.676629 1_555
Ge2 Ni3 2.353237 1_654
Ge2 Ni3 2.353237 1_554
Ge2 Ni0 2.386102 1_555
Ge2 Ni1 2.405346 1_555
Ge2 Ti2 2.603958 1_565
Ge2 Ti2 2.603958 1_665
Ge2 Ti3 2.620865 1_554
Ge2 Ti1 2.676629 1_555
Ge2 Ti1 2.676629 1_655
Ge3 Ni1 2.353237 1_456
Ge3 Ni1 2.353237 1_556
Ge3 Ni2 2.386102 1_555
Ge3 Ni3 2.405346 1_555
Ge3 Ti3 2.603958 1_545
Ge3 Ti3 2.603958 1_445
Ge3 Ti2 2.620865 1_556
Ge3 Ti0 2.676629 1_455
Ge3 Ti0 2.676629 1_555
