# generated using pymatgen
data_Ca(SnO2)2
_symmetry_space_group_name_H-M   'P 1'
_cell_length_a   6.59284000
_cell_length_b   7.01729549
_cell_length_c   16.77927239
_cell_angle_alpha   94.14737908
_cell_angle_beta   89.71818565
_cell_angle_gamma   117.35431240
_symmetry_Int_Tables_number   1
_chemical_formula_structural   Ca(SnO2)2
_chemical_formula_sum   'Ca6 Sn12 O24'
_cell_volume   687.31642531
_cell_formula_units_Z   6
loop_
 _symmetry_equiv_pos_site_id
 _symmetry_equiv_pos_as_xyz
  1  'x, y, z'
loop_
 _atom_site_type_symbol
 _atom_site_label
 _atom_site_symmetry_multiplicity
 _atom_site_fract_x
 _atom_site_fract_y
 _atom_site_fract_z
 _atom_site_occupancy
  Ca  Ca0  1  0.14533100  0.30244500  0.96318000  1
  Ca  Ca1  1  0.47957500  0.97074200  0.62861500  1
  Ca  Ca2  1  0.82947600  0.65957900  0.66556000  1
  Ca  Ca3  1  0.84148400  0.66771200  0.29190900  1
  Ca  Ca4  1  0.47622400  0.98237100  0.00337400  1
  Ca  Ca5  1  0.49946700  0.02619900  0.37186000  1
  Sn  Sn0  1  0.63898800  0.28897500  0.84081200  1
  Sn  Sn1  1  0.15986800  0.82594700  0.83211200  1
  Sn  Sn2  1  0.98226500  0.97672200  0.50689400  1
  Sn  Sn3  1  0.66226300  0.82668200  0.83439000  1
  Sn  Sn4  1  0.50420400  0.51196000  0.49776300  1
  Sn  Sn5  1  0.17511400  0.34086300  0.33325500  1
  Sn  Sn6  1  0.18753200  0.36701300  0.70377900  1
  Sn  Sn7  1  0.32008900  0.65299500  0.17264300  1
  Sn  Sn8  1  0.00403400  0.50855900  0.49467000  1
  Sn  Sn9  1  0.81580100  0.12255700  0.16124900  1
  Sn  Sn10  1  0.31828200  0.14727300  0.17552900  1
  Sn  Sn11  1  0.84053400  0.66049900  0.03490800  1
  O  O0  1  0.34491100  0.69926900  0.89656500  1
  O  O1  1  0.48389300  0.97612700  0.76704400  1
  O  O2  1  0.78154200  0.12111100  0.90554300  1
  O  O3  1  0.32543500  0.11976700  0.90520400  1
  O  O4  1  0.68948500  0.37463900  0.55875100  1
  O  O5  1  0.05241700  0.57115400  0.74295400  1
  O  O6  1  0.82721300  0.65905900  0.43337200  1
  O  O7  1  0.51997700  0.57544600  0.74388900  1
  O  O8  1  0.87081800  0.73898600  0.90497200  1
  O  O9  1  0.12897800  0.80216300  0.56731600  1
  O  O10  1  0.66611100  0.79994700  0.57050600  1
  O  O11  1  0.96183800  0.93100000  0.76728600  1
  O  O12  1  0.06836500  0.03983500  0.27360700  1
  O  O13  1  0.35841500  0.25269200  0.41602300  1
  O  O14  1  0.88725300  0.25468500  0.40689600  1
  O  O15  1  0.16837300  0.27258100  0.09695200  1
  O  O16  1  0.21323200  0.43362300  0.56834500  1
  O  O17  1  0.45703400  0.43941300  0.25752800  1
  O  O18  1  0.07023600  0.52108300  0.26726800  1
  O  O19  1  0.31990800  0.63196600  0.42405600  1
  O  O20  1  0.69750200  0.86182300  0.06333600  1
  O  O21  1  0.16264000  0.85201200  0.10011100  1
  O  O22  1  0.45556900  0.98586000  0.24213400  1
  O  O23  1  0.60832300  0.24666400  0.10783800  1
loop_
_geom_bond_atom_site_label_1
_geom_bond_atom_site_label_2
_geom_bond_distance
_geom_bond_site_symmetry_2
Ca0 O15 2.281635 1_556
Ca0 O3 2.281797 1_555
Ca0 O2 2.312355 1_455
Ca0 O0 2.793464 1_555
Ca1 O10 2.252385 1_555
Ca1 O9 2.265969 1_555
Ca1 O1 2.320413 1_555
Ca1 O4 2.860508 1_565
Ca2 O5 2.281501 1_655
Ca2 O7 2.284356 1_555
Ca2 O11 2.306432 1_555
Ca2 O4 2.421524 1_555
Ca2 O10 2.427580 1_555
Ca2 O9 2.451206 1_655
Ca3 O18 2.205105 1_655
Ca3 O17 2.339388 1_555
Ca3 O6 2.379104 1_555
Ca3 O12 2.381709 1_665
Ca4 O20 2.264451 1_555
Ca4 O23 2.308890 1_565
Ca4 O3 2.399556 1_564
Ca4 O0 2.414074 1_554
Ca4 O2 2.468199 1_564
Ca4 O21 2.487863 1_555
Ca5 O22 2.178011 1_545
Ca5 O13 2.262987 1_555
Ca5 O14 2.358813 1_555
Ca5 O19 2.674384 1_545
O0 Sn1 2.144000 1_555
O0 Sn3 2.158616 1_555
O1 Sn1 2.222780 1_555
O1 Sn0 2.225682 1_565
O1 Sn3 2.253310 1_555
O2 Sn3 2.114678 1_545
O2 Sn0 2.159410 1_555
O3 Sn1 2.127413 1_545
O3 Sn0 2.181394 1_555
O4 Sn8 2.161727 1_655
O4 Sn4 2.169002 1_555
O5 Sn6 2.075675 1_555
O5 Sn1 2.096715 1_555
O6 Sn8 2.198305 1_655
O6 Sn4 2.210520 1_555
O6 Sn2 2.248653 1_555
O7 Sn6 2.078979 1_555
O7 Sn3 2.097867 1_555
O8 Sn1 2.124814 1_655
O8 Sn3 2.137960 1_555
O8 Sn11 2.272656 1_556
O9 Sn8 2.120424 1_555
O9 Sn2 2.177617 1_455
O10 Sn4 2.094479 1_555
O10 Sn2 2.194559 1_555
O11 Sn1 2.108456 1_655
O11 Sn3 2.114982 1_555
O12 Sn5 2.072234 1_555
O12 Sn10 2.236664 1_555
O13 Sn4 2.039615 1_555
O13 Sn5 2.144735 1_555
O14 Sn8 2.075280 1_655
O14 Sn5 2.127101 1_655
O15 Sn10 2.113649 1_555
O15 Sn9 2.359256 1_455
O15 Sn7 2.609195 1_555
O16 Sn8 2.117605 1_555
O16 Sn4 2.118373 1_555
O16 Sn6 2.342744 1_555
O17 Sn5 2.114243 1_555
O17 Sn10 2.193972 1_555
O17 Sn7 2.579744 1_555
O18 Sn5 2.077748 1_555
O18 Sn7 2.208341 1_555
O19 Sn4 2.195621 1_555
O19 Sn8 2.226537 1_555
O19 Sn5 2.275410 1_555
O20 Sn11 2.057910 1_555
O20 Sn9 2.218440 1_565
O21 Sn10 2.151031 1_565
O21 Sn11 2.167990 1_455
O21 Sn7 2.469733 1_555
O22 Sn10 2.118109 1_565
O22 Sn7 2.304859 1_555
O22 Sn9 2.542740 1_565
O23 Sn10 2.073784 1_555
O23 Sn9 2.156944 1_555
