# generated using pymatgen
data_Li7Mn2(CoO4)3
_symmetry_space_group_name_H-M   'P 1'
_cell_length_a   14.63845790
_cell_length_b   14.63845790
_cell_length_c   4.99504005
_cell_angle_alpha   82.58741214
_cell_angle_beta   82.58741214
_cell_angle_gamma   11.81326683
_symmetry_Int_Tables_number   1
_chemical_formula_structural   Li7Mn2(CoO4)3
_chemical_formula_sum   'Li7 Mn2 Co3 O12'
_cell_volume   217.27590865
_cell_formula_units_Z   1
loop_
 _symmetry_equiv_pos_site_id
 _symmetry_equiv_pos_as_xyz
  1  'x, y, z'
loop_
 _atom_site_type_symbol
 _atom_site_label
 _atom_site_symmetry_multiplicity
 _atom_site_fract_x
 _atom_site_fract_y
 _atom_site_fract_z
 _atom_site_occupancy
  Li  Li0  1  0.75416200  0.75416200  0.24210000  1
  Li  Li1  1  0.58590700  0.58590700  0.07686400  1
  Li  Li2  1  0.40884200  0.40884200  0.91929100  1
  Li  Li3  1  0.08551200  0.08551200  0.57898500  1
  Li  Li4  1  0.91080300  0.91080300  0.42713700  1
  Li  Li5  1  0.25413200  0.25413200  0.75288800  1
  Li  Li6  1  0.83276200  0.83276200  0.83368500  1
  Mn  Mn0  1  0.99918500  0.99918500  0.00150900  1
  Mn  Mn1  1  0.49956300  0.49956300  0.50083600  1
  Co  Co0  1  0.66791000  0.66791000  0.66536100  1
  Co  Co1  1  0.33280800  0.33280800  0.33449000  1
  Co  Co2  1  0.16801800  0.16801800  0.16582900  1
  O  O0  1  0.62899200  0.62899200  0.37951100  1
  O  O1  1  0.46202300  0.46202300  0.21278300  1
  O  O2  1  0.29574300  0.29574300  0.07546800  1
  O  O3  1  0.96039000  0.96039000  0.71623800  1
  O  O4  1  0.79680400  0.79680400  0.51936700  1
  O  O5  1  0.12838700  0.12838700  0.88010500  1
  O  O6  1  0.86942800  0.86942800  0.14685900  1
  O  O7  1  0.70618800  0.70618800  0.95199600  1
  O  O8  1  0.53810000  0.53810000  0.78427400  1
  O  O9  1  0.20549900  0.20549900  0.45590500  1
  O  O10  1  0.03856400  0.03856400  0.28556200  1
  O  O11  1  0.37028000  0.37028000  0.59295400  1
loop_
_geom_bond_atom_site_label_1
_geom_bond_atom_site_label_2
_geom_bond_distance
_geom_bond_site_symmetry_2
Li0 O4 1.976439 1_555
Li0 O2 2.041295 1_565
Li0 O2 2.041295 1_655
Li0 O7 2.139348 1_554
Li0 O9 2.241764 1_655
Li0 O9 2.241764 1_565
Li1 O0 2.086058 1_555
Li1 O5 2.109546 1_564
Li1 O5 2.109546 1_654
Li1 O8 2.145237 1_554
Li1 O10 2.209970 1_565
Li1 O10 2.209970 1_655
Li2 O11 2.095962 1_555
Li2 O6 2.130814 1_546
Li2 O6 2.130814 1_456
Li2 O1 2.266412 1_556
Li2 O3 2.270792 1_545
Li2 O3 2.270792 1_455
Li3 O5 2.075683 1_555
Li3 O10 2.130067 1_555
Li3 O0 2.130268 1_545
Li3 O0 2.130268 1_455
Li3 O8 2.204508 1_455
Li3 O8 2.204508 1_545
Li4 O6 1.961980 1_555
Li4 O11 2.023451 1_565
Li4 O11 2.023451 1_655
Li4 O3 2.170610 1_555
Li4 O1 2.286105 1_655
Li4 O1 2.286105 1_565
Li5 O2 2.138031 1_556
Li5 O9 2.179771 1_555
Li5 O4 2.190455 1_545
Li5 O4 2.190455 1_455
Li5 O7 2.201721 1_455
Li5 O7 2.201721 1_545
Li6 O4 1.996997 1_555
Li6 O6 2.005120 1_556
Li6 O2 2.133612 1_656
Li6 O2 2.133612 1_566
Li6 O11 2.137314 1_565
Li6 O11 2.137314 1_655
Mn0 O3 1.929879 1_554
Mn0 O10 1.936575 1_665
Mn0 O1 2.063468 1_655
Mn0 O1 2.063468 1_565
Mn0 O8 2.100477 1_654
Mn0 O8 2.100477 1_564
Mn1 O1 1.916615 1_555
Mn1 O8 1.917305 1_555
Mn1 O10 2.097309 1_565
Mn1 O10 2.097309 1_655
Mn1 O3 2.099975 1_545
Mn1 O3 2.099975 1_455
Co0 O7 1.925229 1_555
Co0 O0 1.934674 1_555
Co0 O9 2.065202 1_565
Co0 O9 2.065202 1_655
Co0 O5 2.103409 1_655
Co0 O5 2.103409 1_565
Co1 O2 1.789226 1_555
Co1 O11 1.795283 1_555
Co1 O4 1.992543 1_545
Co1 O4 1.992543 1_455
Co1 O6 2.006405 1_455
Co1 O6 2.006405 1_545
Co2 O9 1.923814 1_555
Co2 O5 1.948375 1_554
Co2 O7 2.082719 1_454
Co2 O7 2.082719 1_544
Co2 O0 2.094149 1_545
Co2 O0 2.094149 1_455
