# generated using pymatgen
data_Cd3Au
_symmetry_space_group_name_H-M   'P 1'
_cell_length_a   6.43381304
_cell_length_b   6.43381304
_cell_length_c   19.92101400
_cell_angle_alpha   90.00000000
_cell_angle_beta   90.00000000
_cell_angle_gamma   123.00041051
_symmetry_Int_Tables_number   1
_chemical_formula_structural   Cd3Au
_chemical_formula_sum   'Cd24 Au8'
_cell_volume   691.57246881
_cell_formula_units_Z   8
loop_
 _symmetry_equiv_pos_site_id
 _symmetry_equiv_pos_as_xyz
  1  'x, y, z'
loop_
 _atom_site_type_symbol
 _atom_site_label
 _atom_site_symmetry_multiplicity
 _atom_site_fract_x
 _atom_site_fract_y
 _atom_site_fract_z
 _atom_site_occupancy
  Cd  Cd0_0  1  0.25000000  0.25000000  0.37960750  1
  Cd  Cd0_1  1  0.25000000  0.25000000  0.87960750  1
  Cd  Cd0_2  1  0.25000000  0.75000000  0.37960750  1
  Cd  Cd0_3  1  0.25000000  0.75000000  0.87960750  1
  Cd  Cd0_4  1  0.75000000  0.25000000  0.37960750  1
  Cd  Cd0_5  1  0.75000000  0.25000000  0.87960750  1
  Cd  Cd0_6  1  0.75000000  0.75000000  0.37960750  1
  Cd  Cd0_7  1  0.75000000  0.75000000  0.87960750  1
  Cd  Cd1_0  1  0.00000000  0.00000000  0.25000000  1
  Cd  Cd1_1  1  0.00000000  0.00000000  0.75000000  1
  Cd  Cd1_2  1  0.00000000  0.50000000  0.25000000  1
  Cd  Cd1_3  1  0.00000000  0.50000000  0.75000000  1
  Cd  Cd1_4  1  0.50000000  0.00000000  0.25000000  1
  Cd  Cd1_5  1  0.50000000  0.00000000  0.75000000  1
  Cd  Cd1_6  1  0.50000000  0.50000000  0.25000000  1
  Cd  Cd1_7  1  0.50000000  0.50000000  0.75000000  1
  Cd  Cd2_0  1  0.25000000  0.25000000  0.12039250  1
  Cd  Cd2_1  1  0.25000000  0.25000000  0.62039250  1
  Cd  Cd2_2  1  0.25000000  0.75000000  0.12039250  1
  Cd  Cd2_3  1  0.25000000  0.75000000  0.62039250  1
  Cd  Cd2_4  1  0.75000000  0.25000000  0.12039250  1
  Cd  Cd2_5  1  0.75000000  0.25000000  0.62039250  1
  Cd  Cd2_6  1  0.75000000  0.75000000  0.12039250  1
  Cd  Cd2_7  1  0.75000000  0.75000000  0.62039250  1
  Au  Au0_0  1  0.00000000  0.00000000  0.00000000  1
  Au  Au0_1  1  0.00000000  0.00000000  0.50000000  1
  Au  Au0_2  1  0.00000000  0.50000000  0.00000000  1
  Au  Au0_3  1  0.00000000  0.50000000  0.50000000  1
  Au  Au0_4  1  0.50000000  0.00000000  0.00000000  1
  Au  Au0_5  1  0.50000000  0.00000000  0.50000000  1
  Au  Au0_6  1  0.50000000  0.50000000  0.00000000  1
  Au  Au0_7  1  0.50000000  0.50000000  0.50000000  1
loop_
_geom_bond_atom_site_label_1
_geom_bond_atom_site_label_2
_geom_bond_distance
_geom_bond_site_symmetry_2
Cd0_0 Cd1_6 3.003730 1_555
Cd0_0 Cd1_0 3.003730 1_555
Cd0_1 Cd1_1 3.003730 1_555
Cd0_1 Cd1_7 3.003730 1_555
Cd0_2 Cd1_2 3.003730 1_555
Cd0_2 Cd1_4 3.003730 1_565
Cd0_3 Cd1_3 3.003730 1_555
Cd0_3 Cd1_5 3.003730 1_565
Cd0_4 Cd1_2 3.003730 1_655
Cd0_4 Cd1_4 3.003730 1_555
Cd0_5 Cd1_3 3.003730 1_655
Cd0_5 Cd1_5 3.003730 1_555
Cd0_6 Cd1_0 3.003730 1_665
Cd0_6 Cd1_6 3.003730 1_555
Cd0_7 Cd1_1 3.003730 1_665
Cd0_7 Cd1_7 3.003730 1_555
Cd1_0 Cd2_6 3.003730 1_445
Cd1_0 Cd2_0 3.003730 1_555
Cd1_0 Cd1_6 3.069930 1_555
Cd1_0 Cd1_6 3.069930 1_445
Cd1_0 Cd1_2 3.216907 1_555
Cd1_0 Cd1_4 3.216907 1_455
Cd1_0 Cd1_2 3.216907 1_545
Cd1_0 Cd1_4 3.216907 1_555
Cd1_1 Cd2_7 3.003730 1_445
Cd1_1 Cd2_1 3.003730 1_555
Cd1_1 Cd1_7 3.069930 1_555
Cd1_1 Cd1_7 3.069930 1_445
Cd1_1 Cd1_5 3.216907 1_555
Cd1_1 Cd1_3 3.216907 1_545
Cd1_1 Cd1_5 3.216907 1_455
Cd1_1 Cd1_3 3.216907 1_555
Cd1_2 Cd2_2 3.003730 1_555
Cd1_2 Cd2_4 3.003730 1_455
Cd1_2 Cd1_4 3.069930 1_455
Cd1_2 Cd1_4 3.069930 1_565
Cd1_2 Cd1_6 3.216907 1_455
Cd1_2 Cd1_6 3.216907 1_555
Cd1_3 Cd2_5 3.003730 1_455
Cd1_3 Cd2_3 3.003730 1_555
Cd1_3 Cd1_5 3.069930 1_565
Cd1_3 Cd1_5 3.069930 1_455
Cd1_3 Cd1_7 3.216907 1_455
Cd1_3 Cd1_7 3.216907 1_555
Cd1_4 Cd2_4 3.003730 1_555
Cd1_4 Cd2_2 3.003730 1_545
Cd1_4 Cd1_6 3.216907 1_545
Cd1_4 Cd1_6 3.216907 1_555
Cd1_5 Cd2_3 3.003730 1_545
Cd1_5 Cd2_5 3.003730 1_555
Cd1_5 Cd1_7 3.216907 1_545
Cd1_5 Cd1_7 3.216907 1_555
Cd1_6 Cd2_0 3.003730 1_555
Cd1_6 Cd2_6 3.003730 1_555
Cd1_7 Cd2_7 3.003730 1_555
Cd1_7 Cd2_1 3.003730 1_555
Au0_0 Cd2_6 2.847482 1_445
Au0_0 Cd2_0 2.847482 1_555
Au0_0 Cd0_7 2.847482 1_444
Au0_0 Cd0_1 2.847482 1_554
Au0_1 Cd0_6 2.847482 1_445
Au0_1 Cd2_1 2.847482 1_555
Au0_1 Cd0_0 2.847482 1_555
Au0_1 Cd2_7 2.847482 1_445
Au0_2 Cd2_2 2.847482 1_555
Au0_2 Cd2_4 2.847482 1_455
Au0_2 Cd0_3 2.847482 1_554
Au0_2 Cd0_5 2.847482 1_454
Au0_3 Cd2_3 2.847482 1_555
Au0_3 Cd0_2 2.847482 1_555
Au0_3 Cd0_4 2.847482 1_455
Au0_3 Cd2_5 2.847482 1_455
Au0_4 Cd2_2 2.847482 1_545
Au0_4 Cd2_4 2.847482 1_555
Au0_4 Cd0_3 2.847482 1_544
Au0_4 Cd0_5 2.847482 1_554
Au0_5 Cd2_3 2.847482 1_545
Au0_5 Cd0_4 2.847482 1_555
Au0_5 Cd0_2 2.847482 1_545
Au0_5 Cd2_5 2.847482 1_555
Au0_6 Cd2_6 2.847482 1_555
Au0_6 Cd2_0 2.847482 1_555
Au0_6 Cd0_1 2.847482 1_554
Au0_6 Cd0_7 2.847482 1_554
Au0_7 Cd2_1 2.847482 1_555
Au0_7 Cd0_0 2.847482 1_555
Au0_7 Cd0_6 2.847482 1_555
Au0_7 Cd2_7 2.847482 1_555
