# generated using pymatgen
data_Sr4U2O9
_symmetry_space_group_name_H-M   'P 1'
_cell_length_a   6.23811000
_cell_length_b   8.66662727
_cell_length_c   18.16610105
_cell_angle_alpha   90.05694129
_cell_angle_beta   90.00000000
_cell_angle_gamma   90.00000000
_symmetry_Int_Tables_number   1
_chemical_formula_structural   Sr4U2O9
_chemical_formula_sum   'Sr16 U8 O36'
_cell_volume   982.12023417
_cell_formula_units_Z   4
loop_
 _symmetry_equiv_pos_site_id
 _symmetry_equiv_pos_as_xyz
  1  'x, y, z'
loop_
 _atom_site_type_symbol
 _atom_site_label
 _atom_site_symmetry_multiplicity
 _atom_site_fract_x
 _atom_site_fract_y
 _atom_site_fract_z
 _atom_site_occupancy
  Sr  Sr0  1  0.49870300  0.49913800  0.99917500  1
  Sr  Sr1  1  0.50129700  0.50086200  0.33415800  1
  Sr  Sr2  1  0.00129700  0.99913800  0.49917500  1
  Sr  Sr3  1  0.99870300  0.00086200  0.83415800  1
  Sr  Sr4  1  0.04964900  0.25704700  0.33104600  1
  Sr  Sr5  1  0.04426800  0.24607500  0.66268000  1
  Sr  Sr6  1  0.05073400  0.25226100  0.99326100  1
  Sr  Sr7  1  0.45573200  0.74607500  0.16268000  1
  Sr  Sr8  1  0.44926600  0.75226100  0.49326100  1
  Sr  Sr9  1  0.45035100  0.75704700  0.83104600  1
  Sr  Sr10  1  0.95035100  0.74295300  0.00228700  1
  Sr  Sr11  1  0.94926600  0.74773900  0.34007300  1
  Sr  Sr12  1  0.95573200  0.75392500  0.67065300  1
  Sr  Sr13  1  0.54426800  0.25392500  0.17065300  1
  Sr  Sr14  1  0.54964900  0.24295300  0.50228700  1
  Sr  Sr15  1  0.55073400  0.24773900  0.84007300  1
  U  U0  1  0.00000000  0.50000000  0.16666700  1
  U  U1  1  0.99572100  0.50265800  0.50213100  1
  U  U2  1  0.00427900  0.49734200  0.83120200  1
  U  U3  1  0.50427900  0.00265800  0.00213100  1
  U  U4  1  0.49572100  0.99734200  0.33120200  1
  U  U5  1  0.50000000  0.00000000  0.66666700  1
  U  U6  1  0.50000000  0.50000000  0.66666700  1
  U  U7  1  0.00000000  0.00000000  0.16666700  1
  O  O0  1  0.17543700  0.55553500  0.07267400  1
  O  O1  1  0.17932900  0.55334800  0.40747100  1
  O  O2  1  0.20814400  0.55530700  0.72955800  1
  O  O3  1  0.29185600  0.05530700  0.22955800  1
  O  O4  1  0.32456300  0.05553500  0.57267400  1
  O  O5  1  0.32067100  0.05334800  0.90747100  1
  O  O6  1  0.82456300  0.44446500  0.26065900  1
  O  O7  1  0.79185600  0.44469300  0.60377600  1
  O  O8  1  0.82067100  0.44665200  0.92586200  1
  O  O9  1  0.70814400  0.94469300  0.10377600  1
  O  O10  1  0.67932900  0.94665200  0.42586200  1
  O  O11  1  0.67543700  0.94446500  0.76065900  1
  O  O12  1  0.44897900  0.22752300  0.03960300  1
  O  O13  1  0.44845500  0.22526100  0.36799400  1
  O  O14  1  0.45765000  0.26187800  0.70200200  1
  O  O15  1  0.04235000  0.76187800  0.20200200  1
  O  O16  1  0.05102100  0.72752300  0.53960300  1
  O  O17  1  0.05154500  0.72526100  0.86799400  1
  O  O18  1  0.55102100  0.77247700  0.29373000  1
  O  O19  1  0.54235000  0.73812200  0.63133100  1
  O  O20  1  0.55154500  0.77473900  0.96534000  1
  O  O21  1  0.95765000  0.23812200  0.13133100  1
  O  O22  1  0.94845500  0.27473900  0.46534000  1
  O  O23  1  0.94897900  0.27247700  0.79373000  1
  O  O24  1  0.71852900  0.55844100  0.10946300  1
  O  O25  1  0.71660900  0.56947800  0.44326900  1
  O  O26  1  0.69508700  0.56026500  0.76210100  1
  O  O27  1  0.80491300  0.06026500  0.26210100  1
  O  O28  1  0.78147100  0.05844100  0.60946300  1
  O  O29  1  0.78339100  0.06947800  0.94326900  1
  O  O30  1  0.28147100  0.44155900  0.22387000  1
  O  O31  1  0.30491300  0.43973500  0.57123200  1
  O  O32  1  0.28339100  0.43052200  0.89006500  1
  O  O33  1  0.19508700  0.93973500  0.07123200  1
  O  O34  1  0.21660900  0.93052200  0.39006400  1
  O  O35  1  0.21852900  0.94155900  0.72387000  1
loop_
_geom_bond_atom_site_label_1
_geom_bond_atom_site_label_2
_geom_bond_distance
_geom_bond_site_symmetry_2
O0 U0 2.084825 1_555
O0 Sr0 2.467161 1_554
O0 Sr10 2.499783 1_455
O0 Sr7 2.907277 1_555
O0 Sr6 3.096299 1_554
O1 U1 2.112675 1_455
O1 Sr1 2.452221 1_555
O1 Sr11 2.530039 1_455
O1 Sr8 2.868945 1_555
O1 Sr4 3.028051 1_555
O2 U6 2.201960 1_555
O2 U2 2.298039 1_555
O2 Sr12 2.567303 1_455
O2 Sr9 2.955061 1_555
O2 Sr5 3.113998 1_555
O3 U7 2.201960 1_555
O3 U4 2.298039 1_545
O3 Sr13 2.567303 1_555
O3 Sr4 2.955061 1_555
O3 Sr7 3.113998 1_545
O4 U5 2.084825 1_555
O4 Sr2 2.467161 1_545
O4 Sr14 2.499783 1_555
O4 Sr5 2.907277 1_555
O4 Sr8 3.096299 1_545
O5 U3 2.112675 1_556
O5 Sr3 2.452221 1_455
O5 Sr15 2.530039 1_555
O5 Sr6 2.868945 1_555
O5 Sr9 3.028051 1_545
O6 U0 2.084810 1_655
O6 Sr1 2.467161 1_555
O6 Sr4 2.499783 1_655
O6 Sr13 2.907277 1_555
O6 Sr11 3.096307 1_555
O7 U6 2.201960 1_555
O7 U1 2.298054 1_555
O7 Sr5 2.567295 1_655
O7 Sr14 2.955073 1_555
O7 Sr12 3.113991 1_555
O8 U2 2.112675 1_655
O8 Sr0 2.452221 1_555
O8 Sr6 2.530048 1_655
O8 Sr15 2.868935 1_555
O8 Sr10 3.028051 1_556
O9 U7 2.201960 1_665
O9 U3 2.298054 1_565
O9 Sr7 2.567295 1_555
O9 Sr10 2.955073 1_555
O9 Sr13 3.113991 1_565
O10 U4 2.112675 1_555
O10 Sr2 2.452221 1_655
O10 Sr8 2.530048 1_555
O10 Sr11 2.868935 1_555
O10 Sr14 3.028051 1_565
O11 U5 2.084810 1_565
O11 Sr3 2.467161 1_565
O11 Sr9 2.499783 1_555
O11 Sr12 2.907277 1_555
O11 Sr15 3.096307 1_565
O12 U3 2.092283 1_555
O12 Sr13 2.464182 1_555
O12 Sr0 2.486015 1_554
O12 Sr6 2.631875 1_554
O13 U4 2.105420 1_545
O13 Sr1 2.488870 1_555
O13 Sr14 2.524442 1_555
O13 Sr4 2.591504 1_555
O14 U6 2.177930 1_555
O14 U5 2.372765 1_555
O14 Sr15 2.577582 1_555
O14 Sr5 2.679298 1_555
O15 U7 2.177930 1_565
O15 U0 2.372765 1_555
O15 Sr11 2.577582 1_455
O15 Sr7 2.679298 1_555
O16 U1 2.092283 1_455
O16 Sr12 2.464182 1_455
O16 Sr2 2.486015 1_555
O16 Sr8 2.631875 1_555
O17 U2 2.105420 1_555
O17 Sr3 2.488870 1_465
O17 Sr10 2.524442 1_456
O17 Sr9 2.591504 1_555
O18 U4 2.092283 1_555
O18 Sr7 2.464182 1_555
O18 Sr1 2.486015 1_555
O18 Sr11 2.631881 1_555
O19 U6 2.177935 1_555
O19 U5 2.372769 1_565
O19 Sr8 2.577564 1_555
O19 Sr12 2.679298 1_555
O20 U3 2.105414 1_566
O20 Sr0 2.488866 1_555
O20 Sr9 2.524459 1_555
O20 Sr10 2.591499 1_556
O21 U7 2.177935 1_655
O21 U0 2.372769 1_655
O21 Sr6 2.577564 1_654
O21 Sr13 2.679298 1_555
O22 U1 2.105414 1_555
O22 Sr2 2.488866 1_645
O22 Sr4 2.524459 1_655
O22 Sr14 2.591499 1_555
O23 U2 2.092283 1_655
O23 Sr5 2.464182 1_655
O23 Sr3 2.486015 1_555
O23 Sr15 2.631881 1_555
O24 U0 2.102488 1_655
O24 Sr0 2.481248 1_554
O24 Sr7 2.502666 1_555
O24 Sr10 2.906077 1_555
O24 Sr13 3.064007 1_555
O25 U1 2.124033 1_555
O25 Sr1 2.466601 1_555
O25 Sr8 2.472363 1_555
O25 Sr11 2.830779 1_555
O25 Sr14 3.201313 1_555
O26 U6 2.181194 1_555
O26 U2 2.365308 1_655
O26 Sr9 2.608392 1_555
O26 Sr12 2.868086 1_555
O26 Sr15 3.187641 1_555
O27 U7 2.181194 1_655
O27 U4 2.365308 1_545
O27 Sr4 2.608392 1_655
O27 Sr13 2.868086 1_555
O27 Sr11 3.187641 1_545
O28 U5 2.102488 1_555
O28 Sr2 2.481248 1_645
O28 Sr5 2.502666 1_655
O28 Sr14 2.906077 1_555
O28 Sr12 3.064007 1_545
O29 U3 2.124033 1_556
O29 Sr3 2.466601 1_555
O29 Sr6 2.472363 1_655
O29 Sr15 2.830779 1_555
O29 Sr10 3.201313 1_546
O30 U0 2.102479 1_555
O30 Sr1 2.481248 1_555
O30 Sr13 2.502666 1_555
O30 Sr4 2.906077 1_555
O30 Sr7 3.064007 1_555
O31 U6 2.181208 1_555
O31 U1 2.365308 1_455
O31 Sr14 2.608392 1_555
O31 Sr5 2.868086 1_555
O31 Sr8 3.187633 1_555
O32 U2 2.124043 1_555
O32 Sr0 2.466586 1_555
O32 Sr15 2.472363 1_555
O32 Sr6 2.830779 1_555
O32 Sr9 3.201319 1_555
O33 U7 2.181208 1_565
O33 U3 2.365308 1_565
O33 Sr10 2.608392 1_455
O33 Sr7 2.868086 1_555
O33 Sr6 3.187633 1_564
O34 U4 2.124033 1_555
O34 Sr2 2.466601 1_555
O34 Sr11 2.472356 1_455
O34 Sr8 2.830791 1_555
O34 Sr4 3.201313 1_565
O35 U5 2.102479 1_565
O35 Sr3 2.481248 1_465
O35 Sr12 2.502666 1_455
O35 Sr9 2.906077 1_555
O35 Sr5 3.064007 1_565
