# generated using pymatgen
data_Ca7PtN6
_symmetry_space_group_name_H-M   'P 1'
_cell_length_a   6.33254985
_cell_length_b   9.11908289
_cell_length_c   9.11908289
_cell_angle_alpha   82.20883846
_cell_angle_beta   69.68298343
_cell_angle_gamma   69.68298343
_symmetry_Int_Tables_number   1
_chemical_formula_structural   Ca7PtN6
_chemical_formula_sum   'Ca14 Pt2 N12'
_cell_volume   463.04700125
_cell_formula_units_Z   2
loop_
 _symmetry_equiv_pos_site_id
 _symmetry_equiv_pos_as_xyz
  1  'x, y, z'
loop_
 _atom_site_type_symbol
 _atom_site_label
 _atom_site_symmetry_multiplicity
 _atom_site_fract_x
 _atom_site_fract_y
 _atom_site_fract_z
 _atom_site_occupancy
  Ca  Ca0  1  0.27617003  0.95200428  0.04799572  1
  Ca  Ca1  1  0.72382997  0.04799572  0.95200428  1
  Ca  Ca2  1  0.22382997  0.45200428  0.54799572  1
  Ca  Ca3  1  0.77617003  0.54799572  0.45200428  1
  Ca  Ca4  1  0.76550902  0.15102290  0.58665193  1
  Ca  Ca5  1  0.49681515  0.58665193  0.15102290  1
  Ca  Ca6  1  0.73449098  0.91334807  0.34897710  1
  Ca  Ca7  1  0.00318485  0.34897710  0.91334807  1
  Ca  Ca8  1  0.23449098  0.84897710  0.41334807  1
  Ca  Ca9  1  0.50318485  0.41334807  0.84897710  1
  Ca  Ca10  1  0.26550902  0.08665193  0.65102290  1
  Ca  Ca11  1  0.99681515  0.65102290  0.08665193  1
  Ca  Ca12  1  0.25000000  0.25000000  0.25000000  1
  Ca  Ca13  1  0.75000000  0.75000000  0.75000000  1
  Pt  Pt0  1  0.75000000  0.25000000  0.25000000  1
  Pt  Pt1  1  0.25000000  0.75000000  0.75000000  1
  N  N0  1  0.00205740  0.07086315  0.31612799  1
  N  N1  1  0.61095245  0.31612799  0.07086315  1
  N  N2  1  0.49794260  0.18387201  0.42913685  1
  N  N3  1  0.88904755  0.42913685  0.18387201  1
  N  N4  1  0.99794260  0.92913685  0.68387201  1
  N  N5  1  0.38904755  0.68387201  0.92913685  1
  N  N6  1  0.50205740  0.81612799  0.57086315  1
  N  N7  1  0.11095245  0.57086315  0.81612799  1
  N  N8  1  0.89085069  0.35592606  0.64407394  1
  N  N9  1  0.10914931  0.64407394  0.35592606  1
  N  N10  1  0.60914931  0.85592606  0.14407394  1
  N  N11  1  0.39085069  0.14407394  0.85592606  1
loop_
_geom_bond_atom_site_label_1
_geom_bond_atom_site_label_2
_geom_bond_distance
_geom_bond_site_symmetry_2
Ca0 N10 2.402783 1_555
Ca0 N11 2.414778 1_564
Ca0 N0 2.575107 1_565
Ca0 N5 2.575108 1_554
Ca1 N11 2.402783 1_555
Ca1 N10 2.414778 1_546
Ca1 N4 2.575107 1_545
Ca1 N1 2.575108 1_556
Ca2 N8 2.402783 1_455
Ca2 N9 2.414778 1_555
Ca2 N2 2.575107 1_555
Ca2 N7 2.575108 1_555
Ca3 N9 2.402783 1_655
Ca3 N8 2.414778 1_555
Ca3 N6 2.575107 1_555
Ca3 N3 2.575108 1_555
Ca4 N4 2.323413 1_545
Ca4 N8 2.445286 1_555
Ca4 N0 2.454857 1_655
Ca4 N2 2.498969 1_555
Ca4 N11 2.771135 1_555
Ca5 N5 2.323413 1_554
Ca5 N9 2.445281 1_555
Ca5 N1 2.454855 1_555
Ca5 N3 2.498969 1_555
Ca5 N10 2.771139 1_555
Ca6 N6 2.323413 1_555
Ca6 N10 2.445286 1_555
Ca6 N2 2.454857 1_565
Ca6 N0 2.498969 1_665
Ca6 N9 2.771135 1_655
Ca7 N7 2.323413 1_555
Ca7 N11 2.445281 1_555
Ca7 N3 2.454855 1_456
Ca7 N1 2.498969 1_456
Ca7 N8 2.771139 1_455
Ca8 N0 2.323413 1_565
Ca8 N9 2.445286 1_555
Ca8 N4 2.454857 1_455
Ca8 N6 2.498969 1_555
Ca8 N10 2.771135 1_555
Ca9 N1 2.323413 1_556
Ca9 N8 2.445281 1_555
Ca9 N5 2.454855 1_555
Ca9 N7 2.498969 1_555
Ca9 N11 2.771139 1_555
Ca10 N2 2.323413 1_555
Ca10 N11 2.445286 1_555
Ca10 N6 2.454857 1_545
Ca10 N4 2.498969 1_445
Ca10 N8 2.771135 1_455
Ca11 N3 2.323413 1_555
Ca11 N10 2.445281 1_555
Ca11 N7 2.454855 1_654
Ca11 N5 2.498969 1_654
Ca11 N9 2.771139 1_655
Ca12 N2 2.520706 1_555
Ca12 N0 2.520706 1_555
Ca12 N3 2.520710 1_455
Ca12 N1 2.520710 1_555
Ca13 N4 2.520706 1_555
Ca13 N6 2.520706 1_555
Ca13 N5 2.520710 1_555
Ca13 N7 2.520710 1_655
N0 Pt0 2.042196 1_455
N1 Pt0 2.042193 1_555
N2 Pt0 2.042196 1_555
N3 Pt0 2.042193 1_555
N4 Pt1 2.042196 1_655
N5 Pt1 2.042193 1_555
N6 Pt1 2.042196 1_555
N7 Pt1 2.042193 1_555
