# generated using pymatgen
data_ErB7Mo3
_symmetry_space_group_name_H-M   'P 1'
_cell_length_a   3.09068870
_cell_length_b   10.99933443
_cell_length_c   12.80631841
_cell_angle_alpha   90.00000000
_cell_angle_beta   90.00000000
_cell_angle_gamma   90.00000000
_symmetry_Int_Tables_number   1
_chemical_formula_structural   ErB7Mo3
_chemical_formula_sum   'Er4 B28 Mo12'
_cell_volume   435.35743609
_cell_formula_units_Z   4
loop_
 _symmetry_equiv_pos_site_id
 _symmetry_equiv_pos_as_xyz
  1  'x, y, z'
loop_
 _atom_site_type_symbol
 _atom_site_label
 _atom_site_symmetry_multiplicity
 _atom_site_fract_x
 _atom_site_fract_y
 _atom_site_fract_z
 _atom_site_occupancy
  Er  Er0  1  0.75000000  0.55192456  0.30821555  1
  Er  Er1  1  0.25000000  0.44807544  0.69178445  1
  Er  Er2  1  0.25000000  0.94807544  0.80821555  1
  Er  Er3  1  0.75000000  0.05192456  0.19178445  1
  B  B0  1  0.75000000  0.75051835  0.17351117  1
  B  B1  1  0.25000000  0.24948165  0.82648883  1
  B  B2  1  0.25000000  0.74948165  0.67351117  1
  B  B3  1  0.75000000  0.25051835  0.32648883  1
  B  B4  1  0.75000000  0.93230827  0.38390689  1
  B  B5  1  0.25000000  0.06769173  0.61609311  1
  B  B6  1  0.25000000  0.56769173  0.88390689  1
  B  B7  1  0.75000000  0.43230827  0.11609311  1
  B  B8  1  0.75000000  0.98930011  0.63828584  1
  B  B9  1  0.25000000  0.01069989  0.36171416  1
  B  B10  1  0.25000000  0.51069989  0.13828584  1
  B  B11  1  0.75000000  0.48930011  0.86171416  1
  B  B12  1  0.75000000  0.76936354  0.41817872  1
  B  B13  1  0.25000000  0.23063646  0.58182128  1
  B  B14  1  0.25000000  0.73063646  0.91817872  1
  B  B15  1  0.75000000  0.26936354  0.08182128  1
  B  B16  1  0.75000000  0.96252830  0.98152818  1
  B  B17  1  0.25000000  0.03747170  0.01847182  1
  B  B18  1  0.25000000  0.53747170  0.48152818  1
  B  B19  1  0.75000000  0.46252830  0.51847182  1
  B  B20  1  0.75000000  0.81413664  0.93295707  1
  B  B21  1  0.25000000  0.18586336  0.06704293  1
  B  B22  1  0.25000000  0.68586336  0.43295707  1
  B  B23  1  0.75000000  0.31413664  0.56704293  1
  B  B24  1  0.75000000  0.83426838  0.66761583  1
  B  B25  1  0.25000000  0.16573162  0.33238417  1
  B  B26  1  0.25000000  0.66573162  0.16761583  1
  B  B27  1  0.75000000  0.33426838  0.83238417  1
  Mo  Mo0  1  0.75000000  0.11778576  0.47297471  1
  Mo  Mo1  1  0.25000000  0.88221424  0.52702529  1
  Mo  Mo2  1  0.25000000  0.38221424  0.97297471  1
  Mo  Mo3  1  0.75000000  0.61778576  0.02702529  1
  Mo  Mo4  1  0.75000000  0.65958748  0.56431540  1
  Mo  Mo5  1  0.25000000  0.34041252  0.43568460  1
  Mo  Mo6  1  0.25000000  0.84041252  0.06431540  1
  Mo  Mo7  1  0.75000000  0.15958748  0.93568460  1
  Mo  Mo8  1  0.75000000  0.68423774  0.79799517  1
  Mo  Mo9  1  0.25000000  0.31576226  0.20200483  1
  Mo  Mo10  1  0.25000000  0.81576226  0.29799517  1
  Mo  Mo11  1  0.75000000  0.18423774  0.70200483  1
loop_
_geom_bond_atom_site_label_1
_geom_bond_atom_site_label_2
_geom_bond_distance
_geom_bond_site_symmetry_2
B0 B26 1.806524 1_555
B0 B26 1.806524 1_655
B0 Mo6 2.306790 1_655
B0 Mo6 2.306790 1_555
B0 Mo10 2.333348 1_655
B0 Mo10 2.333348 1_555
B0 Mo3 2.377116 1_555
B0 Er0 2.783426 1_555
B0 Er3 3.323517 1_565
B1 B27 1.806524 1_455
B1 B27 1.806524 1_555
B1 Mo7 2.306790 1_455
B1 Mo7 2.306790 1_555
B1 Mo11 2.333348 1_555
B1 Mo11 2.333348 1_455
B1 Mo2 2.377116 1_555
B1 Er1 2.783426 1_555
B1 Er2 3.323517 1_545
B2 B24 1.806524 1_455
B2 B24 1.806524 1_555
B2 Mo4 2.306790 1_555
B2 Mo4 2.306790 1_455
B2 Mo8 2.333348 1_455
B2 Mo8 2.333348 1_555
B2 Mo1 2.377116 1_555
B2 Er2 2.783426 1_555
B2 Er1 3.323517 1_555
B3 Mo5 2.306790 1_555
B3 Mo5 2.306790 1_655
B3 Mo9 2.333348 1_655
B3 Mo9 2.333348 1_555
B3 Mo0 2.377116 1_555
B3 Er3 2.783426 1_555
B3 Er0 3.323517 1_555
B4 B9 1.792302 1_665
B4 B9 1.792302 1_565
B4 Mo10 2.289519 1_655
B4 Mo10 2.289519 1_555
B4 Mo0 2.337341 1_565
B4 Mo1 2.459862 1_555
B4 Mo1 2.459862 1_655
B4 Er3 2.790079 1_565
B5 B8 1.792302 1_545
B5 B8 1.792302 1_445
B5 Mo11 2.289519 1_455
B5 Mo11 2.289519 1_555
B5 Mo1 2.337341 1_545
B5 Mo0 2.459862 1_455
B5 Mo0 2.459862 1_555
B5 Er2 2.790079 1_545
B6 Mo8 2.289519 1_555
B6 Mo8 2.289519 1_455
B6 Mo2 2.337341 1_555
B6 Mo3 2.459862 1_456
B6 Mo3 2.459862 1_556
B6 Er1 2.790079 1_555
B7 Mo9 2.289519 1_655
B7 Mo9 2.289519 1_555
B7 Mo3 2.337341 1_555
B7 Mo2 2.459862 1_554
B7 Mo2 2.459862 1_654
B7 Er0 2.790079 1_555
B8 Mo11 2.294208 1_565
B8 Mo1 2.409489 1_555
B8 Mo1 2.409489 1_655
B8 Mo0 2.545407 1_565
B8 Er2 2.707293 1_655
B8 Er2 2.707293 1_555
B9 Mo10 2.294208 1_545
B9 Mo0 2.409489 1_555
B9 Mo0 2.409489 1_455
B9 Mo1 2.545407 1_545
B9 Er3 2.707293 1_555
B9 Er3 2.707293 1_455
B10 B26 1.746123 1_555
B10 B7 1.792302 1_455
B10 B7 1.792302 1_555
B10 Mo9 2.294208 1_555
B10 Mo3 2.409489 1_455
B10 Mo3 2.409489 1_555
B10 Mo2 2.545407 1_554
B10 Er0 2.707293 1_455
B10 Er0 2.707293 1_555
B11 B27 1.746123 1_555
B11 B6 1.792302 1_555
B11 B6 1.792302 1_655
B11 Mo8 2.294208 1_555
B11 Mo2 2.409489 1_655
B11 Mo2 2.409489 1_555
B11 Mo3 2.545407 1_556
B11 Er1 2.707293 1_555
B11 Er1 2.707293 1_655
B12 B22 1.807609 1_655
B12 B22 1.807609 1_555
B12 B4 1.845240 1_555
B12 Mo4 2.227191 1_555
B12 Mo10 2.239957 1_655
B12 Mo10 2.239957 1_555
B12 Mo1 2.423199 1_555
B12 Mo1 2.423199 1_655
B12 Er0 2.775472 1_555
B13 B23 1.807609 1_455
B13 B23 1.807609 1_555
B13 B5 1.845240 1_555
B13 Mo5 2.227191 1_555
B13 Mo11 2.239957 1_555
B13 Mo11 2.239957 1_455
B13 Mo0 2.423199 1_455
B13 Mo0 2.423199 1_555
B13 Er1 2.775472 1_555
B14 B20 1.807609 1_455
B14 B20 1.807609 1_555
B14 B6 1.845240 1_555
B14 Mo6 2.227191 1_556
B14 Mo8 2.239957 1_555
B14 Mo8 2.239957 1_455
B14 Mo3 2.423199 1_456
B14 Mo3 2.423199 1_556
B14 Er2 2.775472 1_555
B15 B21 1.807609 1_655
B15 B21 1.807609 1_555
B15 B7 1.845240 1_555
B15 Mo7 2.227191 1_554
B15 Mo9 2.239957 1_655
B15 Mo9 2.239957 1_555
B15 Mo2 2.423199 1_654
B15 Mo2 2.423199 1_554
B15 Er3 2.775472 1_555
B16 B20 1.746715 1_555
B16 B17 1.814233 1_666
B16 B17 1.814233 1_566
B16 Mo7 2.245621 1_565
B16 Mo6 2.305705 1_656
B16 Mo6 2.305705 1_556
B16 Er2 2.709156 1_555
B16 Er2 2.709156 1_655
B16 Er3 2.866534 1_566
B17 B21 1.746715 1_555
B17 Mo6 2.245621 1_545
B17 Mo7 2.305705 1_454
B17 Mo7 2.305705 1_554
B17 Er3 2.709156 1_555
B17 Er3 2.709156 1_455
B17 Er2 2.866534 1_544
B18 B22 1.746715 1_555
B18 B19 1.814233 1_455
B18 B19 1.814233 1_555
B18 Mo5 2.245621 1_555
B18 Mo4 2.305705 1_555
B18 Mo4 2.305705 1_455
B18 Er0 2.709156 1_555
B18 Er0 2.709156 1_455
B18 Er1 2.866534 1_555
B19 B23 1.746715 1_555
B19 Mo4 2.245621 1_555
B19 Mo5 2.305705 1_555
B19 Mo5 2.305705 1_655
B19 Er1 2.709156 1_655
B19 Er1 2.709156 1_555
B19 Er0 2.866534 1_555
B20 Mo8 2.242481 1_555
B20 Mo6 2.302493 1_656
B20 Mo6 2.302493 1_556
B20 Mo3 2.472985 1_556
B20 Er2 2.666544 1_555
B20 Er2 2.666544 1_655
B21 Mo9 2.242481 1_555
B21 Mo7 2.302493 1_554
B21 Mo7 2.302493 1_454
B21 Mo2 2.472985 1_554
B21 Er3 2.666544 1_555
B21 Er3 2.666544 1_455
B22 Mo10 2.242481 1_555
B22 Mo4 2.302493 1_555
B22 Mo4 2.302493 1_455
B22 Mo1 2.472985 1_555
B22 Er0 2.666544 1_555
B22 Er0 2.666544 1_455
B23 Mo11 2.242481 1_555
B23 Mo5 2.302493 1_555
B23 Mo5 2.302493 1_655
B23 Mo0 2.472985 1_555
B23 Er1 2.666544 1_555
B23 Er1 2.666544 1_655
B24 B8 1.746123 1_555
B24 Mo4 2.332753 1_555
B24 Mo8 2.347576 1_555
B24 Mo1 2.430601 1_555
B24 Mo1 2.430601 1_655
B24 Er2 2.682747 1_555
B24 Er2 2.682747 1_655
B25 B9 1.746123 1_555
B25 B3 1.806524 1_555
B25 B3 1.806524 1_455
B25 Mo5 2.332753 1_555
B25 Mo9 2.347576 1_555
B25 Mo0 2.430601 1_455
B25 Mo0 2.430601 1_555
B25 Er3 2.682747 1_455
B25 Er3 2.682747 1_555
B26 Mo6 2.332753 1_555
B26 Mo10 2.347576 1_555
B26 Mo3 2.430601 1_455
B26 Mo3 2.430601 1_555
B26 Er0 2.682747 1_455
B26 Er0 2.682747 1_555
B27 Mo7 2.332753 1_555
B27 Mo11 2.347576 1_555
B27 Mo2 2.430601 1_655
B27 Mo2 2.430601 1_555
B27 Er1 2.682747 1_655
B27 Er1 2.682747 1_555
