# generated using pymatgen
data_Bi2Te2S
_symmetry_space_group_name_H-M   'P 1'
_cell_length_a   10.36040844
_cell_length_b   10.36040844
_cell_length_c   10.36040838
_cell_angle_alpha   24.04924937
_cell_angle_beta   24.04924937
_cell_angle_gamma   24.04924655
_symmetry_Int_Tables_number   1
_chemical_formula_structural   Bi2Te2S
_chemical_formula_sum   'Bi2 Te2 S1'
_cell_volume   162.28894465
_cell_formula_units_Z   1
loop_
 _symmetry_equiv_pos_site_id
 _symmetry_equiv_pos_as_xyz
  1  'x, y, z'
loop_
 _atom_site_type_symbol
 _atom_site_label
 _atom_site_symmetry_multiplicity
 _atom_site_fract_x
 _atom_site_fract_y
 _atom_site_fract_z
 _atom_site_occupancy
  Bi  Bi0  1  0.59905400  0.59905400  0.59905400  1
  Bi  Bi1  1  0.40636500  0.40636500  0.40636500  1
  Te  Te0  1  0.00463400  0.00463400  0.00463400  1
  Te  Te1  1  0.20698000  0.20698000  0.20698000  1
  S  S0  1  0.78296600  0.78296600  0.78296600  1
loop_
_geom_bond_atom_site_label_1
_geom_bond_atom_site_label_2
_geom_bond_distance
_geom_bond_site_symmetry_2
Bi0 Te1 3.058107 1_655
Bi0 Te1 3.058107 1_565
Bi0 Te1 3.058107 1_556
Bi0 Te0 3.310915 1_656
Bi0 Te0 3.310915 1_566
Bi0 Te0 3.310915 1_665
Bi1 S0 2.813446 1_545
Bi1 S0 2.813446 1_455
Bi1 S0 2.813446 1_554
Bi1 Te0 3.235655 1_565
Bi1 Te0 3.235655 1_655
Bi1 Te0 3.235655 1_556
