# generated using pymatgen
data_KCu7S4
_symmetry_space_group_name_H-M   'P 1'
_cell_length_a   3.84414300
_cell_length_b   7.36875230
_cell_length_c   7.40434419
_cell_angle_alpha   85.19582573
_cell_angle_beta   75.17054702
_cell_angle_gamma   75.81307607
_symmetry_Int_Tables_number   1
_chemical_formula_structural   KCu7S4
_chemical_formula_sum   'K1 Cu7 S4'
_cell_volume   196.52025029
_cell_formula_units_Z   1
loop_
 _symmetry_equiv_pos_site_id
 _symmetry_equiv_pos_as_xyz
  1  'x, y, z'
loop_
 _atom_site_type_symbol
 _atom_site_label
 _atom_site_symmetry_multiplicity
 _atom_site_fract_x
 _atom_site_fract_y
 _atom_site_fract_z
 _atom_site_occupancy
  K  K0  1  0.99582200  0.00186500  0.99918500  1
  Cu  Cu0  1  0.98813700  0.33733800  0.61499900  1
  Cu  Cu1  1  0.95089600  0.65726300  0.38818300  1
  Cu  Cu2  1  0.66032500  0.38359900  0.33758600  1
  Cu  Cu3  1  0.37769100  0.60923900  0.65801200  1
  Cu  Cu4  1  0.29937000  0.90843600  0.45860500  1
  Cu  Cu5  1  0.27224900  0.42193200  0.08612700  1
  Cu  Cu6  1  0.79297100  0.57734400  0.89252000  1
  S  S0  1  0.24471100  0.19813700  0.33645700  1
  S  S1  1  0.77575600  0.81850700  0.66087600  1
  S  S2  1  0.53864400  0.67159100  0.19141100  1
  S  S3  1  0.40842900  0.31974900  0.79704000  1
loop_
_geom_bond_atom_site_label_1
_geom_bond_atom_site_label_2
_geom_bond_distance
_geom_bond_site_symmetry_2
K0 S3 3.203371 1_655
K0 S2 3.279298 1_646
K0 S1 3.320828 1_545
K0 S2 3.357572 1_546
K0 S3 3.372824 1_555
K0 S0 3.395897 1_556
K0 S0 3.427801 1_656
K0 S1 3.438932 1_645
Cu0 S0 2.257365 1_655
Cu0 S3 2.318292 1_555
Cu0 S3 2.329556 1_655
Cu1 S1 2.292535 1_555
Cu1 S2 2.375888 1_655
Cu1 S2 2.391544 1_555
Cu2 S2 2.298169 1_555
Cu2 S0 2.324170 1_655
Cu2 S0 2.345062 1_555
Cu3 S3 2.279254 1_555
Cu3 S1 2.428714 1_555
Cu3 S1 2.442117 1_455
Cu4 S0 2.230077 1_565
Cu4 S1 2.382892 1_455
Cu4 S2 2.581856 1_555
Cu4 S1 2.584317 1_555
Cu5 S3 2.219437 1_554
Cu5 S0 2.374746 1_555
Cu5 S2 2.571602 1_555
Cu5 S2 2.918361 1_455
Cu6 S2 2.270021 1_556
Cu6 S1 2.365183 1_555
