# generated using pymatgen
data_Sr3Fe2(OF)4
_symmetry_space_group_name_H-M   'P 1'
_cell_length_a   11.65182009
_cell_length_b   11.65182009
_cell_length_c   11.65182009
_cell_angle_alpha   160.39507434
_cell_angle_beta   160.39507434
_cell_angle_gamma   27.86427496
_symmetry_Int_Tables_number   1
_chemical_formula_structural   Sr3Fe2(OF)4
_chemical_formula_sum   'Sr3 Fe2 O4 F4'
_cell_volume   178.01518941
_cell_formula_units_Z   1
loop_
 _symmetry_equiv_pos_site_id
 _symmetry_equiv_pos_as_xyz
  1  'x, y, z'
loop_
 _atom_site_type_symbol
 _atom_site_label
 _atom_site_symmetry_multiplicity
 _atom_site_fract_x
 _atom_site_fract_y
 _atom_site_fract_z
 _atom_site_occupancy
  Sr  Sr0  1  0.50000000  0.50000000  0.00000000  1
  Sr  Sr1  1  0.67194500  0.67194500  0.00000000  1
  Sr  Sr2  1  0.32805500  0.32805500  0.00000000  1
  Fe  Fe0  1  0.90878100  0.90878100  0.00000000  1
  Fe  Fe1  1  0.09121900  0.09121900  0.00000000  1
  O  O0  1  0.90814700  0.40814700  0.50000000  1
  O  O1  1  0.59185300  0.09185300  0.50000000  1
  O  O2  1  0.08691900  0.58691900  0.50000000  1
  O  O3  1  0.41308100  0.91308100  0.50000000  1
  F  F0  1  0.00000000  0.00000000  0.00000000  1
  F  F1  1  0.82005100  0.82005100  0.00000000  1
  F  F2  1  0.17994900  0.17994900  0.00000000  1
  F  F3  1  0.25000000  0.75000000  0.50000000  1
loop_
_geom_bond_atom_site_label_1
_geom_bond_atom_site_label_2
_geom_bond_distance
_geom_bond_site_symmetry_2
Fe0 O0 1.983796 1_565
Fe0 O0 1.983796 1_554
Fe0 O3 1.986127 1_554
Fe0 O3 1.986127 1_655
Fe1 O1 1.983796 1_555
Fe1 O1 1.983796 1_454
Fe1 O2 1.986127 1_555
Fe1 O2 1.986127 1_544
O0 Sr2 2.686424 1_555
O0 Sr2 2.686424 1_656
O0 Sr0 2.872526 1_656
O0 Sr0 2.872526 1_555
O1 Sr1 2.686424 1_545
O1 Sr1 2.686424 1_556
O1 Sr0 2.872526 1_545
O1 Sr0 2.872526 1_556
O2 Sr1 2.762906 1_556
O2 Sr1 2.762906 1_455
O2 Sr0 2.792878 1_455
O2 Sr0 2.792878 1_556
O3 Sr2 2.762906 1_566
O3 Sr2 2.762906 1_555
O3 Sr0 2.792878 1_555
O3 Sr0 2.792878 1_566
F0 Fe1 2.063199 1_555
F0 Fe0 2.063199 1_445
F0 Sr0 2.805438 1_556
F0 Sr0 2.805438 1_444
F0 Sr0 2.805438 1_545
F0 Sr0 2.805438 1_455
F1 Fe0 2.006903 1_555
F1 Sr2 2.811273 1_655
F1 Sr2 2.811273 1_554
F1 Sr2 2.811273 1_666
F1 Sr2 2.811273 1_565
F2 Fe1 2.006903 1_555
F2 Sr1 2.811273 1_444
F2 Sr1 2.811273 1_545
F2 Sr1 2.811273 1_455
F2 Sr1 2.811273 1_556
F3 Sr1 2.655573 1_455
F3 Sr1 2.655573 1_556
F3 Sr2 2.655573 1_555
F3 Sr2 2.655573 1_566
