# generated using pymatgen
data_BaTi(GeO3)3
_symmetry_space_group_name_H-M   'P 1'
_cell_length_a   6.92360491
_cell_length_b   6.92360491
_cell_length_c   10.25525800
_cell_angle_alpha   90.00000000
_cell_angle_beta   90.00000000
_cell_angle_gamma   120.00000869
_symmetry_Int_Tables_number   1
_chemical_formula_structural   BaTi(GeO3)3
_chemical_formula_sum   'Ba2 Ti2 Ge6 O18'
_cell_volume   425.73733654
_cell_formula_units_Z   2
loop_
 _symmetry_equiv_pos_site_id
 _symmetry_equiv_pos_as_xyz
  1  'x, y, z'
loop_
 _atom_site_type_symbol
 _atom_site_label
 _atom_site_symmetry_multiplicity
 _atom_site_fract_x
 _atom_site_fract_y
 _atom_site_fract_z
 _atom_site_occupancy
  Ba  Ba0  1  0.00000000  0.00000000  0.00000000  1
  Ba  Ba1  1  0.00000000  0.00000000  0.50000000  1
  Ti  Ti0  1  0.66666700  0.33333300  0.00000000  1
  Ti  Ti1  1  0.66666700  0.33333300  0.50000000  1
  Ge  Ge0  1  0.41362900  0.44804600  0.25000000  1
  Ge  Ge1  1  0.55195400  0.96558300  0.25000000  1
  Ge  Ge2  1  0.41362900  0.96558300  0.75000000  1
  Ge  Ge3  1  0.03441700  0.58637100  0.25000000  1
  Ge  Ge4  1  0.55195400  0.58637100  0.75000000  1
  Ge  Ge5  1  0.03441700  0.44804600  0.75000000  1
  O  O0  1  0.89346000  0.57869700  0.10686200  1
  O  O1  1  0.42130300  0.31476200  0.10686200  1
  O  O2  1  0.89346000  0.57869700  0.39313800  1
  O  O3  1  0.89346000  0.31476200  0.60686200  1
  O  O4  1  0.68523800  0.10654000  0.10686200  1
  O  O5  1  0.42130300  0.31476200  0.39313800  1
  O  O6  1  0.42130300  0.10654000  0.60686200  1
  O  O7  1  0.89346000  0.31476200  0.89313800  1
  O  O8  1  0.68523800  0.10654000  0.39313800  1
  O  O9  1  0.42130300  0.10654000  0.89313800  1
  O  O10  1  0.68523800  0.57869700  0.60686200  1
  O  O11  1  0.68523800  0.57869700  0.89313800  1
  O  O12  1  0.13054600  0.39185400  0.25000000  1
  O  O13  1  0.60814600  0.73869200  0.25000000  1
  O  O14  1  0.13054600  0.73869200  0.75000000  1
  O  O15  1  0.26130800  0.86945400  0.25000000  1
  O  O16  1  0.60814600  0.86945400  0.75000000  1
  O  O17  1  0.26130800  0.39185400  0.75000000  1
loop_
_geom_bond_atom_site_label_1
_geom_bond_atom_site_label_2
_geom_bond_distance
_geom_bond_site_symmetry_2
Ba0 O7 2.846389 1_454
Ba0 O4 2.846389 1_455
Ba0 O11 2.846393 1_444
Ba0 O1 2.846393 1_555
Ba0 O0 2.846395 1_445
Ba0 O9 2.846395 1_554
Ba1 O3 2.846389 1_455
Ba1 O8 2.846389 1_455
Ba1 O10 2.846393 1_445
Ba1 O5 2.846393 1_555
Ba1 O2 2.846395 1_445
Ba1 O6 2.846395 1_555
Ge0 O5 1.748772 1_555
Ge0 O1 1.748772 1_555
Ge0 O13 1.775690 1_555
Ge0 O12 1.797293 1_555
Ge1 O4 1.748770 1_565
Ge1 O8 1.748770 1_565
Ge1 O15 1.775690 1_555
Ge1 O13 1.797293 1_555
Ge2 O6 1.748768 1_565
Ge2 O9 1.748768 1_565
Ge2 O16 1.775690 1_555
Ge2 O14 1.797292 1_555
Ge3 O0 1.748768 1_455
Ge3 O2 1.748768 1_455
Ge3 O12 1.775690 1_555
Ge3 O15 1.797292 1_555
Ge4 O11 1.748772 1_555
Ge4 O10 1.748772 1_555
Ge4 O17 1.775690 1_555
Ge4 O16 1.797293 1_555
Ge5 O7 1.748770 1_455
Ge5 O3 1.748770 1_455
Ge5 O14 1.775690 1_555
Ge5 O17 1.797293 1_555
O0 Ti0 1.971047 1_555
O1 Ti0 1.971047 1_555
O2 Ti1 1.971047 1_555
O3 Ti1 1.971047 1_555
O4 Ti0 1.971047 1_555
O5 Ti1 1.971047 1_555
O6 Ti1 1.971047 1_555
O7 Ti0 1.971047 1_556
O8 Ti1 1.971047 1_555
O9 Ti0 1.971047 1_556
O10 Ti1 1.971047 1_555
O11 Ti0 1.971047 1_556
