# generated using pymatgen
data_CsCrI3
_symmetry_space_group_name_H-M   'P 1'
_cell_length_a   6.82585800
_cell_length_b   11.01918300
_cell_length_c   16.49456700
_cell_angle_alpha   90.00000000
_cell_angle_beta   90.00000000
_cell_angle_gamma   90.00000000
_symmetry_Int_Tables_number   1
_chemical_formula_structural   CsCrI3
_chemical_formula_sum   'Cs4 Cr4 I12'
_cell_volume   1240.64509901
_cell_formula_units_Z   4
loop_
 _symmetry_equiv_pos_site_id
 _symmetry_equiv_pos_as_xyz
  1  'x, y, z'
loop_
 _atom_site_type_symbol
 _atom_site_label
 _atom_site_symmetry_multiplicity
 _atom_site_fract_x
 _atom_site_fract_y
 _atom_site_fract_z
 _atom_site_occupancy
  Cs  Cs0  1  0.25000000  0.50000000  0.87466400  1
  Cs  Cs1  1  0.25000000  0.00000000  0.37466400  1
  Cs  Cs2  1  0.75000000  0.50000000  0.12533600  1
  Cs  Cs3  1  0.75000000  0.00000000  0.62533600  1
  Cr  Cr0  1  0.50000000  0.00000000  0.00000000  1
  Cr  Cr1  1  0.00000000  0.00000000  0.00000000  1
  Cr  Cr2  1  0.00000000  0.50000000  0.50000000  1
  Cr  Cr3  1  0.50000000  0.50000000  0.50000000  1
  I  I0  1  0.25111400  0.65766800  0.08964600  1
  I  I1  1  0.75000000  0.50000000  0.37599900  1
  I  I2  1  0.75111400  0.84233200  0.41035400  1
  I  I3  1  0.74888600  0.15766800  0.41035400  1
  I  I4  1  0.25111400  0.84233200  0.58964600  1
  I  I5  1  0.74888600  0.34233200  0.91035400  1
  I  I6  1  0.75111400  0.65766800  0.91035400  1
  I  I7  1  0.25000000  0.00000000  0.12400100  1
  I  I8  1  0.25000000  0.50000000  0.62400100  1
  I  I9  1  0.24888600  0.34233200  0.08964600  1
  I  I10  1  0.75000000  0.00000000  0.87599900  1
  I  I11  1  0.24888600  0.15766800  0.58964600  1
loop_
_geom_bond_atom_site_label_1
_geom_bond_atom_site_label_2
_geom_bond_distance
_geom_bond_site_symmetry_2
Cs0 I6 3.867979 1_455
Cs0 I5 3.867979 1_555
Cs0 I6 3.881374 1_555
Cs0 I5 3.881374 1_455
Cs0 I0 3.948783 1_556
Cs0 I9 3.948783 1_556
Cs0 I8 4.134578 1_555
Cs1 I3 3.867979 1_555
Cs1 I2 3.867979 1_445
Cs1 I2 3.881374 1_545
Cs1 I3 3.881374 1_455
Cs1 I11 3.948783 1_555
Cs1 I4 3.948783 1_545
Cs1 I7 4.134578 1_555
Cs2 I0 3.867979 1_555
Cs2 I9 3.867979 1_655
Cs2 I0 3.881374 1_655
Cs2 I9 3.881374 1_555
Cs2 I6 3.948783 1_554
Cs2 I5 3.948783 1_554
Cs2 I1 4.134578 1_555
Cs3 I11 3.867979 1_655
Cs3 I4 3.867979 1_545
Cs3 I4 3.881374 1_645
Cs3 I11 3.881374 1_555
Cs3 I2 3.948783 1_545
Cs3 I3 3.948783 1_555
Cs3 I10 4.134578 1_555
Cr0 I7 2.663728 1_555
Cr0 I10 2.663728 1_554
Cr1 I7 2.663728 1_555
Cr1 I10 2.663728 1_454
Cr2 I8 2.663728 1_555
Cr2 I1 2.663728 1_455
Cr3 I8 2.663728 1_555
Cr3 I1 2.663728 1_555
