# generated using pymatgen
data_MoPbSeO6
_symmetry_space_group_name_H-M   'P 1'
_cell_length_a   7.06185000
_cell_length_b   7.33241896
_cell_length_c   11.09851662
_cell_angle_alpha   99.35413185
_cell_angle_beta   100.09608021
_cell_angle_gamma   89.79062246
_symmetry_Int_Tables_number   1
_chemical_formula_structural   MoPbSeO6
_chemical_formula_sum   'Mo4 Pb4 Se4 O24'
_cell_volume   558.08117439
_cell_formula_units_Z   4
loop_
 _symmetry_equiv_pos_site_id
 _symmetry_equiv_pos_as_xyz
  1  'x, y, z'
loop_
 _atom_site_type_symbol
 _atom_site_label
 _atom_site_symmetry_multiplicity
 _atom_site_fract_x
 _atom_site_fract_y
 _atom_site_fract_z
 _atom_site_occupancy
  Mo  Mo0  1  0.15869800  0.95267000  0.80054500  1
  Mo  Mo1  1  0.84130200  0.04733000  0.19945500  1
  Mo  Mo2  1  0.15936400  0.44996200  0.79735900  1
  Mo  Mo3  1  0.84063600  0.55003800  0.20264100  1
  Pb  Pb0  1  0.75063200  0.86136700  0.50572000  1
  Pb  Pb1  1  0.24936800  0.13863300  0.49428000  1
  Pb  Pb2  1  0.64874500  0.71080100  0.84145100  1
  Pb  Pb3  1  0.35125500  0.28919900  0.15854900  1
  Se  Se0  1  0.29067800  0.64051200  0.53397600  1
  Se  Se1  1  0.70932200  0.35948800  0.46602400  1
  Se  Se2  1  0.60860800  0.19430200  0.78441700  1
  Se  Se3  1  0.39139200  0.80569800  0.21558300  1
  O  O0  1  0.17295800  0.04791700  0.95586500  1
  O  O1  1  0.82704200  0.95208300  0.04413500  1
  O  O2  1  0.90857000  0.88904400  0.75628500  1
  O  O3  1  0.09143000  0.11095600  0.24371500  1
  O  O4  1  0.13798800  0.18477300  0.72793500  1
  O  O5  1  0.86201200  0.81522700  0.27206500  1
  O  O6  1  0.26200100  0.71073900  0.82355300  1
  O  O7  1  0.73799900  0.28926100  0.17644700  1
  O  O8  1  0.18464000  0.84220900  0.59854000  1
  O  O9  1  0.81536000  0.15779100  0.40146000  1
  O  O10  1  0.47394400  0.02325700  0.82527400  1
  O  O11  1  0.52605600  0.97674300  0.17472600  1
  O  O12  1  0.18382300  0.43089400  0.95346500  1
  O  O13  1  0.81617700  0.56910600  0.04653500  1
  O  O14  1  0.91409100  0.50193800  0.75791900  1
  O  O15  1  0.08590900  0.49806200  0.24208100  1
  O  O16  1  0.20478000  0.46563100  0.60338100  1
  O  O17  1  0.79522000  0.53436900  0.39661900  1
  O  O18  1  0.47842400  0.39323500  0.81323300  1
  O  O19  1  0.52157600  0.60676500  0.18676700  1
  O  O20  1  0.52802800  0.67327700  0.60883900  1
  O  O21  1  0.47197200  0.32672300  0.39116100  1
  O  O22  1  0.56354700  0.14005800  0.62325500  1
  O  O23  1  0.43645300  0.85994200  0.37674500  1
loop_
_geom_bond_atom_site_label_1
_geom_bond_atom_site_label_2
_geom_bond_distance
_geom_bond_site_symmetry_2
Mo0 O0 1.737167 1_565
Mo0 O2 1.790620 1_455
Mo0 O6 1.953647 1_555
Mo0 O4 1.992455 1_565
Mo0 O10 2.246618 1_565
Mo0 O8 2.295336 1_555
Mo1 O1 1.737167 1_545
Mo1 O3 1.790620 1_655
Mo1 O7 1.953647 1_555
Mo1 O5 1.992455 1_545
Mo1 O11 2.246618 1_545
Mo1 O9 2.295336 1_555
Mo2 O12 1.739179 1_555
Mo2 O14 1.766506 1_455
Mo2 O4 1.967686 1_555
Mo2 O6 2.005402 1_555
Mo2 O16 2.252478 1_555
Mo2 O18 2.271245 1_555
Mo3 O13 1.739179 1_555
Mo3 O15 1.766506 1_655
Mo3 O5 1.967686 1_555
Mo3 O7 2.005402 1_555
Mo3 O17 2.252478 1_555
Mo3 O19 2.271245 1_555
O0 Pb3 2.739547 1_556
O1 Pb2 2.739547 1_554
O2 Pb2 2.644877 1_555
O2 Pb0 2.783762 1_555
O3 Pb3 2.644877 1_555
O3 Pb1 2.783762 1_555
O4 Pb1 2.808185 1_555
O5 Pb0 2.808185 1_555
O6 Pb2 2.703386 1_555
O7 Pb3 2.703386 1_555
O8 Se0 1.759819 1_555
O8 Pb1 2.698571 1_565
O9 Se1 1.759819 1_555
O9 Pb0 2.698571 1_545
O10 Se2 1.740029 1_555
O10 Pb2 2.615399 1_545
O11 Se3 1.740029 1_555
O11 Pb3 2.615399 1_565
O12 Pb3 2.733943 1_556
O13 Pb2 2.733943 1_554
O14 Pb2 2.615852 1_555
O15 Pb3 2.615852 1_555
O16 Se0 1.759603 1_555
O16 Pb1 2.549237 1_555
O17 Se1 1.759603 1_555
O17 Pb0 2.549237 1_555
O18 Se2 1.736891 1_555
O18 Pb2 2.572576 1_555
O19 Se3 1.736891 1_555
O19 Pb3 2.572576 1_555
O20 Se0 1.734148 1_555
O20 Pb2 2.542941 1_555
O20 Pb0 2.615864 1_555
O21 Se1 1.734148 1_555
O21 Pb3 2.542941 1_555
O21 Pb1 2.615864 1_555
O22 Se2 1.740364 1_555
O22 Pb1 2.419403 1_555
O22 Pb0 2.709406 1_545
O23 Se3 1.740364 1_555
O23 Pb0 2.419403 1_555
O23 Pb1 2.709406 1_565
