# generated using pymatgen
data_CaLaFeBiO6
_symmetry_space_group_name_H-M   'P 1'
_cell_length_a   5.75621507
_cell_length_b   5.90923974
_cell_length_c   5.75621507
_cell_angle_alpha   60.85299285
_cell_angle_beta   90.00000000
_cell_angle_gamma   119.14700715
_symmetry_Int_Tables_number   1
_chemical_formula_structural   CaLaFeBiO6
_chemical_formula_sum   'Ca1 La1 Fe1 Bi1 O6'
_cell_volume   141.94398919
_cell_formula_units_Z   1
loop_
 _symmetry_equiv_pos_site_id
 _symmetry_equiv_pos_as_xyz
  1  'x, y, z'
loop_
 _atom_site_type_symbol
 _atom_site_label
 _atom_site_symmetry_multiplicity
 _atom_site_fract_x
 _atom_site_fract_y
 _atom_site_fract_z
 _atom_site_occupancy
  Ca  Ca0  1  0.25000000  0.50000000  0.25000000  1
  La  La0  1  0.50000000  -0.00000000  0.50000000  1
  Fe  Fe0  1  0.00000000  -0.00000000  0.00000000  1
  Bi  Bi0  1  0.75000000  0.50000000  0.75000000  1
  O  O0  1  0.76550241  0.53100481  0.23449759  1
  O  O1  1  0.23449759  0.46899519  0.76550241  1
  O  O2  1  0.86411660  0.99138830  0.69183794  1
  O  O3  1  0.12727170  0.99138830  0.31677376  1
  O  O4  1  0.31677376  0.00861170  0.86411660  1
  O  O5  1  0.69183794  0.00861170  0.12727170  1
loop_
_geom_bond_atom_site_label_1
_geom_bond_atom_site_label_2
_geom_bond_distance
_geom_bond_site_symmetry_2
Ca0 O2 2.546828 1_445
Ca0 O5 2.546828 1_565
Ca0 O4 2.546828 1_564
Ca0 O3 2.546828 1_545
Ca0 O1 2.881171 1_554
Ca0 O0 2.881171 1_455
Ca0 O0 2.881171 1_555
Ca0 O1 2.881171 1_555
La0 O1 2.274791 1_545
La0 O0 2.274791 1_555
La0 O5 2.379932 1_555
La0 O3 2.379932 1_545
La0 O2 2.379932 1_545
La0 O4 2.379932 1_555
Fe0 O4 1.951942 1_554
Fe0 O3 1.951942 1_545
Fe0 O2 1.951942 1_444
Fe0 O5 1.951942 1_455
Fe0 O0 2.009145 1_445
Fe0 O1 2.009145 1_554
Bi0 O3 2.483999 1_655
Bi0 O4 2.483999 1_555
Bi0 O5 2.483999 1_556
Bi0 O2 2.483999 1_555
