# generated using pymatgen
data_BaSr7Ti7MnO24
_symmetry_space_group_name_H-M   'P 1'
_cell_length_a   7.89242404
_cell_length_b   7.89242404
_cell_length_c   7.89242466
_cell_angle_alpha   90.01662437
_cell_angle_beta   90.01662437
_cell_angle_gamma   90.01662165
_symmetry_Int_Tables_number   1
_chemical_formula_structural   BaSr7Ti7MnO24
_chemical_formula_sum   'Ba1 Sr7 Ti7 Mn1 O24'
_cell_volume   491.62188967
_cell_formula_units_Z   1
loop_
 _symmetry_equiv_pos_site_id
 _symmetry_equiv_pos_as_xyz
  1  'x, y, z'
loop_
 _atom_site_type_symbol
 _atom_site_label
 _atom_site_symmetry_multiplicity
 _atom_site_fract_x
 _atom_site_fract_y
 _atom_site_fract_z
 _atom_site_occupancy
  Ba  Ba0  1  0.24864900  0.24864900  0.24864900  1
  Sr  Sr0  1  0.24858800  0.24858800  0.75130700  1
  Sr  Sr1  1  0.75142300  0.24856600  0.75142300  1
  Sr  Sr2  1  0.75130700  0.24858800  0.24858800  1
  Sr  Sr3  1  0.24856600  0.75142300  0.75142300  1
  Sr  Sr4  1  0.75145600  0.75145600  0.75145600  1
  Sr  Sr5  1  0.24858800  0.75130700  0.24858800  1
  Sr  Sr6  1  0.75142300  0.75142300  0.24856600  1
  Ti  Ti0  1  0.50175300  0.99872600  0.99872600  1
  Ti  Ti1  1  0.99872600  0.99872600  0.50175300  1
  Ti  Ti2  1  0.50128000  0.99870700  0.50128000  1
  Ti  Ti3  1  0.99872600  0.50175300  0.99872600  1
  Ti  Ti4  1  0.50128000  0.50128000  0.99870700  1
  Ti  Ti5  1  0.99870700  0.50128000  0.50128000  1
  Ti  Ti6  1  0.50126700  0.50126700  0.50126700  1
  Mn  Mn0  1  0.99893600  0.99893600  0.99893600  1
  O  O0  1  0.99577400  0.24707900  0.99577400  1
  O  O1  1  0.50380100  0.24956800  0.99619100  1
  O  O2  1  0.99619100  0.24956800  0.50380100  1
  O  O3  1  0.50379900  0.24949400  0.50379900  1
  O  O4  1  0.99931800  0.75310000  0.99931800  1
  O  O5  1  0.50081300  0.75032500  0.99914200  1
  O  O6  1  0.99914200  0.75032500  0.50081300  1
  O  O7  1  0.50083900  0.75051000  0.50083900  1
  O  O8  1  0.99931800  0.99931800  0.75310000  1
  O  O9  1  0.50081300  0.99914200  0.75032500  1
  O  O10  1  0.99577400  0.99577400  0.24707900  1
  O  O11  1  0.50380100  0.99619100  0.24956800  1
  O  O12  1  0.99914200  0.50081300  0.75032500  1
  O  O13  1  0.50083900  0.50083900  0.75051000  1
  O  O14  1  0.99619100  0.50380100  0.24956800  1
  O  O15  1  0.50379900  0.50379900  0.24949400  1
  O  O16  1  0.24707900  0.99577400  0.99577400  1
  O  O17  1  0.75310000  0.99931800  0.99931800  1
  O  O18  1  0.24956800  0.99619100  0.50380100  1
  O  O19  1  0.75032500  0.99914200  0.50081300  1
  O  O20  1  0.24956800  0.50380100  0.99619100  1
  O  O21  1  0.75032500  0.50081300  0.99914200  1
  O  O22  1  0.24949400  0.50379900  0.50379900  1
  O  O23  1  0.75051000  0.50083900  0.50083900  1
loop_
_geom_bond_atom_site_label_1
_geom_bond_atom_site_label_2
_geom_bond_distance
_geom_bond_site_symmetry_2
Ba0 O10 2.822095 1_445
Ba0 O16 2.822096 1_544
Ba0 O0 2.822096 1_454
Ba0 O11 2.833323 1_545
Ba0 O14 2.833323 1_455
Ba0 O1 2.833323 1_554
Ba0 O20 2.833323 1_554
Ba0 O18 2.833323 1_545
Ba0 O2 2.833323 1_455
Ba0 O15 2.847467 1_555
Ba0 O22 2.847467 1_555
Ba0 O3 2.847467 1_555
Mn0 O17 1.940248 1_555
Mn0 O4 1.940248 1_555
Mn0 O8 1.940249 1_555
Mn0 O0 1.958782 1_565
Mn0 O16 1.958782 1_655
Mn0 O10 1.958782 1_556
O0 Ti3 2.010252 1_555
O0 Sr1 2.726976 1_555
O0 Sr0 2.776038 1_655
O0 Sr2 2.776038 1_556
O1 Ti0 1.979920 1_545
O1 Ti4 1.986817 1_555
O1 Sr1 2.748380 1_555
O1 Sr2 2.789595 1_556
O1 Sr0 2.791133 1_555
O2 Ti1 1.979920 1_545
O2 Ti5 1.986817 1_555
O2 Sr1 2.748380 1_555
O2 Sr0 2.789595 1_655
O2 Sr2 2.791133 1_555
O3 Ti2 1.979505 1_545
O3 Ti6 1.987312 1_555
O3 Sr1 2.763485 1_555
O3 Sr0 2.806313 1_555
O3 Sr2 2.806313 1_555
O4 Ti3 1.983745 1_555
O4 Sr4 2.766154 1_555
O4 Sr3 2.774893 1_655
O4 Sr6 2.774893 1_556
O4 Sr5 2.781884 1_656
O5 Ti0 1.960502 1_555
O5 Ti4 1.965575 1_555
O5 Sr4 2.781535 1_555
O5 Sr3 2.789930 1_555
O5 Sr6 2.790196 1_556
O5 Sr5 2.800179 1_556
O6 Ti1 1.960502 1_555
O6 Ti5 1.965575 1_555
O6 Sr4 2.781535 1_555
O6 Sr6 2.789930 1_555
O6 Sr3 2.790196 1_655
O6 Sr5 2.800179 1_655
O7 Ti2 1.958880 1_555
O7 Ti6 1.967139 1_555
O7 Sr4 2.796881 1_555
O7 Sr3 2.806770 1_555
O7 Sr6 2.806770 1_555
O7 Sr5 2.815119 1_555
O8 Ti1 1.983746 1_555
O8 Sr4 2.766154 1_555
O8 Sr3 2.774893 1_655
O8 Sr1 2.774893 1_565
O8 Sr0 2.781884 1_665
O9 Ti0 1.960502 1_555
O9 Ti2 1.965575 1_555
O9 Sr4 2.781534 1_555
O9 Sr3 2.789930 1_555
O9 Sr1 2.790196 1_565
O9 Sr0 2.800179 1_565
O10 Ti1 2.010252 1_555
O10 Sr6 2.726976 1_555
O10 Sr5 2.776038 1_655
O10 Sr2 2.776038 1_565
O11 Ti0 1.979920 1_554
O11 Ti2 1.986817 1_555
O11 Sr6 2.748380 1_555
O11 Sr2 2.789595 1_565
O11 Sr5 2.791133 1_555
O12 Ti3 1.960502 1_555
O12 Ti5 1.965575 1_555
O12 Sr4 2.781534 1_555
O12 Sr1 2.789930 1_555
O12 Sr3 2.790196 1_655
O12 Sr0 2.800179 1_655
O13 Ti4 1.958880 1_555
O13 Ti6 1.967139 1_555
O13 Sr4 2.796881 1_555
O13 Sr3 2.806770 1_555
O13 Sr1 2.806770 1_555
O13 Sr0 2.815119 1_555
O14 Ti3 1.979920 1_554
O14 Ti5 1.986817 1_555
O14 Sr6 2.748380 1_555
O14 Sr5 2.789595 1_655
O14 Sr2 2.791133 1_555
O15 Ti4 1.979506 1_554
O15 Ti6 1.987312 1_555
O15 Sr6 2.763485 1_555
O15 Sr2 2.806313 1_555
O15 Sr5 2.806313 1_555
O16 Ti0 2.010252 1_555
O16 Sr3 2.726976 1_555
O16 Sr0 2.776038 1_565
O16 Sr5 2.776038 1_556
O17 Ti0 1.983745 1_555
O17 Sr4 2.766154 1_555
O17 Sr1 2.774893 1_565
O17 Sr6 2.774893 1_556
O17 Sr2 2.781884 1_566
O18 Ti1 1.979920 1_455
O18 Ti2 1.986817 1_555
O18 Sr3 2.748380 1_555
O18 Sr0 2.789595 1_565
O18 Sr5 2.791133 1_555
O19 Ti1 1.960502 1_555
O19 Ti2 1.965575 1_555
O19 Sr4 2.781535 1_555
O19 Sr6 2.789930 1_555
O19 Sr1 2.790196 1_565
O19 Sr2 2.800179 1_565
O20 Ti3 1.979920 1_455
O20 Ti4 1.986817 1_555
O20 Sr3 2.748380 1_555
O20 Sr5 2.789595 1_556
O20 Sr0 2.791133 1_555
O21 Ti3 1.960502 1_555
O21 Ti4 1.965575 1_555
O21 Sr4 2.781535 1_555
O21 Sr1 2.789930 1_555
O21 Sr6 2.790196 1_556
O21 Sr2 2.800179 1_556
O22 Ti5 1.979505 1_455
O22 Ti6 1.987312 1_555
O22 Sr3 2.763485 1_555
O22 Sr0 2.806313 1_555
O22 Sr5 2.806313 1_555
O23 Ti5 1.958880 1_555
O23 Ti6 1.967139 1_555
O23 Sr4 2.796881 1_555
O23 Sr1 2.806770 1_555
O23 Sr6 2.806770 1_555
O23 Sr2 2.815119 1_555
