# generated using pymatgen
data_TbAgSn
_symmetry_space_group_name_H-M   'P 1'
_cell_length_a   4.84596766
_cell_length_b   4.84596766
_cell_length_c   7.47750000
_cell_angle_alpha   90.00000000
_cell_angle_beta   90.00000000
_cell_angle_gamma   119.99999534
_symmetry_Int_Tables_number   1
_chemical_formula_structural   TbAgSn
_chemical_formula_sum   'Tb2 Ag2 Sn2'
_cell_volume   152.07159344
_cell_formula_units_Z   2
loop_
 _symmetry_equiv_pos_site_id
 _symmetry_equiv_pos_as_xyz
  1  'x, y, z'
loop_
 _atom_site_type_symbol
 _atom_site_label
 _atom_site_symmetry_multiplicity
 _atom_site_fract_x
 _atom_site_fract_y
 _atom_site_fract_z
 _atom_site_occupancy
  Tb  Tb0  1  0.00000000  0.00000000  0.27131900  1
  Tb  Tb1  1  0.00000000  0.00000000  0.72868100  1
  Ag  Ag0  1  0.33333300  0.66666700  0.47374000  1
  Ag  Ag1  1  0.66666700  0.33333300  0.52626000  1
  Sn  Sn0  1  0.66666700  0.33333300  0.94122800  1
  Sn  Sn1  1  0.33333300  0.66666700  0.05877200  1
loop_
_geom_bond_atom_site_label_1
_geom_bond_atom_site_label_2
_geom_bond_distance
_geom_bond_site_symmetry_2
Tb0 Tb1 3.419924 1_555
Tb0 Tb1 4.057576 1_554
Ag0 Ag1 2.825246 1_455
Ag0 Ag1 2.825246 1_565
Ag0 Ag1 2.825254 1_555
Ag0 Sn1 3.102923 1_555
Ag0 Tb0 3.181003 1_565
Ag0 Tb0 3.181007 1_665
Ag0 Tb0 3.181007 1_555
Ag0 Tb1 3.385535 1_565
Ag0 Tb1 3.385538 1_555
Ag0 Tb1 3.385538 1_665
Ag1 Sn0 3.102923 1_555
Ag1 Tb1 3.181003 1_655
Ag1 Tb1 3.181007 1_555
Ag1 Tb1 3.181007 1_665
Ag1 Tb0 3.385535 1_655
Ag1 Tb0 3.385538 1_555
Ag1 Tb0 3.385538 1_665
Sn0 Sn1 2.932629 1_656
Sn0 Sn1 2.932629 1_546
Sn0 Sn1 2.932637 1_556
Sn0 Tb1 3.217720 1_655
Sn0 Tb1 3.217724 1_555
Sn0 Tb1 3.217724 1_665
Sn0 Tb0 3.730961 1_656
Sn0 Tb0 3.730964 1_556
Sn0 Tb0 3.730964 1_666
Sn1 Tb0 3.217720 1_565
Sn1 Tb0 3.217724 1_665
Sn1 Tb0 3.217724 1_555
Sn1 Tb1 3.730961 1_564
Sn1 Tb1 3.730964 1_664
Sn1 Tb1 3.730964 1_554
