# generated using pymatgen
data_SrNdFeRuO6
_symmetry_space_group_name_H-M   'P 1'
_cell_length_a   5.64612100
_cell_length_b   5.58795700
_cell_length_c   9.64203983
_cell_angle_alpha   54.81088075
_cell_angle_beta   90.00000000
_cell_angle_gamma   90.00000000
_symmetry_Int_Tables_number   1
_chemical_formula_structural   SrNdFeRuO6
_chemical_formula_sum   'Sr2 Nd2 Fe2 Ru2 O12'
_cell_volume   248.61618560
_cell_formula_units_Z   2
loop_
 _symmetry_equiv_pos_site_id
 _symmetry_equiv_pos_as_xyz
  1  'x, y, z'
loop_
 _atom_site_type_symbol
 _atom_site_label
 _atom_site_symmetry_multiplicity
 _atom_site_fract_x
 _atom_site_fract_y
 _atom_site_fract_z
 _atom_site_occupancy
  Sr  Sr0  1  0.71966800  0.75348900  0.75022400  1
  Sr  Sr1  1  0.28033200  0.75348900  0.25022400  1
  Nd  Nd0  1  0.20167200  0.23612300  0.74932600  1
  Nd  Nd1  1  0.79832800  0.23612300  0.24932600  1
  Fe  Fe0  1  0.25488400  0.49960700  0.99965300  1
  Fe  Fe1  1  0.74511600  0.49960700  0.49965300  1
  Ru  Ru0  1  0.25200800  0.99971000  0.50051600  1
  Ru  Ru1  1  0.74799200  0.99971000  0.00051600  1
  O  O0  1  0.02588900  0.76405300  0.46122700  1
  O  O1  1  0.54265500  0.24794000  0.04408600  1
  O  O2  1  0.45960400  0.83949900  0.95557300  1
  O  O3  1  0.97531800  0.18348600  0.53942400  1
  O  O4  1  0.45734500  0.24794000  0.54408600  1
  O  O5  1  0.97411100  0.76405300  0.96122700  1
  O  O6  1  0.02468200  0.18348600  0.03942400  1
  O  O7  1  0.54039600  0.83949900  0.45557300  1
  O  O8  1  0.26201100  0.66072000  0.75012000  1
  O  O9  1  0.77352800  0.31537300  0.74985300  1
  O  O10  1  0.22647200  0.31537300  0.24985300  1
  O  O11  1  0.73798900  0.66072000  0.25012000  1
loop_
_geom_bond_atom_site_label_1
_geom_bond_atom_site_label_2
_geom_bond_distance
_geom_bond_site_symmetry_2
Nd0 O8 2.401339 1_555
Nd0 O4 2.419461 1_555
Nd0 O2 2.430592 1_545
Nd0 O9 2.458114 1_455
Nd0 O3 2.549915 1_455
Nd0 O5 2.563587 1_445
Nd0 O0 2.821235 1_555
Nd0 O6 2.821499 1_556
Nd1 O11 2.401339 1_555
Nd1 O1 2.419461 1_555
Nd1 O7 2.430592 1_545
Nd1 O10 2.458114 1_655
Nd1 O6 2.549915 1_655
Nd1 O0 2.563587 1_645
Nd1 O5 2.821235 1_554
Nd1 O3 2.821499 1_555
Fe0 O10 2.010716 1_556
Fe0 O8 2.025946 1_555
Fe0 O1 2.026517 1_556
Fe0 O6 2.043546 1_556
Fe0 O2 2.047839 1_555
Fe0 O5 2.050120 1_455
Fe1 O9 2.010716 1_555
Fe1 O11 2.025946 1_555
Fe1 O4 2.026517 1_555
Fe1 O3 2.043546 1_555
Fe1 O7 2.047839 1_555
Fe1 O0 2.050120 1_655
O0 Ru0 2.020516 1_555
O0 Sr1 2.518920 1_555
O1 Ru1 2.028857 1_545
O1 Sr1 2.729244 1_545
O1 Sr0 2.789666 1_554
O2 Ru1 2.021799 1_556
O2 Sr0 2.721063 1_555
O2 Sr1 2.784466 1_556
O3 Ru0 2.019878 1_645
O3 Sr0 2.521774 1_545
O4 Ru0 2.028857 1_545
O4 Sr0 2.729244 1_545
O4 Sr1 2.789666 1_555
O5 Ru1 2.020516 1_556
O5 Sr0 2.518920 1_555
O6 Ru1 2.019878 1_445
O6 Sr1 2.521774 1_545
O7 Ru0 2.021799 1_555
O7 Sr1 2.721063 1_555
O7 Sr0 2.784466 1_555
O8 Ru0 2.032043 1_555
O8 Sr0 2.635586 1_555
O9 Ru1 2.014949 1_546
O9 Sr0 2.469035 1_555
O10 Ru0 2.014949 1_545
O10 Sr1 2.469035 1_555
O11 Ru1 2.032043 1_555
O11 Sr1 2.635586 1_555
