# generated using pymatgen
data_Nd6Fe13Bi
_symmetry_space_group_name_H-M   'P 1'
_cell_length_a   13.05429245
_cell_length_b   13.05429245
_cell_length_c   13.05429245
_cell_angle_alpha   143.96414235
_cell_angle_beta   143.96414235
_cell_angle_gamma   51.88091544
_symmetry_Int_Tables_number   1
_chemical_formula_structural   Nd6Fe13Bi
_chemical_formula_sum   'Nd12 Fe26 Bi2'
_cell_volume   765.59803906
_cell_formula_units_Z   2
loop_
 _symmetry_equiv_pos_site_id
 _symmetry_equiv_pos_as_xyz
  1  'x, y, z'
loop_
 _atom_site_type_symbol
 _atom_site_label
 _atom_site_symmetry_multiplicity
 _atom_site_fract_x
 _atom_site_fract_y
 _atom_site_fract_z
 _atom_site_occupancy
  Nd  Nd0  1  0.60264200  0.60264200  0.00000000  1
  Nd  Nd1  1  0.10264200  0.10264200  0.00000000  1
  Nd  Nd2  1  0.39735800  0.39735800  0.00000000  1
  Nd  Nd3  1  0.89735800  0.89735800  0.00000000  1
  Nd  Nd4  1  0.47701700  0.97701700  0.82190800  1
  Nd  Nd5  1  0.15510900  0.65510900  0.17809200  1
  Nd  Nd6  1  0.97701700  0.15510900  0.50000000  1
  Nd  Nd7  1  0.65510900  0.47701700  0.50000000  1
  Nd  Nd8  1  0.52298300  0.02298300  0.17809200  1
  Nd  Nd9  1  0.84489100  0.34489100  0.82190800  1
  Nd  Nd10  1  0.02298300  0.84489100  0.50000000  1
  Nd  Nd11  1  0.34489100  0.52298300  0.50000000  1
  Fe  Fe0  1  0.50000000  0.00000000  0.50000000  1
  Fe  Fe1  1  0.00000000  0.50000000  0.50000000  1
  Fe  Fe2  1  0.56682400  0.71075700  0.27758100  1
  Fe  Fe3  1  0.43317600  0.28924300  0.72241900  1
  Fe  Fe4  1  0.06682400  0.78924300  0.85606700  1
  Fe  Fe5  1  0.93317600  0.21075700  0.14393300  1
  Fe  Fe6  1  0.28924300  0.56682400  0.85606700  1
  Fe  Fe7  1  0.71075700  0.43317600  0.14393300  1
  Fe  Fe8  1  0.21075700  0.06682400  0.27758100  1
  Fe  Fe9  1  0.78924300  0.93317600  0.72241900  1
  Fe  Fe10  1  0.61995100  0.11995100  0.85658200  1
  Fe  Fe11  1  0.26336900  0.76336900  0.14341800  1
  Fe  Fe12  1  0.11995100  0.26336900  0.50000000  1
  Fe  Fe13  1  0.76336900  0.61995100  0.50000000  1
  Fe  Fe14  1  0.38004900  0.88004900  0.14341800  1
  Fe  Fe15  1  0.73663100  0.23663100  0.85658200  1
  Fe  Fe16  1  0.88004900  0.73663100  0.50000000  1
  Fe  Fe17  1  0.23663100  0.38004900  0.50000000  1
  Fe  Fe18  1  0.79283000  0.29283000  0.27267400  1
  Fe  Fe19  1  0.02015600  0.52015600  0.72732600  1
  Fe  Fe20  1  0.29283000  0.02015600  0.50000000  1
  Fe  Fe21  1  0.52015600  0.79283000  0.50000000  1
  Fe  Fe22  1  0.20717000  0.70717000  0.72732600  1
  Fe  Fe23  1  0.97984400  0.47984400  0.27267400  1
  Fe  Fe24  1  0.70717000  0.97984400  0.50000000  1
  Fe  Fe25  1  0.47984400  0.20717000  0.50000000  1
  Bi  Bi0  1  0.25000000  0.25000000  0.00000000  1
  Bi  Bi1  1  0.75000000  0.75000000  0.00000000  1
loop_
_geom_bond_atom_site_label_1
_geom_bond_atom_site_label_2
_geom_bond_distance
_geom_bond_site_symmetry_2
Nd0 Nd11 3.581824 1_554
Nd0 Nd8 3.581824 1_565
Nd0 Nd10 3.581824 1_655
Nd0 Nd9 3.581824 1_554
Nd1 Nd10 3.581824 1_544
Nd1 Nd8 3.581824 1_555
Nd1 Nd11 3.581824 1_555
Nd1 Nd9 3.581824 1_454
Nd2 Nd5 3.581824 1_555
Nd2 Nd6 3.581824 1_454
Nd2 Nd7 3.581824 1_555
Nd2 Nd4 3.581824 1_544
Nd3 Nd6 3.581824 1_565
Nd3 Nd5 3.581824 1_655
Nd3 Nd7 3.581824 1_554
Nd3 Nd4 3.581824 1_554
Nd4 Nd5 3.676465 1_555
Nd4 Nd8 3.709427 1_566
Nd5 Nd9 3.709427 1_454
Nd6 Nd7 3.676465 1_555
Nd6 Nd9 4.047350 1_555
Nd6 Nd8 4.047350 1_555
Nd7 Nd9 4.047350 1_555
Nd7 Nd8 4.047350 1_555
Nd8 Nd9 3.676465 1_555
Nd10 Nd11 3.676465 1_555
Nd10 Nd6 3.709427 1_465
Nd10 Nd4 4.047350 1_555
Nd10 Nd5 4.047350 1_555
Nd11 Nd7 3.709427 1_555
Nd11 Nd4 4.047350 1_555
Nd11 Nd5 4.047350 1_555
Fe0 Fe9 2.397387 1_545
Fe0 Fe3 2.397387 1_555
Fe0 Fe8 2.397387 1_555
Fe0 Fe2 2.397387 1_545
Fe0 Fe15 2.454052 1_555
Fe0 Fe14 2.454052 1_545
Fe0 Fe11 2.454052 1_545
Fe0 Fe10 2.454052 1_555
Fe0 Fe24 2.550448 1_545
Fe0 Fe20 2.550448 1_555
Fe0 Fe25 2.550448 1_555
Fe0 Fe21 2.550448 1_545
Fe1 Fe4 2.397387 1_555
Fe1 Fe6 2.397387 1_555
Fe1 Fe5 2.397387 1_455
Fe1 Fe7 2.397387 1_455
Fe1 Fe17 2.454052 1_555
Fe1 Fe16 2.454052 1_455
Fe1 Fe13 2.454052 1_455
Fe1 Fe12 2.454052 1_555
Fe1 Fe19 2.550448 1_555
Fe1 Fe18 2.550448 1_455
Fe1 Fe23 2.550448 1_455
Fe1 Fe22 2.550448 1_555
Fe2 Fe7 2.525119 1_555
Fe2 Fe6 2.525119 1_554
Fe2 Fe9 2.540216 1_555
Fe2 Fe24 2.640698 1_555
Fe2 Fe21 2.640698 1_555
Fe2 Nd0 2.999241 1_555
Fe2 Nd2 2.999241 1_555
Fe3 Fe6 2.525119 1_555
Fe3 Fe7 2.525119 1_556
Fe3 Fe8 2.540216 1_555
Fe3 Nd0 2.999241 1_556
Fe3 Nd2 2.999241 1_556
Fe4 Fe8 2.525119 1_566
Fe4 Fe9 2.525119 1_455
Fe4 Fe6 2.540216 1_555
Fe4 Nd1 2.999241 1_566
Fe4 Nd3 2.999241 1_456
Fe5 Fe8 2.525119 1_655
Fe5 Fe9 2.525119 1_544
Fe5 Fe7 2.540216 1_555
Fe5 Nd1 2.999241 1_655
Fe5 Nd3 2.999241 1_545
Fe6 Nd0 2.999241 1_556
Fe6 Nd2 2.999241 1_556
Fe7 Nd2 2.999241 1_555
Fe7 Nd0 2.999241 1_555
Fe8 Nd1 2.999241 1_555
Fe8 Nd3 2.999241 1_445
Fe9 Nd1 2.999241 1_666
Fe9 Nd3 2.999241 1_556
Fe10 Fe7 2.486329 1_556
Fe10 Fe5 2.486329 1_556
Fe10 Fe18 2.515429 1_556
Fe10 Fe21 2.552078 1_545
Fe10 Fe20 2.552078 1_555
Fe10 Fe9 2.568532 1_545
Fe10 Fe3 2.568532 1_555
Fe10 Fe15 2.739427 1_555
Fe10 Nd4 2.955422 1_545
Fe10 Nd3 3.147196 1_546
Fe10 Nd2 3.147196 1_556
Fe11 Fe4 2.486329 1_554
Fe11 Fe6 2.486329 1_554
Fe11 Fe19 2.515429 1_554
Fe11 Fe20 2.552078 1_565
Fe11 Fe21 2.552078 1_555
Fe11 Fe8 2.568532 1_565
Fe11 Fe2 2.568532 1_555
Fe11 Fe14 2.739427 1_555
Fe11 Nd5 2.955422 1_555
Fe11 Nd3 3.147196 1_455
Fe11 Nd2 3.147196 1_555
Fe12 Fe3 2.486329 1_555
Fe12 Fe8 2.486329 1_555
Fe12 Fe20 2.515429 1_555
Fe12 Fe19 2.552078 1_555
Fe12 Fe18 2.552078 1_455
Fe12 Fe5 2.568532 1_455
Fe12 Fe6 2.568532 1_555
Fe12 Fe17 2.739427 1_555
Fe12 Nd6 2.955422 1_455
Fe12 Nd2 3.147196 1_556
Fe12 Nd3 3.147196 1_445
Fe13 Fe9 2.486329 1_555
Fe13 Fe2 2.486329 1_555
Fe13 Fe21 2.515429 1_555
Fe13 Fe19 2.552078 1_655
Fe13 Fe18 2.552078 1_555
Fe13 Fe4 2.568532 1_655
Fe13 Fe7 2.568532 1_555
Fe13 Fe16 2.739427 1_555
Fe13 Nd7 2.955422 1_555
Fe13 Nd2 3.147196 1_555
Fe13 Nd3 3.147196 1_556
Fe14 Fe4 2.486329 1_554
Fe14 Fe6 2.486329 1_554
Fe14 Fe22 2.515429 1_554
Fe14 Fe25 2.552078 1_565
Fe14 Fe24 2.552078 1_555
Fe14 Fe8 2.568532 1_565
Fe14 Fe2 2.568532 1_555
Fe14 Nd8 2.955422 1_565
Fe14 Nd1 3.147196 1_565
Fe14 Nd0 3.147196 1_555
Fe15 Fe7 2.486329 1_556
Fe15 Fe5 2.486329 1_556
Fe15 Fe23 2.515429 1_556
Fe15 Fe24 2.552078 1_545
Fe15 Fe25 2.552078 1_555
Fe15 Fe3 2.568532 1_555
Fe15 Fe9 2.568532 1_545
Fe15 Nd9 2.955422 1_555
Fe15 Nd1 3.147196 1_656
Fe15 Nd0 3.147196 1_556
Fe16 Fe2 2.486329 1_555
Fe16 Fe9 2.486329 1_555
Fe16 Fe24 2.515429 1_555
Fe16 Fe23 2.552078 1_555
Fe16 Fe22 2.552078 1_655
Fe16 Fe4 2.568532 1_655
Fe16 Fe7 2.568532 1_555
Fe16 Nd10 2.955422 1_655
Fe16 Nd1 3.147196 1_666
Fe16 Nd0 3.147196 1_555
Fe17 Fe3 2.486329 1_555
Fe17 Fe8 2.486329 1_555
Fe17 Fe25 2.515429 1_555
Fe17 Fe22 2.552078 1_555
Fe17 Fe23 2.552078 1_455
Fe17 Fe6 2.568532 1_555
Fe17 Fe5 2.568532 1_455
Fe17 Nd11 2.955422 1_555
Fe17 Nd0 3.147196 1_556
Fe17 Nd1 3.147196 1_555
Fe18 Fe19 2.596258 1_655
Fe18 Fe7 2.640698 1_555
Fe18 Fe5 2.640698 1_555
Fe18 Nd6 3.093850 1_555
Fe18 Nd7 3.093850 1_555
Fe18 Nd3 3.259258 1_545
Fe18 Nd2 3.259258 1_555
Fe18 Nd4 3.336688 1_544
Fe19 Fe4 2.640698 1_555
Fe19 Fe6 2.640698 1_555
Fe19 Nd6 3.093850 1_455
Fe19 Nd7 3.093850 1_455
Fe19 Nd3 3.259258 1_456
Fe19 Nd2 3.259258 1_556
Fe19 Nd5 3.336688 1_556
Fe20 Fe21 2.596258 1_545
Fe20 Fe3 2.640698 1_555
Fe20 Fe8 2.640698 1_555
Fe20 Nd5 3.093850 1_545
Fe20 Nd4 3.093850 1_545
Fe20 Nd2 3.259258 1_556
Fe20 Nd3 3.259258 1_445
Fe20 Nd6 3.336688 1_455
Fe21 Fe9 2.640698 1_555
Fe21 Nd5 3.093850 1_555
Fe21 Nd4 3.093850 1_555
Fe21 Nd2 3.259258 1_555
Fe21 Nd3 3.259258 1_556
Fe21 Nd7 3.336688 1_555
Fe22 Fe23 2.596258 1_455
Fe22 Fe6 2.640698 1_555
Fe22 Fe4 2.640698 1_555
Fe22 Nd10 3.093850 1_555
Fe22 Nd11 3.093850 1_555
Fe22 Nd1 3.259258 1_566
Fe22 Nd0 3.259258 1_556
Fe22 Nd8 3.336688 1_566
Fe23 Fe7 2.640698 1_555
Fe23 Fe5 2.640698 1_555
Fe23 Nd10 3.093850 1_655
Fe23 Nd11 3.093850 1_655
Fe23 Nd0 3.259258 1_555
Fe23 Nd1 3.259258 1_655
Fe23 Nd9 3.336688 1_554
Fe24 Fe25 2.596258 1_565
Fe24 Fe9 2.640698 1_555
Fe24 Nd8 3.093850 1_565
Fe24 Nd9 3.093850 1_565
Fe24 Nd0 3.259258 1_555
Fe24 Nd1 3.259258 1_666
Fe24 Nd10 3.336688 1_655
Fe25 Fe3 2.640698 1_555
Fe25 Fe8 2.640698 1_555
Fe25 Nd8 3.093850 1_555
Fe25 Nd9 3.093850 1_555
Fe25 Nd0 3.259258 1_556
Fe25 Nd1 3.259258 1_555
Fe25 Nd11 3.336688 1_555
Bi0 Nd7 3.404734 1_555
Bi0 Nd4 3.404734 1_544
Bi0 Nd5 3.404734 1_555
Bi0 Nd6 3.404734 1_454
Bi0 Nd8 3.404734 1_555
Bi0 Nd9 3.404734 1_454
Bi0 Nd11 3.404734 1_555
Bi0 Nd10 3.404734 1_544
Bi0 Nd1 3.459689 1_555
Bi0 Nd2 3.459689 1_555
Bi1 Nd7 3.404734 1_554
Bi1 Nd4 3.404734 1_554
Bi1 Nd6 3.404734 1_565
Bi1 Nd5 3.404734 1_655
Bi1 Nd8 3.404734 1_565
Bi1 Nd11 3.404734 1_554
Bi1 Nd9 3.404734 1_554
Bi1 Nd10 3.404734 1_655
Bi1 Nd0 3.459689 1_555
Bi1 Nd3 3.459689 1_555
