# generated using pymatgen
data_GaCu4
_symmetry_space_group_name_H-M   'P 1'
_cell_length_a   20.99244176
_cell_length_b   20.99244176
_cell_length_c   20.99244182
_cell_angle_alpha   14.52585096
_cell_angle_beta   14.52585096
_cell_angle_gamma   14.52584925
_symmetry_Int_Tables_number   1
_chemical_formula_structural   GaCu4
_chemical_formula_sum   'Ga8 Cu32'
_cell_volume   506.70182805
_cell_formula_units_Z   8
loop_
 _symmetry_equiv_pos_site_id
 _symmetry_equiv_pos_as_xyz
  1  'x, y, z'
loop_
 _atom_site_type_symbol
 _atom_site_label
 _atom_site_symmetry_multiplicity
 _atom_site_fract_x
 _atom_site_fract_y
 _atom_site_fract_z
 _atom_site_occupancy
  Ga  Ga0_0  1  0.00000000  0.00000000  0.00000000  1
  Ga  Ga0_1  1  0.00000000  0.00000000  0.50000000  1
  Ga  Ga0_2  1  0.00000000  0.50000000  0.00000000  1
  Ga  Ga0_3  1  0.00000000  0.50000000  0.50000000  1
  Ga  Ga0_4  1  0.50000000  0.00000000  0.00000000  1
  Ga  Ga0_5  1  0.50000000  0.00000000  0.50000000  1
  Ga  Ga0_6  1  0.50000000  0.50000000  0.00000000  1
  Ga  Ga0_7  1  0.50000000  0.50000000  0.50000000  1
  Cu  Cu0_0  1  0.29924450  0.29924450  0.29924450  1
  Cu  Cu0_1  1  0.29924450  0.29924450  0.79924450  1
  Cu  Cu0_2  1  0.29924450  0.79924450  0.29924450  1
  Cu  Cu0_3  1  0.29924450  0.79924450  0.79924450  1
  Cu  Cu0_4  1  0.79924450  0.29924450  0.29924450  1
  Cu  Cu0_5  1  0.79924450  0.29924450  0.79924450  1
  Cu  Cu0_6  1  0.79924450  0.79924450  0.29924450  1
  Cu  Cu0_7  1  0.79924450  0.79924450  0.79924450  1
  Cu  Cu1_0  1  0.09975850  0.09975850  0.09975850  1
  Cu  Cu1_1  1  0.09975850  0.09975850  0.59975850  1
  Cu  Cu1_2  1  0.09975850  0.59975850  0.09975850  1
  Cu  Cu1_3  1  0.09975850  0.59975850  0.59975850  1
  Cu  Cu1_4  1  0.59975850  0.09975850  0.09975850  1
  Cu  Cu1_5  1  0.59975850  0.09975850  0.59975850  1
  Cu  Cu1_6  1  0.59975850  0.59975850  0.09975850  1
  Cu  Cu1_7  1  0.59975850  0.59975850  0.59975850  1
  Cu  Cu2_0  1  0.40024150  0.40024150  0.40024150  1
  Cu  Cu2_1  1  0.40024150  0.40024150  0.90024150  1
  Cu  Cu2_2  1  0.40024150  0.90024150  0.40024150  1
  Cu  Cu2_3  1  0.40024150  0.90024150  0.90024150  1
  Cu  Cu2_4  1  0.90024150  0.40024150  0.40024150  1
  Cu  Cu2_5  1  0.90024150  0.40024150  0.90024150  1
  Cu  Cu2_6  1  0.90024150  0.90024150  0.40024150  1
  Cu  Cu2_7  1  0.90024150  0.90024150  0.90024150  1
  Cu  Cu3_0  1  0.20075550  0.20075550  0.20075550  1
  Cu  Cu3_1  1  0.20075550  0.20075550  0.70075550  1
  Cu  Cu3_2  1  0.20075550  0.70075550  0.20075550  1
  Cu  Cu3_3  1  0.20075550  0.70075550  0.70075550  1
  Cu  Cu3_4  1  0.70075550  0.20075550  0.20075550  1
  Cu  Cu3_5  1  0.70075550  0.20075550  0.70075550  1
  Cu  Cu3_6  1  0.70075550  0.70075550  0.20075550  1
  Cu  Cu3_7  1  0.70075550  0.70075550  0.70075550  1
loop_
_geom_bond_atom_site_label_1
_geom_bond_atom_site_label_2
_geom_bond_distance
_geom_bond_site_symmetry_2
Ga0_0 Ga0_6 2.653922 1_545
Ga0_0 Ga0_6 2.653922 1_455
Ga0_0 Ga0_5 2.653922 1_554
Ga0_0 Ga0_3 2.653922 1_554
Ga0_0 Ga0_3 2.653922 1_545
Ga0_0 Ga0_5 2.653922 1_455
Ga0_1 Ga0_7 2.653922 1_545
Ga0_1 Ga0_7 2.653922 1_455
Ga0_1 Ga0_4 2.653922 1_555
Ga0_1 Ga0_4 2.653922 1_456
Ga0_1 Ga0_2 2.653922 1_546
Ga0_1 Ga0_2 2.653922 1_555
Ga0_2 Ga0_4 2.653922 1_465
Ga0_2 Ga0_4 2.653922 1_555
Ga0_2 Ga0_7 2.653922 1_554
Ga0_2 Ga0_7 2.653922 1_455
Ga0_3 Ga0_5 2.653922 1_555
Ga0_3 Ga0_5 2.653922 1_465
Ga0_3 Ga0_6 2.653922 1_456
Ga0_3 Ga0_6 2.653922 1_555
Ga0_4 Ga0_7 2.653922 1_554
Ga0_4 Ga0_7 2.653922 1_545
Ga0_5 Ga0_6 2.653922 1_546
Ga0_5 Ga0_6 2.653922 1_555
Cu0_0 Cu1_4 2.555132 1_555
Cu0_0 Cu1_2 2.555132 1_555
Cu0_0 Cu1_1 2.555132 1_555
Cu0_0 Ga0_3 2.618855 1_555
Cu0_0 Ga0_5 2.618855 1_555
Cu0_0 Ga0_6 2.618855 1_555
Cu0_0 Cu0_6 2.653922 1_545
Cu0_0 Cu0_6 2.653922 1_455
Cu0_0 Cu0_3 2.653922 1_554
Cu0_0 Cu0_5 2.653922 1_554
Cu0_0 Cu0_3 2.653922 1_545
Cu0_0 Cu0_5 2.653922 1_455
Cu0_1 Cu1_3 2.555132 1_555
Cu0_1 Cu1_5 2.555132 1_555
Cu0_1 Cu1_0 2.555132 1_556
Cu0_1 Ga0_2 2.618855 1_556
Cu0_1 Ga0_4 2.618855 1_556
Cu0_1 Ga0_7 2.618855 1_555
Cu0_1 Cu0_7 2.653922 1_545
Cu0_1 Cu0_7 2.653922 1_455
Cu0_1 Cu0_2 2.653922 1_546
Cu0_1 Cu0_4 2.653922 1_456
Cu0_1 Cu0_4 2.653922 1_555
Cu0_1 Cu0_2 2.653922 1_555
Cu0_2 Cu1_0 2.555132 1_565
Cu0_2 Cu1_6 2.555132 1_555
Cu0_2 Cu1_3 2.555132 1_555
Cu0_2 Ga0_7 2.618855 1_555
Cu0_2 Ga0_1 2.618855 1_565
Cu0_2 Ga0_4 2.618855 1_565
Cu0_2 Cu0_4 2.653922 1_465
Cu0_2 Cu0_4 2.653922 1_555
Cu0_2 Cu0_7 2.653922 1_554
Cu0_2 Cu0_7 2.653922 1_455
Cu0_3 Cu1_1 2.555132 1_565
Cu0_3 Cu1_7 2.555132 1_555
Cu0_3 Cu1_2 2.555132 1_556
Cu0_3 Ga0_0 2.618855 1_566
Cu0_3 Ga0_6 2.618855 1_556
Cu0_3 Ga0_5 2.618855 1_565
Cu0_3 Cu0_5 2.653922 1_555
Cu0_3 Cu0_5 2.653922 1_465
Cu0_3 Cu0_6 2.653922 1_456
Cu0_3 Cu0_6 2.653922 1_555
Cu0_4 Cu1_0 2.555132 1_655
Cu0_4 Cu1_6 2.555132 1_555
Cu0_4 Cu1_5 2.555132 1_555
Cu0_4 Ga0_7 2.618855 1_555
Cu0_4 Ga0_1 2.618855 1_655
Cu0_4 Ga0_2 2.618855 1_655
Cu0_4 Cu0_7 2.653922 1_554
Cu0_4 Cu0_7 2.653922 1_545
Cu0_5 Cu1_1 2.555132 1_655
Cu0_5 Cu1_7 2.555132 1_555
Cu0_5 Cu1_4 2.555132 1_556
Cu0_5 Ga0_6 2.618855 1_556
Cu0_5 Ga0_0 2.618855 1_656
Cu0_5 Ga0_3 2.618855 1_655
Cu0_5 Cu0_6 2.653922 1_546
Cu0_5 Cu0_6 2.653922 1_555
Cu0_6 Cu1_2 2.555132 1_655
Cu0_6 Cu1_4 2.555132 1_565
Cu0_6 Cu1_7 2.555132 1_555
Cu0_6 Ga0_5 2.618855 1_565
Cu0_6 Ga0_3 2.618855 1_655
Cu0_6 Ga0_0 2.618855 1_665
Cu0_7 Cu1_3 2.555132 1_655
Cu0_7 Cu1_5 2.555132 1_565
Cu0_7 Cu1_6 2.555132 1_556
Cu0_7 Ga0_4 2.618855 1_566
Cu0_7 Ga0_2 2.618855 1_656
Cu0_7 Ga0_1 2.618855 1_665
Cu1_0 Cu2_5 2.556678 1_454
Cu1_0 Cu2_3 2.556678 1_544
Cu1_0 Cu2_6 2.556678 1_445
Cu1_0 Cu1_6 2.653922 1_545
Cu1_0 Cu1_6 2.653922 1_455
Cu1_0 Cu1_3 2.653922 1_545
Cu1_0 Cu1_5 2.653922 1_455
Cu1_0 Cu1_5 2.653922 1_554
Cu1_0 Cu1_3 2.653922 1_554
Cu1_1 Cu2_2 2.556678 1_545
Cu1_1 Cu2_4 2.556678 1_455
Cu1_1 Cu2_7 2.556678 1_445
Cu1_1 Cu1_7 2.653922 1_545
Cu1_1 Cu1_7 2.653922 1_455
Cu1_1 Cu1_4 2.653922 1_555
Cu1_1 Cu1_2 2.653922 1_555
Cu1_1 Cu1_4 2.653922 1_456
Cu1_1 Cu1_2 2.653922 1_546
Cu1_2 Cu2_1 2.556678 1_554
Cu1_2 Cu2_7 2.556678 1_454
Cu1_2 Cu2_4 2.556678 1_455
Cu1_2 Cu1_4 2.653922 1_555
Cu1_2 Cu1_4 2.653922 1_465
Cu1_2 Cu1_7 2.653922 1_554
Cu1_2 Cu1_7 2.653922 1_455
Cu1_3 Cu2_6 2.556678 1_455
Cu1_3 Cu2_0 2.556678 1_555
Cu1_3 Cu2_5 2.556678 1_455
Cu1_3 Cu1_5 2.653922 1_555
Cu1_3 Cu1_5 2.653922 1_465
Cu1_3 Cu1_6 2.653922 1_456
Cu1_3 Cu1_6 2.653922 1_555
Cu1_4 Cu2_1 2.556678 1_554
Cu1_4 Cu2_7 2.556678 1_544
Cu1_4 Cu2_2 2.556678 1_545
Cu1_4 Cu1_7 2.653922 1_554
Cu1_4 Cu1_7 2.653922 1_545
Cu1_5 Cu2_6 2.556678 1_545
Cu1_5 Cu2_0 2.556678 1_555
Cu1_5 Cu2_3 2.556678 1_545
Cu1_5 Cu1_6 2.653922 1_546
Cu1_5 Cu1_6 2.653922 1_555
Cu1_6 Cu2_3 2.556678 1_554
Cu1_6 Cu2_5 2.556678 1_554
Cu1_6 Cu2_0 2.556678 1_555
Cu1_7 Cu2_2 2.556678 1_555
Cu1_7 Cu2_4 2.556678 1_555
Cu1_7 Cu2_1 2.556678 1_555
Cu2_0 Cu3_4 2.555132 1_555
Cu2_0 Cu3_2 2.555132 1_555
Cu2_0 Cu3_1 2.555132 1_555
Cu2_0 Cu2_6 2.653922 1_455
Cu2_0 Cu2_6 2.653922 1_545
Cu2_0 Cu2_3 2.653922 1_554
Cu2_0 Cu2_5 2.653922 1_554
Cu2_0 Cu2_3 2.653922 1_545
Cu2_0 Cu2_5 2.653922 1_455
Cu2_1 Cu3_3 2.555132 1_555
Cu2_1 Cu3_5 2.555132 1_555
Cu2_1 Cu3_0 2.555132 1_556
Cu2_1 Cu2_7 2.653922 1_455
Cu2_1 Cu2_7 2.653922 1_545
Cu2_1 Cu2_4 2.653922 1_456
Cu2_1 Cu2_2 2.653922 1_546
Cu2_1 Cu2_4 2.653922 1_555
Cu2_1 Cu2_2 2.653922 1_555
Cu2_2 Cu3_6 2.555132 1_555
Cu2_2 Cu3_0 2.555132 1_565
Cu2_2 Cu3_3 2.555132 1_555
Cu2_2 Cu2_4 2.653922 1_555
Cu2_2 Cu2_4 2.653922 1_465
Cu2_2 Cu2_7 2.653922 1_554
Cu2_2 Cu2_7 2.653922 1_455
Cu2_3 Cu3_1 2.555132 1_565
Cu2_3 Cu3_7 2.555132 1_555
Cu2_3 Cu3_2 2.555132 1_556
Cu2_3 Cu2_5 2.653922 1_465
Cu2_3 Cu2_5 2.653922 1_555
Cu2_3 Cu2_6 2.653922 1_456
Cu2_3 Cu2_6 2.653922 1_555
Cu2_4 Cu3_6 2.555132 1_555
Cu2_4 Cu3_0 2.555132 1_655
Cu2_4 Cu3_5 2.555132 1_555
Cu2_4 Cu2_7 2.653922 1_554
Cu2_4 Cu2_7 2.653922 1_545
Cu2_5 Cu3_1 2.555132 1_655
Cu2_5 Cu3_7 2.555132 1_555
Cu2_5 Cu3_4 2.555132 1_556
Cu2_5 Cu2_6 2.653922 1_546
Cu2_5 Cu2_6 2.653922 1_555
Cu2_6 Cu3_4 2.555132 1_565
Cu2_6 Cu3_2 2.555132 1_655
Cu2_6 Cu3_7 2.555132 1_555
Cu2_7 Cu3_5 2.555132 1_565
Cu2_7 Cu3_3 2.555132 1_655
Cu2_7 Cu3_6 2.555132 1_556
Cu3_0 Ga0_4 2.618855 1_555
Cu3_0 Ga0_2 2.618855 1_555
Cu3_0 Ga0_1 2.618855 1_555
Cu3_0 Cu3_6 2.653922 1_545
Cu3_0 Cu3_6 2.653922 1_455
Cu3_0 Cu3_3 2.653922 1_554
Cu3_0 Cu3_3 2.653922 1_545
Cu3_0 Cu3_5 2.653922 1_455
Cu3_0 Cu3_5 2.653922 1_554
Cu3_1 Ga0_5 2.618855 1_555
Cu3_1 Ga0_3 2.618855 1_555
Cu3_1 Ga0_0 2.618855 1_556
Cu3_1 Cu3_7 2.653922 1_545
Cu3_1 Cu3_7 2.653922 1_455
Cu3_1 Cu3_4 2.653922 1_555
Cu3_1 Cu3_2 2.653922 1_555
Cu3_1 Cu3_2 2.653922 1_546
Cu3_1 Cu3_4 2.653922 1_456
Cu3_2 Ga0_6 2.618855 1_555
Cu3_2 Ga0_0 2.618855 1_565
Cu3_2 Ga0_3 2.618855 1_555
Cu3_2 Cu3_4 2.653922 1_465
Cu3_2 Cu3_4 2.653922 1_555
Cu3_2 Cu3_7 2.653922 1_455
Cu3_2 Cu3_7 2.653922 1_554
Cu3_3 Ga0_1 2.618855 1_565
Cu3_3 Ga0_7 2.618855 1_555
Cu3_3 Ga0_2 2.618855 1_556
Cu3_3 Cu3_5 2.653922 1_555
Cu3_3 Cu3_5 2.653922 1_465
Cu3_3 Cu3_6 2.653922 1_456
Cu3_3 Cu3_6 2.653922 1_555
Cu3_4 Ga0_0 2.618855 1_655
Cu3_4 Ga0_6 2.618855 1_555
Cu3_4 Ga0_5 2.618855 1_555
Cu3_4 Cu3_7 2.653922 1_545
Cu3_4 Cu3_7 2.653922 1_554
Cu3_5 Ga0_1 2.618855 1_655
Cu3_5 Ga0_7 2.618855 1_555
Cu3_5 Ga0_4 2.618855 1_556
Cu3_5 Cu3_6 2.653922 1_555
Cu3_5 Cu3_6 2.653922 1_546
Cu3_6 Ga0_4 2.618855 1_565
Cu3_6 Ga0_2 2.618855 1_655
Cu3_6 Ga0_7 2.618855 1_555
Cu3_7 Ga0_3 2.618855 1_655
Cu3_7 Ga0_5 2.618855 1_565
Cu3_7 Ga0_6 2.618855 1_556
