# generated using pymatgen
data_Co2O3F
_symmetry_space_group_name_H-M   'P 1'
_cell_length_a   5.39274979
_cell_length_b   5.39211577
_cell_length_c   5.38931093
_cell_angle_alpha   67.42228018
_cell_angle_beta   104.66649707
_cell_angle_gamma   68.69097766
_symmetry_Int_Tables_number   1
_chemical_formula_structural   Co2O3F
_chemical_formula_sum   'Co4 O6 F2'
_cell_volume   119.94132422
_cell_formula_units_Z   2
loop_
 _symmetry_equiv_pos_site_id
 _symmetry_equiv_pos_as_xyz
  1  'x, y, z'
loop_
 _atom_site_type_symbol
 _atom_site_label
 _atom_site_symmetry_multiplicity
 _atom_site_fract_x
 _atom_site_fract_y
 _atom_site_fract_z
 _atom_site_occupancy
  Co  Co0  1  0.46476800  0.25273000  0.21203900  1
  Co  Co1  1  0.53520100  0.74726800  0.78793300  1
  Co  Co2  1  0.99999500  0.50001600  0.49997900  1
  Co  Co3  1  0.00000700  0.99999400  0.00001300  1
  O  O0  1  0.82289100  0.74764000  0.07531200  1
  O  O1  1  0.17711700  0.25235600  0.92470100  1
  O  O2  1  0.29870000  0.20130600  0.50002600  1
  O  O3  1  0.30362200  0.69633900  0.99996200  1
  O  O4  1  0.70130200  0.79868100  0.49999000  1
  O  O5  1  0.69638000  0.30366500  0.00003600  1
  F  F0  1  0.78392300  0.25371000  0.53019200  1
  F  F1  1  0.21609300  0.74629500  0.46981800  1
loop_
_geom_bond_atom_site_label_1
_geom_bond_atom_site_label_2
_geom_bond_distance
_geom_bond_site_symmetry_2
Co0 O1 1.895413 1_554
Co0 O3 1.915750 1_554
Co0 O5 1.916228 1_555
Co0 O4 1.959553 1_545
Co0 O2 1.960015 1_555
Co0 F0 2.102717 1_555
Co1 O0 1.895670 1_556
Co1 O5 1.915696 1_556
Co1 O3 1.916170 1_555
Co1 O2 1.959477 1_565
Co1 O4 1.959939 1_555
Co1 F1 2.102414 1_555
Co2 O2 1.817380 1_655
Co2 O4 1.817383 1_555
Co2 O0 1.884867 1_555
Co2 O1 1.885114 1_655
Co2 F0 2.050098 1_555
Co2 F1 2.050101 1_655
Co3 O5 1.847660 1_465
Co3 O3 1.847660 1_554
Co3 O0 1.909296 1_455
Co3 O1 1.909309 1_564
Co3 F1 2.080304 1_555
Co3 F0 2.080373 1_464
