# generated using pymatgen
data_Li2Mn3SnO8
_symmetry_space_group_name_H-M   'P 1'
_cell_length_a   5.88547403
_cell_length_b   10.60638700
_cell_length_c   6.09934676
_cell_angle_alpha   75.20520451
_cell_angle_beta   61.09415699
_cell_angle_gamma   73.87867312
_symmetry_Int_Tables_number   1
_chemical_formula_structural   Li2Mn3SnO8
_chemical_formula_sum   'Li4 Mn6 Sn2 O16'
_cell_volume   316.86213946
_cell_formula_units_Z   2
loop_
 _symmetry_equiv_pos_site_id
 _symmetry_equiv_pos_as_xyz
  1  'x, y, z'
loop_
 _atom_site_type_symbol
 _atom_site_label
 _atom_site_symmetry_multiplicity
 _atom_site_fract_x
 _atom_site_fract_y
 _atom_site_fract_z
 _atom_site_occupancy
  Li  Li0  1  0.44681200  0.68584500  0.44139800  1
  Li  Li1  1  0.92707900  0.18523100  0.94048800  1
  Li  Li2  1  0.07290700  0.81478300  0.05964400  1
  Li  Li3  1  0.55329100  0.31422700  0.55846900  1
  Mn  Mn0  1  0.50010300  0.99990500  0.00037300  1
  Mn  Mn1  1  0.00001700  0.00009600  0.50014200  1
  Mn  Mn2  1  0.49990600  0.50004400  0.99978300  1
  Mn  Mn3  1  0.49990600  0.99989000  0.50032700  1
  Mn  Mn4  1  0.00009300  0.49991300  0.99978100  1
  Mn  Mn5  1  0.00004800  0.50009400  0.49943300  1
  Sn  Sn0  1  0.23849500  0.24996400  0.24967300  1
  Sn  Sn1  1  0.76147700  0.75005000  0.75058800  1
  O  O0  1  0.35664200  0.89719500  0.39236400  1
  O  O1  1  0.85618600  0.39835800  0.88658300  1
  O  O2  1  0.14368600  0.60163800  0.11304000  1
  O  O3  1  0.64321500  0.10274200  0.60812100  1
  O  O4  1  0.59346900  0.11957600  0.12322600  1
  O  O5  1  0.11107200  0.60876600  0.66414000  1
  O  O6  1  0.12880400  0.11879100  0.59510500  1
  O  O7  1  0.65631500  0.61870700  0.09569800  1
  O  O8  1  0.12144100  0.10640100  0.16133200  1
  O  O9  1  0.66447900  0.61871700  0.62391600  1
  O  O10  1  0.33575500  0.38137700  0.37560000  1
  O  O11  1  0.87853600  0.89361800  0.83883000  1
  O  O12  1  0.34375500  0.38110700  0.90401800  1
  O  O13  1  0.87096600  0.88136600  0.40544800  1
  O  O14  1  0.88898500  0.39113100  0.33543000  1
  O  O15  1  0.40656000  0.88046900  0.87704900  1
loop_
_geom_bond_atom_site_label_1
_geom_bond_atom_site_label_2
_geom_bond_distance
_geom_bond_site_symmetry_2
Li0 O9 1.963354 1_555
Li0 O5 2.037951 1_555
Li0 O7 2.058927 1_555
Li0 O0 2.132254 1_555
Li1 O4 1.956943 1_556
Li1 O8 2.050683 1_656
Li1 O6 2.054166 1_655
Li1 O1 2.149731 1_555
Li2 O15 1.957319 1_554
Li2 O11 2.050578 1_454
Li2 O13 2.056964 1_455
Li2 O2 2.150000 1_555
Li3 O10 1.964417 1_555
Li3 O14 2.036993 1_555
Li3 O12 2.056965 1_555
Li3 O3 2.133546 1_555
Mn0 O4 1.935366 1_565
Mn0 O15 1.935960 1_554
Mn0 O11 2.062453 1_554
Mn0 O8 2.063875 1_565
Mn0 O0 2.201143 1_555
Mn0 O3 2.202822 1_564
Mn1 O3 1.946365 1_455
Mn1 O0 1.946561 1_545
Mn1 O6 1.954907 1_555
Mn1 O13 1.955254 1_445
Mn1 O8 1.970353 1_555
Mn1 O11 1.970561 1_445
Mn2 O2 1.938863 1_556
Mn2 O1 1.939476 1_555
Mn2 O7 2.076958 1_556
Mn2 O12 2.077557 1_555
Mn2 O10 2.198361 1_556
Mn2 O9 2.198833 1_555
Mn3 O0 1.934967 1_555
Mn3 O3 1.935735 1_565
Mn3 O13 2.075965 1_555
Mn3 O6 2.077738 1_565
Mn3 O15 2.205797 1_555
Mn3 O4 2.208528 1_565
Mn4 O1 1.950904 1_455
Mn4 O2 1.951141 1_556
Mn4 O12 1.959177 1_555
Mn4 O7 1.959572 1_456
Mn4 O14 1.966840 1_456
Mn4 O5 1.967122 1_555
Mn5 O9 1.928283 1_455
Mn5 O10 1.929026 1_555
Mn5 O14 2.098954 1_455
Mn5 O5 2.099753 1_555
Mn5 O2 2.170737 1_555
Mn5 O1 2.174965 1_455
O4 Sn0 2.062664 1_555
O5 Sn1 2.097490 1_455
O6 Sn0 2.116195 1_555
O7 Sn1 2.115720 1_554
O8 Sn0 2.108067 1_555
O9 Sn1 2.069026 1_555
O10 Sn0 2.067655 1_555
O11 Sn1 2.107772 1_555
O12 Sn0 2.116969 1_556
O13 Sn1 2.115717 1_555
O14 Sn0 2.096706 1_655
O15 Sn1 2.062612 1_555
