# generated using pymatgen
data_Al5(FeO4)3
_symmetry_space_group_name_H-M   'P 1'
_cell_length_a   5.76317678
_cell_length_b   5.76317678
_cell_length_c   13.88021101
_cell_angle_alpha   89.84828331
_cell_angle_beta   89.84828331
_cell_angle_gamma   60.20045889
_symmetry_Int_Tables_number   1
_chemical_formula_structural   Al5(FeO4)3
_chemical_formula_sum   'Al10 Fe6 O24'
_cell_volume   400.05736015
_cell_formula_units_Z   2
loop_
 _symmetry_equiv_pos_site_id
 _symmetry_equiv_pos_as_xyz
  1  'x, y, z'
loop_
 _atom_site_type_symbol
 _atom_site_label
 _atom_site_symmetry_multiplicity
 _atom_site_fract_x
 _atom_site_fract_y
 _atom_site_fract_z
 _atom_site_occupancy
  Al  Al0  1  0.00420400  0.00420400  0.62044300  1
  Al  Al1  1  0.67274500  0.67274500  0.29496900  1
  Al  Al2  1  0.32968200  0.32968200  0.95304100  1
  Al  Al3  1  0.65866400  0.65866400  0.65736800  1
  Al  Al4  1  0.34133600  0.34133600  0.34263200  1
  Al  Al5  1  0.16788600  0.16788600  0.16413700  1
  Al  Al6  1  0.83211400  0.83211400  0.83586300  1
  Al  Al7  1  0.99579600  0.99579600  0.37955700  1
  Al  Al8  1  0.67031800  0.67031800  0.04695900  1
  Al  Al9  1  0.32725500  0.32725500  0.70503100  1
  Fe  Fe0  1  0.00000000  0.50000000  0.50000000  1
  Fe  Fe1  1  0.67645400  0.16845800  0.16121400  1
  Fe  Fe2  1  0.32354600  0.83154200  0.83878600  1
  Fe  Fe3  1  0.50000000  0.00000000  0.50000000  1
  Fe  Fe4  1  0.16845800  0.67645400  0.16121400  1
  Fe  Fe5  1  0.83154200  0.32354600  0.83878600  1
  O  O0  1  0.82707000  0.82707000  0.58407100  1
  O  O1  1  0.49480900  0.49480900  0.25549500  1
  O  O2  1  0.16437500  0.16437500  0.90988400  1
  O  O3  1  0.67790400  0.67790400  0.42199300  1
  O  O4  1  0.32965200  0.32965200  0.08446600  1
  O  O5  1  0.99014900  0.99014900  0.75380500  1
  O  O6  1  0.84671000  0.34776500  0.58849500  1
  O  O7  1  0.48116600  0.02596400  0.24965400  1
  O  O8  1  0.15423400  0.65869800  0.90593600  1
  O  O9  1  0.34776500  0.84671000  0.58849500  1
  O  O10  1  0.02596400  0.48116600  0.24965400  1
  O  O11  1  0.65869800  0.15423400  0.90593600  1
  O  O12  1  0.65223500  0.15329000  0.41150500  1
  O  O13  1  0.34130200  0.84576600  0.09406400  1
  O  O14  1  0.97403600  0.51883400  0.75034600  1
  O  O15  1  0.15329000  0.65223500  0.41150500  1
  O  O16  1  0.84576600  0.34130200  0.09406400  1
  O  O17  1  0.51883400  0.97403600  0.75034600  1
  O  O18  1  0.32209600  0.32209600  0.57800700  1
  O  O19  1  0.00985100  0.00985100  0.24619500  1
  O  O20  1  0.67034800  0.67034800  0.91553400  1
  O  O21  1  0.17293000  0.17293000  0.41592900  1
  O  O22  1  0.83562500  0.83562500  0.09011600  1
  O  O23  1  0.50519100  0.50519100  0.74450500  1
loop_
_geom_bond_atom_site_label_1
_geom_bond_atom_site_label_2
_geom_bond_distance
_geom_bond_site_symmetry_2
Al0 O6 1.775419 1_455
Al0 O9 1.775419 1_545
Al0 O0 1.838598 1_445
Al0 O5 1.855963 1_445
Al1 O3 1.764028 1_555
Al1 O1 1.858650 1_555
Al1 O10 1.876576 1_655
Al1 O7 1.876576 1_565
Al2 O2 1.755633 1_555
Al2 O11 1.771058 1_555
Al2 O8 1.771058 1_555
Al2 O4 1.824206 1_556
Al3 O9 1.836397 1_555
Al3 O6 1.836397 1_555
Al3 O23 1.947754 1_555
Al3 O0 1.960818 1_555
Al3 O14 2.041940 1_555
Al3 O17 2.041940 1_555
Al4 O15 1.836397 1_555
Al4 O12 1.836397 1_555
Al4 O1 1.947754 1_555
Al4 O21 1.960818 1_555
Al4 O7 2.041940 1_555
Al4 O10 2.041940 1_555
Al5 O16 1.884544 1_455
Al5 O13 1.884544 1_545
Al5 O19 1.941608 1_555
Al5 O4 1.952994 1_555
Al5 O7 1.968796 1_555
Al5 O10 1.968796 1_555
Al6 O11 1.884544 1_565
Al6 O8 1.884544 1_655
Al6 O5 1.941608 1_555
Al6 O20 1.952994 1_555
Al6 O14 1.968796 1_555
Al6 O17 1.968796 1_555
Al7 O12 1.775419 1_565
Al7 O15 1.775419 1_655
Al7 O21 1.838598 1_665
Al7 O19 1.855963 1_665
Al8 O22 1.755633 1_555
Al8 O16 1.771058 1_555
Al8 O13 1.771058 1_555
Al8 O20 1.824206 1_554
Al9 O18 1.764028 1_555
Al9 O23 1.858650 1_555
Al9 O14 1.876576 1_455
Al9 O17 1.876576 1_545
Fe0 O3 1.944860 1_455
Fe0 O18 1.944860 1_555
Fe0 O15 1.953956 1_555
Fe0 O6 1.953956 1_455
Fe0 O21 2.011551 1_555
Fe0 O0 2.011551 1_455
Fe1 O22 1.936770 1_545
Fe1 O16 1.941523 1_555
Fe1 O4 2.037918 1_555
Fe1 O19 2.044353 1_655
Fe1 O7 2.086629 1_555
Fe1 O1 2.096354 1_555
Fe2 O2 1.936770 1_565
Fe2 O8 1.941523 1_555
Fe2 O20 2.037918 1_555
Fe2 O5 2.044353 1_455
Fe2 O17 2.086629 1_555
Fe2 O23 2.096354 1_555
Fe3 O3 1.944860 1_545
Fe3 O18 1.944860 1_555
Fe3 O12 1.953956 1_555
Fe3 O9 1.953956 1_545
Fe3 O21 2.011551 1_555
Fe3 O0 2.011551 1_545
Fe4 O22 1.936770 1_455
Fe4 O13 1.941523 1_555
Fe4 O4 2.037918 1_555
Fe4 O19 2.044353 1_565
Fe4 O10 2.086629 1_555
Fe4 O1 2.096354 1_555
Fe5 O2 1.936770 1_655
Fe5 O11 1.941523 1_555
Fe5 O20 2.037918 1_555
Fe5 O5 2.044353 1_545
Fe5 O14 2.086629 1_555
Fe5 O23 2.096354 1_555
