# generated using pymatgen
data_Li7C120
_symmetry_space_group_name_H-M   'P 1'
_cell_length_a   9.07501000
_cell_length_b   9.40141400
_cell_length_c   15.02891099
_cell_angle_alpha   89.70001462
_cell_angle_beta   90.00000000
_cell_angle_gamma   90.00000000
_symmetry_Int_Tables_number   1
_chemical_formula_structural   Li7C120
_chemical_formula_sum   'Li7 C120'
_cell_volume   1282.21794203
_cell_formula_units_Z   1
loop_
 _symmetry_equiv_pos_site_id
 _symmetry_equiv_pos_as_xyz
  1  'x, y, z'
loop_
 _atom_site_type_symbol
 _atom_site_label
 _atom_site_symmetry_multiplicity
 _atom_site_fract_x
 _atom_site_fract_y
 _atom_site_fract_z
 _atom_site_occupancy
  Li  Li0  1  0.50000000  0.91525000  0.74854500  1
  Li  Li1  1  0.00000000  0.41448700  0.24947400  1
  Li  Li2  1  0.00000000  0.58618300  0.74997500  1
  Li  Li3  1  0.50000000  0.08548400  0.25121800  1
  Li  Li4  1  0.50000000  0.52966500  0.12778200  1
  Li  Li5  1  0.50000000  0.47061600  0.87252300  1
  Li  Li6  1  0.00000000  0.97068100  0.37704400  1
  C  C0  1  0.58034900  0.20385800  0.63492800  1
  C  C1  1  0.08043600  0.70454500  0.13497800  1
  C  C2  1  0.08021500  0.29586800  0.86532200  1
  C  C3  1  0.58044600  0.79594100  0.36499500  1
  C  C4  1  0.91978500  0.29586800  0.86532200  1
  C  C5  1  0.41955400  0.79594100  0.36499500  1
  C  C6  1  0.41965100  0.20385800  0.63492800  1
  C  C7  1  0.91956400  0.70454500  0.13497800  1
  C  C8  1  0.15846300  0.94488800  0.78778100  1
  C  C9  1  0.65892500  0.44502800  0.28747600  1
  C  C10  1  0.65912800  0.55521500  0.71257700  1
  C  C11  1  0.15888800  0.05510200  0.21235700  1
  C  C12  1  0.34087200  0.55521500  0.71257700  1
  C  C13  1  0.84111200  0.05510200  0.21235700  1
  C  C14  1  0.84153700  0.94488800  0.78778100  1
  C  C15  1  0.34107500  0.44502800  0.28747600  1
  C  C16  1  0.25750000  0.74388700  0.91739900  1
  C  C17  1  0.75734300  0.24463800  0.41736900  1
  C  C18  1  0.75612000  0.75430300  0.58213300  1
  C  C19  1  0.25802700  0.25624100  0.08274200  1
  C  C20  1  0.24388000  0.75430300  0.58213300  1
  C  C21  1  0.74197300  0.25624100  0.08274200  1
  C  C22  1  0.74250000  0.74388700  0.91739900  1
  C  C23  1  0.24265700  0.24463800  0.41736900  1
  C  C24  1  0.63065500  0.14888400  0.55224000  1
  C  C25  1  0.13107700  0.64818100  0.05272500  1
  C  C26  1  0.13107000  0.35209000  0.94775300  1
  C  C27  1  0.63083500  0.85183900  0.44733500  1
  C  C28  1  0.86893000  0.35209000  0.94775300  1
  C  C29  1  0.36916500  0.85183900  0.44733500  1
  C  C30  1  0.36934500  0.14888400  0.55224000  1
  C  C31  1  0.86892300  0.64818100  0.05272500  1
  C  C32  1  0.65710600  0.31322300  0.67874000  1
  C  C33  1  0.15690800  0.81403800  0.17872700  1
  C  C34  1  0.15641000  0.18603300  0.82178500  1
  C  C35  1  0.65692300  0.68621100  0.32131100  1
  C  C36  1  0.84359000  0.18603300  0.82178500  1
  C  C37  1  0.34307700  0.68621100  0.32131100  1
  C  C38  1  0.34289400  0.31322300  0.67874000  1
  C  C39  1  0.84309200  0.81403800  0.17872700  1
  C  C40  1  0.33503600  0.87296400  0.90400200  1
  C  C41  1  0.83534600  0.37285800  0.40381600  1
  C  C42  1  0.83484900  0.62697700  0.59602900  1
  C  C43  1  0.33536000  0.12739300  0.09600300  1
  C  C44  1  0.16515100  0.62697700  0.59602900  1
  C  C45  1  0.66464000  0.12739300  0.09600300  1
  C  C46  1  0.66496400  0.87296400  0.90400200  1
  C  C47  1  0.16465400  0.37285800  0.40381600  1
  C  C48  1  0.83423700  0.32380100  0.55696500  1
  C  C49  1  0.33566000  0.82280100  0.05720400  1
  C  C50  1  0.33552800  0.17713500  0.94281200  1
  C  C51  1  0.83538000  0.67699400  0.44282000  1
  C  C52  1  0.66447200  0.17713500  0.94281200  1
  C  C53  1  0.16462000  0.67699400  0.44282000  1
  C  C54  1  0.16576300  0.32380100  0.55696500  1
  C  C55  1  0.66434000  0.82280100  0.05720400  1
  C  C56  1  0.57887600  0.42396800  0.72534700  1
  C  C57  1  0.07916700  0.92430900  0.22616900  1
  C  C58  1  0.07790600  0.07539200  0.77580100  1
  C  C59  1  0.57925300  0.57587200  0.27410400  1
  C  C60  1  0.92209400  0.07539200  0.77580100  1
  C  C61  1  0.42074700  0.57587200  0.27410400  1
  C  C62  1  0.42112400  0.42396800  0.72534700  1
  C  C63  1  0.92083300  0.92430900  0.22616900  1
  C  C64  1  0.50000000  0.08574900  0.49931900  1
  C  C65  1  0.00000000  0.58529500  0.99975400  1
  C  C66  1  0.00000000  0.41491800  0.00070200  1
  C  C67  1  0.50000000  0.91488800  0.50042600  1
  C  C68  1  0.07932700  0.81782400  0.80115900  1
  C  C69  1  0.57949700  0.31765600  0.30103900  1
  C  C70  1  0.57936800  0.68235200  0.69885700  1
  C  C71  1  0.07949100  0.18227700  0.19860700  1
  C  C72  1  0.42063200  0.68235200  0.69885700  1
  C  C73  1  0.92050900  0.18227700  0.19860700  1
  C  C74  1  0.92067300  0.81782400  0.80115900  1
  C  C75  1  0.42050300  0.31765600  0.30103900  1
  C  C76  1  0.12650800  0.71580100  0.86822000  1
  C  C77  1  0.62661400  0.21552300  0.36750200  1
  C  C78  1  0.62640900  0.78423200  0.63197000  1
  C  C79  1  0.12677800  0.28441500  0.13213000  1
  C  C80  1  0.37359100  0.78423200  0.63197000  1
  C  C81  1  0.87322200  0.28441500  0.13213000  1
  C  C82  1  0.87349200  0.71580100  0.86822000  1
  C  C83  1  0.37338600  0.21552300  0.36750200  1
  C  C84  1  0.00000000  0.64948100  0.90694900  1
  C  C85  1  0.50000000  0.14973200  0.40646100  1
  C  C86  1  0.50000000  0.85070000  0.59326200  1
  C  C87  1  0.00000000  0.35025000  0.09329600  1
  C  C88  1  0.78641200  0.37471300  0.63839800  1
  C  C89  1  0.28651800  0.87507600  0.13825800  1
  C  C90  1  0.28638900  0.12514600  0.86189400  1
  C  C91  1  0.78659800  0.62510000  0.36157000  1
  C  C92  1  0.71361100  0.12514600  0.86189400  1
  C  C93  1  0.21340200  0.62510000  0.36157000  1
  C  C94  1  0.21358800  0.37471300  0.63839800  1
  C  C95  1  0.71348200  0.87507600  0.13825800  1
  C  C96  1  0.41208600  0.91693000  0.98931000  1
  C  C97  1  0.91187400  0.41707300  0.48935500  1
  C  C98  1  0.91210900  0.58307900  0.51070700  1
  C  C99  1  0.41211200  0.08315300  0.01064000  1
  C  C100  1  0.08789100  0.58307900  0.51070700  1
  C  C101  1  0.58788800  0.08315300  0.01064000  1
  C  C102  1  0.58791400  0.91693000  0.98931000  1
  C  C103  1  0.08812600  0.41707300  0.48935500  1
  C  C104  1  0.75327500  0.21390300  0.51282800  1
  C  C105  1  0.25491000  0.71207900  0.01308300  1
  C  C106  1  0.25478200  0.28821300  0.98710800  1
  C  C107  1  0.75401600  0.78689900  0.48710000  1
  C  C108  1  0.74521800  0.28821300  0.98710800  1
  C  C109  1  0.24598400  0.78689900  0.48710000  1
  C  C110  1  0.24672500  0.21390300  0.51282800  1
  C  C111  1  0.74509000  0.71207900  0.01308300  1
  C  C112  1  0.29094400  0.97321800  0.83888000  1
  C  C113  1  0.79178700  0.47351700  0.33826400  1
  C  C114  1  0.79128800  0.52648100  0.66165000  1
  C  C115  1  0.29158100  0.02667300  0.16136100  1
  C  C116  1  0.20871200  0.52648100  0.66165000  1
  C  C117  1  0.70841900  0.02667300  0.16136100  1
  C  C118  1  0.70905600  0.97321800  0.83888000  1
  C  C119  1  0.20821300  0.47351700  0.33826400  1
loop_
_geom_bond_atom_site_label_1
_geom_bond_atom_site_label_2
_geom_bond_distance
_geom_bond_site_symmetry_2
C0 C32 1.408197 1_555
C0 C24 1.423583 1_555
C0 C6 1.458336 1_555
C1 C33 1.407355 1_555
C1 C25 1.423721 1_555
C1 C7 1.459915 1_455
C2 C34 1.406984 1_555
C2 C26 1.426175 1_555
C2 C4 1.455904 1_455
C3 C35 1.408554 1_555
C3 C5 1.460097 1_555
C10 C70 1.411567 1_555
C10 C56 1.444743 1_555
C10 C114 1.448928 1_555
C11 C71 1.410247 1_555
C11 C57 1.440776 1_545
C11 C115 1.452944 1_555
C12 C72 1.411567 1_555
C12 C62 1.444743 1_555
C13 C73 1.410247 1_555
C13 C63 1.440776 1_545
C14 C74 1.407369 1_555
C14 C60 1.438709 1_565
C15 C75 1.411563 1_555
C15 C61 1.440054 1_555
C16 C40 1.416223 1_555
C16 C76 1.425194 1_555
C17 C41 1.411778 1_555
C17 C77 1.430458 1_555
C18 C42 1.408678 1_555
C18 C78 1.424080 1_555
C19 C43 1.413184 1_555
C19 C79 1.428928 1_555
C20 C44 1.408678 1_555
C20 C80 1.424080 1_555
C21 C45 1.413184 1_555
C21 C81 1.428928 1_555
C22 C46 1.416223 1_555
C22 C82 1.425194 1_555
C23 C47 1.411778 1_555
C23 C83 1.430458 1_555
C24 C64 1.547806 1_555
C25 C65 1.550228 1_554
C26 C66 1.549799 1_556
C27 C3 1.422478 1_555
C27 C67 1.550064 1_555
C28 C4 1.426175 1_555
C28 C66 1.549799 1_656
C29 C5 1.422478 1_555
C29 C67 1.550064 1_555
C30 C6 1.423583 1_555
C30 C64 1.547806 1_555
C31 C7 1.423721 1_555
C31 C65 1.550228 1_654
C32 C88 1.440524 1_555
C32 C56 1.444401 1_555
C33 C89 1.441884 1_555
C33 C57 1.445198 1_555
C34 C58 1.440368 1_555
C34 C90 1.441798 1_555
C35 C91 1.441316 1_555
C35 C59 1.443591 1_555
C36 C4 1.406984 1_555
C36 C60 1.440368 1_555
C36 C92 1.441798 1_555
C37 C5 1.408554 1_555
C37 C93 1.441316 1_555
C37 C61 1.443591 1_555
C38 C6 1.408197 1_555
C38 C94 1.440524 1_555
C38 C62 1.444401 1_555
C39 C7 1.407355 1_555
C39 C95 1.441884 1_555
C39 C63 1.445198 1_555
C40 C96 1.519562 1_555
C41 C97 1.520976 1_555
C42 C98 1.520441 1_555
C43 C99 1.519733 1_555
C48 C88 1.386149 1_555
C48 C97 1.512770 1_555
C49 C89 1.389454 1_555
C49 C96 1.515213 1_554
C50 C90 1.386688 1_555
C50 C99 1.514403 1_556
C51 C91 1.389721 1_555
C51 C98 1.515237 1_555
C52 C92 1.386688 1_555
C53 C93 1.389721 1_555
C54 C94 1.386149 1_555
C55 C95 1.389454 1_555
C56 C62 1.431601 1_555
C56 Li5 2.367982 1_555
C57 C63 1.436883 1_455
C57 Li6 2.420345 1_555
C58 C60 1.413995 1_455
C58 C8 1.438709 1_545
C59 C61 1.438444 1_555
C59 C9 1.440054 1_555
C59 Li4 2.356239 1_555
C61 Li4 2.356239 1_555
C62 Li5 2.367982 1_555
C63 Li6 2.420345 1_655
C64 C85 1.516780 1_555
C64 C67 1.606334 1_545
C65 C84 1.516798 1_555
C65 C66 1.601773 1_556
C66 C87 1.515679 1_555
C67 C86 1.517233 1_555
C68 C8 1.407369 1_555
C68 C74 1.439787 1_455
C68 C76 1.452227 1_555
C68 Li2 2.422834 1_555
C69 C9 1.411563 1_555
C69 C75 1.442872 1_555
C69 C77 1.446546 1_555
C69 Li3 2.421280 1_555
C70 C72 1.440531 1_555
C70 C78 1.449164 1_555
C70 Li0 2.426472 1_555
C71 C73 1.442763 1_455
C71 C79 1.447178 1_555
C71 Li1 2.426567 1_555
C72 C80 1.449164 1_555
C72 Li0 2.426472 1_555
C73 C81 1.447178 1_555
C73 Li1 2.426567 1_655
C74 C82 1.452227 1_555
C74 Li2 2.422834 1_655
C75 C83 1.446546 1_555
C75 Li3 2.421280 1_555
C76 C84 1.428911 1_555
C76 Li2 2.446171 1_555
C77 C85 1.428938 1_555
C77 Li3 2.427229 1_555
C78 C86 1.428667 1_555
C78 Li0 2.434191 1_555
C79 C87 1.429549 1_555
C79 Li1 2.439624 1_555
C80 C86 1.428667 1_555
C80 Li0 2.434191 1_555
C81 C87 1.429549 1_655
C81 Li1 2.439624 1_655
C82 C84 1.428911 1_655
C82 Li2 2.446171 1_655
C83 C85 1.428938 1_555
C83 Li3 2.427229 1_555
C84 Li2 2.436065 1_555
C85 Li3 2.413112 1_555
C86 Li0 2.414421 1_555
C87 Li1 2.426693 1_555
C96 C99 1.596915 1_566
C97 C98 1.594986 1_555
C100 C53 1.515237 1_555
C100 C44 1.520441 1_555
C100 C103 1.594986 1_555
C100 C98 1.595223 1_455
C101 C52 1.514403 1_554
C101 C45 1.519733 1_555
C101 C99 1.595169 1_555
C101 C102 1.596915 1_544
C102 C55 1.515213 1_556
C102 C46 1.519562 1_555
C102 C96 1.595641 1_555
C103 C54 1.512770 1_555
C103 C47 1.520976 1_555
C103 C97 1.599489 1_455
C104 C24 1.399635 1_555
C104 C48 1.433356 1_555
C104 C17 1.462437 1_555
C105 C25 1.405338 1_555
C105 C49 1.437876 1_555
C105 C16 1.467445 1_554
C106 C26 1.402561 1_555
C106 C50 1.441513 1_555
C106 C19 1.467124 1_556
C107 C27 1.405599 1_555
C107 C51 1.436280 1_555
C107 C18 1.459304 1_555
C108 C28 1.402561 1_555
C108 C52 1.441513 1_555
C108 C21 1.467124 1_556
C109 C29 1.405599 1_555
C109 C53 1.436280 1_555
C109 C20 1.459304 1_555
C110 C30 1.399635 1_555
C110 C54 1.433356 1_555
C110 C23 1.462437 1_555
C111 C31 1.405338 1_555
C111 C55 1.437876 1_555
C111 C22 1.467445 1_554
C112 C40 1.413042 1_555
C112 C8 1.451995 1_555
C112 C90 1.471958 1_565
C112 Li0 2.397341 1_555
C113 C41 1.418669 1_555
C113 C9 1.452672 1_555
C113 C91 1.470042 1_555
C113 Li1 2.380494 1_655
C114 C42 1.418375 1_555
C114 C88 1.471445 1_555
C114 Li2 2.381677 1_655
C115 C43 1.417595 1_555
C115 C89 1.469394 1_545
C115 Li3 2.390535 1_555
C116 C44 1.418375 1_555
C116 C12 1.448928 1_555
C116 C94 1.471445 1_555
C116 Li2 2.381677 1_555
C117 C45 1.417595 1_555
C117 C13 1.452944 1_555
C117 C95 1.469394 1_545
C117 Li3 2.390535 1_555
C118 C46 1.413042 1_555
C118 C14 1.451995 1_555
C118 C92 1.471958 1_565
C118 Li0 2.397341 1_555
C119 C47 1.418669 1_555
C119 C15 1.452672 1_555
C119 C93 1.470042 1_555
C119 Li1 2.380494 1_555
