# generated using pymatgen
data_Ca3Ti3Cr2O12
_symmetry_space_group_name_H-M   'P 1'
_cell_length_a   10.93108177
_cell_length_b   10.93108177
_cell_length_c   10.93108177
_cell_angle_alpha   109.47122063
_cell_angle_beta   109.47122063
_cell_angle_gamma   109.47122063
_symmetry_Int_Tables_number   1
_chemical_formula_structural   Ca3Ti3Cr2O12
_chemical_formula_sum   'Ca12 Ti12 Cr8 O48'
_cell_volume   1005.46634374
_cell_formula_units_Z   4
loop_
 _symmetry_equiv_pos_site_id
 _symmetry_equiv_pos_as_xyz
  1  'x, y, z'
loop_
 _atom_site_type_symbol
 _atom_site_label
 _atom_site_symmetry_multiplicity
 _atom_site_fract_x
 _atom_site_fract_y
 _atom_site_fract_z
 _atom_site_occupancy
  Ca  Ca0  1  0.25000000  0.37500000  0.12500000  1
  Ca  Ca1  1  0.75000000  0.62500000  0.87500000  1
  Ca  Ca2  1  0.75000000  0.12500000  0.37500000  1
  Ca  Ca3  1  0.12500000  0.25000000  0.37500000  1
  Ca  Ca4  1  0.37500000  0.75000000  0.12500000  1
  Ca  Ca5  1  0.25000000  0.87500000  0.62500000  1
  Ca  Ca6  1  0.87500000  0.75000000  0.62500000  1
  Ca  Ca7  1  0.62500000  0.25000000  0.87500000  1
  Ca  Ca8  1  0.37500000  0.12500000  0.25000000  1
  Ca  Ca9  1  0.62500000  0.87500000  0.75000000  1
  Ca  Ca10  1  0.12500000  0.37500000  0.75000000  1
  Ca  Ca11  1  0.87500000  0.62500000  0.25000000  1
  Ti  Ti0  1  0.25000000  0.62500000  0.37500000  1
  Ti  Ti1  1  0.75000000  0.37500000  0.62500000  1
  Ti  Ti2  1  0.75000000  0.87500000  0.12500000  1
  Ti  Ti3  1  0.37500000  0.25000000  0.62500000  1
  Ti  Ti4  1  0.62500000  0.75000000  0.37500000  1
  Ti  Ti5  1  0.25000000  0.12500000  0.87500000  1
  Ti  Ti6  1  0.12500000  0.75000000  0.87500000  1
  Ti  Ti7  1  0.87500000  0.25000000  0.12500000  1
  Ti  Ti8  1  0.62500000  0.37500000  0.25000000  1
  Ti  Ti9  1  0.37500000  0.62500000  0.75000000  1
  Ti  Ti10  1  0.87500000  0.12500000  0.75000000  1
  Ti  Ti11  1  0.12500000  0.87500000  0.25000000  1
  Cr  Cr0  1  0.00000000  0.00000000  0.00000000  1
  Cr  Cr1  1  0.50000000  0.00000000  0.50000000  1
  Cr  Cr2  1  0.00000000  0.50000000  0.50000000  1
  Cr  Cr3  1  0.50000000  0.00000000  0.00000000  1
  Cr  Cr4  1  0.50000000  0.50000000  0.00000000  1
  Cr  Cr5  1  0.50000000  0.50000000  0.50000000  1
  Cr  Cr6  1  0.00000000  0.00000000  0.50000000  1
  Cr  Cr7  1  0.00000000  0.50000000  0.00000000  1
  O  O0  1  0.48227600  0.38134900  0.30101100  1
  O  O1  1  0.51772400  0.61865100  0.69898900  1
  O  O2  1  0.58033800  0.18126500  0.19898900  1
  O  O3  1  0.91966200  0.11865100  0.60092700  1
  O  O4  1  0.30101100  0.48227600  0.38134900  1
  O  O5  1  0.31873500  0.91966200  0.30101100  1
  O  O6  1  0.41966200  0.81873500  0.80101100  1
  O  O7  1  0.08033800  0.88134900  0.39907300  1
  O  O8  1  0.69898900  0.51772400  0.61865100  1
  O  O9  1  0.68126500  0.08033800  0.69898900  1
  O  O10  1  0.01772400  0.31873500  0.89907300  1
  O  O11  1  0.19898900  0.58033800  0.18126500  1
  O  O12  1  0.11865100  0.01772400  0.19898900  1
  O  O13  1  0.98227600  0.68126500  0.10092700  1
  O  O14  1  0.80101100  0.41966200  0.81873500  1
  O  O15  1  0.88134900  0.98227600  0.80101100  1
  O  O16  1  0.60092700  0.91966200  0.11865100  1
  O  O17  1  0.18126500  0.48227600  0.60092700  1
  O  O18  1  0.39907300  0.08033800  0.88134900  1
  O  O19  1  0.81873500  0.51772400  0.39907300  1
  O  O20  1  0.89907300  0.01772400  0.31873500  1
  O  O21  1  0.38134900  0.58033800  0.89907300  1
  O  O22  1  0.10092700  0.98227600  0.68126500  1
  O  O23  1  0.61865100  0.41966200  0.10092700  1
  O  O24  1  0.38134900  0.30101100  0.48227600  1
  O  O25  1  0.58033800  0.89907300  0.38134900  1
  O  O26  1  0.61865100  0.69898900  0.51772400  1
  O  O27  1  0.41966200  0.10092700  0.61865100  1
  O  O28  1  0.11865100  0.60092700  0.91966200  1
  O  O29  1  0.01772400  0.19898900  0.11865100  1
  O  O30  1  0.88134900  0.39907300  0.08033800  1
  O  O31  1  0.98227600  0.80101100  0.88134900  1
  O  O32  1  0.31873500  0.89907300  0.01772400  1
  O  O33  1  0.91966200  0.30101100  0.31873500  1
  O  O34  1  0.68126500  0.10092700  0.98227600  1
  O  O35  1  0.08033800  0.69898900  0.68126500  1
  O  O36  1  0.18126500  0.19898900  0.58033800  1
  O  O37  1  0.48227600  0.60092700  0.18126500  1
  O  O38  1  0.81873500  0.80101100  0.41966200  1
  O  O39  1  0.51772400  0.39907300  0.81873500  1
  O  O40  1  0.30101100  0.31873500  0.91966200  1
  O  O41  1  0.69898900  0.68126500  0.08033800  1
  O  O42  1  0.19898900  0.11865100  0.01772400  1
  O  O43  1  0.80101100  0.88134900  0.98227600  1
  O  O44  1  0.89907300  0.38134900  0.58033800  1
  O  O45  1  0.10092700  0.61865100  0.41966200  1
  O  O46  1  0.60092700  0.18126500  0.48227600  1
  O  O47  1  0.39907300  0.81873500  0.51772400  1
loop_
_geom_bond_atom_site_label_1
_geom_bond_atom_site_label_2
_geom_bond_distance
_geom_bond_site_symmetry_2
Ca0 O4 2.422801 1_555
Ca0 O11 2.422801 1_555
Ca0 O40 2.422801 1_554
Ca0 O42 2.422801 1_555
Ca0 O29 2.586506 1_555
Ca0 O0 2.586506 1_555
Ca0 O10 2.586506 1_554
Ca0 O37 2.586506 1_555
Ca1 O41 2.422801 1_556
Ca1 O43 2.422801 1_555
Ca1 O14 2.422801 1_555
Ca1 O8 2.422801 1_555
Ca1 O13 2.586506 1_556
Ca1 O31 2.586506 1_555
Ca1 O1 2.586506 1_555
Ca1 O39 2.586506 1_555
Ca2 O46 2.422801 1_555
Ca2 O44 2.422801 1_555
Ca2 O20 2.422801 1_555
Ca2 O16 2.422801 1_545
Ca2 O2 2.586506 1_555
Ca2 O25 2.586506 1_545
Ca2 O33 2.586506 1_555
Ca2 O3 2.586506 1_555
Ca3 O24 2.422801 1_555
Ca3 O33 2.422801 1_455
Ca3 O36 2.422801 1_555
Ca3 O29 2.422801 1_555
Ca3 O12 2.586506 1_555
Ca3 O4 2.586506 1_555
Ca3 O20 2.586506 1_455
Ca3 O17 2.586506 1_555
Ca4 O37 2.422801 1_555
Ca4 O32 2.422801 1_555
Ca4 O25 2.422801 1_555
Ca4 O28 2.422801 1_554
Ca4 O11 2.586506 1_555
Ca4 O5 2.586506 1_555
Ca4 O21 2.586506 1_554
Ca4 O16 2.586506 1_555
Ca5 O47 2.422801 1_555
Ca5 O18 2.422801 1_565
Ca5 O45 2.422801 1_555
Ca5 O22 2.422801 1_555
Ca5 O27 2.586506 1_565
Ca5 O6 2.586506 1_555
Ca5 O7 2.586506 1_555
Ca5 O35 2.586506 1_555
Ca6 O35 2.422801 1_655
Ca6 O31 2.422801 1_555
Ca6 O38 2.422801 1_555
Ca6 O26 2.422801 1_555
Ca6 O22 2.586506 1_655
Ca6 O15 2.586506 1_555
Ca6 O8 2.586506 1_555
Ca6 O19 2.586506 1_555
Ca7 O30 2.422801 1_556
Ca7 O39 2.422801 1_555
Ca7 O27 2.422801 1_555
Ca7 O34 2.422801 1_555
Ca7 O23 2.586506 1_556
Ca7 O14 2.586506 1_555
Ca7 O18 2.586506 1_555
Ca7 O9 2.586506 1_555
Ca8 O0 2.422801 1_555
Ca8 O5 2.422801 1_545
Ca8 O2 2.422801 1_555
Ca8 O12 2.422801 1_555
Ca8 O42 2.586506 1_555
Ca8 O24 2.586506 1_555
Ca8 O32 2.586506 1_545
Ca8 O46 2.586506 1_555
Ca9 O9 2.422801 1_565
Ca9 O6 2.422801 1_555
Ca9 O15 2.422801 1_555
Ca9 O1 2.422801 1_555
Ca9 O34 2.586506 1_565
Ca9 O43 2.586506 1_555
Ca9 O26 2.586506 1_555
Ca9 O47 2.586506 1_555
Ca10 O17 2.422801 1_555
Ca10 O10 2.422801 1_555
Ca10 O21 2.422801 1_555
Ca10 O3 2.422801 1_455
Ca10 O36 2.586506 1_555
Ca10 O44 2.586506 1_455
Ca10 O40 2.586506 1_555
Ca10 O28 2.586506 1_555
Ca11 O7 2.422801 1_655
Ca11 O19 2.422801 1_555
Ca11 O23 2.422801 1_555
Ca11 O13 2.422801 1_555
Ca11 O45 2.586506 1_655
Ca11 O38 2.586506 1_555
Ca11 O41 2.586506 1_555
Ca11 O30 2.586506 1_555
Cr0 O42 2.030224 1_555
Cr0 O12 2.030224 1_555
Cr0 O29 2.030224 1_555
Cr0 O43 2.030224 1_444
Cr0 O31 2.030224 1_444
Cr0 O15 2.030224 1_444
Cr1 O46 2.030224 1_555
Cr1 O27 2.030224 1_555
Cr1 O25 2.030224 1_545
Cr1 O5 2.030224 1_545
Cr1 O47 2.030224 1_545
Cr1 O9 2.030224 1_555
Cr2 O17 2.030224 1_555
Cr2 O45 2.030224 1_555
Cr2 O44 2.030224 1_455
Cr2 O33 2.030224 1_455
Cr2 O19 2.030224 1_455
Cr2 O35 2.030224 1_555
Cr3 O16 2.030224 1_545
Cr3 O2 2.030224 1_555
Cr3 O32 2.030224 1_545
Cr3 O18 2.030224 1_554
Cr3 O34 2.030224 1_554
Cr3 O6 2.030224 1_544
Cr4 O37 2.030224 1_555
Cr4 O23 2.030224 1_555
Cr4 O21 2.030224 1_554
Cr4 O40 2.030224 1_554
Cr4 O39 2.030224 1_554
Cr4 O41 2.030224 1_555
Cr5 O26 2.030224 1_555
Cr5 O1 2.030224 1_555
Cr5 O8 2.030224 1_555
Cr5 O0 2.030224 1_555
Cr5 O24 2.030224 1_555
Cr5 O4 2.030224 1_555
Cr6 O3 2.030224 1_455
Cr6 O36 2.030224 1_555
Cr6 O20 2.030224 1_455
Cr6 O7 2.030224 1_545
Cr6 O22 2.030224 1_545
Cr6 O38 2.030224 1_445
Cr7 O28 2.030224 1_554
Cr7 O11 2.030224 1_555
Cr7 O10 2.030224 1_554
Cr7 O30 2.030224 1_455
Cr7 O13 2.030224 1_455
Cr7 O14 2.030224 1_454
O0 Ti8 1.837411 1_555
O1 Ti9 1.837411 1_555
O2 Ti8 1.837411 1_555
O3 Ti10 1.837411 1_555
O4 Ti0 1.837411 1_555
O5 Ti11 1.837411 1_555
O6 Ti9 1.837411 1_555
O7 Ti11 1.837411 1_555
O8 Ti1 1.837411 1_555
O9 Ti10 1.837411 1_555
O10 Ti10 1.837411 1_455
O11 Ti0 1.837411 1_555
O12 Ti11 1.837411 1_545
O13 Ti11 1.837411 1_655
O14 Ti1 1.837411 1_555
O15 Ti10 1.837411 1_565
O16 Ti2 1.837411 1_555
O17 Ti9 1.837411 1_555
O18 Ti5 1.837411 1_555
O19 Ti8 1.837411 1_555
O20 Ti2 1.837411 1_545
O21 Ti9 1.837411 1_555
O22 Ti5 1.837411 1_565
O23 Ti8 1.837411 1_555
O24 Ti3 1.837411 1_555
O25 Ti4 1.837411 1_555
O26 Ti4 1.837411 1_555
O27 Ti3 1.837411 1_555
O28 Ti6 1.837411 1_555
O29 Ti7 1.837411 1_455
O30 Ti7 1.837411 1_555
O31 Ti6 1.837411 1_655
O32 Ti6 1.837411 1_554
O33 Ti7 1.837411 1_555
O34 Ti7 1.837411 1_556
O35 Ti6 1.837411 1_555
O36 Ti3 1.837411 1_555
O37 Ti4 1.837411 1_555
O38 Ti4 1.837411 1_555
O39 Ti3 1.837411 1_555
O40 Ti5 1.837411 1_555
O41 Ti2 1.837411 1_555
O42 Ti5 1.837411 1_554
O43 Ti2 1.837411 1_556
O44 Ti1 1.837411 1_555
O45 Ti0 1.837411 1_555
O46 Ti1 1.837411 1_555
O47 Ti0 1.837411 1_555
