# generated using pymatgen
data_Li2GeO3
_symmetry_space_group_name_H-M   'P 1'
_cell_length_a   4.84326376
_cell_length_b   5.43711527
_cell_length_c   5.49982352
_cell_angle_alpha   119.62353434
_cell_angle_beta   90.00000000
_cell_angle_gamma   90.00000000
_symmetry_Int_Tables_number   1
_chemical_formula_structural   Li2GeO3
_chemical_formula_sum   'Li4 Ge2 O6'
_cell_volume   125.89865265
_cell_formula_units_Z   2
loop_
 _symmetry_equiv_pos_site_id
 _symmetry_equiv_pos_as_xyz
  1  'x, y, z'
loop_
 _atom_site_type_symbol
 _atom_site_label
 _atom_site_symmetry_multiplicity
 _atom_site_fract_x
 _atom_site_fract_y
 _atom_site_fract_z
 _atom_site_occupancy
  Li  Li0  1  0.01122077  0.83379173  0.35046267  1
  Li  Li1  1  0.51122077  0.16620827  0.64953733  1
  Li  Li2  1  0.51122077  0.51667094  0.35046267  1
  Li  Li3  1  0.01122077  0.48332906  0.64953733  1
  Ge  Ge0  1  0.50316329  0.82049192  -0.00000000  1
  Ge  Ge1  1  0.00316329  0.17950808  0.00000000  1
  O  O0  1  0.87565193  0.86388116  -0.00000000  1
  O  O1  1  0.40842312  0.52707345  0.69233028  1
  O  O2  1  0.40842312  0.83474216  0.30766972  1
  O  O3  1  0.37565193  0.13611884  0.00000000  1
  O  O4  1  0.90842312  0.16525784  0.69233028  1
  O  O5  1  0.90842312  0.47292655  0.30766972  1
loop_
_geom_bond_atom_site_label_1
_geom_bond_atom_site_label_2
_geom_bond_distance
_geom_bond_site_symmetry_2
Li0 O4 1.918633 1_465
Li0 O5 1.922618 1_455
Li0 O2 1.938416 1_555
Li0 O0 2.117738 1_455
Li1 O2 1.918633 1_545
Li1 O1 1.922618 1_555
Li1 O4 1.938416 1_555
Li1 O3 2.117738 1_556
Li2 O1 1.918631 1_555
Li2 O2 1.922612 1_555
Li2 O5 1.938416 1_555
Li2 O3 2.117738 1_555
Li3 O5 1.918631 1_455
Li3 O4 1.922612 1_455
Li3 O1 1.938416 1_555
Li3 O0 2.117738 1_456
Ge0 O1 1.717623 1_554
Ge0 O2 1.717626 1_555
Ge0 O0 1.819420 1_555
Ge0 O3 1.823840 1_565
Ge1 O5 1.717623 1_455
Ge1 O4 1.717626 1_454
Ge1 O3 1.819420 1_555
Ge1 O0 1.823840 1_445
