# generated using pymatgen
data_YZnPO
_symmetry_space_group_name_H-M   'P 1'
_cell_length_a   3.90759232
_cell_length_b   3.90759232
_cell_length_c   10.41113919
_cell_angle_alpha   79.18350370
_cell_angle_beta   79.18350370
_cell_angle_gamma   59.99999453
_symmetry_Int_Tables_number   1
_chemical_formula_structural   YZnPO
_chemical_formula_sum   'Y2 Zn2 P2 O2'
_cell_volume   134.40133490
_cell_formula_units_Z   2
loop_
 _symmetry_equiv_pos_site_id
 _symmetry_equiv_pos_as_xyz
  1  'x, y, z'
loop_
 _atom_site_type_symbol
 _atom_site_label
 _atom_site_symmetry_multiplicity
 _atom_site_fract_x
 _atom_site_fract_y
 _atom_site_fract_z
 _atom_site_occupancy
  Y  Y0  1  0.62018300  0.62018300  0.13945100  1
  Y  Y1  1  0.37981700  0.37981700  0.86054900  1
  Zn  Zn0  1  0.80377700  0.80377700  0.58866900  1
  Zn  Zn1  1  0.19622300  0.19622300  0.41133100  1
  P  P0  1  0.11190700  0.11190700  0.66427900  1
  P  P1  1  0.88809300  0.88809300  0.33572100  1
  O  O0  1  0.69471800  0.69471800  0.91584600  1
  O  O1  1  0.30528200  0.30528200  0.08415400  1
loop_
_geom_bond_atom_site_label_1
_geom_bond_atom_site_label_2
_geom_bond_distance
_geom_bond_site_symmetry_2
P0 Zn0 2.383343 1_455
P0 Zn0 2.383343 1_545
P0 Zn0 2.383343 1_445
P0 Zn1 2.570903 1_555
P0 Y1 3.011503 1_455
P0 Y1 3.011503 1_545
P0 Y1 3.011503 1_555
P1 Zn1 2.383343 1_655
P1 Zn1 2.383343 1_565
P1 Zn1 2.383343 1_665
P1 Zn0 2.570903 1_555
P1 Y0 3.011503 1_565
P1 Y0 3.011503 1_655
P1 Y0 3.011503 1_555
O0 Y0 2.272668 1_556
O0 Y1 2.325001 1_565
O0 Y1 2.325001 1_655
O0 Y1 2.325002 1_555
O1 Y1 2.272668 1_554
O1 Y0 2.325001 1_545
O1 Y0 2.325001 1_455
O1 Y0 2.325002 1_555
