# generated using pymatgen
data_Cr7FeO12
_symmetry_space_group_name_H-M   'P 1'
_cell_length_a   9.09146670
_cell_length_b   10.42555619
_cell_length_c   10.59622425
_cell_angle_alpha   77.50088923
_cell_angle_beta   89.88434578
_cell_angle_gamma   90.65241905
_symmetry_Int_Tables_number   1
_chemical_formula_structural   Cr7FeO12
_chemical_formula_sum   'Cr28 Fe4 O48'
_cell_volume   980.47065300
_cell_formula_units_Z   4
loop_
 _symmetry_equiv_pos_site_id
 _symmetry_equiv_pos_as_xyz
  1  'x, y, z'
loop_
 _atom_site_type_symbol
 _atom_site_label
 _atom_site_symmetry_multiplicity
 _atom_site_fract_x
 _atom_site_fract_y
 _atom_site_fract_z
 _atom_site_occupancy
  Cr  Cr0  1  0.33893200  0.32390700  0.10969600  1
  Cr  Cr1  1  0.01787400  0.47371400  0.08774200  1
  Cr  Cr2  1  0.31961300  0.98004400  0.34622700  1
  Cr  Cr3  1  0.72604700  0.02453800  0.94954200  1
  Cr  Cr4  1  0.81940000  0.71282700  0.22043100  1
  Cr  Cr5  1  0.43828100  0.24770800  0.38739200  1
  Cr  Cr6  1  0.19905600  0.67193100  0.33385800  1
  Cr  Cr7  1  0.38948600  0.43958700  0.61741600  1
  Cr  Cr8  1  0.04041100  0.01870900  0.83498600  1
  Cr  Cr9  1  0.87171300  0.99992200  0.59776400  1
  Cr  Cr10  1  0.72016700  0.47678800  0.10241900  1
  Cr  Cr11  1  0.48840200  0.83416600  0.12527400  1
  Cr  Cr12  1  0.12871900  0.41573800  0.44970800  1
  Cr  Cr13  1  0.48828100  0.53497300  0.33565300  1
  Cr  Cr14  1  0.36613000  0.78660900  0.59318300  1
  Cr  Cr15  1  0.26929900  0.12001500  0.63195500  1
  Cr  Cr16  1  0.83165800  0.77819100  0.91423400  1
  Cr  Cr17  1  0.78276200  0.28422600  0.38909600  1
  Cr  Cr18  1  0.73749200  0.73403800  0.59259500  1
  Cr  Cr19  1  0.86114800  0.51004100  0.78321700  1
  Cr  Cr20  1  0.63213600  0.24983400  0.65309100  1
  Cr  Cr21  1  0.98529500  0.83629900  0.40393000  1
  Cr  Cr22  1  0.43207800  0.13123400  0.85413300  1
  Cr  Cr23  1  0.11165600  0.72517700  0.07709900  1
  Cr  Cr24  1  0.91822300  0.21447900  0.08032400  1
  Cr  Cr25  1  0.29575500  0.60148800  0.85290000  1
  Cr  Cr26  1  0.16911200  0.30780700  0.88451800  1
  Cr  Cr27  1  0.36831100  0.85394000  0.87321900  1
  Fe  Fe0  1  0.07324000  0.63608200  0.63591200  1
  Fe  Fe1  1  0.54885500  0.14386100  0.15878900  1
  Fe  Fe2  1  0.56339700  0.36085800  0.89987000  1
  Fe  Fe3  1  0.69958000  0.97424400  0.37409200  1
  O  O0  1  0.68311600  0.92703300  0.55720800  1
  O  O1  1  0.91032000  0.01702900  0.40216500  1
  O  O2  1  0.25146100  0.78555200  0.75159300  1
  O  O3  1  0.56643900  0.35684700  0.47517300  1
  O  O4  1  0.25930100  0.26502700  0.48403300  1
  O  O5  1  0.38631900  0.17310400  0.02074300  1
  O  O6  1  0.88193500  0.62942800  0.07298800  1
  O  O7  1  0.56491800  0.34258900  0.09119400  1
  O  O8  1  0.82631600  0.96475600  0.80131600  1
  O  O9  1  0.77926400  0.18253100  0.57295600  1
  O  O10  1  0.83599800  0.42189600  0.96338700  1
  O  O11  1  0.77142800  0.68398800  0.79165000  1
  O  O12  1  0.13516100  0.60387600  0.95811800  1
  O  O13  1  0.02167700  0.85871500  0.94556200  1
  O  O14  1  0.85581500  0.35253100  0.20030600  1
  O  O15  1  0.30265000  0.58511700  0.67983600  1
  O  O16  1  0.73671300  0.09682800  0.10374700  1
  O  O17  1  0.77548600  0.79391700  0.37248900  1
  O  O18  1  0.34108200  0.42154300  0.92333000  1
  O  O19  1  0.05746800  0.45102800  0.77703300  1
  O  O20  1  0.50412200  0.95298600  0.25375200  1
  O  O21  1  0.53276600  0.70399900  0.56205100  1
  O  O22  1  0.20930000  0.82237400  0.42193300  1
  O  O23  1  0.62910300  0.16462100  0.33474100  1
  O  O24  1  0.26212500  0.02276500  0.82345000  1
  O  O25  1  0.65189500  0.19020000  0.84618900  1
  O  O26  1  0.48558500  0.12887500  0.66984100  1
  O  O27  1  0.73029800  0.83582100  0.07236400  1
  O  O28  1  0.11909400  0.31447900  0.07052400  1
  O  O29  1  0.04518400  0.60078300  0.45580800  1
  O  O30  1  0.56842500  0.39943500  0.71106500  1
  O  O31  1  0.34489000  0.16305900  0.26015500  1
  O  O32  1  0.02920600  0.79197100  0.22851300  1
  O  O33  1  0.05931600  0.06951200  0.65882800  1
  O  O34  1  0.66692300  0.57126200  0.23686900  1
  O  O35  1  0.52208500  0.96143500  0.94641400  1
  O  O36  1  0.95633100  0.34651000  0.43082600  1
  O  O37  1  0.29314300  0.27479000  0.73853100  1
  O  O38  1  0.80607100  0.55543500  0.61618700  1
  O  O39  1  0.39039700  0.40487600  0.26209400  1
  O  O40  1  0.45216400  0.67506200  0.91123900  1
  O  O41  1  0.35172400  0.98644200  0.52155300  1
  O  O42  1  0.41092300  0.70302300  0.26600700  1
  O  O43  1  0.31063500  0.52489200  0.44982700  1
  O  O44  1  0.95032900  0.80917500  0.59171300  1
  O  O45  1  0.13658100  0.55955500  0.20744600  1
  O  O46  1  0.01002300  0.15535000  0.91659500  1
  O  O47  1  0.29642300  0.82380600  0.04947900  1
loop_
_geom_bond_atom_site_label_1
_geom_bond_atom_site_label_2
_geom_bond_distance
_geom_bond_site_symmetry_2
Cr0 O18 2.016325 1_554
Cr0 O39 2.030598 1_555
Cr0 O28 2.047702 1_555
Cr0 O5 2.049656 1_555
Cr0 O31 2.049877 1_555
Cr0 O7 2.066460 1_555
Cr1 O28 1.949696 1_555
Cr1 O12 2.004849 1_554
Cr1 O45 2.012307 1_555
Cr1 O6 2.030742 1_455
Cr1 O14 2.118456 1_455
Cr1 O10 2.249194 1_454
Cr2 O41 1.896433 1_555
Cr2 O22 1.933868 1_555
Cr2 O31 1.939366 1_565
Cr2 O20 1.994343 1_555
Cr3 O16 1.944057 1_556
Cr3 O25 1.961519 1_555
Cr3 O35 1.963236 1_545
Cr3 O8 2.029097 1_545
Cr3 O27 2.111832 1_546
Cr4 O27 1.979906 1_555
Cr4 O34 1.992842 1_555
Cr4 O17 2.016161 1_555
Cr4 O6 2.028743 1_555
Cr4 O32 2.078919 1_655
Cr5 O39 1.927193 1_555
Cr5 O4 1.951662 1_555
Cr5 O31 1.954492 1_555
Cr5 O3 1.987384 1_555
Cr5 O23 2.076250 1_555
Cr6 O29 1.931625 1_555
Cr6 O22 1.992564 1_555
Cr6 O43 2.028328 1_555
Cr6 O45 2.038786 1_555
Cr6 O42 2.052187 1_555
Cr6 O32 2.154772 1_555
Cr7 O30 1.910157 1_555
Cr7 O43 1.947923 1_555
Cr7 O15 1.955061 1_555
Cr7 O37 2.091141 1_555
Cr7 O3 2.487683 1_555
Cr8 O13 1.825085 1_545
Cr8 O33 1.833848 1_555
Cr8 O46 1.842471 1_555
Cr8 O24 2.018570 1_555
Cr8 O8 2.072930 1_445
Cr9 O0 1.953644 1_555
Cr9 O33 2.008367 1_665
Cr9 O9 2.054435 1_565
Cr9 O1 2.070352 1_565
Cr9 O44 2.134721 1_555
Cr9 O8 2.146527 1_555
Cr10 O14 1.932577 1_555
Cr10 O34 1.962027 1_555
Cr10 O10 1.994798 1_554
Cr10 O7 1.997881 1_555
Cr10 O6 2.126662 1_555
Cr11 O42 1.918492 1_555
Cr11 O47 1.934408 1_555
Cr11 O20 2.033482 1_555
Cr11 O35 2.084745 1_554
Cr11 O27 2.267383 1_555
Cr12 O36 1.747929 1_455
Cr12 O4 1.951246 1_555
Cr12 O43 1.997029 1_555
Cr12 O29 2.095208 1_555
Cr13 O42 1.891905 1_555
Cr13 O39 1.916255 1_555
Cr13 O34 1.919449 1_555
Cr13 O43 2.004079 1_555
Cr13 O3 2.232743 1_555
Cr14 O21 1.815593 1_555
Cr14 O2 1.972090 1_555
Cr14 O41 2.062967 1_555
Cr14 O15 2.173550 1_555
Cr14 O22 2.279133 1_555
Cr15 O4 1.930979 1_555
Cr15 O33 1.978083 1_555
Cr15 O26 2.012798 1_555
Cr15 O24 2.063255 1_555
Cr15 O41 2.143529 1_545
Cr15 O37 2.169760 1_555
Cr16 O11 1.869338 1_555
Cr16 O13 1.972135 1_655
Cr16 O8 2.052368 1_555
Cr16 O6 2.081842 1_556
Cr16 O27 2.111843 1_556
Cr17 O36 1.791930 1_555
Cr17 O9 2.006382 1_555
Cr17 O23 2.027960 1_555
Cr17 O14 2.077813 1_555
Cr17 O3 2.366134 1_555
Cr18 O21 1.923576 1_555
Cr18 O38 1.934938 1_555
Cr18 O0 2.032311 1_555
Cr18 O44 2.078505 1_555
Cr18 O11 2.084760 1_555
Cr18 O17 2.304395 1_555
Cr19 O38 1.803779 1_555
Cr19 O19 1.900117 1_655
Cr19 O10 1.943084 1_555
Cr19 O11 2.016340 1_555
Cr20 O26 1.805790 1_555
Cr20 O9 1.810316 1_555
Cr20 O30 1.891907 1_555
Cr20 O25 2.014638 1_555
Cr20 O3 2.065179 1_555
Cr21 O44 1.972849 1_555
Cr21 O17 1.997941 1_555
Cr21 O1 2.007304 1_565
Cr21 O32 2.049624 1_655
Cr21 O22 2.049695 1_655
Cr21 O29 2.464746 1_655
Cr22 O5 1.953235 1_556
Cr22 O24 1.973147 1_555
Cr22 O35 2.011591 1_545
Cr22 O26 2.016903 1_555
Cr22 O25 2.080334 1_555
Cr22 O37 2.142821 1_555
Cr23 O13 1.934093 1_554
Cr23 O47 1.947597 1_555
Cr23 O45 1.979494 1_555
Cr23 O12 1.982331 1_554
Cr23 O32 2.027708 1_555
Cr23 O6 2.309095 1_455
Cr24 O16 2.027241 1_555
Cr24 O28 2.083692 1_655
Cr24 O46 2.134309 1_654
Cr24 O14 2.194877 1_555
Cr24 O10 2.377196 1_554
Cr25 O40 1.782275 1_555
Cr25 O12 1.838920 1_555
Cr25 O15 1.879157 1_555
Cr25 O18 1.912871 1_555
Cr25 O2 2.030922 1_555
Cr26 O19 1.964691 1_555
Cr26 O37 2.003806 1_555
Cr26 O28 2.037832 1_556
Cr26 O18 2.047200 1_555
Cr26 O46 2.108466 1_555
Cr27 O2 1.919339 1_555
Cr27 O47 1.936630 1_556
Cr27 O40 1.982360 1_555
Cr27 O24 1.986704 1_565
Cr27 O35 2.038852 1_555
Fe0 O29 2.036270 1_555
Fe0 O44 2.099232 1_455
Fe0 O19 2.173218 1_555
Fe0 O15 2.184283 1_555
Fe1 O16 1.906930 1_555
Fe1 O7 2.043835 1_555
Fe1 O23 2.057126 1_555
Fe1 O5 2.059649 1_555
Fe1 O20 2.061825 1_545
Fe1 O31 2.173888 1_555
Fe2 O30 1.953780 1_555
Fe2 O7 1.994868 1_556
Fe2 O25 2.145991 1_555
Fe2 O18 2.154616 1_555
Fe2 O10 2.675130 1_555
Fe3 O0 1.900879 1_555
Fe3 O1 1.999634 1_565
Fe3 O17 2.013524 1_555
Fe3 O23 2.048317 1_565
Fe3 O20 2.226063 1_555
