# generated using pymatgen
data_Mg3(Al9Mo)2
_symmetry_space_group_name_H-M   'P 1'
_cell_length_a   10.38404269
_cell_length_b   10.38404269
_cell_length_c   10.38404269
_cell_angle_alpha   60.00000000
_cell_angle_beta   60.00000000
_cell_angle_gamma   60.00000000
_symmetry_Int_Tables_number   1
_chemical_formula_structural   Mg3(Al9Mo)2
_chemical_formula_sum   'Mg6 Al36 Mo4'
_cell_volume   791.74329917
_cell_formula_units_Z   2
loop_
 _symmetry_equiv_pos_site_id
 _symmetry_equiv_pos_as_xyz
  1  'x, y, z'
loop_
 _atom_site_type_symbol
 _atom_site_label
 _atom_site_symmetry_multiplicity
 _atom_site_fract_x
 _atom_site_fract_y
 _atom_site_fract_z
 _atom_site_occupancy
  Mg  Mg0  1  0.12500000  0.62500000  0.62500000  1
  Mg  Mg1  1  0.62500000  0.12500000  0.62500000  1
  Mg  Mg2  1  0.62500000  0.62500000  0.12500000  1
  Mg  Mg3  1  0.62500000  0.62500000  0.62500000  1
  Mg  Mg4  1  0.50000000  0.50000000  0.50000000  1
  Mg  Mg5  1  0.75000000  0.75000000  0.75000000  1
  Al  Al0  1  0.85942600  0.85942600  0.14057400  1
  Al  Al1  1  0.14057400  0.14057400  0.85942600  1
  Al  Al2  1  0.85942600  0.14057400  0.85942600  1
  Al  Al3  1  0.14057400  0.85942600  0.14057400  1
  Al  Al4  1  0.14057400  0.85942600  0.85942600  1
  Al  Al5  1  0.85942600  0.14057400  0.14057400  1
  Al  Al6  1  0.39057400  0.39057400  0.10942600  1
  Al  Al7  1  0.10942600  0.10942600  0.39057400  1
  Al  Al8  1  0.39057400  0.10942600  0.39057400  1
  Al  Al9  1  0.10942600  0.39057400  0.10942600  1
  Al  Al10  1  0.10942600  0.39057400  0.39057400  1
  Al  Al11  1  0.39057400  0.10942600  0.10942600  1
  Al  Al12  1  0.56604200  0.30095100  0.30095100  1
  Al  Al13  1  0.30095100  0.56604200  0.83205600  1
  Al  Al14  1  0.30095100  0.83205600  0.56604200  1
  Al  Al15  1  0.83205600  0.30095100  0.30095100  1
  Al  Al16  1  0.30095100  0.30095100  0.56604200  1
  Al  Al17  1  0.56604200  0.83205600  0.30095100  1
  Al  Al18  1  0.83205600  0.56604200  0.30095100  1
  Al  Al19  1  0.30095100  0.30095100  0.83205600  1
  Al  Al20  1  0.30095100  0.56604200  0.30095100  1
  Al  Al21  1  0.83205600  0.30095100  0.56604200  1
  Al  Al22  1  0.56604200  0.30095100  0.83205600  1
  Al  Al23  1  0.30095100  0.83205600  0.30095100  1
  Al  Al24  1  0.68395800  0.94904900  0.94904900  1
  Al  Al25  1  0.94904900  0.68395800  0.41794400  1
  Al  Al26  1  0.94904900  0.41794400  0.68395800  1
  Al  Al27  1  0.41794400  0.94904900  0.94904900  1
  Al  Al28  1  0.94904900  0.94904900  0.68395800  1
  Al  Al29  1  0.68395800  0.41794400  0.94904900  1
  Al  Al30  1  0.41794400  0.68395800  0.94904900  1
  Al  Al31  1  0.94904900  0.94904900  0.41794400  1
  Al  Al32  1  0.94904900  0.68395800  0.94904900  1
  Al  Al33  1  0.41794400  0.94904900  0.68395800  1
  Al  Al34  1  0.68395800  0.94904900  0.41794400  1
  Al  Al35  1  0.94904900  0.41794400  0.94904900  1
  Mo  Mo0  1  0.62500000  0.12500000  0.12500000  1
  Mo  Mo1  1  0.12500000  0.62500000  0.12500000  1
  Mo  Mo2  1  0.12500000  0.12500000  0.62500000  1
  Mo  Mo3  1  0.12500000  0.12500000  0.12500000  1
loop_
_geom_bond_atom_site_label_1
_geom_bond_atom_site_label_2
_geom_bond_distance
_geom_bond_site_symmetry_2
Mg0 Mg5 3.179451 1_455
Mg0 Mg4 3.179451 1_555
Mg1 Mg5 3.179451 1_545
Mg1 Mg4 3.179451 1_555
Mg2 Mg5 3.179451 1_554
Mg2 Mg4 3.179451 1_555
Mg3 Mg5 3.179451 1_555
Mg3 Mg4 3.179451 1_555
Al0 Mo0 2.606066 1_565
Al0 Mo1 2.606066 1_655
Al0 Al17 2.730281 1_555
Al0 Al18 2.730281 1_555
Al0 Al34 2.866797 1_555
Al0 Al25 2.866797 1_555
Al0 Al32 2.866797 1_554
Al0 Al24 2.866797 1_554
Al1 Mo2 2.606066 1_555
Al1 Mo3 2.606066 1_556
Al1 Al19 2.730281 1_555
Al1 Al16 2.730281 1_555
Al1 Al35 2.866797 1_455
Al1 Al33 2.866797 1_545
Al1 Al27 2.866797 1_545
Al1 Al26 2.866797 1_455
Al2 Mo0 2.606066 1_556
Al2 Mo2 2.606066 1_655
Al2 Al22 2.730281 1_555
Al2 Al21 2.730281 1_555
Al2 Al29 2.866797 1_555
Al2 Al26 2.866797 1_555
Al2 Al28 2.866797 1_545
Al2 Al24 2.866797 1_545
Al3 Mo1 2.606066 1_555
Al3 Mo3 2.606066 1_565
Al3 Al31 2.866797 1_455
Al3 Al30 2.866797 1_554
Al4 Mo1 2.606066 1_556
Al4 Mo2 2.606066 1_565
Al5 Mo0 2.606066 1_555
Al5 Mo3 2.606066 1_655
Al6 Mo1 2.606066 1_555
Al6 Mo0 2.606066 1_555
Al7 Mo3 2.606066 1_555
Al7 Mo2 2.606066 1_555
Al8 Mo2 2.606066 1_555
Al8 Mo0 2.606066 1_555
Al9 Mo3 2.606066 1_555
Al9 Mo1 2.606066 1_555
Al10 Mo1 2.606066 1_555
Al10 Mo2 2.606066 1_555
Al10 Al25 2.730281 1_455
Al10 Al26 2.730281 1_455
Al10 Al16 2.866797 1_555
Al10 Al20 2.866797 1_555
Al10 Al21 2.866797 1_455
Al10 Al18 2.866797 1_455
Al11 Mo3 2.606066 1_555
Al11 Mo0 2.606066 1_555
Al11 Al24 2.730281 1_544
Al11 Al27 2.730281 1_544
Al11 Al22 2.866797 1_554
Al11 Al17 2.866797 1_545
Al11 Al23 2.866797 1_545
Al11 Al19 2.866797 1_554
Al12 Al5 2.730281 1_555
Al12 Al20 2.752716 1_555
Al12 Al16 2.752716 1_555
Al12 Al15 2.762301 1_555
Al12 Mo0 2.855232 1_555
Al12 Al8 2.866797 1_555
Al12 Al6 2.866797 1_555
Al12 Al29 2.983619 1_554
Al12 Al34 2.983619 1_545
Al12 Mg1 3.135179 1_555
Al12 Mg2 3.135179 1_555
Al12 Mg4 3.232956 1_555
Al13 Al4 2.730281 1_555
Al13 Al22 2.752716 1_555
Al13 Al19 2.752716 1_555
Al13 Al14 2.762301 1_555
Al13 Mo1 2.855232 1_556
Al13 Al9 2.866797 1_556
Al13 Al6 2.866797 1_556
Al13 Al32 2.983619 1_455
Al13 Al30 2.983619 1_555
Al13 Mg0 3.135179 1_555
Al13 Mg3 3.135179 1_555
Al13 Mg4 3.232956 1_555
Al14 Al4 2.730281 1_555
Al14 Al17 2.752716 1_555
Al14 Al23 2.752716 1_555
Al14 Mo2 2.855232 1_565
Al14 Al7 2.866797 1_565
Al14 Al8 2.866797 1_565
Al14 Al28 2.983619 1_455
Al14 Al33 2.983619 1_555
Al14 Mg0 3.135179 1_555
Al14 Mg3 3.135179 1_555
Al14 Mg4 3.232956 1_555
Al15 Al5 2.730281 1_555
Al15 Al21 2.752716 1_555
Al15 Al18 2.752716 1_555
Al15 Mo3 2.855232 1_655
Al15 Al9 2.866797 1_655
Al15 Al7 2.866797 1_655
Al15 Al35 2.983619 1_554
Al15 Al31 2.983619 1_545
Al15 Mg1 3.135179 1_555
Al15 Mg2 3.135179 1_555
Al15 Mg4 3.232956 1_555
Al16 Al20 2.752716 1_555
Al16 Al19 2.762301 1_555
Al16 Mo2 2.855232 1_555
Al16 Al8 2.866797 1_555
Al16 Al26 2.983619 1_455
Al16 Al33 2.983619 1_545
Al16 Mg0 3.135179 1_555
Al16 Mg1 3.135179 1_555
Al16 Mg4 3.232956 1_555
Al17 Al23 2.752716 1_555
Al17 Al18 2.762301 1_555
Al17 Mo0 2.855232 1_565
Al17 Al8 2.866797 1_565
Al17 Al24 2.983619 1_554
Al17 Al34 2.983619 1_555
Al17 Mg2 3.135179 1_555
Al17 Mg3 3.135179 1_555
Al17 Mg4 3.232956 1_555
Al18 Al21 2.752716 1_555
Al18 Mo1 2.855232 1_655
Al18 Al9 2.866797 1_655
Al18 Al32 2.983619 1_554
Al18 Al25 2.983619 1_555
Al18 Mg2 3.135179 1_555
Al18 Mg3 3.135179 1_555
Al18 Mg4 3.232956 1_555
Al19 Al22 2.752716 1_555
Al19 Mo3 2.855232 1_556
Al19 Al9 2.866797 1_556
Al19 Al27 2.983619 1_545
Al19 Al35 2.983619 1_455
Al19 Mg1 3.135179 1_555
Al19 Mg0 3.135179 1_555
Al19 Mg4 3.232956 1_555
Al20 Al3 2.730281 1_555
Al20 Al23 2.762301 1_555
Al20 Mo1 2.855232 1_555
Al20 Al6 2.866797 1_555
Al20 Al30 2.983619 1_554
Al20 Al25 2.983619 1_455
Al20 Mg0 3.135179 1_555
Al20 Mg2 3.135179 1_555
Al20 Mg4 3.232956 1_555
Al21 Al22 2.762301 1_555
Al21 Mo2 2.855232 1_655
Al21 Al7 2.866797 1_655
Al21 Al28 2.983619 1_545
Al21 Al26 2.983619 1_555
Al21 Mg1 3.135179 1_555
Al21 Mg3 3.135179 1_555
Al21 Mg4 3.232956 1_555
Al22 Mo0 2.855232 1_556
Al22 Al6 2.866797 1_556
Al22 Al24 2.983619 1_545
Al22 Al29 2.983619 1_555
Al22 Mg1 3.135179 1_555
Al22 Mg3 3.135179 1_555
Al22 Mg4 3.232956 1_555
Al23 Al3 2.730281 1_555
Al23 Mo3 2.855232 1_565
Al23 Al7 2.866797 1_565
Al23 Al31 2.983619 1_455
Al23 Al27 2.983619 1_554
Al23 Mg2 3.135179 1_555
Al23 Mg0 3.135179 1_555
Al23 Mg4 3.232956 1_555
Al24 Al32 2.752716 1_555
Al24 Al28 2.752716 1_555
Al24 Al27 2.762301 1_555
Al24 Mo0 2.855232 1_566
Al24 Mg1 3.135179 1_565
Al24 Mg2 3.135179 1_556
Al24 Mg5 3.232956 1_555
Al25 Al31 2.752716 1_555
Al25 Al34 2.752716 1_555
Al25 Al26 2.762301 1_555
Al25 Mo1 2.855232 1_655
Al25 Al3 2.866797 1_655
Al25 Mg3 3.135179 1_555
Al25 Mg0 3.135179 1_655
Al25 Mg5 3.232956 1_555
Al26 Al35 2.752716 1_555
Al26 Al29 2.752716 1_555
Al26 Mo2 2.855232 1_655
Al26 Mg3 3.135179 1_555
Al26 Mg0 3.135179 1_655
Al26 Mg5 3.232956 1_555
Al27 Al33 2.752716 1_555
Al27 Al30 2.752716 1_555
Al27 Mo3 2.855232 1_566
Al27 Al3 2.866797 1_556
Al27 Mg2 3.135179 1_556
Al27 Mg1 3.135179 1_565
Al27 Mg5 3.232956 1_555
Al28 Al7 2.730281 1_665
Al28 Al32 2.752716 1_555
Al28 Al31 2.762301 1_555
Al28 Mo2 2.855232 1_665
Al28 Al4 2.866797 1_655
Al28 Mg1 3.135179 1_565
Al28 Mg0 3.135179 1_655
Al28 Mg5 3.232956 1_555
Al29 Al6 2.730281 1_556
Al29 Al35 2.752716 1_555
Al29 Al30 2.762301 1_555
Al29 Mo0 2.855232 1_556
Al29 Al5 2.866797 1_556
Al29 Mg3 3.135179 1_555
Al29 Mg2 3.135179 1_556
Al29 Mg5 3.232956 1_555
Al30 Al6 2.730281 1_556
Al30 Al33 2.752716 1_555
Al30 Mo1 2.855232 1_556
Al30 Al4 2.866797 1_555
Al30 Mg3 3.135179 1_555
Al30 Mg2 3.135179 1_556
Al30 Mg5 3.232956 1_555
Al31 Al7 2.730281 1_665
Al31 Al34 2.752716 1_555
Al31 Mo3 2.855232 1_665
Al31 Al5 2.866797 1_565
Al31 Mg0 3.135179 1_655
Al31 Mg1 3.135179 1_565
Al31 Mg5 3.232956 1_555
Al32 Al9 2.730281 1_656
Al32 Al35 2.762301 1_555
Al32 Mo1 2.855232 1_656
Al32 Al4 2.866797 1_655
Al32 Mg2 3.135179 1_556
Al32 Mg0 3.135179 1_655
Al32 Mg5 3.232956 1_555
Al33 Al8 2.730281 1_565
Al33 Al34 2.762301 1_555
Al33 Mo2 2.855232 1_565
Al33 Al4 2.866797 1_555
Al33 Mg3 3.135179 1_555
Al33 Mg1 3.135179 1_565
Al33 Mg5 3.232956 1_555
Al34 Al8 2.730281 1_565
Al34 Mo0 2.855232 1_565
Al34 Al5 2.866797 1_565
Al34 Mg3 3.135179 1_555
Al34 Mg1 3.135179 1_565
Al34 Mg5 3.232956 1_555
Al35 Al9 2.730281 1_656
Al35 Mo3 2.855232 1_656
Al35 Al5 2.866797 1_556
Al35 Mg2 3.135179 1_556
Al35 Mg0 3.135179 1_655
Al35 Mg5 3.232956 1_555
