# generated using pymatgen
data_CuBH4ClO4
_symmetry_space_group_name_H-M   'P 1'
_cell_length_a   5.77568600
_cell_length_b   6.18841000
_cell_length_c   6.18841000
_cell_angle_alpha   90.00000000
_cell_angle_beta   90.00000000
_cell_angle_gamma   90.00000000
_symmetry_Int_Tables_number   1
_chemical_formula_structural   CuBH4ClO4
_chemical_formula_sum   'Cu2 B2 H8 Cl2 O8'
_cell_volume   221.18808719
_cell_formula_units_Z   2
loop_
 _symmetry_equiv_pos_site_id
 _symmetry_equiv_pos_as_xyz
  1  'x, y, z'
loop_
 _atom_site_type_symbol
 _atom_site_label
 _atom_site_symmetry_multiplicity
 _atom_site_fract_x
 _atom_site_fract_y
 _atom_site_fract_z
 _atom_site_occupancy
  Cu  Cu0  1  0.61734300  0.00000000  0.50000000  1
  Cu  Cu1  1  0.38265700  0.50000000  0.00000000  1
  B  B0  1  0.50000000  0.50000000  0.50000000  1
  B  B1  1  0.50000000  0.00000000  0.00000000  1
  H  H0  1  0.75039600  0.65419600  0.32411100  1
  H  H1  1  0.75039600  0.34580400  0.67588900  1
  H  H2  1  0.24960400  0.15419600  0.82411100  1
  H  H3  1  0.24960400  0.84580400  0.17588900  1
  H  H4  1  0.24960400  0.32411100  0.34580400  1
  H  H5  1  0.24960400  0.67588900  0.65419600  1
  H  H6  1  0.75039600  0.82411100  0.84580400  1
  H  H7  1  0.75039600  0.17588900  0.15419600  1
  Cl  Cl0  1  0.15013000  0.00000000  0.50000000  1
  Cl  Cl1  1  0.84987000  0.50000000  0.00000000  1
  O  O0  1  0.65219500  0.04948700  0.18555000  1
  O  O1  1  0.65219500  0.95051300  0.81445000  1
  O  O2  1  0.34780500  0.54948700  0.68555000  1
  O  O3  1  0.34780500  0.45051300  0.31445000  1
  O  O4  1  0.34780500  0.18555000  0.95051300  1
  O  O5  1  0.34780500  0.81445000  0.04948700  1
  O  O6  1  0.65219500  0.68555000  0.45051300  1
  O  O7  1  0.65219500  0.31445000  0.54948700  1
loop_
_geom_bond_atom_site_label_1
_geom_bond_atom_site_label_2
_geom_bond_distance
_geom_bond_site_symmetry_2
Cu0 O0 1.980154 1_555
Cu0 O6 1.980154 1_545
Cu0 O7 1.980154 1_555
Cu0 O1 1.980154 1_545
Cu1 O2 1.980154 1_554
Cu1 O5 1.980154 1_555
Cu1 O3 1.980154 1_555
Cu1 O4 1.980154 1_554
B0 O7 1.478168 1_555
B0 O3 1.478168 1_555
B0 O6 1.478168 1_555
B0 O2 1.478168 1_555
B1 O5 1.478168 1_545
B1 O0 1.478168 1_555
B1 O1 1.478168 1_544
B1 O4 1.478168 1_554
H0 O6 0.985504 1_555
H1 O7 0.985504 1_555
H2 O4 0.985504 1_555
H3 O5 0.985504 1_555
H4 O3 0.985504 1_555
H5 O2 0.985504 1_555
H6 O1 0.985504 1_555
H7 O0 0.985504 1_555
Cl0 Cu0 2.698476 1_555
Cl1 Cu1 2.698476 1_555
