# generated using pymatgen
data_BaBr3
_symmetry_space_group_name_H-M   'P 1'
_cell_length_a   6.92257988
_cell_length_b   6.92257988
_cell_length_c   6.25633900
_cell_angle_alpha   90.00000000
_cell_angle_beta   90.00000000
_cell_angle_gamma   119.99999884
_symmetry_Int_Tables_number   1
_chemical_formula_structural   BaBr3
_chemical_formula_sum   'Ba2 Br6'
_cell_volume   259.64912367
_cell_formula_units_Z   2
loop_
 _symmetry_equiv_pos_site_id
 _symmetry_equiv_pos_as_xyz
  1  'x, y, z'
loop_
 _atom_site_type_symbol
 _atom_site_label
 _atom_site_symmetry_multiplicity
 _atom_site_fract_x
 _atom_site_fract_y
 _atom_site_fract_z
 _atom_site_occupancy
  Ba  Ba0  1  0.33333300  0.66666700  0.75000000  1
  Ba  Ba1  1  0.66666700  0.33333300  0.25000000  1
  Br  Br0  1  0.17184100  0.34368100  0.25000000  1
  Br  Br1  1  0.65631900  0.82815900  0.25000000  1
  Br  Br2  1  0.17184100  0.82815900  0.25000000  1
  Br  Br3  1  0.82815900  0.65631900  0.75000000  1
  Br  Br4  1  0.34368100  0.17184100  0.75000000  1
  Br  Br5  1  0.82815900  0.17184100  0.75000000  1
loop_
_geom_bond_atom_site_label_1
_geom_bond_atom_site_label_2
_geom_bond_distance
_geom_bond_site_symmetry_2
Ba0 Br4 3.461846 1_555
Ba0 Br3 3.461846 1_555
Ba0 Br3 3.461846 1_455
Ba0 Br4 3.461846 1_565
Ba0 Br5 3.461846 1_565
Ba0 Br5 3.461846 1_455
Ba0 Br2 3.678970 1_556
Ba0 Br2 3.678970 1_555
Ba0 Br1 3.678977 1_555
Ba0 Br1 3.678977 1_556
Ba0 Br0 3.678977 1_555
Ba0 Br0 3.678977 1_556
Ba1 Br0 3.461846 1_555
Ba1 Br1 3.461846 1_555
Ba1 Br1 3.461846 1_545
Ba1 Br0 3.461846 1_655
Ba1 Br2 3.461846 1_655
Ba1 Br2 3.461846 1_545
Ba1 Br5 3.678970 1_554
Ba1 Br5 3.678970 1_555
Ba1 Br3 3.678977 1_555
Ba1 Br3 3.678977 1_554
Ba1 Br4 3.678977 1_555
Ba1 Br4 3.678977 1_554
