# generated using pymatgen
data_Na2Hg3(S2O)2
_symmetry_space_group_name_H-M   'P 1'
_cell_length_a   9.15966329
_cell_length_b   9.15966329
_cell_length_c   9.15966329
_cell_angle_alpha   131.45690358
_cell_angle_beta   119.61909666
_cell_angle_gamma   81.00848723
_symmetry_Int_Tables_number   1
_chemical_formula_structural   Na2Hg3(S2O)2
_chemical_formula_sum   'Na4 Hg6 S8 O4'
_cell_volume   483.15272333
_cell_formula_units_Z   2
loop_
 _symmetry_equiv_pos_site_id
 _symmetry_equiv_pos_as_xyz
  1  'x, y, z'
loop_
 _atom_site_type_symbol
 _atom_site_label
 _atom_site_symmetry_multiplicity
 _atom_site_fract_x
 _atom_site_fract_y
 _atom_site_fract_z
 _atom_site_occupancy
  Na  Na0  1  0.73967700  0.51572100  0.25539800  1
  Na  Na1  1  0.26032300  0.48427900  0.74460200  1
  Na  Na2  1  0.23967700  0.98427900  0.22395700  1
  Na  Na3  1  0.76032200  0.01572100  0.77604300  1
  Hg  Hg0  1  0.25000000  0.75000000  0.50000000  1
  Hg  Hg1  1  0.75000000  0.25000000  0.50000000  1
  Hg  Hg2  1  0.42656700  0.25000000  0.17656700  1
  Hg  Hg3  1  0.07343300  0.25000000  0.82343300  1
  Hg  Hg4  1  0.57343300  0.75000000  0.82343300  1
  Hg  Hg5  1  0.92656700  0.75000000  0.17656700  1
  S  S0  1  0.16502700  0.35586600  0.31214200  1
  S  S1  1  0.04372400  0.85288500  0.68785800  1
  S  S2  1  0.45627600  0.14413400  0.80916200  1
  S  S3  1  0.33497300  0.64711500  0.19083800  1
  S  S4  1  0.83497300  0.64413400  0.68785800  1
  S  S5  1  0.95627600  0.14711500  0.31214200  1
  S  S6  1  0.54372400  0.85586600  0.19083800  1
  S  S7  1  0.66502700  0.35288500  0.80916200  1
  O  O0  1  0.95314900  0.26327500  0.21642500  1
  O  O1  1  0.04685100  0.73672500  0.78357500  1
  O  O2  1  0.45314900  0.23672500  0.68987400  1
  O  O3  1  0.54685100  0.76327500  0.31012600  1
loop_
_geom_bond_atom_site_label_1
_geom_bond_atom_site_label_2
_geom_bond_distance
_geom_bond_site_symmetry_2
Na0 O3 2.575009 1_555
Na0 O0 2.735194 1_555
Na0 S4 2.927499 1_555
Na0 S1 2.927499 1_655
Na0 S7 2.980379 1_554
Na0 S2 2.980386 1_554
Na1 O2 2.575009 1_555
Na1 O1 2.735194 1_555
Na1 S0 2.927499 1_555
Na1 S5 2.927499 1_455
Na1 S3 2.980379 1_556
Na1 S6 2.980386 1_556
Na2 O1 2.575021 1_554
Na2 O2 2.735187 1_565
Na2 S3 2.927491 1_555
Na2 S6 2.927505 1_555
Na2 S5 2.980385 1_465
Na2 S0 2.980391 1_565
Na3 O0 2.575021 1_556
Na3 O3 2.735186 1_545
Na3 S7 2.927489 1_555
Na3 S2 2.927496 1_555
Na3 S4 2.980393 1_545
Na3 S1 2.980393 1_645
Hg0 S2 2.815808 1_565
Hg0 S1 2.815809 1_555
Hg0 S0 2.815809 1_555
Hg0 S3 2.815818 1_555
Hg1 S6 2.815808 1_545
Hg1 S4 2.815809 1_555
Hg1 S5 2.815809 1_555
Hg1 S7 2.815818 1_555
Hg2 S2 2.973444 1_554
Hg2 S0 2.973453 1_555
Hg3 S1 2.973453 1_545
Hg3 S3 2.973454 1_556
Hg4 S6 2.973444 1_556
Hg4 S4 2.973453 1_555
Hg5 S5 2.973453 1_565
Hg5 S7 2.973454 1_554
O0 S5 1.761358 1_555
O0 S0 1.761370 1_655
O1 S1 1.761358 1_555
O1 S4 1.761370 1_455
O2 S7 1.761364 1_555
O2 S2 1.761375 1_555
O3 S3 1.761364 1_555
O3 S6 1.761375 1_555
