# generated using pymatgen
data_MgGa3
_symmetry_space_group_name_H-M   'P 1'
_cell_length_a   6.01063772
_cell_length_b   9.77502692
_cell_length_c   9.87728364
_cell_angle_alpha   90.00000000
_cell_angle_beta   90.00000000
_cell_angle_gamma   90.00000000
_symmetry_Int_Tables_number   1
_chemical_formula_structural   MgGa3
_chemical_formula_sum   'Mg8 Ga24'
_cell_volume   580.33136032
_cell_formula_units_Z   8
loop_
 _symmetry_equiv_pos_site_id
 _symmetry_equiv_pos_as_xyz
  1  'x, y, z'
loop_
 _atom_site_type_symbol
 _atom_site_label
 _atom_site_symmetry_multiplicity
 _atom_site_fract_x
 _atom_site_fract_y
 _atom_site_fract_z
 _atom_site_occupancy
  Mg  Mg0_0  1  0.00000000  0.25000000  0.16875296  1
  Mg  Mg0_1  1  0.00000000  0.25000000  0.66875296  1
  Mg  Mg0_2  1  0.00000000  0.75000000  0.16875296  1
  Mg  Mg0_3  1  0.00000000  0.75000000  0.66875296  1
  Mg  Mg0_4  1  0.50000000  0.25000000  0.16875296  1
  Mg  Mg0_5  1  0.50000000  0.25000000  0.66875296  1
  Mg  Mg0_6  1  0.50000000  0.75000000  0.16875296  1
  Mg  Mg0_7  1  0.50000000  0.75000000  0.66875296  1
  Ga  Ga0_0  1  0.00000000  0.00000000  0.49494016  1
  Ga  Ga0_1  1  0.00000000  0.00000000  0.99494017  1
  Ga  Ga0_2  1  0.00000000  0.50000000  0.49494016  1
  Ga  Ga0_3  1  0.00000000  0.50000000  0.99494017  1
  Ga  Ga0_4  1  0.50000000  0.00000000  0.49494016  1
  Ga  Ga0_5  1  0.50000000  0.00000000  0.99494017  1
  Ga  Ga0_6  1  0.50000000  0.50000000  0.49494016  1
  Ga  Ga0_7  1  0.50000000  0.50000000  0.99494017  1
  Ga  Ga1_0  1  0.25000000  0.00000000  0.25038775  1
  Ga  Ga1_1  1  0.25000000  0.00000000  0.75038775  1
  Ga  Ga1_2  1  0.25000000  0.50000000  0.25038775  1
  Ga  Ga1_3  1  0.25000000  0.50000000  0.75038775  1
  Ga  Ga1_4  1  0.75000000  0.00000000  0.25038775  1
  Ga  Ga1_5  1  0.75000000  0.00000000  0.75038775  1
  Ga  Ga1_6  1  0.75000000  0.50000000  0.25038775  1
  Ga  Ga1_7  1  0.75000000  0.50000000  0.75038775  1
  Ga  Ga2_0  1  0.25000000  0.25000000  0.41925162  1
  Ga  Ga2_1  1  0.25000000  0.25000000  0.91925162  1
  Ga  Ga2_2  1  0.25000000  0.75000000  0.41925162  1
  Ga  Ga2_3  1  0.25000000  0.75000000  0.91925162  1
  Ga  Ga2_4  1  0.75000000  0.25000000  0.41925162  1
  Ga  Ga2_5  1  0.75000000  0.25000000  0.91925162  1
  Ga  Ga2_6  1  0.75000000  0.75000000  0.41925162  1
  Ga  Ga2_7  1  0.75000000  0.75000000  0.91925162  1
loop_
_geom_bond_atom_site_label_1
_geom_bond_atom_site_label_2
_geom_bond_distance
_geom_bond_site_symmetry_2
Ga0_0 Ga1_0 2.844766 1_555
Ga0_0 Ga1_4 2.844766 1_455
Ga0_0 Ga1_5 2.936692 1_455
Ga0_0 Ga1_1 2.936692 1_555
Ga0_0 Ga2_0 2.964597 1_555
Ga0_0 Ga2_2 2.964597 1_545
Ga0_0 Ga2_4 2.964597 1_455
Ga0_0 Ga2_6 2.964597 1_445
Ga0_0 Mg0_1 2.986527 1_555
Ga0_0 Mg0_3 2.986527 1_545
Ga0_0 Ga0_4 3.005319 1_555
Ga0_0 Ga0_4 3.005319 1_455
Ga0_1 Ga1_5 2.844766 1_455
Ga0_1 Ga1_1 2.844766 1_555
Ga0_1 Ga1_4 2.936692 1_456
Ga0_1 Ga1_0 2.936692 1_556
Ga0_1 Ga2_1 2.964597 1_555
Ga0_1 Ga2_3 2.964597 1_545
Ga0_1 Ga2_7 2.964597 1_445
Ga0_1 Ga2_5 2.964597 1_455
Ga0_1 Mg0_0 2.986527 1_556
Ga0_1 Mg0_2 2.986527 1_546
Ga0_1 Ga0_5 3.005319 1_555
Ga0_1 Ga0_5 3.005319 1_455
Ga0_2 Ga1_2 2.844766 1_555
Ga0_2 Ga1_6 2.844766 1_455
Ga0_2 Ga1_7 2.936692 1_455
Ga0_2 Ga1_3 2.936692 1_555
Ga0_2 Ga2_0 2.964597 1_555
Ga0_2 Ga2_2 2.964597 1_555
Ga0_2 Ga2_4 2.964597 1_455
Ga0_2 Ga2_6 2.964597 1_455
Ga0_2 Mg0_3 2.986527 1_555
Ga0_2 Mg0_1 2.986527 1_555
Ga0_2 Ga0_6 3.005319 1_555
Ga0_2 Ga0_6 3.005319 1_455
Ga0_3 Ga1_7 2.844766 1_455
Ga0_3 Ga1_3 2.844766 1_555
Ga0_3 Ga1_2 2.936692 1_556
Ga0_3 Ga1_6 2.936692 1_456
Ga0_3 Ga2_1 2.964597 1_555
Ga0_3 Ga2_3 2.964597 1_555
Ga0_3 Ga2_7 2.964597 1_455
Ga0_3 Ga2_5 2.964597 1_455
Ga0_3 Mg0_0 2.986527 1_556
Ga0_3 Mg0_2 2.986527 1_556
Ga0_3 Ga0_7 3.005319 1_555
Ga0_3 Ga0_7 3.005319 1_455
Ga0_4 Ga1_0 2.844766 1_555
Ga0_4 Ga1_4 2.844766 1_555
Ga0_4 Ga1_1 2.936692 1_555
Ga0_4 Ga1_5 2.936692 1_555
Ga0_4 Ga2_0 2.964597 1_555
Ga0_4 Ga2_2 2.964597 1_545
Ga0_4 Ga2_6 2.964597 1_545
Ga0_4 Ga2_4 2.964597 1_555
Ga0_4 Mg0_7 2.986527 1_545
Ga0_4 Mg0_5 2.986527 1_555
Ga0_5 Ga1_1 2.844766 1_555
Ga0_5 Ga1_5 2.844766 1_555
Ga0_5 Ga1_0 2.936692 1_556
Ga0_5 Ga1_4 2.936692 1_556
Ga0_5 Ga2_1 2.964597 1_555
Ga0_5 Ga2_3 2.964597 1_545
Ga0_5 Ga2_5 2.964597 1_555
Ga0_5 Ga2_7 2.964597 1_545
Ga0_5 Mg0_4 2.986527 1_556
Ga0_5 Mg0_6 2.986527 1_546
Ga0_6 Ga1_6 2.844766 1_555
Ga0_6 Ga1_2 2.844766 1_555
Ga0_6 Ga1_3 2.936692 1_555
Ga0_6 Ga1_7 2.936692 1_555
Ga0_6 Ga2_0 2.964597 1_555
Ga0_6 Ga2_2 2.964597 1_555
Ga0_6 Ga2_6 2.964597 1_555
Ga0_6 Ga2_4 2.964597 1_555
Ga0_6 Mg0_7 2.986527 1_555
Ga0_6 Mg0_5 2.986527 1_555
Ga0_7 Ga1_7 2.844766 1_555
Ga0_7 Ga1_3 2.844766 1_555
Ga0_7 Ga1_2 2.936692 1_556
Ga0_7 Ga1_6 2.936692 1_556
Ga0_7 Ga2_1 2.964597 1_555
Ga0_7 Ga2_3 2.964597 1_555
Ga0_7 Ga2_5 2.964597 1_555
Ga0_7 Ga2_7 2.964597 1_555
Ga0_7 Mg0_4 2.986527 1_556
Ga0_7 Mg0_6 2.986527 1_556
Ga1_0 Ga2_0 2.958698 1_555
Ga1_0 Ga2_2 2.958698 1_545
Ga1_0 Mg0_0 2.979950 1_555
Ga1_0 Mg0_2 2.979950 1_545
Ga1_0 Mg0_4 2.979950 1_555
Ga1_0 Mg0_6 2.979950 1_545
Ga1_0 Ga1_4 3.005319 1_555
Ga1_0 Ga1_4 3.005319 1_455
Ga1_1 Ga2_1 2.958698 1_555
Ga1_1 Ga2_3 2.958698 1_545
Ga1_1 Mg0_5 2.979950 1_555
Ga1_1 Mg0_3 2.979950 1_545
Ga1_1 Mg0_7 2.979950 1_545
Ga1_1 Mg0_1 2.979950 1_555
Ga1_1 Ga1_5 3.005319 1_455
Ga1_1 Ga1_5 3.005319 1_555
Ga1_2 Ga2_2 2.958698 1_555
Ga1_2 Ga2_0 2.958698 1_555
Ga1_2 Mg0_0 2.979950 1_555
Ga1_2 Mg0_4 2.979950 1_555
Ga1_2 Mg0_2 2.979950 1_555
Ga1_2 Mg0_6 2.979950 1_555
Ga1_2 Ga1_6 3.005319 1_555
Ga1_2 Ga1_6 3.005319 1_455
Ga1_3 Ga2_1 2.958698 1_555
Ga1_3 Ga2_3 2.958698 1_555
Ga1_3 Mg0_5 2.979950 1_555
Ga1_3 Mg0_3 2.979950 1_555
Ga1_3 Mg0_7 2.979950 1_555
Ga1_3 Mg0_1 2.979950 1_555
Ga1_3 Ga1_7 3.005319 1_555
Ga1_3 Ga1_7 3.005319 1_455
Ga1_4 Ga2_6 2.958698 1_545
Ga1_4 Ga2_4 2.958698 1_555
Ga1_4 Mg0_2 2.979950 1_645
Ga1_4 Mg0_0 2.979950 1_655
Ga1_4 Mg0_6 2.979950 1_545
Ga1_4 Mg0_4 2.979950 1_555
Ga1_5 Ga2_5 2.958698 1_555
Ga1_5 Ga2_7 2.958698 1_545
Ga1_5 Mg0_1 2.979950 1_655
Ga1_5 Mg0_3 2.979950 1_645
Ga1_5 Mg0_7 2.979950 1_545
Ga1_5 Mg0_5 2.979950 1_555
Ga1_6 Ga2_6 2.958698 1_555
Ga1_6 Ga2_4 2.958698 1_555
Ga1_6 Mg0_0 2.979950 1_655
Ga1_6 Mg0_2 2.979950 1_655
Ga1_6 Mg0_6 2.979950 1_555
Ga1_6 Mg0_4 2.979950 1_555
Ga1_7 Ga2_5 2.958698 1_555
Ga1_7 Ga2_7 2.958698 1_555
Ga1_7 Mg0_1 2.979950 1_655
Ga1_7 Mg0_3 2.979950 1_655
Ga1_7 Mg0_7 2.979950 1_555
Ga1_7 Mg0_5 2.979950 1_555
Ga2_0 Mg0_1 2.886387 1_555
Ga2_0 Mg0_5 2.886387 1_555
Ga2_0 Mg0_0 2.894802 1_555
Ga2_0 Mg0_4 2.894802 1_555
Ga2_1 Mg0_4 2.886387 1_556
Ga2_1 Mg0_0 2.886387 1_556
Ga2_1 Mg0_5 2.894802 1_555
Ga2_1 Mg0_1 2.894802 1_555
Ga2_2 Mg0_3 2.886387 1_555
Ga2_2 Mg0_7 2.886387 1_555
Ga2_2 Mg0_6 2.894802 1_555
Ga2_2 Mg0_2 2.894802 1_555
Ga2_3 Mg0_2 2.886387 1_556
Ga2_3 Mg0_6 2.886387 1_556
Ga2_3 Mg0_3 2.894802 1_555
Ga2_3 Mg0_7 2.894802 1_555
Ga2_4 Mg0_1 2.886387 1_655
Ga2_4 Mg0_5 2.886387 1_555
Ga2_4 Mg0_0 2.894802 1_655
Ga2_4 Mg0_4 2.894802 1_555
Ga2_5 Mg0_0 2.886387 1_656
Ga2_5 Mg0_4 2.886387 1_556
Ga2_5 Mg0_1 2.894802 1_655
Ga2_5 Mg0_5 2.894802 1_555
Ga2_6 Mg0_7 2.886387 1_555
Ga2_6 Mg0_3 2.886387 1_655
Ga2_6 Mg0_6 2.894802 1_555
Ga2_6 Mg0_2 2.894802 1_655
Ga2_7 Mg0_2 2.886387 1_656
Ga2_7 Mg0_6 2.886387 1_556
Ga2_7 Mg0_3 2.894802 1_655
Ga2_7 Mg0_7 2.894802 1_555
