# generated using pymatgen
data_Li7MoN4
_symmetry_space_group_name_H-M   'P 1'
_cell_length_a   9.80484180
_cell_length_b   9.80484180
_cell_length_c   9.80484180
_cell_angle_alpha   90.00000000
_cell_angle_beta   90.00000000
_cell_angle_gamma   90.00000000
_symmetry_Int_Tables_number   1
_chemical_formula_structural   Li7MoN4
_chemical_formula_sum   'Li56 Mo8 N32'
_cell_volume   942.58770875
_cell_formula_units_Z   8
loop_
 _symmetry_equiv_pos_site_id
 _symmetry_equiv_pos_as_xyz
  1  'x, y, z'
loop_
 _atom_site_type_symbol
 _atom_site_label
 _atom_site_symmetry_multiplicity
 _atom_site_fract_x
 _atom_site_fract_y
 _atom_site_fract_z
 _atom_site_occupancy
  Li  Li0  1  0.36814076  0.63185924  0.13185924  1
  Li  Li1  1  0.63185924  0.13185924  0.36814076  1
  Li  Li2  1  0.13185924  0.36814076  0.63185924  1
  Li  Li3  1  0.86814076  0.86814076  0.86814076  1
  Li  Li4  1  0.63185924  0.36814076  0.86814076  1
  Li  Li5  1  0.36814076  0.86814076  0.63185924  1
  Li  Li6  1  0.86814076  0.63185924  0.36814076  1
  Li  Li7  1  0.13185924  0.13185924  0.13185924  1
  Li  Li8  1  0.36997191  0.63137977  0.38249451  1
  Li  Li9  1  0.63002809  0.13137977  0.11750549  1
  Li  Li10  1  0.13002809  0.36862023  0.88249451  1
  Li  Li11  1  0.86997191  0.86862023  0.61750549  1
  Li  Li12  1  0.38249451  0.36997191  0.63137977  1
  Li  Li13  1  0.11750549  0.63002809  0.13137977  1
  Li  Li14  1  0.88249451  0.13002809  0.36862023  1
  Li  Li15  1  0.61750549  0.86997191  0.86862023  1
  Li  Li16  1  0.63137977  0.38249451  0.36997191  1
  Li  Li17  1  0.13137977  0.11750549  0.63002809  1
  Li  Li18  1  0.36862023  0.88249451  0.13002809  1
  Li  Li19  1  0.86862023  0.61750549  0.86997191  1
  Li  Li20  1  0.63002809  0.36862023  0.61750549  1
  Li  Li21  1  0.36997191  0.86862023  0.88249451  1
  Li  Li22  1  0.86997191  0.63137977  0.11750549  1
  Li  Li23  1  0.13002809  0.13137977  0.38249451  1
  Li  Li24  1  0.61750549  0.63002809  0.36862023  1
  Li  Li25  1  0.88249451  0.36997191  0.86862023  1
  Li  Li26  1  0.11750549  0.86997191  0.63137977  1
  Li  Li27  1  0.38249451  0.13002809  0.13137977  1
  Li  Li28  1  0.36862023  0.61750549  0.63002809  1
  Li  Li29  1  0.86862023  0.88249451  0.36997191  1
  Li  Li30  1  0.63137977  0.11750549  0.86997191  1
  Li  Li31  1  0.13137977  0.38249451  0.13002809  1
  Li  Li32  1  0.40128101  0.86318392  0.38021180  1
  Li  Li33  1  0.59871899  0.36318392  0.11978820  1
  Li  Li34  1  0.09871899  0.13681608  0.88021180  1
  Li  Li35  1  0.90128101  0.63681608  0.61978820  1
  Li  Li36  1  0.38021180  0.40128101  0.86318392  1
  Li  Li37  1  0.11978820  0.59871899  0.36318392  1
  Li  Li38  1  0.88021180  0.09871899  0.13681608  1
  Li  Li39  1  0.61978820  0.90128101  0.63681608  1
  Li  Li40  1  0.86318392  0.38021180  0.40128101  1
  Li  Li41  1  0.36318392  0.11978820  0.59871899  1
  Li  Li42  1  0.13681608  0.88021180  0.09871899  1
  Li  Li43  1  0.63681608  0.61978820  0.90128101  1
  Li  Li44  1  0.59871899  0.13681608  0.61978820  1
  Li  Li45  1  0.40128101  0.63681608  0.88021180  1
  Li  Li46  1  0.90128101  0.86318392  0.11978820  1
  Li  Li47  1  0.09871899  0.36318392  0.38021180  1
  Li  Li48  1  0.61978820  0.59871899  0.13681608  1
  Li  Li49  1  0.88021180  0.40128101  0.63681608  1
  Li  Li50  1  0.11978820  0.90128101  0.86318392  1
  Li  Li51  1  0.38021180  0.09871899  0.36318392  1
  Li  Li52  1  0.13681608  0.61978820  0.59871899  1
  Li  Li53  1  0.63681608  0.88021180  0.40128101  1
  Li  Li54  1  0.86318392  0.11978820  0.90128101  1
  Li  Li55  1  0.36318392  0.38021180  0.09871899  1
  Mo  Mo0  1  0.13084281  0.86915719  0.36915719  1
  Mo  Mo1  1  0.86915719  0.36915719  0.13084281  1
  Mo  Mo2  1  0.36915719  0.13084281  0.86915719  1
  Mo  Mo3  1  0.63084281  0.63084281  0.63084281  1
  Mo  Mo4  1  0.86915719  0.13084281  0.63084281  1
  Mo  Mo5  1  0.13084281  0.63084281  0.86915719  1
  Mo  Mo6  1  0.63084281  0.86915719  0.13084281  1
  Mo  Mo7  1  0.36915719  0.36915719  0.36915719  1
  N  N0  1  0.24424267  0.75575733  0.25575733  1
  N  N1  1  0.75575733  0.25575733  0.24424267  1
  N  N2  1  0.25575733  0.24424267  0.75575733  1
  N  N3  1  0.74424267  0.74424267  0.74424267  1
  N  N4  1  0.75575733  0.24424267  0.74424267  1
  N  N5  1  0.24424267  0.74424267  0.75575733  1
  N  N6  1  0.74424267  0.75575733  0.24424267  1
  N  N7  1  0.25575733  0.25575733  0.25575733  1
  N  N8  1  0.01698465  0.98846218  0.25720691  1
  N  N9  1  0.98301535  0.48846218  0.24279309  1
  N  N10  1  0.48301535  0.01153782  0.75720691  1
  N  N11  1  0.51698465  0.51153782  0.74279309  1
  N  N12  1  0.25720691  0.01698465  0.98846218  1
  N  N13  1  0.24279309  0.98301535  0.48846218  1
  N  N14  1  0.75720691  0.48301535  0.01153782  1
  N  N15  1  0.74279309  0.51698465  0.51153782  1
  N  N16  1  0.98846218  0.25720691  0.01698465  1
  N  N17  1  0.48846218  0.24279309  0.98301535  1
  N  N18  1  0.01153782  0.75720691  0.48301535  1
  N  N19  1  0.51153782  0.74279309  0.51698465  1
  N  N20  1  0.98301535  0.01153782  0.74279309  1
  N  N21  1  0.01698465  0.51153782  0.75720691  1
  N  N22  1  0.51698465  0.98846218  0.24279309  1
  N  N23  1  0.48301535  0.48846218  0.25720691  1
  N  N24  1  0.74279309  0.98301535  0.01153782  1
  N  N25  1  0.75720691  0.01698465  0.51153782  1
  N  N26  1  0.24279309  0.51698465  0.98846218  1
  N  N27  1  0.25720691  0.48301535  0.48846218  1
  N  N28  1  0.01153782  0.74279309  0.98301535  1
  N  N29  1  0.51153782  0.75720691  0.01698465  1
  N  N30  1  0.98846218  0.24279309  0.51698465  1
  N  N31  1  0.48846218  0.25720691  0.48301535  1
loop_
_geom_bond_atom_site_label_1
_geom_bond_atom_site_label_2
_geom_bond_distance
_geom_bond_site_symmetry_2
Li0 N0 2.104097 1_555
Li0 N29 2.180799 1_555
Li0 N23 2.180799 1_555
Li0 N26 2.180799 1_554
Li1 N1 2.104097 1_555
Li1 N25 2.180799 1_555
Li1 N22 2.180799 1_545
Li1 N31 2.180799 1_555
Li2 N2 2.104097 1_555
Li2 N21 2.180799 1_555
Li2 N27 2.180799 1_555
Li2 N30 2.180799 1_455
Li3 N3 2.104097 1_555
Li3 N24 2.180799 1_556
Li3 N28 2.180799 1_655
Li3 N20 2.180799 1_565
Li4 N4 2.104097 1_555
Li4 N11 2.180799 1_555
Li4 N14 2.180799 1_556
Li4 N17 2.180799 1_555
Li5 N5 2.104097 1_555
Li5 N19 2.180799 1_555
Li5 N10 2.180799 1_565
Li5 N13 2.180799 1_555
Li6 N6 2.104097 1_555
Li6 N15 2.180799 1_555
Li6 N9 2.180799 1_555
Li6 N18 2.180799 1_655
Li7 N7 2.104097 1_555
Li7 N12 2.180799 1_554
Li7 N8 2.180799 1_545
Li7 N16 2.180799 1_455
Li8 N27 2.101923 1_555
Li8 N0 2.133312 1_555
Li8 N23 2.168206 1_555
Li8 N19 2.204268 1_555
Li9 N24 2.101923 1_545
Li9 N1 2.133312 1_555
Li9 N22 2.168206 1_545
Li9 N17 2.204268 1_554
Li10 N26 2.101923 1_555
Li10 N2 2.133312 1_555
Li10 N21 2.168206 1_555
Li10 N16 2.204268 1_456
Li11 N25 2.101923 1_565
Li11 N3 2.133312 1_555
Li11 N20 2.168206 1_565
Li11 N18 2.204268 1_655
Li12 N31 2.101923 1_555
Li12 N2 2.133312 1_555
Li12 N27 2.168206 1_555
Li12 N11 2.204268 1_555
Li13 N28 2.101923 1_554
Li13 N0 2.133312 1_555
Li13 N26 2.168206 1_554
Li13 N9 2.204268 1_455
Li14 N30 2.101923 1_555
Li14 N1 2.133312 1_555
Li14 N25 2.168206 1_555
Li14 N8 2.204268 1_645
Li15 N29 2.101923 1_556
Li15 N3 2.133312 1_555
Li15 N24 2.168206 1_556
Li15 N10 2.204268 1_565
Li16 N23 2.101923 1_555
Li16 N1 2.133312 1_555
Li16 N31 2.168206 1_555
Li16 N15 2.204268 1_555
Li17 N20 2.101923 1_455
Li17 N2 2.133312 1_555
Li17 N30 2.168206 1_455
Li17 N13 2.204268 1_545
Li18 N22 2.101923 1_555
Li18 N0 2.133312 1_555
Li18 N29 2.168206 1_555
Li18 N12 2.204268 1_564
Li19 N21 2.101923 1_655
Li19 N3 2.133312 1_555
Li19 N28 2.168206 1_655
Li19 N14 2.204268 1_556
Li20 N15 2.101923 1_555
Li20 N4 2.133312 1_555
Li20 N11 2.168206 1_555
Li20 N31 2.204268 1_555
Li21 N12 2.101923 1_565
Li21 N5 2.133312 1_555
Li21 N10 2.168206 1_565
Li21 N29 2.204268 1_556
Li22 N14 2.101923 1_555
Li22 N6 2.133312 1_555
Li22 N9 2.168206 1_555
Li22 N28 2.204268 1_654
Li23 N13 2.101923 1_545
Li23 N7 2.133312 1_555
Li23 N8 2.168206 1_545
Li23 N30 2.204268 1_455
Li24 N19 2.101923 1_555
Li24 N6 2.133312 1_555
Li24 N15 2.168206 1_555
Li24 N23 2.204268 1_555
Li25 N16 2.101923 1_556
Li25 N4 2.133312 1_555
Li25 N14 2.168206 1_556
Li25 N21 2.204268 1_655
Li26 N18 2.101923 1_555
Li26 N5 2.133312 1_555
Li26 N13 2.168206 1_555
Li26 N20 2.204268 1_465
Li27 N17 2.101923 1_554
Li27 N7 2.133312 1_555
Li27 N12 2.168206 1_554
Li27 N22 2.204268 1_545
Li28 N11 2.101923 1_555
Li28 N5 2.133312 1_555
Li28 N19 2.168206 1_555
Li28 N27 2.204268 1_555
Li29 N8 2.101923 1_655
Li29 N6 2.133312 1_555
Li29 N18 2.168206 1_655
Li29 N25 2.204268 1_565
Li30 N10 2.101923 1_555
Li30 N4 2.133312 1_555
Li30 N17 2.168206 1_555
Li30 N24 2.204268 1_546
Li31 N9 2.101923 1_455
Li31 N7 2.133312 1_555
Li31 N16 2.168206 1_455
Li31 N26 2.204268 1_554
Li32 N19 2.088163 1_555
Li32 N22 2.147370 1_555
Li32 N13 2.218499 1_555
Li32 N0 2.229183 1_555
Li33 N17 2.088163 1_554
Li33 N23 2.147370 1_555
Li33 N14 2.218499 1_555
Li33 N1 2.229183 1_555
Li34 N16 2.088163 1_456
Li34 N20 2.147370 1_455
Li34 N12 2.218499 1_555
Li34 N2 2.229183 1_555
Li35 N18 2.088163 1_655
Li35 N21 2.147370 1_655
Li35 N15 2.218499 1_555
Li35 N3 2.229183 1_555
Li36 N11 2.088163 1_555
Li36 N26 2.147370 1_555
Li36 N17 2.218499 1_555
Li36 N2 2.229183 1_555
Li37 N9 2.088163 1_455
Li37 N27 2.147370 1_555
Li37 N18 2.218499 1_555
Li37 N0 2.229183 1_555
Li38 N8 2.088163 1_645
Li38 N24 2.147370 1_545
Li38 N16 2.218499 1_555
Li38 N1 2.229183 1_555
Li39 N10 2.088163 1_565
Li39 N25 2.147370 1_565
Li39 N19 2.218499 1_555
Li39 N3 2.229183 1_555
Li40 N15 2.088163 1_555
Li40 N30 2.147370 1_555
Li40 N9 2.218499 1_555
Li40 N1 2.229183 1_555
Li41 N13 2.088163 1_545
Li41 N31 2.147370 1_555
Li41 N10 2.218499 1_555
Li41 N2 2.229183 1_555
Li42 N12 2.088163 1_564
Li42 N28 2.147370 1_554
Li42 N8 2.218499 1_555
Li42 N0 2.229183 1_555
Li43 N14 2.088163 1_556
Li43 N29 2.147370 1_556
Li43 N11 2.218499 1_555
Li43 N3 2.229183 1_555
Li44 N31 2.088163 1_555
Li44 N10 2.147370 1_555
Li44 N25 2.218499 1_555
Li44 N4 2.229183 1_555
Li45 N29 2.088163 1_556
Li45 N11 2.147370 1_555
Li45 N26 2.218499 1_555
Li45 N5 2.229183 1_555
Li46 N28 2.088163 1_654
Li46 N8 2.147370 1_655
Li46 N24 2.218499 1_555
Li46 N6 2.229183 1_555
Li47 N30 2.088163 1_455
Li47 N9 2.147370 1_455
Li47 N27 2.218499 1_555
Li47 N7 2.229183 1_555
Li48 N23 2.088163 1_555
Li48 N14 2.147370 1_555
Li48 N29 2.218499 1_555
Li48 N6 2.229183 1_555
Li49 N21 2.088163 1_655
Li49 N15 2.147370 1_555
Li49 N30 2.218499 1_555
Li49 N4 2.229183 1_555
Li50 N20 2.088163 1_465
Li50 N12 2.147370 1_565
Li50 N28 2.218499 1_555
Li50 N5 2.229183 1_555
Li51 N22 2.088163 1_545
Li51 N13 2.147370 1_545
Li51 N31 2.218499 1_555
Li51 N7 2.229183 1_555
Li52 N27 2.088163 1_555
Li52 N18 2.147370 1_555
Li52 N21 2.218499 1_555
Li52 N5 2.229183 1_555
Li53 N25 2.088163 1_565
Li53 N19 2.147370 1_555
Li53 N22 2.218499 1_555
Li53 N6 2.229183 1_555
Li54 N24 2.088163 1_546
Li54 N16 2.147370 1_556
Li54 N20 2.218499 1_555
Li54 N4 2.229183 1_555
Li55 N26 2.088163 1_554
Li55 N17 2.147370 1_554
Li55 N23 2.218499 1_555
Li55 N7 2.229183 1_555
Mo0 N0 1.925811 1_555
Mo0 N13 1.954344 1_555
Mo0 N8 1.954344 1_555
Mo0 N18 1.954344 1_555
Mo1 N1 1.925811 1_555
Mo1 N9 1.954344 1_555
Mo1 N16 1.954344 1_555
Mo1 N14 1.954344 1_555
Mo2 N2 1.925811 1_555
Mo2 N17 1.954344 1_555
Mo2 N12 1.954344 1_555
Mo2 N10 1.954344 1_555
Mo3 N3 1.925811 1_555
Mo3 N19 1.954344 1_555
Mo3 N15 1.954344 1_555
Mo3 N11 1.954344 1_555
Mo4 N4 1.925811 1_555
Mo4 N30 1.954344 1_555
Mo4 N20 1.954344 1_555
Mo4 N25 1.954344 1_555
Mo5 N5 1.925811 1_555
Mo5 N26 1.954344 1_555
Mo5 N21 1.954344 1_555
Mo5 N28 1.954344 1_555
Mo6 N6 1.925811 1_555
Mo6 N22 1.954344 1_555
Mo6 N24 1.954344 1_555
Mo6 N29 1.954344 1_555
Mo7 N7 1.925811 1_555
Mo7 N27 1.954344 1_555
Mo7 N23 1.954344 1_555
Mo7 N31 1.954344 1_555
