# generated using pymatgen
data_LiNd6B3O13F2
_symmetry_space_group_name_H-M   'P 1'
_cell_length_a   7.02314340
_cell_length_b   7.02314340
_cell_length_c   16.19129550
_cell_angle_alpha   77.35449286
_cell_angle_beta   77.35449286
_cell_angle_gamma   59.84316462
_symmetry_Int_Tables_number   1
_chemical_formula_structural   LiNd6B3O13F2
_chemical_formula_sum   'Li2 Nd12 B6 O26 F4'
_cell_volume   668.14574271
_cell_formula_units_Z   2
loop_
 _symmetry_equiv_pos_site_id
 _symmetry_equiv_pos_as_xyz
  1  'x, y, z'
loop_
 _atom_site_type_symbol
 _atom_site_label
 _atom_site_symmetry_multiplicity
 _atom_site_fract_x
 _atom_site_fract_y
 _atom_site_fract_z
 _atom_site_occupancy
  Li  Li0  1  0.08094900  0.91905100  0.75000000  1
  Li  Li1  1  0.91905100  0.08094900  0.25000000  1
  Nd  Nd0  1  0.69457700  0.86675500  0.90427800  1
  Nd  Nd1  1  0.13324500  0.30542300  0.59572200  1
  Nd  Nd2  1  0.30542300  0.13324500  0.09572200  1
  Nd  Nd3  1  0.86675500  0.69457700  0.40427800  1
  Nd  Nd4  1  0.03589800  0.23106600  0.88889400  1
  Nd  Nd5  1  0.76893400  0.96410200  0.61110600  1
  Nd  Nd6  1  0.96410200  0.76893400  0.11110600  1
  Nd  Nd7  1  0.23106600  0.03589800  0.38889400  1
  Nd  Nd8  1  0.38098100  0.52111600  0.90057600  1
  Nd  Nd9  1  0.47888400  0.61901900  0.59942400  1
  Nd  Nd10  1  0.61901900  0.47888400  0.09942400  1
  Nd  Nd11  1  0.52111600  0.38098100  0.40057600  1
  B  B0  1  0.08503000  0.55385900  0.74913400  1
  B  B1  1  0.44614100  0.91497000  0.75086600  1
  B  B2  1  0.91497000  0.44614100  0.25086600  1
  B  B3  1  0.55385900  0.08503000  0.24913400  1
  B  B4  1  0.71439400  0.28560600  0.75000000  1
  B  B5  1  0.28560600  0.71439400  0.25000000  1
  O  O0  1  0.78918600  0.16204600  0.82742700  1
  O  O1  1  0.83795400  0.21081400  0.67257300  1
  O  O2  1  0.21081400  0.83795400  0.17257300  1
  O  O3  1  0.16204600  0.78918600  0.32742700  1
  O  O4  1  0.30640500  0.89389500  0.82315000  1
  O  O5  1  0.10610500  0.69359500  0.67685000  1
  O  O6  1  0.69359500  0.10610500  0.17685000  1
  O  O7  1  0.89389500  0.30640500  0.32315000  1
  O  O8  1  0.08725300  0.36174400  0.74238500  1
  O  O9  1  0.63825600  0.91274700  0.75761500  1
  O  O10  1  0.91274700  0.63825600  0.25761500  1
  O  O11  1  0.36174400  0.08725300  0.24238500  1
  O  O12  1  0.51931500  0.48068500  0.75000000  1
  O  O13  1  0.48068500  0.51931500  0.25000000  1
  O  O14  1  0.05740500  0.60634100  0.83128600  1
  O  O15  1  0.39365900  0.94259500  0.66871400  1
  O  O16  1  0.94259500  0.39365900  0.16871400  1
  O  O17  1  0.60634100  0.05740500  0.33128600  1
  O  O18  1  0.35304200  0.18479000  0.93991000  1
  O  O19  1  0.81521000  0.64695800  0.56009000  1
  O  O20  1  0.64695800  0.81521000  0.06009000  1
  O  O21  1  0.18479000  0.35304200  0.43991000  1
  O  O22  1  0.52273400  0.68532500  0.44118700  1
  O  O23  1  0.31467500  0.47726600  0.05881300  1
  O  O24  1  0.47726600  0.31467500  0.55881300  1
  O  O25  1  0.68532500  0.52273400  0.94118700  1
  F  F0  1  0.98435800  0.15017000  0.04521900  1
  F  F1  1  0.84983000  0.01564200  0.45478100  1
  F  F2  1  0.01564200  0.84983000  0.95478100  1
  F  F3  1  0.15017000  0.98435800  0.54521900  1
loop_
_geom_bond_atom_site_label_1
_geom_bond_atom_site_label_2
_geom_bond_distance
_geom_bond_site_symmetry_2
Li0 O4 2.095139 1_555
Li0 O5 2.095139 1_555
Li0 O0 2.231889 1_465
Li0 O1 2.231889 1_465
Li0 O14 2.363658 1_555
Li0 O15 2.363658 1_555
Li1 O7 2.095139 1_555
Li1 O6 2.095139 1_555
Li1 O3 2.231889 1_645
Li1 O2 2.231889 1_645
Li1 O17 2.363658 1_555
Li1 O16 2.363658 1_555
Nd0 O18 2.377110 1_565
Nd0 O25 2.389035 1_555
Nd0 O9 2.418031 1_555
Nd0 O20 2.441265 1_556
Nd0 O14 2.486015 1_655
Nd0 O0 2.486649 1_565
Nd1 O19 2.377110 1_455
Nd1 O24 2.389035 1_555
Nd1 O8 2.418031 1_555
Nd1 O21 2.441265 1_555
Nd1 O15 2.486015 1_545
Nd1 O1 2.486649 1_455
Nd2 O20 2.377110 1_545
Nd2 O23 2.389035 1_555
Nd2 O11 2.418031 1_555
Nd2 O18 2.441265 1_554
Nd2 O16 2.486015 1_455
Nd2 O2 2.486649 1_545
Nd3 O21 2.377110 1_655
Nd3 O22 2.389035 1_555
Nd3 O10 2.418031 1_555
Nd3 O19 2.441265 1_555
Nd3 O17 2.486015 1_565
Nd3 O3 2.486649 1_655
Nd4 O8 2.367349 1_555
Nd4 O18 2.389494 1_555
Nd4 O25 2.398803 1_455
Nd4 O0 2.457194 1_455
Nd4 O4 2.459262 1_545
Nd4 O14 2.664810 1_555
Nd5 O9 2.367349 1_555
Nd5 O19 2.389494 1_555
Nd5 O24 2.398803 1_565
Nd5 O1 2.457194 1_565
Nd5 O5 2.459262 1_655
Nd5 O15 2.664810 1_555
Nd6 O10 2.367349 1_555
Nd6 O20 2.389494 1_555
Nd6 O23 2.398803 1_655
Nd6 O2 2.457194 1_655
Nd6 O6 2.459262 1_565
Nd6 O16 2.664810 1_555
Nd7 O11 2.367349 1_555
Nd7 O21 2.389494 1_555
Nd7 O22 2.398803 1_545
Nd7 O3 2.457194 1_545
Nd7 O7 2.459262 1_455
Nd7 O17 2.664810 1_555
Nd8 O25 2.375760 1_555
Nd8 O18 2.403284 1_555
Nd8 O12 2.440761 1_555
Nd8 O23 2.480344 1_556
Nd8 O4 2.484547 1_555
Nd8 O14 2.497372 1_555
Nd8 O0 2.922043 1_555
Nd9 O24 2.375760 1_555
Nd9 O19 2.403284 1_555
Nd9 O12 2.440761 1_555
Nd9 O22 2.480344 1_555
Nd9 O5 2.484547 1_555
Nd9 O15 2.497372 1_555
Nd9 O1 2.922043 1_555
Nd10 O23 2.375760 1_555
Nd10 O20 2.403284 1_555
Nd10 O13 2.440761 1_555
Nd10 O25 2.480344 1_554
Nd10 O6 2.484547 1_555
Nd10 O16 2.497372 1_555
Nd10 O2 2.922043 1_555
Nd11 O22 2.375760 1_555
Nd11 O21 2.403284 1_555
Nd11 O13 2.440761 1_555
Nd11 O24 2.480344 1_555
Nd11 O7 2.484547 1_555
Nd11 O17 2.497372 1_555
Nd11 O3 2.922043 1_555
B0 O8 1.369418 1_555
B0 O5 1.386363 1_555
B0 O14 1.404497 1_555
B1 O9 1.369418 1_555
B1 O4 1.386363 1_555
B1 O15 1.404497 1_555
B2 O10 1.369418 1_555
B2 O7 1.386363 1_555
B2 O16 1.404497 1_555
B3 O11 1.369418 1_555
B3 O6 1.386363 1_555
B3 O17 1.404497 1_555
B4 O12 1.366819 1_555
B4 O0 1.398069 1_555
B4 O1 1.398069 1_555
B5 O13 1.366819 1_555
B5 O3 1.398069 1_555
B5 O2 1.398069 1_555
F0 Nd4 2.456860 1_654
F0 Nd2 2.502545 1_655
F0 Nd10 2.575464 1_555
F0 Nd6 2.718974 1_545
F1 Nd5 2.456860 1_545
F1 Nd3 2.502545 1_545
F1 Nd11 2.575464 1_555
F1 Nd7 2.718974 1_655
F2 Nd6 2.456860 1_456
F2 Nd0 2.502545 1_455
F2 Nd8 2.575464 1_555
F2 Nd4 2.718974 1_565
F3 Nd7 2.456860 1_565
F3 Nd1 2.502545 1_565
F3 Nd9 2.575464 1_555
F3 Nd5 2.718974 1_455
