# generated using pymatgen
data_NdThUS5
_symmetry_space_group_name_H-M   'P 1'
_cell_length_a   7.47918900
_cell_length_b   8.03242500
_cell_length_c   12.05289800
_cell_angle_alpha   90.00000000
_cell_angle_beta   90.00000000
_cell_angle_gamma   90.00000000
_symmetry_Int_Tables_number   1
_chemical_formula_structural   NdThUS5
_chemical_formula_sum   'Nd4 Th4 U4 S20'
_cell_volume   724.09019799
_cell_formula_units_Z   4
loop_
 _symmetry_equiv_pos_site_id
 _symmetry_equiv_pos_as_xyz
  1  'x, y, z'
loop_
 _atom_site_type_symbol
 _atom_site_label
 _atom_site_symmetry_multiplicity
 _atom_site_fract_x
 _atom_site_fract_y
 _atom_site_fract_z
 _atom_site_occupancy
  Nd  Nd0  1  0.97774600  0.75196900  0.93107400  1
  Nd  Nd1  1  0.52225400  0.24803100  0.43107400  1
  Nd  Nd2  1  0.02225400  0.25196900  0.56892600  1
  Nd  Nd3  1  0.47774600  0.74803100  0.06892600  1
  Th  Th0  1  0.02356800  0.75112000  0.57450500  1
  Th  Th1  1  0.47643200  0.24888000  0.07450500  1
  Th  Th2  1  0.97643200  0.25112000  0.92549500  1
  Th  Th3  1  0.52356800  0.74888000  0.42549500  1
  U  U0  1  0.43038400  0.49806900  0.75530000  1
  U  U1  1  0.06961600  0.50193100  0.25530000  1
  U  U2  1  0.56961600  0.99806900  0.74470000  1
  U  U3  1  0.93038400  0.00193100  0.24470000  1
  S  S0  1  0.66360100  0.28815200  0.65262400  1
  S  S1  1  0.83639900  0.71184800  0.15262400  1
  S  S2  1  0.33639900  0.78815200  0.84737600  1
  S  S3  1  0.16360100  0.21184800  0.34737600  1
  S  S4  1  0.33616000  0.20898600  0.85177000  1
  S  S5  1  0.16384000  0.79101400  0.35177000  1
  S  S6  1  0.66384000  0.70898600  0.64823000  1
  S  S7  1  0.83616000  0.29101400  0.14823000  1
  S  S8  1  0.30251400  0.50623200  0.53509900  1
  S  S9  1  0.19748600  0.49376800  0.03509900  1
  S  S10  1  0.69748600  0.00623200  0.96490100  1
  S  S11  1  0.80251400  0.99376800  0.46490100  1
  S  S12  1  0.67097600  0.49167400  0.93654000  1
  S  S13  1  0.82902400  0.50832600  0.43654000  1
  S  S14  1  0.32902400  0.99167400  0.56346000  1
  S  S15  1  0.17097600  0.00832600  0.06346000  1
  S  S16  1  0.04088500  0.50065700  0.75036400  1
  S  S17  1  0.45911500  0.49934300  0.25036400  1
  S  S18  1  0.95911500  0.00065700  0.74963600  1
  S  S19  1  0.54088500  0.99934300  0.24963600  1
loop_
_geom_bond_atom_site_label_1
_geom_bond_atom_site_label_2
_geom_bond_distance
_geom_bond_site_symmetry_2
Nd0 S2 2.880556 1_655
Nd0 S1 2.889992 1_556
Nd0 S9 2.928213 1_656
Nd0 S10 2.954848 1_565
Nd0 S18 2.965135 1_565
Nd0 S15 2.979067 1_666
Nd0 S16 3.006984 1_655
Nd0 S12 3.104837 1_555
Nd1 S3 2.880556 1_555
Nd1 S0 2.889992 1_555
Nd1 S8 2.928213 1_555
Nd1 S11 2.954848 1_545
Nd1 S19 2.965135 1_545
Nd1 S14 2.979067 1_545
Nd1 S17 3.006984 1_555
Nd1 S13 3.104837 1_555
Nd2 S0 2.880556 1_455
Nd2 S3 2.889992 1_555
Nd2 S11 2.928213 1_445
Nd2 S8 2.954848 1_555
Nd2 S16 2.965135 1_555
Nd2 S13 2.979067 1_455
Nd2 S18 3.006984 1_455
Nd2 S14 3.104837 1_545
Nd3 S1 2.880556 1_555
Nd3 S2 2.889992 1_554
Nd3 S10 2.928213 1_564
Nd3 S9 2.954848 1_555
Nd3 S17 2.965135 1_555
Nd3 S12 2.979067 1_554
Nd3 S19 3.006984 1_555
Nd3 S15 3.104837 1_565
S0 U2 2.674875 1_545
S0 U0 2.723432 1_555
S1 U3 2.674875 1_565
S1 U1 2.723432 1_655
S2 U0 2.674875 1_555
S2 U2 2.723432 1_555
S3 U1 2.674875 1_555
S3 U3 2.723432 1_455
S4 U0 2.690810 1_555
S4 U2 2.753972 1_545
S4 Th2 2.853559 1_455
S4 Th1 2.900074 1_556
S5 U1 2.690810 1_555
S5 U3 2.753972 1_465
S5 Th3 2.853559 1_555
S5 Th0 2.900074 1_555
S6 U2 2.690810 1_555
S6 U0 2.753972 1_555
S6 Th0 2.853559 1_655
S6 Th3 2.900074 1_555
S7 U3 2.690810 1_555
S7 U1 2.753972 1_655
S7 Th1 2.853559 1_555
S7 Th2 2.900074 1_554
S8 U0 2.821873 1_555
S8 Th3 2.877044 1_555
S8 Th0 2.906450 1_555
S9 U1 2.821873 1_555
S9 Th2 2.877044 1_454
S9 Th1 2.906450 1_555
S10 U2 2.821873 1_545
S10 Th1 2.877044 1_556
S10 Th2 2.906450 1_555
S11 U3 2.821873 1_565
S11 Th0 2.877044 1_655
S11 Th3 2.906450 1_555
S12 U0 2.830635 1_555
S12 Th1 2.947144 1_556
S12 Th2 2.995074 1_555
S13 U1 2.830635 1_655
S13 Th0 2.947144 1_655
S13 Th3 2.995074 1_555
S14 U2 2.830635 1_555
S14 Th3 2.947144 1_555
S14 Th0 2.995074 1_555
S15 U3 2.830635 1_455
S15 Th2 2.947144 1_454
S15 Th1 2.995074 1_555
S16 U0 2.913818 1_555
S16 Th0 2.925229 1_555
S16 Th2 2.950521 1_455
S17 U1 2.913818 1_555
S17 Th1 2.925229 1_555
S17 Th3 2.950521 1_555
S18 U2 2.913818 1_545
S18 Th2 2.925229 1_555
S18 Th0 2.950521 1_645
S19 U3 2.913818 1_565
S19 Th3 2.925229 1_555
S19 Th1 2.950521 1_565
