# generated using pymatgen
data_CuNi
_symmetry_space_group_name_H-M   'P 1'
_cell_length_a   8.63111334
_cell_length_b   8.63111334
_cell_length_c   8.63111295
_cell_angle_alpha   33.36854288
_cell_angle_beta   33.36854288
_cell_angle_gamma   33.36853586
_symmetry_Int_Tables_number   1
_chemical_formula_structural   CuNi
_chemical_formula_sum   'Cu8 Ni8'
_cell_volume   173.20859648
_cell_formula_units_Z   8
loop_
 _symmetry_equiv_pos_site_id
 _symmetry_equiv_pos_as_xyz
  1  'x, y, z'
loop_
 _atom_site_type_symbol
 _atom_site_label
 _atom_site_symmetry_multiplicity
 _atom_site_fract_x
 _atom_site_fract_y
 _atom_site_fract_z
 _atom_site_occupancy
  Cu  Cu0_0  1  0.00000000  0.00000000  0.00000000  1
  Cu  Cu0_1  1  0.00000000  0.00000000  0.50000000  1
  Cu  Cu0_2  1  0.00000000  0.50000000  0.00000000  1
  Cu  Cu0_3  1  0.00000000  0.50000000  0.50000000  1
  Cu  Cu0_4  1  0.50000000  0.00000000  0.00000000  1
  Cu  Cu0_5  1  0.50000000  0.00000000  0.50000000  1
  Cu  Cu0_6  1  0.50000000  0.50000000  0.00000000  1
  Cu  Cu0_7  1  0.50000000  0.50000000  0.50000000  1
  Ni  Ni0_0  1  0.25000000  0.25000000  0.25000000  1
  Ni  Ni0_1  1  0.25000000  0.25000000  0.75000000  1
  Ni  Ni0_2  1  0.25000000  0.75000000  0.25000000  1
  Ni  Ni0_3  1  0.25000000  0.75000000  0.75000000  1
  Ni  Ni0_4  1  0.75000000  0.25000000  0.25000000  1
  Ni  Ni0_5  1  0.75000000  0.25000000  0.75000000  1
  Ni  Ni0_6  1  0.75000000  0.75000000  0.25000000  1
  Ni  Ni0_7  1  0.75000000  0.75000000  0.75000000  1
loop_
_geom_bond_atom_site_label_1
_geom_bond_atom_site_label_2
_geom_bond_distance
_geom_bond_site_symmetry_2
Cu0_0 Cu0_6 2.477971 1_455
Cu0_0 Cu0_6 2.477971 1_545
Cu0_0 Cu0_5 2.477972 1_455
Cu0_0 Cu0_3 2.477972 1_545
Cu0_0 Cu0_5 2.477972 1_554
Cu0_0 Cu0_3 2.477972 1_554
Cu0_0 Ni0_2 2.488191 1_545
Cu0_0 Ni0_4 2.488191 1_455
Cu0_0 Ni0_3 2.488191 1_544
Cu0_0 Ni0_5 2.488191 1_454
Cu0_0 Ni0_6 2.488191 1_445
Cu0_0 Ni0_1 2.488191 1_554
Cu0_1 Cu0_7 2.477971 1_545
Cu0_1 Cu0_7 2.477971 1_455
Cu0_1 Cu0_4 2.477972 1_555
Cu0_1 Cu0_4 2.477972 1_456
Cu0_1 Cu0_2 2.477972 1_555
Cu0_1 Cu0_2 2.477972 1_546
Cu0_1 Ni0_5 2.488191 1_455
Cu0_1 Ni0_3 2.488191 1_545
Cu0_1 Ni0_4 2.488191 1_455
Cu0_1 Ni0_2 2.488191 1_545
Cu0_1 Ni0_7 2.488191 1_445
Cu0_1 Ni0_0 2.488191 1_555
Cu0_2 Cu0_4 2.477971 1_555
Cu0_2 Cu0_4 2.477971 1_465
Cu0_2 Cu0_7 2.477972 1_455
Cu0_2 Cu0_7 2.477972 1_554
Cu0_2 Ni0_7 2.488191 1_454
Cu0_2 Ni0_0 2.488191 1_555
Cu0_2 Ni0_1 2.488191 1_554
Cu0_2 Ni0_6 2.488191 1_455
Cu0_2 Ni0_4 2.488191 1_455
Cu0_2 Ni0_3 2.488191 1_554
Cu0_3 Cu0_5 2.477971 1_555
Cu0_3 Cu0_5 2.477971 1_465
Cu0_3 Cu0_6 2.477972 1_555
Cu0_3 Cu0_6 2.477972 1_456
Cu0_3 Ni0_6 2.488191 1_455
Cu0_3 Ni0_0 2.488191 1_555
Cu0_3 Ni0_1 2.488191 1_555
Cu0_3 Ni0_7 2.488191 1_455
Cu0_3 Ni0_2 2.488191 1_555
Cu0_3 Ni0_5 2.488191 1_455
Cu0_4 Cu0_7 2.477972 1_545
Cu0_4 Cu0_7 2.477972 1_554
Cu0_4 Ni0_7 2.488191 1_544
Cu0_4 Ni0_1 2.488191 1_554
Cu0_4 Ni0_0 2.488191 1_555
Cu0_4 Ni0_6 2.488191 1_545
Cu0_4 Ni0_5 2.488191 1_554
Cu0_4 Ni0_2 2.488191 1_545
Cu0_5 Cu0_6 2.477972 1_546
Cu0_5 Cu0_6 2.477972 1_555
Cu0_5 Ni0_6 2.488191 1_545
Cu0_5 Ni0_0 2.488191 1_555
Cu0_5 Ni0_1 2.488191 1_555
Cu0_5 Ni0_7 2.488191 1_545
Cu0_5 Ni0_4 2.488191 1_555
Cu0_5 Ni0_3 2.488191 1_545
Cu0_6 Ni0_4 2.488191 1_555
Cu0_6 Ni0_2 2.488191 1_555
Cu0_6 Ni0_3 2.488191 1_554
Cu0_6 Ni0_5 2.488191 1_554
Cu0_6 Ni0_0 2.488191 1_555
Cu0_6 Ni0_7 2.488191 1_554
Cu0_7 Ni0_5 2.488191 1_555
Cu0_7 Ni0_3 2.488191 1_555
Cu0_7 Ni0_4 2.488191 1_555
Cu0_7 Ni0_2 2.488191 1_555
Cu0_7 Ni0_1 2.488191 1_555
Cu0_7 Ni0_6 2.488191 1_555
Ni0_0 Ni0_6 2.477971 1_545
Ni0_0 Ni0_6 2.477971 1_455
Ni0_0 Ni0_5 2.477972 1_455
Ni0_0 Ni0_3 2.477972 1_554
Ni0_0 Ni0_3 2.477972 1_545
Ni0_0 Ni0_5 2.477972 1_554
Ni0_1 Ni0_7 2.477971 1_455
Ni0_1 Ni0_7 2.477971 1_545
Ni0_1 Ni0_2 2.477972 1_546
Ni0_1 Ni0_4 2.477972 1_555
Ni0_1 Ni0_4 2.477972 1_456
Ni0_1 Ni0_2 2.477972 1_555
Ni0_2 Ni0_4 2.477971 1_465
Ni0_2 Ni0_4 2.477971 1_555
Ni0_2 Ni0_7 2.477972 1_455
Ni0_2 Ni0_7 2.477972 1_554
Ni0_3 Ni0_5 2.477971 1_555
Ni0_3 Ni0_5 2.477971 1_465
Ni0_3 Ni0_6 2.477972 1_456
Ni0_3 Ni0_6 2.477972 1_555
Ni0_4 Ni0_7 2.477972 1_545
Ni0_4 Ni0_7 2.477972 1_554
Ni0_5 Ni0_6 2.477972 1_555
Ni0_5 Ni0_6 2.477972 1_546
