# generated using pymatgen
data_Mg6GaB
_symmetry_space_group_name_H-M   'P 1'
_cell_length_a   6.06393274
_cell_length_b   6.06393274
_cell_length_c   4.63003800
_cell_angle_alpha   90.00000000
_cell_angle_beta   90.00000000
_cell_angle_gamma   114.73841123
_symmetry_Int_Tables_number   1
_chemical_formula_structural   Mg6GaB
_chemical_formula_sum   'Mg6 Ga1 B1'
_cell_volume   154.62799099
_cell_formula_units_Z   1
loop_
 _symmetry_equiv_pos_site_id
 _symmetry_equiv_pos_as_xyz
  1  'x, y, z'
loop_
 _atom_site_type_symbol
 _atom_site_label
 _atom_site_symmetry_multiplicity
 _atom_site_fract_x
 _atom_site_fract_y
 _atom_site_fract_z
 _atom_site_occupancy
  Mg  Mg0  1  0.35768800  0.15182000  0.50000000  1
  Mg  Mg1  1  0.84818000  0.64231200  0.50000000  1
  Mg  Mg2  1  0.13373500  0.32390900  0.00000000  1
  Mg  Mg3  1  0.67609100  0.86626500  0.00000000  1
  Mg  Mg4  1  0.66597000  0.33403000  0.00000000  1
  Mg  Mg5  1  0.17068500  0.82931500  0.00000000  1
  Ga  Ga0  1  0.34635000  0.65365000  0.50000000  1
  B  B0  1  0.80131000  0.19869000  0.50000000  1
loop_
_geom_bond_atom_site_label_1
_geom_bond_atom_site_label_2
_geom_bond_distance
_geom_bond_site_symmetry_2
Mg0 Mg2 3.078739 1_555
Mg0 Mg2 3.078739 1_556
Mg1 Mg3 3.078739 1_556
Mg1 Mg3 3.078739 1_555
Mg2 Mg4 2.862721 1_455
Mg2 Mg5 2.977945 1_555
Mg2 Mg3 2.992822 1_445
Mg2 Mg5 3.099637 1_545
Mg2 Mg4 3.202239 1_555
Mg3 Mg4 2.862721 1_565
Mg3 Mg5 2.977945 1_555
Mg3 Mg5 3.099637 1_655
Mg3 Mg4 3.202239 1_555
Ga0 Mg5 2.928889 1_556
Ga0 Mg5 2.928889 1_555
Ga0 Mg2 2.976919 1_556
Ga0 Mg3 2.976919 1_555
Ga0 Mg2 2.976919 1_555
Ga0 Mg3 2.976919 1_556
Ga0 Mg1 2.992749 1_455
Ga0 Mg0 2.992749 1_565
Ga0 Mg1 3.072469 1_555
Ga0 Mg0 3.072469 1_555
B0 Mg1 2.584081 1_555
B0 Mg0 2.584081 1_555
B0 Mg4 2.696313 1_555
B0 Mg4 2.696313 1_556
B0 Mg3 2.952672 1_546
B0 Mg2 2.952672 1_656
B0 Mg2 2.952672 1_655
B0 Mg3 2.952672 1_545
