# generated using pymatgen
data_Y2Mg
_symmetry_space_group_name_H-M   'P 1'
_cell_length_a   18.59217137
_cell_length_b   18.59217137
_cell_length_c   11.21567400
_cell_angle_alpha   90.00000000
_cell_angle_beta   90.00000000
_cell_angle_gamma   158.22039181
_symmetry_Int_Tables_number   1
_chemical_formula_structural   Y2Mg
_chemical_formula_sum   'Y32 Mg16'
_cell_volume   1438.47807285
_cell_formula_units_Z   16
loop_
 _symmetry_equiv_pos_site_id
 _symmetry_equiv_pos_as_xyz
  1  'x, y, z'
loop_
 _atom_site_type_symbol
 _atom_site_label
 _atom_site_symmetry_multiplicity
 _atom_site_fract_x
 _atom_site_fract_y
 _atom_site_fract_z
 _atom_site_occupancy
  Y  Y0_0  1  0.00166300  0.49833700  0.25000000  1
  Y  Y0_1  1  0.00166300  0.49833700  0.75000000  1
  Y  Y0_2  1  0.00166300  0.99833700  0.25000000  1
  Y  Y0_3  1  0.00166300  0.99833700  0.75000000  1
  Y  Y0_4  1  0.50166300  0.49833700  0.25000000  1
  Y  Y0_5  1  0.50166300  0.49833700  0.75000000  1
  Y  Y0_6  1  0.50166300  0.99833700  0.25000000  1
  Y  Y0_7  1  0.50166300  0.99833700  0.75000000  1
  Y  Y1_0  1  0.16543000  0.33457000  0.25000000  1
  Y  Y1_1  1  0.16543000  0.33457000  0.75000000  1
  Y  Y1_2  1  0.16543000  0.83457000  0.25000000  1
  Y  Y1_3  1  0.16543000  0.83457000  0.75000000  1
  Y  Y1_4  1  0.66543000  0.33457000  0.25000000  1
  Y  Y1_5  1  0.66543000  0.33457000  0.75000000  1
  Y  Y1_6  1  0.66543000  0.83457000  0.25000000  1
  Y  Y1_7  1  0.66543000  0.83457000  0.75000000  1
  Y  Y2_0  1  0.33223100  0.16776900  0.25000000  1
  Y  Y2_1  1  0.33223100  0.16776900  0.75000000  1
  Y  Y2_2  1  0.33223100  0.66776900  0.25000000  1
  Y  Y2_3  1  0.33223100  0.66776900  0.75000000  1
  Y  Y2_4  1  0.83223100  0.16776900  0.25000000  1
  Y  Y2_5  1  0.83223100  0.16776900  0.75000000  1
  Y  Y2_6  1  0.83223100  0.66776900  0.25000000  1
  Y  Y2_7  1  0.83223100  0.66776900  0.75000000  1
  Y  Y3_0  1  0.22376700  0.27623300  0.00000000  1
  Y  Y3_1  1  0.22376700  0.27623300  0.50000000  1
  Y  Y3_2  1  0.22376700  0.77623300  0.00000000  1
  Y  Y3_3  1  0.22376700  0.77623300  0.50000000  1
  Y  Y3_4  1  0.72376700  0.27623300  0.00000000  1
  Y  Y3_5  1  0.72376700  0.27623300  0.50000000  1
  Y  Y3_6  1  0.72376700  0.77623300  0.00000000  1
  Y  Y3_7  1  0.72376700  0.77623300  0.50000000  1
  Mg  Mg0_0  1  0.05557550  0.44442450  0.00000000  1
  Mg  Mg0_1  1  0.05557550  0.44442450  0.50000000  1
  Mg  Mg0_2  1  0.05557550  0.94442450  0.00000000  1
  Mg  Mg0_3  1  0.05557550  0.94442450  0.50000000  1
  Mg  Mg0_4  1  0.55557550  0.44442450  0.00000000  1
  Mg  Mg0_5  1  0.55557550  0.44442450  0.50000000  1
  Mg  Mg0_6  1  0.55557550  0.94442450  0.00000000  1
  Mg  Mg0_7  1  0.55557550  0.94442450  0.50000000  1
  Mg  Mg1_0  1  0.38799950  0.11200050  0.00000000  1
  Mg  Mg1_1  1  0.38799950  0.11200050  0.50000000  1
  Mg  Mg1_2  1  0.38799950  0.61200050  0.00000000  1
  Mg  Mg1_3  1  0.38799950  0.61200050  0.50000000  1
  Mg  Mg1_4  1  0.88799950  0.11200050  0.00000000  1
  Mg  Mg1_5  1  0.88799950  0.11200050  0.50000000  1
  Mg  Mg1_6  1  0.88799950  0.61200050  0.00000000  1
  Mg  Mg1_7  1  0.88799950  0.61200050  0.50000000  1
loop_
_geom_bond_atom_site_label_1
_geom_bond_atom_site_label_2
_geom_bond_distance
_geom_bond_site_symmetry_2
Y0_0 Y2_2 3.426253 1_555
Y0_0 Y2_4 3.426253 1_455
Y0_0 Y3_2 3.461771 1_555
Y0_0 Y3_3 3.461771 1_555
Y0_0 Y3_4 3.461771 1_455
Y0_0 Y3_5 3.461771 1_455
Y0_0 Y0_6 3.512446 1_555
Y0_0 Y0_6 3.512446 1_445
Y0_0 Y1_2 3.605427 1_555
Y0_0 Y1_4 3.605427 1_455
Y0_1 Y2_3 3.426253 1_555
Y0_1 Y2_5 3.426253 1_455
Y0_1 Y3_2 3.461771 1_556
Y0_1 Y3_3 3.461771 1_555
Y0_1 Y3_4 3.461771 1_456
Y0_1 Y3_5 3.461771 1_455
Y0_1 Y0_7 3.512446 1_555
Y0_1 Y0_7 3.512446 1_445
Y0_1 Y1_3 3.605427 1_555
Y0_1 Y1_5 3.605427 1_455
Y0_2 Y2_6 3.426253 1_455
Y0_2 Y2_0 3.426253 1_565
Y0_2 Y3_6 3.461771 1_455
Y0_2 Y3_7 3.461771 1_455
Y0_2 Y3_0 3.461771 1_565
Y0_2 Y3_1 3.461771 1_565
Y0_2 Y0_4 3.512446 1_565
Y0_2 Y0_4 3.512446 1_455
Y0_2 Y1_0 3.605427 1_565
Y0_2 Y1_6 3.605427 1_455
Y0_3 Y2_7 3.426253 1_455
Y0_3 Y2_1 3.426253 1_565
Y0_3 Y3_7 3.461771 1_455
Y0_3 Y3_6 3.461771 1_456
Y0_3 Y3_0 3.461771 1_566
Y0_3 Y3_1 3.461771 1_565
Y0_3 Y0_5 3.512446 1_565
Y0_3 Y0_5 3.512446 1_455
Y0_3 Y1_7 3.605427 1_455
Y0_3 Y1_1 3.605427 1_565
Y0_4 Y2_6 3.426253 1_555
Y0_4 Y2_0 3.426253 1_555
Y0_4 Y3_7 3.461771 1_555
Y0_4 Y3_6 3.461771 1_555
Y0_4 Y3_0 3.461771 1_555
Y0_4 Y3_1 3.461771 1_555
Y0_4 Y1_0 3.605427 1_555
Y0_4 Y1_6 3.605427 1_555
Y0_5 Y2_7 3.426253 1_555
Y0_5 Y2_1 3.426253 1_555
Y0_5 Y3_6 3.461771 1_556
Y0_5 Y3_7 3.461771 1_555
Y0_5 Y3_0 3.461771 1_556
Y0_5 Y3_1 3.461771 1_555
Y0_5 Y1_1 3.605427 1_555
Y0_5 Y1_7 3.605427 1_555
Y0_6 Y2_4 3.426253 1_565
Y0_6 Y2_2 3.426253 1_555
Y0_6 Y3_2 3.461771 1_555
Y0_6 Y3_5 3.461771 1_565
Y0_6 Y3_3 3.461771 1_555
Y0_6 Y3_4 3.461771 1_565
Y0_6 Y1_2 3.605427 1_555
Y0_6 Y1_4 3.605427 1_565
Y0_7 Y2_5 3.426253 1_565
Y0_7 Y2_3 3.426253 1_555
Y0_7 Y3_5 3.461771 1_565
Y0_7 Y3_4 3.461771 1_566
Y0_7 Y3_2 3.461771 1_556
Y0_7 Y3_3 3.461771 1_555
Y0_7 Y1_3 3.605427 1_555
Y0_7 Y1_5 3.605427 1_565
Y1_0 Y2_2 3.509088 1_555
Y1_0 Y2_4 3.509088 1_455
Y1_0 Y1_6 3.512446 1_445
Y1_0 Y1_6 3.512446 1_555
Y1_0 Y3_0 3.521298 1_555
Y1_0 Y3_1 3.521298 1_555
Y1_1 Y2_3 3.509088 1_555
Y1_1 Y2_5 3.509088 1_455
Y1_1 Y1_7 3.512446 1_445
Y1_1 Y1_7 3.512446 1_555
Y1_1 Y3_1 3.521298 1_555
Y1_1 Y3_0 3.521298 1_556
Y1_2 Y2_0 3.509088 1_565
Y1_2 Y2_6 3.509088 1_455
Y1_2 Y1_4 3.512446 1_455
Y1_2 Y1_4 3.512446 1_565
Y1_2 Y3_3 3.521298 1_555
Y1_2 Y3_2 3.521298 1_555
Y1_3 Y2_1 3.509088 1_565
Y1_3 Y2_7 3.509088 1_455
Y1_3 Y1_5 3.512446 1_455
Y1_3 Y1_5 3.512446 1_565
Y1_3 Y3_2 3.521298 1_556
Y1_3 Y3_3 3.521298 1_555
Y1_4 Y2_0 3.509088 1_555
Y1_4 Y2_6 3.509088 1_555
Y1_4 Y3_5 3.521298 1_555
Y1_4 Y3_4 3.521298 1_555
Y1_5 Y2_1 3.509088 1_555
Y1_5 Y2_7 3.509088 1_555
Y1_5 Y3_4 3.521298 1_556
Y1_5 Y3_5 3.521298 1_555
Y1_6 Y2_2 3.509088 1_555
Y1_6 Y2_4 3.509088 1_565
Y1_6 Y3_7 3.521298 1_555
Y1_6 Y3_6 3.521298 1_555
Y1_7 Y2_3 3.509088 1_555
Y1_7 Y2_5 3.509088 1_565
Y1_7 Y3_7 3.521298 1_555
Y1_7 Y3_6 3.521298 1_556
Y2_0 Y2_6 3.512446 1_555
Y2_0 Y2_6 3.512446 1_445
Y2_1 Y2_7 3.512446 1_555
Y2_1 Y2_7 3.512446 1_445
Y2_2 Y2_4 3.512446 1_565
Y2_2 Y2_4 3.512446 1_455
Y2_3 Y2_5 3.512446 1_565
Y2_3 Y2_5 3.512446 1_455
Y3_0 Y3_6 3.512446 1_445
Y3_0 Y3_6 3.512446 1_555
Y3_1 Y3_7 3.512446 1_445
Y3_1 Y3_7 3.512446 1_555
Y3_2 Y3_4 3.512446 1_565
Y3_2 Y3_4 3.512446 1_455
Y3_3 Y3_5 3.512446 1_565
Y3_3 Y3_5 3.512446 1_455
Mg0_0 Y0_0 3.425981 1_555
Mg0_0 Y0_1 3.425981 1_554
Mg0_0 Y2_5 3.448714 1_454
Mg0_0 Y2_4 3.448714 1_455
Mg0_0 Y2_2 3.448714 1_555
Mg0_0 Y2_3 3.448714 1_554
Mg0_0 Y3_2 3.465224 1_555
Mg0_0 Y3_4 3.465224 1_455
Mg0_0 Mg1_4 3.484617 1_455
Mg0_0 Mg1_2 3.484617 1_555
Mg0_0 Mg0_6 3.512446 1_445
Mg0_0 Mg0_6 3.512446 1_555
Mg0_1 Y0_1 3.425981 1_555
Mg0_1 Y0_0 3.425981 1_555
Mg0_1 Y2_5 3.448714 1_455
Mg0_1 Y2_4 3.448714 1_455
Mg0_1 Y2_2 3.448714 1_555
Mg0_1 Y2_3 3.448714 1_555
Mg0_1 Y3_3 3.465224 1_555
Mg0_1 Y3_5 3.465224 1_455
Mg0_1 Mg1_5 3.484617 1_455
Mg0_1 Mg1_3 3.484617 1_555
Mg0_1 Mg0_7 3.512446 1_555
Mg0_1 Mg0_7 3.512446 1_445
Mg0_2 Y0_2 3.425981 1_555
Mg0_2 Y0_3 3.425981 1_554
Mg0_2 Y2_7 3.448714 1_454
Mg0_2 Y2_0 3.448714 1_565
Mg0_2 Y2_6 3.448714 1_455
Mg0_2 Y2_1 3.448714 1_564
Mg0_2 Y3_6 3.465224 1_455
Mg0_2 Y3_0 3.465224 1_565
Mg0_2 Mg1_6 3.484617 1_455
Mg0_2 Mg1_0 3.484617 1_565
Mg0_2 Mg0_4 3.512446 1_565
Mg0_2 Mg0_4 3.512446 1_455
Mg0_3 Y0_3 3.425981 1_555
Mg0_3 Y0_2 3.425981 1_555
Mg0_3 Y2_0 3.448714 1_565
Mg0_3 Y2_1 3.448714 1_565
Mg0_3 Y2_6 3.448714 1_455
Mg0_3 Y2_7 3.448714 1_455
Mg0_3 Y3_7 3.465224 1_455
Mg0_3 Y3_1 3.465224 1_565
Mg0_3 Mg1_7 3.484617 1_455
Mg0_3 Mg1_1 3.484617 1_565
Mg0_3 Mg0_5 3.512446 1_565
Mg0_3 Mg0_5 3.512446 1_455
Mg0_4 Y0_4 3.425981 1_555
Mg0_4 Y0_5 3.425981 1_554
Mg0_4 Y2_7 3.448714 1_554
Mg0_4 Y2_6 3.448714 1_555
Mg0_4 Y2_1 3.448714 1_554
Mg0_4 Y2_0 3.448714 1_555
Mg0_4 Y3_6 3.465224 1_555
Mg0_4 Y3_0 3.465224 1_555
Mg0_4 Mg1_6 3.484617 1_555
Mg0_4 Mg1_0 3.484617 1_555
Mg0_5 Y0_5 3.425981 1_555
Mg0_5 Y0_4 3.425981 1_555
Mg0_5 Y2_7 3.448714 1_555
Mg0_5 Y2_6 3.448714 1_555
Mg0_5 Y2_0 3.448714 1_555
Mg0_5 Y2_1 3.448714 1_555
Mg0_5 Y3_7 3.465224 1_555
Mg0_5 Y3_1 3.465224 1_555
Mg0_5 Mg1_7 3.484617 1_555
Mg0_5 Mg1_1 3.484617 1_555
Mg0_6 Y0_7 3.425981 1_554
Mg0_6 Y0_6 3.425981 1_555
Mg0_6 Y2_4 3.448714 1_565
Mg0_6 Y2_3 3.448714 1_554
Mg0_6 Y2_2 3.448714 1_555
Mg0_6 Y2_5 3.448714 1_564
Mg0_6 Y3_2 3.465224 1_555
Mg0_6 Y3_4 3.465224 1_565
Mg0_6 Mg1_4 3.484617 1_565
Mg0_6 Mg1_2 3.484617 1_555
Mg0_7 Y0_6 3.425981 1_555
Mg0_7 Y0_7 3.425981 1_555
Mg0_7 Y2_3 3.448714 1_555
Mg0_7 Y2_4 3.448714 1_565
Mg0_7 Y2_5 3.448714 1_565
Mg0_7 Y2_2 3.448714 1_555
Mg0_7 Y3_3 3.465224 1_555
Mg0_7 Y3_5 3.465224 1_565
Mg0_7 Mg1_5 3.484617 1_565
Mg0_7 Mg1_3 3.484617 1_555
Mg1_0 Y1_4 3.456807 1_555
Mg1_0 Y1_5 3.456807 1_554
Mg1_0 Y1_2 3.456807 1_545
Mg1_0 Y1_3 3.456807 1_544
Mg1_0 Y2_1 3.465367 1_554
Mg1_0 Y2_0 3.465367 1_555
Mg1_0 Mg1_6 3.512446 1_555
Mg1_0 Mg1_6 3.512446 1_445
Mg1_0 Y3_4 3.590592 1_555
Mg1_0 Y3_2 3.590592 1_545
Mg1_1 Y1_4 3.456807 1_555
Mg1_1 Y1_5 3.456807 1_555
Mg1_1 Y1_2 3.456807 1_545
Mg1_1 Y1_3 3.456807 1_545
Mg1_1 Y2_0 3.465367 1_555
Mg1_1 Y2_1 3.465367 1_555
Mg1_1 Mg1_7 3.512446 1_555
Mg1_1 Mg1_7 3.512446 1_445
Mg1_1 Y3_5 3.590592 1_555
Mg1_1 Y3_3 3.590592 1_545
Mg1_2 Y1_7 3.456807 1_554
Mg1_2 Y1_6 3.456807 1_555
Mg1_2 Y1_0 3.456807 1_555
Mg1_2 Y1_1 3.456807 1_554
Mg1_2 Y2_3 3.465367 1_554
Mg1_2 Y2_2 3.465367 1_555
Mg1_2 Mg1_4 3.512446 1_565
Mg1_2 Mg1_4 3.512446 1_455
Mg1_2 Y3_0 3.590592 1_555
Mg1_2 Y3_6 3.590592 1_555
Mg1_3 Y1_7 3.456807 1_555
Mg1_3 Y1_6 3.456807 1_555
Mg1_3 Y1_0 3.456807 1_555
Mg1_3 Y1_1 3.456807 1_555
Mg1_3 Y2_2 3.465367 1_555
Mg1_3 Y2_3 3.465367 1_555
Mg1_3 Mg1_5 3.512446 1_565
Mg1_3 Mg1_5 3.512446 1_455
Mg1_3 Y3_1 3.590592 1_555
Mg1_3 Y3_7 3.590592 1_555
Mg1_4 Y1_0 3.456807 1_655
Mg1_4 Y1_1 3.456807 1_654
Mg1_4 Y1_6 3.456807 1_545
Mg1_4 Y1_7 3.456807 1_544
Mg1_4 Y2_4 3.465367 1_555
Mg1_4 Y2_5 3.465367 1_554
Mg1_4 Y3_0 3.590592 1_655
Mg1_4 Y3_6 3.590592 1_545
Mg1_5 Y1_7 3.456807 1_545
Mg1_5 Y1_0 3.456807 1_655
Mg1_5 Y1_1 3.456807 1_655
Mg1_5 Y1_6 3.456807 1_545
Mg1_5 Y2_4 3.465367 1_555
Mg1_5 Y2_5 3.465367 1_555
Mg1_5 Y3_1 3.590592 1_655
Mg1_5 Y3_7 3.590592 1_545
Mg1_6 Y1_4 3.456807 1_555
Mg1_6 Y1_5 3.456807 1_554
Mg1_6 Y1_2 3.456807 1_655
Mg1_6 Y1_3 3.456807 1_654
Mg1_6 Y2_6 3.465367 1_555
Mg1_6 Y2_7 3.465367 1_554
Mg1_6 Y3_4 3.590592 1_555
Mg1_6 Y3_2 3.590592 1_655
Mg1_7 Y1_5 3.456807 1_555
Mg1_7 Y1_4 3.456807 1_555
Mg1_7 Y1_2 3.456807 1_655
Mg1_7 Y1_3 3.456807 1_655
Mg1_7 Y2_6 3.465367 1_555
Mg1_7 Y2_7 3.465367 1_555
Mg1_7 Y3_5 3.590592 1_555
Mg1_7 Y3_3 3.590592 1_655
