# generated using pymatgen
data_Ba2GaS4
_symmetry_space_group_name_H-M   'P 1'
_cell_length_a   6.25374553
_cell_length_b   12.83045008
_cell_length_c   20.10275463
_cell_angle_alpha   75.69823457
_cell_angle_beta   90.00000000
_cell_angle_gamma   90.00000000
_symmetry_Int_Tables_number   1
_chemical_formula_structural   Ba2GaS4
_chemical_formula_sum   'Ba16 Ga8 S32'
_cell_volume   1563.02197793
_cell_formula_units_Z   8
loop_
 _symmetry_equiv_pos_site_id
 _symmetry_equiv_pos_as_xyz
  1  'x, y, z'
loop_
 _atom_site_type_symbol
 _atom_site_label
 _atom_site_symmetry_multiplicity
 _atom_site_fract_x
 _atom_site_fract_y
 _atom_site_fract_z
 _atom_site_occupancy
  Ba  Ba0  1  0.23589444  0.89537797  0.21347940  1
  Ba  Ba1  1  0.73589444  0.10462203  0.28652060  1
  Ba  Ba2  1  0.76410556  0.10462203  0.78652060  1
  Ba  Ba3  1  0.26410556  0.89537797  0.71347940  1
  Ba  Ba4  1  0.74249018  0.85392316  0.04878979  1
  Ba  Ba5  1  0.24249018  0.14607684  0.45121021  1
  Ba  Ba6  1  0.25750982  0.14607684  0.95121021  1
  Ba  Ba7  1  0.75750982  0.85392316  0.54878979  1
  Ba  Ba8  1  0.23553839  0.61683921  0.03696339  1
  Ba  Ba9  1  0.73553839  0.38316079  0.46303661  1
  Ba  Ba10  1  0.76446161  0.38316079  0.96303661  1
  Ba  Ba11  1  0.26446161  0.61683921  0.53696339  1
  Ba  Ba12  1  0.23145019  0.52697750  0.31274432  1
  Ba  Ba13  1  0.73145019  0.47302250  0.18725568  1
  Ba  Ba14  1  0.76854981  0.47302250  0.68725568  1
  Ba  Ba15  1  0.26854981  0.52697750  0.81274432  1
  Ga  Ga0  1  0.31714205  0.88231095  0.40120853  1
  Ga  Ga1  1  0.81714205  0.11768905  0.09879147  1
  Ga  Ga2  1  0.68285795  0.11768905  0.59879147  1
  Ga  Ga3  1  0.18285795  0.88231095  0.90120853  1
  Ga  Ga4  1  0.31196808  0.30275985  0.10060911  1
  Ga  Ga5  1  0.81196808  0.69724015  0.39939089  1
  Ga  Ga6  1  0.68803192  0.69724015  0.89939089  1
  Ga  Ga7  1  0.18803192  0.30275985  0.60060911  1
  S  S0  1  0.40152244  0.68594969  0.17283153  1
  S  S1  1  0.90152244  0.31405031  0.32716847  1
  S  S2  1  0.59847756  0.31405031  0.82716847  1
  S  S3  1  0.09847756  0.68594969  0.67283153  1
  S  S4  1  0.06575836  0.68576847  0.17229955  1
  S  S5  1  0.56575836  0.31423153  0.32770045  1
  S  S6  1  0.93424164  0.31423153  0.82770045  1
  S  S7  1  0.43424164  0.68576847  0.67229955  1
  S  S8  1  0.73534162  0.96295856  0.17591329  1
  S  S9  1  0.23534162  0.03704144  0.32408671  1
  S  S10  1  0.26465838  0.03704144  0.82408671  1
  S  S11  1  0.76465838  0.96295856  0.67591329  1
  S  S12  1  0.24537602  0.88343655  0.01105237  1
  S  S13  1  0.74537602  0.11656345  0.48894763  1
  S  S14  1  0.75462398  0.11656345  0.98894763  1
  S  S15  1  0.25462398  0.88343655  0.51105237  1
  S  S16  1  0.68066218  0.86761736  0.38410711  1
  S  S17  1  0.18066218  0.13238264  0.11589289  1
  S  S18  1  0.31933782  0.13238264  0.61589289  1
  S  S19  1  0.81933782  0.86761736  0.88410711  1
  S  S20  1  0.17528857  0.73155397  0.37345545  1
  S  S21  1  0.67528857  0.26844603  0.12654455  1
  S  S22  1  0.82471143  0.26844603  0.62654455  1
  S  S23  1  0.32471143  0.73155397  0.87345545  1
  S  S24  1  0.22572419  0.41684468  0.16351780  1
  S  S25  1  0.72572419  0.58315532  0.33648220  1
  S  S26  1  0.77427581  0.58315532  0.83648220  1
  S  S27  1  0.27427581  0.41684468  0.66351780  1
  S  S28  1  0.23304360  0.38734822  0.48536805  1
  S  S29  1  0.73304360  0.61265178  0.01463195  1
  S  S30  1  0.76695640  0.61265178  0.51463195  1
  S  S31  1  0.26695640  0.38734822  0.98536805  1
loop_
_geom_bond_atom_site_label_1
_geom_bond_atom_site_label_2
_geom_bond_distance
_geom_bond_site_symmetry_2
Ba0 S0 3.169489 1_555
Ba0 S4 3.185922 1_555
Ba0 S9 3.200692 1_565
Ba0 S17 3.204286 1_565
Ba0 S8 3.279383 1_555
Ba0 S8 3.285970 1_455
Ba0 S20 3.400658 1_555
Ba1 S1 3.169489 1_555
Ba1 S5 3.185922 1_555
Ba1 S8 3.200692 1_545
Ba1 S16 3.204286 1_545
Ba1 S9 3.279383 1_655
Ba1 S9 3.285970 1_555
Ba1 S21 3.400658 1_555
Ba2 S2 3.169489 1_555
Ba2 S6 3.185922 1_555
Ba2 S11 3.200692 1_545
Ba2 S19 3.204286 1_545
Ba2 S10 3.279383 1_555
Ba2 S10 3.285970 1_655
Ba2 S22 3.400658 1_555
Ba3 S3 3.169489 1_555
Ba3 S7 3.185922 1_555
Ba3 S10 3.200692 1_565
Ba3 S18 3.204286 1_565
Ba3 S11 3.279383 1_455
Ba3 S11 3.285970 1_555
Ba3 S23 3.400658 1_555
Ba4 S12 3.200277 1_555
Ba4 S8 3.202528 1_555
Ba4 S12 3.235352 1_655
Ba4 S14 3.287191 1_564
Ba4 S19 3.306715 1_554
Ba4 S29 3.332876 1_555
Ba4 S4 3.501423 1_655
Ba4 S0 3.571333 1_555
Ba5 S13 3.200277 1_455
Ba5 S9 3.202528 1_555
Ba5 S13 3.235352 1_555
Ba5 S15 3.287191 1_545
Ba5 S18 3.306715 1_555
Ba5 S28 3.332876 1_555
Ba5 S5 3.501423 1_555
Ba5 S1 3.571333 1_455
Ba6 S14 3.200277 1_555
Ba6 S10 3.202528 1_555
Ba6 S14 3.235352 1_455
Ba6 S12 3.287191 1_546
Ba6 S17 3.306715 1_556
Ba6 S31 3.332876 1_555
Ba6 S6 3.501423 1_455
Ba6 S2 3.571333 1_555
Ba7 S15 3.200277 1_655
Ba7 S11 3.202528 1_555
Ba7 S15 3.235352 1_555
Ba7 S13 3.287191 1_565
Ba7 S16 3.306715 1_555
Ba7 S30 3.332876 1_555
Ba7 S7 3.501423 1_555
Ba7 S3 3.571333 1_655
Ba8 S24 3.136132 1_555
Ba8 S29 3.145845 1_555
Ba8 S29 3.176709 1_455
Ba8 S4 3.240381 1_555
Ba8 S0 3.243525 1_555
Ba8 S23 3.300185 1_554
Ba8 S12 3.330930 1_555
Ba8 S31 3.360535 1_554
Ba9 S25 3.136132 1_555
Ba9 S28 3.145845 1_655
Ba9 S28 3.176709 1_555
Ba9 S5 3.240381 1_555
Ba9 S1 3.243525 1_555
Ba9 S22 3.300185 1_555
Ba9 S13 3.330930 1_555
Ba9 S30 3.360535 1_555
Ba10 S26 3.136132 1_555
Ba10 S31 3.145845 1_555
Ba10 S31 3.176709 1_655
Ba10 S6 3.240381 1_555
Ba10 S2 3.243525 1_555
Ba10 S21 3.300185 1_556
Ba10 S14 3.330930 1_555
Ba10 S29 3.360535 1_556
Ba11 S27 3.136132 1_555
Ba11 S30 3.145845 1_455
Ba11 S30 3.176709 1_555
Ba11 S7 3.240381 1_555
Ba11 S3 3.243525 1_555
Ba11 S20 3.300185 1_555
Ba11 S15 3.330930 1_555
Ba11 S28 3.360535 1_555
Ba12 S20 3.175721 1_555
Ba12 S4 3.217736 1_555
Ba12 S0 3.219951 1_555
Ba12 S25 3.236025 1_555
Ba12 S25 3.304503 1_455
Ba12 S1 3.378373 1_455
Ba12 S5 3.392156 1_555
Ba12 S28 3.490051 1_555
Ba12 S24 3.618215 1_555
Ba13 S21 3.175721 1_555
Ba13 S5 3.217736 1_555
Ba13 S1 3.219951 1_555
Ba13 S24 3.236025 1_655
Ba13 S24 3.304503 1_555
Ba13 S0 3.378373 1_555
Ba13 S4 3.392156 1_655
Ba13 S29 3.490051 1_555
Ba13 S25 3.618215 1_555
Ba14 S22 3.175721 1_555
Ba14 S6 3.217736 1_555
Ba14 S2 3.219951 1_555
Ba14 S27 3.236025 1_555
Ba14 S27 3.304503 1_655
Ba14 S3 3.378373 1_655
Ba14 S7 3.392156 1_555
Ba14 S30 3.490051 1_555
Ba14 S26 3.618215 1_555
Ba15 S23 3.175721 1_555
Ba15 S7 3.217736 1_555
Ba15 S3 3.219951 1_555
Ba15 S26 3.236025 1_455
Ba15 S26 3.304503 1_555
Ba15 S2 3.378373 1_555
Ba15 S6 3.392156 1_455
Ba15 S31 3.490051 1_555
Ba15 S27 3.618215 1_555
Ga0 S15 2.246066 1_555
Ga0 S9 2.255201 1_565
Ga0 S16 2.313856 1_555
Ga0 S20 2.317940 1_555
Ga1 S14 2.246066 1_554
Ga1 S8 2.255201 1_545
Ga1 S17 2.313856 1_655
Ga1 S21 2.317940 1_555
Ga2 S13 2.246066 1_555
Ga2 S11 2.255201 1_545
Ga2 S18 2.313856 1_555
Ga2 S22 2.317940 1_555
Ga3 S12 2.246066 1_556
Ga3 S10 2.255201 1_565
Ga3 S19 2.313856 1_455
Ga3 S23 2.317940 1_555
Ga4 S24 2.224266 1_555
Ga4 S17 2.283753 1_555
Ga4 S31 2.319882 1_554
Ga4 S21 2.348352 1_555
Ga5 S25 2.224266 1_555
Ga5 S16 2.283753 1_555
Ga5 S30 2.319882 1_555
Ga5 S20 2.348352 1_655
Ga6 S26 2.224266 1_555
Ga6 S19 2.283753 1_555
Ga6 S29 2.319882 1_556
Ga6 S23 2.348352 1_555
Ga7 S27 2.224266 1_555
Ga7 S18 2.283753 1_555
Ga7 S28 2.319882 1_555
Ga7 S22 2.348352 1_455
S0 S4 2.099815 1_555
S1 S5 2.099815 1_555
S2 S6 2.099815 1_555
S3 S7 2.099815 1_555
