# generated using pymatgen
data_SrN
_symmetry_space_group_name_H-M   'P 1'
_cell_length_a   3.81403100
_cell_length_b   5.46099200
_cell_length_c   7.52612900
_cell_angle_alpha   90.00000000
_cell_angle_beta   90.00000000
_cell_angle_gamma   90.00000000
_symmetry_Int_Tables_number   1
_chemical_formula_structural   SrN
_chemical_formula_sum   'Sr4 N4'
_cell_volume   156.75717092
_cell_formula_units_Z   4
loop_
 _symmetry_equiv_pos_site_id
 _symmetry_equiv_pos_as_xyz
  1  'x, y, z'
loop_
 _atom_site_type_symbol
 _atom_site_label
 _atom_site_symmetry_multiplicity
 _atom_site_fract_x
 _atom_site_fract_y
 _atom_site_fract_z
 _atom_site_occupancy
  Sr  Sr0  1  0.25000000  0.75779900  0.62628500  1
  Sr  Sr1  1  0.25000000  0.74220100  0.12628500  1
  Sr  Sr2  1  0.75000000  0.24220100  0.37371500  1
  Sr  Sr3  1  0.75000000  0.25779900  0.87371500  1
  N  N0  1  0.25000000  0.26436500  0.62275900  1
  N  N1  1  0.25000000  0.23563500  0.12275900  1
  N  N2  1  0.75000000  0.73563500  0.37724100  1
  N  N3  1  0.75000000  0.76436500  0.87724100  1
loop_
_geom_bond_atom_site_label_1
_geom_bond_atom_site_label_2
_geom_bond_distance
_geom_bond_site_symmetry_2
N0 Sr2 2.676658 1_455
N0 Sr2 2.676658 1_555
N0 Sr3 2.684266 1_455
N0 Sr3 2.684266 1_555
N0 Sr0 2.694770 1_555
N0 Sr0 2.766480 1_545
N1 Sr3 2.676658 1_554
N1 Sr3 2.676658 1_454
N1 Sr2 2.684266 1_555
N1 Sr2 2.684266 1_455
N1 Sr1 2.694770 1_545
N1 Sr1 2.766480 1_555
N2 Sr0 2.676658 1_655
N2 Sr0 2.676658 1_555
N2 Sr1 2.684266 1_655
N2 Sr1 2.684266 1_555
N2 Sr2 2.694770 1_555
N2 Sr2 2.766480 1_565
N3 Sr1 2.676658 1_556
N3 Sr1 2.676658 1_656
N3 Sr0 2.684266 1_655
N3 Sr0 2.684266 1_555
N3 Sr3 2.694770 1_565
N3 Sr3 2.766480 1_555
