# generated using pymatgen
data_SrGa2(SiO4)2
_symmetry_space_group_name_H-M   'P 1'
_cell_length_a   8.39245003
_cell_length_b   9.00057935
_cell_length_c   9.50448675
_cell_angle_alpha   90.00000000
_cell_angle_beta   90.00000000
_cell_angle_gamma   90.74339044
_symmetry_Int_Tables_number   1
_chemical_formula_structural   SrGa2(SiO4)2
_chemical_formula_sum   'Sr4 Ga8 Si8 O32'
_cell_volume   717.87915534
_cell_formula_units_Z   4
loop_
 _symmetry_equiv_pos_site_id
 _symmetry_equiv_pos_as_xyz
  1  'x, y, z'
loop_
 _atom_site_type_symbol
 _atom_site_label
 _atom_site_symmetry_multiplicity
 _atom_site_fract_x
 _atom_site_fract_y
 _atom_site_fract_z
 _atom_site_occupancy
  Sr  Sr0  1  0.25169306  0.38861637  0.08604337  1
  Sr  Sr1  1  0.74830694  0.11138363  0.58604337  1
  Sr  Sr2  1  0.74830694  0.61138363  0.91395663  1
  Sr  Sr3  1  0.25169306  0.88861637  0.41395663  1
  Ga  Ga0  1  0.57206738  0.55321642  0.31070142  1
  Ga  Ga1  1  0.42793262  0.94678358  0.81070142  1
  Ga  Ga2  1  0.42793262  0.44678358  0.68929858  1
  Ga  Ga3  1  0.57206738  0.05321642  0.18929858  1
  Ga  Ga4  1  0.06902688  0.77199010  0.07469789  1
  Ga  Ga5  1  0.93097312  0.72800990  0.57469789  1
  Ga  Ga6  1  0.93097312  0.22800890  0.92530211  1
  Ga  Ga7  1  0.06902688  0.27199110  0.42530211  1
  Si  Si0  1  0.55977265  0.74427370  0.58180641  1
  Si  Si1  1  0.44022735  0.75572630  0.08180641  1
  Si  Si2  1  0.44022735  0.25572630  0.41819359  1
  Si  Si3  1  0.55977265  0.24427370  0.91819359  1
  Si  Si4  1  0.05419622  0.93822210  0.79896643  1
  Si  Si5  1  0.94580378  0.56177790  0.29896643  1
  Si  Si6  1  0.94580378  0.06177890  0.20103357  1
  Si  Si7  1  0.05419622  0.43822210  0.70103357  1
  O  O0  1  0.73682488  0.82029846  0.57339027  1
  O  O1  1  0.26317512  0.67970154  0.07339027  1
  O  O2  1  0.26317512  0.17970154  0.42660973  1
  O  O3  1  0.73682488  0.32029846  0.92660973  1
  O  O4  1  0.77437453  0.50673166  0.35647116  1
  O  O5  1  0.22562547  0.99326834  0.85647116  1
  O  O6  1  0.22562547  0.49326834  0.64352884  1
  O  O7  1  0.77437453  0.00673166  0.14352884  1
  O  O8  1  0.43551378  0.39197186  0.30698266  1
  O  O9  1  0.56448622  0.10802714  0.80698266  1
  O  O10  1  0.56448622  0.60802814  0.69301734  1
  O  O11  1  0.43551378  0.89197186  0.19301734  1
  O  O12  1  0.07354081  0.42719794  0.30286631  1
  O  O13  1  0.92645919  0.07280206  0.80286631  1
  O  O14  1  0.92645919  0.57280206  0.69713369  1
  O  O15  1  0.07354081  0.92719794  0.19713369  1
  O  O16  1  0.55866737  0.62245829  0.12878808  1
  O  O17  1  0.44133263  0.87754171  0.62878808  1
  O  O18  1  0.44133263  0.37754171  0.87121192  1
  O  O19  1  0.55866737  0.12245829  0.37121192  1
  O  O20  1  0.01612358  0.19388273  0.09891548  1
  O  O21  1  0.98387642  0.30611727  0.59891548  1
  O  O22  1  0.98387642  0.80611727  0.90108452  1
  O  O23  1  0.01612358  0.69388273  0.40108452  1
  O  O24  1  0.48760562  0.19060646  0.06823803  1
  O  O25  1  0.51239438  0.30939354  0.56823803  1
  O  O26  1  0.51239438  0.80939354  0.93176197  1
  O  O27  1  0.48760562  0.69060646  0.43176197  1
  O  O28  1  0.93706825  0.11919597  0.36376494  1
  O  O29  1  0.06293175  0.38080403  0.86376494  1
  O  O30  1  0.06293175  0.88080403  0.63623506  1
  O  O31  1  0.93706825  0.61919597  0.13623506  1
loop_
_geom_bond_atom_site_label_1
_geom_bond_atom_site_label_2
_geom_bond_distance
_geom_bond_site_symmetry_2
Ga0 O4 1.807049 1_555
Ga0 O8 1.837854 1_555
Ga0 O27 1.838009 1_555
Ga0 O16 1.841815 1_555
Ga1 O5 1.807049 1_555
Ga1 O9 1.837847 1_565
Ga1 O26 1.838009 1_555
Ga1 O17 1.841815 1_555
Ga2 O6 1.807049 1_555
Ga2 O10 1.837854 1_555
Ga2 O25 1.838009 1_555
Ga2 O18 1.841815 1_555
Ga3 O7 1.807049 1_555
Ga3 O11 1.837854 1_545
Ga3 O24 1.838009 1_555
Ga3 O19 1.841815 1_555
Ga4 O15 1.818168 1_555
Ga4 O22 1.825809 1_454
Ga4 O1 1.838513 1_555
Ga4 O31 1.849404 1_455
Ga5 O14 1.818168 1_555
Ga5 O23 1.825809 1_655
Ga5 O0 1.838513 1_555
Ga5 O30 1.849404 1_655
Ga6 O13 1.818161 1_555
Ga6 O20 1.825807 1_656
Ga6 O3 1.838518 1_555
Ga6 O29 1.849411 1_655
Ga7 O12 1.818161 1_555
Ga7 O21 1.825807 1_455
Ga7 O2 1.838518 1_555
Ga7 O28 1.849411 1_455
O0 Si0 1.629767 1_555
O0 Sr1 2.623215 1_565
O1 Si1 1.629767 1_555
O1 Sr0 2.623215 1_555
O2 Si2 1.629767 1_555
O2 Sr3 2.623215 1_545
O3 Si3 1.629767 1_555
O3 Sr2 2.623215 1_555
O4 Si5 1.611081 1_555
O5 Si4 1.611081 1_555
O6 Si7 1.611081 1_555
O7 Si6 1.611084 1_555
O8 Si2 1.619834 1_555
O8 Sr0 2.605626 1_555
O9 Si3 1.619841 1_555
O9 Sr1 2.605626 1_555
O10 Si0 1.619834 1_555
O10 Sr2 2.605626 1_555
O11 Si1 1.619834 1_555
O11 Sr3 2.605626 1_555
O12 Si5 1.628359 1_455
O12 Sr0 2.572225 1_555
O13 Si4 1.628359 1_645
O13 Sr1 2.572225 1_555
O14 Si7 1.628359 1_655
O14 Sr2 2.572225 1_555
O15 Si6 1.628366 1_465
O15 Sr3 2.572225 1_555
O16 Si1 1.630076 1_555
O16 Sr2 2.591574 1_554
O17 Si0 1.630076 1_555
O17 Sr3 2.591574 1_555
O18 Si3 1.630076 1_555
O18 Sr0 2.591574 1_556
O19 Si2 1.630076 1_555
O19 Sr1 2.591574 1_555
O20 Si6 1.638856 1_455
O20 Sr0 2.627853 1_555
O21 Si7 1.638862 1_655
O21 Sr1 2.627853 1_555
O22 Si4 1.638862 1_655
O22 Sr2 2.627853 1_555
O23 Si5 1.638862 1_455
O23 Sr3 2.627853 1_555
O24 Si3 1.620587 1_554
O24 Sr0 2.686334 1_555
O25 Si2 1.620587 1_555
O25 Sr1 2.686334 1_555
O26 Si1 1.620587 1_556
O26 Sr2 2.686334 1_555
O27 Si0 1.620587 1_555
O27 Sr3 2.686334 1_555
O28 Si6 1.632679 1_555
O28 Sr1 2.641005 1_555
O29 Si7 1.632682 1_555
O29 Sr0 2.641005 1_556
O30 Si4 1.632682 1_555
O30 Sr3 2.641005 1_555
O31 Si5 1.632682 1_555
O31 Sr2 2.641005 1_554
