# generated using pymatgen
data_Y3MnAlS7
_symmetry_space_group_name_H-M   'P 1'
_cell_length_a   9.70540947
_cell_length_b   9.70540947
_cell_length_c   6.13000200
_cell_angle_alpha   90.00000000
_cell_angle_beta   90.00000000
_cell_angle_gamma   119.99999637
_symmetry_Int_Tables_number   1
_chemical_formula_structural   Y3MnAlS7
_chemical_formula_sum   'Y6 Mn2 Al2 S14'
_cell_volume   500.05639942
_cell_formula_units_Z   2
loop_
 _symmetry_equiv_pos_site_id
 _symmetry_equiv_pos_as_xyz
  1  'x, y, z'
loop_
 _atom_site_type_symbol
 _atom_site_label
 _atom_site_symmetry_multiplicity
 _atom_site_fract_x
 _atom_site_fract_y
 _atom_site_fract_z
 _atom_site_occupancy
  Y  Y0  1  0.76681300  0.14453700  0.73510500  1
  Y  Y1  1  0.37772400  0.23318700  0.73510500  1
  Y  Y2  1  0.85546300  0.62227600  0.73510500  1
  Y  Y3  1  0.23318700  0.85546300  0.23510500  1
  Y  Y4  1  0.62227600  0.76681300  0.23510500  1
  Y  Y5  1  0.14453700  0.37772400  0.23510500  1
  Mn  Mn0  1  0.00000000  0.00000000  0.52849400  1
  Mn  Mn1  1  0.00000000  0.00000000  0.02849400  1
  Al  Al0  1  0.66666700  0.33333300  0.16064100  1
  Al  Al1  1  0.33333300  0.66666700  0.66064100  1
  S  S0  1  0.85556100  0.09956900  0.31135600  1
  S  S1  1  0.24400700  0.14443900  0.31135600  1
  S  S2  1  0.90043100  0.75599300  0.31135600  1
  S  S3  1  0.14443900  0.90043100  0.81135600  1
  S  S4  1  0.75599300  0.85556100  0.81135600  1
  S  S5  1  0.09956900  0.24400700  0.81135600  1
  S  S6  1  0.90561600  0.42214600  0.00274200  1
  S  S7  1  0.51653000  0.09438400  0.00274200  1
  S  S8  1  0.57785400  0.48347000  0.00274200  1
  S  S9  1  0.09438400  0.57785400  0.50274200  1
  S  S10  1  0.48347000  0.90561600  0.50274200  1
  S  S11  1  0.42214600  0.51653000  0.50274200  1
  S  S12  1  0.66666700  0.33333300  0.52730700  1
  S  S13  1  0.33333300  0.66666700  0.02730700  1
loop_
_geom_bond_atom_site_label_1
_geom_bond_atom_site_label_2
_geom_bond_distance
_geom_bond_site_symmetry_2
Mn0 S2 2.454660 1_445
Mn0 S1 2.454661 1_555
Mn0 S0 2.454667 1_455
Mn0 S5 2.694477 1_555
Mn0 S4 2.694478 1_445
Mn0 S3 2.694484 1_545
Mn1 S5 2.454660 1_554
Mn1 S4 2.454661 1_444
Mn1 S3 2.454667 1_544
Mn1 S2 2.694477 1_445
Mn1 S1 2.694478 1_555
Mn1 S0 2.694484 1_455
Al0 S12 2.247663 1_555
Al0 S6 2.249242 1_555
Al0 S7 2.249243 1_555
Al0 S8 2.249250 1_555
Al1 S13 2.247663 1_556
Al1 S9 2.249242 1_555
Al1 S10 2.249243 1_555
Al1 S11 2.249250 1_555
S0 Y5 2.793012 1_655
S0 Y0 2.838260 1_555
S0 Y4 2.909048 1_545
S1 Y3 2.793016 1_545
S1 Y1 2.838263 1_555
S1 Y5 2.909041 1_555
S2 Y4 2.793006 1_555
S2 Y2 2.838264 1_555
S2 Y3 2.909051 1_655
S3 Y2 2.793012 1_455
S3 Y3 2.838260 1_556
S3 Y1 2.909048 1_565
S4 Y0 2.793016 1_565
S4 Y4 2.838263 1_556
S4 Y2 2.909041 1_555
S5 Y1 2.793006 1_555
S5 Y5 2.838264 1_556
S5 Y0 2.909051 1_455
S6 Y2 2.765266 1_554
S6 Y0 2.852384 1_554
S6 Y5 2.931114 1_655
S7 Y0 2.765266 1_554
S7 Y1 2.852384 1_554
S7 Y3 2.931114 1_545
S8 Y1 2.765266 1_554
S8 Y2 2.852384 1_554
S8 Y4 2.931114 1_555
S9 Y5 2.765266 1_555
S9 Y3 2.852384 1_555
S9 Y2 2.931114 1_455
S10 Y3 2.765266 1_555
S10 Y4 2.852384 1_555
S10 Y0 2.931114 1_565
S11 Y4 2.765266 1_555
S11 Y5 2.852384 1_555
S11 Y1 2.931114 1_555
S12 Y0 2.775917 1_555
S12 Y2 2.775923 1_555
S12 Y1 2.775925 1_555
S13 Y3 2.775917 1_555
S13 Y5 2.775923 1_555
S13 Y4 2.775925 1_555
