# generated using pymatgen
data_NaMn4O8
_symmetry_space_group_name_H-M   'P 1'
_cell_length_a   5.95022500
_cell_length_b   9.79518100
_cell_length_c   13.94231137
_cell_angle_alpha   46.79763730
_cell_angle_beta   90.00000000
_cell_angle_gamma   90.00000000
_symmetry_Int_Tables_number   1
_chemical_formula_structural   NaMn4O8
_chemical_formula_sum   'Na4 Mn16 O32'
_cell_volume   592.34216851
_cell_formula_units_Z   4
loop_
 _symmetry_equiv_pos_site_id
 _symmetry_equiv_pos_as_xyz
  1  'x, y, z'
loop_
 _atom_site_type_symbol
 _atom_site_label
 _atom_site_symmetry_multiplicity
 _atom_site_fract_x
 _atom_site_fract_y
 _atom_site_fract_z
 _atom_site_occupancy
  Na  Na0  1  0.63123900  0.60074200  0.16280200  1
  Na  Na1  1  0.86876100  0.60074200  0.66280200  1
  Na  Na2  1  0.13123900  0.39925800  0.33719800  1
  Na  Na3  1  0.36876100  0.39925800  0.83719800  1
  Mn  Mn0  1  0.62366200  0.98233900  0.10091800  1
  Mn  Mn1  1  0.12585300  0.97290200  0.10454800  1
  Mn  Mn2  1  0.62567100  0.31623900  0.58667400  1
  Mn  Mn3  1  0.12536800  0.31672700  0.59024700  1
  Mn  Mn4  1  0.12567100  0.68376100  0.91332600  1
  Mn  Mn5  1  0.62536800  0.68327300  0.90975300  1
  Mn  Mn6  1  0.12366200  0.01766100  0.39908200  1
  Mn  Mn7  1  0.62585300  0.02709800  0.39545200  1
  Mn  Mn8  1  0.87633800  0.98233900  0.60091800  1
  Mn  Mn9  1  0.37414700  0.97290200  0.60454800  1
  Mn  Mn10  1  0.87432900  0.31623900  0.08667400  1
  Mn  Mn11  1  0.37463200  0.31672700  0.09024700  1
  Mn  Mn12  1  0.87463200  0.68327300  0.40975300  1
  Mn  Mn13  1  0.37432900  0.68376100  0.41332600  1
  Mn  Mn14  1  0.87414700  0.02709800  0.89545200  1
  Mn  Mn15  1  0.37633800  0.01766100  0.89908200  1
  O  O0  1  0.87596000  0.88722400  0.40244600  1
  O  O1  1  0.37256900  0.89235800  0.39893700  1
  O  O2  1  0.87625100  0.77428000  0.79130100  1
  O  O3  1  0.37407600  0.76995800  0.79280500  1
  O  O4  1  0.87407600  0.23004200  0.70719500  1
  O  O5  1  0.37625100  0.22572000  0.70869900  1
  O  O6  1  0.87256900  0.10764200  0.10106300  1
  O  O7  1  0.37596000  0.11277600  0.09755400  1
  O  O8  1  0.12743100  0.89235800  0.89893700  1
  O  O9  1  0.62404000  0.88722400  0.90244600  1
  O  O10  1  0.12592400  0.76995800  0.29280500  1
  O  O11  1  0.62374900  0.77428000  0.29130100  1
  O  O12  1  0.62592400  0.23004200  0.20719500  1
  O  O13  1  0.12374900  0.22572000  0.20869900  1
  O  O14  1  0.62743100  0.10764200  0.60106300  1
  O  O15  1  0.12404000  0.11277600  0.59755400  1
  O  O16  1  0.63434700  0.85924200  0.58730700  1
  O  O17  1  0.11377700  0.85177900  0.59040500  1
  O  O18  1  0.12800100  0.43609900  0.96117300  1
  O  O19  1  0.62129500  0.43810400  0.95888500  1
  O  O20  1  0.13434700  0.14075800  0.91269300  1
  O  O21  1  0.61377700  0.14822100  0.90959500  1
  O  O22  1  0.62800100  0.56390100  0.53882700  1
  O  O23  1  0.12129500  0.56189600  0.54111500  1
  O  O24  1  0.86565300  0.85924200  0.08730700  1
  O  O25  1  0.38622300  0.85177900  0.09040500  1
  O  O26  1  0.87870500  0.43810400  0.45888500  1
  O  O27  1  0.37199900  0.43609900  0.46117300  1
  O  O28  1  0.88622300  0.14822100  0.40959500  1
  O  O29  1  0.36565300  0.14075800  0.41269300  1
  O  O30  1  0.87199900  0.56390100  0.03882700  1
  O  O31  1  0.37870500  0.56189600  0.04111500  1
loop_
_geom_bond_atom_site_label_1
_geom_bond_atom_site_label_2
_geom_bond_distance
_geom_bond_site_symmetry_2
Na0 O25 2.406762 1_555
Na0 O24 2.411573 1_555
Na0 O30 2.454428 1_555
Na0 O31 2.482944 1_555
Na0 O9 2.665790 1_554
Na1 O17 2.406762 1_655
Na1 O16 2.411573 1_555
Na1 O22 2.454428 1_555
Na1 O23 2.482944 1_655
Na1 O0 2.665790 1_555
Na2 O28 2.406762 1_455
Na2 O29 2.411573 1_555
Na2 O27 2.454428 1_555
Na2 O26 2.482944 1_455
Na2 O15 2.665790 1_555
Na3 O21 2.406762 1_555
Na3 O20 2.411573 1_555
Na3 O18 2.454428 1_555
Na3 O19 2.482944 1_555
Na3 O7 2.665790 1_556
Mn0 O6 1.924408 1_565
Mn0 O7 1.929996 1_565
Mn0 O11 1.947447 1_555
Mn0 O21 1.955710 1_564
Mn0 O24 1.968873 1_555
Mn0 O25 1.977286 1_555
Mn1 O10 1.922791 1_555
Mn1 O20 1.959442 1_564
Mn1 O7 1.979509 1_565
Mn1 O6 1.981863 1_465
Mn1 O24 2.015130 1_455
Mn1 O25 2.041322 1_555
Mn2 O14 1.911539 1_555
Mn2 O4 1.943868 1_555
Mn2 O5 1.953932 1_555
Mn2 O27 1.976290 1_555
Mn2 O26 1.988529 1_555
Mn2 O22 2.028413 1_555
Mn3 O4 1.928672 1_455
Mn3 O15 1.929441 1_555
Mn3 O5 1.932591 1_555
Mn3 O27 1.969345 1_555
Mn3 O26 1.985121 1_455
Mn3 O23 1.996145 1_555
Mn4 O8 1.911539 1_555
Mn4 O3 1.943868 1_555
Mn4 O2 1.953932 1_455
Mn4 O30 1.976290 1_456
Mn4 O31 1.988529 1_556
Mn4 O18 2.028413 1_555
Mn5 O3 1.928672 1_555
Mn5 O9 1.929441 1_555
Mn5 O2 1.932591 1_555
Mn5 O30 1.969345 1_556
Mn5 O31 1.985121 1_556
Mn5 O19 1.996145 1_555
Mn6 O1 1.924408 1_545
Mn6 O0 1.929996 1_445
Mn6 O13 1.947447 1_555
Mn6 O17 1.955710 1_545
Mn6 O29 1.968873 1_555
Mn6 O28 1.977286 1_455
Mn7 O12 1.922791 1_555
Mn7 O16 1.959442 1_545
Mn7 O0 1.979509 1_545
Mn7 O1 1.981863 1_545
Mn7 O29 2.015130 1_555
Mn7 O28 2.041322 1_555
Mn8 O14 1.924408 1_565
Mn8 O15 1.929996 1_665
Mn8 O2 1.947447 1_555
Mn8 O28 1.955710 1_565
Mn8 O16 1.968873 1_555
Mn8 O17 1.977286 1_655
Mn9 O3 1.922791 1_555
Mn9 O29 1.959442 1_565
Mn9 O15 1.979509 1_565
Mn9 O14 1.981863 1_565
Mn9 O16 2.015130 1_555
Mn9 O17 2.041322 1_555
Mn10 O6 1.911539 1_555
Mn10 O12 1.943868 1_555
Mn10 O13 1.953932 1_655
Mn10 O18 1.976290 1_654
Mn10 O19 1.988529 1_554
Mn10 O30 2.028413 1_555
Mn11 O12 1.928672 1_555
Mn11 O7 1.929441 1_555
Mn11 O13 1.932591 1_555
Mn11 O18 1.969345 1_554
Mn11 O19 1.985121 1_554
Mn11 O31 1.996145 1_555
Mn12 O10 1.928672 1_655
Mn12 O0 1.929441 1_555
Mn12 O11 1.932591 1_555
Mn12 O22 1.969345 1_555
Mn12 O23 1.985121 1_655
Mn12 O26 1.996145 1_555
Mn13 O1 1.911539 1_555
Mn13 O10 1.943868 1_555
Mn13 O11 1.953932 1_555
Mn13 O22 1.976290 1_555
Mn13 O23 1.988529 1_555
Mn13 O27 2.028413 1_555
Mn14 O4 1.922791 1_555
Mn14 O24 1.959442 1_546
Mn14 O9 1.979509 1_545
Mn14 O8 1.981863 1_645
Mn14 O20 2.015130 1_655
Mn14 O21 2.041322 1_555
Mn15 O8 1.924408 1_545
Mn15 O9 1.929996 1_545
Mn15 O5 1.947447 1_555
Mn15 O25 1.955710 1_546
Mn15 O20 1.968873 1_555
Mn15 O21 1.977286 1_555
