# generated using pymatgen
data_Cd(NO3)2
_symmetry_space_group_name_H-M   'P 1'
_cell_length_a   8.35457600
_cell_length_b   8.55230500
_cell_length_c   9.00724400
_cell_angle_alpha   90.00000000
_cell_angle_beta   90.00000000
_cell_angle_gamma   90.00000000
_symmetry_Int_Tables_number   1
_chemical_formula_structural   Cd(NO3)2
_chemical_formula_sum   'Cd4 N8 O24'
_cell_volume   643.57552907
_cell_formula_units_Z   4
loop_
 _symmetry_equiv_pos_site_id
 _symmetry_equiv_pos_as_xyz
  1  'x, y, z'
loop_
 _atom_site_type_symbol
 _atom_site_label
 _atom_site_symmetry_multiplicity
 _atom_site_fract_x
 _atom_site_fract_y
 _atom_site_fract_z
 _atom_site_occupancy
  Cd  Cd0  1  0.78894000  0.00000000  0.75000000  1
  Cd  Cd1  1  0.71106000  0.50000000  0.25000000  1
  Cd  Cd2  1  0.21106000  0.00000000  0.25000000  1
  Cd  Cd3  1  0.28894000  0.50000000  0.75000000  1
  N  N0  1  0.49819800  0.24819400  0.72088700  1
  N  N1  1  0.00180200  0.25180600  0.22088700  1
  N  N2  1  0.00180200  0.74819400  0.27911300  1
  N  N3  1  0.49819800  0.75180600  0.77911300  1
  N  N4  1  0.50180200  0.75180600  0.27911300  1
  N  N5  1  0.99819800  0.74819400  0.77911300  1
  N  N6  1  0.99819800  0.25180600  0.72088700  1
  N  N7  1  0.50180200  0.24819400  0.22088700  1
  O  O0  1  0.60876900  0.26613600  0.80734700  1
  O  O1  1  0.89123100  0.23386400  0.30734700  1
  O  O2  1  0.89123100  0.76613600  0.19265300  1
  O  O3  1  0.60876900  0.73386400  0.69265300  1
  O  O4  1  0.39123100  0.73386400  0.19265300  1
  O  O5  1  0.10876900  0.76613600  0.69265300  1
  O  O6  1  0.10876900  0.23386400  0.80734700  1
  O  O7  1  0.39123100  0.26613600  0.30734700  1
  O  O8  1  0.47238500  0.14487800  0.63194100  1
  O  O9  1  0.02761500  0.35512200  0.13194100  1
  O  O10  1  0.02761500  0.64487800  0.36805900  1
  O  O11  1  0.47238500  0.85512200  0.86805900  1
  O  O12  1  0.52761500  0.85512200  0.36805900  1
  O  O13  1  0.97238500  0.64487800  0.86805900  1
  O  O14  1  0.97238500  0.35512200  0.63194100  1
  O  O15  1  0.52761500  0.14487800  0.13194100  1
  O  O16  1  0.80708600  0.98450100  0.53066200  1
  O  O17  1  0.69291400  0.51549900  0.03066200  1
  O  O18  1  0.69291400  0.48450100  0.46933800  1
  O  O19  1  0.80708600  0.01549900  0.96933800  1
  O  O20  1  0.19291400  0.01549900  0.46933800  1
  O  O21  1  0.30708600  0.48450100  0.96933800  1
  O  O22  1  0.30708600  0.51549900  0.53066200  1
  O  O23  1  0.19291400  0.98450100  0.03066200  1
loop_
_geom_bond_atom_site_label_1
_geom_bond_atom_site_label_2
_geom_bond_distance
_geom_bond_site_symmetry_2
Cd0 O19 1.985868 1_555
Cd0 O16 1.985868 1_545
Cd1 O17 1.985868 1_555
Cd1 O18 1.985868 1_555
Cd2 O20 1.985868 1_555
Cd2 O23 1.985868 1_545
Cd3 O21 1.985868 1_555
Cd3 O22 1.985868 1_555
N0 O8 1.212062 1_555
N0 O0 1.217941 1_555
N1 O9 1.212062 1_555
N1 O1 1.217941 1_455
N2 O10 1.212062 1_555
N2 O2 1.217941 1_455
N3 O11 1.212062 1_555
N3 O3 1.217941 1_555
N4 O12 1.212062 1_555
N4 O4 1.217941 1_555
N5 O13 1.212062 1_555
N5 O5 1.217941 1_655
N6 O14 1.212062 1_555
N6 O6 1.217941 1_655
N7 O15 1.212062 1_555
N7 O7 1.217941 1_555
