# generated using pymatgen
data_Tb2ZrSe5
_symmetry_space_group_name_H-M   'P 1'
_cell_length_a   7.62778909
_cell_length_b   8.08729536
_cell_length_c   12.20232582
_cell_angle_alpha   90.00000000
_cell_angle_beta   90.00000000
_cell_angle_gamma   90.00000000
_symmetry_Int_Tables_number   1
_chemical_formula_structural   Tb2ZrSe5
_chemical_formula_sum   'Tb8 Zr4 Se20'
_cell_volume   752.73931205
_cell_formula_units_Z   4
loop_
 _symmetry_equiv_pos_site_id
 _symmetry_equiv_pos_as_xyz
  1  'x, y, z'
loop_
 _atom_site_type_symbol
 _atom_site_label
 _atom_site_symmetry_multiplicity
 _atom_site_fract_x
 _atom_site_fract_y
 _atom_site_fract_z
 _atom_site_occupancy
  Tb  Tb0  1  0.98008599  0.00409574  0.17988173  1
  Tb  Tb1  1  0.51991401  0.49590426  0.67988173  1
  Tb  Tb2  1  0.01991401  0.50409574  0.82011827  1
  Tb  Tb3  1  0.48008599  0.99590426  0.32011827  1
  Tb  Tb4  1  0.01991401  0.99590426  0.82011827  1
  Tb  Tb5  1  0.48008599  0.50409574  0.32011827  1
  Tb  Tb6  1  0.98008599  0.49590426  0.17988173  1
  Tb  Tb7  1  0.51991401  0.00409574  0.67988173  1
  Zr  Zr0  1  0.42093830  0.75000000  0.00483289  1
  Zr  Zr1  1  0.07906170  0.75000000  0.50483289  1
  Zr  Zr2  1  0.57906170  0.25000000  0.99516711  1
  Zr  Zr3  1  0.92093830  0.25000000  0.49516711  1
  Se  Se0  1  0.84012042  0.96287428  0.40435889  1
  Se  Se1  1  0.65987958  0.53712572  0.90435889  1
  Se  Se2  1  0.15987958  0.46287428  0.59564111  1
  Se  Se3  1  0.34012042  0.03712572  0.09564111  1
  Se  Se4  1  0.15987958  0.03712572  0.59564111  1
  Se  Se5  1  0.34012042  0.46287428  0.09564111  1
  Se  Se6  1  0.84012042  0.53712572  0.40435889  1
  Se  Se7  1  0.65987958  0.96287428  0.90435889  1
  Se  Se8  1  0.67096619  0.75000000  0.18004186  1
  Se  Se9  1  0.82903381  0.75000000  0.68004186  1
  Se  Se10  1  0.32903381  0.25000000  0.81995814  1
  Se  Se11  1  0.17096619  0.25000000  0.31995814  1
  Se  Se12  1  0.44936281  0.75000000  0.50272776  1
  Se  Se13  1  0.05063719  0.75000000  0.00272776  1
  Se  Se14  1  0.55063719  0.25000000  0.49727224  1
  Se  Se15  1  0.94936281  0.25000000  0.99727224  1
  Se  Se16  1  0.19179715  0.75000000  0.29180891  1
  Se  Se17  1  0.30820285  0.75000000  0.79180891  1
  Se  Se18  1  0.80820285  0.25000000  0.70819109  1
  Se  Se19  1  0.69179715  0.25000000  0.20819109  1
loop_
_geom_bond_atom_site_label_1
_geom_bond_atom_site_label_2
_geom_bond_distance
_geom_bond_site_symmetry_2
Se0 Zr3 2.645725 1_565
Se0 Zr1 2.790841 1_655
Se0 Tb3 2.944483 1_555
Se0 Tb0 2.958694 1_565
Se1 Zr2 2.645725 1_555
Se1 Zr0 2.790841 1_556
Se1 Tb2 2.944483 1_655
Se1 Tb1 2.958694 1_555
Se2 Zr1 2.645725 1_555
Se2 Zr3 2.790841 1_455
Se2 Tb1 2.944483 1_555
Se2 Tb2 2.958694 1_555
Se3 Zr0 2.645725 1_545
Se3 Zr2 2.790841 1_554
Se3 Tb0 2.944483 1_455
Se3 Tb3 2.958694 1_545
Se4 Zr1 2.645725 1_545
Se4 Zr3 2.790841 1_455
Se4 Tb7 2.944483 1_555
Se4 Tb4 2.958694 1_545
Se5 Zr0 2.645725 1_555
Se5 Zr2 2.790841 1_554
Se5 Tb6 2.944483 1_455
Se5 Tb5 2.958694 1_555
Se6 Zr3 2.645725 1_555
Se6 Zr1 2.790841 1_655
Se6 Tb5 2.944483 1_555
Se6 Tb6 2.958694 1_555
Se7 Zr2 2.645725 1_565
Se7 Zr0 2.790841 1_556
Se7 Tb4 2.944483 1_655
Se7 Tb7 2.958694 1_565
Se8 Zr0 2.864982 1_555
Se8 Tb5 2.999402 1_555
Se8 Tb3 2.999402 1_555
Se8 Tb0 3.127700 1_565
Se8 Tb6 3.127700 1_555
Se9 Zr1 2.864982 1_655
Se9 Tb4 2.999402 1_655
Se9 Tb2 2.999402 1_655
Se9 Tb7 3.127700 1_565
Se9 Tb1 3.127700 1_555
Se10 Zr2 2.864982 1_555
Se10 Tb7 2.999402 1_555
Se10 Tb1 2.999402 1_555
Se10 Tb4 3.127700 1_545
Se10 Tb2 3.127700 1_555
Se11 Zr3 2.864982 1_455
Se11 Tb0 2.999402 1_455
Se11 Tb6 2.999402 1_455
Se11 Tb5 3.127700 1_555
Se11 Tb3 3.127700 1_545
Se12 Zr1 2.824696 1_555
Se12 Tb3 2.995829 1_555
Se12 Tb5 2.995829 1_555
Se12 Tb7 3.030729 1_565
Se12 Tb1 3.030729 1_555
Se13 Zr0 2.824696 1_555
Se13 Tb4 2.995829 1_554
Se13 Tb2 2.995829 1_554
Se13 Tb0 3.030729 1_465
Se13 Tb6 3.030729 1_455
Se14 Zr3 2.824696 1_555
Se14 Tb1 2.995829 1_555
Se14 Tb7 2.995829 1_555
Se14 Tb5 3.030729 1_555
Se14 Tb3 3.030729 1_545
Se15 Zr2 2.824696 1_555
Se15 Tb6 2.995829 1_556
Se15 Tb0 2.995829 1_556
Se15 Tb4 3.030729 1_645
Se15 Tb2 3.030729 1_655
Se16 Zr1 2.737934 1_555
Se16 Tb0 2.948899 1_465
Se16 Tb6 2.948899 1_455
Se16 Tb5 2.984943 1_555
Se16 Tb3 2.984943 1_555
Se17 Zr0 2.737934 1_556
Se17 Tb7 2.948899 1_565
Se17 Tb1 2.948899 1_555
Se17 Tb4 2.984943 1_555
Se17 Tb2 2.984943 1_555
Se18 Zr3 2.737934 1_555
Se18 Tb4 2.948899 1_645
Se18 Tb2 2.948899 1_655
Se18 Tb1 2.984943 1_555
Se18 Tb7 2.984943 1_555
Se19 Zr2 2.737934 1_554
Se19 Tb5 2.948899 1_555
Se19 Tb3 2.948899 1_545
Se19 Tb6 2.984943 1_555
Se19 Tb0 2.984943 1_555
