# generated using pymatgen
data_Sr3MgO4
_symmetry_space_group_name_H-M   'P 1'
_cell_length_a   7.39199221
_cell_length_b   7.39199221
_cell_length_c   3.38585800
_cell_angle_alpha   90.00000000
_cell_angle_beta   90.00000000
_cell_angle_gamma   128.06908585
_symmetry_Int_Tables_number   1
_chemical_formula_structural   Sr3MgO4
_chemical_formula_sum   'Sr3 Mg1 O4'
_cell_volume   145.65126044
_cell_formula_units_Z   1
loop_
 _symmetry_equiv_pos_site_id
 _symmetry_equiv_pos_as_xyz
  1  'x, y, z'
loop_
 _atom_site_type_symbol
 _atom_site_label
 _atom_site_symmetry_multiplicity
 _atom_site_fract_x
 _atom_site_fract_y
 _atom_site_fract_z
 _atom_site_occupancy
  Sr  Sr0  1  0.79421100  0.20578900  0.50000000  1
  Sr  Sr1  1  0.50000000  0.50000000  0.00000000  1
  Sr  Sr2  1  0.20578900  0.79421100  0.50000000  1
  Mg  Mg0  1  0.00000000  0.00000000  0.00000000  1
  O  O0  1  0.79168300  0.79168300  0.50000000  1
  O  O1  1  0.50000000  0.00000000  0.00000000  1
  O  O2  1  0.20831700  0.20831700  0.50000000  1
  O  O3  1  0.00000000  0.50000000  0.00000000  1
loop_
_geom_bond_atom_site_label_1
_geom_bond_atom_site_label_2
_geom_bond_distance
_geom_bond_site_symmetry_2
Mg0 O2 2.164303 1_555
Mg0 O2 2.164303 1_554
Mg0 O0 2.164303 1_445
Mg0 O0 2.164303 1_444
O0 Sr1 2.535871 1_555
O0 Sr1 2.535871 1_556
O0 Sr0 3.049581 1_565
O0 Sr2 3.049581 1_655
O1 Sr0 2.414528 1_555
O1 Sr0 2.414528 1_554
O1 Sr2 2.414528 1_544
O1 Sr2 2.414528 1_545
O2 Sr1 2.535871 1_555
O2 Sr1 2.535871 1_556
O2 Sr2 3.049581 1_545
O2 Sr0 3.049581 1_455
O3 Sr2 2.414528 1_554
O3 Sr2 2.414528 1_555
O3 Sr0 2.414528 1_455
O3 Sr0 2.414528 1_454
