# generated using pymatgen
data_Y2MgSe4
_symmetry_space_group_name_H-M   'P 1'
_cell_length_a   14.17935700
_cell_length_b   8.26640000
_cell_length_c   6.84520700
_cell_angle_alpha   90.00000000
_cell_angle_beta   90.00000000
_cell_angle_gamma   90.00000000
_symmetry_Int_Tables_number   1
_chemical_formula_structural   Y2MgSe4
_chemical_formula_sum   'Y8 Mg4 Se16'
_cell_volume   802.34202318
_cell_formula_units_Z   4
loop_
 _symmetry_equiv_pos_site_id
 _symmetry_equiv_pos_as_xyz
  1  'x, y, z'
loop_
 _atom_site_type_symbol
 _atom_site_label
 _atom_site_symmetry_multiplicity
 _atom_site_fract_x
 _atom_site_fract_y
 _atom_site_fract_z
 _atom_site_occupancy
  Y  Y0  1  0.00000000  0.00000000  0.50000000  1
  Y  Y1  1  0.50000000  0.00000000  0.00000000  1
  Y  Y2  1  0.50000000  0.50000000  0.00000000  1
  Y  Y3  1  0.00000000  0.50000000  0.50000000  1
  Y  Y4  1  0.23488100  0.75000000  0.00430600  1
  Y  Y5  1  0.76511900  0.25000000  0.99569400  1
  Y  Y6  1  0.26511900  0.25000000  0.50430600  1
  Y  Y7  1  0.73488100  0.75000000  0.49569400  1
  Mg  Mg0  1  0.09245100  0.25000000  0.91951900  1
  Mg  Mg1  1  0.90754900  0.75000000  0.08048100  1
  Mg  Mg2  1  0.40754900  0.75000000  0.41951900  1
  Mg  Mg3  1  0.59245100  0.25000000  0.58048100  1
  Se  Se0  1  0.16911900  0.00596500  0.74117200  1
  Se  Se1  1  0.83088100  0.99403500  0.25882800  1
  Se  Se2  1  0.33088100  0.99403500  0.24117200  1
  Se  Se3  1  0.66911900  0.00596500  0.75882800  1
  Se  Se4  1  0.66911900  0.49403500  0.75882800  1
  Se  Se5  1  0.33088100  0.50596500  0.24117200  1
  Se  Se6  1  0.83088100  0.50596500  0.25882800  1
  Se  Se7  1  0.16911900  0.49403500  0.74117200  1
  Se  Se8  1  0.07266600  0.75000000  0.24969900  1
  Se  Se9  1  0.92733400  0.25000000  0.75030100  1
  Se  Se10  1  0.42733400  0.25000000  0.74969900  1
  Se  Se11  1  0.57266600  0.75000000  0.25030100  1
  Se  Se12  1  0.09186400  0.25000000  0.28908400  1
  Se  Se13  1  0.90813600  0.75000000  0.71091600  1
  Se  Se14  1  0.40813600  0.75000000  0.78908400  1
  Se  Se15  1  0.59186400  0.25000000  0.21091600  1
loop_
_geom_bond_atom_site_label_1
_geom_bond_atom_site_label_2
_geom_bond_distance
_geom_bond_site_symmetry_2
Mg0 Se12 2.529763 1_556
Mg0 Se0 2.596471 1_555
Mg0 Se7 2.596471 1_555
Mg0 Se9 2.612125 1_455
Mg1 Se13 2.529763 1_554
Mg1 Se1 2.596471 1_555
Mg1 Se6 2.596471 1_555
Mg1 Se8 2.612125 1_655
Mg2 Se14 2.529763 1_555
Mg2 Se2 2.596471 1_555
Mg2 Se5 2.596471 1_555
Mg2 Se11 2.612125 1_555
Mg3 Se15 2.529763 1_555
Mg3 Se3 2.596471 1_555
Mg3 Se4 2.596471 1_555
Mg3 Se10 2.612125 1_555
Se0 Y0 2.911736 1_555
Se0 Y6 2.924262 1_555
Se0 Y4 2.931024 1_546
Se1 Y0 2.911736 1_665
Se1 Y7 2.924262 1_555
Se1 Y5 2.931024 1_564
Se2 Y1 2.911736 1_565
Se2 Y4 2.924262 1_555
Se2 Y6 2.931024 1_565
Se3 Y1 2.911736 1_556
Se3 Y5 2.924262 1_555
Se3 Y7 2.931024 1_545
Se4 Y2 2.911736 1_556
Se4 Y5 2.924262 1_555
Se4 Y7 2.931024 1_555
Se5 Y2 2.911736 1_555
Se5 Y4 2.924262 1_555
Se5 Y6 2.931024 1_555
Se6 Y3 2.911736 1_655
Se6 Y7 2.924262 1_555
Se6 Y5 2.931024 1_554
Se7 Y3 2.911736 1_555
Se7 Y6 2.924262 1_555
Se7 Y4 2.931024 1_556
Se8 Y4 2.848174 1_555
Se8 Y3 2.875427 1_555
Se8 Y0 2.875427 1_565
Se9 Y5 2.848174 1_555
Se9 Y3 2.875427 1_655
Se9 Y0 2.875427 1_655
Se10 Y6 2.848174 1_555
Se10 Y1 2.875427 1_556
Se10 Y2 2.875427 1_556
Se11 Y7 2.848174 1_555
Se11 Y1 2.875427 1_565
Se11 Y2 2.875427 1_555
Se12 Y0 2.837602 1_555
Se12 Y3 2.837602 1_555
Se12 Y6 2.864531 1_555
Se13 Y3 2.837602 1_655
Se13 Y0 2.837602 1_665
Se13 Y7 2.864531 1_555
Se14 Y2 2.837602 1_556
Se14 Y1 2.837602 1_566
Se14 Y4 2.864531 1_556
Se15 Y2 2.837602 1_555
Se15 Y1 2.837602 1_555
Se15 Y5 2.864531 1_554
