# generated using pymatgen
data_Ca5(GePd)6
_symmetry_space_group_name_H-M   'P 1'
_cell_length_a   7.60755216
_cell_length_b   7.60755216
_cell_length_c   7.60755216
_cell_angle_alpha   109.47122063
_cell_angle_beta   109.47122063
_cell_angle_gamma   109.47122063
_symmetry_Int_Tables_number   1
_chemical_formula_structural   Ca5(GePd)6
_chemical_formula_sum   'Ca5 Ge6 Pd6'
_cell_volume   338.93227455
_cell_formula_units_Z   1
loop_
 _symmetry_equiv_pos_site_id
 _symmetry_equiv_pos_as_xyz
  1  'x, y, z'
loop_
 _atom_site_type_symbol
 _atom_site_label
 _atom_site_symmetry_multiplicity
 _atom_site_fract_x
 _atom_site_fract_y
 _atom_site_fract_z
 _atom_site_occupancy
  Ca  Ca0  1  -0.00000000  -0.00000000  -0.00000000  1
  Ca  Ca1  1  -0.00000000  -0.00000000  0.50000000  1
  Ca  Ca2  1  -0.00000000  0.50000000  -0.00000000  1
  Ca  Ca3  1  0.50000000  -0.00000000  -0.00000000  1
  Ca  Ca4  1  0.50000000  0.50000000  0.50000000  1
  Ge  Ge0  1  0.65178389  0.65178389  0.00000000  1
  Ge  Ge1  1  0.34821611  -0.00000000  0.34821611  1
  Ge  Ge2  1  -0.00000000  0.34821611  0.34821611  1
  Ge  Ge3  1  0.34821611  0.34821611  -0.00000000  1
  Ge  Ge4  1  0.65178389  0.00000000  0.65178389  1
  Ge  Ge5  1  0.00000000  0.65178389  0.65178389  1
  Pd  Pd0  1  0.75000000  0.50000000  0.25000000  1
  Pd  Pd1  1  0.50000000  0.25000000  0.75000000  1
  Pd  Pd2  1  0.75000000  0.25000000  0.50000000  1
  Pd  Pd3  1  0.25000000  0.75000000  0.50000000  1
  Pd  Pd4  1  0.50000000  0.75000000  0.25000000  1
  Pd  Pd5  1  0.25000000  0.50000000  0.75000000  1
loop_
_geom_bond_atom_site_label_1
_geom_bond_atom_site_label_2
_geom_bond_distance
_geom_bond_site_symmetry_2
Ca0 Ge0 3.058885 1_445
Ca0 Ge4 3.058885 1_454
Ca0 Ge5 3.058885 1_544
Ca0 Ge1 3.058885 1_555
Ca0 Ge3 3.058885 1_555
Ca0 Ge2 3.058885 1_555
Ca1 Pd3 3.105770 1_545
Ca1 Pd2 3.105770 1_455
Ca1 Pd4 3.105770 1_445
Ca1 Pd1 3.105770 1_555
Ca1 Pd5 3.105770 1_555
Ca1 Pd0 3.105770 1_445
Ca1 Ge5 3.223381 1_545
Ca1 Ge4 3.223381 1_455
Ca1 Ge1 3.223381 1_555
Ca1 Ge0 3.223381 1_445
Ca1 Ge2 3.223381 1_555
Ca1 Ge3 3.223381 1_556
Ca2 Pd5 3.105770 1_554
Ca2 Pd2 3.105770 1_454
Ca2 Pd0 3.105770 1_455
Ca2 Pd3 3.105770 1_555
Ca2 Pd1 3.105770 1_454
Ca2 Pd4 3.105770 1_555
Ca2 Ge2 3.223381 1_555
Ca2 Ge5 3.223381 1_554
Ca2 Ge4 3.223381 1_454
Ca2 Ge3 3.223381 1_555
Ca2 Ge0 3.223381 1_455
Ca2 Ge1 3.223381 1_565
Ca3 Pd3 3.105770 1_544
Ca3 Pd4 3.105770 1_545
Ca3 Pd2 3.105770 1_555
Ca3 Pd1 3.105770 1_554
Ca3 Pd5 3.105770 1_544
Ca3 Pd0 3.105770 1_555
Ca3 Ge5 3.223381 1_544
Ca3 Ge2 3.223381 1_655
Ca3 Ge4 3.223381 1_554
Ca3 Ge0 3.223381 1_545
Ca3 Ge3 3.223381 1_555
Ca3 Ge1 3.223381 1_555
Ca4 Pd4 3.105770 1_555
Ca4 Pd5 3.105770 1_555
Ca4 Pd2 3.105770 1_555
Ca4 Pd3 3.105770 1_555
Ca4 Pd0 3.105770 1_555
Ca4 Pd1 3.105770 1_555
Ca4 Ge5 3.223381 1_655
Ca4 Ge4 3.223381 1_565
Ca4 Ge0 3.223381 1_556
Ca4 Ge1 3.223381 1_555
Ca4 Ge3 3.223381 1_555
Ca4 Ge2 3.223381 1_555
Ge0 Pd5 2.569181 1_554
Ge0 Pd4 2.569181 1_555
Ge0 Pd1 2.569181 1_554
Ge0 Pd0 2.569181 1_555
Ge0 Ge3 2.666674 1_555
Ge1 Pd2 2.569181 1_555
Ge1 Pd4 2.569181 1_545
Ge1 Pd3 2.569181 1_545
Ge1 Pd1 2.569181 1_555
Ge1 Ge4 2.666674 1_555
Ge2 Pd0 2.569181 1_455
Ge2 Pd3 2.569181 1_555
Ge2 Pd2 2.569181 1_455
Ge2 Pd5 2.569181 1_555
Ge2 Ge5 2.666674 1_555
Ge3 Pd5 2.569181 1_554
Ge3 Pd4 2.569181 1_555
Ge3 Pd1 2.569181 1_554
Ge3 Pd0 2.569181 1_555
Ge4 Pd1 2.569181 1_555
Ge4 Pd4 2.569181 1_545
Ge4 Pd2 2.569181 1_555
Ge4 Pd3 2.569181 1_545
Ge5 Pd5 2.569181 1_555
Ge5 Pd0 2.569181 1_455
Ge5 Pd3 2.569181 1_555
Ge5 Pd2 2.569181 1_455
