# generated using pymatgen
data_LiMg30BO32
_symmetry_space_group_name_H-M   'P 1'
_cell_length_a   8.44766000
_cell_length_b   8.44766000
_cell_length_c   8.51947800
_cell_angle_alpha   90.00000000
_cell_angle_beta   90.00000000
_cell_angle_gamma   90.00000000
_symmetry_Int_Tables_number   1
_chemical_formula_structural   LiMg30BO32
_chemical_formula_sum   'Li1 Mg30 B1 O32'
_cell_volume   607.97516327
_cell_formula_units_Z   1
loop_
 _symmetry_equiv_pos_site_id
 _symmetry_equiv_pos_as_xyz
  1  'x, y, z'
loop_
 _atom_site_type_symbol
 _atom_site_label
 _atom_site_symmetry_multiplicity
 _atom_site_fract_x
 _atom_site_fract_y
 _atom_site_fract_z
 _atom_site_occupancy
  Li  Li0  1  0.00000000  0.00000000  0.00000000  1
  Mg  Mg0  1  0.00000000  0.50000000  0.00000000  1
  Mg  Mg1  1  0.50000000  0.00000000  0.00000000  1
  Mg  Mg2  1  0.00000000  0.00000000  0.50000000  1
  Mg  Mg3  1  0.00000000  0.50000000  0.50000000  1
  Mg  Mg4  1  0.50000000  0.00000000  0.50000000  1
  Mg  Mg5  1  0.50000000  0.50000000  0.50000000  1
  Mg  Mg6  1  0.24920500  0.24920500  0.00000000  1
  Mg  Mg7  1  0.24920500  0.75079500  0.00000000  1
  Mg  Mg8  1  0.75079500  0.24920500  0.00000000  1
  Mg  Mg9  1  0.75079500  0.75079500  0.00000000  1
  Mg  Mg10  1  0.24917000  0.24917000  0.50000000  1
  Mg  Mg11  1  0.24917000  0.75083000  0.50000000  1
  Mg  Mg12  1  0.75083000  0.24917000  0.50000000  1
  Mg  Mg13  1  0.75083000  0.75083000  0.50000000  1
  Mg  Mg14  1  0.00000000  0.24685700  0.24706800  1
  Mg  Mg15  1  0.00000000  0.75314300  0.24706800  1
  Mg  Mg16  1  0.50000000  0.25411500  0.25060700  1
  Mg  Mg17  1  0.50000000  0.74588500  0.25060700  1
  Mg  Mg18  1  0.00000000  0.24685700  0.75293200  1
  Mg  Mg19  1  0.00000000  0.75314300  0.75293200  1
  Mg  Mg20  1  0.50000000  0.25411500  0.74939300  1
  Mg  Mg21  1  0.50000000  0.74588500  0.74939300  1
  Mg  Mg22  1  0.24685700  0.00000000  0.24706800  1
  Mg  Mg23  1  0.25411500  0.50000000  0.25060700  1
  Mg  Mg24  1  0.75314300  0.00000000  0.24706800  1
  Mg  Mg25  1  0.74588500  0.50000000  0.25060700  1
  Mg  Mg26  1  0.24685700  0.00000000  0.75293200  1
  Mg  Mg27  1  0.25411500  0.50000000  0.74939300  1
  Mg  Mg28  1  0.75314300  0.00000000  0.75293200  1
  Mg  Mg29  1  0.74588500  0.50000000  0.74939300  1
  B  B0  1  0.50000000  0.50000000  0.00000000  1
  O  O0  1  0.00000000  0.00000000  0.25446100  1
  O  O1  1  0.00000000  0.50000000  0.24470800  1
  O  O2  1  0.50000000  0.00000000  0.24470800  1
  O  O3  1  0.50000000  0.50000000  0.25302200  1
  O  O4  1  0.00000000  0.00000000  0.74553900  1
  O  O5  1  0.00000000  0.50000000  0.75529200  1
  O  O6  1  0.50000000  0.00000000  0.75529200  1
  O  O7  1  0.50000000  0.50000000  0.74697800  1
  O  O8  1  0.25073800  0.25073800  0.24844700  1
  O  O9  1  0.25073800  0.74926200  0.24844700  1
  O  O10  1  0.74926200  0.25073800  0.24844700  1
  O  O11  1  0.74926200  0.74926200  0.24844700  1
  O  O12  1  0.25073800  0.25073800  0.75155300  1
  O  O13  1  0.25073800  0.74926200  0.75155300  1
  O  O14  1  0.74926200  0.25073800  0.75155300  1
  O  O15  1  0.74926200  0.74926200  0.75155300  1
  O  O16  1  0.00000000  0.26204300  0.00000000  1
  O  O17  1  0.00000000  0.73795700  0.00000000  1
  O  O18  1  0.50000000  0.29319600  0.00000000  1
  O  O19  1  0.50000000  0.70680400  0.00000000  1
  O  O20  1  0.00000000  0.25191600  0.50000000  1
  O  O21  1  0.00000000  0.74808400  0.50000000  1
  O  O22  1  0.50000000  0.24972800  0.50000000  1
  O  O23  1  0.50000000  0.75027200  0.50000000  1
  O  O24  1  0.26204300  0.00000000  0.00000000  1
  O  O25  1  0.29319600  0.50000000  0.00000000  1
  O  O26  1  0.73795700  0.00000000  0.00000000  1
  O  O27  1  0.70680400  0.50000000  0.00000000  1
  O  O28  1  0.25191600  0.00000000  0.50000000  1
  O  O29  1  0.24972800  0.50000000  0.50000000  1
  O  O30  1  0.74808400  0.00000000  0.50000000  1
  O  O31  1  0.75027200  0.50000000  0.50000000  1
loop_
_geom_bond_atom_site_label_1
_geom_bond_atom_site_label_2
_geom_bond_distance
_geom_bond_site_symmetry_2
Li0 O0 2.167875 1_555
Li0 O4 2.167875 1_554
Li0 O16 2.213650 1_555
Li0 O26 2.213650 1_455
Li0 O17 2.213650 1_545
Li0 O24 2.213650 1_555
Mg0 O17 2.010180 1_555
Mg0 O16 2.010180 1_555
Mg0 O1 2.084784 1_555
Mg0 O5 2.084784 1_554
Mg0 O27 2.476820 1_455
Mg0 O25 2.476820 1_555
Mg1 O26 2.010180 1_555
Mg1 O24 2.010180 1_555
Mg1 O2 2.084784 1_555
Mg1 O6 2.084784 1_554
Mg1 O19 2.476820 1_545
Mg1 O18 2.476820 1_555
Mg2 O4 2.091864 1_555
Mg2 O0 2.091864 1_555
Mg2 O20 2.128101 1_555
Mg2 O28 2.128101 1_555
Mg2 O30 2.128101 1_455
Mg2 O21 2.128101 1_545
Mg3 O21 2.095729 1_555
Mg3 O20 2.095729 1_555
Mg3 O31 2.109617 1_455
Mg3 O29 2.109617 1_555
Mg3 O5 2.174955 1_555
Mg3 O1 2.174955 1_555
Mg4 O30 2.095729 1_555
Mg4 O28 2.095729 1_555
Mg4 O23 2.109617 1_545
Mg4 O22 2.109617 1_555
Mg4 O2 2.174955 1_555
Mg4 O6 2.174955 1_555
Mg5 O3 2.104124 1_555
Mg5 O7 2.104124 1_555
Mg5 O22 2.114213 1_555
Mg5 O29 2.114213 1_555
Mg5 O23 2.114213 1_555
Mg5 O31 2.114213 1_555
Mg6 O24 2.107991 1_555
Mg6 O16 2.107991 1_555
Mg6 O12 2.116718 1_554
Mg6 O8 2.116718 1_555
Mg6 O25 2.150976 1_555
Mg6 O18 2.150976 1_555
Mg7 O24 2.107991 1_565
Mg7 O17 2.107991 1_555
Mg7 O13 2.116718 1_554
Mg7 O9 2.116718 1_555
Mg7 O25 2.150976 1_555
Mg7 O19 2.150976 1_555
Mg8 O26 2.107991 1_555
Mg8 O16 2.107991 1_655
Mg8 O14 2.116718 1_554
Mg8 O10 2.116718 1_555
Mg8 O27 2.150976 1_555
Mg8 O18 2.150976 1_555
Mg9 O26 2.107991 1_565
Mg9 O17 2.107991 1_655
Mg9 O15 2.116718 1_554
Mg9 O11 2.116718 1_555
Mg9 O27 2.150976 1_555
Mg9 O19 2.150976 1_555
Mg10 O20 2.105031 1_555
Mg10 O28 2.105031 1_555
Mg10 O22 2.118932 1_555
Mg10 O29 2.118932 1_555
Mg10 O12 2.143182 1_555
Mg10 O8 2.143182 1_555
Mg11 O28 2.105031 1_565
Mg11 O21 2.105031 1_555
Mg11 O23 2.118932 1_555
Mg11 O29 2.118932 1_555
Mg11 O13 2.143182 1_555
Mg11 O9 2.143182 1_555
Mg12 O30 2.105031 1_555
Mg12 O20 2.105031 1_655
Mg12 O31 2.118932 1_555
Mg12 O22 2.118932 1_555
Mg12 O10 2.143182 1_555
Mg12 O14 2.143182 1_555
Mg13 O30 2.105031 1_565
Mg13 O21 2.105031 1_655
Mg13 O31 2.118932 1_555
Mg13 O23 2.118932 1_555
Mg13 O15 2.143182 1_555
Mg13 O11 2.143182 1_555
Mg14 O0 2.086315 1_555
Mg14 O16 2.108796 1_555
Mg14 O8 2.118436 1_555
Mg14 O10 2.118436 1_455
Mg14 O1 2.138561 1_555
Mg14 O20 2.155272 1_555
Mg15 O0 2.086315 1_565
Mg15 O17 2.108796 1_555
Mg15 O9 2.118436 1_555
Mg15 O11 2.118436 1_455
Mg15 O1 2.138561 1_555
Mg15 O21 2.155272 1_555
Mg16 O3 2.077255 1_555
Mg16 O10 2.105954 1_555
Mg16 O8 2.105954 1_555
Mg16 O22 2.125021 1_555
Mg16 O2 2.147265 1_555
Mg16 O18 2.160415 1_555
Mg17 O3 2.077255 1_555
Mg17 O9 2.105954 1_555
Mg17 O11 2.105954 1_555
Mg17 O23 2.125021 1_555
Mg17 O2 2.147265 1_565
Mg17 O19 2.160415 1_555
Mg18 O4 2.086315 1_555
Mg18 O16 2.108796 1_556
Mg18 O14 2.118436 1_455
Mg18 O12 2.118436 1_555
Mg18 O5 2.138561 1_555
Mg18 O20 2.155272 1_555
Mg19 O4 2.086315 1_565
Mg19 O17 2.108796 1_556
Mg19 O15 2.118436 1_455
Mg19 O13 2.118436 1_555
Mg19 O5 2.138561 1_555
Mg19 O21 2.155272 1_555
Mg20 O7 2.077255 1_555
Mg20 O12 2.105954 1_555
Mg20 O14 2.105954 1_555
Mg20 O22 2.125021 1_555
Mg20 O6 2.147265 1_555
Mg20 O18 2.160415 1_556
Mg21 O7 2.077255 1_555
Mg21 O15 2.105954 1_555
Mg21 O13 2.105954 1_555
Mg21 O23 2.125021 1_555
Mg21 O6 2.147265 1_565
Mg21 O19 2.160415 1_556
Mg22 O0 2.086315 1_555
Mg22 O24 2.108796 1_555
Mg22 O9 2.118436 1_545
Mg22 O8 2.118436 1_555
Mg22 O2 2.138561 1_555
Mg22 O28 2.155272 1_555
Mg23 O3 2.077255 1_555
Mg23 O9 2.105954 1_555
Mg23 O8 2.105954 1_555
Mg23 O29 2.125021 1_555
Mg23 O1 2.147265 1_555
Mg23 O25 2.160415 1_555
Mg24 O0 2.086315 1_655
Mg24 O26 2.108796 1_555
Mg24 O11 2.118436 1_545
Mg24 O10 2.118436 1_555
Mg24 O2 2.138561 1_555
Mg24 O30 2.155272 1_555
Mg25 O3 2.077255 1_555
Mg25 O10 2.105954 1_555
Mg25 O11 2.105954 1_555
Mg25 O31 2.125021 1_555
Mg25 O1 2.147265 1_655
Mg25 O27 2.160415 1_555
Mg26 O4 2.086315 1_555
Mg26 O24 2.108796 1_556
Mg26 O12 2.118436 1_555
Mg26 O13 2.118436 1_545
Mg26 O6 2.138561 1_555
Mg26 O28 2.155272 1_555
Mg27 O7 2.077255 1_555
Mg27 O13 2.105954 1_555
Mg27 O12 2.105954 1_555
Mg27 O29 2.125021 1_555
Mg27 O5 2.147265 1_555
Mg27 O25 2.160415 1_556
Mg28 O4 2.086315 1_655
Mg28 O26 2.108796 1_556
Mg28 O15 2.118436 1_545
Mg28 O14 2.118436 1_555
Mg28 O6 2.138561 1_555
Mg28 O30 2.155272 1_555
Mg29 O7 2.077255 1_555
Mg29 O15 2.105954 1_555
Mg29 O14 2.105954 1_555
Mg29 O31 2.125021 1_555
Mg29 O5 2.147265 1_655
Mg29 O27 2.160415 1_556
B0 O18 1.747010 1_555
B0 O19 1.747010 1_555
B0 O27 1.747010 1_555
B0 O25 1.747010 1_555
B0 O7 2.155615 1_554
B0 O3 2.155615 1_555
