# generated using pymatgen
data_Li4MnCo2O7
_symmetry_space_group_name_H-M   'P 1'
_cell_length_a   15.06005630
_cell_length_b   15.06005630
_cell_length_c   5.88890772
_cell_angle_alpha   84.17061751
_cell_angle_beta   84.17061751
_cell_angle_gamma   11.10844945
_symmetry_Int_Tables_number   1
_chemical_formula_structural   Li4MnCo2O7
_chemical_formula_sum   'Li8 Mn2 Co4 O14'
_cell_volume   255.98909806
_cell_formula_units_Z   2
loop_
 _symmetry_equiv_pos_site_id
 _symmetry_equiv_pos_as_xyz
  1  'x, y, z'
loop_
 _atom_site_type_symbol
 _atom_site_label
 _atom_site_symmetry_multiplicity
 _atom_site_fract_x
 _atom_site_fract_y
 _atom_site_fract_z
 _atom_site_occupancy
  Li  Li0  1  0.78837600  0.78837600  0.85234200  1
  Li  Li1  1  0.93375500  0.93375500  0.28942400  1
  Li  Li2  1  0.06624500  0.06624500  0.71057600  1
  Li  Li3  1  0.36248700  0.36248700  0.56555000  1
  Li  Li4  1  0.50000000  0.50000000  0.00000000  1
  Li  Li5  1  0.63751300  0.63751300  0.43445000  1
  Li  Li6  1  0.21162400  0.21162400  0.14765800  1
  Li  Li7  1  0.50000000  0.50000000  0.50000000  1
  Mn  Mn0  1  0.21110000  0.21110000  0.64705300  1
  Mn  Mn1  1  0.78890000  0.78890000  0.35294700  1
  Co  Co0  1  0.36340100  0.36340100  0.06680700  1
  Co  Co1  1  0.63659900  0.63659900  0.93319300  1
  Co  Co2  1  0.93507000  0.93507000  0.77183000  1
  Co  Co3  1  0.06493000  0.06493000  0.22817000  1
  O  O0  1  0.71101500  0.71101500  0.87588800  1
  O  O1  1  0.86135500  0.86135500  0.29578200  1
  O  O2  1  0.99413700  0.99413700  0.75411500  1
  O  O3  1  0.28753100  0.28753100  0.58081500  1
  O  O4  1  0.42956200  0.42956200  0.01706400  1
  O  O5  1  0.56958000  0.56958000  0.44726600  1
  O  O6  1  0.13601300  0.13601300  0.16623900  1
  O  O7  1  0.86398700  0.86398700  0.83376100  1
  O  O8  1  0.00586300  0.00586300  0.24588500  1
  O  O9  1  0.13864500  0.13864500  0.70421800  1
  O  O10  1  0.43042000  0.43042000  0.55273400  1
  O  O11  1  0.57043800  0.57043800  0.98293600  1
  O  O12  1  0.71246900  0.71246900  0.41918500  1
  O  O13  1  0.28898500  0.28898500  0.12411100  1
loop_
_geom_bond_atom_site_label_1
_geom_bond_atom_site_label_2
_geom_bond_distance
_geom_bond_site_symmetry_2
Li0 O3 2.165729 1_565
Li0 O3 2.165729 1_655
Li0 O13 2.166179 1_566
Li0 O13 2.166179 1_656
Li0 O7 2.258178 1_555
Li0 O0 2.309156 1_555
Li1 O10 2.123070 1_565
Li1 O10 2.123070 1_655
Li1 O8 2.150717 1_665
Li1 O1 2.166957 1_555
Li1 O4 2.180398 1_565
Li1 O4 2.180398 1_655
Li2 O5 2.123070 1_455
Li2 O5 2.123070 1_545
Li2 O2 2.150717 1_445
Li2 O9 2.166957 1_555
Li2 O11 2.180398 1_455
Li2 O11 2.180398 1_545
Li3 O10 2.030230 1_555
Li3 O7 2.153120 1_545
Li3 O7 2.153120 1_455
Li3 O1 2.158845 1_545
Li3 O1 2.158845 1_455
Li3 O3 2.239696 1_555
Li4 O8 2.074658 1_655
Li4 O8 2.074658 1_565
Li4 O2 2.074658 1_544
Li4 O2 2.074658 1_454
Li4 O4 2.103762 1_555
Li4 O11 2.103762 1_554
Li5 O5 2.030230 1_555
Li5 O6 2.153120 1_655
Li5 O6 2.153120 1_565
Li5 O9 2.158845 1_565
Li5 O9 2.158845 1_655
Li5 O12 2.239696 1_555
Li6 O12 2.165729 1_455
Li6 O12 2.165729 1_545
Li6 O0 2.166183 1_544
Li6 O0 2.166183 1_454
Li6 O6 2.258178 1_555
Li6 O13 2.309156 1_555
Li7 O5 2.077327 1_555
Li7 O10 2.077327 1_555
Li7 O2 2.083575 1_455
Li7 O8 2.083575 1_655
Li7 O8 2.083575 1_565
Li7 O2 2.083575 1_545
Mn0 O12 1.978839 1_455
Mn0 O12 1.978839 1_545
Mn0 O0 1.984939 1_455
Mn0 O0 1.984939 1_545
Mn0 O9 2.163825 1_555
Mn0 O3 2.284690 1_555
Mn1 O3 1.978839 1_655
Mn1 O3 1.978839 1_565
Mn1 O13 1.984943 1_565
Mn1 O13 1.984943 1_655
Mn1 O1 2.163825 1_555
Mn1 O12 2.284690 1_555
Co0 O4 1.975143 1_555
Co0 O1 1.982368 1_455
Co0 O1 1.982368 1_545
Co0 O7 2.000879 1_544
Co0 O7 2.000879 1_454
Co0 O13 2.221964 1_555
Co1 O11 1.975143 1_555
Co1 O9 1.982368 1_565
Co1 O9 1.982368 1_655
Co1 O6 2.000879 1_566
Co1 O6 2.000879 1_656
Co1 O0 2.221964 1_555
Co2 O2 1.763163 1_555
Co2 O10 1.961003 1_655
Co2 O10 1.961003 1_565
Co2 O4 2.046675 1_566
Co2 O4 2.046675 1_656
Co2 O7 2.124960 1_555
Co3 O8 1.763163 1_555
Co3 O5 1.961003 1_545
Co3 O5 1.961003 1_455
Co3 O11 2.046675 1_544
Co3 O11 2.046675 1_454
Co3 O6 2.124960 1_555
