# generated using pymatgen
data_TbIn2Pd
_symmetry_space_group_name_H-M   'P 1'
_cell_length_a   10.78275453
_cell_length_b   10.78276387
_cell_length_c   10.78542546
_cell_angle_alpha   100.39121981
_cell_angle_beta   100.39122460
_cell_angle_gamma   129.73699266
_symmetry_Int_Tables_number   1
_chemical_formula_structural   TbIn2Pd
_chemical_formula_sum   'Tb10 In20 Pd10'
_cell_volume   873.02208835
_cell_formula_units_Z   10
loop_
 _symmetry_equiv_pos_site_id
 _symmetry_equiv_pos_as_xyz
  1  'x, y, z'
loop_
 _atom_site_type_symbol
 _atom_site_label
 _atom_site_symmetry_multiplicity
 _atom_site_fract_x
 _atom_site_fract_y
 _atom_site_fract_z
 _atom_site_occupancy
  Tb  Tb0  1  0.52731218  0.52731222  0.99992278  1
  Tb  Tb1  1  0.99832933  0.99832928  0.00001947  1
  Tb  Tb2  1  0.87971193  0.60004433  0.27954464  1
  Tb  Tb3  1  0.32068887  0.60009906  0.72067179  1
  Tb  Tb4  1  0.60009912  0.32068809  0.72067186  1
  Tb  Tb5  1  0.60004428  0.87971181  0.27954458  1
  Tb  Tb6  1  0.91146657  0.31543861  -0.00000560  1
  Tb  Tb7  1  0.31543851  0.91146645  -0.00000573  1
  Tb  Tb8  1  0.31541204  0.31541229  0.40391765  1
  Tb  Tb9  1  0.91157841  0.91157862  0.59602149  1
  In  In0  1  0.00521345  0.51242168  0.79091989  1
  In  In1  1  0.72121113  0.21398250  0.20886429  1
  In  In2  1  0.51258857  0.72139793  0.50745449  1
  In  In3  1  0.00509853  0.21411275  0.49257867  1
  In  In4  1  0.21411248  0.00509877  0.49257888  1
  In  In5  1  0.72139812  0.51258864  0.50745457  1
  In  In6  1  0.51242155  0.00521343  0.79092007  1
  In  In7  1  0.21398261  0.72121097  0.20886422  1
  In  In8  1  0.43363161  0.27088410  0.16285851  1
  In  In9  1  0.10801301  0.27073639  0.83718455  1
  In  In10  1  0.27073659  0.10801318  0.83718450  1
  In  In11  1  0.27088429  0.43363176  0.16285868  1
  In  In12  1  0.89775341  0.63480881  0.99999164  1
  In  In13  1  0.63480913  0.89775353  0.99999215  1
  In  In14  1  0.63486909  0.63486988  0.73725742  1
  In  In15  1  0.89731690  0.89731687  0.26269710  1
  In  In16  1  0.50718107  0.12430983  0.38294365  1
  In  In17  1  0.74112129  0.12412538  0.61700732  1
  In  In18  1  0.12412538  0.74112112  0.61700725  1
  In  In19  1  0.12430980  0.50718103  0.38294388  1
  Pd  Pd0  1  0.17784990  0.96290667  0.21498239  1
  Pd  Pd1  1  0.74807382  0.96302426  0.78515822  1
  Pd  Pd2  1  0.96302662  0.74807524  0.78515852  1
  Pd  Pd3  1  0.96290707  0.17785029  0.21498265  1
  Pd  Pd4  1  0.29528168  0.61676408  0.00002791  1
  Pd  Pd5  1  0.61676420  0.29528209  0.00002796  1
  Pd  Pd6  1  0.61696271  0.61696253  0.32167881  1
  Pd  Pd7  1  0.29510180  0.29510237  0.67822873  1
  Pd  Pd8  1  0.87278485  0.37279022  0.49994461  1
  Pd  Pd9  1  0.37279011  0.87278592  0.49994451  1
loop_
_geom_bond_atom_site_label_1
_geom_bond_atom_site_label_2
_geom_bond_distance
_geom_bond_site_symmetry_2
In0 Pd8 2.843405 1_455
In0 Pd4 2.859348 1_556
In0 Pd2 2.862172 1_455
In0 In12 3.161163 1_455
In0 Tb3 3.180528 1_555
In0 Tb7 3.188295 1_556
In0 Tb6 3.228480 1_456
In0 Tb4 3.259525 1_455
In1 Pd8 2.844471 1_555
In1 Pd5 2.858252 1_555
In1 Pd3 2.862441 1_555
In1 In13 3.159135 1_544
In1 Tb2 3.181221 1_555
In1 Tb6 3.188577 1_555
In1 Tb7 3.225685 1_545
In1 Tb5 3.257180 1_545
In2 Pd9 2.844857 1_555
In2 Pd6 2.858198 1_555
In2 Pd1 2.861774 1_555
In2 Tb5 3.183922 1_555
In2 Tb9 3.187144 1_555
In2 Tb8 3.226685 1_555
In2 Tb3 3.259144 1_555
In3 Pd8 2.842901 1_455
In3 Pd7 2.858208 1_555
In3 Pd3 2.860550 1_455
In3 Tb3 3.183228 1_555
In3 Tb8 3.187734 1_555
In3 Tb9 3.227414 1_445
In3 Tb5 3.257764 1_445
In4 Pd9 2.842895 1_545
In4 Pd7 2.858214 1_555
In4 Pd0 2.860554 1_545
In4 Tb4 3.183227 1_555
In4 Tb8 3.187738 1_555
In4 Tb9 3.227409 1_445
In4 Tb2 3.257767 1_445
In5 Pd8 2.844844 1_555
In5 Pd6 2.858197 1_555
In5 Pd2 2.861781 1_555
In5 Tb2 3.183921 1_555
In5 Tb9 3.187150 1_555
In5 Tb8 3.226686 1_555
In5 Tb4 3.259149 1_555
In6 Pd9 2.843408 1_545
In6 Pd5 2.859351 1_556
In6 Pd1 2.862176 1_545
In6 Tb4 3.180523 1_555
In6 Tb6 3.188294 1_556
In6 Tb7 3.228476 1_546
In6 Tb3 3.259532 1_545
In7 Pd9 2.844470 1_555
In7 Pd4 2.858248 1_555
In7 Pd0 2.862444 1_555
In7 Tb5 3.181215 1_555
In7 Tb7 3.188579 1_555
In7 Tb6 3.225685 1_455
In7 Tb2 3.257178 1_455
In8 Pd5 2.793968 1_555
In8 Pd6 2.794371 1_555
In8 Pd0 2.910936 1_545
In8 Tb8 3.184784 1_555
In8 Tb7 3.186095 1_545
In8 Tb0 3.252085 1_554
In8 Tb1 3.358671 1_445
In8 Tb2 3.419807 1_555
In9 Pd4 2.794202 1_556
In9 Pd7 2.794693 1_555
In9 Pd1 2.909561 1_445
In9 Tb9 3.184500 1_445
In9 Tb6 3.185980 1_456
In9 Tb0 3.251059 1_555
In9 Tb1 3.358507 1_446
In9 Tb3 3.418710 1_555
In10 Pd5 2.794198 1_556
In10 Pd7 2.794699 1_555
In10 Pd2 2.909550 1_445
In10 Tb9 3.184500 1_445
In10 Tb7 3.185981 1_546
In10 Tb0 3.251062 1_555
In10 Tb1 3.358507 1_446
In10 Tb4 3.418705 1_555
In11 Pd4 2.793971 1_555
In11 Pd6 2.794369 1_555
In11 Pd3 2.910934 1_455
In11 Tb8 3.184781 1_555
In11 Tb6 3.186092 1_455
In11 Tb0 3.252083 1_554
In11 Tb1 3.358676 1_445
In11 Tb5 3.419807 1_555
In12 Pd2 2.804625 1_555
In12 Pd0 2.804975 1_656
In12 Pd5 2.898649 1_556
In12 Tb4 3.127523 1_555
In12 Tb2 3.129736 1_556
In12 In7 3.159135 1_656
In12 Tb1 3.332436 1_556
In12 Tb0 3.373086 1_555
In12 Tb7 3.464911 1_656
In12 Tb6 3.540050 1_556
In13 Pd1 2.804621 1_555
In13 Pd3 2.804974 1_566
In13 Pd4 2.898650 1_556
In13 Tb3 3.127525 1_555
In13 Tb5 3.129732 1_556
In13 In6 3.161167 1_565
In13 Tb1 3.332432 1_556
In13 Tb0 3.373088 1_555
In13 Tb6 3.464915 1_566
In13 Tb7 3.540049 1_556
In14 Pd1 2.805017 1_555
In14 Pd2 2.805043 1_555
In14 Pd7 2.899352 1_555
In14 Tb3 3.127707 1_555
In14 Tb4 3.127732 1_555
In14 In2 3.159152 1_555
In14 In5 3.159162 1_555
In14 Tb1 3.331616 1_556
In14 Tb0 3.371426 1_555
In14 Tb9 3.467324 1_555
In14 Tb8 3.542780 1_555
In15 Pd0 2.805851 1_655
In15 Pd3 2.805855 1_565
In15 Pd6 2.895732 1_555
In15 Tb5 3.128632 1_555
In15 Tb2 3.128635 1_555
In15 In4 3.161672 1_665
In15 In3 3.161678 1_665
In15 Tb1 3.332960 1_555
In15 Tb0 3.370225 1_554
In15 Tb8 3.468295 1_665
In15 Tb9 3.541546 1_555
In16 Pd0 2.749787 1_545
In16 Pd8 2.791701 1_555
In16 Pd9 2.813781 1_545
In17 Pd1 2.750668 1_545
In17 Pd8 2.792831 1_555
In17 Pd9 2.812090 1_545
In18 Pd2 2.750656 1_455
In18 Pd9 2.792828 1_555
In18 Pd8 2.812090 1_455
In19 Pd3 2.749788 1_455
In19 Pd9 2.791712 1_555
In19 Pd8 2.813786 1_455
Pd0 Tb1 2.985631 1_455
Pd0 Tb8 3.115655 1_565
Pd0 Tb7 3.116780 1_555
Pd0 Tb2 3.440512 1_455
Pd1 Tb1 2.984847 1_556
Pd1 Tb6 3.115187 1_566
Pd1 Tb9 3.117183 1_555
Pd1 Tb3 3.440914 1_555
Pd2 Tb1 2.984851 1_556
Pd2 Tb7 3.115169 1_656
Pd2 Tb9 3.117187 1_555
Pd2 Tb4 3.440934 1_555
Pd3 Tb1 2.985634 1_545
Pd3 Tb8 3.115646 1_655
Pd3 Tb6 3.116781 1_555
Pd3 Tb5 3.440513 1_545
Pd4 Tb7 3.043430 1_555
Pd4 Tb3 3.057901 1_554
Pd4 Tb5 3.058874 1_555
Pd4 Tb0 3.205614 1_554
Pd4 Tb6 3.239079 1_455
Pd5 Tb6 3.043429 1_555
Pd5 Tb4 3.057897 1_554
Pd5 Tb2 3.058873 1_555
Pd5 Tb0 3.205613 1_554
Pd5 Tb7 3.239084 1_545
Pd6 Tb9 3.042109 1_555
Pd6 Tb2 3.059726 1_555
Pd6 Tb5 3.059730 1_555
Pd6 Tb0 3.208850 1_554
Pd6 Tb8 3.239645 1_555
Pd7 Tb8 3.042227 1_555
Pd7 Tb3 3.058195 1_555
Pd7 Tb4 3.058208 1_555
Pd7 Tb0 3.208359 1_555
Pd7 Tb9 3.237168 1_445
