# generated using pymatgen
data_Ge3Bi5N9
_symmetry_space_group_name_H-M   'P 1'
_cell_length_a   8.33412843
_cell_length_b   12.15967319
_cell_length_c   16.24096715
_cell_angle_alpha   90.00000000
_cell_angle_beta   90.00000000
_cell_angle_gamma   136.84539418
_symmetry_Int_Tables_number   1
_chemical_formula_structural   Ge3Bi5N9
_chemical_formula_sum   'Ge12 Bi20 N36'
_cell_volume   1125.72060927
_cell_formula_units_Z   4
loop_
 _symmetry_equiv_pos_site_id
 _symmetry_equiv_pos_as_xyz
  1  'x, y, z'
loop_
 _atom_site_type_symbol
 _atom_site_label
 _atom_site_symmetry_multiplicity
 _atom_site_fract_x
 _atom_site_fract_y
 _atom_site_fract_z
 _atom_site_occupancy
  Ge  Ge0  1  -0.00000000  0.76727899  0.03031840  1
  Ge  Ge1  1  0.00000000  0.23272101  0.96968160  1
  Ge  Ge2  1  0.00000000  0.73272101  0.53031840  1
  Ge  Ge3  1  -0.00000000  0.26727899  0.46968160  1
  Ge  Ge4  1  -0.00000000  0.20133484  0.76605297  1
  Ge  Ge5  1  0.00000000  0.79866516  0.23394703  1
  Ge  Ge6  1  0.00000000  0.29866516  0.26605297  1
  Ge  Ge7  1  -0.00000000  0.70133484  0.73394703  1
  Ge  Ge8  1  0.50000000  0.77531086  0.75000000  1
  Ge  Ge9  1  0.50000000  0.72468914  0.25000000  1
  Ge  Ge10  1  0.50000000  0.22468914  0.25000000  1
  Ge  Ge11  1  0.50000000  0.27531086  0.75000000  1
  Bi  Bi0  1  0.00000000  0.51645070  0.87030982  1
  Bi  Bi1  1  -0.00000000  0.48354930  0.12969018  1
  Bi  Bi2  1  -0.00000000  0.98354930  0.37030982  1
  Bi  Bi3  1  0.00000000  0.01645070  0.62969018  1
  Bi  Bi4  1  0.38357970  0.96250631  0.87520737  1
  Bi  Bi5  1  0.38357970  0.42107339  0.12479263  1
  Bi  Bi6  1  0.38357970  0.92107339  0.37520737  1
  Bi  Bi7  1  0.38357970  0.46250631  0.62479263  1
  Bi  Bi8  1  0.61642030  0.03749369  0.12479263  1
  Bi  Bi9  1  0.61642030  0.57892661  0.87520737  1
  Bi  Bi10  1  0.61642030  0.07892661  0.62479263  1
  Bi  Bi11  1  0.61642030  0.53749369  0.37520737  1
  Bi  Bi12  1  0.00000000  0.46860522  0.61662058  1
  Bi  Bi13  1  -0.00000000  0.53139478  0.38337942  1
  Bi  Bi14  1  -0.00000000  0.03139478  0.11662058  1
  Bi  Bi15  1  0.00000000  0.96860522  0.88337942  1
  Bi  Bi16  1  0.51237961  0.25619031  0.00000000  1
  Bi  Bi17  1  0.51237961  0.75619031  0.50000000  1
  Bi  Bi18  1  0.48762039  0.74380969  0.00000000  1
  Bi  Bi19  1  0.48762039  0.24380969  0.50000000  1
  N  N0  1  -0.00000000  0.30388504  0.67665044  1
  N  N1  1  0.00000000  0.69611496  0.32334956  1
  N  N2  1  0.00000000  0.19611496  0.17665044  1
  N  N3  1  -0.00000000  0.80388504  0.82334956  1
  N  N4  1  0.00000000  0.27190847  0.86214033  1
  N  N5  1  -0.00000000  0.72809153  0.13785967  1
  N  N6  1  -0.00000000  0.22809153  0.36214033  1
  N  N7  1  0.00000000  0.77190847  0.63785967  1
  N  N8  1  0.00000000  0.63436385  0.97440580  1
  N  N9  1  -0.00000000  0.36563615  0.02559420  1
  N  N10  1  -0.00000000  0.86563615  0.47440580  1
  N  N11  1  0.00000000  0.13436385  0.52559420  1
  N  N12  1  0.75831791  0.49102859  0.77751291  1
  N  N13  1  0.75831791  0.26728932  0.22248709  1
  N  N14  1  0.75831791  0.76728932  0.27751291  1
  N  N15  1  0.75831791  0.99102859  0.72248709  1
  N  N16  1  0.24168209  0.50897141  0.22248709  1
  N  N17  1  0.24168209  0.73271068  0.77751291  1
  N  N18  1  0.24168209  0.23271068  0.72248709  1
  N  N19  1  0.24168209  0.00897141  0.27751291  1
  N  N20  1  0.43493272  0.17051724  0.84912902  1
  N  N21  1  0.43493272  0.26441548  0.15087098  1
  N  N22  1  0.43493272  0.76441548  0.34912902  1
  N  N23  1  0.43493272  0.67051724  0.65087098  1
  N  N24  1  0.56506728  0.82948276  0.15087098  1
  N  N25  1  0.56506728  0.73558452  0.84912902  1
  N  N26  1  0.56506728  0.23558452  0.65087098  1
  N  N27  1  0.56506728  0.32948276  0.34912902  1
  N  N28  1  0.24451768  0.98342817  0.98867941  1
  N  N29  1  0.24451768  0.26108951  0.01132059  1
  N  N30  1  0.24451768  0.76108951  0.48867941  1
  N  N31  1  0.24451768  0.48342817  0.51132059  1
  N  N32  1  0.75548232  0.01657183  0.01132059  1
  N  N33  1  0.75548232  0.73891049  0.98867941  1
  N  N34  1  0.75548232  0.23891049  0.51132059  1
  N  N35  1  0.75548232  0.51657183  0.48867941  1
loop_
_geom_bond_atom_site_label_1
_geom_bond_atom_site_label_2
_geom_bond_distance
_geom_bond_site_symmetry_2
Ge0 N5 1.810409 1_555
Ge0 N8 1.853838 1_554
Ge0 N33 1.924444 1_454
Ge0 N28 1.924444 1_554
Ge1 N4 1.810409 1_555
Ge1 N9 1.853838 1_556
Ge1 N29 1.924444 1_556
Ge1 N32 1.924444 1_456
Ge2 N7 1.810409 1_555
Ge2 N10 1.853838 1_555
Ge2 N30 1.924444 1_555
Ge2 N35 1.924444 1_455
Ge3 N6 1.810409 1_555
Ge3 N11 1.853838 1_555
Ge3 N34 1.924444 1_455
Ge3 N31 1.924444 1_555
Ge4 N4 1.780940 1_555
Ge4 N18 1.892624 1_555
Ge4 N15 1.892624 1_445
Ge4 N0 1.913951 1_555
Ge5 N5 1.780940 1_555
Ge5 N14 1.892624 1_455
Ge5 N19 1.892624 1_565
Ge5 N1 1.913951 1_555
Ge6 N6 1.780940 1_555
Ge6 N13 1.892624 1_455
Ge6 N16 1.892624 1_555
Ge6 N2 1.913951 1_555
Ge7 N7 1.780940 1_555
Ge7 N17 1.892624 1_555
Ge7 N12 1.892624 1_455
Ge7 N3 1.913951 1_555
Ge8 N17 1.864321 1_555
Ge8 N15 1.864321 1_555
Ge8 N25 1.871243 1_555
Ge8 N23 1.871243 1_555
Ge9 N14 1.864321 1_555
Ge9 N16 1.864321 1_555
Ge9 N22 1.871243 1_555
Ge9 N24 1.871243 1_555
Ge10 N13 1.864321 1_555
Ge10 N19 1.864321 1_555
Ge10 N21 1.871243 1_555
Ge10 N27 1.871243 1_555
Ge11 N18 1.864321 1_555
Ge11 N12 1.864321 1_555
Ge11 N26 1.871243 1_555
Ge11 N20 1.871243 1_555
Bi0 N8 2.216740 1_555
Bi0 N12 2.348518 1_455
Bi0 N17 2.348518 1_555
Bi1 N9 2.216740 1_555
Bi1 N16 2.348518 1_555
Bi1 N13 2.348518 1_455
Bi2 N10 2.216740 1_555
Bi2 N19 2.348518 1_565
Bi2 N14 2.348518 1_455
Bi3 N11 2.216740 1_555
Bi3 N15 2.348518 1_445
Bi3 N18 2.348518 1_555
Bi4 N20 2.276121 1_565
Bi4 N28 2.287872 1_555
Bi4 N3 2.377572 1_555
Bi4 N17 2.627262 1_555
Bi5 N21 2.276121 1_555
Bi5 N29 2.287872 1_555
Bi5 N2 2.377572 1_555
Bi5 N16 2.627262 1_555
Bi6 N22 2.276121 1_555
Bi6 N30 2.287872 1_555
Bi6 N1 2.377572 1_555
Bi6 N19 2.627262 1_565
Bi7 N23 2.276121 1_555
Bi7 N31 2.287872 1_555
Bi7 N0 2.377572 1_555
Bi7 N18 2.627262 1_555
Bi8 N24 2.276121 1_545
Bi8 N32 2.287872 1_555
Bi8 N2 2.377572 1_655
Bi8 N13 2.627262 1_555
Bi9 N25 2.276121 1_555
Bi9 N33 2.287872 1_555
Bi9 N3 2.377572 1_655
Bi9 N12 2.627262 1_555
Bi10 N26 2.276121 1_555
Bi10 N34 2.287872 1_555
Bi10 N0 2.377572 1_655
Bi10 N15 2.627262 1_545
Bi11 N27 2.276121 1_555
Bi11 N35 2.287872 1_555
Bi11 N1 2.377572 1_655
Bi11 N14 2.627262 1_555
Bi12 N0 2.227621 1_555
Bi12 N23 2.547908 1_555
Bi12 N26 2.547908 1_455
Bi12 N31 2.563996 1_555
Bi12 N34 2.563996 1_455
Bi13 N1 2.227621 1_555
Bi13 N27 2.547908 1_455
Bi13 N22 2.547908 1_555
Bi13 N35 2.563996 1_455
Bi13 N30 2.563996 1_555
Bi14 N2 2.227621 1_555
Bi14 N24 2.547908 1_445
Bi14 N21 2.547908 1_555
Bi14 N32 2.563996 1_455
Bi14 N29 2.563996 1_555
Bi15 N3 2.227621 1_555
Bi15 N20 2.547908 1_565
Bi15 N25 2.547908 1_455
Bi15 N28 2.563996 1_555
Bi15 N33 2.563996 1_455
Bi16 N29 2.283633 1_555
Bi16 N28 2.283642 1_544
Bi16 N21 2.554354 1_555
Bi16 N20 2.554357 1_554
Bi17 N30 2.283633 1_555
Bi17 N31 2.283642 1_555
Bi17 N22 2.554354 1_555
Bi17 N23 2.554357 1_555
Bi18 N33 2.283633 1_554
Bi18 N32 2.283642 1_565
Bi18 N25 2.554354 1_554
Bi18 N24 2.554357 1_555
Bi19 N34 2.283633 1_555
Bi19 N35 2.283642 1_555
Bi19 N26 2.554354 1_555
Bi19 N27 2.554357 1_555
