# generated using pymatgen
data_KNaLi2(SO4)2
_symmetry_space_group_name_H-M   'P 1'
_cell_length_a   4.99856800
_cell_length_b   7.88121100
_cell_length_c   19.33226700
_cell_angle_alpha   90.00000000
_cell_angle_beta   90.00000000
_cell_angle_gamma   90.00000000
_symmetry_Int_Tables_number   1
_chemical_formula_structural   KNaLi2(SO4)2
_chemical_formula_sum   'K4 Na4 Li8 S8 O32'
_cell_volume   761.59019476
_cell_formula_units_Z   4
loop_
 _symmetry_equiv_pos_site_id
 _symmetry_equiv_pos_as_xyz
  1  'x, y, z'
loop_
 _atom_site_type_symbol
 _atom_site_label
 _atom_site_symmetry_multiplicity
 _atom_site_fract_x
 _atom_site_fract_y
 _atom_site_fract_z
 _atom_site_occupancy
  K  K0  1  0.49760200  0.94340200  0.57272700  1
  K  K1  1  0.99760200  0.55659800  0.42727300  1
  K  K2  1  0.50239800  0.44340200  0.92727300  1
  K  K3  1  0.00239800  0.05659800  0.07272700  1
  Na  Na0  1  0.01522300  0.24928200  0.27618200  1
  Na  Na1  1  0.98477700  0.74928200  0.22381800  1
  Na  Na2  1  0.48477700  0.75071800  0.77618200  1
  Na  Na3  1  0.51522300  0.25071800  0.72381800  1
  Li  Li0  1  0.00476000  0.74371500  0.91116700  1
  Li  Li1  1  0.50476000  0.75628500  0.08883300  1
  Li  Li2  1  0.99524000  0.24371500  0.58883300  1
  Li  Li3  1  0.49524000  0.25628500  0.41116700  1
  Li  Li4  1  0.03565700  0.09932800  0.85940600  1
  Li  Li5  1  0.53565700  0.40067200  0.14059400  1
  Li  Li6  1  0.96434300  0.59932800  0.64059400  1
  Li  Li7  1  0.46434300  0.90067200  0.35940600  1
  S  S0  1  0.96724300  0.46788100  0.79319400  1
  S  S1  1  0.53275700  0.53211900  0.29319400  1
  S  S2  1  0.46724300  0.03211900  0.20680600  1
  S  S3  1  0.03275700  0.96788100  0.70680600  1
  S  S4  1  0.00792100  0.54818400  0.05928700  1
  S  S5  1  0.50792100  0.95181600  0.94071300  1
  S  S6  1  0.99207900  0.04818400  0.44071300  1
  S  S7  1  0.49207900  0.45181600  0.55928700  1
  O  O0  1  0.19964600  0.46160700  0.57700600  1
  O  O1  1  0.69964600  0.03839300  0.42299400  1
  O  O2  1  0.80035400  0.96160700  0.92299400  1
  O  O3  1  0.30035400  0.53839300  0.07700600  1
  O  O4  1  0.51840600  0.43367100  0.48285800  1
  O  O5  1  0.01840600  0.06632900  0.51714200  1
  O  O6  1  0.48159400  0.93367100  0.01714200  1
  O  O7  1  0.98159400  0.56632900  0.98285800  1
  O  O8  1  0.63089800  0.60910900  0.58185700  1
  O  O9  1  0.13089800  0.89089100  0.41814300  1
  O  O10  1  0.36910200  0.10910900  0.91814300  1
  O  O11  1  0.86910200  0.39089100  0.08185700  1
  O  O12  1  0.61033500  0.30101900  0.59468900  1
  O  O13  1  0.11033500  0.19898100  0.40531100  1
  O  O14  1  0.38966500  0.80101900  0.90531100  1
  O  O15  1  0.88966500  0.69898100  0.09468900  1
  O  O16  1  0.63173900  0.38084200  0.33234700  1
  O  O17  1  0.13173900  0.11915800  0.66765300  1
  O  O18  1  0.36826100  0.88084200  0.16765300  1
  O  O19  1  0.86826100  0.61915800  0.83234700  1
  O  O20  1  0.87135200  0.31068200  0.82875000  1
  O  O21  1  0.37135200  0.18931800  0.17125000  1
  O  O22  1  0.12864800  0.81068200  0.67125000  1
  O  O23  1  0.62864800  0.68931800  0.32875000  1
  O  O24  1  0.26509800  0.47012000  0.79024000  1
  O  O25  1  0.76509800  0.02988000  0.20976000  1
  O  O26  1  0.73490200  0.97012000  0.70976000  1
  O  O27  1  0.23490200  0.52988000  0.29024000  1
  O  O28  1  0.84975500  0.47282400  0.72237300  1
  O  O29  1  0.34975500  0.02717600  0.27762700  1
  O  O30  1  0.15024500  0.97282400  0.77762700  1
  O  O31  1  0.65024500  0.52717600  0.22237300  1
loop_
_geom_bond_atom_site_label_1
_geom_bond_atom_site_label_2
_geom_bond_distance
_geom_bond_site_symmetry_2
K0 O8 2.723305 1_555
K0 O5 2.798350 1_565
K0 O22 2.850107 1_555
K0 O12 2.905424 1_565
K0 O26 2.910216 1_555
K0 O17 2.937838 1_565
K0 O5 2.978316 1_665
K0 O1 3.155882 1_565
K1 O9 2.723305 1_655
K1 O4 2.798350 1_555
K1 O23 2.850107 1_555
K1 O13 2.905424 1_655
K1 O27 2.910216 1_655
K1 O16 2.937838 1_555
K1 O4 2.978316 1_655
K1 O0 3.155882 1_655
K2 O10 2.723305 1_555
K2 O7 2.798350 1_555
K2 O20 2.850107 1_555
K2 O14 2.905424 1_555
K2 O24 2.910216 1_555
K2 O19 2.937838 1_555
K2 O7 2.978316 1_455
K2 O3 3.155882 1_556
K3 O11 2.723305 1_455
K3 O6 2.798350 1_545
K3 O21 2.850107 1_555
K3 O15 2.905424 1_445
K3 O25 2.910216 1_455
K3 O18 2.937838 1_545
K3 O6 2.978316 1_445
K3 O2 3.155882 1_444
Na0 O29 2.420970 1_555
Na0 O16 2.434833 1_455
Na0 O27 2.483981 1_555
Na0 O25 2.490386 1_455
Na0 O13 2.571961 1_555
Na0 O21 2.739951 1_555
Na1 O31 2.420970 1_555
Na1 O18 2.434833 1_655
Na1 O25 2.483981 1_565
Na1 O27 2.490386 1_655
Na1 O15 2.571961 1_555
Na1 O23 2.739951 1_555
Na2 O30 2.420970 1_555
Na2 O19 2.434833 1_555
Na2 O24 2.483981 1_555
Na2 O26 2.490386 1_555
Na2 O14 2.571961 1_555
Na2 O22 2.739951 1_555
Na3 O28 2.420970 1_555
Na3 O17 2.434833 1_555
Na3 O26 2.483981 1_545
Na3 O24 2.490386 1_555
Na3 O12 2.571961 1_555
Na3 O20 2.739951 1_555
Li0 O19 1.936766 1_455
Li0 O7 1.971983 1_455
Li0 O14 1.979509 1_555
Li0 O2 2.011264 1_455
Li1 O18 1.936766 1_555
Li1 O6 1.971983 1_555
Li1 O15 1.979509 1_555
Li1 O3 2.011264 1_555
Li2 O17 1.936766 1_655
Li2 O5 1.971983 1_655
Li2 O12 1.979509 1_555
Li2 O0 2.011264 1_655
Li3 O16 1.936766 1_555
Li3 O4 1.971983 1_555
Li3 O13 1.979509 1_555
Li3 O1 2.011264 1_555
Li4 O20 1.949459 1_455
Li4 O30 1.954883 1_545
Li4 O2 2.018089 1_445
Li4 O10 2.018265 1_555
Li5 O21 1.949459 1_555
Li5 O31 1.954883 1_555
Li5 O3 2.018089 1_555
Li5 O11 2.018265 1_555
Li6 O22 1.949459 1_655
Li6 O28 1.954883 1_555
Li6 O0 2.018089 1_655
Li6 O8 2.018265 1_555
Li7 O23 1.949459 1_555
Li7 O29 1.954883 1_565
Li7 O1 2.018089 1_565
Li7 O9 2.018265 1_555
O0 S7 1.503328 1_555
O1 S6 1.503328 1_555
O2 S5 1.503328 1_555
O3 S4 1.503328 1_555
O4 S7 1.490272 1_555
O5 S6 1.490272 1_455
O6 S5 1.490272 1_554
O7 S4 1.490272 1_656
O8 S7 1.486146 1_555
O9 S6 1.486146 1_465
O10 S5 1.486146 1_545
O11 S4 1.486146 1_655
O12 S7 1.493406 1_555
O13 S6 1.493406 1_455
O14 S5 1.493406 1_555
O15 S4 1.493406 1_655
O16 S1 1.496385 1_555
O17 S3 1.496385 1_545
O18 S2 1.496385 1_565
O19 S0 1.496385 1_555
O20 S0 1.495712 1_555
O21 S2 1.495712 1_555
O22 S3 1.495712 1_555
O23 S1 1.495712 1_555
O24 S0 1.490048 1_455
O25 S2 1.490048 1_555
O26 S3 1.490048 1_655
O27 S1 1.490048 1_555
O28 S0 1.490276 1_555
O29 S2 1.490276 1_555
O30 S3 1.490276 1_555
O31 S1 1.490276 1_555
