# generated using pymatgen
data_TeW2S3
_symmetry_space_group_name_H-M   'P 1'
_cell_length_a   3.27260606
_cell_length_b   3.27260606
_cell_length_c   37.22606200
_cell_angle_alpha   90.00000000
_cell_angle_beta   90.00000000
_cell_angle_gamma   120.00000118
_symmetry_Int_Tables_number   1
_chemical_formula_structural   TeW2S3
_chemical_formula_sum   'Te2 W4 S6'
_cell_volume   345.27503895
_cell_formula_units_Z   2
loop_
 _symmetry_equiv_pos_site_id
 _symmetry_equiv_pos_as_xyz
  1  'x, y, z'
loop_
 _atom_site_type_symbol
 _atom_site_label
 _atom_site_symmetry_multiplicity
 _atom_site_fract_x
 _atom_site_fract_y
 _atom_site_fract_z
 _atom_site_occupancy
  Te  Te0  1  0.33333300  0.66666700  0.70963100  1
  Te  Te1  1  0.33333300  0.66666700  0.60550700  1
  W  W0  1  0.33333300  0.66666700  0.09391500  1
  W  W1  1  0.33333300  0.66666700  0.46961700  1
  W  W2  1  0.66666700  0.33333300  0.28180900  1
  W  W3  1  0.66666700  0.33333300  0.65758500  1
  S  S0  1  0.33333300  0.66666700  0.32330600  1
  S  S1  1  0.66666700  0.33333300  0.05240700  1
  S  S2  1  0.66666700  0.33333300  0.42815200  1
  S  S3  1  0.66666700  0.33333300  0.13541000  1
  S  S4  1  0.66666700  0.33333300  0.51111500  1
  S  S5  1  0.33333300  0.66666700  0.24029600  1
loop_
_geom_bond_atom_site_label_1
_geom_bond_atom_site_label_2
_geom_bond_distance
_geom_bond_site_symmetry_2
Te0 W3 2.706244 1_455
Te0 W3 2.706244 1_565
Te0 W3 2.706248 1_555
Te1 W3 2.707097 1_455
Te1 W3 2.707097 1_565
Te1 W3 2.707101 1_555
S0 W2 2.440551 1_455
S0 W2 2.440551 1_565
S0 W2 2.440556 1_555
S1 W0 2.440810 1_655
S1 W0 2.440810 1_545
S1 W0 2.440815 1_555
S2 W1 2.439797 1_545
S2 W1 2.439797 1_655
S2 W1 2.439802 1_555
S3 W0 2.440504 1_545
S3 W0 2.440504 1_655
S3 W0 2.440509 1_555
S4 W1 2.440575 1_545
S4 W1 2.440575 1_655
S4 W1 2.440579 1_555
S5 W2 2.440928 1_455
S5 W2 2.440928 1_565
S5 W2 2.440933 1_555
