# generated using pymatgen
data_ZnCr3O7
_symmetry_space_group_name_H-M   'P 1'
_cell_length_a   5.38805900
_cell_length_b   9.95865600
_cell_length_c   10.33785300
_cell_angle_alpha   90.00000000
_cell_angle_beta   90.00000000
_cell_angle_gamma   90.00000000
_symmetry_Int_Tables_number   1
_chemical_formula_structural   ZnCr3O7
_chemical_formula_sum   'Zn4 Cr12 O28'
_cell_volume   554.70671840
_cell_formula_units_Z   4
loop_
 _symmetry_equiv_pos_site_id
 _symmetry_equiv_pos_as_xyz
  1  'x, y, z'
loop_
 _atom_site_type_symbol
 _atom_site_label
 _atom_site_symmetry_multiplicity
 _atom_site_fract_x
 _atom_site_fract_y
 _atom_site_fract_z
 _atom_site_occupancy
  Zn  Zn0  1  0.36351100  0.04535400  0.25000000  1
  Zn  Zn1  1  0.86351100  0.45464600  0.75000000  1
  Zn  Zn2  1  0.63648900  0.95464600  0.75000000  1
  Zn  Zn3  1  0.13648900  0.54535400  0.25000000  1
  Cr  Cr0  1  0.70765400  0.69100200  0.97654900  1
  Cr  Cr1  1  0.20765400  0.80899800  0.02345100  1
  Cr  Cr2  1  0.29234600  0.30899800  0.47654900  1
  Cr  Cr3  1  0.79234600  0.19100200  0.52345100  1
  Cr  Cr4  1  0.70286100  0.77302100  0.25000000  1
  Cr  Cr5  1  0.20286100  0.72697900  0.75000000  1
  Cr  Cr6  1  0.29713900  0.22697900  0.75000000  1
  Cr  Cr7  1  0.79713900  0.27302100  0.25000000  1
  Cr  Cr8  1  0.20765400  0.80899800  0.47654900  1
  Cr  Cr9  1  0.70765400  0.69100200  0.52345100  1
  Cr  Cr10  1  0.79234600  0.19100200  0.97654900  1
  Cr  Cr11  1  0.29234600  0.30899800  0.02345100  1
  O  O0  1  0.05147700  0.28653600  0.88117100  1
  O  O1  1  0.55147700  0.21346400  0.11882900  1
  O  O2  1  0.94852300  0.71346400  0.38117100  1
  O  O3  1  0.44852300  0.78653600  0.61882900  1
  O  O4  1  0.94852300  0.71346400  0.11882900  1
  O  O5  1  0.44852300  0.78653600  0.88117100  1
  O  O6  1  0.05147700  0.28653600  0.61882900  1
  O  O7  1  0.55147700  0.21346400  0.38117100  1
  O  O8  1  0.52965800  0.28191600  0.88314900  1
  O  O9  1  0.02965800  0.21808400  0.11685100  1
  O  O10  1  0.47034200  0.71808400  0.38314900  1
  O  O11  1  0.97034200  0.78191600  0.61685100  1
  O  O12  1  0.47034200  0.71808400  0.11685100  1
  O  O13  1  0.97034200  0.78191600  0.88314900  1
  O  O14  1  0.52965800  0.28191600  0.61685100  1
  O  O15  1  0.02965800  0.21808400  0.38314900  1
  O  O16  1  0.81523900  0.44680200  0.25000000  1
  O  O17  1  0.31523900  0.05319800  0.75000000  1
  O  O18  1  0.18476100  0.55319800  0.75000000  1
  O  O19  1  0.68476100  0.94680200  0.25000000  1
  O  O20  1  0.77521700  0.03464600  0.58860900  1
  O  O21  1  0.27521700  0.46535400  0.41139100  1
  O  O22  1  0.22478300  0.96535400  0.08860900  1
  O  O23  1  0.72478300  0.53464600  0.91139100  1
  O  O24  1  0.22478300  0.96535400  0.41139100  1
  O  O25  1  0.72478300  0.53464600  0.58860900  1
  O  O26  1  0.77521700  0.03464600  0.91139100  1
  O  O27  1  0.27521700  0.46535400  0.08860900  1
loop_
_geom_bond_atom_site_label_1
_geom_bond_atom_site_label_2
_geom_bond_distance
_geom_bond_site_symmetry_2
Cr0 O23 1.699057 1_555
Cr0 O13 1.937862 1_555
Cr0 O12 1.952283 1_556
Cr0 O5 1.956210 1_555
Cr0 O4 1.974290 1_556
Cr1 O22 1.699057 1_555
Cr1 O12 1.937862 1_555
Cr1 O13 1.952283 1_454
Cr1 O4 1.956210 1_455
Cr1 O5 1.974290 1_554
Cr2 O21 1.699057 1_555
Cr2 O15 1.937862 1_555
Cr2 O14 1.952283 1_555
Cr2 O7 1.956210 1_555
Cr2 O6 1.974290 1_555
Cr3 O20 1.699057 1_555
Cr3 O14 1.937862 1_555
Cr3 O15 1.952283 1_655
Cr3 O6 1.956210 1_655
Cr3 O7 1.974290 1_555
Cr4 O19 1.733371 1_555
Cr4 O12 1.939993 1_555
Cr4 O10 1.939993 1_555
Cr4 O2 1.985601 1_555
Cr4 O4 1.985601 1_555
Cr5 O18 1.733371 1_555
Cr5 O13 1.939993 1_455
Cr5 O11 1.939993 1_455
Cr5 O5 1.985601 1_555
Cr5 O3 1.985601 1_555
Cr6 O17 1.733371 1_555
Cr6 O14 1.939993 1_555
Cr6 O8 1.939993 1_555
Cr6 O6 1.985601 1_555
Cr6 O0 1.985601 1_555
Cr7 O16 1.733371 1_555
Cr7 O15 1.939993 1_655
Cr7 O9 1.939993 1_655
Cr7 O1 1.985601 1_555
Cr7 O7 1.985601 1_555
Cr8 O24 1.699057 1_555
Cr8 O10 1.937862 1_555
Cr8 O11 1.952283 1_455
Cr8 O2 1.956210 1_455
Cr8 O3 1.974290 1_555
Cr9 O25 1.699057 1_555
Cr9 O11 1.937862 1_555
Cr9 O10 1.952283 1_555
Cr9 O3 1.956210 1_555
Cr9 O2 1.974290 1_555
Cr10 O26 1.699057 1_555
Cr10 O8 1.937862 1_555
Cr10 O9 1.952283 1_656
Cr10 O0 1.956210 1_655
Cr10 O1 1.974290 1_556
Cr11 O27 1.699057 1_555
Cr11 O9 1.937862 1_555
Cr11 O8 1.952283 1_554
Cr11 O1 1.956210 1_555
Cr11 O0 1.974290 1_554
O0 Zn1 2.380607 1_455
O1 Zn0 2.380607 1_555
O2 Zn3 2.380607 1_655
O3 Zn2 2.380607 1_555
O4 Zn3 2.380607 1_655
O5 Zn2 2.380607 1_555
O6 Zn1 2.380607 1_455
O7 Zn0 2.380607 1_555
O16 Zn3 1.989799 1_655
O17 Zn2 1.989799 1_545
O18 Zn1 1.989799 1_455
O19 Zn0 1.989799 1_565
O20 Zn2 1.994271 1_545
O21 Zn3 1.994271 1_555
O22 Zn0 1.994271 1_565
O23 Zn1 1.994271 1_555
O24 Zn0 1.994271 1_565
O25 Zn1 1.994271 1_555
O26 Zn2 1.994271 1_545
O27 Zn3 1.994271 1_555
