# generated using pymatgen
data_MgTiV(PO4)3
_symmetry_space_group_name_H-M   'P 1'
_cell_length_a   8.54094415
_cell_length_b   8.54094415
_cell_length_c   8.54094451
_cell_angle_alpha   60.70233932
_cell_angle_beta   60.70233932
_cell_angle_gamma   60.70233479
_symmetry_Int_Tables_number   1
_chemical_formula_structural   MgTiV(PO4)3
_chemical_formula_sum   'Mg2 Ti2 V2 P6 O24'
_cell_volume   447.54112893
_cell_formula_units_Z   2
loop_
 _symmetry_equiv_pos_site_id
 _symmetry_equiv_pos_as_xyz
  1  'x, y, z'
loop_
 _atom_site_type_symbol
 _atom_site_label
 _atom_site_symmetry_multiplicity
 _atom_site_fract_x
 _atom_site_fract_y
 _atom_site_fract_z
 _atom_site_occupancy
  Mg  Mg0  1  0.00135700  0.00135700  0.00135700  1
  Mg  Mg1  1  0.50135700  0.50135700  0.50135700  1
  Ti  Ti0  1  0.85545300  0.85545300  0.85545300  1
  Ti  Ti1  1  0.35545300  0.35545300  0.35545300  1
  V  V0  1  0.64256600  0.64256600  0.64256600  1
  V  V1  1  0.14256600  0.14256600  0.14256600  1
  P  P0  1  0.24823700  0.95446100  0.54507500  1
  P  P1  1  0.95446100  0.54507500  0.24823700  1
  P  P2  1  0.54507500  0.24823700  0.95446100  1
  P  P3  1  0.45446100  0.74823700  0.04507500  1
  P  P4  1  0.04507500  0.45446100  0.74823700  1
  P  P5  1  0.74823700  0.04507500  0.45446100  1
  O  O0  1  0.68304500  0.88903300  0.49565900  1
  O  O1  1  0.49565900  0.68304500  0.88903300  1
  O  O2  1  0.08687400  0.94605100  0.74222200  1
  O  O3  1  0.88903300  0.49565900  0.68304500  1
  O  O4  1  0.18304500  0.99565900  0.38903300  1
  O  O5  1  0.40764500  0.75917600  0.56241100  1
  O  O6  1  0.94605100  0.74222200  0.08687400  1
  O  O7  1  0.75917600  0.56241100  0.40764500  1
  O  O8  1  0.61894000  0.81407200  0.99772700  1
  O  O9  1  0.56241100  0.40764500  0.75917600  1
  O  O10  1  0.25917600  0.90764500  0.06241100  1
  O  O11  1  0.99772700  0.61894000  0.81407200  1
  O  O12  1  0.99565900  0.38903300  0.18304500  1
  O  O13  1  0.74222200  0.08687400  0.94605100  1
  O  O14  1  0.44605100  0.58687400  0.24222200  1
  O  O15  1  0.38903300  0.18304500  0.99565900  1
  O  O16  1  0.24222200  0.44605100  0.58687400  1
  O  O17  1  0.06241100  0.25917600  0.90764500  1
  O  O18  1  0.58687400  0.24222200  0.44605100  1
  O  O19  1  0.81407200  0.99772700  0.61894000  1
  O  O20  1  0.11894000  0.49772700  0.31407200  1
  O  O21  1  0.90764500  0.06241100  0.25917600  1
  O  O22  1  0.49772700  0.31407200  0.11894000  1
  O  O23  1  0.31407200  0.11894000  0.49772700  1
loop_
_geom_bond_atom_site_label_1
_geom_bond_atom_site_label_2
_geom_bond_distance
_geom_bond_site_symmetry_2
Mg0 O10 2.179868 1_545
Mg0 O17 2.179868 1_554
Mg0 O21 2.179868 1_455
Mg0 O13 2.181406 1_454
Mg0 O6 2.181406 1_445
Mg0 O2 2.181406 1_544
Mg1 O5 2.179868 1_555
Mg1 O7 2.179868 1_555
Mg1 O9 2.179868 1_555
Mg1 O18 2.181406 1_555
Mg1 O16 2.181406 1_555
Mg1 O14 2.181406 1_555
O0 P5 1.511822 1_565
O0 V0 1.956494 1_555
O1 P3 1.511822 1_556
O1 V0 1.956494 1_555
O2 P0 1.564339 1_555
O2 Ti0 2.081939 1_455
O3 P4 1.511822 1_655
O3 V0 1.956494 1_555
O4 P0 1.511822 1_555
O4 V1 1.956494 1_565
O5 P0 1.546176 1_555
O5 V0 2.051272 1_555
O6 P1 1.564339 1_555
O6 Ti0 2.081939 1_554
O7 P1 1.546176 1_555
O7 V0 2.051273 1_555
O8 P3 1.564523 1_556
O8 Ti0 1.886304 1_555
O9 P2 1.546176 1_555
O9 V0 2.051273 1_555
O10 P3 1.546176 1_555
O10 V1 2.051272 1_565
O11 P4 1.564523 1_655
O11 Ti0 1.886304 1_555
O12 P1 1.511822 1_555
O12 V1 1.956494 1_655
O13 P2 1.564339 1_555
O13 Ti0 2.081939 1_545
O14 P3 1.564339 1_555
O14 Ti1 2.081939 1_555
O15 P2 1.511822 1_555
O15 V1 1.956494 1_556
O16 P4 1.564339 1_555
O16 Ti1 2.081939 1_555
O17 P4 1.546176 1_555
O17 V1 2.051273 1_556
O18 P5 1.564339 1_555
O18 Ti1 2.081939 1_555
O19 P5 1.564523 1_565
O19 Ti0 1.886304 1_555
O20 P1 1.564523 1_455
O20 Ti1 1.886304 1_555
O21 P5 1.546176 1_555
O21 V1 2.051273 1_655
O22 P2 1.564523 1_554
O22 Ti1 1.886304 1_555
O23 P0 1.564523 1_545
O23 Ti1 1.886304 1_555
