# generated using pymatgen
data_Mg5Bi
_symmetry_space_group_name_H-M   'P 1'
_cell_length_a   12.30433321
_cell_length_b   12.30433321
_cell_length_c   15.53392749
_cell_angle_alpha   74.18396805
_cell_angle_beta   74.18396805
_cell_angle_gamma   31.47281271
_symmetry_Int_Tables_number   1
_chemical_formula_structural   Mg5Bi
_chemical_formula_sum   'Mg40 Bi8'
_cell_volume   1177.59855346
_cell_formula_units_Z   8
loop_
 _symmetry_equiv_pos_site_id
 _symmetry_equiv_pos_as_xyz
  1  'x, y, z'
loop_
 _atom_site_type_symbol
 _atom_site_label
 _atom_site_symmetry_multiplicity
 _atom_site_fract_x
 _atom_site_fract_y
 _atom_site_fract_z
 _atom_site_occupancy
  Mg  Mg0_0  1  0.49865250  0.49865250  0.49723200  1
  Mg  Mg0_1  1  0.49865250  0.49865250  0.99723200  1
  Mg  Mg0_2  1  0.49865250  0.99865250  0.49723200  1
  Mg  Mg0_3  1  0.49865250  0.99865250  0.99723200  1
  Mg  Mg0_4  1  0.99865250  0.49865250  0.49723200  1
  Mg  Mg0_5  1  0.99865250  0.49865250  0.99723200  1
  Mg  Mg0_6  1  0.99865250  0.99865250  0.49723200  1
  Mg  Mg0_7  1  0.99865250  0.99865250  0.99723200  1
  Mg  Mg1_0  1  0.16711200  0.16711200  0.16693700  1
  Mg  Mg1_1  1  0.16711200  0.16711200  0.66693700  1
  Mg  Mg1_2  1  0.16711200  0.66711200  0.16693700  1
  Mg  Mg1_3  1  0.16711200  0.66711200  0.66693700  1
  Mg  Mg1_4  1  0.66711200  0.16711200  0.16693700  1
  Mg  Mg1_5  1  0.66711200  0.16711200  0.66693700  1
  Mg  Mg1_6  1  0.66711200  0.66711200  0.16693700  1
  Mg  Mg1_7  1  0.66711200  0.66711200  0.66693700  1
  Mg  Mg2_0  1  0.47093400  0.47093400  0.30790850  1
  Mg  Mg2_1  1  0.47093400  0.47093400  0.80790850  1
  Mg  Mg2_2  1  0.47093400  0.97093400  0.30790850  1
  Mg  Mg2_3  1  0.47093400  0.97093400  0.80790850  1
  Mg  Mg2_4  1  0.97093400  0.47093400  0.30790850  1
  Mg  Mg2_5  1  0.97093400  0.47093400  0.80790850  1
  Mg  Mg2_6  1  0.97093400  0.97093400  0.30790850  1
  Mg  Mg2_7  1  0.97093400  0.97093400  0.80790850  1
  Mg  Mg3_0  1  0.33417600  0.33417600  0.33526500  1
  Mg  Mg3_1  1  0.33417600  0.33417600  0.83526500  1
  Mg  Mg3_2  1  0.33417600  0.83417600  0.33526500  1
  Mg  Mg3_3  1  0.33417600  0.83417600  0.83526500  1
  Mg  Mg3_4  1  0.83417600  0.33417600  0.33526500  1
  Mg  Mg3_5  1  0.83417600  0.33417600  0.83526500  1
  Mg  Mg3_6  1  0.83417600  0.83417600  0.33526500  1
  Mg  Mg3_7  1  0.83417600  0.83417600  0.83526500  1
  Mg  Mg4_0  1  0.14069700  0.14069700  0.46909850  1
  Mg  Mg4_1  1  0.14069700  0.14069700  0.96909850  1
  Mg  Mg4_2  1  0.14069700  0.64069700  0.46909850  1
  Mg  Mg4_3  1  0.14069700  0.64069700  0.96909850  1
  Mg  Mg4_4  1  0.64069700  0.14069700  0.46909850  1
  Mg  Mg4_5  1  0.64069700  0.14069700  0.96909850  1
  Mg  Mg4_6  1  0.64069700  0.64069700  0.46909850  1
  Mg  Mg4_7  1  0.64069700  0.64069700  0.96909850  1
  Bi  Bi0_0  1  0.30509500  0.30509500  0.14022550  1
  Bi  Bi0_1  1  0.30509500  0.30509500  0.64022550  1
  Bi  Bi0_2  1  0.30509500  0.80509500  0.14022550  1
  Bi  Bi0_3  1  0.30509500  0.80509500  0.64022550  1
  Bi  Bi0_4  1  0.80509500  0.30509500  0.14022550  1
  Bi  Bi0_5  1  0.80509500  0.30509500  0.64022550  1
  Bi  Bi0_6  1  0.80509500  0.80509500  0.14022550  1
  Bi  Bi0_7  1  0.80509500  0.80509500  0.64022550  1
loop_
_geom_bond_atom_site_label_1
_geom_bond_atom_site_label_2
_geom_bond_distance
_geom_bond_site_symmetry_2
Mg0_0 Mg4_4 3.185356 1_555
Mg0_0 Mg4_2 3.185356 1_555
Mg0_0 Mg2_0 3.189619 1_555
Mg0_0 Mg3_2 3.214252 1_555
Mg0_0 Mg3_4 3.214252 1_555
Mg0_0 Mg1_5 3.252743 1_555
Mg0_0 Mg1_3 3.252743 1_555
Mg0_0 Mg4_6 3.267755 1_555
Mg0_0 Mg0_6 3.337084 1_545
Mg0_0 Mg0_6 3.337084 1_455
Mg0_1 Mg4_5 3.185356 1_555
Mg0_1 Mg4_3 3.185356 1_555
Mg0_1 Mg2_1 3.189619 1_555
Mg0_1 Mg3_3 3.214252 1_555
Mg0_1 Mg3_5 3.214252 1_555
Mg0_1 Mg1_2 3.252743 1_556
Mg0_1 Mg1_4 3.252743 1_556
Mg0_1 Mg4_7 3.267755 1_555
Mg0_1 Mg0_7 3.337084 1_455
Mg0_1 Mg0_7 3.337084 1_545
Mg0_2 Mg4_0 3.185356 1_565
Mg0_2 Mg4_6 3.185356 1_555
Mg0_2 Mg2_2 3.189619 1_555
Mg0_2 Mg3_6 3.214252 1_555
Mg0_2 Mg3_0 3.214252 1_565
Mg0_2 Mg1_1 3.252743 1_565
Mg0_2 Mg1_7 3.252743 1_555
Mg0_2 Mg4_4 3.267755 1_565
Mg0_2 Mg0_4 3.337084 1_555
Mg0_2 Mg0_4 3.337084 1_465
Mg0_3 Mg4_7 3.185356 1_555
Mg0_3 Mg4_1 3.185356 1_565
Mg0_3 Mg2_3 3.189619 1_555
Mg0_3 Mg3_7 3.214252 1_555
Mg0_3 Mg3_1 3.214252 1_565
Mg0_3 Mg1_0 3.252743 1_566
Mg0_3 Mg1_6 3.252743 1_556
Mg0_3 Mg4_5 3.267755 1_565
Mg0_3 Mg0_5 3.337084 1_555
Mg0_3 Mg0_5 3.337084 1_465
Mg0_4 Mg4_6 3.185356 1_555
Mg0_4 Mg4_0 3.185356 1_655
Mg0_4 Mg2_4 3.189619 1_555
Mg0_4 Mg3_6 3.214252 1_555
Mg0_4 Mg3_0 3.214252 1_655
Mg0_4 Mg1_1 3.252743 1_655
Mg0_4 Mg1_7 3.252743 1_555
Mg0_4 Mg4_2 3.267755 1_655
Mg0_5 Mg4_7 3.185356 1_555
Mg0_5 Mg4_1 3.185356 1_655
Mg0_5 Mg2_5 3.189619 1_555
Mg0_5 Mg3_7 3.214252 1_555
Mg0_5 Mg3_1 3.214252 1_655
Mg0_5 Mg1_6 3.252743 1_556
Mg0_5 Mg1_0 3.252743 1_656
Mg0_5 Mg4_3 3.267755 1_655
Mg0_6 Mg4_2 3.185356 1_655
Mg0_6 Mg4_4 3.185356 1_565
Mg0_6 Mg2_6 3.189619 1_555
Mg0_6 Mg3_4 3.214252 1_565
Mg0_6 Mg3_2 3.214252 1_655
Mg0_6 Mg1_3 3.252743 1_655
Mg0_6 Mg1_5 3.252743 1_565
Mg0_6 Mg4_0 3.267755 1_665
Mg0_7 Mg4_5 3.185356 1_565
Mg0_7 Mg4_3 3.185356 1_655
Mg0_7 Mg2_7 3.189619 1_555
Mg0_7 Mg3_3 3.214252 1_655
Mg0_7 Mg3_5 3.214252 1_565
Mg0_7 Mg1_4 3.252743 1_566
Mg0_7 Mg1_2 3.252743 1_656
Mg0_7 Mg4_1 3.267755 1_665
Mg1_0 Mg3_2 3.251345 1_545
Mg1_0 Mg3_4 3.251345 1_455
Mg1_0 Mg2_2 3.284156 1_545
Mg1_0 Mg2_4 3.284156 1_455
Mg1_0 Mg4_1 3.305303 1_554
Mg1_0 Mg1_6 3.337084 1_455
Mg1_0 Mg1_6 3.337084 1_545
Mg1_1 Mg3_5 3.251345 1_455
Mg1_1 Mg3_3 3.251345 1_545
Mg1_1 Mg2_3 3.284156 1_545
Mg1_1 Mg2_5 3.284156 1_455
Mg1_1 Mg4_0 3.305303 1_555
Mg1_1 Mg1_7 3.337084 1_545
Mg1_1 Mg1_7 3.337084 1_455
Mg1_2 Mg3_0 3.251345 1_555
Mg1_2 Mg3_6 3.251345 1_455
Mg1_2 Mg2_0 3.284156 1_555
Mg1_2 Mg2_6 3.284156 1_455
Mg1_2 Mg4_3 3.305303 1_554
Mg1_2 Mg1_4 3.337084 1_555
Mg1_2 Mg1_4 3.337084 1_465
Mg1_3 Mg3_7 3.251345 1_455
Mg1_3 Mg3_1 3.251345 1_555
Mg1_3 Mg2_7 3.284156 1_455
Mg1_3 Mg2_1 3.284156 1_555
Mg1_3 Mg4_2 3.305303 1_555
Mg1_3 Mg1_5 3.337084 1_555
Mg1_3 Mg1_5 3.337084 1_465
Mg1_4 Mg3_0 3.251345 1_555
Mg1_4 Mg3_6 3.251345 1_545
Mg1_4 Mg2_0 3.284156 1_555
Mg1_4 Mg2_6 3.284156 1_545
Mg1_4 Mg4_5 3.305303 1_554
Mg1_5 Mg3_7 3.251345 1_545
Mg1_5 Mg3_1 3.251345 1_555
Mg1_5 Mg2_7 3.284156 1_545
Mg1_5 Mg2_1 3.284156 1_555
Mg1_5 Mg4_4 3.305303 1_555
Mg1_6 Mg3_4 3.251345 1_555
Mg1_6 Mg3_2 3.251345 1_555
Mg1_6 Mg2_4 3.284156 1_555
Mg1_6 Mg2_2 3.284156 1_555
Mg1_6 Mg4_7 3.305303 1_554
Mg1_7 Mg3_5 3.251345 1_555
Mg1_7 Mg3_3 3.251345 1_555
Mg1_7 Mg2_5 3.284156 1_555
Mg1_7 Mg2_3 3.284156 1_555
Mg1_7 Mg4_6 3.305303 1_555
Mg2_0 Mg3_0 3.145479 1_555
Mg2_0 Mg4_2 3.157626 1_555
Mg2_0 Mg4_4 3.157626 1_555
Mg2_0 Mg3_2 3.287066 1_555
Mg2_0 Mg3_4 3.287066 1_555
Mg2_0 Mg2_6 3.337084 1_545
Mg2_0 Mg2_6 3.337084 1_455
Mg2_1 Mg3_1 3.145479 1_555
Mg2_1 Mg4_5 3.157626 1_555
Mg2_1 Mg4_3 3.157626 1_555
Mg2_1 Mg3_3 3.287066 1_555
Mg2_1 Mg3_5 3.287066 1_555
Mg2_1 Mg2_7 3.337084 1_545
Mg2_1 Mg2_7 3.337084 1_455
Mg2_2 Mg3_2 3.145479 1_555
Mg2_2 Mg4_0 3.157626 1_565
Mg2_2 Mg4_6 3.157626 1_555
Mg2_2 Mg3_6 3.287066 1_555
Mg2_2 Mg3_0 3.287066 1_565
Mg2_2 Mg2_4 3.337084 1_555
Mg2_2 Mg2_4 3.337084 1_465
Mg2_3 Mg3_3 3.145479 1_555
Mg2_3 Mg4_1 3.157626 1_565
Mg2_3 Mg4_7 3.157626 1_555
Mg2_3 Mg3_7 3.287066 1_555
Mg2_3 Mg3_1 3.287066 1_565
Mg2_3 Mg2_5 3.337084 1_465
Mg2_3 Mg2_5 3.337084 1_555
Mg2_4 Mg3_4 3.145479 1_555
Mg2_4 Mg4_0 3.157626 1_655
Mg2_4 Mg4_6 3.157626 1_555
Mg2_4 Mg3_6 3.287066 1_555
Mg2_4 Mg3_0 3.287066 1_655
Mg2_5 Mg3_5 3.145479 1_555
Mg2_5 Mg4_7 3.157626 1_555
Mg2_5 Mg4_1 3.157626 1_655
Mg2_5 Mg3_7 3.287066 1_555
Mg2_5 Mg3_1 3.287066 1_655
Mg2_6 Mg3_6 3.145479 1_555
Mg2_6 Mg4_2 3.157626 1_655
Mg2_6 Mg4_4 3.157626 1_565
Mg2_6 Mg3_4 3.287066 1_565
Mg2_6 Mg3_2 3.287066 1_655
Mg2_7 Mg3_7 3.145479 1_555
Mg2_7 Mg4_5 3.157626 1_565
Mg2_7 Mg4_3 3.157626 1_655
Mg2_7 Mg3_3 3.287066 1_655
Mg2_7 Mg3_5 3.287066 1_565
Mg3_0 Mg4_2 3.236457 1_555
Mg3_0 Mg4_4 3.236457 1_555
Mg3_0 Mg3_6 3.337084 1_545
Mg3_0 Mg3_6 3.337084 1_455
Mg3_1 Mg4_3 3.236457 1_555
Mg3_1 Mg4_5 3.236457 1_555
Mg3_1 Mg3_7 3.337084 1_545
Mg3_1 Mg3_7 3.337084 1_455
Mg3_2 Mg4_6 3.236457 1_555
Mg3_2 Mg4_0 3.236457 1_565
Mg3_2 Mg3_4 3.337084 1_555
Mg3_2 Mg3_4 3.337084 1_465
Mg3_3 Mg4_7 3.236457 1_555
Mg3_3 Mg4_1 3.236457 1_565
Mg3_3 Mg3_5 3.337084 1_465
Mg3_3 Mg3_5 3.337084 1_555
Mg3_4 Mg4_0 3.236457 1_655
Mg3_4 Mg4_6 3.236457 1_555
Mg3_5 Mg4_1 3.236457 1_655
Mg3_5 Mg4_7 3.236457 1_555
Mg3_6 Mg4_2 3.236457 1_655
Mg3_6 Mg4_4 3.236457 1_565
Mg3_7 Mg4_3 3.236457 1_655
Mg3_7 Mg4_5 3.236457 1_565
Mg4_0 Mg4_6 3.337084 1_545
Mg4_0 Mg4_6 3.337084 1_455
Mg4_1 Mg4_7 3.337084 1_455
Mg4_1 Mg4_7 3.337084 1_545
Mg4_2 Mg4_4 3.337084 1_465
Mg4_2 Mg4_4 3.337084 1_555
Mg4_3 Mg4_5 3.337084 1_555
Mg4_3 Mg4_5 3.337084 1_465
Bi0_0 Mg1_0 3.175848 1_555
Bi0_0 Mg2_2 3.256091 1_545
Bi0_0 Mg2_4 3.256091 1_455
Bi0_0 Mg1_2 3.258763 1_555
Bi0_0 Mg1_4 3.258763 1_555
Bi0_0 Mg3_0 3.291751 1_555
Bi0_0 Mg4_3 3.302902 1_554
Bi0_0 Mg4_5 3.302902 1_554
Bi0_0 Bi0_6 3.337084 1_545
Bi0_0 Bi0_6 3.337084 1_455
Bi0_0 Mg0_5 3.344713 1_454
Bi0_0 Mg0_3 3.344713 1_544
Bi0_1 Mg1_1 3.175848 1_555
Bi0_1 Mg2_3 3.256091 1_545
Bi0_1 Mg2_5 3.256091 1_455
Bi0_1 Mg1_3 3.258763 1_555
Bi0_1 Mg1_5 3.258763 1_555
Bi0_1 Mg3_1 3.291751 1_555
Bi0_1 Mg4_4 3.302902 1_555
Bi0_1 Mg4_2 3.302902 1_555
Bi0_1 Bi0_7 3.337084 1_455
Bi0_1 Bi0_7 3.337084 1_545
Bi0_1 Mg0_2 3.344713 1_545
Bi0_1 Mg0_4 3.344713 1_455
Bi0_2 Mg1_2 3.175848 1_555
Bi0_2 Mg2_6 3.256091 1_455
Bi0_2 Mg2_0 3.256091 1_555
Bi0_2 Mg1_6 3.258763 1_555
Bi0_2 Mg1_0 3.258763 1_565
Bi0_2 Mg3_2 3.291751 1_555
Bi0_2 Mg4_7 3.302902 1_554
Bi0_2 Mg4_1 3.302902 1_564
Bi0_2 Bi0_4 3.337084 1_555
Bi0_2 Bi0_4 3.337084 1_465
Bi0_2 Mg0_1 3.344713 1_554
Bi0_2 Mg0_7 3.344713 1_454
Bi0_3 Mg1_3 3.175848 1_555
Bi0_3 Mg2_1 3.256091 1_555
Bi0_3 Mg2_7 3.256091 1_455
Bi0_3 Mg1_7 3.258763 1_555
Bi0_3 Mg1_1 3.258763 1_565
Bi0_3 Mg3_3 3.291751 1_555
Bi0_3 Mg4_6 3.302902 1_555
Bi0_3 Mg4_0 3.302902 1_565
Bi0_3 Bi0_5 3.337084 1_555
Bi0_3 Bi0_5 3.337084 1_465
Bi0_3 Mg0_0 3.344713 1_555
Bi0_3 Mg0_6 3.344713 1_455
Bi0_4 Mg1_4 3.175848 1_555
Bi0_4 Mg2_6 3.256091 1_545
Bi0_4 Mg2_0 3.256091 1_555
Bi0_4 Mg1_6 3.258763 1_555
Bi0_4 Mg1_0 3.258763 1_655
Bi0_4 Mg3_4 3.291751 1_555
Bi0_4 Mg4_1 3.302902 1_654
Bi0_4 Mg4_7 3.302902 1_554
Bi0_4 Mg0_1 3.344713 1_554
Bi0_4 Mg0_7 3.344713 1_544
Bi0_5 Mg1_5 3.175848 1_555
Bi0_5 Mg2_1 3.256091 1_555
Bi0_5 Mg2_7 3.256091 1_545
Bi0_5 Mg1_7 3.258763 1_555
Bi0_5 Mg1_1 3.258763 1_655
Bi0_5 Mg3_5 3.291751 1_555
Bi0_5 Mg4_0 3.302902 1_655
Bi0_5 Mg4_6 3.302902 1_555
Bi0_5 Mg0_0 3.344713 1_555
Bi0_5 Mg0_6 3.344713 1_545
Bi0_6 Mg1_6 3.175848 1_555
Bi0_6 Mg2_4 3.256091 1_555
Bi0_6 Mg2_2 3.256091 1_555
Bi0_6 Mg1_2 3.258763 1_655
Bi0_6 Mg1_4 3.258763 1_565
Bi0_6 Mg3_6 3.291751 1_555
Bi0_6 Mg4_3 3.302902 1_654
Bi0_6 Mg4_5 3.302902 1_564
Bi0_6 Mg0_5 3.344713 1_554
Bi0_6 Mg0_3 3.344713 1_554
Bi0_7 Mg1_7 3.175848 1_555
Bi0_7 Mg2_3 3.256091 1_555
Bi0_7 Mg2_5 3.256091 1_555
Bi0_7 Mg1_5 3.258763 1_565
Bi0_7 Mg1_3 3.258763 1_655
Bi0_7 Mg3_7 3.291751 1_555
Bi0_7 Mg4_2 3.302902 1_655
Bi0_7 Mg4_4 3.302902 1_565
Bi0_7 Mg0_2 3.344713 1_555
Bi0_7 Mg0_4 3.344713 1_555
