# generated using pymatgen
data_Nd3(SiNi3)2
_symmetry_space_group_name_H-M   'P 1'
_cell_length_a   7.72884198
_cell_length_b   7.72884198
_cell_length_c   7.72884198
_cell_angle_alpha   109.47122063
_cell_angle_beta   109.47122063
_cell_angle_gamma   109.47122063
_symmetry_Int_Tables_number   1
_chemical_formula_structural   Nd3(SiNi3)2
_chemical_formula_sum   'Nd6 Si4 Ni12'
_cell_volume   355.40324925
_cell_formula_units_Z   2
loop_
 _symmetry_equiv_pos_site_id
 _symmetry_equiv_pos_as_xyz
  1  'x, y, z'
loop_
 _atom_site_type_symbol
 _atom_site_label
 _atom_site_symmetry_multiplicity
 _atom_site_fract_x
 _atom_site_fract_y
 _atom_site_fract_z
 _atom_site_occupancy
  Nd  Nd0  1  0.71551500  0.71551500  0.00000000  1
  Nd  Nd1  1  0.28448500  0.00000000  0.28448500  1
  Nd  Nd2  1  0.00000000  0.28448500  0.28448500  1
  Nd  Nd3  1  0.28448500  0.28448500  0.00000000  1
  Nd  Nd4  1  0.71551500  0.00000000  0.71551500  1
  Nd  Nd5  1  0.00000000  0.71551500  0.71551500  1
  Si  Si0  1  0.00000000  0.00000000  0.50000000  1
  Si  Si1  1  0.00000000  0.50000000  0.00000000  1
  Si  Si2  1  0.50000000  0.00000000  0.00000000  1
  Si  Si3  1  0.50000000  0.50000000  0.50000000  1
  Ni  Ni0  1  0.33069600  0.33069600  0.66139300  1
  Ni  Ni1  1  0.66930400  0.00000000  0.33069600  1
  Ni  Ni2  1  0.00000000  0.66930400  0.33069600  1
  Ni  Ni3  1  0.66930400  0.33069600  0.00000000  1
  Ni  Ni4  1  0.33069600  0.66139300  0.33069600  1
  Ni  Ni5  1  0.00000000  0.33069600  0.66930400  1
  Ni  Ni6  1  0.33069600  0.66930400  0.00000000  1
  Ni  Ni7  1  0.33069600  0.00000000  0.66930400  1
  Ni  Ni8  1  0.66139300  0.33069600  0.33069600  1
  Ni  Ni9  1  0.66930400  0.66930400  0.33860700  1
  Ni  Ni10  1  0.66930400  0.33860700  0.66930400  1
  Ni  Ni11  1  0.33860700  0.66930400  0.66930400  1
loop_
_geom_bond_atom_site_label_1
_geom_bond_atom_site_label_2
_geom_bond_distance
_geom_bond_site_symmetry_2
Nd0 Ni9 2.874933 1_555
Nd0 Ni0 2.874939 1_554
Nd0 Ni6 2.874941 1_555
Nd0 Ni3 2.874941 1_555
Nd0 Ni2 2.979971 1_655
Nd0 Ni1 2.979971 1_565
Nd0 Ni10 2.979976 1_554
Nd0 Ni11 2.979976 1_554
Nd0 Si2 3.170260 1_565
Nd0 Si0 3.170260 1_665
Nd0 Si1 3.170260 1_655
Nd0 Si3 3.170260 1_554
Nd1 Ni4 2.874933 1_545
Nd1 Ni10 2.874939 1_555
Nd1 Ni1 2.874941 1_555
Nd1 Ni7 2.874941 1_555
Nd1 Ni6 2.979971 1_545
Nd1 Ni2 2.979971 1_545
Nd1 Ni8 2.979976 1_555
Nd1 Ni0 2.979976 1_555
Nd1 Si3 3.170260 1_555
Nd1 Si0 3.170260 1_555
Nd1 Si1 3.170260 1_545
Nd1 Si2 3.170260 1_555
Nd2 Ni8 2.874933 1_455
Nd2 Ni11 2.874939 1_555
Nd2 Ni2 2.874941 1_555
Nd2 Ni5 2.874941 1_555
Nd2 Ni1 2.979971 1_455
Nd2 Ni3 2.979971 1_455
Nd2 Ni4 2.979976 1_555
Nd2 Ni0 2.979976 1_555
Nd2 Si3 3.170260 1_555
Nd2 Si0 3.170260 1_555
Nd2 Si2 3.170260 1_455
Nd2 Si1 3.170260 1_555
Nd3 Ni0 2.874933 1_554
Nd3 Ni9 2.874939 1_555
Nd3 Ni6 2.874941 1_555
Nd3 Ni3 2.874941 1_555
Nd3 Ni7 2.979971 1_554
Nd3 Ni5 2.979971 1_554
Nd3 Ni4 2.979976 1_555
Nd3 Ni8 2.979976 1_555
Nd3 Si3 3.170260 1_555
Nd3 Si1 3.170260 1_555
Nd3 Si0 3.170260 1_554
Nd3 Si2 3.170260 1_555
Nd4 Ni10 2.874933 1_555
Nd4 Ni4 2.874939 1_545
Nd4 Ni1 2.874941 1_555
Nd4 Ni7 2.874941 1_555
Nd4 Ni3 2.979971 1_556
Nd4 Ni5 2.979971 1_655
Nd4 Ni11 2.979976 1_545
Nd4 Ni9 2.979976 1_545
Nd4 Si0 3.170260 1_655
Nd4 Si1 3.170260 1_656
Nd4 Si2 3.170260 1_556
Nd4 Si3 3.170260 1_545
Nd5 Ni11 2.874933 1_555
Nd5 Ni8 2.874939 1_455
Nd5 Ni2 2.874941 1_555
Nd5 Ni5 2.874941 1_555
Nd5 Ni6 2.979971 1_556
Nd5 Ni7 2.979971 1_565
Nd5 Ni9 2.979976 1_455
Nd5 Ni10 2.979976 1_455
Nd5 Si2 3.170260 1_566
Nd5 Si0 3.170260 1_565
Nd5 Si3 3.170260 1_455
Nd5 Si1 3.170260 1_556
Ni0 Si0 2.452591 1_555
Ni0 Si3 2.452599 1_555
Ni0 Ni7 2.576923 1_555
Ni0 Ni5 2.576923 1_555
Ni0 Ni10 2.576931 1_555
Ni0 Ni11 2.576931 1_555
Ni1 Si2 2.452592 1_555
Ni1 Si0 2.452592 1_655
Ni1 Ni8 2.576923 1_555
Ni1 Ni9 2.576923 1_545
Ni1 Ni5 2.576926 1_655
Ni1 Ni6 2.576926 1_545
Ni2 Si0 2.452592 1_565
Ni2 Si1 2.452592 1_555
Ni2 Ni4 2.576923 1_555
Ni2 Ni9 2.576923 1_455
Ni2 Ni7 2.576926 1_565
Ni2 Ni3 2.576926 1_455
Ni3 Si1 2.452592 1_655
Ni3 Si2 2.452592 1_555
Ni3 Ni8 2.576923 1_555
Ni3 Ni7 2.576926 1_554
Ni4 Si1 2.452591 1_555
Ni4 Si3 2.452599 1_555
Ni4 Ni6 2.576923 1_555
Ni4 Ni9 2.576931 1_555
Ni5 Si1 2.452592 1_556
Ni5 Si0 2.452592 1_555
Ni5 Ni6 2.576926 1_556
Ni6 Si2 2.452592 1_565
Ni6 Si1 2.452592 1_555
Ni7 Si2 2.452592 1_556
Ni7 Si0 2.452592 1_555
Ni8 Si2 2.452591 1_555
Ni8 Si3 2.452599 1_555
Ni8 Ni9 2.576931 1_555
Ni9 Si0 2.452591 1_665
Ni9 Si3 2.452599 1_555
Ni10 Si1 2.452591 1_656
Ni10 Si3 2.452599 1_555
Ni10 Ni3 2.576923 1_556
Ni10 Ni5 2.576923 1_655
Ni10 Ni8 2.576931 1_555
Ni11 Si2 2.452591 1_566
Ni11 Si3 2.452599 1_555
Ni11 Ni6 2.576923 1_556
Ni11 Ni7 2.576923 1_565
Ni11 Ni4 2.576931 1_555
