# generated using pymatgen
data_TbGd3(PO4)4
_symmetry_space_group_name_H-M   'P 1'
_cell_length_a   5.84119590
_cell_length_b   5.84119590
_cell_length_c   9.32937619
_cell_angle_alpha   83.76788616
_cell_angle_beta   83.76788616
_cell_angle_gamma   74.00718649
_symmetry_Int_Tables_number   1
_chemical_formula_structural   TbGd3(PO4)4
_chemical_formula_sum   'Tb1 Gd3 P4 O16'
_cell_volume   303.15407666
_cell_formula_units_Z   1
loop_
 _symmetry_equiv_pos_site_id
 _symmetry_equiv_pos_as_xyz
  1  'x, y, z'
loop_
 _atom_site_type_symbol
 _atom_site_label
 _atom_site_symmetry_multiplicity
 _atom_site_fract_x
 _atom_site_fract_y
 _atom_site_fract_z
 _atom_site_occupancy
  Tb  Tb0  1  0.31246000  0.31246000  0.93747800  1
  Gd  Gd0  1  0.81254200  0.81254200  0.43753300  1
  Gd  Gd1  1  0.68747300  0.68747300  0.06227100  1
  Gd  Gd2  1  0.18753300  0.18753300  0.56272500  1
  P  P0  1  0.93785700  0.93785700  0.81301400  1
  P  P1  1  0.43713900  0.43713900  0.31196200  1
  P  P2  1  0.06296600  0.06296600  0.18712700  1
  P  P3  1  0.56204400  0.56204400  0.68788800  1
  O  O0  1  0.10327800  0.10327800  0.82154900  1
  O  O1  1  0.60248900  0.60248900  0.32012500  1
  O  O2  1  0.96933300  0.31500400  0.10784800  1
  O  O3  1  0.46763400  0.81387300  0.60923100  1
  O  O4  1  0.31500400  0.96933300  0.10784800  1
  O  O5  1  0.81387300  0.46763400  0.60923100  1
  O  O6  1  0.92959300  0.92959300  0.64787000  1
  O  O7  1  0.42869600  0.42869600  0.14636300  1
  O  O8  1  0.89766100  0.89766100  0.17918400  1
  O  O9  1  0.39645100  0.39645100  0.68077400  1
  O  O10  1  0.03311900  0.68485200  0.89122400  1
  O  O11  1  0.53228500  0.18564600  0.39081600  1
  O  O12  1  0.68485200  0.03311900  0.89122400  1
  O  O13  1  0.18564600  0.53228500  0.39081600  1
  O  O14  1  0.07081900  0.07081900  0.35232100  1
  O  O15  1  0.56925300  0.56925300  0.85357700  1
loop_
_geom_bond_atom_site_label_1
_geom_bond_atom_site_label_2
_geom_bond_distance
_geom_bond_site_symmetry_2
Gd0 O11 2.366910 1_565
Gd0 O13 2.366910 1_655
Gd0 O1 2.371447 1_555
Gd0 O6 2.371875 1_555
Gd0 O14 2.432569 1_665
Gd0 O5 2.432748 1_555
Gd0 O3 2.432748 1_555
Gd0 O8 2.433002 1_555
Gd1 O15 2.364536 1_554
Gd1 O4 2.366913 1_555
Gd1 O2 2.366913 1_555
Gd1 O8 2.369919 1_555
Gd1 O1 2.428391 1_555
Gd1 O12 2.431413 1_564
Gd1 O10 2.431413 1_654
Gd1 O7 2.435003 1_555
Gd2 O9 2.365486 1_555
Gd2 O3 2.368489 1_545
Gd2 O5 2.368489 1_455
Gd2 O14 2.370632 1_555
Gd2 O6 2.429474 1_445
Gd2 O13 2.432685 1_555
Gd2 O11 2.432685 1_555
Gd2 O0 2.435668 1_555
O0 P0 1.556125 1_445
O0 Tb0 2.356311 1_555
O1 P1 1.554822 1_555
O2 P2 1.556049 1_655
O2 Tb0 2.416760 1_654
O3 P3 1.553352 1_555
O4 P2 1.556049 1_565
O4 Tb0 2.416760 1_564
O5 P3 1.553352 1_555
O6 P0 1.553050 1_555
O7 P1 1.557599 1_555
O7 Tb0 2.355464 1_554
O8 P2 1.554027 1_665
O9 P3 1.555318 1_555
O9 Tb0 2.416468 1_555
O10 P0 1.557871 1_455
O10 Tb0 2.360822 1_555
O11 P1 1.553172 1_555
O12 P0 1.557871 1_545
O12 Tb0 2.360822 1_555
O13 P1 1.553172 1_555
O14 P2 1.552814 1_555
O15 P3 1.556344 1_555
O15 Tb0 2.417131 1_555
