# generated using pymatgen
data_Ba2H2Pd(S5O17)2
_symmetry_space_group_name_H-M   'P 1'
_cell_length_a   9.14468100
_cell_length_b   9.49776478
_cell_length_c   9.63290580
_cell_angle_alpha   119.28546624
_cell_angle_beta   96.68465556
_cell_angle_gamma   91.99913555
_symmetry_Int_Tables_number   1
_chemical_formula_structural   Ba2H2Pd(S5O17)2
_chemical_formula_sum   'Ba2 H2 Pd1 S10 O34'
_cell_volume   720.68230274
_cell_formula_units_Z   1
loop_
 _symmetry_equiv_pos_site_id
 _symmetry_equiv_pos_as_xyz
  1  'x, y, z'
loop_
 _atom_site_type_symbol
 _atom_site_label
 _atom_site_symmetry_multiplicity
 _atom_site_fract_x
 _atom_site_fract_y
 _atom_site_fract_z
 _atom_site_occupancy
  Ba  Ba0  1  0.73727900  0.29634700  0.91318400  1
  Ba  Ba1  1  0.26272100  0.70365300  0.08681600  1
  H  H0  1  0.57631600  0.84071500  0.56666200  1
  H  H1  1  0.42368400  0.15928500  0.43333800  1
  Pd  Pd0  1  0.00000000  0.00000000  0.50000000  1
  S  S0  1  0.64255000  0.84770100  0.27099400  1
  S  S1  1  0.35745000  0.15229900  0.72900600  1
  S  S2  1  0.70087300  0.50172700  0.40488500  1
  S  S3  1  0.29912700  0.49827300  0.59511500  1
  S  S4  1  0.92740800  0.37916900  0.29176400  1
  S  S5  1  0.07259200  0.62083100  0.70823600  1
  S  S6  1  0.86621300  0.96396800  0.79270700  1
  S  S7  1  0.13378700  0.03603200  0.20729300  1
  S  S8  1  0.61281400  0.75106200  0.82428900  1
  S  S9  1  0.38718600  0.24893800  0.17571100  1
  O  O0  1  0.50528700  0.82711900  0.18847200  1
  O  O1  1  0.49471300  0.17288100  0.81152800  1
  O  O2  1  0.63674700  0.82681700  0.42877800  1
  O  O3  1  0.36325300  0.17318300  0.57122200  1
  O  O4  1  0.73235400  0.97672900  0.17316000  1
  O  O5  1  0.26764600  0.02327100  0.82684000  1
  O  O6  1  0.75813700  0.68055700  0.31395400  1
  O  O7  1  0.24186300  0.31944300  0.68604600  1
  O  O8  1  0.58329900  0.47883400  0.30363100  1
  O  O9  1  0.41670100  0.52116600  0.69636900  1
  O  O10  1  0.68250500  0.45806700  0.56607200  1
  O  O11  1  0.31749500  0.54193300  0.43392800  1
  O  O12  1  0.84945900  0.40226800  0.43067800  1
  O  O13  1  0.15054100  0.59773200  0.56932200  1
  O  O14  1  0.80917200  0.34461900  0.19840300  1
  O  O15  1  0.19082800  0.65538100  0.80159700  1
  O  O16  1  0.00707300  0.52397500  0.21120300  1
  O  O17  1  0.99292700  0.47602500  0.78879700  1
  O  O18  1  0.03206100  0.24065000  0.40963700  1
  O  O19  1  0.96793900  0.75935000  0.59036300  1
  O  O20  1  0.83650200  0.00990300  0.61838900  1
  O  O21  1  0.16349800  0.99009700  0.38161100  1
  O  O22  1  0.86622500  0.10138600  0.81749100  1
  O  O23  1  0.13377500  0.89861400  0.18250900  1
  O  O24  1  0.97949300  0.83745100  0.88810700  1
  O  O25  1  0.02050700  0.16254900  0.11189300  1
  O  O26  1  0.70517100  0.88563800  0.85392000  1
  O  O27  1  0.29482900  0.11436200  0.14608000  1
  O  O28  1  0.53019500  0.85155400  0.65072300  1
  O  O29  1  0.46980500  0.14844600  0.34927700  1
  O  O30  1  0.50864100  0.70804900  0.93335900  1
  O  O31  1  0.49135900  0.29195100  0.06664100  1
  O  O32  1  0.71251400  0.62977400  0.83724700  1
  O  O33  1  0.28748600  0.37022600  0.16275300  1
loop_
_geom_bond_atom_site_label_1
_geom_bond_atom_site_label_2
_geom_bond_distance
_geom_bond_site_symmetry_2
Ba0 O22 2.098673 1_555
Ba0 O1 2.333194 1_555
Ba0 O14 2.552882 1_556
Ba1 O23 2.098673 1_555
Ba1 O0 2.333194 1_555
Ba1 O15 2.552882 1_554
H0 O28 0.919328 1_555
H0 O2 1.446182 1_555
H1 O29 0.919328 1_555
H1 O3 1.446182 1_555
O0 S0 1.358039 1_555
O1 S1 1.358039 1_555
O2 S0 1.632574 1_555
O2 O6 1.809874 1_555
O3 S1 1.632574 1_555
O3 O7 1.809874 1_555
O4 S0 2.074664 1_555
O5 S1 2.074664 1_555
O6 S0 2.113434 1_555
O6 S2 2.329498 1_555
O7 S1 2.113434 1_555
O7 S3 2.329498 1_555
O8 S2 1.298727 1_555
O9 S3 1.298727 1_555
O10 S2 1.815710 1_555
O11 S3 1.815710 1_555
O12 S4 1.514147 1_555
O12 S2 1.743820 1_555
O13 S5 1.514147 1_555
O13 S3 1.743820 1_555
O14 S4 1.243260 1_555
O14 S2 2.195832 1_555
O15 S5 1.243260 1_555
O15 S3 2.195832 1_555
O16 S4 2.032336 1_455
O17 S5 2.032336 1_655
O18 S4 2.287427 1_455
O18 S7 2.298653 1_555
O19 S5 2.287427 1_655
O19 S6 2.298653 1_555
O20 O22 1.655029 1_555
O20 S6 1.924216 1_545
O20 Pd0 1.961300 1_655
O21 O23 1.655029 1_555
O21 S7 1.924216 1_565
O21 Pd0 1.961300 1_565
O22 S6 1.206479 1_545
O23 S7 1.206479 1_565
O24 S6 2.075354 1_555
O24 S5 2.222161 1_655
O25 S7 2.075354 1_555
O25 S4 2.222161 1_455
O26 S8 1.392888 1_555
O26 S6 1.903905 1_555
O27 S9 1.392888 1_555
O27 S7 1.903905 1_555
O30 S8 1.674535 1_555
O31 S9 1.674535 1_555
O32 S8 1.536653 1_555
O33 S9 1.536653 1_555
