# generated using pymatgen
data_Li4MnCo2O7
_symmetry_space_group_name_H-M   'P 1'
_cell_length_a   5.92285900
_cell_length_b   6.54721048
_cell_length_c   7.71223982
_cell_angle_alpha   104.31792086
_cell_angle_beta   111.83058620
_cell_angle_gamma   103.62767061
_symmetry_Int_Tables_number   1
_chemical_formula_structural   Li4MnCo2O7
_chemical_formula_sum   'Li8 Mn2 Co4 O14'
_cell_volume   250.52296877
_cell_formula_units_Z   2
loop_
 _symmetry_equiv_pos_site_id
 _symmetry_equiv_pos_as_xyz
  1  'x, y, z'
loop_
 _atom_site_type_symbol
 _atom_site_label
 _atom_site_symmetry_multiplicity
 _atom_site_fract_x
 _atom_site_fract_y
 _atom_site_fract_z
 _atom_site_occupancy
  Li  Li0  1  0.06098700  0.56127500  0.84663600  1
  Li  Li1  1  0.63579500  0.14607000  0.71963900  1
  Li  Li2  1  0.22199800  0.71353100  0.57779700  1
  Li  Li3  1  0.79456400  0.29287000  0.42804000  1
  Li  Li4  1  0.36304400  0.85570100  0.28776100  1
  Li  Li5  1  0.91655300  0.43016200  0.13081400  1
  Li  Li6  1  0.49139200  0.99116200  0.99567100  1
  Li  Li7  1  0.56497500  0.57403100  0.85689100  1
  Mn  Mn0  1  0.99038400  0.99802600  0.99708500  1
  Mn  Mn1  1  0.86246600  0.85096500  0.28615800  1
  Co  Co0  1  0.15344900  0.15716100  0.72369900  1
  Co  Co1  1  0.71549400  0.70959200  0.57688500  1
  Co  Co2  1  0.29654600  0.29766200  0.44233800  1
  Co  Co3  1  0.42688600  0.42974300  0.14035700  1
  O  O0  1  0.96691500  0.74082800  0.08170700  1
  O  O1  1  0.50283700  0.28437700  0.92839300  1
  O  O2  1  0.08891300  0.86266000  0.79831900  1
  O  O3  1  0.66410300  0.42711600  0.62301000  1
  O  O4  1  0.23267600  0.00375200  0.49518600  1
  O  O5  1  0.83677400  0.59217300  0.35839800  1
  O  O6  1  0.36160900  0.15247500  0.19703300  1
  O  O7  1  0.17447800  0.41649600  0.63156700  1
  O  O8  1  0.77540000  0.98514200  0.49767800  1
  O  O9  1  0.34713700  0.56345400  0.35258200  1
  O  O10  1  0.90185800  0.12278700  0.21207000  1
  O  O11  1  0.49842000  0.71050500  0.09558500  1
  O  O12  1  0.02127500  0.26719100  0.92584700  1
  O  O13  1  0.63306900  0.86308900  0.79285500  1
loop_
_geom_bond_atom_site_label_1
_geom_bond_atom_site_label_2
_geom_bond_distance
_geom_bond_site_symmetry_2
Li0 O2 2.077396 1_555
Li0 O7 2.110293 1_555
Li0 O3 2.129391 1_455
Li0 O12 2.147329 1_555
Li0 O0 2.232688 1_456
Li0 O11 2.352268 1_556
Li1 O12 2.047773 1_655
Li1 O13 2.064426 1_545
Li1 O1 2.142423 1_555
Li1 O3 2.143619 1_555
Li1 O4 2.155328 1_555
Li1 O8 2.301152 1_545
Li2 O7 2.064217 1_555
Li2 O5 2.075982 1_455
Li2 O4 2.143024 1_565
Li2 O13 2.169690 1_555
Li2 O9 2.233426 1_555
Li2 O2 2.237290 1_555
Li3 O7 2.017119 1_655
Li3 O3 2.039866 1_555
Li3 O5 2.140229 1_555
Li3 O10 2.149755 1_555
Li3 O8 2.198487 1_545
Li3 O6 2.297015 1_555
Li4 O11 2.071082 1_555
Li4 O9 2.084008 1_555
Li4 O0 2.097648 1_455
Li4 O4 2.144595 1_565
Li4 O8 2.170139 1_555
Li4 O6 2.222813 1_565
Li5 O12 2.056411 1_654
Li5 O5 2.088356 1_555
Li5 O0 2.132762 1_555
Li5 O1 2.160645 1_554
Li5 O10 2.243217 1_555
Li5 O9 2.271513 1_655
Li6 O1 2.101600 1_565
Li6 O2 2.104798 1_555
Li6 O13 2.124359 1_555
Li6 O6 2.139425 1_566
Li6 O11 2.164367 1_556
Li6 O10 2.173056 1_566
Li7 O11 2.057833 1_556
Li7 O13 2.058870 1_555
Li7 O1 2.091711 1_555
Li7 O7 2.105501 1_555
Li7 O0 2.152853 1_556
Li7 O3 2.172334 1_555
Mn0 O13 1.921402 1_555
Mn0 O2 1.926911 1_655
Mn0 O0 1.944630 1_556
Mn0 O12 1.960268 1_665
Mn0 O10 1.967149 1_566
Mn0 O6 1.973379 1_666
Mn1 O5 1.900758 1_555
Mn1 O11 1.922296 1_555
Mn1 O0 1.939644 1_555
Mn1 O8 1.956806 1_555
Mn1 O4 1.986773 1_665
Mn1 O10 1.988617 1_565
Co0 O1 1.891038 1_555
Co0 O7 1.991532 1_555
Co0 O12 2.044577 1_555
Co0 O8 2.063604 1_445
Co0 O4 2.072807 1_555
Co0 O2 2.135468 1_545
Co1 O3 1.944284 1_555
Co1 O13 2.007636 1_555
Co1 O9 2.014609 1_555
Co1 O2 2.027895 1_655
Co1 O8 2.039217 1_555
Co1 O5 2.113295 1_555
Co2 O3 1.920825 1_555
Co2 O7 1.935467 1_555
Co2 O9 2.025237 1_555
Co2 O4 2.042469 1_555
Co2 O6 2.111052 1_555
Co2 O10 2.138915 1_455
Co3 O9 1.931194 1_555
Co3 O11 1.932223 1_555
Co3 O1 1.938974 1_554
Co3 O6 1.955346 1_555
Co3 O12 2.146966 1_554
Co3 O5 2.171443 1_555
