# generated using pymatgen
data_YMg15
_symmetry_space_group_name_H-M   'P 1'
_cell_length_a   6.47979256
_cell_length_b   6.47979256
_cell_length_c   10.27805730
_cell_angle_alpha   90.00000000
_cell_angle_beta   90.00000000
_cell_angle_gamma   120.00000881
_symmetry_Int_Tables_number   1
_chemical_formula_structural   YMg15
_chemical_formula_sum   'Y1 Mg15'
_cell_volume   373.73505396
_cell_formula_units_Z   1
loop_
 _symmetry_equiv_pos_site_id
 _symmetry_equiv_pos_as_xyz
  1  'x, y, z'
loop_
 _atom_site_type_symbol
 _atom_site_label
 _atom_site_symmetry_multiplicity
 _atom_site_fract_x
 _atom_site_fract_y
 _atom_site_fract_z
 _atom_site_occupancy
  Y  Y0  1  -0.00000000  -0.00000000  0.50000000  1
  Mg  Mg0  1  -0.00000000  -0.00000000  0.00000000  1
  Mg  Mg1  1  0.01019251  0.50509626  0.50000000  1
  Mg  Mg2  1  0.99862055  0.49931027  0.00000000  1
  Mg  Mg3  1  0.49490374  0.50509626  0.50000000  1
  Mg  Mg4  1  0.50068973  0.49931027  0.00000000  1
  Mg  Mg5  1  0.49490374  0.98980749  0.50000000  1
  Mg  Mg6  1  0.50068973  0.00137945  0.00000000  1
  Mg  Mg7  1  0.16732016  0.33464133  0.24523128  1
  Mg  Mg8  1  0.16732016  0.33464133  0.75476872  1
  Mg  Mg9  1  0.16732016  0.83267984  0.24523128  1
  Mg  Mg10  1  0.16732016  0.83267984  0.75476872  1
  Mg  Mg11  1  0.66535867  0.83267984  0.24523128  1
  Mg  Mg12  1  0.66535867  0.83267984  0.75476872  1
  Mg  Mg13  1  0.66666700  0.33333300  0.25660041  1
  Mg  Mg14  1  0.66666700  0.33333300  0.74339959  1
loop_
_geom_bond_atom_site_label_1
_geom_bond_atom_site_label_2
_geom_bond_distance
_geom_bond_site_symmetry_2
Mg0 Mg9 3.143150 1_545
Mg0 Mg10 3.143150 1_544
Mg0 Mg7 3.143154 1_555
Mg0 Mg12 3.143154 1_444
Mg0 Mg11 3.143154 1_445
Mg0 Mg8 3.143154 1_554
Mg0 Mg4 3.239905 1_445
Mg0 Mg4 3.239905 1_555
Mg0 Mg6 3.239905 1_455
Mg0 Mg2 3.239905 1_455
Mg0 Mg2 3.239906 1_445
Mg0 Mg6 3.239906 1_555
Mg1 Mg5 3.140828 1_555
Mg1 Mg3 3.140828 1_555
Mg1 Mg13 3.158259 1_455
Mg1 Mg14 3.158259 1_455
Mg1 Mg8 3.199662 1_555
Mg1 Mg7 3.199662 1_555
Mg1 Mg10 3.199665 1_555
Mg1 Mg9 3.199665 1_555
Mg1 Y0 3.240401 1_565
Mg1 Y0 3.240401 1_555
Mg1 Mg5 3.338964 1_445
Mg1 Mg3 3.338964 1_455
Mg2 Mg7 3.138919 1_655
Mg2 Mg8 3.138919 1_654
Mg2 Mg9 3.138922 1_655
Mg2 Mg6 3.226488 1_555
Mg2 Mg4 3.226488 1_555
Mg2 Mg6 3.253304 1_665
Mg2 Mg4 3.253304 1_655
Mg3 Mg5 3.140828 1_555
Mg3 Mg8 3.199665 1_555
Mg3 Mg7 3.199665 1_555
Mg3 Y0 3.240401 1_665
Mg3 Y0 3.240401 1_555
Mg3 Mg5 3.338964 1_545
Mg4 Mg7 3.138922 1_555
Mg4 Mg8 3.138922 1_554
Mg4 Mg6 3.226488 1_555
Mg4 Mg6 3.253304 1_565
Mg5 Mg9 3.199665 1_555
Mg5 Y0 3.240401 1_565
Mg5 Y0 3.240401 1_665
Mg6 Mg9 3.138922 1_545
Mg7 Y0 3.222293 1_555
Mg7 Mg9 3.227186 1_555
Mg7 Mg9 3.252606 1_545
Mg8 Y0 3.222293 1_555
Mg9 Y0 3.222290 1_565
Mg10 Mg2 3.138922 1_456
Mg10 Mg6 3.138922 1_566
Mg10 Mg5 3.199665 1_555
Mg10 Y0 3.222290 1_565
Mg10 Mg8 3.227186 1_555
Mg10 Mg12 3.227186 1_555
Mg10 Mg14 3.242011 1_455
Mg10 Mg14 3.242011 1_565
Mg10 Mg12 3.252606 1_455
Mg10 Mg8 3.252606 1_565
Mg11 Mg6 3.138919 1_565
Mg11 Mg4 3.138922 1_555
Mg11 Mg5 3.199662 1_555
Mg11 Mg3 3.199665 1_555
Mg11 Y0 3.222293 1_665
Mg11 Mg7 3.227186 1_555
Mg11 Mg9 3.227186 1_555
Mg11 Mg13 3.242005 1_565
Mg11 Mg13 3.242018 1_555
Mg11 Mg7 3.252606 1_665
Mg11 Mg9 3.252606 1_655
Mg12 Mg6 3.138919 1_566
Mg12 Mg4 3.138922 1_556
Mg12 Mg5 3.199662 1_555
Mg12 Mg3 3.199665 1_555
Mg12 Y0 3.222293 1_665
Mg12 Mg8 3.227186 1_555
Mg12 Mg14 3.242005 1_565
Mg12 Mg14 3.242018 1_555
Mg12 Mg8 3.252606 1_665
Mg13 Mg5 3.158259 1_545
Mg13 Mg3 3.158262 1_555
Mg13 Mg6 3.228886 1_555
Mg13 Mg2 3.228886 1_555
Mg13 Mg4 3.228889 1_555
Mg13 Mg7 3.242005 1_655
Mg13 Mg9 3.242011 1_655
Mg13 Mg9 3.242011 1_545
Mg13 Mg7 3.242018 1_555
Mg14 Mg5 3.158259 1_545
Mg14 Mg3 3.158262 1_555
Mg14 Mg6 3.228886 1_556
Mg14 Mg2 3.228886 1_556
Mg14 Mg4 3.228889 1_556
Mg14 Mg8 3.242005 1_655
Mg14 Mg8 3.242018 1_555
