# generated using pymatgen
data_Sr2LiYbUO6
_symmetry_space_group_name_H-M   'P 1'
_cell_length_a   6.02998318
_cell_length_b   6.02998318
_cell_length_c   6.57746361
_cell_angle_alpha   62.71724337
_cell_angle_beta   62.71724337
_cell_angle_gamma   60.00000000
_symmetry_Int_Tables_number   1
_chemical_formula_structural   Sr2LiYbUO6
_chemical_formula_sum   'Sr2 Li1 Yb1 U1 O6'
_cell_volume   175.72826800
_cell_formula_units_Z   1
loop_
 _symmetry_equiv_pos_site_id
 _symmetry_equiv_pos_as_xyz
  1  'x, y, z'
loop_
 _atom_site_type_symbol
 _atom_site_label
 _atom_site_symmetry_multiplicity
 _atom_site_fract_x
 _atom_site_fract_y
 _atom_site_fract_z
 _atom_site_occupancy
  Sr  Sr0  1  0.69361800  0.69361800  0.91914600  1
  Sr  Sr1  1  0.25198300  0.25198300  0.24405200  1
  Li  Li0  1  0.86603800  0.86603800  0.40188500  1
  Yb  Yb0  1  0.49893200  0.49893200  0.50320600  1
  U  U0  1  0.01653800  0.01653800  0.95038500  1
  O  O0  1  0.76568700  0.76568700  0.21760100  1
  O  O1  1  0.24996800  0.24996800  0.74492500  1
  O  O2  1  0.75514000  0.24996800  0.74492500  1
  O  O3  1  0.25102500  0.76568700  0.21760100  1
  O  O4  1  0.24996800  0.75514000  0.74492500  1
  O  O5  1  0.76568700  0.25102500  0.21760100  1
loop_
_geom_bond_atom_site_label_1
_geom_bond_atom_site_label_2
_geom_bond_distance
_geom_bond_site_symmetry_2
Li0 O0 1.978022 1_555
Li0 O3 1.978027 1_655
Li0 O5 1.978027 1_565
O0 U0 2.253592 1_664
O0 Yb0 2.398055 1_555
O0 Sr0 2.446309 1_554
O0 Sr1 3.019034 1_655
O0 Sr1 3.019034 1_565
O1 U0 2.069390 1_555
O1 Yb0 2.216460 1_555
O1 Sr1 3.283383 1_555
O1 Sr1 3.294177 1_556
O2 U0 2.069382 1_655
O2 Yb0 2.216456 1_555
O2 Sr1 3.283383 1_655
O2 Sr1 3.294177 1_556
O3 U0 2.253596 1_564
O3 Yb0 2.398063 1_555
O3 Sr0 2.446309 1_554
O3 Sr1 3.019031 1_555
O3 Sr1 3.019037 1_565
O4 U0 2.069382 1_565
O4 Yb0 2.216456 1_555
O4 Sr1 3.283383 1_565
O4 Sr1 3.294177 1_556
O5 U0 2.253596 1_654
O5 Yb0 2.398063 1_555
O5 Sr0 2.446309 1_554
O5 Sr1 3.019031 1_555
O5 Sr1 3.019037 1_655
