# generated using pymatgen
data_Gd3FeO6
_symmetry_space_group_name_H-M   'P 1'
_cell_length_a   7.19624045
_cell_length_b   7.19624045
_cell_length_c   5.49938041
_cell_angle_alpha   90.00000000
_cell_angle_beta   90.00000000
_cell_angle_gamma   102.92099656
_symmetry_Int_Tables_number   1
_chemical_formula_structural   Gd3FeO6
_chemical_formula_sum   'Gd6 Fe2 O12'
_cell_volume   277.57915207
_cell_formula_units_Z   2
loop_
 _symmetry_equiv_pos_site_id
 _symmetry_equiv_pos_as_xyz
  1  'x, y, z'
loop_
 _atom_site_type_symbol
 _atom_site_label
 _atom_site_symmetry_multiplicity
 _atom_site_fract_x
 _atom_site_fract_y
 _atom_site_fract_z
 _atom_site_occupancy
  Gd  Gd0  1  0.58678194  0.79820042  0.04110456  1
  Gd  Gd1  1  0.20179958  0.41321806  0.04110456  1
  Gd  Gd2  1  0.41321806  0.20179958  0.54110456  1
  Gd  Gd3  1  0.79820042  0.58678194  0.54110456  1
  Gd  Gd4  1  0.10331561  0.89668439  0.99622749  1
  Gd  Gd5  1  0.89668439  0.10331561  0.49622749  1
  Fe  Fe0  1  0.30853300  0.69146700  0.57266362  1
  Fe  Fe1  1  0.69146700  0.30853300  0.07266362  1
  O  O0  1  0.17532328  0.14541054  0.26936272  1
  O  O1  1  0.85458946  0.82467672  0.26936272  1
  O  O2  1  0.82467672  0.85458946  0.76936272  1
  O  O3  1  0.14541054  0.17532328  0.76936272  1
  O  O4  1  0.60522686  0.08086166  0.24922586  1
  O  O5  1  0.91913834  0.39477314  0.24922586  1
  O  O6  1  0.39477314  0.91913834  0.74922586  1
  O  O7  1  0.08086166  0.60522686  0.74922586  1
  O  O8  1  0.53924735  0.46075265  0.22084940  1
  O  O9  1  0.46075265  0.53924735  0.72084940  1
  O  O10  1  0.28374931  0.71625069  0.23482421  1
  O  O11  1  0.71625069  0.28374931  0.73482421  1
loop_
_geom_bond_atom_site_label_1
_geom_bond_atom_site_label_2
_geom_bond_distance
_geom_bond_site_symmetry_2
Gd0 O2 2.240094 1_554
Gd0 O1 2.271990 1_555
Gd0 O4 2.311795 1_565
Gd0 O10 2.379713 1_555
Gd0 O6 2.404356 1_554
Gd0 O8 2.572846 1_555
Gd0 O9 2.577042 1_554
Gd1 O3 2.240094 1_554
Gd1 O0 2.271990 1_555
Gd1 O5 2.311795 1_455
Gd1 O10 2.379713 1_555
Gd1 O7 2.404356 1_554
Gd1 O8 2.572846 1_555
Gd1 O9 2.577042 1_554
Gd2 O0 2.240094 1_555
Gd2 O3 2.271990 1_555
Gd2 O6 2.311795 1_545
Gd2 O11 2.379713 1_555
Gd2 O4 2.404356 1_555
Gd2 O9 2.572846 1_555
Gd2 O8 2.577042 1_555
Gd3 O1 2.240094 1_555
Gd3 O2 2.271990 1_555
Gd3 O7 2.311795 1_655
Gd3 O11 2.379713 1_555
Gd3 O5 2.404356 1_555
Gd3 O9 2.572846 1_555
Gd3 O8 2.577042 1_555
Gd4 O1 2.305140 1_456
Gd4 O0 2.305140 1_566
Gd4 O2 2.323209 1_455
Gd4 O3 2.323209 1_565
Gd4 O10 2.418180 1_556
Gd4 O6 2.473612 1_555
Gd4 O7 2.473612 1_555
Gd5 O2 2.305140 1_545
Gd5 O3 2.305140 1_655
Gd5 O1 2.323209 1_545
Gd5 O0 2.323209 1_655
Gd5 O11 2.418180 1_555
Gd5 O4 2.473612 1_555
Gd5 O5 2.473612 1_555
Fe0 O10 1.878740 1_555
Fe0 O7 1.886139 1_555
Fe0 O6 1.886139 1_555
Fe0 O9 1.897518 1_555
Fe1 O11 1.878740 1_554
Fe1 O5 1.886139 1_555
Fe1 O4 1.886139 1_555
Fe1 O8 1.897518 1_555
