# generated using pymatgen
data_CrH20N2O6F5
_symmetry_space_group_name_H-M   'P 1'
_cell_length_a   7.14419459
_cell_length_b   7.14419459
_cell_length_c   13.50932661
_cell_angle_alpha   89.50277857
_cell_angle_beta   90.49722143
_cell_angle_gamma   121.19366545
_symmetry_Int_Tables_number   1
_chemical_formula_structural   CrH20N2O6F5
_chemical_formula_sum   'Cr2 H40 N4 O12 F10'
_cell_volume   589.79200295
_cell_formula_units_Z   2
loop_
 _symmetry_equiv_pos_site_id
 _symmetry_equiv_pos_as_xyz
  1  'x, y, z'
loop_
 _atom_site_type_symbol
 _atom_site_label
 _atom_site_symmetry_multiplicity
 _atom_site_fract_x
 _atom_site_fract_y
 _atom_site_fract_z
 _atom_site_occupancy
  Cr  Cr0  1  0.00000000  0.00000000  0.50000000  1
  Cr  Cr1  1  0.00000000  0.00000000  0.00000000  1
  H  H0  1  0.66692700  0.33754500  0.90202700  1
  H  H1  1  0.33754500  0.66692700  0.59797300  1
  H  H2  1  0.33307300  0.66245500  0.09797300  1
  H  H3  1  0.66245500  0.33307300  0.40202700  1
  H  H4  1  0.52003000  0.31636800  0.79765500  1
  H  H5  1  0.31636800  0.52003000  0.70234500  1
  H  H6  1  0.47997000  0.68363200  0.20234500  1
  H  H7  1  0.68363200  0.47997000  0.29765500  1
  H  H8  1  0.68388800  0.20794400  0.79934300  1
  H  H9  1  0.20794400  0.68388800  0.70065700  1
  H  H10  1  0.31611200  0.79205600  0.20065700  1
  H  H11  1  0.79205600  0.31611200  0.29934300  1
  H  H12  1  0.79653000  0.48334400  0.79759600  1
  H  H13  1  0.48334400  0.79653000  0.70240400  1
  H  H14  1  0.20347000  0.51665600  0.20240400  1
  H  H15  1  0.51665600  0.20347000  0.29759600  1
  H  H16  1  0.76846700  0.57679400  0.55970900  1
  H  H17  1  0.57679400  0.76846700  0.94029100  1
  H  H18  1  0.23153300  0.42320600  0.44029100  1
  H  H19  1  0.42320600  0.23153300  0.05970900  1
  H  H20  1  0.90682900  0.73128000  0.65270500  1
  H  H21  1  0.73128000  0.90682900  0.84729500  1
  H  H22  1  0.09317100  0.26872000  0.34729500  1
  H  H23  1  0.26872000  0.09317100  0.15270500  1
  H  H24  1  0.80755100  0.21729400  0.55751200  1
  H  H25  1  0.21729400  0.80755100  0.94248800  1
  H  H26  1  0.19244900  0.78270600  0.44248800  1
  H  H27  1  0.78270600  0.19244900  0.05751200  1
  H  H28  1  0.82739200  0.09229100  0.65397800  1
  H  H29  1  0.09229100  0.82739200  0.84602200  1
  H  H30  1  0.17260800  0.90770900  0.34602200  1
  H  H31  1  0.90770900  0.17260800  0.15397800  1
  H  H32  1  0.26834100  0.17794400  0.65318300  1
  H  H33  1  0.17794400  0.26834100  0.84681700  1
  H  H34  1  0.73165900  0.82205600  0.34681700  1
  H  H35  1  0.82205600  0.73165900  0.15318300  1
  H  H36  1  0.42123200  0.19964700  0.55980600  1
  H  H37  1  0.19964700  0.42123200  0.94019400  1
  H  H38  1  0.57876800  0.80035300  0.44019400  1
  H  H39  1  0.80035300  0.57876800  0.05980600  1
  N  N0  1  0.66654900  0.33588800  0.82482400  1
  N  N1  1  0.33588800  0.66654900  0.67517600  1
  N  N2  1  0.33345100  0.66411200  0.17517600  1
  N  N3  1  0.66411200  0.33345100  0.32482400  1
  O  O0  1  0.83561800  0.73026900  0.58710600  1
  O  O1  1  0.73026900  0.83561800  0.91289400  1
  O  O2  1  0.16438200  0.26973100  0.41289400  1
  O  O3  1  0.26973100  0.16438200  0.08710600  1
  O  O4  1  0.89548000  0.15774100  0.58652700  1
  O  O5  1  0.15774100  0.89548000  0.91347300  1
  O  O6  1  0.10452000  0.84225900  0.41347300  1
  O  O7  1  0.84225900  0.10452000  0.08652700  1
  O  O8  1  0.26722000  0.10948000  0.58732300  1
  O  O9  1  0.10948000  0.26722000  0.91267700  1
  O  O10  1  0.73278000  0.89052000  0.41267700  1
  O  O11  1  0.89052000  0.73278000  0.08732300  1
  F  F0  1  0.66338400  0.33232300  0.52974000  1
  F  F1  1  0.33232300  0.66338400  0.97026000  1
  F  F2  1  0.33661600  0.66767700  0.47026000  1
  F  F3  1  0.66767700  0.33661600  0.02974000  1
  F  F4  1  0.00750000  0.70874700  0.74981000  1
  F  F5  1  0.70874700  0.00750000  0.75019000  1
  F  F6  1  0.99250000  0.29125300  0.25019000  1
  F  F7  1  0.29125300  0.99250000  0.24981000  1
  F  F8  1  0.30028300  0.30028300  0.75000000  1
  F  F9  1  0.69971700  0.69971700  0.25000000  1
loop_
_geom_bond_atom_site_label_1
_geom_bond_atom_site_label_2
_geom_bond_distance
_geom_bond_site_symmetry_2
Cr0 O8 2.019441 1_555
Cr0 O10 2.019441 1_445
Cr0 O6 2.025739 1_545
Cr0 O4 2.025739 1_455
Cr0 O0 2.029208 1_445
Cr0 O2 2.029208 1_555
Cr1 O11 2.019441 1_445
Cr1 O9 2.019441 1_554
Cr1 O7 2.025739 1_455
Cr1 O5 2.025739 1_544
Cr1 O1 2.029208 1_444
Cr1 O3 2.029208 1_555
H0 N0 1.043095 1_555
H1 N1 1.043095 1_555
H2 N2 1.043095 1_555
H3 N3 1.043095 1_555
H4 N0 1.045408 1_555
H5 N1 1.045408 1_555
H6 N2 1.045408 1_555
H7 N3 1.045408 1_555
H8 N0 1.045384 1_555
H9 N1 1.045384 1_555
H10 N2 1.045384 1_555
H11 N3 1.045384 1_555
H12 N0 1.045587 1_555
H13 N1 1.045587 1_555
H14 N2 1.045587 1_555
H15 N3 1.045587 1_555
H16 O0 1.014117 1_555
H17 O1 1.014117 1_555
H18 O2 1.014117 1_555
H19 O3 1.014117 1_555
H20 O0 1.016219 1_555
H21 O1 1.016219 1_555
H22 O2 1.016219 1_555
H23 O3 1.016219 1_555
H24 O4 0.999476 1_555
H25 O5 0.999476 1_555
H26 O6 0.999476 1_555
H27 O7 0.999476 1_555
H28 O4 1.024824 1_555
H29 O5 1.024824 1_555
H30 O6 1.024824 1_555
H31 O7 1.024824 1_555
H32 O8 1.016997 1_555
H33 O9 1.016997 1_555
H34 O10 1.016997 1_555
H35 O11 1.016997 1_555
H36 O8 1.016136 1_555
H37 O9 1.016136 1_555
H38 O10 1.016136 1_555
H39 O11 1.016136 1_555
F0 H36 1.537261 1_555
F0 H16 1.557795 1_555
F1 H37 1.537261 1_555
F1 H17 1.557795 1_555
F2 H38 1.537261 1_555
F2 H18 1.557795 1_555
F3 H39 1.537261 1_555
F3 H19 1.557795 1_555
F4 H29 1.499457 1_555
F4 H20 1.537515 1_455
F5 H28 1.499457 1_555
F5 H21 1.537515 1_545
F6 H31 1.499457 1_555
F6 H22 1.537515 1_655
F7 H30 1.499457 1_555
F7 H23 1.537515 1_565
F8 H33 1.527979 1_555
F8 H32 1.527979 1_555
F8 H4 1.639868 1_555
F8 H5 1.639868 1_555
F9 H34 1.527979 1_555
F9 H35 1.527979 1_555
F9 H7 1.639868 1_555
F9 H6 1.639868 1_555
