# generated using pymatgen
data_MgTi2(PO4)3
_symmetry_space_group_name_H-M   'P 1'
_cell_length_a   8.53041461
_cell_length_b   8.53041461
_cell_length_c   8.53041494
_cell_angle_alpha   61.00976073
_cell_angle_beta   61.00976073
_cell_angle_gamma   61.00976517
_symmetry_Int_Tables_number   1
_chemical_formula_structural   MgTi2(PO4)3
_chemical_formula_sum   'Mg2 Ti4 P6 O24'
_cell_volume   448.91288019
_cell_formula_units_Z   2
loop_
 _symmetry_equiv_pos_site_id
 _symmetry_equiv_pos_as_xyz
  1  'x, y, z'
loop_
 _atom_site_type_symbol
 _atom_site_label
 _atom_site_symmetry_multiplicity
 _atom_site_fract_x
 _atom_site_fract_y
 _atom_site_fract_z
 _atom_site_occupancy
  Mg  Mg0  1  0.00000000  0.00000000  0.00000000  1
  Mg  Mg1  1  0.50000000  0.50000000  0.50000000  1
  Ti  Ti0  1  0.35534200  0.35534200  0.35534200  1
  Ti  Ti1  1  0.85534200  0.85534200  0.85534200  1
  Ti  Ti2  1  0.14465800  0.14465800  0.14465800  1
  Ti  Ti3  1  0.64465800  0.64465800  0.64465800  1
  P  P0  1  0.45381200  0.04618800  0.75000000  1
  P  P1  1  0.75000000  0.45381200  0.04618800  1
  P  P2  1  0.04618800  0.75000000  0.45381200  1
  P  P3  1  0.95381200  0.25000000  0.54618800  1
  P  P4  1  0.25000000  0.54618800  0.95381200  1
  P  P5  1  0.54618800  0.95381200  0.25000000  1
  O  O0  1  0.50069100  0.11325300  0.31764000  1
  O  O1  1  0.11325300  0.31764000  0.50069100  1
  O  O2  1  0.25825700  0.05781500  0.91001000  1
  O  O3  1  0.31764000  0.50069100  0.11325300  1
  O  O4  1  0.61325300  0.00069100  0.81764000  1
  O  O5  1  0.44218500  0.24174300  0.58999000  1
  O  O6  1  0.91001000  0.25825700  0.05781500  1
  O  O7  1  0.58999000  0.44218500  0.24174300  1
  O  O8  1  0.99930900  0.18236000  0.38674700  1
  O  O9  1  0.24174300  0.58999000  0.44218500  1
  O  O10  1  0.94218500  0.08999000  0.74174300  1
  O  O11  1  0.18236000  0.38674700  0.99930900  1
  O  O12  1  0.81764000  0.61325300  0.00069100  1
  O  O13  1  0.05781500  0.91001000  0.25825700  1
  O  O14  1  0.75825700  0.41001000  0.55781500  1
  O  O15  1  0.00069100  0.81764000  0.61325300  1
  O  O16  1  0.41001000  0.55781500  0.75825700  1
  O  O17  1  0.08999000  0.74174300  0.94218500  1
  O  O18  1  0.55781500  0.75825700  0.41001000  1
  O  O19  1  0.38674700  0.99930900  0.18236000  1
  O  O20  1  0.68236000  0.49930900  0.88674700  1
  O  O21  1  0.74174300  0.94218500  0.08999000  1
  O  O22  1  0.88674700  0.68236000  0.49930900  1
  O  O23  1  0.49930900  0.88674700  0.68236000  1
loop_
_geom_bond_atom_site_label_1
_geom_bond_atom_site_label_2
_geom_bond_distance
_geom_bond_site_symmetry_2
Mg0 O21 2.175503 1_445
Mg0 O2 2.175503 1_554
Mg0 O17 2.175503 1_544
Mg0 O6 2.175503 1_455
Mg0 O10 2.175503 1_454
Mg0 O13 2.175503 1_545
Mg1 O18 2.175503 1_555
Mg1 O5 2.175503 1_555
Mg1 O14 2.175503 1_555
Mg1 O9 2.175503 1_555
Mg1 O16 2.175503 1_555
Mg1 O7 2.175503 1_555
O0 P5 1.537979 1_545
O0 Ti0 1.918535 1_555
O1 P3 1.537979 1_455
O1 Ti0 1.918535 1_555
O2 P0 1.555456 1_555
O2 Ti2 2.087040 1_556
O3 P4 1.537979 1_554
O3 Ti0 1.918535 1_555
O4 P0 1.537979 1_555
O4 Ti1 1.918535 1_545
O5 P0 1.555456 1_555
O5 Ti0 2.087040 1_555
O6 P1 1.555456 1_555
O6 Ti2 2.087040 1_655
O7 P1 1.555456 1_555
O7 Ti0 2.087040 1_555
O8 P3 1.537979 1_555
O8 Ti2 1.918535 1_655
O9 P2 1.555456 1_555
O9 Ti0 2.087040 1_555
O10 P3 1.555456 1_555
O10 Ti1 2.087040 1_545
O11 P4 1.537979 1_555
O11 Ti2 1.918535 1_556
O12 P1 1.537979 1_555
O12 Ti1 1.918535 1_554
O13 P2 1.555456 1_555
O13 Ti2 2.087040 1_565
O14 P3 1.555456 1_555
O14 Ti3 2.087040 1_555
O15 P2 1.537979 1_555
O15 Ti1 1.918535 1_455
O16 P4 1.555456 1_555
O16 Ti3 2.087040 1_555
O17 P4 1.555456 1_555
O17 Ti1 2.087040 1_455
O18 P5 1.555456 1_555
O18 Ti3 2.087040 1_555
O19 P5 1.537979 1_555
O19 Ti2 1.918535 1_565
O20 P1 1.537979 1_556
O20 Ti3 1.918535 1_555
O21 P5 1.555456 1_555
O21 Ti1 2.087040 1_554
O22 P2 1.537979 1_655
O22 Ti3 1.918535 1_555
O23 P0 1.537979 1_565
O23 Ti3 1.918535 1_555
