# generated using pymatgen
data_Rb4Fe2O
_symmetry_space_group_name_H-M   'P 1'
_cell_length_a   10.26777170
_cell_length_b   10.26777170
_cell_length_c   10.26777170
_cell_angle_alpha   60.00000000
_cell_angle_beta   60.00000000
_cell_angle_gamma   60.00000000
_symmetry_Int_Tables_number   1
_chemical_formula_structural   Rb4Fe2O
_chemical_formula_sum   'Rb8 Fe4 O2'
_cell_volume   765.44433630
_cell_formula_units_Z   2
loop_
 _symmetry_equiv_pos_site_id
 _symmetry_equiv_pos_as_xyz
  1  'x, y, z'
loop_
 _atom_site_type_symbol
 _atom_site_label
 _atom_site_symmetry_multiplicity
 _atom_site_fract_x
 _atom_site_fract_y
 _atom_site_fract_z
 _atom_site_occupancy
  Rb  Rb0  1  0.35700100  0.35700100  0.35700100  1
  Rb  Rb1  1  0.35700100  0.35700100  0.92899800  1
  Rb  Rb2  1  0.35700100  0.92899800  0.35700100  1
  Rb  Rb3  1  0.89299900  0.89299900  0.32100200  1
  Rb  Rb4  1  0.89299900  0.89299900  0.89299900  1
  Rb  Rb5  1  0.92899800  0.35700100  0.35700100  1
  Rb  Rb6  1  0.89299900  0.32100200  0.89299900  1
  Rb  Rb7  1  0.32100200  0.89299900  0.89299900  1
  Fe  Fe0  1  0.12500000  0.12500000  0.12500000  1
  Fe  Fe1  1  0.12500000  0.12500000  0.62500000  1
  Fe  Fe2  1  0.12500000  0.62500000  0.12500000  1
  Fe  Fe3  1  0.62500000  0.12500000  0.12500000  1
  O  O0  1  0.00000000  0.00000000  0.00000000  1
  O  O1  1  0.25000000  0.25000000  0.25000000  1
loop_
_geom_bond_atom_site_label_1
_geom_bond_atom_site_label_2
_geom_bond_distance
_geom_bond_site_symmetry_2
Fe0 Rb6 3.389062 1_454
Fe0 Rb2 3.389062 1_545
Fe0 Rb1 3.389062 1_554
Fe0 Rb5 3.389062 1_455
Fe0 Rb3 3.389062 1_445
Fe0 Rb7 3.389062 1_544
Fe1 Rb5 3.389055 1_455
Fe1 Rb7 3.389055 1_545
Fe1 Rb6 3.389055 1_455
Fe1 Rb2 3.389055 1_545
Fe1 Rb4 3.389061 1_445
Fe1 Rb0 3.389061 1_555
Fe2 Rb1 3.389055 1_554
Fe2 Rb5 3.389055 1_455
Fe2 Rb3 3.389055 1_455
Fe2 Rb7 3.389055 1_554
Fe2 Rb4 3.389061 1_454
Fe2 Rb0 3.389061 1_555
Fe3 Rb1 3.389055 1_554
Fe3 Rb3 3.389055 1_545
Fe3 Rb2 3.389055 1_545
Fe3 Rb6 3.389055 1_554
Fe3 Rb4 3.389061 1_544
Fe3 Rb0 3.389061 1_555
O0 Rb3 2.691153 1_445
O0 Rb6 2.691153 1_454
O0 Rb7 2.691153 1_544
O0 Rb4 2.691161 1_444
O1 Rb1 2.691153 1_554
O1 Rb2 2.691153 1_545
O1 Rb5 2.691153 1_455
O1 Rb0 2.691161 1_555
