# generated using pymatgen
data_La3TaO7
_symmetry_space_group_name_H-M   'P 1'
_cell_length_a   6.75197621
_cell_length_b   6.75197621
_cell_length_c   3.95555926
_cell_angle_alpha   90.00000000
_cell_angle_beta   90.00000000
_cell_angle_gamma   110.70004249
_symmetry_Int_Tables_number   1
_chemical_formula_structural   La3TaO7
_chemical_formula_sum   'La3 Ta1 O7'
_cell_volume   168.68924263
_cell_formula_units_Z   1
loop_
 _symmetry_equiv_pos_site_id
 _symmetry_equiv_pos_as_xyz
  1  'x, y, z'
loop_
 _atom_site_type_symbol
 _atom_site_label
 _atom_site_symmetry_multiplicity
 _atom_site_fract_x
 _atom_site_fract_y
 _atom_site_fract_z
 _atom_site_occupancy
  La  La0  1  -0.00000000  0.00000000  0.00000000  1
  La  La1  1  0.50000000  0.00000000  0.50000000  1
  La  La2  1  -0.00000000  0.50000000  0.50000000  1
  Ta  Ta0  1  0.50000000  0.50000000  0.00000000  1
  O  O0  1  0.50000000  0.50000000  0.50000000  1
  O  O1  1  0.43206586  0.18554501  -0.00000000  1
  O  O2  1  0.81445499  0.56793414  0.00000000  1
  O  O3  1  0.56793414  0.81445499  0.00000000  1
  O  O4  1  0.18554501  0.43206586  -0.00000000  1
  O  O5  1  0.13012412  0.86987588  0.50000000  1
  O  O6  1  0.86987588  0.13012412  0.50000000  1
loop_
_geom_bond_atom_site_label_1
_geom_bond_atom_site_label_2
_geom_bond_distance
_geom_bond_site_symmetry_2
La0 O6 2.449732 1_455
La0 O6 2.449732 1_454
La0 O5 2.449732 1_544
La0 O5 2.449732 1_545
La0 O1 2.737951 1_555
La0 O3 2.737951 1_445
La0 O4 2.737951 1_555
La0 O2 2.737951 1_445
La1 O5 2.336175 1_545
La1 O6 2.336175 1_555
La1 O1 2.469362 1_556
La1 O1 2.469362 1_555
La1 O3 2.469362 1_546
La1 O3 2.469362 1_545
La2 O6 2.336175 1_455
La2 O5 2.336175 1_555
La2 O4 2.469362 1_555
La2 O4 2.469362 1_556
La2 O2 2.469362 1_455
La2 O2 2.469362 1_456
O0 Ta0 1.977780 1_555
O0 Ta0 1.977780 1_556
O1 Ta0 2.007449 1_555
O2 Ta0 2.007449 1_555
O3 Ta0 2.007449 1_555
O4 Ta0 2.007449 1_555
