# generated using pymatgen
data_SmFeSb3
_symmetry_space_group_name_H-M   'P 1'
_cell_length_a   6.15207800
_cell_length_b   12.13662800
_cell_length_c   12.72170500
_cell_angle_alpha   90.00000000
_cell_angle_beta   90.00000000
_cell_angle_gamma   90.00000000
_symmetry_Int_Tables_number   1
_chemical_formula_structural   SmFeSb3
_chemical_formula_sum   'Sm8 Fe8 Sb24'
_cell_volume   949.87223712
_cell_formula_units_Z   8
loop_
 _symmetry_equiv_pos_site_id
 _symmetry_equiv_pos_as_xyz
  1  'x, y, z'
loop_
 _atom_site_type_symbol
 _atom_site_label
 _atom_site_symmetry_multiplicity
 _atom_site_fract_x
 _atom_site_fract_y
 _atom_site_fract_z
 _atom_site_occupancy
  Sm  Sm0  1  0.25000000  0.50000000  0.70224600  1
  Sm  Sm1  1  0.75000000  0.00000000  0.29775400  1
  Sm  Sm2  1  0.75000000  0.50000000  0.29775400  1
  Sm  Sm3  1  0.25000000  0.00000000  0.70224600  1
  Sm  Sm4  1  0.22256600  0.25000000  0.30286400  1
  Sm  Sm5  1  0.77743400  0.75000000  0.69713600  1
  Sm  Sm6  1  0.27743400  0.75000000  0.30286400  1
  Sm  Sm7  1  0.72256600  0.25000000  0.69713600  1
  Fe  Fe0  1  0.46253100  0.36115500  0.10075300  1
  Fe  Fe1  1  0.53746900  0.86115500  0.89924700  1
  Fe  Fe2  1  0.03746900  0.63884500  0.10075300  1
  Fe  Fe3  1  0.96253100  0.13884500  0.89924700  1
  Fe  Fe4  1  0.53746900  0.63884500  0.89924700  1
  Fe  Fe5  1  0.46253100  0.13884500  0.10075300  1
  Fe  Fe6  1  0.96253100  0.36115500  0.89924700  1
  Fe  Fe7  1  0.03746900  0.86115500  0.10075300  1
  Sb  Sb0  1  0.25000000  0.50000000  0.97223700  1
  Sb  Sb1  1  0.75000000  0.00000000  0.02776300  1
  Sb  Sb2  1  0.75000000  0.50000000  0.02776300  1
  Sb  Sb3  1  0.25000000  0.00000000  0.97223700  1
  Sb  Sb4  1  0.23316100  0.25000000  0.78381100  1
  Sb  Sb5  1  0.76683900  0.75000000  0.21618900  1
  Sb  Sb6  1  0.26683900  0.75000000  0.78381100  1
  Sb  Sb7  1  0.73316100  0.25000000  0.21618900  1
  Sb  Sb8  1  0.98660400  0.37561900  0.50325500  1
  Sb  Sb9  1  0.01339600  0.87561900  0.49674500  1
  Sb  Sb10  1  0.51339600  0.62438100  0.50325500  1
  Sb  Sb11  1  0.48660400  0.12438100  0.49674500  1
  Sb  Sb12  1  0.01339600  0.62438100  0.49674500  1
  Sb  Sb13  1  0.98660400  0.12438100  0.50325500  1
  Sb  Sb14  1  0.48660400  0.37561900  0.49674500  1
  Sb  Sb15  1  0.51339600  0.87561900  0.50325500  1
  Sb  Sb16  1  0.25000000  0.50000000  0.21907900  1
  Sb  Sb17  1  0.75000000  0.00000000  0.78092100  1
  Sb  Sb18  1  0.75000000  0.50000000  0.78092100  1
  Sb  Sb19  1  0.25000000  0.00000000  0.21907900  1
  Sb  Sb20  1  0.61417000  0.25000000  0.94317300  1
  Sb  Sb21  1  0.38583000  0.75000000  0.05682700  1
  Sb  Sb22  1  0.88583000  0.75000000  0.94317300  1
  Sb  Sb23  1  0.11417000  0.25000000  0.05682700  1
loop_
_geom_bond_atom_site_label_1
_geom_bond_atom_site_label_2
_geom_bond_distance
_geom_bond_site_symmetry_2
Fe0 Sb20 2.590171 1_554
Fe0 Sb23 2.593312 1_555
Fe0 Sb7 2.597799 1_555
Fe0 Sb16 2.610579 1_555
Fe0 Sb2 2.613335 1_555
Fe0 Sb0 2.687417 1_554
Fe0 Sm4 3.257360 1_555
Fe0 Sm2 3.499755 1_555
Fe1 Sb21 2.590171 1_556
Fe1 Sb22 2.593312 1_555
Fe1 Sb6 2.597799 1_555
Fe1 Sb17 2.610579 1_565
Fe1 Sb3 2.613335 1_565
Fe1 Sb1 2.687417 1_566
Fe1 Sm5 3.257360 1_555
Fe1 Sm3 3.499755 1_565
Fe2 Sb22 2.590171 1_454
Fe2 Sb21 2.593312 1_555
Fe2 Sb5 2.597799 1_455
Fe2 Sb16 2.610579 1_555
Fe2 Sb2 2.613335 1_455
Fe2 Sb0 2.687417 1_554
Fe2 Sm6 3.257360 1_555
Fe2 Sm2 3.499755 1_455
Fe3 Sb23 2.590171 1_656
Fe3 Sb20 2.593312 1_555
Fe3 Sb4 2.597799 1_655
Fe3 Sb17 2.610579 1_555
Fe3 Sb3 2.613335 1_655
Fe3 Sb1 2.687417 1_556
Fe3 Sm7 3.257360 1_555
Fe3 Sm3 3.499755 1_655
Fe4 Sb21 2.590171 1_556
Fe4 Sb22 2.593312 1_555
Fe4 Sb6 2.597799 1_555
Fe4 Sb18 2.610579 1_555
Fe4 Sb0 2.613335 1_555
Fe4 Sb2 2.687417 1_556
Fe4 Sm5 3.257360 1_555
Fe4 Sm0 3.499755 1_555
Fe5 Sb20 2.590171 1_554
Fe5 Sb23 2.593312 1_555
Fe5 Sb7 2.597799 1_555
Fe5 Sb19 2.610579 1_555
Fe5 Sb1 2.613335 1_555
Fe5 Sb3 2.687417 1_554
Fe5 Sm4 3.257360 1_555
Fe5 Sm1 3.499755 1_555
Fe6 Sb23 2.590171 1_656
Fe6 Sb20 2.593312 1_555
Fe6 Sb4 2.597799 1_655
Fe6 Sb18 2.610579 1_555
Fe6 Sb0 2.613335 1_655
Fe6 Sb2 2.687417 1_556
Fe6 Sm7 3.257360 1_555
Fe6 Sm0 3.499755 1_655
Fe7 Sb22 2.590171 1_454
Fe7 Sb21 2.593312 1_555
Fe7 Sb5 2.597799 1_455
Fe7 Sb19 2.610579 1_565
Fe7 Sb1 2.613335 1_465
Fe7 Sb3 2.687417 1_564
Fe7 Sm6 3.257360 1_555
Fe7 Sm1 3.499755 1_465
Sb0 Sm0 3.434746 1_555
Sb1 Sm1 3.434746 1_555
Sb2 Sm2 3.434746 1_555
Sb3 Sm3 3.434746 1_555
Sb4 Sm7 3.206417 1_555
Sb4 Sm3 3.208356 1_555
Sb4 Sm0 3.208356 1_555
Sb4 Sm7 3.329131 1_455
Sb5 Sm6 3.206417 1_555
Sb5 Sm2 3.208356 1_555
Sb5 Sm1 3.208356 1_565
Sb5 Sm6 3.329131 1_655
Sb6 Sm5 3.206417 1_455
Sb6 Sm0 3.208356 1_555
Sb6 Sm3 3.208356 1_565
Sb6 Sm5 3.329131 1_555
Sb7 Sm4 3.206417 1_655
Sb7 Sm2 3.208356 1_555
Sb7 Sm1 3.208356 1_555
Sb7 Sm4 3.329131 1_555
Sb8 Sm4 3.306160 1_655
Sb8 Sm7 3.323643 1_555
Sb8 Sm2 3.351457 1_555
Sb8 Sm0 3.363496 1_655
Sb9 Sm5 3.306160 1_455
Sb9 Sm6 3.323643 1_555
Sb9 Sm3 3.351457 1_565
Sb9 Sm1 3.363496 1_465
Sb10 Sb14 3.024762 1_555
Sb10 Sb15 3.049182 1_555
Sb10 Sb12 3.077154 1_555
Sb10 Sb12 3.077154 1_655
Sb10 Sm6 3.306160 1_555
Sb10 Sm5 3.323643 1_555
Sb10 Sm2 3.351457 1_555
Sb10 Sm0 3.363496 1_555
Sb11 Sb15 3.024762 1_545
Sb11 Sb14 3.049182 1_555
Sb11 Sb13 3.077154 1_555
Sb11 Sb13 3.077154 1_455
Sb11 Sm7 3.306160 1_555
Sb11 Sm4 3.323643 1_555
Sb11 Sm3 3.351457 1_555
Sb11 Sm1 3.363496 1_555
Sb12 Sb8 3.024762 1_455
Sb12 Sb9 3.049182 1_555
Sb12 Sm5 3.306160 1_455
Sb12 Sm6 3.323643 1_555
Sb12 Sm0 3.351457 1_555
Sb12 Sm2 3.363496 1_455
Sb13 Sb9 3.024762 1_645
Sb13 Sb8 3.049182 1_555
Sb13 Sm4 3.306160 1_655
Sb13 Sm7 3.323643 1_555
Sb13 Sm1 3.351457 1_555
Sb13 Sm3 3.363496 1_655
Sb14 Sb8 3.077154 1_555
Sb14 Sb8 3.077154 1_455
Sb14 Sm7 3.306160 1_555
Sb14 Sm4 3.323643 1_555
Sb14 Sm0 3.351457 1_555
Sb14 Sm2 3.363496 1_555
Sb15 Sb9 3.077154 1_555
Sb15 Sb9 3.077154 1_655
Sb15 Sm6 3.306160 1_555
Sb15 Sm5 3.323643 1_555
Sb15 Sm1 3.351457 1_565
Sb15 Sm3 3.363496 1_565
Sb16 Sm6 3.220359 1_555
Sb16 Sm4 3.220359 1_555
Sb16 Sm2 3.234776 1_555
Sb16 Sm2 3.234776 1_455
Sb17 Sm7 3.220359 1_555
Sb17 Sm5 3.220359 1_545
Sb17 Sm3 3.234776 1_555
Sb17 Sm3 3.234776 1_655
Sb18 Sm7 3.220359 1_555
Sb18 Sm5 3.220359 1_555
Sb18 Sm0 3.234776 1_555
Sb18 Sm0 3.234776 1_655
Sb19 Sm6 3.220359 1_545
Sb19 Sm4 3.220359 1_555
Sb19 Sm1 3.234776 1_555
Sb19 Sm1 3.234776 1_455
Sb20 Sb4 3.099112 1_555
Sb20 Sm7 3.200260 1_555
Sb21 Sb5 3.099112 1_555
Sb21 Sm6 3.200260 1_555
Sb22 Sb6 3.099112 1_655
Sb22 Sm5 3.200260 1_555
Sb23 Sb7 3.099112 1_455
Sb23 Sm4 3.200260 1_555
