# generated using pymatgen
data_MgV2O4
_symmetry_space_group_name_H-M   'P 1'
_cell_length_a   5.17611500
_cell_length_b   5.92979200
_cell_length_c   10.31467000
_cell_angle_alpha   90.00000000
_cell_angle_beta   90.00000000
_cell_angle_gamma   90.00000000
_symmetry_Int_Tables_number   1
_chemical_formula_structural   MgV2O4
_chemical_formula_sum   'Mg4 V8 O16'
_cell_volume   316.59110927
_cell_formula_units_Z   4
loop_
 _symmetry_equiv_pos_site_id
 _symmetry_equiv_pos_as_xyz
  1  'x, y, z'
loop_
 _atom_site_type_symbol
 _atom_site_label
 _atom_site_symmetry_multiplicity
 _atom_site_fract_x
 _atom_site_fract_y
 _atom_site_fract_z
 _atom_site_occupancy
  Mg  Mg0  1  0.83942800  0.00000000  0.50000000  1
  Mg  Mg1  1  0.16057200  0.50000000  0.00000000  1
  Mg  Mg2  1  0.50931300  0.00000000  0.00000000  1
  Mg  Mg3  1  0.49068700  0.50000000  0.50000000  1
  V  V0  1  0.51235400  0.50000000  0.23553600  1
  V  V1  1  0.51235400  0.50000000  0.76446400  1
  V  V2  1  0.48764600  0.00000000  0.26446400  1
  V  V3  1  0.48764600  0.00000000  0.73553600  1
  V  V4  1  0.00000000  0.25000000  0.25000000  1
  V  V5  1  0.00000000  0.75000000  0.75000000  1
  V  V6  1  0.00000000  0.75000000  0.25000000  1
  V  V7  1  0.00000000  0.25000000  0.75000000  1
  O  O0  1  0.85580600  0.50000000  0.14015500  1
  O  O1  1  0.85580600  0.50000000  0.85984500  1
  O  O2  1  0.14419400  0.00000000  0.35984500  1
  O  O3  1  0.14419400  0.00000000  0.64015500  1
  O  O4  1  0.19201800  0.50000000  0.34604100  1
  O  O5  1  0.19201800  0.50000000  0.65395900  1
  O  O6  1  0.80798200  0.00000000  0.15395900  1
  O  O7  1  0.80798200  0.00000000  0.84604100  1
  O  O8  1  0.65871000  0.25401300  0.36485600  1
  O  O9  1  0.65871000  0.74598700  0.63514400  1
  O  O10  1  0.34129000  0.75401300  0.13514400  1
  O  O11  1  0.34129000  0.24598700  0.86485600  1
  O  O12  1  0.34129000  0.24598700  0.13514400  1
  O  O13  1  0.34129000  0.75401300  0.86485600  1
  O  O14  1  0.65871000  0.74598700  0.36485600  1
  O  O15  1  0.65871000  0.25401300  0.63514400  1
loop_
_geom_bond_atom_site_label_1
_geom_bond_atom_site_label_2
_geom_bond_distance
_geom_bond_site_symmetry_2
Mg0 O2 2.139727 1_655
Mg0 O3 2.139727 1_655
Mg0 O8 2.255420 1_555
Mg0 O14 2.255420 1_545
Mg0 O9 2.255420 1_545
Mg0 O15 2.255420 1_555
Mg1 O0 2.139727 1_455
Mg1 O1 2.139727 1_454
Mg1 O12 2.255420 1_555
Mg1 O13 2.255420 1_554
Mg1 O10 2.255420 1_555
Mg1 O11 2.255420 1_554
Mg2 O10 2.197088 1_545
Mg2 O13 2.197088 1_544
Mg2 O12 2.197088 1_555
Mg2 O11 2.197088 1_554
Mg2 O6 2.216259 1_555
Mg2 O7 2.216259 1_554
Mg3 O14 2.197088 1_555
Mg3 O8 2.197088 1_555
Mg3 O9 2.197088 1_555
Mg3 O15 2.197088 1_555
Mg3 O4 2.216259 1_555
Mg3 O5 2.216259 1_555
O0 V4 2.009586 1_655
O0 V6 2.009586 1_655
O0 V0 2.031820 1_555
O1 V7 2.009586 1_655
O1 V5 2.009586 1_655
O1 V1 2.031820 1_555
O2 V6 2.009586 1_545
O2 V4 2.009586 1_555
O2 V2 2.031820 1_555
O3 V5 2.009586 1_545
O3 V7 2.009586 1_555
O3 V3 2.031820 1_555
O4 V0 2.012083 1_555
O4 V4 2.041287 1_555
O4 V6 2.041287 1_555
O5 V1 2.012083 1_555
O5 V5 2.041287 1_555
O5 V7 2.041287 1_555
O6 V2 2.012083 1_555
O6 V6 2.041287 1_645
O6 V4 2.041287 1_655
O7 V3 2.012083 1_555
O7 V5 2.041287 1_645
O7 V7 2.041287 1_655
O8 V2 2.031027 1_555
O8 V0 2.116796 1_555
O8 V4 2.127159 1_655
O9 V3 2.031027 1_565
O9 V1 2.116796 1_555
O9 V5 2.127159 1_655
O10 V0 2.031027 1_555
O10 V2 2.116796 1_565
O10 V6 2.127159 1_555
O11 V1 2.031027 1_555
O11 V3 2.116796 1_555
O11 V7 2.127159 1_555
O12 V0 2.031027 1_555
O12 V2 2.116796 1_555
O12 V4 2.127159 1_555
O13 V1 2.031027 1_555
O13 V3 2.116796 1_565
O13 V5 2.127159 1_555
O14 V2 2.031027 1_565
O14 V0 2.116796 1_555
O14 V6 2.127159 1_655
O15 V3 2.031027 1_555
O15 V1 2.116796 1_555
O15 V7 2.127159 1_655
