# generated using pymatgen
data_Sr2ZrO4
_symmetry_space_group_name_H-M   'P 1'
_cell_length_a   7.06916220
_cell_length_b   7.06916220
_cell_length_c   7.06916220
_cell_angle_alpha   145.64793702
_cell_angle_beta   145.64793702
_cell_angle_gamma   49.36999195
_symmetry_Int_Tables_number   1
_chemical_formula_structural   Sr2ZrO4
_chemical_formula_sum   'Sr2 Zr1 O4'
_cell_volume   111.96868375
_cell_formula_units_Z   1
loop_
 _symmetry_equiv_pos_site_id
 _symmetry_equiv_pos_as_xyz
  1  'x, y, z'
loop_
 _atom_site_type_symbol
 _atom_site_label
 _atom_site_symmetry_multiplicity
 _atom_site_fract_x
 _atom_site_fract_y
 _atom_site_fract_z
 _atom_site_occupancy
  Sr  Sr0  1  0.35254000  0.35254000  0.00000000  1
  Sr  Sr1  1  0.64746000  0.64746000  0.00000000  1
  Zr  Zr0  1  0.00000000  0.00000000  0.00000000  1
  O  O0  1  0.16607200  0.16607200  0.00000000  1
  O  O1  1  0.83392800  0.83392800  0.00000000  1
  O  O2  1  0.50000000  0.00000000  0.50000000  1
  O  O3  1  0.00000000  0.50000000  0.50000000  1
loop_
_geom_bond_atom_site_label_1
_geom_bond_atom_site_label_2
_geom_bond_distance
_geom_bond_site_symmetry_2
O0 Zr0 2.133416 1_555
O0 Sr0 2.395429 1_555
O0 Sr1 2.961954 1_455
O0 Sr1 2.961954 1_556
O0 Sr1 2.961954 1_444
O0 Sr1 2.961954 1_545
O1 Zr0 2.133416 1_665
O1 Sr1 2.395429 1_555
O1 Sr0 2.961954 1_565
O1 Sr0 2.961954 1_666
O1 Sr0 2.961954 1_655
O1 Sr0 2.961954 1_554
O2 Zr0 2.087583 1_656
O2 Zr0 2.087583 1_555
O2 Sr0 2.818945 1_545
O2 Sr0 2.818945 1_556
O2 Sr1 2.818945 1_545
O2 Sr1 2.818945 1_556
O3 Zr0 2.087583 1_566
O3 Zr0 2.087583 1_555
O3 Sr0 2.818945 1_455
O3 Sr0 2.818945 1_556
O3 Sr1 2.818945 1_455
O3 Sr1 2.818945 1_556
