# generated using pymatgen
data_Li7Mn4CoO12
_symmetry_space_group_name_H-M   'P 1'
_cell_length_a   5.23704240
_cell_length_b   10.37111235
_cell_length_c   8.66372215
_cell_angle_alpha   72.40150057
_cell_angle_beta   104.67383049
_cell_angle_gamma   95.88049069
_symmetry_Int_Tables_number   1
_chemical_formula_structural   Li7Mn4CoO12
_chemical_formula_sum   'Li14 Mn8 Co2 O24'
_cell_volume   433.73764520
_cell_formula_units_Z   2
loop_
 _symmetry_equiv_pos_site_id
 _symmetry_equiv_pos_as_xyz
  1  'x, y, z'
loop_
 _atom_site_type_symbol
 _atom_site_label
 _atom_site_symmetry_multiplicity
 _atom_site_fract_x
 _atom_site_fract_y
 _atom_site_fract_z
 _atom_site_occupancy
  Li  Li0  1  0.07597800  0.24976400  0.08155400  1
  Li  Li1  1  0.59075200  0.75023900  0.58512200  1
  Li  Li2  1  0.57772100  0.12456700  0.05830400  1
  Li  Li3  1  0.07791000  0.62244000  0.56211400  1
  Li  Li4  1  0.58878000  0.37759900  0.10455100  1
  Li  Li5  1  0.08896900  0.87545300  0.60834800  1
  Li  Li6  1  0.37787400  0.62467400  0.86543100  1
  Li  Li7  1  0.87740500  0.12275100  0.36447100  1
  Li  Li8  1  0.28874200  0.37535500  0.80120700  1
  Li  Li9  1  0.78914500  0.87726100  0.30215000  1
  Li  Li10  1  0.71353800  0.62445700  0.21026800  1
  Li  Li11  1  0.21633500  0.12404000  0.71168700  1
  Li  Li12  1  0.45035100  0.87598100  0.95499800  1
  Li  Li13  1  0.95323700  0.37553200  0.45644900  1
  Mn  Mn0  1  0.00360600  0.00344000  0.00292600  1
  Mn  Mn1  1  0.51214700  0.50326800  0.50339500  1
  Mn  Mn2  1  0.15436600  0.49689000  0.16328100  1
  Mn  Mn3  1  0.66303000  0.99655400  0.66370700  1
  Mn  Mn4  1  0.75025300  0.25181000  0.75415700  1
  Mn  Mn5  1  0.24902800  0.75023600  0.25543800  1
  Mn  Mn6  1  0.91635700  0.74816800  0.91249800  1
  Mn  Mn7  1  0.41779900  0.24973000  0.41128700  1
  Co  Co0  1  0.33331300  0.99999300  0.33330300  1
  Co  Co1  1  0.83337100  0.50000000  0.83333100  1
  O  O0  1  0.09183800  0.18669400  0.87773300  1
  O  O1  1  0.59299000  0.68664800  0.37870800  1
  O  O2  1  0.07371500  0.31335800  0.28794700  1
  O  O3  1  0.57484400  0.81328400  0.78896100  1
  O  O4  1  0.97905100  0.68163700  0.74467400  1
  O  O5  1  0.47435500  0.18168200  0.24266900  1
  O  O6  1  0.68765700  0.31837900  0.92201200  1
  O  O7  1  0.19225400  0.81827600  0.42397000  1
  O  O8  1  0.27318200  0.68845300  0.06462800  1
  O  O9  1  0.77454500  0.19042200  0.56205700  1
  O  O10  1  0.89211500  0.80952600  0.10464300  1
  O  O11  1  0.39350700  0.31153900  0.60205100  1
  O  O12  1  0.89918300  0.42909000  0.66300200  1
  O  O13  1  0.39381400  0.92853800  0.16463200  1
  O  O14  1  0.76749200  0.57090100  0.00367500  1
  O  O15  1  0.27281300  0.07140200  0.50198100  1
  O  O16  1  0.19026500  0.44534900  0.97769500  1
  O  O17  1  0.71990100  0.94248000  0.48802500  1
  O  O18  1  0.47644400  0.55469000  0.68897400  1
  O  O19  1  0.94673200  0.05748300  0.17862300  1
  O  O20  1  0.56335800  0.42887800  0.32449000  1
  O  O21  1  0.06600900  0.92762500  0.82886100  1
  O  O22  1  0.10333300  0.57111000  0.34220000  1
  O  O23  1  0.60059900  0.07235100  0.83781500  1
loop_
_geom_bond_atom_site_label_1
_geom_bond_atom_site_label_2
_geom_bond_distance
_geom_bond_site_symmetry_2
Li0 O19 2.034653 1_455
Li0 O16 2.050080 1_554
Li0 O0 2.082514 1_554
Li0 O2 2.087588 1_555
Li0 O6 2.197799 1_454
Li0 O5 2.242800 1_555
Li1 O17 2.034190 1_555
Li1 O18 2.049792 1_555
Li1 O3 2.082586 1_555
Li1 O1 2.087711 1_555
Li1 O4 2.197702 1_555
Li1 O7 2.243300 1_555
Li2 O19 2.030192 1_555
Li2 O5 2.066673 1_555
Li2 O6 2.106687 1_554
Li2 O23 2.170595 1_554
Li2 O13 2.196648 1_545
Li3 O4 2.052741 1_455
Li3 O7 2.135444 1_555
Li3 O12 2.152016 1_455
Li3 O22 2.165075 1_555
Li3 O18 2.174667 1_555
Li4 O6 2.052751 1_554
Li4 O5 2.136137 1_555
Li4 O14 2.151576 1_555
Li4 O20 2.165010 1_555
Li4 O16 2.174575 1_554
Li5 O17 2.030285 1_455
Li5 O7 2.066922 1_555
Li5 O4 2.106789 1_455
Li5 O21 2.170689 1_555
Li5 O15 2.195959 1_565
Li6 O18 2.068331 1_555
Li6 O16 2.094302 1_555
Li6 O3 2.116234 1_555
Li6 O14 2.121337 1_556
Li6 O4 2.139638 1_455
Li6 O8 2.227206 1_556
Li7 O19 2.046493 1_555
Li7 O17 2.059814 1_545
Li7 O2 2.130880 1_655
Li7 O15 2.140901 1_655
Li7 O5 2.165273 1_555
Li7 O9 2.232537 1_555
Li8 O16 2.068407 1_555
Li8 O18 2.094531 1_555
Li8 O0 2.116559 1_555
Li8 O12 2.120919 1_455
Li8 O6 2.140159 1_555
Li8 O11 2.227271 1_555
Li9 O17 2.046235 1_555
Li9 O19 2.059563 1_565
Li9 O1 2.130596 1_555
Li9 O13 2.140440 1_555
Li9 O7 2.165701 1_655
Li9 O10 2.232554 1_555
Li10 O1 2.015820 1_555
Li10 O10 2.097549 1_555
Li10 O22 2.108718 1_655
Li10 O14 2.116956 1_555
Li10 O20 2.136777 1_555
Li10 O8 2.384113 1_555
Li11 O0 2.010991 1_555
Li11 O23 2.069774 1_555
Li11 O11 2.122359 1_555
Li11 O15 2.142776 1_555
Li11 O21 2.150748 1_545
Li11 O9 2.403069 1_455
Li12 O3 2.011165 1_555
Li12 O21 2.070050 1_555
Li12 O8 2.122559 1_556
Li12 O13 2.141853 1_556
Li12 O23 2.150253 1_565
Li12 O10 2.403147 1_556
Li13 O2 2.016009 1_655
Li13 O9 2.098101 1_555
Li13 O20 2.109144 1_555
Li13 O12 2.116831 1_555
Li13 O22 2.136662 1_655
Li13 O11 2.383652 1_655
Mn0 O19 1.870757 1_455
Mn0 O0 1.956908 1_554
Mn0 O21 2.004651 1_544
Mn0 O10 2.027424 1_445
Mn0 O13 2.226871 1_545
Mn0 O23 2.274384 1_454
Mn1 O18 1.896217 1_555
Mn1 O1 1.946186 1_555
Mn1 O20 2.011394 1_555
Mn1 O11 2.014618 1_555
Mn1 O12 2.206496 1_555
Mn1 O22 2.286669 1_555
Mn2 O16 1.897303 1_554
Mn2 O2 1.947111 1_555
Mn2 O22 2.010052 1_555
Mn2 O8 2.013480 1_555
Mn2 O14 2.205381 1_455
Mn2 O20 2.287847 1_555
Mn3 O17 1.870809 1_555
Mn3 O3 1.957140 1_555
Mn3 O23 2.004930 1_565
Mn3 O9 2.026944 1_565
Mn3 O15 2.226817 1_565
Mn3 O21 2.274418 1_655
Mn4 O6 1.895775 1_555
Mn4 O0 1.908527 1_655
Mn4 O12 1.937174 1_555
Mn4 O23 1.943396 1_555
Mn4 O9 1.988973 1_555
Mn4 O11 2.026580 1_555
Mn5 O7 1.898486 1_555
Mn5 O1 1.913949 1_555
Mn5 O13 1.936126 1_555
Mn5 O22 1.937553 1_555
Mn5 O8 1.980522 1_555
Mn5 O10 2.022686 1_455
Mn6 O4 1.895494 1_555
Mn6 O3 1.908140 1_555
Mn6 O14 1.936971 1_556
Mn6 O21 1.943341 1_655
Mn6 O10 1.989082 1_556
Mn6 O8 2.026944 1_656
Mn7 O5 1.898779 1_555
Mn7 O2 1.914726 1_555
Mn7 O15 1.936546 1_555
Mn7 O20 1.937516 1_555
Mn7 O11 1.980524 1_555
Mn7 O9 2.021963 1_555
Co0 O15 1.929146 1_565
Co0 O13 1.929393 1_555
Co0 O5 1.956212 1_565
Co0 O7 1.956538 1_555
Co0 O19 2.154017 1_465
Co0 O17 2.154200 1_555
Co1 O12 1.950158 1_555
Co1 O14 1.950362 1_556
Co1 O6 1.961640 1_555
Co1 O4 1.961662 1_555
Co1 O16 1.995758 1_655
Co1 O18 1.995956 1_555
