# generated using pymatgen
data_Ta2FeO6
_symmetry_space_group_name_H-M   'P 1'
_cell_length_a   4.82640900
_cell_length_b   9.31667700
_cell_length_c   14.44751100
_cell_angle_alpha   90.00000000
_cell_angle_beta   90.00000000
_cell_angle_gamma   90.00000000
_symmetry_Int_Tables_number   1
_chemical_formula_structural   Ta2FeO6
_chemical_formula_sum   'Ta12 Fe6 O36'
_cell_volume   649.64813369
_cell_formula_units_Z   6
loop_
 _symmetry_equiv_pos_site_id
 _symmetry_equiv_pos_as_xyz
  1  'x, y, z'
loop_
 _atom_site_type_symbol
 _atom_site_label
 _atom_site_symmetry_multiplicity
 _atom_site_fract_x
 _atom_site_fract_y
 _atom_site_fract_z
 _atom_site_occupancy
  Ta  Ta0  1  0.00155800  0.58460500  0.83749400  1
  Ta  Ta1  1  0.00353400  0.23923200  0.82944200  1
  Ta  Ta2  1  0.99844200  0.58460500  0.16250600  1
  Ta  Ta3  1  0.99646600  0.23923200  0.17055800  1
  Ta  Ta4  1  0.00000000  0.24750300  0.50000000  1
  Ta  Ta5  1  0.50000000  0.09246400  0.00000000  1
  Ta  Ta6  1  0.50000000  0.75249700  0.00000000  1
  Ta  Ta7  1  0.49646600  0.76076800  0.32944200  1
  Ta  Ta8  1  0.50353400  0.76076800  0.67055800  1
  Ta  Ta9  1  0.49844200  0.41539500  0.33749400  1
  Ta  Ta10  1  0.50155800  0.41539500  0.66250600  1
  Ta  Ta11  1  0.00000000  0.90753600  0.50000000  1
  Fe  Fe0  1  0.00716100  0.91673400  0.83230400  1
  Fe  Fe1  1  0.99283900  0.91673400  0.16769600  1
  Fe  Fe2  1  0.00000000  0.58228200  0.50000000  1
  Fe  Fe3  1  0.49283900  0.08326600  0.33230400  1
  Fe  Fe4  1  0.50716100  0.08326600  0.66769600  1
  Fe  Fe5  1  0.50000000  0.41771800  0.00000000  1
  O  O0  1  0.21002000  0.09848800  0.09954300  1
  O  O1  1  0.18809700  0.08277800  0.43844800  1
  O  O2  1  0.19706700  0.09928000  0.76322500  1
  O  O3  1  0.17705100  0.42091800  0.10323900  1
  O  O4  1  0.20157900  0.40200500  0.43027000  1
  O  O5  1  0.20598700  0.41767500  0.76980900  1
  O  O6  1  0.20799700  0.73444900  0.09847400  1
  O  O7  1  0.20560200  0.76182500  0.43146700  1
  O  O8  1  0.20486800  0.73262800  0.76332600  1
  O  O9  1  0.31190300  0.91722200  0.93844800  1
  O  O10  1  0.29439800  0.23817500  0.93146700  1
  O  O11  1  0.30293300  0.90072000  0.26322500  1
  O  O12  1  0.28998000  0.90151200  0.59954300  1
  O  O13  1  0.29513200  0.26737200  0.26332600  1
  O  O14  1  0.29200300  0.26555100  0.59847400  1
  O  O15  1  0.29842100  0.59799500  0.93027000  1
  O  O16  1  0.29401300  0.58232500  0.26980900  1
  O  O17  1  0.32294900  0.57908200  0.60323900  1
  O  O18  1  0.67705100  0.57908200  0.39676100  1
  O  O19  1  0.70157900  0.59799500  0.06973000  1
  O  O20  1  0.70598700  0.58232500  0.73019100  1
  O  O21  1  0.68809700  0.91722200  0.06155200  1
  O  O22  1  0.70560200  0.23817500  0.06853300  1
  O  O23  1  0.71002000  0.90151200  0.40045700  1
  O  O24  1  0.70799700  0.26555100  0.40152600  1
  O  O25  1  0.69706700  0.90072000  0.73677500  1
  O  O26  1  0.70486800  0.26737200  0.73667400  1
  O  O27  1  0.79200300  0.73444900  0.90152600  1
  O  O28  1  0.79513200  0.73262800  0.23667400  1
  O  O29  1  0.79439800  0.76182500  0.56853300  1
  O  O30  1  0.82294900  0.42091800  0.89676100  1
  O  O31  1  0.79401300  0.41767500  0.23019100  1
  O  O32  1  0.79842100  0.40200500  0.56973000  1
  O  O33  1  0.78998000  0.09848800  0.90045700  1
  O  O34  1  0.80293300  0.09928000  0.23677500  1
  O  O35  1  0.81190300  0.08277800  0.56155200  1
loop_
_geom_bond_atom_site_label_1
_geom_bond_atom_site_label_2
_geom_bond_distance
_geom_bond_site_symmetry_2
Fe0 O25 2.041329 1_455
Fe0 O9 2.124847 1_555
Fe0 O2 2.174532 1_565
Fe0 O8 2.201309 1_555
Fe0 O33 2.221635 1_465
Fe0 O27 2.227716 1_455
Fe1 O11 2.041329 1_655
Fe1 O21 2.124847 1_555
Fe1 O34 2.174532 1_565
Fe1 O28 2.201309 1_555
Fe1 O0 2.221635 1_665
Fe1 O6 2.227716 1_655
Fe2 O17 2.157567 1_555
Fe2 O18 2.157567 1_455
Fe2 O7 2.182460 1_555
Fe2 O29 2.182460 1_455
Fe2 O4 2.186880 1_555
Fe2 O32 2.186880 1_455
Fe3 O34 2.041329 1_555
Fe3 O1 2.124847 1_555
Fe3 O11 2.174532 1_545
Fe3 O13 2.201309 1_555
Fe3 O23 2.221635 1_545
Fe3 O24 2.227716 1_555
Fe4 O2 2.041329 1_555
Fe4 O35 2.124847 1_555
Fe4 O25 2.174532 1_545
Fe4 O26 2.201309 1_555
Fe4 O12 2.221635 1_545
Fe4 O14 2.227716 1_555
Fe5 O3 2.157567 1_555
Fe5 O30 2.157567 1_554
Fe5 O22 2.182460 1_555
Fe5 O10 2.182460 1_554
Fe5 O15 2.186880 1_554
Fe5 O19 2.186880 1_555
O0 Ta3 1.958166 1_455
O0 Ta5 2.007535 1_555
O1 Ta4 1.992546 1_555
O1 Ta11 2.068958 1_545
O2 Ta1 1.867573 1_555
O3 Ta2 1.949866 1_455
O3 Ta3 2.137954 1_455
O4 Ta9 1.965974 1_555
O4 Ta4 2.008344 1_555
O5 Ta0 2.085304 1_555
O5 Ta10 2.106845 1_555
O5 Ta1 2.112090 1_555
O6 Ta2 1.956449 1_455
O6 Ta6 2.009617 1_555
O7 Ta11 1.951404 1_555
O7 Ta7 2.035566 1_555
O8 Ta8 1.985680 1_555
O8 Ta0 2.003232 1_555
O9 Ta6 1.992546 1_556
O9 Ta5 2.068958 1_566
O10 Ta5 1.951404 1_556
O10 Ta1 2.035566 1_555
O11 Ta7 1.867573 1_555
O12 Ta8 1.958166 1_555
O12 Ta11 2.007535 1_555
O13 Ta3 1.985680 1_455
O13 Ta9 2.003232 1_555
O14 Ta10 1.956449 1_555
O14 Ta4 2.009617 1_555
O15 Ta0 1.965974 1_555
O15 Ta6 2.008344 1_556
O16 Ta9 2.085304 1_555
O16 Ta2 2.106845 1_455
O16 Ta7 2.112090 1_555
O17 Ta10 1.949866 1_555
O17 Ta8 2.137954 1_555
O18 Ta9 1.949866 1_555
O18 Ta7 2.137954 1_555
O19 Ta2 1.965974 1_555
O19 Ta6 2.008344 1_555
O20 Ta10 2.085304 1_555
O20 Ta0 2.106845 1_655
O20 Ta8 2.112090 1_555
O21 Ta6 1.992546 1_555
O21 Ta5 2.068958 1_565
O22 Ta5 1.951404 1_555
O22 Ta3 2.035566 1_555
O23 Ta7 1.958166 1_555
O23 Ta11 2.007535 1_655
O24 Ta9 1.956449 1_555
O24 Ta4 2.009617 1_655
O25 Ta8 1.867573 1_555
O26 Ta1 1.985680 1_655
O26 Ta10 2.003232 1_555
O27 Ta0 1.956449 1_655
O27 Ta6 2.009617 1_556
O28 Ta7 1.985680 1_555
O28 Ta2 2.003232 1_555
O29 Ta11 1.951404 1_655
O29 Ta8 2.035566 1_555
O30 Ta0 1.949866 1_655
O30 Ta1 2.137954 1_655
O31 Ta2 2.085304 1_555
O31 Ta9 2.106845 1_555
O31 Ta3 2.112090 1_555
O32 Ta10 1.965974 1_555
O32 Ta4 2.008344 1_655
O33 Ta1 1.958166 1_655
O33 Ta5 2.007535 1_556
O34 Ta3 1.867573 1_555
O35 Ta4 1.992546 1_655
O35 Ta11 2.068958 1_645
