# generated using pymatgen
data_Mo3W(SeS)4
_symmetry_space_group_name_H-M   'P 1'
_cell_length_a   3.25276155
_cell_length_b   3.25276155
_cell_length_c   36.86233600
_cell_angle_alpha   90.00000000
_cell_angle_beta   90.00000000
_cell_angle_gamma   119.99999076
_symmetry_Int_Tables_number   1
_chemical_formula_structural   Mo3W(SeS)4
_chemical_formula_sum   'Mo3 W1 Se4 S4'
_cell_volume   337.76759355
_cell_formula_units_Z   1
loop_
 _symmetry_equiv_pos_site_id
 _symmetry_equiv_pos_as_xyz
  1  'x, y, z'
loop_
 _atom_site_type_symbol
 _atom_site_label
 _atom_site_symmetry_multiplicity
 _atom_site_fract_x
 _atom_site_fract_y
 _atom_site_fract_z
 _atom_site_occupancy
  Mo  Mo0  1  0.00000000  0.00000000  0.09390900  1
  Mo  Mo1  1  0.33333300  0.66666700  0.28178800  1
  Mo  Mo2  1  0.33333300  0.66666700  0.65755200  1
  W  W0  1  0.00000000  0.00000000  0.46966800  1
  Se  Se0  1  0.00000000  0.00000000  0.32786000  1
  Se  Se1  1  0.00000000  0.00000000  0.70364500  1
  Se  Se2  1  0.00000000  0.00000000  0.23569900  1
  Se  Se3  1  0.00000000  0.00000000  0.61146200  1
  S  S0  1  0.33333300  0.66666700  0.05199000  1
  S  S1  1  0.33333300  0.66666700  0.42763400  1
  S  S2  1  0.33333300  0.66666700  0.13584100  1
  S  S3  1  0.33333300  0.66666700  0.51170100  1
loop_
_geom_bond_atom_site_label_1
_geom_bond_atom_site_label_2
_geom_bond_distance
_geom_bond_site_symmetry_2
Mo0 S0 2.431986 1_545
Mo0 S0 2.431988 1_555
Mo0 S0 2.431988 1_445
Mo0 S2 2.432290 1_545
Mo0 S2 2.432293 1_555
Mo0 S2 2.432293 1_445
Mo1 Se0 2.532017 1_565
Mo1 Se0 2.532019 1_555
Mo1 Se0 2.532019 1_665
Mo1 Se2 2.532437 1_565
Mo1 Se2 2.532439 1_665
Mo1 Se2 2.532439 1_555
Mo2 Se3 2.532462 1_565
Mo2 Se3 2.532464 1_555
Mo2 Se3 2.532464 1_665
Mo2 Se1 2.532536 1_565
Mo2 Se1 2.532538 1_665
Mo2 Se1 2.532538 1_555
S1 W0 2.434681 1_565
S1 W0 2.434684 1_555
S1 W0 2.434684 1_665
S3 W0 2.434658 1_565
S3 W0 2.434660 1_555
S3 W0 2.434660 1_665
