# generated using pymatgen
data_SrV6O11
_symmetry_space_group_name_H-M   'P 1'
_cell_length_a   5.83296200
_cell_length_b   5.83296263
_cell_length_c   13.16231800
_cell_angle_alpha   90.00000000
_cell_angle_beta   90.00000000
_cell_angle_gamma   119.99999642
_symmetry_Int_Tables_number   1
_chemical_formula_structural   SrV6O11
_chemical_formula_sum   'Sr2 V12 O22'
_cell_volume   387.82997097
_cell_formula_units_Z   2
loop_
 _symmetry_equiv_pos_site_id
 _symmetry_equiv_pos_as_xyz
  1  'x, y, z'
loop_
 _atom_site_type_symbol
 _atom_site_label
 _atom_site_symmetry_multiplicity
 _atom_site_fract_x
 _atom_site_fract_y
 _atom_site_fract_z
 _atom_site_occupancy
  Sr  Sr0  1  0.66666700  0.33333300  0.75419300  1
  Sr  Sr1  1  0.33333300  0.66666700  0.25419300  1
  V  V0  1  0.33333300  0.66666700  0.75913500  1
  V  V1  1  0.66666700  0.33333300  0.25913500  1
  V  V2  1  0.00000000  0.00000000  0.85900400  1
  V  V3  1  0.00000000  0.00000000  0.35900400  1
  V  V4  1  0.00000000  0.00000000  0.65361600  1
  V  V5  1  0.00000000  0.00000000  0.15361600  1
  V  V6  1  0.49674700  0.50325300  0.50756700  1
  V  V7  1  0.99349400  0.49674700  0.00756700  1
  V  V8  1  0.50325300  0.00650600  0.00756700  1
  V  V9  1  0.49674700  0.99349400  0.50756700  1
  V  V10  1  0.00650600  0.50325300  0.50756700  1
  V  V11  1  0.50325300  0.49674700  0.00756700  1
  O  O0  1  0.33333300  0.66666700  0.92187100  1
  O  O1  1  0.66666700  0.33333300  0.42187100  1
  O  O2  1  0.33333300  0.66666700  0.59752900  1
  O  O3  1  0.66666700  0.33333300  0.09752900  1
  O  O4  1  0.84836900  0.15163100  0.25708200  1
  O  O5  1  0.69673800  0.84836900  0.75708200  1
  O  O6  1  0.15163100  0.30326200  0.75708200  1
  O  O7  1  0.84836900  0.69673800  0.25708200  1
  O  O8  1  0.30326200  0.15163100  0.25708200  1
  O  O9  1  0.15163100  0.84836900  0.75708200  1
  O  O10  1  0.82896600  0.17103400  0.92559900  1
  O  O11  1  0.65793300  0.82896600  0.42559900  1
  O  O12  1  0.17103400  0.34206700  0.42559900  1
  O  O13  1  0.82896600  0.65793300  0.92559900  1
  O  O14  1  0.17218800  0.82781200  0.08797000  1
  O  O15  1  0.34437500  0.17218800  0.58797000  1
  O  O16  1  0.82781200  0.65562500  0.58797000  1
  O  O17  1  0.17218800  0.34437500  0.08797000  1
  O  O18  1  0.65562500  0.82781200  0.08797000  1
  O  O19  1  0.82781200  0.17218800  0.58797000  1
  O  O20  1  0.17103400  0.82896600  0.42559900  1
  O  O21  1  0.34206700  0.17103400  0.92559900  1
loop_
_geom_bond_atom_site_label_1
_geom_bond_atom_site_label_2
_geom_bond_distance
_geom_bond_site_symmetry_2
O0 V7 2.054101 1_456
O0 V8 2.054101 1_566
O0 V11 2.054105 1_556
O0 V0 2.141983 1_555
O1 V10 2.054101 1_655
O1 V9 2.054101 1_545
O1 V6 2.054105 1_555
O1 V1 2.141983 1_555
O2 V10 2.031698 1_555
O2 V9 2.031698 1_555
O2 V6 2.031702 1_555
O2 V0 2.127110 1_555
O3 V7 2.031698 1_555
O3 V8 2.031698 1_555
O3 V11 2.031702 1_555
O3 V1 2.127110 1_555
O4 V1 1.835932 1_555
O4 V3 2.036296 1_655
O4 V5 2.049741 1_655
O4 Sr1 2.920682 1_545
O4 Sr1 2.920682 1_655
O5 V0 1.835937 1_555
O5 V2 2.036296 1_665
O5 V4 2.049741 1_665
O5 Sr0 2.920679 1_565
O5 Sr0 2.920685 1_555
O6 V0 1.835937 1_555
O6 V2 2.036296 1_555
O6 V4 2.049741 1_555
O6 Sr0 2.920679 1_455
O6 Sr0 2.920685 1_555
O7 V1 1.835937 1_555
O7 V3 2.036296 1_665
O7 V5 2.049741 1_665
O7 Sr1 2.920679 1_655
O7 Sr1 2.920685 1_555
O8 V1 1.835937 1_555
O8 V3 2.036296 1_555
O8 V5 2.049741 1_555
O8 Sr1 2.920679 1_545
O8 Sr1 2.920685 1_555
O9 V0 1.835932 1_555
O9 V2 2.036296 1_565
O9 V4 2.049741 1_565
O9 Sr0 2.920682 1_565
O9 Sr0 2.920682 1_455
O10 V2 1.937565 1_655
O10 V8 1.967544 1_556
O10 V7 1.967544 1_556
O10 Sr0 2.789018 1_555
O11 V3 1.937560 1_665
O11 V6 1.967544 1_555
O11 V9 1.967548 1_555
O11 Sr1 2.789024 1_555
O12 V3 1.937560 1_555
O12 V6 1.967544 1_555
O12 V10 1.967548 1_555
O12 Sr1 2.789024 1_555
O13 V2 1.937560 1_665
O13 V11 1.967544 1_556
O13 V7 1.967548 1_556
O13 Sr0 2.789024 1_555
O14 V5 1.942381 1_565
O14 V8 1.980581 1_565
O14 V7 1.980581 1_455
O14 Sr1 2.727151 1_555
O15 V4 1.942376 1_555
O15 V6 1.980581 1_555
O15 V9 1.980585 1_545
O15 Sr0 2.727157 1_555
O16 V4 1.942376 1_665
O16 V6 1.980581 1_555
O16 V10 1.980585 1_655
O16 Sr0 2.727157 1_555
O17 V5 1.942376 1_555
O17 V11 1.980581 1_555
O17 V7 1.980585 1_455
O17 Sr1 2.727157 1_555
O18 V5 1.942376 1_665
O18 V11 1.980581 1_555
O18 V8 1.980585 1_565
O18 Sr1 2.727157 1_555
O19 V4 1.942381 1_655
O19 V9 1.980581 1_545
O19 V10 1.980581 1_655
O19 Sr0 2.727151 1_555
O20 V3 1.937565 1_565
O20 V9 1.967544 1_555
O20 V10 1.967544 1_555
O20 Sr1 2.789018 1_555
O21 V2 1.937560 1_555
O21 V11 1.967544 1_556
O21 V8 1.967548 1_556
O21 Sr0 2.789024 1_555
