# generated using pymatgen
data_Li7Mn5O12
_symmetry_space_group_name_H-M   'P 1'
_cell_length_a   6.01663400
_cell_length_b   6.51199983
_cell_length_c   6.51903591
_cell_angle_alpha   71.96818355
_cell_angle_beta   76.87383862
_cell_angle_gamma   65.98268157
_symmetry_Int_Tables_number   1
_chemical_formula_structural   Li7Mn5O12
_chemical_formula_sum   'Li7 Mn5 O12'
_cell_volume   220.33743745
_cell_formula_units_Z   1
loop_
 _symmetry_equiv_pos_site_id
 _symmetry_equiv_pos_as_xyz
  1  'x, y, z'
loop_
 _atom_site_type_symbol
 _atom_site_label
 _atom_site_symmetry_multiplicity
 _atom_site_fract_x
 _atom_site_fract_y
 _atom_site_fract_z
 _atom_site_occupancy
  Li  Li0  1  0.25627200  0.49702400  0.49934700  1
  Li  Li1  1  0.91829600  0.83834800  0.17256600  1
  Li  Li2  1  0.58895600  0.16939600  0.82550600  1
  Li  Li3  1  0.74372800  0.50297600  0.50065300  1
  Li  Li4  1  0.41104400  0.83060400  0.17449400  1
  Li  Li5  1  0.08170400  0.16165200  0.82743400  1
  Li  Li6  1  0.00000000  0.00000000  0.50000000  1
  Mn  Mn0  1  0.82854700  0.67311600  0.83139900  1
  Mn  Mn1  1  0.50000000  0.00000000  0.50000000  1
  Mn  Mn2  1  0.17145300  0.32688400  0.16860100  1
  Mn  Mn3  1  0.32063600  0.67603200  0.82887500  1
  Mn  Mn4  1  0.67936400  0.32396800  0.17112500  1
  O  O0  1  0.83657700  0.76751200  0.51589700  1
  O  O1  1  0.55950400  0.07967500  0.18573300  1
  O  O2  1  0.22070200  0.42392500  0.84373300  1
  O  O3  1  0.38164000  0.75841000  0.51256800  1
  O  O4  1  0.03514700  0.10697600  0.16229400  1
  O  O5  1  0.69749900  0.43004400  0.84961900  1
  O  O6  1  0.61836000  0.24159000  0.48743200  1
  O  O7  1  0.30250100  0.56995600  0.15038100  1
  O  O8  1  0.96485300  0.89302400  0.83770600  1
  O  O9  1  0.16342300  0.23248800  0.48410300  1
  O  O10  1  0.77929800  0.57607500  0.15626700  1
  O  O11  1  0.44049600  0.92032500  0.81426700  1
loop_
_geom_bond_atom_site_label_1
_geom_bond_atom_site_label_2
_geom_bond_distance
_geom_bond_site_symmetry_2
Li0 O9 2.050384 1_555
Li0 O2 2.125040 1_555
Li0 O6 2.138284 1_555
Li0 O7 2.151615 1_555
Li0 O3 2.153875 1_555
Li0 O0 2.421544 1_455
Li1 O8 2.071917 1_554
Li1 O1 2.091629 1_565
Li1 O4 2.113305 1_665
Li1 O0 2.123591 1_555
Li1 O10 2.223307 1_555
Li1 O7 2.266062 1_655
Li2 O6 2.087756 1_555
Li2 O5 2.108624 1_555
Li2 O2 2.164119 1_555
Li2 O11 2.171770 1_545
Li2 O1 2.221100 1_556
Li2 O8 2.245012 1_545
Li3 O0 2.050384 1_555
Li3 O10 2.125040 1_555
Li3 O3 2.138284 1_555
Li3 O5 2.151615 1_555
Li3 O6 2.153875 1_555
Li3 O9 2.421544 1_655
Li4 O3 2.087756 1_555
Li4 O7 2.108624 1_555
Li4 O10 2.164119 1_555
Li4 O1 2.171770 1_565
Li4 O11 2.221100 1_554
Li4 O4 2.245012 1_565
Li5 O4 2.071917 1_556
Li5 O11 2.091629 1_545
Li5 O8 2.113305 1_445
Li5 O9 2.123591 1_555
Li5 O2 2.223307 1_555
Li5 O5 2.266062 1_455
Li6 O8 2.082234 1_445
Li6 O4 2.082234 1_555
Li6 O0 2.082779 1_445
Li6 O9 2.082779 1_555
Li6 O3 2.195287 1_545
Li6 O6 2.195287 1_455
Mn0 O8 1.932039 1_555
Mn0 O0 1.951107 1_555
Mn0 O5 1.999583 1_555
Mn0 O10 2.002795 1_556
Mn0 O11 2.236668 1_555
Mn0 O2 2.257305 1_655
Mn1 O1 1.937684 1_555
Mn1 O11 1.937684 1_545
Mn1 O3 1.947972 1_545
Mn1 O6 1.947972 1_555
Mn1 O9 1.976407 1_555
Mn1 O0 1.976407 1_545
Mn2 O4 1.932039 1_555
Mn2 O9 1.951107 1_555
Mn2 O7 1.999583 1_555
Mn2 O2 2.002795 1_554
Mn2 O1 2.236668 1_555
Mn2 O10 2.257305 1_455
Mn3 O2 1.935145 1_555
Mn3 O3 1.950928 1_555
Mn3 O11 1.966924 1_555
Mn3 O7 1.985718 1_556
Mn3 O8 2.028396 1_455
Mn3 O5 2.184968 1_555
Mn4 O10 1.935145 1_555
Mn4 O6 1.950928 1_555
Mn4 O1 1.966924 1_555
Mn4 O5 1.985718 1_554
Mn4 O4 2.028396 1_655
Mn4 O7 2.184968 1_555
