# generated using pymatgen
data_CaV4(CoO4)3
_symmetry_space_group_name_H-M   'P 1'
_cell_length_a   6.48154606
_cell_length_b   6.44039376
_cell_length_c   10.55577659
_cell_angle_alpha   89.47580455
_cell_angle_beta   90.26514707
_cell_angle_gamma   109.67292961
_symmetry_Int_Tables_number   1
_chemical_formula_structural   CaV4(CoO4)3
_chemical_formula_sum   'Ca2 V8 Co6 O24'
_cell_volume   414.89921198
_cell_formula_units_Z   2
loop_
 _symmetry_equiv_pos_site_id
 _symmetry_equiv_pos_as_xyz
  1  'x, y, z'
loop_
 _atom_site_type_symbol
 _atom_site_label
 _atom_site_symmetry_multiplicity
 _atom_site_fract_x
 _atom_site_fract_y
 _atom_site_fract_z
 _atom_site_occupancy
  Ca  Ca0  1  0.00317500  0.00112800  0.99901300  1
  Ca  Ca1  1  0.49680600  0.49871700  0.50097300  1
  V  V0  1  0.75013700  0.74998700  0.25000500  1
  V  V1  1  0.24976500  0.24983100  0.74992400  1
  V  V2  1  0.49998200  0.00190200  0.99902600  1
  V  V3  1  0.00013500  0.49827800  0.50094900  1
  V  V4  1  0.00123300  0.50050900  0.00027900  1
  V  V5  1  0.49903200  0.99944900  0.49985400  1
  V  V6  1  0.25020200  0.25020600  0.25004900  1
  V  V7  1  0.74987600  0.74967600  0.74999200  1
  Co  Co0  1  0.24988100  0.75003000  0.74994800  1
  Co  Co1  1  0.49990300  0.49664800  0.99807200  1
  Co  Co2  1  0.00005100  0.00334700  0.50190000  1
  Co  Co3  1  0.25002100  0.75006300  0.25001300  1
  Co  Co4  1  0.74998700  0.25012600  0.74998200  1
  Co  Co5  1  0.74993300  0.24994500  0.25003400  1
  O  O0  1  0.03123400  0.33537900  0.14611900  1
  O  O1  1  0.53573400  0.84367500  0.64619800  1
  O  O2  1  0.46865900  0.16459200  0.35386800  1
  O  O3  1  0.96422100  0.65620800  0.85389400  1
  O  O4  1  0.67150100  0.96169200  0.15359900  1
  O  O5  1  0.17277400  0.47352400  0.64831300  1
  O  O6  1  0.82848200  0.53830700  0.34635700  1
  O  O7  1  0.32705900  0.02641200  0.85170200  1
  O  O8  1  0.39600400  0.20980900  0.09218700  1
  O  O9  1  0.88820400  0.71116200  0.59901000  1
  O  O10  1  0.10389100  0.29004800  0.40780500  1
  O  O11  1  0.61201100  0.78913300  0.90103400  1
  O  O12  1  0.71128900  0.89547600  0.40937400  1
  O  O13  1  0.20885400  0.39423900  0.90531100  1
  O  O14  1  0.78894300  0.60470500  0.09056400  1
  O  O15  1  0.29101900  0.10563600  0.59473800  1
  O  O16  1  0.06575400  0.94883700  0.23909900  1
  O  O17  1  0.55683600  0.43551600  0.74048300  1
  O  O18  1  0.43425600  0.55118900  0.26079000  1
  O  O19  1  0.94296900  0.06443700  0.75958200  1
  O  O20  1  0.25408300  0.75842800  0.05879400  1
  O  O21  1  0.74835500  0.26931700  0.55604900  1
  O  O22  1  0.24629300  0.74143000  0.44113800  1
  O  O23  1  0.75145600  0.23100600  0.94397800  1
loop_
_geom_bond_atom_site_label_1
_geom_bond_atom_site_label_2
_geom_bond_distance
_geom_bond_site_symmetry_2
Ca0 O7 2.578145 1_555
Ca0 O16 2.601427 1_546
Ca0 O19 2.604865 1_455
Ca0 O23 2.606359 1_455
Ca0 O13 2.619036 1_555
Ca0 O0 2.621721 1_556
Ca0 O8 2.636937 1_556
Ca0 O14 2.638322 1_446
Ca0 O4 2.646871 1_446
Ca0 O3 2.650670 1_445
Ca0 O11 2.651915 1_445
Ca0 O20 2.677719 1_546
Ca1 O5 2.579221 1_555
Ca1 O18 2.602588 1_555
Ca1 O21 2.603162 1_555
Ca1 O17 2.605309 1_555
Ca1 O15 2.619260 1_555
Ca1 O2 2.620944 1_555
Ca1 O10 2.637340 1_555
Ca1 O12 2.640537 1_555
Ca1 O6 2.646896 1_555
Ca1 O1 2.651556 1_555
Ca1 O9 2.653909 1_555
Ca1 O22 2.675860 1_555
Co0 O5 2.000696 1_555
Co0 O7 2.000707 1_565
Co0 O1 2.061603 1_555
Co0 O3 2.061686 1_455
Co1 O8 1.997040 1_556
Co1 O14 2.016166 1_556
Co1 O13 2.027178 1_555
Co1 O11 2.043427 1_555
Co2 O10 1.996209 1_555
Co2 O12 2.014835 1_445
Co2 O15 2.027127 1_555
Co2 O9 2.042182 1_445
Co3 O22 2.017763 1_555
Co3 O20 2.018748 1_555
Co3 O16 2.025848 1_555
Co3 O18 2.026147 1_555
Co4 O17 2.001506 1_555
Co4 O19 2.002200 1_555
Co4 O21 2.049905 1_555
Co4 O23 2.050523 1_555
Co5 O6 2.033523 1_555
Co5 O4 2.033583 1_545
Co5 O2 2.039576 1_555
Co5 O0 2.040159 1_655
O0 V4 1.909262 1_555
O0 V6 2.004366 1_555
O1 V5 1.891653 1_555
O1 V7 2.008208 1_555
O2 V5 1.911235 1_545
O2 V6 2.002533 1_555
O3 V4 1.892336 1_656
O3 V7 2.008056 1_555
O4 V0 1.895287 1_555
O4 V2 2.033353 1_564
O5 V3 1.948507 1_555
O5 V1 1.981367 1_555
O6 V0 1.893897 1_555
O6 V3 2.033668 1_655
O7 V2 1.948852 1_555
O7 V1 1.981855 1_555
O8 V2 1.962648 1_554
O8 V6 1.981300 1_555
O9 V7 1.890915 1_555
O9 V3 2.044558 1_655
O10 V3 1.963399 1_555
O10 V6 1.981021 1_555
O11 V7 1.891705 1_555
O11 V2 2.043966 1_565
O12 V5 1.974190 1_555
O12 V0 1.990731 1_555
O13 V1 1.955412 1_555
O13 V4 1.982284 1_556
O14 V4 1.974187 1_655
O14 V0 1.990604 1_555
O15 V1 1.953564 1_555
O15 V5 1.983548 1_545
O16 V6 1.910582 1_565
O16 V0 2.018350 1_455
O17 V1 1.948957 1_555
O17 V7 1.991838 1_555
O18 V6 1.907709 1_555
O18 V0 2.019551 1_555
O19 V1 1.947117 1_655
O19 V7 1.995101 1_545
O20 V2 1.924989 1_564
O20 V4 2.000775 1_555
O21 V3 1.883810 1_655
O21 V5 2.025599 1_545
O22 V3 1.924965 1_555
O22 V5 2.001411 1_555
O23 V2 1.882895 1_555
O23 V4 2.026038 1_656
