# generated using pymatgen
data_Ba3(ZnAs2)2
_symmetry_space_group_name_H-M   'P 1'
_cell_length_a   8.80022489
_cell_length_b   8.80022489
_cell_length_c   7.27891134
_cell_angle_alpha   67.55526346
_cell_angle_beta   67.55526346
_cell_angle_gamma   29.61348469
_symmetry_Int_Tables_number   1
_chemical_formula_structural   Ba3(ZnAs2)2
_chemical_formula_sum   'Ba3 Zn2 As4'
_cell_volume   255.91376818
_cell_formula_units_Z   1
loop_
 _symmetry_equiv_pos_site_id
 _symmetry_equiv_pos_as_xyz
  1  'x, y, z'
loop_
 _atom_site_type_symbol
 _atom_site_label
 _atom_site_symmetry_multiplicity
 _atom_site_fract_x
 _atom_site_fract_y
 _atom_site_fract_z
 _atom_site_occupancy
  Ba  Ba0  1  0.14427109  0.14427109  0.41617865  1
  Ba  Ba1  1  0.85572891  0.85572891  0.58382135  1
  Ba  Ba2  1  -0.00000000  -0.00000000  -0.00000000  1
  Zn  Zn0  1  0.32889918  0.32889918  0.96122082  1
  Zn  Zn1  1  0.67110082  0.67110082  0.03877918  1
  As  As0  1  0.20587058  0.20587058  0.83896271  1
  As  As1  1  0.79412942  0.79412942  0.16103729  1
  As  As2  1  0.48801090  0.48801090  0.67992731  1
  As  As3  1  0.51198910  0.51198910  0.32007269  1
loop_
_geom_bond_atom_site_label_1
_geom_bond_atom_site_label_2
_geom_bond_distance
_geom_bond_site_symmetry_2
Ba0 Zn1 3.438334 1_455
Ba0 Zn1 3.438334 1_545
Ba0 Zn0 3.552390 1_554
Ba1 Zn0 3.438334 1_655
Ba1 Zn0 3.438334 1_565
Ba1 Zn1 3.552390 1_556
As0 Zn0 2.577961 1_555
As0 Zn1 2.616052 1_546
As0 Zn1 2.616052 1_456
As0 Ba2 3.225291 1_556
As0 Ba1 3.356941 1_545
As0 Ba1 3.356941 1_455
As0 Ba0 3.621710 1_555
As1 Zn1 2.577961 1_555
As1 Zn0 2.616052 1_564
As1 Zn0 2.616052 1_654
As1 Ba2 3.225291 1_665
As1 Ba0 3.356941 1_565
As1 Ba0 3.356941 1_655
As1 Ba1 3.621710 1_555
As2 As3 2.486639 1_555
As2 Zn0 2.672867 1_555
As2 Ba2 3.301939 1_656
As2 Ba2 3.301939 1_566
As2 Ba0 3.432456 1_655
As2 Ba0 3.432456 1_565
As2 Ba1 3.443476 1_545
As2 Ba1 3.443476 1_455
As3 Zn1 2.672867 1_555
As3 Ba2 3.301939 1_565
As3 Ba2 3.301939 1_655
As3 Ba1 3.432456 1_545
As3 Ba1 3.432456 1_455
As3 Ba0 3.443476 1_655
As3 Ba0 3.443476 1_565
