# generated using pymatgen
data_Mg3Sn
_symmetry_space_group_name_H-M   'P 1'
_cell_length_a   12.06346129
_cell_length_b   12.06346129
_cell_length_c   12.06346129
_cell_angle_alpha   146.69194764
_cell_angle_beta   127.62668519
_cell_angle_gamma   63.49702405
_symmetry_Int_Tables_number   1
_chemical_formula_structural   Mg3Sn
_chemical_formula_sum   'Mg24 Sn8'
_cell_volume   755.22502752
_cell_formula_units_Z   8
loop_
 _symmetry_equiv_pos_site_id
 _symmetry_equiv_pos_as_xyz
  1  'x, y, z'
loop_
 _atom_site_type_symbol
 _atom_site_label
 _atom_site_symmetry_multiplicity
 _atom_site_fract_x
 _atom_site_fract_y
 _atom_site_fract_z
 _atom_site_occupancy
  Mg  Mg0_0  1  0.41839850  0.25000000  0.16839850  1
  Mg  Mg0_1  1  0.41839850  0.25000000  0.66839850  1
  Mg  Mg0_2  1  0.41839850  0.75000000  0.16839850  1
  Mg  Mg0_3  1  0.41839850  0.75000000  0.66839850  1
  Mg  Mg0_4  1  0.91839850  0.25000000  0.16839850  1
  Mg  Mg0_5  1  0.91839850  0.25000000  0.66839850  1
  Mg  Mg0_6  1  0.91839850  0.75000000  0.16839850  1
  Mg  Mg0_7  1  0.91839850  0.75000000  0.66839850  1
  Mg  Mg1_0  1  0.12462500  0.12552600  0.49909900  1
  Mg  Mg1_1  1  0.12462500  0.12552600  0.99909900  1
  Mg  Mg1_2  1  0.12462500  0.62552600  0.49909900  1
  Mg  Mg1_3  1  0.12462500  0.62552600  0.99909900  1
  Mg  Mg1_4  1  0.62462500  0.12552600  0.49909900  1
  Mg  Mg1_5  1  0.62462500  0.12552600  0.99909900  1
  Mg  Mg1_6  1  0.62462500  0.62552600  0.49909900  1
  Mg  Mg1_7  1  0.62462500  0.62552600  0.99909900  1
  Mg  Mg2_0  1  0.37357350  0.37447400  0.49909900  1
  Mg  Mg2_1  1  0.37357350  0.37447400  0.99909900  1
  Mg  Mg2_2  1  0.37357350  0.87447400  0.49909900  1
  Mg  Mg2_3  1  0.37357350  0.87447400  0.99909900  1
  Mg  Mg2_4  1  0.87357350  0.37447400  0.49909900  1
  Mg  Mg2_5  1  0.87357350  0.37447400  0.99909900  1
  Mg  Mg2_6  1  0.87357350  0.87447400  0.49909900  1
  Mg  Mg2_7  1  0.87357350  0.87447400  0.99909900  1
  Sn  Sn0_0  1  0.16673600  0.00000000  0.16673600  1
  Sn  Sn0_1  1  0.16673600  0.00000000  0.66673600  1
  Sn  Sn0_2  1  0.16673600  0.50000000  0.16673600  1
  Sn  Sn0_3  1  0.16673600  0.50000000  0.66673600  1
  Sn  Sn0_4  1  0.66673600  0.00000000  0.16673600  1
  Sn  Sn0_5  1  0.66673600  0.00000000  0.66673600  1
  Sn  Sn0_6  1  0.66673600  0.50000000  0.16673600  1
  Sn  Sn0_7  1  0.66673600  0.50000000  0.66673600  1
loop_
_geom_bond_atom_site_label_1
_geom_bond_atom_site_label_2
_geom_bond_distance
_geom_bond_site_symmetry_2
Mg0_0 Mg1_1 3.125873 1_554
Mg0_0 Mg2_1 3.125876 1_554
Mg0_0 Sn0_4 3.159017 1_555
Mg0_0 Sn0_7 3.159017 1_555
Mg0_0 Sn0_1 3.188707 1_554
Mg0_0 Sn0_2 3.188707 1_555
Mg0_0 Mg2_0 3.218547 1_555
Mg0_0 Mg2_3 3.218549 1_544
Mg0_0 Mg1_5 3.218552 1_554
Mg0_0 Mg1_6 3.218552 1_555
Mg0_0 Mg0_3 3.457290 1_555
Mg0_0 Mg0_3 3.457290 1_544
Mg0_1 Mg1_0 3.125873 1_555
Mg0_1 Mg2_0 3.125876 1_555
Mg0_1 Sn0_5 3.159017 1_555
Mg0_1 Sn0_6 3.159017 1_556
Mg0_1 Sn0_0 3.188707 1_555
Mg0_1 Sn0_3 3.188707 1_555
Mg0_1 Mg2_1 3.218547 1_555
Mg0_1 Mg2_2 3.218549 1_545
Mg0_1 Mg1_7 3.218552 1_555
Mg0_1 Mg1_4 3.218552 1_555
Mg0_1 Mg0_2 3.457290 1_545
Mg0_1 Mg0_2 3.457290 1_556
Mg0_2 Mg1_3 3.125873 1_554
Mg0_2 Mg2_3 3.125876 1_554
Mg0_2 Sn0_6 3.159017 1_555
Mg0_2 Sn0_5 3.159017 1_565
Mg0_2 Sn0_3 3.188707 1_554
Mg0_2 Sn0_0 3.188707 1_565
Mg0_2 Mg2_2 3.218547 1_555
Mg0_2 Mg2_1 3.218549 1_554
Mg0_2 Mg1_4 3.218552 1_565
Mg0_2 Mg1_7 3.218552 1_554
Mg0_3 Mg1_2 3.125873 1_555
Mg0_3 Mg2_2 3.125876 1_555
Mg0_3 Sn0_7 3.159017 1_555
Mg0_3 Sn0_4 3.159017 1_566
Mg0_3 Sn0_2 3.188707 1_555
Mg0_3 Sn0_1 3.188707 1_565
Mg0_3 Mg2_3 3.218547 1_555
Mg0_3 Mg2_0 3.218549 1_555
Mg0_3 Mg1_5 3.218552 1_565
Mg0_3 Mg1_6 3.218552 1_555
Mg0_4 Mg1_5 3.125873 1_554
Mg0_4 Mg2_5 3.125876 1_554
Mg0_4 Sn0_0 3.159017 1_655
Mg0_4 Sn0_3 3.159017 1_655
Mg0_4 Sn0_5 3.188707 1_554
Mg0_4 Sn0_6 3.188707 1_555
Mg0_4 Mg2_4 3.218547 1_555
Mg0_4 Mg2_7 3.218549 1_544
Mg0_4 Mg1_2 3.218552 1_655
Mg0_4 Mg1_1 3.218552 1_654
Mg0_4 Mg0_7 3.457290 1_555
Mg0_4 Mg0_7 3.457290 1_544
Mg0_5 Mg1_4 3.125873 1_555
Mg0_5 Mg2_4 3.125876 1_555
Mg0_5 Sn0_1 3.159017 1_655
Mg0_5 Sn0_2 3.159017 1_656
Mg0_5 Sn0_4 3.188707 1_555
Mg0_5 Sn0_7 3.188707 1_555
Mg0_5 Mg2_5 3.218547 1_555
Mg0_5 Mg2_6 3.218549 1_545
Mg0_5 Mg1_3 3.218552 1_655
Mg0_5 Mg1_0 3.218552 1_655
Mg0_5 Mg0_6 3.457290 1_556
Mg0_5 Mg0_6 3.457290 1_545
Mg0_6 Mg1_7 3.125873 1_554
Mg0_6 Mg2_7 3.125876 1_554
Mg0_6 Sn0_2 3.159017 1_655
Mg0_6 Sn0_1 3.159017 1_665
Mg0_6 Sn0_7 3.188707 1_554
Mg0_6 Sn0_4 3.188707 1_565
Mg0_6 Mg2_6 3.218547 1_555
Mg0_6 Mg2_5 3.218549 1_554
Mg0_6 Mg1_0 3.218552 1_665
Mg0_6 Mg1_3 3.218552 1_654
Mg0_7 Mg1_6 3.125873 1_555
Mg0_7 Mg2_6 3.125876 1_555
Mg0_7 Sn0_3 3.159017 1_655
Mg0_7 Sn0_0 3.159017 1_666
Mg0_7 Sn0_6 3.188707 1_555
Mg0_7 Sn0_5 3.188707 1_565
Mg0_7 Mg2_7 3.218547 1_555
Mg0_7 Mg2_4 3.218549 1_555
Mg0_7 Mg1_2 3.218552 1_655
Mg0_7 Mg1_1 3.218552 1_665
Mg1_0 Sn0_1 3.133415 1_555
Mg1_0 Mg2_4 3.173918 1_455
Mg1_0 Mg2_7 3.173920 1_444
Mg1_0 Mg2_1 3.173922 1_555
Mg1_0 Mg2_2 3.173924 1_545
Mg1_0 Sn0_0 3.206104 1_555
Mg1_0 Sn0_3 3.206104 1_555
Mg1_0 Mg1_3 3.457290 1_544
Mg1_0 Mg1_3 3.457290 1_555
Mg1_1 Sn0_0 3.133415 1_556
Mg1_1 Mg2_5 3.173918 1_455
Mg1_1 Mg2_6 3.173920 1_445
Mg1_1 Mg2_0 3.173922 1_556
Mg1_1 Mg2_3 3.173924 1_545
Mg1_1 Sn0_1 3.206104 1_555
Mg1_1 Sn0_2 3.206104 1_556
Mg1_1 Mg1_2 3.457290 1_545
Mg1_1 Mg1_2 3.457290 1_556
Mg1_2 Sn0_3 3.133415 1_555
Mg1_2 Mg2_6 3.173918 1_455
Mg1_2 Mg2_5 3.173920 1_454
Mg1_2 Mg2_3 3.173922 1_555
Mg1_2 Mg2_0 3.173924 1_555
Mg1_2 Sn0_2 3.206104 1_555
Mg1_2 Sn0_1 3.206104 1_565
Mg1_3 Sn0_2 3.133415 1_556
Mg1_3 Mg2_7 3.173918 1_455
Mg1_3 Mg2_4 3.173920 1_455
Mg1_3 Mg2_2 3.173922 1_556
Mg1_3 Mg2_1 3.173924 1_555
Mg1_3 Sn0_3 3.206104 1_555
Mg1_3 Sn0_0 3.206104 1_566
Mg1_4 Sn0_5 3.133415 1_555
Mg1_4 Mg2_0 3.173918 1_555
Mg1_4 Mg2_3 3.173920 1_544
Mg1_4 Mg2_5 3.173922 1_555
Mg1_4 Mg2_6 3.173924 1_545
Mg1_4 Sn0_4 3.206104 1_555
Mg1_4 Sn0_7 3.206104 1_555
Mg1_4 Mg1_7 3.457290 1_544
Mg1_4 Mg1_7 3.457290 1_555
Mg1_5 Sn0_4 3.133415 1_556
Mg1_5 Mg2_1 3.173918 1_555
Mg1_5 Mg2_2 3.173920 1_545
Mg1_5 Mg2_4 3.173922 1_556
Mg1_5 Mg2_7 3.173924 1_545
Mg1_5 Sn0_5 3.206104 1_555
Mg1_5 Sn0_6 3.206104 1_556
Mg1_5 Mg1_6 3.457290 1_545
Mg1_5 Mg1_6 3.457290 1_556
Mg1_6 Sn0_7 3.133415 1_555
Mg1_6 Mg2_2 3.173918 1_555
Mg1_6 Mg2_1 3.173920 1_554
Mg1_6 Mg2_7 3.173922 1_555
Mg1_6 Mg2_4 3.173924 1_555
Mg1_6 Sn0_6 3.206104 1_555
Mg1_6 Sn0_5 3.206104 1_565
Mg1_7 Sn0_6 3.133415 1_556
Mg1_7 Mg2_3 3.173918 1_555
Mg1_7 Mg2_0 3.173920 1_555
Mg1_7 Mg2_6 3.173922 1_556
Mg1_7 Mg2_5 3.173924 1_555
Mg1_7 Sn0_7 3.206104 1_555
Mg1_7 Sn0_4 3.206104 1_566
Mg2_0 Sn0_7 3.133409 1_555
Mg2_0 Sn0_0 3.206107 1_555
Mg2_0 Sn0_3 3.206109 1_555
Mg2_0 Mg2_3 3.457290 1_555
Mg2_0 Mg2_3 3.457290 1_544
Mg2_1 Sn0_6 3.133409 1_556
Mg2_1 Sn0_1 3.206107 1_555
Mg2_1 Sn0_2 3.206109 1_556
Mg2_1 Mg2_2 3.457290 1_556
Mg2_1 Mg2_2 3.457290 1_545
Mg2_2 Sn0_5 3.133409 1_565
Mg2_2 Sn0_2 3.206107 1_555
Mg2_2 Sn0_1 3.206109 1_565
Mg2_3 Sn0_4 3.133409 1_566
Mg2_3 Sn0_3 3.206107 1_555
Mg2_3 Sn0_0 3.206109 1_566
Mg2_4 Sn0_3 3.133409 1_655
Mg2_4 Sn0_4 3.206107 1_555
Mg2_4 Sn0_7 3.206109 1_555
Mg2_4 Mg2_7 3.457290 1_544
Mg2_4 Mg2_7 3.457290 1_555
Mg2_5 Sn0_2 3.133409 1_656
Mg2_5 Sn0_5 3.206107 1_555
Mg2_5 Sn0_6 3.206109 1_556
Mg2_5 Mg2_6 3.457290 1_545
Mg2_5 Mg2_6 3.457290 1_556
Mg2_6 Sn0_1 3.133409 1_665
Mg2_6 Sn0_6 3.206107 1_555
Mg2_6 Sn0_5 3.206109 1_565
Mg2_7 Sn0_0 3.133409 1_666
Mg2_7 Sn0_7 3.206107 1_555
Mg2_7 Sn0_4 3.206109 1_566
Sn0_0 Sn0_3 3.457290 1_555
Sn0_0 Sn0_3 3.457290 1_544
Sn0_1 Sn0_2 3.457290 1_556
Sn0_1 Sn0_2 3.457290 1_545
Sn0_4 Sn0_7 3.457290 1_544
Sn0_4 Sn0_7 3.457290 1_555
Sn0_5 Sn0_6 3.457290 1_556
Sn0_5 Sn0_6 3.457290 1_545
