# generated using pymatgen
data_Eu(ErSe2)2
_symmetry_space_group_name_H-M   'P 1'
_cell_length_a   4.08365367
_cell_length_b   12.45257111
_cell_length_c   14.75723767
_cell_angle_alpha   90.00000000
_cell_angle_beta   90.00000000
_cell_angle_gamma   90.00000000
_symmetry_Int_Tables_number   1
_chemical_formula_structural   Eu(ErSe2)2
_chemical_formula_sum   'Eu4 Er8 Se16'
_cell_volume   750.43486869
_cell_formula_units_Z   4
loop_
 _symmetry_equiv_pos_site_id
 _symmetry_equiv_pos_as_xyz
  1  'x, y, z'
loop_
 _atom_site_type_symbol
 _atom_site_label
 _atom_site_symmetry_multiplicity
 _atom_site_fract_x
 _atom_site_fract_y
 _atom_site_fract_z
 _atom_site_occupancy
  Eu  Eu0  1  0.25000000  0.75932326  0.33460877  1
  Eu  Eu1  1  0.25000000  0.25932326  0.16539123  1
  Eu  Eu2  1  0.75000000  0.24067674  0.66539123  1
  Eu  Eu3  1  0.75000000  0.74067674  0.83460877  1
  Er  Er0  1  0.25000000  0.41591913  0.90252645  1
  Er  Er1  1  0.25000000  0.91591913  0.59747355  1
  Er  Er2  1  0.75000000  0.58408087  0.09747355  1
  Er  Er3  1  0.75000000  0.08408087  0.40252645  1
  Er  Er4  1  0.25000000  0.43854945  0.38868205  1
  Er  Er5  1  0.25000000  0.93854945  0.11131795  1
  Er  Er6  1  0.75000000  0.56145055  0.61131795  1
  Er  Er7  1  0.75000000  0.06145055  0.88868205  1
  Se  Se0  1  0.25000000  0.20439939  0.82740030  1
  Se  Se1  1  0.25000000  0.70439939  0.67259970  1
  Se  Se2  1  0.75000000  0.79560061  0.17259970  1
  Se  Se3  1  0.75000000  0.29560061  0.32740030  1
  Se  Se4  1  0.25000000  0.12948944  0.53153221  1
  Se  Se5  1  0.25000000  0.62948944  0.96846779  1
  Se  Se6  1  0.75000000  0.87051056  0.46846779  1
  Se  Se7  1  0.75000000  0.37051056  0.03153221  1
  Se  Se8  1  0.25000000  0.52793362  0.21520038  1
  Se  Se9  1  0.25000000  0.02793362  0.28479962  1
  Se  Se10  1  0.75000000  0.47206638  0.78479962  1
  Se  Se11  1  0.75000000  0.97206638  0.71520038  1
  Se  Se12  1  0.25000000  0.40804686  0.57716481  1
  Se  Se13  1  0.25000000  0.90804686  0.92283519  1
  Se  Se14  1  0.75000000  0.59195314  0.42283519  1
  Se  Se15  1  0.75000000  0.09195314  0.07716481  1
loop_
_geom_bond_atom_site_label_1
_geom_bond_atom_site_label_2
_geom_bond_distance
_geom_bond_site_symmetry_2
Eu0 Se6 3.160419 1_555
Eu0 Se6 3.160419 1_455
Eu0 Se2 3.176332 1_555
Eu0 Se2 3.176332 1_455
Eu0 Se14 3.195003 1_455
Eu0 Se14 3.195003 1_555
Eu0 Se8 3.377510 1_555
Eu0 Se9 3.424701 1_565
Eu1 Se7 3.160419 1_455
Eu1 Se7 3.160419 1_555
Eu1 Se3 3.176332 1_555
Eu1 Se3 3.176332 1_455
Eu1 Se15 3.195003 1_455
Eu1 Se15 3.195003 1_555
Eu1 Se9 3.377510 1_555
Eu1 Se8 3.424701 1_555
Eu2 Se4 3.160419 1_655
Eu2 Se4 3.160419 1_555
Eu2 Se0 3.176332 1_655
Eu2 Se0 3.176332 1_555
Eu2 Se12 3.195003 1_555
Eu2 Se12 3.195003 1_655
Eu2 Se10 3.377510 1_555
Eu2 Se11 3.424701 1_545
Eu3 Se5 3.160419 1_655
Eu3 Se5 3.160419 1_555
Eu3 Se1 3.176332 1_655
Eu3 Se1 3.176332 1_555
Eu3 Se13 3.195003 1_655
Eu3 Se13 3.195003 1_555
Eu3 Se11 3.377510 1_555
Eu3 Se10 3.424701 1_555
Er0 Se10 2.770595 1_455
Er0 Se10 2.770595 1_555
Er0 Se5 2.831940 1_555
Er0 Se7 2.848356 1_456
Er0 Se7 2.848356 1_556
Er0 Se0 2.857776 1_555
Er1 Se11 2.770595 1_555
Er1 Se11 2.770595 1_455
Er1 Se4 2.831940 1_565
Er1 Se6 2.848356 1_455
Er1 Se6 2.848356 1_555
Er1 Se1 2.857776 1_555
Er2 Se8 2.770595 1_655
Er2 Se8 2.770595 1_555
Er2 Se7 2.831940 1_555
Er2 Se5 2.848356 1_654
Er2 Se5 2.848356 1_554
Er2 Se2 2.857776 1_555
Er3 Se9 2.770595 1_555
Er3 Se9 2.770595 1_655
Er3 Se6 2.831940 1_545
Er3 Se4 2.848356 1_555
Er3 Se4 2.848356 1_655
Er3 Se3 2.857776 1_555
Er4 Se8 2.791608 1_555
Er4 Se12 2.807300 1_555
Er4 Se14 2.841164 1_555
Er4 Se14 2.841164 1_455
Er4 Se3 2.855800 1_455
Er4 Se3 2.855800 1_555
Er5 Se9 2.791608 1_565
Er5 Se13 2.807300 1_554
Er5 Se15 2.841164 1_565
Er5 Se15 2.841164 1_465
Er5 Se2 2.855800 1_555
Er5 Se2 2.855800 1_455
Er6 Se10 2.791608 1_555
Er6 Se14 2.807300 1_555
Er6 Se12 2.841164 1_655
Er6 Se12 2.841164 1_555
Er6 Se1 2.855800 1_655
Er6 Se1 2.855800 1_555
Er7 Se11 2.791608 1_545
Er7 Se15 2.807300 1_556
Er7 Se13 2.841164 1_645
Er7 Se13 2.841164 1_545
Er7 Se0 2.855800 1_555
Er7 Se0 2.855800 1_655
