# generated using pymatgen
data_Mg2Ga
_symmetry_space_group_name_H-M   'P 1'
_cell_length_a   5.57282533
_cell_length_b   5.57282533
_cell_length_c   4.94590100
_cell_angle_alpha   90.00000000
_cell_angle_beta   90.00000000
_cell_angle_gamma   125.95718083
_symmetry_Int_Tables_number   1
_chemical_formula_structural   Mg2Ga
_chemical_formula_sum   'Mg4 Ga2'
_cell_volume   124.33389826
_cell_formula_units_Z   2
loop_
 _symmetry_equiv_pos_site_id
 _symmetry_equiv_pos_as_xyz
  1  'x, y, z'
loop_
 _atom_site_type_symbol
 _atom_site_label
 _atom_site_symmetry_multiplicity
 _atom_site_fract_x
 _atom_site_fract_y
 _atom_site_fract_z
 _atom_site_occupancy
  Mg  Mg0  1  0.14132600  0.45781800  0.75000000  1
  Mg  Mg1  1  0.45781800  0.14132600  0.75000000  1
  Mg  Mg2  1  0.54218200  0.85867400  0.25000000  1
  Mg  Mg3  1  0.85867400  0.54218200  0.25000000  1
  Ga  Ga0  1  0.80625300  0.80625300  0.75000000  1
  Ga  Ga1  1  0.19374700  0.19374700  0.25000000  1
loop_
_geom_bond_atom_site_label_1
_geom_bond_atom_site_label_2
_geom_bond_distance
_geom_bond_site_symmetry_2
Mg0 Mg3 3.112454 1_456
Mg0 Mg3 3.112454 1_455
Mg0 Mg1 3.119324 1_565
Mg0 Mg1 3.119324 1_455
Mg0 Mg1 3.142435 1_555
Mg0 Mg2 3.199325 1_556
Mg0 Mg2 3.199325 1_555
Mg1 Mg2 3.112454 1_545
Mg1 Mg2 3.112454 1_546
Mg1 Mg3 3.199325 1_556
Mg1 Mg3 3.199325 1_555
Mg2 Mg3 3.119324 1_565
Mg2 Mg3 3.119324 1_455
Mg2 Mg3 3.142435 1_555
Ga0 Mg0 2.951084 1_665
Ga0 Mg1 2.951084 1_665
Ga0 Mg2 2.978484 1_556
Ga0 Mg2 2.978484 1_555
Ga0 Mg3 2.978484 1_556
Ga0 Mg3 2.978484 1_555
Ga0 Mg1 3.008574 1_555
Ga0 Mg0 3.008574 1_555
Ga1 Mg2 2.951084 1_445
Ga1 Mg3 2.951084 1_445
Ga1 Mg1 2.978484 1_555
Ga1 Mg0 2.978484 1_554
Ga1 Mg1 2.978484 1_554
Ga1 Mg0 2.978484 1_555
Ga1 Mg3 3.008574 1_555
Ga1 Mg2 3.008574 1_555
