# generated using pymatgen
data_Ca2AgSbO6
_symmetry_space_group_name_H-M   'P 1'
_cell_length_a   7.72052300
_cell_length_b   5.82081800
_cell_length_c   6.08640106
_cell_angle_alpha   78.18479502
_cell_angle_beta   90.00000000
_cell_angle_gamma   90.00000000
_symmetry_Int_Tables_number   1
_chemical_formula_structural   Ca2AgSbO6
_chemical_formula_sum   'Ca4 Ag2 Sb2 O12'
_cell_volume   267.72632379
_cell_formula_units_Z   2
loop_
 _symmetry_equiv_pos_site_id
 _symmetry_equiv_pos_as_xyz
  1  'x, y, z'
loop_
 _atom_site_type_symbol
 _atom_site_label
 _atom_site_symmetry_multiplicity
 _atom_site_fract_x
 _atom_site_fract_y
 _atom_site_fract_z
 _atom_site_occupancy
  Ca  Ca0  1  0.75000000  0.47434400  0.57400200  1
  Ca  Ca1  1  0.25000000  0.52565600  0.42599800  1
  Ca  Ca2  1  0.75000000  0.96155700  0.04138200  1
  Ca  Ca3  1  0.25000000  0.03844300  0.95861800  1
  Ag  Ag0  1  0.50000000  0.50000000  0.00000000  1
  Ag  Ag1  1  0.00000000  0.50000000  0.00000000  1
  Sb  Sb0  1  0.50000000  0.00000000  0.50000000  1
  Sb  Sb1  1  0.00000000  0.00000000  0.50000000  1
  O  O0  1  0.45695200  0.66302700  0.66850800  1
  O  O1  1  0.05407700  0.87104500  0.23164300  1
  O  O2  1  0.95695200  0.33697300  0.33149200  1
  O  O3  1  0.55407700  0.12895500  0.76835700  1
  O  O4  1  0.44592300  0.87104500  0.23164300  1
  O  O5  1  0.94592300  0.12895500  0.76835700  1
  O  O6  1  0.25000000  0.09677000  0.55791200  1
  O  O7  1  0.04304800  0.66302700  0.66850800  1
  O  O8  1  0.75000000  0.60259800  0.92880700  1
  O  O9  1  0.54304800  0.33697300  0.33149200  1
  O  O10  1  0.75000000  0.90323000  0.44208800  1
  O  O11  1  0.25000000  0.39740200  0.07119300  1
loop_
_geom_bond_atom_site_label_1
_geom_bond_atom_site_label_2
_geom_bond_distance
_geom_bond_site_symmetry_2
Ca0 O2 2.419547 1_555
Ca0 O9 2.419547 1_555
Ca0 O8 2.425056 1_555
Ca0 O10 2.460926 1_555
Ca0 O5 2.599104 1_555
Ca0 O3 2.599104 1_555
Ca0 O7 2.629569 1_655
Ca0 O0 2.629569 1_555
Ca1 O0 2.419547 1_555
Ca1 O7 2.419547 1_555
Ca1 O11 2.425056 1_555
Ca1 O6 2.460926 1_555
Ca1 O4 2.599104 1_555
Ca1 O1 2.599104 1_555
Ca1 O9 2.629569 1_555
Ca1 O2 2.629569 1_455
Ca2 O5 2.309933 1_564
Ca2 O3 2.309933 1_564
Ca2 O8 2.328406 1_554
Ca2 O10 2.392532 1_555
Ca2 O1 2.622993 1_655
Ca2 O4 2.622993 1_555
Ca3 O4 2.309933 1_546
Ca3 O1 2.309933 1_546
Ca3 O11 2.328406 1_556
Ca3 O6 2.392532 1_555
Ca3 O3 2.622993 1_555
Ca3 O5 2.622993 1_455
Ag0 O11 2.040550 1_555
Ag0 O8 2.040550 1_554
Ag0 O0 2.073065 1_554
Ag0 O9 2.073065 1_555
Ag1 O11 2.040550 1_555
Ag1 O8 2.040550 1_454
Ag1 O7 2.073065 1_554
Ag1 O2 2.073065 1_455
O0 Sb0 2.045932 1_565
O1 Sb1 1.976758 1_565
O2 Sb1 2.045932 1_655
O3 Sb0 1.976758 1_555
O4 Sb0 1.976758 1_565
O5 Sb1 1.976758 1_655
O6 Sb0 2.061125 1_555
O6 Sb1 2.061125 1_555
O7 Sb1 2.045932 1_565
O9 Sb0 2.045932 1_555
O10 Sb0 2.061125 1_565
O10 Sb1 2.061125 1_665
