# generated using pymatgen
data_Li(Fe2O3)4
_symmetry_space_group_name_H-M   'P 1'
_cell_length_a   5.36949400
_cell_length_b   5.31846248
_cell_length_c   9.06255644
_cell_angle_alpha   73.02265460
_cell_angle_beta   90.00000000
_cell_angle_gamma   90.00000000
_symmetry_Int_Tables_number   1
_chemical_formula_structural   Li(Fe2O3)4
_chemical_formula_sum   'Li1 Fe8 O12'
_cell_volume   247.52493978
_cell_formula_units_Z   1
loop_
 _symmetry_equiv_pos_site_id
 _symmetry_equiv_pos_as_xyz
  1  'x, y, z'
loop_
 _atom_site_type_symbol
 _atom_site_label
 _atom_site_symmetry_multiplicity
 _atom_site_fract_x
 _atom_site_fract_y
 _atom_site_fract_z
 _atom_site_occupancy
  Li  Li0  1  0.30570800  0.25000000  0.50000000  1
  Fe  Fe0  1  0.25421100  0.49315300  0.09022200  1
  Fe  Fe1  1  0.19470700  0.91321400  0.30380200  1
  Fe  Fe2  1  0.19470700  0.58678600  0.69619800  1
  Fe  Fe3  1  0.25421200  0.00684700  0.90977800  1
  Fe  Fe4  1  0.74232400  0.49766300  0.91695400  1
  Fe  Fe5  1  0.79133200  0.07646400  0.69137000  1
  Fe  Fe6  1  0.79133200  0.42353600  0.30863000  1
  Fe  Fe7  1  0.74232300  0.00233700  0.08304600  1
  O  O0  1  0.38862600  0.67228200  0.86318600  1
  O  O1  1  0.12983600  0.21480700  0.69832500  1
  O  O2  1  0.12983600  0.28519300  0.30167500  1
  O  O3  1  0.38862600  0.82771800  0.13681400  1
  O  O4  1  0.60182100  0.33190400  0.14342000  1
  O  O5  1  0.86814400  0.78394000  0.29171800  1
  O  O6  1  0.86814400  0.71606000  0.70828200  1
  O  O7  1  0.60182100  0.16809600  0.85658000  1
  O  O8  1  0.95681000  0.75000000  0.00000000  1
  O  O9  1  0.65548600  0.25000000  0.50000000  1
  O  O10  1  0.06322600  0.25000000  0.00000000  1
  O  O11  1  0.31427000  0.75000000  0.50000000  1
loop_
_geom_bond_atom_site_label_1
_geom_bond_atom_site_label_2
_geom_bond_distance
_geom_bond_site_symmetry_2
Li0 O9 1.878131 1_555
Li0 O2 1.990166 1_555
Li0 O1 1.990166 1_555
Fe0 O10 2.002507 1_555
Fe0 O2 2.025775 1_555
Fe0 O4 2.051885 1_555
Fe0 O3 2.074639 1_555
Fe0 O8 2.105321 1_455
Fe0 O0 2.125376 1_554
Fe1 O11 1.850890 1_555
Fe1 O5 1.898251 1_455
Fe1 O3 1.995746 1_555
Fe1 O2 2.003328 1_565
Fe2 O11 1.850890 1_555
Fe2 O6 1.898251 1_455
Fe2 O0 1.995746 1_555
Fe2 O1 2.003328 1_555
Fe3 O10 2.002510 1_556
Fe3 O1 2.025777 1_555
Fe3 O7 2.051880 1_555
Fe3 O0 2.074637 1_545
Fe3 O8 2.105325 1_446
Fe3 O3 2.125374 1_546
Fe4 O6 2.024618 1_555
Fe4 O8 2.069715 1_556
Fe4 O0 2.107733 1_555
Fe4 O7 2.121523 1_555
Fe4 O4 2.121772 1_556
Fe4 O10 2.165984 1_656
Fe5 O9 1.859280 1_555
Fe5 O6 1.922534 1_545
Fe5 O1 1.968773 1_655
Fe5 O7 1.985135 1_555
Fe6 O9 1.859280 1_555
Fe6 O5 1.922534 1_555
Fe6 O2 1.968773 1_655
Fe6 O4 1.985135 1_555
Fe7 O5 2.024620 1_545
Fe7 O8 2.069718 1_545
Fe7 O3 2.107728 1_545
Fe7 O4 2.121521 1_555
Fe7 O7 2.121770 1_554
Fe7 O10 2.165989 1_655
