# generated using pymatgen
data_Sr2LuUO6
_symmetry_space_group_name_H-M   'P 1'
_cell_length_a   6.08679214
_cell_length_b   6.08679214
_cell_length_c   6.08679214
_cell_angle_alpha   60.00000000
_cell_angle_beta   60.00000000
_cell_angle_gamma   60.00000000
_symmetry_Int_Tables_number   1
_chemical_formula_structural   Sr2LuUO6
_chemical_formula_sum   'Sr2 Lu1 U1 O6'
_cell_volume   159.45950669
_cell_formula_units_Z   1
loop_
 _symmetry_equiv_pos_site_id
 _symmetry_equiv_pos_as_xyz
  1  'x, y, z'
loop_
 _atom_site_type_symbol
 _atom_site_label
 _atom_site_symmetry_multiplicity
 _atom_site_fract_x
 _atom_site_fract_y
 _atom_site_fract_z
 _atom_site_occupancy
  Sr  Sr0  1  0.75000000  0.75000000  0.75000000  1
  Sr  Sr1  1  0.25000000  0.25000000  0.25000000  1
  Lu  Lu0  1  0.00000000  0.00000000  0.00000000  1
  U  U0  1  0.50000000  0.50000000  0.50000000  1
  O  O0  1  0.74829700  0.74829700  0.25170300  1
  O  O1  1  0.25170300  0.25170300  0.74829700  1
  O  O2  1  0.74829700  0.25170300  0.74829700  1
  O  O3  1  0.25170300  0.74829700  0.25170300  1
  O  O4  1  0.25170300  0.74829700  0.74829700  1
  O  O5  1  0.74829700  0.25170300  0.25170300  1
loop_
_geom_bond_atom_site_label_1
_geom_bond_atom_site_label_2
_geom_bond_distance
_geom_bond_site_symmetry_2
Lu0 O0 2.166665 1_445
Lu0 O1 2.166665 1_554
Lu0 O5 2.166665 1_455
Lu0 O3 2.166665 1_545
Lu0 O2 2.166665 1_454
Lu0 O4 2.166665 1_544
O0 U0 2.137347 1_555
O0 Sr1 3.043431 1_655
O0 Sr1 3.043431 1_565
O0 Sr0 3.043431 1_554
O0 Sr0 3.043431 1_555
O1 U0 2.137347 1_555
O1 Sr1 3.043431 1_555
O1 Sr1 3.043431 1_556
O1 Sr0 3.043431 1_545
O1 Sr0 3.043431 1_455
O2 U0 2.137347 1_555
O2 Sr1 3.043431 1_655
O2 Sr1 3.043431 1_556
O2 Sr0 3.043431 1_545
O2 Sr0 3.043431 1_555
O3 U0 2.137347 1_555
O3 Sr1 3.043431 1_555
O3 Sr1 3.043431 1_565
O3 Sr0 3.043431 1_455
O3 Sr0 3.043431 1_554
O4 U0 2.137347 1_555
O4 Sr1 3.043431 1_556
O4 Sr1 3.043431 1_565
O4 Sr0 3.043431 1_455
O4 Sr0 3.043431 1_555
O5 U0 2.137347 1_555
O5 Sr1 3.043431 1_655
O5 Sr1 3.043431 1_555
O5 Sr0 3.043431 1_545
O5 Sr0 3.043431 1_554
