# generated using pymatgen
data_Ga2FeCo
_symmetry_space_group_name_H-M   'P 1'
_cell_length_a   2.89137200
_cell_length_b   2.89137200
_cell_length_c   5.78287800
_cell_angle_alpha   90.00000000
_cell_angle_beta   90.00000000
_cell_angle_gamma   90.00000000
_symmetry_Int_Tables_number   1
_chemical_formula_structural   Ga2FeCo
_chemical_formula_sum   'Ga2 Fe1 Co1'
_cell_volume   48.34504538
_cell_formula_units_Z   1
loop_
 _symmetry_equiv_pos_site_id
 _symmetry_equiv_pos_as_xyz
  1  'x, y, z'
loop_
 _atom_site_type_symbol
 _atom_site_label
 _atom_site_symmetry_multiplicity
 _atom_site_fract_x
 _atom_site_fract_y
 _atom_site_fract_z
 _atom_site_occupancy
  Ga  Ga0  1  0.50000000  0.50000000  0.25011100  1
  Ga  Ga1  1  0.50000000  0.50000000  0.74988900  1
  Fe  Fe0  1  0.00000000  0.00000000  0.50000000  1
  Co  Co0  1  0.00000000  0.00000000  0.00000000  1
loop_
_geom_bond_atom_site_label_1
_geom_bond_atom_site_label_2
_geom_bond_distance
_geom_bond_site_symmetry_2
Fe0 Ga0 2.503650 1_455
Fe0 Ga0 2.503650 1_555
Fe0 Ga0 2.503650 1_545
Fe0 Ga0 2.503650 1_445
Fe0 Ga1 2.503650 1_555
Fe0 Ga1 2.503650 1_445
Fe0 Ga1 2.503650 1_545
Fe0 Ga1 2.503650 1_455
Co0 Ga1 2.504392 1_554
Co0 Ga1 2.504392 1_444
Co0 Ga1 2.504392 1_454
Co0 Ga1 2.504392 1_544
Co0 Ga0 2.504392 1_455
Co0 Ga0 2.504392 1_545
Co0 Ga0 2.504392 1_445
Co0 Ga0 2.504392 1_555
