# generated using pymatgen
data_ErMg3
_symmetry_space_group_name_H-M   'P 1'
_cell_length_a   6.61334618
_cell_length_b   6.61334618
_cell_length_c   5.14711550
_cell_angle_alpha   90.00000000
_cell_angle_beta   90.00000000
_cell_angle_gamma   120.00008628
_symmetry_Int_Tables_number   1
_chemical_formula_structural   ErMg3
_chemical_formula_sum   'Er2 Mg6'
_cell_volume   194.95603429
_cell_formula_units_Z   2
loop_
 _symmetry_equiv_pos_site_id
 _symmetry_equiv_pos_as_xyz
  1  'x, y, z'
loop_
 _atom_site_type_symbol
 _atom_site_label
 _atom_site_symmetry_multiplicity
 _atom_site_fract_x
 _atom_site_fract_y
 _atom_site_fract_z
 _atom_site_occupancy
  Er  Er0  1  0.66666700  0.33333300  0.25000000  1
  Er  Er1  1  0.33333300  0.66666700  0.75000000  1
  Mg  Mg0  1  0.16378909  0.32757817  0.25000000  1
  Mg  Mg1  1  0.16378909  0.83621091  0.25000000  1
  Mg  Mg2  1  0.67242183  0.83621091  0.25000000  1
  Mg  Mg3  1  0.32757817  0.16378909  0.75000000  1
  Mg  Mg4  1  0.83621091  0.16378909  0.75000000  1
  Mg  Mg5  1  0.83621091  0.67242183  0.75000000  1
loop_
_geom_bond_atom_site_label_1
_geom_bond_atom_site_label_2
_geom_bond_distance
_geom_bond_site_symmetry_2
Er0 Mg4 3.224101 1_554
Er0 Mg4 3.224101 1_555
Er0 Mg5 3.224103 1_554
Er0 Mg3 3.224103 1_554
Er0 Mg5 3.224103 1_555
Er0 Mg3 3.224103 1_555
Er0 Mg1 3.306833 1_545
Er0 Mg1 3.306833 1_655
Er0 Mg2 3.306834 1_545
Er0 Mg0 3.306834 1_655
Er0 Mg2 3.306841 1_555
Er0 Mg0 3.306841 1_555
Er1 Mg1 3.224101 1_556
Er1 Mg1 3.224101 1_555
Er1 Mg2 3.224103 1_555
Er1 Mg2 3.224103 1_556
Er1 Mg0 3.224103 1_556
Er1 Mg0 3.224103 1_555
Er1 Mg4 3.306833 1_455
Er1 Mg4 3.306833 1_565
Er1 Mg5 3.306834 1_455
Er1 Mg3 3.306834 1_565
Er1 Mg5 3.306841 1_555
Er1 Mg3 3.306841 1_555
Mg0 Mg4 3.184827 1_455
Mg0 Mg4 3.184827 1_454
Mg0 Mg3 3.184828 1_555
Mg0 Mg3 3.184828 1_554
Mg0 Mg2 3.249578 1_445
Mg0 Mg1 3.249582 1_545
Mg0 Mg2 3.363760 1_555
Mg0 Mg1 3.363764 1_555
Mg1 Mg5 3.184827 1_455
Mg1 Mg5 3.184827 1_454
Mg1 Mg3 3.184827 1_564
Mg1 Mg3 3.184827 1_565
Mg1 Mg2 3.249582 1_455
Mg1 Mg2 3.363764 1_555
Mg2 Mg4 3.184827 1_564
Mg2 Mg4 3.184827 1_565
Mg2 Mg5 3.184828 1_554
Mg2 Mg5 3.184828 1_555
Mg3 Mg5 3.249578 1_445
Mg3 Mg4 3.249582 1_455
Mg3 Mg5 3.363760 1_555
Mg3 Mg4 3.363764 1_555
Mg4 Mg5 3.249582 1_545
Mg4 Mg5 3.363764 1_555
