# generated using pymatgen
data_Pr2MgSi2
_symmetry_space_group_name_H-M   'P 1'
_cell_length_a   7.43839991
_cell_length_b   7.43839991
_cell_length_c   4.41531658
_cell_angle_alpha   90.00000000
_cell_angle_beta   90.00000000
_cell_angle_gamma   90.00000000
_symmetry_Int_Tables_number   1
_chemical_formula_structural   Pr2MgSi2
_chemical_formula_sum   'Pr4 Mg2 Si4'
_cell_volume   244.29855338
_cell_formula_units_Z   2
loop_
 _symmetry_equiv_pos_site_id
 _symmetry_equiv_pos_as_xyz
  1  'x, y, z'
loop_
 _atom_site_type_symbol
 _atom_site_label
 _atom_site_symmetry_multiplicity
 _atom_site_fract_x
 _atom_site_fract_y
 _atom_site_fract_z
 _atom_site_occupancy
  Pr  Pr0  1  0.68033759  0.18033759  0.50000000  1
  Pr  Pr1  1  0.31966241  0.81966241  0.50000000  1
  Pr  Pr2  1  0.18033759  0.31966241  0.50000000  1
  Pr  Pr3  1  0.81966241  0.68033759  0.50000000  1
  Mg  Mg0  1  -0.00000000  -0.00000000  -0.00000000  1
  Mg  Mg1  1  0.50000000  0.50000000  -0.00000000  1
  Si  Si0  1  0.11376948  0.61376948  0.00000000  1
  Si  Si1  1  0.88623052  0.38623052  -0.00000000  1
  Si  Si2  1  0.61376948  0.88623052  -0.00000000  1
  Si  Si3  1  0.38623052  0.11376948  0.00000000  1
loop_
_geom_bond_atom_site_label_1
_geom_bond_atom_site_label_2
_geom_bond_distance
_geom_bond_site_symmetry_2
Pr0 Si1 3.092705 1_555
Pr0 Si1 3.092705 1_556
Pr0 Si2 3.147207 1_545
Pr0 Si2 3.147207 1_546
Pr0 Si3 3.147207 1_555
Pr0 Si3 3.147207 1_556
Pr1 Si0 3.092705 1_555
Pr1 Si0 3.092705 1_556
Pr1 Si2 3.147207 1_556
Pr1 Si2 3.147207 1_555
Pr1 Si3 3.147207 1_566
Pr1 Si3 3.147207 1_565
Pr2 Si3 3.092705 1_555
Pr2 Si3 3.092705 1_556
Pr2 Si1 3.147207 1_456
Pr2 Si0 3.147207 1_556
Pr2 Si0 3.147207 1_555
Pr2 Si1 3.147207 1_455
Pr3 Si2 3.092705 1_556
Pr3 Si2 3.092705 1_555
Pr3 Si0 3.147207 1_655
Pr3 Si0 3.147207 1_656
Pr3 Si1 3.147207 1_555
Pr3 Si1 3.147207 1_556
Mg0 Si2 2.994984 1_445
Mg0 Si0 2.994984 1_545
Mg0 Si1 2.994984 1_455
Mg0 Si3 2.994984 1_555
Mg1 Si1 2.994984 1_555
Mg1 Si2 2.994984 1_555
Mg1 Si3 2.994984 1_555
Mg1 Si0 2.994984 1_555
Si0 Si1 2.393593 1_455
Si2 Si3 2.393593 1_565
