# generated using pymatgen
data_Mg6CoSi
_symmetry_space_group_name_H-M   'P 1'
_cell_length_a   4.58998200
_cell_length_b   6.20022100
_cell_length_c   10.49781900
_cell_angle_alpha   90.00000000
_cell_angle_beta   90.00000000
_cell_angle_gamma   90.00000000
_symmetry_Int_Tables_number   1
_chemical_formula_structural   Mg6CoSi
_chemical_formula_sum   'Mg12 Co2 Si2'
_cell_volume   298.75641039
_cell_formula_units_Z   2
loop_
 _symmetry_equiv_pos_site_id
 _symmetry_equiv_pos_as_xyz
  1  'x, y, z'
loop_
 _atom_site_type_symbol
 _atom_site_label
 _atom_site_symmetry_multiplicity
 _atom_site_fract_x
 _atom_site_fract_y
 _atom_site_fract_z
 _atom_site_occupancy
  Mg  Mg0  1  0.00000000  0.26235300  0.09412600  1
  Mg  Mg1  1  0.00000000  0.73764700  0.09412600  1
  Mg  Mg2  1  0.00000000  0.50000000  0.83709100  1
  Mg  Mg3  1  0.50000000  0.23337400  0.90694700  1
  Mg  Mg4  1  0.50000000  0.76662600  0.90694700  1
  Mg  Mg5  1  0.50000000  0.50000000  0.66527200  1
  Mg  Mg6  1  0.00000000  0.76235300  0.59412600  1
  Mg  Mg7  1  0.00000000  0.23764700  0.59412600  1
  Mg  Mg8  1  0.00000000  0.00000000  0.33709100  1
  Mg  Mg9  1  0.50000000  0.73337400  0.40694700  1
  Mg  Mg10  1  0.50000000  0.26662600  0.40694700  1
  Mg  Mg11  1  0.50000000  0.00000000  0.16527200  1
  Co  Co0  1  0.00000000  0.50000000  0.31039800  1
  Co  Co1  1  0.00000000  0.00000000  0.81039800  1
  Si  Si0  1  0.50000000  0.50000000  0.18509200  1
  Si  Si1  1  0.50000000  0.00000000  0.68509200  1
loop_
_geom_bond_atom_site_label_1
_geom_bond_atom_site_label_2
_geom_bond_distance
_geom_bond_site_symmetry_2
Mg0 Si0 2.889636 1_555
Mg0 Si0 2.889636 1_455
Mg0 Mg11 2.910462 1_555
Mg0 Mg11 2.910462 1_455
Mg0 Mg8 3.025153 1_555
Mg0 Mg2 3.074403 1_554
Mg1 Si0 2.889636 1_555
Mg1 Si0 2.889636 1_455
Mg1 Mg11 2.910462 1_565
Mg1 Mg11 2.910462 1_465
Mg1 Mg8 3.025153 1_565
Mg1 Mg2 3.074403 1_554
Mg2 Mg5 2.918974 1_555
Mg2 Mg5 2.918974 1_455
Mg2 Mg3 2.921924 1_455
Mg2 Mg4 2.921924 1_555
Mg2 Mg4 2.921924 1_455
Mg2 Mg3 2.921924 1_555
Mg2 Mg6 3.025153 1_555
Mg2 Mg7 3.025153 1_555
Mg3 Si1 2.741885 1_555
Mg3 Mg5 3.028126 1_555
Mg4 Si1 2.741885 1_565
Mg4 Mg5 3.028126 1_555
Mg5 Mg6 2.910462 1_555
Mg5 Mg6 2.910462 1_655
Mg5 Mg7 2.910462 1_655
Mg5 Mg7 2.910462 1_555
Mg5 Mg9 3.073735 1_555
Mg5 Si1 3.107085 1_565
Mg5 Si1 3.107085 1_555
Mg6 Si1 2.889636 1_465
Mg6 Si1 2.889636 1_565
Mg6 Mg8 3.074403 1_565
Mg7 Si1 2.889636 1_455
Mg7 Si1 2.889636 1_555
Mg7 Mg8 3.074403 1_555
Mg8 Mg9 2.921924 1_445
Mg8 Mg9 2.921924 1_545
Mg9 Si0 2.741885 1_555
Mg10 Si0 2.741885 1_555
Mg10 Mg8 2.921924 1_655
Mg10 Mg8 2.921924 1_555
Mg10 Mg11 3.028126 1_555
Mg10 Mg5 3.073735 1_555
Mg11 Mg8 2.918974 1_655
Mg11 Mg8 2.918974 1_555
Mg11 Mg9 3.028126 1_545
Mg11 Mg4 3.073735 1_544
Mg11 Mg3 3.073735 1_554
Mg11 Si0 3.107085 1_545
Mg11 Si0 3.107085 1_555
Co0 Si0 2.645253 1_555
Co0 Si0 2.645253 1_455
Co0 Mg0 2.706611 1_555
Co0 Mg1 2.706611 1_555
Co0 Mg10 2.896204 1_555
Co0 Mg9 2.896204 1_455
Co0 Mg9 2.896204 1_555
Co0 Mg10 2.896204 1_455
Co0 Mg8 3.112749 1_555
Co0 Mg8 3.112749 1_565
Co0 Mg6 3.393758 1_555
Co0 Mg7 3.393758 1_555
Co1 Si1 2.645253 1_555
Co1 Si1 2.645253 1_455
Co1 Mg6 2.706611 1_545
Co1 Mg7 2.706611 1_555
Co1 Mg3 2.896204 1_555
Co1 Mg4 2.896204 1_445
Co1 Mg4 2.896204 1_545
Co1 Mg3 2.896204 1_455
Co1 Mg2 3.112749 1_555
Co1 Mg2 3.112749 1_545
Co1 Mg1 3.393758 1_546
Co1 Mg0 3.393758 1_556
