# generated using pymatgen
data_B11(Pb2O9)3
_symmetry_space_group_name_H-M   'P 1'
_cell_length_a   11.91723900
_cell_length_b   11.91723900
_cell_length_c   13.32052900
_cell_angle_alpha   90.00000000
_cell_angle_beta   90.00000000
_cell_angle_gamma   120.00000552
_symmetry_Int_Tables_number   1
_chemical_formula_structural   B11(Pb2O9)3
_chemical_formula_sum   'B33 Pb18 O81'
_cell_volume   1638.33752254
_cell_formula_units_Z   3
loop_
 _symmetry_equiv_pos_site_id
 _symmetry_equiv_pos_as_xyz
  1  'x, y, z'
loop_
 _atom_site_type_symbol
 _atom_site_label
 _atom_site_symmetry_multiplicity
 _atom_site_fract_x
 _atom_site_fract_y
 _atom_site_fract_z
 _atom_site_occupancy
  B  B0  1  0.87484600  0.14953900  0.76958700  1
  B  B1  1  0.85046100  0.72530700  0.43625300  1
  B  B2  1  0.27469300  0.12515400  0.10292000  1
  B  B3  1  0.93818500  0.00560800  0.88073800  1
  B  B4  1  0.99439200  0.93257700  0.54740500  1
  B  B5  1  0.06742300  0.06181500  0.21407200  1
  B  B6  1  0.03709200  0.07117900  0.70434200  1
  B  B7  1  0.92882100  0.96591400  0.37100900  1
  B  B8  1  0.03408600  0.96290800  0.03767500  1
  B  B9  1  0.21650500  0.10686000  0.58739600  1
  B  B10  1  0.89314000  0.10964500  0.25406200  1
  B  B11  1  0.89035500  0.78349500  0.92072900  1
  B  B12  1  0.19214600  0.39645400  0.43274700  1
  B  B13  1  0.60354600  0.79569200  0.09941400  1
  B  B14  1  0.20430800  0.80785400  0.76608100  1
  B  B15  1  0.36440100  0.63216200  0.49423900  1
  B  B16  1  0.36783800  0.73223900  0.16090500  1
  B  B17  1  0.26776100  0.63559900  0.82757200  1
  B  B18  1  0.26283800  0.59892400  0.31969300  1
  B  B19  1  0.40107600  0.66391400  0.98636000  1
  B  B20  1  0.33608600  0.73716200  0.65302600  1
  B  B21  1  0.22375100  0.77793400  0.27145000  1
  B  B22  1  0.22206600  0.44581600  0.93811700  1
  B  B23  1  0.55418400  0.77624900  0.60478400  1
  B  B24  1  0.54779800  0.04293800  0.42461900  1
  B  B25  1  0.95706200  0.50486000  0.09128600  1
  B  B26  1  0.49514000  0.45220200  0.75795200  1
  B  B27  1  0.70296500  0.27539600  0.49126300  1
  B  B28  1  0.72460400  0.42756900  0.15793000  1
  B  B29  1  0.57243100  0.29703500  0.82459600  1
  B  B30  1  0.89492800  0.44730300  0.59693500  1
  B  B31  1  0.55269700  0.44762500  0.26360100  1
  B  B32  1  0.55237500  0.10507200  0.93026800  1
  Pb  Pb0  1  0.80411700  0.05789700  0.55943000  1
  Pb  Pb1  1  0.94210300  0.74622000  0.22609600  1
  Pb  Pb2  1  0.25378000  0.19588300  0.89276300  1
  Pb  Pb3  1  0.92717700  0.20539800  0.01935900  1
  Pb  Pb4  1  0.79460200  0.72177900  0.68602500  1
  Pb  Pb5  1  0.27822100  0.07282300  0.35269200  1
  Pb  Pb6  1  0.46607200  0.08319800  0.63046900  1
  Pb  Pb7  1  0.91680200  0.38287400  0.29713500  1
  Pb  Pb8  1  0.61712600  0.53392800  0.96380200  1
  Pb  Pb9  1  0.48729400  0.40395000  0.50875700  1
  Pb  Pb10  1  0.59605000  0.08334500  0.17542400  1
  Pb  Pb11  1  0.91665500  0.51270600  0.84209100  1
  Pb  Pb12  1  0.14948200  0.40328400  0.66344600  1
  Pb  Pb13  1  0.59671600  0.74619800  0.33011300  1
  Pb  Pb14  1  0.25380200  0.85051800  0.99677900  1
  Pb  Pb15  1  0.12507600  0.72718200  0.50880900  1
  Pb  Pb16  1  0.27281800  0.39789400  0.17547600  1
  Pb  Pb17  1  0.60210600  0.87492400  0.84214200  1
  O  O0  1  0.74663500  0.09871400  0.72353000  1
  O  O1  1  0.90128600  0.64792100  0.39019600  1
  O  O2  1  0.35207900  0.25336500  0.05686300  1
  O  O3  1  0.90837200  0.28271700  0.78850400  1
  O  O4  1  0.71728300  0.62565500  0.45517000  1
  O  O5  1  0.37434500  0.09162800  0.12183700  1
  O  O6  1  0.86532700  0.07349800  0.86057700  1
  O  O7  1  0.92650200  0.79183000  0.52724300  1
  O  O8  1  0.20817000  0.13467300  0.19391000  1
  O  O9  1  0.96659600  0.14520600  0.69387000  1
  O  O10  1  0.85479400  0.82139000  0.36053600  1
  O  O11  1  0.17861000  0.03340400  0.02720300  1
  O  O12  1  0.98404400  0.03640800  0.98432000  1
  O  O13  1  0.96359200  0.94763600  0.65098700  1
  O  O14  1  0.05236400  0.01595600  0.31765300  1
  O  O15  1  0.85447200  0.86230900  0.86764200  1
  O  O16  1  0.13769100  0.99216300  0.53430900  1
  O  O17  1  0.00783700  0.14552800  0.20097500  1
  O  O18  1  0.05006000  0.05089700  0.81175200  1
  O  O19  1  0.94910300  0.99916300  0.47841800  1
  O  O20  1  0.00083700  0.94994000  0.14508500  1
  O  O21  1  0.16771900  0.15007400  0.66206400  1
  O  O22  1  0.84992600  0.01764600  0.32873100  1
  O  O23  1  0.98235400  0.83228100  0.99539700  1
  O  O24  1  0.34630300  0.17377300  0.56367400  1
  O  O25  1  0.82622700  0.17253000  0.23034100  1
  O  O26  1  0.82747000  0.65369700  0.89700800  1
  O  O27  1  0.23292600  0.30191200  0.41295500  1
  O  O28  1  0.69808800  0.93101400  0.07962200  1
  O  O29  1  0.06898600  0.76707400  0.74628800  1
  O  O30  1  0.06917200  0.30802500  0.47945800  1
  O  O31  1  0.69197500  0.76114800  0.14612500  1
  O  O32  1  0.23885200  0.93082800  0.81279200  1
  O  O33  1  0.28286200  0.48917700  0.50889400  1
  O  O34  1  0.51082300  0.79368500  0.17556100  1
  O  O35  1  0.20631500  0.71713800  0.84222700  1
  O  O36  1  0.17910100  0.45903300  0.34203000  1
  O  O37  1  0.54096700  0.72006800  0.00869700  1
  O  O38  1  0.27993200  0.82089900  0.67536400  1
  O  O39  1  0.30246000  0.69355200  0.54878200  1
  O  O40  1  0.30644800  0.60890800  0.21544900  1
  O  O41  1  0.39109200  0.69754000  0.88211500  1
  O  O42  1  0.49702600  0.67968600  0.53320700  1
  O  O43  1  0.32031400  0.81734000  0.19987400  1
  O  O44  1  0.18266000  0.50297400  0.86654100  1
  O  O45  1  0.37496000  0.65976000  0.38695100  1
  O  O46  1  0.34024000  0.71520000  0.05361700  1
  O  O47  1  0.28480000  0.62504000  0.72028400  1
  O  O48  1  0.18611700  0.66711200  0.32985700  1
  O  O49  1  0.33288800  0.51900400  0.99652300  1
  O  O50  1  0.48099600  0.81388300  0.66319000  1
  O  O51  1  0.16134500  0.84745500  0.28760800  1
  O  O52  1  0.15254500  0.31389000  0.95427500  1
  O  O53  1  0.68611000  0.83865500  0.62094100  1
  O  O54  1  0.57272200  0.94086300  0.39655200  1
  O  O55  1  0.05913700  0.63185900  0.06321900  1
  O  O56  1  0.36814100  0.42727800  0.72988600  1
  O  O57  1  0.54170200  0.11879400  0.33983900  1
  O  O58  1  0.88120600  0.42290800  0.00650500  1
  O  O59  1  0.57709200  0.45829800  0.67317200  1
  O  O60  1  0.41698200  0.97712400  0.46680800  1
  O  O61  1  0.02287600  0.43985800  0.13347400  1
  O  O62  1  0.56014200  0.58301800  0.80014100  1
  O  O63  1  0.64624900  0.13113400  0.50106100  1
  O  O64  1  0.86886600  0.51511500  0.16772700  1
  O  O65  1  0.48488500  0.35375100  0.83439400  1
  O  O66  1  0.60843600  0.30612400  0.52670900  1
  O  O67  1  0.69387600  0.30231300  0.19337500  1
  O  O68  1  0.69768700  0.39156400  0.86004200  1
  O  O69  1  0.71498600  0.31600900  0.38600000  1
  O  O70  1  0.68399100  0.39897600  0.05266600  1
  O  O71  1  0.60102400  0.28501400  0.71933300  1
  O  O72  1  0.82878800  0.33754100  0.54097900  1
  O  O73  1  0.66245900  0.49124700  0.20764600  1
  O  O74  1  0.50875300  0.17121200  0.87431300  1
  O  O75  1  0.02914200  0.51732700  0.59540100  1
  O  O76  1  0.48267300  0.51181500  0.26206800  1
  O  O77  1  0.48818500  0.97085800  0.92873400  1
  O  O78  1  0.84575500  0.50285400  0.66084800  1
  O  O79  1  0.49714600  0.34290100  0.32751500  1
  O  O80  1  0.65709900  0.15424500  0.99418200  1
loop_
_geom_bond_atom_site_label_1
_geom_bond_atom_site_label_2
_geom_bond_distance
_geom_bond_site_symmetry_2
B0 O3 1.451877 1_555
B0 O0 1.467086 1_555
B0 O6 1.483339 1_555
B0 O9 1.507289 1_555
B1 O4 1.451877 1_555
B1 O1 1.467086 1_555
B1 O7 1.483342 1_555
B1 O10 1.507289 1_555
B2 O5 1.451877 1_555
B2 O2 1.467086 1_555
B2 O8 1.483346 1_555
B2 O11 1.507289 1_555
B3 O12 1.461698 1_555
B3 O6 1.477521 1_555
B3 O18 1.481109 1_655
B3 O15 1.496112 1_545
B4 O13 1.461698 1_555
B4 O7 1.477513 1_555
B4 O19 1.481118 1_555
B4 O16 1.496112 1_655
B5 O14 1.461686 1_555
B5 O8 1.477514 1_555
B5 O20 1.481118 1_545
B5 O17 1.496114 1_555
B6 O13 1.466419 1_445
B6 O21 1.469989 1_555
B6 O18 1.471981 1_555
B6 O9 1.498225 1_455
B7 O14 1.466427 1_665
B7 O22 1.469989 1_565
B7 O19 1.471966 1_555
B7 O10 1.498236 1_555
B8 O12 1.466411 1_464
B8 O23 1.469989 1_454
B8 O20 1.471978 1_555
B8 O11 1.498235 1_565
B9 O21 1.375468 1_555
B9 O24 1.376571 1_555
B9 O16 1.402408 1_545
B10 O22 1.375470 1_555
B10 O25 1.376568 1_555
B10 O17 1.402408 1_655
B11 O23 1.375461 1_555
B11 O26 1.376567 1_555
B11 O15 1.402408 1_555
B12 O30 1.449493 1_555
B12 O27 1.456930 1_555
B12 O36 1.468504 1_555
B12 O33 1.491313 1_555
B13 O31 1.449486 1_555
B13 O28 1.456929 1_555
B13 O37 1.468504 1_555
B13 O34 1.491313 1_555
B14 O32 1.449496 1_555
B14 O29 1.456932 1_555
B14 O38 1.468504 1_555
B14 O35 1.491304 1_555
B15 O45 1.457751 1_555
B15 O39 1.465616 1_555
B15 O42 1.480917 1_555
B15 O33 1.493358 1_555
B16 O46 1.457751 1_555
B16 O40 1.465623 1_555
B16 O43 1.480921 1_555
B16 O34 1.493360 1_555
B17 O47 1.457751 1_555
B17 O41 1.465616 1_555
B17 O44 1.480921 1_555
B17 O35 1.493359 1_555
B18 O45 1.464561 1_555
B18 O40 1.466489 1_555
B18 O36 1.483238 1_555
B18 O48 1.502529 1_555
B19 O46 1.464553 1_556
B19 O41 1.466501 1_555
B19 O37 1.483238 1_556
B19 O49 1.502538 1_555
B20 O47 1.464561 1_555
B20 O39 1.466489 1_555
B20 O38 1.483241 1_555
B20 O50 1.502539 1_555
B21 O51 1.379129 1_555
B21 O43 1.383261 1_555
B21 O48 1.399413 1_555
B22 O52 1.379118 1_555
B22 O44 1.383269 1_555
B22 O49 1.399405 1_555
B23 O53 1.379116 1_555
B23 O42 1.383271 1_555
B23 O50 1.399405 1_555
B24 O54 1.438428 1_545
B24 O60 1.462404 1_545
B24 O57 1.470886 1_555
B24 O63 1.511597 1_555
B25 O55 1.438427 1_655
B25 O61 1.462399 1_655
B25 O58 1.470897 1_555
B25 O64 1.511588 1_555
B26 O56 1.438424 1_555
B26 O62 1.462404 1_555
B26 O59 1.470886 1_555
B26 O65 1.511597 1_555
B27 O66 1.427801 1_555
B27 O72 1.457718 1_555
B27 O69 1.466795 1_555
B27 O63 1.505832 1_555
B28 O67 1.427785 1_555
B28 O73 1.457718 1_555
B28 O70 1.466808 1_555
B28 O64 1.505831 1_555
B29 O68 1.427793 1_555
B29 O74 1.457724 1_555
B29 O71 1.466798 1_555
B29 O65 1.505832 1_555
B30 O72 1.362658 1_555
B30 O78 1.376378 1_555
B30 O75 1.385760 1_655
B31 O73 1.362650 1_555
B31 O79 1.376386 1_555
B31 O76 1.385760 1_555
B32 O74 1.362650 1_555
B32 O80 1.376386 1_555
B32 O77 1.385760 1_545
O0 Pb0 2.411896 1_555
O0 Pb17 2.825256 1_545
O1 Pb1 2.411896 1_555
O1 Pb15 2.825263 1_655
O2 Pb2 2.411896 1_554
O2 Pb16 2.825263 1_555
O3 Pb11 2.785837 1_555
O4 Pb9 2.785831 1_555
O5 Pb10 2.785825 1_555
O6 Pb3 2.515747 1_556
O6 Pb17 2.842022 1_545
O7 Pb4 2.515747 1_555
O7 Pb15 2.842029 1_655
O8 Pb5 2.515752 1_555
O8 Pb16 2.842018 1_555
O9 Pb0 2.454422 1_555
O9 Pb12 2.769550 1_655
O10 Pb1 2.454422 1_555
O10 Pb13 2.769548 1_555
O11 Pb2 2.454422 1_554
O11 Pb14 2.769550 1_544
O12 Pb3 2.469352 1_556
O13 Pb4 2.469349 1_555
O14 Pb5 2.469352 1_555
O18 Pb2 2.418512 1_555
O19 Pb0 2.418518 1_565
O20 Pb1 2.418512 1_455
O24 Pb6 2.352581 1_555
O24 Pb9 2.504747 1_555
O25 Pb7 2.352576 1_555
O25 Pb10 2.504748 1_555
O26 Pb8 2.352576 1_555
O26 Pb11 2.504738 1_555
O30 Pb12 2.669220 1_555
O31 Pb13 2.669219 1_555
O32 Pb14 2.669211 1_555
O33 Pb12 2.487088 1_555
O34 Pb13 2.487089 1_555
O35 Pb14 2.487089 1_555
O36 Pb16 2.741185 1_555
O36 Pb7 2.848761 1_455
O37 Pb17 2.741195 1_554
O37 Pb8 2.848761 1_554
O38 Pb15 2.741195 1_555
O38 Pb6 2.848761 1_565
O39 Pb15 2.400008 1_555
O40 Pb16 2.400008 1_555
O41 Pb17 2.400008 1_555
O45 Pb13 2.428173 1_555
O46 Pb14 2.428173 1_554
O47 Pb12 2.428173 1_555
O48 Pb15 2.691576 1_555
O49 Pb16 2.691583 1_556
O50 Pb17 2.691571 1_555
O51 Pb1 2.408577 1_455
O51 Pb5 2.482761 1_565
O52 Pb2 2.408577 1_555
O52 Pb3 2.482761 1_456
O53 Pb0 2.408572 1_565
O53 Pb4 2.482761 1_555
O54 Pb13 2.628714 1_555
O55 Pb14 2.628718 1_554
O56 Pb12 2.628718 1_555
O57 Pb10 2.380774 1_555
O58 Pb11 2.380766 1_554
O59 Pb9 2.380778 1_555
O60 Pb6 2.439941 1_565
O61 Pb7 2.439941 1_455
O62 Pb8 2.439941 1_555
O63 Pb0 2.558858 1_555
O63 Pb6 2.584892 1_555
O64 Pb1 2.558858 1_555
O64 Pb7 2.584892 1_555
O65 Pb2 2.558858 1_555
O65 Pb8 2.584892 1_555
O66 Pb9 2.276748 1_555
O66 Pb6 2.709116 1_555
O67 Pb10 2.276746 1_555
O67 Pb7 2.709117 1_555
O68 Pb11 2.276746 1_555
O68 Pb8 2.709108 1_555
O69 Pb7 2.429845 1_555
O70 Pb8 2.429848 1_554
O71 Pb6 2.429840 1_555
O75 Pb15 2.456172 1_555
O75 Pb12 2.583491 1_555
O76 Pb16 2.456172 1_555
O76 Pb13 2.583491 1_555
O77 Pb17 2.456173 1_555
O77 Pb14 2.583491 1_555
O78 Pb11 2.541084 1_555
O79 Pb9 2.541075 1_555
O80 Pb10 2.541073 1_556
