# generated using pymatgen
data_Li9Mn2Co5O16
_symmetry_space_group_name_H-M   'P 1'
_cell_length_a   5.12994900
_cell_length_b   7.69418818
_cell_length_c   7.79291287
_cell_angle_alpha   82.57897978
_cell_angle_beta   83.89885131
_cell_angle_gamma   71.86901189
_symmetry_Int_Tables_number   1
_chemical_formula_structural   Li9Mn2Co5O16
_chemical_formula_sum   'Li9 Mn2 Co5 O16'
_cell_volume   289.15749115
_cell_formula_units_Z   1
loop_
 _symmetry_equiv_pos_site_id
 _symmetry_equiv_pos_as_xyz
  1  'x, y, z'
loop_
 _atom_site_type_symbol
 _atom_site_label
 _atom_site_symmetry_multiplicity
 _atom_site_fract_x
 _atom_site_fract_y
 _atom_site_fract_z
 _atom_site_occupancy
  Li  Li0  1  0.50225900  0.93988500  0.19295800  1
  Li  Li1  1  0.50052300  0.55714400  0.32462400  1
  Li  Li2  1  0.50733400  0.80719800  0.56472700  1
  Li  Li3  1  0.49952900  0.44799600  0.67157900  1
  Li  Li4  1  0.50119800  0.68600500  0.93456000  1
  Li  Li5  1  0.49688600  0.31335200  0.06291200  1
  Li  Li6  1  0.49294700  0.18800300  0.43935600  1
  Li  Li7  1  0.49712100  0.06221600  0.81009100  1
  Li  Li8  1  0.00087700  0.50253300  0.49678500  1
  Mn  Mn0  1  0.99534200  0.00089100  0.00293400  1
  Mn  Mn1  1  0.00382300  0.62321600  0.12618600  1
  Co  Co0  1  0.99168200  0.25755500  0.25935000  1
  Co  Co1  1  0.00453500  0.86845900  0.38007800  1
  Co  Co2  1  0.99710300  0.12621500  0.62295600  1
  Co  Co3  1  0.00402800  0.73928600  0.74270700  1
  Co  Co4  1  0.00343700  0.37476400  0.86624900  1
  O  O0  1  0.21777300  0.15399700  0.03605700  1
  O  O1  1  0.22328200  0.78815700  0.14656600  1
  O  O2  1  0.22999000  0.03421000  0.40374000  1
  O  O3  1  0.24329500  0.66946700  0.53355800  1
  O  O4  1  0.21752300  0.91030700  0.79461600  1
  O  O5  1  0.22900800  0.53688400  0.91450300  1
  O  O6  1  0.23093300  0.42055800  0.26389800  1
  O  O7  1  0.22657100  0.27460600  0.66781100  1
  O  O8  1  0.78054900  0.72069100  0.32901500  1
  O  O9  1  0.76409200  0.32987900  0.46017800  1
  O  O10  1  0.76701800  0.59690000  0.72778700  1
  O  O11  1  0.77021500  0.20378700  0.85437000  1
  O  O12  1  0.77833600  0.47435200  0.08993100  1
  O  O13  1  0.77168500  0.08823100  0.20755800  1
  O  O14  1  0.77112500  0.96544800  0.59456800  1
  O  O15  1  0.77998200  0.83781200  0.97779100  1
loop_
_geom_bond_atom_site_label_1
_geom_bond_atom_site_label_2
_geom_bond_distance
_geom_bond_site_symmetry_2
Li0 O13 2.067580 1_565
Li0 O2 2.089278 1_565
Li0 O8 2.089965 1_555
Li0 O15 2.143396 1_554
Li0 O0 2.168291 1_565
Li0 O1 2.191023 1_555
Li1 O3 2.082359 1_555
Li1 O9 2.087268 1_555
Li1 O6 2.100757 1_555
Li1 O8 2.189716 1_555
Li1 O12 2.227954 1_555
Li1 O1 2.305762 1_555
Li2 O3 2.011594 1_555
Li2 O10 2.120064 1_555
Li2 O14 2.129183 1_555
Li2 O2 2.217142 1_565
Li2 O8 2.229246 1_555
Li2 O4 2.261879 1_555
Li3 O3 2.054620 1_555
Li3 O9 2.127383 1_555
Li3 O10 2.150185 1_555
Li3 O7 2.218765 1_555
Li3 O5 2.272155 1_555
Li3 O11 2.364976 1_555
Li4 O10 2.040215 1_555
Li4 O5 2.092945 1_555
Li4 O1 2.125388 1_556
Li4 O12 2.134214 1_556
Li4 O4 2.138596 1_555
Li4 O15 2.183311 1_555
Li5 O6 2.043051 1_555
Li5 O11 2.109901 1_554
Li5 O5 2.130041 1_554
Li5 O13 2.138184 1_555
Li5 O0 2.195430 1_555
Li5 O12 2.215550 1_555
Li6 O9 2.047313 1_555
Li6 O2 2.110649 1_555
Li6 O7 2.168753 1_555
Li6 O14 2.177776 1_545
Li6 O13 2.241192 1_555
Li6 O6 2.267095 1_555
Li7 O7 2.067277 1_555
Li7 O11 2.101878 1_555
Li7 O14 2.126235 1_545
Li7 O4 2.134136 1_545
Li7 O0 2.192751 1_556
Li7 O15 2.248458 1_545
Li8 O8 2.090648 1_455
Li8 O3 2.107924 1_555
Li8 O6 2.112227 1_555
Li8 O9 2.120720 1_455
Li8 O10 2.131551 1_455
Li8 O7 2.157050 1_555
Mn0 O13 1.928429 1_555
Mn0 O0 1.932396 1_655
Mn0 O15 1.950810 1_544
Mn0 O11 1.951019 1_554
Mn0 O4 1.955721 1_644
Mn0 O1 1.978148 1_645
Mn1 O6 1.908746 1_555
Mn1 O12 1.925472 1_455
Mn1 O8 1.938949 1_455
Mn1 O1 1.970423 1_555
Mn1 O5 1.974175 1_554
Mn1 O15 1.997793 1_454
Co0 O9 1.885289 1_555
Co0 O6 2.014784 1_655
Co0 O2 2.049179 1_655
Co0 O13 2.069215 1_555
Co0 O12 2.079768 1_555
Co0 O0 2.088548 1_655
Co1 O8 1.948960 1_455
Co1 O3 1.986495 1_555
Co1 O2 2.005541 1_565
Co1 O14 2.031055 1_455
Co1 O1 2.092197 1_555
Co1 O13 2.142592 1_465
Co2 O7 1.959217 1_655
Co2 O14 1.985092 1_545
Co2 O9 2.033856 1_555
Co2 O2 2.049150 1_655
Co2 O11 2.088699 1_555
Co2 O4 2.099093 1_645
Co3 O10 1.893146 1_455
Co3 O3 1.960156 1_555
Co3 O5 2.054475 1_555
Co3 O4 2.055062 1_555
Co3 O14 2.066052 1_455
Co3 O15 2.149594 1_455
Co4 O7 1.917832 1_555
Co4 O10 2.016949 1_455
Co4 O5 2.036770 1_555
Co4 O11 2.050654 1_455
Co4 O12 2.079800 1_456
Co4 O0 2.100390 1_556
