# generated using pymatgen
data_KCaPrSbO6
_symmetry_space_group_name_H-M   'P 1'
_cell_length_a   5.93036612
_cell_length_b   5.93036612
_cell_length_c   5.93036612
_cell_angle_alpha   60.00000000
_cell_angle_beta   60.00000000
_cell_angle_gamma   60.00000000
_symmetry_Int_Tables_number   1
_chemical_formula_structural   KCaPrSbO6
_chemical_formula_sum   'K1 Ca1 Pr1 Sb1 O6'
_cell_volume   147.47877470
_cell_formula_units_Z   1
loop_
 _symmetry_equiv_pos_site_id
 _symmetry_equiv_pos_as_xyz
  1  'x, y, z'
loop_
 _atom_site_type_symbol
 _atom_site_label
 _atom_site_symmetry_multiplicity
 _atom_site_fract_x
 _atom_site_fract_y
 _atom_site_fract_z
 _atom_site_occupancy
  K  K0  1  0.75000000  0.75000000  0.75000000  1
  Ca  Ca0  1  0.00000000  -0.00000000  -0.00000000  1
  Pr  Pr0  1  0.25000000  0.25000000  0.25000000  1
  Sb  Sb0  1  0.50000000  0.50000000  0.50000000  1
  O  O0  1  0.73567703  0.26432297  0.26432297  1
  O  O1  1  0.26432297  0.73567703  0.73567703  1
  O  O2  1  0.73567703  0.26432297  0.73567703  1
  O  O3  1  0.26432297  0.73567703  0.26432297  1
  O  O4  1  0.73567703  0.73567703  0.26432297  1
  O  O5  1  0.26432297  0.26432297  0.73567703  1
loop_
_geom_bond_atom_site_label_1
_geom_bond_atom_site_label_2
_geom_bond_distance
_geom_bond_site_symmetry_2
K0 O1 2.967615 1_655
K0 O5 2.967615 1_655
K0 O5 2.967615 1_565
K0 O2 2.967615 1_565
K0 O3 2.967615 1_556
K0 O1 2.967615 1_555
K0 O4 2.967615 1_556
K0 O0 2.967615 1_565
K0 O3 2.967615 1_655
K0 O0 2.967615 1_556
K0 O2 2.967615 1_555
K0 O4 2.967615 1_555
Ca0 O3 2.216825 1_545
Ca0 O5 2.216825 1_554
Ca0 O0 2.216825 1_455
Ca0 O2 2.216825 1_454
Ca0 O4 2.216825 1_445
Ca0 O1 2.216825 1_544
O0 Sb0 1.976577 1_555
O0 Pr0 2.967615 1_555
O0 Pr0 2.967615 1_655
O1 Sb0 1.976577 1_555
O1 Pr0 2.967615 1_556
O1 Pr0 2.967615 1_565
O2 Sb0 1.976577 1_555
O2 Pr0 2.967615 1_655
O2 Pr0 2.967615 1_556
O3 Sb0 1.976577 1_555
O3 Pr0 2.967615 1_555
O3 Pr0 2.967615 1_565
O4 Sb0 1.976577 1_555
O4 Pr0 2.967615 1_655
O4 Pr0 2.967615 1_565
O5 Sb0 1.976577 1_555
O5 Pr0 2.967615 1_555
O5 Pr0 2.967615 1_556
