# generated using pymatgen
data_FeTeO5
_symmetry_space_group_name_H-M   'P 1'
_cell_length_a   9.73914900
_cell_length_b   8.00955800
_cell_length_c   10.40627680
_cell_angle_alpha   76.18518607
_cell_angle_beta   90.00000000
_cell_angle_gamma   90.00000000
_symmetry_Int_Tables_number   1
_chemical_formula_structural   FeTeO5
_chemical_formula_sum   'Fe8 Te8 O40'
_cell_volume   788.27294870
_cell_formula_units_Z   8
loop_
 _symmetry_equiv_pos_site_id
 _symmetry_equiv_pos_as_xyz
  1  'x, y, z'
loop_
 _atom_site_type_symbol
 _atom_site_label
 _atom_site_symmetry_multiplicity
 _atom_site_fract_x
 _atom_site_fract_y
 _atom_site_fract_z
 _atom_site_occupancy
  Fe  Fe0  1  0.48611300  0.81809200  0.45847900  1
  Fe  Fe1  1  0.98611300  0.68190800  0.54152100  1
  Fe  Fe2  1  0.51388700  0.18190800  0.54152100  1
  Fe  Fe3  1  0.01388700  0.31809200  0.45847900  1
  Fe  Fe4  1  0.39117600  0.91104100  0.11383900  1
  Fe  Fe5  1  0.89117600  0.58895900  0.88616100  1
  Fe  Fe6  1  0.60882400  0.08895900  0.88616100  1
  Fe  Fe7  1  0.10882400  0.41104100  0.11383900  1
  Te  Te0  1  0.16587900  0.99687900  0.29467500  1
  Te  Te1  1  0.66587900  0.50312100  0.70532500  1
  Te  Te2  1  0.83412100  0.00312100  0.70532500  1
  Te  Te3  1  0.33412100  0.49687900  0.29467500  1
  Te  Te4  1  0.28269000  0.46626600  0.65412900  1
  Te  Te5  1  0.78269000  0.03373400  0.34587100  1
  Te  Te6  1  0.71731000  0.53373400  0.34587100  1
  Te  Te7  1  0.21731000  0.96626600  0.65412900  1
  O  O0  1  0.49670600  0.13147400  0.05776000  1
  O  O1  1  0.99670600  0.36852600  0.94224000  1
  O  O2  1  0.50329400  0.86852600  0.94224000  1
  O  O3  1  0.00329400  0.63147400  0.05776000  1
  O  O4  1  0.14211700  0.42513300  0.90111400  1
  O  O5  1  0.64211700  0.07486700  0.09888600  1
  O  O6  1  0.85788300  0.57486700  0.09888600  1
  O  O7  1  0.35788300  0.92513300  0.90111400  1
  O  O8  1  0.05534700  0.18187800  0.20719800  1
  O  O9  1  0.55534700  0.31812200  0.79280200  1
  O  O10  1  0.94465300  0.81812200  0.79280200  1
  O  O11  1  0.44465300  0.68187800  0.20719800  1
  O  O12  1  0.36225500  0.95986300  0.31308600  1
  O  O13  1  0.86225500  0.54013700  0.68691400  1
  O  O14  1  0.63774500  0.04013700  0.68691400  1
  O  O15  1  0.13774500  0.45986300  0.31308600  1
  O  O16  1  0.35014200  0.59902700  0.45285200  1
  O  O17  1  0.85014200  0.90097300  0.54714800  1
  O  O18  1  0.64985800  0.40097300  0.54714800  1
  O  O19  1  0.14985800  0.09902700  0.45285200  1
  O  O20  1  0.19773300  0.93437200  0.13034500  1
  O  O21  1  0.69773300  0.56562800  0.86965500  1
  O  O22  1  0.80226700  0.06562800  0.86965500  1
  O  O23  1  0.30226700  0.43437200  0.13034500  1
  O  O24  1  0.20554800  0.30579300  0.84047100  1
  O  O25  1  0.70554800  0.19420700  0.15952900  1
  O  O26  1  0.79445200  0.69420700  0.15952900  1
  O  O27  1  0.29445200  0.80579300  0.84047100  1
  O  O28  1  0.39457200  0.95826900  0.57431100  1
  O  O29  1  0.89457200  0.54173100  0.42568900  1
  O  O30  1  0.60542800  0.04173100  0.42568900  1
  O  O31  1  0.10542800  0.45826900  0.57431100  1
  O  O32  1  0.54324900  0.67983700  0.63559600  1
  O  O33  1  0.04324900  0.82016300  0.36440400  1
  O  O34  1  0.45675100  0.32016300  0.36440400  1
  O  O35  1  0.95675100  0.17983700  0.63559600  1
  O  O36  1  0.15557500  0.75162100  0.62430300  1
  O  O37  1  0.65557500  0.74837900  0.37569700  1
  O  O38  1  0.84442500  0.24837900  0.37569700  1
  O  O39  1  0.34442500  0.25162100  0.62430300  1
loop_
_geom_bond_atom_site_label_1
_geom_bond_atom_site_label_2
_geom_bond_distance
_geom_bond_site_symmetry_2
Fe0 O32 1.989546 1_555
Fe0 O37 2.001865 1_555
Fe0 O28 2.038300 1_555
Fe0 O12 2.052605 1_555
Fe0 O30 2.093661 1_565
Fe0 O16 2.210154 1_555
Fe1 O33 1.989546 1_655
Fe1 O36 2.001865 1_655
Fe1 O29 2.038300 1_555
Fe1 O13 2.052605 1_555
Fe1 O31 2.093661 1_655
Fe1 O17 2.210154 1_555
Fe2 O34 1.989546 1_555
Fe2 O39 2.001865 1_555
Fe2 O30 2.038300 1_555
Fe2 O14 2.052605 1_555
Fe2 O28 2.093661 1_545
Fe2 O18 2.210154 1_555
Fe3 O35 1.989546 1_455
Fe3 O38 2.001865 1_455
Fe3 O31 2.038300 1_555
Fe3 O15 2.052605 1_555
Fe3 O29 2.093661 1_455
Fe3 O19 2.210154 1_555
Fe4 O20 1.905019 1_555
Fe4 O11 1.931977 1_555
Fe4 O0 2.005506 1_565
Fe4 O2 2.188019 1_554
Fe4 O7 2.213348 1_554
Fe4 O12 2.217776 1_555
Fe5 O21 1.905019 1_555
Fe5 O10 1.931977 1_555
Fe5 O1 2.005506 1_555
Fe5 O3 2.188019 1_656
Fe5 O6 2.213348 1_556
Fe5 O13 2.217776 1_555
Fe6 O22 1.905019 1_555
Fe6 O9 1.931977 1_555
Fe6 O2 2.005506 1_545
Fe6 O0 2.188019 1_556
Fe6 O5 2.213348 1_556
Fe6 O14 2.217776 1_555
Fe7 O23 1.905019 1_555
Fe7 O8 1.931977 1_555
Fe7 O3 2.005506 1_555
Fe7 O1 2.188019 1_454
Fe7 O4 2.213348 1_554
Fe7 O15 2.217776 1_555
O0 O5 1.517110 1_555
O1 O4 1.517110 1_655
O2 O7 1.517110 1_555
O3 O6 1.517110 1_455
O8 Te0 1.881204 1_545
O9 Te1 1.881204 1_555
O10 Te2 1.881204 1_565
O11 Te3 1.881204 1_555
O12 Te0 1.937852 1_555
O13 Te1 1.937852 1_555
O14 Te2 1.937852 1_555
O15 Te3 1.937852 1_555
O16 Te3 2.011544 1_555
O16 Te4 2.210369 1_555
O17 Te2 2.011544 1_565
O17 Te5 2.210369 1_565
O18 Te1 2.011544 1_555
O18 Te6 2.210369 1_555
O19 Te0 2.011544 1_545
O19 Te7 2.210369 1_545
O20 Te0 1.918355 1_555
O21 Te1 1.918355 1_555
O22 Te2 1.918355 1_555
O23 Te3 1.918355 1_555
O24 O4 1.407702 1_555
O24 Te4 2.187787 1_555
O25 O5 1.407702 1_555
O25 Te5 2.187787 1_555
O26 O6 1.407702 1_555
O26 Te6 2.187787 1_555
O27 O7 1.407702 1_555
O27 Te7 2.187787 1_555
O28 Te7 1.923490 1_555
O29 Te6 1.923490 1_555
O30 Te5 1.923490 1_555
O31 Te4 1.923490 1_555
O32 Te1 1.861671 1_555
O33 Te0 1.861671 1_555
O34 Te3 1.861671 1_555
O35 Te2 1.861671 1_555
O36 Te7 1.915295 1_555
O36 Te4 2.552253 1_555
O37 Te6 1.915295 1_555
O37 Te5 2.552253 1_565
O38 Te5 1.915295 1_555
O38 Te6 2.552253 1_555
O39 Te4 1.915295 1_555
O39 Te7 2.552253 1_545
