# generated using pymatgen
data_LiTa6O15
_symmetry_space_group_name_H-M   'P 1'
_cell_length_a   3.88527500
_cell_length_b   9.06232000
_cell_length_c   17.03378800
_cell_angle_alpha   90.00000000
_cell_angle_beta   90.00000000
_cell_angle_gamma   90.00000000
_symmetry_Int_Tables_number   1
_chemical_formula_structural   LiTa6O15
_chemical_formula_sum   'Li2 Ta12 O30'
_cell_volume   599.75295289
_cell_formula_units_Z   2
loop_
 _symmetry_equiv_pos_site_id
 _symmetry_equiv_pos_as_xyz
  1  'x, y, z'
loop_
 _atom_site_type_symbol
 _atom_site_label
 _atom_site_symmetry_multiplicity
 _atom_site_fract_x
 _atom_site_fract_y
 _atom_site_fract_z
 _atom_site_occupancy
  Li  Li0  1  0.50000000  0.04707700  0.38269300  1
  Li  Li1  1  0.50000000  0.95292300  0.88269300  1
  Ta  Ta0  1  0.00000000  0.80206400  0.43959700  1
  Ta  Ta1  1  0.00000000  0.17918000  0.55616500  1
  Ta  Ta2  1  0.00000000  0.82082000  0.05616500  1
  Ta  Ta3  1  0.00000000  0.19793600  0.93959700  1
  Ta  Ta4  1  0.00000000  0.68861100  0.25155900  1
  Ta  Ta5  1  0.00000000  0.31138900  0.75155900  1
  Ta  Ta6  1  0.00000000  0.05269300  0.24490500  1
  Ta  Ta7  1  0.00000000  0.94730700  0.74490500  1
  Ta  Ta8  1  0.00000000  0.38860800  0.36959800  1
  Ta  Ta9  1  0.00000000  0.59493800  0.63283400  1
  Ta  Ta10  1  0.00000000  0.40506200  0.13283400  1
  Ta  Ta11  1  0.00000000  0.61139200  0.86959800  1
  O  O0  1  0.00000000  0.32959100  0.47755500  1
  O  O1  1  0.00000000  0.65874100  0.52619500  1
  O  O2  1  0.00000000  0.34125900  0.02619500  1
  O  O3  1  0.00000000  0.67040900  0.97755500  1
  O  O4  1  0.50000000  0.82961300  0.43788900  1
  O  O5  1  0.50000000  0.17360500  0.56368500  1
  O  O6  1  0.50000000  0.82639500  0.06368500  1
  O  O7  1  0.50000000  0.17038700  0.93788900  1
  O  O8  1  0.50000000  0.68844900  0.24790300  1
  O  O9  1  0.50000000  0.31155100  0.74790300  1
  O  O10  1  0.00000000  0.18270000  0.33793000  1
  O  O11  1  0.00000000  0.79821000  0.66590800  1
  O  O12  1  0.00000000  0.20179000  0.16590800  1
  O  O13  1  0.00000000  0.81730000  0.83793000  1
  O  O14  1  0.00000000  0.45563700  0.24743900  1
  O  O15  1  0.00000000  0.54436300  0.74743900  1
  O  O16  1  0.00000000  0.61924500  0.36877500  1
  O  O17  1  0.00000000  0.38281800  0.62987600  1
  O  O18  1  0.00000000  0.61718200  0.12987600  1
  O  O19  1  0.00000000  0.38075500  0.86877500  1
  O  O20  1  0.00000000  0.87560900  0.32577000  1
  O  O21  1  0.00000000  0.12433200  0.67539400  1
  O  O22  1  0.00000000  0.87566800  0.17539400  1
  O  O23  1  0.00000000  0.12439100  0.82577000  1
  O  O24  1  0.50000000  0.05078700  0.25786000  1
  O  O25  1  0.50000000  0.94921300  0.75786000  1
  O  O26  1  0.00000000  0.00374100  0.49029600  1
  O  O27  1  0.00000000  0.99625900  0.99029600  1
  O  O28  1  0.50000000  0.40248400  0.36617300  1
  O  O29  1  0.50000000  0.59751600  0.86617300  1
loop_
_geom_bond_atom_site_label_1
_geom_bond_atom_site_label_2
_geom_bond_distance
_geom_bond_site_symmetry_2
Li0 O24 2.126645 1_555
Li0 O4 2.183516 1_545
Li0 O10 2.421943 1_655
Li0 O10 2.421943 1_555
Li1 O25 2.126645 1_555
Li1 O7 2.183516 1_565
Li1 O13 2.421943 1_655
Li1 O13 2.421943 1_555
O0 Ta1 1.910748 1_555
O0 Ta8 1.915113 1_555
O1 Ta9 1.906271 1_555
O1 Ta0 1.965421 1_555
O2 Ta10 1.906271 1_555
O2 Ta3 1.965421 1_554
O3 Ta2 1.910748 1_556
O3 Ta11 1.915113 1_555
O4 Ta0 1.958830 1_555
O4 Ta0 1.958830 1_655
O5 Ta1 1.947512 1_655
O5 Ta1 1.947512 1_555
O6 Ta2 1.947512 1_555
O6 Ta2 1.947512 1_655
O7 Ta3 1.958830 1_555
O7 Ta3 1.958830 1_655
O8 Ta4 1.943636 1_555
O8 Ta4 1.943636 1_655
O9 Ta5 1.943636 1_655
O9 Ta5 1.943636 1_555
O10 Ta8 1.942409 1_555
O10 Ta6 1.974571 1_555
O11 Ta7 1.906917 1_555
O11 Ta9 1.926339 1_555
O12 Ta6 1.906917 1_555
O12 Ta10 1.926339 1_555
O13 Ta11 1.942409 1_555
O13 Ta7 1.974571 1_555
O14 Ta10 2.005239 1_555
O14 Ta4 2.112451 1_555
O14 Ta8 2.167680 1_555
O15 Ta9 2.005239 1_555
O15 Ta5 2.112451 1_555
O15 Ta11 2.167680 1_555
O16 Ta0 2.049436 1_555
O16 Ta8 2.090153 1_555
O16 Ta4 2.093251 1_555
O17 Ta9 1.922960 1_555
O17 Ta5 2.171449 1_555
O17 Ta1 2.232061 1_555
O18 Ta10 1.922960 1_555
O18 Ta4 2.171449 1_555
O18 Ta2 2.232061 1_555
O19 Ta3 2.049436 1_555
O19 Ta11 2.090153 1_555
O19 Ta5 2.093251 1_555
O20 Ta0 2.050258 1_555
O20 Ta4 2.114172 1_555
O20 Ta6 2.114874 1_565
O21 Ta7 1.993886 1_545
O21 Ta1 2.090861 1_555
O21 Ta5 2.134665 1_555
O22 Ta6 1.993886 1_565
O22 Ta2 2.090861 1_555
O22 Ta4 2.134665 1_555
O23 Ta3 2.050258 1_555
O23 Ta5 2.114172 1_555
O23 Ta7 2.114874 1_545
O24 Ta6 1.955207 1_655
O24 Ta6 1.955207 1_555
O25 Ta7 1.955207 1_555
O25 Ta7 1.955207 1_655
O26 Ta1 1.945922 1_555
O26 Ta0 2.021421 1_545
O27 Ta2 1.945922 1_556
O27 Ta3 2.021421 1_565
O28 Ta8 1.947577 1_655
O28 Ta8 1.947577 1_555
O29 Ta11 1.947577 1_555
O29 Ta11 1.947577 1_655
