# generated using pymatgen
data_RbYP2O7
_symmetry_space_group_name_H-M   'P 1'
_cell_length_a   11.10000800
_cell_length_b   7.87832100
_cell_length_c   8.82235364
_cell_angle_alpha   74.05365137
_cell_angle_beta   90.00000000
_cell_angle_gamma   90.00000000
_symmetry_Int_Tables_number   1
_chemical_formula_structural   RbYP2O7
_chemical_formula_sum   'Rb4 Y4 P8 O28'
_cell_volume   741.82158871
_cell_formula_units_Z   4
loop_
 _symmetry_equiv_pos_site_id
 _symmetry_equiv_pos_as_xyz
  1  'x, y, z'
loop_
 _atom_site_type_symbol
 _atom_site_label
 _atom_site_symmetry_multiplicity
 _atom_site_fract_x
 _atom_site_fract_y
 _atom_site_fract_z
 _atom_site_occupancy
  Rb  Rb0  1  0.67787300  0.18782100  0.93388100  1
  Rb  Rb1  1  0.17787300  0.81217900  0.56611900  1
  Rb  Rb2  1  0.32212700  0.81217900  0.06611900  1
  Rb  Rb3  1  0.82212700  0.18782100  0.43388100  1
  Y  Y0  1  0.40153700  0.23520800  0.24901400  1
  Y  Y1  1  0.90153700  0.76479200  0.25098600  1
  Y  Y2  1  0.59846300  0.76479200  0.75098600  1
  Y  Y3  1  0.09846300  0.23520800  0.74901400  1
  P  P0  1  0.39963500  0.12822900  0.68514200  1
  P  P1  1  0.89963500  0.87177100  0.81485800  1
  P  P2  1  0.60036500  0.87177100  0.31485800  1
  P  P3  1  0.10036500  0.12822900  0.18514200  1
  P  P4  1  0.13549400  0.43368600  0.31282600  1
  P  P5  1  0.63549400  0.56631400  0.18717400  1
  P  P6  1  0.86450600  0.56631400  0.68717400  1
  P  P7  1  0.36450600  0.43368600  0.81282600  1
  O  O0  1  0.26924900  0.44778900  0.26808300  1
  O  O1  1  0.76924900  0.55221100  0.23191700  1
  O  O2  1  0.73075100  0.55221100  0.73191700  1
  O  O3  1  0.23075100  0.44778900  0.76808300  1
  O  O4  1  0.00355600  0.00510300  0.28130700  1
  O  O5  1  0.50355600  0.99489700  0.21869300  1
  O  O6  1  0.99644400  0.99489700  0.71869300  1
  O  O7  1  0.49644400  0.00510300  0.78130700  1
  O  O8  1  0.11000900  0.33153100  0.48347700  1
  O  O9  1  0.61000900  0.66846900  0.01652300  1
  O  O10  1  0.88999100  0.66846900  0.51652300  1
  O  O11  1  0.38999100  0.33153100  0.98347700  1
  O  O12  1  0.09295000  0.14308900  0.01027500  1
  O  O13  1  0.59295000  0.85691100  0.48972500  1
  O  O14  1  0.90705000  0.85691100  0.98972500  1
  O  O15  1  0.40705000  0.14308900  0.51027500  1
  O  O16  1  0.06867200  0.32385500  0.20345800  1
  O  O17  1  0.56867200  0.67614500  0.29654200  1
  O  O18  1  0.93132800  0.67614500  0.79654200  1
  O  O19  1  0.43132800  0.32385500  0.70345800  1
  O  O20  1  0.27318300  0.07565600  0.75333700  1
  O  O21  1  0.77318300  0.92434400  0.74666300  1
  O  O22  1  0.72681700  0.92434400  0.24666300  1
  O  O23  1  0.22681700  0.07565600  0.25333700  1
  O  O24  1  0.42421600  0.61550700  0.76465300  1
  O  O25  1  0.92421600  0.38449300  0.73534700  1
  O  O26  1  0.57578400  0.38449300  0.23534700  1
  O  O27  1  0.07578400  0.61550700  0.26465300  1
loop_
_geom_bond_atom_site_label_1
_geom_bond_atom_site_label_2
_geom_bond_distance
_geom_bond_site_symmetry_2
O0 P4 1.532431 1_555
O0 Y0 2.268084 1_555
O0 Rb2 2.991664 1_555
O1 P5 1.532431 1_555
O1 Y1 2.268084 1_555
O1 Rb3 2.991664 1_555
O2 P6 1.532431 1_555
O2 Y2 2.268084 1_555
O2 Rb0 2.991664 1_555
O3 P7 1.532431 1_555
O3 Y3 2.268084 1_555
O3 Rb1 2.991664 1_555
O4 P3 1.537289 1_555
O4 Y1 2.283983 1_445
O4 Rb3 3.000737 1_455
O4 Rb1 3.204572 1_545
O5 P2 1.537289 1_555
O5 Y0 2.283983 1_565
O5 Rb2 3.000737 1_555
O5 Rb0 3.204572 1_564
O6 P1 1.537289 1_555
O6 Y3 2.283983 1_665
O6 Rb1 3.000737 1_655
O6 Rb3 3.204572 1_565
O7 P0 1.537289 1_555
O7 Y2 2.283983 1_545
O7 Rb0 3.000737 1_555
O7 Rb2 3.204572 1_546
O8 P4 1.525981 1_555
O8 Y3 2.259099 1_555
O8 Rb3 3.457845 1_455
O9 P5 1.525981 1_555
O9 Y2 2.259099 1_554
O9 Rb2 3.457845 1_555
O10 P6 1.525981 1_555
O10 Y1 2.259099 1_555
O10 Rb1 3.457845 1_655
O11 P7 1.525981 1_555
O11 Y0 2.259099 1_556
O11 Rb0 3.457845 1_555
O12 P3 1.516997 1_555
O12 Y3 2.219015 1_554
O12 Rb2 3.578374 1_545
O13 P2 1.516997 1_555
O13 Y2 2.219015 1_555
O13 Rb3 3.578374 1_565
O14 P1 1.516997 1_555
O14 Y1 2.219015 1_556
O14 Rb0 3.578374 1_565
O15 P0 1.516997 1_555
O15 Y0 2.219015 1_555
O15 Rb1 3.578374 1_545
O16 P3 1.631571 1_555
O16 P4 1.639703 1_555
O16 Rb3 3.401955 1_455
O17 P2 1.631571 1_555
O17 P5 1.639703 1_555
O17 Rb2 3.401955 1_555
O18 P1 1.631571 1_555
O18 P6 1.639703 1_555
O18 Rb1 3.401955 1_655
O19 P0 1.631571 1_555
O19 P7 1.639703 1_555
O19 Rb0 3.401955 1_555
O20 P0 1.538422 1_555
O20 Y3 2.305735 1_555
O20 Rb2 3.011847 1_546
O20 Rb1 3.168599 1_545
O21 P1 1.538422 1_555
O21 Y2 2.305735 1_555
O21 Rb3 3.011847 1_565
O21 Rb0 3.168599 1_565
O22 P2 1.538422 1_555
O22 Y1 2.305735 1_555
O22 Rb0 3.011847 1_564
O22 Rb3 3.168599 1_565
O23 P3 1.538422 1_555
O23 Y0 2.305735 1_555
O23 Rb1 3.011847 1_545
O23 Rb2 3.168599 1_545
O24 P7 1.528819 1_555
O24 Y2 2.249616 1_555
O24 Rb1 3.384440 1_555
O24 Rb2 3.608732 1_556
O25 P6 1.528819 1_555
O25 Y3 2.249616 1_655
O25 Rb0 3.384440 1_555
O25 Rb3 3.608732 1_555
O26 P5 1.528819 1_555
O26 Y0 2.249616 1_555
O26 Rb3 3.384440 1_555
O26 Rb0 3.608732 1_554
O27 P4 1.528819 1_555
O27 Y1 2.249616 1_455
O27 Rb2 3.384440 1_555
O27 Rb1 3.608732 1_555
