# generated using pymatgen
data_TcIr
_symmetry_space_group_name_H-M   'P 1'
_cell_length_a   5.47981128
_cell_length_b   5.47986962
_cell_length_c   8.71092116
_cell_angle_alpha   90.00000000
_cell_angle_beta   90.00000000
_cell_angle_gamma   59.99967232
_symmetry_Int_Tables_number   1
_chemical_formula_structural   TcIr
_chemical_formula_sum   'Tc8 Ir8'
_cell_volume   226.53176498
_cell_formula_units_Z   8
loop_
 _symmetry_equiv_pos_site_id
 _symmetry_equiv_pos_as_xyz
  1  'x, y, z'
loop_
 _atom_site_type_symbol
 _atom_site_label
 _atom_site_symmetry_multiplicity
 _atom_site_fract_x
 _atom_site_fract_y
 _atom_site_fract_z
 _atom_site_occupancy
  Tc  Tc0_0  1  0.33333629  0.33333235  0.12500000  1
  Tc  Tc0_1  1  0.33333629  0.33333235  0.62500000  1
  Tc  Tc0_2  1  0.33333629  0.83333235  0.12500000  1
  Tc  Tc0_3  1  0.33333629  0.83333235  0.62500000  1
  Tc  Tc0_4  1  0.83333629  0.33333235  0.12500000  1
  Tc  Tc0_5  1  0.83333629  0.33333235  0.62500000  1
  Tc  Tc0_6  1  0.83333629  0.83333235  0.12500000  1
  Tc  Tc0_7  1  0.83333629  0.83333235  0.62500000  1
  Ir  Ir0_0  1  0.16666371  0.16666765  0.37500000  1
  Ir  Ir0_1  1  0.16666371  0.16666765  0.87500000  1
  Ir  Ir0_2  1  0.16666371  0.66666764  0.37500000  1
  Ir  Ir0_3  1  0.16666371  0.66666764  0.87500000  1
  Ir  Ir0_4  1  0.66666371  0.16666764  0.37500000  1
  Ir  Ir0_5  1  0.66666371  0.16666764  0.87500000  1
  Ir  Ir0_6  1  0.66666371  0.66666764  0.37500000  1
  Ir  Ir0_7  1  0.66666371  0.66666764  0.87500000  1
loop_
_geom_bond_atom_site_label_1
_geom_bond_atom_site_label_2
_geom_bond_distance
_geom_bond_site_symmetry_2
Tc0_0 Tc0_4 2.739906 1_555
Tc0_0 Tc0_4 2.739906 1_455
Tc0_0 Tc0_6 2.739907 1_455
Tc0_0 Tc0_6 2.739907 1_545
Tc0_0 Tc0_2 2.739935 1_555
Tc0_0 Tc0_2 2.739935 1_545
Tc0_1 Tc0_5 2.739906 1_555
Tc0_1 Tc0_5 2.739906 1_455
Tc0_1 Tc0_7 2.739907 1_455
Tc0_1 Tc0_7 2.739907 1_545
Tc0_1 Tc0_3 2.739935 1_555
Tc0_1 Tc0_3 2.739935 1_545
Tc0_2 Tc0_6 2.739906 1_555
Tc0_2 Tc0_6 2.739906 1_455
Tc0_2 Tc0_4 2.739907 1_555
Tc0_2 Tc0_4 2.739907 1_465
Tc0_3 Tc0_7 2.739906 1_555
Tc0_3 Tc0_7 2.739906 1_455
Tc0_3 Tc0_5 2.739907 1_555
Tc0_3 Tc0_5 2.739907 1_465
Tc0_4 Tc0_6 2.739935 1_555
Tc0_4 Tc0_6 2.739935 1_545
Tc0_5 Tc0_7 2.739935 1_555
Tc0_5 Tc0_7 2.739935 1_545
Ir0_0 Tc0_5 2.691610 1_455
Ir0_0 Tc0_4 2.691610 1_455
Ir0_0 Tc0_3 2.691642 1_545
Ir0_0 Tc0_2 2.691642 1_545
Ir0_0 Tc0_1 2.691647 1_555
Ir0_0 Tc0_0 2.691647 1_555
Ir0_0 Ir0_4 2.739906 1_555
Ir0_0 Ir0_4 2.739906 1_455
Ir0_0 Ir0_6 2.739907 1_455
Ir0_0 Ir0_6 2.739907 1_545
Ir0_0 Ir0_2 2.739935 1_545
Ir0_0 Ir0_2 2.739935 1_555
Ir0_1 Tc0_4 2.691610 1_456
Ir0_1 Tc0_5 2.691610 1_455
Ir0_1 Tc0_2 2.691642 1_546
Ir0_1 Tc0_3 2.691642 1_545
Ir0_1 Tc0_1 2.691647 1_555
Ir0_1 Tc0_0 2.691647 1_556
Ir0_1 Ir0_5 2.739906 1_555
Ir0_1 Ir0_5 2.739906 1_455
Ir0_1 Ir0_7 2.739907 1_455
Ir0_1 Ir0_7 2.739907 1_545
Ir0_1 Ir0_3 2.739935 1_545
Ir0_1 Ir0_3 2.739935 1_555
Ir0_2 Tc0_7 2.691610 1_455
Ir0_2 Tc0_6 2.691610 1_455
Ir0_2 Tc0_1 2.691642 1_555
Ir0_2 Tc0_0 2.691642 1_555
Ir0_2 Tc0_3 2.691647 1_555
Ir0_2 Tc0_2 2.691647 1_555
Ir0_2 Ir0_6 2.739906 1_555
Ir0_2 Ir0_6 2.739906 1_455
Ir0_2 Ir0_4 2.739907 1_465
Ir0_2 Ir0_4 2.739907 1_555
Ir0_3 Tc0_7 2.691610 1_455
Ir0_3 Tc0_6 2.691610 1_456
Ir0_3 Tc0_0 2.691642 1_556
Ir0_3 Tc0_1 2.691642 1_555
Ir0_3 Tc0_2 2.691647 1_556
Ir0_3 Tc0_3 2.691647 1_555
Ir0_3 Ir0_7 2.739906 1_555
Ir0_3 Ir0_7 2.739906 1_455
Ir0_3 Ir0_5 2.739907 1_465
Ir0_3 Ir0_5 2.739907 1_555
Ir0_4 Tc0_1 2.691610 1_555
Ir0_4 Tc0_0 2.691610 1_555
Ir0_4 Tc0_7 2.691642 1_545
Ir0_4 Tc0_6 2.691642 1_545
Ir0_4 Tc0_5 2.691647 1_555
Ir0_4 Tc0_4 2.691647 1_555
Ir0_4 Ir0_6 2.739935 1_555
Ir0_4 Ir0_6 2.739935 1_545
Ir0_5 Tc0_1 2.691610 1_555
Ir0_5 Tc0_0 2.691610 1_556
Ir0_5 Tc0_6 2.691642 1_546
Ir0_5 Tc0_7 2.691642 1_545
Ir0_5 Tc0_4 2.691647 1_556
Ir0_5 Tc0_5 2.691647 1_555
Ir0_5 Ir0_7 2.739935 1_555
Ir0_5 Ir0_7 2.739935 1_545
Ir0_6 Tc0_3 2.691610 1_555
Ir0_6 Tc0_2 2.691610 1_555
Ir0_6 Tc0_5 2.691642 1_555
Ir0_6 Tc0_4 2.691642 1_555
Ir0_6 Tc0_7 2.691647 1_555
Ir0_6 Tc0_6 2.691647 1_555
Ir0_7 Tc0_2 2.691610 1_556
Ir0_7 Tc0_3 2.691610 1_555
Ir0_7 Tc0_5 2.691642 1_555
Ir0_7 Tc0_4 2.691642 1_556
Ir0_7 Tc0_6 2.691647 1_556
Ir0_7 Tc0_7 2.691647 1_555
