# generated using pymatgen
data_Mg14CoCO16
_symmetry_space_group_name_H-M   'P 1'
_cell_length_a   8.49853910
_cell_length_b   8.53000998
_cell_length_c   4.23238978
_cell_angle_alpha   90.00000000
_cell_angle_beta   90.00000000
_cell_angle_gamma   90.00000000
_symmetry_Int_Tables_number   1
_chemical_formula_structural   Mg14CoCO16
_chemical_formula_sum   'Mg14 Co1 C1 O16'
_cell_volume   306.81703814
_cell_formula_units_Z   1
loop_
 _symmetry_equiv_pos_site_id
 _symmetry_equiv_pos_as_xyz
  1  'x, y, z'
loop_
 _atom_site_type_symbol
 _atom_site_label
 _atom_site_symmetry_multiplicity
 _atom_site_fract_x
 _atom_site_fract_y
 _atom_site_fract_z
 _atom_site_occupancy
  Mg  Mg0  1  0.50000000  0.00000000  -0.00000000  1
  Mg  Mg1  1  0.50000000  0.50000000  -0.00000000  1
  Mg  Mg2  1  0.00000000  0.25340241  0.50000000  1
  Mg  Mg3  1  0.00000000  0.74659759  0.50000000  1
  Mg  Mg4  1  0.50000000  0.25096216  0.50000000  1
  Mg  Mg5  1  0.50000000  0.74903784  0.50000000  1
  Mg  Mg6  1  0.24979723  -0.00000000  0.50000000  1
  Mg  Mg7  1  0.24620562  0.50000000  0.50000000  1
  Mg  Mg8  1  0.75020277  0.00000000  0.50000000  1
  Mg  Mg9  1  0.75379438  0.50000000  0.50000000  1
  Mg  Mg10  1  0.24648800  0.25241032  0.00000000  1
  Mg  Mg11  1  0.24648800  0.74758968  -0.00000000  1
  Mg  Mg12  1  0.75351200  0.25241032  -0.00000000  1
  Mg  Mg13  1  0.75351200  0.74758968  -0.00000000  1
  Co  Co0  1  0.00000000  0.00000000  -0.00000000  1
  C  C0  1  0.00000000  0.50000000  -0.00000000  1
  O  O0  1  0.24945788  0.00000000  -0.00000000  1
  O  O1  1  0.25173588  0.50000000  0.00000000  1
  O  O2  1  0.75054212  0.00000000  0.00000000  1
  O  O3  1  0.74826412  0.50000000  -0.00000000  1
  O  O4  1  0.24873864  0.25010096  0.50000000  1
  O  O5  1  0.24873864  0.74989904  0.50000000  1
  O  O6  1  0.75126136  0.25010096  0.50000000  1
  O  O7  1  0.75126136  0.74989904  0.50000000  1
  O  O8  1  0.00000000  0.00000000  0.50000000  1
  O  O9  1  0.00000000  0.50000000  0.50000000  1
  O  O10  1  0.50000000  0.00000000  0.50000000  1
  O  O11  1  0.50000000  0.50000000  0.50000000  1
  O  O12  1  0.00000000  0.25391912  -0.00000000  1
  O  O13  1  0.00000000  0.74608088  -0.00000000  1
  O  O14  1  0.50000000  0.25011611  -0.00000000  1
  O  O15  1  0.50000000  0.74988389  -0.00000000  1
loop_
_geom_bond_atom_site_label_1
_geom_bond_atom_site_label_2
_geom_bond_distance
_geom_bond_site_symmetry_2
Mg0 O10 2.116195 1_555
Mg0 O10 2.116195 1_554
Mg0 O2 2.129242 1_555
Mg0 O0 2.129242 1_555
Mg0 O15 2.133493 1_545
Mg0 O14 2.133493 1_555
Mg1 O1 2.109882 1_555
Mg1 O3 2.109882 1_555
Mg1 O11 2.116195 1_554
Mg1 O11 2.116195 1_555
Mg1 O14 2.131512 1_555
Mg1 O15 2.131512 1_555
Mg2 O9 2.103480 1_555
Mg2 O4 2.114103 1_555
Mg2 O6 2.114103 1_455
Mg2 O12 2.116199 1_555
Mg2 O12 2.116199 1_556
Mg2 O8 2.161525 1_555
Mg3 O9 2.103480 1_555
Mg3 O5 2.114103 1_555
Mg3 O7 2.114103 1_455
Mg3 O13 2.116199 1_555
Mg3 O13 2.116199 1_556
Mg3 O8 2.161525 1_565
Mg4 O14 2.116207 1_556
Mg4 O14 2.116207 1_555
Mg4 O11 2.124295 1_555
Mg4 O6 2.135367 1_555
Mg4 O4 2.135367 1_555
Mg4 O10 2.140710 1_555
Mg5 O15 2.116207 1_556
Mg5 O15 2.116207 1_555
Mg5 O11 2.124295 1_555
Mg5 O5 2.135367 1_555
Mg5 O7 2.135367 1_555
Mg5 O10 2.140710 1_565
Mg6 O0 2.116197 1_555
Mg6 O0 2.116197 1_556
Mg6 O8 2.122912 1_555
Mg6 O10 2.126358 1_555
Mg6 O4 2.133383 1_555
Mg6 O5 2.133383 1_545
Mg7 O9 2.092388 1_555
Mg7 O1 2.116717 1_556
Mg7 O1 2.116717 1_555
Mg7 O5 2.131750 1_555
Mg7 O4 2.131750 1_555
Mg7 O11 2.156881 1_555
Mg8 O2 2.116197 1_556
Mg8 O2 2.116197 1_555
Mg8 O8 2.122912 1_655
Mg8 O10 2.126358 1_555
Mg8 O6 2.133383 1_555
Mg8 O7 2.133383 1_545
Mg9 O9 2.092388 1_655
Mg9 O3 2.116717 1_556
Mg9 O3 2.116717 1_555
Mg9 O7 2.131750 1_555
Mg9 O6 2.131750 1_555
Mg9 O11 2.156881 1_555
Mg10 O12 2.094827 1_555
Mg10 O1 2.112413 1_555
Mg10 O4 2.116373 1_554
Mg10 O4 2.116373 1_555
Mg10 O0 2.153210 1_555
Mg10 O14 2.154571 1_555
Mg11 O13 2.094827 1_555
Mg11 O1 2.112413 1_555
Mg11 O5 2.116373 1_555
Mg11 O5 2.116373 1_554
Mg11 O0 2.153210 1_565
Mg11 O15 2.154571 1_555
Mg12 O12 2.094827 1_655
Mg12 O3 2.112413 1_555
Mg12 O6 2.116373 1_555
Mg12 O6 2.116373 1_554
Mg12 O2 2.153210 1_555
Mg12 O14 2.154571 1_555
Mg13 O13 2.094827 1_655
Mg13 O3 2.112413 1_555
Mg13 O7 2.116373 1_555
Mg13 O7 2.116373 1_554
Mg13 O2 2.153210 1_565
Mg13 O15 2.154571 1_555
Co0 O8 2.116195 1_555
Co0 O8 2.116195 1_554
Co0 O0 2.120028 1_555
Co0 O2 2.120028 1_455
Co0 O13 2.165933 1_545
Co0 O12 2.165933 1_555
C0 O12 2.099072 1_555
C0 O13 2.099072 1_555
C0 O9 2.116195 1_554
C0 O9 2.116195 1_555
C0 O3 2.139387 1_455
C0 O1 2.139387 1_555
