# generated using pymatgen
data_CaMg149
_symmetry_space_group_name_H-M   'P 1'
_cell_length_a   15.98461191
_cell_length_b   15.98461742
_cell_length_c   15.65687627
_cell_angle_alpha   90.00000000
_cell_angle_beta   90.00000000
_cell_angle_gamma   120.00001141
_symmetry_Int_Tables_number   1
_chemical_formula_structural   CaMg149
_chemical_formula_sum   'Ca1 Mg149'
_cell_volume   3464.49583814
_cell_formula_units_Z   1
loop_
 _symmetry_equiv_pos_site_id
 _symmetry_equiv_pos_as_xyz
  1  'x, y, z'
loop_
 _atom_site_type_symbol
 _atom_site_label
 _atom_site_symmetry_multiplicity
 _atom_site_fract_x
 _atom_site_fract_y
 _atom_site_fract_z
 _atom_site_occupancy
  Ca  Ca0  1  0.00000000  0.00000000  0.00000000  1
  Mg  Mg0  1  0.60014652  0.20029304  0.00000000  1
  Mg  Mg1  1  0.40094112  0.20047056  0.00000000  1
  Mg  Mg2  1  0.79952944  0.20047056  0.00000000  1
  Mg  Mg3  1  0.00249284  0.20635494  0.00000000  1
  Mg  Mg4  1  0.20386209  0.20635494  0.00000000  1
  Mg  Mg5  1  0.60014652  0.39985348  0.00000000  1
  Mg  Mg6  1  0.79970696  0.39985348  0.00000000  1
  Mg  Mg7  1  0.00024523  0.40105527  0.00000000  1
  Mg  Mg8  1  0.40081104  0.40105627  0.00000000  1
  Mg  Mg9  1  0.20156740  0.40313480  0.00000000  1
  Mg  Mg10  1  0.79952944  0.59905888  0.00000000  1
  Mg  Mg11  1  0.00024523  0.59918896  0.00000000  1
  Mg  Mg12  1  0.59894473  0.59918996  0.00000000  1
  Mg  Mg13  1  0.20058491  0.60029196  0.00000000  1
  Mg  Mg14  1  0.39970804  0.60029296  0.00000000  1
  Mg  Mg15  1  0.79364506  0.79613791  0.00000000  1
  Mg  Mg16  1  0.00249284  0.79613791  0.00000000  1
  Mg  Mg17  1  0.59686520  0.79843260  0.00000000  1
  Mg  Mg18  1  0.20156740  0.79843260  0.00000000  1
  Mg  Mg19  1  0.39970804  0.79941509  0.00000000  1
  Mg  Mg20  1  0.79364506  0.99750616  0.00000000  1
  Mg  Mg21  1  0.20386209  0.99750716  0.00000000  1
  Mg  Mg22  1  0.40081104  0.99975477  0.00000000  1
  Mg  Mg23  1  0.59894473  0.99975477  0.00000000  1
  Mg  Mg24  1  0.26425232  0.13212616  0.16520973  1
  Mg  Mg25  1  0.86787384  0.13212616  0.16520973  1
  Mg  Mg26  1  0.86787384  0.73574768  0.16520973  1
  Mg  Mg27  1  0.66666600  0.33333300  0.16629006  1
  Mg  Mg28  1  0.46589648  0.13305803  0.16657288  1
  Mg  Mg29  1  0.66716155  0.13305803  0.16657288  1
  Mg  Mg30  1  0.46589648  0.33283845  0.16657288  1
  Mg  Mg31  1  0.86694197  0.33283845  0.16657288  1
  Mg  Mg32  1  0.66716155  0.53410352  0.16657288  1
  Mg  Mg33  1  0.86694197  0.53410352  0.16657288  1
  Mg  Mg34  1  0.06671124  0.53335562  0.16735219  1
  Mg  Mg35  1  0.46664438  0.53335562  0.16735219  1
  Mg  Mg36  1  0.46664438  0.93328876  0.16735219  1
  Mg  Mg37  1  0.26704647  0.53409293  0.16736809  1
  Mg  Mg38  1  0.46590807  0.73295353  0.16736809  1
  Mg  Mg39  1  0.26704647  0.73295353  0.16736809  1
  Mg  Mg40  1  0.26774538  0.33544078  0.16773370  1
  Mg  Mg41  1  0.06769640  0.33544178  0.16773370  1
  Mg  Mg42  1  0.66455922  0.73225462  0.16773370  1
  Mg  Mg43  1  0.06769640  0.73225462  0.16773370  1
  Mg  Mg44  1  0.26774538  0.93230460  0.16773370  1
  Mg  Mg45  1  0.66455922  0.93230460  0.16773370  1
  Mg  Mg46  1  0.06837292  0.13674583  0.17077108  1
  Mg  Mg47  1  0.86325417  0.93162708  0.17077108  1
  Mg  Mg48  1  0.06837292  0.93162708  0.17077108  1
  Mg  Mg49  1  0.39995535  0.19997768  0.33290192  1
  Mg  Mg50  1  0.80002232  0.19997868  0.33290192  1
  Mg  Mg51  1  0.80002232  0.60004365  0.33290192  1
  Mg  Mg52  1  0.60006624  0.20013147  0.33303830  1
  Mg  Mg53  1  0.79986853  0.39993376  0.33303830  1
  Mg  Mg54  1  0.60006624  0.39993376  0.33303830  1
  Mg  Mg55  1  0.40050198  0.00022271  0.33379733  1
  Mg  Mg56  1  0.59971973  0.00022271  0.33379733  1
  Mg  Mg57  1  0.40050198  0.40028027  0.33379733  1
  Mg  Mg58  1  0.99977729  0.40028027  0.33379733  1
  Mg  Mg59  1  0.99977729  0.59949702  0.33379733  1
  Mg  Mg60  1  0.59971973  0.59949702  0.33379733  1
  Mg  Mg61  1  0.19988260  0.59994080  0.33381328  1
  Mg  Mg62  1  0.40005820  0.59994080  0.33381328  1
  Mg  Mg63  1  0.40005820  0.80011740  0.33381328  1
  Mg  Mg64  1  0.20021526  0.40043052  0.33401834  1
  Mg  Mg65  1  0.59957048  0.79978474  0.33401834  1
  Mg  Mg66  1  0.20021526  0.79978474  0.33401834  1
  Mg  Mg67  1  0.79933962  0.00015743  0.33400771  1
  Mg  Mg68  1  0.20081881  0.00015843  0.33400771  1
  Mg  Mg69  1  0.99984157  0.20066038  0.33400771  1
  Mg  Mg70  1  0.20081881  0.20066138  0.33400771  1
  Mg  Mg71  1  0.99984157  0.79918119  0.33400771  1
  Mg  Mg72  1  0.79933962  0.79918119  0.33400771  1
  Mg  Mg73  1  0.00000000  0.00000000  0.33424937  1
  Mg  Mg74  1  0.06678364  0.13356827  0.50000000  1
  Mg  Mg75  1  0.86640975  0.13358925  0.50000000  1
  Mg  Mg76  1  0.26717951  0.13358925  0.50000000  1
  Mg  Mg77  1  0.46696468  0.13396171  0.50000000  1
  Mg  Mg78  1  0.66699703  0.13396171  0.50000000  1
  Mg  Mg79  1  0.46696468  0.33300297  0.50000000  1
  Mg  Mg80  1  0.86603829  0.33300297  0.50000000  1
  Mg  Mg81  1  0.66666600  0.33333300  0.50000000  1
  Mg  Mg82  1  0.26682470  0.33373119  0.50000000  1
  Mg  Mg83  1  0.06690649  0.33373119  0.50000000  1
  Mg  Mg84  1  0.86603829  0.53303532  0.50000000  1
  Mg  Mg85  1  0.66699703  0.53303532  0.50000000  1
  Mg  Mg86  1  0.06651865  0.53325883  0.50000000  1
  Mg  Mg87  1  0.46674017  0.53325883  0.50000000  1
  Mg  Mg88  1  0.26682322  0.53364744  0.50000000  1
  Mg  Mg89  1  0.86640975  0.73282049  0.50000000  1
  Mg  Mg90  1  0.66626981  0.73317430  0.50000000  1
  Mg  Mg91  1  0.06690649  0.73317530  0.50000000  1
  Mg  Mg92  1  0.46635256  0.73317578  0.50000000  1
  Mg  Mg93  1  0.26682322  0.73317678  0.50000000  1
  Mg  Mg94  1  0.26682470  0.93309451  0.50000000  1
  Mg  Mg95  1  0.66626981  0.93309451  0.50000000  1
  Mg  Mg96  1  0.86643173  0.93321536  0.50000000  1
  Mg  Mg97  1  0.06678364  0.93321636  0.50000000  1
  Mg  Mg98  1  0.46674017  0.93348135  0.50000000  1
  Mg  Mg99  1  0.00000000  0.00000000  0.66575063  1
  Mg  Mg100  1  0.79933962  0.00015743  0.66599229  1
  Mg  Mg101  1  0.20081881  0.00015843  0.66599229  1
  Mg  Mg102  1  0.99984157  0.20066038  0.66599229  1
  Mg  Mg103  1  0.20081881  0.20066138  0.66599229  1
  Mg  Mg104  1  0.99984157  0.79918119  0.66599229  1
  Mg  Mg105  1  0.79933962  0.79918119  0.66599229  1
  Mg  Mg106  1  0.20021526  0.40043052  0.66598166  1
  Mg  Mg107  1  0.59957048  0.79978474  0.66598166  1
  Mg  Mg108  1  0.20021526  0.79978474  0.66598166  1
  Mg  Mg109  1  0.19988260  0.59994080  0.66618672  1
  Mg  Mg110  1  0.40005820  0.59994080  0.66618672  1
  Mg  Mg111  1  0.40005820  0.80011740  0.66618672  1
  Mg  Mg112  1  0.40050198  0.00022271  0.66620267  1
  Mg  Mg113  1  0.59971973  0.00022271  0.66620267  1
  Mg  Mg114  1  0.40050198  0.40028027  0.66620267  1
  Mg  Mg115  1  0.99977729  0.40028027  0.66620267  1
  Mg  Mg116  1  0.99977729  0.59949702  0.66620267  1
  Mg  Mg117  1  0.59971973  0.59949702  0.66620267  1
  Mg  Mg118  1  0.60006624  0.20013147  0.66696170  1
  Mg  Mg119  1  0.79986853  0.39993376  0.66696170  1
  Mg  Mg120  1  0.60006624  0.39993376  0.66696170  1
  Mg  Mg121  1  0.39995535  0.19997768  0.66709708  1
  Mg  Mg122  1  0.80002232  0.19997868  0.66709708  1
  Mg  Mg123  1  0.80002232  0.60004365  0.66709708  1
  Mg  Mg124  1  0.06837292  0.13674583  0.82922892  1
  Mg  Mg125  1  0.86325417  0.93162708  0.82922892  1
  Mg  Mg126  1  0.06837292  0.93162708  0.82922892  1
  Mg  Mg127  1  0.26774538  0.33544078  0.83226630  1
  Mg  Mg128  1  0.06769640  0.33544178  0.83226630  1
  Mg  Mg129  1  0.66455922  0.73225462  0.83226630  1
  Mg  Mg130  1  0.06769640  0.73225462  0.83226630  1
  Mg  Mg131  1  0.26774538  0.93230460  0.83226630  1
  Mg  Mg132  1  0.66455922  0.93230460  0.83226630  1
  Mg  Mg133  1  0.26704647  0.53409293  0.83263191  1
  Mg  Mg134  1  0.46590807  0.73295353  0.83263191  1
  Mg  Mg135  1  0.26704647  0.73295353  0.83263191  1
  Mg  Mg136  1  0.06671124  0.53335562  0.83264781  1
  Mg  Mg137  1  0.46664438  0.53335562  0.83264781  1
  Mg  Mg138  1  0.46664438  0.93328876  0.83264781  1
  Mg  Mg139  1  0.46589648  0.13305803  0.83342812  1
  Mg  Mg140  1  0.66716155  0.13305803  0.83342812  1
  Mg  Mg141  1  0.46589648  0.33283845  0.83342812  1
  Mg  Mg142  1  0.86694197  0.33283845  0.83342812  1
  Mg  Mg143  1  0.66716155  0.53410352  0.83342812  1
  Mg  Mg144  1  0.86694197  0.53410352  0.83342812  1
  Mg  Mg145  1  0.66666600  0.33333300  0.83370994  1
  Mg  Mg146  1  0.26425232  0.13212616  0.83479027  1
  Mg  Mg147  1  0.86787384  0.13212616  0.83479027  1
  Mg  Mg148  1  0.86787384  0.73574768  0.83479027  1
loop_
_geom_bond_atom_site_label_1
_geom_bond_atom_site_label_2
_geom_bond_distance
_geom_bond_site_symmetry_2
Ca0 Mg125 3.276016 1_444
Ca0 Mg47 3.276016 1_445
Ca0 Mg124 3.276016 1_554
Ca0 Mg46 3.276016 1_555
Ca0 Mg126 3.276016 1_544
Ca0 Mg48 3.276016 1_545
Ca0 Mg20 3.278754 1_445
Ca0 Mg21 3.278762 1_545
Ca0 Mg15 3.278762 1_445
Ca0 Mg4 3.278762 1_555
Ca0 Mg16 3.278763 1_545
Ca0 Mg3 3.278763 1_555
Mg0 Mg2 3.185641 1_555
Mg0 Mg1 3.185641 1_555
Mg0 Mg27 3.189113 1_555
Mg0 Mg145 3.189113 1_554
Mg0 Mg6 3.189896 1_555
Mg0 Mg5 3.189897 1_555
Mg0 Mg22 3.195957 1_545
Mg0 Mg23 3.195966 1_545
Mg0 Mg139 3.202408 1_554
Mg0 Mg140 3.202409 1_554
Mg0 Mg28 3.202421 1_555
Mg0 Mg29 3.202421 1_555
Mg1 Mg5 3.185641 1_555
Mg1 Mg141 3.187419 1_554
Mg1 Mg139 3.187419 1_554
Mg1 Mg30 3.187432 1_555
Mg1 Mg28 3.187432 1_555
Mg1 Mg21 3.198299 1_545
Mg1 Mg4 3.198299 1_555
Mg1 Mg146 3.204879 1_554
Mg1 Mg24 3.204879 1_555
Mg1 Mg22 3.207326 1_545
Mg1 Mg8 3.207326 1_555
Mg2 Mg6 3.185642 1_555
Mg2 Mg29 3.187432 1_555
Mg2 Mg31 3.187432 1_555
Mg2 Mg3 3.198299 1_655
Mg2 Mg20 3.198316 1_545
Mg2 Mg25 3.204880 1_555
Mg2 Mg7 3.207317 1_655
Mg2 Mg23 3.207317 1_545
Mg3 Mg7 3.130329 1_555
Mg3 Mg9 3.163949 1_555
Mg3 Mg41 3.176506 1_555
Mg3 Mg4 3.218809 1_555
Mg3 Mg46 3.266131 1_555
Mg4 Mg8 3.130343 1_555
Mg4 Mg9 3.163950 1_555
Mg4 Mg40 3.176498 1_555
Mg4 Mg46 3.266131 1_555
Mg5 Mg6 3.189896 1_555
Mg5 Mg8 3.195957 1_555
Mg6 Mg7 3.195965 1_655
Mg7 Mg9 3.201566 1_555
Mg8 Mg9 3.201574 1_555
Mg10 Mg5 3.185641 1_555
Mg10 Mg6 3.185642 1_555
Mg10 Mg143 3.187419 1_554
Mg10 Mg144 3.187419 1_554
Mg10 Mg32 3.187432 1_555
Mg10 Mg33 3.187432 1_555
Mg10 Mg16 3.198299 1_655
Mg10 Mg15 3.198300 1_555
Mg10 Mg148 3.204880 1_554
Mg10 Mg26 3.204880 1_555
Mg10 Mg12 3.207317 1_555
Mg10 Mg11 3.207325 1_655
Mg11 Mg16 3.130345 1_555
Mg11 Mg7 3.167091 1_555
Mg11 Mg13 3.193573 1_555
Mg11 Mg144 3.194918 1_454
Mg11 Mg33 3.194931 1_455
Mg11 Mg6 3.195957 1_455
Mg11 Mg136 3.196823 1_554
Mg11 Mg34 3.196823 1_555
Mg11 Mg18 3.201574 1_555
Mg11 Mg43 3.207830 1_555
Mg11 Mg130 3.207830 1_554
Mg12 Mg15 3.130328 1_555
Mg12 Mg8 3.167090 1_555
Mg12 Mg14 3.193573 1_555
Mg12 Mg143 3.194918 1_554
Mg12 Mg32 3.194931 1_555
Mg12 Mg5 3.195966 1_555
Mg12 Mg35 3.196831 1_555
Mg12 Mg137 3.196831 1_554
Mg12 Mg17 3.201567 1_555
Mg12 Mg42 3.207822 1_555
Mg12 Mg129 3.207822 1_554
Mg13 Mg9 3.159363 1_555
Mg13 Mg18 3.159379 1_555
Mg13 Mg14 3.182898 1_555
Mg13 Mg19 3.182906 1_555
Mg13 Mg7 3.193573 1_555
Mg13 Mg133 3.199891 1_554
Mg13 Mg37 3.199891 1_555
Mg13 Mg135 3.199899 1_554
Mg13 Mg39 3.199899 1_555
Mg13 Mg136 3.209354 1_554
Mg13 Mg34 3.209354 1_555
Mg14 Mg17 3.159362 1_555
Mg14 Mg9 3.159378 1_555
Mg14 Mg19 3.182891 1_555
Mg14 Mg8 3.193574 1_555
Mg14 Mg38 3.199891 1_555
Mg14 Mg37 3.199899 1_555
Mg14 Mg35 3.209354 1_555
Mg15 Mg17 3.163949 1_555
Mg15 Mg42 3.176498 1_555
Mg15 Mg26 3.189965 1_555
Mg15 Mg20 3.218794 1_555
Mg15 Mg47 3.266131 1_555
Mg15 Mg16 3.338351 1_655
Mg16 Mg18 3.163949 1_555
Mg16 Mg43 3.176506 1_555
Mg16 Mg26 3.189964 1_455
Mg16 Mg21 3.218809 1_555
Mg16 Mg48 3.266131 1_555
Mg17 Mg19 3.159362 1_555
Mg17 Mg20 3.163941 1_555
Mg17 Mg38 3.186415 1_555
Mg17 Mg23 3.201567 1_555
Mg17 Mg42 3.214242 1_555
Mg17 Mg45 3.214242 1_555
Mg18 Mg19 3.159378 1_555
Mg18 Mg21 3.163950 1_555
Mg18 Mg39 3.186424 1_555
Mg18 Mg22 3.201574 1_555
Mg18 Mg43 3.214234 1_555
Mg18 Mg44 3.214242 1_555
Mg19 Mg23 3.193573 1_555
Mg19 Mg22 3.193574 1_555
Mg19 Mg39 3.199899 1_555
Mg19 Mg38 3.199899 1_555
Mg19 Mg36 3.209354 1_555
Mg20 Mg23 3.130336 1_555
Mg20 Mg45 3.176498 1_555
Mg20 Mg25 3.189972 1_565
Mg20 Mg47 3.266123 1_555
Mg20 Mg3 3.338359 1_665
Mg21 Mg22 3.130344 1_555
Mg21 Mg44 3.176498 1_555
Mg21 Mg24 3.189965 1_565
Mg21 Mg48 3.266131 1_555
Mg21 Mg4 3.338352 1_565
Mg22 Mg23 3.167090 1_555
Mg22 Mg28 3.194931 1_565
Mg22 Mg36 3.196823 1_555
Mg22 Mg44 3.207830 1_555
Mg23 Mg29 3.194931 1_565
Mg23 Mg36 3.196831 1_555
Mg23 Mg45 3.207822 1_555
Mg24 Mg46 3.169820 1_555
Mg24 Mg48 3.169820 1_545
Mg24 Mg4 3.189965 1_555
Mg24 Mg68 3.213045 1_555
Mg24 Mg70 3.213053 1_555
Mg24 Mg30 3.215853 1_555
Mg24 Mg28 3.215853 1_555
Mg24 Mg40 3.222594 1_555
Mg24 Mg44 3.222594 1_545
Mg24 Mg49 3.228371 1_555
Mg25 Mg46 3.169820 1_655
Mg25 Mg47 3.169821 1_545
Mg25 Mg3 3.189964 1_655
Mg25 Mg69 3.213045 1_555
Mg25 Mg67 3.213053 1_555
Mg25 Mg29 3.215853 1_555
Mg25 Mg31 3.215854 1_555
Mg25 Mg45 3.222593 1_545
Mg25 Mg41 3.222609 1_655
Mg25 Mg50 3.228380 1_555
Mg26 Mg48 3.169820 1_655
Mg26 Mg47 3.169821 1_555
Mg26 Mg71 3.213045 1_555
Mg26 Mg72 3.213045 1_555
Mg26 Mg32 3.215853 1_555
Mg26 Mg33 3.215854 1_555
Mg26 Mg42 3.222593 1_555
Mg26 Mg43 3.222609 1_655
Mg26 Mg51 3.228380 1_555
Mg27 Mg5 3.189113 1_555
Mg27 Mg6 3.189121 1_555
Mg27 Mg54 3.196254 1_555
Mg27 Mg52 3.196262 1_555
Mg27 Mg53 3.196270 1_555
Mg27 Mg30 3.205281 1_555
Mg27 Mg28 3.205281 1_555
Mg27 Mg29 3.205290 1_555
Mg27 Mg32 3.205290 1_555
Mg27 Mg33 3.205297 1_555
Mg27 Mg31 3.205297 1_555
Mg28 Mg49 3.188189 1_555
Mg28 Mg44 3.188422 1_545
Mg28 Mg30 3.193414 1_555
Mg28 Mg36 3.199253 1_545
Mg28 Mg55 3.199480 1_555
Mg28 Mg52 3.200405 1_555
Mg28 Mg29 3.217144 1_555
Mg29 Mg50 3.188189 1_555
Mg29 Mg45 3.188423 1_545
Mg29 Mg31 3.193412 1_555
Mg29 Mg36 3.199252 1_545
Mg29 Mg56 3.199481 1_555
Mg29 Mg52 3.200398 1_555
Mg30 Mg49 3.188189 1_555
Mg30 Mg40 3.188422 1_555
Mg30 Mg8 3.194931 1_555
Mg30 Mg35 3.199253 1_555
Mg30 Mg57 3.199488 1_555
Mg30 Mg54 3.200405 1_555
Mg30 Mg5 3.202421 1_555
Mg30 Mg32 3.217144 1_555
Mg31 Mg50 3.188181 1_555
Mg31 Mg41 3.188431 1_655
Mg31 Mg7 3.194930 1_655
Mg31 Mg34 3.199252 1_655
Mg31 Mg58 3.199480 1_555
Mg31 Mg53 3.200398 1_555
Mg31 Mg6 3.202421 1_555
Mg31 Mg33 3.217145 1_555
Mg32 Mg51 3.188189 1_555
Mg32 Mg42 3.188423 1_555
Mg32 Mg33 3.193412 1_555
Mg32 Mg35 3.199252 1_555
Mg32 Mg60 3.199481 1_555
Mg32 Mg54 3.200406 1_555
Mg32 Mg5 3.202421 1_555
Mg33 Mg51 3.188181 1_555
Mg33 Mg43 3.188431 1_655
Mg33 Mg34 3.199252 1_655
Mg33 Mg59 3.199480 1_555
Mg33 Mg53 3.200406 1_555
Mg33 Mg6 3.202421 1_555
Mg34 Mg43 3.171486 1_555
Mg34 Mg41 3.171486 1_555
Mg34 Mg59 3.191385 1_455
Mg34 Mg58 3.191385 1_455
Mg34 Mg61 3.192349 1_555
Mg34 Mg39 3.196404 1_555
Mg34 Mg37 3.196404 1_555
Mg34 Mg7 3.196831 1_555
Mg35 Mg40 3.171492 1_555
Mg35 Mg42 3.171493 1_555
Mg35 Mg60 3.191384 1_555
Mg35 Mg57 3.191384 1_555
Mg35 Mg62 3.192349 1_555
Mg35 Mg38 3.196397 1_555
Mg35 Mg37 3.196404 1_555
Mg35 Mg8 3.196823 1_555
Mg36 Mg44 3.171492 1_555
Mg36 Mg45 3.171493 1_555
Mg36 Mg56 3.191384 1_565
Mg36 Mg55 3.191392 1_565
Mg36 Mg63 3.192349 1_555
Mg36 Mg39 3.196404 1_555
Mg36 Mg38 3.196413 1_555
Mg37 Mg39 3.178711 1_555
Mg37 Mg38 3.178718 1_555
Mg37 Mg41 3.180967 1_555
Mg37 Mg40 3.180984 1_555
Mg37 Mg9 3.186424 1_555
Mg37 Mg62 3.190888 1_555
Mg37 Mg61 3.190888 1_555
Mg37 Mg64 3.198695 1_555
Mg38 Mg39 3.178725 1_555
Mg38 Mg42 3.180967 1_555
Mg38 Mg45 3.180975 1_555
Mg38 Mg62 3.190896 1_555
Mg38 Mg63 3.190904 1_555
Mg38 Mg65 3.198695 1_555
Mg39 Mg43 3.180967 1_555
Mg39 Mg44 3.180985 1_555
Mg39 Mg63 3.190888 1_555
Mg39 Mg61 3.190896 1_555
Mg39 Mg66 3.198695 1_555
Mg40 Mg46 3.181846 1_555
Mg40 Mg57 3.184048 1_555
Mg40 Mg64 3.184956 1_555
Mg40 Mg41 3.197713 1_555
Mg40 Mg70 3.202883 1_555
Mg40 Mg8 3.207830 1_555
Mg40 Mg9 3.214242 1_555
Mg41 Mg46 3.181855 1_555
Mg41 Mg58 3.184057 1_455
Mg41 Mg64 3.184948 1_555
Mg41 Mg69 3.202899 1_455
Mg41 Mg7 3.207822 1_555
Mg41 Mg9 3.214234 1_555
Mg42 Mg47 3.181846 1_555
Mg42 Mg60 3.184057 1_555
Mg42 Mg65 3.184948 1_555
Mg42 Mg45 3.197722 1_555
Mg42 Mg72 3.202891 1_555
Mg43 Mg48 3.181855 1_555
Mg43 Mg59 3.184057 1_455
Mg43 Mg66 3.184948 1_555
Mg43 Mg44 3.197713 1_555
Mg43 Mg71 3.202899 1_455
Mg44 Mg48 3.181846 1_555
Mg44 Mg55 3.184048 1_565
Mg44 Mg66 3.184956 1_555
Mg44 Mg68 3.202891 1_565
Mg45 Mg47 3.181846 1_555
Mg45 Mg56 3.184057 1_565
Mg45 Mg65 3.184956 1_555
Mg45 Mg67 3.202891 1_565
Mg46 Mg70 3.145619 1_555
Mg46 Mg69 3.145620 1_455
Mg46 Mg73 3.183509 1_555
Mg46 Mg47 3.278744 1_445
Mg46 Mg48 3.278745 1_545
Mg47 Mg67 3.145612 1_565
Mg47 Mg72 3.145620 1_555
Mg47 Mg73 3.183509 1_665
Mg47 Mg48 3.278744 1_655
Mg48 Mg68 3.145620 1_565
Mg48 Mg71 3.145620 1_455
Mg48 Mg73 3.183509 1_565
Mg49 Mg68 3.188638 1_555
Mg49 Mg70 3.188646 1_555
Mg49 Mg76 3.197346 1_555
Mg49 Mg55 3.197415 1_555
Mg49 Mg57 3.197431 1_555
Mg49 Mg54 3.197459 1_555
Mg49 Mg52 3.197467 1_555
Mg49 Mg79 3.199342 1_555
Mg49 Mg77 3.199343 1_555
Mg50 Mg69 3.188646 1_555
Mg50 Mg67 3.188671 1_555
Mg50 Mg75 3.197354 1_555
Mg50 Mg58 3.197414 1_555
Mg50 Mg56 3.197430 1_555
Mg50 Mg53 3.197436 1_555
Mg50 Mg52 3.197443 1_555
Mg50 Mg80 3.199334 1_555
Mg50 Mg78 3.199342 1_555
Mg51 Mg71 3.188646 1_555
Mg51 Mg72 3.188655 1_555
Mg51 Mg89 3.197354 1_555
Mg51 Mg59 3.197414 1_555
Mg51 Mg60 3.197430 1_555
Mg51 Mg54 3.197451 1_555
Mg51 Mg53 3.197452 1_555
Mg51 Mg84 3.199335 1_555
Mg51 Mg85 3.199342 1_555
Mg52 Mg56 3.192721 1_555
Mg52 Mg55 3.192736 1_555
Mg52 Mg53 3.193762 1_555
Mg52 Mg54 3.193763 1_555
Mg52 Mg78 3.198193 1_555
Mg52 Mg77 3.198200 1_555
Mg52 Mg81 3.198992 1_555
Mg53 Mg58 3.192720 1_555
Mg53 Mg59 3.192728 1_555
Mg53 Mg54 3.193762 1_555
Mg53 Mg80 3.198193 1_555
Mg53 Mg84 3.198201 1_555
Mg53 Mg81 3.199000 1_555
Mg54 Mg60 3.192737 1_555
Mg54 Mg57 3.192752 1_555
Mg54 Mg79 3.198200 1_555
Mg54 Mg85 3.198201 1_555
Mg54 Mg81 3.198984 1_555
Mg55 Mg56 3.184418 1_555
Mg55 Mg98 3.187515 1_545
Mg55 Mg68 3.191346 1_555
Mg55 Mg94 3.193104 1_545
Mg55 Mg77 3.193603 1_555
Mg55 Mg63 3.195066 1_545
Mg55 Mg66 3.202717 1_545
Mg56 Mg98 3.187515 1_545
Mg56 Mg67 3.191370 1_555
Mg56 Mg95 3.193112 1_545
Mg56 Mg78 3.193603 1_555
Mg56 Mg63 3.195065 1_545
Mg56 Mg65 3.202734 1_545
Mg57 Mg60 3.184410 1_555
Mg57 Mg87 3.187508 1_555
Mg57 Mg70 3.191346 1_555
Mg57 Mg82 3.193104 1_555
Mg57 Mg79 3.193611 1_555
Mg57 Mg62 3.195050 1_555
Mg57 Mg64 3.202709 1_555
Mg58 Mg59 3.184404 1_555
Mg58 Mg86 3.187508 1_655
Mg58 Mg69 3.191363 1_555
Mg58 Mg83 3.193112 1_655
Mg58 Mg80 3.193602 1_555
Mg58 Mg61 3.195057 1_655
Mg58 Mg64 3.202725 1_655
Mg59 Mg86 3.187515 1_655
Mg59 Mg71 3.191363 1_555
Mg59 Mg91 3.193112 1_655
Mg59 Mg84 3.193602 1_555
Mg59 Mg61 3.195065 1_655
Mg59 Mg66 3.202725 1_655
Mg60 Mg87 3.187515 1_555
Mg60 Mg72 3.191362 1_555
Mg60 Mg90 3.193104 1_555
Mg60 Mg85 3.193603 1_555
Mg60 Mg62 3.195065 1_555
Mg60 Mg65 3.202718 1_555
Mg61 Mg88 3.189349 1_555
Mg61 Mg93 3.189365 1_555
Mg61 Mg86 3.190385 1_555
Mg61 Mg64 3.191759 1_555
Mg61 Mg66 3.191775 1_555
Mg61 Mg62 3.199729 1_555
Mg61 Mg63 3.199737 1_555
Mg62 Mg88 3.189356 1_555
Mg62 Mg92 3.189357 1_555
Mg62 Mg87 3.190385 1_555
Mg62 Mg64 3.191758 1_555
Mg62 Mg65 3.191782 1_555
Mg62 Mg63 3.199746 1_555
Mg63 Mg93 3.189356 1_555
Mg63 Mg92 3.189365 1_555
Mg63 Mg98 3.190385 1_555
Mg63 Mg66 3.191758 1_555
Mg63 Mg65 3.191790 1_555
Mg64 Mg88 3.186589 1_555
Mg64 Mg83 3.187325 1_555
Mg64 Mg82 3.187325 1_555
Mg64 Mg70 3.198068 1_555
Mg64 Mg69 3.198083 1_455
Mg65 Mg92 3.186597 1_555
Mg65 Mg90 3.187333 1_555
Mg65 Mg95 3.187333 1_555
Mg65 Mg72 3.198067 1_555
Mg65 Mg67 3.198067 1_565
Mg66 Mg93 3.186581 1_555
Mg66 Mg91 3.187325 1_555
Mg66 Mg94 3.187333 1_555
Mg66 Mg71 3.198083 1_455
Mg66 Mg68 3.198084 1_565
Mg67 Mg95 3.185558 1_545
Mg67 Mg75 3.188452 1_555
Mg67 Mg96 3.193285 1_545
Mg67 Mg69 3.204954 1_555
Mg67 Mg73 3.208739 1_655
Mg67 Mg72 3.212528 1_545
Mg68 Mg94 3.185558 1_545
Mg68 Mg76 3.188444 1_555
Mg68 Mg97 3.193293 1_545
Mg68 Mg70 3.204963 1_555
Mg68 Mg73 3.208747 1_555
Mg68 Mg71 3.212543 1_445
Mg69 Mg83 3.185566 1_655
Mg69 Mg75 3.188452 1_555
Mg69 Mg74 3.193285 1_655
Mg69 Mg73 3.208749 1_655
Mg69 Mg70 3.212535 1_655
Mg70 Mg82 3.185558 1_555
Mg70 Mg76 3.188460 1_555
Mg70 Mg74 3.193293 1_555
Mg70 Mg73 3.208755 1_555
Mg71 Mg91 3.185566 1_655
Mg71 Mg89 3.188452 1_555
Mg71 Mg97 3.193293 1_655
Mg71 Mg72 3.204946 1_555
Mg71 Mg73 3.208749 1_665
Mg72 Mg90 3.185558 1_555
Mg72 Mg89 3.188444 1_555
Mg72 Mg96 3.193285 1_555
Mg72 Mg73 3.208748 1_665
Mg73 Mg97 3.186452 1_545
Mg73 Mg96 3.186459 1_445
Mg73 Mg74 3.186460 1_555
Mg74 Mg99 3.186460 1_555
Mg74 Mg83 3.198546 1_555
Mg74 Mg82 3.198553 1_555
Mg74 Mg97 3.202549 1_545
Mg74 Mg96 3.202556 1_445
Mg74 Mg75 3.203067 1_455
Mg74 Mg76 3.203083 1_555
Mg75 Mg78 3.190516 1_555
Mg75 Mg80 3.190525 1_555
Mg75 Mg95 3.201999 1_545
Mg75 Mg83 3.202031 1_655
Mg75 Mg96 3.203076 1_545
Mg76 Mg77 3.190516 1_555
Mg76 Mg79 3.190524 1_555
Mg76 Mg94 3.202000 1_545
Mg76 Mg82 3.202032 1_555
Mg76 Mg97 3.203067 1_545
Mg77 Mg79 3.181598 1_555
Mg77 Mg81 3.189514 1_555
Mg77 Mg78 3.197439 1_555
Mg77 Mg98 3.202809 1_545
Mg77 Mg94 3.204988 1_545
Mg78 Mg80 3.181597 1_555
Mg78 Mg81 3.189523 1_555
Mg78 Mg98 3.202816 1_545
Mg78 Mg95 3.204989 1_545
Mg79 Mg81 3.189514 1_555
Mg79 Mg85 3.197439 1_555
Mg79 Mg87 3.202809 1_555
Mg79 Mg82 3.204996 1_555
Mg80 Mg81 3.189530 1_555
Mg80 Mg84 3.197441 1_555
Mg80 Mg86 3.202808 1_655
Mg80 Mg83 3.204996 1_655
Mg81 Mg85 3.189523 1_555
Mg81 Mg84 3.189530 1_555
Mg82 Mg87 3.192476 1_555
Mg82 Mg88 3.195597 1_555
Mg82 Mg83 3.195615 1_555
Mg83 Mg86 3.192477 1_555
Mg83 Mg88 3.195588 1_555
Mg84 Mg85 3.181597 1_555
Mg84 Mg89 3.190525 1_555
Mg84 Mg86 3.202816 1_655
Mg84 Mg91 3.204996 1_655
Mg85 Mg89 3.190516 1_555
Mg85 Mg87 3.202816 1_555
Mg85 Mg90 3.204973 1_555
Mg86 Mg91 3.192493 1_555
Mg86 Mg88 3.198689 1_555
Mg86 Mg93 3.198705 1_555
Mg87 Mg90 3.192492 1_555
Mg87 Mg92 3.198698 1_555
Mg87 Mg88 3.198705 1_555
Mg88 Mg92 3.189391 1_555
Mg88 Mg93 3.189400 1_555
Mg89 Mg90 3.201991 1_555
Mg89 Mg91 3.202031 1_655
Mg89 Mg96 3.203060 1_555
Mg89 Mg97 3.203075 1_655
Mg90 Mg92 3.195611 1_555
Mg90 Mg95 3.195648 1_555
Mg90 Mg96 3.198545 1_555
Mg91 Mg93 3.195580 1_555
Mg91 Mg94 3.195623 1_555
Mg91 Mg97 3.198562 1_555
Mg92 Mg93 3.189407 1_555
Mg92 Mg95 3.195611 1_555
Mg92 Mg98 3.198715 1_555
Mg93 Mg94 3.195597 1_555
Mg93 Mg98 3.198697 1_555
Mg94 Mg98 3.192484 1_555
Mg94 Mg97 3.198553 1_555
Mg95 Mg98 3.192500 1_555
Mg95 Mg96 3.198545 1_555
Mg96 Mg99 3.186459 1_665
Mg96 Mg97 3.202540 1_655
Mg97 Mg99 3.186452 1_565
Mg100 Mg125 3.145612 1_545
Mg100 Mg95 3.185558 1_545
Mg100 Mg75 3.188452 1_555
Mg100 Mg122 3.188671 1_555
Mg100 Mg113 3.191370 1_555
Mg100 Mg96 3.193285 1_545
Mg100 Mg107 3.198067 1_545
Mg100 Mg132 3.202891 1_545
Mg100 Mg102 3.204954 1_555
Mg100 Mg99 3.208739 1_655
Mg100 Mg105 3.212528 1_545
Mg100 Mg147 3.213053 1_555
Mg101 Mg126 3.145620 1_545
Mg101 Mg94 3.185558 1_545
Mg101 Mg76 3.188444 1_555
Mg101 Mg121 3.188638 1_555
Mg101 Mg112 3.191346 1_555
Mg101 Mg97 3.193293 1_545
Mg101 Mg108 3.198084 1_545
Mg101 Mg131 3.202891 1_545
Mg101 Mg103 3.204963 1_555
Mg101 Mg99 3.208747 1_555
Mg101 Mg104 3.212543 1_445
Mg101 Mg146 3.213045 1_555
Mg102 Mg124 3.145620 1_655
Mg102 Mg83 3.185566 1_655
Mg102 Mg75 3.188452 1_555
Mg102 Mg122 3.188646 1_555
Mg102 Mg115 3.191363 1_555
Mg102 Mg74 3.193285 1_655
Mg102 Mg106 3.198083 1_655
Mg102 Mg128 3.202899 1_655
Mg102 Mg99 3.208749 1_655
Mg102 Mg103 3.212535 1_655
Mg102 Mg147 3.213045 1_555
Mg103 Mg124 3.145619 1_555
Mg103 Mg82 3.185558 1_555
Mg103 Mg76 3.188460 1_555
Mg103 Mg121 3.188646 1_555
Mg103 Mg114 3.191346 1_555
Mg103 Mg74 3.193293 1_555
Mg103 Mg106 3.198068 1_555
Mg103 Mg127 3.202883 1_555
Mg103 Mg99 3.208755 1_555
Mg103 Mg146 3.213053 1_555
Mg104 Mg126 3.145620 1_655
Mg104 Mg91 3.185566 1_655
Mg104 Mg89 3.188452 1_555
Mg104 Mg123 3.188646 1_555
Mg104 Mg116 3.191363 1_555
Mg104 Mg97 3.193293 1_655
Mg104 Mg108 3.198083 1_655
Mg104 Mg130 3.202899 1_655
Mg104 Mg105 3.204946 1_555
Mg104 Mg99 3.208749 1_665
Mg104 Mg148 3.213045 1_555
Mg105 Mg125 3.145620 1_555
Mg105 Mg90 3.185558 1_555
Mg105 Mg89 3.188444 1_555
Mg105 Mg123 3.188655 1_555
Mg105 Mg117 3.191362 1_555
Mg105 Mg96 3.193285 1_555
Mg105 Mg107 3.198067 1_555
Mg105 Mg129 3.202891 1_555
Mg105 Mg99 3.208748 1_665
Mg105 Mg148 3.213045 1_555
Mg106 Mg128 3.184948 1_555
Mg106 Mg127 3.184956 1_555
Mg106 Mg88 3.186589 1_555
Mg106 Mg83 3.187325 1_555
Mg106 Mg82 3.187325 1_555
Mg106 Mg110 3.191758 1_555
Mg106 Mg109 3.191759 1_555
Mg106 Mg133 3.198695 1_555
Mg106 Mg114 3.202709 1_555
Mg106 Mg115 3.202725 1_455
Mg107 Mg129 3.184948 1_555
Mg107 Mg132 3.184956 1_555
Mg107 Mg92 3.186597 1_555
Mg107 Mg90 3.187333 1_555
Mg107 Mg95 3.187333 1_555
Mg107 Mg110 3.191782 1_555
Mg107 Mg111 3.191790 1_555
Mg107 Mg134 3.198695 1_555
Mg107 Mg117 3.202718 1_555
Mg107 Mg113 3.202734 1_565
Mg108 Mg130 3.184948 1_555
Mg108 Mg131 3.184956 1_555
Mg108 Mg93 3.186581 1_555
Mg108 Mg91 3.187325 1_555
Mg108 Mg94 3.187333 1_555
Mg108 Mg111 3.191758 1_555
Mg108 Mg109 3.191775 1_555
Mg108 Mg135 3.198695 1_555
Mg108 Mg112 3.202717 1_565
Mg108 Mg116 3.202725 1_455
Mg109 Mg88 3.189349 1_555
Mg109 Mg93 3.189365 1_555
Mg109 Mg86 3.190385 1_555
Mg109 Mg133 3.190888 1_555
Mg109 Mg135 3.190896 1_555
Mg109 Mg136 3.192349 1_555
Mg109 Mg115 3.195057 1_455
Mg109 Mg116 3.195065 1_455
Mg109 Mg110 3.199729 1_555
Mg109 Mg111 3.199737 1_555
Mg110 Mg88 3.189356 1_555
Mg110 Mg92 3.189357 1_555
Mg110 Mg87 3.190385 1_555
Mg110 Mg133 3.190888 1_555
Mg110 Mg134 3.190896 1_555
Mg110 Mg137 3.192349 1_555
Mg110 Mg114 3.195050 1_555
Mg110 Mg117 3.195065 1_555
Mg110 Mg111 3.199746 1_555
Mg111 Mg93 3.189356 1_555
Mg111 Mg92 3.189365 1_555
Mg111 Mg98 3.190385 1_555
Mg111 Mg135 3.190888 1_555
Mg111 Mg134 3.190904 1_555
Mg111 Mg138 3.192349 1_555
Mg111 Mg113 3.195065 1_565
Mg111 Mg112 3.195066 1_565
Mg112 Mg131 3.184048 1_545
Mg112 Mg113 3.184418 1_555
Mg112 Mg98 3.187515 1_545
Mg112 Mg138 3.191392 1_545
Mg112 Mg118 3.192736 1_555
Mg112 Mg94 3.193104 1_545
Mg112 Mg77 3.193603 1_555
Mg112 Mg121 3.197415 1_555
Mg112 Mg139 3.199493 1_555
Mg113 Mg132 3.184057 1_545
Mg113 Mg98 3.187515 1_545
Mg113 Mg138 3.191384 1_545
Mg113 Mg118 3.192721 1_555
Mg113 Mg95 3.193112 1_545
Mg113 Mg78 3.193603 1_555
Mg113 Mg122 3.197430 1_555
Mg113 Mg140 3.199493 1_555
Mg114 Mg127 3.184048 1_555
Mg114 Mg117 3.184410 1_555
Mg114 Mg87 3.187508 1_555
Mg114 Mg137 3.191384 1_555
Mg114 Mg120 3.192752 1_555
Mg114 Mg82 3.193104 1_555
Mg114 Mg79 3.193611 1_555
Mg114 Mg121 3.197431 1_555
Mg114 Mg141 3.199501 1_555
Mg115 Mg128 3.184057 1_655
Mg115 Mg116 3.184404 1_555
Mg115 Mg86 3.187508 1_655
Mg115 Mg136 3.191385 1_655
Mg115 Mg119 3.192720 1_555
Mg115 Mg83 3.193112 1_655
Mg115 Mg80 3.193602 1_555
Mg115 Mg122 3.197414 1_555
Mg115 Mg142 3.199493 1_555
Mg116 Mg130 3.184057 1_655
Mg116 Mg86 3.187515 1_655
Mg116 Mg136 3.191385 1_655
Mg116 Mg119 3.192728 1_555
Mg116 Mg91 3.193112 1_655
Mg116 Mg84 3.193602 1_555
Mg116 Mg123 3.197414 1_555
Mg116 Mg144 3.199493 1_555
Mg117 Mg129 3.184057 1_555
Mg117 Mg87 3.187515 1_555
Mg117 Mg137 3.191384 1_555
Mg117 Mg120 3.192737 1_555
Mg117 Mg90 3.193104 1_555
Mg117 Mg85 3.193603 1_555
Mg117 Mg123 3.197430 1_555
Mg117 Mg143 3.199493 1_555
Mg118 Mg119 3.193762 1_555
Mg118 Mg120 3.193763 1_555
Mg118 Mg145 3.196262 1_555
Mg118 Mg122 3.197443 1_555
Mg118 Mg121 3.197467 1_555
Mg118 Mg78 3.198193 1_555
Mg118 Mg77 3.198200 1_555
Mg118 Mg81 3.198992 1_555
Mg118 Mg140 3.200410 1_555
Mg118 Mg139 3.200418 1_555
Mg119 Mg120 3.193762 1_555
Mg119 Mg145 3.196270 1_555
Mg119 Mg122 3.197436 1_555
Mg119 Mg123 3.197452 1_555
Mg119 Mg80 3.198193 1_555
Mg119 Mg84 3.198201 1_555
Mg119 Mg81 3.199000 1_555
Mg119 Mg142 3.200410 1_555
Mg119 Mg144 3.200419 1_555
Mg120 Mg145 3.196254 1_555
Mg120 Mg123 3.197451 1_555
Mg120 Mg121 3.197459 1_555
Mg120 Mg79 3.198200 1_555
Mg120 Mg85 3.198201 1_555
Mg120 Mg81 3.198984 1_555
Mg120 Mg141 3.200418 1_555
Mg120 Mg143 3.200419 1_555
Mg121 Mg141 3.188215 1_555
Mg121 Mg139 3.188215 1_555
Mg121 Mg76 3.197333 1_555
Mg121 Mg79 3.199330 1_555
Mg121 Mg77 3.199330 1_555
Mg121 Mg146 3.228384 1_555
Mg122 Mg142 3.188207 1_555
Mg122 Mg140 3.188214 1_555
Mg122 Mg75 3.197342 1_555
Mg122 Mg80 3.199322 1_555
Mg122 Mg78 3.199329 1_555
Mg122 Mg147 3.228392 1_555
Mg123 Mg144 3.188207 1_555
Mg123 Mg143 3.188214 1_555
Mg123 Mg89 3.197341 1_555
Mg123 Mg84 3.199322 1_555
Mg123 Mg85 3.199329 1_555
Mg123 Mg148 3.228392 1_555
Mg124 Mg146 3.169820 1_555
Mg124 Mg147 3.169820 1_455
Mg124 Mg127 3.181846 1_555
Mg124 Mg128 3.181855 1_555
Mg124 Mg99 3.183509 1_555
Mg124 Mg4 3.266131 1_556
Mg124 Mg3 3.266131 1_556
Mg124 Mg125 3.278744 1_445
Mg124 Mg126 3.278745 1_545
Mg125 Mg148 3.169821 1_555
Mg125 Mg147 3.169821 1_565
Mg125 Mg129 3.181846 1_555
Mg125 Mg132 3.181846 1_555
Mg125 Mg99 3.183509 1_665
Mg125 Mg20 3.266123 1_556
Mg125 Mg15 3.266131 1_556
Mg125 Mg126 3.278744 1_655
Mg126 Mg148 3.169820 1_455
Mg126 Mg146 3.169820 1_565
Mg126 Mg131 3.181846 1_555
Mg126 Mg130 3.181855 1_555
Mg126 Mg99 3.183509 1_565
Mg126 Mg21 3.266131 1_556
Mg126 Mg16 3.266131 1_556
Mg127 Mg137 3.171492 1_555
Mg127 Mg4 3.176498 1_556
Mg127 Mg133 3.180984 1_555
Mg127 Mg141 3.188422 1_555
Mg127 Mg128 3.197713 1_555
Mg127 Mg8 3.207830 1_556
Mg127 Mg9 3.214242 1_556
Mg127 Mg146 3.222594 1_555
Mg128 Mg136 3.171486 1_555
Mg128 Mg3 3.176506 1_556
Mg128 Mg133 3.180967 1_555
Mg128 Mg142 3.188431 1_455
Mg128 Mg7 3.207822 1_556
Mg128 Mg9 3.214234 1_556
Mg128 Mg147 3.222609 1_455
Mg129 Mg137 3.171493 1_555
Mg129 Mg15 3.176498 1_556
Mg129 Mg134 3.180967 1_555
Mg129 Mg143 3.188424 1_555
Mg129 Mg132 3.197722 1_555
Mg129 Mg17 3.214242 1_556
Mg129 Mg148 3.222593 1_555
Mg130 Mg136 3.171486 1_555
Mg130 Mg16 3.176506 1_556
Mg130 Mg135 3.180967 1_555
Mg130 Mg144 3.188431 1_455
Mg130 Mg131 3.197713 1_555
Mg130 Mg18 3.214234 1_556
Mg130 Mg148 3.222609 1_455
Mg131 Mg138 3.171492 1_555
Mg131 Mg21 3.176498 1_556
Mg131 Mg135 3.180985 1_555
Mg131 Mg139 3.188422 1_565
Mg131 Mg22 3.207830 1_556
Mg131 Mg18 3.214242 1_556
Mg131 Mg146 3.222594 1_565
Mg132 Mg138 3.171493 1_555
Mg132 Mg20 3.176498 1_556
Mg132 Mg134 3.180975 1_555
Mg132 Mg140 3.188424 1_565
Mg132 Mg23 3.207822 1_556
Mg132 Mg17 3.214242 1_556
Mg132 Mg147 3.222593 1_565
Mg133 Mg135 3.178711 1_555
Mg133 Mg134 3.178718 1_555
Mg133 Mg9 3.186424 1_556
Mg133 Mg137 3.196404 1_555
Mg133 Mg136 3.196404 1_555
Mg133 Mg14 3.199899 1_556
Mg134 Mg135 3.178725 1_555
Mg134 Mg17 3.186415 1_556
Mg134 Mg137 3.196397 1_555
Mg134 Mg138 3.196413 1_555
Mg134 Mg14 3.199891 1_556
Mg134 Mg19 3.199899 1_556
Mg135 Mg18 3.186424 1_556
Mg135 Mg136 3.196404 1_555
Mg135 Mg138 3.196404 1_555
Mg135 Mg19 3.199899 1_556
Mg136 Mg7 3.196831 1_556
Mg136 Mg144 3.199252 1_455
Mg136 Mg142 3.199252 1_455
Mg137 Mg8 3.196823 1_556
Mg137 Mg143 3.199252 1_555
Mg137 Mg141 3.199253 1_555
Mg137 Mg14 3.209354 1_556
Mg138 Mg22 3.196823 1_556
Mg138 Mg23 3.196831 1_556
Mg138 Mg140 3.199252 1_565
Mg138 Mg139 3.199253 1_565
Mg138 Mg19 3.209354 1_556
Mg139 Mg141 3.193414 1_555
Mg139 Mg22 3.194918 1_546
Mg139 Mg145 3.205281 1_555
Mg139 Mg146 3.215852 1_555
Mg139 Mg140 3.217144 1_555
Mg140 Mg2 3.187419 1_556
Mg140 Mg142 3.193412 1_555
Mg140 Mg23 3.194918 1_546
Mg140 Mg145 3.205290 1_555
Mg140 Mg147 3.215852 1_555
Mg141 Mg8 3.194918 1_556
Mg141 Mg5 3.202408 1_556
Mg141 Mg145 3.205281 1_555
Mg141 Mg146 3.215852 1_555
Mg141 Mg143 3.217144 1_555
Mg142 Mg2 3.187419 1_556
Mg142 Mg7 3.194918 1_656
Mg142 Mg6 3.202409 1_556
Mg142 Mg145 3.205297 1_555
Mg142 Mg147 3.215854 1_555
Mg142 Mg144 3.217145 1_555
Mg143 Mg144 3.193412 1_555
Mg143 Mg5 3.202409 1_556
Mg143 Mg145 3.205290 1_555
Mg143 Mg148 3.215852 1_555
Mg144 Mg6 3.202409 1_556
Mg144 Mg145 3.205297 1_555
Mg144 Mg148 3.215854 1_555
Mg145 Mg5 3.189113 1_556
Mg145 Mg6 3.189121 1_556
Mg146 Mg21 3.189965 1_546
Mg146 Mg4 3.189965 1_556
Mg147 Mg3 3.189964 1_656
Mg147 Mg20 3.189972 1_546
Mg147 Mg2 3.204880 1_556
Mg148 Mg16 3.189964 1_656
Mg148 Mg15 3.189965 1_556
