# generated using pymatgen
data_Li4Ti2Co7O18
_symmetry_space_group_name_H-M   'P 1'
_cell_length_a   2.89461700
_cell_length_b   8.77486400
_cell_length_c   25.05858335
_cell_angle_alpha   89.88514123
_cell_angle_beta   90.00000000
_cell_angle_gamma   90.00000000
_symmetry_Int_Tables_number   1
_chemical_formula_structural   Li4Ti2Co7O18
_chemical_formula_sum   'Li8 Ti4 Co14 O36'
_cell_volume   636.48349330
_cell_formula_units_Z   2
loop_
 _symmetry_equiv_pos_site_id
 _symmetry_equiv_pos_as_xyz
  1  'x, y, z'
loop_
 _atom_site_type_symbol
 _atom_site_label
 _atom_site_symmetry_multiplicity
 _atom_site_fract_x
 _atom_site_fract_y
 _atom_site_fract_z
 _atom_site_occupancy
  Li  Li0  1  0.50000000  0.80575600  0.01327000  1
  Li  Li1  1  0.50000000  0.82725500  0.78989900  1
  Li  Li2  1  0.50000000  0.68387500  0.29188300  1
  Li  Li3  1  0.50000000  0.69034900  0.51064000  1
  Li  Li4  1  0.50000000  0.30915000  0.49186500  1
  Li  Li5  1  0.50000000  0.31552400  0.70673900  1
  Li  Li6  1  0.50000000  0.17912800  0.20905600  1
  Li  Li7  1  0.50000000  0.19101000  0.98988200  1
  Ti  Ti0  1  0.50000000  0.00241700  0.89474700  1
  Ti  Ti1  1  0.50000000  0.49975100  0.39240400  1
  Ti  Ti2  1  0.50000000  0.50180700  0.60527600  1
  Ti  Ti3  1  0.50000000  0.99834300  0.10678700  1
  Co  Co0  1  0.50000000  0.00020300  0.49957600  1
  Co  Co1  1  0.50000000  0.97852300  0.69262300  1
  Co  Co2  1  0.00000000  0.85732800  0.41107100  1
  Co  Co3  1  0.00000000  0.84827200  0.19717300  1
  Co  Co4  1  0.00000000  0.65175900  0.69695000  1
  Co  Co5  1  0.00000000  0.64047700  0.91301500  1
  Co  Co6  1  0.50000000  0.53150200  0.19257200  1
  Co  Co7  1  0.50000000  0.50027300  0.00013600  1
  Co  Co8  1  0.50000000  0.47287600  0.80768300  1
  Co  Co9  1  0.00000000  0.36047300  0.08764000  1
  Co  Co10  1  0.00000000  0.34818100  0.30328000  1
  Co  Co11  1  0.00000000  0.15519100  0.80448400  1
  Co  Co12  1  0.00000000  0.13590700  0.58724700  1
  Co  Co13  1  0.50000000  0.02128500  0.31051800  1
  O  O0  1  0.50000000  0.98542200  0.57492700  1
  O  O1  1  0.50000000  0.99346200  0.41929100  1
  O  O2  1  0.00000000  0.93756300  0.06182100  1
  O  O3  1  0.00000000  0.95943600  0.83648800  1
  O  O4  1  0.00000000  0.89893700  0.33807700  1
  O  O5  1  0.50000000  0.89042000  0.24294500  1
  O  O6  1  0.00000000  0.83987600  0.48589900  1
  O  O7  1  0.00000000  0.85618100  0.72059900  1
  O  O8  1  0.50000000  0.80025900  0.15029300  1
  O  O9  1  0.50000000  0.79409400  0.90898700  1
  O  O10  1  0.50000000  0.71573800  0.40690400  1
  O  O11  1  0.50000000  0.69609900  0.65023100  1
  O  O12  1  0.00000000  0.64699200  0.22406700  1
  O  O13  1  0.00000000  0.65852700  0.99169900  1
  O  O14  1  0.50000000  0.61082400  0.74393500  1
  O  O15  1  0.00000000  0.57900400  0.84016500  1
  O  O16  1  0.00000000  0.54476400  0.33551100  1
  O  O17  1  0.00000000  0.56474300  0.56043100  1
  O  O18  1  0.50000000  0.48432400  0.92983900  1
  O  O19  1  0.50000000  0.51451900  0.07140000  1
  O  O20  1  0.00000000  0.44797600  0.43849500  1
  O  O21  1  0.00000000  0.45754700  0.66323300  1
  O  O22  1  0.00000000  0.41991100  0.16016200  1
  O  O23  1  0.50000000  0.38302000  0.25642500  1
  O  O24  1  0.00000000  0.34076600  0.00996600  1
  O  O25  1  0.00000000  0.35559300  0.77655000  1
  O  O26  1  0.50000000  0.30593600  0.35130500  1
  O  O27  1  0.50000000  0.29496000  0.58718800  1
  O  O28  1  0.50000000  0.20650300  0.09185400  1
  O  O29  1  0.50000000  0.20311300  0.85138100  1
  O  O30  1  0.00000000  0.14344600  0.28224000  1
  O  O31  1  0.00000000  0.15355900  0.50388900  1
  O  O32  1  0.50000000  0.11007800  0.75833400  1
  O  O33  1  0.00000000  0.09453200  0.66430600  1
  O  O34  1  0.00000000  0.04367400  0.16481500  1
  O  O35  1  0.00000000  0.06158300  0.93993400  1
loop_
_geom_bond_atom_site_label_1
_geom_bond_atom_site_label_2
_geom_bond_distance
_geom_bond_site_symmetry_2
Li0 O13 2.014628 1_554
Li0 O13 2.014628 1_654
Li0 O2 2.217702 1_655
Li0 O2 2.217702 1_555
Li1 O3 2.192802 1_655
Li1 O3 2.192802 1_555
Li1 O14 2.223101 1_555
Li1 O7 2.274423 1_655
Li1 O7 2.274423 1_555
Li2 O16 2.185090 1_555
Li2 O16 2.185090 1_655
Li2 O5 2.186264 1_555
Li2 O12 2.255996 1_655
Li2 O12 2.255996 1_555
Li3 O6 2.048746 1_555
Li3 O6 2.048746 1_655
Li3 O17 2.204703 1_655
Li3 O17 2.204703 1_555
Li4 O31 2.011928 1_555
Li4 O31 2.011928 1_655
Li4 O20 2.315320 1_555
Li4 O20 2.315320 1_655
Li4 O27 2.391653 1_555
Li5 O21 2.197927 1_655
Li5 O21 2.197927 1_555
Li5 O32 2.216345 1_555
Li5 O25 2.298057 1_555
Li5 O25 2.298057 1_655
Li6 O23 2.149058 1_555
Li6 O34 2.177559 1_555
Li6 O34 2.177559 1_655
Li6 O30 2.356603 1_555
Li6 O30 2.356603 1_655
Li7 O24 2.019274 1_656
Li7 O24 2.019274 1_556
Li7 O35 2.226386 1_655
Li7 O35 2.226386 1_555
Li7 O28 2.559160 1_556
Co0 O0 1.892379 1_545
Co0 O31 1.979347 1_555
Co0 O31 1.979347 1_655
Co0 O1 2.012816 1_545
Co0 O6 2.047759 1_545
Co0 O6 2.047759 1_645
Co1 O33 1.905666 1_565
Co1 O33 1.905666 1_665
Co1 O7 1.932774 1_555
Co1 O7 1.932774 1_655
Co1 O32 2.012854 1_565
Co2 O4 1.864493 1_555
Co2 O6 1.881021 1_555
Co2 O1 1.888143 1_455
Co2 O1 1.888143 1_555
Co2 O10 1.910436 1_555
Co2 O10 1.910436 1_455
Co3 O5 1.883813 1_555
Co3 O5 1.883813 1_455
Co3 O12 1.889149 1_555
Co3 O34 1.895215 1_565
Co3 O8 1.911600 1_455
Co3 O8 1.911600 1_555
Co4 O7 1.890259 1_555
Co4 O14 1.899539 1_455
Co4 O14 1.899539 1_555
Co4 O11 1.901269 1_555
Co4 O11 1.901269 1_455
Co4 O21 1.903647 1_555
Co5 O15 1.904582 1_555
Co5 O13 1.978377 1_555
Co5 O9 1.980243 1_555
Co5 O9 1.980243 1_455
Co5 O18 2.036572 1_455
Co5 O18 2.036572 1_555
Co6 O22 1.927771 1_655
Co6 O22 1.927771 1_555
Co6 O12 1.935917 1_655
Co6 O12 1.935917 1_555
Co6 O23 2.061413 1_555
Co6 O8 2.583414 1_555
Co7 O18 1.767373 1_554
Co7 O19 1.790395 1_555
Co7 O13 2.016579 1_654
Co7 O13 2.016579 1_554
Co7 O24 2.028059 1_555
Co7 O24 2.028059 1_655
Co8 O15 1.904601 1_555
Co8 O15 1.904601 1_655
Co8 O25 1.940538 1_555
Co8 O25 1.940538 1_655
Co8 O14 2.002322 1_555
Co9 O22 1.891666 1_555
Co9 O24 1.954412 1_555
Co9 O28 1.982589 1_555
Co9 O28 1.982589 1_455
Co9 O19 2.021209 1_555
Co9 O19 2.021209 1_455
Co10 O30 1.873303 1_555
Co10 O23 1.888194 1_455
Co10 O23 1.888194 1_555
Co10 O16 1.906172 1_555
Co10 O26 1.917965 1_455
Co10 O26 1.917965 1_555
Co11 O25 1.891393 1_555
Co11 O3 1.894258 1_545
Co11 O32 1.894895 1_455
Co11 O32 1.894895 1_555
Co11 O29 1.911685 1_455
Co11 O29 1.911685 1_555
Co12 O33 1.964108 1_555
Co12 O0 1.983766 1_545
Co12 O0 1.983766 1_445
Co12 O27 2.010618 1_455
Co12 O27 2.010618 1_555
Co12 O31 2.094259 1_555
Co13 O4 1.929050 1_545
Co13 O4 1.929050 1_645
Co13 O30 1.934644 1_555
Co13 O30 1.934644 1_655
Co13 O5 2.047840 1_545
O2 Ti3 1.910812 1_555
O2 Ti3 1.910812 1_455
O3 Ti0 2.090556 1_465
O3 Ti0 2.090556 1_565
O8 Ti3 2.049911 1_555
O9 Ti0 1.861806 1_565
O10 Ti1 1.930487 1_555
O11 Ti2 2.045326 1_555
O16 Ti1 2.069047 1_555
O16 Ti1 2.069047 1_455
O17 Ti2 1.913117 1_555
O17 Ti2 1.913117 1_455
O20 Ti1 1.906035 1_555
O20 Ti1 1.906035 1_455
O21 Ti2 2.086267 1_455
O21 Ti2 2.086267 1_555
O26 Ti1 1.989991 1_555
O27 Ti2 1.871674 1_555
O28 Ti3 1.863777 1_545
O29 Ti0 2.067517 1_555
O34 Ti3 2.090371 1_445
O34 Ti3 2.090371 1_545
O35 Ti0 1.910171 1_455
O35 Ti0 1.910171 1_555
