# generated using pymatgen
data_MgCr2O4
_symmetry_space_group_name_H-M   'P 1'
_cell_length_a   5.05272773
_cell_length_b   5.05272773
_cell_length_c   9.82916900
_cell_angle_alpha   90.00000000
_cell_angle_beta   90.00000000
_cell_angle_gamma   146.33354243
_symmetry_Int_Tables_number   1
_chemical_formula_structural   MgCr2O4
_chemical_formula_sum   'Mg2 Cr4 O8'
_cell_volume   139.11000140
_cell_formula_units_Z   2
loop_
 _symmetry_equiv_pos_site_id
 _symmetry_equiv_pos_as_xyz
  1  'x, y, z'
loop_
 _atom_site_type_symbol
 _atom_site_label
 _atom_site_symmetry_multiplicity
 _atom_site_fract_x
 _atom_site_fract_y
 _atom_site_fract_z
 _atom_site_occupancy
  Mg  Mg0  1  0.60918200  0.39081800  0.75000000  1
  Mg  Mg1  1  0.39081800  0.60918200  0.25000000  1
  Cr  Cr0  1  0.13319100  0.86680900  0.07170400  1
  Cr  Cr1  1  0.86680900  0.13319100  0.92829600  1
  Cr  Cr2  1  0.13319100  0.86680900  0.42829600  1
  Cr  Cr3  1  0.86680900  0.13319100  0.57170400  1
  O  O0  1  0.77028400  0.22971600  0.38636300  1
  O  O1  1  0.22971600  0.77028400  0.61363700  1
  O  O2  1  0.22971600  0.77028400  0.88636300  1
  O  O3  1  0.77028400  0.22971600  0.11363700  1
  O  O4  1  0.03666300  0.96333700  0.25000000  1
  O  O5  1  0.96333700  0.03666300  0.75000000  1
  O  O6  1  0.50000000  0.50000000  0.00000000  1
  O  O7  1  0.50000000  0.50000000  0.50000000  1
loop_
_geom_bond_atom_site_label_1
_geom_bond_atom_site_label_2
_geom_bond_distance
_geom_bond_site_symmetry_2
Mg0 O5 2.032482 1_565
Mg0 O5 2.032482 1_455
Mg0 O2 2.301454 1_655
Mg0 O2 2.301454 1_545
Mg0 O1 2.301454 1_655
Mg0 O1 2.301454 1_545
Mg1 O4 2.032482 1_655
Mg1 O4 2.032482 1_545
Mg1 O3 2.301454 1_565
Mg1 O0 2.301454 1_565
Mg1 O3 2.301454 1_455
Mg1 O0 2.301454 1_455
Cr0 O4 1.985696 1_555
Cr0 O3 2.017224 1_455
Cr0 O3 2.017224 1_565
Cr0 O2 2.047056 1_554
Cr0 O6 2.073010 1_565
Cr0 O6 2.073010 1_455
Cr1 O5 1.985696 1_555
Cr1 O2 2.017224 1_655
Cr1 O2 2.017224 1_545
Cr1 O3 2.047056 1_556
Cr1 O6 2.073010 1_656
Cr1 O6 2.073010 1_546
Cr2 O4 1.985696 1_555
Cr2 O0 2.017224 1_455
Cr2 O0 2.017224 1_565
Cr2 O1 2.047056 1_555
Cr2 O7 2.073010 1_565
Cr2 O7 2.073010 1_455
Cr3 O5 1.985696 1_555
Cr3 O1 2.017224 1_655
Cr3 O1 2.017224 1_545
Cr3 O0 2.047056 1_555
Cr3 O7 2.073010 1_655
Cr3 O7 2.073010 1_545
