# generated using pymatgen
data_USiSe
_symmetry_space_group_name_H-M   'P 1'
_cell_length_a   8.73914415
_cell_length_b   8.73914415
_cell_length_c   8.73914415
_cell_angle_alpha   154.31997635
_cell_angle_beta   154.31997635
_cell_angle_gamma   36.63469140
_symmetry_Int_Tables_number   1
_chemical_formula_structural   USiSe
_chemical_formula_sum   'U2 Si2 Se2'
_cell_volume   125.16624163
_cell_formula_units_Z   2
loop_
 _symmetry_equiv_pos_site_id
 _symmetry_equiv_pos_as_xyz
  1  'x, y, z'
loop_
 _atom_site_type_symbol
 _atom_site_label
 _atom_site_symmetry_multiplicity
 _atom_site_fract_x
 _atom_site_fract_y
 _atom_site_fract_z
 _atom_site_occupancy
  U  U0  1  0.86791600  0.86791600  0.00000000  1
  U  U1  1  0.13208400  0.13208400  0.00000000  1
  Si  Si0  1  0.00000000  0.50000000  0.50000000  1
  Si  Si1  1  0.50000000  0.00000000  0.50000000  1
  Se  Se0  1  0.68408100  0.68408100  0.00000000  1
  Se  Se1  1  0.31591900  0.31591900  0.00000000  1
loop_
_geom_bond_atom_site_label_1
_geom_bond_atom_site_label_2
_geom_bond_distance
_geom_bond_site_symmetry_2
Si0 Si1 2.746537 1_566
Si0 Si1 2.746537 1_454
Si0 Si1 2.746537 1_465
Si0 Si1 2.746537 1_555
Si0 U0 2.928303 1_445
Si0 U0 2.928303 1_456
Si0 U1 2.928303 1_555
Si0 U1 2.928303 1_566
Si1 U0 2.928303 1_546
Si1 U1 2.928303 1_555
Si1 U0 2.928303 1_445
Si1 U1 2.928303 1_656
Se0 U1 2.878860 1_666
Se0 U1 2.878860 1_565
Se0 U1 2.878860 1_655
Se0 U1 2.878860 1_554
Se0 U0 3.050313 1_555
Se1 U0 2.878860 1_444
Se1 U0 2.878860 1_455
Se1 U0 2.878860 1_556
Se1 U0 2.878860 1_545
Se1 U1 3.050313 1_555
