# generated using pymatgen
data_KAuC2N2Cl2O
_symmetry_space_group_name_H-M   'P 1'
_cell_length_a   6.29465557
_cell_length_b   8.12949900
_cell_length_c   9.60724115
_cell_angle_alpha   115.02996687
_cell_angle_beta   102.60547192
_cell_angle_gamma   90.00000000
_symmetry_Int_Tables_number   1
_chemical_formula_structural   KAuC2N2Cl2O
_chemical_formula_sum   'K2 Au2 C4 N4 Cl4 O2'
_cell_volume   432.34150892
_cell_formula_units_Z   2
loop_
 _symmetry_equiv_pos_site_id
 _symmetry_equiv_pos_as_xyz
  1  'x, y, z'
loop_
 _atom_site_type_symbol
 _atom_site_label
 _atom_site_symmetry_multiplicity
 _atom_site_fract_x
 _atom_site_fract_y
 _atom_site_fract_z
 _atom_site_occupancy
  K  K0  1  0.25000000  0.32363600  0.00000000  1
  K  K1  1  0.75000000  0.67636400  0.00000000  1
  Au  Au0  1  0.00000000  0.50000000  0.50000000  1
  Au  Au1  1  0.50000000  0.00000000  0.50000000  1
  C  C0  1  0.80886300  0.47872700  0.29574400  1
  C  C1  1  0.69113700  0.18298300  0.70425600  1
  C  C2  1  0.19113700  0.52127300  0.70425600  1
  C  C3  1  0.30886300  0.81701700  0.29574400  1
  N  N0  1  0.69433300  0.46930000  0.17853400  1
  N  N1  1  0.80566700  0.29076600  0.82146600  1
  N  N2  1  0.30566700  0.53070000  0.82146600  1
  N  N3  1  0.19433300  0.70923400  0.17853400  1
  Cl  Cl0  1  0.24024500  0.32688000  0.35838100  1
  Cl  Cl1  1  0.25975500  0.96849900  0.64161900  1
  Cl  Cl2  1  0.75975500  0.67312000  0.64161900  1
  Cl  Cl3  1  0.74024500  0.03150100  0.35838100  1
  O  O0  1  0.50000000  0.00000000  0.00000000  1
  O  O1  1  0.00000000  0.00000000  0.00000000  1
loop_
_geom_bond_atom_site_label_1
_geom_bond_atom_site_label_2
_geom_bond_distance
_geom_bond_site_symmetry_2
K0 N1 2.890401 1_454
K0 N0 2.890401 1_555
K0 N2 2.933231 1_554
K0 N3 2.933231 1_555
K0 O0 3.065709 1_555
K0 O1 3.065709 1_555
K1 N3 2.890401 1_655
K1 N2 2.890401 1_554
K1 N0 2.933231 1_555
K1 N1 2.933231 1_554
K1 O1 3.065709 1_665
K1 O0 3.065709 1_565
Au0 C2 2.002638 1_555
Au0 C0 2.002638 1_455
Au0 Cl0 2.323046 1_555
Au0 Cl2 2.323046 1_455
Au1 C3 2.002638 1_545
Au1 C1 2.002638 1_555
Au1 Cl3 2.323046 1_555
Au1 Cl1 2.323046 1_545
C0 N0 1.168877 1_555
C1 N1 1.168877 1_555
C2 N2 1.168877 1_555
C3 N3 1.168877 1_555
Cl0 K0 3.445943 1_555
Cl1 K0 3.445943 1_566
Cl2 K1 3.445943 1_556
Cl3 K1 3.445943 1_545
