# generated using pymatgen
data_Nd2Ge3Rh
_symmetry_space_group_name_H-M   'P 1'
_cell_length_a   4.18022700
_cell_length_b   4.31445800
_cell_length_c   7.40423500
_cell_angle_alpha   90.00000000
_cell_angle_beta   90.00000000
_cell_angle_gamma   90.00000000
_symmetry_Int_Tables_number   1
_chemical_formula_structural   Nd2Ge3Rh
_chemical_formula_sum   'Nd2 Ge3 Rh1'
_cell_volume   133.53844226
_cell_formula_units_Z   1
loop_
 _symmetry_equiv_pos_site_id
 _symmetry_equiv_pos_as_xyz
  1  'x, y, z'
loop_
 _atom_site_type_symbol
 _atom_site_label
 _atom_site_symmetry_multiplicity
 _atom_site_fract_x
 _atom_site_fract_y
 _atom_site_fract_z
 _atom_site_occupancy
  Nd  Nd0  1  0.50000000  0.50000000  0.00690400  1
  Nd  Nd1  1  0.50000000  0.00000000  0.49499200  1
  Ge  Ge0  1  0.00000000  0.00000000  0.83696600  1
  Ge  Ge1  1  0.00000000  0.00000000  0.17498300  1
  Ge  Ge2  1  0.00000000  0.50000000  0.65768700  1
  Rh  Rh0  1  0.00000000  0.50000000  0.32846800  1
loop_
_geom_bond_atom_site_label_1
_geom_bond_atom_site_label_2
_geom_bond_distance
_geom_bond_site_symmetry_2
Nd0 Rh0 3.168190 1_655
Nd0 Rh0 3.168190 1_555
Nd1 Rh0 3.246915 1_555
Nd1 Rh0 3.246915 1_645
Nd1 Rh0 3.246915 1_655
Nd1 Rh0 3.246915 1_545
Ge0 Ge1 2.502757 1_556
Ge0 Ge2 2.532921 1_545
Ge0 Ge2 2.532921 1_555
Ge0 Nd0 3.256598 1_446
Ge0 Nd0 3.256598 1_556
Ge0 Nd0 3.256598 1_546
Ge0 Nd0 3.256598 1_456
Ge0 Nd1 3.283273 1_555
Ge0 Nd1 3.283273 1_455
Ge1 Rh0 2.438264 1_545
Ge1 Rh0 2.438264 1_555
Ge1 Nd1 3.159547 1_555
Ge1 Nd1 3.159547 1_455
Ge1 Nd0 3.251305 1_455
Ge1 Nd0 3.251305 1_555
Ge1 Nd0 3.251305 1_445
Ge1 Nd0 3.251305 1_545
Ge2 Rh0 2.437615 1_555
Ge2 Nd1 3.236256 1_465
Ge2 Nd1 3.236256 1_455
Ge2 Nd1 3.236256 1_565
Ge2 Nd1 3.236256 1_555
Ge2 Nd0 3.324807 1_556
Ge2 Nd0 3.324807 1_456
