# generated using pymatgen
data_Li9Mn2Co5O16
_symmetry_space_group_name_H-M   'P 1'
_cell_length_a   4.99755600
_cell_length_b   5.97393487
_cell_length_c   10.08312572
_cell_angle_alpha   103.46810495
_cell_angle_beta   99.88392009
_cell_angle_gamma   93.49375425
_symmetry_Int_Tables_number   1
_chemical_formula_structural   Li9Mn2Co5O16
_chemical_formula_sum   'Li9 Mn2 Co5 O16'
_cell_volume   286.80430575
_cell_formula_units_Z   1
loop_
 _symmetry_equiv_pos_site_id
 _symmetry_equiv_pos_as_xyz
  1  'x, y, z'
loop_
 _atom_site_type_symbol
 _atom_site_label
 _atom_site_symmetry_multiplicity
 _atom_site_fract_x
 _atom_site_fract_y
 _atom_site_fract_z
 _atom_site_occupancy
  Li  Li0  1  0.25921800  0.86514300  0.74375900  1
  Li  Li1  1  0.24349000  0.38619200  0.25608500  1
  Li  Li2  1  0.74194300  0.62495200  0.74359900  1
  Li  Li3  1  0.74713700  0.12816500  0.25356800  1
  Li  Li4  1  0.24433400  0.37291500  0.74728800  1
  Li  Li5  1  0.26092800  0.86621900  0.25465300  1
  Li  Li6  1  0.74980900  0.12755700  0.74736500  1
  Li  Li7  1  0.74820200  0.63254600  0.25445000  1
  Li  Li8  1  0.49896200  0.74731400  0.49872900  1
  Mn  Mn0  1  0.99938100  0.99603600  0.99855100  1
  Mn  Mn1  1  0.49929100  0.25334200  0.00036400  1
  Co  Co0  1  0.01070300  0.50897100  0.50201400  1
  Co  Co1  1  0.50035700  0.74730700  0.99940000  1
  Co  Co2  1  0.50476600  0.25116400  0.50044200  1
  Co  Co3  1  0.00025300  0.50276100  0.00169700  1
  Co  Co4  1  0.99611400  0.99393600  0.49701400  1
  O  O0  1  0.13472700  0.17880800  0.88129300  1
  O  O1  1  0.11128800  0.66699700  0.38097000  1
  O  O2  1  0.63512500  0.92176600  0.87950300  1
  O  O3  1  0.63897800  0.42382700  0.39293300  1
  O  O4  1  0.14232200  0.67423000  0.88697300  1
  O  O5  1  0.12564100  0.21029200  0.39846900  1
  O  O6  1  0.64120700  0.43431700  0.88481500  1
  O  O7  1  0.64448100  0.95328800  0.38823500  1
  O  O8  1  0.34713800  0.54910400  0.61360000  1
  O  O9  1  0.36328100  0.07024900  0.11746100  1
  O  O10  1  0.85769800  0.32981500  0.61662400  1
  O  O11  1  0.85896900  0.81703000  0.11552300  1
  O  O12  1  0.36615700  0.07340800  0.60735700  1
  O  O13  1  0.36004400  0.57676200  0.11728100  1
  O  O14  1  0.90408000  0.79200000  0.60402200  1
  O  O15  1  0.86397800  0.32358900  0.11596500  1
loop_
_geom_bond_atom_site_label_1
_geom_bond_atom_site_label_2
_geom_bond_distance
_geom_bond_site_symmetry_2
Li0 O14 2.021475 1_455
Li0 O2 2.083547 1_555
Li0 O8 2.150556 1_555
Li0 O12 2.166459 1_565
Li0 O4 2.168607 1_555
Li0 O0 2.247053 1_565
Li1 O1 2.067111 1_555
Li1 O5 2.104717 1_555
Li1 O15 2.116767 1_455
Li1 O13 2.129655 1_555
Li1 O3 2.173948 1_555
Li1 O9 2.251802 1_555
Li2 O10 2.099893 1_555
Li2 O6 2.123549 1_555
Li2 O2 2.131086 1_555
Li2 O8 2.131421 1_555
Li2 O14 2.140162 1_555
Li2 O4 2.217469 1_655
Li3 O7 2.008236 1_545
Li3 O9 2.115960 1_555
Li3 O5 2.134879 1_655
Li3 O15 2.139752 1_555
Li3 O3 2.146517 1_555
Li3 O11 2.212041 1_545
Li4 O8 2.005401 1_555
Li4 O0 2.092106 1_555
Li4 O10 2.107849 1_455
Li4 O4 2.158982 1_555
Li4 O6 2.172906 1_555
Li4 O12 2.194199 1_555
Li5 O13 2.092448 1_555
Li5 O7 2.103514 1_555
Li5 O1 2.126626 1_555
Li5 O9 2.147831 1_565
Li5 O11 2.204149 1_455
Li5 O5 2.429496 1_565
Li6 O10 2.096445 1_555
Li6 O0 2.112249 1_655
Li6 O2 2.134088 1_545
Li6 O12 2.134519 1_555
Li6 O6 2.184045 1_555
Li6 O14 2.433753 1_545
Li7 O1 1.999966 1_655
Li7 O11 2.096265 1_555
Li7 O13 2.138321 1_555
Li7 O3 2.189094 1_555
Li7 O15 2.213185 1_555
Li7 O7 2.217414 1_555
Li8 O7 2.022843 1_555
Li8 O8 2.037252 1_555
Li8 O1 2.055543 1_555
Li8 O14 2.088449 1_555
Li8 O3 2.196116 1_555
Li8 O12 2.201907 1_565
Mn0 O11 1.951211 1_556
Mn0 O0 1.957922 1_665
Mn0 O9 1.961381 1_666
Mn0 O2 1.963385 1_555
Mn0 O4 2.215326 1_655
Mn0 O15 2.246290 1_566
Mn1 O15 1.950912 1_555
Mn1 O6 1.950968 1_554
Mn1 O9 1.959314 1_555
Mn1 O0 1.964765 1_554
Mn1 O13 2.234178 1_555
Mn1 O2 2.278822 1_544
Co0 O1 1.822912 1_555
Co0 O8 1.823767 1_555
Co0 O14 1.920559 1_455
Co0 O3 1.960188 1_455
Co0 O10 1.960964 1_455
Co0 O5 2.016615 1_555
Co1 O4 1.911853 1_555
Co1 O13 1.925009 1_556
Co1 O11 1.928165 1_556
Co1 O2 1.944792 1_555
Co1 O6 2.181694 1_555
Co1 O9 2.231503 1_566
Co2 O3 1.837138 1_555
Co2 O12 1.862687 1_555
Co2 O10 1.907185 1_555
Co2 O5 1.965852 1_555
Co2 O7 2.102143 1_545
Co2 O8 2.150313 1_555
Co3 O4 1.907035 1_554
Co3 O15 1.921459 1_455
Co3 O13 1.931447 1_555
Co3 O6 1.932862 1_454
Co3 O11 2.185541 1_455
Co3 O0 2.239426 1_554
Co4 O7 1.874125 1_555
Co4 O14 1.881509 1_555
Co4 O5 1.947810 1_665
Co4 O12 1.955456 1_665
Co4 O1 2.195168 1_655
Co4 O10 2.299459 1_565
