# generated using pymatgen
data_AgB10P2H40C15NCl2O3
_symmetry_space_group_name_H-M   'P 1'
_cell_length_a   10.70297504
_cell_length_b   14.41414806
_cell_length_c   22.67899910
_cell_angle_alpha   108.20178026
_cell_angle_beta   90.00000000
_cell_angle_gamma   90.00000000
_symmetry_Int_Tables_number   1
_chemical_formula_structural   AgB10P2H40C15NCl2O3
_chemical_formula_sum   'Ag4 B40 P8 H160 C60 N4 Cl8 O12'
_cell_volume   3323.71491861
_cell_formula_units_Z   4
loop_
 _symmetry_equiv_pos_site_id
 _symmetry_equiv_pos_as_xyz
  1  'x, y, z'
loop_
 _atom_site_type_symbol
 _atom_site_label
 _atom_site_symmetry_multiplicity
 _atom_site_fract_x
 _atom_site_fract_y
 _atom_site_fract_z
 _atom_site_occupancy
  Ag  Ag0  1  0.44603725  0.14526825  0.52834088  1
  Ag  Ag1  1  0.05396275  0.64526825  0.02834088  1
  Ag  Ag2  1  0.55396275  0.85473175  0.47165912  1
  Ag  Ag3  1  0.94603725  0.35473175  0.97165912  1
  B  B0  1  0.37997724  0.42877223  0.56088369  1
  B  B1  1  0.12002276  0.92877223  0.06088369  1
  B  B2  1  0.62002276  0.57122777  0.43911631  1
  B  B3  1  0.87997724  0.07122777  0.93911631  1
  B  B4  1  0.31076317  0.54880676  0.59094653  1
  B  B5  1  0.18923683  0.04880676  0.09094653  1
  B  B6  1  0.68923683  0.45119324  0.40905347  1
  B  B7  1  0.81076317  0.95119324  0.90905347  1
  B  B8  1  0.23006916  0.45602332  0.53442005  1
  B  B9  1  0.26993084  0.95602332  0.03442005  1
  B  B10  1  0.76993084  0.54397668  0.46557995  1
  B  B11  1  0.73006916  0.04397668  0.96557995  1
  B  B12  1  0.12167362  0.40166748  0.57318091  1
  B  B13  1  0.37832638  0.90166748  0.07318091  1
  B  B14  1  0.87832638  0.59833252  0.42681909  1
  B  B15  1  0.62167362  0.09833252  0.92681909  1
  B  B16  1  0.39610185  0.50063972  0.64126201  1
  B  B17  1  0.10389815  0.00063972  0.14126201  1
  B  B18  1  0.60389815  0.49936028  0.35873799  1
  B  B19  1  0.89610185  0.99936028  0.85873799  1
  B  B20  1  0.21920207  0.34837599  0.61921835  1
  B  B21  1  0.28079793  0.84837599  0.11921835  1
  B  B22  1  0.78079793  0.65162401  0.38078165  1
  B  B23  1  0.71920207  0.15162401  0.88078165  1
  B  B24  1  0.28704785  0.44693280  0.68043431  1
  B  B25  1  0.21295215  0.94693280  0.18043431  1
  B  B26  1  0.71295215  0.55306720  0.31956569  1
  B  B27  1  0.78704785  0.05306720  0.81956569  1
  B  B28  1  0.14815727  0.53024850  0.60070784  1
  B  B29  1  0.35184273  0.03024850  0.10070784  1
  B  B30  1  0.85184273  0.46975150  0.39929216  1
  B  B31  1  0.64815727  0.96975150  0.89929216  1
  B  B32  1  0.13586668  0.46147268  0.65366423  1
  B  B33  1  0.36413332  0.96147268  0.15366423  1
  B  B34  1  0.86413332  0.53852732  0.34633577  1
  B  B35  1  0.63586668  0.03852732  0.84633577  1
  B  B36  1  0.24812556  0.55730912  0.66528772  1
  B  B37  1  0.25187444  0.05730912  0.16528772  1
  B  B38  1  0.75187444  0.44269088  0.33471228  1
  B  B39  1  0.74812556  0.94269088  0.83471228  1
  P  P0  1  0.48836221  0.28542862  0.62338193  1
  P  P1  1  0.01163779  0.78542862  0.12338193  1
  P  P2  1  0.51163779  0.71457138  0.37661807  1
  P  P3  1  0.98836221  0.21457138  0.87661807  1
  P  P4  1  0.28337829  0.23067712  0.48501339  1
  P  P5  1  0.21662171  0.73067712  0.98501339  1
  P  P6  1  0.71662171  0.76932288  0.51498661  1
  P  P7  1  0.78337829  0.26932288  0.01498661  1
  H  H0  1  0.35185916  0.27369670  0.70335432  1
  H  H1  1  0.14814084  0.77369670  0.20335432  1
  H  H2  1  0.64814084  0.72630330  0.29664568  1
  H  H3  1  0.85185916  0.22630330  0.79664568  1
  H  H4  1  0.46663121  0.41043068  0.52664445  1
  H  H5  1  0.03336879  0.91043068  0.02664445  1
  H  H6  1  0.53336879  0.58956932  0.47335555  1
  H  H7  1  0.96663121  0.08956932  0.97335555  1
  H  H8  1  0.64544107  0.40274959  0.67717298  1
  H  H9  1  0.85455893  0.90274959  0.17717298  1
  H  H10  1  0.35455893  0.59725041  0.32282702  1
  H  H11  1  0.14544107  0.09725041  0.82282702  1
  H  H12  1  0.35067975  0.61703489  0.57779864  1
  H  H13  1  0.14932025  0.11703489  0.07779864  1
  H  H14  1  0.64932025  0.38296511  0.42220136  1
  H  H15  1  0.85067975  0.88296511  0.92220136  1
  H  H16  1  0.38469126  0.33580063  0.43785317  1
  H  H17  1  0.11530874  0.83580063  0.93785317  1
  H  H18  1  0.61530874  0.66419937  0.56214683  1
  H  H19  1  0.88469126  0.16419937  0.06214683  1
  H  H20  1  0.22045178  0.45708800  0.48248411  1
  H  H21  1  0.27954822  0.95708800  0.98248411  1
  H  H22  1  0.77954822  0.54291200  0.51751589  1
  H  H23  1  0.72045178  0.04291200  0.01751589  1
  H  H24  1  0.47671582  0.32302000  0.79864048  1
  H  H25  1  0.02328418  0.82302000  0.29864048  1
  H  H26  1  0.52328418  0.67698000  0.20135952  1
  H  H27  1  0.97671582  0.17698000  0.70135952  1
  H  H28  1  0.50072876  0.41218517  0.76077772  1
  H  H29  1  0.99927124  0.91218517  0.26077772  1
  H  H30  1  0.49927124  0.58781483  0.23922228  1
  H  H31  1  0.00072876  0.08781483  0.73922228  1
  H  H32  1  0.61683247  0.32280777  0.75771700  1
  H  H33  1  0.88316753  0.82280777  0.25771700  1
  H  H34  1  0.38316753  0.67719223  0.24228300  1
  H  H35  1  0.11683247  0.17719223  0.74228300  1
  H  H36  1  0.06965602  0.22190130  0.44875274  1
  H  H37  1  0.43034398  0.72190130  0.94875274  1
  H  H38  1  0.93034398  0.77809870  0.55124726  1
  H  H39  1  0.56965602  0.27809870  0.05124726  1
  H  H40  1  0.97511152  0.10809126  0.50043924  1
  H  H41  1  0.52488848  0.60809126  0.00043924  1
  H  H42  1  0.02488848  0.89190874  0.49956076  1
  H  H43  1  0.47511152  0.39190874  0.99956076  1
  H  H44  1  0.03513527  0.21378284  0.55621135  1
  H  H45  1  0.46486473  0.71378284  0.05621135  1
  H  H46  1  0.96486473  0.78621716  0.44378865  1
  H  H47  1  0.53513527  0.28621716  0.94378865  1
  H  H48  1  0.11993091  0.10212609  0.53803368  1
  H  H49  1  0.38006909  0.60212609  0.03803368  1
  H  H50  1  0.88006909  0.89787391  0.46196632  1
  H  H51  1  0.61993091  0.39787391  0.96196632  1
  H  H52  1  0.02815983  0.36152821  0.55063957  1
  H  H53  1  0.47184017  0.86152821  0.05063957  1
  H  H54  1  0.97184017  0.63847179  0.44936043  1
  H  H55  1  0.52815983  0.13847179  0.94936043  1
  H  H56  1  0.49651716  0.53065153  0.66027271  1
  H  H57  1  0.00348284  0.03065153  0.16027271  1
  H  H58  1  0.50348284  0.46934847  0.33972729  1
  H  H59  1  0.99651716  0.96934847  0.83972729  1
  H  H60  1  0.74308238  0.20191365  0.59609704  1
  H  H61  1  0.75691762  0.70191365  0.09609704  1
  H  H62  1  0.25691762  0.79808635  0.40390296  1
  H  H63  1  0.24308238  0.29808635  0.90390296  1
  H  H64  1  0.72068199  0.23670343  0.67806180  1
  H  H65  1  0.77931801  0.73670343  0.17806180  1
  H  H66  1  0.27931801  0.76329657  0.32193820  1
  H  H67  1  0.22068199  0.26329657  0.82193820  1
  H  H68  1  0.83448878  0.29685798  0.64641034  1
  H  H69  1  0.66551122  0.79685798  0.14641034  1
  H  H70  1  0.16551122  0.70314202  0.35358966  1
  H  H71  1  0.33448878  0.20314202  0.85358966  1
  H  H72  1  0.19406416  0.27291451  0.62717221  1
  H  H73  1  0.30593584  0.77291451  0.12717221  1
  H  H74  1  0.80593584  0.72708549  0.37282779  1
  H  H75  1  0.69406416  0.22708549  0.87282779  1
  H  H76  1  0.30271121  0.43644755  0.72984569  1
  H  H77  1  0.19728879  0.93644755  0.22984569  1
  H  H78  1  0.69728879  0.56355245  0.27015431  1
  H  H79  1  0.80271121  0.06355245  0.77015431  1
  H  H80  1  0.06903807  0.58501810  0.59489832  1
  H  H81  1  0.43096193  0.08501810  0.09489832  1
  H  H82  1  0.93096193  0.41498190  0.40510168  1
  H  H83  1  0.56903807  0.91498190  0.90510168  1
  H  H84  1  0.04821807  0.46605449  0.68692250  1
  H  H85  1  0.45178193  0.96605449  0.18692250  1
  H  H86  1  0.95178193  0.53394551  0.31307750  1
  H  H87  1  0.54821807  0.03394551  0.81307750  1
  H  H88  1  0.38434225  0.12233938  0.35338074  1
  H  H89  1  0.11565775  0.62233938  0.85338074  1
  H  H90  1  0.61565775  0.87766062  0.64661926  1
  H  H91  1  0.88434225  0.37766062  0.14661926  1
  H  H92  1  0.50706346  0.18119369  0.40442382  1
  H  H93  1  0.99293654  0.68119369  0.90442382  1
  H  H94  1  0.49293654  0.81880631  0.59557618  1
  H  H95  1  0.00706346  0.31880631  0.09557618  1
  H  H96  1  0.46530622  0.22063840  0.33998345  1
  H  H97  1  0.03469378  0.72063840  0.83998345  1
  H  H98  1  0.53469378  0.77936160  0.66001655  1
  H  H99  1  0.96530622  0.27936160  0.16001655  1
  H  H100  1  0.27208962  0.31852521  0.34144403  1
  H  H101  1  0.22791038  0.81852521  0.84144403  1
  H  H102  1  0.72791038  0.68147479  0.65855597  1
  H  H103  1  0.77208962  0.18147479  0.15855597  1
  H  H104  1  0.15859783  0.33830914  0.40098430  1
  H  H105  1  0.34140217  0.83830914  0.90098430  1
  H  H106  1  0.84140217  0.66169086  0.59901570  1
  H  H107  1  0.65859783  0.16169086  0.09901570  1
  H  H108  1  0.18267329  0.21957149  0.34813272  1
  H  H109  1  0.31732671  0.71957149  0.84813272  1
  H  H110  1  0.81732671  0.78042851  0.65186728  1
  H  H111  1  0.68267329  0.28042851  0.15186728  1
  H  H112  1  0.24222664  0.63191360  0.70710660  1
  H  H113  1  0.25777336  0.13191360  0.20710660  1
  H  H114  1  0.75777336  0.36808640  0.29289340  1
  H  H115  1  0.74222664  0.86808640  0.79289340  1
  H  H116  1  0.58278573  0.14161299  0.69041035  1
  H  H117  1  0.91721427  0.64161299  0.19041035  1
  H  H118  1  0.41721427  0.85838701  0.30958965  1
  H  H119  1  0.08278573  0.35838701  0.80958965  1
  H  H120  1  0.43315051  0.10519885  0.65673646  1
  H  H121  1  0.06684949  0.60519885  0.15673646  1
  H  H122  1  0.56684949  0.89480115  0.34326354  1
  H  H123  1  0.93315051  0.39480115  0.84326354  1
  H  H124  1  0.45214761  0.14503886  0.73871523  1
  H  H125  1  0.04785239  0.64503886  0.23871523  1
  H  H126  1  0.54785239  0.85496114  0.26128477  1
  H  H127  1  0.95214761  0.35496114  0.76128477  1
  H  H128  1  0.20533161  0.02499546  0.42646436  1
  H  H129  1  0.29466839  0.52499546  0.92646436  1
  H  H130  1  0.79466839  0.97500454  0.57353564  1
  H  H131  1  0.70533161  0.47500454  0.07353564  1
  H  H132  1  0.19066796  0.08736047  0.37030069  1
  H  H133  1  0.30933204  0.58736047  0.87030069  1
  H  H134  1  0.80933204  0.91263953  0.62969931  1
  H  H135  1  0.69066796  0.41263953  0.12969931  1
  H  H136  1  0.05561157  0.04168018  0.39709991  1
  H  H137  1  0.44438843  0.54168018  0.89709991  1
  H  H138  1  0.94438843  0.95831982  0.60290009  1
  H  H139  1  0.55561157  0.45831982  0.10290009  1
  H  H140  1  0.78894960  0.39922848  0.58726786  1
  H  H141  1  0.71105040  0.89922848  0.08726786  1
  H  H142  1  0.21105040  0.60077152  0.41273214  1
  H  H143  1  0.28894960  0.10077152  0.91273214  1
  H  H144  1  0.63869844  0.44585683  0.58021353  1
  H  H145  1  0.86130156  0.94585683  0.08021353  1
  H  H146  1  0.36130156  0.55414317  0.41978647  1
  H  H147  1  0.13869844  0.05414317  0.91978647  1
  H  H148  1  0.67944958  0.32414459  0.53513231  1
  H  H149  1  0.82055042  0.82414459  0.03513231  1
  H  H150  1  0.32055042  0.67585541  0.46486769  1
  H  H151  1  0.17944958  0.17585541  0.96486769  1
  H  H152  1  0.19219761  0.89029869  0.64933888  1
  H  H153  1  0.30780239  0.39029869  0.14933888  1
  H  H154  1  0.80780239  0.10970131  0.35066112  1
  H  H155  1  0.69219761  0.60970131  0.85066112  1
  H  H156  1  0.25568743  0.78207283  0.66269072  1
  H  H157  1  0.24431257  0.28207283  0.16269072  1
  H  H158  1  0.74431257  0.21792717  0.33730928  1
  H  H159  1  0.75568743  0.71792717  0.83730928  1
  C  C0  1  0.37497344  0.38148996  0.62217900  1
  C  C1  1  0.12502656  0.88148996  0.12217900  1
  C  C2  1  0.62502656  0.61851004  0.37782100  1
  C  C3  1  0.87497344  0.11851004  0.87782100  1
  C  C4  1  0.45390888  0.26368474  0.69940375  1
  C  C5  1  0.04609112  0.76368474  0.19940375  1
  C  C6  1  0.54609112  0.73631526  0.30059625  1
  C  C7  1  0.95390888  0.23631526  0.80059625  1
  C  C8  1  0.25557882  0.34902474  0.54499250  1
  C  C9  1  0.24442118  0.84902474  0.04499250  1
  C  C10  1  0.74442118  0.65097526  0.45500750  1
  C  C11  1  0.75557882  0.15097526  0.95500750  1
  C  C12  1  0.64747642  0.34201733  0.63330640  1
  C  C13  1  0.85252358  0.84201733  0.13330640  1
  C  C14  1  0.35252358  0.65798267  0.36669360  1
  C  C15  1  0.14747642  0.15798267  0.86669360  1
  C  C16  1  0.33412929  0.26713218  0.41593832  1
  C  C17  1  0.16587071  0.76713218  0.91593832  1
  C  C18  1  0.66587071  0.73286782  0.58406168  1
  C  C19  1  0.83412929  0.23286782  0.08406168  1
  C  C20  1  0.51569408  0.33518761  0.75676822  1
  C  C21  1  0.98430592  0.83518761  0.25676822  1
  C  C22  1  0.48430592  0.66481239  0.24323178  1
  C  C23  1  0.01569408  0.16481239  0.74323178  1
  C  C24  1  0.12724943  0.17129351  0.46494842  1
  C  C25  1  0.37275057  0.67129351  0.96494842  1
  C  C26  1  0.87275057  0.82870649  0.53505158  1
  C  C27  1  0.62724943  0.32870649  0.03505158  1
  C  C28  1  0.06151309  0.14818935  0.51861466  1
  C  C29  1  0.43848691  0.64818935  0.01861466  1
  C  C30  1  0.93848691  0.85181065  0.48138534  1
  C  C31  1  0.56151309  0.35181065  0.98138534  1
  C  C32  1  0.74066479  0.26412382  0.63909125  1
  C  C33  1  0.75933521  0.76412382  0.13909125  1
  C  C34  1  0.25933521  0.73587618  0.36090875  1
  C  C35  1  0.24066479  0.23587618  0.86090875  1
  C  C36  1  0.42833086  0.19321894  0.37662726  1
  C  C37  1  0.07166914  0.69321894  0.87662726  1
  C  C38  1  0.57166914  0.80678106  0.62337274  1
  C  C39  1  0.92833086  0.30678106  0.12337274  1
  C  C40  1  0.22992839  0.28701584  0.37512393  1
  C  C41  1  0.27007161  0.78701584  0.87512393  1
  C  C42  1  0.77007161  0.71298416  0.62487607  1
  C  C43  1  0.72992839  0.21298416  0.12487607  1
  C  C44  1  0.48227201  0.15754819  0.69546515  1
  C  C45  1  0.01772799  0.65754819  0.19546515  1
  C  C46  1  0.51772799  0.84245181  0.30453485  1
  C  C47  1  0.98227201  0.34245181  0.80453485  1
  C  C48  1  0.14704842  0.07618236  0.41128355  1
  C  C49  1  0.35295158  0.57618236  0.91128355  1
  C  C50  1  0.85295158  0.92381764  0.58871645  1
  C  C51  1  0.64704842  0.42381764  0.08871645  1
  C  C52  1  0.68926456  0.38012374  0.58063016  1
  C  C53  1  0.81073544  0.88012374  0.08063016  1
  C  C54  1  0.31073544  0.61987626  0.41936984  1
  C  C55  1  0.18926456  0.11987626  0.91936984  1
  C  C56  1  0.20919115  0.85220472  0.68339415  1
  C  C57  1  0.29080885  0.35220472  0.18339415  1
  C  C58  1  0.79080885  0.14779528  0.31660585  1
  C  C59  1  0.70919115  0.64779528  0.81660585  1
  N  N0  1  0.68933227  0.05436865  0.44592259  1
  N  N1  1  0.81066773  0.55436865  0.94592259  1
  N  N2  1  0.31066773  0.94563135  0.55407741  1
  N  N3  1  0.18933227  0.44563135  0.05407741  1
  Cl  Cl0  1  0.06343209  0.82900796  0.71352919  1
  Cl  Cl1  1  0.43656791  0.32900796  0.21352919  1
  Cl  Cl2  1  0.93656791  0.17099204  0.28647081  1
  Cl  Cl3  1  0.56343209  0.67099204  0.78647081  1
  Cl  Cl4  1  0.30919080  0.92624505  0.74206066  1
  Cl  Cl5  1  0.19080920  0.42624505  0.24206066  1
  Cl  Cl6  1  0.69080920  0.07375495  0.25793934  1
  Cl  Cl7  1  0.80919080  0.57375495  0.75793934  1
  O  O0  1  0.59259554  0.02543936  0.47086426  1
  O  O1  1  0.90740446  0.52543936  0.97086426  1
  O  O2  1  0.40740446  0.97456064  0.52913574  1
  O  O3  1  0.09259554  0.47456064  0.02913574  1
  O  O4  1  0.70813348  0.14459620  0.45845363  1
  O  O5  1  0.79186652  0.64459620  0.95845363  1
  O  O6  1  0.29186652  0.85540380  0.54154637  1
  O  O7  1  0.20813348  0.35540380  0.04154637  1
  O  O8  1  0.75881097  0.99125282  0.41050388  1
  O  O9  1  0.74118903  0.49125282  0.91050388  1
  O  O10  1  0.24118903  0.00874718  0.58949612  1
  O  O11  1  0.25881097  0.50874718  0.08949612  1
loop_
_geom_bond_atom_site_label_1
_geom_bond_atom_site_label_2
_geom_bond_distance
_geom_bond_site_symmetry_2
Ag0 O0 2.395089 1_555
Ag0 P0 2.492438 1_555
Ag0 O2 2.500716 1_545
Ag0 P4 2.503545 1_555
Ag1 O1 2.395089 1_454
Ag1 P1 2.492438 1_555
Ag1 O3 2.500716 1_555
Ag1 P5 2.503545 1_554
Ag2 O2 2.395089 1_555
Ag2 P2 2.492438 1_555
Ag2 O0 2.500716 1_565
Ag2 P6 2.503545 1_555
Ag3 O3 2.395089 1_656
Ag3 P3 2.492438 1_555
Ag3 O1 2.500716 1_555
Ag3 P7 2.503545 1_556
B0 H4 1.185237 1_555
B0 C8 1.721953 1_555
B0 C0 1.729640 1_555
B1 H5 1.185237 1_555
B1 C9 1.721953 1_555
B1 C1 1.729640 1_555
B2 H6 1.185237 1_555
B2 C10 1.721953 1_555
B2 C2 1.729640 1_555
B3 H7 1.185237 1_555
B3 C11 1.721953 1_555
B3 C3 1.729640 1_555
B4 H12 1.192396 1_555
B5 H13 1.192396 1_555
B6 H14 1.192396 1_555
B7 H15 1.192396 1_555
B8 H20 1.187209 1_555
B8 C8 1.655817 1_555
B9 H21 1.187209 1_554
B9 C9 1.655817 1_555
B10 H22 1.187209 1_555
B10 C10 1.655817 1_555
B11 H23 1.187209 1_556
B11 C11 1.655817 1_555
B12 H52 1.188722 1_555
B12 C8 1.653914 1_555
B13 H53 1.188722 1_555
B13 C9 1.653914 1_555
B14 H54 1.188722 1_555
B14 C10 1.653914 1_555
B15 H55 1.188722 1_555
B15 C11 1.653914 1_555
B16 H56 1.188098 1_555
B16 C0 1.650363 1_555
B17 H57 1.188098 1_555
B17 C1 1.650363 1_545
B18 H58 1.188098 1_555
B18 C2 1.650363 1_555
B19 H59 1.188098 1_555
B19 C3 1.650363 1_565
B20 H72 1.187697 1_555
B20 C0 1.729718 1_555
B20 C8 1.730675 1_555
B21 H73 1.187697 1_555
B21 C1 1.729718 1_555
B21 C9 1.730675 1_555
B22 H74 1.187697 1_555
B22 C2 1.729718 1_555
B22 C10 1.730675 1_555
B23 H75 1.187697 1_555
B23 C3 1.729718 1_555
B23 C11 1.730675 1_555
B24 H76 1.188486 1_555
B24 C0 1.656002 1_555
B25 H77 1.188486 1_555
B25 C1 1.656002 1_555
B26 H78 1.188486 1_555
B26 C2 1.656002 1_555
B27 H79 1.188486 1_555
B27 C3 1.656002 1_555
B28 H80 1.192758 1_555
B29 H81 1.192758 1_555
B30 H82 1.192758 1_555
B31 H83 1.192758 1_555
B32 H84 1.192556 1_555
B33 H85 1.192556 1_555
B34 H86 1.192556 1_555
B35 H87 1.192556 1_555
B36 H112 1.192777 1_555
B37 H113 1.192777 1_555
B38 H114 1.192777 1_555
B39 H115 1.192777 1_555
C0 P0 1.847808 1_555
C1 P1 1.847808 1_555
C2 P2 1.847808 1_555
C3 P3 1.847808 1_555
C4 H0 1.101705 1_555
C4 P0 1.882634 1_555
C5 H1 1.101705 1_555
C5 P1 1.882634 1_555
C6 H2 1.101705 1_555
C6 P2 1.882634 1_555
C7 H3 1.101705 1_555
C7 P3 1.882634 1_555
C8 P4 1.843699 1_555
C9 P5 1.843699 1_554
C10 P6 1.843699 1_555
C11 P7 1.843699 1_556
C12 H8 1.101117 1_555
C12 P0 1.871227 1_555
C13 H9 1.101117 1_555
C13 P1 1.871227 1_655
C14 H10 1.101117 1_555
C14 P2 1.871227 1_555
C15 H11 1.101117 1_555
C15 P3 1.871227 1_455
C16 H16 1.101020 1_555
C16 P4 1.881361 1_555
C17 H17 1.101020 1_555
C17 P5 1.881361 1_555
C18 H18 1.101020 1_555
C18 P6 1.881361 1_555
C19 H19 1.101020 1_555
C19 P7 1.881361 1_555
C20 H28 1.096655 1_555
C20 H32 1.098395 1_555
C20 H24 1.100287 1_555
C21 H29 1.096655 1_555
C21 H33 1.098395 1_555
C21 H25 1.100287 1_655
C22 H30 1.096655 1_555
C22 H34 1.098395 1_555
C22 H26 1.100287 1_555
C23 H31 1.096655 1_555
C23 H35 1.098395 1_555
C23 H27 1.100287 1_455
C24 H36 1.101996 1_555
C24 P4 1.867832 1_555
C25 H37 1.101996 1_555
C25 P5 1.867832 1_555
C26 H38 1.101996 1_555
C26 P6 1.867832 1_555
C27 H39 1.101996 1_555
C27 P7 1.867832 1_555
C28 H44 1.094081 1_555
C28 H48 1.099277 1_555
C28 H40 1.100137 1_455
C29 H45 1.094081 1_555
C29 H49 1.099277 1_555
C29 H41 1.100137 1_555
C30 H46 1.094081 1_555
C30 H50 1.099277 1_555
C30 H42 1.100137 1_655
C31 H47 1.094081 1_555
C31 H51 1.099277 1_555
C31 H43 1.100137 1_555
C32 H64 1.096045 1_555
C32 H60 1.099670 1_555
C32 H68 1.099846 1_555
C33 H65 1.096045 1_555
C33 H61 1.099670 1_555
C33 H69 1.099846 1_555
C34 H66 1.096045 1_555
C34 H62 1.099670 1_555
C34 H70 1.099846 1_555
C35 H67 1.096045 1_555
C35 H63 1.099670 1_555
C35 H71 1.099846 1_555
C36 H92 1.098093 1_555
C36 H88 1.098598 1_555
C36 H96 1.099386 1_555
C37 H93 1.098093 1_455
C37 H89 1.098598 1_555
C37 H97 1.099386 1_555
C38 H94 1.098093 1_555
C38 H90 1.098598 1_555
C38 H98 1.099386 1_555
C39 H95 1.098093 1_655
C39 H91 1.098598 1_555
C39 H99 1.099386 1_555
C40 H104 1.096615 1_555
C40 H108 1.097189 1_555
C40 H100 1.100030 1_555
C41 H105 1.096615 1_555
C41 H109 1.097189 1_555
C41 H101 1.100030 1_555
C42 H106 1.096615 1_555
C42 H110 1.097189 1_555
C42 H102 1.100030 1_555
C43 H107 1.096615 1_555
C43 H111 1.097189 1_555
C43 H103 1.100030 1_555
C44 H120 1.096905 1_555
C44 H116 1.098539 1_555
C44 H124 1.099573 1_555
C45 H121 1.096905 1_555
C45 H117 1.098539 1_455
C45 H125 1.099573 1_555
C46 H122 1.096905 1_555
C46 H118 1.098539 1_555
C46 H126 1.099573 1_555
C47 H123 1.096905 1_555
C47 H119 1.098539 1_655
C47 H127 1.099573 1_555
C48 H132 1.096062 1_555
C48 H136 1.099367 1_555
C48 H128 1.100331 1_555
C49 H133 1.096062 1_555
C49 H137 1.099367 1_555
C49 H129 1.100331 1_555
C50 H134 1.096062 1_555
C50 H138 1.099367 1_555
C50 H130 1.100331 1_555
C51 H135 1.096062 1_555
C51 H139 1.099367 1_555
C51 H131 1.100331 1_555
C52 H144 1.093764 1_555
C52 H148 1.098487 1_555
C52 H140 1.100422 1_555
C53 H145 1.093764 1_555
C53 H149 1.098487 1_555
C53 H141 1.100422 1_555
C54 H146 1.093764 1_555
C54 H150 1.098487 1_555
C54 H142 1.100422 1_555
C55 H147 1.093764 1_555
C55 H151 1.098487 1_555
C55 H143 1.100422 1_555
C56 H156 1.092470 1_555
C56 H152 1.093631 1_555
C56 Cl0 1.776347 1_555
C56 Cl4 1.779789 1_555
C57 H157 1.092470 1_555
C57 H153 1.093631 1_555
C57 Cl1 1.776347 1_555
C57 Cl5 1.779789 1_555
C58 H158 1.092470 1_555
C58 H154 1.093631 1_555
C58 Cl2 1.776347 1_555
C58 Cl6 1.779789 1_555
C59 H159 1.092470 1_555
C59 H155 1.093631 1_555
C59 Cl3 1.776347 1_555
C59 Cl7 1.779789 1_555
N0 O8 1.252733 1_545
N0 O4 1.257694 1_555
N0 O0 1.308890 1_555
N1 O9 1.252733 1_555
N1 O5 1.257694 1_555
N1 O1 1.308890 1_555
N2 O10 1.252733 1_565
N2 O6 1.257694 1_555
N2 O2 1.308890 1_555
N3 O11 1.252733 1_555
N3 O7 1.257694 1_555
N3 O3 1.308890 1_555
