# generated using pymatgen
data_ReN2(OF2)4
_symmetry_space_group_name_H-M   'P 1'
_cell_length_a   10.03657100
_cell_length_b   12.18197600
_cell_length_c   12.67946400
_cell_angle_alpha   90.00000000
_cell_angle_beta   90.00000000
_cell_angle_gamma   90.00000000
_symmetry_Int_Tables_number   1
_chemical_formula_structural   ReN2(OF2)4
_chemical_formula_sum   'Re8 N16 O32 F64'
_cell_volume   1550.25805194
_cell_formula_units_Z   8
loop_
 _symmetry_equiv_pos_site_id
 _symmetry_equiv_pos_as_xyz
  1  'x, y, z'
loop_
 _atom_site_type_symbol
 _atom_site_label
 _atom_site_symmetry_multiplicity
 _atom_site_fract_x
 _atom_site_fract_y
 _atom_site_fract_z
 _atom_site_occupancy
  Re  Re0  1  0.75633700  0.11862500  0.35921400  1
  Re  Re1  1  0.25633700  0.38137500  0.64078600  1
  Re  Re2  1  0.24366300  0.61862500  0.14078600  1
  Re  Re3  1  0.74366300  0.88137500  0.85921400  1
  Re  Re4  1  0.24366300  0.88137500  0.64078600  1
  Re  Re5  1  0.74366300  0.61862500  0.35921400  1
  Re  Re6  1  0.75633700  0.38137500  0.85921400  1
  Re  Re7  1  0.25633700  0.11862500  0.14078600  1
  N  N0  1  0.79908800  0.62096900  0.05924300  1
  N  N1  1  0.29908800  0.87903100  0.94075700  1
  N  N2  1  0.20091200  0.12096900  0.44075700  1
  N  N3  1  0.70091200  0.37903100  0.55924300  1
  N  N4  1  0.20091200  0.37903100  0.94075700  1
  N  N5  1  0.70091200  0.12096900  0.05924300  1
  N  N6  1  0.79908800  0.87903100  0.55924300  1
  N  N7  1  0.29908800  0.62096900  0.44075700  1
  N  N8  1  0.51243000  0.13034000  0.73560800  1
  N  N9  1  0.01243000  0.36966000  0.26439200  1
  N  N10  1  0.48757000  0.63034000  0.76439200  1
  N  N11  1  0.98757000  0.86966000  0.23560800  1
  N  N12  1  0.48757000  0.86966000  0.26439200  1
  N  N13  1  0.98757000  0.63034000  0.73560800  1
  N  N14  1  0.51243000  0.36966000  0.23560800  1
  N  N15  1  0.01243000  0.13034000  0.76439200  1
  O  O0  1  0.68586000  0.62743400  0.05564900  1
  O  O1  1  0.18586000  0.87256600  0.94435100  1
  O  O2  1  0.31414000  0.12743400  0.44435100  1
  O  O3  1  0.81414000  0.37256600  0.55564900  1
  O  O4  1  0.31414000  0.37256600  0.94435100  1
  O  O5  1  0.81414000  0.12743400  0.05564900  1
  O  O6  1  0.68586000  0.87256600  0.55564900  1
  O  O7  1  0.18586000  0.62743400  0.44435100  1
  O  O8  1  0.91240000  0.61513300  0.06268400  1
  O  O9  1  0.41240000  0.88486700  0.93731600  1
  O  O10  1  0.08760000  0.11513300  0.43731600  1
  O  O11  1  0.58760000  0.38486700  0.56268400  1
  O  O12  1  0.08760000  0.38486700  0.93731600  1
  O  O13  1  0.58760000  0.11513300  0.06268400  1
  O  O14  1  0.91240000  0.88486700  0.56268400  1
  O  O15  1  0.41240000  0.61513300  0.43731600  1
  O  O16  1  0.57244900  0.10104300  0.66468400  1
  O  O17  1  0.07244900  0.39895700  0.33531600  1
  O  O18  1  0.42755100  0.60104300  0.83531600  1
  O  O19  1  0.92755100  0.89895700  0.16468400  1
  O  O20  1  0.42755100  0.89895700  0.33531600  1
  O  O21  1  0.92755100  0.60104300  0.66468400  1
  O  O22  1  0.57244900  0.39895700  0.16468400  1
  O  O23  1  0.07244900  0.10104300  0.83531600  1
  O  O24  1  0.45093900  0.15816800  0.80627700  1
  O  O25  1  0.95093900  0.34183200  0.19372300  1
  O  O26  1  0.54906100  0.65816800  0.69372300  1
  O  O27  1  0.04906100  0.84183200  0.30627700  1
  O  O28  1  0.54906100  0.84183200  0.19372300  1
  O  O29  1  0.04906100  0.65816800  0.80627700  1
  O  O30  1  0.45093900  0.34183200  0.30627700  1
  O  O31  1  0.95093900  0.15816800  0.69372300  1
  F  F0  1  0.63217400  0.22183200  0.42559100  1
  F  F1  1  0.13217400  0.27816800  0.57440900  1
  F  F2  1  0.36782600  0.72183200  0.07440900  1
  F  F3  1  0.86782600  0.77816800  0.92559100  1
  F  F4  1  0.36782600  0.77816800  0.57440900  1
  F  F5  1  0.86782600  0.72183200  0.42559100  1
  F  F6  1  0.63217400  0.27816800  0.92559100  1
  F  F7  1  0.13217400  0.22183200  0.07440900  1
  F  F8  1  0.61360100  0.02877500  0.41713500  1
  F  F9  1  0.11360100  0.47122500  0.58286500  1
  F  F10  1  0.38639900  0.52877500  0.08286500  1
  F  F11  1  0.88639900  0.97122500  0.91713500  1
  F  F12  1  0.38639900  0.97122500  0.58286500  1
  F  F13  1  0.88639900  0.52877500  0.41713500  1
  F  F14  1  0.61360100  0.47122500  0.91713500  1
  F  F15  1  0.11360100  0.02877500  0.08286500  1
  F  F16  1  0.70002900  0.22228200  0.24640000  1
  F  F17  1  0.20002900  0.27771800  0.75360000  1
  F  F18  1  0.29997100  0.72228200  0.25360000  1
  F  F19  1  0.79997100  0.77771800  0.74640000  1
  F  F20  1  0.29997100  0.77771800  0.75360000  1
  F  F21  1  0.79997100  0.72228200  0.24640000  1
  F  F22  1  0.70002900  0.27771800  0.74640000  1
  F  F23  1  0.20002900  0.22228200  0.25360000  1
  F  F24  1  0.68927200  0.02716200  0.24131400  1
  F  F25  1  0.18927200  0.47283800  0.75868600  1
  F  F26  1  0.31072800  0.52716200  0.25868600  1
  F  F27  1  0.81072800  0.97283800  0.74131400  1
  F  F28  1  0.31072800  0.97283800  0.75868600  1
  F  F29  1  0.81072800  0.52716200  0.24131400  1
  F  F30  1  0.68927200  0.47283800  0.74131400  1
  F  F31  1  0.18927200  0.02716200  0.25868600  1
  F  F32  1  0.84555700  0.97454200  0.37983800  1
  F  F33  1  0.34555700  0.52545800  0.62016200  1
  F  F34  1  0.15444300  0.47454200  0.12016200  1
  F  F35  1  0.65444300  0.02545800  0.87983800  1
  F  F36  1  0.15444300  0.02545800  0.62016200  1
  F  F37  1  0.65444300  0.47454200  0.37983800  1
  F  F38  1  0.84555700  0.52545800  0.87983800  1
  F  F39  1  0.34555700  0.97454200  0.12016200  1
  F  F40  1  0.90560500  0.11397600  0.26006900  1
  F  F41  1  0.40560500  0.38602400  0.73993100  1
  F  F42  1  0.09439500  0.61397600  0.23993100  1
  F  F43  1  0.59439500  0.88602400  0.76006900  1
  F  F44  1  0.09439500  0.88602400  0.73993100  1
  F  F45  1  0.59439500  0.61397600  0.26006900  1
  F  F46  1  0.90560500  0.38602400  0.76006900  1
  F  F47  1  0.40560500  0.11397600  0.23993100  1
  F  F48  1  0.80414700  0.10906900  0.50937600  1
  F  F49  1  0.30414700  0.39093100  0.49062400  1
  F  F50  1  0.19585300  0.60906900  0.99062400  1
  F  F51  1  0.69585300  0.89093100  0.00937600  1
  F  F52  1  0.19585300  0.89093100  0.49062400  1
  F  F53  1  0.69585300  0.60906900  0.50937600  1
  F  F54  1  0.80414700  0.39093100  0.00937600  1
  F  F55  1  0.30414700  0.10906900  0.99062400  1
  F  F56  1  0.86824100  0.24868900  0.38867700  1
  F  F57  1  0.36824100  0.25131100  0.61132300  1
  F  F58  1  0.13175900  0.74868900  0.11132300  1
  F  F59  1  0.63175900  0.75131100  0.88867700  1
  F  F60  1  0.13175900  0.75131100  0.61132300  1
  F  F61  1  0.63175900  0.74868900  0.38867700  1
  F  F62  1  0.86824100  0.25131100  0.88867700  1
  F  F63  1  0.36824100  0.24868900  0.11132300  1
loop_
_geom_bond_atom_site_label_1
_geom_bond_atom_site_label_2
_geom_bond_distance
_geom_bond_site_symmetry_2
N0 O0 1.140058 1_555
N0 O8 1.140319 1_555
N1 O1 1.140058 1_555
N1 O9 1.140319 1_555
N2 O2 1.140058 1_555
N2 O10 1.140319 1_555
N3 O3 1.140058 1_555
N3 O11 1.140319 1_555
N4 O4 1.140058 1_555
N4 O12 1.140319 1_555
N5 O5 1.140058 1_555
N5 O13 1.140319 1_555
N6 O6 1.140058 1_555
N6 O14 1.140319 1_555
N7 O7 1.140058 1_555
N7 O15 1.140319 1_555
N8 O24 1.139606 1_555
N8 O16 1.139712 1_555
N9 O25 1.139606 1_455
N9 O17 1.139712 1_555
N10 O26 1.139606 1_555
N10 O18 1.139712 1_555
N11 O27 1.139606 1_655
N11 O19 1.139712 1_555
N12 O28 1.139606 1_555
N12 O20 1.139712 1_555
N13 O29 1.139606 1_655
N13 O21 1.139712 1_555
N14 O30 1.139606 1_555
N14 O22 1.139712 1_555
N15 O31 1.139606 1_455
N15 O23 1.139712 1_555
F0 Re0 1.960099 1_555
F1 Re1 1.960099 1_555
F2 Re2 1.960099 1_555
F3 Re3 1.960099 1_555
F4 Re4 1.960099 1_555
F5 Re5 1.960099 1_555
F6 Re6 1.960099 1_555
F7 Re7 1.960099 1_555
F8 Re0 1.946710 1_555
F9 Re1 1.946710 1_555
F10 Re2 1.946710 1_555
F11 Re3 1.946710 1_555
F12 Re4 1.946710 1_555
F13 Re5 1.946710 1_555
F14 Re6 1.946710 1_555
F15 Re7 1.946710 1_555
F16 Re0 1.989979 1_555
F17 Re1 1.989979 1_555
F18 Re2 1.989979 1_555
F19 Re3 1.989979 1_555
F20 Re4 1.989979 1_555
F21 Re5 1.989979 1_555
F22 Re6 1.989979 1_555
F23 Re7 1.989979 1_555
F24 Re0 1.982236 1_555
F25 Re1 1.982236 1_555
F26 Re2 1.982236 1_555
F27 Re3 1.982236 1_555
F28 Re4 1.982236 1_555
F29 Re5 1.982236 1_555
F30 Re6 1.982236 1_555
F31 Re7 1.982236 1_555
F32 Re0 1.987717 1_565
F33 Re1 1.987717 1_555
F34 Re2 1.987717 1_555
F35 Re3 1.987717 1_545
F36 Re4 1.987717 1_545
F37 Re5 1.987717 1_555
F38 Re6 1.987717 1_555
F39 Re7 1.987717 1_565
F40 Re0 1.956513 1_555
F41 Re1 1.956513 1_555
F42 Re2 1.956513 1_555
F43 Re3 1.956513 1_555
F44 Re4 1.956513 1_555
F45 Re5 1.956513 1_555
F46 Re6 1.956513 1_555
F47 Re7 1.956513 1_555
F48 Re0 1.966957 1_555
F49 Re1 1.966957 1_555
F50 Re2 1.966957 1_556
F51 Re3 1.966957 1_554
F52 Re4 1.966957 1_555
F53 Re5 1.966957 1_555
F54 Re6 1.966957 1_554
F55 Re7 1.966957 1_556
F56 Re0 1.977732 1_555
F57 Re1 1.977732 1_555
F58 Re2 1.977732 1_555
F59 Re3 1.977732 1_555
F60 Re4 1.977732 1_555
F61 Re5 1.977732 1_555
F62 Re6 1.977732 1_555
F63 Re7 1.977732 1_555
