# generated using pymatgen
data_MgGa
_symmetry_space_group_name_H-M   'P 1'
_cell_length_a   5.15509233
_cell_length_b   5.15509233
_cell_length_c   5.51461092
_cell_angle_alpha   67.33409804
_cell_angle_beta   67.33409804
_cell_angle_gamma   59.76127044
_symmetry_Int_Tables_number   1
_chemical_formula_structural   MgGa
_chemical_formula_sum   'Mg3 Ga3'
_cell_volume   113.41860082
_cell_formula_units_Z   3
loop_
 _symmetry_equiv_pos_site_id
 _symmetry_equiv_pos_as_xyz
  1  'x, y, z'
loop_
 _atom_site_type_symbol
 _atom_site_label
 _atom_site_symmetry_multiplicity
 _atom_site_fract_x
 _atom_site_fract_y
 _atom_site_fract_z
 _atom_site_occupancy
  Mg  Mg0  1  0.34061736  0.65938264  -0.00000000  1
  Mg  Mg1  1  0.83325105  0.83280702  0.50472980  1
  Mg  Mg2  1  0.16719298  0.16674895  0.49527020  1
  Ga  Ga0  1  0.99191933  0.33257734  0.01269668  1
  Ga  Ga1  1  0.66742266  0.00808067  0.98730332  1
  Ga  Ga2  1  0.49959461  0.50040539  0.50000000  1
loop_
_geom_bond_atom_site_label_1
_geom_bond_atom_site_label_2
_geom_bond_distance
_geom_bond_site_symmetry_2
Mg0 Mg2 3.056032 1_564
Mg0 Mg1 3.056032 1_455
Mg0 Mg1 3.125281 1_554
Mg0 Mg2 3.125281 1_555
Mg1 Mg2 2.962492 1_665
Mg1 Mg2 2.978444 1_655
Mg1 Mg2 2.978444 1_565
Ga0 Mg2 2.819768 1_655
Ga0 Mg0 2.917045 1_555
Ga0 Ga2 2.955530 1_555
Ga0 Ga1 2.965762 1_554
Ga0 Mg2 2.967163 1_654
Ga0 Ga1 2.980221 1_564
Ga0 Ga1 2.980221 1_654
Ga0 Mg0 2.989434 1_655
Ga0 Mg0 3.014425 1_645
Ga0 Mg1 3.039723 1_554
Ga0 Mg1 3.113406 1_545
Ga1 Mg1 2.819768 1_545
Ga1 Mg0 2.917045 1_556
Ga1 Ga2 2.955530 1_555
Ga1 Mg1 2.967163 1_546
Ga1 Mg0 2.989434 1_546
Ga1 Mg0 3.014425 1_646
Ga1 Mg2 3.039723 1_556
Ga1 Mg2 3.113406 1_655
Ga2 Mg0 2.875681 1_555
Ga2 Mg0 2.875681 1_556
Ga2 Mg2 2.961993 1_565
Ga2 Mg1 2.961993 1_455
Ga2 Mg1 2.967576 1_545
Ga2 Mg2 2.967576 1_655
Ga2 Mg2 2.988832 1_555
Ga2 Mg1 2.988832 1_555
