# generated using pymatgen
data_KGd(FeO3)4
_symmetry_space_group_name_H-M   'P 1'
_cell_length_a   5.17680594
_cell_length_b   5.17680594
_cell_length_c   7.37595083
_cell_angle_alpha   90.00000000
_cell_angle_beta   90.00000000
_cell_angle_gamma   89.24975935
_symmetry_Int_Tables_number   1
_chemical_formula_structural   KGd(FeO3)4
_chemical_formula_sum   'K1 Gd1 Fe4 O12'
_cell_volume   197.65351872
_cell_formula_units_Z   1
loop_
 _symmetry_equiv_pos_site_id
 _symmetry_equiv_pos_as_xyz
  1  'x, y, z'
loop_
 _atom_site_type_symbol
 _atom_site_label
 _atom_site_symmetry_multiplicity
 _atom_site_fract_x
 _atom_site_fract_y
 _atom_site_fract_z
 _atom_site_occupancy
  K  K0  1  0.01054556  0.98945444  0.50000000  1
  Gd  Gd0  1  0.48573851  0.51426149  0.00000000  1
  Fe  Fe0  1  0.50101273  0.00231478  0.26076375  1
  Fe  Fe1  1  0.50101273  0.00231478  0.73923625  1
  Fe  Fe2  1  0.99768522  0.49898727  0.73923625  1
  Fe  Fe3  1  0.99768522  0.49898727  0.26076375  1
  O  O0  1  0.23151935  0.23186438  0.23359779  1
  O  O1  1  0.76813562  0.76848065  0.23359779  1
  O  O2  1  0.76813562  0.76848065  0.76640221  1
  O  O3  1  0.23151935  0.23186438  0.76640221  1
  O  O4  1  0.29403920  0.70596080  0.26314125  1
  O  O5  1  0.70670010  0.29329990  0.20367757  1
  O  O6  1  0.70670010  0.29329990  0.79632243  1
  O  O7  1  0.29403920  0.70596080  0.73685875  1
  O  O8  1  0.47247938  0.95231500  0.00000000  1
  O  O9  1  0.52238697  0.03401988  0.50000000  1
  O  O10  1  0.04768500  0.52752062  0.00000000  1
  O  O11  1  0.96598012  0.47761303  0.50000000  1
loop_
_geom_bond_atom_site_label_1
_geom_bond_atom_site_label_2
_geom_bond_distance
_geom_bond_site_symmetry_2
K0 O9 2.534601 1_465
K0 O11 2.534601 1_465
K0 O2 2.604245 1_455
K0 O0 2.604245 1_565
K0 O3 2.604245 1_565
K0 O1 2.604245 1_455
K0 O11 2.662736 1_455
K0 O9 2.662736 1_565
K0 O7 2.702491 1_555
K0 O4 2.702491 1_555
Gd0 O6 2.199907 1_554
Gd0 O5 2.199907 1_555
Gd0 O8 2.267858 1_555
Gd0 O10 2.267858 1_555
Gd0 O7 2.389779 1_554
Gd0 O4 2.389779 1_555
Fe0 O9 1.775796 1_555
Fe0 O0 1.831725 1_555
Fe0 O1 1.836821 1_545
Fe0 O4 1.882831 1_545
Fe0 O5 1.903226 1_555
Fe0 O8 1.946589 1_545
Fe1 O9 1.775796 1_555
Fe1 O3 1.831725 1_555
Fe1 O2 1.836821 1_545
Fe1 O7 1.882831 1_545
Fe1 O6 1.903226 1_555
Fe1 O8 1.946589 1_546
Fe2 O11 1.775796 1_555
Fe2 O2 1.831725 1_555
Fe2 O3 1.836821 1_655
Fe2 O7 1.882831 1_655
Fe2 O6 1.903226 1_555
Fe2 O10 1.946589 1_656
Fe3 O11 1.775796 1_555
Fe3 O1 1.831725 1_555
Fe3 O0 1.836821 1_655
Fe3 O4 1.882831 1_655
Fe3 O5 1.903226 1_555
Fe3 O10 1.946589 1_655
