# generated using pymatgen
data_Ca6Co3Si6O5
_symmetry_space_group_name_H-M   'P 1'
_cell_length_a   21.38641600
_cell_length_b   21.38641600
_cell_length_c   4.77530200
_cell_angle_alpha   90.00000000
_cell_angle_beta   90.00000000
_cell_angle_gamma   90.00000000
_symmetry_Int_Tables_number   1
_chemical_formula_structural   Ca6Co3Si6O5
_chemical_formula_sum   'Ca36 Co18 Si36 O30'
_cell_volume   2184.12184742
_cell_formula_units_Z   6
loop_
 _symmetry_equiv_pos_site_id
 _symmetry_equiv_pos_as_xyz
  1  'x, y, z'
loop_
 _atom_site_type_symbol
 _atom_site_label
 _atom_site_symmetry_multiplicity
 _atom_site_fract_x
 _atom_site_fract_y
 _atom_site_fract_z
 _atom_site_occupancy
  Ca  Ca0  1  0.88048300  0.60934200  0.48982000  1
  Ca  Ca1  1  0.11951700  0.39065800  0.48982000  1
  Ca  Ca2  1  0.39065800  0.88048300  0.51018000  1
  Ca  Ca3  1  0.60934200  0.11951700  0.51018000  1
  Ca  Ca4  1  0.89021600  0.94880300  0.50241000  1
  Ca  Ca5  1  0.10978400  0.05119700  0.50241000  1
  Ca  Ca6  1  0.05119700  0.89021600  0.49759000  1
  Ca  Ca7  1  0.94880300  0.10978400  0.49759000  1
  Ca  Ca8  1  0.55968200  0.94605600  0.50028100  1
  Ca  Ca9  1  0.44031800  0.05394400  0.50028100  1
  Ca  Ca10  1  0.05394400  0.55968200  0.49971900  1
  Ca  Ca11  1  0.94605600  0.44031800  0.49971900  1
  Ca  Ca12  1  0.21780600  0.94016900  0.49317400  1
  Ca  Ca13  1  0.78219400  0.05983100  0.49317400  1
  Ca  Ca14  1  0.05983100  0.21780600  0.50682600  1
  Ca  Ca15  1  0.94016900  0.78219400  0.50682600  1
  Ca  Ca16  1  0.56459800  0.61053100  0.49434000  1
  Ca  Ca17  1  0.43540200  0.38946900  0.49434000  1
  Ca  Ca18  1  0.38946900  0.56459800  0.50566000  1
  Ca  Ca19  1  0.61053100  0.43540200  0.50566000  1
  Ca  Ca20  1  0.22055700  0.61289600  0.49863100  1
  Ca  Ca21  1  0.77944300  0.38710400  0.49863100  1
  Ca  Ca22  1  0.38710400  0.22055700  0.50136900  1
  Ca  Ca23  1  0.61289600  0.77944300  0.50136900  1
  Ca  Ca24  1  0.88616200  0.26992100  0.48958400  1
  Ca  Ca25  1  0.11383800  0.73007900  0.48958400  1
  Ca  Ca26  1  0.73007900  0.88616200  0.51041600  1
  Ca  Ca27  1  0.26992100  0.11383800  0.51041600  1
  Ca  Ca28  1  0.55056500  0.28324700  0.51505400  1
  Ca  Ca29  1  0.44943500  0.71675300  0.51505400  1
  Ca  Ca30  1  0.71675300  0.55056500  0.48494600  1
  Ca  Ca31  1  0.28324700  0.44943500  0.48494600  1
  Ca  Ca32  1  0.22676000  0.28446000  0.51396100  1
  Ca  Ca33  1  0.77324000  0.71554000  0.51396100  1
  Ca  Ca34  1  0.71554000  0.22676000  0.48603900  1
  Ca  Ca35  1  0.28446000  0.77324000  0.48603900  1
  Co  Co0  1  0.00000000  0.00000000  0.00000000  1
  Co  Co1  1  0.68481500  0.98708100  0.98869800  1
  Co  Co2  1  0.31518500  0.01291900  0.98869800  1
  Co  Co3  1  0.01291900  0.68481500  0.01130200  1
  Co  Co4  1  0.98708100  0.31518500  0.01130200  1
  Co  Co5  1  0.67153700  0.67102500  0.99176100  1
  Co  Co6  1  0.32846300  0.32897500  0.99176100  1
  Co  Co7  1  0.32897500  0.67153700  0.00823900  1
  Co  Co8  1  0.67102500  0.32846300  0.00823900  1
  Co  Co9  1  0.83349300  0.83444200  0.98623000  1
  Co  Co10  1  0.16650700  0.16555800  0.98623000  1
  Co  Co11  1  0.16555800  0.83349300  0.01377000  1
  Co  Co12  1  0.83444200  0.16650700  0.01377000  1
  Co  Co13  1  0.51039300  0.80752900  0.00907000  1
  Co  Co14  1  0.48960700  0.19247100  0.00907000  1
  Co  Co15  1  0.19247100  0.51039300  0.99093000  1
  Co  Co16  1  0.80752900  0.48960700  0.99093000  1
  Co  Co17  1  0.50000000  0.50000000  0.00000000  1
  Si  Si0  1  0.94670000  0.54892400  0.04470000  1
  Si  Si1  1  0.05330000  0.45107600  0.04470000  1
  Si  Si2  1  0.45107600  0.94670000  0.95530000  1
  Si  Si3  1  0.54892400  0.05330000  0.95530000  1
  Si  Si4  1  0.94504400  0.88854100  0.99721700  1
  Si  Si5  1  0.05495600  0.11145900  0.99721700  1
  Si  Si6  1  0.11145900  0.94504400  0.00278300  1
  Si  Si7  1  0.88854100  0.05495600  0.00278300  1
  Si  Si8  1  0.05473000  0.78590900  0.97298000  1
  Si  Si9  1  0.94527000  0.21409100  0.97298000  1
  Si  Si10  1  0.21409100  0.05473000  0.02702000  1
  Si  Si11  1  0.78590900  0.94527000  0.02702000  1
  Si  Si12  1  0.62490300  0.88131600  0.01006000  1
  Si  Si13  1  0.37509700  0.11868400  0.01006000  1
  Si  Si14  1  0.11868400  0.62490300  0.98994000  1
  Si  Si15  1  0.88131600  0.37509700  0.98994000  1
  Si  Si16  1  0.27176900  0.21971000  0.98323900  1
  Si  Si17  1  0.72823100  0.78029000  0.98323900  1
  Si  Si18  1  0.78029000  0.27176900  0.01676100  1
  Si  Si19  1  0.21971000  0.72823100  0.01676100  1
  Si  Si20  1  0.26878200  0.87372000  0.97440500  1
  Si  Si21  1  0.73121800  0.12628000  0.97440500  1
  Si  Si22  1  0.12628000  0.26878200  0.02559500  1
  Si  Si23  1  0.87372000  0.73121800  0.02559500  1
  Si  Si24  1  0.38318700  0.76937200  0.01054800  1
  Si  Si25  1  0.61681300  0.23062800  0.01054800  1
  Si  Si26  1  0.23062800  0.38318700  0.98945200  1
  Si  Si27  1  0.76937200  0.61681300  0.98945200  1
  Si  Si28  1  0.60534900  0.54084100  0.97758400  1
  Si  Si29  1  0.39465100  0.45915900  0.97758400  1
  Si  Si30  1  0.45915900  0.60534900  0.02241600  1
  Si  Si31  1  0.54084100  0.39465100  0.02241600  1
  Si  Si32  1  0.71175600  0.43671300  0.99112900  1
  Si  Si33  1  0.28824400  0.56328700  0.99112900  1
  Si  Si34  1  0.56328700  0.71175600  0.00887100  1
  Si  Si35  1  0.43671300  0.28824400  0.00887100  1
  O  O0  1  0.00000000  0.50000000  0.17093900  1
  O  O1  1  0.50000000  0.00000000  0.82906100  1
  O  O2  1  0.95030800  0.54585400  0.70935800  1
  O  O3  1  0.04969200  0.45414600  0.70935800  1
  O  O4  1  0.45414600  0.95030800  0.29064200  1
  O  O5  1  0.54585400  0.04969200  0.29064200  1
  O  O6  1  0.96696400  0.61419600  0.19677800  1
  O  O7  1  0.03303600  0.38580400  0.19677800  1
  O  O8  1  0.38580400  0.96696400  0.80322200  1
  O  O9  1  0.61419600  0.03303600  0.80322200  1
  O  O10  1  0.88376600  0.52359600  0.19723800  1
  O  O11  1  0.11623400  0.47640400  0.19723800  1
  O  O12  1  0.47640400  0.88376600  0.80276200  1
  O  O13  1  0.52359600  0.11623400  0.80276200  1
  O  O14  1  0.99934500  0.83519400  0.15013600  1
  O  O15  1  0.00065500  0.16480600  0.15013600  1
  O  O16  1  0.16480600  0.99934500  0.84986400  1
  O  O17  1  0.83519400  0.00065500  0.84986400  1
  O  O18  1  0.67783700  0.82850400  0.18162200  1
  O  O19  1  0.32216300  0.17149600  0.18162200  1
  O  O20  1  0.17149600  0.67783700  0.81837800  1
  O  O21  1  0.82850400  0.32216300  0.81837800  1
  O  O22  1  0.33508800  0.83636900  0.13213000  1
  O  O23  1  0.66491200  0.16363100  0.13213000  1
  O  O24  1  0.16363100  0.33508800  0.86787000  1
  O  O25  1  0.83636900  0.66491200  0.86787000  1
  O  O26  1  0.65894000  0.49145500  0.15362600  1
  O  O27  1  0.34106000  0.50854500  0.15362600  1
  O  O28  1  0.50854500  0.65894000  0.84637400  1
  O  O29  1  0.49145500  0.34106000  0.84637400  1
loop_
_geom_bond_atom_site_label_1
_geom_bond_atom_site_label_2
_geom_bond_distance
_geom_bond_site_symmetry_2
Ca0 O2 2.274333 1_555
Ca0 O10 2.306475 1_555
Ca0 O6 2.321576 1_555
Ca0 O25 2.358304 1_555
Ca1 O3 2.274333 1_555
Ca1 O11 2.306475 1_555
Ca1 O7 2.321576 1_555
Ca1 O24 2.358304 1_555
Ca2 O4 2.274333 1_555
Ca2 O12 2.306475 1_555
Ca2 O8 2.321576 1_555
Ca2 O22 2.358304 1_555
Ca3 O5 2.274333 1_555
Ca3 O13 2.306475 1_555
Ca3 O9 2.321576 1_555
Ca3 O23 2.358304 1_555
Ca4 O17 2.316751 1_565
Ca4 Co0 3.515320 1_666
Ca4 Co0 3.530919 1_665
Ca5 O16 2.316751 1_545
Ca5 Co0 3.515320 1_556
Ca5 Co0 3.530919 1_555
Ca6 O14 2.316751 1_455
Ca6 Co0 3.515320 1_565
Ca6 Co0 3.530919 1_566
Ca7 O15 2.316751 1_655
Ca7 Co0 3.515320 1_655
Ca7 Co0 3.530919 1_656
Ca8 O1 2.329181 1_565
Ca8 O5 2.449914 1_565
Ca8 O4 2.470762 1_555
Ca8 O9 2.629123 1_565
Ca8 O12 2.651995 1_555
Ca8 Si12 3.056574 1_555
Ca8 Si12 3.128680 1_556
Ca9 O1 2.329181 1_555
Ca9 O4 2.449914 1_545
Ca9 O5 2.470762 1_555
Ca9 O8 2.629123 1_545
Ca9 O13 2.651995 1_555
Ca9 Si13 3.056574 1_555
Ca9 Si13 3.128680 1_556
Ca10 O0 2.329181 1_555
Ca10 O2 2.449914 1_455
Ca10 O3 2.470762 1_555
Ca10 O6 2.629123 1_455
Ca10 O11 2.651995 1_555
Ca10 Si14 3.056574 1_555
Ca10 Si14 3.128680 1_554
Ca11 O0 2.329181 1_655
Ca11 O3 2.449914 1_655
Ca11 O2 2.470762 1_555
Ca11 O7 2.629123 1_655
Ca11 O10 2.651995 1_555
Ca11 Si15 3.056574 1_555
Ca11 Si15 3.128680 1_554
Ca12 O16 2.405757 1_555
Ca13 O17 2.405757 1_555
Ca14 O15 2.405757 1_555
Ca15 O14 2.405757 1_555
Ca16 O28 2.309737 1_555
Ca16 Co5 3.542114 1_555
Ca16 Co5 3.558678 1_554
Ca17 O29 2.309737 1_555
Ca17 Co6 3.542114 1_555
Ca17 Co6 3.558678 1_554
Ca18 O27 2.309737 1_555
Ca18 Co7 3.542114 1_555
Ca18 Co7 3.558678 1_556
Ca19 O26 2.309737 1_555
Ca19 Co8 3.542114 1_555
Ca19 Co8 3.558678 1_556
Ca20 O20 2.315429 1_555
Ca20 Co7 3.526038 1_555
Ca20 Co7 3.587637 1_556
Ca21 O21 2.315429 1_555
Ca21 Co8 3.526038 1_555
Ca21 Co8 3.587637 1_556
Ca22 O19 2.315429 1_555
Ca22 Co6 3.526038 1_555
Ca22 Co6 3.587637 1_554
Ca23 O18 2.315429 1_555
Ca23 Co5 3.526038 1_555
Ca23 Co5 3.587637 1_554
Ca24 O21 2.287795 1_555
Ca25 O20 2.287795 1_555
Ca26 O18 2.287795 1_555
Ca27 O19 2.287795 1_555
Ca28 O29 2.372763 1_555
Ca28 Co8 3.621944 1_556
Ca28 Co8 3.664600 1_555
Ca29 O28 2.372763 1_555
Ca29 Co7 3.621944 1_556
Ca29 Co7 3.664600 1_555
Ca30 O26 2.372763 1_555
Ca30 Co5 3.621944 1_554
Ca30 Co5 3.664600 1_555
Ca31 O27 2.372763 1_555
Ca31 Co6 3.621944 1_554
Ca31 Co6 3.664600 1_555
Ca32 O24 2.418947 1_555
Ca32 Co6 3.292888 1_555
Ca32 Co6 3.443194 1_554
Ca33 O25 2.418947 1_555
Ca33 Co5 3.292888 1_555
Ca33 Co5 3.443194 1_554
Ca34 O23 2.418947 1_555
Ca34 Co8 3.292888 1_555
Ca34 Co8 3.443194 1_556
Ca35 O22 2.418947 1_555
Ca35 Co7 3.292888 1_555
Ca35 Co7 3.443194 1_556
Co0 Si6 2.657744 1_545
Co0 Si5 2.657744 1_554
Co0 Si4 2.657744 1_444
Co0 Si7 2.657744 1_455
Co1 O9 2.007825 1_565
Co2 O8 2.007825 1_545
Co3 O6 2.007825 1_455
Co4 O7 2.007825 1_655
Co5 Si27 2.392116 1_555
Co5 Si34 2.474887 1_556
Co5 Si17 2.632934 1_555
Co5 Si28 3.124082 1_555
Co6 Si26 2.392116 1_555
Co6 Si35 2.474887 1_556
Co6 Si16 2.632934 1_555
Co6 Si29 3.124082 1_555
Co7 Si24 2.392116 1_555
Co7 Si33 2.474887 1_554
Co7 Si19 2.632934 1_555
Co7 Si30 3.124082 1_555
Co8 Si25 2.392116 1_555
Co8 Si32 2.474887 1_554
Co8 Si18 2.632934 1_555
Co8 Si31 3.124082 1_555
Co9 Si23 2.376748 1_556
Co9 Si17 2.531647 1_555
Co9 Si11 2.586787 1_556
Co9 Si4 2.651945 1_555
Co10 Si22 2.376748 1_556
Co10 Si16 2.531647 1_555
Co10 Si10 2.586787 1_556
Co10 Si5 2.651945 1_555
Co11 Si20 2.376748 1_554
Co11 Si19 2.531647 1_555
Co11 Si8 2.586787 1_554
Co11 Si6 2.651945 1_555
Co12 Si21 2.376748 1_554
Co12 Si18 2.531647 1_555
Co12 Si9 2.586787 1_554
Co12 Si7 2.651945 1_555
Co13 O12 2.038945 1_554
Co14 O13 2.038945 1_554
Co15 O11 2.038945 1_556
Co16 O10 2.038945 1_556
Co17 Si29 2.418789 1_554
Co17 Si31 2.418789 1_555
Co17 Si28 2.418789 1_554
Co17 Si30 2.418789 1_555
O0 Si0 1.660581 1_455
O0 Si1 1.660581 1_555
O1 Si2 1.660581 1_545
O1 Si3 1.660581 1_555
O2 Si0 1.604561 1_556
O3 Si1 1.604561 1_556
O4 Si2 1.604561 1_554
O5 Si3 1.604561 1_554
O6 Si0 1.632127 1_555
O7 Si1 1.632127 1_555
O8 Si2 1.632127 1_555
O9 Si3 1.632127 1_555
O10 Si0 1.623433 1_555
O11 Si1 1.623433 1_555
O12 Si2 1.623433 1_555
O13 Si3 1.623433 1_555
O14 Si4 1.784243 1_554
O14 Si8 1.797125 1_654
O15 Si5 1.784243 1_554
O15 Si9 1.797125 1_454
O16 Si6 1.784243 1_556
O16 Si10 1.797125 1_566
O17 Si7 1.784243 1_556
O17 Si11 1.797125 1_546
O18 Si17 1.766977 1_554
O18 Si12 1.796787 1_555
O19 Si16 1.766977 1_554
O19 Si13 1.796787 1_555
O20 Si19 1.766977 1_556
O20 Si14 1.796787 1_555
O21 Si18 1.766977 1_556
O21 Si15 1.796787 1_555
O22 Si20 1.793386 1_554
O22 Si24 1.856940 1_555
O23 Si21 1.793386 1_554
O23 Si25 1.856940 1_555
O24 Si22 1.793386 1_556
O24 Si26 1.856940 1_555
O25 Si23 1.793386 1_556
O25 Si27 1.856940 1_555
O26 Si28 1.770826 1_554
O26 Si32 1.802394 1_554
O27 Si29 1.770826 1_554
O27 Si33 1.802394 1_554
O28 Si30 1.770826 1_556
O28 Si34 1.802394 1_556
O29 Si31 1.770826 1_556
O29 Si35 1.802394 1_556
