# generated using pymatgen
data_Sr2TaNO3
_symmetry_space_group_name_H-M   'P 1'
_cell_length_a   6.99404257
_cell_length_b   6.99404257
_cell_length_c   6.99404257
_cell_angle_alpha   146.46848131
_cell_angle_beta   146.00246969
_cell_angle_gamma   48.49818692
_symmetry_Int_Tables_number   1
_chemical_formula_structural   Sr2TaNO3
_chemical_formula_sum   'Sr2 Ta1 N1 O3'
_cell_volume   105.22506203
_cell_formula_units_Z   1
loop_
 _symmetry_equiv_pos_site_id
 _symmetry_equiv_pos_as_xyz
  1  'x, y, z'
loop_
 _atom_site_type_symbol
 _atom_site_label
 _atom_site_symmetry_multiplicity
 _atom_site_fract_x
 _atom_site_fract_y
 _atom_site_fract_z
 _atom_site_occupancy
  Sr  Sr0  1  0.64476600  0.64476600  0.00000000  1
  Sr  Sr1  1  0.35523400  0.35523400  0.00000000  1
  Ta  Ta0  1  0.00000000  0.00000000  0.00000000  1
  N  N0  1  0.50000000  0.00000000  0.50000000  1
  O  O0  1  0.83917700  0.83917700  0.00000000  1
  O  O1  1  0.16082300  0.16082300  0.00000000  1
  O  O2  1  0.00000000  0.50000000  0.50000000  1
loop_
_geom_bond_atom_site_label_1
_geom_bond_atom_site_label_2
_geom_bond_distance
_geom_bond_site_symmetry_2
N0 Ta0 2.044716 1_656
N0 Ta0 2.044716 1_555
N0 Sr1 2.734820 1_545
N0 Sr0 2.734820 1_556
N0 Sr0 2.734820 1_545
N0 Sr1 2.734820 1_556
O0 Ta0 2.051120 1_665
O0 Sr0 2.479498 1_555
O0 Sr1 2.879775 1_655
O0 Sr1 2.879775 1_554
O0 Sr1 2.879775 1_565
O0 Sr1 2.879775 1_666
O1 Ta0 2.051120 1_555
O1 Sr1 2.479498 1_555
O1 Sr0 2.879775 1_556
O1 Sr0 2.879775 1_444
O1 Sr0 2.879775 1_545
O1 Sr0 2.879775 1_455
O2 Ta0 2.017499 1_566
O2 Ta0 2.017499 1_555
O2 Sr0 2.754959 1_455
O2 Sr0 2.754959 1_556
O2 Sr1 2.754959 1_455
O2 Sr1 2.754959 1_556
