# generated using pymatgen
data_CrGa2N3
_symmetry_space_group_name_H-M   'P 1'
_cell_length_a   5.58138154
_cell_length_b   5.61158982
_cell_length_c   5.21048100
_cell_angle_alpha   90.00000000
_cell_angle_beta   90.00000000
_cell_angle_gamma   120.17919938
_symmetry_Int_Tables_number   1
_chemical_formula_structural   CrGa2N3
_chemical_formula_sum   'Cr2 Ga4 N6'
_cell_volume   141.07466369
_cell_formula_units_Z   2
loop_
 _symmetry_equiv_pos_site_id
 _symmetry_equiv_pos_as_xyz
  1  'x, y, z'
loop_
 _atom_site_type_symbol
 _atom_site_label
 _atom_site_symmetry_multiplicity
 _atom_site_fract_x
 _atom_site_fract_y
 _atom_site_fract_z
 _atom_site_occupancy
  Cr  Cr0  1  0.00000000  0.65287300  0.49170200  1
  Cr  Cr1  1  0.00000000  0.34712700  0.99170200  1
  Ga  Ga0  1  0.33633600  0.33048600  0.49490600  1
  Ga  Ga1  1  0.66366400  0.99415000  0.49490600  1
  Ga  Ga2  1  0.66366400  0.66951400  0.99490600  1
  Ga  Ga3  1  0.33633600  0.00585000  0.99490600  1
  N  N0  1  0.33299700  0.33395200  0.87151500  1
  N  N1  1  0.66700300  0.00095500  0.87151500  1
  N  N2  1  0.66700300  0.66604800  0.37151500  1
  N  N3  1  0.33299700  0.99904500  0.37151500  1
  N  N4  1  0.00000000  0.67399100  0.86345600  1
  N  N5  1  0.00000000  0.32600900  0.36345600  1
loop_
_geom_bond_atom_site_label_1
_geom_bond_atom_site_label_2
_geom_bond_distance
_geom_bond_site_symmetry_2
Cr0 N4 1.940639 1_555
Cr0 N5 1.952155 1_555
Cr0 N2 1.997528 1_455
Cr0 N3 1.997528 1_555
Cr1 N5 1.940639 1_556
Cr1 N4 1.952155 1_555
Cr1 N0 1.997528 1_555
Cr1 N1 1.997528 1_455
Ga0 N3 1.959112 1_545
Ga0 N0 1.962592 1_555
Ga0 N2 1.967547 1_555
Ga0 N5 1.986525 1_555
Ga1 N2 1.959112 1_555
Ga1 N1 1.962592 1_565
Ga1 N3 1.967547 1_555
Ga1 N5 1.986525 1_665
Ga2 N1 1.959112 1_565
Ga2 N2 1.962592 1_556
Ga2 N0 1.967547 1_555
Ga2 N4 1.986525 1_655
Ga3 N0 1.959112 1_555
Ga3 N3 1.962592 1_546
Ga3 N1 1.967547 1_555
Ga3 N4 1.986525 1_545
