# generated using pymatgen
data_In2P3H3O10
_symmetry_space_group_name_H-M   'P 1'
_cell_length_a   6.71944625
_cell_length_b   7.55427715
_cell_length_c   10.46683100
_cell_angle_alpha   90.00000000
_cell_angle_beta   90.00000000
_cell_angle_gamma   108.44686297
_symmetry_Int_Tables_number   1
_chemical_formula_structural   In2P3H3O10
_chemical_formula_sum   'In4 P6 H6 O20'
_cell_volume   504.00257132
_cell_formula_units_Z   2
loop_
 _symmetry_equiv_pos_site_id
 _symmetry_equiv_pos_as_xyz
  1  'x, y, z'
loop_
 _atom_site_type_symbol
 _atom_site_label
 _atom_site_symmetry_multiplicity
 _atom_site_fract_x
 _atom_site_fract_y
 _atom_site_fract_z
 _atom_site_occupancy
  In  In0  1  0.92832500  0.46897100  0.98463100  1
  In  In1  1  0.07167500  0.53102900  0.48463100  1
  In  In2  1  0.67714500  0.75440800  0.81987200  1
  In  In3  1  0.32285500  0.24559200  0.31987200  1
  P  P0  1  0.80539500  0.19003900  0.70805300  1
  P  P1  1  0.19460500  0.80996100  0.20805300  1
  P  P2  1  0.59372800  0.60027900  0.52074600  1
  P  P3  1  0.40627200  0.39972100  0.02074600  1
  P  P4  1  0.19905700  0.80667600  0.76490400  1
  P  P5  1  0.80094300  0.19332400  0.26490400  1
  H  H0  1  0.19925800  0.99243500  0.75774800  1
  H  H1  1  0.80074200  0.00756500  0.25774800  1
  H  H2  1  0.59618700  0.78352800  0.49442900  1
  H  H3  1  0.40381300  0.21647200  0.99442900  1
  H  H4  1  0.61345400  0.18422200  0.65044000  1
  H  H5  1  0.38654600  0.81577800  0.15044000  1
  O  O0  1  0.81768800  0.99005400  0.70419500  1
  O  O1  1  0.18231200  0.00994600  0.20419500  1
  O  O2  1  0.38764700  0.80626500  0.84635600  1
  O  O3  1  0.61235300  0.19373500  0.34635600  1
  O  O4  1  0.79442400  0.25661300  0.84580200  1
  O  O5  1  0.20557600  0.74338700  0.34580200  1
  O  O6  1  0.20150000  0.73733900  0.62812100  1
  O  O7  1  0.79850000  0.26266100  0.12812100  1
  O  O8  1  0.59182800  0.56808900  0.66482900  1
  O  O9  1  0.40817200  0.43191100  0.16482900  1
  O  O10  1  0.98926500  0.69972900  0.83750500  1
  O  O11  1  0.01073500  0.30027100  0.33750500  1
  O  O12  1  0.77727100  0.56785300  0.45059900  1
  O  O13  1  0.22272900  0.43214700  0.95059900  1
  O  O14  1  0.98585700  0.31913700  0.62824900  1
  O  O15  1  0.01414300  0.68086300  0.12824900  1
  O  O16  1  0.80651100  0.91279200  0.00334700  1
  O  O17  1  0.19348900  0.08720800  0.50334700  1
  O  O18  1  0.61974400  0.52818700  0.96205400  1
  O  O19  1  0.38025600  0.47181300  0.46205400  1
loop_
_geom_bond_atom_site_label_1
_geom_bond_atom_site_label_2
_geom_bond_distance
_geom_bond_site_symmetry_2
In0 O13 2.113274 1_655
In0 O15 2.137821 1_656
In0 O4 2.140347 1_555
In0 O7 2.141318 1_556
In0 O10 2.264099 1_555
In0 O18 2.267669 1_555
In1 O12 2.113274 1_455
In1 O14 2.137821 1_455
In1 O5 2.140347 1_555
In1 O6 2.141318 1_555
In1 O11 2.264099 1_555
In1 O19 2.267669 1_555
In2 O8 2.105371 1_555
In2 O0 2.112533 1_555
In2 O2 2.120524 1_555
In2 O18 2.206086 1_555
In2 O10 2.269686 1_555
In2 O16 2.284059 1_556
In3 O9 2.105371 1_555
In3 O1 2.112533 1_555
In3 O3 2.120524 1_555
In3 O19 2.206086 1_555
In3 O11 2.269686 1_555
In3 O17 2.284059 1_555
H0 P4 1.404846 1_555
H1 P5 1.404846 1_555
H2 P2 1.406413 1_555
H3 P3 1.406413 1_556
H4 P0 1.411781 1_555
H5 P1 1.411781 1_555
O0 P0 1.539405 1_565
O1 P1 1.539405 1_545
O2 P4 1.528129 1_555
O3 P5 1.528129 1_555
O4 P0 1.536424 1_555
O5 P1 1.536424 1_555
O6 P4 1.526364 1_555
O7 P5 1.526364 1_555
O8 P2 1.526982 1_555
O9 P3 1.526982 1_555
O10 P4 1.580073 1_655
O11 P5 1.580073 1_455
O12 P2 1.520300 1_555
O13 P3 1.520300 1_556
O14 P0 1.539749 1_555
O15 P1 1.539749 1_555
O18 P3 1.579803 1_556
O19 P2 1.579803 1_555
