# generated using pymatgen
data_LaTe2
_symmetry_space_group_name_H-M   'P 1'
_cell_length_a   9.14824100
_cell_length_b   9.14824100
_cell_length_c   9.26458500
_cell_angle_alpha   90.00000000
_cell_angle_beta   90.00000000
_cell_angle_gamma   90.00000000
_symmetry_Int_Tables_number   1
_chemical_formula_structural   LaTe2
_chemical_formula_sum   'La8 Te16'
_cell_volume   775.35602212
_cell_formula_units_Z   8
loop_
 _symmetry_equiv_pos_site_id
 _symmetry_equiv_pos_as_xyz
  1  'x, y, z'
loop_
 _atom_site_type_symbol
 _atom_site_label
 _atom_site_symmetry_multiplicity
 _atom_site_fract_x
 _atom_site_fract_y
 _atom_site_fract_z
 _atom_site_occupancy
  La  La0  1  0.25684500  0.75684500  0.27365400  1
  La  La1  1  0.00000000  0.50000000  0.72718700  1
  La  La2  1  0.00000000  0.00000000  0.72617100  1
  La  La3  1  0.50000000  0.00000000  0.72718700  1
  La  La4  1  0.24315500  0.25684500  0.27365400  1
  La  La5  1  0.74315500  0.24315500  0.27365400  1
  La  La6  1  0.50000000  0.50000000  0.72617100  1
  La  La7  1  0.75684500  0.74315500  0.27365400  1
  Te  Te0  1  0.51421300  0.75194500  0.00030000  1
  Te  Te1  1  0.24805500  0.51421300  0.00030000  1
  Te  Te2  1  0.74982900  0.75017100  0.63378700  1
  Te  Te3  1  0.50000000  0.50000000  0.36646300  1
  Te  Te4  1  0.75017100  0.25017100  0.63378700  1
  Te  Te5  1  0.74805500  0.98578700  0.00030000  1
  Te  Te6  1  0.50000000  0.00000000  0.36682200  1
  Te  Te7  1  0.00000000  0.50000000  0.36682200  1
  Te  Te8  1  0.25194500  0.01421300  0.00030000  1
  Te  Te9  1  0.75194500  0.48578700  0.00030000  1
  Te  Te10  1  0.00000000  0.00000000  0.36646300  1
  Te  Te11  1  0.01421300  0.74805500  0.00030000  1
  Te  Te12  1  0.98578700  0.25194500  0.00030000  1
  Te  Te13  1  0.48578700  0.24805500  0.00030000  1
  Te  Te14  1  0.25017100  0.24982900  0.63378700  1
  Te  Te15  1  0.24982900  0.74982900  0.63378700  1
loop_
_geom_bond_atom_site_label_1
_geom_bond_atom_site_label_2
_geom_bond_distance
_geom_bond_site_symmetry_2
La0 Te6 3.262104 1_565
La0 Te15 3.337717 1_555
La0 Te10 3.347902 1_565
La0 Te3 3.347902 1_555
La0 Te1 3.368524 1_555
La0 Te11 3.368524 1_555
La0 Te7 3.433226 1_555
La0 Te8 3.458197 1_565
La0 Te0 3.458197 1_555
La1 Te7 3.338632 1_555
La1 Te15 3.346005 1_555
La1 Te4 3.346005 1_455
La1 Te14 3.350279 1_555
La1 Te2 3.350279 1_455
La1 Te9 3.401292 1_456
La1 Te12 3.401292 1_456
La1 Te11 3.401292 1_556
La1 Te1 3.401292 1_556
La2 Te10 3.332545 1_555
La2 Te4 3.345722 1_455
La2 Te14 3.345722 1_555
La2 Te2 3.345722 1_445
La2 Te15 3.345722 1_545
La2 Te11 3.432097 1_546
La2 Te8 3.432097 1_556
La2 Te12 3.432097 1_456
La2 Te5 3.432097 1_446
La3 Te6 3.338632 1_555
La3 Te2 3.346005 1_545
La3 Te14 3.346005 1_555
La3 Te4 3.350279 1_555
La3 Te15 3.350279 1_545
La3 Te5 3.401292 1_546
La3 Te8 3.401292 1_556
La3 Te13 3.401292 1_556
La3 Te0 3.401292 1_546
La4 Te7 3.262104 1_555
La4 Te14 3.337717 1_555
La4 Te3 3.347902 1_555
La4 Te10 3.347902 1_555
La4 Te8 3.368524 1_555
La4 Te13 3.368524 1_555
La4 Te6 3.433226 1_555
La4 Te12 3.458197 1_455
La4 Te1 3.458197 1_555
La5 Te6 3.262104 1_555
La5 Te4 3.337717 1_555
La5 Te3 3.347902 1_555
La5 Te10 3.347902 1_655
La5 Te12 3.368524 1_555
La5 Te9 3.368524 1_555
La5 Te7 3.433226 1_655
La5 Te13 3.458197 1_555
La5 Te5 3.458197 1_545
La6 Te3 3.332545 1_555
La6 Te14 3.345722 1_555
La6 Te2 3.345722 1_555
La6 Te15 3.345722 1_555
La6 Te4 3.345722 1_555
La6 Te9 3.432097 1_556
La6 Te13 3.432097 1_556
La6 Te0 3.432097 1_556
La6 Te1 3.432097 1_556
La7 Te7 3.262104 1_655
La7 Te2 3.337717 1_555
La7 Te3 3.347902 1_555
La7 Te10 3.347902 1_665
La7 Te0 3.368524 1_555
La7 Te5 3.368524 1_555
La7 Te6 3.433226 1_565
La7 Te11 3.458197 1_655
La7 Te9 3.458197 1_555
Te0 Te5 3.025346 1_555
Te0 Te9 3.264738 1_555
Te0 Te1 3.264738 1_555
Te0 Te8 3.393110 1_565
Te1 Te11 3.025346 1_555
Te1 Te13 3.264738 1_555
Te1 Te12 3.393110 1_455
Te11 Te5 3.264738 1_455
Te11 Te8 3.264738 1_565
Te11 Te9 3.393110 1_455
Te12 Te9 3.025346 1_555
Te12 Te5 3.264738 1_545
Te12 Te8 3.264738 1_655
Te13 Te8 3.025346 1_555
Te13 Te9 3.264738 1_555
Te13 Te5 3.393110 1_545
