# generated using pymatgen
data_MgCo12(BO5)4
_symmetry_space_group_name_H-M   'P 1'
_cell_length_a   3.06687771
_cell_length_b   9.35207013
_cell_length_c   12.90237023
_cell_angle_alpha   88.33736202
_cell_angle_beta   90.00000000
_cell_angle_gamma   90.00000000
_symmetry_Int_Tables_number   1
_chemical_formula_structural   MgCo12(BO5)4
_chemical_formula_sum   'Mg1 Co12 B4 O20'
_cell_volume   369.90553860
_cell_formula_units_Z   1
loop_
 _symmetry_equiv_pos_site_id
 _symmetry_equiv_pos_as_xyz
  1  'x, y, z'
loop_
 _atom_site_type_symbol
 _atom_site_label
 _atom_site_symmetry_multiplicity
 _atom_site_fract_x
 _atom_site_fract_y
 _atom_site_fract_z
 _atom_site_occupancy
  Mg  Mg0  1  -0.00000000  0.33455256  0.44740586  1
  Co  Co0  1  0.50000000  0.75379022  0.36858096  1
  Co  Co1  1  0.50000000  0.24058290  0.64077638  1
  Co  Co2  1  0.50000000  0.24936404  0.10523562  1
  Co  Co3  1  0.50000000  0.74655450  0.89042265  1
  Co  Co4  1  -0.00000000  0.97983495  0.21392022  1
  Co  Co5  1  -0.00000000  0.00989060  0.78225787  1
  Co  Co6  1  0.00000000  0.49946460  0.25996192  1
  Co  Co7  1  0.00000000  0.50902950  0.73378086  1
  Co  Co8  1  -0.00000000  0.98457524  0.50370210  1
  Co  Co9  1  -0.00000000  0.49791208  0.99900221  1
  Co  Co10  1  0.50000000  0.55748976  0.52398482  1
  Co  Co11  1  0.50000000  0.99758915  0.99627893  1
  B  B0  1  0.50000000  0.71894009  0.13284278  1
  B  B1  1  0.50000000  0.27996796  0.86504624  1
  B  B2  1  0.50000000  0.19994656  0.33726358  1
  B  B3  1  0.50000000  0.78764527  0.65461184  1
  O  O0  1  0.50000000  0.86678990  0.13512017  1
  O  O1  1  0.50000000  0.13170707  0.86086681  1
  O  O2  1  0.50000000  0.35198391  0.33687855  1
  O  O3  1  0.50000000  0.63804984  0.66195585  1
  O  O4  1  0.50000000  0.85034752  0.55620867  1
  O  O5  1  0.50000000  0.14995035  0.44093565  1
  O  O6  1  0.50000000  0.35030873  0.95787719  1
  O  O7  1  0.50000000  0.64635318  0.04166435  1
  O  O8  1  0.50000000  0.64178488  0.22766568  1
  O  O9  1  0.50000000  0.35939336  0.77233997  1
  O  O10  1  0.50000000  0.12582574  0.25013194  1
  O  O11  1  0.50000000  0.86151951  0.74541843  1
  O  O12  1  0.00000000  0.57805575  0.41676895  1
  O  O13  1  -0.00000000  0.40303976  0.58698416  1
  O  O14  1  -0.00000000  0.11179179  0.07370171  1
  O  O15  1  -0.00000000  0.89115459  0.92425317  1
  O  O16  1  0.00000000  0.88487127  0.35978549  1
  O  O17  1  0.00000000  0.10987291  0.63842012  1
  O  O18  1  0.00000000  0.37552921  0.13791674  1
  O  O19  1  0.00000000  0.61739874  0.86447556  1
loop_
_geom_bond_atom_site_label_1
_geom_bond_atom_site_label_2
_geom_bond_distance
_geom_bond_site_symmetry_2
Mg0 O13 1.928828 1_555
Mg0 O2 2.097184 1_455
Mg0 O2 2.097184 1_555
Mg0 O12 2.299984 1_555
Mg0 O5 2.312416 1_455
Mg0 O5 2.312416 1_555
Co0 O16 1.964439 1_555
Co0 O16 1.964439 1_655
Co0 O8 2.124469 1_555
Co0 O12 2.319424 1_655
Co0 O12 2.319424 1_555
Co0 O4 2.608210 1_555
Co1 O17 1.961836 1_655
Co1 O17 1.961836 1_555
Co1 O9 2.055600 1_555
Co1 O13 2.253939 1_555
Co1 O13 2.253939 1_655
Co2 O18 1.987532 1_555
Co2 O18 1.987532 1_655
Co2 O14 2.050036 1_655
Co2 O14 2.050036 1_555
Co2 O6 2.098070 1_554
Co2 O10 2.168991 1_555
Co3 O19 1.986438 1_555
Co3 O19 1.986438 1_655
Co3 O15 2.098799 1_655
Co3 O15 2.098799 1_555
Co3 O11 2.130611 1_555
Co3 O7 2.140069 1_556
Co4 O16 2.057595 1_555
Co4 O10 2.114434 1_565
Co4 O10 2.114434 1_465
Co4 O0 2.136629 1_455
Co4 O0 2.136629 1_555
Co4 O14 2.160185 1_565
Co5 O17 2.053723 1_555
Co5 O15 2.114592 1_545
Co5 O11 2.130963 1_545
Co5 O11 2.130963 1_445
Co5 O1 2.178309 1_555
Co5 O1 2.178309 1_455
Co6 O18 1.982147 1_555
Co6 O8 2.065047 1_555
Co6 O8 2.065047 1_455
Co6 O12 2.172502 1_555
Co6 O2 2.271389 1_455
Co6 O2 2.271389 1_555
Co7 O19 1.992440 1_555
Co7 O9 2.125297 1_555
Co7 O9 2.125297 1_455
Co7 O3 2.145051 1_555
Co7 O3 2.145051 1_455
Co7 O13 2.163053 1_555
Co8 O4 2.082506 1_555
Co8 O4 2.082506 1_455
Co8 O16 2.101871 1_555
Co8 O17 2.124280 1_565
Co8 O5 2.307934 1_565
Co8 O5 2.307934 1_465
Co9 O19 2.036869 1_555
Co9 O18 2.098417 1_556
Co9 O6 2.140323 1_455
Co9 O6 2.140323 1_555
Co9 O7 2.150802 1_456
Co9 O7 2.150802 1_556
Co10 O3 1.953046 1_555
Co10 O12 2.070414 1_655
Co10 O12 2.070414 1_555
Co10 O13 2.242852 1_555
Co10 O13 2.242852 1_655
Co11 O15 2.063857 1_555
Co11 O15 2.063857 1_655
Co11 O1 2.120977 1_565
Co11 O14 2.133521 1_666
Co11 O14 2.133521 1_566
Co11 O0 2.139676 1_556
B0 O7 1.375181 1_555
B0 O0 1.383866 1_555
B0 O8 1.402223 1_555
B1 O6 1.383128 1_555
B1 O1 1.389157 1_555
B1 O9 1.389572 1_555
B2 O10 1.337744 1_555
B2 O5 1.404116 1_555
B2 O2 1.421728 1_555
B3 O11 1.377308 1_555
B3 O4 1.382978 1_555
B3 O3 1.399486 1_555
