# generated using pymatgen
data_LiMnF3
_symmetry_space_group_name_H-M   'P 1'
_cell_length_a   6.78793601
_cell_length_b   6.78793601
_cell_length_c   5.57183412
_cell_angle_alpha   82.68957354
_cell_angle_beta   82.68957354
_cell_angle_gamma   85.85145478
_symmetry_Int_Tables_number   1
_chemical_formula_structural   LiMnF3
_chemical_formula_sum   'Li4 Mn4 F12'
_cell_volume   252.15975649
_cell_formula_units_Z   4
loop_
 _symmetry_equiv_pos_site_id
 _symmetry_equiv_pos_as_xyz
  1  'x, y, z'
loop_
 _atom_site_type_symbol
 _atom_site_label
 _atom_site_symmetry_multiplicity
 _atom_site_fract_x
 _atom_site_fract_y
 _atom_site_fract_z
 _atom_site_occupancy
  Li  Li0  1  0.78244700  0.60505200  0.70577400  1
  Li  Li1  1  0.60505200  0.78244700  0.20577400  1
  Li  Li2  1  0.39494800  0.21755300  0.79422600  1
  Li  Li3  1  0.21755300  0.39494800  0.29422600  1
  Mn  Mn0  1  0.90427700  0.09572300  0.75000000  1
  Mn  Mn1  1  0.29728700  0.70271300  0.75000000  1
  Mn  Mn2  1  0.70271300  0.29728700  0.25000000  1
  Mn  Mn3  1  0.09572300  0.90427700  0.25000000  1
  F  F0  1  0.98201000  0.80230700  0.62593100  1
  F  F1  1  0.80230700  0.98201000  0.12593100  1
  F  F2  1  0.56183400  0.71313300  0.89818900  1
  F  F3  1  0.86069800  0.36674600  0.89612600  1
  F  F4  1  0.71313300  0.56183400  0.39818900  1
  F  F5  1  0.36674600  0.86069800  0.39612600  1
  F  F6  1  0.63325400  0.13930200  0.60387400  1
  F  F7  1  0.28686700  0.43816600  0.60181100  1
  F  F8  1  0.13930200  0.63325400  0.10387400  1
  F  F9  1  0.43816600  0.28686700  0.10181100  1
  F  F10  1  0.19769300  0.01799000  0.87406900  1
  F  F11  1  0.01799000  0.19769300  0.37406900  1
loop_
_geom_bond_atom_site_label_1
_geom_bond_atom_site_label_2
_geom_bond_distance
_geom_bond_site_symmetry_2
F0 Li0 1.945040 1_555
F0 Mn3 2.181563 1_655
F0 Mn0 2.197415 1_565
F0 Mn1 2.358621 1_655
F1 Li1 1.945040 1_555
F1 Mn0 2.181563 1_564
F1 Mn3 2.197415 1_655
F1 Mn2 2.358621 1_565
F2 Li0 1.887539 1_555
F2 Li1 1.896763 1_556
F2 Mn1 2.078935 1_555
F3 Li0 1.898977 1_555
F3 Mn0 2.091893 1_555
F3 Mn2 2.135062 1_556
F4 Li1 1.887539 1_555
F4 Li0 1.896763 1_555
F4 Mn2 2.078935 1_555
F5 Li1 1.898977 1_555
F5 Mn3 2.091893 1_555
F5 Mn1 2.135062 1_555
F6 Li2 1.898977 1_555
F6 Mn0 2.091893 1_555
F6 Mn2 2.135062 1_555
F7 Li2 1.887539 1_555
F7 Li3 1.896763 1_555
F7 Mn1 2.078935 1_555
F8 Li3 1.898977 1_555
F8 Mn3 2.091893 1_555
F8 Mn1 2.135062 1_554
F9 Li3 1.887539 1_555
F9 Li2 1.896763 1_554
F9 Mn2 2.078935 1_555
F10 Li2 1.945040 1_555
F10 Mn3 2.181563 1_546
F10 Mn0 2.197415 1_455
F10 Mn1 2.358621 1_545
F11 Li3 1.945040 1_555
F11 Mn0 2.181563 1_455
F11 Mn3 2.197415 1_545
F11 Mn2 2.358621 1_455
