# generated using pymatgen
data_Li3Eu
_symmetry_space_group_name_H-M   'P 1'
_cell_length_a   6.92444501
_cell_length_b   6.92444501
_cell_length_c   5.39132900
_cell_angle_alpha   90.00000000
_cell_angle_beta   90.00000000
_cell_angle_gamma   119.99999054
_symmetry_Int_Tables_number   1
_chemical_formula_structural   Li3Eu
_chemical_formula_sum   'Li6 Eu2'
_cell_volume   223.87028362
_cell_formula_units_Z   2
loop_
 _symmetry_equiv_pos_site_id
 _symmetry_equiv_pos_as_xyz
  1  'x, y, z'
loop_
 _atom_site_type_symbol
 _atom_site_label
 _atom_site_symmetry_multiplicity
 _atom_site_fract_x
 _atom_site_fract_y
 _atom_site_fract_z
 _atom_site_occupancy
  Li  Li0  1  0.14520900  0.29041700  0.25000000  1
  Li  Li1  1  0.70958300  0.85479100  0.25000000  1
  Li  Li2  1  0.14520900  0.85479100  0.25000000  1
  Li  Li3  1  0.85479100  0.70958300  0.75000000  1
  Li  Li4  1  0.29041700  0.14520900  0.75000000  1
  Li  Li5  1  0.85479100  0.14520900  0.75000000  1
  Eu  Eu0  1  0.33333300  0.66666700  0.75000000  1
  Eu  Eu1  1  0.66666700  0.33333300  0.25000000  1
loop_
_geom_bond_atom_site_label_1
_geom_bond_atom_site_label_2
_geom_bond_distance
_geom_bond_site_symmetry_2
Li0 Li2 3.016468 1_545
Li0 Li1 3.016469 1_445
Li0 Li4 3.209300 1_554
Li0 Li4 3.209300 1_555
Li0 Li5 3.209307 1_454
Li0 Li5 3.209307 1_455
Li1 Li2 3.016468 1_655
Li1 Li3 3.209300 1_554
Li1 Li3 3.209300 1_555
Li1 Li5 3.209307 1_565
Li1 Li5 3.209307 1_564
Li2 Li4 3.209307 1_564
Li2 Li4 3.209307 1_565
Li2 Li3 3.209307 1_455
Li2 Li3 3.209307 1_454
Li3 Li5 3.016468 1_565
Li3 Li4 3.016469 1_665
Li4 Li5 3.016468 1_455
Eu0 Li4 3.471774 1_565
Eu0 Li3 3.471774 1_455
Eu0 Li3 3.471774 1_555
Eu0 Li4 3.471774 1_555
Eu0 Li5 3.471775 1_455
Eu0 Li5 3.471775 1_565
Eu0 Li2 3.515300 1_556
Eu0 Li2 3.515300 1_555
Eu0 Li1 3.515307 1_555
Eu0 Li1 3.515307 1_556
Eu0 Li0 3.515307 1_556
Eu0 Li0 3.515307 1_555
Eu1 Li0 3.471774 1_655
Eu1 Li1 3.471774 1_545
Eu1 Li0 3.471774 1_555
Eu1 Li1 3.471774 1_555
Eu1 Li2 3.471775 1_545
Eu1 Li2 3.471775 1_655
Eu1 Li5 3.515300 1_554
Eu1 Li5 3.515300 1_555
Eu1 Li4 3.515307 1_555
Eu1 Li3 3.515307 1_554
Eu1 Li4 3.515307 1_554
Eu1 Li3 3.515307 1_555
