# generated using pymatgen
data_NaP2PtO9
_symmetry_space_group_name_H-M   'P 1'
_cell_length_a   7.80126428
_cell_length_b   7.79347553
_cell_length_c   12.53768296
_cell_angle_alpha   86.30045828
_cell_angle_beta   84.90367204
_cell_angle_gamma   67.93817735
_symmetry_Int_Tables_number   1
_chemical_formula_structural   NaP2PtO9
_chemical_formula_sum   'Na4 P8 Pt4 O36'
_cell_volume   703.26963743
_cell_formula_units_Z   4
loop_
 _symmetry_equiv_pos_site_id
 _symmetry_equiv_pos_as_xyz
  1  'x, y, z'
loop_
 _atom_site_type_symbol
 _atom_site_label
 _atom_site_symmetry_multiplicity
 _atom_site_fract_x
 _atom_site_fract_y
 _atom_site_fract_z
 _atom_site_occupancy
  Na  Na0  1  0.12668400  0.15114000  0.59805300  1
  Na  Na1  1  0.87331600  0.84886000  0.40194700  1
  Na  Na2  1  0.39436800  0.36394500  0.85657600  1
  Na  Na3  1  0.60563200  0.63605500  0.14342400  1
  P  P0  1  0.87151600  0.29850300  0.84844100  1
  P  P1  1  0.12848400  0.70149700  0.15155900  1
  P  P2  1  0.63846700  0.12021100  0.09985500  1
  P  P3  1  0.36153300  0.87978900  0.90014500  1
  P  P4  1  0.18883600  0.64420700  0.64670000  1
  P  P5  1  0.81116400  0.35579300  0.35330000  1
  P  P6  1  0.39581700  0.86061100  0.40034700  1
  P  P7  1  0.60418300  0.13938900  0.59965300  1
  Pt  Pt0  1  0.04725000  0.10892200  0.05838300  1
  Pt  Pt1  1  0.95275000  0.89107800  0.94161700  1
  Pt  Pt2  1  0.39224600  0.46292900  0.43533300  1
  Pt  Pt3  1  0.60775400  0.53707100  0.56466700  1
  O  O0  1  0.18174900  0.88277500  0.14426300  1
  O  O1  1  0.81825100  0.11722500  0.85573700  1
  O  O2  1  0.91396500  0.33055000  0.96656400  1
  O  O3  1  0.08603500  0.66945000  0.03343600  1
  O  O4  1  0.80841300  0.15068700  0.14681200  1
  O  O5  1  0.19158700  0.84931300  0.85318800  1
  O  O6  1  0.27854300  0.06886700  0.96258400  1
  O  O7  1  0.72145700  0.93113300  0.03741600  1
  O  O8  1  0.18608700  0.51688000  0.55140100  1
  O  O9  1  0.81391300  0.48312000  0.44859900  1
  O  O10  1  0.59925500  0.42120300  0.32361000  1
  O  O11  1  0.40074500  0.57879700  0.67639000  1
  O  O12  1  0.28283200  0.72946100  0.38727700  1
  O  O13  1  0.71716800  0.27053900  0.61272300  1
  O  O14  1  0.50554400  0.20303500  0.48846300  1
  O  O15  1  0.49445600  0.79696500  0.51153700  1
  O  O16  1  0.13130600  0.25776800  0.14787400  1
  O  O17  1  0.86869400  0.74223200  0.85212600  1
  O  O18  1  0.24655000  0.39807900  0.33598900  1
  O  O19  1  0.75345000  0.60192100  0.66401100  1
  O  O20  1  0.04123200  0.25444000  0.77190300  1
  O  O21  1  0.95876800  0.74556000  0.22809700  1
  O  O22  1  0.69540600  0.46051300  0.82141200  1
  O  O23  1  0.30459400  0.53948700  0.17858800  1
  O  O24  1  0.54359400  0.27974900  0.02267200  1
  O  O25  1  0.45640600  0.72025100  0.97732800  1
  O  O26  1  0.50442900  0.10107300  0.19148400  1
  O  O27  1  0.49557100  0.89892700  0.80851600  1
  O  O28  1  0.09459100  0.58073300  0.74488000  1
  O  O29  1  0.90540900  0.41926700  0.25512000  1
  O  O30  1  0.12271300  0.84500000  0.61014500  1
  O  O31  1  0.87728700  0.15500000  0.38985500  1
  O  O32  1  0.26113400  0.05636100  0.41251300  1
  O  O33  1  0.73886600  0.94363900  0.58748700  1
  O  O34  1  0.55320700  0.81635500  0.31235000  1
  O  O35  1  0.44679300  0.18364500  0.68765000  1
loop_
_geom_bond_atom_site_label_1
_geom_bond_atom_site_label_2
_geom_bond_distance
_geom_bond_site_symmetry_2
Na0 O20 2.325652 1_555
Na0 O30 2.392582 1_545
Na0 O32 2.502681 1_555
Na1 O21 2.325652 1_555
Na1 O31 2.392582 1_565
Na1 O33 2.502681 1_555
Na2 O24 2.408936 1_556
Na2 O35 2.534931 1_555
Na2 O22 2.716082 1_555
Na2 O11 2.732085 1_555
Na2 O28 2.755579 1_555
Na2 O6 2.970637 1_555
Na3 O25 2.408936 1_554
Na3 O34 2.534931 1_555
Na3 O23 2.716082 1_555
Na3 O10 2.732085 1_555
Na3 O29 2.755579 1_555
Na3 O7 2.970637 1_555
O0 P1 1.610769 1_555
O0 Pt0 1.983235 1_565
O1 P0 1.610769 1_555
O1 Pt1 1.983235 1_545
O2 P0 1.600740 1_555
O2 Pt0 1.999179 1_656
O3 P1 1.600740 1_555
O3 Pt1 1.999179 1_454
O4 P2 1.598129 1_555
O4 Pt0 2.007674 1_655
O5 P3 1.598129 1_555
O5 Pt1 2.007674 1_455
O6 P3 1.595482 1_545
O6 Pt0 2.009000 1_556
O7 P2 1.595482 1_565
O7 Pt1 2.009000 1_554
O8 P4 1.608204 1_555
O8 Pt2 2.009044 1_555
O9 P5 1.608204 1_555
O9 Pt3 2.009044 1_555
O10 P5 1.607213 1_555
O10 Pt2 1.984498 1_555
O11 P4 1.607213 1_555
O11 Pt3 1.984498 1_555
O12 P6 1.603914 1_555
O12 Pt2 2.001082 1_555
O13 P7 1.603914 1_555
O13 Pt3 2.001082 1_555
O14 P7 1.611278 1_555
O14 Pt2 1.978163 1_555
O15 P6 1.611278 1_555
O15 Pt3 1.978163 1_555
O16 Pt0 1.976027 1_555
O17 Pt1 1.976027 1_555
O18 Pt2 1.965450 1_555
O19 Pt3 1.965450 1_555
O20 P0 1.505657 1_455
O21 P1 1.505657 1_655
O22 P0 1.523475 1_555
O23 P1 1.523475 1_555
O24 P2 1.520143 1_555
O25 P3 1.520143 1_555
O26 P2 1.522192 1_555
O27 P3 1.522192 1_555
O28 P4 1.527862 1_555
O29 P5 1.527862 1_555
O30 P4 1.505997 1_555
O31 P5 1.505997 1_555
O32 P6 1.500676 1_545
O33 P7 1.500676 1_565
O34 P6 1.527771 1_555
O35 P7 1.527771 1_555
