# generated using pymatgen
data_KCd(PO3)3
_symmetry_space_group_name_H-M   'P 1'
_cell_length_a   6.90203915
_cell_length_b   6.90203915
_cell_length_c   10.34048000
_cell_angle_alpha   90.00000000
_cell_angle_beta   90.00000000
_cell_angle_gamma   119.99999188
_symmetry_Int_Tables_number   1
_chemical_formula_structural   KCd(PO3)3
_chemical_formula_sum   'K2 Cd2 P6 O18'
_cell_volume   426.60525743
_cell_formula_units_Z   2
loop_
 _symmetry_equiv_pos_site_id
 _symmetry_equiv_pos_as_xyz
  1  'x, y, z'
loop_
 _atom_site_type_symbol
 _atom_site_label
 _atom_site_symmetry_multiplicity
 _atom_site_fract_x
 _atom_site_fract_y
 _atom_site_fract_z
 _atom_site_occupancy
  K  K0  1  0.00000000  0.00000000  0.00000000  1
  K  K1  1  0.00000000  0.00000000  0.50000000  1
  Cd  Cd0  1  0.66666700  0.33333300  0.00000000  1
  Cd  Cd1  1  0.66666700  0.33333300  0.50000000  1
  P  P0  1  0.37934600  0.44166700  0.25000000  1
  P  P1  1  0.55833300  0.93768000  0.25000000  1
  P  P2  1  0.37934600  0.93768000  0.75000000  1
  P  P3  1  0.06232000  0.62065400  0.25000000  1
  P  P4  1  0.55833300  0.62065400  0.75000000  1
  P  P5  1  0.06232000  0.44166700  0.75000000  1
  O  O0  1  0.94527100  0.60726900  0.12488500  1
  O  O1  1  0.39273100  0.33800200  0.12488500  1
  O  O2  1  0.94527100  0.60726900  0.37511500  1
  O  O3  1  0.94527100  0.33800200  0.62488500  1
  O  O4  1  0.66199800  0.05472900  0.12488500  1
  O  O5  1  0.39273100  0.33800200  0.37511500  1
  O  O6  1  0.39273100  0.05472900  0.62488500  1
  O  O7  1  0.94527100  0.33800200  0.87511500  1
  O  O8  1  0.66199800  0.05472900  0.37511500  1
  O  O9  1  0.39273100  0.05472900  0.87511500  1
  O  O10  1  0.66199800  0.60726900  0.62488500  1
  O  O11  1  0.66199800  0.60726900  0.87511500  1
  O  O12  1  0.14275500  0.43768300  0.25000000  1
  O  O13  1  0.56231700  0.70507200  0.25000000  1
  O  O14  1  0.14275500  0.70507200  0.75000000  1
  O  O15  1  0.29492800  0.85724500  0.25000000  1
  O  O16  1  0.56231700  0.85724500  0.75000000  1
  O  O17  1  0.29492800  0.43768300  0.75000000  1
loop_
_geom_bond_atom_site_label_1
_geom_bond_atom_site_label_2
_geom_bond_distance
_geom_bond_site_symmetry_2
K0 O7 2.852017 1_454
K0 O4 2.852017 1_455
K0 O0 2.852017 1_445
K0 O9 2.852017 1_554
K0 O1 2.852017 1_555
K0 O11 2.852017 1_444
K1 O8 2.852017 1_455
K1 O3 2.852017 1_455
K1 O6 2.852017 1_555
K1 O2 2.852017 1_445
K1 O5 2.852017 1_555
K1 O10 2.852017 1_445
Cd0 O7 2.303126 1_554
Cd0 O4 2.303126 1_555
Cd0 O0 2.303129 1_555
Cd0 O9 2.303129 1_554
Cd0 O11 2.303132 1_554
Cd0 O1 2.303132 1_555
Cd1 O8 2.303126 1_555
Cd1 O3 2.303126 1_555
Cd1 O2 2.303129 1_555
Cd1 O6 2.303129 1_555
Cd1 O10 2.303132 1_555
Cd1 O5 2.303132 1_555
O0 P3 1.503447 1_655
O1 P0 1.503450 1_555
O2 P3 1.503447 1_655
O3 P5 1.503448 1_655
O4 P1 1.503448 1_545
O5 P0 1.503450 1_555
O6 P2 1.503447 1_545
O7 P5 1.503448 1_655
O8 P1 1.503448 1_545
O9 P2 1.503447 1_545
O10 P4 1.503450 1_555
O11 P4 1.503450 1_555
O12 P3 1.613741 1_555
O12 P0 1.619387 1_555
O13 P0 1.613736 1_555
O13 P1 1.619393 1_555
O14 P5 1.613735 1_555
O14 P2 1.619390 1_555
O15 P1 1.613735 1_555
O15 P3 1.619390 1_555
O16 P2 1.613741 1_555
O16 P4 1.619387 1_555
O17 P4 1.613736 1_555
O17 P5 1.619393 1_555
