# generated using pymatgen
data_Mg30NbCuO32
_symmetry_space_group_name_H-M   'P 1'
_cell_length_a   8.55540600
_cell_length_b   8.55540600
_cell_length_c   8.58524800
_cell_angle_alpha   90.00000000
_cell_angle_beta   90.00000000
_cell_angle_gamma   90.00000000
_symmetry_Int_Tables_number   1
_chemical_formula_structural   Mg30NbCuO32
_chemical_formula_sum   'Mg30 Nb1 Cu1 O32'
_cell_volume   628.39698547
_cell_formula_units_Z   1
loop_
 _symmetry_equiv_pos_site_id
 _symmetry_equiv_pos_as_xyz
  1  'x, y, z'
loop_
 _atom_site_type_symbol
 _atom_site_label
 _atom_site_symmetry_multiplicity
 _atom_site_fract_x
 _atom_site_fract_y
 _atom_site_fract_z
 _atom_site_occupancy
  Mg  Mg0  1  0.00000000  0.50000000  0.00000000  1
  Mg  Mg1  1  0.50000000  0.00000000  0.00000000  1
  Mg  Mg2  1  0.00000000  0.00000000  0.50000000  1
  Mg  Mg3  1  0.00000000  0.50000000  0.50000000  1
  Mg  Mg4  1  0.50000000  0.00000000  0.50000000  1
  Mg  Mg5  1  0.50000000  0.50000000  0.50000000  1
  Mg  Mg6  1  0.24175200  0.24175200  0.00000000  1
  Mg  Mg7  1  0.24175200  0.75824800  0.00000000  1
  Mg  Mg8  1  0.75824800  0.24175200  0.00000000  1
  Mg  Mg9  1  0.75824800  0.75824800  0.00000000  1
  Mg  Mg10  1  0.24863200  0.24863200  0.50000000  1
  Mg  Mg11  1  0.24863200  0.75136800  0.50000000  1
  Mg  Mg12  1  0.75136800  0.24863200  0.50000000  1
  Mg  Mg13  1  0.75136800  0.75136800  0.50000000  1
  Mg  Mg14  1  0.00000000  0.24714700  0.24838600  1
  Mg  Mg15  1  0.00000000  0.75285300  0.24838600  1
  Mg  Mg16  1  0.50000000  0.24650800  0.25388600  1
  Mg  Mg17  1  0.50000000  0.75349200  0.25388600  1
  Mg  Mg18  1  0.00000000  0.24714700  0.75161400  1
  Mg  Mg19  1  0.00000000  0.75285300  0.75161400  1
  Mg  Mg20  1  0.50000000  0.24650800  0.74611400  1
  Mg  Mg21  1  0.50000000  0.75349200  0.74611400  1
  Mg  Mg22  1  0.24714700  0.00000000  0.24838600  1
  Mg  Mg23  1  0.24650800  0.50000000  0.25388600  1
  Mg  Mg24  1  0.75285300  0.00000000  0.24838600  1
  Mg  Mg25  1  0.75349200  0.50000000  0.25388600  1
  Mg  Mg26  1  0.24714700  0.00000000  0.75161400  1
  Mg  Mg27  1  0.24650800  0.50000000  0.74611400  1
  Mg  Mg28  1  0.75285300  0.00000000  0.75161400  1
  Mg  Mg29  1  0.75349200  0.50000000  0.74611400  1
  Nb  Nb0  1  0.50000000  0.50000000  0.00000000  1
  Cu  Cu0  1  0.00000000  0.00000000  0.00000000  1
  O  O0  1  0.00000000  0.00000000  0.26232300  1
  O  O1  1  0.00000000  0.50000000  0.25156500  1
  O  O2  1  0.50000000  0.00000000  0.25156500  1
  O  O3  1  0.50000000  0.50000000  0.25925700  1
  O  O4  1  0.00000000  0.00000000  0.73767700  1
  O  O5  1  0.00000000  0.50000000  0.74843500  1
  O  O6  1  0.50000000  0.00000000  0.74843500  1
  O  O7  1  0.50000000  0.50000000  0.74074300  1
  O  O8  1  0.25078400  0.25078400  0.24866800  1
  O  O9  1  0.25078400  0.74921600  0.24866800  1
  O  O10  1  0.74921600  0.25078400  0.24866800  1
  O  O11  1  0.74921600  0.74921600  0.24866800  1
  O  O12  1  0.25078400  0.25078400  0.75133200  1
  O  O13  1  0.25078400  0.74921600  0.75133200  1
  O  O14  1  0.74921600  0.25078400  0.75133200  1
  O  O15  1  0.74921600  0.74921600  0.75133200  1
  O  O16  1  0.00000000  0.26402300  0.00000000  1
  O  O17  1  0.00000000  0.73597700  0.00000000  1
  O  O18  1  0.50000000  0.24987000  0.00000000  1
  O  O19  1  0.50000000  0.75013000  0.00000000  1
  O  O20  1  0.00000000  0.25200700  0.50000000  1
  O  O21  1  0.00000000  0.74799300  0.50000000  1
  O  O22  1  0.50000000  0.24976100  0.50000000  1
  O  O23  1  0.50000000  0.75023900  0.50000000  1
  O  O24  1  0.26402300  0.00000000  0.00000000  1
  O  O25  1  0.24987000  0.50000000  0.00000000  1
  O  O26  1  0.73597700  0.00000000  0.00000000  1
  O  O27  1  0.75013000  0.50000000  0.00000000  1
  O  O28  1  0.25200700  0.00000000  0.50000000  1
  O  O29  1  0.24976100  0.50000000  0.50000000  1
  O  O30  1  0.74799300  0.00000000  0.50000000  1
  O  O31  1  0.75023900  0.50000000  0.50000000  1
loop_
_geom_bond_atom_site_label_1
_geom_bond_atom_site_label_2
_geom_bond_distance
_geom_bond_site_symmetry_2
Mg0 O17 2.018879 1_555
Mg0 O16 2.018879 1_555
Mg0 O27 2.137739 1_455
Mg0 O25 2.137739 1_555
Mg0 O1 2.159748 1_555
Mg0 O5 2.159748 1_554
Mg1 O26 2.018879 1_555
Mg1 O24 2.018879 1_555
Mg1 O18 2.137739 1_555
Mg1 O19 2.137739 1_545
Mg1 O2 2.159748 1_555
Mg1 O6 2.159748 1_554
Mg2 O0 2.040516 1_555
Mg2 O4 2.040516 1_555
Mg2 O28 2.156022 1_555
Mg2 O30 2.156022 1_455
Mg2 O21 2.156022 1_545
Mg2 O20 2.156022 1_555
Mg3 O21 2.121681 1_555
Mg3 O20 2.121681 1_555
Mg3 O5 2.132876 1_555
Mg3 O1 2.132876 1_555
Mg3 O31 2.136807 1_455
Mg3 O29 2.136807 1_555
Mg4 O30 2.121681 1_555
Mg4 O28 2.121681 1_555
Mg4 O6 2.132876 1_555
Mg4 O2 2.132876 1_555
Mg4 O23 2.136807 1_545
Mg4 O22 2.136807 1_555
Mg5 O3 2.066838 1_555
Mg5 O7 2.066838 1_555
Mg5 O22 2.140896 1_555
Mg5 O23 2.140896 1_555
Mg5 O29 2.140896 1_555
Mg5 O31 2.140896 1_555
Mg6 O24 2.077044 1_555
Mg6 O16 2.077044 1_555
Mg6 O8 2.137672 1_555
Mg6 O12 2.137672 1_554
Mg6 O18 2.210508 1_555
Mg6 O25 2.210508 1_555
Mg7 O24 2.077044 1_565
Mg7 O17 2.077044 1_555
Mg7 O13 2.137672 1_554
Mg7 O9 2.137672 1_555
Mg7 O19 2.210508 1_555
Mg7 O25 2.210508 1_555
Mg8 O26 2.077044 1_555
Mg8 O16 2.077044 1_655
Mg8 O10 2.137672 1_555
Mg8 O14 2.137672 1_554
Mg8 O18 2.210508 1_555
Mg8 O27 2.210508 1_555
Mg9 O17 2.077044 1_655
Mg9 O26 2.077044 1_565
Mg9 O15 2.137672 1_554
Mg9 O11 2.137672 1_555
Mg9 O19 2.210508 1_555
Mg9 O27 2.210508 1_555
Mg10 O28 2.127344 1_555
Mg10 O20 2.127344 1_555
Mg10 O29 2.150577 1_555
Mg10 O22 2.150577 1_555
Mg10 O12 2.157905 1_555
Mg10 O8 2.157905 1_555
Mg11 O28 2.127344 1_565
Mg11 O21 2.127344 1_555
Mg11 O23 2.150577 1_555
Mg11 O29 2.150577 1_555
Mg11 O9 2.157905 1_555
Mg11 O13 2.157905 1_555
Mg12 O30 2.127344 1_555
Mg12 O20 2.127344 1_655
Mg12 O31 2.150577 1_555
Mg12 O22 2.150577 1_555
Mg12 O10 2.157905 1_555
Mg12 O14 2.157905 1_555
Mg13 O30 2.127344 1_565
Mg13 O21 2.127344 1_655
Mg13 O23 2.150577 1_555
Mg13 O31 2.150577 1_555
Mg13 O11 2.157905 1_555
Mg13 O15 2.157905 1_555
Mg14 O0 2.117826 1_555
Mg14 O16 2.137338 1_555
Mg14 O10 2.145786 1_455
Mg14 O8 2.145786 1_555
Mg14 O20 2.160569 1_555
Mg14 O1 2.163432 1_555
Mg15 O0 2.117826 1_565
Mg15 O17 2.137338 1_555
Mg15 O9 2.145786 1_555
Mg15 O11 2.145786 1_455
Mg15 O21 2.160569 1_555
Mg15 O1 2.163432 1_555
Mg16 O2 2.109070 1_555
Mg16 O22 2.113133 1_555
Mg16 O8 2.132928 1_555
Mg16 O10 2.132928 1_555
Mg16 O3 2.169217 1_555
Mg16 O18 2.179864 1_555
Mg17 O2 2.109070 1_565
Mg17 O23 2.113133 1_555
Mg17 O11 2.132928 1_555
Mg17 O9 2.132928 1_555
Mg17 O3 2.169217 1_555
Mg17 O19 2.179864 1_555
Mg18 O4 2.117826 1_555
Mg18 O16 2.137338 1_556
Mg18 O14 2.145786 1_455
Mg18 O12 2.145786 1_555
Mg18 O20 2.160569 1_555
Mg18 O5 2.163432 1_555
Mg19 O4 2.117826 1_565
Mg19 O17 2.137338 1_556
Mg19 O13 2.145786 1_555
Mg19 O15 2.145786 1_455
Mg19 O21 2.160569 1_555
Mg19 O5 2.163432 1_555
Mg20 O6 2.109070 1_555
Mg20 O22 2.113133 1_555
Mg20 O12 2.132928 1_555
Mg20 O14 2.132928 1_555
Mg20 O7 2.169217 1_555
Mg20 O18 2.179864 1_556
Mg21 O6 2.109070 1_565
Mg21 O23 2.113133 1_555
Mg21 O13 2.132928 1_555
Mg21 O15 2.132928 1_555
Mg21 O7 2.169217 1_555
Mg21 O19 2.179864 1_556
Mg22 O0 2.117826 1_555
Mg22 O24 2.137338 1_555
Mg22 O9 2.145786 1_545
Mg22 O8 2.145786 1_555
Mg22 O28 2.160569 1_555
Mg22 O2 2.163432 1_555
Mg23 O1 2.109070 1_555
Mg23 O29 2.113133 1_555
Mg23 O8 2.132928 1_555
Mg23 O9 2.132928 1_555
Mg23 O3 2.169217 1_555
Mg23 O25 2.179864 1_555
Mg24 O0 2.117826 1_655
Mg24 O26 2.137338 1_555
Mg24 O11 2.145786 1_545
Mg24 O10 2.145786 1_555
Mg24 O30 2.160569 1_555
Mg24 O2 2.163432 1_555
Mg25 O1 2.109070 1_655
Mg25 O31 2.113133 1_555
Mg25 O11 2.132928 1_555
Mg25 O10 2.132928 1_555
Mg25 O3 2.169217 1_555
Mg25 O27 2.179864 1_555
Mg26 O4 2.117826 1_555
Mg26 O24 2.137338 1_556
Mg26 O12 2.145786 1_555
Mg26 O13 2.145786 1_545
Mg26 O28 2.160569 1_555
Mg26 O6 2.163432 1_555
Mg27 O5 2.109070 1_555
Mg27 O29 2.113133 1_555
Mg27 O13 2.132928 1_555
Mg27 O12 2.132928 1_555
Mg27 O7 2.169217 1_555
Mg27 O25 2.179864 1_556
Mg28 O4 2.117826 1_655
Mg28 O26 2.137338 1_556
Mg28 O15 2.145786 1_545
Mg28 O14 2.145786 1_555
Mg28 O30 2.160569 1_555
Mg28 O6 2.163432 1_555
Mg29 O5 2.109070 1_655
Mg29 O31 2.113133 1_555
Mg29 O14 2.132928 1_555
Mg29 O15 2.132928 1_555
Mg29 O7 2.169217 1_555
Mg29 O27 2.179864 1_556
Nb0 O19 2.139964 1_555
Nb0 O27 2.139964 1_555
Nb0 O25 2.139964 1_555
Nb0 O18 2.139964 1_555
Nb0 O7 2.225786 1_554
Nb0 O3 2.225786 1_555
Cu0 O4 2.252108 1_554
Cu0 O0 2.252108 1_555
Cu0 O24 2.258824 1_555
Cu0 O16 2.258824 1_555
Cu0 O26 2.258824 1_455
Cu0 O17 2.258824 1_545
