# generated using pymatgen
data_Li6V3P8O29
_symmetry_space_group_name_H-M   'P 1'
_cell_length_a   9.80380862
_cell_length_b   9.80386583
_cell_length_c   14.00748587
_cell_angle_alpha   90.20147833
_cell_angle_beta   90.64844664
_cell_angle_gamma   59.92764358
_symmetry_Int_Tables_number   1
_chemical_formula_structural   Li6V3P8O29
_chemical_formula_sum   'Li12 V6 P16 O58'
_cell_volume   1165.02900242
_cell_formula_units_Z   2
loop_
 _symmetry_equiv_pos_site_id
 _symmetry_equiv_pos_as_xyz
  1  'x, y, z'
loop_
 _atom_site_type_symbol
 _atom_site_label
 _atom_site_symmetry_multiplicity
 _atom_site_fract_x
 _atom_site_fract_y
 _atom_site_fract_z
 _atom_site_occupancy
  Li  Li0  1  0.76358116  0.90481837  0.56179572  1
  Li  Li1  1  0.68448397  0.67106989  0.89035598  1
  Li  Li2  1  0.76791558  0.31875220  0.06257121  1
  Li  Li3  1  0.32081960  0.90618636  0.06339889  1
  Li  Li4  1  0.66427045  0.23877864  0.43952702  1
  Li  Li5  1  0.32941156  0.76602672  0.56018974  1
  Li  Li6  1  0.23458046  0.66420552  0.94401288  1
  Li  Li7  1  0.09744212  0.67005654  0.43654311  1
  Li  Li8  1  0.23765221  0.10073283  0.43936083  1
  Li  Li9  1  0.09958073  0.23380513  0.93939688  1
  Li  Li10  1  0.93285620  0.98646521  0.98755452  1
  Li  Li11  1  0.98703874  0.05851875  0.51044944  1
  V  V0  1  0.56565715  0.43317406  0.24992028  1
  V  V1  1  0.43795853  0.56136285  0.74959984  1
  V  V2  1  0.56258332  0.00464873  0.75460805  1
  V  V3  1  0.43647236  0.00062808  0.24962554  1
  V  V4  1  0.99751191  0.56480906  0.24783005  1
  V  V5  1  0.99862841  0.43716377  0.74517443  1
  P  P0  1  0.91364813  0.77958337  0.83852062  1
  P  P1  1  0.77274288  0.91452161  0.34448628  1
  P  P2  1  0.91779953  0.30531707  0.33965491  1
  P  P3  1  0.66561961  0.66339459  0.13001789  1
  P  P4  1  0.66273552  0.67343016  0.63152788  1
  P  P5  1  0.77982389  0.31135836  0.84348044  1
  P  P6  1  0.69054285  0.22394070  0.65774175  1
  P  P7  1  0.31929478  0.90659188  0.84278632  1
  P  P8  1  0.68979379  0.08431985  0.15878291  1
  P  P9  1  0.31820791  0.77256988  0.34160923  1
  P  P10  1  0.22421782  0.68572600  0.15895034  1
  P  P11  1  0.33288907  0.33473272  0.36946700  1
  P  P12  1  0.32930882  0.33607672  0.86974950  1
  P  P13  1  0.08596099  0.68559096  0.65369671  1
  P  P14  1  0.22456415  0.08575573  0.65864807  1
  P  P15  1  0.08635453  0.22881029  0.15581512  1
  O  O0  1  0.00124043  0.77055802  0.56291142  1
  O  O1  1  0.91758557  0.74841502  0.34280695  1
  O  O2  1  0.78904222  0.99774231  0.07630724  1
  O  O3  1  0.74452062  0.91832839  0.84133042  1
  O  O4  1  0.90657529  0.62504327  0.83301597  1
  O  O5  1  0.81030092  0.66627869  0.17773785  1
  O  O6  1  0.92346198  0.45802598  0.33438790  1
  O  O7  1  0.00344710  0.23136252  0.06364976  1
  O  O8  1  0.92360649  0.33528205  0.84191363  1
  O  O9  1  0.67189461  0.81737675  0.67416664  1
  O  O10  1  0.61965952  0.90799041  0.32768234  1
  O  O11  1  0.80810628  0.52444550  0.67840649  1
  O  O12  1  0.67011897  0.66014915  0.02273330  1
  O  O13  1  0.66091335  0.67742306  0.52549137  1
  O  O14  1  0.67605876  0.50770933  0.16692557  1
  O  O15  1  0.48527681  0.88744595  0.83003007  1
  O  O16  1  0.51179323  0.80931302  0.16681086  1
  O  O17  1  0.74586651  0.33682480  0.34074021  1
  O  O18  1  0.79657992  0.20639210  0.75076181  1
  O  O19  1  0.77672314  0.21616060  0.56796899  1
  O  O20  1  0.77985431  0.22638635  0.93236963  1
  O  O21  1  0.62968027  0.47668464  0.82900559  1
  O  O22  1  0.51054329  0.67716251  0.67156657  1
  O  O23  1  0.65857723  0.25681886  0.16110546  1
  O  O24  1  0.47589813  0.61983259  0.32810967  1
  O  O25  1  0.34071562  0.91826085  0.34194462  1
  O  O26  1  0.78918018  0.00928071  0.25694673  1
  O  O27  1  0.76709763  0.00181231  0.43519109  1
  O  O28  1  0.21533717  0.00033533  0.56988040  1
  O  O29  1  0.66123967  0.08403469  0.66161585  1
  O  O30  1  0.53450008  0.38274152  0.66942961  1
  O  O31  1  0.33839702  0.74026099  0.84436317  1
  O  O32  1  0.48812466  0.32333180  0.33074311  1
  O  O33  1  0.38081169  0.52913519  0.17303927  1
  O  O34  1  0.22669545  0.77049815  0.06928019  1
  O  O35  1  0.23250671  0.77112104  0.43055765  1
  O  O36  1  0.20863887  0.79648483  0.24965689  1
  O  O37  1  0.25202493  0.66713658  0.65931757  1
  O  O38  1  0.47604535  0.18828141  0.82560988  1
  O  O39  1  0.53402617  0.08328371  0.16920395  1
  O  O40  1  0.33126457  0.48566731  0.82964121  1
  O  O41  1  0.32179036  0.33856687  0.97562864  1
  O  O42  1  0.33308615  0.33341454  0.47616984  1
  O  O43  1  0.18738079  0.48919977  0.32820179  1
  O  O44  1  0.38276319  0.08086737  0.66804269  1
  O  O45  1  0.32255946  0.18987553  0.32815597  1
  O  O46  1  0.08341820  0.66104696  0.16225281  1
  O  O47  1  0.98835159  0.79859730  0.74043713  1
  O  O48  1  0.01284602  0.78690400  0.91867664  1
  O  O49  1  0.09357169  0.52666243  0.66699014  1
  O  O50  1  0.18230190  0.33422988  0.82512475  1
  O  O51  1  0.09794872  0.37736225  0.17158055  1
  O  O52  1  0.25326788  0.07991058  0.16049824  1
  O  O53  1  0.23779603  0.99922556  0.93097668  1
  O  O54  1  0.21149161  0.99255234  0.75097982  1
  O  O55  1  0.08350827  0.25158005  0.66248635  1
  O  O56  1  0.01163732  0.19511881  0.41982944  1
  O  O57  1  0.98888842  0.20956088  0.24070723  1
loop_
_geom_bond_atom_site_label_1
_geom_bond_atom_site_label_2
_geom_bond_distance
_geom_bond_site_symmetry_2
Li0 O0 2.021708 1_655
Li0 O27 2.023986 1_565
Li0 O29 2.072817 1_565
Li0 O9 2.198692 1_555
Li1 O12 1.868701 1_556
Li1 O4 2.154514 1_555
Li1 O15 2.202612 1_555
Li1 O21 2.379741 1_555
Li2 O20 2.011700 1_554
Li2 O7 2.020610 1_655
Li2 O23 2.028394 1_555
Li2 O14 2.172165 1_555
Li3 O34 1.964849 1_555
Li3 O52 2.015684 1_565
Li3 O53 2.041775 1_554
Li3 O16 2.161458 1_555
Li4 O27 2.017528 1_555
Li4 O19 2.052912 1_555
Li4 O17 2.069709 1_555
Li4 O32 2.122723 1_555
Li5 O28 1.993130 1_565
Li5 O35 2.028868 1_555
Li5 O37 2.052811 1_555
Li5 O22 2.177783 1_555
Li6 O48 1.914007 1_555
Li6 O34 2.019971 1_556
Li6 O31 2.083340 1_555
Li6 O40 2.209238 1_555
Li7 O1 2.005106 1_455
Li7 O35 2.014966 1_555
Li7 O0 2.021834 1_555
Li7 O43 2.160775 1_555
Li8 O56 1.942705 1_555
Li8 O25 2.070205 1_545
Li8 O28 2.143990 1_555
Li8 O45 2.156645 1_555
Li9 O7 1.994520 1_556
Li9 O53 2.004409 1_545
Li9 O8 2.016638 1_455
Li9 O50 2.242728 1_555
Li10 O2 1.851526 1_556
Li10 O48 1.959548 1_655
Li10 O20 2.197899 1_565
Li11 O56 1.950759 1_655
Li11 O19 2.030851 1_555
Li11 O28 2.170155 1_655
O0 P13 1.513628 1_555
O1 P1 1.533595 1_555
O1 V4 2.053604 1_555
O2 P8 1.480785 1_565
O3 P0 1.530306 1_555
O3 V2 1.954160 1_565
O4 P0 1.552610 1_555
O4 V5 2.016049 1_555
O5 P3 1.574213 1_555
O5 V4 1.859694 1_555
O6 P2 1.527779 1_555
O6 V4 1.970681 1_555
O7 P15 1.511314 1_555
O8 P5 1.540971 1_555
O8 V5 2.035481 1_555
O9 P4 1.573601 1_555
O9 V2 1.957007 1_565
O10 P1 1.549229 1_555
O10 V3 1.890392 1_565
O11 P4 1.579596 1_555
O11 V5 1.860116 1_555
O12 P3 1.503691 1_555
O13 P4 1.485628 1_555
O14 P3 1.566906 1_555
O14 V0 1.970807 1_555
O15 P7 1.554142 1_555
O15 V2 1.977438 1_565
O16 P3 1.561001 1_555
O16 V3 2.006229 1_565
O17 P2 1.554227 1_555
O17 V0 1.979164 1_555
O18 P5 1.612066 1_555
O18 P6 1.612366 1_555
O19 P6 1.503242 1_555
O20 P5 1.500442 1_555
O21 P5 1.561873 1_555
O21 V1 1.963318 1_555
O22 P4 1.583103 1_555
O22 V1 1.956014 1_555
O23 P8 1.560729 1_555
O23 V0 1.949087 1_555
O24 P9 1.533828 1_555
O24 V0 1.927842 1_555
O25 P9 1.550693 1_555
O25 V3 2.000053 1_565
O26 P1 1.598477 1_545
O26 P8 1.624719 1_555
O27 P1 1.515321 1_545
O28 P14 1.523690 1_555
O29 P6 1.537074 1_555
O29 V2 2.006992 1_555
O30 P6 1.551745 1_555
O30 V1 1.890157 1_555
O31 P7 1.545575 1_555
O31 V1 2.021911 1_555
O32 P11 1.571839 1_555
O32 V0 1.966606 1_555
O33 P10 1.544644 1_555
O33 V0 1.892931 1_555
O34 P10 1.515666 1_555
O35 P9 1.514691 1_555
O36 P9 1.608187 1_555
O36 P10 1.626425 1_555
O37 P13 1.546450 1_555
O37 V1 2.014961 1_555
O38 P12 1.573565 1_555
O38 V2 1.850899 1_555
O39 P8 1.540810 1_555
O39 V3 1.909943 1_555
O40 P12 1.581468 1_555
O40 V1 1.926718 1_555
O41 P12 1.485272 1_555
O42 P11 1.494711 1_555
O43 P11 1.576357 1_555
O43 V4 1.964043 1_455
O44 P14 1.531667 1_555
O44 V2 1.942769 1_555
O45 P11 1.580819 1_555
O45 V3 1.958692 1_555
O46 P10 1.517348 1_555
O46 V4 1.965609 1_455
O47 P13 1.604300 1_655
O47 P0 1.618683 1_555
O48 P0 1.502083 1_455
O49 P13 1.534006 1_555
O49 V5 1.919378 1_455
O50 P12 1.572855 1_555
O50 V5 1.912130 1_455
O51 P15 1.531606 1_555
O51 V4 1.919375 1_455
O52 P15 1.554765 1_555
O52 V3 1.986383 1_555
O53 P7 1.508786 1_555
O54 P7 1.601620 1_555
O54 P14 1.628961 1_565
O55 P14 1.518616 1_555
O55 V5 1.958064 1_455
O56 P2 1.504604 1_455
O57 P15 1.603343 1_655
O57 P2 1.626365 1_555
