# generated using pymatgen
data_MgSi2
_symmetry_space_group_name_H-M   'P 1'
_cell_length_a   5.38297254
_cell_length_b   5.38297254
_cell_length_c   10.78289513
_cell_angle_alpha   82.30953427
_cell_angle_beta   82.30953427
_cell_angle_gamma   42.30845075
_symmetry_Int_Tables_number   1
_chemical_formula_structural   MgSi2
_chemical_formula_sum   'Mg4 Si8'
_cell_volume   208.14001872
_cell_formula_units_Z   4
loop_
 _symmetry_equiv_pos_site_id
 _symmetry_equiv_pos_as_xyz
  1  'x, y, z'
loop_
 _atom_site_type_symbol
 _atom_site_label
 _atom_site_symmetry_multiplicity
 _atom_site_fract_x
 _atom_site_fract_y
 _atom_site_fract_z
 _atom_site_occupancy
  Mg  Mg0  1  0.15485600  0.15485600  0.89449500  1
  Mg  Mg1  1  0.55868700  0.55868700  0.66517500  1
  Mg  Mg2  1  0.44131300  0.44131300  0.33482500  1
  Mg  Mg3  1  0.84514400  0.84514400  0.10550500  1
  Si  Si0  1  0.26132900  0.26132900  0.63891400  1
  Si  Si1  1  0.43830300  0.43830300  0.91411000  1
  Si  Si2  1  0.56169700  0.56169700  0.08589000  1
  Si  Si3  1  0.73867100  0.73867100  0.36108600  1
  Si  Si4  1  0.86210700  0.86210700  0.79999900  1
  Si  Si5  1  0.88207200  0.88207200  0.54210500  1
  Si  Si6  1  0.11792800  0.11792800  0.45789500  1
  Si  Si7  1  0.13789300  0.13789300  0.20000100  1
loop_
_geom_bond_atom_site_label_1
_geom_bond_atom_site_label_2
_geom_bond_distance
_geom_bond_site_symmetry_2
Mg0 Si0 2.809332 1_555
Mg0 Si1 2.883892 1_555
Mg0 Si2 2.890305 1_456
Mg0 Si2 2.890305 1_546
Mg0 Si1 2.900692 1_455
Mg0 Si1 2.900692 1_545
Mg0 Si4 2.921230 1_455
Mg0 Si4 2.921230 1_545
Mg1 Si1 2.781191 1_555
Mg1 Si0 2.797897 1_565
Mg1 Si0 2.797897 1_655
Mg1 Si6 2.956613 1_655
Mg1 Si6 2.956613 1_565
Mg1 Si4 2.993235 1_545
Mg1 Si4 2.993235 1_455
Mg1 Si0 3.039189 1_555
Mg1 Si5 3.058544 1_545
Mg1 Si5 3.058544 1_455
Mg2 Si2 2.781191 1_555
Mg2 Si3 2.797897 1_545
Mg2 Si3 2.797897 1_455
Mg2 Si5 2.956613 1_455
Mg2 Si5 2.956613 1_545
Mg2 Si7 2.993235 1_655
Mg2 Si7 2.993235 1_565
Mg2 Si3 3.039189 1_555
Mg2 Si6 3.058544 1_565
Mg2 Si6 3.058544 1_655
Mg3 Si3 2.809332 1_555
Mg3 Si2 2.883892 1_555
Mg3 Si1 2.890305 1_654
Mg3 Si1 2.890305 1_564
Mg3 Si2 2.900692 1_565
Mg3 Si2 2.900692 1_655
Mg3 Si7 2.921230 1_565
Mg3 Si7 2.921230 1_655
Si0 Si5 2.443344 1_455
Si0 Si5 2.443344 1_545
Si0 Si6 2.586413 1_555
Si1 Si2 2.371602 1_556
Si1 Si4 2.478538 1_455
Si1 Si4 2.478538 1_545
Si2 Si7 2.478538 1_655
Si2 Si7 2.478538 1_565
Si3 Si6 2.443344 1_565
Si3 Si6 2.443344 1_655
Si3 Si5 2.586413 1_555
Si4 Si5 2.759221 1_555
Si5 Si6 2.411498 1_665
Si6 Si7 2.759221 1_555
