# generated using pymatgen
data_DyRe2
_symmetry_space_group_name_H-M   'P 1'
_cell_length_a   5.40792226
_cell_length_b   5.40792226
_cell_length_c   8.79733727
_cell_angle_alpha   90.00000000
_cell_angle_beta   90.00000000
_cell_angle_gamma   120.00972855
_symmetry_Int_Tables_number   1
_chemical_formula_structural   DyRe2
_chemical_formula_sum   'Dy4 Re8'
_cell_volume   222.79229670
_cell_formula_units_Z   4
loop_
 _symmetry_equiv_pos_site_id
 _symmetry_equiv_pos_as_xyz
  1  'x, y, z'
loop_
 _atom_site_type_symbol
 _atom_site_label
 _atom_site_symmetry_multiplicity
 _atom_site_fract_x
 _atom_site_fract_y
 _atom_site_fract_z
 _atom_site_occupancy
  Dy  Dy0  1  0.66665653  0.33334347  0.56244019  1
  Dy  Dy1  1  0.33334337  0.66665663  0.43756220  1
  Dy  Dy2  1  0.33334437  0.66665663  0.06243780  1
  Dy  Dy3  1  0.66665653  0.33334347  0.93755981  1
  Re  Re0  1  0.00000003  -0.00000003  0.50000124  1
  Re  Re1  1  0.00000003  -0.00000003  -0.00000124  1
  Re  Re2  1  0.17078715  0.34159626  0.75000000  1
  Re  Re3  1  0.17077994  0.82922006  0.75000000  1
  Re  Re4  1  0.65840274  0.82921185  0.75000000  1
  Re  Re5  1  0.82921060  0.65840089  0.25000000  1
  Re  Re6  1  0.82921859  0.17078041  0.25000000  1
  Re  Re7  1  0.34160011  0.17078940  0.25000000  1
loop_
_geom_bond_atom_site_label_1
_geom_bond_atom_site_label_2
_geom_bond_distance
_geom_bond_site_symmetry_2
Dy0 Re7 3.142003 1_555
Dy0 Re5 3.142005 1_555
Dy0 Re6 3.142267 1_555
Dy0 Re3 3.167544 1_545
Dy0 Re3 3.167544 1_655
Dy0 Re4 3.167868 1_555
Dy0 Re2 3.167870 1_555
Dy0 Re2 3.167898 1_655
Dy0 Re4 3.167900 1_545
Dy0 Re0 3.169867 1_555
Dy0 Re0 3.169867 1_665
Dy0 Re0 3.170460 1_655
Dy1 Re4 3.141991 1_555
Dy1 Re2 3.141994 1_555
Dy1 Re3 3.142253 1_555
Dy1 Re6 3.167553 1_565
Dy1 Re6 3.167558 1_455
Dy1 Re5 3.167878 1_555
Dy1 Re7 3.167880 1_555
Dy1 Re7 3.167910 1_565
Dy1 Re5 3.167912 1_455
Dy1 Re0 3.169868 1_555
Dy1 Re0 3.169868 1_665
Dy1 Re0 3.170459 1_565
Dy2 Re4 3.141989 1_554
Dy2 Re2 3.141994 1_554
Dy2 Re3 3.142255 1_554
Dy2 Re6 3.167551 1_565
Dy2 Re6 3.167560 1_455
Dy2 Re5 3.167873 1_555
Dy2 Re7 3.167878 1_555
Dy2 Re7 3.167912 1_565
Dy2 Re5 3.167917 1_455
Dy2 Re1 3.169864 1_665
Dy2 Re1 3.169868 1_555
Dy2 Re1 3.170463 1_565
Dy3 Re7 3.142003 1_556
Dy3 Re5 3.142005 1_556
Dy3 Re6 3.142267 1_556
Dy3 Re3 3.167544 1_545
Dy3 Re3 3.167544 1_655
Dy3 Re4 3.167868 1_555
Dy3 Re2 3.167870 1_555
Dy3 Re2 3.167898 1_655
Dy3 Re4 3.167900 1_545
Dy3 Re1 3.169867 1_666
Dy3 Re1 3.169867 1_556
Dy3 Re1 3.170460 1_656
Re0 Re2 2.719556 1_555
Re0 Re4 2.719558 1_445
Re0 Re5 2.719581 1_445
Re0 Re7 2.719584 1_555
Re0 Re3 2.719593 1_545
Re0 Re6 2.719617 1_455
Re1 Re2 2.719556 1_554
Re1 Re4 2.719558 1_444
Re1 Re5 2.719581 1_445
Re1 Re7 2.719584 1_555
Re1 Re3 2.719593 1_544
Re1 Re6 2.719617 1_455
Re2 Re4 2.636599 1_555
Re2 Re3 2.637051 1_555
Re2 Re4 2.770528 1_445
Re2 Re3 2.770871 1_545
Re3 Re4 2.637048 1_555
Re3 Re4 2.770874 1_455
Re5 Re7 2.636575 1_555
Re5 Re6 2.637035 1_555
Re5 Re7 2.770552 1_665
Re5 Re6 2.770887 1_565
Re6 Re7 2.637027 1_555
Re6 Re7 2.770895 1_655
