# generated using pymatgen
data_Nd3Sc2(FeO4)3
_symmetry_space_group_name_H-M   'P 1'
_cell_length_a   11.15837013
_cell_length_b   11.15837013
_cell_length_c   11.15837013
_cell_angle_alpha   109.47122063
_cell_angle_beta   109.47122063
_cell_angle_gamma   109.47122063
_symmetry_Int_Tables_number   1
_chemical_formula_structural   Nd3Sc2(FeO4)3
_chemical_formula_sum   'Nd12 Sc8 Fe12 O48'
_cell_volume   1069.49903977
_cell_formula_units_Z   4
loop_
 _symmetry_equiv_pos_site_id
 _symmetry_equiv_pos_as_xyz
  1  'x, y, z'
loop_
 _atom_site_type_symbol
 _atom_site_label
 _atom_site_symmetry_multiplicity
 _atom_site_fract_x
 _atom_site_fract_y
 _atom_site_fract_z
 _atom_site_occupancy
  Nd  Nd0  1  0.25000000  0.37500000  0.12500000  1
  Nd  Nd1  1  0.75000000  0.62500000  0.87500000  1
  Nd  Nd2  1  0.75000000  0.12500000  0.37500000  1
  Nd  Nd3  1  0.12500000  0.25000000  0.37500000  1
  Nd  Nd4  1  0.37500000  0.75000000  0.12500000  1
  Nd  Nd5  1  0.25000000  0.87500000  0.62500000  1
  Nd  Nd6  1  0.87500000  0.75000000  0.62500000  1
  Nd  Nd7  1  0.62500000  0.25000000  0.87500000  1
  Nd  Nd8  1  0.37500000  0.12500000  0.25000000  1
  Nd  Nd9  1  0.62500000  0.87500000  0.75000000  1
  Nd  Nd10  1  0.12500000  0.37500000  0.75000000  1
  Nd  Nd11  1  0.87500000  0.62500000  0.25000000  1
  Sc  Sc0  1  0.00000000  0.00000000  0.00000000  1
  Sc  Sc1  1  0.50000000  0.00000000  0.50000000  1
  Sc  Sc2  1  0.00000000  0.50000000  0.50000000  1
  Sc  Sc3  1  0.50000000  0.00000000  0.00000000  1
  Sc  Sc4  1  0.50000000  0.50000000  0.00000000  1
  Sc  Sc5  1  0.50000000  0.50000000  0.50000000  1
  Sc  Sc6  1  0.00000000  0.00000000  0.50000000  1
  Sc  Sc7  1  0.00000000  0.50000000  0.00000000  1
  Fe  Fe0  1  0.25000000  0.62500000  0.37500000  1
  Fe  Fe1  1  0.75000000  0.37500000  0.62500000  1
  Fe  Fe2  1  0.75000000  0.87500000  0.12500000  1
  Fe  Fe3  1  0.37500000  0.25000000  0.62500000  1
  Fe  Fe4  1  0.62500000  0.75000000  0.37500000  1
  Fe  Fe5  1  0.25000000  0.12500000  0.87500000  1
  Fe  Fe6  1  0.12500000  0.75000000  0.87500000  1
  Fe  Fe7  1  0.87500000  0.25000000  0.12500000  1
  Fe  Fe8  1  0.62500000  0.37500000  0.25000000  1
  Fe  Fe9  1  0.37500000  0.62500000  0.75000000  1
  Fe  Fe10  1  0.87500000  0.12500000  0.75000000  1
  Fe  Fe11  1  0.12500000  0.87500000  0.25000000  1
  O  O0  1  0.47300400  0.37603600  0.29197600  1
  O  O1  1  0.52699600  0.62396400  0.70802400  1
  O  O2  1  0.58406000  0.18102800  0.20802400  1
  O  O3  1  0.91594000  0.12396400  0.59696700  1
  O  O4  1  0.29197600  0.47300400  0.37603600  1
  O  O5  1  0.31897200  0.91594000  0.29197600  1
  O  O6  1  0.41594000  0.81897200  0.79197600  1
  O  O7  1  0.08406000  0.87603600  0.40303300  1
  O  O8  1  0.70802400  0.52699600  0.62396400  1
  O  O9  1  0.68102800  0.08406000  0.70802400  1
  O  O10  1  0.02699600  0.31897200  0.90303300  1
  O  O11  1  0.20802400  0.58406000  0.18102800  1
  O  O12  1  0.12396400  0.02699600  0.20802400  1
  O  O13  1  0.97300400  0.68102800  0.09696700  1
  O  O14  1  0.79197600  0.41594000  0.81897200  1
  O  O15  1  0.87603600  0.97300400  0.79197600  1
  O  O16  1  0.59696700  0.91594000  0.12396400  1
  O  O17  1  0.18102800  0.47300400  0.59696700  1
  O  O18  1  0.40303300  0.08406000  0.87603600  1
  O  O19  1  0.81897200  0.52699600  0.40303300  1
  O  O20  1  0.90303300  0.02699600  0.31897200  1
  O  O21  1  0.37603600  0.58406000  0.90303300  1
  O  O22  1  0.09696700  0.97300400  0.68102800  1
  O  O23  1  0.62396400  0.41594000  0.09696700  1
  O  O24  1  0.37603600  0.29197600  0.47300400  1
  O  O25  1  0.58406000  0.90303300  0.37603600  1
  O  O26  1  0.62396400  0.70802400  0.52699600  1
  O  O27  1  0.41594000  0.09696700  0.62396400  1
  O  O28  1  0.12396400  0.59696700  0.91594000  1
  O  O29  1  0.02699600  0.20802400  0.12396400  1
  O  O30  1  0.87603600  0.40303300  0.08406000  1
  O  O31  1  0.97300400  0.79197600  0.87603600  1
  O  O32  1  0.31897200  0.90303300  0.02699600  1
  O  O33  1  0.91594000  0.29197600  0.31897200  1
  O  O34  1  0.68102800  0.09696700  0.97300400  1
  O  O35  1  0.08406000  0.70802400  0.68102800  1
  O  O36  1  0.18102800  0.20802400  0.58406000  1
  O  O37  1  0.47300400  0.59696700  0.18102800  1
  O  O38  1  0.81897200  0.79197600  0.41594000  1
  O  O39  1  0.52699600  0.40303300  0.81897200  1
  O  O40  1  0.29197600  0.31897200  0.91594000  1
  O  O41  1  0.70802400  0.68102800  0.08406000  1
  O  O42  1  0.20802400  0.12396400  0.02699600  1
  O  O43  1  0.79197600  0.87603600  0.97300400  1
  O  O44  1  0.90303300  0.37603600  0.58406000  1
  O  O45  1  0.09696700  0.62396400  0.41594000  1
  O  O46  1  0.59696700  0.18102800  0.47300400  1
  O  O47  1  0.40303300  0.81897200  0.52699600  1
loop_
_geom_bond_atom_site_label_1
_geom_bond_atom_site_label_2
_geom_bond_distance
_geom_bond_site_symmetry_2
Nd0 O42 2.450186 1_555
Nd0 O4 2.450186 1_555
Nd0 O40 2.450186 1_554
Nd0 O11 2.450186 1_555
Nd0 O37 2.557167 1_555
Nd0 O10 2.557167 1_554
Nd0 O0 2.557173 1_555
Nd0 O29 2.557173 1_555
Nd1 O41 2.450186 1_556
Nd1 O14 2.450186 1_555
Nd1 O8 2.450186 1_555
Nd1 O43 2.450186 1_555
Nd1 O13 2.557167 1_556
Nd1 O39 2.557167 1_555
Nd1 O31 2.557173 1_555
Nd1 O1 2.557173 1_555
Nd2 O16 2.450186 1_545
Nd2 O44 2.450186 1_555
Nd2 O46 2.450197 1_555
Nd2 O20 2.450197 1_555
Nd2 O25 2.557165 1_545
Nd2 O3 2.557165 1_555
Nd2 O2 2.557173 1_555
Nd2 O33 2.557173 1_555
Nd3 O29 2.450186 1_555
Nd3 O24 2.450186 1_555
Nd3 O33 2.450186 1_455
Nd3 O36 2.450186 1_555
Nd3 O20 2.557167 1_455
Nd3 O17 2.557167 1_555
Nd3 O4 2.557173 1_555
Nd3 O12 2.557173 1_555
Nd4 O25 2.450186 1_555
Nd4 O28 2.450186 1_554
Nd4 O37 2.450197 1_555
Nd4 O32 2.450197 1_555
Nd4 O21 2.557165 1_554
Nd4 O16 2.557165 1_555
Nd4 O5 2.557173 1_555
Nd4 O11 2.557173 1_555
Nd5 O18 2.450186 1_565
Nd5 O45 2.450186 1_555
Nd5 O47 2.450197 1_555
Nd5 O22 2.450197 1_555
Nd5 O27 2.557165 1_565
Nd5 O7 2.557165 1_555
Nd5 O6 2.557173 1_555
Nd5 O35 2.557173 1_555
Nd6 O38 2.450186 1_555
Nd6 O26 2.450186 1_555
Nd6 O35 2.450186 1_655
Nd6 O31 2.450186 1_555
Nd6 O19 2.557167 1_555
Nd6 O22 2.557167 1_655
Nd6 O8 2.557173 1_555
Nd6 O15 2.557173 1_555
Nd7 O30 2.450186 1_556
Nd7 O27 2.450186 1_555
Nd7 O39 2.450197 1_555
Nd7 O34 2.450197 1_555
Nd7 O18 2.557165 1_555
Nd7 O23 2.557165 1_556
Nd7 O14 2.557173 1_555
Nd7 O9 2.557173 1_555
Nd8 O0 2.450186 1_555
Nd8 O12 2.450186 1_555
Nd8 O5 2.450186 1_545
Nd8 O2 2.450186 1_555
Nd8 O32 2.557167 1_545
Nd8 O46 2.557167 1_555
Nd8 O24 2.557173 1_555
Nd8 O42 2.557173 1_555
Nd9 O6 2.450186 1_555
Nd9 O1 2.450186 1_555
Nd9 O9 2.450186 1_565
Nd9 O15 2.450186 1_555
Nd9 O34 2.557167 1_565
Nd9 O47 2.557167 1_555
Nd9 O43 2.557173 1_555
Nd9 O26 2.557173 1_555
Nd10 O21 2.450186 1_555
Nd10 O3 2.450186 1_455
Nd10 O17 2.450197 1_555
Nd10 O10 2.450197 1_555
Nd10 O44 2.557165 1_455
Nd10 O28 2.557165 1_555
Nd10 O36 2.557173 1_555
Nd10 O40 2.557173 1_555
Nd11 O23 2.450186 1_555
Nd11 O7 2.450186 1_655
Nd11 O19 2.450197 1_555
Nd11 O13 2.450197 1_555
Nd11 O45 2.557165 1_655
Nd11 O30 2.557165 1_555
Nd11 O38 2.557173 1_555
Nd11 O41 2.557173 1_555
Fe0 O11 1.906589 1_555
Fe0 O4 1.906589 1_555
Fe0 O47 1.906592 1_555
Fe0 O45 1.906600 1_555
Fe1 O8 1.906589 1_555
Fe1 O14 1.906589 1_555
Fe1 O46 1.906592 1_555
Fe1 O44 1.906600 1_555
Fe2 O43 1.906589 1_554
Fe2 O41 1.906589 1_555
Fe2 O20 1.906592 1_565
Fe2 O16 1.906600 1_555
Fe3 O24 1.906589 1_555
Fe3 O36 1.906589 1_555
Fe3 O39 1.906592 1_555
Fe3 O27 1.906600 1_555
Fe4 O26 1.906589 1_555
Fe4 O38 1.906589 1_555
Fe4 O37 1.906592 1_555
Fe4 O25 1.906600 1_555
Fe5 O40 1.906589 1_555
Fe5 O42 1.906589 1_556
Fe5 O22 1.906592 1_545
Fe5 O18 1.906600 1_555
Fe6 O35 1.906589 1_555
Fe6 O31 1.906589 1_455
Fe6 O32 1.906592 1_556
Fe6 O28 1.906600 1_555
Fe7 O33 1.906589 1_555
Fe7 O29 1.906589 1_655
Fe7 O34 1.906592 1_554
Fe7 O30 1.906600 1_555
Fe8 O2 1.906589 1_555
Fe8 O0 1.906589 1_555
Fe8 O19 1.906592 1_555
Fe8 O23 1.906600 1_555
Fe9 O6 1.906589 1_555
Fe9 O1 1.906589 1_555
Fe9 O17 1.906592 1_555
Fe9 O21 1.906600 1_555
Fe10 O9 1.906589 1_555
Fe10 O15 1.906589 1_545
Fe10 O10 1.906592 1_655
Fe10 O3 1.906600 1_555
Fe11 O5 1.906589 1_555
Fe11 O12 1.906589 1_565
Fe11 O13 1.906592 1_455
Fe11 O7 1.906600 1_555
O0 Sc5 2.123121 1_555
O1 Sc5 2.123121 1_555
O2 Sc3 2.123121 1_555
O3 Sc6 2.123116 1_655
O4 Sc5 2.123121 1_555
O5 Sc1 2.123121 1_565
O6 Sc3 2.123121 1_566
O7 Sc6 2.123116 1_565
O8 Sc5 2.123121 1_555
O9 Sc1 2.123121 1_555
O10 Sc7 2.123118 1_556
O11 Sc7 2.123121 1_555
O12 Sc0 2.123121 1_555
O13 Sc7 2.123118 1_655
O14 Sc7 2.123121 1_656
O15 Sc0 2.123121 1_666
O16 Sc3 2.123116 1_565
O17 Sc2 2.123118 1_555
O18 Sc3 2.123116 1_556
O19 Sc2 2.123118 1_655
O20 Sc6 2.123118 1_655
O21 Sc4 2.123116 1_556
O22 Sc6 2.123118 1_565
O23 Sc4 2.123116 1_555
O24 Sc5 2.123121 1_555
O25 Sc1 2.123116 1_565
O26 Sc5 2.123121 1_555
O27 Sc1 2.123116 1_555
O28 Sc7 2.123116 1_556
O29 Sc0 2.123121 1_555
O30 Sc7 2.123116 1_655
O31 Sc0 2.123121 1_666
O32 Sc3 2.123118 1_565
O33 Sc2 2.123121 1_655
O34 Sc3 2.123118 1_556
O35 Sc2 2.123121 1_555
O36 Sc6 2.123121 1_555
O37 Sc4 2.123118 1_555
O38 Sc6 2.123121 1_665
O39 Sc4 2.123118 1_556
O40 Sc4 2.123121 1_556
O41 Sc4 2.123121 1_555
O42 Sc0 2.123121 1_555
O43 Sc0 2.123121 1_666
O44 Sc2 2.123116 1_655
O45 Sc2 2.123116 1_555
O46 Sc1 2.123118 1_555
O47 Sc1 2.123118 1_565
