# generated using pymatgen
data_Cs2La10Os2I17
_symmetry_space_group_name_H-M   'P 1'
_cell_length_a   11.94996687
_cell_length_b   11.94996687
_cell_length_c   10.16095915
_cell_angle_alpha   86.78989140
_cell_angle_beta   86.78989140
_cell_angle_gamma   107.78857003
_symmetry_Int_Tables_number   1
_chemical_formula_structural   Cs2La10Os2I17
_chemical_formula_sum   'Cs2 La10 Os2 I17'
_cell_volume   1375.37802448
_cell_formula_units_Z   1
loop_
 _symmetry_equiv_pos_site_id
 _symmetry_equiv_pos_as_xyz
  1  'x, y, z'
loop_
 _atom_site_type_symbol
 _atom_site_label
 _atom_site_symmetry_multiplicity
 _atom_site_fract_x
 _atom_site_fract_y
 _atom_site_fract_z
 _atom_site_occupancy
  Cs  Cs0  1  0.67441500  0.32558500  0.00000000  1
  Cs  Cs1  1  0.32558500  0.67441500  0.00000000  1
  La  La0  1  0.70741600  0.00731200  0.42670700  1
  La  La1  1  0.29258400  0.99268800  0.57329300  1
  La  La2  1  0.99268800  0.29258400  0.57329300  1
  La  La3  1  0.00731200  0.70741600  0.42670700  1
  La  La4  1  0.67028900  0.67028900  0.55600400  1
  La  La5  1  0.32971100  0.32971100  0.44399600  1
  La  La6  1  0.93613100  0.93613100  0.67969900  1
  La  La7  1  0.06386900  0.06386900  0.32030100  1
  La  La8  1  0.79316700  0.79316700  0.18289600  1
  La  La9  1  0.20683300  0.20683300  0.81710400  1
  Os  Os0  1  0.85740800  0.85740800  0.42922900  1
  Os  Os1  1  0.14259200  0.14259200  0.57077100  1
  I  I0  1  0.61474400  0.95020000  0.13797500  1
  I  I1  1  0.38525600  0.04980000  0.86202500  1
  I  I2  1  0.04980000  0.38525600  0.86202500  1
  I  I3  1  0.95020000  0.61474400  0.13797500  1
  I  I4  1  0.52847000  0.18996400  0.42027400  1
  I  I5  1  0.47153000  0.81003600  0.57972600  1
  I  I6  1  0.81003600  0.47153000  0.57972600  1
  I  I7  1  0.18996400  0.52847000  0.42027400  1
  I  I8  1  0.56224800  0.56224800  0.28053400  1
  I  I9  1  0.43775200  0.43775200  0.71946600  1
  I  I10  1  0.24817800  0.89951800  0.27309500  1
  I  I11  1  0.75182200  0.10048200  0.72690500  1
  I  I12  1  0.10048200  0.75182200  0.72690500  1
  I  I13  1  0.89951800  0.24817800  0.27309500  1
  I  I14  1  0.29015900  0.29015900  0.13057900  1
  I  I15  1  0.70984100  0.70984100  0.86942100  1
  I  I16  1  0.00000000  0.00000000  0.00000000  1
loop_
_geom_bond_atom_site_label_1
_geom_bond_atom_site_label_2
_geom_bond_distance
_geom_bond_site_symmetry_2
Cs0 I11 4.226177 1_554
Cs0 I13 4.226177 1_555
Cs0 I1 4.343800 1_554
Cs0 I3 4.343800 1_555
Cs0 I0 4.452635 1_545
Cs0 I2 4.452635 1_654
Cs0 I4 4.535217 1_555
Cs0 I6 4.535217 1_554
Cs0 I8 4.550973 1_555
Cs0 I9 4.550973 1_554
Cs0 I14 4.592570 1_555
Cs0 I15 4.592570 1_554
Cs1 I12 4.226177 1_554
Cs1 I10 4.226177 1_555
Cs1 I2 4.343800 1_554
Cs1 I0 4.343800 1_555
Cs1 I3 4.452635 1_455
Cs1 I1 4.452635 1_564
Cs1 I7 4.535217 1_555
Cs1 I5 4.535217 1_554
Cs1 I9 4.550973 1_554
Cs1 I8 4.550973 1_555
Cs1 I14 4.592570 1_555
Cs1 I15 4.592570 1_554
La0 Os0 2.895535 1_545
La1 Os1 2.895535 1_565
La2 Os1 2.895535 1_655
La3 Os0 2.895535 1_455
La4 Os0 2.821187 1_555
La5 Os1 2.821187 1_555
La6 Os0 2.870996 1_555
La6 Os1 3.011358 1_665
La7 Os1 2.870996 1_555
La7 Os0 3.011358 1_445
La8 Os0 2.741144 1_555
La9 Os1 2.741144 1_555
I0 La0 3.228876 1_565
I0 La8 3.276210 1_555
I1 La1 3.228876 1_545
I1 La9 3.276210 1_555
I2 La2 3.228876 1_455
I2 La9 3.276210 1_555
I3 La3 3.228876 1_655
I3 La8 3.276210 1_555
I4 La5 3.300427 1_555
I4 La1 3.310459 1_545
I4 La0 3.491801 1_555
I5 La4 3.300427 1_555
I5 La0 3.310459 1_565
I5 La1 3.491801 1_555
I6 La4 3.300427 1_555
I6 La3 3.310459 1_655
I6 La2 3.491801 1_555
I7 La5 3.300427 1_555
I7 La2 3.310459 1_455
I7 La3 3.491801 1_555
I8 La8 3.308743 1_555
I8 La4 3.310497 1_555
I8 La5 3.528506 1_555
I9 La9 3.308743 1_555
I9 La5 3.310497 1_555
I9 La4 3.528506 1_555
I10 La1 3.320567 1_555
I10 La3 3.324032 1_555
I10 La7 3.401247 1_565
I11 La0 3.320567 1_555
I11 La2 3.324032 1_555
I11 La6 3.401247 1_545
I12 La3 3.320567 1_555
I12 La1 3.324032 1_555
I12 La6 3.401247 1_455
I13 La2 3.320567 1_555
I13 La0 3.324032 1_555
I13 La7 3.401247 1_655
I14 La5 3.284696 1_555
I14 La9 3.497592 1_554
I14 La7 3.564483 1_555
I15 La4 3.284696 1_555
I15 La8 3.497592 1_556
I15 La6 3.564483 1_555
I16 La9 3.303056 1_554
I16 La8 3.303056 1_445
I16 La6 3.457992 1_444
I16 La7 3.457992 1_555
