# generated using pymatgen
data_Li9Mn2Co5O16
_symmetry_space_group_name_H-M   'P 1'
_cell_length_a   7.78764355
_cell_length_b   7.78764355
_cell_length_c   12.99639138
_cell_angle_alpha   87.59448130
_cell_angle_beta   87.59448130
_cell_angle_gamma   21.44545925
_symmetry_Int_Tables_number   1
_chemical_formula_structural   Li9Mn2Co5O16
_chemical_formula_sum   'Li9 Mn2 Co5 O16'
_cell_volume   287.91398164
_cell_formula_units_Z   1
loop_
 _symmetry_equiv_pos_site_id
 _symmetry_equiv_pos_as_xyz
  1  'x, y, z'
loop_
 _atom_site_type_symbol
 _atom_site_label
 _atom_site_symmetry_multiplicity
 _atom_site_fract_x
 _atom_site_fract_y
 _atom_site_fract_z
 _atom_site_occupancy
  Li  Li0  1  0.44012100  0.44012100  0.18284500  1
  Li  Li1  1  0.31074500  0.31074500  0.56377200  1
  Li  Li2  1  0.19150800  0.19150800  0.94862200  1
  Li  Li3  1  0.06628700  0.06628700  0.29944600  1
  Li  Li4  1  0.94191100  0.94191100  0.69344000  1
  Li  Li5  1  0.80698700  0.80698700  0.06296800  1
  Li  Li6  1  0.68417300  0.68417300  0.43369700  1
  Li  Li7  1  0.56116400  0.56116400  0.81413700  1
  Li  Li8  1  0.62134300  0.62134300  0.12553900  1
  Mn  Mn0  1  0.00443700  0.00443700  0.00447400  1
  Mn  Mn1  1  0.87293600  0.87293600  0.37290200  1
  Co  Co0  1  0.74974900  0.74974900  0.75143400  1
  Co  Co1  1  0.50138900  0.50138900  0.50173700  1
  Co  Co2  1  0.37419800  0.37419800  0.87802900  1
  Co  Co3  1  0.24056600  0.24056600  0.23569000  1
  Co  Co4  1  0.12800800  0.12800800  0.62436600  1
  O  O0  1  0.41706100  0.41706100  0.02404000  1
  O  O1  1  0.29218200  0.29218200  0.40403200  1
  O  O2  1  0.16663200  0.16663200  0.77543800  1
  O  O3  1  0.02705400  0.02705400  0.14154000  1
  O  O4  1  0.91036900  0.91036900  0.51927200  1
  O  O5  1  0.78827900  0.78827900  0.90654700  1
  O  O6  1  0.66063300  0.66063300  0.28141300  1
  O  O7  1  0.53460600  0.53460600  0.65209900  1
  O  O8  1  0.45792100  0.45792100  0.34722800  1
  O  O9  1  0.33500100  0.33500100  0.72909900  1
  O  O10  1  0.22356600  0.22356600  0.10067100  1
  O  O11  1  0.08622800  0.08622800  0.47318800  1
  O  O12  1  0.96576200  0.96576200  0.85367200  1
  O  O13  1  0.83858700  0.83858700  0.23435700  1
  O  O14  1  0.71609000  0.71609000  0.59421300  1
  O  O15  1  0.58450600  0.58450600  0.97009500  1
loop_
_geom_bond_atom_site_label_1
_geom_bond_atom_site_label_2
_geom_bond_distance
_geom_bond_site_symmetry_2
Li0 O3 2.023970 1_565
Li0 O3 2.023970 1_655
Li0 O0 2.108651 1_555
Li0 O8 2.165194 1_555
Li0 O13 2.207503 1_455
Li0 O13 2.207503 1_545
Li1 O14 2.074908 1_455
Li1 O14 2.074908 1_545
Li1 O1 2.107378 1_555
Li1 O4 2.164005 1_545
Li1 O4 2.164005 1_455
Li1 O9 2.196052 1_555
Li2 O10 2.056316 1_556
Li2 O5 2.126589 1_455
Li2 O5 2.126589 1_545
Li2 O15 2.195366 1_545
Li2 O15 2.195366 1_455
Li2 O2 2.298712 1_555
Li3 O6 2.051835 1_455
Li3 O6 2.051835 1_545
Li3 O3 2.162707 1_555
Li3 O8 2.268753 1_545
Li3 O8 2.268753 1_455
Li3 O11 2.291429 1_555
Li4 O7 2.082126 1_655
Li4 O7 2.082126 1_565
Li4 O12 2.129486 1_555
Li4 O9 2.219500 1_565
Li4 O9 2.219500 1_655
Li4 O4 2.334530 1_555
Li5 O10 1.978849 1_655
Li5 O10 1.978849 1_565
Li5 O5 2.065044 1_554
Li5 O0 2.262767 1_655
Li5 O0 2.262767 1_565
Li5 O13 2.299427 1_555
Li6 O6 2.026744 1_555
Li6 O11 2.131613 1_565
Li6 O11 2.131613 1_655
Li6 O14 2.162766 1_555
Li6 O1 2.219391 1_565
Li6 O1 2.219391 1_655
Li7 O15 2.073100 1_555
Li7 O12 2.104959 1_545
Li7 O12 2.104959 1_455
Li7 O7 2.161749 1_555
Li7 O2 2.210897 1_565
Li7 O2 2.210897 1_655
Li8 O3 2.049171 1_655
Li8 O3 2.049171 1_565
Li8 O15 2.120458 1_554
Li8 O6 2.137627 1_555
Li8 O10 2.146599 1_655
Li8 O10 2.146599 1_565
Mn0 O3 1.829133 1_555
Mn0 O15 1.937448 1_544
Mn0 O15 1.937448 1_454
Mn0 O0 1.980655 1_545
Mn0 O0 1.980655 1_455
Mn0 O12 2.071360 1_444
Mn1 O13 1.897177 1_555
Mn1 O1 1.935875 1_655
Mn1 O1 1.935875 1_565
Mn1 O8 1.965993 1_655
Mn1 O8 1.965993 1_565
Mn1 O4 2.009959 1_555
Co0 O2 1.944415 1_655
Co0 O2 1.944415 1_565
Co0 O9 1.963013 1_655
Co0 O9 1.963013 1_565
Co0 O5 2.124409 1_555
Co0 O14 2.128460 1_555
Co1 O11 1.970171 1_565
Co1 O11 1.970171 1_655
Co1 O4 2.016046 1_455
Co1 O4 2.016046 1_545
Co1 O7 2.040104 1_555
Co1 O8 2.142177 1_555
Co2 O5 1.980905 1_455
Co2 O5 1.980905 1_545
Co2 O12 2.031058 1_545
Co2 O12 2.031058 1_455
Co2 O0 2.034099 1_556
Co2 O9 2.050700 1_555
Co3 O10 1.784899 1_555
Co3 O6 1.971487 1_545
Co3 O6 1.971487 1_455
Co3 O13 2.085103 1_455
Co3 O13 2.085103 1_545
Co3 O1 2.357588 1_555
Co4 O14 2.006199 1_545
Co4 O14 2.006199 1_455
Co4 O7 2.056307 1_455
Co4 O7 2.056307 1_545
Co4 O2 2.074469 1_555
Co4 O11 2.091994 1_555
