# generated using pymatgen
data_Li9Mn2Co5O16
_symmetry_space_group_name_H-M   'P 1'
_cell_length_a   5.13077500
_cell_length_b   7.72248618
_cell_length_c   7.77340057
_cell_angle_alpha   81.01984161
_cell_angle_beta   84.04929522
_cell_angle_gamma   71.30969200
_symmetry_Int_Tables_number   1
_chemical_formula_structural   Li9Mn2Co5O16
_chemical_formula_sum   'Li9 Mn2 Co5 O16'
_cell_volume   287.70734708
_cell_formula_units_Z   1
loop_
 _symmetry_equiv_pos_site_id
 _symmetry_equiv_pos_as_xyz
  1  'x, y, z'
loop_
 _atom_site_type_symbol
 _atom_site_label
 _atom_site_symmetry_multiplicity
 _atom_site_fract_x
 _atom_site_fract_y
 _atom_site_fract_z
 _atom_site_occupancy
  Li  Li0  1  0.50136600  0.68631800  0.93797800  1
  Li  Li1  1  0.49464700  0.93981000  0.19144300  1
  Li  Li2  1  0.50581000  0.56284700  0.31798300  1
  Li  Li3  1  0.50491000  0.80761600  0.56205900  1
  Li  Li4  1  0.49419000  0.43715300  0.68201700  1
  Li  Li5  1  0.49863400  0.31368200  0.06202200  1
  Li  Li6  1  0.49509000  0.19238400  0.43794100  1
  Li  Li7  1  0.50535300  0.06019000  0.80855700  1
  Li  Li8  1  0.00000000  0.50000000  0.50000000  1
  Mn  Mn0  1  0.00948900  0.74575200  0.74874600  1
  Mn  Mn1  1  0.99051100  0.25424800  0.25125400  1
  Co  Co0  1  0.00000000  0.00000000  0.00000000  1
  Co  Co1  1  0.00573700  0.62295800  0.13169300  1
  Co  Co2  1  0.99422400  0.86540700  0.37685400  1
  Co  Co3  1  0.00577600  0.13459300  0.62314600  1
  Co  Co4  1  0.99426300  0.37704200  0.86830700  1
  O  O0  1  0.78017600  0.59126600  0.73061100  1
  O  O1  1  0.78076700  0.82953400  0.96245000  1
  O  O2  1  0.76853200  0.45885900  0.09947500  1
  O  O3  1  0.76368600  0.73256300  0.33704700  1
  O  O4  1  0.76542500  0.33160000  0.45566300  1
  O  O5  1  0.76664200  0.20868000  0.84576000  1
  O  O6  1  0.77207400  0.09967700  0.21646500  1
  O  O7  1  0.78028900  0.95589100  0.60275100  1
  O  O8  1  0.23335800  0.79132000  0.15424000  1
  O  O9  1  0.21971100  0.04410900  0.39724900  1
  O  O10  1  0.23457500  0.66840000  0.54433700  1
  O  O11  1  0.22792600  0.90032300  0.78353500  1
  O  O12  1  0.23146800  0.54114100  0.90052500  1
  O  O13  1  0.21982400  0.40873400  0.26938900  1
  O  O14  1  0.23631400  0.26743700  0.66295300  1
  O  O15  1  0.21923300  0.17046600  0.03755000  1
loop_
_geom_bond_atom_site_label_1
_geom_bond_atom_site_label_2
_geom_bond_distance
_geom_bond_site_symmetry_2
Li0 O11 2.093966 1_555
Li0 O0 2.098054 1_555
Li0 O12 2.107091 1_555
Li0 O1 2.110166 1_555
Li0 O8 2.146177 1_556
Li0 O2 2.160015 1_556
Li1 O3 2.022499 1_555
Li1 O8 2.089260 1_555
Li1 O9 2.098616 1_565
Li1 O15 2.161664 1_565
Li1 O6 2.201533 1_565
Li1 O1 2.275758 1_554
Li2 O4 2.069586 1_555
Li2 O2 2.145762 1_555
Li2 O3 2.168639 1_555
Li2 O8 2.185029 1_555
Li2 O10 2.215876 1_555
Li2 O13 2.255364 1_555
Li3 O10 2.034752 1_555
Li3 O3 2.121300 1_555
Li3 O7 2.156418 1_555
Li3 O0 2.165817 1_555
Li3 O11 2.172920 1_555
Li3 O9 2.250210 1_565
Li4 O10 2.069586 1_555
Li4 O12 2.145762 1_555
Li4 O14 2.168639 1_555
Li4 O5 2.185029 1_555
Li4 O4 2.215876 1_555
Li4 O0 2.255364 1_555
Li5 O6 2.093966 1_555
Li5 O13 2.098054 1_555
Li5 O2 2.107091 1_555
Li5 O15 2.110166 1_555
Li5 O5 2.146177 1_554
Li5 O12 2.160015 1_554
Li6 O4 2.034752 1_555
Li6 O14 2.121300 1_555
Li6 O9 2.156418 1_555
Li6 O13 2.165817 1_555
Li6 O6 2.172920 1_555
Li6 O7 2.250210 1_545
Li7 O14 2.022499 1_555
Li7 O5 2.089260 1_555
Li7 O7 2.098616 1_545
Li7 O1 2.161664 1_545
Li7 O11 2.201533 1_545
Li7 O15 2.275758 1_556
Li8 O0 2.109051 1_455
Li8 O13 2.109051 1_555
Li8 O10 2.118394 1_555
Li8 O4 2.118394 1_455
Li8 O3 2.124322 1_455
Li8 O14 2.124322 1_555
Mn0 O10 1.920679 1_555
Mn0 O12 1.931098 1_555
Mn0 O11 1.942961 1_555
Mn0 O7 1.944999 1_455
Mn0 O0 1.952930 1_455
Mn0 O1 2.000020 1_455
Mn1 O4 1.920679 1_555
Mn1 O2 1.931098 1_555
Mn1 O6 1.942961 1_555
Mn1 O9 1.944999 1_655
Mn1 O13 1.952930 1_655
Mn1 O15 2.000020 1_655
Co0 O8 1.981396 1_545
Co0 O5 1.981396 1_454
Co0 O11 2.052047 1_544
Co0 O6 2.052047 1_455
Co0 O15 2.054381 1_555
Co0 O1 2.054381 1_444
Co1 O13 1.901426 1_555
Co1 O1 2.021772 1_454
Co1 O3 2.035678 1_455
Co1 O8 2.042511 1_555
Co1 O2 2.073789 1_455
Co1 O12 2.103229 1_554
Co2 O3 1.870830 1_555
Co2 O10 2.010583 1_655
Co2 O8 2.060630 1_655
Co2 O7 2.066019 1_555
Co2 O6 2.096543 1_565
Co2 O9 2.097060 1_665
Co3 O14 1.870830 1_555
Co3 O4 2.010583 1_455
Co3 O5 2.060630 1_455
Co3 O9 2.066019 1_555
Co3 O11 2.096543 1_545
Co3 O7 2.097060 1_445
Co4 O0 1.901426 1_555
Co4 O15 2.021772 1_656
Co4 O14 2.035678 1_655
Co4 O5 2.042511 1_555
Co4 O12 2.073789 1_655
Co4 O2 2.103229 1_556
