# generated using pymatgen
data_Sr9(CrN4)2
_symmetry_space_group_name_H-M   'P 1'
_cell_length_a   10.42847734
_cell_length_b   5.24210006
_cell_length_c   8.51004758
_cell_angle_alpha   90.00000103
_cell_angle_beta   68.61597493
_cell_angle_gamma   75.44342892
_symmetry_Int_Tables_number   1
_chemical_formula_structural   Sr9(CrN4)2
_chemical_formula_sum   'Sr9 Cr2 N8'
_cell_volume   417.11428188
_cell_formula_units_Z   1
loop_
 _symmetry_equiv_pos_site_id
 _symmetry_equiv_pos_as_xyz
  1  'x, y, z'
loop_
 _atom_site_type_symbol
 _atom_site_label
 _atom_site_symmetry_multiplicity
 _atom_site_fract_x
 _atom_site_fract_y
 _atom_site_fract_z
 _atom_site_occupancy
  Sr  Sr0  1  0.00000000  0.50000000  0.50000000  1
  Sr  Sr1  1  0.08007000  0.95996500  0.75901600  1
  Sr  Sr2  1  0.91993000  0.04003500  0.24098400  1
  Sr  Sr3  1  0.65113800  0.67443100  0.44818800  1
  Sr  Sr4  1  0.34886200  0.32556900  0.55181200  1
  Sr  Sr5  1  0.82663000  0.58668500  0.99070400  1
  Sr  Sr6  1  0.17337000  0.41331500  0.00929600  1
  Sr  Sr7  1  0.60774200  0.19612900  0.82734700  1
  Sr  Sr8  1  0.39225800  0.80387100  0.17265300  1
  Cr  Cr0  1  0.38392200  0.80803900  0.80348500  1
  Cr  Cr1  1  0.61607800  0.19196100  0.19651500  1
  N  N0  1  0.22857600  0.88571200  0.98500100  1
  N  N1  1  0.77142400  0.11428800  0.01499900  1
  N  N2  1  0.36808500  0.81595800  0.60961200  1
  N  N3  1  0.63191500  0.18404200  0.39038800  1
  N  N4  1  0.55068600  0.72465700  0.81853400  1
  N  N5  1  0.44931400  0.27534300  0.18146600  1
  N  N6  1  0.07283500  0.46358200  0.75611200  1
  N  N7  1  0.92716500  0.53641800  0.24388800  1
loop_
_geom_bond_atom_site_label_1
_geom_bond_atom_site_label_2
_geom_bond_distance
_geom_bond_site_symmetry_2
Cr0 N2 1.716486 1_555
Cr0 N4 1.735573 1_555
Cr0 N0 1.737795 1_555
Cr1 N3 1.716486 1_555
Cr1 N5 1.735573 1_555
Cr1 N1 1.737795 1_555
N0 Sr6 2.671396 1_556
N0 Sr6 2.671396 1_566
N0 Sr8 2.695852 1_556
N0 Sr1 2.849094 1_555
N0 Sr2 3.055813 1_466
N1 Sr5 2.671396 1_554
N1 Sr5 2.671396 1_544
N1 Sr7 2.695852 1_554
N1 Sr2 2.849094 1_555
N1 Sr1 3.055813 1_644
N2 Sr3 2.663245 1_555
N2 Sr4 2.687265 1_565
N2 Sr4 2.687270 1_555
N2 Sr1 2.698742 1_555
N3 Sr4 2.663245 1_555
N3 Sr3 2.687265 1_545
N3 Sr3 2.687270 1_555
N3 Sr2 2.698742 1_555
N4 Sr7 2.690676 1_565
N4 Sr7 2.690676 1_555
N4 Sr8 2.829845 1_556
N4 Sr3 2.924624 1_555
N5 Sr8 2.690676 1_545
N5 Sr8 2.690676 1_555
N5 Sr7 2.829845 1_554
N5 Sr4 2.924624 1_555
N6 Sr5 2.534461 1_455
N6 Sr0 2.549126 1_555
N6 Sr1 2.622440 1_545
N6 Sr1 2.622446 1_555
N6 Sr4 2.671284 1_555
N6 Sr6 2.705439 1_556
N7 Sr6 2.534461 1_655
N7 Sr0 2.549126 1_655
N7 Sr2 2.622440 1_565
N7 Sr2 2.622446 1_555
N7 Sr3 2.671284 1_555
N7 Sr5 2.705439 1_554
