# generated using pymatgen
data_Ba3(AlAs2)2
_symmetry_space_group_name_H-M   'P 1'
_cell_length_a   7.52623309
_cell_length_b   11.90549219
_cell_length_c   11.96024198
_cell_angle_alpha   90.00000000
_cell_angle_beta   90.00000000
_cell_angle_gamma   90.00000000
_symmetry_Int_Tables_number   1
_chemical_formula_structural   Ba3(AlAs2)2
_chemical_formula_sum   'Ba12 Al8 As16'
_cell_volume   1071.67965316
_cell_formula_units_Z   4
loop_
 _symmetry_equiv_pos_site_id
 _symmetry_equiv_pos_as_xyz
  1  'x, y, z'
loop_
 _atom_site_type_symbol
 _atom_site_label
 _atom_site_symmetry_multiplicity
 _atom_site_fract_x
 _atom_site_fract_y
 _atom_site_fract_z
 _atom_site_occupancy
  Ba  Ba0  1  0.58058981  0.07755796  0.36102113  1
  Ba  Ba1  1  0.08058981  0.42244204  0.13897887  1
  Ba  Ba2  1  0.41941019  0.57755796  0.63897887  1
  Ba  Ba3  1  0.91941019  0.92244204  0.86102113  1
  Ba  Ba4  1  0.41941019  0.92244204  0.63897887  1
  Ba  Ba5  1  0.91941019  0.57755796  0.86102113  1
  Ba  Ba6  1  0.58058981  0.42244204  0.36102113  1
  Ba  Ba7  1  0.08058981  0.07755796  0.13897887  1
  Ba  Ba8  1  0.59389436  0.25000000  0.73657588  1
  Ba  Ba9  1  0.09389436  0.25000000  0.76342412  1
  Ba  Ba10  1  0.40610564  0.75000000  0.26342412  1
  Ba  Ba11  1  0.90610564  0.75000000  0.23657588  1
  Al  Al0  1  0.55897151  0.12523314  0.03631290  1
  Al  Al1  1  0.05897151  0.37476686  0.46368710  1
  Al  Al2  1  0.44102849  0.62523314  0.96368710  1
  Al  Al3  1  0.94102849  0.87476686  0.53631290  1
  Al  Al4  1  0.44102849  0.87476686  0.96368710  1
  Al  Al5  1  0.94102849  0.62523314  0.53631290  1
  Al  Al6  1  0.55897151  0.37476686  0.03631290  1
  Al  Al7  1  0.05897151  0.12523314  0.46368710  1
  As  As0  1  0.65694460  0.55796446  0.11300014  1
  As  As1  1  0.15694460  0.94203554  0.38699986  1
  As  As2  1  0.34305540  0.05796446  0.88699986  1
  As  As3  1  0.84305540  0.44203554  0.61300014  1
  As  As4  1  0.34305540  0.44203554  0.88699986  1
  As  As5  1  0.84305540  0.05796446  0.61300014  1
  As  As6  1  0.65694460  0.94203554  0.11300014  1
  As  As7  1  0.15694460  0.55796446  0.38699986  1
  As  As8  1  0.81087452  0.25000000  0.97232119  1
  As  As9  1  0.31087452  0.25000000  0.52767881  1
  As  As10  1  0.18912548  0.75000000  0.02767881  1
  As  As11  1  0.68912548  0.75000000  0.47232119  1
  As  As12  1  0.90973114  0.25000000  0.32832039  1
  As  As13  1  0.40973114  0.25000000  0.17167961  1
  As  As14  1  0.09026886  0.75000000  0.67167961  1
  As  As15  1  0.59026886  0.75000000  0.82832039  1
loop_
_geom_bond_atom_site_label_1
_geom_bond_atom_site_label_2
_geom_bond_distance
_geom_bond_site_symmetry_2
Al0 As13 2.467648 1_555
Al0 As6 2.478301 1_545
Al0 As8 2.527168 1_554
Al0 As2 2.543871 1_554
Al1 As12 2.467648 1_455
Al1 As7 2.478301 1_555
Al1 As9 2.527168 1_555
Al1 As3 2.543871 1_455
Al2 As15 2.467648 1_555
Al2 As4 2.478301 1_555
Al2 As10 2.527168 1_556
Al2 As0 2.543871 1_556
Al3 As14 2.467648 1_655
Al3 As5 2.478301 1_565
Al3 As11 2.527168 1_555
Al3 As1 2.543871 1_655
Al4 As15 2.467648 1_555
Al4 As2 2.478301 1_565
Al4 As10 2.527168 1_556
Al4 As6 2.543871 1_556
Al5 As14 2.467648 1_655
Al5 As3 2.478301 1_555
Al5 As11 2.527168 1_555
Al5 As7 2.543871 1_655
Al6 As13 2.467648 1_555
Al6 As0 2.478301 1_555
Al6 As8 2.527168 1_554
Al6 As4 2.543871 1_554
Al7 As12 2.467648 1_455
Al7 As1 2.478301 1_545
Al7 As9 2.527168 1_555
Al7 As5 2.543871 1_455
As0 Ba11 3.305764 1_555
As0 Ba6 3.425343 1_555
As0 Ba10 3.468128 1_555
As0 Ba1 3.586925 1_655
As0 Ba5 3.610969 1_554
As1 Ba10 3.305764 1_555
As1 Ba7 3.425343 1_565
As1 Ba11 3.468128 1_455
As1 Ba0 3.586925 1_565
As1 Ba4 3.610969 1_555
As2 Ba9 3.305764 1_555
As2 Ba4 3.425343 1_545
As2 Ba8 3.468128 1_555
As2 Ba3 3.586925 1_445
As2 Ba7 3.610969 1_556
As3 Ba8 3.305764 1_555
As3 Ba5 3.425343 1_555
As3 Ba9 3.468128 1_655
As3 Ba2 3.586925 1_555
As3 Ba6 3.610969 1_555
As4 Ba9 3.305764 1_555
As4 Ba2 3.425343 1_555
As4 Ba8 3.468128 1_555
As4 Ba5 3.586925 1_455
As4 Ba1 3.610969 1_556
As5 Ba8 3.305764 1_555
As5 Ba3 3.425343 1_545
As5 Ba9 3.468128 1_655
As5 Ba4 3.586925 1_545
As5 Ba0 3.610969 1_555
As6 Ba11 3.305764 1_555
As6 Ba0 3.425343 1_565
As6 Ba10 3.468128 1_555
As6 Ba7 3.586925 1_665
As6 Ba3 3.610969 1_554
As7 Ba10 3.305764 1_555
As7 Ba1 3.425343 1_555
As7 Ba11 3.468128 1_455
As7 Ba6 3.586925 1_555
As7 Ba2 3.610969 1_555
As8 Ba8 3.258345 1_555
As8 Ba9 3.283217 1_655
As8 Ba1 3.508362 1_656
As8 Ba7 3.508362 1_656
As9 Ba9 3.258345 1_555
As9 Ba8 3.283217 1_555
As9 Ba0 3.508362 1_555
As9 Ba6 3.508362 1_555
As10 Ba10 3.258345 1_555
As10 Ba11 3.283217 1_455
As10 Ba5 3.508362 1_454
As10 Ba3 3.508362 1_454
As11 Ba11 3.258345 1_555
As11 Ba10 3.283217 1_555
As11 Ba4 3.508362 1_555
As11 Ba2 3.508362 1_555
As12 Ba0 3.241033 1_555
As12 Ba6 3.241033 1_555
As12 Ba7 3.316129 1_655
As12 Ba1 3.316129 1_655
As13 Ba7 3.241033 1_555
As13 Ba1 3.241033 1_555
As13 Ba6 3.316129 1_555
As13 Ba0 3.316129 1_555
As14 Ba4 3.241033 1_555
As14 Ba2 3.241033 1_555
As14 Ba5 3.316129 1_455
As14 Ba3 3.316129 1_455
As15 Ba3 3.241033 1_555
As15 Ba5 3.241033 1_555
As15 Ba4 3.316129 1_555
As15 Ba2 3.316129 1_555
