# generated using pymatgen
data_TeMoWSe2S
_symmetry_space_group_name_H-M   'P 1'
_cell_length_a   3.34079719
_cell_length_b   3.34079719
_cell_length_c   38.07424100
_cell_angle_alpha   90.00000000
_cell_angle_beta   90.00000000
_cell_angle_gamma   119.99998393
_symmetry_Int_Tables_number   1
_chemical_formula_structural   TeMoWSe2S
_chemical_formula_sum   'Te2 Mo2 W2 Se4 S2'
_cell_volume   368.01216894
_cell_formula_units_Z   2
loop_
 _symmetry_equiv_pos_site_id
 _symmetry_equiv_pos_as_xyz
  1  'x, y, z'
loop_
 _atom_site_type_symbol
 _atom_site_label
 _atom_site_symmetry_multiplicity
 _atom_site_fract_x
 _atom_site_fract_y
 _atom_site_fract_z
 _atom_site_occupancy
  Te  Te0  1  0.33333300  0.66666700  0.33156800  1
  Te  Te1  1  0.33333300  0.66666700  0.23196800  1
  Mo  Mo0  1  0.33333300  0.66666700  0.46969400  1
  Mo  Mo1  1  0.66666700  0.33333300  0.28179600  1
  W  W0  1  0.33333300  0.66666700  0.09391900  1
  W  W1  1  0.66666700  0.33333300  0.65753200  1
  Se  Se0  1  0.33333300  0.66666700  0.70152300  1
  Se  Se1  1  0.66666700  0.33333300  0.42589500  1
  Se  Se2  1  0.66666700  0.33333300  0.51346100  1
  Se  Se3  1  0.33333300  0.66666700  0.61354500  1
  S  S0  1  0.66666700  0.33333300  0.05391600  1
  S  S1  1  0.66666700  0.33333300  0.13393000  1
loop_
_geom_bond_atom_site_label_1
_geom_bond_atom_site_label_2
_geom_bond_distance
_geom_bond_site_symmetry_2
Mo0 Se2 2.548956 1_565
Mo0 Se2 2.548956 1_455
Mo0 Se2 2.548960 1_555
Mo0 Se1 2.549752 1_455
Mo0 Se1 2.549752 1_565
Mo0 Se1 2.549757 1_555
Mo1 Te0 2.703968 1_545
Mo1 Te0 2.703968 1_655
Mo1 Te0 2.703972 1_555
Mo1 Te1 2.705463 1_545
Mo1 Te1 2.705463 1_655
Mo1 Te1 2.705467 1_555
Se0 W1 2.554540 1_455
Se0 W1 2.554540 1_565
Se0 W1 2.554544 1_555
Se3 W1 2.554440 1_455
Se3 W1 2.554440 1_565
Se3 W1 2.554444 1_555
S0 W0 2.457659 1_655
S0 W0 2.457659 1_545
S0 W0 2.457663 1_555
S1 W0 2.457848 1_655
S1 W0 2.457848 1_545
S1 W0 2.457852 1_555
