# generated using pymatgen
data_CrH12I(N2Cl)2
_symmetry_space_group_name_H-M   'P 1'
_cell_length_a   6.79633185
_cell_length_b   6.79633185
_cell_length_c   6.69563305
_cell_angle_alpha   75.63025167
_cell_angle_beta   104.36974833
_cell_angle_gamma   99.27127171
_symmetry_Int_Tables_number   1
_chemical_formula_structural   CrH12I(N2Cl)2
_chemical_formula_sum   'Cr1 H12 I1 N4 Cl2'
_cell_volume   288.58670807
_cell_formula_units_Z   1
loop_
 _symmetry_equiv_pos_site_id
 _symmetry_equiv_pos_as_xyz
  1  'x, y, z'
loop_
 _atom_site_type_symbol
 _atom_site_label
 _atom_site_symmetry_multiplicity
 _atom_site_fract_x
 _atom_site_fract_y
 _atom_site_fract_z
 _atom_site_occupancy
  Cr  Cr0  1  0.00000000  0.00000000  0.50000000  1
  H  H0  1  0.12960900  0.39440400  0.38252900  1
  H  H1  1  0.60559600  0.87039100  0.38252900  1
  H  H2  1  0.87039100  0.60559600  0.61747100  1
  H  H3  1  0.39440400  0.12960900  0.61747100  1
  H  H4  1  0.92088300  0.34385800  0.21390200  1
  H  H5  1  0.65614200  0.07911700  0.21390200  1
  H  H6  1  0.07911700  0.65614200  0.78609800  1
  H  H7  1  0.34385800  0.92088300  0.78609800  1
  H  H8  1  0.14066200  0.28139700  0.19521700  1
  H  H9  1  0.71860300  0.85933800  0.19521700  1
  H  H10  1  0.85933800  0.71860300  0.80478300  1
  H  H11  1  0.28139700  0.14066200  0.80478300  1
  I  I0  1  0.50000000  0.50000000  0.00000000  1
  N  N0  1  0.05438900  0.28601400  0.30053600  1
  N  N1  1  0.71398600  0.94561100  0.30053600  1
  N  N2  1  0.94561100  0.71398600  0.69946400  1
  N  N3  1  0.28601400  0.05438900  0.69946400  1
  Cl  Cl0  1  0.84521200  0.15478800  0.68431800  1
  Cl  Cl1  1  0.15478800  0.84521200  0.31568200  1
loop_
_geom_bond_atom_site_label_1
_geom_bond_atom_site_label_2
_geom_bond_distance
_geom_bond_site_symmetry_2
Cr0 N1 2.103276 1_445
Cr0 N2 2.103276 1_445
Cr0 N3 2.103276 1_555
Cr0 N0 2.103276 1_555
H0 N0 1.022490 1_555
H1 N1 1.022490 1_555
H2 N2 1.022490 1_555
H3 N3 1.022490 1_555
H4 N0 1.027043 1_655
H5 N1 1.027043 1_545
H6 N2 1.027043 1_455
H7 N3 1.027043 1_565
H8 N0 1.031599 1_555
H9 N1 1.031599 1_555
H10 N2 1.031599 1_555
H11 N3 1.031599 1_555
Cl0 Cr0 2.319883 1_655
Cl1 Cr0 2.319883 1_565
