# generated using pymatgen
data_Nb7Ni6
_symmetry_space_group_name_H-M   'P 1'
_cell_length_a   4.94412265
_cell_length_b   4.94412265
_cell_length_c   9.42419837
_cell_angle_alpha   74.79282414
_cell_angle_beta   74.79282414
_cell_angle_gamma   59.99999132
_symmetry_Int_Tables_number   1
_chemical_formula_structural   Nb7Ni6
_chemical_formula_sum   'Nb7 Ni6'
_cell_volume   190.13325555
_cell_formula_units_Z   1
loop_
 _symmetry_equiv_pos_site_id
 _symmetry_equiv_pos_as_xyz
  1  'x, y, z'
loop_
 _atom_site_type_symbol
 _atom_site_label
 _atom_site_symmetry_multiplicity
 _atom_site_fract_x
 _atom_site_fract_y
 _atom_site_fract_z
 _atom_site_occupancy
  Nb  Nb0  1  0.00000000  0.00000000  0.00000000  1
  Nb  Nb1  1  0.16478400  0.16478400  0.50564800  1
  Nb  Nb2  1  0.83521600  0.83521600  0.49435200  1
  Nb  Nb3  1  0.34615600  0.34615600  0.96153100  1
  Nb  Nb4  1  0.65384400  0.65384400  0.03846900  1
  Nb  Nb5  1  0.45138900  0.45138900  0.64583400  1
  Nb  Nb6  1  0.54861100  0.54861100  0.35416600  1
  Ni  Ni0  1  0.58362900  0.09027000  0.23583100  1
  Ni  Ni1  1  0.09027000  0.09027000  0.23583100  1
  Ni  Ni2  1  0.09027000  0.58362900  0.23583100  1
  Ni  Ni3  1  0.41637100  0.90973000  0.76416900  1
  Ni  Ni4  1  0.90973000  0.90973000  0.76416900  1
  Ni  Ni5  1  0.90973000  0.41637100  0.76416900  1
loop_
_geom_bond_atom_site_label_1
_geom_bond_atom_site_label_2
_geom_bond_distance
_geom_bond_site_symmetry_2
Nb0 Ni5 2.564745 1_454
Nb0 Ni3 2.564745 1_544
Nb0 Ni0 2.564745 1_455
Nb0 Ni2 2.564745 1_545
Nb0 Ni4 2.564745 1_444
Nb0 Ni1 2.564745 1_555
Nb0 Nb3 2.875322 1_554
Nb0 Nb4 2.875322 1_445
Nb0 Nb4 2.875326 1_545
Nb0 Nb3 2.875326 1_544
Nb0 Nb3 2.875326 1_454
Nb0 Nb4 2.875326 1_455
Nb1 Ni5 2.735462 1_455
Nb1 Ni3 2.735462 1_545
Nb1 Ni4 2.735462 1_445
Nb1 Ni0 2.802849 1_555
Nb1 Ni2 2.802849 1_555
Nb1 Ni1 2.802849 1_555
Nb1 Nb5 3.119838 1_455
Nb1 Nb5 3.119838 1_545
Nb1 Nb5 3.119843 1_555
Nb1 Nb6 3.162145 1_555
Nb1 Nb6 3.162148 1_455
Nb1 Nb6 3.162148 1_545
Nb2 Ni2 2.735462 1_655
Nb2 Ni0 2.735462 1_565
Nb2 Ni1 2.735462 1_665
Nb2 Ni5 2.802849 1_555
Nb2 Ni3 2.802849 1_555
Nb2 Ni4 2.802849 1_555
Nb2 Nb6 3.119838 1_565
Nb2 Nb6 3.119838 1_655
Nb2 Nb6 3.119843 1_555
Nb2 Nb5 3.162145 1_555
Nb2 Nb5 3.162148 1_565
Nb2 Nb5 3.162148 1_655
Nb3 Nb5 2.835434 1_555
Nb3 Ni1 2.837732 1_556
Nb3 Ni0 2.837734 1_556
Nb3 Ni2 2.837734 1_556
Nb3 Nb4 2.936938 1_546
Nb3 Nb4 2.936938 1_456
Nb3 Nb4 2.936947 1_556
Nb3 Ni5 3.041968 1_455
Nb3 Ni3 3.041968 1_545
Nb3 Ni4 3.041970 1_545
Nb3 Ni4 3.041970 1_455
Nb3 Ni3 3.041972 1_555
Nb3 Ni5 3.041972 1_555
Nb4 Nb6 2.835434 1_555
Nb4 Ni4 2.837732 1_554
Nb4 Ni5 2.837734 1_554
Nb4 Ni3 2.837734 1_554
Nb4 Ni2 3.041968 1_655
Nb4 Ni0 3.041968 1_565
Nb4 Ni1 3.041970 1_655
Nb4 Ni1 3.041970 1_565
Nb4 Ni2 3.041972 1_555
Nb4 Ni0 3.041972 1_555
Nb5 Nb6 2.619617 1_555
Nb5 Ni3 2.690917 1_555
Nb5 Ni5 2.690917 1_555
Nb5 Ni4 2.690919 1_455
Nb5 Ni4 2.690919 1_545
Nb5 Ni3 2.690921 1_545
Nb5 Ni5 2.690921 1_455
Nb6 Ni0 2.690917 1_555
Nb6 Ni2 2.690917 1_555
Nb6 Ni1 2.690919 1_565
Nb6 Ni1 2.690919 1_655
Nb6 Ni0 2.690921 1_565
Nb6 Ni2 2.690921 1_655
Ni0 Ni2 2.439227 1_555
Ni0 Ni1 2.439227 1_555
Ni0 Ni2 2.504895 1_645
Ni0 Ni1 2.504895 1_655
Ni1 Ni2 2.439227 1_555
Ni1 Ni2 2.504895 1_545
Ni3 Ni5 2.439227 1_555
Ni3 Ni4 2.439227 1_555
Ni3 Ni5 2.504895 1_465
Ni3 Ni4 2.504895 1_455
Ni4 Ni5 2.439227 1_555
Ni4 Ni5 2.504895 1_565
