# generated using pymatgen
data_NaV4(CuO4)3
_symmetry_space_group_name_H-M   'P 1'
_cell_length_a   6.35704389
_cell_length_b   6.35704389
_cell_length_c   6.35704389
_cell_angle_alpha   109.47122063
_cell_angle_beta   109.47122063
_cell_angle_gamma   109.47122063
_symmetry_Int_Tables_number   1
_chemical_formula_structural   NaV4(CuO4)3
_chemical_formula_sum   'Na1 V4 Cu3 O12'
_cell_volume   197.76240662
_cell_formula_units_Z   1
loop_
 _symmetry_equiv_pos_site_id
 _symmetry_equiv_pos_as_xyz
  1  'x, y, z'
loop_
 _atom_site_type_symbol
 _atom_site_label
 _atom_site_symmetry_multiplicity
 _atom_site_fract_x
 _atom_site_fract_y
 _atom_site_fract_z
 _atom_site_occupancy
  Na  Na0  1  0.00000000  0.00000000  0.00000000  1
  V  V0  1  0.50000000  0.50000000  0.50000000  1
  V  V1  1  0.50000000  0.00000000  0.00000000  1
  V  V2  1  0.00000000  0.50000000  0.00000000  1
  V  V3  1  0.00000000  0.00000000  0.50000000  1
  Cu  Cu0  1  0.50000000  0.50000000  0.00000000  1
  Cu  Cu1  1  0.50000000  0.00000000  0.50000000  1
  Cu  Cu2  1  0.00000000  0.50000000  0.50000000  1
  O  O0  1  0.81597600  0.69528100  0.51125800  1
  O  O1  1  0.18402400  0.30471900  0.48874200  1
  O  O2  1  0.18402400  0.69528100  0.87930500  1
  O  O3  1  0.81597600  0.30471900  0.12069500  1
  O  O4  1  0.69528100  0.51125800  0.81597600  1
  O  O5  1  0.30471900  0.48874200  0.18402400  1
  O  O6  1  0.69528100  0.87930500  0.18402400  1
  O  O7  1  0.30471900  0.12069500  0.81597600  1
  O  O8  1  0.51125800  0.81597600  0.69528100  1
  O  O9  1  0.48874200  0.18402400  0.30471900  1
  O  O10  1  0.12069500  0.81597600  0.30471900  1
  O  O11  1  0.87930500  0.18402400  0.69528100  1
loop_
_geom_bond_atom_site_label_1
_geom_bond_atom_site_label_2
_geom_bond_distance
_geom_bond_site_symmetry_2
Na0 O8 2.613026 1_444
Na0 O4 2.613026 1_444
Na0 O5 2.613026 1_555
Na0 O9 2.613026 1_555
Na0 O0 2.613026 1_444
Na0 O1 2.613026 1_555
Na0 O3 2.613031 1_455
Na0 O10 2.613031 1_545
Na0 O2 2.613031 1_544
Na0 O6 2.613031 1_445
Na0 O7 2.613031 1_554
Na0 O11 2.613031 1_454
Cu0 O6 1.969651 1_555
Cu0 O7 1.969651 1_554
Cu0 O5 1.969651 1_555
Cu0 O4 1.969651 1_554
Cu1 O11 1.969651 1_555
Cu1 O10 1.969651 1_545
Cu1 O8 1.969651 1_545
Cu1 O9 1.969651 1_555
Cu2 O3 1.969651 1_455
Cu2 O2 1.969651 1_555
Cu2 O1 1.969651 1_555
Cu2 O0 1.969651 1_455
O0 V0 1.939982 1_555
O0 V3 1.939989 1_665
O1 V0 1.939982 1_555
O1 V3 1.939989 1_555
O2 V2 1.939985 1_556
O2 V1 1.939985 1_566
O3 V2 1.939985 1_655
O3 V1 1.939985 1_555
O4 V0 1.939982 1_555
O4 V2 1.939989 1_656
O5 V0 1.939982 1_555
O5 V2 1.939989 1_555
O6 V1 1.939985 1_565
O6 V3 1.939985 1_665
O7 V1 1.939985 1_556
O7 V3 1.939985 1_555
O8 V0 1.939982 1_555
O8 V1 1.939989 1_566
O9 V0 1.939982 1_555
O9 V1 1.939989 1_555
O10 V3 1.939985 1_565
O10 V2 1.939985 1_555
O11 V3 1.939985 1_655
O11 V2 1.939985 1_656
