# generated using pymatgen
data_ZrAg2
_symmetry_space_group_name_H-M   'P 1'
_cell_length_a   3.54334095
_cell_length_b   3.54334095
_cell_length_c   5.15479528
_cell_angle_alpha   110.10206629
_cell_angle_beta   110.10206629
_cell_angle_gamma   90.00000000
_symmetry_Int_Tables_number   1
_chemical_formula_structural   ZrAg2
_chemical_formula_sum   'Zr1 Ag2'
_cell_volume   56.56043881
_cell_formula_units_Z   1
loop_
 _symmetry_equiv_pos_site_id
 _symmetry_equiv_pos_as_xyz
  1  'x, y, z'
loop_
 _atom_site_type_symbol
 _atom_site_label
 _atom_site_symmetry_multiplicity
 _atom_site_fract_x
 _atom_site_fract_y
 _atom_site_fract_z
 _atom_site_occupancy
  Zr  Zr0  1  -0.00000000  0.00000000  -0.00000000  1
  Ag  Ag0  1  0.67249180  0.67249180  0.34498461  1
  Ag  Ag1  1  0.32750820  0.32750820  0.65501539  1
loop_
_geom_bond_atom_site_label_1
_geom_bond_atom_site_label_2
_geom_bond_distance
_geom_bond_site_symmetry_2
Ag0 Ag1 2.868497 1_555
Ag0 Ag1 2.868501 1_655
Ag0 Ag1 2.868501 1_565
Ag0 Ag1 2.868506 1_665
Ag0 Zr0 2.948378 1_555
Ag0 Zr0 2.948380 1_655
Ag0 Zr0 2.948380 1_565
Ag0 Zr0 2.948382 1_665
Ag0 Zr0 2.950791 1_666
Ag0 Ag1 3.108255 1_554
Ag1 Zr0 2.948378 1_666
Ag1 Zr0 2.948380 1_566
Ag1 Zr0 2.948380 1_656
Ag1 Zr0 2.948382 1_556
Ag1 Zr0 2.950791 1_555
