# generated using pymatgen
data_Zr(BH4)4
_symmetry_space_group_name_H-M   'P 1'
_cell_length_a   5.96246765
_cell_length_b   5.96246765
_cell_length_c   5.96246765
_cell_angle_alpha   90.00000000
_cell_angle_beta   90.00000000
_cell_angle_gamma   90.00000000
_symmetry_Int_Tables_number   1
_chemical_formula_structural   Zr(BH4)4
_chemical_formula_sum   'Zr1 B4 H16'
_cell_volume   211.97180952
_cell_formula_units_Z   1
loop_
 _symmetry_equiv_pos_site_id
 _symmetry_equiv_pos_as_xyz
  1  'x, y, z'
loop_
 _atom_site_type_symbol
 _atom_site_label
 _atom_site_symmetry_multiplicity
 _atom_site_fract_x
 _atom_site_fract_y
 _atom_site_fract_z
 _atom_site_occupancy
  Zr  Zr0  1  0.00000000  0.00000000  0.00000000  1
  B  B0  1  0.22365952  0.22365952  0.77634048  1
  B  B1  1  0.22365952  0.77634048  0.22365952  1
  B  B2  1  0.77634048  0.22365952  0.22365952  1
  B  B3  1  0.77634048  0.77634048  0.77634048  1
  H  H0  1  0.25340972  0.25340972  0.98087009  1
  H  H1  1  0.25340972  0.01912991  0.74659028  1
  H  H2  1  0.01912991  0.25340972  0.74659028  1
  H  H3  1  0.25340972  0.74659028  0.01912991  1
  H  H4  1  0.25340972  0.98087009  0.25340972  1
  H  H5  1  0.01912991  0.74659028  0.25340972  1
  H  H6  1  0.74659028  0.25340972  0.01912991  1
  H  H7  1  0.74659028  0.01912991  0.25340972  1
  H  H8  1  0.98087009  0.25340972  0.25340972  1
  H  H9  1  0.74659028  0.74659028  0.98087009  1
  H  H10  1  0.74659028  0.98087009  0.74659028  1
  H  H11  1  0.98087009  0.74659028  0.74659028  1
  H  H12  1  0.33861830  0.33861830  0.66138170  1
  H  H13  1  0.33861830  0.66138170  0.33861830  1
  H  H14  1  0.66138170  0.33861830  0.33861830  1
  H  H15  1  0.66138170  0.66138170  0.66138170  1
loop_
_geom_bond_atom_site_label_1
_geom_bond_atom_site_label_2
_geom_bond_distance
_geom_bond_site_symmetry_2
B0 H12 1.187213 1_555
B0 H1 1.245036 1_555
B0 H2 1.245036 1_555
B0 H0 1.245036 1_555
B1 H13 1.187213 1_555
B1 H3 1.245036 1_555
B1 H5 1.245036 1_555
B1 H4 1.245036 1_555
B2 H14 1.187213 1_555
B2 H7 1.245036 1_555
B2 H6 1.245036 1_555
B2 H8 1.245036 1_555
B3 H15 1.187213 1_555
B3 H10 1.245036 1_555
B3 H9 1.245036 1_555
B3 H11 1.245036 1_555
H0 Zr0 2.139844 1_556
H1 Zr0 2.139844 1_556
H2 Zr0 2.139844 1_556
H3 Zr0 2.139844 1_565
H4 Zr0 2.139844 1_565
H5 Zr0 2.139844 1_565
H6 Zr0 2.139844 1_655
H7 Zr0 2.139844 1_655
H8 Zr0 2.139844 1_655
H9 Zr0 2.139844 1_666
H10 Zr0 2.139844 1_666
H11 Zr0 2.139844 1_666
