# generated using pymatgen
data_Sc6Co16Si7
_symmetry_space_group_name_H-M   'P 1'
_cell_length_a   8.06826091
_cell_length_b   8.06826091
_cell_length_c   8.06826091
_cell_angle_alpha   60.00000000
_cell_angle_beta   60.00000000
_cell_angle_gamma   60.00000000
_symmetry_Int_Tables_number   1
_chemical_formula_structural   Sc6Co16Si7
_chemical_formula_sum   'Sc6 Co16 Si7'
_cell_volume   371.38538018
_cell_formula_units_Z   1
loop_
 _symmetry_equiv_pos_site_id
 _symmetry_equiv_pos_as_xyz
  1  'x, y, z'
loop_
 _atom_site_type_symbol
 _atom_site_label
 _atom_site_symmetry_multiplicity
 _atom_site_fract_x
 _atom_site_fract_y
 _atom_site_fract_z
 _atom_site_occupancy
  Sc  Sc0  1  0.71275100  0.71275100  0.28724900  1
  Sc  Sc1  1  0.28724900  0.71275100  0.28724900  1
  Sc  Sc2  1  0.71275100  0.28724900  0.28724900  1
  Sc  Sc3  1  0.28724900  0.28724900  0.71275100  1
  Sc  Sc4  1  0.71275100  0.28724900  0.71275100  1
  Sc  Sc5  1  0.28724900  0.71275100  0.71275100  1
  Co  Co0  1  0.87960700  0.87960700  0.36117800  1
  Co  Co1  1  0.87960700  0.36117800  0.87960700  1
  Co  Co2  1  0.36117800  0.87960700  0.87960700  1
  Co  Co3  1  0.87960700  0.87960700  0.87960700  1
  Co  Co4  1  0.12039300  0.12039300  0.63882200  1
  Co  Co5  1  0.12039300  0.63882200  0.12039300  1
  Co  Co6  1  0.63882200  0.12039300  0.12039300  1
  Co  Co7  1  0.12039300  0.12039300  0.12039300  1
  Co  Co8  1  0.67356400  0.67356400  0.97930800  1
  Co  Co9  1  0.67356400  0.97930800  0.67356400  1
  Co  Co10  1  0.97930800  0.67356400  0.67356400  1
  Co  Co11  1  0.67356400  0.67356400  0.67356400  1
  Co  Co12  1  0.32643600  0.32643600  0.02069200  1
  Co  Co13  1  0.32643600  0.02069200  0.32643600  1
  Co  Co14  1  0.02069200  0.32643600  0.32643600  1
  Co  Co15  1  0.32643600  0.32643600  0.32643600  1
  Si  Si0  1  0.00000000  0.00000000  0.00000000  1
  Si  Si1  1  0.00000000  0.00000000  0.50000000  1
  Si  Si2  1  0.50000000  0.00000000  0.50000000  1
  Si  Si3  1  0.00000000  0.50000000  0.50000000  1
  Si  Si4  1  0.50000000  0.50000000  0.00000000  1
  Si  Si5  1  0.00000000  0.50000000  0.00000000  1
  Si  Si6  1  0.50000000  0.00000000  0.00000000  1
loop_
_geom_bond_atom_site_label_1
_geom_bond_atom_site_label_2
_geom_bond_distance
_geom_bond_site_symmetry_2
Sc0 Si3 2.884050 1_655
Sc0 Si6 2.884050 1_565
Sc0 Si2 2.884050 1_565
Sc0 Si5 2.884050 1_655
Sc1 Si4 2.884050 1_555
Sc1 Si6 2.884050 1_565
Sc1 Si1 2.884050 1_565
Sc1 Si3 2.884050 1_555
Sc2 Si4 2.884050 1_555
Sc2 Si1 2.884050 1_655
Sc2 Si2 2.884050 1_555
Sc2 Si5 2.884050 1_655
Sc3 Si6 2.884050 1_556
Sc3 Si2 2.884050 1_555
Sc3 Si3 2.884050 1_555
Sc3 Si5 2.884050 1_556
Sc4 Si6 2.884050 1_556
Sc4 Si3 2.884050 1_655
Sc4 Si1 2.884050 1_655
Sc4 Si4 2.884050 1_556
Sc5 Si4 2.884050 1_556
Sc5 Si1 2.884050 1_565
Sc5 Si2 2.884050 1_565
Sc5 Si5 2.884050 1_556
Co0 Si0 2.379335 1_665
Co0 Si3 2.502213 1_655
Co0 Si2 2.502213 1_565
Co0 Si1 2.502219 1_665
Co0 Co11 2.502673 1_555
Co0 Co9 2.502677 1_555
Co0 Co10 2.502677 1_555
Co0 Sc0 2.720084 1_555
Co0 Sc1 2.720091 1_655
Co0 Sc2 2.720091 1_565
Co0 Co5 2.747416 1_655
Co0 Co6 2.747416 1_565
Co0 Co7 2.747427 1_665
Co1 Si0 2.379335 1_656
Co1 Si3 2.502213 1_655
Co1 Si4 2.502213 1_556
Co1 Si5 2.502219 1_656
Co1 Co11 2.502673 1_555
Co1 Co8 2.502677 1_555
Co1 Co10 2.502677 1_555
Co1 Sc4 2.720084 1_555
Co1 Sc3 2.720091 1_655
Co1 Sc2 2.720091 1_556
Co1 Co4 2.747416 1_655
Co1 Co6 2.747416 1_556
Co1 Co7 2.747427 1_656
Co2 Si0 2.379335 1_566
Co2 Si4 2.502213 1_556
Co2 Si2 2.502213 1_565
Co2 Si6 2.502219 1_566
Co2 Co8 2.502677 1_555
Co2 Co9 2.502677 1_555
Co2 Sc5 2.720084 1_555
Co2 Sc3 2.720091 1_565
Co2 Sc1 2.720091 1_556
Co2 Co5 2.747416 1_556
Co2 Co4 2.747416 1_565
Co2 Co7 2.747427 1_566
Co3 Si0 2.379342 1_666
Co3 Si5 2.502213 1_656
Co3 Si1 2.502213 1_665
Co3 Si6 2.502213 1_566
Co3 Co9 2.502671 1_555
Co3 Co8 2.502671 1_555
Co3 Sc5 2.720090 1_655
Co3 Sc0 2.720090 1_556
Co3 Sc4 2.720090 1_565
Co3 Co6 2.747427 1_566
Co3 Co4 2.747427 1_665
Co3 Co5 2.747427 1_656
Co4 Si0 2.379335 1_556
Co4 Si2 2.502213 1_555
Co4 Si3 2.502213 1_555
Co4 Si1 2.502219 1_555
Co4 Sc3 2.720084 1_555
Co4 Sc5 2.720091 1_545
Co4 Sc4 2.720091 1_455
Co5 Si0 2.379335 1_565
Co5 Si4 2.502213 1_555
Co5 Si3 2.502213 1_555
Co5 Si5 2.502219 1_555
Co5 Sc1 2.720084 1_555
Co5 Sc5 2.720091 1_554
Co5 Sc0 2.720091 1_455
Co6 Si0 2.379335 1_655
Co6 Si4 2.502213 1_555
Co6 Si2 2.502213 1_555
Co6 Si6 2.502219 1_555
Co6 Sc2 2.720084 1_555
Co6 Sc4 2.720091 1_554
Co6 Sc0 2.720091 1_545
Co7 Si0 2.379342 1_555
Co7 Si6 2.502213 1_555
Co7 Si5 2.502213 1_555
Co7 Si1 2.502213 1_555
Co7 Sc3 2.720090 1_554
Co7 Sc1 2.720090 1_545
Co7 Sc2 2.720090 1_455
Co8 Si6 2.333092 1_566
Co8 Si5 2.333092 1_656
Co8 Si4 2.333092 1_556
Co8 Co9 2.466822 1_555
Co8 Sc0 2.836187 1_556
Co8 Sc2 2.836187 1_556
Co8 Sc1 2.836187 1_556
Co9 Si6 2.333092 1_566
Co9 Si1 2.333092 1_665
Co9 Si2 2.333092 1_565
Co9 Sc2 2.836187 1_565
Co9 Sc4 2.836187 1_565
Co9 Sc3 2.836187 1_565
Co10 Si5 2.333092 1_656
Co10 Si1 2.333092 1_665
Co10 Si3 2.333092 1_655
Co10 Co8 2.466822 1_555
Co10 Co11 2.466822 1_555
Co10 Co9 2.466822 1_555
Co10 Co3 2.502671 1_555
Co10 Sc5 2.836187 1_655
Co10 Sc1 2.836187 1_655
Co10 Sc3 2.836187 1_655
Co11 Si4 2.333092 1_556
Co11 Si2 2.333092 1_565
Co11 Si3 2.333092 1_655
Co11 Co8 2.466822 1_555
Co11 Co9 2.466822 1_555
Co11 Co2 2.502673 1_555
Co11 Sc0 2.836187 1_555
Co11 Sc4 2.836187 1_555
Co11 Sc5 2.836187 1_555
Co12 Si4 2.333092 1_555
Co12 Si5 2.333092 1_555
Co12 Si6 2.333092 1_555
Co12 Co14 2.466822 1_555
Co12 Co15 2.466822 1_555
Co12 Co13 2.466822 1_555
Co12 Co7 2.502671 1_555
Co12 Co6 2.502677 1_555
Co12 Co5 2.502677 1_555
Co12 Sc5 2.836187 1_554
Co12 Sc3 2.836187 1_554
Co12 Sc4 2.836187 1_554
Co13 Si1 2.333092 1_555
Co13 Si2 2.333092 1_555
Co13 Si6 2.333092 1_555
Co13 Co14 2.466822 1_555
Co13 Co15 2.466822 1_555
Co13 Co7 2.502671 1_555
Co13 Co6 2.502677 1_555
Co13 Co4 2.502677 1_555
Co13 Sc1 2.836187 1_545
Co13 Sc5 2.836187 1_545
Co13 Sc0 2.836187 1_545
Co14 Si1 2.333092 1_555
Co14 Si5 2.333092 1_555
Co14 Si3 2.333092 1_555
Co14 Co15 2.466822 1_555
Co14 Co7 2.502671 1_555
Co14 Co4 2.502677 1_555
Co14 Co5 2.502677 1_555
Co14 Sc0 2.836187 1_455
Co14 Sc2 2.836187 1_455
Co14 Sc4 2.836187 1_455
Co15 Si4 2.333092 1_555
Co15 Si2 2.333092 1_555
Co15 Si3 2.333092 1_555
Co15 Co5 2.502673 1_555
Co15 Co6 2.502673 1_555
Co15 Co4 2.502673 1_555
Co15 Sc2 2.836187 1_555
Co15 Sc1 2.836187 1_555
Co15 Sc3 2.836187 1_555
