# generated using pymatgen
data_Na2AlFe(SiO3)4
_symmetry_space_group_name_H-M   'P 1'
_cell_length_a   6.53199646
_cell_length_b   6.53199646
_cell_length_c   5.33493675
_cell_angle_alpha   76.91104289
_cell_angle_beta   76.91104289
_cell_angle_gamma   84.51247604
_symmetry_Int_Tables_number   1
_chemical_formula_structural   Na2AlFe(SiO3)4
_chemical_formula_sum   'Na2 Al1 Fe1 Si4 O12'
_cell_volume   215.71565624
_cell_formula_units_Z   1
loop_
 _symmetry_equiv_pos_site_id
 _symmetry_equiv_pos_as_xyz
  1  'x, y, z'
loop_
 _atom_site_type_symbol
 _atom_site_label
 _atom_site_symmetry_multiplicity
 _atom_site_fract_x
 _atom_site_fract_y
 _atom_site_fract_z
 _atom_site_occupancy
  Na  Na0  1  0.29888300  0.70111700  0.50000000  1
  Na  Na1  1  0.70146500  0.29853500  0.00000000  1
  Al  Al0  1  0.90115200  0.09884800  0.50000000  1
  Fe  Fe0  1  0.09788200  0.90211800  0.00000000  1
  Si  Si0  1  0.80091100  0.61543800  0.48449100  1
  Si  Si1  1  0.38456200  0.19908900  0.51550900  1
  Si  Si2  1  0.19944800  0.37813000  0.02101400  1
  Si  Si3  1  0.62187000  0.80055200  0.97898600  1
  O  O0  1  0.96084300  0.81304600  0.39450400  1
  O  O1  1  0.18695400  0.03915700  0.60549600  1
  O  O2  1  0.02944200  0.19015700  0.13071700  1
  O  O3  1  0.80984300  0.97055800  0.86928300  1
  O  O4  1  0.89548400  0.37691900  0.54752800  1
  O  O5  1  0.62308100  0.10451600  0.45247200  1
  O  O6  1  0.09967600  0.61453800  0.95123700  1
  O  O7  1  0.38546200  0.90032400  0.04876300  1
  O  O8  1  0.65797700  0.64262200  0.25840300  1
  O  O9  1  0.35737800  0.34202300  0.74159700  1
  O  O10  1  0.34843800  0.36075100  0.23776500  1
  O  O11  1  0.63924900  0.65156200  0.76223500  1
loop_
_geom_bond_atom_site_label_1
_geom_bond_atom_site_label_2
_geom_bond_distance
_geom_bond_site_symmetry_2
Na0 O1 2.407204 1_565
Na0 O0 2.407204 1_455
Na0 O6 2.431777 1_555
Na0 O7 2.431777 1_555
Na0 O9 2.447742 1_555
Na0 O8 2.447742 1_555
Na0 O11 2.840942 1_555
Na0 O10 2.840942 1_555
Na1 O2 2.395856 1_655
Na1 O3 2.395856 1_544
Na1 O11 2.412690 1_554
Na1 O10 2.412690 1_555
Na1 O4 2.423623 1_554
Na1 O5 2.423623 1_555
Na1 O8 2.852474 1_555
Na1 O9 2.852474 1_554
Al0 O5 1.885817 1_555
Al0 O4 1.885817 1_555
Al0 O2 1.937755 1_655
Al0 O3 1.937755 1_545
Al0 O0 2.047248 1_545
Al0 O1 2.047248 1_655
Fe0 O6 1.952489 1_554
Fe0 O7 1.952489 1_555
Fe0 O1 2.064230 1_564
Fe0 O0 2.064230 1_455
Fe0 O2 2.125630 1_565
Fe0 O3 2.125630 1_454
O0 Si0 1.654690 1_555
O1 Si1 1.654690 1_555
O2 Si2 1.650520 1_555
O3 Si3 1.650520 1_555
O4 Si0 1.610837 1_555
O5 Si1 1.610837 1_555
O6 Si2 1.613984 1_556
O7 Si3 1.613984 1_554
O8 Si0 1.655113 1_555
O8 Si3 1.660761 1_554
O9 Si1 1.655113 1_555
O9 Si2 1.660761 1_556
O10 Si2 1.651146 1_555
O10 Si1 1.663836 1_555
O11 Si3 1.651146 1_555
O11 Si0 1.663836 1_555
