# generated using pymatgen
data_GdNb5Ag2O15
_symmetry_space_group_name_H-M   'P 1'
_cell_length_a   12.69885900
_cell_length_b   12.69885900
_cell_length_c   3.93781700
_cell_angle_alpha   90.00000000
_cell_angle_beta   90.00000000
_cell_angle_gamma   90.00000000
_symmetry_Int_Tables_number   1
_chemical_formula_structural   GdNb5Ag2O15
_chemical_formula_sum   'Gd2 Nb10 Ag4 O30'
_cell_volume   635.01638561
_cell_formula_units_Z   2
loop_
 _symmetry_equiv_pos_site_id
 _symmetry_equiv_pos_as_xyz
  1  'x, y, z'
loop_
 _atom_site_type_symbol
 _atom_site_label
 _atom_site_symmetry_multiplicity
 _atom_site_fract_x
 _atom_site_fract_y
 _atom_site_fract_z
 _atom_site_occupancy
  Gd  Gd0  1  0.00000000  0.00000000  0.50000000  1
  Gd  Gd1  1  0.50000000  0.50000000  0.50000000  1
  Nb  Nb0  1  0.50000000  0.00000000  0.00000000  1
  Nb  Nb1  1  0.00000000  0.50000000  0.00000000  1
  Nb  Nb2  1  0.21162800  0.07823000  0.00000000  1
  Nb  Nb3  1  0.78837200  0.92177000  0.00000000  1
  Nb  Nb4  1  0.07823000  0.78837200  0.00000000  1
  Nb  Nb5  1  0.71162800  0.42177000  0.00000000  1
  Nb  Nb6  1  0.92177000  0.21162800  0.00000000  1
  Nb  Nb7  1  0.28837200  0.57823000  0.00000000  1
  Nb  Nb8  1  0.57823000  0.71162800  0.00000000  1
  Nb  Nb9  1  0.42177000  0.28837200  0.00000000  1
  Ag  Ag0  1  0.67461800  0.17461800  0.50000000  1
  Ag  Ag1  1  0.32538200  0.82538200  0.50000000  1
  Ag  Ag2  1  0.17461800  0.32538200  0.50000000  1
  Ag  Ag3  1  0.82538200  0.67461800  0.50000000  1
  O  O0  1  0.18726200  0.08229800  0.50000000  1
  O  O1  1  0.81273800  0.91770200  0.50000000  1
  O  O2  1  0.08229800  0.81273800  0.50000000  1
  O  O3  1  0.68726200  0.41770200  0.50000000  1
  O  O4  1  0.91770200  0.18726200  0.50000000  1
  O  O5  1  0.31273800  0.58229800  0.50000000  1
  O  O6  1  0.58229800  0.68726200  0.50000000  1
  O  O7  1  0.41770200  0.31273800  0.50000000  1
  O  O8  1  0.22596800  0.72596800  0.00000000  1
  O  O9  1  0.77403200  0.27403200  0.00000000  1
  O  O10  1  0.72596800  0.77403200  0.00000000  1
  O  O11  1  0.27403200  0.22596800  0.00000000  1
  O  O12  1  0.50000000  0.00000000  0.50000000  1
  O  O13  1  0.00000000  0.50000000  0.50000000  1
  O  O14  1  0.05548100  0.13083200  0.00000000  1
  O  O15  1  0.94451900  0.86916800  0.00000000  1
  O  O16  1  0.13083200  0.94451900  0.00000000  1
  O  O17  1  0.55548100  0.36916800  0.00000000  1
  O  O18  1  0.86916800  0.05548100  0.00000000  1
  O  O19  1  0.44451900  0.63083200  0.00000000  1
  O  O20  1  0.63083200  0.55548100  0.00000000  1
  O  O21  1  0.36916800  0.44451900  0.00000000  1
  O  O22  1  0.34114100  0.99995600  0.00000000  1
  O  O23  1  0.65885900  0.00004400  0.00000000  1
  O  O24  1  0.99995600  0.65885900  0.00000000  1
  O  O25  1  0.84114100  0.50004400  0.00000000  1
  O  O26  1  0.00004400  0.34114100  0.00000000  1
  O  O27  1  0.15885900  0.49995600  0.00000000  1
  O  O28  1  0.49995600  0.84114100  0.00000000  1
  O  O29  1  0.50004400  0.15885900  0.00000000  1
loop_
_geom_bond_atom_site_label_1
_geom_bond_atom_site_label_2
_geom_bond_distance
_geom_bond_site_symmetry_2
Gd0 O0 2.597530 1_555
Gd0 O4 2.597530 1_455
Gd0 O2 2.597530 1_545
Gd0 O1 2.597530 1_445
Gd0 O14 2.670822 1_556
Gd0 O14 2.670822 1_555
Gd0 O16 2.670822 1_545
Gd0 O16 2.670822 1_546
Gd0 O18 2.670822 1_456
Gd0 O18 2.670822 1_455
Gd0 O15 2.670822 1_445
Gd0 O15 2.670822 1_446
Gd1 O6 2.597530 1_555
Gd1 O3 2.597530 1_555
Gd1 O5 2.597530 1_555
Gd1 O7 2.597530 1_555
Gd1 O19 2.670822 1_556
Gd1 O19 2.670822 1_555
Gd1 O20 2.670822 1_555
Gd1 O20 2.670822 1_556
Gd1 O17 2.670822 1_555
Gd1 O17 2.670822 1_556
Gd1 O21 2.670822 1_555
Gd1 O21 2.670822 1_556
Nb0 O12 1.968908 1_555
Nb0 O12 1.968908 1_554
Nb0 O23 2.017328 1_555
Nb0 O29 2.017328 1_555
Nb0 O28 2.017328 1_545
Nb0 O22 2.017328 1_545
Nb1 O13 1.968908 1_555
Nb1 O13 1.968908 1_554
Nb1 O24 2.017328 1_455
Nb1 O27 2.017328 1_555
Nb1 O25 2.017328 1_455
Nb1 O26 2.017328 1_555
Nb2 O22 1.921704 1_545
Nb2 O16 1.983894 1_545
Nb2 O0 1.993743 1_555
Nb2 O0 1.993743 1_554
Nb2 O11 2.036605 1_555
Nb2 O14 2.092380 1_555
Nb3 O23 1.921704 1_565
Nb3 O18 1.983894 1_565
Nb3 O1 1.993743 1_555
Nb3 O1 1.993743 1_554
Nb3 O10 2.036605 1_555
Nb3 O15 2.092380 1_555
Nb4 O24 1.921704 1_455
Nb4 O15 1.983894 1_455
Nb4 O2 1.993743 1_554
Nb4 O2 1.993743 1_555
Nb4 O8 2.036605 1_555
Nb4 O16 2.092380 1_555
Nb5 O25 1.921704 1_555
Nb5 O20 1.983894 1_555
Nb5 O3 1.993743 1_555
Nb5 O3 1.993743 1_554
Nb5 O9 2.036605 1_555
Nb5 O17 2.092380 1_555
Nb6 O26 1.921704 1_655
Nb6 O14 1.983894 1_655
Nb6 O4 1.993743 1_554
Nb6 O4 1.993743 1_555
Nb6 O9 2.036605 1_555
Nb6 O18 2.092380 1_555
Nb7 O27 1.921704 1_555
Nb7 O21 1.983894 1_555
Nb7 O5 1.993743 1_555
Nb7 O5 1.993743 1_554
Nb7 O8 2.036605 1_555
Nb7 O19 2.092380 1_555
Nb8 O28 1.921704 1_555
Nb8 O19 1.983894 1_555
Nb8 O6 1.993743 1_555
Nb8 O6 1.993743 1_554
Nb8 O10 2.036605 1_555
Nb8 O20 2.092380 1_555
Nb9 O29 1.921704 1_555
Nb9 O17 1.983894 1_555
Nb9 O7 1.993743 1_555
Nb9 O7 1.993743 1_554
Nb9 O11 2.036605 1_555
Nb9 O21 2.092380 1_555
Ag0 O9 2.657844 1_555
Ag0 O9 2.657844 1_556
Ag1 O8 2.657844 1_555
Ag1 O8 2.657844 1_556
Ag2 O11 2.657844 1_556
Ag2 O11 2.657844 1_555
Ag3 O10 2.657844 1_555
Ag3 O10 2.657844 1_556
