# generated using pymatgen
data_La3Ho
_symmetry_space_group_name_H-M   'P 1'
_cell_length_a   6.41270144
_cell_length_b   6.41270144
_cell_length_c   6.41270144
_cell_angle_alpha   131.99598899
_cell_angle_beta   131.99598899
_cell_angle_gamma   70.23536192
_symmetry_Int_Tables_number   1
_chemical_formula_structural   La3Ho
_chemical_formula_sum   'La3 Ho1'
_cell_volume   142.76327397
_cell_formula_units_Z   1
loop_
 _symmetry_equiv_pos_site_id
 _symmetry_equiv_pos_as_xyz
  1  'x, y, z'
loop_
 _atom_site_type_symbol
 _atom_site_label
 _atom_site_symmetry_multiplicity
 _atom_site_fract_x
 _atom_site_fract_y
 _atom_site_fract_z
 _atom_site_occupancy
  La  La0  1  0.75000000  0.25000000  0.50000000  1
  La  La1  1  0.25000000  0.75000000  0.50000000  1
  La  La2  1  0.50000000  0.50000000  -0.00000000  1
  Ho  Ho0  1  -0.00000000  0.00000000  -0.00000000  1
loop_
_geom_bond_atom_site_label_1
_geom_bond_atom_site_label_2
_geom_bond_distance
_geom_bond_site_symmetry_2
La0 La1 3.688956 1_555
La0 La1 3.688956 1_656
La0 La1 3.688956 1_544
La0 La1 3.688956 1_645
La0 La2 3.699025 1_556
La0 La2 3.699025 1_555
La0 La2 3.699025 1_545
La0 La2 3.699025 1_656
La1 La2 3.699025 1_455
La1 La2 3.699025 1_556
La1 La2 3.699025 1_555
La1 La2 3.699025 1_566
Ho0 La2 3.688956 1_455
Ho0 La2 3.688956 1_545
Ho0 La2 3.688956 1_556
Ho0 La2 3.688956 1_444
Ho0 La1 3.699025 1_444
Ho0 La1 3.699025 1_555
Ho0 La1 3.699025 1_544
Ho0 La0 3.699025 1_455
Ho0 La0 3.699025 1_454
Ho0 La0 3.699025 1_555
Ho0 La0 3.699025 1_444
Ho0 La1 3.699025 1_545
