# generated using pymatgen
data_Sr3Ta4Ti4O21
_symmetry_space_group_name_H-M   'P 1'
_cell_length_a   9.09450435
_cell_length_b   9.09450435
_cell_length_c   11.58370767
_cell_angle_alpha   89.96055401
_cell_angle_beta   89.96055401
_cell_angle_gamma   60.15758566
_symmetry_Int_Tables_number   1
_chemical_formula_structural   Sr3Ta4Ti4O21
_chemical_formula_sum   'Sr6 Ta8 Ti8 O42'
_cell_volume   831.04319506
_cell_formula_units_Z   2
loop_
 _symmetry_equiv_pos_site_id
 _symmetry_equiv_pos_as_xyz
  1  'x, y, z'
loop_
 _atom_site_type_symbol
 _atom_site_label
 _atom_site_symmetry_multiplicity
 _atom_site_fract_x
 _atom_site_fract_y
 _atom_site_fract_z
 _atom_site_occupancy
  Sr  Sr0  1  0.40438700  0.99643300  0.25050700  1
  Sr  Sr1  1  0.00356700  0.59561300  0.24949300  1
  Sr  Sr2  1  0.59179000  0.40821000  0.25000000  1
  Sr  Sr3  1  0.59561300  0.00356700  0.74949300  1
  Sr  Sr4  1  0.99643300  0.40438700  0.75050700  1
  Sr  Sr5  1  0.40821000  0.59179000  0.75000000  1
  Ta  Ta0  1  0.33130900  0.33706600  0.50009900  1
  Ta  Ta1  1  0.66869100  0.66293400  0.49990100  1
  Ta  Ta2  1  0.66293400  0.66869100  0.99990100  1
  Ta  Ta3  1  0.33706600  0.33130900  0.00009900  1
  Ta  Ta4  1  0.75640100  0.00172000  0.40723900  1
  Ta  Ta5  1  0.24359900  0.99828000  0.59276100  1
  Ta  Ta6  1  0.00172000  0.75640100  0.90723900  1
  Ta  Ta7  1  0.99828000  0.24359900  0.09276100  1
  Ti  Ti0  1  0.99934500  0.25287400  0.40689900  1
  Ti  Ti1  1  0.25238500  0.74848900  0.40345900  1
  Ti  Ti2  1  0.00065500  0.74712600  0.59310100  1
  Ti  Ti3  1  0.74761500  0.25151100  0.59654100  1
  Ti  Ti4  1  0.25287400  0.99934500  0.90689900  1
  Ti  Ti5  1  0.74848900  0.25238500  0.90345900  1
  Ti  Ti6  1  0.74712600  0.00065500  0.09310100  1
  Ti  Ti7  1  0.25151100  0.74761500  0.09654100  1
  O  O0  1  0.31794500  0.51449900  0.39413600  1
  O  O1  1  0.51201900  0.16629300  0.39434500  1
  O  O2  1  0.16473900  0.32005900  0.39680900  1
  O  O3  1  0.83283700  0.48552300  0.39448400  1
  O  O4  1  0.67843500  0.83440000  0.39455600  1
  O  O5  1  0.48561600  0.68010800  0.39605900  1
  O  O6  1  0.68205500  0.48550100  0.60586400  1
  O  O7  1  0.48798100  0.83370700  0.60565500  1
  O  O8  1  0.83526100  0.67994100  0.60319100  1
  O  O9  1  0.16716300  0.51447700  0.60551600  1
  O  O10  1  0.32156500  0.16560000  0.60544400  1
  O  O11  1  0.51438400  0.31989200  0.60394100  1
  O  O12  1  0.68010800  0.48561600  0.89605900  1
  O  O13  1  0.48552300  0.83283700  0.89448400  1
  O  O14  1  0.83440000  0.67843500  0.89455600  1
  O  O15  1  0.16629300  0.51201900  0.89434500  1
  O  O16  1  0.32005900  0.16473900  0.89680900  1
  O  O17  1  0.51449900  0.31794500  0.89413600  1
  O  O18  1  0.31989200  0.51438400  0.10394100  1
  O  O19  1  0.51447700  0.16716300  0.10551600  1
  O  O20  1  0.16560000  0.32156500  0.10544400  1
  O  O21  1  0.83370700  0.48798100  0.10565500  1
  O  O22  1  0.67994100  0.83526100  0.10319100  1
  O  O23  1  0.48550100  0.68205500  0.10586400  1
  O  O24  1  0.80443800  0.00133900  0.24660500  1
  O  O25  1  0.99866100  0.19556200  0.25339500  1
  O  O26  1  0.20112400  0.79887600  0.25000000  1
  O  O27  1  0.19556200  0.99866100  0.75339500  1
  O  O28  1  0.00133900  0.80443800  0.74660500  1
  O  O29  1  0.79887600  0.20112400  0.75000000  1
  O  O30  1  0.21350300  0.99971100  0.42249600  1
  O  O31  1  0.99671100  0.79104100  0.42531000  1
  O  O32  1  0.78667300  0.21057100  0.42629000  1
  O  O33  1  0.78649700  0.00028900  0.57750400  1
  O  O34  1  0.00328900  0.20895900  0.57469000  1
  O  O35  1  0.21332700  0.78942900  0.57371000  1
  O  O36  1  0.79104100  0.99671100  0.92531000  1
  O  O37  1  0.99971100  0.21350300  0.92249600  1
  O  O38  1  0.21057100  0.78667300  0.92629000  1
  O  O39  1  0.20895900  0.00328900  0.07469000  1
  O  O40  1  0.00028900  0.78649700  0.07750400  1
  O  O41  1  0.78942900  0.21332700  0.07371000  1
loop_
_geom_bond_atom_site_label_1
_geom_bond_atom_site_label_2
_geom_bond_distance
_geom_bond_site_symmetry_2
O0 Ti1 1.906073 1_555
O0 Ta0 1.981817 1_555
O0 Sr2 2.743198 1_555
O0 Sr1 3.071128 1_555
O1 Ta4 1.972720 1_555
O1 Ta0 2.018249 1_555
O1 Sr0 2.762501 1_545
O1 Sr2 3.121597 1_555
O2 Ti0 1.887829 1_455
O2 Ta0 1.996563 1_555
O2 Sr1 2.771731 1_555
O2 Sr0 3.146811 1_545
O3 Ti0 1.897809 1_555
O3 Ta1 1.981413 1_555
O3 Sr1 2.788445 1_655
O3 Sr2 3.105155 1_555
O4 Ta4 1.978429 1_565
O4 Ta1 2.015796 1_555
O4 Sr0 2.741289 1_555
O4 Sr1 3.144909 1_655
O5 Ti1 1.892156 1_555
O5 Ta1 1.996782 1_555
O5 Sr2 2.745311 1_555
O5 Sr0 3.089414 1_555
O6 Ti3 1.906073 1_555
O6 Ta1 1.981817 1_555
O6 Sr5 2.743198 1_555
O6 Sr4 3.071128 1_555
O7 Ta5 1.972720 1_555
O7 Ta1 2.018249 1_555
O7 Sr3 2.762501 1_565
O7 Sr5 3.121597 1_555
O8 Ti2 1.887829 1_655
O8 Ta1 1.996563 1_555
O8 Sr4 2.771731 1_555
O8 Sr3 3.146811 1_565
O9 Ti2 1.897809 1_555
O9 Ta0 1.981413 1_555
O9 Sr4 2.788445 1_455
O9 Sr5 3.105155 1_555
O10 Ta5 1.978429 1_545
O10 Ta0 2.015796 1_555
O10 Sr3 2.741289 1_555
O10 Sr4 3.144909 1_455
O11 Ti3 1.892156 1_555
O11 Ta0 1.996782 1_555
O11 Sr5 2.745311 1_555
O11 Sr3 3.089414 1_555
O12 Ti5 1.892156 1_555
O12 Ta2 1.996782 1_555
O12 Sr5 2.745311 1_555
O12 Sr4 3.089414 1_555
O13 Ti4 1.897809 1_555
O13 Ta2 1.981413 1_555
O13 Sr3 2.788445 1_565
O13 Sr5 3.105155 1_555
O14 Ta6 1.978429 1_655
O14 Ta2 2.015796 1_555
O14 Sr4 2.741289 1_555
O14 Sr3 3.144909 1_565
O15 Ta6 1.972720 1_555
O15 Ta3 2.018249 1_556
O15 Sr4 2.762501 1_455
O15 Sr5 3.121597 1_555
O16 Ti4 1.887829 1_545
O16 Ta3 1.996563 1_556
O16 Sr3 2.771731 1_555
O16 Sr4 3.146811 1_455
O17 Ti5 1.906073 1_555
O17 Ta3 1.981817 1_556
O17 Sr5 2.743198 1_555
O17 Sr3 3.071128 1_555
O18 Ti7 1.892156 1_555
O18 Ta3 1.996782 1_555
O18 Sr2 2.745311 1_555
O18 Sr1 3.089414 1_555
O19 Ti6 1.897809 1_555
O19 Ta3 1.981413 1_555
O19 Sr0 2.788445 1_545
O19 Sr2 3.105155 1_555
O20 Ta7 1.978429 1_455
O20 Ta3 2.015796 1_555
O20 Sr1 2.741289 1_555
O20 Sr0 3.144909 1_545
O21 Ta7 1.972720 1_555
O21 Ta2 2.018249 1_554
O21 Sr1 2.762501 1_655
O21 Sr2 3.121597 1_555
O22 Ti6 1.887829 1_565
O22 Ta2 1.996563 1_554
O22 Sr0 2.771731 1_555
O22 Sr1 3.146811 1_655
O23 Ti7 1.906073 1_555
O23 Ta2 1.981817 1_554
O23 Sr2 2.743198 1_555
O23 Sr0 3.071128 1_555
O24 Ti6 1.854193 1_555
O24 Ta4 1.910653 1_555
O24 Sr1 3.200850 1_645
O24 Sr2 3.211213 1_555
O25 Ti0 1.854193 1_555
O25 Ta7 1.910653 1_555
O25 Sr0 3.200850 1_645
O25 Sr2 3.211213 1_555
O26 Ti1 1.837030 1_555
O26 Ti7 1.837030 1_555
O26 Sr1 3.154495 1_555
O26 Sr0 3.154495 1_555
O27 Ti4 1.854193 1_555
O27 Ta5 1.910653 1_555
O27 Sr4 3.200850 1_465
O27 Sr5 3.211213 1_555
O28 Ti2 1.854193 1_555
O28 Ta6 1.910653 1_555
O28 Sr3 3.200850 1_465
O28 Sr5 3.211213 1_555
O29 Ti5 1.837030 1_555
O29 Ti3 1.837030 1_555
O29 Sr3 3.154495 1_555
O29 Sr4 3.154495 1_555
O30 Ta5 1.990531 1_555
O30 Ti1 2.142482 1_555
O30 Ti0 2.159640 1_465
O30 Sr0 2.632019 1_555
O31 Ti2 1.980734 1_655
O31 Ta4 2.079410 1_565
O31 Ti1 2.173543 1_655
O31 Sr1 2.684226 1_655
O32 Ti3 2.005630 1_555
O32 Ta4 2.062351 1_555
O32 Ti0 2.163155 1_555
O32 Sr2 2.715066 1_555
O33 Ta4 1.990531 1_555
O33 Ti3 2.142482 1_555
O33 Ti2 2.159640 1_645
O33 Sr3 2.632019 1_555
O34 Ti0 1.980734 1_455
O34 Ta5 2.079410 1_545
O34 Ti3 2.173543 1_455
O34 Sr4 2.684226 1_455
O35 Ti1 2.005630 1_555
O35 Ta5 2.062351 1_555
O35 Ti2 2.163155 1_555
O35 Sr5 2.715066 1_555
O36 Ti6 1.980734 1_566
O36 Ta6 2.079410 1_655
O36 Ti5 2.173543 1_565
O36 Sr3 2.684226 1_565
O37 Ta7 1.990531 1_556
O37 Ti5 2.142482 1_555
O37 Ti4 2.159640 1_645
O37 Sr4 2.632019 1_555
O38 Ti7 2.005630 1_556
O38 Ta6 2.062351 1_555
O38 Ti4 2.163155 1_555
O38 Sr5 2.715066 1_555
O39 Ti4 1.980734 1_544
O39 Ta7 2.079410 1_455
O39 Ti7 2.173543 1_545
O39 Sr0 2.684226 1_545
O40 Ta6 1.990531 1_554
O40 Ti7 2.142482 1_555
O40 Ti6 2.159640 1_465
O40 Sr1 2.632019 1_555
O41 Ti5 2.005630 1_554
O41 Ta7 2.062351 1_555
O41 Ti6 2.163155 1_555
O41 Sr2 2.715066 1_555
