# generated using pymatgen
data_Mg6NbFe
_symmetry_space_group_name_H-M   'P 1'
_cell_length_a   4.67273100
_cell_length_b   5.96790700
_cell_length_c   10.87723000
_cell_angle_alpha   90.00000000
_cell_angle_beta   90.00000000
_cell_angle_gamma   90.00000000
_symmetry_Int_Tables_number   1
_chemical_formula_structural   Mg6NbFe
_chemical_formula_sum   'Mg12 Nb2 Fe2'
_cell_volume   303.32704820
_cell_formula_units_Z   2
loop_
 _symmetry_equiv_pos_site_id
 _symmetry_equiv_pos_as_xyz
  1  'x, y, z'
loop_
 _atom_site_type_symbol
 _atom_site_label
 _atom_site_symmetry_multiplicity
 _atom_site_fract_x
 _atom_site_fract_y
 _atom_site_fract_z
 _atom_site_occupancy
  Mg  Mg0  1  0.00000000  0.73987900  0.08037800  1
  Mg  Mg1  1  0.00000000  0.26012100  0.08037800  1
  Mg  Mg2  1  0.00000000  0.00000000  0.32815400  1
  Mg  Mg3  1  0.50000000  0.25981900  0.42348700  1
  Mg  Mg4  1  0.50000000  0.74018100  0.42348700  1
  Mg  Mg5  1  0.50000000  0.00000000  0.16788600  1
  Mg  Mg6  1  0.00000000  0.23987900  0.58037800  1
  Mg  Mg7  1  0.00000000  0.76012100  0.58037800  1
  Mg  Mg8  1  0.00000000  0.50000000  0.82815400  1
  Mg  Mg9  1  0.50000000  0.75981900  0.92348700  1
  Mg  Mg10  1  0.50000000  0.24018100  0.92348700  1
  Mg  Mg11  1  0.50000000  0.50000000  0.66788600  1
  Nb  Nb0  1  0.50000000  0.50000000  0.19271200  1
  Nb  Nb1  1  0.50000000  0.00000000  0.69271200  1
  Fe  Fe0  1  0.00000000  0.50000000  0.30351700  1
  Fe  Fe1  1  0.00000000  0.00000000  0.80351700  1
loop_
_geom_bond_atom_site_label_1
_geom_bond_atom_site_label_2
_geom_bond_distance
_geom_bond_site_symmetry_2
Mg0 Mg1 2.863151 1_555
Mg0 Mg9 2.895694 1_454
Mg0 Mg9 2.895694 1_554
Mg0 Mg5 2.962176 1_565
Mg0 Mg5 2.962176 1_465
Mg0 Nb0 3.000168 1_555
Mg0 Nb0 3.000168 1_455
Mg0 Mg8 3.094542 1_554
Mg0 Mg1 3.104756 1_565
Mg0 Mg2 3.110230 1_565
Mg1 Mg10 2.895694 1_554
Mg1 Mg10 2.895694 1_454
Mg1 Mg5 2.962176 1_455
Mg1 Mg5 2.962176 1_555
Mg1 Nb0 3.000168 1_555
Mg1 Nb0 3.000168 1_455
Mg1 Mg8 3.094542 1_554
Mg1 Mg2 3.110230 1_555
Mg2 Mg5 2.915064 1_455
Mg2 Mg5 2.915064 1_555
Mg2 Mg3 2.989678 1_455
Mg2 Mg3 2.989678 1_555
Mg2 Mg4 2.989678 1_445
Mg2 Mg4 2.989678 1_545
Mg2 Mg6 3.094542 1_555
Mg2 Mg7 3.094542 1_545
Mg3 Mg4 2.866756 1_555
Mg3 Nb0 2.890612 1_555
Mg3 Mg6 2.895694 1_555
Mg3 Mg6 2.895694 1_655
Mg3 Mg4 3.101151 1_545
Mg3 Mg5 3.183389 1_555
Mg3 Nb1 3.313599 1_555
Mg4 Nb0 2.890612 1_555
Mg4 Mg7 2.895694 1_555
Mg4 Mg7 2.895694 1_655
Mg4 Mg5 3.183389 1_565
Mg4 Nb1 3.313599 1_565
Mg5 Nb0 2.996147 1_545
Mg5 Nb0 2.996147 1_555
Mg5 Mg9 3.020195 1_544
Mg6 Mg7 2.863151 1_545
Mg6 Nb1 3.000168 1_455
Mg6 Nb1 3.000168 1_555
Mg6 Mg7 3.104756 1_555
Mg6 Mg8 3.110230 1_555
Mg7 Nb1 3.000168 1_465
Mg7 Nb1 3.000168 1_565
Mg7 Mg8 3.110230 1_555
Mg8 Mg9 2.989678 1_455
Mg8 Mg9 2.989678 1_555
Mg9 Nb1 2.890612 1_565
Mg9 Nb0 3.313599 1_556
Mg10 Mg9 2.866756 1_545
Mg10 Nb1 2.890612 1_555
Mg10 Mg8 2.989678 1_555
Mg10 Mg8 2.989678 1_655
Mg10 Mg5 3.020195 1_556
Mg10 Mg9 3.101151 1_555
Mg10 Mg11 3.183389 1_555
Mg10 Nb0 3.313599 1_556
Mg11 Mg8 2.915064 1_555
Mg11 Mg8 2.915064 1_655
Mg11 Mg7 2.962176 1_555
Mg11 Mg7 2.962176 1_655
Mg11 Mg6 2.962176 1_555
Mg11 Mg6 2.962176 1_655
Mg11 Nb1 2.996147 1_565
Mg11 Nb1 2.996147 1_555
Mg11 Mg4 3.020195 1_555
Mg11 Mg3 3.020195 1_555
Mg11 Mg9 3.183389 1_555
Fe0 Nb0 2.628923 1_455
Fe0 Nb0 2.628923 1_555
Fe0 Mg0 2.817870 1_555
Fe0 Mg1 2.817870 1_555
Fe0 Mg2 2.995963 1_565
Fe0 Mg2 2.995963 1_555
Fe0 Mg4 3.035794 1_455
Fe0 Mg4 3.035794 1_555
Fe0 Mg3 3.035794 1_555
Fe0 Mg3 3.035794 1_455
Fe0 Mg7 3.388052 1_555
Fe0 Mg6 3.388052 1_555
Fe1 Nb1 2.628923 1_455
Fe1 Nb1 2.628923 1_555
Fe1 Mg6 2.817870 1_555
Fe1 Mg7 2.817870 1_545
Fe1 Mg8 2.995963 1_555
Fe1 Mg8 2.995963 1_545
Fe1 Mg10 3.035794 1_455
Fe1 Mg10 3.035794 1_555
Fe1 Mg9 3.035794 1_445
Fe1 Mg9 3.035794 1_545
Fe1 Mg1 3.388052 1_556
Fe1 Mg0 3.388052 1_546
