# generated using pymatgen
data_NaMg14Cr
_symmetry_space_group_name_H-M   'P 1'
_cell_length_a   6.37615542
_cell_length_b   6.41169348
_cell_length_c   10.25765607
_cell_angle_alpha   90.00000000
_cell_angle_beta   90.00000000
_cell_angle_gamma   120.18455006
_symmetry_Int_Tables_number   1
_chemical_formula_structural   NaMg14Cr
_chemical_formula_sum   'Na1 Mg14 Cr1'
_cell_volume   362.49312071
_cell_formula_units_Z   1
loop_
 _symmetry_equiv_pos_site_id
 _symmetry_equiv_pos_as_xyz
  1  'x, y, z'
loop_
 _atom_site_type_symbol
 _atom_site_label
 _atom_site_symmetry_multiplicity
 _atom_site_fract_x
 _atom_site_fract_y
 _atom_site_fract_z
 _atom_site_occupancy
  Na  Na0  1  0.16677725  0.33338813  0.12500000  1
  Mg  Mg0  1  0.16773065  0.33386483  0.62500000  1
  Mg  Mg1  1  0.16714974  0.83357437  0.62500000  1
  Mg  Mg2  1  0.66586013  0.33296984  0.12500000  1
  Mg  Mg3  1  0.66636665  0.33354333  0.62500000  1
  Mg  Mg4  1  0.66586013  0.83288929  0.12500000  1
  Mg  Mg5  1  0.66636665  0.83282233  0.62500000  1
  Mg  Mg6  1  0.33205020  0.16116474  0.37465399  1
  Mg  Mg7  1  0.33205020  0.16116474  0.87534601  1
  Mg  Mg8  1  0.33205020  0.67088646  0.37465399  1
  Mg  Mg9  1  0.33205020  0.67088646  0.87534601  1
  Mg  Mg10  1  0.83111447  0.16555773  0.37949988  1
  Mg  Mg11  1  0.83111447  0.16555773  0.87050012  1
  Mg  Mg12  1  0.83804638  0.66902369  0.37082270  1
  Mg  Mg13  1  0.83804638  0.66902369  0.87917730  1
  Cr  Cr0  1  0.16736629  0.83368264  0.12500000  1
loop_
_geom_bond_atom_site_label_1
_geom_bond_atom_site_label_2
_geom_bond_distance
_geom_bond_site_symmetry_2
Mg0 Mg11 3.127898 1_455
Mg0 Mg10 3.127898 1_455
Mg0 Mg6 3.175672 1_555
Mg0 Mg7 3.175672 1_555
Mg0 Mg8 3.175679 1_555
Mg0 Mg9 3.175679 1_555
Mg0 Mg5 3.180417 1_555
Mg0 Mg3 3.180418 1_555
Mg0 Mg5 3.195739 1_445
Mg0 Mg3 3.195739 1_455
Mg0 Mg1 3.205848 1_555
Mg0 Mg1 3.205848 1_545
Mg1 Mg9 3.144976 1_555
Mg1 Mg8 3.144976 1_555
Mg1 Mg6 3.144983 1_565
Mg1 Mg7 3.144983 1_565
Mg1 Mg13 3.176165 1_455
Mg1 Mg12 3.176165 1_455
Mg1 Mg3 3.185511 1_565
Mg1 Mg5 3.185512 1_555
Mg1 Mg3 3.190649 1_455
Mg1 Mg5 3.190649 1_455
Mg2 Mg6 3.153410 1_555
Mg2 Mg7 3.153410 1_554
Mg2 Na0 3.183579 1_555
Mg2 Na0 3.192578 1_655
Mg2 Mg4 3.205330 1_555
Mg2 Mg4 3.206363 1_545
Mg3 Mg6 3.160825 1_555
Mg3 Mg7 3.160825 1_555
Mg3 Mg5 3.201224 1_555
Mg3 Mg5 3.210470 1_545
Mg4 Mg9 3.153410 1_554
Mg4 Mg8 3.153410 1_555
Mg4 Na0 3.183579 1_555
Mg4 Na0 3.192578 1_665
Mg5 Mg8 3.160826 1_555
Mg5 Mg9 3.160826 1_555
Mg6 Mg8 3.143514 1_545
Mg6 Na0 3.171440 1_555
Mg6 Mg8 3.268179 1_555
Mg7 Mg9 3.143514 1_545
Mg7 Na0 3.171440 1_556
Mg7 Mg9 3.268179 1_555
Mg8 Na0 3.171447 1_555
Mg9 Na0 3.171447 1_556
Mg10 Mg3 3.121359 1_555
Mg10 Mg5 3.121366 1_545
Mg10 Mg8 3.168433 1_545
Mg10 Mg6 3.168433 1_555
Mg10 Mg2 3.196068 1_555
Mg10 Mg4 3.196074 1_545
Mg10 Na0 3.199648 1_655
Mg10 Mg12 3.207310 1_545
Mg10 Mg12 3.207310 1_555
Mg10 Mg8 3.208683 1_655
Mg10 Mg6 3.208683 1_655
Mg11 Mg3 3.121359 1_555
Mg11 Mg5 3.121366 1_545
Mg11 Mg9 3.168433 1_545
Mg11 Mg7 3.168433 1_555
Mg11 Mg2 3.196068 1_556
Mg11 Mg4 3.196074 1_546
Mg11 Na0 3.199648 1_656
Mg11 Mg13 3.207310 1_545
Mg11 Mg13 3.207310 1_555
Mg11 Mg9 3.208683 1_655
Mg11 Mg7 3.208683 1_655
Mg12 Mg4 3.134877 1_555
Mg12 Mg2 3.134883 1_555
Mg12 Mg6 3.144102 1_665
Mg12 Mg8 3.144103 1_655
Mg12 Mg5 3.202361 1_555
Mg12 Mg3 3.202367 1_555
Mg12 Mg6 3.232570 1_555
Mg12 Mg8 3.232571 1_555
Mg13 Mg4 3.134877 1_556
Mg13 Mg2 3.134883 1_556
Mg13 Mg7 3.144102 1_665
Mg13 Mg9 3.144103 1_655
Mg13 Mg5 3.202361 1_555
Mg13 Mg3 3.202367 1_555
Mg13 Mg7 3.232570 1_555
Mg13 Mg9 3.232571 1_555
Cr0 Mg12 3.106899 1_455
Cr0 Mg13 3.106899 1_454
Cr0 Mg9 3.138838 1_554
Cr0 Mg8 3.138838 1_555
Cr0 Mg7 3.138844 1_564
Cr0 Mg6 3.138844 1_565
Cr0 Mg2 3.181035 1_565
Cr0 Mg4 3.181035 1_555
Cr0 Mg2 3.195126 1_455
Cr0 Mg4 3.195127 1_455
Cr0 Na0 3.205848 1_555
Cr0 Na0 3.205848 1_565
