# generated using pymatgen
data_Er2MnGa3
_symmetry_space_group_name_H-M   'P 1'
_cell_length_a   5.65964590
_cell_length_b   5.65964590
_cell_length_c   7.06865653
_cell_angle_alpha   51.86495882
_cell_angle_beta   51.86495882
_cell_angle_gamma   45.37821715
_symmetry_Int_Tables_number   1
_chemical_formula_structural   Er2MnGa3
_chemical_formula_sum   'Er2 Mn1 Ga3'
_cell_volume   119.73611258
_cell_formula_units_Z   1
loop_
 _symmetry_equiv_pos_site_id
 _symmetry_equiv_pos_as_xyz
  1  'x, y, z'
loop_
 _atom_site_type_symbol
 _atom_site_label
 _atom_site_symmetry_multiplicity
 _atom_site_fract_x
 _atom_site_fract_y
 _atom_site_fract_z
 _atom_site_occupancy
  Er  Er0  1  0.45791300  0.45791300  0.79133700  1
  Er  Er1  1  0.54501400  0.54501400  0.20259000  1
  Mn  Mn0  1  0.83361800  0.83361800  0.61643000  1
  Ga  Ga0  1  0.15727200  0.15727200  0.38988600  1
  Ga  Ga1  1  0.16739200  0.16739200  0.78667300  1
  Ga  Ga2  1  0.83879100  0.83879100  0.21308300  1
loop_
_geom_bond_atom_site_label_1
_geom_bond_atom_site_label_2
_geom_bond_distance
_geom_bond_site_symmetry_2
Er0 Ga0 3.040475 1_565
Er0 Ga0 3.040475 1_655
Er0 Ga1 3.056165 1_555
Er0 Ga1 3.075108 1_565
Er0 Ga1 3.075108 1_655
Er0 Ga0 3.158538 1_556
Er0 Mn0 3.182411 1_545
Er0 Mn0 3.182411 1_455
Er0 Ga2 3.199440 1_546
Er0 Ga2 3.199440 1_456
Er0 Mn0 3.229487 1_555
Er0 Ga2 3.280998 1_555
Er1 Ga2 3.032458 1_545
Er1 Ga2 3.032458 1_455
Er1 Mn0 3.087835 1_554
Er1 Mn0 3.090646 1_545
Er1 Mn0 3.090646 1_455
Er1 Ga2 3.118135 1_555
Er1 Ga0 3.157657 1_565
Er1 Ga0 3.157657 1_655
Er1 Ga1 3.164332 1_654
Er1 Ga1 3.164332 1_564
Er1 Ga1 3.286742 1_555
Er1 Ga0 3.312597 1_555
Ga0 Mn0 2.596802 1_445
Ga0 Ga2 2.598071 1_545
Ga0 Ga2 2.598071 1_455
Ga0 Ga1 2.876560 1_555
Ga1 Mn0 2.535973 1_455
Ga1 Mn0 2.535973 1_545
Ga1 Ga2 2.648639 1_446
Ga2 Mn0 2.815249 1_555
