# generated using pymatgen
data_Ca3Fe2(Si2O7)2
_symmetry_space_group_name_H-M   'P 1'
_cell_length_a   9.44397260
_cell_length_b   9.44397260
_cell_length_c   10.17830529
_cell_angle_alpha   59.13353200
_cell_angle_beta   59.13353200
_cell_angle_gamma   48.47546646
_symmetry_Int_Tables_number   1
_chemical_formula_structural   Ca3Fe2(Si2O7)2
_chemical_formula_sum   'Ca6 Fe4 Si8 O28'
_cell_volume   561.85872728
_cell_formula_units_Z   2
loop_
 _symmetry_equiv_pos_site_id
 _symmetry_equiv_pos_as_xyz
  1  'x, y, z'
loop_
 _atom_site_type_symbol
 _atom_site_label
 _atom_site_symmetry_multiplicity
 _atom_site_fract_x
 _atom_site_fract_y
 _atom_site_fract_z
 _atom_site_occupancy
  Ca  Ca0  1  0.23400000  0.16240000  0.53998600  1
  Ca  Ca1  1  0.83760000  0.76600000  0.96001400  1
  Ca  Ca2  1  0.16240000  0.23400000  0.03998600  1
  Ca  Ca3  1  0.65254600  0.34745400  0.25000000  1
  Ca  Ca4  1  0.76600000  0.83760000  0.46001400  1
  Ca  Ca5  1  0.34745400  0.65254600  0.75000000  1
  Fe  Fe0  1  0.20831300  0.79168700  0.25000000  1
  Fe  Fe1  1  0.79168700  0.20831300  0.75000000  1
  Fe  Fe2  1  0.00000000  0.00000000  0.00000000  1
  Fe  Fe3  1  0.00000000  0.00000000  0.50000000  1
  Si  Si0  1  0.11487700  0.53420400  0.65415100  1
  Si  Si1  1  0.53420400  0.11487700  0.15415100  1
  Si  Si2  1  0.21582200  0.53235800  0.14677200  1
  Si  Si3  1  0.53235800  0.21582200  0.64677200  1
  Si  Si4  1  0.46579600  0.88512300  0.84584900  1
  Si  Si5  1  0.78417800  0.46764200  0.85322800  1
  Si  Si6  1  0.46764200  0.78417800  0.35322800  1
  Si  Si7  1  0.88512300  0.46579600  0.34584900  1
  O  O0  1  0.29084800  0.87615000  0.50295900  1
  O  O1  1  0.89405000  0.96263300  0.72464800  1
  O  O2  1  0.64739000  0.45934300  0.81011000  1
  O  O3  1  0.96263300  0.89405000  0.22464800  1
  O  O4  1  0.92889500  0.26701300  0.49452500  1
  O  O5  1  0.50234900  0.05119700  0.81676800  1
  O  O6  1  0.45934300  0.64739000  0.31011000  1
  O  O7  1  0.73298700  0.07110500  0.00547500  1
  O  O8  1  0.49765100  0.94880300  0.18323200  1
  O  O9  1  0.67241200  0.65825600  0.40857600  1
  O  O10  1  0.10595000  0.03736700  0.27535200  1
  O  O11  1  0.07110500  0.73298700  0.50547500  1
  O  O12  1  0.94880300  0.49765100  0.68323200  1
  O  O13  1  0.87615000  0.29084800  0.00295900  1
  O  O14  1  0.65825600  0.67241200  0.90857600  1
  O  O15  1  0.26701300  0.92889500  0.99452500  1
  O  O16  1  0.47017700  0.89431400  0.68102500  1
  O  O17  1  0.32758800  0.34174400  0.59142400  1
  O  O18  1  0.10568600  0.52982300  0.81897500  1
  O  O19  1  0.34174400  0.32758800  0.09142400  1
  O  O20  1  0.05119700  0.50234900  0.31676800  1
  O  O21  1  0.03736700  0.10595000  0.77535200  1
  O  O22  1  0.89431400  0.47017700  0.18102500  1
  O  O23  1  0.35261000  0.54065700  0.18989000  1
  O  O24  1  0.52982300  0.10568600  0.31897500  1
  O  O25  1  0.54065700  0.35261000  0.68989000  1
  O  O26  1  0.12385000  0.70915200  0.99704100  1
  O  O27  1  0.70915200  0.12385000  0.49704100  1
loop_
_geom_bond_atom_site_label_1
_geom_bond_atom_site_label_2
_geom_bond_distance
_geom_bond_site_symmetry_2
Ca0 O21 2.215661 1_555
Ca0 O16 2.348293 1_545
Ca0 O24 2.440500 1_555
Ca0 O4 2.572396 1_455
Ca0 O0 2.579100 1_545
Ca0 O17 2.700642 1_555
Ca0 O20 2.764231 1_555
Ca0 O12 2.967320 1_455
Ca1 O1 2.215661 1_555
Ca1 O18 2.348293 1_655
Ca1 O22 2.440500 1_556
Ca1 O7 2.572396 1_566
Ca1 O26 2.579100 1_655
Ca1 O14 2.700642 1_555
Ca1 O8 2.764231 1_556
Ca1 O5 2.967320 1_565
Ca2 O10 2.215661 1_555
Ca2 O22 2.348293 1_455
Ca2 O18 2.440500 1_554
Ca2 O15 2.572396 1_544
Ca2 O13 2.579100 1_455
Ca2 O19 2.700642 1_555
Ca2 O5 2.764231 1_554
Ca2 O8 2.967320 1_545
Ca3 O13 2.345592 1_555
Ca3 O27 2.345592 1_555
Ca3 O23 2.346746 1_555
Ca3 O6 2.346746 1_555
Ca3 O24 2.842247 1_555
Ca3 O22 2.842247 1_555
Ca4 O3 2.215661 1_555
Ca4 O24 2.348293 1_565
Ca4 O16 2.440500 1_555
Ca4 O11 2.572396 1_655
Ca4 O27 2.579100 1_565
Ca4 O9 2.700642 1_555
Ca4 O12 2.764231 1_555
Ca4 O20 2.967320 1_655
Ca5 O0 2.345592 1_555
Ca5 O26 2.345592 1_555
Ca5 O25 2.346746 1_555
Ca5 O2 2.346746 1_555
Ca5 O18 2.842247 1_555
Ca5 O16 2.842247 1_555
Fe0 O10 1.941361 1_565
Fe0 O3 1.941361 1_455
Fe0 O6 2.049632 1_555
Fe0 O23 2.049632 1_555
Fe0 O11 2.182653 1_555
Fe0 O15 2.182653 1_554
Fe1 O21 1.941361 1_655
Fe1 O1 1.941361 1_545
Fe1 O25 2.049632 1_555
Fe1 O2 2.049632 1_555
Fe1 O7 2.182653 1_556
Fe1 O4 2.182653 1_555
Fe2 O21 1.909617 1_554
Fe2 O3 1.909617 1_445
Fe2 O7 2.112315 1_455
Fe2 O15 2.112315 1_544
Fe2 O26 2.168574 1_544
Fe2 O13 2.168574 1_455
Fe3 O1 1.909617 1_445
Fe3 O10 1.909617 1_555
Fe3 O11 2.112315 1_545
Fe3 O4 2.112315 1_455
Fe3 O0 2.168574 1_545
Fe3 O27 2.168574 1_455
O0 Si6 1.639895 1_555
O2 Si5 1.618274 1_555
O4 Si7 1.638021 1_555
O5 Si4 1.674313 1_545
O5 Si3 1.676934 1_555
O6 Si6 1.618274 1_555
O7 Si1 1.638021 1_555
O8 Si1 1.674313 1_565
O8 Si6 1.676934 1_555
O9 Si7 1.667417 1_555
O9 Si6 1.688956 1_555
O11 Si0 1.638021 1_555
O12 Si0 1.674313 1_655
O12 Si5 1.676934 1_555
O13 Si5 1.639895 1_554
O14 Si4 1.667417 1_555
O14 Si5 1.688956 1_555
O15 Si4 1.638021 1_555
O16 Si4 1.614872 1_555
O17 Si0 1.667417 1_555
O17 Si3 1.688956 1_555
O18 Si0 1.614872 1_555
O19 Si1 1.667417 1_555
O19 Si2 1.688956 1_555
O20 Si7 1.674313 1_455
O20 Si2 1.676934 1_555
O22 Si7 1.614872 1_555
O23 Si2 1.618274 1_555
O24 Si1 1.614872 1_555
O25 Si3 1.618274 1_555
O26 Si2 1.639895 1_556
O27 Si3 1.639895 1_555
