# generated using pymatgen
data_Ca(NiO2)2
_symmetry_space_group_name_H-M   'P 1'
_cell_length_a   6.17965926
_cell_length_b   6.14279343
_cell_length_c   24.05012283
_cell_angle_alpha   59.28069288
_cell_angle_beta   61.37730693
_cell_angle_gamma   60.19713936
_symmetry_Int_Tables_number   1
_chemical_formula_structural   Ca(NiO2)2
_chemical_formula_sum   'Ca8 Ni16 O32'
_cell_volume   649.28392970
_cell_formula_units_Z   8
loop_
 _symmetry_equiv_pos_site_id
 _symmetry_equiv_pos_as_xyz
  1  'x, y, z'
loop_
 _atom_site_type_symbol
 _atom_site_label
 _atom_site_symmetry_multiplicity
 _atom_site_fract_x
 _atom_site_fract_y
 _atom_site_fract_z
 _atom_site_occupancy
  Ca  Ca0  1  0.16425300  0.11798600  0.02494400  1
  Ca  Ca1  1  0.99452400  0.50173200  0.12550300  1
  Ca  Ca2  1  0.14492800  0.10789700  0.28481900  1
  Ca  Ca3  1  0.00703600  0.49553300  0.37547400  1
  Ca  Ca4  1  0.99780900  0.49863600  0.62623000  1
  Ca  Ca5  1  0.49784000  0.50678500  0.49714800  1
  Ca  Ca6  1  0.98681200  0.50502300  0.87578500  1
  Ca  Ca7  1  0.50147700  0.49288000  0.75319000  1
  Ni  Ni0  1  0.50142800  0.49565800  0.12442100  1
  Ni  Ni1  1  0.50086900  0.50154400  0.24901100  1
  Ni  Ni2  1  0.50142800  0.00523000  0.12442100  1
  Ni  Ni3  1  0.13314000  0.11079500  0.53631700  1
  Ni  Ni4  1  0.50592000  0.49122200  0.37290300  1
  Ni  Ni5  1  0.84325600  0.88920000  0.21958600  1
  Ni  Ni6  1  0.14967600  0.11123700  0.78196300  1
  Ni  Ni7  1  0.50592000  0.01124700  0.37290300  1
  Ni  Ni8  1  0.49935200  0.50159500  0.62513800  1
  Ni  Ni9  1  0.85708400  0.88801900  0.46671900  1
  Ni  Ni10  1  0.49935200  0.99849900  0.62513800  1
  Ni  Ni11  1  0.49973600  0.98925300  0.87553500  1
  Ni  Ni12  1  0.49973600  0.50887000  0.87553500  1
  Ni  Ni13  1  0.86534700  0.88692900  0.71519900  1
  Ni  Ni14  1  0.49921600  0.49393500  0.00322900  1
  Ni  Ni15  1  0.83078000  0.89013200  0.97223900  1
  O  O0  1  0.31422700  0.25673100  0.06161700  1
  O  O1  1  0.32378000  0.24163200  0.17323900  1
  O  O2  1  0.31422700  0.68257500  0.06161700  1
  O  O3  1  0.72280400  0.27142200  0.05858800  1
  O  O4  1  0.23639500  0.75812000  0.18684100  1
  O  O5  1  0.31946900  0.25845100  0.31011700  1
  O  O6  1  0.69594800  0.28854000  0.18951800  1
  O  O7  1  0.27633700  0.22909100  0.44136900  1
  O  O8  1  0.31946900  0.68161300  0.31011700  1
  O  O9  1  0.68044100  0.76356500  0.07310700  1
  O  O10  1  0.70232600  0.25701100  0.32091300  1
  O  O11  1  0.69594800  0.75744000  0.18951800  1
  O  O12  1  0.27242300  0.22035200  0.56801100  1
  O  O13  1  0.26068800  0.78118100  0.41923700  1
  O  O14  1  0.73036500  0.26942200  0.42809500  1
  O  O15  1  0.29555600  0.23178700  0.68521800  1
  O  O16  1  0.27242300  0.73517800  0.56801100  1
  O  O17  1  0.70865900  0.76453700  0.31556700  1
  O  O18  1  0.76181700  0.23497500  0.56705800  1
  O  O19  1  0.73036500  0.78783500  0.42809500  1
  O  O20  1  0.24550200  0.76500000  0.68112400  1
  O  O21  1  0.26686100  0.21255100  0.82062800  1
  O  O22  1  0.72224900  0.26688600  0.68237400  1
  O  O23  1  0.33129700  0.25145700  0.91644700  1
  O  O24  1  0.26686100  0.73807300  0.82062800  1
  O  O25  1  0.70555100  0.76736800  0.56492800  1
  O  O26  1  0.78976100  0.22303600  0.81604200  1
  O  O27  1  0.72224900  0.78137200  0.68237400  1
  O  O28  1  0.26170200  0.72154500  0.94880200  1
  O  O29  1  0.69004300  0.28881400  0.94400900  1
  O  O30  1  0.68729500  0.76749700  0.81942800  1
  O  O31  1  0.69004300  0.74510500  0.94400900  1
loop_
_geom_bond_atom_site_label_1
_geom_bond_atom_site_label_2
_geom_bond_distance
_geom_bond_site_symmetry_2
Ca0 O23 2.149767 1_554
Ca0 O2 2.167842 1_545
Ca0 O0 2.167843 1_555
Ca0 O3 2.256889 1_455
Ca1 O0 2.242214 1_655
Ca1 O2 2.242218 1_655
Ca1 O11 2.260563 1_555
Ca1 O6 2.260563 1_555
Ca1 O9 2.260861 1_555
Ca1 O1 2.267870 1_655
Ca2 O8 2.141019 1_545
Ca2 O5 2.141034 1_555
Ca2 O1 2.215026 1_555
Ca2 O10 2.262903 1_455
Ca3 O14 2.223882 1_455
Ca3 O19 2.223899 1_455
Ca3 O5 2.226090 1_555
Ca3 O8 2.226101 1_555
Ca3 O7 2.264757 1_555
Ca3 O17 2.300083 1_455
Ca4 O22 2.234392 1_555
Ca4 O27 2.234400 1_555
Ca4 O16 2.246705 1_655
Ca4 O12 2.246722 1_655
Ca4 O15 2.282988 1_655
Ca4 O25 2.293794 1_555
Ca5 O16 2.244756 1_555
Ca5 O12 2.244778 1_555
Ca5 O14 2.248052 1_555
Ca5 O19 2.248052 1_555
Ca5 O18 2.308250 1_555
Ca5 O13 2.334210 1_555
Ca6 O23 2.248672 1_655
Ca6 O30 2.250990 1_555
Ca6 O24 2.264328 1_655
Ca6 O21 2.264332 1_655
Ca6 O31 2.265224 1_555
Ca6 O29 2.265224 1_555
Ca7 O22 2.235151 1_555
Ca7 O27 2.235177 1_555
Ca7 O24 2.252399 1_555
Ca7 O21 2.252399 1_555
Ca7 O26 2.300220 1_555
Ca7 O20 2.310568 1_555
Ni0 O2 1.876152 1_555
Ni0 O1 1.901254 1_555
Ni0 O6 1.939722 1_555
Ni0 O9 1.970235 1_555
Ni0 O3 2.134352 1_555
Ni0 O4 2.242260 1_555
Ni1 O8 1.868089 1_555
Ni1 O5 1.868089 1_555
Ni1 O11 1.976029 1_555
Ni1 O6 1.976033 1_555
Ni1 O10 2.084801 1_555
Ni1 O4 2.182635 1_555
Ni2 O0 1.876153 1_555
Ni2 O1 1.901253 1_555
Ni2 O11 1.939722 1_545
Ni2 O9 1.970240 1_545
Ni2 O3 2.134352 1_555
Ni2 O4 2.242264 1_545
Ni3 O12 1.871694 1_555
Ni3 O16 1.871698 1_545
Ni3 O7 1.879744 1_555
Ni3 O18 1.898622 1_455
Ni4 O8 1.870467 1_555
Ni4 O14 1.892016 1_555
Ni4 O10 1.937667 1_555
Ni4 O17 2.088136 1_555
Ni4 O13 2.106559 1_555
Ni4 O7 2.154249 1_555
Ni5 O17 1.895889 1_555
Ni5 O6 1.991917 1_565
Ni5 O11 1.991917 1_555
Ni5 O4 2.010249 1_655
Ni6 O26 1.844033 1_455
Ni6 O21 1.860341 1_555
Ni6 O24 1.860365 1_545
Ni6 O15 1.915307 1_555
Ni7 O5 1.870467 1_555
Ni7 O19 1.892016 1_545
Ni7 O10 1.937663 1_555
Ni7 O17 2.088136 1_545
Ni7 O13 2.106574 1_545
Ni7 O7 2.154224 1_555
Ni8 O22 1.919820 1_555
Ni8 O16 1.935124 1_555
Ni8 O25 2.066562 1_555
Ni8 O15 2.074967 1_555
Ni8 O20 2.137982 1_555
Ni8 O18 2.188679 1_555
Ni9 O19 1.901270 1_555
Ni9 O14 1.901289 1_565
Ni9 O25 1.946100 1_555
Ni9 O13 2.089323 1_655
Ni10 O27 1.919821 1_555
Ni10 O12 1.935125 1_565
Ni10 O25 2.066558 1_555
Ni10 O15 2.074985 1_565
Ni10 O20 2.137982 1_555
Ni10 O18 2.188684 1_565
Ni11 O23 1.901893 1_565
Ni11 O21 1.924622 1_565
Ni11 O30 1.957011 1_555
Ni11 O31 1.980719 1_555
Ni11 O28 2.221201 1_555
Ni11 O26 2.307389 1_565
Ni12 O23 1.901893 1_555
Ni12 O24 1.924621 1_555
Ni12 O30 1.957020 1_555
Ni12 O29 1.980719 1_555
Ni12 O28 2.221204 1_555
Ni12 O26 2.307380 1_555
Ni13 O27 1.894052 1_555
Ni13 O22 1.894062 1_565
Ni13 O20 1.945507 1_655
Ni13 O30 2.076909 1_555
Ni14 O2 1.851803 1_555
Ni14 O0 1.851808 1_555
Ni14 O3 1.891001 1_555
Ni14 O28 1.937413 1_554
Ni14 O31 1.937523 1_554
Ni14 O29 1.937541 1_554
Ni15 O29 1.991179 1_565
Ni15 O31 1.991190 1_555
Ni15 O9 1.996075 1_556
Ni15 O28 2.213252 1_655
