# generated using pymatgen
data_Mg5Si6
_symmetry_space_group_name_H-M   'P 1'
_cell_length_a   3.95985800
_cell_length_b   7.12433219
_cell_length_c   14.56247372
_cell_angle_alpha   95.08775423
_cell_angle_beta   97.37426543
_cell_angle_gamma   89.87413842
_symmetry_Int_Tables_number   1
_chemical_formula_structural   Mg5Si6
_chemical_formula_sum   'Mg10 Si12'
_cell_volume   405.80616802
_cell_formula_units_Z   2
loop_
 _symmetry_equiv_pos_site_id
 _symmetry_equiv_pos_as_xyz
  1  'x, y, z'
loop_
 _atom_site_type_symbol
 _atom_site_label
 _atom_site_symmetry_multiplicity
 _atom_site_fract_x
 _atom_site_fract_y
 _atom_site_fract_z
 _atom_site_occupancy
  Mg  Mg0  1  0.91613900  0.74541300  0.99688600  1
  Mg  Mg1  1  0.16839400  0.03110800  0.48985400  1
  Mg  Mg2  1  0.03573000  0.27232400  0.22938100  1
  Mg  Mg3  1  0.75169500  0.85777500  0.65795400  1
  Mg  Mg4  1  0.33793400  0.90573600  0.84042600  1
  Mg  Mg5  1  0.45576600  0.07782800  0.07763400  1
  Mg  Mg6  1  0.65041700  0.73356900  0.44463400  1
  Mg  Mg7  1  0.70695700  0.34142400  0.57531200  1
  Mg  Mg8  1  0.38090200  0.41507000  0.92165000  1
  Mg  Mg9  1  0.49673900  0.59322300  0.15517500  1
  Si  Si0  1  0.94310400  0.37525500  0.05598000  1
  Si  Si1  1  0.88093900  0.11278500  0.94119700  1
  Si  Si2  1  0.20946200  0.64682400  0.55893300  1
  Si  Si3  1  0.14460700  0.38359600  0.43783900  1
  Si  Si4  1  0.58700100  0.42470200  0.33302300  1
  Si  Si5  1  0.82320100  0.59338400  0.80810900  1
  Si  Si6  1  0.26876600  0.16451600  0.68876400  1
  Si  Si7  1  0.55784600  0.98870600  0.29817000  1
  Si  Si8  1  0.00754400  0.89876900  0.18735500  1
  Si  Si9  1  0.81068100  0.22341800  0.78935400  1
  Si  Si10  1  0.27909500  0.53293000  0.70921000  1
  Si  Si11  1  0.08708000  0.68164500  0.30679200  1
loop_
_geom_bond_atom_site_label_1
_geom_bond_atom_site_label_2
_geom_bond_distance
_geom_bond_site_symmetry_2
Mg0 Si1 2.805904 1_565
Mg0 Si5 2.842504 1_555
Mg0 Si0 2.843252 1_556
Mg0 Si8 2.867864 1_656
Mg1 Si3 2.684583 1_555
Mg1 Si6 2.944412 1_555
Mg1 Si2 2.996380 1_545
Mg2 Si4 2.646353 1_455
Mg2 Si4 2.663794 1_555
Mg2 Si0 2.671731 1_455
Mg2 Si8 2.676672 1_545
Mg2 Si7 3.028173 1_545
Mg2 Si11 3.029310 1_555
Mg2 Si3 3.044386 1_555
Mg2 Si7 3.087016 1_445
Mg3 Si2 2.789863 1_555
Mg3 Si2 2.810427 1_655
Mg3 Si6 2.943118 1_565
Mg3 Si6 2.962981 1_665
Mg3 Si5 2.996454 1_555
Mg3 Si9 3.083141 1_565
Mg3 Si10 3.177950 1_555
Mg3 Si10 3.187423 1_655
Mg4 Si1 2.787980 1_565
Mg4 Si1 2.808946 1_465
Mg4 Si5 2.982205 1_555
Mg4 Si5 2.985954 1_455
Mg4 Si6 2.986049 1_565
Mg4 Si10 3.122202 1_555
Mg4 Si9 3.139193 1_565
Mg4 Si9 3.148624 1_465
Mg5 Si1 2.791510 1_554
Mg5 Si1 2.848720 1_454
Mg5 Si8 2.899568 1_645
Mg5 Si8 2.903455 1_545
Mg5 Si0 2.933639 1_555
Mg5 Si0 2.940396 1_455
Mg6 Si4 2.609628 1_555
Mg6 Si2 2.671065 1_555
Mg6 Si2 2.698816 1_655
Mg6 Si11 2.804430 1_555
Mg6 Si11 2.812920 1_655
Mg6 Si7 2.910583 1_555
Mg7 Si3 2.831287 1_555
Mg7 Si3 2.846231 1_655
Mg7 Si6 2.905806 1_555
Mg7 Si2 2.936733 1_555
Mg7 Si6 2.946316 1_655
Mg7 Si10 2.983307 1_555
Mg7 Si2 2.997210 1_655
Mg7 Si10 3.033829 1_655
Mg8 Si0 2.800172 1_556
Mg8 Si0 2.807781 1_456
Mg8 Si5 2.922488 1_555
Mg8 Si1 2.930006 1_555
Mg8 Si5 2.940694 1_455
Mg8 Si9 2.972734 1_555
Mg8 Si1 2.985061 1_455
Mg8 Si9 3.017410 1_455
Mg8 Si10 3.252283 1_555
Mg9 Si0 2.804958 1_555
Mg9 Si0 2.847542 1_455
Mg9 Si11 2.927709 1_555
Mg9 Si4 2.930665 1_555
Mg9 Si8 2.940167 1_655
Mg9 Si8 2.957061 1_555
Mg9 Si11 3.028412 1_655
Si0 Si1 2.386050 1_554
Si1 Si9 2.395480 1_555
Si2 Si3 2.447815 1_555
Si3 Si4 2.500480 1_555
Si3 Si4 2.549966 1_455
Si5 Si9 2.625587 1_555
Si6 Si9 2.452505 1_555
Si6 Si9 2.486361 1_455
Si7 Si8 2.585210 1_555
Si7 Si8 2.595189 1_655
Si10 Si2 2.383823 1_555
Si10 Si5 2.449376 1_555
Si10 Si5 2.464288 1_455
Si10 Si6 2.614982 1_555
Si11 Si8 2.419001 1_555
Si11 Si4 2.707339 1_555
Si11 Si4 2.784295 1_455
