# generated using pymatgen
data_Rb2Cd(IBr)2
_symmetry_space_group_name_H-M   'P 1'
_cell_length_a   7.28989528
_cell_length_b   7.28989528
_cell_length_c   11.70306274
_cell_angle_alpha   90.00000000
_cell_angle_beta   90.00000000
_cell_angle_gamma   108.20032515
_symmetry_Int_Tables_number   1
_chemical_formula_structural   Rb2Cd(IBr)2
_chemical_formula_sum   'Rb4 Cd2 I4 Br4'
_cell_volume   590.81584040
_cell_formula_units_Z   2
loop_
 _symmetry_equiv_pos_site_id
 _symmetry_equiv_pos_as_xyz
  1  'x, y, z'
loop_
 _atom_site_type_symbol
 _atom_site_label
 _atom_site_symmetry_multiplicity
 _atom_site_fract_x
 _atom_site_fract_y
 _atom_site_fract_z
 _atom_site_occupancy
  Rb  Rb0  1  0.61558981  0.61558981  0.50000000  1
  Rb  Rb1  1  0.61558981  0.61558981  0.00000000  1
  Rb  Rb2  1  0.25207434  0.89386829  0.25000000  1
  Rb  Rb3  1  0.89386829  0.25207434  0.75000000  1
  Cd  Cd0  1  0.85303930  0.29345855  0.25000000  1
  Cd  Cd1  1  0.29345855  0.85303930  0.75000000  1
  I  I0  1  0.05471655  0.46736345  0.44588006  1
  I  I1  1  0.46736345  0.05471655  0.55411994  1
  I  I2  1  0.05471655  0.46736345  0.05411994  1
  I  I3  1  0.46736345  0.05471655  0.94588006  1
  Br  Br0  1  0.51710898  0.36138458  0.25000000  1
  Br  Br1  1  0.36138458  0.51710898  0.75000000  1
  Br  Br2  1  0.77576131  0.91596403  0.25000000  1
  Br  Br3  1  0.91596403  0.77576131  0.75000000  1
loop_
_geom_bond_atom_site_label_1
_geom_bond_atom_site_label_2
_geom_bond_distance
_geom_bond_site_symmetry_2
Cd0 I2 2.803473 1_655
Cd0 I0 2.803473 1_655
Cd1 I1 2.803473 1_565
Cd1 I3 2.803473 1_565
I0 Rb0 3.738605 1_455
I0 Rb2 3.767974 1_555
I0 Rb3 3.918661 1_455
I0 Rb0 3.940355 1_555
I1 Rb0 3.738605 1_545
I1 Rb3 3.767974 1_555
I1 Rb2 3.918661 1_545
I1 Rb0 3.940355 1_555
I2 Rb1 3.738605 1_455
I2 Rb2 3.767974 1_555
I2 Rb3 3.918661 1_454
I2 Rb1 3.940355 1_555
I3 Rb1 3.738605 1_546
I3 Rb3 3.767974 1_555
I3 Rb2 3.918661 1_546
I3 Rb1 3.940355 1_556
Br0 Cd0 2.645713 1_555
Br0 Rb2 3.351861 1_545
Br0 Rb1 3.417386 1_555
Br0 Rb0 3.417386 1_555
Br1 Cd1 2.645713 1_555
Br1 Rb3 3.351861 1_455
Br1 Rb0 3.417386 1_555
Br1 Rb1 3.417386 1_556
Br2 Cd0 2.630943 1_565
Br2 Rb2 3.525904 1_655
Br2 Rb0 3.622304 1_555
Br2 Rb1 3.622304 1_555
Br2 Rb2 3.770419 1_555
Br3 Cd1 2.630943 1_655
Br3 Rb3 3.525904 1_565
Br3 Rb0 3.622304 1_555
Br3 Rb1 3.622304 1_556
Br3 Rb3 3.770419 1_555
