# generated using pymatgen
data_CaC7N10
_symmetry_space_group_name_H-M   'P 1'
_cell_length_a   5.83237450
_cell_length_b   5.65559300
_cell_length_c   8.09806171
_cell_angle_alpha   90.00000000
_cell_angle_beta   106.28687737
_cell_angle_gamma   90.00000000
_symmetry_Int_Tables_number   1
_chemical_formula_structural   CaC7N10
_chemical_formula_sum   'Ca2 C14 N20'
_cell_volume   256.39930709
_cell_formula_units_Z   2
loop_
 _symmetry_equiv_pos_site_id
 _symmetry_equiv_pos_as_xyz
  1  'x, y, z'
loop_
 _atom_site_type_symbol
 _atom_site_label
 _atom_site_symmetry_multiplicity
 _atom_site_fract_x
 _atom_site_fract_y
 _atom_site_fract_z
 _atom_site_occupancy
  Ca  Ca0  1  0.96886500  0.11488800  0.67265200  1
  Ca  Ca1  1  0.96886500  0.88511200  0.17265200  1
  C  C0  1  0.54141300  0.97506700  0.82839100  1
  C  C1  1  0.54141300  0.02493300  0.32839200  1
  C  C2  1  0.35543600  0.02897000  0.02032600  1
  C  C3  1  0.35543600  0.97103000  0.52032600  1
  C  C4  1  0.10906100  0.39065900  0.07333200  1
  C  C5  1  0.10906100  0.60934100  0.57333200  1
  C  C6  1  0.66341600  0.36723700  0.98976300  1
  C  C7  1  0.66341600  0.63276300  0.48976300  1
  C  C8  1  0.84280400  0.63140000  0.80836600  1
  C  C9  1  0.84280400  0.36860000  0.30836600  1
  C  C10  1  0.29624200  0.62372300  0.88592100  1
  C  C11  1  0.29624200  0.37627700  0.38592100  1
  C  C12  1  0.48372500  0.37540200  0.68588400  1
  C  C13  1  0.48372500  0.62459800  0.18588400  1
  N  N0  1  0.75363200  0.84983900  0.83628400  1
  N  N1  1  0.75363200  0.15016100  0.33628400  1
  N  N2  1  0.57862500  0.12423000  0.98306600  1
  N  N3  1  0.57862500  0.87577000  0.48306600  1
  N  N4  1  0.31724600  0.87564800  0.86572700  1
  N  N5  1  0.31724600  0.12435200  0.36572700  1
  N  N6  1  0.14977700  0.16757700  0.00835100  1
  N  N7  1  0.14977700  0.83242300  0.50835100  1
  N  N8  1  0.28266700  0.50306700  0.72597800  1
  N  N9  1  0.28266700  0.49693300  0.22597800  1
  N  N10  1  0.43521800  0.11854300  0.67589400  1
  N  N11  1  0.43521800  0.88145700  0.17589400  1
  N  N12  1  0.88215300  0.40863000  0.12495000  1
  N  N13  1  0.88215300  0.59137000  0.62495000  1
  N  N14  1  0.07956600  0.59424800  0.94220400  1
  N  N15  1  0.07956600  0.40575200  0.44220400  1
  N  N16  1  0.70559100  0.41010700  0.82125700  1
  N  N17  1  0.70559100  0.58989300  0.32125700  1
  N  N18  1  0.49686400  0.54086100  0.02095200  1
  N  N19  1  0.49686400  0.45913900  0.52095200  1
loop_
_geom_bond_atom_site_label_1
_geom_bond_atom_site_label_2
_geom_bond_distance
_geom_bond_site_symmetry_2
Ca0 N7 2.494610 1_645
Ca0 N0 2.551814 1_545
Ca0 N4 2.573328 1_645
Ca0 N6 2.642641 1_656
Ca0 N1 2.667863 1_555
Ca0 N15 2.698402 1_655
Ca0 N10 2.712778 1_655
Ca0 N3 2.721449 1_545
Ca0 N13 2.749054 1_555
Ca0 N16 2.762271 1_555
Ca0 N8 2.812926 1_655
Ca1 N6 2.494610 1_665
Ca1 N1 2.551814 1_565
Ca1 N5 2.573328 1_665
Ca1 N7 2.642641 1_655
Ca1 N0 2.667863 1_554
Ca1 N14 2.698402 1_654
Ca1 N11 2.712778 1_655
Ca1 N2 2.721449 1_564
Ca1 N12 2.749054 1_555
Ca1 N17 2.762271 1_555
Ca1 N9 2.812926 1_655
C0 N0 1.411848 1_555
C0 N10 1.462222 1_565
C0 N2 1.474863 1_565
C0 N4 1.529264 1_555
C1 N1 1.411850 1_555
C1 N11 1.462228 1_545
C1 N3 1.474856 1_545
C1 N5 1.529261 1_555
C2 N6 1.413302 1_555
C2 N11 1.473373 1_545
C2 N4 1.487446 1_544
C2 N2 1.515282 1_554
C3 N7 1.413302 1_555
C3 N10 1.473373 1_565
C3 N5 1.487446 1_565
C3 N3 1.515282 1_555
C4 N6 1.412508 1_555
C4 N9 1.487441 1_555
C4 N12 1.498920 1_455
C4 N14 1.542883 1_554
C5 N7 1.412508 1_555
C5 N8 1.487441 1_555
C5 N13 1.498920 1_455
C5 N15 1.542883 1_555
C6 N12 1.448266 1_556
C6 N18 1.452319 1_556
C6 N2 1.456467 1_555
C6 N16 1.472962 1_555
C7 N13 1.448266 1_555
C7 N19 1.452319 1_555
C7 N3 1.456467 1_555
C7 N17 1.472962 1_555
C8 N0 1.383391 1_555
C8 N16 1.504846 1_555
C8 N14 1.512025 1_655
C8 N13 1.581543 1_555
C9 N1 1.383391 1_555
C9 N17 1.504846 1_555
C9 N15 1.512025 1_655
C9 N12 1.581543 1_555
C10 N18 1.437643 1_556
C10 N4 1.443260 1_555
C10 N8 1.446378 1_555
C10 N14 1.468204 1_555
C11 N19 1.437643 1_555
C11 N5 1.443260 1_555
C11 N9 1.446378 1_555
C11 N15 1.468204 1_555
C12 N19 1.439259 1_555
C12 N16 1.455711 1_555
C12 N10 1.477855 1_555
C12 N8 1.488417 1_555
C13 N18 1.439259 1_555
C13 N17 1.455711 1_555
C13 N11 1.477855 1_555
C13 N9 1.488417 1_555
