# generated using pymatgen
data_Ga2SnGeS6
_symmetry_space_group_name_H-M   'P 1'
_cell_length_a   23.65506730
_cell_length_b   23.15976853
_cell_length_c   7.03802829
_cell_angle_alpha   85.36441619
_cell_angle_beta   77.38483531
_cell_angle_gamma   17.25074850
_symmetry_Int_Tables_number   1
_chemical_formula_structural   Ga2SnGeS6
_chemical_formula_sum   'Ga8 Sn4 Ge4 S24'
_cell_volume   1001.21313331
_cell_formula_units_Z   4
loop_
 _symmetry_equiv_pos_site_id
 _symmetry_equiv_pos_as_xyz
  1  'x, y, z'
loop_
 _atom_site_type_symbol
 _atom_site_label
 _atom_site_symmetry_multiplicity
 _atom_site_fract_x
 _atom_site_fract_y
 _atom_site_fract_z
 _atom_site_occupancy
  Ga  Ga0  1  0.64205300  0.99199100  0.02788400  1
  Ga  Ga1  1  0.02788400  0.33807300  0.64205300  1
  Ga  Ga2  1  0.25800900  0.60794700  0.91192700  1
  Ga  Ga3  1  0.91192700  0.22211600  0.25800900  1
  Ga  Ga4  1  0.95662300  0.81115500  0.75764900  1
  Ga  Ga5  1  0.75764900  0.47457300  0.95662300  1
  Ga  Ga6  1  0.43884500  0.29337700  0.77542700  1
  Ga  Ga7  1  0.77542700  0.49235100  0.43884500  1
  Sn  Sn0  1  0.10871200  0.53850900  0.39655400  1
  Sn  Sn1  1  0.39655400  0.95622500  0.10871200  1
  Sn  Sn2  1  0.71149100  0.14128800  0.29377500  1
  Sn  Sn3  1  0.29377500  0.85344600  0.71149100  1
  Ge  Ge0  1  0.78088100  0.71911900  0.78088100  1
  Ge  Ge1  1  0.53088100  0.46911900  0.53088100  1
  Ge  Ge2  1  0.28932900  0.21067100  0.28932900  1
  Ge  Ge3  1  0.03932900  0.96067100  0.03932900  1
  S  S0  1  0.42699100  0.15142300  0.37550500  1
  S  S1  1  0.37550500  0.04608100  0.42699100  1
  S  S2  1  0.09857700  0.82300900  0.20391900  1
  S  S3  1  0.20391900  0.87449500  0.09857700  1
  S  S4  1  0.79267400  0.92037000  0.08889700  1
  S  S5  1  0.08889700  0.19805900  0.79267400  1
  S  S6  1  0.32963000  0.45732600  0.05194100  1
  S  S7  1  0.05194100  0.16110300  0.32963000  1
  S  S8  1  0.28706800  0.44979900  0.54541700  1
  S  S9  1  0.54541700  0.71771500  0.28706800  1
  S  S10  1  0.80020100  0.96293200  0.53228500  1
  S  S11  1  0.53228500  0.70458300  0.80020100  1
  S  S12  1  0.93072100  0.57881000  0.40811800  1
  S  S13  1  0.40811800  0.08235000  0.93072100  1
  S  S14  1  0.67119000  0.31927900  0.16765000  1
  S  S15  1  0.16765000  0.84188200  0.67119000  1
  S  S16  1  0.38223900  0.25523000  0.92694700  1
  S  S17  1  0.92694700  0.43558300  0.38223900  1
  S  S18  1  0.99477000  0.86776100  0.81441700  1
  S  S19  1  0.81441700  0.32305300  0.99477000  1
  S  S20  1  0.92240000  0.65790400  0.84669600  1
  S  S21  1  0.84669600  0.57300000  0.92240000  1
  S  S22  1  0.59209600  0.32760000  0.67700000  1
  S  S23  1  0.67700000  0.40330400  0.59209600  1
loop_
_geom_bond_atom_site_label_1
_geom_bond_atom_site_label_2
_geom_bond_distance
_geom_bond_site_symmetry_2
Ga0 S4 2.212541 1_555
Ga0 S16 2.255030 1_564
Ga0 S20 2.316490 1_554
Ga0 S0 2.375911 1_565
Ga1 S5 2.212559 1_555
Ga1 S17 2.255033 1_455
Ga1 S21 2.316475 1_455
Ga1 S1 2.375902 1_555
Ga2 S6 2.212544 1_556
Ga2 S18 2.255020 1_455
Ga2 S22 2.316488 1_555
Ga2 S2 2.375916 1_556
Ga3 S7 2.212563 1_655
Ga3 S19 2.255020 1_554
Ga3 S23 2.316479 1_555
Ga3 S3 2.375901 1_645
Ga4 S4 2.267338 1_556
Ga4 S18 2.279093 1_555
Ga4 S8 2.311292 1_655
Ga4 S10 2.320035 1_555
Ga5 S5 2.267338 1_655
Ga5 S19 2.279071 1_555
Ga5 S9 2.311282 1_556
Ga5 S11 2.320036 1_555
Ga6 S6 2.267338 1_556
Ga6 S16 2.279091 1_555
Ga6 S10 2.311291 1_545
Ga6 S8 2.320041 1_555
Ga7 S7 2.267338 1_655
Ga7 S17 2.279070 1_555
Ga7 S11 2.311287 1_555
Ga7 S9 2.320042 1_555
Ge0 S21 2.222006 1_555
Ge0 S20 2.222006 1_555
Ge0 S13 2.306993 1_565
Ge0 S12 2.306994 1_555
Ge1 S22 2.222006 1_555
Ge1 S23 2.222006 1_555
Ge1 S14 2.306987 1_555
Ge1 S15 2.306992 1_555
Ge2 S0 2.246860 1_555
Ge2 S1 2.246860 1_555
Ge2 S12 2.293928 1_455
Ge2 S13 2.293933 1_554
Ge3 S2 2.246860 1_555
Ge3 S3 2.246860 1_555
Ge3 S15 2.293926 1_554
Ge3 S14 2.293927 1_465
S0 Sn0 2.807788 1_555
S1 Sn1 2.807788 1_545
S2 Sn2 2.807788 1_465
S3 Sn3 2.807788 1_554
S8 Sn0 2.854039 1_555
S9 Sn1 2.854055 1_555
S10 Sn2 2.854043 1_565
S11 Sn3 2.854059 1_555
S16 Sn0 2.985769 1_556
S17 Sn1 2.985764 1_645
S18 Sn2 2.985764 1_566
S19 Sn3 2.985765 1_645
S20 Sn0 3.024368 1_655
S21 Sn1 3.024368 1_556
S22 Sn2 3.024368 1_555
S23 Sn3 3.024368 1_555
