# generated using pymatgen
data_B
_symmetry_space_group_name_H-M   'P 1'
_cell_length_a   7.51321172
_cell_length_b   4.49833403
_cell_length_c   5.58435167
_cell_angle_alpha   109.51180475
_cell_angle_beta   132.27597157
_cell_angle_gamma   60.23085336
_symmetry_Int_Tables_number   1
_chemical_formula_structural   B
_chemical_formula_sum   B12
_cell_volume   121.21800062
_cell_formula_units_Z   12
loop_
 _symmetry_equiv_pos_site_id
 _symmetry_equiv_pos_as_xyz
  1  'x, y, z'
loop_
 _atom_site_type_symbol
 _atom_site_label
 _atom_site_symmetry_multiplicity
 _atom_site_fract_x
 _atom_site_fract_y
 _atom_site_fract_z
 _atom_site_occupancy
  B  B0  1  0.20536100  0.74034700  0.00000000  1
  B  B1  1  0.99825200  0.46818300  0.75371700  1
  B  B2  1  0.24453500  0.46818300  0.24628300  1
  B  B3  1  0.79463900  0.25965300  0.00000000  1
  B  B4  1  0.00174800  0.53181700  0.24628300  1
  B  B5  1  0.75546500  0.53181700  0.75371700  1
  B  B6  1  0.08800000  0.17989300  0.00000000  1
  B  B7  1  0.48162400  0.56771100  0.36330400  1
  B  B8  1  0.11832000  0.56771100  0.63669600  1
  B  B9  1  0.91200000  0.82010700  0.00000000  1
  B  B10  1  0.51837600  0.43228900  0.63669600  1
  B  B11  1  0.88168000  0.43228900  0.36330400  1
loop_
_geom_bond_atom_site_label_1
_geom_bond_atom_site_label_2
_geom_bond_distance
_geom_bond_site_symmetry_2
B0 B7 1.677391 1_555
B0 B8 1.677391 1_554
B0 B6 1.719204 1_565
B0 B2 1.923379 1_555
B0 B1 1.923380 1_454
B0 B9 2.049741 1_455
B1 B8 1.682524 1_655
B1 B11 1.697845 1_555
B1 B5 1.700240 1_555
B1 B6 1.761634 1_656
B1 B9 1.882439 1_556
B1 B2 2.035251 1_656
B2 B7 1.682524 1_555
B2 B4 1.700240 1_555
B2 B6 1.761634 1_555
B2 B9 1.882439 1_455
B3 B9 1.719204 1_545
B3 B5 1.923379 1_554
B3 B4 1.923380 1_655
B3 B6 2.049741 1_655
B4 B8 1.697845 1_555
B4 B9 1.761634 1_455
B4 B6 1.882439 1_555
B4 B5 2.035251 1_454
B5 B7 1.697845 1_555
B5 B9 1.761634 1_556
B5 B6 1.882439 1_656
B10 B7 1.632562 1_555
B10 B3 1.677391 1_556
B10 B5 1.682524 1_555
B10 B2 1.697845 1_555
B11 B8 1.632562 1_655
B11 B3 1.677391 1_555
B11 B4 1.682524 1_655
