# generated using pymatgen
data_Ba5Er8Ni4O21
_symmetry_space_group_name_H-M   'P 1'
_cell_length_a   10.11130939
_cell_length_b   10.11130939
_cell_length_c   10.11130939
_cell_angle_alpha   94.55442670
_cell_angle_beta   94.55442670
_cell_angle_gamma   147.26577083
_symmetry_Int_Tables_number   1
_chemical_formula_structural   Ba5Er8Ni4O21
_chemical_formula_sum   'Ba5 Er8 Ni4 O21'
_cell_volume   536.34856456
_cell_formula_units_Z   1
loop_
 _symmetry_equiv_pos_site_id
 _symmetry_equiv_pos_as_xyz
  1  'x, y, z'
loop_
 _atom_site_type_symbol
 _atom_site_label
 _atom_site_symmetry_multiplicity
 _atom_site_fract_x
 _atom_site_fract_y
 _atom_site_fract_z
 _atom_site_occupancy
  Ba  Ba0  1  0.86161500  0.46245700  0.32407300  1
  Ba  Ba1  1  0.13838500  0.53754300  0.67592700  1
  Ba  Ba2  1  0.46245700  0.13838500  0.60084200  1
  Ba  Ba3  1  0.53754300  0.86161500  0.39915800  1
  Ba  Ba4  1  0.00000000  0.00000000  0.00000000  1
  Er  Er0  1  0.74995300  0.16700600  0.91695900  1
  Er  Er1  1  0.25004700  0.83299400  0.08304100  1
  Er  Er2  1  0.16700600  0.25004700  0.41705300  1
  Er  Er3  1  0.83299400  0.74995300  0.58294700  1
  Er  Er4  1  0.58846800  0.35703600  0.94550400  1
  Er  Er5  1  0.41153200  0.64296400  0.05449600  1
  Er  Er6  1  0.35703600  0.41153200  0.76856800  1
  Er  Er7  1  0.64296400  0.58846800  0.23143200  1
  Ni  Ni0  1  0.95915800  0.24547700  0.20463500  1
  Ni  Ni1  1  0.04084200  0.75452300  0.79536500  1
  Ni  Ni2  1  0.24547700  0.04084200  0.28631900  1
  Ni  Ni3  1  0.75452300  0.95915800  0.71368100  1
  O  O0  1  0.60614200  0.01202400  0.11052500  1
  O  O1  1  0.39385800  0.98797600  0.88947500  1
  O  O2  1  0.90149900  0.49561700  0.88947500  1
  O  O3  1  0.01202400  0.90149900  0.40588200  1
  O  O4  1  0.09850100  0.50438300  0.11052500  1
  O  O5  1  0.98797600  0.09850100  0.59411800  1
  O  O6  1  0.49561700  0.60614200  0.59411800  1
  O  O7  1  0.50438300  0.39385800  0.40588200  1
  O  O8  1  0.50000000  0.50000000  0.00000000  1
  O  O9  1  0.63089000  0.03806200  0.66895200  1
  O  O10  1  0.36911000  0.96193800  0.33104800  1
  O  O11  1  0.03806200  0.36911000  0.40717200  1
  O  O12  1  0.96193800  0.63089000  0.59282800  1
  O  O13  1  0.57141900  0.79759000  0.86940000  1
  O  O14  1  0.42858100  0.20241000  0.13060000  1
  O  O15  1  0.92819100  0.70201900  0.13060000  1
  O  O16  1  0.79759000  0.92819100  0.22617200  1
  O  O17  1  0.07180900  0.29798100  0.86940000  1
  O  O18  1  0.20241000  0.07180900  0.77382800  1
  O  O19  1  0.70201900  0.57141900  0.77382800  1
  O  O20  1  0.29798100  0.42858100  0.22617200  1
loop_
_geom_bond_atom_site_label_1
_geom_bond_atom_site_label_2
_geom_bond_distance
_geom_bond_site_symmetry_2
Ba0 O12 2.689768 1_555
Ba0 O11 2.738766 1_655
Ba0 O10 2.851135 1_545
Ba0 O10 2.851141 1_655
Ba0 O15 2.892402 1_555
Ba0 O14 2.892404 1_555
Ba0 O0 3.136498 1_555
Ba0 O4 3.136500 1_655
Ba0 O7 3.250088 1_555
Ba0 O3 3.250090 1_655
Ba1 O11 2.689768 1_555
Ba1 O12 2.738766 1_455
Ba1 O9 2.851135 1_565
Ba1 O9 2.851141 1_455
Ba1 O17 2.892402 1_555
Ba1 O13 2.892404 1_555
Ba1 O1 3.136498 1_555
Ba1 O2 3.136500 1_455
Ba1 O6 3.250088 1_555
Ba1 O5 3.250090 1_455
Ba2 O9 2.689778 1_555
Ba2 O10 2.738769 1_545
Ba2 O12 2.851138 1_445
Ba2 O12 2.851138 1_555
Ba2 O18 2.892387 1_555
Ba2 O19 2.892395 1_555
Ba2 O3 3.136493 1_545
Ba2 O7 3.136493 1_555
Ba2 O1 3.250091 1_545
Ba2 O2 3.250091 1_555
Ba3 O10 2.689778 1_555
Ba3 O9 2.738769 1_565
Ba3 O11 2.851138 1_555
Ba3 O11 2.851138 1_665
Ba3 O16 2.892387 1_555
Ba3 O20 2.892395 1_555
Ba3 O6 3.136493 1_555
Ba3 O5 3.136493 1_565
Ba3 O0 3.250091 1_565
Ba3 O4 3.250091 1_555
Ba4 O8 2.849274 1_555
Ba4 O8 2.849274 1_445
Ba4 O14 2.907349 1_555
Ba4 O13 2.907349 1_444
Ba4 O20 2.907355 1_555
Ba4 O17 2.907355 1_554
Ba4 O19 2.907355 1_444
Ba4 O15 2.907355 1_445
Ba4 O16 2.907360 1_445
Ba4 O18 2.907360 1_554
Er0 O1 2.261427 1_545
Er0 O2 2.261427 1_555
Er0 O4 2.346541 1_656
Er0 O0 2.346541 1_556
Er0 O17 2.382219 1_655
Er0 O13 2.382228 1_545
Er0 O9 2.407963 1_555
Er1 O4 2.261427 1_555
Er1 O0 2.261427 1_565
Er1 O2 2.346541 1_454
Er1 O1 2.346541 1_554
Er1 O15 2.382219 1_455
Er1 O14 2.382228 1_565
Er1 O10 2.407963 1_555
Er2 O5 2.261427 1_455
Er2 O6 2.261427 1_555
Er2 O7 2.346541 1_555
Er2 O3 2.346541 1_545
Er2 O20 2.382219 1_555
Er2 O16 2.382223 1_445
Er2 O11 2.407963 1_555
Er3 O7 2.261427 1_555
Er3 O3 2.261427 1_655
Er3 O5 2.346541 1_565
Er3 O6 2.346541 1_555
Er3 O19 2.382219 1_555
Er3 O18 2.382223 1_665
Er3 O12 2.407963 1_555
Er4 O2 2.291704 1_555
Er4 O1 2.291704 1_545
Er4 O14 2.292080 1_556
Er4 O15 2.292082 1_556
Er4 O8 2.306658 1_556
Er4 O18 2.399437 1_555
Er4 O19 2.399443 1_555
Er5 O0 2.291704 1_565
Er5 O4 2.291704 1_555
Er5 O13 2.292080 1_554
Er5 O17 2.292082 1_554
Er5 O8 2.306658 1_555
Er5 O16 2.399437 1_555
Er5 O20 2.399443 1_555
Er6 O5 2.291704 1_455
Er6 O6 2.291704 1_555
Er6 O19 2.292082 1_555
Er6 O18 2.292087 1_555
Er6 O8 2.306658 1_556
Er6 O13 2.399435 1_555
Er6 O17 2.399443 1_555
Er7 O7 2.291704 1_555
Er7 O3 2.291704 1_655
Er7 O20 2.292082 1_555
Er7 O16 2.292087 1_555
Er7 O8 2.306658 1_555
Er7 O14 2.399435 1_555
Er7 O15 2.399443 1_555
Ni0 O11 2.012270 1_655
Ni0 O4 2.036444 1_655
Ni0 O0 2.036444 1_555
Ni0 O16 2.087740 1_545
Ni0 O20 2.087745 1_655
Ni1 O12 2.012270 1_455
Ni1 O2 2.036444 1_455
Ni1 O1 2.036444 1_555
Ni1 O18 2.087740 1_565
Ni1 O19 2.087745 1_455
Ni2 O10 2.012270 1_545
Ni2 O3 2.036444 1_545
Ni2 O7 2.036444 1_555
Ni2 O15 2.087745 1_445
Ni2 O14 2.087746 1_555
Ni3 O9 2.012270 1_565
Ni3 O6 2.036444 1_555
Ni3 O5 2.036444 1_565
Ni3 O17 2.087745 1_665
Ni3 O13 2.087746 1_555
