# generated using pymatgen
data_KH2SNO3
_symmetry_space_group_name_H-M   'P 1'
_cell_length_a   6.03094500
_cell_length_b   8.34084400
_cell_length_c   8.48465100
_cell_angle_alpha   90.00000000
_cell_angle_beta   90.00000000
_cell_angle_gamma   90.00000000
_symmetry_Int_Tables_number   1
_chemical_formula_structural   KH2SNO3
_chemical_formula_sum   'K4 H8 S4 N4 O12'
_cell_volume   426.80485367
_cell_formula_units_Z   4
loop_
 _symmetry_equiv_pos_site_id
 _symmetry_equiv_pos_as_xyz
  1  'x, y, z'
loop_
 _atom_site_type_symbol
 _atom_site_label
 _atom_site_symmetry_multiplicity
 _atom_site_fract_x
 _atom_site_fract_y
 _atom_site_fract_z
 _atom_site_occupancy
  K  K0  1  0.33514800  0.50000000  0.75000000  1
  K  K1  1  0.66485200  0.00000000  0.25000000  1
  K  K2  1  0.66485200  0.50000000  0.25000000  1
  K  K3  1  0.33514800  0.00000000  0.75000000  1
  H  H0  1  0.75878300  0.35012600  0.87796400  1
  H  H1  1  0.24121700  0.85012600  0.12203600  1
  H  H2  1  0.75878300  0.64987400  0.62203600  1
  H  H3  1  0.24121700  0.14987400  0.37796400  1
  H  H4  1  0.24121700  0.64987400  0.12203600  1
  H  H5  1  0.75878300  0.14987400  0.87796400  1
  H  H6  1  0.24121700  0.35012600  0.37796400  1
  H  H7  1  0.75878300  0.85012600  0.62203600  1
  S  S0  1  0.82209800  0.25000000  0.63846800  1
  S  S1  1  0.17790200  0.75000000  0.36153200  1
  S  S2  1  0.82209800  0.75000000  0.86153200  1
  S  S3  1  0.17790200  0.25000000  0.13846800  1
  N  N0  1  0.70625500  0.25000000  0.81792100  1
  N  N1  1  0.29374500  0.75000000  0.18207900  1
  N  N2  1  0.70625500  0.75000000  0.68207900  1
  N  N3  1  0.29374500  0.25000000  0.31792100  1
  O  O0  1  0.06577500  0.25000000  0.65462100  1
  O  O1  1  0.93422500  0.75000000  0.34537900  1
  O  O2  1  0.06577500  0.75000000  0.84537900  1
  O  O3  1  0.93422500  0.25000000  0.15462100  1
  O  O4  1  0.73792200  0.10222800  0.56595900  1
  O  O5  1  0.26207800  0.60222800  0.43404100  1
  O  O6  1  0.73792200  0.89777200  0.93404100  1
  O  O7  1  0.26207800  0.39777200  0.06595900  1
  O  O8  1  0.26207800  0.89777200  0.43404100  1
  O  O9  1  0.73792200  0.39777200  0.56595900  1
  O  O10  1  0.26207800  0.10222800  0.06595900  1
  O  O11  1  0.73792200  0.60222800  0.93404100  1
loop_
_geom_bond_atom_site_label_1
_geom_bond_atom_site_label_2
_geom_bond_distance
_geom_bond_site_symmetry_2
K0 O2 2.764461 1_555
K0 O0 2.764461 1_555
K0 O5 2.847445 1_555
K0 O7 2.847445 1_556
K1 O1 2.764461 1_545
K1 O3 2.764461 1_555
K1 O6 2.847445 1_544
K1 O4 2.847445 1_555
K2 O3 2.764461 1_555
K2 O1 2.764461 1_555
K2 O9 2.847445 1_555
K2 O11 2.847445 1_554
K3 O2 2.764461 1_545
K3 O0 2.764461 1_555
K3 O8 2.847445 1_545
K3 O10 2.847445 1_556
H0 N0 1.028271 1_555
H1 N1 1.028271 1_555
H2 N2 1.028271 1_555
H3 N3 1.028271 1_555
H4 N1 1.028271 1_555
H5 N0 1.028271 1_555
H6 N3 1.028271 1_555
H7 N2 1.028271 1_555
N0 S0 1.675231 1_555
N1 S1 1.675231 1_555
N2 S2 1.675231 1_555
N3 S3 1.675231 1_555
O0 S0 1.475979 1_455
O1 S1 1.475979 1_655
O2 S2 1.475979 1_455
O3 S3 1.475979 1_655
O4 S0 1.468118 1_555
O5 S1 1.468118 1_555
O6 S2 1.468118 1_555
O7 S3 1.468118 1_555
O8 S1 1.468118 1_555
O9 S0 1.468118 1_555
O10 S3 1.468118 1_555
O11 S2 1.468118 1_555
