# generated using pymatgen
data_HoFeRu
_symmetry_space_group_name_H-M   'P 1'
_cell_length_a   5.23174086
_cell_length_b   5.23101997
_cell_length_c   5.23161144
_cell_angle_alpha   121.00531109
_cell_angle_beta   118.07369666
_cell_angle_gamma   90.76319694
_symmetry_Int_Tables_number   1
_chemical_formula_structural   HoFeRu
_chemical_formula_sum   'Ho2 Fe2 Ru2'
_cell_volume   101.90095804
_cell_formula_units_Z   2
loop_
 _symmetry_equiv_pos_site_id
 _symmetry_equiv_pos_as_xyz
  1  'x, y, z'
loop_
 _atom_site_type_symbol
 _atom_site_label
 _atom_site_symmetry_multiplicity
 _atom_site_fract_x
 _atom_site_fract_y
 _atom_site_fract_z
 _atom_site_occupancy
  Ho  Ho0  1  0.37557176  0.12556927  0.24992659  1
  Ho  Ho1  1  0.62442824  0.87443073  0.75007341  1
  Fe  Fe0  1  0.00000000  0.50000000  -0.00000000  1
  Fe  Fe1  1  0.00000000  0.00000000  0.50000000  1
  Ru  Ru0  1  0.50000000  0.50000000  -0.00000000  1
  Ru  Ru1  1  0.00000000  0.50000000  0.50000000  1
loop_
_geom_bond_atom_site_label_1
_geom_bond_atom_site_label_2
_geom_bond_distance
_geom_bond_site_symmetry_2
Ho0 Ru1 3.048089 1_555
Ho0 Ru0 3.048210 1_545
Ho0 Ru0 3.049916 1_556
Ho0 Ru1 3.050886 1_544
Ho0 Ru0 3.061907 1_555
Ho0 Ru1 3.063836 1_655
Ho1 Ru1 3.048089 1_655
Ho1 Ru0 3.048210 1_566
Ho1 Ru0 3.049916 1_555
Ho1 Ru1 3.050886 1_666
Ho1 Ru0 3.061907 1_556
Ho1 Ru1 3.063836 1_555
Fe0 Fe1 2.575812 1_565
Fe0 Fe1 2.575812 1_554
Fe0 Ru1 2.615806 1_555
Fe0 Ru1 2.615806 1_554
Fe0 Ru0 2.615870 1_455
Fe0 Ru0 2.615870 1_555
Fe0 Ho1 3.046530 1_444
Fe0 Ho0 3.046530 1_565
Fe0 Ho0 3.119226 1_555
Fe0 Ho1 3.119226 1_454
Fe0 Ho1 3.122904 1_555
Fe0 Ho0 3.122904 1_454
Fe1 Ru1 2.615510 1_555
Fe1 Ru1 2.615510 1_545
Fe1 Ru0 2.618199 1_445
Fe1 Ru0 2.618199 1_556
Fe1 Ho0 3.045384 1_555
Fe1 Ho1 3.045384 1_445
Fe1 Ho1 3.120119 1_545
Fe1 Ho0 3.120119 1_455
Fe1 Ho1 3.120841 1_444
Fe1 Ho0 3.120841 1_556
Ru0 Ru1 2.691628 1_655
Ru0 Ru1 2.691628 1_554
