# generated using pymatgen
data_Sr3NbCoO7
_symmetry_space_group_name_H-M   'P 1'
_cell_length_a   5.62759985
_cell_length_b   5.62772499
_cell_length_c   21.84568523
_cell_angle_alpha   97.40336445
_cell_angle_beta   82.59847564
_cell_angle_gamma   90.00674561
_symmetry_Int_Tables_number   1
_chemical_formula_structural   Sr3NbCoO7
_chemical_formula_sum   'Sr12 Nb4 Co4 O28'
_cell_volume   680.28563410
_cell_formula_units_Z   4
loop_
 _symmetry_equiv_pos_site_id
 _symmetry_equiv_pos_as_xyz
  1  'x, y, z'
loop_
 _atom_site_type_symbol
 _atom_site_label
 _atom_site_symmetry_multiplicity
 _atom_site_fract_x
 _atom_site_fract_y
 _atom_site_fract_z
 _atom_site_occupancy
  Sr  Sr0  1  0.65437800  0.34544600  0.69132600  1
  Sr  Sr1  1  0.40363700  0.09635800  0.19226400  1
  Sr  Sr2  1  0.15450000  0.84538900  0.69131400  1
  Sr  Sr3  1  0.90413000  0.59611900  0.19192700  1
  Sr  Sr4  1  0.59156600  0.90838600  0.81680300  1
  Sr  Sr5  1  0.34134600  0.65892200  0.31726900  1
  Sr  Sr6  1  0.09160800  0.40850900  0.81677000  1
  Sr  Sr7  1  0.84128200  0.15870700  0.31727000  1
  Sr  Sr8  1  0.50942600  0.99048900  0.98083100  1
  Sr  Sr9  1  0.25981500  0.73988600  0.48085200  1
  Sr  Sr10  1  0.00971300  0.49066900  0.98079100  1
  Sr  Sr11  1  0.75959000  0.24021100  0.48085600  1
  Nb  Nb0  1  0.70143400  0.79836200  0.59736000  1
  Nb  Nb1  1  0.45084000  0.54939900  0.09813000  1
  Nb  Nb2  1  0.20145200  0.29833600  0.59731500  1
  Nb  Nb3  1  0.95075500  0.04931200  0.09812700  1
  Co  Co0  1  0.30275900  0.19708100  0.39443500  1
  Co  Co1  1  0.05301900  0.94689400  0.89374500  1
  Co  Co2  1  0.55323800  0.44691800  0.89377500  1
  Co  Co3  1  0.80301500  0.69699800  0.39412500  1
  O  O0  1  0.74595200  0.75359400  0.50798200  1
  O  O1  1  0.49540900  0.50461200  0.00851900  1
  O  O2  1  0.24608900  0.25449300  0.50781200  1
  O  O3  1  0.99592600  0.00417000  0.00852500  1
  O  O4  1  0.59959700  0.40016900  0.80116500  1
  O  O5  1  0.34908600  0.15063700  0.30192900  1
  O  O6  1  0.09965600  0.90003700  0.80112300  1
  O  O7  1  0.84951800  0.65074800  0.30157200  1
  O  O8  1  0.65220600  0.84789600  0.69535000  1
  O  O9  1  0.40182300  0.59806700  0.19606100  1
  O  O10  1  0.15242300  0.34755400  0.69524100  1
  O  O11  1  0.90200000  0.09828900  0.19606100  1
  O  O12  1  0.31137800  0.21609300  0.90357300  1
  O  O13  1  0.06194000  0.96502000  0.40386500  1
  O  O14  1  0.78486100  0.68755700  0.90354300  1
  O  O15  1  0.53451500  0.43834700  0.40376500  1
  O  O16  1  0.81170800  0.18750200  0.90349000  1
  O  O17  1  0.56211800  0.93813700  0.40395600  1
  O  O18  1  0.28498000  0.71608900  0.90343200  1
  O  O19  1  0.03405200  0.46533100  0.40395400  1
  O  O20  1  0.94867700  0.05127300  0.60241500  1
  O  O21  1  0.69831000  0.80186000  0.10349800  1
  O  O22  1  0.44846200  0.55165800  0.60250000  1
  O  O23  1  0.19795200  0.30197700  0.10345300  1
  O  O24  1  0.44896000  0.05157600  0.60241600  1
  O  O25  1  0.19822600  0.80194600  0.10352700  1
  O  O26  1  0.94879400  0.55121800  0.60255100  1
  O  O27  1  0.69788400  0.30175600  0.10343800  1
loop_
_geom_bond_atom_site_label_1
_geom_bond_atom_site_label_2
_geom_bond_distance
_geom_bond_site_symmetry_2
Nb0 O0 1.919844 1_555
Nb0 O22 1.991343 1_555
Nb0 O26 1.991709 1_555
Nb0 O20 1.993134 1_565
Nb0 O24 1.995269 1_565
Nb0 O8 2.104832 1_555
Nb1 O1 1.924849 1_555
Nb1 O25 1.992230 1_555
Nb1 O21 1.992624 1_555
Nb1 O27 1.993045 1_555
Nb1 O23 1.994079 1_555
Nb1 O9 2.103563 1_555
Nb2 O2 1.922536 1_555
Nb2 O24 1.990308 1_555
Nb2 O20 1.991936 1_455
Nb2 O22 1.993999 1_555
Nb2 O26 1.994177 1_455
Nb2 O10 2.103456 1_555
Nb3 O3 1.924657 1_555
Nb3 O23 1.992298 1_655
Nb3 O21 1.992498 1_545
Nb3 O27 1.993078 1_555
Nb3 O25 1.994119 1_645
Nb3 O11 2.103627 1_555
Co0 O13 1.892525 1_545
Co0 O15 1.892848 1_555
Co0 O5 1.987034 1_555
Co0 O19 2.108919 1_555
Co0 O17 2.110463 1_545
Co0 O2 2.435347 1_555
Co1 O16 1.890680 1_465
Co1 O18 1.891660 1_555
Co1 O6 1.989528 1_555
Co1 O14 2.109501 1_455
Co1 O12 2.109806 1_565
Co1 O3 2.465480 1_466
Co2 O14 1.890864 1_555
Co2 O12 1.892621 1_555
Co2 O4 1.989269 1_555
Co2 O16 2.109990 1_555
Co2 O18 2.110534 1_555
Co2 O1 2.464708 1_556
Co3 O17 1.891006 1_555
Co3 O19 1.892311 1_655
Co3 O7 1.988043 1_555
Co3 O13 2.107196 1_655
Co3 O15 2.107799 1_555
Co3 O0 2.445655 1_555
O0 Sr9 2.871872 1_555
O0 Sr11 2.872545 1_555
O0 Sr11 2.874567 1_565
O0 Sr9 2.875153 1_655
O1 Sr10 2.873724 1_554
O1 Sr8 2.874511 1_554
O1 Sr8 2.877545 1_544
O1 Sr10 2.878565 1_654
O2 Sr9 2.866642 1_555
O2 Sr11 2.872635 1_455
O2 Sr11 2.872885 1_555
O2 Sr9 2.879029 1_545
O3 Sr8 2.874081 1_644
O3 Sr10 2.874198 1_644
O3 Sr8 2.877906 1_544
O3 Sr10 2.878267 1_654
O4 Sr0 2.359347 1_555
O4 Sr4 2.831628 1_545
O4 Sr6 2.832655 1_655
O4 Sr6 2.834738 1_555
O4 Sr4 2.836054 1_555
O5 Sr1 2.355612 1_555
O5 Sr5 2.829663 1_545
O5 Sr7 2.832285 1_555
O5 Sr7 2.833776 1_455
O5 Sr5 2.836516 1_555
O6 Sr2 2.358703 1_555
O6 Sr6 2.830251 1_555
O6 Sr4 2.832491 1_555
O6 Sr4 2.835283 1_455
O6 Sr6 2.837477 1_565
O7 Sr3 2.355180 1_555
O7 Sr5 2.832123 1_655
O7 Sr7 2.833391 1_555
O7 Sr7 2.834599 1_565
O7 Sr5 2.835737 1_555
O8 Sr4 2.608817 1_555
O8 Sr0 2.812729 1_565
O8 Sr2 2.813584 1_555
O8 Sr2 2.816689 1_655
O8 Sr0 2.817651 1_555
O9 Sr5 2.603554 1_555
O9 Sr3 2.813851 1_455
O9 Sr1 2.813976 1_555
O9 Sr1 2.816113 1_565
O9 Sr3 2.816550 1_555
O10 Sr6 2.610449 1_555
O10 Sr2 2.813996 1_555
O10 Sr0 2.815042 1_555
O10 Sr0 2.815071 1_455
O10 Sr2 2.816257 1_545
O11 Sr7 2.603575 1_555
O11 Sr1 2.813510 1_655
O11 Sr3 2.814687 1_555
O11 Sr3 2.815840 1_545
O11 Sr1 2.816453 1_555
O12 Sr10 2.589669 1_555
O12 Sr8 2.596128 1_545
O12 Sr6 2.726132 1_555
O12 Sr4 2.731806 1_545
O13 Sr9 2.589565 1_555
O13 Sr11 2.591229 1_465
O13 Sr5 2.722687 1_555
O13 Sr7 2.728685 1_465
O14 Sr10 2.590185 1_655
O14 Sr8 2.596978 1_555
O14 Sr6 2.725775 1_655
O14 Sr4 2.730684 1_555
O15 Sr9 2.588221 1_555
O15 Sr11 2.591868 1_555
O15 Sr7 2.724190 1_555
O15 Sr5 2.725275 1_555
O16 Sr8 2.592210 1_545
O16 Sr10 2.597329 1_655
O16 Sr4 2.725036 1_545
O16 Sr6 2.730386 1_655
O17 Sr11 2.586829 1_565
O17 Sr9 2.589815 1_555
O17 Sr7 2.726524 1_565
O17 Sr5 2.727238 1_555
O18 Sr8 2.591509 1_555
O18 Sr10 2.596642 1_555
O18 Sr4 2.723141 1_555
O18 Sr6 2.729561 1_555
O19 Sr11 2.586999 1_455
O19 Sr9 2.589231 1_555
O19 Sr7 2.725300 1_455
O19 Sr5 2.729673 1_555
O20 Sr0 2.756724 1_555
O20 Sr2 2.759617 1_645
O21 Sr3 2.750867 1_555
O21 Sr1 2.756993 1_565
O22 Sr2 2.753324 1_555
O22 Sr0 2.759533 1_555
O23 Sr3 2.750026 1_455
O23 Sr1 2.756898 1_555
O24 Sr0 2.755765 1_555
O24 Sr2 2.759545 1_545
O25 Sr3 2.750068 1_455
O25 Sr1 2.754727 1_565
O26 Sr2 2.755268 1_655
O26 Sr0 2.756397 1_555
O27 Sr3 2.753306 1_555
O27 Sr1 2.755596 1_555
