# generated using pymatgen
data_MgAl2(PO5)2
_symmetry_space_group_name_H-M   'P 1'
_cell_length_a   7.49956500
_cell_length_b   7.08958500
_cell_length_c   7.15727973
_cell_angle_alpha   61.35433312
_cell_angle_beta   90.00000000
_cell_angle_gamma   90.00000000
_symmetry_Int_Tables_number   1
_chemical_formula_structural   MgAl2(PO5)2
_chemical_formula_sum   'Mg2 Al4 P4 O20'
_cell_volume   333.96585598
_cell_formula_units_Z   2
loop_
 _symmetry_equiv_pos_site_id
 _symmetry_equiv_pos_as_xyz
  1  'x, y, z'
loop_
 _atom_site_type_symbol
 _atom_site_label
 _atom_site_symmetry_multiplicity
 _atom_site_fract_x
 _atom_site_fract_y
 _atom_site_fract_z
 _atom_site_occupancy
  Mg  Mg0  1  0.50000000  0.50000000  0.00000000  1
  Mg  Mg1  1  0.00000000  0.00000000  0.00000000  1
  Al  Al0  1  0.23228800  0.22732200  0.26764000  1
  Al  Al1  1  0.73228800  0.27267800  0.73236000  1
  Al  Al2  1  0.76771200  0.77267800  0.73236000  1
  Al  Al3  1  0.26771200  0.72732200  0.26764000  1
  P  P0  1  0.38565300  0.00884200  0.74842100  1
  P  P1  1  0.88565300  0.49115800  0.25157900  1
  P  P2  1  0.61434700  0.99115800  0.25157900  1
  P  P3  1  0.11434700  0.50884200  0.74842100  1
  O  O0  1  0.50918700  0.81758000  0.78315900  1
  O  O1  1  0.00918700  0.68242000  0.21684100  1
  O  O2  1  0.49081300  0.18242000  0.21684100  1
  O  O3  1  0.99081300  0.31758000  0.78315900  1
  O  O4  1  0.49638700  0.19572400  0.73399000  1
  O  O5  1  0.99638700  0.30427600  0.26601000  1
  O  O6  1  0.50361300  0.80427600  0.26601000  1
  O  O7  1  0.00361300  0.69572400  0.73399000  1
  O  O8  1  0.24353500  0.41930300  0.94653100  1
  O  O9  1  0.74353500  0.08069700  0.05346900  1
  O  O10  1  0.75646500  0.58069700  0.05346900  1
  O  O11  1  0.25646500  0.91930300  0.94653100  1
  O  O12  1  0.23488600  0.57776100  0.55510200  1
  O  O13  1  0.73488600  0.92223900  0.44489800  1
  O  O14  1  0.76511400  0.42223900  0.44489800  1
  O  O15  1  0.26511400  0.07776100  0.55510200  1
  O  O16  1  0.32780300  0.49295800  0.22914700  1
  O  O17  1  0.82780300  0.00704200  0.77085300  1
  O  O18  1  0.67219700  0.50704200  0.77085300  1
  O  O19  1  0.17219700  0.99295800  0.22914700  1
loop_
_geom_bond_atom_site_label_1
_geom_bond_atom_site_label_2
_geom_bond_distance
_geom_bond_site_symmetry_2
Mg0 O2 2.032837 1_555
Mg0 O0 2.032837 1_554
Mg0 O18 2.069187 1_554
Mg0 O16 2.069187 1_555
Mg0 O10 2.093574 1_555
Mg0 O8 2.093574 1_554
Mg1 O1 2.032837 1_545
Mg1 O3 2.032837 1_454
Mg1 O19 2.069187 1_545
Mg1 O17 2.069187 1_454
Mg1 O9 2.093574 1_455
Mg1 O11 2.093574 1_544
Al0 O15 1.823824 1_555
Al0 O5 1.849754 1_455
Al0 O19 1.865105 1_545
Al0 O16 1.907403 1_555
Al0 O2 2.025721 1_555
Al0 O8 2.035309 1_554
Al1 O14 1.823824 1_555
Al1 O4 1.849754 1_555
Al1 O18 1.865105 1_555
Al1 O17 1.907403 1_555
Al1 O3 2.025721 1_555
Al1 O9 2.035309 1_556
Al2 O13 1.823824 1_555
Al2 O7 1.849754 1_655
Al2 O17 1.865105 1_565
Al2 O18 1.907403 1_555
Al2 O0 2.025721 1_555
Al2 O10 2.035309 1_556
Al3 O12 1.823824 1_555
Al3 O6 1.849754 1_555
Al3 O16 1.865105 1_555
Al3 O19 1.907403 1_555
Al3 O1 2.025721 1_555
Al3 O11 2.035309 1_554
O0 P0 1.560622 1_565
O1 P1 1.560622 1_455
O2 P2 1.560622 1_545
O3 P3 1.560622 1_655
O4 P0 1.524639 1_555
O5 P1 1.524639 1_555
O6 P2 1.524639 1_555
O7 P3 1.524639 1_555
O8 P3 1.577710 1_555
O9 P2 1.577710 1_545
O10 P1 1.577710 1_555
O11 P0 1.577710 1_565
O12 P3 1.523876 1_555
O13 P2 1.523876 1_555
O14 P1 1.523876 1_555
O15 P0 1.523876 1_555
