# generated using pymatgen
data_K2PdO4
_symmetry_space_group_name_H-M   'P 1'
_cell_length_a   6.92791100
_cell_length_b   5.37679400
_cell_length_c   7.29594384
_cell_angle_alpha   72.76945186
_cell_angle_beta   90.00000000
_cell_angle_gamma   90.00000000
_symmetry_Int_Tables_number   1
_chemical_formula_structural   K2PdO4
_chemical_formula_sum   'K4 Pd2 O8'
_cell_volume   259.57650215
_cell_formula_units_Z   2
loop_
 _symmetry_equiv_pos_site_id
 _symmetry_equiv_pos_as_xyz
  1  'x, y, z'
loop_
 _atom_site_type_symbol
 _atom_site_label
 _atom_site_symmetry_multiplicity
 _atom_site_fract_x
 _atom_site_fract_y
 _atom_site_fract_z
 _atom_site_occupancy
  K  K0  1  0.96855400  0.67866500  0.42119200  1
  K  K1  1  0.46855400  0.32133500  0.57880800  1
  K  K2  1  0.84775300  0.32864500  0.08804300  1
  K  K3  1  0.34775300  0.67135500  0.91195700  1
  Pd  Pd0  1  0.41945200  0.98852200  0.24085900  1
  Pd  Pd1  1  0.91945200  0.01147800  0.75914100  1
  O  O0  1  0.58787800  0.70814000  0.25839300  1
  O  O1  1  0.08787800  0.29186000  0.74160700  1
  O  O2  1  0.33943400  0.85157300  0.50341500  1
  O  O3  1  0.83943400  0.14842700  0.49658500  1
  O  O4  1  0.97933000  0.82796700  0.01583500  1
  O  O5  1  0.47933000  0.17203300  0.98416500  1
  O  O6  1  0.73759900  0.74602300  0.74746000  1
  O  O7  1  0.23759900  0.25397700  0.25254000  1
loop_
_geom_bond_atom_site_label_1
_geom_bond_atom_site_label_2
_geom_bond_distance
_geom_bond_site_symmetry_2
K0 O1 2.755616 1_655
K0 O4 2.826669 1_555
K0 O2 2.855967 1_655
K0 O0 2.877446 1_555
K0 O3 2.881281 1_555
K0 O3 2.881943 1_565
K0 O6 2.978002 1_555
K1 O0 2.755616 1_555
K1 O5 2.826669 1_555
K1 O3 2.855967 1_555
K1 O1 2.877446 1_555
K1 O2 2.881281 1_555
K1 O2 2.881943 1_545
K1 O7 2.978002 1_555
K2 O4 2.734672 1_555
K2 O3 2.848811 1_555
K2 O5 2.859427 1_554
K2 O6 2.913681 1_554
K2 O7 2.934371 1_655
K2 O4 3.032455 1_545
K2 O1 3.080809 1_654
K2 O0 3.232963 1_555
K3 O5 2.734672 1_555
K3 O2 2.848811 1_555
K3 O4 2.859427 1_456
K3 O7 2.913681 1_556
K3 O6 2.934371 1_555
K3 O5 3.032455 1_565
K3 O0 3.080809 1_556
K3 O1 3.232963 1_555
O0 Pd0 1.880519 1_555
O1 Pd1 1.880519 1_455
O2 Pd0 1.919209 1_555
O3 Pd1 1.919209 1_555
O4 Pd1 1.886363 1_564
O5 Pd0 1.886363 1_546
O6 Pd1 1.924514 1_565
O7 Pd0 1.924514 1_545
