# generated using pymatgen
data_Li3Co3SbO8
_symmetry_space_group_name_H-M   'P 1'
_cell_length_a   6.10791472
_cell_length_b   6.08845063
_cell_length_c   8.44732864
_cell_angle_alpha   89.14258802
_cell_angle_beta   90.68957467
_cell_angle_gamma   88.71057058
_symmetry_Int_Tables_number   1
_chemical_formula_structural   Li3Co3SbO8
_chemical_formula_sum   'Li6 Co6 Sb2 O16'
_cell_volume   313.99827595
_cell_formula_units_Z   2
loop_
 _symmetry_equiv_pos_site_id
 _symmetry_equiv_pos_as_xyz
  1  'x, y, z'
loop_
 _atom_site_type_symbol
 _atom_site_label
 _atom_site_symmetry_multiplicity
 _atom_site_fract_x
 _atom_site_fract_y
 _atom_site_fract_z
 _atom_site_occupancy
  Li  Li0  1  0.25000000  0.75000000  0.75000100  1
  Li  Li1  1  0.75000000  0.24999900  0.25000000  1
  Li  Li2  1  0.99908600  0.50132600  0.99646400  1
  Li  Li3  1  0.50091200  0.99867400  0.50353700  1
  Li  Li4  1  0.24999900  0.25000000  0.25000100  1
  Li  Li5  1  0.75000000  0.75000100  0.74999900  1
  Co  Co0  1  0.00758600  0.50591900  0.50713600  1
  Co  Co1  1  0.49241700  0.99408400  0.99286500  1
  Co  Co2  1  0.24999700  0.24999800  0.74999900  1
  Co  Co3  1  0.75000300  0.74999500  0.25000000  1
  Co  Co4  1  0.75000000  0.25000300  0.75000200  1
  Co  Co5  1  0.24999800  0.75000100  0.25000100  1
  Sb  Sb0  1  0.99753700  0.00062800  0.99923400  1
  Sb  Sb1  1  0.50246200  0.49937200  0.50076500  1
  O  O0  1  0.50296100  0.00728500  0.77075500  1
  O  O1  1  0.98368500  0.52186700  0.27103700  1
  O  O2  1  0.99704200  0.49271400  0.72924300  1
  O  O3  1  0.51631900  0.97813500  0.22896200  1
  O  O4  1  0.26665300  0.27525300  0.49881700  1
  O  O5  1  0.76734600  0.76941300  0.00426700  1
  O  O6  1  0.23332900  0.22475000  0.00118400  1
  O  O7  1  0.73266000  0.73058600  0.49573100  1
  O  O8  1  0.98451600  0.02479600  0.76151900  1
  O  O9  1  0.50965800  0.50671900  0.26550300  1
  O  O10  1  0.51548500  0.47520300  0.73847500  1
  O  O11  1  0.99034900  0.99327900  0.23449800  1
  O  O12  1  0.23606800  0.77082800  0.99737600  1
  O  O13  1  0.74118500  0.26442300  0.51984700  1
  O  O14  1  0.26393500  0.72917600  0.50262100  1
  O  O15  1  0.75881600  0.23557900  0.98016600  1
loop_
_geom_bond_atom_site_label_1
_geom_bond_atom_site_label_2
_geom_bond_distance
_geom_bond_site_symmetry_2
Li0 O12 2.098027 1_555
Li0 O14 2.098068 1_555
Li0 O2 2.232124 1_455
Li0 O0 2.232130 1_565
Li0 O8 2.307526 1_465
Li0 O10 2.307538 1_555
Li1 O9 2.126660 1_555
Li1 O11 2.126688 1_545
Li1 O3 2.217564 1_545
Li1 O1 2.217598 1_555
Li1 O15 2.283615 1_554
Li1 O13 2.283725 1_555
Li2 O5 2.138578 1_556
Li2 O6 2.184575 1_656
Li2 O12 2.212376 1_655
Li2 O15 2.213415 1_555
Li2 O2 2.258588 1_555
Li2 O1 2.327563 1_556
Li3 O7 2.138615 1_555
Li3 O4 2.184651 1_565
Li3 O14 2.212337 1_555
Li3 O13 2.213443 1_565
Li3 O0 2.258562 1_565
Li3 O3 2.327581 1_555
Li4 O4 2.111139 1_555
Li4 O6 2.111149 1_555
Li4 O11 2.255672 1_445
Li4 O9 2.255702 1_555
Li4 O1 2.304759 1_455
Li4 O3 2.304778 1_545
Li5 O7 2.154365 1_555
Li5 O5 2.154365 1_556
Li5 O0 2.160905 1_565
Li5 O2 2.160931 1_555
Li5 O8 2.229307 1_565
Li5 O10 2.229318 1_555
Co0 O2 1.878671 1_455
Co0 O1 1.998738 1_455
Co0 O4 2.094457 1_555
Co0 O14 2.096757 1_555
Co0 O7 2.142181 1_455
Co0 O13 2.219956 1_455
Co1 O0 1.878696 1_565
Co1 O3 1.998722 1_556
Co1 O6 2.094552 1_566
Co1 O12 2.096753 1_555
Co1 O5 2.142210 1_556
Co1 O15 2.219938 1_565
Co2 O2 2.117689 1_455
Co2 O0 2.117716 1_555
Co2 O4 2.128905 1_555
Co2 O6 2.128932 1_556
Co2 O8 2.149120 1_455
Co2 O10 2.149166 1_555
Co3 O1 1.973639 1_555
Co3 O3 1.973698 1_555
Co3 O7 2.081471 1_555
Co3 O5 2.081491 1_555
Co3 O9 2.112523 1_555
Co3 O11 2.112561 1_555
Co4 O13 1.944906 1_555
Co4 O15 1.944983 1_555
Co4 O10 1.960987 1_555
Co4 O8 1.961017 1_555
Co4 O2 2.142482 1_555
Co4 O0 2.142494 1_555
Co5 O14 2.136392 1_555
Co5 O12 2.136433 1_554
Co5 O11 2.147012 1_455
Co5 O9 2.147077 1_555
Co5 O1 2.169789 1_455
Co5 O3 2.169829 1_555
O4 Sb1 2.006304 1_555
O5 Sb0 2.012230 1_564
O6 Sb0 2.006240 1_454
O7 Sb1 2.012256 1_555
O8 Sb0 2.011729 1_555
O9 Sb1 1.988207 1_555
O10 Sb1 2.011688 1_555
O11 Sb0 1.988222 1_564
O12 Sb0 1.997474 1_465
O13 Sb1 2.022836 1_555
O14 Sb1 1.997473 1_555
O15 Sb0 2.022829 1_555
