# generated using pymatgen
data_Mg2Zn
_symmetry_space_group_name_H-M   'P 1'
_cell_length_a   11.58742909
_cell_length_b   11.58742909
_cell_length_c   14.35977954
_cell_angle_alpha   74.19007244
_cell_angle_beta   74.19007244
_cell_angle_gamma   31.13742057
_symmetry_Int_Tables_number   1
_chemical_formula_structural   Mg2Zn
_chemical_formula_sum   'Mg32 Zn16'
_cell_volume   956.28329348
_cell_formula_units_Z   16
loop_
 _symmetry_equiv_pos_site_id
 _symmetry_equiv_pos_as_xyz
  1  'x, y, z'
loop_
 _atom_site_type_symbol
 _atom_site_label
 _atom_site_symmetry_multiplicity
 _atom_site_fract_x
 _atom_site_fract_y
 _atom_site_fract_z
 _atom_site_occupancy
  Mg  Mg0_0  1  0.07135300  0.07135300  0.48183350  1
  Mg  Mg0_1  1  0.07135300  0.07135300  0.98183350  1
  Mg  Mg0_2  1  0.07135300  0.57135300  0.48183350  1
  Mg  Mg0_3  1  0.07135300  0.57135300  0.98183350  1
  Mg  Mg0_4  1  0.57135300  0.07135300  0.48183350  1
  Mg  Mg0_5  1  0.57135300  0.07135300  0.98183350  1
  Mg  Mg0_6  1  0.57135300  0.57135300  0.48183350  1
  Mg  Mg0_7  1  0.57135300  0.57135300  0.98183350  1
  Mg  Mg1_0  1  0.26509050  0.26509050  0.34196750  1
  Mg  Mg1_1  1  0.26509050  0.26509050  0.84196750  1
  Mg  Mg1_2  1  0.26509050  0.76509050  0.34196750  1
  Mg  Mg1_3  1  0.26509050  0.76509050  0.84196750  1
  Mg  Mg1_4  1  0.76509050  0.26509050  0.34196750  1
  Mg  Mg1_5  1  0.76509050  0.26509050  0.84196750  1
  Mg  Mg1_6  1  0.76509050  0.76509050  0.34196750  1
  Mg  Mg1_7  1  0.76509050  0.76509050  0.84196750  1
  Mg  Mg2_0  1  0.23490950  0.23490950  0.15803250  1
  Mg  Mg2_1  1  0.23490950  0.23490950  0.65803250  1
  Mg  Mg2_2  1  0.23490950  0.73490950  0.15803250  1
  Mg  Mg2_3  1  0.23490950  0.73490950  0.65803250  1
  Mg  Mg2_4  1  0.73490950  0.23490950  0.15803250  1
  Mg  Mg2_5  1  0.73490950  0.23490950  0.65803250  1
  Mg  Mg2_6  1  0.73490950  0.73490950  0.15803250  1
  Mg  Mg2_7  1  0.73490950  0.73490950  0.65803250  1
  Mg  Mg3_0  1  0.42864700  0.42864700  0.01816650  1
  Mg  Mg3_1  1  0.42864700  0.42864700  0.51816650  1
  Mg  Mg3_2  1  0.42864700  0.92864700  0.01816650  1
  Mg  Mg3_3  1  0.42864700  0.92864700  0.51816650  1
  Mg  Mg3_4  1  0.92864700  0.42864700  0.01816650  1
  Mg  Mg3_5  1  0.92864700  0.42864700  0.51816650  1
  Mg  Mg3_6  1  0.92864700  0.92864700  0.01816650  1
  Mg  Mg3_7  1  0.92864700  0.92864700  0.51816650  1
  Zn  Zn0_0  1  0.40172650  0.40172650  0.31916000  1
  Zn  Zn0_1  1  0.40172650  0.40172650  0.81916000  1
  Zn  Zn0_2  1  0.40172650  0.90172650  0.31916000  1
  Zn  Zn0_3  1  0.40172650  0.90172650  0.81916000  1
  Zn  Zn0_4  1  0.90172650  0.40172650  0.31916000  1
  Zn  Zn0_5  1  0.90172650  0.40172650  0.81916000  1
  Zn  Zn0_6  1  0.90172650  0.90172650  0.31916000  1
  Zn  Zn0_7  1  0.90172650  0.90172650  0.81916000  1
  Zn  Zn1_0  1  0.09827350  0.09827350  0.18084000  1
  Zn  Zn1_1  1  0.09827350  0.09827350  0.68084000  1
  Zn  Zn1_2  1  0.09827350  0.59827350  0.18084000  1
  Zn  Zn1_3  1  0.09827350  0.59827350  0.68084000  1
  Zn  Zn1_4  1  0.59827350  0.09827350  0.18084000  1
  Zn  Zn1_5  1  0.59827350  0.09827350  0.68084000  1
  Zn  Zn1_6  1  0.59827350  0.59827350  0.18084000  1
  Zn  Zn1_7  1  0.59827350  0.59827350  0.68084000  1
loop_
_geom_bond_atom_site_label_1
_geom_bond_atom_site_label_2
_geom_bond_distance
_geom_bond_site_symmetry_2
Mg0_0 Zn0_2 2.953534 1_545
Mg0_0 Zn0_4 2.953534 1_455
Mg0_0 Mg3_5 3.022339 1_455
Mg0_0 Mg3_3 3.022339 1_545
Mg0_0 Mg1_4 3.075132 1_455
Mg0_0 Mg1_2 3.075132 1_545
Mg0_0 Mg3_7 3.079226 1_445
Mg0_0 Zn1_1 3.082051 1_555
Mg0_0 Mg0_6 3.109994 1_545
Mg0_0 Mg0_6 3.109994 1_455
Mg0_0 Mg2_3 3.127630 1_545
Mg0_0 Mg2_5 3.127630 1_455
Mg0_1 Zn0_3 2.953534 1_545
Mg0_1 Zn0_5 2.953534 1_455
Mg0_1 Mg3_4 3.022339 1_456
Mg0_1 Mg3_2 3.022339 1_546
Mg0_1 Mg1_5 3.075132 1_455
Mg0_1 Mg1_3 3.075132 1_545
Mg0_1 Mg3_6 3.079226 1_446
Mg0_1 Zn1_0 3.082051 1_556
Mg0_1 Mg0_7 3.109994 1_455
Mg0_1 Mg0_7 3.109994 1_545
Mg0_1 Mg2_4 3.127630 1_456
Mg0_1 Mg2_2 3.127630 1_546
Mg0_2 Zn0_6 2.953534 1_455
Mg0_2 Zn0_0 2.953534 1_555
Mg0_2 Mg3_1 3.022339 1_555
Mg0_2 Mg3_7 3.022339 1_455
Mg0_2 Mg1_6 3.075132 1_455
Mg0_2 Mg1_0 3.075132 1_555
Mg0_2 Mg3_5 3.079226 1_455
Mg0_2 Zn1_3 3.082051 1_555
Mg0_2 Mg0_4 3.109994 1_465
Mg0_2 Mg0_4 3.109994 1_555
Mg0_2 Mg2_7 3.127630 1_455
Mg0_2 Mg2_1 3.127630 1_555
Mg0_3 Zn0_7 2.953534 1_455
Mg0_3 Zn0_1 2.953534 1_555
Mg0_3 Mg3_6 3.022339 1_456
Mg0_3 Mg3_0 3.022339 1_556
Mg0_3 Mg1_7 3.075132 1_455
Mg0_3 Mg1_1 3.075132 1_555
Mg0_3 Mg3_4 3.079226 1_456
Mg0_3 Zn1_2 3.082051 1_556
Mg0_3 Mg0_5 3.109994 1_465
Mg0_3 Mg0_5 3.109994 1_555
Mg0_3 Mg2_6 3.127630 1_456
Mg0_3 Mg2_0 3.127630 1_556
Mg0_4 Zn0_6 2.953534 1_545
Mg0_4 Zn0_0 2.953534 1_555
Mg0_4 Mg3_1 3.022339 1_555
Mg0_4 Mg3_7 3.022339 1_545
Mg0_4 Mg1_6 3.075132 1_545
Mg0_4 Mg1_0 3.075132 1_555
Mg0_4 Mg3_3 3.079226 1_545
Mg0_4 Zn1_5 3.082051 1_555
Mg0_4 Mg2_7 3.127630 1_545
Mg0_4 Mg2_1 3.127630 1_555
Mg0_5 Zn0_7 2.953534 1_545
Mg0_5 Zn0_1 2.953534 1_555
Mg0_5 Mg3_6 3.022339 1_546
Mg0_5 Mg3_0 3.022339 1_556
Mg0_5 Mg1_7 3.075132 1_545
Mg0_5 Mg1_1 3.075132 1_555
Mg0_5 Mg3_2 3.079226 1_546
Mg0_5 Zn1_4 3.082051 1_556
Mg0_5 Mg2_6 3.127630 1_546
Mg0_5 Mg2_0 3.127630 1_556
Mg0_6 Zn0_4 2.953534 1_555
Mg0_6 Zn0_2 2.953534 1_555
Mg0_6 Mg3_3 3.022339 1_555
Mg0_6 Mg3_5 3.022339 1_555
Mg0_6 Mg1_2 3.075132 1_555
Mg0_6 Mg1_4 3.075132 1_555
Mg0_6 Mg3_1 3.079226 1_555
Mg0_6 Zn1_7 3.082051 1_555
Mg0_6 Mg2_3 3.127630 1_555
Mg0_6 Mg2_5 3.127630 1_555
Mg0_7 Zn0_3 2.953534 1_555
Mg0_7 Zn0_5 2.953534 1_555
Mg0_7 Mg3_2 3.022339 1_556
Mg0_7 Mg3_4 3.022339 1_556
Mg0_7 Mg1_5 3.075132 1_555
Mg0_7 Mg1_3 3.075132 1_555
Mg0_7 Mg3_0 3.079226 1_556
Mg0_7 Zn1_6 3.082051 1_556
Mg0_7 Mg2_2 3.127630 1_556
Mg0_7 Mg2_4 3.127630 1_556
Mg1_0 Mg2_0 2.904635 1_555
Mg1_0 Zn1_2 2.964726 1_555
Mg1_0 Zn1_4 2.964726 1_555
Mg1_0 Zn0_0 2.974346 1_555
Mg1_0 Zn0_4 3.065792 1_455
Mg1_0 Zn0_2 3.065792 1_545
Mg1_0 Mg1_6 3.109994 1_455
Mg1_0 Mg1_6 3.109994 1_545
Mg1_0 Mg3_5 3.127630 1_455
Mg1_0 Mg3_3 3.127630 1_545
Mg1_1 Mg2_1 2.904635 1_555
Mg1_1 Zn1_5 2.964726 1_555
Mg1_1 Zn1_3 2.964726 1_555
Mg1_1 Zn0_1 2.974346 1_555
Mg1_1 Zn0_3 3.065792 1_545
Mg1_1 Zn0_5 3.065792 1_455
Mg1_1 Mg1_7 3.109994 1_455
Mg1_1 Mg1_7 3.109994 1_545
Mg1_1 Mg3_4 3.127630 1_456
Mg1_1 Mg3_2 3.127630 1_546
Mg1_2 Mg2_2 2.904635 1_555
Mg1_2 Zn1_0 2.964726 1_565
Mg1_2 Zn1_6 2.964726 1_555
Mg1_2 Zn0_2 2.974346 1_555
Mg1_2 Zn0_0 3.065792 1_555
Mg1_2 Zn0_6 3.065792 1_455
Mg1_2 Mg1_4 3.109994 1_555
Mg1_2 Mg1_4 3.109994 1_465
Mg1_2 Mg3_7 3.127630 1_455
Mg1_2 Mg3_1 3.127630 1_555
Mg1_3 Mg2_3 2.904635 1_555
Mg1_3 Zn1_1 2.964726 1_565
Mg1_3 Zn1_7 2.964726 1_555
Mg1_3 Zn0_3 2.974346 1_555
Mg1_3 Zn0_7 3.065792 1_455
Mg1_3 Zn0_1 3.065792 1_555
Mg1_3 Mg1_5 3.109994 1_465
Mg1_3 Mg1_5 3.109994 1_555
Mg1_3 Mg3_0 3.127630 1_556
Mg1_3 Mg3_6 3.127630 1_456
Mg1_4 Mg2_4 2.904635 1_555
Mg1_4 Zn1_0 2.964726 1_655
Mg1_4 Zn1_6 2.964726 1_555
Mg1_4 Zn0_4 2.974346 1_555
Mg1_4 Zn0_0 3.065792 1_555
Mg1_4 Zn0_6 3.065792 1_545
Mg1_4 Mg3_7 3.127630 1_545
Mg1_4 Mg3_1 3.127630 1_555
Mg1_5 Mg2_5 2.904635 1_555
Mg1_5 Zn1_1 2.964726 1_655
Mg1_5 Zn1_7 2.964726 1_555
Mg1_5 Zn0_5 2.974346 1_555
Mg1_5 Zn0_7 3.065792 1_545
Mg1_5 Zn0_1 3.065792 1_555
Mg1_5 Mg3_0 3.127630 1_556
Mg1_5 Mg3_6 3.127630 1_546
Mg1_6 Mg2_6 2.904635 1_555
Mg1_6 Zn1_2 2.964726 1_655
Mg1_6 Zn1_4 2.964726 1_565
Mg1_6 Zn0_6 2.974346 1_555
Mg1_6 Zn0_4 3.065792 1_555
Mg1_6 Zn0_2 3.065792 1_555
Mg1_6 Mg3_3 3.127630 1_555
Mg1_6 Mg3_5 3.127630 1_555
Mg1_7 Mg2_7 2.904635 1_555
Mg1_7 Zn1_5 2.964726 1_565
Mg1_7 Zn1_3 2.964726 1_655
Mg1_7 Zn0_7 2.974346 1_555
Mg1_7 Zn0_5 3.065792 1_555
Mg1_7 Zn0_3 3.065792 1_555
Mg1_7 Mg3_4 3.127630 1_556
Mg1_7 Mg3_2 3.127630 1_556
Mg2_0 Zn0_2 2.964726 1_545
Mg2_0 Zn0_4 2.964726 1_455
Mg2_0 Zn1_0 2.974346 1_555
Mg2_0 Zn1_2 3.065792 1_555
Mg2_0 Zn1_4 3.065792 1_555
Mg2_0 Mg3_2 3.075132 1_545
Mg2_0 Mg3_4 3.075132 1_455
Mg2_0 Mg2_6 3.109994 1_455
Mg2_0 Mg2_6 3.109994 1_545
Mg2_1 Zn0_3 2.964726 1_545
Mg2_1 Zn0_5 2.964726 1_455
Mg2_1 Zn1_1 2.974346 1_555
Mg2_1 Zn1_5 3.065792 1_555
Mg2_1 Zn1_3 3.065792 1_555
Mg2_1 Mg3_5 3.075132 1_455
Mg2_1 Mg3_3 3.075132 1_545
Mg2_1 Mg2_7 3.109994 1_455
Mg2_1 Mg2_7 3.109994 1_545
Mg2_2 Zn0_0 2.964726 1_555
Mg2_2 Zn0_6 2.964726 1_455
Mg2_2 Zn1_2 2.974346 1_555
Mg2_2 Zn1_0 3.065792 1_565
Mg2_2 Zn1_6 3.065792 1_555
Mg2_2 Mg3_0 3.075132 1_555
Mg2_2 Mg3_6 3.075132 1_455
Mg2_2 Mg2_4 3.109994 1_465
Mg2_2 Mg2_4 3.109994 1_555
Mg2_3 Zn0_7 2.964726 1_455
Mg2_3 Zn0_1 2.964726 1_555
Mg2_3 Zn1_3 2.974346 1_555
Mg2_3 Zn1_1 3.065792 1_565
Mg2_3 Zn1_7 3.065792 1_555
Mg2_3 Mg3_7 3.075132 1_455
Mg2_3 Mg3_1 3.075132 1_555
Mg2_3 Mg2_5 3.109994 1_465
Mg2_3 Mg2_5 3.109994 1_555
Mg2_4 Zn0_0 2.964726 1_555
Mg2_4 Zn0_6 2.964726 1_545
Mg2_4 Zn1_4 2.974346 1_555
Mg2_4 Zn1_0 3.065792 1_655
Mg2_4 Zn1_6 3.065792 1_555
Mg2_4 Mg3_6 3.075132 1_545
Mg2_4 Mg3_0 3.075132 1_555
Mg2_5 Zn0_7 2.964726 1_545
Mg2_5 Zn0_1 2.964726 1_555
Mg2_5 Zn1_5 2.974346 1_555
Mg2_5 Zn1_1 3.065792 1_655
Mg2_5 Zn1_7 3.065792 1_555
Mg2_5 Mg3_7 3.075132 1_545
Mg2_5 Mg3_1 3.075132 1_555
Mg2_6 Zn0_4 2.964726 1_555
Mg2_6 Zn0_2 2.964726 1_555
Mg2_6 Zn1_6 2.974346 1_555
Mg2_6 Zn1_2 3.065792 1_655
Mg2_6 Zn1_4 3.065792 1_565
Mg2_6 Mg3_2 3.075132 1_555
Mg2_6 Mg3_4 3.075132 1_555
Mg2_7 Zn0_3 2.964726 1_555
Mg2_7 Zn0_5 2.964726 1_555
Mg2_7 Zn1_7 2.974346 1_555
Mg2_7 Zn1_5 3.065792 1_565
Mg2_7 Zn1_3 3.065792 1_655
Mg2_7 Mg3_5 3.075132 1_555
Mg2_7 Mg3_3 3.075132 1_555
Mg3_0 Zn1_4 2.953534 1_555
Mg3_0 Zn1_2 2.953534 1_555
Mg3_0 Zn0_1 3.082051 1_554
Mg3_0 Mg3_6 3.109994 1_545
Mg3_0 Mg3_6 3.109994 1_455
Mg3_1 Zn1_3 2.953534 1_555
Mg3_1 Zn1_5 2.953534 1_555
Mg3_1 Zn0_0 3.082051 1_555
Mg3_1 Mg3_7 3.109994 1_455
Mg3_1 Mg3_7 3.109994 1_545
Mg3_2 Zn1_0 2.953534 1_565
Mg3_2 Zn1_6 2.953534 1_555
Mg3_2 Zn0_3 3.082051 1_554
Mg3_2 Mg3_4 3.109994 1_465
Mg3_2 Mg3_4 3.109994 1_555
Mg3_3 Zn1_7 2.953534 1_555
Mg3_3 Zn1_1 2.953534 1_565
Mg3_3 Zn0_2 3.082051 1_555
Mg3_3 Mg3_5 3.109994 1_465
Mg3_3 Mg3_5 3.109994 1_555
Mg3_4 Zn1_6 2.953534 1_555
Mg3_4 Zn1_0 2.953534 1_655
Mg3_4 Zn0_5 3.082051 1_554
Mg3_5 Zn1_7 2.953534 1_555
Mg3_5 Zn1_1 2.953534 1_655
Mg3_5 Zn0_4 3.082051 1_555
Mg3_6 Zn1_2 2.953534 1_655
Mg3_6 Zn1_4 2.953534 1_565
Mg3_6 Zn0_7 3.082051 1_554
Mg3_7 Zn1_3 2.953534 1_655
Mg3_7 Zn1_5 2.953534 1_565
Mg3_7 Zn0_6 3.082051 1_555
Zn0_0 Zn1_4 3.021240 1_555
Zn0_0 Zn1_2 3.021240 1_555
Zn0_0 Zn0_6 3.109994 1_545
Zn0_0 Zn0_6 3.109994 1_455
Zn0_1 Zn1_3 3.021240 1_555
Zn0_1 Zn1_5 3.021240 1_555
Zn0_1 Zn0_7 3.109994 1_455
Zn0_1 Zn0_7 3.109994 1_545
Zn0_2 Zn1_6 3.021240 1_555
Zn0_2 Zn1_0 3.021240 1_565
Zn0_2 Zn0_4 3.109994 1_555
Zn0_2 Zn0_4 3.109994 1_465
Zn0_3 Zn1_7 3.021240 1_555
Zn0_3 Zn1_1 3.021240 1_565
Zn0_3 Zn0_5 3.109994 1_465
Zn0_3 Zn0_5 3.109994 1_555
Zn0_4 Zn1_6 3.021240 1_555
Zn0_4 Zn1_0 3.021240 1_655
Zn0_5 Zn1_7 3.021240 1_555
Zn0_5 Zn1_1 3.021240 1_655
Zn0_6 Zn1_2 3.021240 1_655
Zn0_6 Zn1_4 3.021240 1_565
Zn0_7 Zn1_5 3.021240 1_565
Zn0_7 Zn1_3 3.021240 1_655
Zn1_0 Zn1_6 3.109994 1_545
Zn1_0 Zn1_6 3.109994 1_455
Zn1_1 Zn1_7 3.109994 1_545
Zn1_1 Zn1_7 3.109994 1_455
Zn1_2 Zn1_4 3.109994 1_465
Zn1_2 Zn1_4 3.109994 1_555
Zn1_3 Zn1_5 3.109994 1_465
Zn1_3 Zn1_5 3.109994 1_555
