# generated using pymatgen
data_Li2Zr4As3(PO8)3
_symmetry_space_group_name_H-M   'P 1'
_cell_length_a   9.12587201
_cell_length_b   9.12587200
_cell_length_c   9.20353041
_cell_angle_alpha   60.27873295
_cell_angle_beta   119.72127121
_cell_angle_gamma   119.99999995
_symmetry_Int_Tables_number   1
_chemical_formula_structural   Li2Zr4As3(PO8)3
_chemical_formula_sum   'Li2 Zr4 As3 P3 O24'
_cell_volume   544.25834931
_cell_formula_units_Z   1
loop_
 _symmetry_equiv_pos_site_id
 _symmetry_equiv_pos_as_xyz
  1  'x, y, z'
loop_
 _atom_site_type_symbol
 _atom_site_label
 _atom_site_symmetry_multiplicity
 _atom_site_fract_x
 _atom_site_fract_y
 _atom_site_fract_z
 _atom_site_occupancy
  Li  Li0  1  0.51245700  0.48754300  0.53737200  1
  Li  Li1  1  0.98754300  0.01245700  0.96262800  1
  Zr  Zr0  1  0.36303000  0.63697000  0.08909100  1
  Zr  Zr1  1  0.85285600  0.14714400  0.55856900  1
  Zr  Zr2  1  0.64714400  0.35285600  0.94143100  1
  Zr  Zr3  1  0.13697000  0.86303000  0.41090900  1
  As  As0  1  0.25000000  0.04267000  0.75000000  1
  As  As1  1  0.54267000  0.75000000  0.75000000  1
  As  As2  1  0.95733000  0.45733000  0.75000000  1
  P  P0  1  0.45646700  0.25000000  0.25000000  1
  P  P1  1  0.04353300  0.54353300  0.25000000  1
  P  P2  1  0.75000000  0.95646700  0.25000000  1
  O  O0  1  0.59388700  0.77552200  0.26134800  1
  O  O1  1  0.44298300  0.40611300  0.26134800  1
  O  O2  1  0.22447800  0.55701700  0.26134800  1
  O  O3  1  0.74252300  0.92165600  0.75618800  1
  O  O4  1  0.93532200  0.25747700  0.75618800  1
  O  O5  1  0.07834400  0.06467800  0.75618800  1
  O  O6  1  0.42165600  0.24252300  0.74381200  1
  O  O7  1  0.56467800  0.57834400  0.74381200  1
  O  O8  1  0.75747700  0.43532200  0.74381200  1
  O  O9  1  0.27552200  0.09388700  0.23865200  1
  O  O10  1  0.05701700  0.72447800  0.23865200  1
  O  O11  1  0.90611300  0.94298300  0.23865200  1
  O  O12  1  0.30951400  0.87450900  0.93646700  1
  O  O13  1  0.50146300  0.69048600  0.93646700  1
  O  O14  1  0.12549100  0.49853700  0.93646700  1
  O  O15  1  0.60922600  0.18988700  0.41606500  1
  O  O16  1  0.99672500  0.39077400  0.41606500  1
  O  O17  1  0.81011300  0.00327500  0.41606500  1
  O  O18  1  0.68988700  0.10922600  0.08393500  1
  O  O19  1  0.50327500  0.31011300  0.08393500  1
  O  O20  1  0.89077400  0.49672500  0.08393500  1
  O  O21  1  0.37450900  0.80951400  0.56353300  1
  O  O22  1  0.99853700  0.62549100  0.56353300  1
  O  O23  1  0.19048600  0.00146300  0.56353300  1
loop_
_geom_bond_atom_site_label_1
_geom_bond_atom_site_label_2
_geom_bond_distance
_geom_bond_site_symmetry_2
Li0 O8 2.189077 1_555
Li0 O7 2.189077 1_555
Li0 O6 2.189077 1_555
Li1 O3 2.189077 1_545
Li1 O4 2.189077 1_555
Li1 O5 2.189077 1_655
As0 O23 1.700895 1_555
As0 O12 1.700900 1_545
As0 O5 1.706447 1_555
As0 O6 1.706453 1_555
As1 O13 1.700895 1_555
As1 O21 1.700900 1_555
As1 O7 1.706447 1_555
As1 O3 1.706453 1_555
As2 O14 1.700897 1_655
As2 O22 1.700898 1_555
As2 O8 1.706456 1_555
As2 O4 1.706456 1_555
O0 P2 1.546389 1_555
O0 Zr0 2.136026 1_555
O1 P0 1.546389 1_555
O1 Zr0 2.136031 1_555
O2 P1 1.546389 1_555
O2 Zr0 2.136024 1_555
O3 Zr1 2.142217 1_565
O4 Zr1 2.142212 1_555
O5 Zr1 2.142225 1_455
O6 Zr2 2.142217 1_555
O7 Zr2 2.142225 1_555
O8 Zr2 2.142212 1_555
O9 P0 1.546389 1_555
O9 Zr3 2.136027 1_545
O10 P1 1.546389 1_555
O10 Zr3 2.136024 1_555
O11 P2 1.546389 1_555
O11 Zr3 2.136031 1_655
O12 Zr0 2.066383 1_556
O13 Zr0 2.066398 1_556
O14 Zr0 2.066390 1_556
O15 P0 1.549519 1_555
O15 Zr1 2.069807 1_555
O16 P1 1.549522 1_655
O16 Zr1 2.069807 1_555
O17 P2 1.549524 1_545
O17 Zr1 2.069807 1_555
O18 P2 1.549519 1_545
O18 Zr2 2.069807 1_554
O19 P0 1.549525 1_555
O19 Zr2 2.069807 1_554
O20 P1 1.549522 1_655
O20 Zr2 2.069807 1_554
O21 Zr3 2.066383 1_555
O22 Zr3 2.066391 1_655
O23 Zr3 2.066398 1_545
