# generated using pymatgen
data_HoZnSn2
_symmetry_space_group_name_H-M   'P 1'
_cell_length_a   4.36190900
_cell_length_b   4.36190900
_cell_length_c   9.84241700
_cell_angle_alpha   90.00000000
_cell_angle_beta   90.00000000
_cell_angle_gamma   90.00000000
_symmetry_Int_Tables_number   1
_chemical_formula_structural   HoZnSn2
_chemical_formula_sum   'Ho2 Zn2 Sn4'
_cell_volume   187.26428767
_cell_formula_units_Z   2
loop_
 _symmetry_equiv_pos_site_id
 _symmetry_equiv_pos_as_xyz
  1  'x, y, z'
loop_
 _atom_site_type_symbol
 _atom_site_label
 _atom_site_symmetry_multiplicity
 _atom_site_fract_x
 _atom_site_fract_y
 _atom_site_fract_z
 _atom_site_occupancy
  Ho  Ho0  1  0.00000000  0.50000000  0.74990300  1
  Ho  Ho1  1  0.50000000  0.00000000  0.25009700  1
  Zn  Zn0  1  0.00000000  0.00000000  0.50000000  1
  Zn  Zn1  1  0.50000000  0.50000000  0.50000000  1
  Sn  Sn0  1  0.00000000  0.00000000  0.00000000  1
  Sn  Sn1  1  0.50000000  0.50000000  0.00000000  1
  Sn  Sn2  1  0.00000000  0.50000000  0.31134900  1
  Sn  Sn3  1  0.50000000  0.00000000  0.68865100  1
loop_
_geom_bond_atom_site_label_1
_geom_bond_atom_site_label_2
_geom_bond_distance
_geom_bond_site_symmetry_2
Ho0 Sn3 3.142702 1_465
Ho0 Sn3 3.142702 1_455
Ho0 Sn3 3.142702 1_565
Ho0 Sn3 3.142702 1_555
Ho0 Zn0 3.287315 1_565
Ho0 Zn0 3.287315 1_555
Ho0 Zn1 3.287315 1_455
Ho0 Zn1 3.287315 1_555
Ho0 Sn1 3.288744 1_456
Ho0 Sn1 3.288744 1_556
Ho0 Sn0 3.288744 1_556
Ho0 Sn0 3.288744 1_566
Ho1 Sn2 3.142702 1_645
Ho1 Sn2 3.142702 1_555
Ho1 Sn2 3.142702 1_545
Ho1 Sn2 3.142702 1_655
Ho1 Zn1 3.287315 1_545
Ho1 Zn1 3.287315 1_555
Ho1 Zn0 3.287315 1_555
Ho1 Zn0 3.287315 1_655
Ho1 Sn1 3.288744 1_555
Ho1 Sn1 3.288744 1_545
Ho1 Sn0 3.288744 1_555
Ho1 Sn0 3.288744 1_655
Zn0 Zn1 3.084335 1_555
Zn0 Zn1 3.084335 1_545
Zn0 Zn1 3.084335 1_445
Zn0 Zn1 3.084335 1_455
Sn0 Sn1 3.084335 1_545
Sn0 Sn1 3.084335 1_445
Sn0 Sn1 3.084335 1_555
Sn0 Sn1 3.084335 1_455
Sn2 Zn0 2.864298 1_555
Sn2 Zn1 2.864298 1_455
Sn2 Zn1 2.864298 1_555
Sn2 Zn0 2.864298 1_565
Sn3 Zn0 2.864298 1_655
Sn3 Zn0 2.864298 1_555
Sn3 Zn1 2.864298 1_555
Sn3 Zn1 2.864298 1_545
