# generated using pymatgen
data_BaCaP2O7
_symmetry_space_group_name_H-M   'P 1'
_cell_length_a   10.62564362
_cell_length_b   9.55034304
_cell_length_c   12.07753720
_cell_angle_alpha   85.26558040
_cell_angle_beta   90.00000000
_cell_angle_gamma   90.00000000
_symmetry_Int_Tables_number   1
_chemical_formula_structural   BaCaP2O7
_chemical_formula_sum   'Ba8 Ca8 P16 O56'
_cell_volume   1221.42905749
_cell_formula_units_Z   8
loop_
 _symmetry_equiv_pos_site_id
 _symmetry_equiv_pos_as_xyz
  1  'x, y, z'
loop_
 _atom_site_type_symbol
 _atom_site_label
 _atom_site_symmetry_multiplicity
 _atom_site_fract_x
 _atom_site_fract_y
 _atom_site_fract_z
 _atom_site_occupancy
  Ba  Ba0  1  0.80802679  0.59256426  0.34292644  1
  Ba  Ba1  1  0.30802679  0.90743574  0.65707356  1
  Ba  Ba2  1  0.19197321  0.40743574  0.65707356  1
  Ba  Ba3  1  0.69197321  0.09256426  0.34292644  1
  Ba  Ba4  1  0.51262156  0.77453597  0.08417551  1
  Ba  Ba5  1  0.01262156  0.72546403  0.91582449  1
  Ba  Ba6  1  0.48737844  0.22546403  0.91582449  1
  Ba  Ba7  1  0.98737844  0.27453597  0.08417551  1
  Ca  Ca0  1  0.15341342  0.67195393  0.21732360  1
  Ca  Ca1  1  0.65341342  0.82804607  0.78267640  1
  Ca  Ca2  1  0.84658658  0.32804607  0.78267640  1
  Ca  Ca3  1  0.34658658  0.17195393  0.21732360  1
  Ca  Ca4  1  0.57679951  0.48981706  0.65168356  1
  Ca  Ca5  1  0.07679951  0.01018294  0.34831644  1
  Ca  Ca6  1  0.42320049  0.51018294  0.34831644  1
  Ca  Ca7  1  0.92320049  0.98981706  0.65168356  1
  P  P0  1  0.09203562  0.74386524  0.50235353  1
  P  P1  1  0.59203562  0.75613476  0.49764647  1
  P  P2  1  0.90796438  0.25613476  0.49764647  1
  P  P3  1  0.40796438  0.24386524  0.50235353  1
  P  P4  1  0.89491144  0.61694967  0.65597880  1
  P  P5  1  0.39491144  0.88305033  0.34402120  1
  P  P6  1  0.10508856  0.38305033  0.34402120  1
  P  P7  1  0.60508856  0.11694967  0.65597880  1
  P  P8  1  0.86192695  0.88705435  0.15835364  1
  P  P9  1  0.36192695  0.61294565  0.84164636  1
  P  P10  1  0.13807305  0.11294565  0.84164636  1
  P  P11  1  0.63807305  0.38705435  0.15835364  1
  P  P12  1  0.77168765  0.02880393  0.93895777  1
  P  P13  1  0.27168765  0.47119607  0.06104223  1
  P  P14  1  0.22831235  0.97119607  0.06104223  1
  P  P15  1  0.72831235  0.52880393  0.93895777  1
  O  O0  1  0.20801174  0.67260376  0.54997147  1
  O  O1  1  0.70801174  0.82739624  0.45002853  1
  O  O2  1  0.79198826  0.32739624  0.45002853  1
  O  O3  1  0.29198826  0.17260376  0.54997147  1
  O  O4  1  0.07428829  0.75705465  0.37700468  1
  O  O5  1  0.57428829  0.74294535  0.62299532  1
  O  O6  1  0.92571171  0.24294535  0.62299532  1
  O  O7  1  0.42571171  0.25705465  0.37700468  1
  O  O8  1  0.07459993  0.88807467  0.54567121  1
  O  O9  1  0.57459993  0.61192533  0.45432879  1
  O  O10  1  0.92540007  0.11192533  0.45432879  1
  O  O11  1  0.42540007  0.38807467  0.54567121  1
  O  O12  1  0.97050027  0.64961570  0.54065103  1
  O  O13  1  0.47050027  0.85038430  0.45934897  1
  O  O14  1  0.02949973  0.35038430  0.45934897  1
  O  O15  1  0.52949973  0.14961570  0.54065103  1
  O  O16  1  0.78608130  0.53157439  0.62012460  1
  O  O17  1  0.28608130  0.96842561  0.37987540  1
  O  O18  1  0.21391870  0.46842561  0.37987540  1
  O  O19  1  0.71391870  0.03157439  0.62012460  1
  O  O20  1  0.86211128  0.75549782  0.70284837  1
  O  O21  1  0.36211128  0.74450218  0.29715163  1
  O  O22  1  0.13788872  0.24450218  0.29715163  1
  O  O23  1  0.63788872  0.25549782  0.70284837  1
  O  O24  1  0.98118136  0.53081941  0.73549951  1
  O  O25  1  0.48118136  0.96918059  0.26450049  1
  O  O26  1  0.01881864  0.46918059  0.26450049  1
  O  O27  1  0.51881864  0.03081941  0.73549951  1
  O  O28  1  0.90287189  0.00931222  0.22430762  1
  O  O29  1  0.40287189  0.49068778  0.77569238  1
  O  O30  1  0.09712811  0.99068778  0.77569238  1
  O  O31  1  0.59712811  0.50931222  0.22430762  1
  O  O32  1  0.73073685  0.83839042  0.19031992  1
  O  O33  1  0.23073685  0.66160958  0.80968008  1
  O  O34  1  0.26926315  0.16160958  0.80968008  1
  O  O35  1  0.76926315  0.33839042  0.19031992  1
  O  O36  1  0.95519477  0.76688242  0.15894437  1
  O  O37  1  0.45519477  0.73311758  0.84105563  1
  O  O38  1  0.04480523  0.23311758  0.84105563  1
  O  O39  1  0.54480523  0.26688242  0.15894437  1
  O  O40  1  0.86464033  0.95118297  0.02991293  1
  O  O41  1  0.36464033  0.54881703  0.97008707  1
  O  O42  1  0.13535967  0.04881703  0.97008707  1
  O  O43  1  0.63535967  0.45118297  0.02991293  1
  O  O44  1  0.78382913  0.18563919  0.94736734  1
  O  O45  1  0.28382913  0.31436081  0.05263266  1
  O  O46  1  0.21617087  0.81436081  0.05263266  1
  O  O47  1  0.71617087  0.68563919  0.94736734  1
  O  O48  1  0.82355623  0.98081811  0.83133663  1
  O  O49  1  0.32355623  0.51918189  0.16866337  1
  O  O50  1  0.17644377  0.01918189  0.16866337  1
  O  O51  1  0.67644377  0.48081811  0.83133663  1
  O  O52  1  0.63792708  0.97756995  0.95854837  1
  O  O53  1  0.13792708  0.52243005  0.04145163  1
  O  O54  1  0.36207292  0.02243005  0.04145163  1
  O  O55  1  0.86207292  0.47756995  0.95854837  1
loop_
_geom_bond_atom_site_label_1
_geom_bond_atom_site_label_2
_geom_bond_distance
_geom_bond_site_symmetry_2
Ba0 O26 2.736173 1_655
Ba0 O2 2.752234 1_555
Ba0 O31 2.809695 1_555
Ba0 O9 2.835044 1_555
Ba0 O1 2.882934 1_555
Ba0 O32 2.978092 1_555
Ba0 O12 3.032282 1_555
Ba0 O36 3.089294 1_555
Ba0 O35 3.193394 1_555
Ba0 O4 3.278468 1_655
Ba0 O16 3.358570 1_555
Ba1 O27 2.736173 1_565
Ba1 O3 2.752234 1_565
Ba1 O30 2.809695 1_555
Ba1 O8 2.835044 1_555
Ba1 O0 2.882934 1_555
Ba1 O33 2.978092 1_555
Ba1 O13 3.032282 1_555
Ba1 O37 3.089294 1_555
Ba1 O34 3.193394 1_565
Ba1 O5 3.278468 1_555
Ba1 O17 3.358570 1_555
Ba2 O24 2.736173 1_455
Ba2 O0 2.752234 1_555
Ba2 O29 2.809695 1_555
Ba2 O11 2.835044 1_555
Ba2 O3 2.882934 1_555
Ba2 O34 2.978092 1_555
Ba2 O14 3.032282 1_555
Ba2 O38 3.089294 1_555
Ba2 O33 3.193394 1_555
Ba2 O6 3.278468 1_455
Ba2 O18 3.358570 1_555
Ba3 O25 2.736173 1_545
Ba3 O1 2.752234 1_545
Ba3 O28 2.809695 1_555
Ba3 O10 2.835044 1_555
Ba3 O2 2.882934 1_555
Ba3 O35 2.978092 1_555
Ba3 O15 3.032282 1_555
Ba3 O39 3.089294 1_555
Ba3 O32 3.193394 1_545
Ba3 O7 3.278468 1_555
Ba3 O19 3.358570 1_555
Ba4 O52 2.710922 1_554
Ba4 O32 2.741481 1_555
Ba4 O54 2.868535 1_565
Ba4 O47 2.891429 1_554
Ba4 O25 2.996443 1_555
Ba4 O21 3.022332 1_555
Ba4 O37 3.056523 1_554
Ba4 O31 3.062514 1_555
Ba4 O41 3.083569 1_554
Ba4 O46 3.191902 1_555
Ba4 O49 3.257858 1_555
Ba5 O53 2.710922 1_556
Ba5 O33 2.741481 1_555
Ba5 O55 2.868535 1_455
Ba5 O46 2.891429 1_556
Ba5 O24 2.996443 1_455
Ba5 O20 3.022332 1_455
Ba5 O36 3.056523 1_456
Ba5 O30 3.062514 1_555
Ba5 O40 3.083569 1_456
Ba5 O47 3.191902 1_455
Ba5 O48 3.257858 1_455
Ba6 O54 2.710922 1_556
Ba6 O34 2.741481 1_555
Ba6 O52 2.868535 1_545
Ba6 O45 2.891429 1_556
Ba6 O27 2.996443 1_555
Ba6 O23 3.022332 1_555
Ba6 O39 3.056523 1_556
Ba6 O29 3.062514 1_555
Ba6 O43 3.083569 1_556
Ba6 O44 3.191902 1_555
Ba6 O51 3.257858 1_555
Ba7 O55 2.710922 1_554
Ba7 O35 2.741481 1_555
Ba7 O53 2.868535 1_655
Ba7 O44 2.891429 1_554
Ba7 O26 2.996443 1_655
Ba7 O22 3.022332 1_655
Ba7 O38 3.056523 1_654
Ba7 O28 3.062514 1_555
Ba7 O42 3.083569 1_654
Ba7 O45 3.191902 1_655
Ba7 O50 3.257858 1_655
Ca0 O4 2.312029 1_555
Ca0 O36 2.376893 1_455
Ca0 O46 2.409185 1_555
Ca0 O49 2.425717 1_555
Ca0 O26 2.436821 1_555
Ca0 O21 2.537201 1_555
Ca0 O53 2.660598 1_555
Ca0 O18 2.723211 1_555
Ca1 O5 2.312029 1_555
Ca1 O37 2.376893 1_555
Ca1 O47 2.409185 1_555
Ca1 O48 2.425717 1_555
Ca1 O27 2.436821 1_565
Ca1 O20 2.537201 1_555
Ca1 O52 2.660598 1_555
Ca1 O19 2.723211 1_565
Ca2 O6 2.312029 1_555
Ca2 O38 2.376893 1_655
Ca2 O44 2.409185 1_555
Ca2 O51 2.425717 1_555
Ca2 O24 2.436821 1_555
Ca2 O23 2.537201 1_555
Ca2 O55 2.660598 1_555
Ca2 O16 2.723211 1_555
Ca3 O7 2.312029 1_555
Ca3 O39 2.376893 1_555
Ca3 O45 2.409185 1_555
Ca3 O50 2.425717 1_555
Ca3 O25 2.436821 1_545
Ca3 O22 2.537201 1_555
Ca3 O54 2.660598 1_555
Ca3 O17 2.723211 1_545
Ca4 O16 2.285674 1_555
Ca4 O11 2.318800 1_555
Ca4 O23 2.362797 1_555
Ca4 O29 2.379231 1_555
Ca4 O51 2.409464 1_555
Ca4 O5 2.413839 1_555
Ca4 O9 2.565740 1_555
Ca5 O17 2.285674 1_545
Ca5 O10 2.318800 1_455
Ca5 O22 2.362797 1_555
Ca5 O28 2.379231 1_455
Ca5 O50 2.409464 1_555
Ca5 O4 2.413839 1_545
Ca5 O8 2.565740 1_545
Ca6 O18 2.285674 1_555
Ca6 O9 2.318800 1_555
Ca6 O21 2.362797 1_555
Ca6 O31 2.379231 1_555
Ca6 O49 2.409464 1_555
Ca6 O7 2.413839 1_555
Ca6 O11 2.565740 1_555
Ca7 O19 2.285674 1_565
Ca7 O8 2.318800 1_655
Ca7 O20 2.362797 1_555
Ca7 O30 2.379231 1_655
Ca7 O48 2.409464 1_555
Ca7 O6 2.413839 1_565
Ca7 O10 2.565740 1_565
O0 P0 1.499310 1_555
O1 P1 1.499310 1_555
O2 P2 1.499310 1_555
O3 P3 1.499310 1_555
O4 P0 1.520480 1_555
O5 P1 1.520480 1_555
O6 P2 1.520480 1_555
O7 P3 1.520480 1_555
O8 P0 1.524398 1_555
O9 P1 1.524398 1_555
O10 P2 1.524398 1_555
O11 P3 1.524398 1_555
O12 P4 1.615796 1_555
O12 P0 1.619603 1_655
O13 P5 1.615796 1_555
O13 P1 1.619603 1_555
O14 P6 1.615796 1_555
O14 P2 1.619603 1_455
O15 P7 1.615796 1_555
O15 P3 1.619603 1_555
O16 P4 1.499285 1_555
O17 P5 1.499285 1_555
O18 P6 1.499285 1_555
O19 P7 1.499285 1_555
O20 P4 1.521958 1_555
O21 P5 1.521958 1_555
O22 P6 1.521958 1_555
O23 P7 1.521958 1_555
O24 P4 1.519507 1_555
O25 P5 1.519507 1_555
O26 P6 1.519507 1_555
O27 P7 1.519507 1_555
O28 P8 1.529910 1_545
O29 P9 1.529910 1_555
O30 P10 1.529910 1_565
O31 P11 1.529910 1_555
O32 P8 1.509507 1_555
O33 P9 1.509507 1_555
O34 P10 1.509507 1_555
O35 P11 1.509507 1_555
O36 P8 1.515921 1_555
O37 P9 1.515921 1_555
O38 P10 1.515921 1_555
O39 P11 1.515921 1_555
O40 P12 1.611632 1_564
O40 P8 1.620328 1_555
O41 P13 1.611632 1_556
O41 P9 1.620328 1_555
O42 P14 1.611632 1_546
O42 P10 1.620328 1_555
O43 P15 1.611632 1_554
O43 P11 1.620328 1_555
O44 P12 1.515113 1_555
O45 P13 1.515113 1_555
O46 P14 1.515113 1_555
O47 P15 1.515113 1_555
O48 P12 1.517096 1_565
O49 P13 1.517096 1_555
O50 P14 1.517096 1_545
O51 P15 1.517096 1_555
O52 P12 1.515374 1_565
O53 P13 1.515374 1_555
O54 P14 1.515374 1_545
O55 P15 1.515374 1_555
