# generated using pymatgen
data_Al3Si3Ag4IO12
_symmetry_space_group_name_H-M   'P 1'
_cell_length_a   9.07287700
_cell_length_b   9.07287700
_cell_length_c   9.07287700
_cell_angle_alpha   90.00000000
_cell_angle_beta   90.00000000
_cell_angle_gamma   90.00000000
_symmetry_Int_Tables_number   1
_chemical_formula_structural   Al3Si3Ag4IO12
_chemical_formula_sum   'Al6 Si6 Ag8 I2 O24'
_cell_volume   746.85289660
_cell_formula_units_Z   2
loop_
 _symmetry_equiv_pos_site_id
 _symmetry_equiv_pos_as_xyz
  1  'x, y, z'
loop_
 _atom_site_type_symbol
 _atom_site_label
 _atom_site_symmetry_multiplicity
 _atom_site_fract_x
 _atom_site_fract_y
 _atom_site_fract_z
 _atom_site_occupancy
  Al  Al0  1  0.25000000  0.00000000  0.50000000  1
  Al  Al1  1  0.75000000  0.00000000  0.50000000  1
  Al  Al2  1  0.50000000  0.25000000  0.00000000  1
  Al  Al3  1  0.50000000  0.75000000  0.00000000  1
  Al  Al4  1  0.00000000  0.50000000  0.25000000  1
  Al  Al5  1  0.00000000  0.50000000  0.75000000  1
  Si  Si0  1  0.25000000  0.50000000  0.00000000  1
  Si  Si1  1  0.75000000  0.50000000  0.00000000  1
  Si  Si2  1  0.00000000  0.25000000  0.50000000  1
  Si  Si3  1  0.00000000  0.75000000  0.50000000  1
  Si  Si4  1  0.50000000  0.00000000  0.25000000  1
  Si  Si5  1  0.50000000  0.00000000  0.75000000  1
  Ag  Ag0  1  0.17515200  0.17515200  0.17515200  1
  Ag  Ag1  1  0.82484800  0.82484800  0.17515200  1
  Ag  Ag2  1  0.82484800  0.17515200  0.82484800  1
  Ag  Ag3  1  0.67515200  0.67515200  0.67515200  1
  Ag  Ag4  1  0.17515200  0.82484800  0.82484800  1
  Ag  Ag5  1  0.32484800  0.32484800  0.67515200  1
  Ag  Ag6  1  0.67515200  0.32484800  0.32484800  1
  Ag  Ag7  1  0.32484800  0.67515200  0.32484800  1
  I  I0  1  0.00000000  0.00000000  0.00000000  1
  I  I1  1  0.50000000  0.50000000  0.50000000  1
  O  O0  1  0.13853200  0.14880300  0.44293000  1
  O  O1  1  0.86146800  0.85119700  0.44293000  1
  O  O2  1  0.86146800  0.14880300  0.55707000  1
  O  O3  1  0.44293000  0.13853200  0.14880300  1
  O  O4  1  0.64880300  0.63853200  0.94293000  1
  O  O5  1  0.13853200  0.85119700  0.55707000  1
  O  O6  1  0.44293000  0.86146800  0.85119700  1
  O  O7  1  0.35119700  0.36146800  0.94293000  1
  O  O8  1  0.55707000  0.86146800  0.14880300  1
  O  O9  1  0.64880300  0.36146800  0.05707000  1
  O  O10  1  0.55707000  0.13853200  0.85119700  1
  O  O11  1  0.35119700  0.63853200  0.05707000  1
  O  O12  1  0.14880300  0.44293000  0.13853200  1
  O  O13  1  0.63853200  0.94293000  0.64880300  1
  O  O14  1  0.14880300  0.55707000  0.86146800  1
  O  O15  1  0.36146800  0.05707000  0.64880300  1
  O  O16  1  0.85119700  0.55707000  0.13853200  1
  O  O17  1  0.63853200  0.05707000  0.35119700  1
  O  O18  1  0.85119700  0.44293000  0.86146800  1
  O  O19  1  0.36146800  0.94293000  0.35119700  1
  O  O20  1  0.94293000  0.64880300  0.63853200  1
  O  O21  1  0.94293000  0.35119700  0.36146800  1
  O  O22  1  0.05707000  0.35119700  0.63853200  1
  O  O23  1  0.05707000  0.64880300  0.36146800  1
loop_
_geom_bond_atom_site_label_1
_geom_bond_atom_site_label_2
_geom_bond_distance
_geom_bond_site_symmetry_2
Al0 O19 1.764539 1_545
Al0 O15 1.764539 1_555
Al0 O0 1.764539 1_555
Al0 O5 1.764539 1_545
Al1 O1 1.764539 1_545
Al1 O2 1.764539 1_555
Al1 O13 1.764539 1_545
Al1 O17 1.764539 1_555
Al2 O7 1.764539 1_554
Al2 O9 1.764539 1_555
Al2 O3 1.764539 1_555
Al2 O10 1.764539 1_554
Al3 O4 1.764539 1_554
Al3 O6 1.764539 1_554
Al3 O11 1.764539 1_555
Al3 O8 1.764539 1_555
Al4 O21 1.764539 1_455
Al4 O23 1.764539 1_555
Al4 O12 1.764539 1_555
Al4 O16 1.764539 1_455
Al5 O18 1.764539 1_455
Al5 O20 1.764539 1_455
Al5 O22 1.764539 1_555
Al5 O14 1.764539 1_555
Ag0 O12 2.463756 1_555
Ag0 O0 2.463756 1_555
Ag0 O3 2.463756 1_555
Ag0 I0 2.752458 1_555
Ag1 O16 2.463756 1_555
Ag1 O8 2.463756 1_555
Ag1 O1 2.463756 1_555
Ag1 I0 2.752458 1_665
Ag2 O10 2.463756 1_555
Ag2 O2 2.463756 1_555
Ag2 O18 2.463756 1_555
Ag2 I0 2.752458 1_656
Ag3 O13 2.463756 1_555
Ag3 O20 2.463756 1_555
Ag3 O4 2.463756 1_555
Ag3 I1 2.752458 1_555
Ag4 O5 2.463756 1_555
Ag4 O14 2.463756 1_555
Ag4 O6 2.463756 1_555
Ag4 I0 2.752458 1_566
Ag5 O15 2.463756 1_555
Ag5 O22 2.463756 1_555
Ag5 O7 2.463756 1_555
Ag5 I1 2.752458 1_555
Ag6 O9 2.463756 1_555
Ag6 O17 2.463756 1_555
Ag6 O21 2.463756 1_555
Ag6 I1 2.752458 1_555
Ag7 O23 2.463756 1_555
Ag7 O11 2.463756 1_555
Ag7 O19 2.463756 1_555
Ag7 I1 2.752458 1_555
O0 Si2 1.640384 1_555
O1 Si3 1.640384 1_655
O2 Si2 1.640384 1_655
O3 Si4 1.640384 1_555
O4 Si1 1.640384 1_556
O5 Si3 1.640384 1_555
O6 Si5 1.640384 1_565
O7 Si0 1.640384 1_556
O8 Si4 1.640384 1_565
O9 Si1 1.640384 1_555
O10 Si5 1.640384 1_555
O11 Si0 1.640384 1_555
O12 Si0 1.640384 1_555
O13 Si5 1.640384 1_565
O14 Si0 1.640384 1_556
O15 Si5 1.640384 1_555
O16 Si1 1.640384 1_555
O17 Si4 1.640384 1_555
O18 Si1 1.640384 1_556
O19 Si4 1.640384 1_565
O20 Si3 1.640384 1_655
O21 Si2 1.640384 1_655
O22 Si2 1.640384 1_555
O23 Si3 1.640384 1_555
