# generated using pymatgen
data_NaSb(OF2)2
_symmetry_space_group_name_H-M   'P 1'
_cell_length_a   5.44946083
_cell_length_b   5.44946083
_cell_length_c   9.87083083
_cell_angle_alpha   89.71971504
_cell_angle_beta   89.71971504
_cell_angle_gamma   119.38802966
_symmetry_Int_Tables_number   1
_chemical_formula_structural   NaSb(OF2)2
_chemical_formula_sum   'Na2 Sb2 O4 F8'
_cell_volume   255.39726124
_cell_formula_units_Z   2
loop_
 _symmetry_equiv_pos_site_id
 _symmetry_equiv_pos_as_xyz
  1  'x, y, z'
loop_
 _atom_site_type_symbol
 _atom_site_label
 _atom_site_symmetry_multiplicity
 _atom_site_fract_x
 _atom_site_fract_y
 _atom_site_fract_z
 _atom_site_occupancy
  Na  Na0  1  0.00400800  0.98855300  0.49836500  1
  Na  Na1  1  0.98855300  0.00400800  0.99836500  1
  Sb  Sb0  1  0.32775900  0.65145400  0.25017200  1
  Sb  Sb1  1  0.65145400  0.32775900  0.75017200  1
  O  O0  1  0.61381500  0.98423100  0.34877200  1
  O  O1  1  0.98423100  0.61381500  0.84877200  1
  O  O2  1  0.99424800  0.37650800  0.65720300  1
  O  O3  1  0.37650800  0.99424800  0.15720300  1
  F  F0  1  0.03225900  0.64956400  0.36355500  1
  F  F1  1  0.32416400  0.36466700  0.36627700  1
  F  F2  1  0.64956400  0.03225900  0.86355500  1
  F  F3  1  0.36466700  0.32416400  0.86627700  1
  F  F4  1  0.37297100  0.04732400  0.63320200  1
  F  F5  1  0.65351500  0.61871600  0.63260700  1
  F  F6  1  0.04732400  0.37297100  0.13320200  1
  F  F7  1  0.61871600  0.65351500  0.13260700  1
loop_
_geom_bond_atom_site_label_1
_geom_bond_atom_site_label_2
_geom_bond_distance
_geom_bond_site_symmetry_2
Na0 O0 2.585374 1_455
Na0 O2 2.659437 1_465
Na1 O1 2.585374 1_545
Na1 O3 2.659437 1_646
O0 Sb0 1.980793 1_555
O1 Sb1 1.980793 1_555
O2 Sb1 1.973852 1_555
O3 Sb0 1.973852 1_555
F0 Sb0 1.952376 1_555
F0 Na0 2.346943 1_555
F1 Sb0 1.925741 1_555
F1 Na0 2.320950 1_545
F2 Sb1 1.952376 1_555
F2 Na1 2.346943 1_555
F3 Sb1 1.925741 1_555
F3 Na1 2.320950 1_455
F4 Sb1 1.931278 1_555
F4 Na0 2.305444 1_545
F5 Sb1 1.955810 1_555
F5 Na0 2.374221 1_655
F6 Sb0 1.931278 1_555
F6 Na1 2.305444 1_454
F7 Sb0 1.955810 1_555
F7 Na1 2.374221 1_564
