# generated using pymatgen
data_V7O3
_symmetry_space_group_name_H-M   'P 1'
_cell_length_a   5.36673421
_cell_length_b   5.34319247
_cell_length_c   6.92033353
_cell_angle_alpha   129.93435758
_cell_angle_beta   104.91582055
_cell_angle_gamma   80.70529268
_symmetry_Int_Tables_number   1
_chemical_formula_structural   V7O3
_chemical_formula_sum   'V7 O3'
_cell_volume   147.03397683
_cell_formula_units_Z   1
loop_
 _symmetry_equiv_pos_site_id
 _symmetry_equiv_pos_as_xyz
  1  'x, y, z'
loop_
 _atom_site_type_symbol
 _atom_site_label
 _atom_site_symmetry_multiplicity
 _atom_site_fract_x
 _atom_site_fract_y
 _atom_site_fract_z
 _atom_site_occupancy
  V  V0  1  0.50000000  0.00000000  0.50000000  1
  V  V1  1  0.07358100  0.13515700  0.77580000  1
  V  V2  1  0.21612800  0.42854900  0.36035500  1
  V  V3  1  0.35799700  0.71375900  0.92284500  1
  V  V4  1  0.64200300  0.28624100  0.07715500  1
  V  V5  1  0.78387200  0.57145100  0.63964500  1
  V  V6  1  0.92641900  0.86484300  0.22420000  1
  O  O0  1  0.71938600  0.43013700  0.86206700  1
  O  O1  1  0.00000000  0.00000000  0.00000000  1
  O  O2  1  0.28061400  0.56986300  0.13793300  1
loop_
_geom_bond_atom_site_label_1
_geom_bond_atom_site_label_2
_geom_bond_distance
_geom_bond_site_symmetry_2
O0 V6 2.199358 1_556
O0 V1 2.205066 1_655
O0 V4 2.206767 1_556
O0 V3 2.210718 1_555
O0 V0 2.215600 1_555
O0 V5 2.215823 1_555
O1 V2 2.201237 1_555
O1 V5 2.201237 1_444
O1 V4 2.201380 1_455
O1 V3 2.201380 1_544
O1 V1 2.220531 1_554
O1 V6 2.220531 1_445
O2 V1 2.199358 1_554
O2 V6 2.205066 1_455
O2 V3 2.206767 1_554
O2 V4 2.210718 1_555
O2 V0 2.215600 1_565
O2 V2 2.215823 1_555
