# generated using pymatgen
data_TaVSi4
_symmetry_space_group_name_H-M   'P 1'
_cell_length_a   13.00531200
_cell_length_b   4.68190200
_cell_length_c   4.70431930
_cell_angle_alpha   60.39724405
_cell_angle_beta   90.00000000
_cell_angle_gamma   90.00000000
_symmetry_Int_Tables_number   1
_chemical_formula_structural   TaVSi4
_chemical_formula_sum   'Ta3 V3 Si12'
_cell_volume   249.05488891
_cell_formula_units_Z   3
loop_
 _symmetry_equiv_pos_site_id
 _symmetry_equiv_pos_as_xyz
  1  'x, y, z'
loop_
 _atom_site_type_symbol
 _atom_site_label
 _atom_site_symmetry_multiplicity
 _atom_site_fract_x
 _atom_site_fract_y
 _atom_site_fract_z
 _atom_site_occupancy
  Ta  Ta0  1  0.08262900  0.50000000  0.50000000  1
  Ta  Ta1  1  0.58538000  0.50000000  0.50000000  1
  Ta  Ta2  1  0.24856800  0.00000000  0.50000000  1
  V  V0  1  0.74903000  0.00000000  0.50000000  1
  V  V1  1  0.41838700  0.50000000  0.00000000  1
  V  V2  1  0.91603300  0.50000000  0.00000000  1
  Si  Si0  1  0.07851100  0.83448000  0.84506400  1
  Si  Si1  1  0.58467900  0.83655500  0.83760500  1
  Si  Si2  1  0.25328500  0.32322400  0.84392800  1
  Si  Si3  1  0.75336900  0.32108100  0.84681300  1
  Si  Si4  1  0.41785800  0.84225600  0.31617500  1
  Si  Si5  1  0.91228500  0.84504200  0.32344800  1
  Si  Si6  1  0.07851100  0.16552000  0.15493600  1
  Si  Si7  1  0.58467900  0.16344500  0.16239500  1
  Si  Si8  1  0.25328500  0.67677600  0.15607200  1
  Si  Si9  1  0.75336900  0.67891900  0.15318700  1
  Si  Si10  1  0.41785800  0.15774400  0.68382500  1
  Si  Si11  1  0.91228500  0.15495800  0.67655200  1
loop_
_geom_bond_atom_site_label_1
_geom_bond_atom_site_label_2
_geom_bond_distance
_geom_bond_site_symmetry_2
Si0 V2 2.514166 1_456
Si0 Si11 2.525489 1_465
Si0 Si6 2.599872 1_566
Si0 Si8 2.604800 1_556
Si0 Ta2 2.623768 1_565
Si0 Ta0 2.679762 1_556
Si0 Ta0 2.711018 1_565
Si0 Si6 2.724656 1_556
Si0 Ta0 2.757136 1_555
Si0 Si6 2.823324 1_565
Si1 Si10 2.533159 1_565
Si1 V0 2.544775 1_565
Si1 Si9 2.545442 1_556
Si1 V1 2.560157 1_556
Si1 Si7 2.643321 1_566
Si1 Ta1 2.701289 1_565
Si1 Ta1 2.709634 1_556
Si1 Ta1 2.734556 1_555
Si1 Si7 2.740234 1_556
Si1 Si7 2.762061 1_565
Si2 V1 2.536712 1_556
Si2 Si6 2.604800 1_556
Si2 Ta0 2.627863 1_555
Si2 Si8 2.631682 1_546
Si2 Ta2 2.684237 1_556
Si2 Si8 2.701427 1_556
Si2 Ta2 2.707505 1_555
Si2 Ta2 2.756192 1_565
Si2 Si8 2.814090 1_555
Si3 V2 2.508537 1_556
Si3 Si7 2.545442 1_556
Si3 Ta1 2.605081 1_555
Si3 Si9 2.614468 1_546
Si3 V0 2.672347 1_556
Si3 Si9 2.696246 1_556
Si3 V0 2.710712 1_555
Si3 V0 2.764985 1_565
Si3 Si9 2.837828 1_555
Si4 Si8 2.514960 1_555
Si4 Si7 2.533159 1_565
Si4 Ta1 2.587108 1_555
Si4 Ta2 2.602231 1_565
Si4 V1 2.671107 1_555
Si4 V1 2.677753 1_565
Si4 V1 2.797069 1_556
Si5 Si9 2.476571 1_555
Si5 V0 2.513840 1_565
Si5 Si6 2.525489 1_665
Si5 Ta0 2.623324 1_655
Si5 V2 2.666643 1_565
Si5 V2 2.712165 1_555
Si5 V2 2.768047 1_556
Si6 V2 2.514166 1_455
Si6 Ta2 2.623768 1_555
Si6 Ta0 2.679762 1_554
Si6 Ta0 2.711018 1_545
Si6 Ta0 2.757136 1_555
Si7 V0 2.544775 1_555
Si7 V1 2.560157 1_555
Si7 Ta1 2.701289 1_545
Si7 Ta1 2.709634 1_554
Si7 Ta1 2.734556 1_555
Si8 V1 2.536712 1_555
Si8 Ta0 2.627863 1_555
Si8 Ta2 2.684237 1_564
Si8 Ta2 2.707505 1_565
Si8 Ta2 2.756192 1_555
Si9 V2 2.508537 1_555
Si9 Ta1 2.605081 1_555
Si9 V0 2.672347 1_564
Si9 V0 2.710712 1_565
Si9 V0 2.764985 1_555
Si10 Si2 2.514960 1_555
Si10 Si4 2.586493 1_546
Si10 Ta1 2.587108 1_555
Si10 Ta2 2.602231 1_555
Si10 V1 2.671107 1_556
Si10 V1 2.677753 1_546
Si10 Si4 2.774353 1_545
Si10 Si4 2.790341 1_555
Si10 V1 2.797069 1_555
Si11 Si3 2.476571 1_555
Si11 V0 2.513840 1_555
Si11 Ta0 2.623324 1_655
Si11 Si5 2.646496 1_546
Si11 V2 2.666643 1_546
Si11 Si5 2.691832 1_545
Si11 V2 2.712165 1_556
Si11 V2 2.768047 1_555
Si11 Si5 2.809934 1_555
