# generated using pymatgen
data_Rb2Mg
_symmetry_space_group_name_H-M   'P 1'
_cell_length_a   16.07957542
_cell_length_b   16.07957542
_cell_length_c   22.37332189
_cell_angle_alpha   68.97605294
_cell_angle_beta   68.97605294
_cell_angle_gamma   33.59701800
_symmetry_Int_Tables_number   1
_chemical_formula_structural   Rb2Mg
_chemical_formula_sum   'Rb32 Mg16'
_cell_volume   2967.67868250
_cell_formula_units_Z   16
loop_
 _symmetry_equiv_pos_site_id
 _symmetry_equiv_pos_as_xyz
  1  'x, y, z'
loop_
 _atom_site_type_symbol
 _atom_site_label
 _atom_site_symmetry_multiplicity
 _atom_site_fract_x
 _atom_site_fract_y
 _atom_site_fract_z
 _atom_site_occupancy
  Rb  Rb0_0  1  0.08524500  0.08524500  0.43150400  1
  Rb  Rb0_1  1  0.08524500  0.08524500  0.93150400  1
  Rb  Rb0_2  1  0.08524500  0.58524500  0.43150400  1
  Rb  Rb0_3  1  0.08524500  0.58524500  0.93150400  1
  Rb  Rb0_4  1  0.58524500  0.08524500  0.43150400  1
  Rb  Rb0_5  1  0.58524500  0.08524500  0.93150400  1
  Rb  Rb0_6  1  0.58524500  0.58524500  0.43150400  1
  Rb  Rb0_7  1  0.58524500  0.58524500  0.93150400  1
  Rb  Rb1_0  1  0.41475500  0.41475500  0.06849600  1
  Rb  Rb1_1  1  0.41475500  0.41475500  0.56849600  1
  Rb  Rb1_2  1  0.41475500  0.91475500  0.06849600  1
  Rb  Rb1_3  1  0.41475500  0.91475500  0.56849600  1
  Rb  Rb1_4  1  0.91475500  0.41475500  0.06849600  1
  Rb  Rb1_5  1  0.91475500  0.41475500  0.56849600  1
  Rb  Rb1_6  1  0.91475500  0.91475500  0.06849600  1
  Rb  Rb1_7  1  0.91475500  0.91475500  0.56849600  1
  Rb  Rb2_0  1  0.25877900  0.25877900  0.15451850  1
  Rb  Rb2_1  1  0.25877900  0.25877900  0.65451850  1
  Rb  Rb2_2  1  0.25877900  0.75877900  0.15451850  1
  Rb  Rb2_3  1  0.25877900  0.75877900  0.65451850  1
  Rb  Rb2_4  1  0.75877900  0.25877900  0.15451850  1
  Rb  Rb2_5  1  0.75877900  0.25877900  0.65451850  1
  Rb  Rb2_6  1  0.75877900  0.75877900  0.15451850  1
  Rb  Rb2_7  1  0.75877900  0.75877900  0.65451850  1
  Rb  Rb3_0  1  0.24122100  0.24122100  0.34548150  1
  Rb  Rb3_1  1  0.24122100  0.24122100  0.84548150  1
  Rb  Rb3_2  1  0.24122100  0.74122100  0.34548150  1
  Rb  Rb3_3  1  0.24122100  0.74122100  0.84548150  1
  Rb  Rb3_4  1  0.74122100  0.24122100  0.34548150  1
  Rb  Rb3_5  1  0.74122100  0.24122100  0.84548150  1
  Rb  Rb3_6  1  0.74122100  0.74122100  0.34548150  1
  Rb  Rb3_7  1  0.74122100  0.74122100  0.84548150  1
  Mg  Mg0_0  1  0.10091800  0.10091800  0.22848500  1
  Mg  Mg0_1  1  0.10091800  0.10091800  0.72848500  1
  Mg  Mg0_2  1  0.10091800  0.60091800  0.22848500  1
  Mg  Mg0_3  1  0.10091800  0.60091800  0.72848500  1
  Mg  Mg0_4  1  0.60091800  0.10091800  0.22848500  1
  Mg  Mg0_5  1  0.60091800  0.10091800  0.72848500  1
  Mg  Mg0_6  1  0.60091800  0.60091800  0.22848500  1
  Mg  Mg0_7  1  0.60091800  0.60091800  0.72848500  1
  Mg  Mg1_0  1  0.39908200  0.39908200  0.27151500  1
  Mg  Mg1_1  1  0.39908200  0.39908200  0.77151500  1
  Mg  Mg1_2  1  0.39908200  0.89908200  0.27151500  1
  Mg  Mg1_3  1  0.39908200  0.89908200  0.77151500  1
  Mg  Mg1_4  1  0.89908200  0.39908200  0.27151500  1
  Mg  Mg1_5  1  0.89908200  0.39908200  0.77151500  1
  Mg  Mg1_6  1  0.89908200  0.89908200  0.27151500  1
  Mg  Mg1_7  1  0.89908200  0.89908200  0.77151500  1
loop_
_geom_bond_atom_site_label_1
_geom_bond_atom_site_label_2
_geom_bond_distance
_geom_bond_site_symmetry_2
Rb0_0 Rb3_0 4.453820 1_555
Rb0_0 Rb0_6 4.647108 1_455
Rb0_0 Rb0_6 4.647108 1_545
Rb0_0 Rb3_2 4.653805 1_545
Rb0_0 Rb3_4 4.653805 1_455
Rb0_0 Rb1_7 4.988667 1_445
Rb0_1 Rb3_1 4.453820 1_555
Rb0_1 Rb0_7 4.647108 1_455
Rb0_1 Rb0_7 4.647108 1_545
Rb0_1 Rb3_3 4.653805 1_545
Rb0_1 Rb3_5 4.653805 1_455
Rb0_1 Rb1_6 4.988667 1_446
Rb0_2 Rb3_2 4.453820 1_555
Rb0_2 Rb0_4 4.647108 1_465
Rb0_2 Rb0_4 4.647108 1_555
Rb0_2 Rb3_0 4.653805 1_555
Rb0_2 Rb3_6 4.653805 1_455
Rb0_2 Rb1_5 4.988667 1_455
Rb0_3 Rb3_3 4.453820 1_555
Rb0_3 Rb0_5 4.647108 1_555
Rb0_3 Rb0_5 4.647108 1_465
Rb0_3 Rb3_7 4.653805 1_455
Rb0_3 Rb3_1 4.653805 1_555
Rb0_3 Rb1_4 4.988667 1_456
Rb0_4 Rb3_4 4.453820 1_555
Rb0_4 Rb3_6 4.653805 1_545
Rb0_4 Rb3_0 4.653805 1_555
Rb0_4 Rb1_3 4.988667 1_545
Rb0_5 Rb3_5 4.453820 1_555
Rb0_5 Rb3_7 4.653805 1_545
Rb0_5 Rb3_1 4.653805 1_555
Rb0_5 Rb1_2 4.988667 1_546
Rb0_6 Rb3_6 4.453820 1_555
Rb0_6 Rb3_4 4.653805 1_555
Rb0_6 Rb3_2 4.653805 1_555
Rb0_6 Rb1_1 4.988667 1_555
Rb0_7 Rb3_7 4.453820 1_555
Rb0_7 Rb3_3 4.653805 1_555
Rb0_7 Rb3_5 4.653805 1_555
Rb0_7 Rb1_0 4.988667 1_556
Rb1_0 Rb2_0 4.453820 1_555
Rb1_0 Rb1_6 4.647108 1_455
Rb1_0 Rb1_6 4.647108 1_545
Rb1_0 Rb2_2 4.653805 1_555
Rb1_0 Rb2_4 4.653805 1_555
Rb1_1 Rb2_1 4.453820 1_555
Rb1_1 Rb1_7 4.647108 1_455
Rb1_1 Rb1_7 4.647108 1_545
Rb1_1 Rb2_5 4.653805 1_555
Rb1_1 Rb2_3 4.653805 1_555
Rb1_2 Rb2_2 4.453820 1_555
Rb1_2 Rb1_4 4.647108 1_555
Rb1_2 Rb1_4 4.647108 1_465
Rb1_2 Rb2_6 4.653805 1_555
Rb1_2 Rb2_0 4.653805 1_565
Rb1_3 Rb2_3 4.453820 1_555
Rb1_3 Rb1_5 4.647108 1_555
Rb1_3 Rb1_5 4.647108 1_465
Rb1_3 Rb2_7 4.653805 1_555
Rb1_3 Rb2_1 4.653805 1_565
Rb1_4 Rb2_4 4.453820 1_555
Rb1_4 Rb2_0 4.653805 1_655
Rb1_4 Rb2_6 4.653805 1_555
Rb1_5 Rb2_5 4.453820 1_555
Rb1_5 Rb2_7 4.653805 1_555
Rb1_5 Rb2_1 4.653805 1_655
Rb1_6 Rb2_6 4.453820 1_555
Rb1_6 Rb2_4 4.653805 1_565
Rb1_6 Rb2_2 4.653805 1_655
Rb1_7 Rb2_7 4.453820 1_555
Rb1_7 Rb2_5 4.653805 1_565
Rb1_7 Rb2_3 4.653805 1_655
Rb2_0 Rb3_0 4.100644 1_555
Rb2_0 Rb2_6 4.647108 1_455
Rb2_0 Rb2_6 4.647108 1_545
Rb2_1 Rb3_1 4.100644 1_555
Rb2_1 Rb2_7 4.647108 1_455
Rb2_1 Rb2_7 4.647108 1_545
Rb2_2 Rb3_2 4.100644 1_555
Rb2_2 Rb2_4 4.647108 1_555
Rb2_2 Rb2_4 4.647108 1_465
Rb2_3 Rb3_3 4.100644 1_555
Rb2_3 Rb2_5 4.647108 1_555
Rb2_3 Rb2_5 4.647108 1_465
Rb2_4 Rb3_4 4.100644 1_555
Rb2_5 Rb3_5 4.100644 1_555
Rb2_6 Rb3_6 4.100644 1_555
Rb2_7 Rb3_7 4.100644 1_555
Rb3_0 Rb3_6 4.647108 1_545
Rb3_0 Rb3_6 4.647108 1_455
Rb3_1 Rb3_7 4.647108 1_455
Rb3_1 Rb3_7 4.647108 1_545
Rb3_2 Rb3_4 4.647108 1_465
Rb3_2 Rb3_4 4.647108 1_555
Rb3_3 Rb3_5 4.647108 1_555
Rb3_3 Rb3_5 4.647108 1_465
Mg0_0 Mg1_4 3.097488 1_455
Mg0_0 Mg1_2 3.097488 1_545
Mg0_0 Rb1_2 4.098966 1_545
Mg0_0 Rb1_4 4.098966 1_455
Mg0_0 Rb3_2 4.126818 1_545
Mg0_0 Rb3_4 4.126818 1_455
Mg0_1 Mg1_5 3.097488 1_455
Mg0_1 Mg1_3 3.097488 1_545
Mg0_1 Rb1_3 4.098966 1_545
Mg0_1 Rb1_5 4.098966 1_455
Mg0_1 Rb3_3 4.126818 1_545
Mg0_1 Rb3_5 4.126818 1_455
Mg0_2 Mg1_6 3.097488 1_455
Mg0_2 Mg1_0 3.097488 1_555
Mg0_2 Rb1_0 4.098966 1_555
Mg0_2 Rb1_6 4.098966 1_455
Mg0_2 Rb3_6 4.126818 1_455
Mg0_2 Rb3_0 4.126818 1_555
Mg0_3 Mg1_1 3.097488 1_555
Mg0_3 Mg1_7 3.097488 1_455
Mg0_3 Rb1_1 4.098966 1_555
Mg0_3 Rb1_7 4.098966 1_455
Mg0_3 Rb3_1 4.126818 1_555
Mg0_3 Rb3_7 4.126818 1_455
Mg0_4 Mg1_6 3.097488 1_545
Mg0_4 Mg1_0 3.097488 1_555
Mg0_4 Rb1_0 4.098966 1_555
Mg0_4 Rb1_6 4.098966 1_545
Mg0_4 Rb3_0 4.126818 1_555
Mg0_4 Rb3_6 4.126818 1_545
Mg0_5 Mg1_1 3.097488 1_555
Mg0_5 Mg1_7 3.097488 1_545
Mg0_5 Rb1_1 4.098966 1_555
Mg0_5 Rb1_7 4.098966 1_545
Mg0_5 Rb3_7 4.126818 1_545
Mg0_5 Rb3_1 4.126818 1_555
Mg0_6 Mg1_4 3.097488 1_555
Mg0_6 Mg1_2 3.097488 1_555
Mg0_6 Rb1_2 4.098966 1_555
Mg0_6 Rb1_4 4.098966 1_555
Mg0_6 Rb3_4 4.126818 1_555
Mg0_6 Rb3_2 4.126818 1_555
Mg0_7 Mg1_5 3.097488 1_555
Mg0_7 Mg1_3 3.097488 1_555
Mg0_7 Rb1_5 4.098966 1_555
Mg0_7 Rb1_3 4.098966 1_555
Mg0_7 Rb3_3 4.126818 1_555
Mg0_7 Rb3_5 4.126818 1_555
Mg1_0 Rb0_4 4.098966 1_555
Mg1_0 Rb0_2 4.098966 1_555
Mg1_0 Rb2_4 4.126818 1_555
Mg1_0 Rb2_2 4.126818 1_555
Mg1_1 Rb0_3 4.098966 1_555
Mg1_1 Rb0_5 4.098966 1_555
Mg1_1 Rb2_3 4.126818 1_555
Mg1_1 Rb2_5 4.126818 1_555
Mg1_2 Rb0_6 4.098966 1_555
Mg1_2 Rb0_0 4.098966 1_565
Mg1_2 Rb2_6 4.126818 1_555
Mg1_2 Rb2_0 4.126818 1_565
Mg1_3 Rb0_1 4.098966 1_565
Mg1_3 Rb0_7 4.098966 1_555
Mg1_3 Rb2_7 4.126818 1_555
Mg1_3 Rb2_1 4.126818 1_565
Mg1_4 Rb0_6 4.098966 1_555
Mg1_4 Rb0_0 4.098966 1_655
Mg1_4 Rb2_0 4.126818 1_655
Mg1_4 Rb2_6 4.126818 1_555
Mg1_5 Rb0_1 4.098966 1_655
Mg1_5 Rb0_7 4.098966 1_555
Mg1_5 Rb2_7 4.126818 1_555
Mg1_5 Rb2_1 4.126818 1_655
Mg1_6 Rb0_2 4.098966 1_655
Mg1_6 Rb0_4 4.098966 1_565
Mg1_6 Rb2_4 4.126818 1_565
Mg1_6 Rb2_2 4.126818 1_655
Mg1_7 Rb0_3 4.098966 1_655
Mg1_7 Rb0_5 4.098966 1_565
Mg1_7 Rb2_5 4.126818 1_565
Mg1_7 Rb2_3 4.126818 1_655
