# generated using pymatgen
data_Yb4ZrCo33
_symmetry_space_group_name_H-M   'P 1'
_cell_length_a   8.30992015
_cell_length_b   8.30992015
_cell_length_c   8.16047200
_cell_angle_alpha   90.00000000
_cell_angle_beta   90.00000000
_cell_angle_gamma   120.00000122
_symmetry_Int_Tables_number   1
_chemical_formula_structural   Yb4ZrCo33
_chemical_formula_sum   'Yb4 Zr1 Co33'
_cell_volume   488.02223214
_cell_formula_units_Z   1
loop_
 _symmetry_equiv_pos_site_id
 _symmetry_equiv_pos_as_xyz
  1  'x, y, z'
loop_
 _atom_site_type_symbol
 _atom_site_label
 _atom_site_symmetry_multiplicity
 _atom_site_fract_x
 _atom_site_fract_y
 _atom_site_fract_z
 _atom_site_occupancy
  Yb  Yb0  1  0.00000000  0.00000000  0.23823900  1
  Yb  Yb1  1  0.66666700  0.33333300  0.75045400  1
  Yb  Yb2  1  0.33333300  0.66666700  0.75154100  1
  Yb  Yb3  1  0.33333300  0.66666700  0.24806000  1
  Zr  Zr0  1  0.00000000  0.00000000  0.61164800  1
  Co  Co0  1  0.17190600  0.34381200  0.47523300  1
  Co  Co1  1  0.17190600  0.82809400  0.47523300  1
  Co  Co2  1  0.65618800  0.82809400  0.47523300  1
  Co  Co3  1  0.49979300  0.99958600  0.51910300  1
  Co  Co4  1  0.49979300  0.50020700  0.51910300  1
  Co  Co5  1  0.00041400  0.50020700  0.51910300  1
  Co  Co6  1  0.50058600  0.00117200  0.98419000  1
  Co  Co7  1  0.50058600  0.49941400  0.98419000  1
  Co  Co8  1  0.99882800  0.49941400  0.98419000  1
  Co  Co9  1  0.16720500  0.33441100  0.01827300  1
  Co  Co10  1  0.16720500  0.83279500  0.01827300  1
  Co  Co11  1  0.66558900  0.83279500  0.01827300  1
  Co  Co12  1  0.82744200  0.65488500  0.49873400  1
  Co  Co13  1  0.82744200  0.17255800  0.49873400  1
  Co  Co14  1  0.34511500  0.17255800  0.49873400  1
  Co  Co15  1  0.83303600  0.66607300  0.99890600  1
  Co  Co16  1  0.83303600  0.16696400  0.99890600  1
  Co  Co17  1  0.33392700  0.16696400  0.99890600  1
  Co  Co18  1  0.00586500  0.70171300  0.75146300  1
  Co  Co19  1  0.69584700  0.99413500  0.75146300  1
  Co  Co20  1  0.29828700  0.30415300  0.75146300  1
  Co  Co21  1  0.69584700  0.70171300  0.75146300  1
  Co  Co22  1  0.29828700  0.99413500  0.75146300  1
  Co  Co23  1  0.00586500  0.30415300  0.75146300  1
  Co  Co24  1  0.66223500  0.62265700  0.25030000  1
  Co  Co25  1  0.96042200  0.33776500  0.25030000  1
  Co  Co26  1  0.37734300  0.03957800  0.25030000  1
  Co  Co27  1  0.96042200  0.62265700  0.25030000  1
  Co  Co28  1  0.37734300  0.33776500  0.25030000  1
  Co  Co29  1  0.66223500  0.03957800  0.25030000  1
  Co  Co30  1  0.66666700  0.33333300  0.38953900  1
  Co  Co31  1  0.66666700  0.33333300  0.10586800  1
  Co  Co32  1  0.00000000  0.00000000  0.91085600  1
loop_
_geom_bond_atom_site_label_1
_geom_bond_atom_site_label_2
_geom_bond_distance
_geom_bond_site_symmetry_2
Yb0 Zr0 3.047194 1_555
Co0 Co4 2.387499 1_555
Co0 Co5 2.387499 1_555
Co0 Co14 2.486384 1_555
Co0 Co13 2.486391 1_455
Co0 Co25 2.524282 1_455
Co0 Co28 2.524282 1_555
Co0 Co20 2.576616 1_555
Co0 Co23 2.576619 1_555
Co0 Zr0 2.713170 1_555
Co0 Yb3 2.972403 1_555
Co0 Yb0 3.140437 1_555
Co0 Yb2 3.237685 1_555
Co1 Co3 2.387499 1_555
Co1 Co5 2.387499 1_555
Co1 Co12 2.486391 1_455
Co1 Co14 2.486391 1_565
Co1 Co27 2.524282 1_455
Co1 Co26 2.524282 1_565
Co1 Co18 2.576618 1_555
Co1 Co22 2.576618 1_555
Co1 Zr0 2.713170 1_565
Co1 Yb3 2.972397 1_555
Co1 Yb0 3.140437 1_565
Co1 Yb2 3.237679 1_555
Co2 Co4 2.387499 1_555
Co2 Co3 2.387499 1_555
Co2 Co29 2.524282 1_565
Co2 Co24 2.524282 1_555
Co2 Co21 2.576616 1_555
Co2 Zr0 2.713170 1_665
Co2 Yb3 2.972403 1_555
Co2 Yb0 3.140437 1_665
Co2 Yb2 3.237685 1_555
Co3 Co30 2.624261 1_565
Co3 Yb1 3.055020 1_565
Co3 Yb2 3.055836 1_555
Co3 Yb3 3.260751 1_555
Co4 Yb1 3.055026 1_555
Co4 Yb2 3.055841 1_555
Co4 Yb3 3.260756 1_555
Co5 Yb1 3.055020 1_455
Co5 Yb2 3.055836 1_555
Co5 Yb3 3.260751 1_555
Co6 Yb1 3.058156 1_555
Co6 Yb2 3.065859 1_545
Co6 Yb3 3.229831 1_546
Co7 Co9 2.415319 1_556
Co7 Yb1 3.058162 1_555
Co7 Yb2 3.065864 1_555
Co7 Yb3 3.229836 1_556
Co8 Co9 2.415312 1_656
Co8 Yb1 3.058156 1_555
Co8 Yb2 3.065859 1_655
Co8 Yb3 3.229831 1_656
Co9 Yb0 3.002325 1_555
Co9 Yb3 3.038699 1_555
Co9 Yb2 3.233461 1_554
Co10 Co15 2.410071 1_454
Co10 Co17 2.410071 1_564
Co10 Co8 2.415319 1_454
Co10 Co6 2.415319 1_564
Co10 Co22 2.502851 1_554
Co10 Co18 2.502851 1_554
Co10 Co32 2.561285 1_564
Co10 Co27 2.566430 1_455
Co10 Co26 2.566430 1_565
Co10 Yb0 3.002319 1_565
Co10 Yb3 3.038699 1_555
Co10 Yb2 3.233461 1_554
Co11 Co16 2.410071 1_564
Co11 Co15 2.410071 1_554
Co11 Co6 2.415312 1_564
Co11 Co7 2.415319 1_554
Co11 Co19 2.502851 1_554
Co11 Co21 2.502851 1_554
Co11 Co32 2.561292 1_664
Co11 Co29 2.566427 1_565
Co11 Co24 2.566433 1_555
Co11 Yb0 3.002325 1_665
Co11 Yb3 3.038699 1_555
Co11 Yb2 3.233461 1_554
Co12 Co4 2.365033 1_555
Co12 Co5 2.365040 1_655
Co12 Co24 2.387236 1_555
Co12 Co27 2.387240 1_555
Co12 Co18 2.454842 1_655
Co12 Co21 2.454842 1_555
Co12 Co30 2.479718 1_555
Co12 Co2 2.486384 1_555
Co12 Zr0 2.649071 1_665
Co12 Yb1 3.094273 1_555
Co12 Yb0 3.269160 1_665
Co13 Co5 2.365033 1_655
Co13 Co3 2.365033 1_545
Co13 Co29 2.387237 1_555
Co13 Co25 2.387237 1_555
Co13 Co19 2.454842 1_545
Co13 Co23 2.454842 1_655
Co13 Co30 2.479705 1_555
Co13 Co2 2.486391 1_545
Co13 Zr0 2.649078 1_655
Co13 Yb1 3.094262 1_555
Co13 Yb0 3.269166 1_655
Co14 Co4 2.365033 1_555
Co14 Co3 2.365040 1_545
Co14 Co28 2.387236 1_555
Co14 Co26 2.387240 1_555
Co14 Co22 2.454842 1_545
Co14 Co20 2.454842 1_555
Co14 Co30 2.479718 1_555
Co14 Zr0 2.649071 1_555
Co14 Yb1 3.094273 1_555
Co14 Yb0 3.269160 1_555
Co15 Co7 2.395525 1_555
Co15 Co8 2.395532 1_555
Co15 Co18 2.408816 1_655
Co15 Co21 2.408816 1_555
Co15 Co24 2.416868 1_556
Co15 Co27 2.416872 1_556
Co15 Co32 2.508259 1_665
Co15 Co31 2.548722 1_556
Co15 Yb0 3.096702 1_666
Co15 Yb1 3.137641 1_555
Co16 Co8 2.395525 1_555
Co16 Co6 2.395525 1_555
Co16 Co19 2.408816 1_545
Co16 Co23 2.408816 1_655
Co16 Co9 2.410071 1_656
Co16 Co29 2.416869 1_556
Co16 Co25 2.416869 1_556
Co16 Co32 2.508266 1_655
Co16 Co31 2.548708 1_556
Co16 Yb0 3.096708 1_656
Co16 Yb1 3.137631 1_555
Co17 Co7 2.395525 1_555
Co17 Co6 2.395532 1_555
Co17 Co22 2.408816 1_545
Co17 Co20 2.408816 1_555
Co17 Co9 2.410071 1_556
Co17 Co28 2.416868 1_556
Co17 Co26 2.416872 1_556
Co17 Co32 2.508259 1_555
Co17 Co31 2.548722 1_556
Co17 Yb0 3.096702 1_556
Co17 Yb1 3.137641 1_555
Co18 Co22 2.430003 1_555
Co18 Co5 2.515074 1_555
Co18 Co8 2.517537 1_455
Co18 Co21 2.576225 1_455
Co18 Zr0 2.751204 1_565
Co18 Co32 2.821209 1_565
Co18 Yb2 2.877921 1_555
Co18 Yb1 2.947461 1_455
Co19 Co21 2.430003 1_555
Co19 Co3 2.515069 1_555
Co19 Co6 2.517531 1_565
Co19 Co23 2.576225 1_665
Co19 Co2 2.576619 1_555
Co19 Zr0 2.751211 1_665
Co19 Co32 2.821216 1_665
Co19 Yb2 2.877921 1_555
Co19 Yb1 2.947452 1_565
Co20 Co23 2.430003 1_555
Co20 Co9 2.502851 1_556
Co20 Co4 2.515072 1_555
Co20 Co7 2.517534 1_555
Co20 Co22 2.576225 1_545
Co20 Zr0 2.751208 1_555
Co20 Co32 2.821213 1_555
Co20 Yb2 2.877921 1_555
Co20 Yb1 2.947468 1_555
Co21 Co4 2.515072 1_555
Co21 Co7 2.517534 1_555
Co21 Zr0 2.751208 1_665
Co21 Co32 2.821213 1_665
Co21 Yb2 2.877921 1_555
Co21 Yb1 2.947468 1_555
Co22 Co3 2.515074 1_555
Co22 Co6 2.517537 1_565
Co22 Zr0 2.751204 1_565
Co22 Co32 2.821209 1_565
Co22 Yb2 2.877921 1_555
Co22 Yb1 2.947461 1_565
Co23 Co9 2.502851 1_556
Co23 Co5 2.515069 1_555
Co23 Co8 2.517531 1_455
Co23 Zr0 2.751211 1_555
Co23 Co32 2.821216 1_555
Co23 Yb2 2.877921 1_555
Co23 Yb1 2.947452 1_455
Co24 Co28 2.367430 1_555
Co24 Co27 2.477910 1_555
Co24 Co7 2.488644 1_554
Co24 Co4 2.509127 1_555
Co24 Co30 2.676088 1_555
Co24 Co31 2.694354 1_555
Co24 Yb3 2.933216 1_555
Co24 Yb0 2.986488 1_665
Co25 Co27 2.367430 1_555
Co25 Co29 2.477910 1_555
Co25 Co8 2.488644 1_554
Co25 Co5 2.509127 1_655
Co25 Co9 2.566427 1_655
Co25 Co30 2.676080 1_555
Co25 Co31 2.694347 1_555
Co25 Yb3 2.933211 1_655
Co25 Yb0 2.986488 1_655
Co26 Co29 2.367430 1_555
Co26 Co28 2.477910 1_555
Co26 Co6 2.488644 1_554
Co26 Co3 2.509127 1_545
Co26 Co30 2.676084 1_555
Co26 Co31 2.694350 1_555
Co26 Yb3 2.933208 1_545
Co26 Yb0 2.986488 1_555
Co27 Co8 2.488644 1_554
Co27 Co5 2.509127 1_655
Co27 Co30 2.676084 1_555
Co27 Co31 2.694350 1_555
Co27 Yb3 2.933208 1_655
Co27 Yb0 2.986488 1_665
Co28 Co7 2.488644 1_554
Co28 Co4 2.509127 1_555
Co28 Co9 2.566433 1_555
Co28 Co30 2.676088 1_555
Co28 Co31 2.694354 1_555
Co28 Yb3 2.933216 1_555
Co28 Yb0 2.986488 1_555
Co29 Co6 2.488644 1_554
Co29 Co3 2.509127 1_545
Co29 Co30 2.676080 1_555
Co29 Co31 2.694347 1_555
Co29 Yb3 2.933211 1_545
Co29 Yb0 2.986488 1_655
Co30 Co31 2.314889 1_555
Co30 Co5 2.624261 1_655
Co30 Co4 2.624268 1_555
Co30 Yb1 2.945237 1_555
Co31 Co6 2.588457 1_554
Co31 Co8 2.588457 1_554
Co31 Co7 2.588463 1_554
Co31 Yb1 2.900346 1_554
Co32 Zr0 2.441679 1_555
Co32 Co9 2.561292 1_556
Co32 Yb0 2.671600 1_556
