# generated using pymatgen
data_Y5Mg
_symmetry_space_group_name_H-M   'P 1'
_cell_length_a   18.73522254
_cell_length_b   18.73522254
_cell_length_c   11.57805254
_cell_angle_alpha   90.00000000
_cell_angle_beta   90.00000000
_cell_angle_gamma   157.74762253
_symmetry_Int_Tables_number   1
_chemical_formula_structural   Y5Mg
_chemical_formula_sum   'Y40 Mg8'
_cell_volume   1538.98238904
_cell_formula_units_Z   8
loop_
 _symmetry_equiv_pos_site_id
 _symmetry_equiv_pos_as_xyz
  1  'x, y, z'
loop_
 _atom_site_type_symbol
 _atom_site_label
 _atom_site_symmetry_multiplicity
 _atom_site_fract_x
 _atom_site_fract_y
 _atom_site_fract_z
 _atom_site_occupancy
  Y  Y0_0  1  0.00025893  0.99974107  0.00000000  1
  Y  Y0_1  1  0.00025893  0.99974107  0.50000000  1
  Y  Y0_2  1  0.00025892  0.49974107  0.00000000  1
  Y  Y0_3  1  0.00025892  0.49974107  0.50000000  1
  Y  Y0_4  1  0.50025892  0.99974107  0.00000000  1
  Y  Y0_5  1  0.50025892  0.99974107  0.50000000  1
  Y  Y0_6  1  0.50025892  0.49974107  0.00000000  1
  Y  Y0_7  1  0.50025892  0.49974107  0.50000000  1
  Y  Y1_0  1  0.16472112  0.33527887  0.00000000  1
  Y  Y1_1  1  0.16472112  0.33527887  0.50000000  1
  Y  Y1_2  1  0.16472112  0.83527887  0.00000000  1
  Y  Y1_3  1  0.16472112  0.83527887  0.50000000  1
  Y  Y1_4  1  0.66472112  0.33527887  0.00000000  1
  Y  Y1_5  1  0.66472112  0.33527887  0.50000000  1
  Y  Y1_6  1  0.66472113  0.83527887  0.00000000  1
  Y  Y1_7  1  0.66472113  0.83527887  0.50000000  1
  Y  Y2_0  1  0.33370488  0.16629512  0.00000000  1
  Y  Y2_1  1  0.33370488  0.16629512  0.50000000  1
  Y  Y2_2  1  0.33370487  0.66629512  0.00000000  1
  Y  Y2_3  1  0.33370487  0.66629512  0.50000000  1
  Y  Y2_4  1  0.83370487  0.16629512  0.00000000  1
  Y  Y2_5  1  0.83370487  0.16629512  0.50000000  1
  Y  Y2_6  1  0.83370488  0.66629512  0.00000000  1
  Y  Y2_7  1  0.83370488  0.66629512  0.50000000  1
  Y  Y3_0  1  0.05723773  0.44276226  0.25000000  1
  Y  Y3_1  1  0.05723773  0.44276226  0.75000000  1
  Y  Y3_2  1  0.05723773  0.94276226  0.25000000  1
  Y  Y3_3  1  0.05723773  0.94276226  0.75000000  1
  Y  Y3_4  1  0.55723773  0.44276226  0.25000000  1
  Y  Y3_5  1  0.55723773  0.44276226  0.75000000  1
  Y  Y3_6  1  0.55723774  0.94276227  0.25000000  1
  Y  Y3_7  1  0.55723774  0.94276227  0.75000000  1
  Y  Y4_0  1  0.22208850  0.27791150  0.25000000  1
  Y  Y4_1  1  0.22208850  0.27791150  0.75000000  1
  Y  Y4_2  1  0.22208850  0.77791150  0.25000000  1
  Y  Y4_3  1  0.22208850  0.77791150  0.75000000  1
  Y  Y4_4  1  0.72208850  0.27791149  0.25000000  1
  Y  Y4_5  1  0.72208850  0.27791149  0.75000000  1
  Y  Y4_6  1  0.72208850  0.77791150  0.25000000  1
  Y  Y4_7  1  0.72208850  0.77791150  0.75000000  1
  Mg  Mg0_0  1  0.38865533  0.11134466  0.25000000  1
  Mg  Mg0_1  1  0.38865533  0.11134466  0.75000000  1
  Mg  Mg0_2  1  0.38865533  0.61134466  0.25000000  1
  Mg  Mg0_3  1  0.38865533  0.61134466  0.75000000  1
  Mg  Mg0_4  1  0.88865533  0.11134466  0.25000000  1
  Mg  Mg0_5  1  0.88865533  0.11134466  0.75000000  1
  Mg  Mg0_6  1  0.88865533  0.61134466  0.25000000  1
  Mg  Mg0_7  1  0.88865533  0.61134466  0.75000000  1
loop_
_geom_bond_atom_site_label_1
_geom_bond_atom_site_label_2
_geom_bond_distance
_geom_bond_site_symmetry_2
Y0_0 Y2_0 3.560931 1_565
Y0_0 Y2_6 3.560931 1_455
Y0_0 Y4_7 3.566314 1_454
Y0_0 Y4_6 3.566314 1_455
Y0_0 Y4_0 3.566314 1_565
Y0_0 Y4_1 3.566314 1_564
Y0_0 Y3_3 3.573063 1_554
Y0_0 Y3_2 3.573063 1_555
Y0_0 Y0_6 3.615345 1_565
Y0_0 Y0_6 3.615345 1_455
Y0_0 Y1_0 3.627404 1_565
Y0_0 Y1_6 3.627404 1_455
Y0_1 Y2_1 3.560931 1_565
Y0_1 Y2_7 3.560931 1_455
Y0_1 Y4_6 3.566314 1_455
Y0_1 Y4_7 3.566314 1_455
Y0_1 Y4_1 3.566314 1_565
Y0_1 Y4_0 3.566314 1_565
Y0_1 Y3_3 3.573063 1_555
Y0_1 Y3_2 3.573063 1_555
Y0_1 Y0_7 3.615345 1_565
Y0_1 Y0_7 3.615345 1_455
Y0_1 Y1_1 3.627404 1_565
Y0_1 Y1_7 3.627404 1_455
Y0_2 Y2_4 3.560931 1_455
Y0_2 Y2_2 3.560931 1_555
Y0_2 Y4_3 3.566314 1_554
Y0_2 Y4_2 3.566314 1_555
Y0_2 Y4_4 3.566314 1_455
Y0_2 Y4_5 3.566314 1_454
Y0_2 Y3_1 3.573063 1_554
Y0_2 Y3_0 3.573063 1_555
Y0_2 Y0_4 3.615345 1_555
Y0_2 Y0_4 3.615345 1_445
Y0_2 Y1_2 3.627404 1_555
Y0_2 Y1_4 3.627404 1_455
Y0_3 Y2_5 3.560931 1_455
Y0_3 Y2_3 3.560931 1_555
Y0_3 Y4_2 3.566314 1_555
Y0_3 Y4_3 3.566314 1_555
Y0_3 Y4_4 3.566314 1_455
Y0_3 Y4_5 3.566314 1_455
Y0_3 Y3_1 3.573063 1_555
Y0_3 Y3_0 3.573063 1_555
Y0_3 Y0_5 3.615345 1_555
Y0_3 Y0_5 3.615345 1_445
Y0_3 Y1_3 3.627404 1_555
Y0_3 Y1_5 3.627404 1_455
Y0_4 Y2_4 3.560931 1_565
Y0_4 Y2_2 3.560931 1_555
Y0_4 Y4_2 3.566314 1_555
Y0_4 Y4_3 3.566314 1_554
Y0_4 Y4_4 3.566314 1_565
Y0_4 Y4_5 3.566314 1_564
Y0_4 Y3_7 3.573063 1_554
Y0_4 Y3_6 3.573063 1_555
Y0_4 Y1_2 3.627404 1_555
Y0_4 Y1_4 3.627404 1_565
Y0_5 Y2_5 3.560931 1_565
Y0_5 Y2_3 3.560931 1_555
Y0_5 Y4_2 3.566314 1_555
Y0_5 Y4_5 3.566314 1_565
Y0_5 Y4_3 3.566314 1_555
Y0_5 Y4_4 3.566314 1_565
Y0_5 Y3_6 3.573063 1_555
Y0_5 Y3_7 3.573063 1_555
Y0_5 Y1_3 3.627404 1_555
Y0_5 Y1_5 3.627404 1_565
Y0_6 Y2_6 3.560931 1_555
Y0_6 Y2_0 3.560931 1_555
Y0_6 Y4_1 3.566314 1_554
Y0_6 Y4_0 3.566314 1_555
Y0_6 Y4_6 3.566314 1_555
Y0_6 Y4_7 3.566314 1_554
Y0_6 Y3_4 3.573063 1_555
Y0_6 Y3_5 3.573063 1_554
Y0_6 Y1_0 3.627404 1_555
Y0_6 Y1_6 3.627404 1_555
Y0_7 Y2_7 3.560931 1_555
Y0_7 Y2_1 3.560931 1_555
Y0_7 Y4_1 3.566314 1_555
Y0_7 Y4_0 3.566314 1_555
Y0_7 Y4_6 3.566314 1_555
Y0_7 Y4_7 3.566314 1_555
Y0_7 Y3_4 3.573063 1_555
Y0_7 Y3_5 3.573063 1_555
Y0_7 Y1_1 3.627404 1_555
Y0_7 Y1_7 3.627404 1_555
Y1_0 Y2_2 3.484262 1_555
Y1_0 Y2_4 3.484262 1_455
Y1_0 Y4_1 3.581458 1_554
Y1_0 Y4_0 3.581458 1_555
Y1_0 Y1_6 3.615345 1_555
Y1_0 Y1_6 3.615345 1_445
Y1_1 Y2_3 3.484262 1_555
Y1_1 Y2_5 3.484262 1_455
Y1_1 Y4_1 3.581458 1_555
Y1_1 Y4_0 3.581458 1_555
Y1_1 Y1_7 3.615345 1_445
Y1_1 Y1_7 3.615345 1_555
Y1_2 Y2_0 3.484262 1_565
Y1_2 Y2_6 3.484262 1_455
Y1_2 Y4_3 3.581458 1_554
Y1_2 Y4_2 3.581458 1_555
Y1_2 Y1_4 3.615345 1_565
Y1_2 Y1_4 3.615345 1_455
Y1_3 Y2_7 3.484262 1_455
Y1_3 Y2_1 3.484262 1_565
Y1_3 Y4_2 3.581458 1_555
Y1_3 Y4_3 3.581458 1_555
Y1_3 Y1_5 3.615345 1_565
Y1_3 Y1_5 3.615345 1_455
Y1_4 Y2_0 3.484262 1_555
Y1_4 Y2_6 3.484262 1_555
Y1_4 Y4_5 3.581458 1_554
Y1_4 Y4_4 3.581458 1_555
Y1_5 Y2_1 3.484262 1_555
Y1_5 Y2_7 3.484262 1_555
Y1_5 Y4_5 3.581458 1_555
Y1_5 Y4_4 3.581458 1_555
Y1_6 Y2_2 3.484262 1_555
Y1_6 Y2_4 3.484262 1_565
Y1_6 Y4_6 3.581458 1_555
Y1_6 Y4_7 3.581458 1_554
Y1_7 Y2_3 3.484262 1_555
Y1_7 Y2_5 3.484262 1_565
Y1_7 Y4_6 3.581458 1_555
Y1_7 Y4_7 3.581458 1_555
Y2_0 Y3_3 3.548634 1_544
Y2_0 Y3_2 3.548634 1_545
Y2_0 Y3_5 3.548634 1_554
Y2_0 Y3_4 3.548634 1_555
Y2_0 Y2_6 3.615345 1_445
Y2_0 Y2_6 3.615345 1_555
Y2_1 Y3_5 3.548634 1_555
Y2_1 Y3_2 3.548634 1_545
Y2_1 Y3_3 3.548634 1_545
Y2_1 Y3_4 3.548634 1_555
Y2_1 Y2_7 3.615345 1_555
Y2_1 Y2_7 3.615345 1_445
Y2_2 Y3_1 3.548634 1_554
Y2_2 Y3_0 3.548634 1_555
Y2_2 Y3_7 3.548634 1_554
Y2_2 Y3_6 3.548634 1_555
Y2_2 Y2_4 3.615345 1_455
Y2_2 Y2_4 3.615345 1_565
Y2_3 Y3_1 3.548634 1_555
Y2_3 Y3_0 3.548634 1_555
Y2_3 Y3_7 3.548634 1_555
Y2_3 Y3_6 3.548634 1_555
Y2_3 Y2_5 3.615345 1_565
Y2_3 Y2_5 3.615345 1_455
Y2_4 Y3_6 3.548634 1_545
Y2_4 Y3_7 3.548634 1_544
Y2_4 Y3_0 3.548634 1_655
Y2_4 Y3_1 3.548634 1_654
Y2_5 Y3_6 3.548634 1_545
Y2_5 Y3_7 3.548634 1_545
Y2_5 Y3_0 3.548634 1_655
Y2_5 Y3_1 3.548634 1_655
Y2_6 Y3_3 3.548634 1_654
Y2_6 Y3_2 3.548634 1_655
Y2_6 Y3_4 3.548634 1_555
Y2_6 Y3_5 3.548634 1_554
Y2_7 Y3_3 3.548634 1_655
Y2_7 Y3_2 3.548634 1_655
Y2_7 Y3_4 3.548634 1_555
Y2_7 Y3_5 3.548634 1_555
Y3_0 Y4_2 3.615025 1_555
Y3_0 Y4_4 3.615025 1_455
Y3_0 Y3_6 3.615345 1_445
Y3_0 Y3_6 3.615345 1_555
Y3_1 Y4_3 3.615025 1_555
Y3_1 Y4_5 3.615025 1_455
Y3_1 Y3_7 3.615345 1_445
Y3_1 Y3_7 3.615345 1_555
Y3_2 Y4_6 3.615025 1_455
Y3_2 Y4_0 3.615025 1_565
Y3_2 Y3_4 3.615345 1_565
Y3_2 Y3_4 3.615345 1_455
Y3_3 Y4_7 3.615025 1_455
Y3_3 Y4_1 3.615025 1_565
Y3_3 Y3_5 3.615345 1_565
Y3_3 Y3_5 3.615345 1_455
Y3_4 Y4_0 3.615025 1_555
Y3_4 Y4_6 3.615025 1_555
Y3_5 Y4_1 3.615025 1_555
Y3_5 Y4_7 3.615025 1_555
Y3_6 Y4_4 3.615025 1_565
Y3_6 Y4_2 3.615025 1_555
Y3_7 Y4_5 3.615025 1_565
Y3_7 Y4_3 3.615025 1_555
Y4_0 Y4_6 3.615345 1_445
Y4_0 Y4_6 3.615345 1_555
Y4_1 Y4_7 3.615345 1_445
Y4_1 Y4_7 3.615345 1_555
Y4_2 Y4_4 3.615345 1_565
Y4_2 Y4_4 3.615345 1_455
Y4_3 Y4_5 3.615345 1_565
Y4_3 Y4_5 3.615345 1_455
Mg0_0 Y3_2 3.496885 1_545
Mg0_0 Y3_4 3.496885 1_555
Mg0_0 Y2_1 3.529857 1_555
Mg0_0 Y2_0 3.529857 1_555
Mg0_0 Y1_5 3.544616 1_555
Mg0_0 Y1_4 3.544616 1_555
Mg0_0 Y1_2 3.544616 1_545
Mg0_0 Y1_3 3.544616 1_545
Mg0_0 Y4_4 3.560526 1_555
Mg0_0 Y4_2 3.560526 1_545
Mg0_1 Y3_3 3.496885 1_545
Mg0_1 Y3_5 3.496885 1_555
Mg0_1 Y2_1 3.529857 1_555
Mg0_1 Y2_0 3.529857 1_556
Mg0_1 Y1_5 3.544616 1_555
Mg0_1 Y1_4 3.544616 1_556
Mg0_1 Y1_2 3.544616 1_546
Mg0_1 Y1_3 3.544616 1_545
Mg0_1 Y4_5 3.560526 1_555
Mg0_1 Y4_3 3.560526 1_545
Mg0_2 Y3_0 3.496885 1_555
Mg0_2 Y3_6 3.496885 1_555
Mg0_2 Y2_2 3.529857 1_555
Mg0_2 Y2_3 3.529857 1_555
Mg0_2 Y1_1 3.544616 1_555
Mg0_2 Y1_0 3.544616 1_555
Mg0_2 Y1_6 3.544616 1_555
Mg0_2 Y1_7 3.544616 1_555
Mg0_2 Y4_0 3.560526 1_555
Mg0_2 Y4_6 3.560526 1_555
Mg0_3 Y3_1 3.496885 1_555
Mg0_3 Y3_7 3.496885 1_555
Mg0_3 Y2_2 3.529857 1_556
Mg0_3 Y2_3 3.529857 1_555
Mg0_3 Y1_1 3.544616 1_555
Mg0_3 Y1_0 3.544616 1_556
Mg0_3 Y1_6 3.544616 1_556
Mg0_3 Y1_7 3.544616 1_555
Mg0_3 Y4_1 3.560526 1_555
Mg0_3 Y4_7 3.560526 1_555
Mg0_4 Y3_6 3.496885 1_545
Mg0_4 Y3_0 3.496885 1_655
Mg0_4 Y2_4 3.529857 1_555
Mg0_4 Y2_5 3.529857 1_555
Mg0_4 Y1_6 3.544616 1_545
Mg0_4 Y1_7 3.544616 1_545
Mg0_4 Y1_1 3.544616 1_655
Mg0_4 Y1_0 3.544616 1_655
Mg0_4 Y4_0 3.560526 1_655
Mg0_4 Y4_6 3.560526 1_545
Mg0_5 Y3_7 3.496885 1_545
Mg0_5 Y3_1 3.496885 1_655
Mg0_5 Y2_5 3.529857 1_555
Mg0_5 Y2_4 3.529857 1_556
Mg0_5 Y1_6 3.544616 1_546
Mg0_5 Y1_7 3.544616 1_545
Mg0_5 Y1_0 3.544616 1_656
Mg0_5 Y1_1 3.544616 1_655
Mg0_5 Y4_1 3.560526 1_655
Mg0_5 Y4_7 3.560526 1_545
Mg0_6 Y3_2 3.496885 1_655
Mg0_6 Y3_4 3.496885 1_555
Mg0_6 Y2_6 3.529857 1_555
Mg0_6 Y2_7 3.529857 1_555
Mg0_6 Y1_4 3.544616 1_555
Mg0_6 Y1_5 3.544616 1_555
Mg0_6 Y1_2 3.544616 1_655
Mg0_6 Y1_3 3.544616 1_655
Mg0_6 Y4_2 3.560526 1_655
Mg0_6 Y4_4 3.560526 1_555
Mg0_7 Y3_3 3.496885 1_655
Mg0_7 Y3_5 3.496885 1_555
Mg0_7 Y2_7 3.529857 1_555
Mg0_7 Y2_6 3.529857 1_556
Mg0_7 Y1_4 3.544616 1_556
Mg0_7 Y1_5 3.544616 1_555
Mg0_7 Y1_2 3.544616 1_656
Mg0_7 Y1_3 3.544616 1_655
Mg0_7 Y4_3 3.560526 1_655
Mg0_7 Y4_5 3.560526 1_555
