# generated using pymatgen
data_Sm2Mn2Fe15
_symmetry_space_group_name_H-M   'P 1'
_cell_length_a   6.39122829
_cell_length_b   6.39122829
_cell_length_c   6.39122794
_cell_angle_alpha   82.96872037
_cell_angle_beta   82.96872037
_cell_angle_gamma   82.96871519
_symmetry_Int_Tables_number   1
_chemical_formula_structural   Sm2Mn2Fe15
_chemical_formula_sum   'Sm2 Mn2 Fe15'
_cell_volume   255.62170867
_cell_formula_units_Z   1
loop_
 _symmetry_equiv_pos_site_id
 _symmetry_equiv_pos_as_xyz
  1  'x, y, z'
loop_
 _atom_site_type_symbol
 _atom_site_label
 _atom_site_symmetry_multiplicity
 _atom_site_fract_x
 _atom_site_fract_y
 _atom_site_fract_z
 _atom_site_occupancy
  Sm  Sm0  1  0.65347100  0.65347100  0.65347100  1
  Sm  Sm1  1  0.34652900  0.34652900  0.34652900  1
  Mn  Mn0  1  0.90440700  0.90440700  0.90440700  1
  Mn  Mn1  1  0.09559300  0.09559300  0.09559300  1
  Fe  Fe0  1  0.00000000  0.00000000  0.50000000  1
  Fe  Fe1  1  0.50000000  0.00000000  0.00000000  1
  Fe  Fe2  1  0.00000000  0.50000000  0.00000000  1
  Fe  Fe3  1  0.71175700  0.28824300  0.00000000  1
  Fe  Fe4  1  0.00000000  0.71175700  0.28824300  1
  Fe  Fe5  1  0.28824300  0.00000000  0.71175700  1
  Fe  Fe6  1  0.00000000  0.28824300  0.71175700  1
  Fe  Fe7  1  0.71175700  0.00000000  0.28824300  1
  Fe  Fe8  1  0.28824300  0.71175700  0.00000000  1
  Fe  Fe9  1  0.33924600  0.33924600  0.84751100  1
  Fe  Fe10  1  0.84751100  0.33924600  0.33924600  1
  Fe  Fe11  1  0.33924600  0.84751100  0.33924600  1
  Fe  Fe12  1  0.66075400  0.66075400  0.15248900  1
  Fe  Fe13  1  0.15248900  0.66075400  0.66075400  1
  Fe  Fe14  1  0.66075400  0.15248900  0.66075400  1
loop_
_geom_bond_atom_site_label_1
_geom_bond_atom_site_label_2
_geom_bond_distance
_geom_bond_site_symmetry_2
Mn0 Mn1 2.361319 1_666
Mn0 Sm0 3.099286 1_555
Mn1 Sm1 3.099286 1_555
Fe0 Fe7 2.415752 1_455
Fe0 Fe5 2.415752 1_555
Fe0 Fe6 2.415752 1_555
Fe0 Fe4 2.415752 1_545
Fe0 Fe10 2.426711 1_455
Fe0 Fe11 2.426711 1_545
Fe0 Fe13 2.426711 1_545
Fe0 Fe14 2.426711 1_455
Fe0 Mn0 2.597146 1_445
Fe0 Mn1 2.597146 1_555
Fe0 Sm1 3.302952 1_555
Fe0 Sm0 3.302952 1_445
Fe1 Fe5 2.415752 1_554
Fe1 Fe7 2.415752 1_555
Fe1 Fe8 2.415752 1_545
Fe1 Fe3 2.415752 1_555
Fe1 Fe12 2.426711 1_545
Fe1 Fe9 2.426711 1_554
Fe1 Fe11 2.426711 1_545
Fe1 Fe14 2.426711 1_554
Fe1 Mn0 2.597146 1_544
Fe1 Mn1 2.597146 1_555
Fe1 Sm0 3.302951 1_544
Fe1 Sm1 3.302951 1_555
Fe2 Fe4 2.415752 1_555
Fe2 Fe6 2.415752 1_554
Fe2 Fe8 2.415752 1_555
Fe2 Fe3 2.415752 1_455
Fe2 Fe9 2.426711 1_554
Fe2 Mn0 2.597146 1_454
Fe2 Mn1 2.597146 1_555
Fe2 Sm0 3.302951 1_454
Fe2 Sm1 3.302951 1_555
Fe3 Fe7 2.440639 1_555
Fe3 Fe6 2.440639 1_654
Fe3 Fe9 2.650395 1_554
Fe3 Mn1 2.711213 1_655
Fe3 Mn0 2.711213 1_544
Fe3 Sm0 3.035793 1_554
Fe3 Sm1 3.035793 1_555
Fe4 Fe7 2.440639 1_465
Fe4 Fe8 2.440639 1_555
Fe4 Mn0 2.711213 1_454
Fe4 Mn1 2.711214 1_565
Fe4 Sm1 3.035793 1_555
Fe4 Sm0 3.035793 1_455
Fe5 Fe6 2.440639 1_555
Fe5 Fe8 2.440639 1_546
Fe5 Fe9 2.502593 1_555
Fe5 Mn1 2.711213 1_556
Fe5 Mn0 2.711214 1_445
Fe5 Sm0 3.035793 1_545
Fe5 Sm1 3.035793 1_555
Fe6 Fe9 2.502593 1_555
Fe6 Mn1 2.711213 1_556
Fe6 Mn0 2.711214 1_445
Fe6 Sm0 3.035793 1_455
Fe6 Sm1 3.035793 1_555
Fe7 Mn0 2.711213 1_544
Fe7 Mn1 2.711214 1_655
Fe7 Sm1 3.035793 1_555
Fe7 Sm0 3.035793 1_545
Fe8 Fe9 2.650395 1_554
Fe8 Mn0 2.711213 1_454
Fe8 Mn1 2.711213 1_565
Fe8 Sm0 3.035793 1_554
Fe8 Sm1 3.035793 1_555
Fe9 Mn1 2.597824 1_556
Fe9 Sm0 3.061423 1_555
Fe9 Sm1 3.191236 1_555
Fe9 Sm1 3.201473 1_556
Fe10 Fe2 2.426711 1_655
Fe10 Fe12 2.493910 1_555
Fe10 Fe14 2.493910 1_555
Fe10 Fe3 2.502592 1_555
Fe10 Fe7 2.502593 1_555
Fe10 Mn1 2.597824 1_655
Fe10 Fe6 2.650395 1_655
Fe10 Fe4 2.650395 1_655
Fe10 Sm0 3.061422 1_555
Fe10 Sm1 3.191236 1_555
Fe10 Sm1 3.201473 1_655
Fe11 Fe12 2.493910 1_555
Fe11 Fe13 2.493910 1_555
Fe11 Fe8 2.502592 1_555
Fe11 Fe4 2.502593 1_555
Fe11 Mn1 2.597824 1_565
Fe11 Fe5 2.650395 1_565
Fe11 Fe7 2.650395 1_565
Fe11 Sm0 3.061422 1_555
Fe11 Sm1 3.191236 1_555
Fe11 Sm1 3.201473 1_565
Fe12 Fe2 2.426711 1_655
Fe12 Fe4 2.502593 1_655
Fe12 Fe7 2.502593 1_565
Fe12 Mn0 2.597824 1_554
Fe12 Fe3 2.650395 1_555
Fe12 Fe8 2.650395 1_555
Fe12 Sm1 3.061423 1_555
Fe12 Sm0 3.191236 1_555
Fe12 Sm0 3.201473 1_554
Fe13 Fe2 2.426711 1_556
Fe13 Fe9 2.493910 1_555
Fe13 Fe8 2.502592 1_556
Fe13 Fe5 2.502593 1_565
Fe13 Mn0 2.597824 1_455
Fe13 Fe4 2.650395 1_555
Fe13 Fe6 2.650395 1_555
Fe13 Sm1 3.061422 1_555
Fe13 Sm0 3.191236 1_555
Fe13 Sm0 3.201473 1_455
Fe14 Fe9 2.493910 1_555
Fe14 Fe3 2.502592 1_556
Fe14 Fe6 2.502593 1_655
Fe14 Mn0 2.597824 1_545
Fe14 Fe7 2.650395 1_555
Fe14 Fe5 2.650395 1_555
Fe14 Sm1 3.061422 1_555
Fe14 Sm0 3.191236 1_555
Fe14 Sm0 3.201473 1_545
