# generated using pymatgen
data_LaPr3Al4O12
_symmetry_space_group_name_H-M   'P 1'
_cell_length_a   9.26793516
_cell_length_b   9.26793516
_cell_length_c   9.26793506
_cell_angle_alpha   33.75481165
_cell_angle_beta   33.75481165
_cell_angle_gamma   33.75481211
_symmetry_Int_Tables_number   1
_chemical_formula_structural   LaPr3Al4O12
_chemical_formula_sum   'La1 Pr3 Al4 O12'
_cell_volume   218.98805112
_cell_formula_units_Z   1
loop_
 _symmetry_equiv_pos_site_id
 _symmetry_equiv_pos_as_xyz
  1  'x, y, z'
loop_
 _atom_site_type_symbol
 _atom_site_label
 _atom_site_symmetry_multiplicity
 _atom_site_fract_x
 _atom_site_fract_y
 _atom_site_fract_z
 _atom_site_occupancy
  La  La0  1  0.50000000  0.50000000  0.50000000  1
  Pr  Pr0  1  0.74978200  0.74978200  0.74978200  1
  Pr  Pr1  1  0.25021800  0.25021800  0.25021800  1
  Pr  Pr2  1  0.00000000  0.00000000  0.00000000  1
  Al  Al0  1  0.87512000  0.87512000  0.87512000  1
  Al  Al1  1  0.37490400  0.37490400  0.37490400  1
  Al  Al2  1  0.62509600  0.62509600  0.62509600  1
  Al  Al3  1  0.12488000  0.12488000  0.12488000  1
  O  O0  1  0.24944900  0.79059600  0.71086100  1
  O  O1  1  0.75055100  0.28913900  0.20940400  1
  O  O2  1  0.71086100  0.24944900  0.79059600  1
  O  O3  1  0.20940400  0.75055100  0.28913900  1
  O  O4  1  0.79059600  0.71086100  0.24944900  1
  O  O5  1  0.28913900  0.20940400  0.75055100  1
  O  O6  1  0.03690400  0.50000000  0.96309600  1
  O  O7  1  0.53993500  0.00000000  0.46006500  1
  O  O8  1  0.96309600  0.03690400  0.50000000  1
  O  O9  1  0.46006500  0.53993500  0.00000000  1
  O  O10  1  0.50000000  0.96309600  0.03690400  1
  O  O11  1  0.00000000  0.46006500  0.53993500  1
loop_
_geom_bond_atom_site_label_1
_geom_bond_atom_site_label_2
_geom_bond_distance
_geom_bond_site_symmetry_2
La0 O6 2.492116 1_555
La0 O10 2.492116 1_555
La0 O8 2.492116 1_555
La0 O2 2.696552 1_555
La0 O1 2.696552 1_555
La0 O0 2.696552 1_555
La0 O3 2.696552 1_555
La0 O4 2.696552 1_555
La0 O5 2.696552 1_555
La0 O6 2.889308 1_654
La0 O10 2.889308 1_546
La0 O8 2.889308 1_465
Al0 O4 1.910158 1_556
Al0 O0 1.910158 1_655
Al0 O2 1.910158 1_565
Al0 O8 1.910731 1_565
Al0 O10 1.910731 1_556
Al0 O6 1.910731 1_655
Al1 O9 1.909263 1_555
Al1 O11 1.909263 1_555
Al1 O7 1.909263 1_555
Al1 O5 1.910819 1_555
Al1 O1 1.910819 1_555
Al1 O3 1.910819 1_555
Al2 O9 1.909263 1_556
Al2 O7 1.909263 1_565
Al2 O11 1.909263 1_655
Al2 O4 1.910819 1_555
Al2 O2 1.910819 1_555
Al2 O0 1.910819 1_555
Al3 O5 1.910158 1_554
Al3 O3 1.910158 1_545
Al3 O1 1.910158 1_455
Al3 O8 1.910731 1_455
Al3 O6 1.910731 1_554
Al3 O10 1.910731 1_545
O0 Pr1 2.476172 1_565
O0 Pr2 2.679107 1_566
O0 Pr1 2.905259 1_556
O1 Pr0 2.476172 1_554
O1 Pr2 2.679107 1_655
O1 Pr0 2.905259 1_545
O2 Pr1 2.476172 1_556
O2 Pr2 2.679107 1_656
O2 Pr1 2.905259 1_655
O3 Pr0 2.476172 1_455
O3 Pr2 2.679107 1_565
O3 Pr0 2.905259 1_554
O4 Pr1 2.476172 1_655
O4 Pr2 2.679107 1_665
O4 Pr1 2.905259 1_565
O5 Pr0 2.476172 1_545
O5 Pr2 2.679107 1_556
O5 Pr0 2.905259 1_455
O6 Pr1 2.691245 1_556
O6 Pr0 2.691245 1_455
O7 Pr2 2.475805 1_655
O7 Pr0 2.683223 1_545
O7 Pr1 2.683223 1_555
O7 Pr2 2.905619 1_556
O8 Pr0 2.691245 1_545
O8 Pr1 2.691245 1_655
O9 Pr2 2.475805 1_565
O9 Pr1 2.683223 1_555
O9 Pr0 2.683223 1_554
O9 Pr2 2.905619 1_655
O10 Pr0 2.691245 1_554
O10 Pr1 2.691245 1_565
O11 Pr2 2.475805 1_556
O11 Pr1 2.683223 1_555
O11 Pr0 2.683223 1_455
O11 Pr2 2.905619 1_565
