# generated using pymatgen
data_CsH4NO
_symmetry_space_group_name_H-M   'P 1'
_cell_length_a   4.49404220
_cell_length_b   8.45206285
_cell_length_c   18.92482100
_cell_angle_alpha   90.00000000
_cell_angle_beta   90.00000000
_cell_angle_gamma   92.70837913
_symmetry_Int_Tables_number   1
_chemical_formula_structural   CsH4NO
_chemical_formula_sum   'Cs8 H32 N8 O8'
_cell_volume   718.03606117
_cell_formula_units_Z   8
loop_
 _symmetry_equiv_pos_site_id
 _symmetry_equiv_pos_as_xyz
  1  'x, y, z'
loop_
 _atom_site_type_symbol
 _atom_site_label
 _atom_site_symmetry_multiplicity
 _atom_site_fract_x
 _atom_site_fract_y
 _atom_site_fract_z
 _atom_site_occupancy
  Cs  Cs0  1  0.74127600  0.42406600  0.78095400  1
  Cs  Cs1  1  0.25872400  0.07593400  0.28095400  1
  Cs  Cs2  1  0.25872400  0.57593400  0.21904600  1
  Cs  Cs3  1  0.74127600  0.92406600  0.71904600  1
  Cs  Cs4  1  0.74572300  0.84158900  0.93962000  1
  Cs  Cs5  1  0.25427700  0.65841100  0.43962000  1
  Cs  Cs6  1  0.25427700  0.15841100  0.06038000  1
  Cs  Cs7  1  0.74572300  0.34158900  0.56038000  1
  H  H0  1  0.14173900  0.64535300  0.62216900  1
  H  H1  1  0.85826100  0.85464700  0.12216900  1
  H  H2  1  0.85826100  0.35464700  0.37783100  1
  H  H3  1  0.14173900  0.14535300  0.87783100  1
  H  H4  1  0.25469300  0.48557500  0.66527000  1
  H  H5  1  0.74530700  0.01442500  0.16527000  1
  H  H6  1  0.74530700  0.51442500  0.33473000  1
  H  H7  1  0.25469300  0.98557500  0.83473000  1
  H  H8  1  0.25696300  0.65980400  0.70519400  1
  H  H9  1  0.74303700  0.84019600  0.20519400  1
  H  H10  1  0.74303700  0.34019600  0.29480600  1
  H  H11  1  0.25696300  0.15980400  0.79480600  1
  H  H12  1  0.23775600  0.18994000  0.66649500  1
  H  H13  1  0.76224400  0.31006000  0.16649500  1
  H  H14  1  0.76224400  0.81006000  0.33350500  1
  H  H15  1  0.23775600  0.68994000  0.83350500  1
  H  H16  1  0.45798400  0.42527600  0.93827300  1
  H  H17  1  0.54201600  0.07472400  0.43827300  1
  H  H18  1  0.54201600  0.57472400  0.06172700  1
  H  H19  1  0.45798400  0.92527600  0.56172700  1
  H  H20  1  0.24735700  0.56820900  0.96380700  1
  H  H21  1  0.75264300  0.93179100  0.46380700  1
  H  H22  1  0.75264300  0.43179100  0.03619300  1
  H  H23  1  0.24735700  0.06820900  0.53619300  1
  H  H24  1  0.09644900  0.40053000  0.93278700  1
  H  H25  1  0.90355100  0.09947000  0.43278700  1
  H  H26  1  0.90355100  0.59947000  0.06721300  1
  H  H27  1  0.09644900  0.90053000  0.56721300  1
  H  H28  1  0.34350600  0.80633800  0.07691200  1
  H  H29  1  0.65649400  0.69366200  0.57691200  1
  H  H30  1  0.65649400  0.19366200  0.92308800  1
  H  H31  1  0.34350600  0.30633800  0.42308800  1
  N  N0  1  0.29922200  0.60603000  0.65706500  1
  N  N1  1  0.70077800  0.89397000  0.15706500  1
  N  N2  1  0.70077800  0.39397000  0.34293500  1
  N  N3  1  0.29922200  0.10603000  0.84293500  1
  N  N4  1  0.27032700  0.48440100  0.92490600  1
  N  N5  1  0.72967300  0.01559900  0.42490600  1
  N  N6  1  0.72967300  0.51559900  0.07509400  1
  N  N7  1  0.27032700  0.98440100  0.57509400  1
  O  O0  1  0.19841800  0.27109800  0.70178500  1
  O  O1  1  0.80158200  0.22890200  0.20178500  1
  O  O2  1  0.80158200  0.72890200  0.29821500  1
  O  O3  1  0.19841800  0.77109800  0.79821500  1
  O  O4  1  0.20270300  0.77687400  0.03917200  1
  O  O5  1  0.79729700  0.72312600  0.53917200  1
  O  O6  1  0.79729700  0.22312600  0.96082800  1
  O  O7  1  0.20270300  0.27687400  0.46082800  1
loop_
_geom_bond_atom_site_label_1
_geom_bond_atom_site_label_2
_geom_bond_distance
_geom_bond_site_symmetry_2
Cs0 O0 2.896204 1_655
Cs1 O1 2.896204 1_455
Cs2 O2 2.896204 1_455
Cs3 O3 2.896204 1_655
Cs4 O4 2.858749 1_656
Cs5 O5 2.858749 1_455
Cs6 O6 2.858749 1_454
Cs7 O7 2.858749 1_655
H0 N0 1.034269 1_555
H1 N1 1.034269 1_555
H2 N2 1.034269 1_555
H3 N3 1.034269 1_555
H4 N0 1.039912 1_555
H5 N1 1.039912 1_545
H6 N2 1.039912 1_555
H7 N3 1.039912 1_565
H8 N0 1.039429 1_555
H9 N1 1.039429 1_555
H10 N2 1.039429 1_555
H11 N3 1.039429 1_555
H12 O0 0.979427 1_555
H13 O1 0.979427 1_555
H14 O2 0.979427 1_555
H15 O3 0.979427 1_555
H16 N4 1.031877 1_555
H17 N5 1.031877 1_555
H18 N6 1.031877 1_555
H19 N7 1.031877 1_555
H20 N4 1.030199 1_555
H21 N5 1.030199 1_565
H22 N6 1.030199 1_555
H23 N7 1.030199 1_545
H24 N4 1.040682 1_555
H25 N5 1.040682 1_555
H26 N6 1.040682 1_555
H27 N7 1.040682 1_555
H28 O4 0.978592 1_555
H29 O5 0.978592 1_555
H30 O6 0.978592 1_555
H31 O7 0.978592 1_555
