# generated using pymatgen
data_BaBiO3
_symmetry_space_group_name_H-M   'P 1'
_cell_length_a   12.78814342
_cell_length_b   4.24422182
_cell_length_c   7.68608929
_cell_angle_alpha   119.85280283
_cell_angle_beta   144.65878278
_cell_angle_gamma   62.14360354
_symmetry_Int_Tables_number   1
_chemical_formula_structural   BaBiO3
_chemical_formula_sum   'Ba2 Bi2 O6'
_cell_volume   207.72494216
_cell_formula_units_Z   2
loop_
 _symmetry_equiv_pos_site_id
 _symmetry_equiv_pos_as_xyz
  1  'x, y, z'
loop_
 _atom_site_type_symbol
 _atom_site_label
 _atom_site_symmetry_multiplicity
 _atom_site_fract_x
 _atom_site_fract_y
 _atom_site_fract_z
 _atom_site_occupancy
  Ba  Ba0  1  0.30821600  0.88674600  0.01426800  1
  Ba  Ba1  1  0.64377500  0.97785500  0.97010600  1
  Bi  Bi0  1  0.09845600  0.61803400  0.23699900  1
  Bi  Bi1  1  0.80346500  0.96055800  0.64262500  1
  O  O0  1  0.61432500  0.70932100  0.17646400  1
  O  O1  1  0.56648400  0.42329300  0.48382900  1
  O  O2  1  0.17883700  0.18531700  0.58404400  1
  O  O3  1  0.28117800  0.29918200  0.59577200  1
  O  O4  1  0.55646500  0.27268300  0.61014000  1
  O  O5  1  0.94880000  0.16700700  0.68575700  1
loop_
_geom_bond_atom_site_label_1
_geom_bond_atom_site_label_2
_geom_bond_distance
_geom_bond_site_symmetry_2
Ba0 O4 2.721685 1_565
Ba0 O0 2.768257 1_555
Ba0 O3 2.773173 1_554
Ba0 O5 2.804153 1_464
Ba0 O2 2.900253 1_554
Ba0 O1 2.918781 1_565
Ba0 O2 2.926495 1_564
Ba0 O1 3.058177 1_555
Ba1 O0 2.670533 1_556
Ba1 O0 2.697270 1_566
Ba1 O4 2.751084 1_565
Ba1 O4 2.774585 1_555
Ba1 O3 2.805426 1_565
Ba1 O1 2.806318 1_555
Ba1 O5 3.105160 1_566
Bi0 O3 2.267895 1_555
Bi0 O2 2.326918 1_565
Bi0 O5 2.720073 1_454
Bi1 O0 2.071983 1_555
Bi1 O5 2.135272 1_565
Bi1 O1 2.306689 1_565
Bi1 O4 2.631865 1_565
O1 O4 1.504936 1_555
O2 O3 1.519779 1_555
