# generated using pymatgen
data_Li9Mn2Co5O16
_symmetry_space_group_name_H-M   'P 1'
_cell_length_a   2.99159100
_cell_length_b   10.00935910
_cell_length_c   10.11324340
_cell_angle_alpha   107.01431606
_cell_angle_beta   91.08061844
_cell_angle_gamma   91.60850547
_symmetry_Int_Tables_number   1
_chemical_formula_structural   Li9Mn2Co5O16
_chemical_formula_sum   'Li9 Mn2 Co5 O16'
_cell_volume   289.34544094
_cell_formula_units_Z   1
loop_
 _symmetry_equiv_pos_site_id
 _symmetry_equiv_pos_as_xyz
  1  'x, y, z'
loop_
 _atom_site_type_symbol
 _atom_site_label
 _atom_site_symmetry_multiplicity
 _atom_site_fract_x
 _atom_site_fract_y
 _atom_site_fract_z
 _atom_site_occupancy
  Li  Li0  1  0.99507700  0.24884100  0.26101200  1
  Li  Li1  1  0.50800600  0.50064100  0.74567200  1
  Li  Li2  1  0.01519500  0.74600200  0.24574900  1
  Li  Li3  1  0.50232800  0.50012000  0.25267500  1
  Li  Li4  1  0.00414400  0.74889900  0.74855500  1
  Li  Li5  1  0.48118200  0.01012100  0.25779800  1
  Li  Li6  1  0.50818900  0.99709800  0.74868800  1
  Li  Li7  1  0.98503900  0.25399300  0.74615000  1
  Li  Li8  1  0.51460100  0.24493900  0.48984900  1
  Mn  Mn0  1  0.99863200  0.00064900  0.00073600  1
  Mn  Mn1  1  0.98659900  0.00484300  0.49997100  1
  Co  Co0  1  0.00131400  0.49933300  0.99905900  1
  Co  Co1  1  0.48995400  0.74983800  0.50356200  1
  Co  Co2  1  0.01353800  0.49128500  0.50037800  1
  Co  Co3  1  0.50962400  0.74821000  0.00061600  1
  Co  Co4  1  0.49175000  0.25175100  0.99927900  1
  O  O0  1  0.45241000  0.13005900  0.11759400  1
  O  O1  1  0.00528000  0.39157100  0.61463200  1
  O  O2  1  0.51289100  0.62545300  0.11806200  1
  O  O3  1  0.00480000  0.37734300  0.11382300  1
  O  O4  1  0.47219600  0.62395300  0.61156900  1
  O  O5  1  0.02062200  0.87210800  0.11365900  1
  O  O6  1  0.95926200  0.87121100  0.61279900  1
  O  O7  1  0.49867800  0.10788900  0.60882600  1
  O  O8  1  0.55034200  0.38851100  0.38518600  1
  O  O9  1  0.99955400  0.62345000  0.88506000  1
  O  O10  1  0.47816600  0.88204000  0.39614900  1
  O  O11  1  0.03173000  0.62576100  0.39284800  1
  O  O12  1  0.54272900  0.87124900  0.88276100  1
  O  O13  1  0.99627400  0.11296000  0.38193500  1
  O  O14  1  0.97983000  0.12623500  0.88495100  1
  O  O15  1  0.49006200  0.37364500  0.88039600  1
loop_
_geom_bond_atom_site_label_1
_geom_bond_atom_site_label_2
_geom_bond_distance
_geom_bond_site_symmetry_2
Li0 O13 2.078189 1_555
Li0 O8 2.107514 1_555
Li0 O0 2.132160 1_655
Li0 O0 2.224066 1_555
Li0 O3 2.234061 1_655
Li0 O8 2.248182 1_655
Li1 O1 2.048398 1_555
Li1 O4 2.087056 1_555
Li1 O9 2.113490 1_555
Li1 O1 2.116609 1_655
Li1 O15 2.118393 1_555
Li1 O9 2.232406 1_455
Li2 O2 2.072364 1_455
Li2 O5 2.089135 1_555
Li2 O2 2.145183 1_555
Li2 O10 2.165299 1_555
Li2 O11 2.170808 1_555
Li2 O10 2.398255 1_455
Li3 O8 1.985550 1_555
Li3 O2 2.104039 1_555
Li3 O3 2.122743 1_555
Li3 O11 2.168984 1_555
Li3 O11 2.204449 1_655
Li3 O3 2.217010 1_655
Li4 O6 2.094692 1_455
Li4 O12 2.107166 1_455
Li4 O9 2.120586 1_455
Li4 O4 2.145106 1_555
Li4 O12 2.184483 1_555
Li4 O4 2.192478 1_455
Li5 O13 2.022842 1_555
Li5 O13 2.033788 1_455
Li5 O0 2.111036 1_555
Li5 O5 2.137879 1_545
Li5 O10 2.156594 1_545
Li5 O5 2.381799 1_645
Li6 O7 2.037026 1_565
Li6 O14 2.083857 1_565
Li6 O12 2.106542 1_555
Li6 O6 2.109340 1_555
Li6 O6 2.226742 1_455
Li6 O14 2.285311 1_465
Li7 O15 2.104676 1_655
Li7 O14 2.157817 1_555
Li7 O15 2.166585 1_555
Li7 O1 2.176999 1_655
Li7 O7 2.190922 1_555
Li7 O7 2.333792 1_655
Li8 O8 2.020593 1_555
Li8 O7 2.072753 1_555
Li8 O13 2.077993 1_455
Li8 O13 2.082073 1_555
Li8 O1 2.150971 1_655
Li8 O1 2.276491 1_555
Mn0 O14 1.953804 1_554
Mn0 O5 1.955942 1_645
Mn0 O0 1.965267 1_655
Mn0 O12 1.973912 1_544
Mn0 O12 2.244502 1_644
Mn0 O0 2.245108 1_555
Mn1 O13 1.830981 1_555
Mn1 O7 1.950836 1_655
Mn1 O7 1.971548 1_555
Mn1 O6 1.997089 1_545
Mn1 O10 2.001588 1_545
Mn1 O10 2.044585 1_645
Co0 O3 1.915138 1_556
Co0 O9 1.926379 1_455
Co0 O15 2.073961 1_455
Co0 O2 2.077786 1_556
Co0 O15 2.108700 1_555
Co0 O2 2.111348 1_456
Co1 O4 1.894071 1_555
Co1 O11 1.925606 1_555
Co1 O6 1.930755 1_555
Co1 O10 1.942855 1_555
Co1 O6 2.146129 1_455
Co1 O11 2.188753 1_655
Co2 O1 1.733924 1_555
Co2 O8 1.869030 1_455
Co2 O11 1.962672 1_555
Co2 O4 1.968811 1_555
Co2 O8 2.110985 1_555
Co2 O4 2.228478 1_455
Co3 O2 1.942921 1_555
Co3 O12 1.950321 1_554
Co3 O5 2.044452 1_655
Co3 O9 2.055553 1_454
Co3 O5 2.078511 1_555
Co3 O9 2.094433 1_554
Co4 O0 1.944081 1_556
Co4 O15 1.947487 1_555
Co4 O14 2.058080 1_455
Co4 O3 2.061632 1_656
Co4 O3 2.087722 1_556
Co4 O14 2.088971 1_555
