# generated using pymatgen
data_Cr3N4
_symmetry_space_group_name_H-M   'P 1'
_cell_length_a   7.67186750
_cell_length_b   7.67186750
_cell_length_c   6.65543800
_cell_angle_alpha   90.00000000
_cell_angle_beta   90.00000000
_cell_angle_gamma   119.99999565
_symmetry_Int_Tables_number   1
_chemical_formula_structural   Cr3N4
_chemical_formula_sum   'Cr12 N16'
_cell_volume   339.24189415
_cell_formula_units_Z   4
loop_
 _symmetry_equiv_pos_site_id
 _symmetry_equiv_pos_as_xyz
  1  'x, y, z'
loop_
 _atom_site_type_symbol
 _atom_site_label
 _atom_site_symmetry_multiplicity
 _atom_site_fract_x
 _atom_site_fract_y
 _atom_site_fract_z
 _atom_site_occupancy
  Cr  Cr0  1  0.46394000  0.09994200  0.26994700  1
  Cr  Cr1  1  0.63600200  0.53606000  0.26994700  1
  Cr  Cr2  1  0.90005800  0.36399800  0.26994700  1
  Cr  Cr3  1  0.36399800  0.90005800  0.76994700  1
  Cr  Cr4  1  0.09994200  0.46394000  0.76994700  1
  Cr  Cr5  1  0.53606000  0.63600200  0.76994700  1
  Cr  Cr6  1  0.19645700  0.24144900  0.51506000  1
  Cr  Cr7  1  0.04499200  0.80354300  0.51506000  1
  Cr  Cr8  1  0.75855100  0.95500800  0.51506000  1
  Cr  Cr9  1  0.95500800  0.75855100  0.01506000  1
  Cr  Cr10  1  0.24144900  0.19645700  0.01506000  1
  Cr  Cr11  1  0.80354300  0.04499200  0.01506000  1
  N  N0  1  0.00000000  0.00000000  0.36314700  1
  N  N1  1  0.00000000  0.00000000  0.86314700  1
  N  N2  1  0.00000000  0.00000000  0.66907100  1
  N  N3  1  0.00000000  0.00000000  0.16907100  1
  N  N4  1  0.32270900  0.95449100  0.50226200  1
  N  N5  1  0.63178200  0.67729100  0.50226200  1
  N  N6  1  0.04550900  0.36821800  0.50226200  1
  N  N7  1  0.36821800  0.04550900  0.00226200  1
  N  N8  1  0.95449100  0.32270900  0.00226200  1
  N  N9  1  0.67729100  0.63178200  0.00226200  1
  N  N10  1  0.38334000  0.30341700  0.28532500  1
  N  N11  1  0.92007700  0.61666000  0.28532500  1
  N  N12  1  0.69658300  0.07992300  0.28532500  1
  N  N13  1  0.07992300  0.69658300  0.78532500  1
  N  N14  1  0.30341700  0.38334000  0.78532500  1
  N  N15  1  0.61666000  0.92007700  0.78532500  1
loop_
_geom_bond_atom_site_label_1
_geom_bond_atom_site_label_2
_geom_bond_distance
_geom_bond_site_symmetry_2
Cr0 N12 1.869147 1_555
Cr0 N7 1.892346 1_555
Cr0 N4 1.897555 1_545
Cr0 N10 1.948058 1_555
Cr1 N10 1.869148 1_555
Cr1 N9 1.892346 1_555
Cr1 N5 1.897555 1_555
Cr1 N11 1.948058 1_555
Cr2 N11 1.869147 1_555
Cr2 N8 1.892346 1_555
Cr2 N6 1.897555 1_655
Cr2 N12 1.948058 1_555
Cr3 N15 1.869147 1_555
Cr3 N4 1.892346 1_555
Cr3 N7 1.897555 1_566
Cr3 N13 1.948058 1_555
Cr4 N13 1.869147 1_555
Cr4 N6 1.892346 1_555
Cr4 N8 1.897555 1_456
Cr4 N14 1.948058 1_555
Cr5 N14 1.869148 1_555
Cr5 N5 1.892346 1_555
Cr5 N9 1.897555 1_556
Cr5 N15 1.948058 1_555
Cr6 N6 1.849453 1_555
Cr6 N0 1.983238 1_555
Cr6 N10 1.984393 1_555
Cr6 N2 1.990392 1_555
Cr6 N14 2.049516 1_555
Cr7 N4 1.849453 1_555
Cr7 N0 1.983237 1_565
Cr7 N11 1.984393 1_455
Cr7 N2 1.990392 1_565
Cr7 N13 2.049516 1_555
Cr8 N5 1.849453 1_555
Cr8 N0 1.983237 1_665
Cr8 N12 1.984393 1_565
Cr8 N2 1.990392 1_665
Cr8 N15 2.049516 1_555
Cr9 N9 1.849453 1_555
Cr9 N1 1.983237 1_664
Cr9 N13 1.984393 1_654
Cr9 N3 1.990392 1_665
Cr9 N11 2.049516 1_555
Cr10 N7 1.849453 1_555
Cr10 N1 1.983238 1_554
Cr10 N14 1.984393 1_554
Cr10 N3 1.990392 1_555
Cr10 N10 2.049516 1_555
Cr11 N8 1.849453 1_555
Cr11 N1 1.983237 1_654
Cr11 N15 1.984393 1_544
Cr11 N3 1.990392 1_655
Cr11 N12 2.049516 1_555
N0 N3 1.291661 1_555
N1 N2 1.291661 1_555
