# generated using pymatgen
data_CuH10Se2(NO5)2
_symmetry_space_group_name_H-M   'P 1'
_cell_length_a   5.57160300
_cell_length_b   7.59358990
_cell_length_c   7.68431895
_cell_angle_alpha   108.14142170
_cell_angle_beta   111.05731035
_cell_angle_gamma   88.28867926
_symmetry_Int_Tables_number   1
_chemical_formula_structural   CuH10Se2(NO5)2
_chemical_formula_sum   'Cu1 H10 Se2 N2 O10'
_cell_volume   287.08403423
_cell_formula_units_Z   1
loop_
 _symmetry_equiv_pos_site_id
 _symmetry_equiv_pos_as_xyz
  1  'x, y, z'
loop_
 _atom_site_type_symbol
 _atom_site_label
 _atom_site_symmetry_multiplicity
 _atom_site_fract_x
 _atom_site_fract_y
 _atom_site_fract_z
 _atom_site_occupancy
  Cu  Cu0  1  0.50000000  0.50000000  0.00000000  1
  H  H0  1  0.27359100  0.26977600  0.47527500  1
  H  H1  1  0.72640900  0.73022400  0.52472500  1
  H  H2  1  0.12138100  0.10410400  0.25577200  1
  H  H3  1  0.87861900  0.89589600  0.74422800  1
  H  H4  1  0.95620200  0.20778800  0.39825600  1
  H  H5  1  0.04379800  0.79221200  0.60174400  1
  H  H6  1  0.06299500  0.33360000  0.28700700  1
  H  H7  1  0.93700500  0.66640000  0.71299300  1
  H  H8  1  0.28233500  0.23629700  0.98625600  1
  H  H9  1  0.71766500  0.76370300  0.01374400  1
  Se  Se0  1  0.17226600  0.71391500  0.26456700  1
  Se  Se1  1  0.82773400  0.28608500  0.73543300  1
  N  N0  1  0.10526500  0.22980000  0.35324200  1
  N  N1  1  0.89473500  0.77020000  0.64675800  1
  O  O0  1  0.03964800  0.84205200  0.11972000  1
  O  O1  1  0.96035200  0.15794800  0.88028000  1
  O  O2  1  0.27214800  0.83723300  0.50181200  1
  O  O3  1  0.72785200  0.16276700  0.49818800  1
  O  O4  1  0.96807200  0.53121800  0.20792900  1
  O  O5  1  0.03192800  0.46878200  0.79207100  1
  O  O6  1  0.46175100  0.63612900  0.24369700  1
  O  O7  1  0.53824900  0.36387100  0.75630300  1
  O  O8  1  0.47089400  0.28599800  0.04815800  1
  O  O9  1  0.52910600  0.71400200  0.95184200  1
loop_
_geom_bond_atom_site_label_1
_geom_bond_atom_site_label_2
_geom_bond_distance
_geom_bond_site_symmetry_2
Cu0 O9 1.799267 1_554
Cu0 O8 1.799267 1_555
Cu0 O7 1.920659 1_554
Cu0 O6 1.920659 1_555
Cu0 O4 2.493401 1_555
Cu0 O5 2.493401 1_554
H0 N0 1.028989 1_555
H1 N1 1.028989 1_555
H2 N0 1.038321 1_555
H3 N1 1.038321 1_555
H4 N0 1.043113 1_655
H5 N1 1.043113 1_455
H6 N0 1.043263 1_555
H7 N1 1.043263 1_555
H8 O8 1.012518 1_556
H8 O1 1.716873 1_455
H9 O9 1.012518 1_554
H9 O0 1.716873 1_655
O0 Se0 1.664963 1_555
O1 Se1 1.664963 1_555
O2 Se0 1.658051 1_555
O3 Se1 1.658051 1_555
O4 Se0 1.664596 1_655
O5 Se1 1.664596 1_455
O6 Se0 1.745289 1_555
O7 Se1 1.745289 1_555
