# generated using pymatgen
data_Ce2(Zn2Ge)3
_symmetry_space_group_name_H-M   'P 1'
_cell_length_a   7.62663035
_cell_length_b   7.62663317
_cell_length_c   4.08018839
_cell_angle_alpha   90.00000000
_cell_angle_beta   90.00000000
_cell_angle_gamma   120.00003427
_symmetry_Int_Tables_number   1
_chemical_formula_structural   Ce2(Zn2Ge)3
_chemical_formula_sum   'Ce2 Zn6 Ge3'
_cell_volume   205.53048773
_cell_formula_units_Z   1
loop_
 _symmetry_equiv_pos_site_id
 _symmetry_equiv_pos_as_xyz
  1  'x, y, z'
loop_
 _atom_site_type_symbol
 _atom_site_label
 _atom_site_symmetry_multiplicity
 _atom_site_fract_x
 _atom_site_fract_y
 _atom_site_fract_z
 _atom_site_occupancy
  Ce  Ce0  1  0.66666700  0.33333300  0.00000000  1
  Ce  Ce1  1  0.33333300  0.66666700  0.00000000  1
  Zn  Zn0  1  0.71473407  0.00003513  0.50000000  1
  Zn  Zn1  1  -0.00003513  0.71469793  0.50000000  1
  Zn  Zn2  1  0.18884075  0.00002303  0.00000000  1
  Zn  Zn3  1  0.81118229  0.81115925  -0.00000000  1
  Zn  Zn4  1  0.28530207  0.28526593  0.50000000  1
  Zn  Zn5  1  -0.00002303  0.18881771  0.00000000  1
  Ge  Ge0  1  0.38254951  0.00006584  0.50000000  1
  Ge  Ge1  1  0.61751533  0.61745049  0.50000000  1
  Ge  Ge2  1  -0.00006484  0.38248467  0.50000000  1
loop_
_geom_bond_atom_site_label_1
_geom_bond_atom_site_label_2
_geom_bond_distance
_geom_bond_site_symmetry_2
Ce0 Ge0 3.132093 1_555
Ce0 Ge0 3.132093 1_554
Ce0 Ge2 3.132095 1_654
Ce0 Ge2 3.132095 1_655
Ce0 Ge1 3.132102 1_554
Ce0 Ge1 3.132102 1_555
Ce0 Zn5 3.237041 1_655
Ce0 Zn2 3.237045 1_555
Ce0 Zn3 3.237048 1_555
Ce0 Zn1 3.419017 1_654
Ce0 Zn1 3.419017 1_655
Ce0 Zn4 3.419017 1_555
Ce0 Zn4 3.419017 1_554
Ce0 Zn0 3.419018 1_554
Ce0 Zn0 3.419018 1_555
Ce1 Ge2 3.132699 1_554
Ce1 Ge2 3.132699 1_555
Ce1 Ge1 3.132703 1_555
Ce1 Ge1 3.132703 1_554
Ce1 Ge0 3.132703 1_565
Ce1 Ge0 3.132703 1_564
Ce1 Zn2 3.237249 1_565
Ce1 Zn5 3.237253 1_555
Ce1 Zn3 3.237254 1_555
Ce1 Zn1 3.419313 1_555
Ce1 Zn1 3.419313 1_554
Ce1 Zn0 3.419319 1_564
Ce1 Zn0 3.419319 1_565
Ce1 Zn4 3.419325 1_554
Ce1 Zn4 3.419325 1_555
Ge0 Zn2 2.518740 1_555
Ge0 Zn2 2.518740 1_556
Ge0 Zn0 2.533566 1_555
Ge0 Zn4 2.625724 1_555
Ge0 Zn1 2.626800 1_545
Ge1 Zn3 2.518742 1_555
Ge1 Zn3 2.518742 1_556
Ge1 Zn4 2.533557 1_555
Ge1 Zn1 2.625737 1_655
Ge1 Zn0 2.626797 1_565
Ge2 Zn5 2.518742 1_555
Ge2 Zn5 2.518742 1_556
Ge2 Zn1 2.533555 1_555
Ge2 Zn0 2.625735 1_455
Ge2 Zn4 2.626805 1_555
