# generated using pymatgen
data_BaMg14NbO16
_symmetry_space_group_name_H-M   'P 1'
_cell_length_a   8.76989411
_cell_length_b   8.95060929
_cell_length_c   4.51469408
_cell_angle_alpha   90.00000000
_cell_angle_beta   90.00000000
_cell_angle_gamma   90.00000000
_symmetry_Int_Tables_number   1
_chemical_formula_structural   BaMg14NbO16
_chemical_formula_sum   'Ba1 Mg14 Nb1 O16'
_cell_volume   354.38495559
_cell_formula_units_Z   1
loop_
 _symmetry_equiv_pos_site_id
 _symmetry_equiv_pos_as_xyz
  1  'x, y, z'
loop_
 _atom_site_type_symbol
 _atom_site_label
 _atom_site_symmetry_multiplicity
 _atom_site_fract_x
 _atom_site_fract_y
 _atom_site_fract_z
 _atom_site_occupancy
  Ba  Ba0  1  -0.00000000  -0.00000000  -0.00000000  1
  Mg  Mg0  1  0.50000000  -0.00000000  -0.00000000  1
  Mg  Mg1  1  0.50000000  0.50000000  -0.00000000  1
  Mg  Mg2  1  -0.00000000  0.25715596  0.50000000  1
  Mg  Mg3  1  -0.00000000  0.74284404  0.50000000  1
  Mg  Mg4  1  0.50000000  0.25167427  0.50000000  1
  Mg  Mg5  1  0.50000000  0.74832573  0.50000000  1
  Mg  Mg6  1  0.26517393  -0.00000000  0.50000000  1
  Mg  Mg7  1  0.25729228  0.50000000  0.50000000  1
  Mg  Mg8  1  0.73482607  -0.00000000  0.50000000  1
  Mg  Mg9  1  0.74270772  0.50000000  0.50000000  1
  Mg  Mg10  1  0.26166561  0.25539170  -0.00000000  1
  Mg  Mg11  1  0.26166561  0.74460830  0.00000000  1
  Mg  Mg12  1  0.73833439  0.25539170  -0.00000000  1
  Mg  Mg13  1  0.73833439  0.74460830  -0.00000000  1
  Nb  Nb0  1  -0.00000000  0.50000000  -0.00000000  1
  O  O0  1  0.28183133  -0.00000000  -0.00000000  1
  O  O1  1  0.26299189  0.50000000  0.00000000  1
  O  O2  1  0.71816867  -0.00000000  -0.00000000  1
  O  O3  1  0.73700811  0.50000000  -0.00000000  1
  O  O4  1  0.25025742  0.25072910  0.50000000  1
  O  O5  1  0.25025742  0.74927090  0.50000000  1
  O  O6  1  0.74974258  0.25072910  0.50000000  1
  O  O7  1  0.74974258  0.74927090  0.50000000  1
  O  O8  1  -0.00000000  -0.00000000  0.50000000  1
  O  O9  1  -0.00000000  0.50000000  0.50000000  1
  O  O10  1  0.50000000  -0.00000000  0.50000000  1
  O  O11  1  0.50000000  0.50000000  0.50000000  1
  O  O12  1  -0.00000000  0.26820221  -0.00000000  1
  O  O13  1  -0.00000000  0.73179779  -0.00000000  1
  O  O14  1  0.50000000  0.25742085  -0.00000000  1
  O  O15  1  0.50000000  0.74257915  -0.00000000  1
loop_
_geom_bond_atom_site_label_1
_geom_bond_atom_site_label_2
_geom_bond_distance
_geom_bond_site_symmetry_2
Ba0 O8 2.257347 1_555
Ba0 O8 2.257347 1_554
Ba0 O13 2.400573 1_545
Ba0 O12 2.400573 1_555
Ba0 O2 2.471631 1_455
Ba0 O0 2.471631 1_555
Mg0 O0 1.913316 1_555
Mg0 O2 1.913316 1_555
Mg0 O10 2.257347 1_555
Mg0 O10 2.257347 1_554
Mg0 O14 2.304073 1_555
Mg0 O15 2.304073 1_545
Mg1 O3 2.078536 1_555
Mg1 O1 2.078536 1_555
Mg1 O15 2.171231 1_555
Mg1 O14 2.171231 1_555
Mg1 O11 2.257347 1_555
Mg1 O11 2.257347 1_554
Mg2 O9 2.173602 1_555
Mg2 O6 2.195485 1_455
Mg2 O4 2.195485 1_555
Mg2 O12 2.259511 1_556
Mg2 O12 2.259511 1_555
Mg2 O8 2.301703 1_555
Mg3 O9 2.173602 1_555
Mg3 O7 2.195485 1_455
Mg3 O5 2.195485 1_555
Mg3 O13 2.259511 1_555
Mg3 O13 2.259511 1_556
Mg3 O8 2.301703 1_565
Mg4 O4 2.190232 1_555
Mg4 O6 2.190232 1_555
Mg4 O11 2.222667 1_555
Mg4 O10 2.252638 1_555
Mg4 O14 2.257933 1_556
Mg4 O14 2.257933 1_555
Mg5 O5 2.190232 1_555
Mg5 O7 2.190232 1_555
Mg5 O11 2.222667 1_555
Mg5 O10 2.252638 1_565
Mg5 O15 2.257933 1_556
Mg5 O15 2.257933 1_555
Mg6 O10 2.059400 1_555
Mg6 O4 2.247988 1_555
Mg6 O5 2.247988 1_545
Mg6 O0 2.262069 1_555
Mg6 O0 2.262069 1_556
Mg6 O8 2.325547 1_555
Mg7 O11 2.128521 1_555
Mg7 O5 2.231979 1_555
Mg7 O4 2.231979 1_555
Mg7 O9 2.256426 1_555
Mg7 O1 2.257900 1_555
Mg7 O1 2.257900 1_556
Mg8 O10 2.059400 1_555
Mg8 O6 2.247988 1_555
Mg8 O7 2.247988 1_545
Mg8 O2 2.262069 1_555
Mg8 O2 2.262069 1_556
Mg8 O8 2.325547 1_655
Mg9 O11 2.128521 1_555
Mg9 O7 2.231979 1_555
Mg9 O6 2.231979 1_555
Mg9 O9 2.256426 1_655
Mg9 O3 2.257900 1_556
Mg9 O3 2.257900 1_555
Mg10 O14 2.090246 1_555
Mg10 O1 2.189424 1_555
Mg10 O4 2.259948 1_554
Mg10 O4 2.259948 1_555
Mg10 O0 2.292742 1_555
Mg10 O12 2.297643 1_555
Mg11 O15 2.090246 1_555
Mg11 O1 2.189424 1_555
Mg11 O5 2.259948 1_555
Mg11 O5 2.259948 1_554
Mg11 O0 2.292742 1_565
Mg11 O13 2.297643 1_555
Mg12 O14 2.090246 1_555
Mg12 O3 2.189424 1_555
Mg12 O6 2.259948 1_555
Mg12 O6 2.259948 1_554
Mg12 O2 2.292742 1_555
Mg12 O12 2.297643 1_655
Mg13 O15 2.090246 1_555
Mg13 O3 2.189424 1_555
Mg13 O7 2.259948 1_555
Mg13 O7 2.259948 1_554
Mg13 O2 2.292742 1_565
Mg13 O13 2.297643 1_655
Nb0 O12 2.074731 1_555
Nb0 O13 2.074731 1_555
Nb0 O9 2.257347 1_554
Nb0 O9 2.257347 1_555
Nb0 O1 2.306411 1_555
Nb0 O3 2.306411 1_455
