# generated using pymatgen
data_Li2Mg
_symmetry_space_group_name_H-M   'P 1'
_cell_length_a   16.15734490
_cell_length_b   16.15734490
_cell_length_c   10.18351548
_cell_angle_alpha   90.00000000
_cell_angle_beta   90.00000000
_cell_angle_gamma   158.11619447
_symmetry_Int_Tables_number   1
_chemical_formula_structural   Li2Mg
_chemical_formula_sum   'Li32 Mg16'
_cell_volume   990.89319477
_cell_formula_units_Z   16
loop_
 _symmetry_equiv_pos_site_id
 _symmetry_equiv_pos_as_xyz
  1  'x, y, z'
loop_
 _atom_site_type_symbol
 _atom_site_label
 _atom_site_symmetry_multiplicity
 _atom_site_fract_x
 _atom_site_fract_y
 _atom_site_fract_z
 _atom_site_occupancy
  Li  Li0_0  1  0.00010131  0.99989869  0.00000000  1
  Li  Li0_1  1  0.00010131  0.99989869  0.50000000  1
  Li  Li0_2  1  0.00010131  0.49989869  0.00000000  1
  Li  Li0_3  1  0.00010131  0.49989869  0.50000000  1
  Li  Li0_4  1  0.50010131  0.99989869  0.00000000  1
  Li  Li0_5  1  0.50010131  0.99989869  0.50000000  1
  Li  Li0_6  1  0.50010131  0.49989869  0.00000000  1
  Li  Li0_7  1  0.50010131  0.49989869  0.50000000  1
  Li  Li1_0  1  0.16585100  0.33414900  0.00000000  1
  Li  Li1_1  1  0.16585100  0.33414900  0.50000000  1
  Li  Li1_2  1  0.16585100  0.83414900  0.00000000  1
  Li  Li1_3  1  0.16585100  0.83414900  0.50000000  1
  Li  Li1_4  1  0.66585100  0.33414900  0.00000000  1
  Li  Li1_5  1  0.66585100  0.33414900  0.50000000  1
  Li  Li1_6  1  0.66585100  0.83414900  0.00000000  1
  Li  Li1_7  1  0.66585100  0.83414900  0.50000000  1
  Li  Li2_0  1  0.33349922  0.16650079  0.00000000  1
  Li  Li2_1  1  0.33349922  0.16650079  0.50000000  1
  Li  Li2_2  1  0.33349922  0.66650078  0.00000000  1
  Li  Li2_3  1  0.33349922  0.66650078  0.50000000  1
  Li  Li2_4  1  0.83349922  0.16650078  0.00000000  1
  Li  Li2_5  1  0.83349922  0.16650078  0.50000000  1
  Li  Li2_6  1  0.83349922  0.66650078  0.00000000  1
  Li  Li2_7  1  0.83349922  0.66650078  0.50000000  1
  Li  Li3_0  1  0.22175252  0.27824748  0.25000000  1
  Li  Li3_1  1  0.22175252  0.27824748  0.75000000  1
  Li  Li3_2  1  0.22175252  0.77824748  0.25000000  1
  Li  Li3_3  1  0.22175252  0.77824748  0.75000000  1
  Li  Li3_4  1  0.72175252  0.27824748  0.25000000  1
  Li  Li3_5  1  0.72175252  0.27824748  0.75000000  1
  Li  Li3_6  1  0.72175252  0.77824748  0.25000000  1
  Li  Li3_7  1  0.72175252  0.77824748  0.75000000  1
  Mg  Mg0_0  1  0.05493014  0.44506986  0.25000000  1
  Mg  Mg0_1  1  0.05493014  0.44506986  0.75000000  1
  Mg  Mg0_2  1  0.05493014  0.94506986  0.25000000  1
  Mg  Mg0_3  1  0.05493014  0.94506986  0.75000000  1
  Mg  Mg0_4  1  0.55493014  0.44506986  0.25000000  1
  Mg  Mg0_5  1  0.55493014  0.44506986  0.75000000  1
  Mg  Mg0_6  1  0.55493014  0.94506986  0.25000000  1
  Mg  Mg0_7  1  0.55493014  0.94506986  0.75000000  1
  Mg  Mg1_0  1  0.39053181  0.10946819  0.25000000  1
  Mg  Mg1_1  1  0.39053181  0.10946819  0.75000000  1
  Mg  Mg1_2  1  0.39053181  0.60946819  0.25000000  1
  Mg  Mg1_3  1  0.39053181  0.60946819  0.75000000  1
  Mg  Mg1_4  1  0.89053181  0.10946819  0.25000000  1
  Mg  Mg1_5  1  0.89053181  0.10946819  0.75000000  1
  Mg  Mg1_6  1  0.89053181  0.60946819  0.25000000  1
  Mg  Mg1_7  1  0.89053181  0.60946819  0.75000000  1
loop_
_geom_bond_atom_site_label_1
_geom_bond_atom_site_label_2
_geom_bond_distance
_geom_bond_site_symmetry_2
Li0_0 Li2_0 3.058213 1_565
Li0_0 Li2_6 3.058213 1_455
Li0_0 Li0_6 3.066883 1_565
Li0_0 Li0_6 3.066883 1_455
Li0_0 Li1_0 3.081642 1_565
Li0_0 Li1_6 3.081642 1_455
Li0_0 Mg0_2 3.083438 1_555
Li0_0 Mg0_3 3.083438 1_554
Li0_0 Li3_6 3.105143 1_455
Li0_0 Li3_7 3.105143 1_454
Li0_0 Li3_0 3.105143 1_565
Li0_0 Li3_1 3.105143 1_564
Li0_1 Li2_7 3.058213 1_455
Li0_1 Li2_1 3.058213 1_565
Li0_1 Li0_7 3.066883 1_455
Li0_1 Li0_7 3.066883 1_565
Li0_1 Li1_1 3.081642 1_565
Li0_1 Li1_7 3.081642 1_455
Li0_1 Mg0_3 3.083438 1_555
Li0_1 Mg0_2 3.083438 1_555
Li0_1 Li3_6 3.105143 1_455
Li0_1 Li3_7 3.105143 1_455
Li0_1 Li3_1 3.105143 1_565
Li0_1 Li3_0 3.105143 1_565
Li0_2 Li2_2 3.058213 1_555
Li0_2 Li2_4 3.058213 1_455
Li0_2 Li0_4 3.066883 1_555
Li0_2 Li0_4 3.066883 1_445
Li0_2 Li1_4 3.081642 1_455
Li0_2 Li1_2 3.081642 1_555
Li0_2 Mg0_1 3.083438 1_554
Li0_2 Mg0_0 3.083438 1_555
Li0_2 Li3_2 3.105143 1_555
Li0_2 Li3_4 3.105143 1_455
Li0_2 Li3_5 3.105143 1_454
Li0_2 Li3_3 3.105143 1_554
Li0_3 Li2_3 3.058213 1_555
Li0_3 Li2_5 3.058213 1_455
Li0_3 Li0_5 3.066883 1_555
Li0_3 Li0_5 3.066883 1_445
Li0_3 Li1_3 3.081642 1_555
Li0_3 Li1_5 3.081642 1_455
Li0_3 Mg0_0 3.083438 1_555
Li0_3 Mg0_1 3.083438 1_555
Li0_3 Li3_5 3.105143 1_455
Li0_3 Li3_2 3.105143 1_555
Li0_3 Li3_4 3.105143 1_455
Li0_3 Li3_3 3.105143 1_555
Li0_4 Li2_2 3.058213 1_555
Li0_4 Li2_4 3.058213 1_565
Li0_4 Li1_2 3.081642 1_555
Li0_4 Li1_4 3.081642 1_565
Li0_4 Mg0_7 3.083438 1_554
Li0_4 Mg0_6 3.083438 1_555
Li0_4 Li3_2 3.105143 1_555
Li0_4 Li3_3 3.105143 1_554
Li0_4 Li3_5 3.105143 1_564
Li0_4 Li3_4 3.105143 1_565
Li0_5 Li2_5 3.058213 1_565
Li0_5 Li2_3 3.058213 1_555
Li0_5 Li1_3 3.081642 1_555
Li0_5 Li1_5 3.081642 1_565
Li0_5 Mg0_6 3.083438 1_555
Li0_5 Mg0_7 3.083438 1_555
Li0_5 Li3_2 3.105143 1_555
Li0_5 Li3_3 3.105143 1_555
Li0_5 Li3_4 3.105143 1_565
Li0_5 Li3_5 3.105143 1_565
Li0_6 Li2_0 3.058213 1_555
Li0_6 Li2_6 3.058213 1_555
Li0_6 Li1_0 3.081642 1_555
Li0_6 Li1_6 3.081642 1_555
Li0_6 Mg0_5 3.083438 1_554
Li0_6 Mg0_4 3.083438 1_555
Li0_6 Li3_7 3.105143 1_554
Li0_6 Li3_6 3.105143 1_555
Li0_6 Li3_0 3.105143 1_555
Li0_6 Li3_1 3.105143 1_554
Li0_7 Li2_7 3.058213 1_555
Li0_7 Li2_1 3.058213 1_555
Li0_7 Li1_1 3.081642 1_555
Li0_7 Li1_7 3.081642 1_555
Li0_7 Mg0_4 3.083438 1_555
Li0_7 Mg0_5 3.083438 1_555
Li0_7 Li3_6 3.105143 1_555
Li0_7 Li3_7 3.105143 1_555
Li0_7 Li3_0 3.105143 1_555
Li0_7 Li3_1 3.105143 1_555
Li1_0 Li2_4 3.029543 1_455
Li1_0 Li2_2 3.029543 1_555
Li1_0 Li1_6 3.066883 1_445
Li1_0 Li1_6 3.066883 1_555
Li1_0 Mg1_3 3.078676 1_554
Li1_0 Mg1_2 3.078676 1_555
Li1_0 Mg1_5 3.078676 1_454
Li1_0 Mg1_4 3.078676 1_455
Li1_0 Li3_0 3.102766 1_555
Li1_0 Li3_1 3.102766 1_554
Li1_1 Li2_3 3.029543 1_555
Li1_1 Li2_5 3.029543 1_455
Li1_1 Li1_7 3.066883 1_445
Li1_1 Li1_7 3.066883 1_555
Li1_1 Mg1_2 3.078676 1_555
Li1_1 Mg1_3 3.078676 1_555
Li1_1 Mg1_5 3.078676 1_455
Li1_1 Mg1_4 3.078676 1_455
Li1_1 Li3_0 3.102766 1_555
Li1_1 Li3_1 3.102766 1_555
Li1_2 Li2_0 3.029543 1_565
Li1_2 Li2_6 3.029543 1_455
Li1_2 Li1_4 3.066883 1_565
Li1_2 Li1_4 3.066883 1_455
Li1_2 Mg1_6 3.078676 1_455
Li1_2 Mg1_7 3.078676 1_454
Li1_2 Mg1_0 3.078676 1_565
Li1_2 Mg1_1 3.078676 1_564
Li1_2 Li3_3 3.102766 1_554
Li1_2 Li3_2 3.102766 1_555
Li1_3 Li2_1 3.029543 1_565
Li1_3 Li2_7 3.029543 1_455
Li1_3 Li1_5 3.066883 1_455
Li1_3 Li1_5 3.066883 1_565
Li1_3 Mg1_6 3.078676 1_455
Li1_3 Mg1_7 3.078676 1_455
Li1_3 Mg1_1 3.078676 1_565
Li1_3 Mg1_0 3.078676 1_565
Li1_3 Li3_3 3.102766 1_555
Li1_3 Li3_2 3.102766 1_555
Li1_4 Li2_6 3.029543 1_555
Li1_4 Li2_0 3.029543 1_555
Li1_4 Mg1_6 3.078676 1_555
Li1_4 Mg1_0 3.078676 1_555
Li1_4 Mg1_7 3.078676 1_554
Li1_4 Mg1_1 3.078676 1_554
Li1_4 Li3_5 3.102766 1_554
Li1_4 Li3_4 3.102766 1_555
Li1_5 Li2_7 3.029543 1_555
Li1_5 Li2_1 3.029543 1_555
Li1_5 Mg1_0 3.078676 1_555
Li1_5 Mg1_7 3.078676 1_555
Li1_5 Mg1_1 3.078676 1_555
Li1_5 Mg1_6 3.078676 1_555
Li1_5 Li3_5 3.102766 1_555
Li1_5 Li3_4 3.102766 1_555
Li1_6 Li2_4 3.029543 1_565
Li1_6 Li2_2 3.029543 1_555
Li1_6 Mg1_3 3.078676 1_554
Li1_6 Mg1_2 3.078676 1_555
Li1_6 Mg1_4 3.078676 1_565
Li1_6 Mg1_5 3.078676 1_564
Li1_6 Li3_7 3.102766 1_554
Li1_6 Li3_6 3.102766 1_555
Li1_7 Li2_5 3.029543 1_565
Li1_7 Li2_3 3.029543 1_555
Li1_7 Mg1_2 3.078676 1_555
Li1_7 Mg1_3 3.078676 1_555
Li1_7 Mg1_4 3.078676 1_565
Li1_7 Mg1_5 3.078676 1_565
Li1_7 Li3_7 3.102766 1_555
Li1_7 Li3_6 3.102766 1_555
Li2_0 Li2_6 3.066883 1_555
Li2_0 Li2_6 3.066883 1_445
Li2_0 Mg0_5 3.107175 1_554
Li2_0 Mg0_4 3.107175 1_555
Li2_0 Mg0_2 3.107175 1_545
Li2_0 Mg0_3 3.107175 1_544
Li2_0 Mg1_0 3.123417 1_555
Li2_0 Mg1_1 3.123417 1_554
Li2_1 Li2_7 3.066883 1_555
Li2_1 Li2_7 3.066883 1_445
Li2_1 Mg0_5 3.107175 1_555
Li2_1 Mg0_4 3.107175 1_555
Li2_1 Mg0_3 3.107175 1_545
Li2_1 Mg0_2 3.107175 1_545
Li2_1 Mg1_0 3.123417 1_555
Li2_1 Mg1_1 3.123417 1_555
Li2_2 Li2_4 3.066883 1_455
Li2_2 Li2_4 3.066883 1_565
Li2_2 Mg0_1 3.107175 1_554
Li2_2 Mg0_0 3.107175 1_555
Li2_2 Mg0_6 3.107175 1_555
Li2_2 Mg0_7 3.107175 1_554
Li2_2 Mg1_2 3.123417 1_555
Li2_2 Mg1_3 3.123417 1_554
Li2_3 Li2_5 3.066883 1_455
Li2_3 Li2_5 3.066883 1_565
Li2_3 Mg0_1 3.107175 1_555
Li2_3 Mg0_0 3.107175 1_555
Li2_3 Mg0_6 3.107175 1_555
Li2_3 Mg0_7 3.107175 1_555
Li2_3 Mg1_2 3.123417 1_555
Li2_3 Mg1_3 3.123417 1_555
Li2_4 Mg0_1 3.107175 1_654
Li2_4 Mg0_0 3.107175 1_655
Li2_4 Mg0_6 3.107175 1_545
Li2_4 Mg0_7 3.107175 1_544
Li2_4 Mg1_5 3.123417 1_554
Li2_4 Mg1_4 3.123417 1_555
Li2_5 Mg0_0 3.107175 1_655
Li2_5 Mg0_1 3.107175 1_655
Li2_5 Mg0_6 3.107175 1_545
Li2_5 Mg0_7 3.107175 1_545
Li2_5 Mg1_4 3.123417 1_555
Li2_5 Mg1_5 3.123417 1_555
Li2_6 Mg0_2 3.107175 1_655
Li2_6 Mg0_5 3.107175 1_554
Li2_6 Mg0_4 3.107175 1_555
Li2_6 Mg0_3 3.107175 1_654
Li2_6 Mg1_7 3.123417 1_554
Li2_6 Mg1_6 3.123417 1_555
Li2_7 Mg0_5 3.107175 1_555
Li2_7 Mg0_2 3.107175 1_655
Li2_7 Mg0_4 3.107175 1_555
Li2_7 Mg0_3 3.107175 1_655
Li2_7 Mg1_6 3.123417 1_555
Li2_7 Mg1_7 3.123417 1_555
Li3_0 Mg1_2 2.998648 1_555
Li3_0 Mg1_4 2.998648 1_455
Li3_0 Mg0_4 3.052169 1_555
Li3_0 Mg0_2 3.052169 1_545
Li3_0 Li3_6 3.066883 1_445
Li3_0 Li3_6 3.066883 1_555
Li3_1 Mg1_3 2.998648 1_555
Li3_1 Mg1_5 2.998648 1_455
Li3_1 Mg0_3 3.052169 1_545
Li3_1 Mg0_5 3.052169 1_555
Li3_1 Li3_7 3.066883 1_445
Li3_1 Li3_7 3.066883 1_555
Li3_2 Mg1_6 2.998648 1_455
Li3_2 Mg1_0 2.998648 1_565
Li3_2 Mg0_6 3.052169 1_555
Li3_2 Mg0_0 3.052169 1_555
Li3_2 Li3_4 3.066883 1_455
Li3_2 Li3_4 3.066883 1_565
Li3_3 Mg1_7 2.998648 1_455
Li3_3 Mg1_1 2.998648 1_565
Li3_3 Mg0_7 3.052169 1_555
Li3_3 Mg0_1 3.052169 1_555
Li3_3 Li3_5 3.066883 1_455
Li3_3 Li3_5 3.066883 1_565
Li3_4 Mg1_6 2.998648 1_555
Li3_4 Mg1_0 2.998648 1_555
Li3_4 Mg0_6 3.052169 1_545
Li3_4 Mg0_0 3.052169 1_655
Li3_5 Mg1_7 2.998648 1_555
Li3_5 Mg1_1 2.998648 1_555
Li3_5 Mg0_7 3.052169 1_545
Li3_5 Mg0_1 3.052169 1_655
Li3_6 Mg1_2 2.998648 1_555
Li3_6 Mg1_4 2.998648 1_565
Li3_6 Mg0_2 3.052169 1_655
Li3_6 Mg0_4 3.052169 1_555
Li3_7 Mg1_3 2.998648 1_555
Li3_7 Mg1_5 2.998648 1_565
Li3_7 Mg0_3 3.052169 1_655
Li3_7 Mg0_5 3.052169 1_555
Mg0_0 Mg0_6 3.066883 1_445
Mg0_0 Mg0_6 3.066883 1_555
Mg0_0 Mg1_4 3.118905 1_455
Mg0_0 Mg1_2 3.118905 1_555
Mg0_1 Mg0_7 3.066883 1_555
Mg0_1 Mg0_7 3.066883 1_445
Mg0_1 Mg1_5 3.118905 1_455
Mg0_1 Mg1_3 3.118905 1_555
Mg0_2 Mg0_4 3.066883 1_565
Mg0_2 Mg0_4 3.066883 1_455
Mg0_2 Mg1_0 3.118905 1_565
Mg0_2 Mg1_6 3.118905 1_455
Mg0_3 Mg0_5 3.066883 1_565
Mg0_3 Mg0_5 3.066883 1_455
Mg0_3 Mg1_1 3.118905 1_565
Mg0_3 Mg1_7 3.118905 1_455
Mg0_4 Mg1_6 3.118905 1_555
Mg0_4 Mg1_0 3.118905 1_555
Mg0_5 Mg1_1 3.118905 1_555
Mg0_5 Mg1_7 3.118905 1_555
Mg0_6 Mg1_4 3.118905 1_565
Mg0_6 Mg1_2 3.118905 1_555
Mg0_7 Mg1_5 3.118905 1_565
Mg0_7 Mg1_3 3.118905 1_555
Mg1_0 Mg1_6 3.066883 1_555
Mg1_0 Mg1_6 3.066883 1_445
Mg1_1 Mg1_7 3.066883 1_555
Mg1_1 Mg1_7 3.066883 1_445
Mg1_2 Mg1_4 3.066883 1_455
Mg1_2 Mg1_4 3.066883 1_565
Mg1_3 Mg1_5 3.066883 1_455
Mg1_3 Mg1_5 3.066883 1_565
