# generated using pymatgen
data_ZnFeSiO5
_symmetry_space_group_name_H-M   'P 1'
_cell_length_a   5.47101946
_cell_length_b   7.12488234
_cell_length_c   8.13448588
_cell_angle_alpha   90.04053018
_cell_angle_beta   42.09538090
_cell_angle_gamma   71.44191794
_symmetry_Int_Tables_number   1
_chemical_formula_structural   ZnFeSiO5
_chemical_formula_sum   'Zn2 Fe2 Si2 O10'
_cell_volume   186.98996888
_cell_formula_units_Z   2
loop_
 _symmetry_equiv_pos_site_id
 _symmetry_equiv_pos_as_xyz
  1  'x, y, z'
loop_
 _atom_site_type_symbol
 _atom_site_label
 _atom_site_symmetry_multiplicity
 _atom_site_fract_x
 _atom_site_fract_y
 _atom_site_fract_z
 _atom_site_occupancy
  Zn  Zn0  1  0.45501500  0.23075600  0.70377800  1
  Zn  Zn1  1  0.54943600  0.72995300  0.28410700  1
  Fe  Fe0  1  0.49903100  0.48595500  0.99487800  1
  Fe  Fe1  1  0.49933200  0.98606700  0.99653000  1
  Si  Si0  1  0.52537900  0.23107100  0.33418700  1
  Si  Si1  1  0.47123700  0.74172800  0.65828000  1
  O  O0  1  0.51564800  0.03992900  0.23084800  1
  O  O1  1  0.57937400  0.40623300  0.19301900  1
  O  O2  1  0.48371600  0.93257000  0.75994100  1
  O  O3  1  0.41243100  0.56904900  0.80240400  1
  O  O4  1  0.87264600  0.62822600  0.33043100  1
  O  O5  1  0.11927500  0.83249800  0.68443800  1
  O  O6  1  0.12504600  0.34232700  0.66228700  1
  O  O7  1  0.87934100  0.13947200  0.30654400  1
  O  O8  1  0.49344400  0.73648900  0.07615500  1
  O  O9  1  0.50638000  0.23480100  0.91418400  1
loop_
_geom_bond_atom_site_label_1
_geom_bond_atom_site_label_2
_geom_bond_distance
_geom_bond_site_symmetry_2
Fe0 O9 1.883604 1_555
Fe0 O8 1.886259 1_556
Fe0 O3 1.987453 1_555
Fe0 O1 2.001861 1_556
Fe0 O6 2.027490 1_655
Fe0 O4 2.030998 1_456
Fe1 O8 1.894660 1_556
Fe1 O9 1.896765 1_565
Fe1 O5 2.000303 1_655
Fe1 O7 2.000342 1_466
Fe1 O0 2.015333 1_566
Fe1 O2 2.029803 1_555
O0 Si0 1.635567 1_555
O0 Zn1 2.227074 1_545
O1 Si0 1.642169 1_555
O1 Zn1 2.339366 1_555
O2 Si1 1.636664 1_555
O2 Zn0 2.154654 1_565
O3 Si1 1.638867 1_555
O3 Zn0 2.422785 1_555
O4 Si1 1.662478 1_555
O4 Zn1 1.991888 1_555
O5 Si1 1.664476 1_555
O5 Zn1 2.050753 1_555
O6 Si0 1.662932 1_555
O6 Zn0 1.998989 1_555
O7 Si0 1.666052 1_555
O7 Zn0 2.038866 1_555
O8 Zn1 1.928085 1_555
O9 Zn0 1.930821 1_555
