# generated using pymatgen
data_CaTi2O4
_symmetry_space_group_name_H-M   'P 1'
_cell_length_a   6.18198830
_cell_length_b   6.18198830
_cell_length_c   15.82593400
_cell_angle_alpha   90.00000000
_cell_angle_beta   90.00000000
_cell_angle_gamma   120.00000321
_symmetry_Int_Tables_number   1
_chemical_formula_structural   CaTi2O4
_chemical_formula_sum   'Ca6 Ti12 O24'
_cell_volume   523.78894184
_cell_formula_units_Z   6
loop_
 _symmetry_equiv_pos_site_id
 _symmetry_equiv_pos_as_xyz
  1  'x, y, z'
loop_
 _atom_site_type_symbol
 _atom_site_label
 _atom_site_symmetry_multiplicity
 _atom_site_fract_x
 _atom_site_fract_y
 _atom_site_fract_z
 _atom_site_occupancy
  Ca  Ca0  1  0.33333300  0.66666700  0.95904400  1
  Ca  Ca1  1  0.00000000  0.00000000  0.62715500  1
  Ca  Ca2  1  0.66666700  0.33333300  0.66234800  1
  Ca  Ca3  1  0.66666700  0.33333300  0.29434800  1
  Ca  Ca4  1  0.00000000  0.00000000  0.99931600  1
  Ca  Ca5  1  0.00000000  0.00000000  0.37595900  1
  Ti  Ti0  1  0.34492700  0.17246400  0.83495300  1
  Ti  Ti1  1  0.82753600  0.17246400  0.83495300  1
  Ti  Ti2  1  0.01105400  0.50552700  0.49813600  1
  Ti  Ti3  1  0.82753600  0.65507300  0.83495300  1
  Ti  Ti4  1  0.49447300  0.50552700  0.49813600  1
  Ti  Ti5  1  0.33333300  0.66666700  0.33066100  1
  Ti  Ti6  1  0.33333300  0.66666700  0.71360400  1
  Ti  Ti7  1  0.66332700  0.83166300  0.17056600  1
  Ti  Ti8  1  0.49447300  0.98894600  0.49813600  1
  Ti  Ti9  1  0.16833700  0.83166300  0.17056600  1
  Ti  Ti10  1  0.16833700  0.33667300  0.17056600  1
  Ti  Ti11  1  0.66666700  0.33333300  0.04947800  1
  O  O0  1  0.69939200  0.84969600  0.89988000  1
  O  O1  1  0.00000000  0.00000000  0.76744200  1
  O  O2  1  0.15030400  0.84969600  0.89988000  1
  O  O3  1  0.15030400  0.30060800  0.89988000  1
  O  O4  1  0.35989900  0.17995000  0.56093500  1
  O  O5  1  0.49875300  0.99750600  0.75551800  1
  O  O6  1  0.66666700  0.33333300  0.43170600  1
  O  O7  1  0.49875300  0.50124700  0.75551800  1
  O  O8  1  0.66666700  0.33333300  0.92559900  1
  O  O9  1  0.82005000  0.17995000  0.56093500  1
  O  O10  1  0.82005000  0.64010100  0.56093500  1
  O  O11  1  0.00249400  0.50124700  0.75551800  1
  O  O12  1  0.04533000  0.52266500  0.24617000  1
  O  O13  1  0.19272700  0.38545400  0.41792000  1
  O  O14  1  0.19272700  0.80727300  0.41792000  1
  O  O15  1  0.33333300  0.66666700  0.10281900  1
  O  O16  1  0.33333300  0.66666700  0.58672700  1
  O  O17  1  0.47733500  0.52266500  0.24617000  1
  O  O18  1  0.47733500  0.95467000  0.24617000  1
  O  O19  1  0.61454600  0.80727300  0.41792000  1
  O  O20  1  0.83064200  0.66128300  0.09513200  1
  O  O21  1  0.83064200  0.16935800  0.09513200  1
  O  O22  1  0.00000000  0.00000000  0.23555100  1
  O  O23  1  0.33871700  0.16935800  0.09513200  1
loop_
_geom_bond_atom_site_label_1
_geom_bond_atom_site_label_2
_geom_bond_distance
_geom_bond_site_symmetry_2
Ca0 O2 2.171973 1_555
Ca0 O0 2.171978 1_555
Ca0 O3 2.171978 1_555
Ca0 O15 2.275374 1_556
Ca1 O4 2.193376 1_555
Ca1 O10 2.193376 1_445
Ca1 O9 2.193380 1_455
Ca1 O1 2.220173 1_555
Ca2 O9 2.296345 1_555
Ca2 O10 2.296352 1_555
Ca2 O4 2.296352 1_555
Ca2 O11 2.325238 1_655
Ca2 O5 2.325238 1_545
Ca2 O7 2.325243 1_555
Ca3 O18 2.165912 1_545
Ca3 O12 2.165912 1_655
Ca3 O17 2.165917 1_555
Ca3 O6 2.173819 1_555
Ca4 O3 2.250898 1_555
Ca4 O0 2.250898 1_445
Ca4 O2 2.250898 1_545
Ca4 O21 2.363860 1_456
Ca4 O23 2.363864 1_556
Ca4 O20 2.363864 1_446
Ca5 O13 2.167845 1_555
Ca5 O19 2.167845 1_445
Ca5 O14 2.167845 1_545
Ca5 O22 2.222088 1_555
O0 Ti3 2.020912 1_555
O0 Ti1 2.020917 1_565
O1 Ti0 2.133464 1_555
O1 Ti3 2.133464 1_445
O1 Ti1 2.133469 1_455
O2 Ti0 2.020916 1_565
O2 Ti3 2.020916 1_455
O3 Ti0 2.020912 1_555
O3 Ti1 2.020917 1_455
O4 Ti4 2.014057 1_555
O4 Ti8 2.014062 1_545
O5 Ti6 1.891367 1_555
O5 Ti1 2.164034 1_565
O5 Ti0 2.164038 1_565
O6 Ti2 2.122436 1_655
O6 Ti8 2.122436 1_545
O6 Ti4 2.122441 1_555
O7 Ti6 1.891372 1_555
O7 Ti3 2.164034 1_555
O7 Ti0 2.164034 1_555
O8 Ti11 1.960501 1_556
O8 Ti1 2.241649 1_555
O8 Ti3 2.241657 1_555
O8 Ti0 2.241657 1_555
O9 Ti2 2.014058 1_655
O9 Ti8 2.014058 1_545
O10 Ti4 2.014057 1_555
O10 Ti2 2.014062 1_655
O11 Ti6 1.891367 1_555
O11 Ti1 2.164034 1_455
O11 Ti3 2.164038 1_455
O12 Ti5 2.040936 1_555
O12 Ti9 2.050911 1_555
O12 Ti10 2.050915 1_555
O13 Ti5 2.042965 1_555
O13 Ti4 2.063402 1_555
O13 Ti2 2.063402 1_555
O14 Ti5 2.042962 1_555
O14 Ti2 2.063402 1_555
O14 Ti8 2.063402 1_555
O15 Ti9 2.066578 1_555
O15 Ti7 2.066588 1_555
O15 Ti10 2.066588 1_555
O16 Ti6 2.007947 1_555
O16 Ti8 2.223223 1_555
O16 Ti2 2.223223 1_555
O16 Ti4 2.223228 1_555
O17 Ti5 2.040940 1_555
O17 Ti10 2.050911 1_555
O17 Ti7 2.050911 1_555
O18 Ti5 2.040936 1_555
O18 Ti9 2.050911 1_555
O18 Ti7 2.050915 1_555
O19 Ti5 2.042965 1_555
O19 Ti4 2.063402 1_555
O19 Ti8 2.063402 1_555
O20 Ti11 1.898616 1_555
O20 Ti9 2.166545 1_655
O20 Ti7 2.166545 1_555
O21 Ti11 1.898616 1_555
O21 Ti7 2.166545 1_545
O21 Ti10 2.166545 1_655
O22 Ti10 2.075232 1_555
O22 Ti7 2.075232 1_445
O22 Ti9 2.075237 1_545
O23 Ti11 1.898616 1_555
O23 Ti9 2.166545 1_545
O23 Ti10 2.166545 1_555
