# generated using pymatgen
data_Dy11(Mn2C3)6
_symmetry_space_group_name_H-M   'P 1'
_cell_length_a   8.78358298
_cell_length_b   8.78358298
_cell_length_c   8.78358298
_cell_angle_alpha   109.47122063
_cell_angle_beta   109.47122063
_cell_angle_gamma   109.47122063
_symmetry_Int_Tables_number   1
_chemical_formula_structural   Dy11(Mn2C3)6
_chemical_formula_sum   'Dy11 Mn12 C18'
_cell_volume   521.66684460
_cell_formula_units_Z   1
loop_
 _symmetry_equiv_pos_site_id
 _symmetry_equiv_pos_as_xyz
  1  'x, y, z'
loop_
 _atom_site_type_symbol
 _atom_site_label
 _atom_site_symmetry_multiplicity
 _atom_site_fract_x
 _atom_site_fract_y
 _atom_site_fract_z
 _atom_site_occupancy
  Dy  Dy0  1  0.41135000  0.41135000  0.41135000  1
  Dy  Dy1  1  0.58865000  0.00000000  0.00000000  1
  Dy  Dy2  1  0.00000000  0.58865000  0.00000000  1
  Dy  Dy3  1  0.00000000  0.00000000  0.58865000  1
  Dy  Dy4  1  0.00000000  0.00000000  0.00000000  1
  Dy  Dy5  1  0.25000000  0.75000000  0.50000000  1
  Dy  Dy6  1  0.75000000  0.25000000  0.50000000  1
  Dy  Dy7  1  0.75000000  0.50000000  0.25000000  1
  Dy  Dy8  1  0.25000000  0.50000000  0.75000000  1
  Dy  Dy9  1  0.50000000  0.25000000  0.75000000  1
  Dy  Dy10  1  0.50000000  0.75000000  0.25000000  1
  Mn  Mn0  1  0.84393800  0.66030200  0.66030200  1
  Mn  Mn1  1  0.15606200  0.81636400  0.81636400  1
  Mn  Mn2  1  0.00000000  0.33969800  0.18363600  1
  Mn  Mn3  1  0.66030200  0.66030200  0.84393800  1
  Mn  Mn4  1  0.00000000  0.18363600  0.33969800  1
  Mn  Mn5  1  0.81636400  0.81636400  0.15606200  1
  Mn  Mn6  1  0.33969800  0.18363600  0.00000000  1
  Mn  Mn7  1  0.18363600  0.33969800  0.00000000  1
  Mn  Mn8  1  0.66030200  0.84393800  0.66030200  1
  Mn  Mn9  1  0.18363600  0.00000000  0.33969800  1
  Mn  Mn10  1  0.33969800  0.00000000  0.18363600  1
  Mn  Mn11  1  0.81636400  0.15606200  0.81636400  1
  C  C0  1  0.56802600  0.56802600  0.00000000  1
  C  C1  1  0.43197400  0.43197400  0.00000000  1
  C  C2  1  0.56802600  0.00000000  0.56802600  1
  C  C3  1  0.43197400  0.00000000  0.43197400  1
  C  C4  1  0.00000000  0.56802600  0.56802600  1
  C  C5  1  0.00000000  0.43197400  0.43197400  1
  C  C6  1  0.48516400  0.70433200  0.70433200  1
  C  C7  1  0.51483600  0.21916800  0.21916800  1
  C  C8  1  0.00000000  0.29566800  0.78083200  1
  C  C9  1  0.70433200  0.70433200  0.48516400  1
  C  C10  1  0.00000000  0.78083200  0.29566800  1
  C  C11  1  0.21916800  0.21916800  0.51483600  1
  C  C12  1  0.29566800  0.78083200  0.00000000  1
  C  C13  1  0.78083200  0.29566800  0.00000000  1
  C  C14  1  0.70433200  0.48516400  0.70433200  1
  C  C15  1  0.78083200  0.00000000  0.29566800  1
  C  C16  1  0.29566800  0.00000000  0.78083200  1
  C  C17  1  0.21916800  0.51483600  0.21916800  1
loop_
_geom_bond_atom_site_label_1
_geom_bond_atom_site_label_2
_geom_bond_distance
_geom_bond_site_symmetry_2
Dy4 Mn7 2.880288 1_555
Dy4 Mn4 2.880288 1_555
Dy4 Mn9 2.880288 1_555
Dy4 Mn3 2.880288 1_444
Dy4 Mn5 2.880288 1_445
Dy4 Mn6 2.880288 1_555
Dy4 Mn1 2.880288 1_544
Dy4 Mn10 2.880288 1_555
Dy4 Mn2 2.880288 1_555
Dy4 Mn11 2.880288 1_454
Dy4 Mn0 2.880288 1_444
Dy4 Mn8 2.880288 1_444
C0 C1 1.379895 1_555
C0 Mn3 2.058238 1_554
C0 Mn5 2.058238 1_555
C0 Dy9 2.627795 1_554
C0 Dy7 2.627795 1_555
C0 Dy10 2.627795 1_555
C0 Dy8 2.627795 1_554
C1 Mn6 2.058238 1_555
C1 Mn7 2.058238 1_555
C1 Dy8 2.627795 1_554
C1 Dy9 2.627795 1_554
C1 Dy7 2.627795 1_555
C1 Dy10 2.627795 1_555
C2 C3 1.379895 1_555
C2 Mn8 2.058238 1_545
C2 Mn11 2.058238 1_555
C2 Dy10 2.627795 1_545
C2 Dy9 2.627795 1_555
C2 Dy5 2.627795 1_545
C2 Dy6 2.627795 1_555
C3 Mn9 2.058238 1_555
C3 Mn10 2.058238 1_555
C3 Dy5 2.627795 1_545
C3 Dy9 2.627795 1_555
C3 Dy6 2.627795 1_555
C3 Dy10 2.627795 1_545
C4 C5 1.379895 1_555
C4 Mn0 2.058238 1_455
C4 Mn1 2.058238 1_555
C4 Dy7 2.627795 1_455
C4 Dy8 2.627795 1_555
C4 Dy6 2.627795 1_455
C4 Dy5 2.627795 1_555
C5 Mn4 2.058238 1_555
C5 Mn2 2.058238 1_555
C5 Dy7 2.627795 1_455
C5 Dy8 2.627795 1_555
C5 Dy5 2.627795 1_555
C5 Dy6 2.627795 1_455
C6 Mn3 1.864115 1_555
C6 Mn8 1.864115 1_555
C6 Dy5 2.491899 1_555
C6 Dy8 2.491899 1_555
C6 Dy1 2.582913 1_566
C6 Dy0 2.650618 1_555
C7 Mn6 1.864115 1_555
C7 Mn10 1.864115 1_555
C7 Dy6 2.491899 1_555
C7 Dy7 2.491899 1_555
C7 Dy0 2.582913 1_555
C7 Dy1 2.650618 1_555
C8 Mn7 1.864115 1_556
C8 Mn11 1.864115 1_455
C8 Dy8 2.491899 1_555
C8 Dy6 2.491899 1_455
C8 Dy3 2.582913 1_555
C8 Dy2 2.650618 1_556
C9 Mn0 1.864115 1_555
C9 Mn8 1.864115 1_555
C9 Dy7 2.491899 1_555
C9 Dy10 2.491899 1_555
C9 Dy3 2.582913 1_665
C9 Dy0 2.650618 1_555
C10 Mn5 1.864115 1_455
C10 Mn9 1.864115 1_565
C10 Dy5 2.491899 1_555
C10 Dy7 2.491899 1_455
C10 Dy2 2.582913 1_555
C10 Dy3 2.650618 1_565
C11 Mn9 1.864115 1_555
C11 Mn4 1.864115 1_555
C11 Dy9 2.491899 1_555
C11 Dy8 2.491899 1_555
C11 Dy0 2.582913 1_555
C11 Dy3 2.650618 1_555
C12 Mn1 1.864115 1_554
C12 Mn10 1.864115 1_565
C12 Dy10 2.491899 1_555
C12 Dy8 2.491899 1_554
C12 Dy2 2.582913 1_555
C12 Dy1 2.650618 1_565
C13 Mn11 1.864115 1_554
C13 Mn2 1.864115 1_655
C13 Dy9 2.491899 1_554
C13 Dy7 2.491899 1_555
C13 Dy1 2.582913 1_555
C13 Dy2 2.650618 1_655
C14 Mn0 1.864115 1_555
C14 Mn3 1.864115 1_555
C14 Dy9 2.491899 1_555
C14 Dy6 2.491899 1_555
C14 Dy2 2.582913 1_656
C14 Dy0 2.650618 1_555
C15 Mn4 1.864115 1_655
C15 Mn5 1.864115 1_545
C15 Dy6 2.491899 1_555
C15 Dy10 2.491899 1_545
C15 Dy1 2.582913 1_555
C15 Dy3 2.650618 1_655
C16 Mn6 1.864115 1_556
C16 Mn1 1.864115 1_545
C16 Dy9 2.491899 1_555
C16 Dy5 2.491899 1_545
C16 Dy3 2.582913 1_555
C16 Dy1 2.650618 1_556
C17 Mn7 1.864115 1_555
C17 Mn2 1.864115 1_555
C17 Dy5 2.491899 1_555
C17 Dy10 2.491899 1_555
C17 Dy0 2.582913 1_555
C17 Dy2 2.650618 1_555
