# generated using pymatgen
data_K11Li4Ta15O45
_symmetry_space_group_name_H-M   'P 1'
_cell_length_a   4.02773972
_cell_length_b   18.17210259
_cell_length_c   28.77972574
_cell_angle_alpha   108.40368972
_cell_angle_beta   90.00000000
_cell_angle_gamma   90.00000000
_symmetry_Int_Tables_number   1
_chemical_formula_structural   K11Li4Ta15O45
_chemical_formula_sum   'K22 Li8 Ta30 O90'
_cell_volume   1998.72659733
_cell_formula_units_Z   2
loop_
 _symmetry_equiv_pos_site_id
 _symmetry_equiv_pos_as_xyz
  1  'x, y, z'
loop_
 _atom_site_type_symbol
 _atom_site_label
 _atom_site_symmetry_multiplicity
 _atom_site_fract_x
 _atom_site_fract_y
 _atom_site_fract_z
 _atom_site_occupancy
  K  K0  1  0.00000000  0.05741859  0.61483618  1
  K  K1  1  0.00000000  0.72423680  0.94847459  1
  K  K2  1  0.00000000  0.39082241  0.28164482  1
  K  K3  1  0.00000000  0.60883098  0.71766197  1
  K  K4  1  -0.00000000  0.27593540  0.05186980  1
  K  K5  1  0.00000000  0.94217682  0.38435464  1
  K  K6  1  0.00000000  0.67413783  0.50035439  1
  K  K7  1  0.00000000  0.34085212  0.83328863  1
  K  K8  1  0.00000000  0.00740223  0.16706613  1
  K  K9  1  -0.00000000  0.99243751  0.83328863  1
  K  K10  1  0.00000000  0.65966290  0.16706613  1
  K  K11  1  -0.00000000  0.32621656  0.50035439  1
  K  K12  1  0.00000000  0.83083221  0.66590746  1
  K  K13  1  0.00000000  0.50033063  0.00014050  1
  K  K14  1  0.00000000  0.16442973  0.33272356  1
  K  K15  1  0.00000000  0.33507425  0.66590746  1
  K  K16  1  0.00000000  0.99980987  0.00014050  1
  K  K17  1  0.00000000  0.66829483  0.33272356  1
  K  K18  1  0.00000000  0.79253685  0.08507269  1
  K  K19  1  0.00000000  0.45916747  0.41833594  1
  K  K20  1  0.00000000  0.12341755  0.74683510  1
  K  K21  1  0.00000000  0.20988392  0.91976884  1
  Li  Li0  1  0.00000000  0.87573900  0.25147799  1
  Li  Li1  1  0.00000000  0.54239227  0.58478354  1
  Li  Li2  1  0.00000000  0.54150390  0.83330933  1
  Li  Li3  1  0.00000000  0.20843068  0.16678994  1
  Li  Li4  1  0.00000000  0.87499847  0.50006540  1
  Li  Li5  1  0.00000000  0.45835826  0.16678994  1
  Li  Li6  1  -0.00000000  0.12506694  0.50006540  1
  Li  Li7  1  0.00000000  0.79180643  0.83330933  1
  Ta  Ta0  1  0.50000000  0.50140757  0.50281515  1
  Ta  Ta1  1  0.50000000  0.16665651  0.83331202  1
  Ta  Ta2  1  0.50000000  0.83478968  0.16958036  1
  Ta  Ta3  1  0.50000000  0.00021392  0.50042784  1
  Ta  Ta4  1  0.50000000  0.66664461  0.83328822  1
  Ta  Ta5  1  0.50000000  0.33354280  0.16708660  1
  Ta  Ta6  1  0.50000000  0.99075048  0.70889374  1
  Ta  Ta7  1  0.50000000  0.65876106  0.04296733  1
  Ta  Ta8  1  0.50000000  0.32513690  0.37620088  1
  Ta  Ta9  1  0.50000000  0.67038242  0.62285057  1
  Ta  Ta10  1  0.50000000  0.34230652  0.95769771  1
  Ta  Ta11  1  0.50000000  0.00377720  0.28957150  1
  Ta  Ta12  1  0.50000000  0.78142187  0.42760579  1
  Ta  Ta13  1  0.50000000  0.44792989  0.76088952  1
  Ta  Ta14  1  0.50000000  0.11445476  0.09496991  1
  Ta  Ta15  1  0.50000000  0.88562927  0.90523628  1
  Ta  Ta16  1  0.50000000  0.55374021  0.23890461  1
  Ta  Ta17  1  0.50000000  0.22036344  0.57186259  1
  Ta  Ta18  1  0.50000000  0.85150015  0.57186259  1
  Ta  Ta19  1  0.50000000  0.51960601  0.90523628  1
  Ta  Ta20  1  0.50000000  0.18516440  0.23890461  1
  Ta  Ta21  1  0.50000000  0.81295963  0.76088952  1
  Ta  Ta22  1  0.50000000  0.48051616  0.09496991  1
  Ta  Ta23  1  0.50000000  0.14618293  0.42760579  1
  Ta  Ta24  1  0.50000000  0.45246915  0.62285057  1
  Ta  Ta25  1  0.50000000  0.11539019  0.95769771  1
  Ta  Ta26  1  0.50000000  0.78579430  0.28957150  1
  Ta  Ta27  1  0.50000000  0.21814326  0.70889374  1
  Ta  Ta28  1  0.50000000  0.88420728  0.04296733  1
  Ta  Ta29  1  0.50000000  0.55106298  0.37620088  1
  O  O0  1  0.50000000  0.06296405  0.78007452  1
  O  O1  1  0.50000000  0.73096053  0.11489910  1
  O  O2  1  0.50000000  0.39761306  0.44825651  1
  O  O3  1  0.50000000  0.60362546  0.55309294  1
  O  O4  1  0.50000000  0.27022900  0.88647978  1
  O  O5  1  0.50000000  0.93694863  0.21972589  1
  O  O6  1  0.50000000  0.89659454  0.44962288  1
  O  O7  1  0.50000000  0.56332150  0.78293813  1
  O  O8  1  0.50000000  0.22990456  0.11652974  1
  O  O9  1  0.50000000  0.77008144  0.88343417  1
  O  O10  1  0.50000000  0.43725614  0.21677698  1
  O  O11  1  0.50000000  0.10389903  0.55003146  1
  O  O12  1  0.50000000  0.94613143  0.55003146  1
  O  O13  1  0.50000000  0.61335274  0.88343417  1
  O  O14  1  0.50000000  0.27952184  0.21677698  1
  O  O15  1  0.50000000  0.71961563  0.78293813  1
  O  O16  1  0.50000000  0.38662518  0.11652974  1
  O  O17  1  0.50000000  0.05302934  0.44962288  1
  O  O18  1  0.50000000  0.44946848  0.55309294  1
  O  O19  1  0.50000000  0.11624978  0.88647978  1
  O  O20  1  0.50000000  0.78277726  0.21972589  1
  O  O21  1  0.50000000  0.21711047  0.78007452  1
  O  O22  1  0.50000000  0.88393956  0.11489910  1
  O  O23  1  0.50000000  0.55064244  0.44825651  1
  O  O24  1  0.50000000  0.92392594  0.64031855  1
  O  O25  1  0.50000000  0.59148586  0.97412145  1
  O  O26  1  0.50000000  0.25785944  0.30755059  1
  O  O27  1  0.50000000  0.74030792  0.69152190  1
  O  O28  1  0.50000000  0.40902075  0.02617086  1
  O  O29  1  0.50000000  0.07365500  0.35814720  1
  O  O30  1  0.50000000  0.66604354  0.40328549  1
  O  O31  1  0.50000000  0.33301871  0.73649313  1
  O  O32  1  0.50000000  0.99913576  0.07018028  1
  O  O33  1  0.50000000  0.00050861  0.92985778  1
  O  O34  1  0.50000000  0.66869462  0.26333028  1
  O  O35  1  0.50000000  0.33536485  0.59661155  1
  O  O36  1  0.50000000  0.76124570  0.59661155  1
  O  O37  1  0.50000000  0.42934917  0.92985778  1
  O  O38  1  0.50000000  0.09463667  0.26333028  1
  O  O39  1  0.50000000  0.90347342  0.73649313  1
  O  O40  1  0.50000000  0.57104452  0.07018028  1
  O  O41  1  0.50000000  0.23724295  0.40328549  1
  O  O42  1  0.50000000  0.45121398  0.69152190  1
  O  O43  1  0.50000000  0.11715111  0.02617086  1
  O  O44  1  0.50000000  0.78449120  0.35814720  1
  O  O45  1  0.50000000  0.21639361  0.64031855  1
  O  O46  1  0.50000000  0.88263458  0.97412145  1
  O  O47  1  0.50000000  0.54969115  0.30755059  1
  O  O48  1  0.00000000  0.98551532  0.70600022  1
  O  O49  1  0.00000000  0.65449541  0.04017541  1
  O  O50  1  0.00000000  0.32083973  0.37349696  1
  O  O51  1  0.00000000  0.66462604  0.62236168  1
  O  O52  1  0.00000000  0.34746821  0.96055759  1
  O  O53  1  -0.00000000  0.99794338  0.28901777  1
  O  O54  1  0.00000000  0.78344022  0.43126928  1
  O  O55  1  0.00000000  0.45020151  0.76459564  1
  O  O56  1  0.00000000  0.11673924  0.09855208  1
  O  O57  1  0.00000000  0.88311130  0.90139172  1
  O  O58  1  -0.00000000  0.55044063  0.23501028  1
  O  O59  1  0.00000000  0.21709840  0.56819039  1
  O  O60  1  0.00000000  0.85109099  0.56819039  1
  O  O61  1  0.00000000  0.51828043  0.90139172  1
  O  O62  1  0.00000000  0.18457066  0.23501028  1
  O  O63  1  0.00000000  0.81439313  0.76459564  1
  O  O64  1  0.00000000  0.48181284  0.09855208  1
  O  O65  1  -0.00000000  0.14783006  0.43126928  1
  O  O66  1  0.00000000  0.45773464  0.62236168  1
  O  O67  1  -0.00000000  0.11308939  0.96055759  1
  O  O68  1  0.00000000  0.79107539  0.28901777  1
  O  O69  1  0.00000000  0.22048390  0.70600022  1
  O  O70  1  0.00000000  0.88568000  0.04017541  1
  O  O71  1  0.00000000  0.55265822  0.37349696  1
  O  O72  1  0.50000000  0.09569324  0.69138749  1
  O  O73  1  0.50000000  0.76296933  0.02593866  1
  O  O74  1  0.50000000  0.42963374  0.35926648  1
  O  O75  1  0.50000000  0.56954356  0.63908812  1
  O  O76  1  0.50000000  0.23761280  0.97522559  1
  O  O77  1  0.50000000  0.90285782  0.30571463  1
  O  O78  1  0.50000000  0.79102434  0.49960588  1
  O  O79  1  0.50000000  0.45798933  0.83297584  1
  O  O80  1  0.50000000  0.12427657  0.16681113  1
  O  O81  1  0.50000000  0.87498751  0.83297584  1
  O  O82  1  0.50000000  0.54253355  0.16681113  1
  O  O83  1  0.50000000  0.20858154  0.49960588  1
  O  O84  1  0.00000000  0.50460700  0.50921401  1
  O  O85  1  0.00000000  0.16665627  0.83331153  1
  O  O86  1  0.00000000  0.83792994  0.17586087  1
  O  O87  1  0.00000000  0.99996624  0.49993248  1
  O  O88  1  0.00000000  0.66663170  0.83326241  1
  O  O89  1  0.00000000  0.33332638  0.16665376  1
loop_
_geom_bond_atom_site_label_1
_geom_bond_atom_site_label_2
_geom_bond_distance
_geom_bond_site_symmetry_2
K0 O72 2.902696 1_455
K0 O72 2.902696 1_555
K0 O11 3.040106 1_555
K0 O11 3.040106 1_455
K0 O12 3.040123 1_545
K0 O12 3.040123 1_445
K0 O87 3.137768 1_545
K0 O69 3.279548 1_555
K0 O48 3.279572 1_545
K1 O73 2.920698 1_456
K1 O73 2.920698 1_556
K1 O13 3.039428 1_455
K1 O13 3.039428 1_555
K1 O9 3.039436 1_455
K1 O9 3.039436 1_555
K1 O88 3.146192 1_555
K1 O49 3.268494 1_556
K1 O70 3.268505 1_556
K2 O74 2.923817 1_455
K2 O74 2.923817 1_555
K2 O14 3.040972 1_455
K2 O14 3.040972 1_555
K2 O10 3.040980 1_455
K2 O10 3.040980 1_555
K2 O89 3.140154 1_555
K2 O50 3.275362 1_555
K2 O71 3.275373 1_555
K3 O75 2.942722 1_455
K3 O75 2.942722 1_555
K3 O15 3.041348 1_555
K3 O15 3.041348 1_455
K3 O7 3.041357 1_555
K3 O7 3.041357 1_455
K3 O88 3.156794 1_555
K3 O51 3.210361 1_555
K3 O66 3.210371 1_555
K4 O76 2.904524 1_554
K4 O76 2.904524 1_454
K4 O16 3.033333 1_455
K4 O16 3.033333 1_555
K4 O8 3.033342 1_455
K4 O8 3.033342 1_555
K4 O89 3.134498 1_555
K4 O52 3.279144 1_554
K4 O67 3.279156 1_554
K5 O77 2.944040 1_455
K5 O77 2.944040 1_555
K5 O6 3.041814 1_555
K5 O6 3.041814 1_455
K5 O17 3.041831 1_565
K5 O17 3.041831 1_465
K5 O87 3.156177 1_555
K5 O68 3.211041 1_555
K5 O53 3.211062 1_555
K6 O78 2.932016 1_455
K6 O78 2.932016 1_555
K6 O23 3.035695 1_555
K6 O23 3.035695 1_455
K6 O3 3.037974 1_455
K6 O3 3.037974 1_555
K6 O84 3.170475 1_555
K6 O60 3.191814 1_555
K6 O54 3.223652 1_555
K7 O79 2.932391 1_455
K7 O79 2.932391 1_555
K7 O21 3.046812 1_455
K7 O21 3.046812 1_555
K7 O4 3.047399 1_555
K7 O4 3.047399 1_455
K7 O85 3.165713 1_555
K7 O61 3.201103 1_555
K7 O55 3.215197 1_555
K8 O80 2.928535 1_555
K8 O80 2.928535 1_455
K8 O22 3.035867 1_545
K8 O22 3.035867 1_445
K8 O5 3.035921 1_545
K8 O5 3.035921 1_445
K8 O86 3.168692 1_545
K8 O62 3.195914 1_555
K8 O56 3.210844 1_555
K9 O81 2.932391 1_555
K9 O81 2.932391 1_455
K9 O0 3.046802 1_565
K9 O0 3.046802 1_465
K9 O19 3.047378 1_565
K9 O19 3.047378 1_465
K9 O85 3.165713 1_565
K9 O57 3.201118 1_555
K9 O63 3.215226 1_555
K10 O82 2.928535 1_555
K10 O82 2.928535 1_455
K10 O1 3.035888 1_555
K10 O1 3.035888 1_455
K10 O20 3.035931 1_455
K10 O20 3.035931 1_555
K10 O86 3.168692 1_555
K10 O58 3.195884 1_555
K10 O64 3.210829 1_555
K11 O83 2.932016 1_455
K11 O83 2.932016 1_555
K11 O2 3.035684 1_455
K11 O2 3.035684 1_555
K11 O18 3.037984 1_455
K11 O18 3.037984 1_555
K11 O84 3.170475 1_555
K11 O59 3.191829 1_555
K11 O65 3.223637 1_555
K12 O48 2.680428 1_555
K12 O36 2.835428 1_555
K12 O36 2.835428 1_455
K12 O27 2.840930 1_555
K12 O27 2.840930 1_455
K12 O39 2.869096 1_455
K12 O39 2.869096 1_555
K12 O24 2.871681 1_555
K12 O24 2.871681 1_455
K12 O51 2.881471 1_555
K12 O63 2.948190 1_555
K12 O60 2.949257 1_555
K13 O52 2.648770 1_554
K13 O49 2.671666 1_555
K13 O40 2.852116 1_455
K13 O40 2.852116 1_555
K13 O25 2.853692 1_554
K13 O25 2.853692 1_454
K13 O28 2.855702 1_455
K13 O28 2.855702 1_555
K13 O37 2.857173 1_454
K13 O37 2.857173 1_554
K13 O64 2.955793 1_555
K13 O61 2.961162 1_554
K14 O50 2.711028 1_555
K14 O38 2.837846 1_455
K14 O38 2.837846 1_555
K14 O29 2.841516 1_455
K14 O29 2.841516 1_555
K14 O41 2.869453 1_455
K14 O41 2.869453 1_555
K14 O26 2.870498 1_555
K14 O26 2.870498 1_455
K14 O53 2.886589 1_545
K14 O65 2.945294 1_555
K14 O62 2.948238 1_555
K15 O69 2.680428 1_555
K15 O35 2.835428 1_455
K15 O35 2.835428 1_555
K15 O42 2.840942 1_455
K15 O42 2.840942 1_555
K15 O31 2.869096 1_555
K15 O31 2.869096 1_455
K15 O45 2.871656 1_455
K15 O45 2.871656 1_555
K15 O66 2.881471 1_555
K15 O55 2.948190 1_555
K15 O59 2.949257 1_555
K16 O67 2.648770 1_564
K16 O70 2.671666 1_555
K16 O32 2.852116 1_455
K16 O32 2.852116 1_555
K16 O46 2.853704 1_554
K16 O46 2.853704 1_454
K16 O43 2.855714 1_565
K16 O43 2.855714 1_465
K16 O33 2.857173 1_464
K16 O33 2.857173 1_564
K16 O56 2.955793 1_565
K16 O57 2.961162 1_554
K17 O71 2.711028 1_555
K17 O34 2.837846 1_455
K17 O34 2.837846 1_555
K17 O44 2.841492 1_455
K17 O44 2.841492 1_555
K17 O30 2.869453 1_455
K17 O30 2.869453 1_555
K17 O47 2.870511 1_555
K17 O47 2.870511 1_455
K17 O68 2.886589 1_555
K17 O54 2.945294 1_555
K17 O58 2.948238 1_555
K18 O70 2.432176 1_555
K18 O49 2.432192 1_555
K18 O86 2.479226 1_555
K18 O22 2.578973 1_455
K18 O22 2.578973 1_555
K18 O1 2.578973 1_455
K18 O1 2.578973 1_555
K18 O73 2.581340 1_555
K18 O73 2.581340 1_455
K19 O50 2.436344 1_555
K19 O71 2.436376 1_555
K19 O84 2.481681 1_555
K19 O23 2.580033 1_455
K19 O23 2.580033 1_555
K19 O2 2.580033 1_455
K19 O2 2.580033 1_555
K19 O74 2.580238 1_555
K19 O74 2.580238 1_455
K20 O85 2.361482 1_555
K20 O69 2.408607 1_555
K20 O48 2.408623 1_545
K20 O72 2.519589 1_455
K20 O72 2.519589 1_555
K20 O21 2.615571 1_555
K20 O21 2.615571 1_455
K20 O0 2.615571 1_555
K20 O0 2.615571 1_455
K21 O85 2.360959 1_555
K21 O67 2.403274 1_555
K21 O52 2.403291 1_555
K21 O76 2.519739 1_455
K21 O76 2.519739 1_555
K21 O4 2.615229 1_455
K21 O4 2.615229 1_555
K21 O19 2.615229 1_455
K21 O19 2.615229 1_555
Li0 O86 2.064938 1_555
Li0 O68 2.140981 1_555
Li0 O53 2.140997 1_555
Li0 O77 2.499856 1_455
Li0 O77 2.499856 1_555
Li0 O5 2.601877 1_555
Li0 O5 2.601877 1_455
Li0 O20 2.601877 1_455
Li0 O20 2.601877 1_555
Li1 O84 2.063638 1_555
Li1 O51 2.141662 1_555
Li1 O66 2.141694 1_555
Li1 O75 2.500956 1_455
Li1 O75 2.500956 1_555
Li1 O3 2.601248 1_555
Li1 O3 2.601248 1_455
Li1 O18 2.601248 1_455
Li1 O18 2.601248 1_555
Li2 O61 2.130597 1_555
Li2 O55 2.142850 1_555
Li2 O88 2.274262 1_555
Li2 O79 2.519878 1_455
Li2 O79 2.519878 1_555
Li2 O13 2.579174 1_455
Li2 O13 2.579174 1_555
Li2 O7 2.584050 1_455
Li2 O7 2.584050 1_555
Li3 O56 2.137035 1_555
Li3 O62 2.140166 1_555
Li3 O89 2.270858 1_555
Li3 O80 2.528812 1_555
Li3 O80 2.528812 1_455
Li3 O14 2.573076 1_555
Li3 O14 2.573076 1_455
Li3 O8 2.580047 1_455
Li3 O8 2.580047 1_555
Li4 O60 2.137898 1_555
Li4 O54 2.146706 1_555
Li4 O87 2.272138 1_555
Li4 O78 2.524230 1_555
Li4 O78 2.524230 1_455
Li4 O12 2.573082 1_455
Li4 O12 2.573082 1_555
Li4 O6 2.583973 1_555
Li4 O6 2.583973 1_455
Li5 O64 2.137044 1_555
Li5 O58 2.140184 1_555
Li5 O89 2.270858 1_555
Li5 O82 2.528812 1_555
Li5 O82 2.528812 1_455
Li5 O10 2.573065 1_555
Li5 O10 2.573065 1_455
Li5 O16 2.580041 1_555
Li5 O16 2.580041 1_455
Li6 O59 2.137889 1_555
Li6 O65 2.146715 1_555
Li6 O87 2.272138 1_545
Li6 O83 2.524230 1_555
Li6 O83 2.524230 1_455
Li6 O11 2.573088 1_455
Li6 O11 2.573088 1_555
Li6 O17 2.583967 1_455
Li6 O17 2.583967 1_555
Li7 O57 2.130588 1_555
Li7 O63 2.142832 1_555
Li7 O88 2.274262 1_555
Li7 O81 2.519878 1_555
Li7 O81 2.519878 1_455
Li7 O9 2.579180 1_455
Li7 O9 2.579180 1_555
Li7 O15 2.584062 1_455
Li7 O15 2.584062 1_555
O0 Ta1 2.018710 1_555
O0 Ta6 2.054566 1_545
O1 Ta2 2.040025 1_555
O1 Ta7 2.071718 1_555
O2 Ta0 2.037906 1_555
O2 Ta8 2.076167 1_555
O3 Ta0 1.961374 1_555
O3 Ta9 1.991063 1_555
O4 Ta1 2.016265 1_555
O4 Ta10 2.054618 1_555
O5 Ta2 1.958941 1_555
O5 Ta11 1.993507 1_565
O6 Ta12 1.986073 1_555
O6 Ta3 1.986223 1_565
O7 Ta4 1.976668 1_555
O7 Ta13 1.989853 1_555
O8 Ta5 1.983360 1_555
O8 Ta14 1.991107 1_555
O9 Ta4 1.975619 1_555
O9 Ta15 1.992672 1_555
O10 Ta5 1.973661 1_555
O10 Ta16 2.008747 1_555
O11 Ta3 1.972232 1_555
O11 Ta17 2.008557 1_555
O12 Ta3 1.972246 1_565
O12 Ta18 2.008522 1_555
O13 Ta4 1.975632 1_555
O13 Ta19 1.992690 1_555
O14 Ta5 1.973634 1_555
O14 Ta20 2.008764 1_555
O15 Ta4 1.976641 1_555
O15 Ta21 1.989870 1_555
O16 Ta5 1.983373 1_555
O16 Ta22 1.991124 1_555
O17 Ta23 1.986039 1_555
O17 Ta3 1.986236 1_555
O18 Ta0 1.961361 1_555
O18 Ta24 1.991063 1_555
O19 Ta1 2.016290 1_555
O19 Ta25 2.054618 1_555
O20 Ta2 1.958928 1_555
O20 Ta26 1.993507 1_555
O21 Ta1 2.018697 1_555
O21 Ta27 2.054566 1_555
O22 Ta2 2.040050 1_555
O22 Ta28 2.071718 1_555
O23 Ta0 2.037894 1_555
O23 Ta29 2.076167 1_555
O24 Ta6 1.963763 1_555
O24 Ta18 1.994094 1_555
O25 Ta7 1.972540 1_556
O25 Ta19 2.000344 1_555
O26 Ta8 1.968003 1_555
O26 Ta20 2.000061 1_555
O27 Ta9 1.983655 1_555
O27 Ta21 2.016018 1_555
O28 Ta10 1.960782 1_554
O28 Ta22 1.996029 1_555
O29 Ta11 1.981187 1_555
O29 Ta23 2.017303 1_555
O30 Ta29 1.986194 1_555
O30 Ta12 1.989797 1_555
O31 Ta13 1.981843 1_555
O31 Ta27 1.985375 1_555
O32 Ta28 1.985542 1_555
O32 Ta14 1.989087 1_565
O33 Ta15 1.981449 1_545
O33 Ta25 1.985962 1_555
O34 Ta16 1.982601 1_555
O34 Ta26 2.020837 1_555
O35 Ta17 1.983630 1_555
O35 Ta24 2.020913 1_555
O36 Ta18 1.983664 1_555
O36 Ta9 2.020879 1_555
O37 Ta19 1.981432 1_555
O37 Ta10 1.985979 1_555
O38 Ta20 1.982584 1_555
O38 Ta11 2.020854 1_555
O39 Ta21 1.981826 1_555
O39 Ta6 1.985392 1_555
O40 Ta7 1.985559 1_555
O40 Ta22 1.989070 1_555
O41 Ta8 1.986160 1_555
O41 Ta23 1.989831 1_555
O42 Ta24 1.983661 1_555
O42 Ta13 2.016018 1_555
O43 Ta25 1.960771 1_554
O43 Ta14 1.996029 1_555
O44 Ta26 1.981193 1_555
O44 Ta12 2.017303 1_555
O45 Ta27 1.963769 1_555
O45 Ta17 1.994094 1_555
O46 Ta28 1.972529 1_556
O46 Ta15 2.000344 1_555
O47 Ta29 1.968008 1_555
O47 Ta16 2.000061 1_555
O48 Ta6 2.016595 1_555
O48 Ta6 2.016595 1_455
O49 Ta7 2.015987 1_555
O49 Ta7 2.015987 1_455
O50 Ta8 2.015934 1_455
O50 Ta8 2.015934 1_555
O51 Ta9 2.016403 1_455
O51 Ta9 2.016403 1_555
O52 Ta10 2.016524 1_555
O52 Ta10 2.016524 1_455
O53 Ta11 2.016457 1_465
O53 Ta11 2.016457 1_565
O54 Ta12 2.016356 1_555
O54 Ta12 2.016356 1_455
O55 Ta13 2.016426 1_455
O55 Ta13 2.016426 1_555
O56 Ta14 2.016264 1_455
O56 Ta14 2.016264 1_555
O57 Ta15 2.016634 1_455
O57 Ta15 2.016634 1_555
O58 Ta16 2.016826 1_555
O58 Ta16 2.016826 1_455
O59 Ta17 2.016532 1_455
O59 Ta17 2.016532 1_555
O60 Ta18 2.016532 1_555
O60 Ta18 2.016532 1_455
O61 Ta19 2.016634 1_555
O61 Ta19 2.016634 1_455
O62 Ta20 2.016826 1_455
O62 Ta20 2.016826 1_555
O63 Ta21 2.016426 1_455
O63 Ta21 2.016426 1_555
O64 Ta22 2.016264 1_455
O64 Ta22 2.016264 1_555
O65 Ta23 2.016356 1_455
O65 Ta23 2.016356 1_555
O66 Ta24 2.016402 1_555
O66 Ta24 2.016402 1_455
O67 Ta25 2.016524 1_455
O67 Ta25 2.016524 1_555
O68 Ta26 2.016458 1_455
O68 Ta26 2.016458 1_555
O69 Ta27 2.016594 1_455
O69 Ta27 2.016594 1_555
O70 Ta28 2.015987 1_555
O70 Ta28 2.015987 1_455
O71 Ta29 2.015935 1_455
O71 Ta29 2.015935 1_555
O72 Ta6 2.120679 1_545
O72 Ta27 2.120697 1_555
O73 Ta7 2.100526 1_555
O73 Ta28 2.100544 1_555
O74 Ta29 2.104202 1_555
O74 Ta8 2.104238 1_555
O75 Ta24 2.028997 1_555
O75 Ta9 2.029032 1_555
O76 Ta10 2.116595 1_555
O76 Ta25 2.116613 1_555
O77 Ta11 2.029061 1_565
O77 Ta26 2.029079 1_555
O78 Ta18 2.022169 1_555
O78 Ta12 2.023837 1_555
O79 Ta13 2.024357 1_555
O79 Ta19 2.026897 1_555
O80 Ta14 2.018339 1_555
O80 Ta20 2.019805 1_555
O81 Ta21 2.024361 1_555
O81 Ta15 2.026905 1_555
O82 Ta22 2.018331 1_555
O82 Ta16 2.019801 1_555
O83 Ta17 2.022165 1_555
O83 Ta23 2.023841 1_555
O84 Ta0 2.021436 1_555
O84 Ta0 2.021436 1_455
O85 Ta1 2.013870 1_555
O85 Ta1 2.013870 1_455
O86 Ta2 2.021160 1_555
O86 Ta2 2.021160 1_455
O87 Ta3 2.013915 1_465
O87 Ta3 2.013915 1_565
O88 Ta4 2.013870 1_555
O88 Ta4 2.013870 1_455
O89 Ta5 2.013905 1_555
O89 Ta5 2.013905 1_455
