# generated using pymatgen
data_MgNiO2
_symmetry_space_group_name_H-M   'P 1'
_cell_length_a   2.98253623
_cell_length_b   8.01252492
_cell_length_c   8.32541079
_cell_angle_alpha   89.12751863
_cell_angle_beta   78.58839283
_cell_angle_gamma   90.22291771
_symmetry_Int_Tables_number   1
_chemical_formula_structural   MgNiO2
_chemical_formula_sum   'Mg4 Ni4 O8'
_cell_volume   194.99709775
_cell_formula_units_Z   4
loop_
 _symmetry_equiv_pos_site_id
 _symmetry_equiv_pos_as_xyz
  1  'x, y, z'
loop_
 _atom_site_type_symbol
 _atom_site_label
 _atom_site_symmetry_multiplicity
 _atom_site_fract_x
 _atom_site_fract_y
 _atom_site_fract_z
 _atom_site_occupancy
  Mg  Mg0  1  0.38068200  0.07232000  0.27866600  1
  Mg  Mg1  1  0.61731500  0.90762800  0.74968300  1
  Mg  Mg2  1  0.14588500  0.72234200  0.13412400  1
  Mg  Mg3  1  0.85006400  0.25746200  0.89408400  1
  Ni  Ni0  1  0.46168200  0.24326500  0.59152900  1
  Ni  Ni1  1  0.08220300  0.39105100  0.23144100  1
  Ni  Ni2  1  0.91282500  0.58879000  0.79677000  1
  Ni  Ni3  1  0.53373000  0.73703200  0.43661900  1
  O  O0  1  0.96199800  0.73799000  0.59358000  1
  O  O1  1  0.40987000  0.39577300  0.78697900  1
  O  O2  1  0.58585200  0.58417900  0.24130200  1
  O  O3  1  0.03321900  0.24156400  0.43451100  1
  O  O4  1  0.11532600  0.07034200  0.75774500  1
  O  O5  1  0.63777200  0.25524000  0.12662900  1
  O  O6  1  0.88276800  0.90958000  0.27051100  1
  O  O7  1  0.35708200  0.72478100  0.90144400  1
loop_
_geom_bond_atom_site_label_1
_geom_bond_atom_site_label_2
_geom_bond_distance
_geom_bond_site_symmetry_2
Mg0 O5 1.972043 1_555
Mg0 O6 1.981174 1_545
Mg0 O6 1.984391 1_445
Mg0 O3 2.031939 1_555
Mg1 O7 1.972795 1_555
Mg1 O4 1.980900 1_565
Mg1 O4 1.984323 1_665
Mg1 O0 2.032078 1_555
Mg2 O7 1.914584 1_554
Mg2 O6 1.965790 1_455
Mg2 O2 2.043879 1_455
Mg2 O2 2.046509 1_555
Mg3 O5 1.913956 1_556
Mg3 O4 1.966707 1_655
Mg3 O1 2.043854 1_655
Mg3 O1 2.047302 1_555
Ni0 O3 1.932294 1_655
Ni0 O3 2.000890 1_555
Ni0 O1 2.031602 1_555
Ni0 O4 2.065581 1_555
Ni1 O3 2.038011 1_555
Ni1 O5 2.040108 1_555
Ni1 O5 2.044022 1_455
Ni1 O2 2.136928 1_455
Ni1 O2 2.166185 1_555
Ni2 O0 2.037443 1_555
Ni2 O7 2.040955 1_555
Ni2 O7 2.043770 1_655
Ni2 O1 2.137757 1_655
Ni2 O1 2.163999 1_555
Ni3 O0 1.932376 1_455
Ni3 O0 1.999997 1_555
Ni3 O2 2.032347 1_555
Ni3 O6 2.066035 1_555
