# generated using pymatgen
data_EuZnBiWO6
_symmetry_space_group_name_H-M   'P 1'
_cell_length_a   5.71073365
_cell_length_b   5.71073365
_cell_length_c   5.71073365
_cell_angle_alpha   60.00000000
_cell_angle_beta   60.00000000
_cell_angle_gamma   60.00000000
_symmetry_Int_Tables_number   1
_chemical_formula_structural   EuZnBiWO6
_chemical_formula_sum   'Eu1 Zn1 Bi1 W1 O6'
_cell_volume   131.69240152
_cell_formula_units_Z   1
loop_
 _symmetry_equiv_pos_site_id
 _symmetry_equiv_pos_as_xyz
  1  'x, y, z'
loop_
 _atom_site_type_symbol
 _atom_site_label
 _atom_site_symmetry_multiplicity
 _atom_site_fract_x
 _atom_site_fract_y
 _atom_site_fract_z
 _atom_site_occupancy
  Eu  Eu0  1  0.25000000  0.25000000  0.25000000  1
  Zn  Zn0  1  -0.00000000  0.00000000  -0.00000000  1
  Bi  Bi0  1  0.75000000  0.75000000  0.75000000  1
  W  W0  1  0.50000000  0.50000000  0.50000000  1
  O  O0  1  0.74238269  0.25761731  0.25761731  1
  O  O1  1  0.25761731  0.74238269  0.74238269  1
  O  O2  1  0.74238269  0.25761731  0.74238269  1
  O  O3  1  0.25761731  0.74238269  0.25761731  1
  O  O4  1  0.74238269  0.74238269  0.25761731  1
  O  O5  1  0.25761731  0.25761731  0.74238269  1
loop_
_geom_bond_atom_site_label_1
_geom_bond_atom_site_label_2
_geom_bond_distance
_geom_bond_site_symmetry_2
Eu0 O4 2.856029 1_455
Eu0 O1 2.856029 1_554
Eu0 O3 2.856029 1_545
Eu0 O2 2.856029 1_455
Eu0 O5 2.856029 1_554
Eu0 O2 2.856029 1_554
Eu0 O4 2.856029 1_545
Eu0 O5 2.856029 1_555
Eu0 O1 2.856029 1_545
Eu0 O0 2.856029 1_455
Eu0 O3 2.856029 1_555
Eu0 O0 2.856029 1_555
Bi0 O4 2.856029 1_555
Bi0 O1 2.856029 1_555
Bi0 O2 2.856029 1_555
Bi0 O5 2.856029 1_565
Bi0 O5 2.856029 1_655
Bi0 O0 2.856029 1_556
Bi0 O3 2.856029 1_556
Bi0 O0 2.856029 1_565
Bi0 O3 2.856029 1_655
Bi0 O4 2.856029 1_556
Bi0 O1 2.856029 1_655
Bi0 O2 2.856029 1_565
O0 W0 1.957530 1_555
O0 Zn0 2.080568 1_655
O1 W0 1.957530 1_555
O1 Zn0 2.080568 1_566
O2 W0 1.957530 1_555
O2 Zn0 2.080568 1_656
O3 W0 1.957530 1_555
O3 Zn0 2.080568 1_565
O4 W0 1.957530 1_555
O4 Zn0 2.080568 1_665
O5 W0 1.957530 1_555
O5 Zn0 2.080568 1_556
