# generated using pymatgen
data_K2Mg5Cu3(AsO4)6
_symmetry_space_group_name_H-M   'P 1'
_cell_length_a   6.90665562
_cell_length_b   8.90431573
_cell_length_c   8.93665415
_cell_angle_alpha   92.44998743
_cell_angle_beta   105.86495479
_cell_angle_gamma   106.11836757
_symmetry_Int_Tables_number   1
_chemical_formula_structural   K2Mg5Cu3(AsO4)6
_chemical_formula_sum   'K2 Mg5 Cu3 As6 O24'
_cell_volume   503.67621821
_cell_formula_units_Z   1
loop_
 _symmetry_equiv_pos_site_id
 _symmetry_equiv_pos_as_xyz
  1  'x, y, z'
loop_
 _atom_site_type_symbol
 _atom_site_label
 _atom_site_symmetry_multiplicity
 _atom_site_fract_x
 _atom_site_fract_y
 _atom_site_fract_z
 _atom_site_occupancy
  K  K0  1  0.25004400  0.98593500  0.01486800  1
  K  K1  1  0.75145200  0.01775800  0.98457100  1
  Mg  Mg0  1  0.24933900  0.25700400  0.74407600  1
  Mg  Mg1  1  0.74965700  0.74192700  0.25758100  1
  Mg  Mg2  1  0.36790700  0.93945500  0.62296400  1
  Mg  Mg3  1  0.86572300  0.62066900  0.93852900  1
  Mg  Mg4  1  0.63297700  0.06219500  0.37782000  1
  Cu  Cu0  1  0.24983800  0.50347400  0.49827600  1
  Cu  Cu1  1  0.74921300  0.49721900  0.50218700  1
  Cu  Cu2  1  0.14510600  0.38423000  0.06881100  1
  As  As0  1  0.37242900  0.64588700  0.87857500  1
  As  As1  1  0.12963100  0.12413200  0.35192800  1
  As  As2  1  0.62798000  0.35215500  0.12205200  1
  As  As3  1  0.87070400  0.87768400  0.64799600  1
  As  As4  1  0.75062400  0.28467700  0.71586500  1
  As  As5  1  0.24911500  0.71576100  0.28351400  1
  O  O0  1  0.38290500  0.32756000  0.98825700  1
  O  O1  1  0.11767100  0.00866100  0.66987600  1
  O  O2  1  0.61781000  0.67093900  0.00953400  1
  O  O3  1  0.88338700  0.99177600  0.32887900  1
  O  O4  1  0.23626900  0.51419200  0.27740500  1
  O  O5  1  0.26114400  0.72325600  0.48222600  1
  O  O6  1  0.76107700  0.48377500  0.72418700  1
  O  O7  1  0.73871500  0.27583600  0.51681200  1
  O  O8  1  0.18655300  0.27718200  0.50030700  1
  O  O9  1  0.31404100  0.49897400  0.72448300  1
  O  O10  1  0.81425200  0.72446300  0.49930000  1
  O  O11  1  0.68554200  0.50055700  0.27613800  1
  O  O12  1  0.81648000  0.40737800  0.02712400  1
  O  O13  1  0.67834500  0.97004600  0.59328400  1
  O  O14  1  0.17858400  0.59000100  0.97364400  1
  O  O15  1  0.31934700  0.02916500  0.40482700  1
  O  O16  1  0.97603600  0.24841400  0.82403300  1
  O  O17  1  0.52227700  0.17262600  0.74832500  1
  O  O18  1  0.02346000  0.74943100  0.17281700  1
  O  O19  1  0.47663600  0.82642700  0.25036100  1
  O  O20  1  0.62467500  0.17542300  0.18652400  1
  O  O21  1  0.87492200  0.81387800  0.82431100  1
  O  O22  1  0.37241700  0.82229700  0.81495300  1
  O  O23  1  0.12571400  0.18758100  0.17278000  1
loop_
_geom_bond_atom_site_label_1
_geom_bond_atom_site_label_2
_geom_bond_distance
_geom_bond_site_symmetry_2
K0 O20 2.660737 1_565
K0 O21 2.668407 1_454
K0 O23 2.693468 1_565
K0 O22 2.704825 1_554
K0 O18 2.916899 1_555
K0 O19 2.929931 1_555
K0 O0 2.963654 1_564
K0 O1 2.999519 1_564
K1 O23 2.651880 1_656
K1 O22 2.693529 1_545
K1 O20 2.706434 1_556
K1 O21 2.716457 1_545
K1 O16 2.895210 1_555
K1 O17 2.915155 1_555
K1 O3 2.999417 1_546
K1 O2 3.004564 1_546
Mg0 O9 2.100711 1_555
Mg0 O0 2.113743 1_555
Mg0 O8 2.127517 1_555
Mg0 O1 2.141265 1_555
Mg0 O16 2.177486 1_455
Mg0 O17 2.206627 1_555
Mg1 O11 2.094035 1_555
Mg1 O10 2.104718 1_555
Mg1 O2 2.144655 1_555
Mg1 O3 2.150495 1_555
Mg1 O19 2.202595 1_555
Mg1 O18 2.207209 1_655
Mg2 O22 2.043250 1_555
Mg2 O5 2.080716 1_555
Mg2 O15 2.115471 1_565
Mg2 O1 2.123185 1_565
Mg2 O17 2.149774 1_565
Mg2 O13 2.175889 1_555
Mg3 O21 2.032381 1_555
Mg3 O6 2.057092 1_555
Mg3 O12 2.065589 1_556
Mg3 O2 2.128409 1_556
Mg3 O18 2.176995 1_656
Mg3 O14 2.192356 1_655
Mg4 O20 2.016979 1_555
Mg4 O7 2.055649 1_555
Mg4 O13 2.104057 1_545
Mg4 O3 2.137259 1_545
Mg4 O19 2.176032 1_545
Mg4 O15 2.185191 1_555
Cu0 O8 1.941636 1_555
Cu0 O5 1.949827 1_555
Cu0 O9 1.952312 1_555
Cu0 O4 1.958035 1_555
Cu1 O11 1.949833 1_555
Cu1 O10 1.950108 1_555
Cu1 O7 1.963688 1_555
Cu1 O6 1.973302 1_555
Cu2 O4 1.994962 1_555
Cu2 O23 2.006049 1_555
Cu2 O14 2.034556 1_554
Cu2 O0 2.132104 1_554
Cu2 O12 2.266464 1_455
Cu2 O16 2.281307 1_454
As0 O22 1.693256 1_555
As0 O2 1.724820 1_556
As0 O9 1.737721 1_555
As0 O14 1.746428 1_555
As1 O23 1.716161 1_555
As1 O15 1.722257 1_555
As1 O3 1.731657 1_445
As1 O8 1.741580 1_555
As2 O20 1.695202 1_555
As2 O12 1.714785 1_555
As2 O0 1.734337 1_554
As2 O11 1.747510 1_555
As3 O21 1.693220 1_555
As3 O13 1.722326 1_555
As3 O1 1.732472 1_665
As3 O10 1.745166 1_555
As4 O16 1.716231 1_555
As4 O17 1.722815 1_555
As4 O6 1.751685 1_555
As4 O7 1.755497 1_555
As5 O18 1.714454 1_555
As5 O19 1.716932 1_555
As5 O5 1.752432 1_555
As5 O4 1.769982 1_555
