# generated using pymatgen
data_Ca11AlSb9
_symmetry_space_group_name_H-M   'P 1'
_cell_length_a   12.04684593
_cell_length_b   12.04726352
_cell_length_c   12.04673221
_cell_angle_alpha   121.14537590
_cell_angle_beta   117.20699120
_cell_angle_gamma   91.46483154
_symmetry_Int_Tables_number   1
_chemical_formula_structural   Ca11AlSb9
_chemical_formula_sum   'Ca22 Al2 Sb18'
_cell_volume   1249.44952167
_cell_formula_units_Z   2
loop_
 _symmetry_equiv_pos_site_id
 _symmetry_equiv_pos_as_xyz
  1  'x, y, z'
loop_
 _atom_site_type_symbol
 _atom_site_label
 _atom_site_symmetry_multiplicity
 _atom_site_fract_x
 _atom_site_fract_y
 _atom_site_fract_z
 _atom_site_occupancy
  Ca  Ca0  1  0.49875790  0.51286975  0.66437271  1
  Ca  Ca1  1  0.84849582  0.83439799  0.33561546  1
  Ca  Ca2  1  0.34850618  0.01286889  0.01412664  1
  Ca  Ca3  1  0.99874832  0.33438250  0.98588769  1
  Ca  Ca4  1  0.29015122  0.08732533  0.34963407  1
  Ca  Ca5  1  0.73767812  0.94052156  0.65034352  1
  Ca  Ca6  1  0.23769533  0.58732605  0.79718296  1
  Ca  Ca7  1  0.79016505  0.44052751  0.20283717  1
  Ca  Ca8  1  0.35824843  0.61849645  0.37353845  1
  Ca  Ca9  1  0.24497209  0.98470753  0.62646207  1
  Ca  Ca10  1  0.74495866  0.11852238  0.26026410  1
  Ca  Ca11  1  0.85822717  0.48471145  0.73975250  1
  Ca  Ca12  1  0.99506336  0.99507016  -0.00000508  1
  Ca  Ca13  1  0.49506828  0.49506291  0.00000103  1
  Ca  Ca14  1  0.09839071  0.36293026  0.36992457  1
  Ca  Ca15  1  0.99302963  0.72850722  0.63008471  1
  Ca  Ca16  1  0.49302489  0.86293040  0.26451473  1
  Ca  Ca17  1  0.59840628  0.22848658  0.73546487  1
  Ca  Ca18  1  0.60734432  0.42620629  0.36708840  1
  Ca  Ca19  1  0.05910643  0.24025811  0.63291463  1
  Ca  Ca20  1  0.55910869  0.92618920  0.81886237  1
  Ca  Ca21  1  0.10732742  0.74024784  0.18115393  1
  Al  Al0  1  0.27560644  0.27557930  0.00001564  1
  Al  Al1  1  0.77559517  0.77560823  -0.00001982  1
  Sb  Sb0  1  0.72501586  0.71805065  0.72357319  1
  Sb  Sb1  1  0.99444102  0.00145672  0.27643471  1
  Sb  Sb2  1  0.49446116  0.21802210  0.99300435  1
  Sb  Sb3  1  0.22502623  0.50143244  0.00700187  1
  Sb  Sb4  1  0.56684104  0.21124577  0.42593120  1
  Sb  Sb5  1  0.78527609  0.14087659  0.57398518  1
  Sb  Sb6  1  0.28532767  0.71126247  0.64443019  1
  Sb  Sb7  1  0.06687957  0.64087845  0.35562571  1
  Sb  Sb8  1  0.28563019  0.30208933  0.24497166  1
  Sb  Sb9  1  0.05713842  0.04067299  0.75503655  1
  Sb  Sb10  1  0.55720176  0.80208002  0.01652056  1
  Sb  Sb11  1  0.78556366  0.54068794  0.98349675  1
  Sb  Sb12  1  0.67083428  0.66830334  0.35411912  1
  Sb  Sb13  1  0.31417554  0.31665932  0.64588598  1
  Sb  Sb14  1  0.81415308  0.16830315  0.99748153  1
  Sb  Sb15  1  0.17077969  0.81666341  0.00249195  1
  Sb  Sb16  1  0.92247799  0.42248797  0.50002884  1
  Sb  Sb17  1  0.42250285  0.92249344  0.49996533  1
loop_
_geom_bond_atom_site_label_1
_geom_bond_atom_site_label_2
_geom_bond_distance
_geom_bond_site_symmetry_2
Ca0 Sb13 3.052144 1_555
Ca0 Sb0 3.178462 1_555
Ca0 Sb10 3.533510 1_556
Ca0 Sb6 3.567132 1_555
Ca0 Sb8 3.619474 1_555
Ca0 Sb11 3.645762 1_555
Ca0 Sb4 3.692883 1_555
Ca1 Sb12 3.051727 1_555
Ca1 Sb1 3.177979 1_565
Ca1 Sb11 3.533360 1_554
Ca1 Sb7 3.567879 1_655
Ca1 Sb9 3.619655 1_665
Ca1 Sb10 3.645500 1_555
Ca1 Sb5 3.692510 1_565
Ca2 Sb15 3.052068 1_545
Ca2 Sb2 3.178414 1_554
Ca2 Sb8 3.533506 1_555
Ca2 Sb4 3.566956 1_555
Ca2 Sb10 3.620251 1_545
Ca2 Sb9 3.646674 1_554
Ca2 Sb6 3.692733 1_544
Ca3 Sb14 3.051812 1_555
Ca3 Sb3 3.178293 1_656
Ca3 Sb9 3.533557 1_655
Ca3 Sb5 3.567806 1_555
Ca3 Sb11 3.620296 1_555
Ca3 Sb8 3.646663 1_656
Ca3 Sb7 3.692758 1_656
Ca4 Sb13 3.044483 1_555
Ca4 Sb4 3.115887 1_555
Ca4 Sb15 3.216286 1_545
Ca4 Sb1 3.245572 1_455
Ca4 Sb17 3.317640 1_545
Ca4 Sb8 3.406729 1_555
Ca5 Sb12 3.044575 1_555
Ca5 Sb5 3.115981 1_565
Ca5 Sb14 3.216254 1_565
Ca5 Sb0 3.245414 1_555
Ca5 Sb17 3.317590 1_555
Ca5 Sb9 3.406971 1_665
Ca6 Sb15 3.044493 1_556
Ca6 Sb6 3.115880 1_555
Ca6 Sb13 3.216362 1_555
Ca6 Sb3 3.245499 1_556
Ca6 Sb16 3.317971 1_455
Ca6 Sb10 3.407345 1_556
Ca7 Sb14 3.044458 1_554
Ca7 Sb7 3.115869 1_655
Ca7 Sb12 3.215915 1_555
Ca7 Sb2 3.245574 1_554
Ca7 Sb16 3.318131 1_555
Ca7 Sb11 3.407150 1_554
Ca8 Sb17 3.055923 1_555
Ca8 Sb8 3.190259 1_555
Ca8 Sb3 3.320316 1_555
Ca8 Sb6 3.401351 1_555
Ca8 Sb7 3.443235 1_555
Ca9 Sb17 3.055905 1_555
Ca9 Sb9 3.190077 1_565
Ca9 Sb2 3.320483 1_565
Ca9 Sb7 3.401589 1_555
Ca9 Sb6 3.443639 1_555
Ca10 Sb16 3.055514 1_555
Ca10 Sb10 3.190306 1_545
Ca10 Sb1 3.320448 1_555
Ca10 Sb4 3.401089 1_555
Ca10 Sb5 3.442909 1_555
Ca11 Sb16 3.055359 1_555
Ca11 Sb11 3.189868 1_555
Ca11 Sb0 3.320688 1_555
Ca11 Sb5 3.401617 1_555
Ca11 Sb4 3.443599 1_555
Ca12 Sb15 3.056579 1_655
Ca12 Sb14 3.056757 1_564
Ca12 Sb0 3.294407 1_554
Ca12 Sb1 3.294540 1_565
Ca12 Sb9 3.639098 1_664
Ca12 Sb8 3.639164 1_665
Ca13 Sb13 3.056476 1_554
Ca13 Sb12 3.056511 1_555
Ca13 Sb3 3.294384 1_555
Ca13 Sb2 3.294512 1_554
Ca13 Sb11 3.638608 1_554
Ca13 Sb10 3.638848 1_555
Ca14 Sb16 3.068222 1_455
Ca14 Sb8 3.152622 1_555
Ca14 Sb6 3.459686 1_555
Ca14 Sb7 3.462395 1_555
Ca14 Sb14 3.465862 1_454
Ca14 Sb13 3.494118 1_555
Ca15 Sb16 3.068548 1_555
Ca15 Sb9 3.152487 1_665
Ca15 Sb7 3.459043 1_655
Ca15 Sb6 3.462724 1_655
Ca15 Sb15 3.465645 1_656
Ca15 Sb12 3.493747 1_555
Ca16 Sb17 3.067761 1_555
Ca16 Sb10 3.152135 1_555
Ca16 Sb4 3.459461 1_565
Ca16 Sb5 3.462422 1_565
Ca16 Sb12 3.465811 1_555
Ca16 Sb15 3.494130 1_555
Ca17 Sb17 3.068147 1_545
Ca17 Sb11 3.152604 1_555
Ca17 Sb5 3.459497 1_555
Ca17 Sb4 3.462718 1_555
Ca17 Sb13 3.465567 1_555
Ca17 Sb14 3.493709 1_555
Ca18 Sb12 3.095577 1_555
Ca18 Sb4 3.098006 1_555
Ca18 Sb2 3.313353 1_554
Ca18 Sb0 3.372454 1_555
Ca18 Sb16 3.391547 1_555
Ca18 Sb8 3.411064 1_555
Ca19 Sb13 3.095339 1_555
Ca19 Sb5 3.097889 1_455
Ca19 Sb3 3.313338 1_556
Ca19 Sb1 3.372223 1_455
Ca19 Sb16 3.391496 1_455
Ca19 Sb9 3.410925 1_555
Ca20 Sb14 3.095489 1_565
Ca20 Sb6 3.097705 1_555
Ca20 Sb0 3.313094 1_555
Ca20 Sb2 3.372348 1_565
Ca20 Sb17 3.392184 1_555
Ca20 Sb10 3.411292 1_556
Ca21 Sb15 3.095513 1_555
Ca21 Sb7 3.098000 1_555
Ca21 Sb1 3.313512 1_465
Ca21 Sb3 3.372586 1_555
Ca21 Sb17 3.391761 1_555
Ca21 Sb11 3.411301 1_454
Al0 Sb8 2.742592 1_555
Al0 Sb9 2.742722 1_554
Al0 Sb2 2.770495 1_554
Al0 Sb3 2.770652 1_555
Al0 Ca2 3.373297 1_555
Al0 Ca3 3.373616 1_454
Al1 Sb10 2.742234 1_555
Al1 Sb11 2.742523 1_554
Al1 Sb0 2.770270 1_554
Al1 Sb1 2.770595 1_565
Al1 Ca1 3.373449 1_555
Al1 Ca0 3.373459 1_554
Sb4 Sb5 2.865449 1_555
Sb6 Sb7 2.865480 1_555
