# generated using pymatgen
data_Li4MnCo2O7
_symmetry_space_group_name_H-M   'P 1'
_cell_length_a   5.03630100
_cell_length_b   5.15599421
_cell_length_c   10.21553154
_cell_angle_alpha   99.16788108
_cell_angle_beta   99.69358983
_cell_angle_gamma   99.97700428
_symmetry_Int_Tables_number   1
_chemical_formula_structural   Li4MnCo2O7
_chemical_formula_sum   'Li8 Mn2 Co4 O14'
_cell_volume   252.62533645
_cell_formula_units_Z   2
loop_
 _symmetry_equiv_pos_site_id
 _symmetry_equiv_pos_as_xyz
  1  'x, y, z'
loop_
 _atom_site_type_symbol
 _atom_site_label
 _atom_site_symmetry_multiplicity
 _atom_site_fract_x
 _atom_site_fract_y
 _atom_site_fract_z
 _atom_site_occupancy
  Li  Li0  1  0.35616100  0.21723100  0.70529700  1
  Li  Li1  1  0.92827300  0.35778500  0.85479100  1
  Li  Li2  1  0.50000000  0.50000000  0.00000000  1
  Li  Li3  1  0.21859500  0.93722700  0.43402400  1
  Li  Li4  1  0.78140500  0.06277300  0.56597600  1
  Li  Li5  1  0.07172700  0.64221500  0.14520900  1
  Li  Li6  1  0.64383900  0.78276900  0.29470300  1
  Li  Li7  1  0.50000000  0.50000000  0.50000000  1
  Mn  Mn0  1  0.64154100  0.78146800  0.78532500  1
  Mn  Mn1  1  0.35845900  0.21853200  0.21467500  1
  Co  Co0  1  0.21181200  0.92667900  0.92584200  1
  Co  Co1  1  0.78818800  0.07332100  0.07415800  1
  Co  Co2  1  0.93226400  0.36685200  0.36493600  1
  Co  Co3  1  0.06773600  0.63314800  0.63506400  1
  O  O0  1  0.42736000  0.84966800  0.62532600  1
  O  O1  1  0.98805900  0.98498800  0.76154100  1
  O  O2  1  0.57945200  0.11259000  0.89562200  1
  O  O3  1  0.26979600  0.53130500  0.31135300  1
  O  O4  1  0.87303400  0.70373200  0.46472800  1
  O  O5  1  0.14827100  0.27116200  0.04248600  1
  O  O6  1  0.69166200  0.41042000  0.17718900  1
  O  O7  1  0.30833800  0.58958000  0.82281100  1
  O  O8  1  0.85172900  0.72883800  0.95751400  1
  O  O9  1  0.42054800  0.88741000  0.10437800  1
  O  O10  1  0.12696600  0.29626800  0.53527200  1
  O  O11  1  0.73020400  0.46869500  0.68864700  1
  O  O12  1  0.01194100  0.01501200  0.23845900  1
  O  O13  1  0.57264000  0.15033200  0.37467400  1
loop_
_geom_bond_atom_site_label_1
_geom_bond_atom_site_label_2
_geom_bond_distance
_geom_bond_site_symmetry_2
Li0 O0 2.056296 1_545
Li0 O10 2.056368 1_555
Li0 O11 2.142545 1_555
Li0 O7 2.169807 1_555
Li0 O1 2.238206 1_445
Li0 O2 2.268064 1_555
Li1 O11 2.034584 1_555
Li1 O1 2.099141 1_545
Li1 O2 2.122193 1_555
Li1 O8 2.159159 1_555
Li1 O7 2.177443 1_655
Li1 O5 2.198286 1_656
Li2 O6 2.062513 1_555
Li2 O7 2.062513 1_554
Li2 O8 2.101494 1_554
Li2 O5 2.101494 1_555
Li2 O2 2.242531 1_554
Li2 O9 2.242531 1_555
Li3 O4 2.038314 1_455
Li3 O10 2.134559 1_565
Li3 O13 2.156783 1_565
Li3 O0 2.209531 1_555
Li3 O12 2.221488 1_565
Li3 O3 2.340365 1_555
Li4 O10 2.038314 1_655
Li4 O4 2.134559 1_545
Li4 O0 2.156783 1_545
Li4 O13 2.209531 1_555
Li4 O1 2.221488 1_545
Li4 O11 2.340365 1_555
Li5 O3 2.034584 1_555
Li5 O12 2.099141 1_565
Li5 O9 2.122193 1_555
Li5 O5 2.159159 1_555
Li5 O6 2.177443 1_455
Li5 O8 2.198286 1_454
Li6 O13 2.056296 1_565
Li6 O4 2.056368 1_555
Li6 O3 2.142545 1_555
Li6 O6 2.169807 1_555
Li6 O12 2.238206 1_665
Li6 O9 2.268064 1_555
Li7 O4 2.104179 1_555
Li7 O10 2.104179 1_555
Li7 O11 2.120280 1_555
Li7 O3 2.120280 1_555
Li7 O13 2.161963 1_555
Li7 O0 2.161963 1_555
Mn0 O11 1.914668 1_555
Mn0 O0 1.918217 1_555
Mn0 O7 1.924421 1_555
Mn0 O1 1.948143 1_555
Mn0 O8 1.978100 1_555
Mn0 O2 1.993171 1_565
Mn1 O3 1.914668 1_555
Mn1 O13 1.918217 1_555
Mn1 O6 1.924421 1_555
Mn1 O12 1.948143 1_555
Mn1 O5 1.978100 1_555
Mn1 O9 1.993171 1_545
Co0 O1 1.954125 1_455
Co0 O9 2.004565 1_556
Co0 O8 2.023788 1_455
Co0 O2 2.028339 1_565
Co0 O7 2.060871 1_555
Co0 O5 2.080370 1_566
Co1 O12 1.954125 1_655
Co1 O2 2.004565 1_554
Co1 O5 2.023788 1_655
Co1 O9 2.028339 1_545
Co1 O6 2.060871 1_555
Co1 O8 2.080370 1_544
Co2 O4 1.965431 1_555
Co2 O3 1.967256 1_655
Co2 O10 1.967912 1_655
Co2 O13 1.982925 1_555
Co2 O6 2.155511 1_555
Co2 O12 2.191169 1_655
Co3 O10 1.965431 1_555
Co3 O11 1.967256 1_455
Co3 O4 1.967912 1_455
Co3 O0 1.982925 1_555
Co3 O7 2.155511 1_555
Co3 O1 2.191169 1_455
