# generated using pymatgen
data_NaBe(BO2)3
_symmetry_space_group_name_H-M   'P 1'
_cell_length_a   4.45233800
_cell_length_b   9.24166200
_cell_length_c   12.03962400
_cell_angle_alpha   90.00000000
_cell_angle_beta   90.00000000
_cell_angle_gamma   90.00000000
_symmetry_Int_Tables_number   1
_chemical_formula_structural   NaBe(BO2)3
_chemical_formula_sum   'Na4 Be4 B12 O24'
_cell_volume   495.39444371
_cell_formula_units_Z   4
loop_
 _symmetry_equiv_pos_site_id
 _symmetry_equiv_pos_as_xyz
  1  'x, y, z'
loop_
 _atom_site_type_symbol
 _atom_site_label
 _atom_site_symmetry_multiplicity
 _atom_site_fract_x
 _atom_site_fract_y
 _atom_site_fract_z
 _atom_site_occupancy
  Na  Na0  1  0.28004900  0.17595800  0.11323400  1
  Na  Na1  1  0.78004900  0.82404200  0.88676600  1
  Na  Na2  1  0.78004900  0.32404200  0.61323400  1
  Na  Na3  1  0.28004900  0.67595800  0.38676600  1
  Be  Be0  1  0.82652400  0.40807700  0.04202500  1
  Be  Be1  1  0.32652400  0.59192300  0.95797500  1
  Be  Be2  1  0.32652400  0.09192300  0.54202500  1
  Be  Be3  1  0.82652400  0.90807700  0.45797500  1
  B  B0  1  0.88086700  0.43048300  0.25440200  1
  B  B1  1  0.38086700  0.56951700  0.74559800  1
  B  B2  1  0.38086700  0.06951700  0.75440200  1
  B  B3  1  0.88086700  0.93048300  0.24559800  1
  B  B4  1  0.50276300  0.08321600  0.33623800  1
  B  B5  1  0.00276300  0.91678400  0.66376200  1
  B  B6  1  0.00276300  0.41678400  0.83623800  1
  B  B7  1  0.50276300  0.58321600  0.16376200  1
  B  B8  1  0.15877900  0.27748200  0.39478000  1
  B  B9  1  0.65877900  0.72251800  0.60522000  1
  B  B10  1  0.65877900  0.22251800  0.89478000  1
  B  B11  1  0.15877900  0.77748200  0.10522000  1
  O  O0  1  0.99277700  0.38260600  0.15823300  1
  O  O1  1  0.49277700  0.61739400  0.84176700  1
  O  O2  1  0.49277700  0.11739400  0.65823300  1
  O  O3  1  0.99277700  0.88260600  0.34176700  1
  O  O4  1  0.64045700  0.02968800  0.24120600  1
  O  O5  1  0.14045700  0.97031200  0.75879400  1
  O  O6  1  0.14045700  0.47031200  0.74120600  1
  O  O7  1  0.64045700  0.52968800  0.25879400  1
  O  O8  1  0.56228600  0.03671300  0.44122400  1
  O  O9  1  0.06228600  0.96328700  0.55877600  1
  O  O10  1  0.06228600  0.46328700  0.94122400  1
  O  O11  1  0.56228600  0.53671300  0.05877600  1
  O  O12  1  0.30369700  0.19517300  0.31232800  1
  O  O13  1  0.80369700  0.80482700  0.68767200  1
  O  O14  1  0.80369700  0.30482700  0.81232800  1
  O  O15  1  0.30369700  0.69517300  0.18767200  1
  O  O16  1  0.67940900  0.25647100  0.00259500  1
  O  O17  1  0.17940900  0.74352900  0.99740500  1
  O  O18  1  0.17940900  0.24352900  0.50259500  1
  O  O19  1  0.67940900  0.75647100  0.49740500  1
  O  O20  1  0.98619100  0.89559400  0.13919800  1
  O  O21  1  0.48619100  0.10440600  0.86080200  1
  O  O22  1  0.48619100  0.60440600  0.63919800  1
  O  O23  1  0.98619100  0.39559400  0.36080200  1
loop_
_geom_bond_atom_site_label_1
_geom_bond_atom_site_label_2
_geom_bond_distance
_geom_bond_site_symmetry_2
Na0 O16 2.342989 1_555
Na0 O0 2.361496 1_455
Na0 O12 2.405891 1_555
Na0 O4 2.603093 1_555
Na0 O20 2.919408 1_445
Na1 O17 2.342989 1_655
Na1 O1 2.361496 1_555
Na1 O13 2.405891 1_555
Na1 O5 2.603093 1_655
Na1 O21 2.919408 1_565
Na2 O18 2.342989 1_655
Na2 O2 2.361496 1_555
Na2 O14 2.405891 1_555
Na2 O6 2.603093 1_655
Na2 O22 2.919408 1_555
Na3 O19 2.342989 1_555
Na3 O3 2.361496 1_455
Na3 O15 2.405891 1_555
Na3 O7 2.603093 1_555
Na3 O23 2.919408 1_455
Be0 O0 1.600253 1_555
Be0 O16 1.617854 1_555
Be0 O10 1.683755 1_654
Be0 O11 1.684649 1_555
Be1 O1 1.600253 1_555
Be1 O17 1.617854 1_555
Be1 O11 1.683755 1_556
Be1 O10 1.684649 1_555
Be2 O2 1.600253 1_555
Be2 O18 1.617854 1_555
Be2 O8 1.683755 1_555
Be2 O9 1.684649 1_545
Be3 O3 1.600253 1_555
Be3 O19 1.617854 1_555
Be3 O9 1.683755 1_655
Be3 O8 1.684649 1_565
B0 O0 1.335900 1_555
B0 O23 1.401737 1_555
B0 O7 1.410348 1_555
B1 O1 1.335900 1_555
B1 O22 1.401737 1_555
B1 O6 1.410348 1_555
B2 O2 1.335900 1_555
B2 O21 1.401737 1_555
B2 O5 1.410348 1_545
B3 O3 1.335900 1_555
B3 O20 1.401737 1_555
B3 O4 1.410348 1_565
B4 O8 1.361105 1_555
B4 O4 1.389114 1_555
B4 O12 1.392462 1_555
B5 O9 1.361105 1_555
B5 O5 1.389114 1_555
B5 O13 1.392462 1_455
B6 O10 1.361105 1_555
B6 O6 1.389114 1_555
B6 O14 1.392462 1_455
B7 O11 1.361105 1_555
B7 O7 1.389114 1_555
B7 O15 1.392462 1_555
B8 O18 1.338594 1_555
B8 O23 1.396174 1_455
B8 O12 1.407257 1_555
B9 O19 1.338594 1_555
B9 O22 1.396174 1_555
B9 O13 1.407257 1_555
B10 O16 1.338594 1_556
B10 O21 1.396174 1_555
B10 O14 1.407257 1_555
B11 O17 1.338594 1_554
B11 O20 1.396174 1_455
B11 O15 1.407257 1_555
