# generated using pymatgen
data_Cu2(WSe2)3
_symmetry_space_group_name_H-M   'P 1'
_cell_length_a   3.33726909
_cell_length_b   9.29217886
_cell_length_c   14.16399900
_cell_angle_alpha   90.00000000
_cell_angle_beta   90.00000000
_cell_angle_gamma   100.33726379
_symmetry_Int_Tables_number   1
_chemical_formula_structural   Cu2(WSe2)3
_chemical_formula_sum   'Cu4 W6 Se12'
_cell_volume   432.10332157
_cell_formula_units_Z   2
loop_
 _symmetry_equiv_pos_site_id
 _symmetry_equiv_pos_as_xyz
  1  'x, y, z'
loop_
 _atom_site_type_symbol
 _atom_site_label
 _atom_site_symmetry_multiplicity
 _atom_site_fract_x
 _atom_site_fract_y
 _atom_site_fract_z
 _atom_site_occupancy
  Cu  Cu0  1  0.54662000  0.09295600  0.53332300  1
  Cu  Cu1  1  0.77300100  0.54687000  0.46132600  1
  Cu  Cu2  1  0.12004700  0.24037700  0.03332300  1
  Cu  Cu3  1  0.89366500  0.78646400  0.96132600  1
  W  W0  1  0.56771900  0.13502300  0.74852100  1
  W  W1  1  0.22024400  0.44065700  0.75127600  1
  W  W2  1  0.87623400  0.75197600  0.75441000  1
  W  W3  1  0.09894800  0.19831000  0.24852100  1
  W  W4  1  0.79043200  0.58135800  0.25441000  1
  W  W5  1  0.44642300  0.89267600  0.25127600  1
  Se  Se0  1  0.55017100  0.10063900  0.12494500  1
  Se  Se1  1  0.22160500  0.44367600  0.14293400  1
  Se  Se2  1  0.89008200  0.77976500  0.13077700  1
  Se  Se3  1  0.11419200  0.22802600  0.86810600  1
  Se  Se4  1  0.77066000  0.54124400  0.87472900  1
  Se  Se5  1  0.45126300  0.90188700  0.85965200  1
  Se  Se6  1  0.11649600  0.23269400  0.62494500  1
  Se  Se7  1  0.77658400  0.55356900  0.63077700  1
  Se  Se8  1  0.44506200  0.88965700  0.64293400  1
  Se  Se9  1  0.55247500  0.10530700  0.36810600  1
  Se  Se10  1  0.21540400  0.43144600  0.35965200  1
  Se  Se11  1  0.89600600  0.79209000  0.37472900  1
loop_
_geom_bond_atom_site_label_1
_geom_bond_atom_site_label_2
_geom_bond_distance
_geom_bond_site_symmetry_2
Cu0 Se9 2.342856 1_555
Cu0 Se8 2.421591 1_545
Cu0 Se6 2.469725 1_555
Cu0 Se6 2.469988 1_655
Cu1 Se7 2.400885 1_555
Cu1 Se10 2.443513 1_555
Cu1 Se10 2.443843 1_655
Cu1 Se11 2.555272 1_555
Cu2 Se3 2.342856 1_554
Cu2 Se1 2.421591 1_555
Cu2 Se0 2.469725 1_555
Cu2 Se0 2.469988 1_455
Cu3 Se2 2.400885 1_556
Cu3 Se5 2.443512 1_655
Cu3 Se5 2.443836 1_555
Cu3 Se4 2.555272 1_555
Se0 W3 2.577774 1_655
Se0 W3 2.577872 1_555
Se0 W5 2.610713 1_545
Se1 W4 2.619366 1_455
Se1 W4 2.619521 1_555
Se1 W3 2.695843 1_555
Se2 W4 2.521116 1_555
Se2 W5 2.600359 1_655
Se2 W5 2.600672 1_555
Se3 W0 2.525082 1_555
Se3 W0 2.525107 1_455
Se3 W1 2.552725 1_555
Se4 W2 2.572006 1_555
Se4 W1 2.585654 1_655
Se4 W1 2.586341 1_555
Se5 W2 2.623529 1_555
Se5 W2 2.624075 1_455
Se5 W0 2.649450 1_565
Se6 W0 2.577774 1_455
Se6 W0 2.577872 1_555
Se6 W1 2.610713 1_555
Se7 W2 2.521116 1_555
Se7 W1 2.600360 1_555
Se7 W1 2.600679 1_655
Se8 W2 2.619358 1_555
Se8 W2 2.619520 1_455
Se8 W0 2.695843 1_565
Se9 W3 2.525082 1_555
Se9 W3 2.525107 1_655
Se9 W5 2.552725 1_545
Se10 W4 2.623537 1_455
Se10 W4 2.624077 1_555
Se10 W3 2.649450 1_555
Se11 W4 2.572006 1_555
Se11 W5 2.585648 1_555
Se11 W5 2.586341 1_655
