# generated using pymatgen
data_Mn3(OF2)2
_symmetry_space_group_name_H-M   'P 1'
_cell_length_a   4.79084864
_cell_length_b   7.99207895
_cell_length_c   5.77390235
_cell_angle_alpha   92.79062256
_cell_angle_beta   89.59525360
_cell_angle_gamma   92.20770022
_symmetry_Int_Tables_number   1
_chemical_formula_structural   Mn3(OF2)2
_chemical_formula_sum   'Mn6 O4 F8'
_cell_volume   220.64697541
_cell_formula_units_Z   2
loop_
 _symmetry_equiv_pos_site_id
 _symmetry_equiv_pos_as_xyz
  1  'x, y, z'
loop_
 _atom_site_type_symbol
 _atom_site_label
 _atom_site_symmetry_multiplicity
 _atom_site_fract_x
 _atom_site_fract_y
 _atom_site_fract_z
 _atom_site_occupancy
  Mn  Mn0  1  0.46911700  0.98483500  0.49855600  1
  Mn  Mn1  1  0.53087700  0.34861300  0.83477400  1
  Mn  Mn2  1  0.95435000  0.34183300  0.33580900  1
  Mn  Mn3  1  0.04532300  0.99142200  0.99738900  1
  Mn  Mn4  1  0.99995600  0.66667900  0.66657600  1
  Mn  Mn5  1  0.49978100  0.66667100  0.16668200  1
  O  O0  1  0.80233000  0.45396200  0.64012400  1
  O  O1  1  0.67553200  0.45154500  0.11592700  1
  O  O2  1  0.32407800  0.88182400  0.21746300  1
  O  O3  1  0.19764400  0.87942900  0.69319400  1
  F  F0  1  0.78694300  0.76775000  0.96455000  1
  F  F1  1  0.72423700  0.76039000  0.46488200  1
  F  F2  1  0.27540200  0.57307900  0.86858900  1
  F  F3  1  0.21300400  0.56537000  0.36887300  1
  F  F4  1  0.79029900  0.09129400  0.30208300  1
  F  F5  1  0.68555400  0.09019000  0.78345700  1
  F  F6  1  0.31518000  0.24330800  0.54990900  1
  F  F7  1  0.21039400  0.24181000  0.03116400  1
loop_
_geom_bond_atom_site_label_1
_geom_bond_atom_site_label_2
_geom_bond_distance
_geom_bond_site_symmetry_2
Mn0 O2 1.906961 1_555
Mn0 O3 1.910832 1_555
Mn1 O1 1.906362 1_556
Mn1 O0 1.910609 1_555
Mn2 O0 2.073579 1_555
Mn2 O1 2.094645 1_555
Mn3 O3 2.073092 1_555
Mn3 O2 2.094716 1_556
Mn4 O0 1.913811 1_555
Mn4 O3 1.914215 1_655
Mn5 O1 1.951879 1_555
Mn5 O2 1.951980 1_555
F0 Mn5 1.972530 1_556
F0 Mn4 2.134794 1_555
F0 Mn3 2.136260 1_655
F1 Mn4 1.960830 1_555
F1 Mn5 2.126125 1_555
F1 Mn0 2.209282 1_555
F2 Mn4 1.960675 1_455
F2 Mn5 2.125152 1_556
F2 Mn1 2.210451 1_555
F3 Mn5 1.972219 1_555
F3 Mn4 2.134330 1_455
F3 Mn2 2.136173 1_455
F4 Mn0 2.084938 1_545
F4 Mn2 2.123180 1_555
F4 Mn3 2.265596 1_644
F5 Mn0 2.076566 1_545
F5 Mn1 2.226604 1_555
F5 Mn3 2.312899 1_645
F6 Mn1 2.074533 1_555
F6 Mn0 2.225695 1_545
F6 Mn2 2.316547 1_455
F7 Mn1 2.083385 1_554
F7 Mn3 2.123718 1_544
F7 Mn2 2.268465 1_455
