# generated using pymatgen
data_KUH3SO8
_symmetry_space_group_name_H-M   'P 1'
_cell_length_a   8.27984400
_cell_length_b   8.13324000
_cell_length_c   11.75077762
_cell_angle_alpha   90.00000000
_cell_angle_beta   109.63361630
_cell_angle_gamma   90.00000000
_symmetry_Int_Tables_number   1
_chemical_formula_structural   KUH3SO8
_chemical_formula_sum   'K4 U4 H12 S4 O32'
_cell_volume   745.31338756
_cell_formula_units_Z   4
loop_
 _symmetry_equiv_pos_site_id
 _symmetry_equiv_pos_as_xyz
  1  'x, y, z'
loop_
 _atom_site_type_symbol
 _atom_site_label
 _atom_site_symmetry_multiplicity
 _atom_site_fract_x
 _atom_site_fract_y
 _atom_site_fract_z
 _atom_site_occupancy
  K  K0  1  0.06868900  0.46386500  0.29689700  1
  K  K1  1  0.93131100  0.96386500  0.20310300  1
  K  K2  1  0.93131100  0.53613500  0.70310300  1
  K  K3  1  0.06868900  0.03613500  0.79689700  1
  U  U0  1  0.57465700  0.60078300  0.29650200  1
  U  U1  1  0.42534300  0.10078300  0.20349800  1
  U  U2  1  0.42534300  0.39921700  0.70349800  1
  U  U3  1  0.57465700  0.89921700  0.79650200  1
  H  H0  1  0.34964900  0.84027000  0.34493700  1
  H  H1  1  0.65035100  0.34027000  0.15506300  1
  H  H2  1  0.65035100  0.15973000  0.65506300  1
  H  H3  1  0.34964900  0.65973000  0.84493700  1
  H  H4  1  0.13770200  0.29534200  0.99024800  1
  H  H5  1  0.86229800  0.79534200  0.50975200  1
  H  H6  1  0.86229800  0.70465800  0.00975200  1
  H  H7  1  0.13770200  0.20465800  0.49024800  1
  H  H8  1  0.32757100  0.35931700  0.01185300  1
  H  H9  1  0.67242900  0.85931700  0.48814700  1
  H  H10  1  0.67242900  0.64068300  0.98814700  1
  H  H11  1  0.32757100  0.14068300  0.51185300  1
  S  S0  1  0.20362200  0.73751000  0.03875600  1
  S  S1  1  0.79637800  0.23751000  0.46124400  1
  S  S2  1  0.79637800  0.26249000  0.96124400  1
  S  S3  1  0.20362200  0.76249000  0.53875600  1
  O  O0  1  0.22462100  0.92058400  0.06245200  1
  O  O1  1  0.77537900  0.42058400  0.43754800  1
  O  O2  1  0.77537900  0.07941600  0.93754800  1
  O  O3  1  0.22462100  0.57941600  0.56245200  1
  O  O4  1  0.44008100  0.85587500  0.30863500  1
  O  O5  1  0.55991900  0.35587500  0.19136500  1
  O  O6  1  0.55991900  0.14412500  0.69136500  1
  O  O7  1  0.44008100  0.64412500  0.80863500  1
  O  O8  1  0.15502300  0.79113500  0.40764400  1
  O  O9  1  0.84497700  0.29113500  0.09235600  1
  O  O10  1  0.84497700  0.20886500  0.59235600  1
  O  O11  1  0.15502300  0.70886500  0.90764400  1
  O  O12  1  0.74914600  0.66725200  0.24509500  1
  O  O13  1  0.25085400  0.16725200  0.25490500  1
  O  O14  1  0.25085400  0.33274800  0.75490500  1
  O  O15  1  0.74914600  0.83274800  0.74509500  1
  O  O16  1  0.40693900  0.52187600  0.34766000  1
  O  O17  1  0.59306100  0.02187600  0.15234000  1
  O  O18  1  0.59306100  0.47812400  0.65234000  1
  O  O19  1  0.40693900  0.97812400  0.84766000  1
  O  O20  1  0.37204800  0.65300900  0.10050000  1
  O  O21  1  0.62795200  0.15300900  0.39950000  1
  O  O22  1  0.62795200  0.34699100  0.89950000  1
  O  O23  1  0.37204800  0.84699100  0.60050000  1
  O  O24  1  0.07313900  0.67600100  0.08921500  1
  O  O25  1  0.92686100  0.17600100  0.41078500  1
  O  O26  1  0.92686100  0.32399900  0.91078500  1
  O  O27  1  0.07313900  0.82399900  0.58921500  1
  O  O28  1  0.26127300  0.26188000  0.01650200  1
  O  O29  1  0.73872700  0.76188000  0.48349800  1
  O  O30  1  0.73872700  0.73812000  0.98349800  1
  O  O31  1  0.26127300  0.23812000  0.51650200  1
loop_
_geom_bond_atom_site_label_1
_geom_bond_atom_site_label_2
_geom_bond_distance
_geom_bond_site_symmetry_2
K0 O16 2.701749 1_555
K0 O9 2.861768 1_455
K0 O8 2.943533 1_555
K0 O13 2.972941 1_555
K0 O24 2.999050 1_555
K0 O12 3.004113 1_455
K0 O3 3.095178 1_555
K0 O25 3.115704 1_455
K0 O31 3.131711 1_555
K0 O1 3.383897 1_455
K1 O17 2.701749 1_565
K1 O8 2.861768 1_655
K1 O9 2.943533 1_565
K1 O12 2.972941 1_555
K1 O25 2.999050 1_565
K1 O13 3.004113 1_665
K1 O2 3.095178 1_564
K1 O24 3.115704 1_655
K1 O30 3.131711 1_554
K1 O0 3.383897 1_655
K2 O18 2.701749 1_555
K2 O11 2.861768 1_655
K2 O10 2.943533 1_555
K2 O15 2.972941 1_555
K2 O26 2.999050 1_555
K2 O14 3.004113 1_655
K2 O1 3.095178 1_555
K2 O27 3.115704 1_655
K2 O29 3.131711 1_555
K2 O3 3.383897 1_655
K3 O19 2.701749 1_545
K3 O10 2.861768 1_455
K3 O11 2.943533 1_545
K3 O14 2.972941 1_555
K3 O27 2.999050 1_545
K3 O15 3.004113 1_445
K3 O0 3.095178 1_546
K3 O26 3.115704 1_455
K3 O28 3.131711 1_556
K3 O2 3.383897 1_455
H0 O4 0.986592 1_555
H1 O5 0.986592 1_555
H2 O6 0.986592 1_555
H3 O7 0.986592 1_555
H4 O28 1.001978 1_556
H4 K3 3.010090 1_555
H5 O29 1.001978 1_555
H5 K2 3.010090 1_555
H6 O30 1.001978 1_554
H6 K1 3.010090 1_555
H7 O31 1.001978 1_555
H7 K0 3.010090 1_555
H8 O28 0.975956 1_555
H9 O29 0.975956 1_555
H10 O30 0.975956 1_555
H11 O31 0.975956 1_555
O0 S0 1.514036 1_555
O0 U1 2.409559 1_565
O1 S1 1.514036 1_555
O1 U0 2.409559 1_555
O2 S2 1.514036 1_555
O2 U3 2.409559 1_545
O3 S3 1.514036 1_555
O3 U2 2.409559 1_555
O4 U1 2.325412 1_565
O4 U0 2.381840 1_555
O5 U0 2.325412 1_555
O5 U1 2.381840 1_555
O6 U3 2.325412 1_545
O6 U2 2.381840 1_555
O7 U2 2.325412 1_555
O7 U3 2.381840 1_555
O8 S3 1.474192 1_555
O9 S2 1.474192 1_554
O10 S1 1.474192 1_555
O11 S0 1.474192 1_556
O12 U0 1.825081 1_555
O13 U1 1.825081 1_555
O14 U2 1.825081 1_555
O15 U3 1.825081 1_555
O16 U0 1.806285 1_555
O17 U1 1.806285 1_555
O18 U2 1.806285 1_555
O19 U3 1.806285 1_555
O20 S0 1.504511 1_555
O20 U0 2.388059 1_555
O21 S1 1.504511 1_555
O21 U1 2.388059 1_555
O22 S2 1.504511 1_555
O22 U2 2.388059 1_555
O23 S3 1.504511 1_555
O23 U3 2.388059 1_555
O24 S0 1.483084 1_555
O25 S1 1.483084 1_555
O26 S2 1.483084 1_555
O27 S3 1.483084 1_555
O28 U1 2.526767 1_555
O29 U0 2.526767 1_555
O30 U3 2.526767 1_555
O31 U2 2.526767 1_555
