# generated using pymatgen
data_K2Fe2H8C4Cl2O13
_symmetry_space_group_name_H-M   'P 1'
_cell_length_a   8.91576207
_cell_length_b   8.91576207
_cell_length_c   13.10300839
_cell_angle_alpha   99.91631074
_cell_angle_beta   99.91631074
_cell_angle_gamma   119.59237341
_symmetry_Int_Tables_number   1
_chemical_formula_structural   K2Fe2H8C4Cl2O13
_chemical_formula_sum   'K4 Fe4 H16 C8 Cl4 O26'
_cell_volume   850.99012021
_cell_formula_units_Z   2
loop_
 _symmetry_equiv_pos_site_id
 _symmetry_equiv_pos_as_xyz
  1  'x, y, z'
loop_
 _atom_site_type_symbol
 _atom_site_label
 _atom_site_symmetry_multiplicity
 _atom_site_fract_x
 _atom_site_fract_y
 _atom_site_fract_z
 _atom_site_occupancy
  K  K0  1  0.06500300  0.13182200  0.82281800  1
  K  K1  1  0.30900400  0.24218500  0.17718200  1
  K  K2  1  0.38182200  0.81500300  0.32281800  1
  K  K3  1  0.49218500  0.05900400  0.67718200  1
  Fe  Fe0  1  0.14019300  0.50342700  0.61191300  1
  Fe  Fe1  1  0.89151400  0.52828000  0.38808700  1
  Fe  Fe2  1  0.75342700  0.89019300  0.11191300  1
  Fe  Fe3  1  0.77828000  0.64151400  0.88808700  1
  H  H0  1  0.13298900  0.06898400  0.59533500  1
  H  H1  1  0.47364900  0.53765300  0.40466500  1
  H  H2  1  0.31898400  0.88298800  0.09533500  1
  H  H3  1  0.78765300  0.22364900  0.90466500  1
  H  H4  1  0.07195500  0.87671700  0.60559200  1
  H  H5  1  0.27112600  0.46636300  0.39440800  1
  H  H6  1  0.12671700  0.82195500  0.10559200  1
  H  H7  1  0.71636300  0.02112600  0.89440800  1
  H  H8  1  0.05455700  0.29781500  0.06160200  1
  H  H9  1  0.23621300  0.99295500  0.93839800  1
  H  H10  1  0.54781500  0.80455700  0.56160200  1
  H  H11  1  0.24295500  0.98621300  0.43839800  1
  H  H12  1  0.13128500  0.46260200  0.01948900  1
  H  H13  1  0.44311300  0.11179600  0.98051100  1
  H  H14  1  0.71260200  0.88128500  0.51948900  1
  H  H15  1  0.36179600  0.19311300  0.48051100  1
  C  C0  1  0.51871600  0.65066300  0.72602200  1
  C  C1  1  0.92464100  0.79269400  0.27397800  1
  C  C2  1  0.90066300  0.26871600  0.22602200  1
  C  C3  1  0.04269400  0.67464100  0.77397800  1
  C  C4  1  0.40947800  0.50721200  0.77885100  1
  C  C5  1  0.72836100  0.63062700  0.22114900  1
  C  C6  1  0.75721200  0.15947800  0.27885100  1
  C  C7  1  0.88062700  0.47836100  0.72114900  1
  Cl  Cl0  1  0.10392700  0.24307200  0.49734300  1
  Cl  Cl1  1  0.74572900  0.60658400  0.50265700  1
  Cl  Cl2  1  0.49307200  0.85392700  0.99734300  1
  Cl  Cl3  1  0.85658400  0.49572900  0.00265700  1
  O  O0  1  0.09127700  0.59127700  0.50000000  1
  O  O1  1  0.84127700  0.84127700  0.00000000  1
  O  O2  1  0.23911600  0.42852100  0.74584400  1
  O  O3  1  0.68267700  0.49327300  0.25415600  1
  O  O4  1  0.67852100  0.98911600  0.24584400  1
  O  O5  1  0.74327300  0.43267700  0.75415600  1
  O  O6  1  0.42754200  0.67203500  0.64989300  1
  O  O7  1  0.02214200  0.77764900  0.35010700  1
  O  O8  1  0.92203500  0.17754200  0.14989300  1
  O  O9  1  0.02764900  0.77214200  0.85010700  1
  O  O10  1  0.68823900  0.73405800  0.76172100  1
  O  O11  1  0.97233700  0.92651800  0.23827900  1
  O  O12  1  0.98405800  0.43823900  0.26172100  1
  O  O13  1  0.17651800  0.72233700  0.73827900  1
  O  O14  1  0.49845000  0.47736500  0.84960100  1
  O  O15  1  0.62776400  0.64884900  0.15039900  1
  O  O16  1  0.72736500  0.24845000  0.34960100  1
  O  O17  1  0.89884900  0.37776400  0.65039900  1
  O  O18  1  0.14891100  0.00544900  0.64655200  1
  O  O19  1  0.35889700  0.50236000  0.35344800  1
  O  O20  1  0.25544900  0.89891100  0.14655200  1
  O  O21  1  0.75236000  0.10889700  0.85344800  1
  O  O22  1  0.14650500  0.36337300  0.02696200  1
  O  O23  1  0.33641100  0.11954200  0.97303800  1
  O  O24  1  0.61337300  0.89650500  0.52696200  1
  O  O25  1  0.36954200  0.08641100  0.47303800  1
loop_
_geom_bond_atom_site_label_1
_geom_bond_atom_site_label_2
_geom_bond_distance
_geom_bond_site_symmetry_2
K0 O18 2.773946 1_555
K0 O21 2.797070 1_455
K0 O2 2.797694 1_555
K0 O22 2.809281 1_556
K0 O23 2.904690 1_555
K0 O9 3.147000 1_545
K0 O10 3.291163 1_445
K1 O19 2.773951 1_555
K1 O20 2.797078 1_545
K1 O3 2.797696 1_555
K1 O23 2.809283 1_554
K1 O22 2.904685 1_555
K1 O8 3.147000 1_455
K1 O11 3.291163 1_445
K2 O20 2.773946 1_555
K2 O19 2.797070 1_555
K2 O4 2.797694 1_555
K2 O24 2.809281 1_555
K2 O25 2.904690 1_565
K2 O7 3.147000 1_555
K2 O12 3.291163 1_455
K3 O21 2.773951 1_555
K3 O18 2.797078 1_555
K3 O5 2.797696 1_555
K3 O25 2.809283 1_555
K3 O24 2.904685 1_545
K3 O6 3.147000 1_545
K3 O13 3.291163 1_545
Fe0 O0 1.861907 1_555
Fe0 O17 2.080130 1_455
Fe0 O6 2.137869 1_555
Fe0 O13 2.175722 1_555
Fe0 O2 2.180800 1_555
Fe1 O0 1.861907 1_655
Fe1 O16 2.080130 1_555
Fe1 O7 2.137869 1_655
Fe1 O12 2.175722 1_555
Fe1 O3 2.180804 1_555
Fe2 O1 1.861907 1_555
Fe2 O15 2.080130 1_555
Fe2 O8 2.137869 1_565
Fe2 O11 2.175722 1_555
Fe2 O4 2.180800 1_555
Fe3 O1 1.861907 1_556
Fe3 O14 2.080130 1_555
Fe3 O9 2.137869 1_655
Fe3 O10 2.175722 1_555
Fe3 O5 2.180804 1_555
H0 O18 0.984349 1_555
H1 O19 0.984355 1_555
H2 O20 0.984352 1_555
H3 O21 0.984355 1_555
H4 O18 0.979473 1_565
H5 O19 0.979467 1_555
H6 O20 0.979473 1_555
H7 O21 0.979467 1_555
H8 O22 0.982845 1_555
H8 K1 2.805839 1_555
H9 O23 0.982840 1_565
H9 K0 2.805839 1_565
H10 O24 0.982845 1_555
H10 K3 2.805839 1_565
H11 O25 0.982840 1_565
H11 K2 2.805839 1_555
H12 O22 0.977001 1_555
H13 O23 0.976995 1_555
H14 O24 0.977001 1_555
H15 O25 0.976995 1_555
C0 O10 1.258113 1_555
C0 O6 1.277225 1_555
C1 O11 1.258113 1_555
C1 O7 1.277225 1_655
C2 O12 1.258113 1_555
C2 O8 1.277225 1_555
C3 O13 1.258113 1_555
C3 O9 1.277225 1_555
C4 O14 1.264768 1_555
C4 O2 1.266137 1_555
C5 O15 1.264768 1_555
C5 O3 1.266129 1_555
C6 O16 1.264768 1_555
C6 O4 1.266137 1_545
C7 O17 1.264768 1_555
C7 O5 1.266129 1_555
Cl0 Fe0 2.374401 1_555
Cl1 Fe1 2.374401 1_555
Cl2 Fe2 2.374401 1_556
Cl3 Fe3 2.374401 1_554
