# generated using pymatgen
data_SrCaDyBiO6
_symmetry_space_group_name_H-M   'P 1'
_cell_length_a   6.05421105
_cell_length_b   6.05421105
_cell_length_c   6.05421105
_cell_angle_alpha   60.00000000
_cell_angle_beta   60.00000000
_cell_angle_gamma   60.00000000
_symmetry_Int_Tables_number   1
_chemical_formula_structural   SrCaDyBiO6
_chemical_formula_sum   'Sr1 Ca1 Dy1 Bi1 O6'
_cell_volume   156.91254701
_cell_formula_units_Z   1
loop_
 _symmetry_equiv_pos_site_id
 _symmetry_equiv_pos_as_xyz
  1  'x, y, z'
loop_
 _atom_site_type_symbol
 _atom_site_label
 _atom_site_symmetry_multiplicity
 _atom_site_fract_x
 _atom_site_fract_y
 _atom_site_fract_z
 _atom_site_occupancy
  Sr  Sr0  1  0.25000000  0.25000000  0.25000000  1
  Ca  Ca0  1  0.75000000  0.75000000  0.75000000  1
  Dy  Dy0  1  0.50000000  0.50000000  0.50000000  1
  Bi  Bi0  1  -0.00000000  0.00000000  0.00000000  1
  O  O0  1  0.75545380  0.24454620  0.24454620  1
  O  O1  1  0.24454620  0.75545380  0.75545380  1
  O  O2  1  0.75545380  0.24454620  0.75545380  1
  O  O3  1  0.24454620  0.75545380  0.24454620  1
  O  O4  1  0.75545380  0.75545380  0.24454620  1
  O  O5  1  0.24454620  0.24454620  0.75545380  1
loop_
_geom_bond_atom_site_label_1
_geom_bond_atom_site_label_2
_geom_bond_distance
_geom_bond_site_symmetry_2
Ca0 O3 3.027466 1_655
Ca0 O5 3.027466 1_565
Ca0 O5 3.027466 1_655
Ca0 O3 3.027466 1_556
Ca0 O4 3.027466 1_555
Ca0 O4 3.027466 1_556
Ca0 O2 3.027466 1_565
Ca0 O1 3.027466 1_555
Ca0 O0 3.027466 1_565
Ca0 O1 3.027466 1_655
Ca0 O2 3.027466 1_555
Ca0 O0 3.027466 1_556
Dy0 O2 2.187182 1_555
Dy0 O4 2.187182 1_555
Dy0 O1 2.187182 1_555
Dy0 O3 2.187182 1_555
Dy0 O0 2.187182 1_555
Dy0 O5 2.187182 1_555
Bi0 O3 2.093792 1_545
Bi0 O5 2.093792 1_554
Bi0 O0 2.093792 1_455
Bi0 O2 2.093792 1_454
Bi0 O4 2.093792 1_445
Bi0 O1 2.093792 1_544
O0 Sr0 3.027466 1_555
O0 Sr0 3.027466 1_655
O1 Sr0 3.027466 1_556
O1 Sr0 3.027466 1_565
O2 Sr0 3.027466 1_655
O2 Sr0 3.027466 1_556
O3 Sr0 3.027466 1_555
O3 Sr0 3.027466 1_565
O4 Sr0 3.027466 1_655
O4 Sr0 3.027466 1_565
O5 Sr0 3.027466 1_555
O5 Sr0 3.027466 1_556
