# generated using pymatgen
data_Li(MnS2)2
_symmetry_space_group_name_H-M   'P 1'
_cell_length_a   7.03386404
_cell_length_b   7.03361590
_cell_length_c   7.03386054
_cell_angle_alpha   119.46315883
_cell_angle_beta   120.86565091
_cell_angle_gamma   89.71911810
_symmetry_Int_Tables_number   1
_chemical_formula_structural   Li(MnS2)2
_chemical_formula_sum   'Li2 Mn4 S8'
_cell_volume   245.40640961
_cell_formula_units_Z   2
loop_
 _symmetry_equiv_pos_site_id
 _symmetry_equiv_pos_as_xyz
  1  'x, y, z'
loop_
 _atom_site_type_symbol
 _atom_site_label
 _atom_site_symmetry_multiplicity
 _atom_site_fract_x
 _atom_site_fract_y
 _atom_site_fract_z
 _atom_site_occupancy
  Li  Li0  1  0.49999972  -0.00000063  -0.00000025  1
  Li  Li1  1  0.50000031  0.50000001  0.49999966  1
  Mn  Mn0  1  0.00000030  0.49999911  0.49999939  1
  Mn  Mn1  1  -0.00000031  -0.00000005  0.50000042  1
  Mn  Mn2  1  0.49999957  0.49999885  0.99999865  1
  Mn  Mn3  1  0.00000049  0.50000065  0.00000020  1
  S  S0  1  0.75238899  0.27528677  0.02292206  1
  S  S1  1  0.22799915  0.73694313  0.49105117  1
  S  S2  1  0.75236667  0.72944876  0.47707063  1
  S  S3  1  0.25411243  0.26307193  0.99107969  1
  S  S4  1  0.24763354  0.27055199  0.52293013  1
  S  S5  1  0.77200084  0.26305633  0.50894830  1
  S  S6  1  0.74588755  0.73692774  0.00891981  1
  S  S7  1  0.24761075  0.72471342  0.97707814  1
loop_
_geom_bond_atom_site_label_1
_geom_bond_atom_site_label_2
_geom_bond_distance
_geom_bond_site_symmetry_2
Li0 S7 2.521822 1_544
Li0 S0 2.521828 1_555
Li0 S6 2.527946 1_545
Li0 S3 2.527949 1_554
Li0 S1 2.527969 1_544
Li0 S5 2.527969 1_555
Li1 S2 2.521792 1_555
Li1 S4 2.521799 1_555
Li1 S3 2.527827 1_554
Li1 S6 2.527828 1_556
Li1 S5 2.527881 1_555
Li1 S1 2.527881 1_555
Mn0 S1 2.363532 1_555
Mn0 S5 2.363532 1_455
Mn0 S4 2.367420 1_555
Mn0 S2 2.367434 1_455
Mn0 S0 2.367470 1_455
Mn0 S7 2.367476 1_555
Mn1 S5 2.441137 1_455
Mn1 S1 2.441142 1_545
Mn1 S3 2.441331 1_555
Mn1 S6 2.441337 1_445
Mn1 S2 2.474570 1_445
Mn1 S4 2.474579 1_555
Mn2 S3 2.363553 1_555
Mn2 S6 2.363557 1_556
Mn2 S4 2.367428 1_555
Mn2 S2 2.367445 1_556
Mn2 S0 2.367526 1_556
Mn2 S7 2.367535 1_555
Mn3 S6 2.441065 1_455
Mn3 S3 2.441067 1_554
Mn3 S1 2.441190 1_555
Mn3 S5 2.441195 1_454
Mn3 S7 2.474526 1_554
Mn3 S0 2.474537 1_455
