# generated using pymatgen
data_Ca2MnRuO6
_symmetry_space_group_name_H-M   'P 1'
_cell_length_a   5.67400900
_cell_length_b   5.51413300
_cell_length_c   9.27925838
_cell_angle_alpha   54.30738772
_cell_angle_beta   90.00000000
_cell_angle_gamma   90.00000000
_symmetry_Int_Tables_number   1
_chemical_formula_structural   Ca2MnRuO6
_chemical_formula_sum   'Ca4 Mn2 Ru2 O12'
_cell_volume   235.78787002
_cell_formula_units_Z   2
loop_
 _symmetry_equiv_pos_site_id
 _symmetry_equiv_pos_as_xyz
  1  'x, y, z'
loop_
 _atom_site_type_symbol
 _atom_site_label
 _atom_site_symmetry_multiplicity
 _atom_site_fract_x
 _atom_site_fract_y
 _atom_site_fract_z
 _atom_site_occupancy
  Ca  Ca0  1  0.44446600  0.26166000  0.74949300  1
  Ca  Ca1  1  0.94446600  0.73834000  0.75050700  1
  Ca  Ca2  1  0.55553400  0.73834000  0.25050700  1
  Ca  Ca3  1  0.05553400  0.26166000  0.24949300  1
  Mn  Mn0  1  0.00000000  0.00000000  0.00000000  1
  Mn  Mn1  1  0.50000000  0.00000000  0.50000000  1
  Ru  Ru0  1  0.00000000  0.50000000  0.50000000  1
  Ru  Ru1  1  0.50000000  0.50000000  0.00000000  1
  O  O0  1  0.71277100  0.64397200  0.54808100  1
  O  O1  1  0.21277100  0.35602800  0.95191900  1
  O  O2  1  0.30509400  0.74156400  0.04772200  1
  O  O3  1  0.80509400  0.25843600  0.45227800  1
  O  O4  1  0.28722900  0.35602800  0.45191900  1
  O  O5  1  0.78722900  0.64397200  0.04808100  1
  O  O6  1  0.69490600  0.25843600  0.95227800  1
  O  O7  1  0.19490600  0.74156400  0.54772200  1
  O  O8  1  0.02990100  0.15194900  0.75333900  1
  O  O9  1  0.52990100  0.84805100  0.74666100  1
  O  O10  1  0.97009900  0.84805100  0.24666100  1
  O  O11  1  0.47009900  0.15194900  0.25333900  1
loop_
_geom_bond_atom_site_label_1
_geom_bond_atom_site_label_2
_geom_bond_distance
_geom_bond_site_symmetry_2
Ca0 O9 2.346740 1_545
Ca0 O6 2.349743 1_555
Ca0 O0 2.378507 1_555
Ca0 O8 2.423864 1_555
Ca0 O1 2.582213 1_555
Ca0 O7 2.594584 1_555
Ca0 O4 2.648528 1_555
Ca0 O2 2.692119 1_546
Ca1 O8 2.346740 1_665
Ca1 O7 2.349743 1_655
Ca1 O1 2.378507 1_655
Ca1 O9 2.423864 1_555
Ca1 O0 2.582213 1_555
Ca1 O6 2.594584 1_555
Ca1 O5 2.648528 1_556
Ca1 O3 2.692119 1_565
Ca2 O11 2.346740 1_565
Ca2 O2 2.349743 1_555
Ca2 O4 2.378507 1_555
Ca2 O10 2.423864 1_555
Ca2 O5 2.582213 1_555
Ca2 O3 2.594584 1_555
Ca2 O0 2.648528 1_555
Ca2 O6 2.692119 1_564
Ca3 O10 2.346740 1_445
Ca3 O3 2.349743 1_455
Ca3 O5 2.378507 1_455
Ca3 O11 2.423864 1_555
Ca3 O4 2.582213 1_555
Ca3 O2 2.594584 1_555
Ca3 O1 2.648528 1_554
Ca3 O7 2.692119 1_545
Mn0 O10 1.931786 1_445
Mn0 O8 1.931786 1_554
Mn0 O2 2.118310 1_545
Mn0 O6 2.118310 1_454
Mn0 O1 2.118630 1_554
Mn0 O5 2.118630 1_445
Mn1 O11 1.931786 1_555
Mn1 O9 1.931786 1_545
Mn1 O7 2.118310 1_545
Mn1 O3 2.118310 1_555
Mn1 O4 2.118630 1_555
Mn1 O0 2.118630 1_545
O0 Ru0 1.974501 1_655
O1 Ru1 1.974501 1_556
O2 Ru1 1.970191 1_555
O3 Ru0 1.970191 1_655
O4 Ru0 1.974501 1_555
O5 Ru1 1.974501 1_555
O6 Ru1 1.970191 1_556
O7 Ru0 1.970191 1_555
O8 Ru0 1.993449 1_555
O9 Ru1 1.993449 1_556
O10 Ru0 1.993449 1_655
O11 Ru1 1.993449 1_555
