# generated using pymatgen
data_PrDy3
_symmetry_space_group_name_H-M   'P 1'
_cell_length_a   6.20502597
_cell_length_b   6.20502597
_cell_length_c   6.20502597
_cell_angle_alpha   131.56216559
_cell_angle_beta   131.56216559
_cell_angle_gamma   70.92142400
_symmetry_Int_Tables_number   1
_chemical_formula_structural   PrDy3
_chemical_formula_sum   'Pr1 Dy3'
_cell_volume   130.98801925
_cell_formula_units_Z   1
loop_
 _symmetry_equiv_pos_site_id
 _symmetry_equiv_pos_as_xyz
  1  'x, y, z'
loop_
 _atom_site_type_symbol
 _atom_site_label
 _atom_site_symmetry_multiplicity
 _atom_site_fract_x
 _atom_site_fract_y
 _atom_site_fract_z
 _atom_site_occupancy
  Pr  Pr0  1  0.00000000  0.00000000  0.00000000  1
  Dy  Dy0  1  0.75000000  0.25000000  0.50000000  1
  Dy  Dy1  1  0.25000000  0.75000000  0.50000000  1
  Dy  Dy2  1  0.50000000  0.50000000  0.00000000  1
loop_
_geom_bond_atom_site_label_1
_geom_bond_atom_site_label_2
_geom_bond_distance
_geom_bond_site_symmetry_2
Dy0 Pr0 3.586816 1_555
Dy0 Pr0 3.586816 1_656
Dy0 Pr0 3.586816 1_655
Dy0 Dy2 3.586816 1_656
Dy0 Dy2 3.586816 1_555
Dy0 Dy2 3.586816 1_545
Dy0 Dy2 3.586816 1_556
Dy0 Pr0 3.586816 1_666
Dy0 Dy1 3.599812 1_645
Dy0 Dy1 3.599812 1_656
Dy0 Dy1 3.599812 1_544
Dy0 Dy1 3.599812 1_555
Dy1 Pr0 3.586816 1_566
Dy1 Pr0 3.586816 1_555
Dy1 Dy2 3.586816 1_455
Dy1 Pr0 3.586816 1_565
Dy1 Dy2 3.586816 1_555
Dy1 Dy2 3.586816 1_556
Dy1 Pr0 3.586816 1_666
Dy1 Dy2 3.586816 1_566
Dy2 Pr0 3.599812 1_666
Dy2 Pr0 3.599812 1_554
Dy2 Pr0 3.599812 1_565
Dy2 Pr0 3.599812 1_655
