# generated using pymatgen
data_CsMnN9
_symmetry_space_group_name_H-M   'P 1'
_cell_length_a   7.67246148
_cell_length_b   6.48703179
_cell_length_c   15.72403645
_cell_angle_alpha   68.90215403
_cell_angle_beta   90.00000000
_cell_angle_gamma   90.00000000
_symmetry_Int_Tables_number   1
_chemical_formula_structural   CsMnN9
_chemical_formula_sum   'Cs4 Mn4 N36'
_cell_volume   730.14833473
_cell_formula_units_Z   4
loop_
 _symmetry_equiv_pos_site_id
 _symmetry_equiv_pos_as_xyz
  1  'x, y, z'
loop_
 _atom_site_type_symbol
 _atom_site_label
 _atom_site_symmetry_multiplicity
 _atom_site_fract_x
 _atom_site_fract_y
 _atom_site_fract_z
 _atom_site_occupancy
  Cs  Cs0  1  0.61062877  0.07065007  0.14552982  1
  Cs  Cs1  1  0.88937123  0.07065007  0.64552982  1
  Cs  Cs2  1  0.38937123  0.92934993  0.85447018  1
  Cs  Cs3  1  0.11062877  0.92934993  0.35447018  1
  Mn  Mn0  1  0.05929252  0.43824914  0.11070134  1
  Mn  Mn1  1  0.44070748  0.43824914  0.61070134  1
  Mn  Mn2  1  0.94070748  0.56175086  0.88929866  1
  Mn  Mn3  1  0.55929252  0.56175086  0.38929866  1
  N  N0  1  0.82257309  0.50927489  0.02193025  1
  N  N1  1  0.67742691  0.50927489  0.52193025  1
  N  N2  1  0.17742691  0.49072511  0.97806975  1
  N  N3  1  0.32257309  0.49072511  0.47806975  1
  N  N4  1  0.70612686  0.61939222  0.03379827  1
  N  N5  1  0.79387314  0.61939222  0.53379827  1
  N  N6  1  0.29387314  0.38060778  0.96620173  1
  N  N7  1  0.20612686  0.38060778  0.46620173  1
  N  N8  1  0.59191895  0.72245024  0.04656074  1
  N  N9  1  0.90808105  0.72245024  0.54656074  1
  N  N10  1  0.40808105  0.27754976  0.95343926  1
  N  N11  1  0.09191895  0.27754976  0.45343926  1
  N  N12  1  0.88891762  0.37817669  0.23141165  1
  N  N13  1  0.61108238  0.37817669  0.73141165  1
  N  N14  1  0.11108238  0.62182331  0.76858835  1
  N  N15  1  0.38891762  0.62182331  0.26858835  1
  N  N16  1  0.84259162  0.49989081  0.26731738  1
  N  N17  1  0.65740838  0.49989081  0.76731738  1
  N  N18  1  0.15740838  0.50010919  0.73268262  1
  N  N19  1  0.34259162  0.50010919  0.23268262  1
  N  N20  1  0.79561494  0.62046867  0.30374998  1
  N  N21  1  0.70438506  0.62046867  0.80374998  1
  N  N22  1  0.20438506  0.37953133  0.69625002  1
  N  N23  1  0.29561494  0.37953133  0.19625002  1
  N  N24  1  0.04906448  0.08118746  0.14080157  1
  N  N25  1  0.45093552  0.08118746  0.64080157  1
  N  N26  1  0.95093552  0.91881254  0.85919843  1
  N  N27  1  0.54906448  0.91881254  0.35919843  1
  N  N28  1  0.06411454  0.93601801  0.11271495  1
  N  N29  1  0.43588546  0.93601801  0.61271495  1
  N  N30  1  0.93588546  0.06398199  0.88728505  1
  N  N31  1  0.56411454  0.06398199  0.38728505  1
  N  N32  1  0.07827760  0.79147133  0.08498552  1
  N  N33  1  0.42172240  0.79147133  0.58498552  1
  N  N34  1  0.92172240  0.20852867  0.91501448  1
  N  N35  1  0.57827760  0.20852867  0.41501448  1
loop_
_geom_bond_atom_site_label_1
_geom_bond_atom_site_label_2
_geom_bond_distance
_geom_bond_site_symmetry_2
Cs0 N8 3.174122 1_545
Cs0 N27 3.177843 1_545
Cs0 N10 3.228154 1_554
Cs0 N0 3.245992 1_555
Cs0 N15 3.325511 1_545
Cs0 N24 3.364853 1_655
Cs0 N20 3.391418 1_545
Cs0 N23 3.412179 1_555
Cs0 N12 3.507383 1_555
Cs1 N9 3.174122 1_545
Cs1 N26 3.177843 1_545
Cs1 N11 3.228154 1_655
Cs1 N1 3.245992 1_555
Cs1 N14 3.325511 1_645
Cs1 N25 3.364853 1_555
Cs1 N21 3.391418 1_545
Cs1 N22 3.412179 1_655
Cs1 N13 3.507383 1_555
Cs2 N10 3.174122 1_565
Cs2 N25 3.177843 1_565
Cs2 N8 3.228154 1_556
Cs2 N2 3.245992 1_555
Cs2 N13 3.325511 1_565
Cs2 N26 3.364853 1_455
Cs2 N22 3.391418 1_565
Cs2 N21 3.412179 1_555
Cs2 N14 3.507383 1_555
Cs3 N11 3.174122 1_565
Cs3 N24 3.177843 1_565
Cs3 N9 3.228154 1_455
Cs3 N3 3.245992 1_555
Cs3 N12 3.325511 1_465
Cs3 N27 3.364853 1_555
Cs3 N23 3.391418 1_565
Cs3 N20 3.412179 1_455
Cs3 N15 3.507383 1_555
Mn0 N32 2.183584 1_555
Mn0 N2 2.185323 1_554
Mn0 N24 2.192267 1_555
Mn0 N23 2.207555 1_555
Mn0 N12 2.220524 1_455
Mn0 N0 2.235243 1_455
Mn1 N33 2.183584 1_555
Mn1 N3 2.185323 1_555
Mn1 N25 2.192267 1_555
Mn1 N22 2.207555 1_555
Mn1 N13 2.220524 1_555
Mn1 N1 2.235243 1_555
Mn2 N34 2.183584 1_555
Mn2 N0 2.185323 1_556
Mn2 N26 2.192267 1_555
Mn2 N21 2.207555 1_555
Mn2 N14 2.220524 1_655
Mn2 N2 2.235243 1_655
Mn3 N35 2.183584 1_555
Mn3 N1 2.185323 1_555
Mn3 N27 2.192267 1_555
Mn3 N20 2.207555 1_555
Mn3 N15 2.220524 1_555
Mn3 N3 2.235243 1_555
N0 N4 1.199701 1_555
N1 N5 1.199701 1_555
N2 N6 1.199701 1_555
N3 N7 1.199701 1_555
N4 N8 1.162595 1_555
N5 N9 1.162595 1_555
N10 N6 1.162595 1_555
N11 N7 1.162595 1_555
N12 N16 1.178737 1_555
N13 N17 1.178737 1_555
N14 N18 1.178737 1_555
N15 N19 1.178737 1_555
N16 N20 1.180043 1_555
N17 N21 1.180043 1_555
N18 N22 1.180043 1_555
N19 N23 1.180043 1_555
N24 N28 1.180941 1_545
N25 N29 1.180941 1_545
N26 N30 1.180941 1_565
N27 N31 1.180941 1_565
N28 N32 1.172817 1_555
N29 N33 1.172817 1_555
N30 N34 1.172817 1_555
N31 N35 1.172817 1_555
