# generated using pymatgen
data_Li9Mn2Co5O16
_symmetry_space_group_name_H-M   'P 1'
_cell_length_a   5.06936700
_cell_length_b   5.75631035
_cell_length_c   9.77621812
_cell_angle_alpha   97.77017506
_cell_angle_beta   96.02562309
_cell_angle_gamma   89.29613622
_symmetry_Int_Tables_number   1
_chemical_formula_structural   Li9Mn2Co5O16
_chemical_formula_sum   'Li9 Mn2 Co5 O16'
_cell_volume   281.09682251
_cell_formula_units_Z   1
loop_
 _symmetry_equiv_pos_site_id
 _symmetry_equiv_pos_as_xyz
  1  'x, y, z'
loop_
 _atom_site_type_symbol
 _atom_site_label
 _atom_site_symmetry_multiplicity
 _atom_site_fract_x
 _atom_site_fract_y
 _atom_site_fract_z
 _atom_site_occupancy
  Li  Li0  1  0.38361800  0.31591800  0.73563300  1
  Li  Li1  1  0.62430700  0.19512100  0.26354200  1
  Li  Li2  1  0.86560300  0.05934700  0.73977800  1
  Li  Li3  1  0.86754700  0.55741000  0.73807100  1
  Li  Li4  1  0.13245300  0.44259000  0.26192900  1
  Li  Li5  1  0.37569300  0.80487900  0.73645800  1
  Li  Li6  1  0.61638200  0.68408200  0.26436700  1
  Li  Li7  1  0.13439700  0.94065300  0.26022200  1
  Li  Li8  1  0.50000000  0.50000000  0.50000000  1
  Mn  Mn0  1  0.24616300  0.12794700  0.00044100  1
  Mn  Mn1  1  0.75383700  0.87205300  0.99955900  1
  Co  Co0  1  0.50000000  0.00000000  0.50000000  1
  Co  Co1  1  0.00828600  0.74421000  0.50385700  1
  Co  Co2  1  0.24950300  0.62431000  0.99868400  1
  Co  Co3  1  0.75049700  0.37569000  0.00131600  1
  Co  Co4  1  0.99171400  0.25579000  0.49614300  1
  O  O0  1  0.05867100  0.35241900  0.89431400  1
  O  O1  1  0.31947800  0.20337900  0.38626800  1
  O  O2  1  0.57971400  0.10097700  0.89115200  1
  O  O3  1  0.55989400  0.59527500  0.89265800  1
  O  O4  1  0.83383700  0.46025800  0.37746400  1
  O  O5  1  0.07485500  0.84722500  0.88610300  1
  O  O6  1  0.31400000  0.74173100  0.38837700  1
  O  O7  1  0.79690600  0.96221700  0.38799500  1
  O  O8  1  0.68600000  0.25826900  0.61162300  1
  O  O9  1  0.92514500  0.15277500  0.11389700  1
  O  O10  1  0.20309400  0.03778300  0.61200500  1
  O  O11  1  0.16616300  0.53974200  0.62253600  1
  O  O12  1  0.44010600  0.40472500  0.10734200  1
  O  O13  1  0.68052200  0.79662100  0.61373200  1
  O  O14  1  0.94132900  0.64758100  0.10568600  1
  O  O15  1  0.42028600  0.89902300  0.10884800  1
loop_
_geom_bond_atom_site_label_1
_geom_bond_atom_site_label_2
_geom_bond_distance
_geom_bond_site_symmetry_2
Li0 O10 2.035212 1_555
Li0 O11 2.047454 1_555
Li0 O8 2.049031 1_555
Li0 O3 2.195628 1_555
Li0 O2 2.234219 1_555
Li0 O0 2.367289 1_555
Li1 O4 2.007433 1_555
Li1 O1 2.049808 1_555
Li1 O7 2.057186 1_545
Li1 O12 2.197889 1_555
Li1 O9 2.210957 1_555
Li1 O15 2.297787 1_545
Li2 O8 1.957708 1_555
Li2 O13 1.993519 1_545
Li2 O2 2.166491 1_555
Li2 O5 2.187334 1_645
Li2 O10 2.214576 1_655
Li2 O0 2.264364 1_655
Li3 O11 1.975298 1_655
Li3 O13 2.109764 1_555
Li3 O8 2.136529 1_555
Li3 O0 2.193816 1_655
Li3 O5 2.247855 1_655
Li3 O3 2.271840 1_555
Li4 O4 1.975298 1_455
Li4 O1 2.109764 1_555
Li4 O6 2.136529 1_555
Li4 O14 2.193816 1_455
Li4 O9 2.247855 1_455
Li4 O12 2.271840 1_555
Li5 O11 2.007433 1_555
Li5 O13 2.049808 1_555
Li5 O10 2.057186 1_565
Li5 O3 2.197889 1_555
Li5 O5 2.210957 1_555
Li5 O2 2.297787 1_565
Li6 O7 2.035212 1_555
Li6 O4 2.047454 1_555
Li6 O6 2.049031 1_555
Li6 O12 2.195628 1_555
Li6 O15 2.234219 1_555
Li6 O14 2.367289 1_555
Li7 O6 1.957708 1_555
Li7 O1 1.993519 1_565
Li7 O15 2.166491 1_555
Li7 O9 2.187334 1_465
Li7 O7 2.214576 1_455
Li7 O14 2.264364 1_455
Li8 O6 2.044123 1_555
Li8 O8 2.044123 1_555
Li8 O1 2.073766 1_555
Li8 O13 2.073766 1_555
Li8 O11 2.166432 1_555
Li8 O4 2.166432 1_555
Mn0 O0 1.942866 1_554
Mn0 O15 1.947173 1_545
Mn0 O5 1.989244 1_544
Mn0 O12 1.992414 1_555
Mn0 O9 2.056540 1_455
Mn0 O2 2.086326 1_554
Mn1 O14 1.942866 1_556
Mn1 O2 1.947173 1_565
Mn1 O9 1.989244 1_566
Mn1 O3 1.992414 1_555
Mn1 O5 2.056540 1_655
Mn1 O15 2.086326 1_556
Co0 O1 1.885820 1_555
Co0 O13 1.885820 1_545
Co0 O6 1.915682 1_545
Co0 O8 1.915682 1_555
Co0 O7 1.945577 1_545
Co0 O10 1.945577 1_555
Co1 O11 1.876997 1_555
Co1 O6 2.009723 1_555
Co1 O7 2.025474 1_455
Co1 O4 2.059249 1_455
Co1 O13 2.068907 1_455
Co1 O10 2.070634 1_565
Co2 O12 1.943524 1_556
Co2 O15 1.946132 1_556
Co2 O5 1.947079 1_555
Co2 O0 1.955663 1_555
Co2 O14 1.962881 1_456
Co2 O3 1.966546 1_555
Co3 O3 1.943524 1_554
Co3 O2 1.946132 1_554
Co3 O9 1.947079 1_555
Co3 O14 1.955663 1_555
Co3 O0 1.962881 1_654
Co3 O12 1.966546 1_555
Co4 O4 1.876997 1_555
Co4 O8 2.009723 1_555
Co4 O10 2.025474 1_655
Co4 O11 2.059249 1_655
Co4 O1 2.068907 1_655
Co4 O7 2.070634 1_545
