# generated using pymatgen
data_Ca2MnAl2Si3O13
_symmetry_space_group_name_H-M   'P 1'
_cell_length_a   5.75791400
_cell_length_b   8.91672600
_cell_length_c   10.35933270
_cell_angle_alpha   66.27812486
_cell_angle_beta   90.00000000
_cell_angle_gamma   90.00000000
_symmetry_Int_Tables_number   1
_chemical_formula_structural   Ca2MnAl2Si3O13
_chemical_formula_sum   'Ca4 Mn2 Al4 Si6 O26'
_cell_volume   486.92831063
_cell_formula_units_Z   2
loop_
 _symmetry_equiv_pos_site_id
 _symmetry_equiv_pos_as_xyz
  1  'x, y, z'
loop_
 _atom_site_type_symbol
 _atom_site_label
 _atom_site_symmetry_multiplicity
 _atom_site_fract_x
 _atom_site_fract_y
 _atom_site_fract_z
 _atom_site_occupancy
  Ca  Ca0  1  0.75000000  0.60710800  0.15653200  1
  Ca  Ca1  1  0.25000000  0.39289200  0.84346800  1
  Ca  Ca2  1  0.75000000  0.20600800  0.41771200  1
  Ca  Ca3  1  0.25000000  0.79399200  0.58228800  1
  Mn  Mn0  1  0.50000000  0.00000000  0.00000000  1
  Mn  Mn1  1  0.00000000  0.00000000  0.00000000  1
  Al  Al0  1  0.50000000  0.50000000  0.50000000  1
  Al  Al1  1  0.00000000  0.50000000  0.50000000  1
  Al  Al2  1  0.25000000  0.04873900  0.25050300  1
  Al  Al3  1  0.75000000  0.95126100  0.74949700  1
  Si  Si0  1  0.75000000  0.86903300  0.32238500  1
  Si  Si1  1  0.25000000  0.13096700  0.67761500  1
  Si  Si2  1  0.25000000  0.41201900  0.26684900  1
  Si  Si3  1  0.75000000  0.58798100  0.73315100  1
  Si  Si4  1  0.75000000  0.29861300  0.04327000  1
  Si  Si5  1  0.25000000  0.70138700  0.95673000  1
  O  O0  1  0.50995000  0.20028900  0.03340100  1
  O  O1  1  0.00995000  0.79971100  0.96659900  1
  O  O2  1  0.49005000  0.79971100  0.96659900  1
  O  O3  1  0.99005000  0.20028900  0.03340100  1
  O  O4  1  0.75000000  0.33833700  0.17961300  1
  O  O5  1  0.25000000  0.66166300  0.82038700  1
  O  O6  1  0.25000000  0.93841000  0.13265400  1
  O  O7  1  0.75000000  0.06159000  0.86734600  1
  O  O8  1  0.51511200  0.95620800  0.35250300  1
  O  O9  1  0.01511200  0.04379200  0.64749700  1
  O  O10  1  0.48488800  0.04379200  0.64749700  1
  O  O11  1  0.98488800  0.95620800  0.35250300  1
  O  O12  1  0.48225700  0.46049000  0.33264400  1
  O  O13  1  0.98225700  0.53951000  0.66735600  1
  O  O14  1  0.51774300  0.53951000  0.66735600  1
  O  O15  1  0.01774300  0.46049000  0.33264400  1
  O  O16  1  0.25000000  0.22007300  0.29490500  1
  O  O17  1  0.75000000  0.77992700  0.70509500  1
  O  O18  1  0.75000000  0.66979700  0.40801300  1
  O  O19  1  0.25000000  0.33020300  0.59198700  1
  O  O20  1  0.25000000  0.52321300  0.09443200  1
  O  O21  1  0.75000000  0.47678700  0.90556800  1
  O  O22  1  0.75000000  0.89575300  0.14977900  1
  O  O23  1  0.25000000  0.10424700  0.85022100  1
  O  O24  1  0.25000000  0.63999500  0.44976700  1
  O  O25  1  0.75000000  0.36000500  0.55023300  1
loop_
_geom_bond_atom_site_label_1
_geom_bond_atom_site_label_2
_geom_bond_distance
_geom_bond_site_symmetry_2
Ca0 O4 2.310758 1_555
Ca0 O15 2.344185 1_655
Ca0 O12 2.344185 1_555
Ca0 O2 2.518394 1_554
Ca0 O1 2.518394 1_654
Ca0 O22 2.546431 1_555
Ca1 O5 2.310758 1_555
Ca1 O14 2.344185 1_555
Ca1 O13 2.344185 1_455
Ca1 O3 2.518394 1_456
Ca1 O0 2.518394 1_556
Ca1 O23 2.546431 1_555
Ca2 O4 2.265930 1_555
Ca2 O25 2.299334 1_555
Ca2 O12 2.587151 1_555
Ca2 O15 2.587151 1_655
Ca2 O9 2.705260 1_655
Ca2 O10 2.705260 1_555
Ca2 O11 2.908166 1_545
Ca2 O8 2.908166 1_545
Ca3 O5 2.265930 1_555
Ca3 O24 2.299334 1_555
Ca3 O14 2.587151 1_555
Ca3 O13 2.587151 1_455
Ca3 O8 2.705260 1_555
Ca3 O11 2.705260 1_455
Ca3 O10 2.908166 1_565
Ca3 O9 2.908166 1_565
Mn0 O6 1.911786 1_545
Mn0 O7 1.911786 1_554
Mn0 O0 1.951852 1_555
Mn0 O2 1.951852 1_544
Mn0 O23 2.045284 1_554
Mn0 O22 2.045284 1_545
Mn1 O6 1.911786 1_545
Mn1 O7 1.911786 1_454
Mn1 O3 1.951852 1_455
Mn1 O1 1.951852 1_544
Mn1 O23 2.045284 1_554
Mn1 O22 2.045284 1_445
Al0 O24 1.838065 1_555
Al0 O25 1.838065 1_555
Al0 O14 1.905699 1_555
Al0 O12 1.905699 1_555
Al0 O18 2.027714 1_555
Al0 O19 2.027714 1_555
Al1 O24 1.838065 1_555
Al1 O25 1.838065 1_455
Al1 O15 1.905699 1_555
Al1 O13 1.905699 1_455
Al1 O18 2.027714 1_455
Al1 O19 2.027714 1_555
Al2 O16 1.763794 1_555
Al2 O6 1.850566 1_545
Al2 O8 1.850940 1_545
Al2 O11 1.850940 1_445
Al3 O17 1.763794 1_555
Al3 O7 1.850566 1_565
Al3 O9 1.850940 1_665
Al3 O10 1.850940 1_565
O0 Si4 1.661826 1_555
O1 Si5 1.661826 1_555
O2 Si5 1.661826 1_555
O3 Si4 1.661826 1_555
O4 Si4 1.588374 1_555
O5 Si5 1.588374 1_555
O8 Si0 1.651018 1_555
O9 Si1 1.651018 1_555
O10 Si1 1.651018 1_555
O11 Si0 1.651018 1_555
O12 Si2 1.636094 1_555
O13 Si3 1.636094 1_555
O14 Si3 1.636094 1_555
O15 Si2 1.636094 1_555
O16 Si2 1.616653 1_555
O17 Si3 1.616653 1_555
O18 Si0 1.635539 1_555
O19 Si1 1.635539 1_555
O20 Si5 1.653932 1_554
O20 Si2 1.657835 1_555
O21 Si4 1.653932 1_556
O21 Si3 1.657835 1_555
O22 Si0 1.706234 1_555
O23 Si1 1.706234 1_555
