# generated using pymatgen
data_ZnSeO5
_symmetry_space_group_name_H-M   'P 1'
_cell_length_a   5.39831339
_cell_length_b   5.39831339
_cell_length_c   7.54822841
_cell_angle_alpha   73.79893445
_cell_angle_beta   73.79893445
_cell_angle_gamma   101.42105036
_symmetry_Int_Tables_number   1
_chemical_formula_structural   ZnSeO5
_chemical_formula_sum   'Zn2 Se2 O10'
_cell_volume   193.55602283
_cell_formula_units_Z   2
loop_
 _symmetry_equiv_pos_site_id
 _symmetry_equiv_pos_as_xyz
  1  'x, y, z'
loop_
 _atom_site_type_symbol
 _atom_site_label
 _atom_site_symmetry_multiplicity
 _atom_site_fract_x
 _atom_site_fract_y
 _atom_site_fract_z
 _atom_site_occupancy
  Zn  Zn0  1  0.00000000  0.00000000  0.00000000  1
  Zn  Zn1  1  0.00000000  0.00000000  0.50000000  1
  Se  Se0  1  0.33524300  0.66475700  0.75000000  1
  Se  Se1  1  0.66475700  0.33524300  0.25000000  1
  O  O0  1  0.35359800  0.91006300  0.84832000  1
  O  O1  1  0.64640200  0.08993700  0.15168000  1
  O  O2  1  0.08993700  0.64640200  0.65168000  1
  O  O3  1  0.91006300  0.35359800  0.34832000  1
  O  O4  1  0.26753000  0.36836700  0.92907100  1
  O  O5  1  0.73247000  0.63163300  0.07092900  1
  O  O6  1  0.63163300  0.73247000  0.57092900  1
  O  O7  1  0.36836700  0.26753000  0.42907100  1
  O  O8  1  0.90371200  0.09628800  0.75000000  1
  O  O9  1  0.09628800  0.90371200  0.25000000  1
loop_
_geom_bond_atom_site_label_1
_geom_bond_atom_site_label_2
_geom_bond_distance
_geom_bond_site_symmetry_2
O0 Se0 1.688690 1_555
O0 Zn0 2.155894 1_566
O1 Se1 1.688690 1_555
O1 Zn0 2.155894 1_655
O2 Se0 1.688690 1_555
O2 Zn1 2.155894 1_565
O3 Se1 1.688690 1_555
O3 Zn1 2.155894 1_655
O4 Se0 1.675261 1_555
O4 Zn0 2.040545 1_556
O5 Se1 1.675261 1_555
O5 Zn0 2.040545 1_665
O6 Se0 1.675261 1_555
O6 Zn1 2.040545 1_665
O7 Se1 1.675261 1_555
O7 Zn1 2.040545 1_555
O8 Zn1 2.051428 1_655
O8 Zn0 2.051428 1_656
O9 Zn0 2.051428 1_565
O9 Zn1 2.051428 1_565
