# generated using pymatgen
data_Ti21Re25
_symmetry_space_group_name_H-M   'P 1'
_cell_length_a   8.45308800
_cell_length_b   14.76805591
_cell_length_c   14.76805543
_cell_angle_alpha   116.44860864
_cell_angle_beta   100.99928139
_cell_angle_gamma   100.99928102
_symmetry_Int_Tables_number   1
_chemical_formula_structural   Ti21Re25
_chemical_formula_sum   'Ti42 Re50'
_cell_volume   1538.46613025
_cell_formula_units_Z   2
loop_
 _symmetry_equiv_pos_site_id
 _symmetry_equiv_pos_as_xyz
  1  'x, y, z'
loop_
 _atom_site_type_symbol
 _atom_site_label
 _atom_site_symmetry_multiplicity
 _atom_site_fract_x
 _atom_site_fract_y
 _atom_site_fract_z
 _atom_site_occupancy
  Ti  Ti0  1  0.94589300  0.39178600  0.69589300  1
  Ti  Ti1  1  0.55410700  0.30410700  0.60821400  1
  Ti  Ti2  1  0.25000000  0.30410700  0.69589300  1
  Ti  Ti3  1  0.44589300  0.69589300  0.39178600  1
  Ti  Ti4  1  0.75000000  0.69589300  0.30410700  1
  Ti  Ti5  1  0.05410700  0.60821400  0.30410700  1
  Ti  Ti6  1  0.22129900  0.77143300  0.53666000  1
  Ti  Ti7  1  0.44986600  0.76522700  0.22856700  1
  Ti  Ti8  1  0.68463900  0.46334000  0.23477300  1
  Ti  Ti9  1  0.72129900  0.53666000  0.77143300  1
  Ti  Ti10  1  0.18463900  0.23477300  0.46334000  1
  Ti  Ti11  1  0.94986600  0.22856700  0.76522700  1
  Ti  Ti12  1  0.77870100  0.22856700  0.46334000  1
  Ti  Ti13  1  0.55013400  0.23477300  0.77143300  1
  Ti  Ti14  1  0.31536100  0.53666000  0.76522700  1
  Ti  Ti15  1  0.27870100  0.46334000  0.22856700  1
  Ti  Ti16  1  0.81536100  0.76522700  0.53666000  1
  Ti  Ti17  1  0.05013400  0.77143300  0.23477300  1
  Ti  Ti18  1  0.42936200  0.11651800  0.88397700  1
  Ti  Ti19  1  0.31284400  0.76745900  0.88348200  1
  Ti  Ti20  1  0.54538500  0.11602300  0.23254100  1
  Ti  Ti21  1  0.92936200  0.88397700  0.11651800  1
  Ti  Ti22  1  0.04538500  0.23254100  0.11602300  1
  Ti  Ti23  1  0.81284400  0.88348200  0.76745900  1
  Ti  Ti24  1  0.57063800  0.88348200  0.11602300  1
  Ti  Ti25  1  0.68715600  0.23254100  0.11651800  1
  Ti  Ti26  1  0.45461500  0.88397700  0.76745900  1
  Ti  Ti27  1  0.07063800  0.11602300  0.88348200  1
  Ti  Ti28  1  0.95461500  0.76745900  0.88397700  1
  Ti  Ti29  1  0.18715600  0.11651800  0.23254100  1
  Ti  Ti30  1  0.45580300  0.51525300  0.09323700  1
  Ti  Ti31  1  0.94055100  0.57798500  0.48474700  1
  Ti  Ti32  1  0.36256600  0.90676300  0.42201500  1
  Ti  Ti33  1  0.95580300  0.09323700  0.51525300  1
  Ti  Ti34  1  0.86256600  0.42201500  0.90676300  1
  Ti  Ti35  1  0.44055100  0.48474700  0.57798500  1
  Ti  Ti36  1  0.54419700  0.48474700  0.90676300  1
  Ti  Ti37  1  0.05944900  0.42201500  0.51525300  1
  Ti  Ti38  1  0.63743400  0.09323700  0.57798500  1
  Ti  Ti39  1  0.04419700  0.90676300  0.48474700  1
  Ti  Ti40  1  0.13743400  0.57798500  0.09323700  1
  Ti  Ti41  1  0.55944900  0.51525300  0.42201500  1
  Re  Re0  1  0.50000000  0.00000000  0.00000000  1
  Re  Re1  1  0.00000000  0.00000000  0.00000000  1
  Re  Re2  1  0.31133400  0.12266700  0.06133400  1
  Re  Re3  1  0.18866600  0.93866600  0.87733300  1
  Re  Re4  1  0.25000000  0.93866600  0.06133400  1
  Re  Re5  1  0.81133400  0.06133400  0.12266700  1
  Re  Re6  1  0.75000000  0.06133400  0.93866600  1
  Re  Re7  1  0.68866600  0.87733300  0.93866600  1
  Re  Re8  1  0.69071600  0.88143200  0.44071600  1
  Re  Re9  1  0.80928400  0.55928400  0.11856800  1
  Re  Re10  1  0.25000000  0.55928400  0.44071600  1
  Re  Re11  1  0.19071600  0.44071600  0.88143200  1
  Re  Re12  1  0.75000000  0.44071600  0.55928400  1
  Re  Re13  1  0.30928400  0.11856800  0.55928400  1
  Re  Re14  1  0.13067200  0.93714500  0.69728200  1
  Re  Re15  1  0.19352700  0.76013700  0.06285500  1
  Re  Re16  1  0.43339000  0.30271800  0.23986300  1
  Re  Re17  1  0.63067200  0.69728200  0.93714500  1
  Re  Re18  1  0.93339000  0.23986300  0.30271800  1
  Re  Re19  1  0.69352700  0.06285500  0.76013700  1
  Re  Re20  1  0.86932800  0.06285500  0.30271800  1
  Re  Re21  1  0.80647300  0.23986300  0.93714500  1
  Re  Re22  1  0.56661000  0.69728200  0.76013700  1
  Re  Re23  1  0.36932800  0.30271800  0.06285500  1
  Re  Re24  1  0.06661000  0.76013700  0.69728200  1
  Re  Re25  1  0.30647300  0.93714500  0.23986300  1
  Re  Re26  1  0.31549400  0.29389500  0.88019900  1
  Re  Re27  1  0.02159900  0.58630400  0.70610500  1
  Re  Re28  1  0.43529500  0.11980100  0.41369600  1
  Re  Re29  1  0.81549400  0.88019900  0.29389500  1
  Re  Re30  1  0.93529500  0.41369600  0.11980100  1
  Re  Re31  1  0.52159900  0.70610500  0.58630400  1
  Re  Re32  1  0.68450600  0.70610500  0.11980100  1
  Re  Re33  1  0.97840100  0.41369600  0.29389500  1
  Re  Re34  1  0.56470500  0.88019900  0.58630400  1
  Re  Re35  1  0.18450600  0.11980100  0.70610500  1
  Re  Re36  1  0.06470500  0.58630400  0.88019900  1
  Re  Re37  1  0.47840100  0.29389500  0.41369600  1
  Re  Re38  1  0.62049000  0.35768400  0.00290300  1
  Re  Re39  1  0.26280600  0.64521900  0.64231600  1
  Re  Re40  1  0.61758700  0.99709700  0.35478100  1
  Re  Re41  1  0.12049000  0.00290300  0.35768400  1
  Re  Re42  1  0.11758700  0.35478100  0.99709700  1
  Re  Re43  1  0.76280600  0.64231600  0.64521900  1
  Re  Re44  1  0.37951000  0.64231600  0.99709700  1
  Re  Re45  1  0.73719400  0.35478100  0.35768400  1
  Re  Re46  1  0.38241300  0.00290300  0.64521900  1
  Re  Re47  1  0.87951000  0.99709700  0.64231600  1
  Re  Re48  1  0.88241300  0.64521900  0.00290300  1
  Re  Re49  1  0.23719400  0.35768400  0.35478100  1
loop_
_geom_bond_atom_site_label_1
_geom_bond_atom_site_label_2
_geom_bond_distance
_geom_bond_site_symmetry_2
Ti0 Ti11 3.012648 1_555
Ti0 Ti12 3.012648 1_555
Ti0 Ti14 3.107798 1_655
Ti0 Ti9 3.107798 1_555
Ti0 Ti37 3.179910 1_655
Ti0 Ti34 3.179924 1_555
Ti1 Ti13 3.012648 1_555
Ti1 Ti9 3.012648 1_555
Ti1 Ti10 3.107798 1_555
Ti1 Ti12 3.107798 1_555
Ti1 Ti35 3.179910 1_555
Ti1 Ti38 3.179925 1_555
Ti2 Ti36 3.179921 1_555
Ti2 Ti33 3.179921 1_455
Ti3 Ti7 3.012648 1_555
Ti3 Ti6 3.107798 1_555
Ti3 Ti41 3.179910 1_555
Ti3 Ti32 3.179925 1_555
Ti4 Ti8 3.012648 1_555
Ti4 Ti7 3.107798 1_555
Ti5 Ti6 3.012648 1_555
Ti5 Ti8 3.107798 1_455
Ti10 Ti37 2.981906 1_555
Ti10 Ti2 3.012648 1_555
Ti10 Ti33 3.024735 1_455
Ti10 Ti29 3.067135 1_555
Ti10 Ti35 3.340909 1_555
Ti10 Ti12 3.415128 1_455
Ti11 Ti38 2.981907 1_555
Ti11 Ti34 3.024725 1_555
Ti11 Ti27 3.067135 1_655
Ti11 Ti2 3.107798 1_655
Ti11 Ti33 3.340908 1_555
Ti11 Ti13 3.415128 1_555
Ti12 Ti33 2.981914 1_555
Ti12 Ti37 3.024720 1_655
Ti12 Ti20 3.067135 1_555
Ti12 Ti38 3.340920 1_555
Ti13 Ti34 2.981907 1_555
Ti13 Ti38 3.024725 1_555
Ti13 Ti18 3.067135 1_555
Ti13 Ti2 3.107798 1_555
Ti13 Ti36 3.340908 1_555
Ti14 Ti35 2.981906 1_555
Ti14 Ti2 3.012648 1_555
Ti14 Ti36 3.024735 1_555
Ti14 Ti19 3.067135 1_555
Ti14 Ti37 3.340909 1_555
Ti14 Ti9 3.415128 1_555
Ti15 Ti30 2.981914 1_555
Ti15 Ti3 3.012648 1_555
Ti15 Ti41 3.024720 1_555
Ti15 Ti22 3.067135 1_555
Ti15 Ti5 3.107798 1_555
Ti15 Ti40 3.340920 1_555
Ti15 Ti8 3.415128 1_555
Ti16 Ti31 2.981906 1_555
Ti16 Ti4 3.012648 1_555
Ti16 Ti39 3.024735 1_655
Ti16 Ti23 3.067135 1_555
Ti16 Ti3 3.107798 1_555
Ti16 Ti41 3.340909 1_555
Ti16 Ti6 3.415128 1_655
Ti17 Ti32 2.981907 1_555
Ti17 Ti5 3.012648 1_555
Ti17 Ti40 3.024725 1_555
Ti17 Ti21 3.067135 1_455
Ti17 Ti4 3.107798 1_455
Ti17 Ti39 3.340908 1_555
Ti17 Ti7 3.415128 1_555
Ti18 Ti27 3.029545 1_555
Ti18 Ti25 3.155318 1_556
Ti18 Ti26 3.155318 1_545
Ti19 Ti28 3.029545 1_455
Ti19 Ti24 3.155318 1_556
Ti19 Ti26 3.155318 1_555
Ti20 Ti29 3.029545 1_555
Ti20 Ti25 3.155318 1_555
Ti20 Ti24 3.155318 1_545
Ti21 Ti24 3.029545 1_555
Ti21 Ti28 3.155318 1_554
Ti21 Ti29 3.155318 1_665
Ti22 Ti25 3.029545 1_455
Ti22 Ti29 3.155318 1_555
Ti22 Ti27 3.155318 1_554
Ti23 Ti26 3.029545 1_555
Ti23 Ti28 3.155318 1_555
Ti23 Ti27 3.155318 1_665
Ti24 Ti7 3.067135 1_555
Ti25 Ti8 3.067135 1_555
Ti26 Ti6 3.067135 1_555
Ti28 Ti9 3.067135 1_555
Ti30 Ti36 2.855434 1_554
Ti30 Ti40 3.008692 1_555
Ti30 Ti8 3.024735 1_555
Ti30 Ti4 3.179921 1_555
Ti30 Ti7 3.340908 1_555
Ti31 Ti37 2.855454 1_655
Ti31 Ti41 3.008700 1_555
Ti31 Ti6 3.024720 1_655
Ti31 Ti5 3.179910 1_655
Ti31 Ti8 3.340909 1_555
Ti32 Ti38 2.855441 1_565
Ti32 Ti39 3.008692 1_555
Ti32 Ti7 3.024725 1_555
Ti32 Ti6 3.340920 1_555
Ti33 Ti39 2.855434 1_645
Ti33 Ti38 3.008692 1_555
Ti34 Ti40 2.855441 1_656
Ti34 Ti36 3.008692 1_555
Ti34 Ti9 3.340920 1_555
Ti35 Ti41 2.855454 1_555
Ti35 Ti37 3.008700 1_555
Ti35 Ti9 3.024720 1_555
Ti36 Ti9 2.981914 1_555
Ti39 Ti6 2.981914 1_555
Ti39 Ti4 3.179921 1_455
Ti40 Ti7 2.981907 1_555
Ti40 Ti5 3.179924 1_555
Ti41 Ti8 2.981906 1_555
Re0 Re2 2.614881 1_555
Re0 Re7 2.614881 1_544
Re0 Re5 2.614885 1_555
Re0 Re3 2.614885 1_544
Re0 Re6 2.614890 1_554
Re0 Re4 2.614890 1_545
Re0 Ti26 2.980170 1_544
Re0 Ti20 2.980170 1_555
Re0 Ti24 2.980170 1_545
Re0 Ti18 2.980170 1_554
Re0 Ti19 2.980170 1_544
Re0 Ti25 2.980170 1_555
Re1 Re5 2.614881 1_455
Re1 Re3 2.614881 1_544
Re1 Re2 2.614885 1_555
Re1 Re7 2.614885 1_444
Re1 Re6 2.614890 1_454
Re1 Re4 2.614890 1_545
Re1 Ti27 2.980170 1_554
Re1 Ti21 2.980170 1_445
Re1 Ti29 2.980170 1_555
Re1 Ti23 2.980170 1_444
Re1 Ti28 2.980170 1_444
Re1 Ti22 2.980170 1_555
Re2 Re23 2.599290 1_555
Re2 Re4 2.667418 1_545
Re2 Re3 2.667418 1_544
Re2 Ti29 2.946825 1_555
Re2 Ti18 2.946835 1_554
Re2 Ti20 2.950068 1_555
Re2 Ti27 2.950084 1_554
Re2 Ti25 3.042454 1_555
Re2 Ti22 3.042459 1_555
Re3 Re4 2.667418 1_556
Re3 Ti19 2.946825 1_555
Re3 Ti27 2.946835 1_565
Re3 Ti28 2.950068 1_455
Re3 Ti18 2.950084 1_565
Re3 Ti23 3.042454 1_455
Re3 Ti26 3.042459 1_555
Re4 Ti28 2.946830 1_454
Re4 Ti20 2.946830 1_565
Re4 Ti19 2.950076 1_554
Re4 Ti29 2.950076 1_565
Re4 Ti21 3.042451 1_455
Re4 Ti24 3.042451 1_555
Re5 Re6 2.667418 1_554
Re5 Re7 2.667418 1_544
Re5 Ti25 2.946825 1_555
Re5 Ti21 2.946835 1_545
Re5 Ti22 2.950068 1_655
Re5 Ti24 2.950084 1_545
Re5 Ti29 3.042454 1_655
Re5 Ti20 3.042459 1_555
Re6 Re7 2.667418 1_545
Re6 Ti22 2.946830 1_656
Re6 Ti26 2.946830 1_545
Re6 Ti25 2.950076 1_556
Re6 Ti23 2.950076 1_545
Re6 Ti27 3.042451 1_655
Re6 Ti18 3.042451 1_555
Re7 Ti23 2.946825 1_555
Re7 Ti24 2.946835 1_556
Re7 Ti26 2.950068 1_555
Re7 Ti21 2.950084 1_556
Re7 Ti19 3.042454 1_555
Re7 Ti28 3.042459 1_555
Re8 Ti3 2.795474 1_555
Re8 Ti4 2.795474 1_555
Re8 Ti32 2.847157 1_555
Re8 Ti39 2.847158 1_655
Re8 Ti7 2.889494 1_555
Re8 Ti16 2.889494 1_555
Re8 Ti33 3.055153 1_565
Re8 Ti38 3.055157 1_565
Re9 Ti5 2.795474 1_655
Re9 Ti4 2.795474 1_555
Re9 Ti40 2.847157 1_655
Re9 Ti30 2.847158 1_555
Re9 Ti8 2.889494 1_555
Re9 Ti17 2.889495 1_655
Re9 Ti36 3.055153 1_554
Re9 Ti34 3.055157 1_554
Re10 Re33 2.580516 1_455
Re10 Re31 2.580516 1_555
Re10 Re39 2.635358 1_555
Re10 Re49 2.635358 1_555
Re10 Ti5 2.795474 1_555
Re10 Ti3 2.795474 1_555
Re10 Ti31 2.847152 1_455
Re10 Ti41 2.847152 1_555
Re10 Ti15 2.889494 1_555
Re10 Ti6 2.889495 1_555
Re10 Ti35 3.055168 1_555
Re10 Ti37 3.055168 1_555
Re11 Re36 2.580516 1_555
Re11 Re26 2.580516 1_555
Re11 Re42 2.635358 1_555
Re11 Re44 2.635358 1_555
Re11 Ti0 2.795474 1_455
Re11 Ti2 2.795474 1_555
Re11 Ti34 2.847157 1_455
Re11 Ti36 2.847158 1_555
Re11 Ti14 2.889494 1_555
Re11 Ti11 2.889495 1_455
Re11 Ti30 3.055153 1_556
Re11 Ti40 3.055157 1_556
Re12 Re27 2.580516 1_655
Re12 Re37 2.580516 1_555
Re12 Re45 2.635358 1_555
Re12 Re43 2.635358 1_555
Re12 Ti0 2.795474 1_555
Re12 Ti1 2.795474 1_555
Re12 Ti37 2.847152 1_655
Re12 Ti35 2.847152 1_555
Re12 Ti9 2.889494 1_555
Re12 Ti12 2.889495 1_555
Re12 Ti41 3.055168 1_555
Re12 Ti31 3.055168 1_555
Re13 Re35 2.580516 1_555
Re13 Re28 2.580516 1_555
Re13 Re46 2.635358 1_555
Re13 Re41 2.635358 1_555
Re13 Ti2 2.795474 1_555
Re13 Ti1 2.795474 1_555
Re13 Ti38 2.847157 1_555
Re13 Ti33 2.847158 1_455
Re13 Ti13 2.889494 1_555
Re13 Ti10 2.889494 1_555
Re13 Ti39 3.055153 1_545
Re13 Ti32 3.055157 1_545
Re14 Re46 2.561924 1_565
Re14 Re24 2.566399 1_555
Re14 Re47 2.578799 1_455
Re14 Re35 2.587720 1_565
Re14 Re3 2.599289 1_555
Re14 Ti39 2.886539 1_555
Re14 Ti6 2.905232 1_555
Re14 Ti16 2.969383 1_455
Re14 Ti18 3.046175 1_565
Re14 Ti27 3.061162 1_565
Re14 Ti26 3.106670 1_555
Re14 Ti23 3.146706 1_455
Re15 Re44 2.561924 1_554
Re15 Re25 2.566399 1_555
Re15 Re48 2.578799 1_455
Re15 Re36 2.587720 1_554
Re15 Re4 2.599275 1_555
Re15 Ti40 2.886525 1_555
Re15 Ti7 2.905232 1_555
Re15 Ti17 2.969383 1_555
Re15 Ti19 3.046174 1_554
Re15 Ti28 3.061162 1_454
Re15 Ti24 3.106670 1_555
Re15 Ti21 3.146706 1_455
Re16 Re45 2.561924 1_555
Re16 Re23 2.566399 1_555
Re16 Re49 2.578799 1_555
Re16 Re37 2.587720 1_555
Re16 Re2 2.599282 1_555
Re16 Ti41 2.886534 1_555
Re16 Ti8 2.905232 1_555
Re16 Ti15 2.969383 1_555
Re16 Ti20 3.046175 1_555
Re16 Ti29 3.061162 1_555
Re16 Ti25 3.106670 1_555
Re16 Ti22 3.146706 1_555
Re17 Re48 2.561924 1_556
Re17 Re22 2.566399 1_555
Re17 Re44 2.578799 1_555
Re17 Re32 2.587720 1_556
Re17 Re7 2.599290 1_555
Re17 Ti36 2.886539 1_555
Re17 Ti9 2.905232 1_555
Re17 Ti14 2.969383 1_555
Re17 Ti21 3.046175 1_556
Re17 Ti24 3.061162 1_556
Re17 Ti28 3.106670 1_555
Re17 Ti19 3.146706 1_555
Re18 Re49 2.561924 1_655
Re18 Re20 2.566399 1_555
Re18 Re45 2.578799 1_555
Re18 Re33 2.587720 1_555
Re18 Re5 2.599282 1_555
Re18 Ti37 2.886534 1_655
Re18 Ti10 2.905232 1_655
Re18 Ti12 2.969383 1_555
Re18 Ti22 3.046174 1_655
Re18 Ti25 3.061162 1_555
Re18 Ti29 3.106670 1_655
Re18 Ti20 3.146706 1_555
Re19 Re47 2.561924 1_545
Re19 Re21 2.566399 1_555
Re19 Re46 2.578799 1_555
Re19 Re34 2.587720 1_545
Re19 Re6 2.599275 1_555
Re19 Ti38 2.886525 1_555
Re19 Ti11 2.905232 1_555
Re19 Ti13 2.969383 1_555
Re19 Ti23 3.046175 1_545
Re19 Ti26 3.061162 1_545
Re19 Ti27 3.106670 1_655
Re19 Ti18 3.146706 1_555
Re20 Re40 2.561924 1_545
Re20 Re41 2.578799 1_655
Re20 Re29 2.587720 1_545
Re20 Re5 2.599289 1_555
Re20 Ti33 2.886539 1_555
Re20 Ti12 2.905232 1_555
Re20 Ti10 2.969383 1_655
Re20 Ti24 3.046175 1_545
Re20 Ti21 3.061162 1_545
Re20 Ti20 3.106670 1_555
Re20 Ti29 3.146706 1_655
Re21 Re38 2.561924 1_556
Re21 Re42 2.578799 1_655
Re21 Re30 2.587720 1_556
Re21 Re6 2.599275 1_555
Re21 Ti34 2.886525 1_555
Re21 Ti13 2.905232 1_555
Re21 Ti11 2.969383 1_555
Re21 Ti25 3.046174 1_556
Re21 Ti22 3.061162 1_656
Re21 Ti18 3.106670 1_555
Re21 Ti27 3.146706 1_655
Re22 Re39 2.561924 1_555
Re22 Re43 2.578799 1_555
Re22 Re31 2.587720 1_555
Re22 Re7 2.599282 1_555
Re22 Ti35 2.886534 1_555
Re22 Ti14 2.905232 1_555
Re22 Ti9 2.969383 1_555
Re22 Ti26 3.046175 1_555
Re22 Ti23 3.061162 1_555
Re22 Ti19 3.106670 1_555
Re22 Ti28 3.146706 1_555
Re23 Re42 2.561924 1_554
Re23 Re38 2.578799 1_555
Re23 Re26 2.587720 1_554
Re23 Ti30 2.886539 1_555
Re23 Ti15 2.905232 1_555
Re23 Ti8 2.969383 1_555
Re23 Ti27 3.046175 1_554
Re23 Ti18 3.061162 1_554
Re23 Ti22 3.106670 1_555
Re23 Ti25 3.146706 1_555
Re24 Re43 2.561924 1_455
Re24 Re39 2.578799 1_555
Re24 Re27 2.587720 1_555
Re24 Re3 2.599282 1_555
Re24 Ti31 2.886534 1_455
Re24 Ti16 2.905232 1_455
Re24 Ti6 2.969383 1_555
Re24 Ti28 3.046174 1_455
Re24 Ti19 3.061162 1_555
Re24 Ti23 3.106670 1_455
Re24 Ti26 3.146706 1_555
Re25 Re41 2.561924 1_565
Re25 Re40 2.578799 1_555
Re25 Re28 2.587720 1_565
Re25 Re4 2.599275 1_555
Re25 Ti32 2.886525 1_555
Re25 Ti17 2.905232 1_555
Re25 Ti7 2.969383 1_555
Re25 Ti29 3.046175 1_565
Re25 Ti20 3.061162 1_565
Re25 Ti21 3.106670 1_455
Re25 Ti24 3.146706 1_555
Re26 Re35 2.526951 1_555
Re26 Re38 2.566682 1_556
Re26 Re42 2.623129 1_555
Re26 Ti2 2.749575 1_555
Re26 Ti13 2.811348 1_555
Re26 Ti36 2.912344 1_555
Re26 Ti11 2.960828 1_455
Re26 Ti18 2.977126 1_555
Re26 Ti27 3.043618 1_555
Re26 Ti30 3.150628 1_556
Re27 Re36 2.526950 1_555
Re27 Re39 2.566682 1_555
Re27 Re43 2.623129 1_455
Re27 Ti0 2.749576 1_455
Re27 Ti14 2.811348 1_555
Re27 Ti37 2.912347 1_555
Re27 Ti9 2.960828 1_455
Re27 Ti19 2.977126 1_555
Re27 Ti28 3.043618 1_455
Re27 Ti31 3.150635 1_455
Re28 Re37 2.526951 1_555
Re28 Re40 2.566682 1_545
Re28 Re41 2.623129 1_555
Re28 Ti1 2.749576 1_555
Re28 Ti12 2.811348 1_555
Re28 Ti38 2.912356 1_555
Re28 Ti10 2.960828 1_555
Re28 Ti20 2.977126 1_555
Re28 Ti29 3.043618 1_555
Re28 Ti32 3.150620 1_545
Re29 Re32 2.526951 1_555
Re29 Re41 2.566682 1_665
Re29 Re8 2.580516 1_555
Re29 Re40 2.623129 1_555
Re29 Ti4 2.749576 1_555
Re29 Ti17 2.811348 1_655
Re29 Ti39 2.912344 1_655
Re29 Ti7 2.960828 1_555
Re29 Ti21 2.977126 1_555
Re29 Ti24 3.043618 1_555
Re29 Ti33 3.150628 1_565
Re30 Re33 2.526950 1_555
Re30 Re42 2.566682 1_654
Re30 Re9 2.580516 1_555
Re30 Re38 2.623129 1_555
Re30 Ti5 2.749576 1_655
Re30 Ti15 2.811348 1_655
Re30 Ti40 2.912356 1_655
Re30 Ti8 2.960828 1_555
Re30 Ti22 2.977126 1_655
Re30 Ti25 3.043618 1_555
Re30 Ti34 3.150620 1_554
Re31 Re34 2.526951 1_555
Re31 Re43 2.566682 1_555
Re31 Re39 2.623129 1_555
Re31 Ti3 2.749575 1_555
Re31 Ti16 2.811348 1_555
Re31 Ti41 2.912347 1_555
Re31 Ti6 2.960828 1_555
Re31 Ti23 2.977126 1_555
Re31 Ti26 3.043618 1_555
Re31 Ti35 3.150635 1_555
Re32 Re44 2.566682 1_554
Re32 Re9 2.580516 1_555
Re32 Re48 2.623129 1_555
Re32 Ti4 2.749575 1_555
Re32 Ti7 2.811348 1_555
Re32 Ti30 2.912344 1_555
Re32 Ti17 2.960828 1_655
Re32 Ti24 2.977126 1_555
Re32 Ti21 3.043618 1_555
Re32 Ti36 3.150628 1_554
Re33 Re45 2.566682 1_555
Re33 Re49 2.623129 1_655
Re33 Ti5 2.749576 1_655
Re33 Ti8 2.811348 1_555
Re33 Ti31 2.912347 1_555
Re33 Ti15 2.960828 1_655
Re33 Ti25 2.977126 1_555
Re33 Ti22 3.043618 1_655
Re33 Ti37 3.150635 1_655
Re34 Re46 2.566682 1_565
Re34 Re8 2.580516 1_555
Re34 Re47 2.623129 1_555
Re34 Ti3 2.749576 1_555
Re34 Ti6 2.811348 1_555
Re34 Ti32 2.912356 1_555
Re34 Ti16 2.960828 1_555
Re34 Ti26 2.977126 1_555
Re34 Ti23 3.043618 1_555
Re34 Ti38 3.150620 1_565
Re35 Re47 2.566682 1_445
Re35 Re46 2.623129 1_555
Re35 Ti2 2.749576 1_555
Re35 Ti11 2.811348 1_455
Re35 Ti33 2.912344 1_455
Re35 Ti13 2.960828 1_555
Re35 Ti27 2.977126 1_555
Re35 Ti18 3.043618 1_555
Re35 Ti39 3.150628 1_545
Re36 Re48 2.566682 1_456
Re36 Re44 2.623129 1_555
Re36 Ti0 2.749576 1_455
Re36 Ti9 2.811348 1_455
Re36 Ti34 2.912356 1_455
Re36 Ti14 2.960828 1_555
Re36 Ti28 2.977126 1_455
Re36 Ti19 3.043618 1_555
Re36 Ti40 3.150620 1_556
Re37 Re49 2.566682 1_555
Re37 Re45 2.623129 1_555
Re37 Ti1 2.749575 1_555
Re37 Ti10 2.811348 1_555
Re37 Ti35 2.912347 1_555
Re37 Ti12 2.960828 1_555
Re37 Ti29 2.977126 1_555
Re37 Ti20 3.043618 1_555
Re37 Ti41 3.150635 1_555
Re38 Re9 2.635358 1_555
Re38 Ti30 2.883067 1_555
Re38 Ti36 2.904917 1_554
Re38 Ti13 2.935771 1_554
Re38 Ti8 2.943363 1_555
Re38 Ti34 2.945181 1_554
Re38 Ti25 3.057325 1_555
Re38 Ti18 3.086898 1_554
Re39 Ti31 2.883064 1_455
Re39 Ti37 2.904930 1_555
Re39 Ti14 2.935771 1_555
Re39 Ti6 2.943363 1_555
Re39 Ti35 2.945192 1_555
Re39 Ti26 3.057325 1_555
Re39 Ti19 3.086898 1_555
Re40 Re8 2.635358 1_555
Re40 Ti32 2.883057 1_555
Re40 Ti38 2.904930 1_565
Re40 Ti12 2.935771 1_565
Re40 Ti7 2.943363 1_555
Re40 Ti33 2.945187 1_565
Re40 Ti24 3.057325 1_555
Re40 Ti20 3.086898 1_565
Re41 Ti33 2.883067 1_455
Re41 Ti39 2.904917 1_545
Re41 Ti17 2.935771 1_545
Re41 Ti10 2.943363 1_555
Re41 Ti32 2.945181 1_545
Re41 Ti29 3.057325 1_555
Re41 Ti21 3.086898 1_445
Re42 Ti34 2.883057 1_455
Re42 Ti40 2.904930 1_556
Re42 Ti15 2.935771 1_556
Re42 Ti11 2.943363 1_455
Re42 Ti30 2.945187 1_556
Re42 Ti27 3.057325 1_555
Re42 Ti22 3.086898 1_556
Re43 Ti35 2.883064 1_555
Re43 Ti41 2.904930 1_555
Re43 Ti16 2.935771 1_555
Re43 Ti9 2.943363 1_555
Re43 Ti31 2.945192 1_555
Re43 Ti28 3.057325 1_555
Re43 Ti23 3.086898 1_555
Re44 Ti36 2.883067 1_555
Re44 Ti30 2.904917 1_556
Re44 Ti7 2.935771 1_556
Re44 Ti14 2.943363 1_555
Re44 Ti40 2.945181 1_556
Re44 Ti19 3.057325 1_555
Re44 Ti24 3.086898 1_556
Re45 Ti37 2.883064 1_655
Re45 Ti31 2.904930 1_555
Re45 Ti8 2.935771 1_555
Re45 Ti12 2.943363 1_555
Re45 Ti41 2.945192 1_555
Re45 Ti20 3.057325 1_555
Re45 Ti25 3.086898 1_555
Re46 Ti38 2.883057 1_555
Re46 Ti32 2.904930 1_545
Re46 Ti6 2.935771 1_545
Re46 Ti13 2.943363 1_555
Re46 Ti39 2.945187 1_545
Re46 Ti18 3.057325 1_555
Re46 Ti26 3.086898 1_545
Re47 Re8 2.635358 1_555
Re47 Ti39 2.883067 1_655
Re47 Ti33 2.904917 1_565
Re47 Ti11 2.935771 1_565
Re47 Ti16 2.943363 1_555
Re47 Ti38 2.945181 1_565
Re47 Ti23 3.057325 1_555
Re47 Ti27 3.086898 1_665
Re48 Re9 2.635358 1_555
Re48 Ti40 2.883057 1_655
Re48 Ti34 2.904930 1_554
Re48 Ti9 2.935771 1_554
Re48 Ti17 2.943363 1_655
Re48 Ti36 2.945187 1_554
Re48 Ti21 3.057325 1_555
Re48 Ti28 3.086898 1_554
Re49 Ti41 2.883064 1_555
Re49 Ti35 2.904930 1_555
Re49 Ti10 2.935771 1_555
Re49 Ti15 2.943363 1_555
Re49 Ti37 2.945192 1_555
Re49 Ti22 3.057325 1_555
Re49 Ti29 3.086898 1_555
