# generated using pymatgen
data_Mg(MoO2)2
_symmetry_space_group_name_H-M   'P 1'
_cell_length_a   6.35661561
_cell_length_b   6.35661561
_cell_length_c   6.35661561
_cell_angle_alpha   60.00000000
_cell_angle_beta   60.00000000
_cell_angle_gamma   60.00000000
_symmetry_Int_Tables_number   1
_chemical_formula_structural   Mg(MoO2)2
_chemical_formula_sum   'Mg2 Mo4 O8'
_cell_volume   181.61965712
_cell_formula_units_Z   2
loop_
 _symmetry_equiv_pos_site_id
 _symmetry_equiv_pos_as_xyz
  1  'x, y, z'
loop_
 _atom_site_type_symbol
 _atom_site_label
 _atom_site_symmetry_multiplicity
 _atom_site_fract_x
 _atom_site_fract_y
 _atom_site_fract_z
 _atom_site_occupancy
  Mg  Mg0  1  0.75000000  0.75000000  0.75000000  1
  Mg  Mg1  1  0.50000000  0.50000000  0.50000000  1
  Mo  Mo0  1  0.12500000  0.12500000  0.62500000  1
  Mo  Mo1  1  0.12500000  0.62500000  0.12500000  1
  Mo  Mo2  1  0.12500000  0.12500000  0.12500000  1
  Mo  Mo3  1  0.62500000  0.12500000  0.12500000  1
  O  O0  1  0.36797900  0.89606200  0.36797900  1
  O  O1  1  0.36797900  0.36797900  0.36797900  1
  O  O2  1  0.89606200  0.36797900  0.36797900  1
  O  O3  1  0.88202100  0.88202100  0.35393800  1
  O  O4  1  0.35393800  0.88202100  0.88202100  1
  O  O5  1  0.88202100  0.88202100  0.88202100  1
  O  O6  1  0.36797900  0.36797900  0.89606200  1
  O  O7  1  0.88202100  0.35393800  0.88202100  1
loop_
_geom_bond_atom_site_label_1
_geom_bond_atom_site_label_2
_geom_bond_distance
_geom_bond_site_symmetry_2
Mg0 O7 2.055623 1_555
Mg0 O4 2.055623 1_555
Mg0 O3 2.055623 1_555
Mg0 O5 2.055628 1_555
Mg1 O0 2.055623 1_555
Mg1 O6 2.055623 1_555
Mg1 O2 2.055623 1_555
Mg1 O1 2.055628 1_555
Mo0 O1 2.186110 1_555
Mo0 O5 2.186110 1_445
Mo0 O4 2.186114 1_545
Mo0 O7 2.186114 1_455
Mo0 O0 2.186114 1_545
Mo0 O2 2.186114 1_455
Mo1 O1 2.186110 1_555
Mo1 O5 2.186110 1_454
Mo1 O4 2.186114 1_554
Mo1 O3 2.186114 1_455
Mo1 O2 2.186114 1_455
Mo1 O6 2.186114 1_554
Mo2 O6 2.186110 1_554
Mo2 O0 2.186110 1_545
Mo2 O2 2.186110 1_455
Mo2 O3 2.186110 1_445
Mo2 O4 2.186110 1_544
Mo2 O7 2.186110 1_454
Mo3 O1 2.186110 1_555
Mo3 O5 2.186110 1_544
Mo3 O7 2.186114 1_554
Mo3 O3 2.186114 1_545
Mo3 O0 2.186114 1_545
Mo3 O6 2.186114 1_554
