# generated using pymatgen
data_Li4Mn3CoO8
_symmetry_space_group_name_H-M   'P 1'
_cell_length_a   5.11211505
_cell_length_b   5.44915139
_cell_length_c   5.69433609
_cell_angle_alpha   89.82952792
_cell_angle_beta   106.50490339
_cell_angle_gamma   94.62894622
_symmetry_Int_Tables_number   1
_chemical_formula_structural   Li4Mn3CoO8
_chemical_formula_sum   'Li4 Mn3 Co1 O8'
_cell_volume   151.56013759
_cell_formula_units_Z   1
loop_
 _symmetry_equiv_pos_site_id
 _symmetry_equiv_pos_as_xyz
  1  'x, y, z'
loop_
 _atom_site_type_symbol
 _atom_site_label
 _atom_site_symmetry_multiplicity
 _atom_site_fract_x
 _atom_site_fract_y
 _atom_site_fract_z
 _atom_site_occupancy
  Li  Li0  1  0.49263100  0.22894400  0.87470000  1
  Li  Li1  1  0.50736400  0.77107000  0.12530900  1
  Li  Li2  1  0.50393300  0.74654200  0.62812100  1
  Li  Li3  1  0.49606900  0.25347200  0.37189900  1
  Mn  Mn0  1  0.99993600  0.00002000  0.49993200  1
  Mn  Mn1  1  0.99803300  0.49777600  0.24885500  1
  Mn  Mn2  1  0.00203200  0.50223000  0.75122700  1
  Co  Co0  1  0.00000000  0.99999200  0.00002700  1
  O  O0  1  0.23342200  0.88920000  0.80782200  1
  O  O1  1  0.76661000  0.11078200  0.19218700  1
  O  O2  1  0.22421000  0.37551600  0.05696900  1
  O  O3  1  0.77579900  0.62446200  0.94299000  1
  O  O4  1  0.23377600  0.38983200  0.55883000  1
  O  O5  1  0.76623200  0.61014700  0.44115600  1
  O  O6  1  0.22898500  0.89227700  0.30061800  1
  O  O7  1  0.77096900  0.10773800  0.69935800  1
loop_
_geom_bond_atom_site_label_1
_geom_bond_atom_site_label_2
_geom_bond_distance
_geom_bond_site_symmetry_2
Li0 O1 2.084372 1_556
Li0 O7 2.102525 1_555
Li0 O4 2.140187 1_555
Li0 O2 2.142226 1_556
Li0 O0 2.156343 1_545
Li0 O3 2.464416 1_555
Li1 O0 2.084224 1_554
Li1 O6 2.102577 1_555
Li1 O5 2.140215 1_555
Li1 O3 2.142558 1_554
Li1 O1 2.156295 1_565
Li1 O2 2.464543 1_555
Li2 O3 2.077282 1_555
Li2 O5 2.112012 1_555
Li2 O0 2.132145 1_555
Li2 O6 2.183145 1_555
Li2 O4 2.258966 1_555
Li2 O7 2.271210 1_565
Li3 O2 2.077426 1_555
Li3 O4 2.111777 1_555
Li3 O1 2.132385 1_555
Li3 O7 2.182869 1_555
Li3 O5 2.258826 1_555
Li3 O6 2.271326 1_545
Mn0 O1 1.944270 1_555
Mn0 O0 1.945295 1_645
Mn0 O6 1.968229 1_645
Mn0 O7 1.968330 1_555
Mn0 O4 2.328108 1_655
Mn0 O5 2.328119 1_545
Mn1 O3 1.948305 1_554
Mn1 O4 1.952822 1_655
Mn1 O2 1.954779 1_655
Mn1 O5 1.958732 1_555
Mn1 O1 2.309807 1_555
Mn1 O6 2.344866 1_655
Mn2 O2 1.947755 1_556
Mn2 O5 1.953281 1_455
Mn2 O3 1.954433 1_455
Mn2 O4 1.958956 1_555
Mn2 O0 2.309627 1_555
Mn2 O7 2.345038 1_455
Co0 O6 1.900279 1_555
Co0 O7 1.900752 1_464
Co0 O1 1.961456 1_465
Co0 O0 1.961777 1_554
Co0 O2 2.240622 1_565
Co0 O3 2.240634 1_454
