# generated using pymatgen
data_Ho5Pt4
_symmetry_space_group_name_H-M   'P 1'
_cell_length_a   7.44911795
_cell_length_b   7.53071678
_cell_length_c   14.43105138
_cell_angle_alpha   90.00000000
_cell_angle_beta   90.00000000
_cell_angle_gamma   90.00000000
_symmetry_Int_Tables_number   1
_chemical_formula_structural   Ho5Pt4
_chemical_formula_sum   'Ho20 Pt16'
_cell_volume   809.54154001
_cell_formula_units_Z   4
loop_
 _symmetry_equiv_pos_site_id
 _symmetry_equiv_pos_as_xyz
  1  'x, y, z'
loop_
 _atom_site_type_symbol
 _atom_site_label
 _atom_site_symmetry_multiplicity
 _atom_site_fract_x
 _atom_site_fract_y
 _atom_site_fract_z
 _atom_site_occupancy
  Ho  Ho0  1  0.34378487  0.83269953  0.87778416  1
  Ho  Ho1  1  0.84378487  0.66730047  0.62221584  1
  Ho  Ho2  1  0.65621513  0.16730047  0.37778416  1
  Ho  Ho3  1  0.15621513  0.33269953  0.12221584  1
  Ho  Ho4  1  0.65621513  0.16730047  0.12221584  1
  Ho  Ho5  1  0.15621513  0.33269953  0.37778416  1
  Ho  Ho6  1  0.34378487  0.83269953  0.62221584  1
  Ho  Ho7  1  0.84378487  0.66730047  0.87778416  1
  Ho  Ho8  1  0.49820102  0.32001227  0.90636547  1
  Ho  Ho9  1  0.99820102  0.17998773  0.59363453  1
  Ho  Ho10  1  0.50179898  0.67998773  0.40636547  1
  Ho  Ho11  1  0.00179898  0.82001227  0.09363453  1
  Ho  Ho12  1  0.50179898  0.67998773  0.09363453  1
  Ho  Ho13  1  0.00179898  0.82001227  0.40636547  1
  Ho  Ho14  1  0.49820102  0.32001227  0.59363453  1
  Ho  Ho15  1  0.99820102  0.17998773  0.90636547  1
  Ho  Ho16  1  0.18193086  0.48873388  0.75000000  1
  Ho  Ho17  1  0.68193086  0.01126612  0.75000000  1
  Ho  Ho18  1  0.81806914  0.51126612  0.25000000  1
  Ho  Ho19  1  0.31806914  0.98873388  0.25000000  1
  Pt  Pt0  1  0.31559242  0.03263189  0.04137735  1
  Pt  Pt1  1  0.81559242  0.46736811  0.45862265  1
  Pt  Pt2  1  0.68440758  0.96736811  0.54137735  1
  Pt  Pt3  1  0.18440758  0.53263189  0.95862265  1
  Pt  Pt4  1  0.68440758  0.96736811  0.95862265  1
  Pt  Pt5  1  0.18440758  0.53263189  0.54137735  1
  Pt  Pt6  1  0.31559242  0.03263189  0.45862265  1
  Pt  Pt7  1  0.81559242  0.46736811  0.04137735  1
  Pt  Pt8  1  0.54749150  0.61263392  0.75000000  1
  Pt  Pt9  1  0.04749150  0.88736608  0.75000000  1
  Pt  Pt10  1  0.45250850  0.38736608  0.25000000  1
  Pt  Pt11  1  0.95250850  0.11263392  0.25000000  1
  Pt  Pt12  1  0.31609607  0.14185841  0.75000000  1
  Pt  Pt13  1  0.81609607  0.35814159  0.75000000  1
  Pt  Pt14  1  0.68390393  0.85814159  0.25000000  1
  Pt  Pt15  1  0.18390393  0.64185841  0.25000000  1
loop_
_geom_bond_atom_site_label_1
_geom_bond_atom_site_label_2
_geom_bond_distance
_geom_bond_site_symmetry_2
Ho0 Pt3 2.806558 1_555
Ho0 Pt0 2.807938 1_566
Ho0 Pt9 2.905414 1_555
Ho0 Pt8 2.906828 1_555
Ho0 Pt4 2.971112 1_555
Ho0 Pt12 2.977173 1_565
Ho0 Ho17 3.399069 1_565
Ho0 Ho16 3.400572 1_555
Ho1 Pt2 2.806558 1_555
Ho1 Pt1 2.807938 1_555
Ho1 Pt8 2.905414 1_555
Ho1 Pt9 2.906828 1_655
Ho1 Pt5 2.971112 1_655
Ho1 Pt13 2.977173 1_555
Ho1 Ho16 3.399069 1_655
Ho1 Ho17 3.400572 1_565
Ho2 Pt1 2.806558 1_555
Ho2 Pt2 2.807938 1_545
Ho2 Pt11 2.905414 1_555
Ho2 Pt10 2.906828 1_555
Ho2 Pt6 2.971112 1_555
Ho2 Pt14 2.977173 1_545
Ho3 Pt0 2.806558 1_555
Ho3 Pt3 2.807938 1_554
Ho3 Pt10 2.905414 1_555
Ho3 Pt11 2.906828 1_455
Ho3 Pt7 2.971112 1_455
Ho3 Pt15 2.977173 1_555
Ho4 Pt7 2.806558 1_555
Ho4 Pt4 2.807938 1_544
Ho4 Pt11 2.905414 1_555
Ho4 Pt10 2.906828 1_555
Ho4 Pt0 2.971112 1_555
Ho4 Pt14 2.977173 1_545
Ho5 Pt6 2.806558 1_555
Ho5 Pt5 2.807938 1_555
Ho5 Pt10 2.905414 1_555
Ho5 Pt11 2.906828 1_455
Ho5 Pt1 2.971112 1_455
Ho5 Pt15 2.977173 1_555
Ho6 Pt5 2.806558 1_555
Ho6 Pt6 2.807938 1_565
Ho6 Pt9 2.905414 1_555
Ho6 Pt8 2.906828 1_555
Ho6 Pt2 2.971112 1_555
Ho6 Pt12 2.977173 1_565
Ho7 Pt4 2.806558 1_555
Ho7 Pt7 2.807938 1_556
Ho7 Pt8 2.905414 1_555
Ho7 Pt9 2.906828 1_655
Ho7 Pt3 2.971112 1_655
Ho7 Pt13 2.977173 1_555
Ho8 Pt3 2.931947 1_555
Ho8 Pt12 2.954993 1_555
Ho8 Pt4 3.089536 1_545
Ho8 Pt8 3.175337 1_555
Ho8 Pt0 3.214053 1_556
Ho8 Pt7 3.258434 1_556
Ho8 Pt13 3.283584 1_555
Ho9 Pt2 2.931947 1_545
Ho9 Pt13 2.954993 1_555
Ho9 Pt5 3.089536 1_655
Ho9 Pt9 3.175337 1_645
Ho9 Pt1 3.214053 1_555
Ho9 Pt6 3.258434 1_655
Ho9 Pt12 3.283584 1_655
Ho10 Pt1 2.931947 1_555
Ho10 Pt14 2.954993 1_555
Ho10 Pt6 3.089536 1_565
Ho10 Pt10 3.175337 1_555
Ho10 Pt2 3.214053 1_555
Ho10 Pt5 3.258434 1_555
Ho10 Pt15 3.283584 1_555
Ho10 Ho18 3.500958 1_555
Ho10 Ho19 3.517244 1_555
Ho11 Pt0 2.931947 1_565
Ho11 Pt15 2.954993 1_555
Ho11 Pt7 3.089536 1_455
Ho11 Pt11 3.175337 1_465
Ho11 Pt3 3.214053 1_554
Ho11 Pt4 3.258434 1_454
Ho11 Pt14 3.283584 1_455
Ho11 Ho19 3.500958 1_555
Ho11 Ho18 3.517244 1_455
Ho12 Pt7 2.931947 1_555
Ho12 Pt14 2.954993 1_555
Ho12 Pt0 3.089536 1_565
Ho12 Pt10 3.175337 1_555
Ho12 Pt4 3.214053 1_554
Ho12 Pt3 3.258434 1_554
Ho12 Pt15 3.283584 1_555
Ho12 Ho18 3.500958 1_555
Ho12 Ho19 3.517244 1_555
Ho13 Pt6 2.931947 1_565
Ho13 Pt15 2.954993 1_555
Ho13 Pt1 3.089536 1_455
Ho13 Pt11 3.175337 1_465
Ho13 Pt5 3.214053 1_555
Ho13 Pt2 3.258434 1_455
Ho13 Pt14 3.283584 1_455
Ho13 Ho19 3.500958 1_555
Ho13 Ho18 3.517244 1_455
Ho14 Pt5 2.931947 1_555
Ho14 Pt12 2.954993 1_555
Ho14 Pt2 3.089536 1_545
Ho14 Pt8 3.175337 1_555
Ho14 Pt6 3.214053 1_555
Ho14 Pt1 3.258434 1_555
Ho14 Pt13 3.283584 1_555
Ho14 Ho16 3.500958 1_555
Ho14 Ho17 3.517244 1_555
Ho15 Pt4 2.931947 1_545
Ho15 Pt13 2.954993 1_555
Ho15 Pt3 3.089536 1_655
Ho15 Pt9 3.175337 1_645
Ho15 Pt7 3.214053 1_556
Ho15 Pt0 3.258434 1_656
Ho15 Pt12 3.283584 1_655
Ho15 Ho17 3.500958 1_555
Ho15 Ho16 3.517244 1_655
Ho16 Pt12 2.796877 1_555
Ho16 Pt8 2.878522 1_555
Ho16 Pt13 2.897172 1_455
Ho16 Pt5 3.028796 1_555
Ho16 Pt3 3.028796 1_555
Ho16 Pt9 3.164622 1_555
Ho16 Ho7 3.399069 1_455
Ho16 Ho6 3.400572 1_555
Ho16 Ho8 3.500958 1_555
Ho16 Ho9 3.517244 1_455
Ho17 Pt13 2.796877 1_555
Ho17 Pt9 2.878522 1_645
Ho17 Pt12 2.897172 1_555
Ho17 Pt4 3.028796 1_545
Ho17 Pt2 3.028796 1_545
Ho17 Pt8 3.164622 1_545
Ho17 Ho6 3.399069 1_545
Ho17 Ho7 3.400572 1_545
Ho17 Ho9 3.500958 1_555
Ho17 Ho8 3.517244 1_555
Ho18 Pt14 2.796877 1_555
Ho18 Pt10 2.878522 1_555
Ho18 Pt15 2.897172 1_655
Ho18 Pt7 3.028796 1_555
Ho18 Pt1 3.028796 1_555
Ho18 Pt11 3.164622 1_555
Ho18 Ho3 3.399069 1_655
Ho18 Ho5 3.399069 1_655
Ho18 Ho4 3.400572 1_555
Ho18 Ho2 3.400572 1_555
Ho19 Pt15 2.796877 1_555
Ho19 Pt11 2.878522 1_465
Ho19 Pt14 2.897172 1_555
Ho19 Pt0 3.028796 1_565
Ho19 Pt6 3.028796 1_565
Ho19 Pt10 3.164622 1_565
Ho19 Ho4 3.399069 1_565
Ho19 Ho2 3.399069 1_565
Ho19 Ho3 3.400572 1_565
Ho19 Ho5 3.400572 1_565
Pt0 Pt4 3.035733 1_544
Pt1 Pt5 3.035733 1_655
Pt2 Pt6 3.035733 1_565
Pt3 Pt7 3.035733 1_456
Pt10 Pt15 2.770646 1_555
Pt11 Pt14 2.770646 1_545
Pt12 Pt9 2.770646 1_545
Pt13 Pt8 2.770646 1_555
