# generated using pymatgen
data_KSrEuWO6
_symmetry_space_group_name_H-M   'P 1'
_cell_length_a   8.43831470
_cell_length_b   8.51083271
_cell_length_c   8.47420336
_cell_angle_alpha   90.00000000
_cell_angle_beta   90.00000000
_cell_angle_gamma   90.00000000
_symmetry_Int_Tables_number   1
_chemical_formula_structural   KSrEuWO6
_chemical_formula_sum   'K4 Sr4 Eu4 W4 O24'
_cell_volume   608.59258103
_cell_formula_units_Z   4
loop_
 _symmetry_equiv_pos_site_id
 _symmetry_equiv_pos_as_xyz
  1  'x, y, z'
loop_
 _atom_site_type_symbol
 _atom_site_label
 _atom_site_symmetry_multiplicity
 _atom_site_fract_x
 _atom_site_fract_y
 _atom_site_fract_z
 _atom_site_occupancy
  K  K0  1  0.50000000  -0.00000000  0.50000000  1
  K  K1  1  0.50000000  0.50000000  -0.00000000  1
  K  K2  1  -0.00000000  0.50000000  -0.00000000  1
  K  K3  1  -0.00000000  -0.00000000  0.50000000  1
  Sr  Sr0  1  -0.00000000  0.50000000  0.50000000  1
  Sr  Sr1  1  0.50000000  -0.00000000  -0.00000000  1
  Sr  Sr2  1  -0.00000000  -0.00000000  -0.00000000  1
  Sr  Sr3  1  0.50000000  0.50000000  0.50000000  1
  Eu  Eu0  1  0.75000000  0.75000000  0.75000000  1
  Eu  Eu1  1  0.25000000  0.25000000  0.75000000  1
  Eu  Eu2  1  0.25000000  0.75000000  0.25000000  1
  Eu  Eu3  1  0.75000000  0.25000000  0.25000000  1
  W  W0  1  0.25000000  0.25000000  0.25000000  1
  W  W1  1  0.75000000  0.75000000  0.25000000  1
  W  W2  1  0.75000000  0.25000000  0.75000000  1
  W  W3  1  0.25000000  0.75000000  0.75000000  1
  O  O0  1  0.02193252  0.22616551  0.27130488  1
  O  O1  1  0.97806748  0.77383449  0.27130488  1
  O  O2  1  0.97806748  0.22616551  0.72869512  1
  O  O3  1  0.02193252  0.77383449  0.72869512  1
  O  O4  1  0.27174098  0.02015510  0.21229001  1
  O  O5  1  0.27174098  0.97984490  0.78770999  1
  O  O6  1  0.72825902  0.97984490  0.21229001  1
  O  O7  1  0.72825902  0.02015510  0.78770999  1
  O  O8  1  0.22342048  0.26772815  0.02051364  1
  O  O9  1  0.77657952  0.26772815  0.97948636  1
  O  O10  1  0.22342048  0.73227185  0.97948636  1
  O  O11  1  0.77657952  0.73227185  0.02051364  1
  O  O12  1  0.47806748  0.27383449  0.22869512  1
  O  O13  1  0.52193252  0.72616551  0.22869512  1
  O  O14  1  0.52193252  0.27383449  0.77130488  1
  O  O15  1  0.47806748  0.72616551  0.77130488  1
  O  O16  1  0.22825902  0.47984490  0.28770999  1
  O  O17  1  0.22825902  0.52015510  0.71229001  1
  O  O18  1  0.77174098  0.52015510  0.28770999  1
  O  O19  1  0.77174098  0.47984490  0.71229001  1
  O  O20  1  0.27657952  0.23227185  0.47948636  1
  O  O21  1  0.72342048  0.23227185  0.52051364  1
  O  O22  1  0.27657952  0.76772815  0.52051364  1
  O  O23  1  0.72342048  0.76772815  0.47948636  1
loop_
_geom_bond_atom_site_label_1
_geom_bond_atom_site_label_2
_geom_bond_distance
_geom_bond_site_symmetry_2
K0 O20 2.737223 1_555
K0 O22 2.737223 1_545
K0 O23 2.737223 1_545
K0 O21 2.737223 1_555
K0 O4 3.111875 1_555
K0 O6 3.111875 1_545
K0 O7 3.111875 1_555
K0 O5 3.111875 1_545
K0 O13 3.278961 1_545
K0 O15 3.278961 1_545
K0 O14 3.278961 1_555
K0 O12 3.278961 1_555
K1 O14 2.737737 1_554
K1 O12 2.737737 1_555
K1 O15 2.737737 1_554
K1 O13 2.737737 1_555
K1 O8 3.063493 1_555
K1 O9 3.063493 1_554
K1 O11 3.063493 1_555
K1 O10 3.063493 1_554
K2 O9 2.737223 1_454
K2 O8 2.737223 1_555
K2 O10 2.737223 1_554
K2 O11 2.737223 1_455
K2 O19 3.111875 1_454
K2 O17 3.111875 1_554
K2 O18 3.111875 1_455
K2 O16 3.111875 1_555
K2 O0 3.278961 1_555
K2 O2 3.278961 1_454
K2 O3 3.278961 1_554
K2 O1 3.278961 1_455
K3 O1 2.737737 1_445
K3 O0 2.737737 1_555
K3 O3 2.737737 1_545
K3 O2 2.737737 1_455
K3 O23 3.063493 1_445
K3 O21 3.063493 1_455
K3 O22 3.063493 1_545
K3 O20 3.063493 1_555
Eu0 O11 2.308270 1_556
Eu0 O23 2.308270 1_555
Eu0 O15 2.310665 1_555
Eu0 O3 2.310665 1_655
Eu0 O7 2.328584 1_565
Eu0 O19 2.328584 1_555
Eu1 O8 2.308270 1_556
Eu1 O20 2.308270 1_555
Eu1 O14 2.310665 1_555
Eu1 O2 2.310665 1_455
Eu1 O17 2.328584 1_555
Eu1 O5 2.328584 1_545
Eu2 O10 2.308270 1_554
Eu2 O22 2.308270 1_555
Eu2 O13 2.310665 1_555
Eu2 O1 2.310665 1_455
Eu2 O4 2.328584 1_565
Eu2 O16 2.328584 1_555
Eu3 O21 2.308270 1_555
Eu3 O9 2.308270 1_554
Eu3 O12 2.310665 1_555
Eu3 O0 2.310665 1_655
Eu3 O18 2.328584 1_555
Eu3 O6 2.328584 1_545
O0 W0 1.943570 1_555
O0 Sr2 3.004189 1_555
O0 Sr0 3.036715 1_555
O1 W1 1.943570 1_555
O1 Sr2 3.004189 1_665
O1 Sr0 3.036715 1_655
O2 W2 1.943570 1_555
O2 Sr2 3.004189 1_656
O2 Sr0 3.036715 1_655
O3 W3 1.943570 1_555
O3 Sr2 3.004189 1_566
O3 Sr0 3.036715 1_555
O4 W0 1.990574 1_555
O4 Sr1 2.641161 1_555
O4 Sr2 2.919555 1_555
O5 W3 1.990574 1_555
O5 Sr1 2.641161 1_566
O5 Sr2 2.919555 1_566
O6 W1 1.990574 1_555
O6 Sr1 2.641161 1_565
O6 Sr2 2.919555 1_665
O7 W2 1.990574 1_555
O7 Sr1 2.641161 1_556
O7 Sr2 2.919555 1_656
O8 W0 1.963411 1_555
O8 Sr2 2.962519 1_555
O9 W2 1.963411 1_555
O9 Sr2 2.962519 1_656
O10 W3 1.963411 1_555
O10 Sr2 2.962519 1_566
O11 W1 1.963411 1_555
O11 Sr2 2.962519 1_665
O12 W0 1.943570 1_555
O12 Sr3 3.004189 1_555
O12 Sr1 3.036715 1_555
O13 W1 1.943570 1_555
O13 Sr3 3.004189 1_555
O13 Sr1 3.036715 1_565
O14 W2 1.943570 1_555
O14 Sr3 3.004189 1_555
O14 Sr1 3.036715 1_556
O15 W3 1.943570 1_555
O15 Sr3 3.004189 1_555
O15 Sr1 3.036715 1_566
O16 W0 1.990574 1_555
O16 Sr0 2.641161 1_555
O16 Sr3 2.919555 1_555
O17 W3 1.990574 1_555
O17 Sr0 2.641161 1_555
O17 Sr3 2.919555 1_555
O18 W1 1.990574 1_555
O18 Sr0 2.641161 1_655
O18 Sr3 2.919555 1_555
O19 W2 1.990574 1_555
O19 Sr0 2.641161 1_655
O19 Sr3 2.919555 1_555
O20 W0 1.963411 1_555
O20 Sr3 2.962519 1_555
O21 W2 1.963411 1_555
O21 Sr3 2.962519 1_555
O22 W3 1.963411 1_555
O22 Sr3 2.962519 1_555
O23 W1 1.963411 1_555
O23 Sr3 2.962519 1_555
