# generated using pymatgen
data_LaEuAl4
_symmetry_space_group_name_H-M   'P 1'
_cell_length_a   5.71682007
_cell_length_b   5.71682007
_cell_length_c   5.71682662
_cell_angle_alpha   60.00004636
_cell_angle_beta   60.00004636
_cell_angle_gamma   59.99992414
_symmetry_Int_Tables_number   1
_chemical_formula_structural   LaEuAl4
_chemical_formula_sum   'La1 Eu1 Al4'
_cell_volume   132.11408614
_cell_formula_units_Z   1
loop_
 _symmetry_equiv_pos_site_id
 _symmetry_equiv_pos_as_xyz
  1  'x, y, z'
loop_
 _atom_site_type_symbol
 _atom_site_label
 _atom_site_symmetry_multiplicity
 _atom_site_fract_x
 _atom_site_fract_y
 _atom_site_fract_z
 _atom_site_occupancy
  La  La0  1  0.00000100  0.00000100  0.99999900  1
  Eu  Eu0  1  0.25000000  0.25000000  0.25000100  1
  Al  Al0  1  0.62498310  0.62498310  0.12504969  1
  Al  Al1  1  0.62498310  0.12504969  0.62498410  1
  Al  Al2  1  0.12504969  0.62498310  0.62498410  1
  Al  Al3  1  0.62498310  0.62498310  0.62498410  1
loop_
_geom_bond_atom_site_label_1
_geom_bond_atom_site_label_2
_geom_bond_distance
_geom_bond_site_symmetry_2
Eu0 La0 3.500821 1_555
Eu0 La0 3.500824 1_554
Eu0 La0 3.500827 1_564
Eu0 La0 3.500827 1_654
Al0 Al1 2.858036 1_555
Al0 Al2 2.858036 1_555
Al0 Al3 2.858038 1_555
Al0 Al3 2.858788 1_554
Al0 Al1 2.858791 1_564
Al0 Al2 2.858791 1_654
Al0 Eu0 3.351739 1_555
Al0 Eu0 3.351744 1_655
Al0 Eu0 3.351744 1_565
Al0 La0 3.351817 1_564
Al0 La0 3.351817 1_654
Al0 La0 3.351836 1_664
Al1 Al2 2.858026 1_555
Al1 Al3 2.858029 1_555
Al1 Al2 2.858787 1_645
Al1 Al3 2.858791 1_545
Al1 Eu0 3.351740 1_555
Al1 Eu0 3.351747 1_655
Al1 Eu0 3.351748 1_556
Al1 La0 3.351817 1_555
Al1 La0 3.351825 1_655
Al1 La0 3.351833 1_654
Al2 Al3 2.858029 1_555
Al2 Al3 2.858791 1_455
Al2 Eu0 3.351740 1_555
Al2 Eu0 3.351747 1_565
Al2 Eu0 3.351748 1_556
Al2 La0 3.351817 1_555
Al2 La0 3.351825 1_565
Al2 La0 3.351833 1_564
Al3 Eu0 3.351741 1_565
Al3 Eu0 3.351741 1_655
Al3 Eu0 3.351748 1_556
Al3 La0 3.351818 1_655
Al3 La0 3.351818 1_565
Al3 La0 3.351840 1_664
