# generated using pymatgen
data_Cr2N2O7
_symmetry_space_group_name_H-M   'P 1'
_cell_length_a   7.63622013
_cell_length_b   7.63622013
_cell_length_c   8.76066393
_cell_angle_alpha   89.36980948
_cell_angle_beta   89.36980948
_cell_angle_gamma   67.21032938
_symmetry_Int_Tables_number   1
_chemical_formula_structural   Cr2N2O7
_chemical_formula_sum   'Cr4 N4 O14'
_cell_volume   470.92894762
_cell_formula_units_Z   2
loop_
 _symmetry_equiv_pos_site_id
 _symmetry_equiv_pos_as_xyz
  1  'x, y, z'
loop_
 _atom_site_type_symbol
 _atom_site_label
 _atom_site_symmetry_multiplicity
 _atom_site_fract_x
 _atom_site_fract_y
 _atom_site_fract_z
 _atom_site_occupancy
  Cr  Cr0  1  0.06720400  0.73689600  0.62345600  1
  Cr  Cr1  1  0.26310400  0.93279600  0.87654400  1
  Cr  Cr2  1  0.93279600  0.26310400  0.37654400  1
  Cr  Cr3  1  0.73689600  0.06720400  0.12345600  1
  N  N0  1  0.07813000  0.48897700  0.18036800  1
  N  N1  1  0.51102300  0.92187000  0.31963200  1
  N  N2  1  0.92187000  0.51102300  0.81963200  1
  N  N3  1  0.48897700  0.07813000  0.68036800  1
  O  O0  1  0.25155300  0.63747500  0.51721300  1
  O  O1  1  0.36252500  0.74844700  0.98278700  1
  O  O2  1  0.74844700  0.36252500  0.48278700  1
  O  O3  1  0.63747500  0.25155300  0.01721300  1
  O  O4  1  0.05533300  0.52876200  0.76079000  1
  O  O5  1  0.47123800  0.94466700  0.73921000  1
  O  O6  1  0.94466700  0.47123800  0.23921000  1
  O  O7  1  0.52876200  0.05533300  0.26079000  1
  O  O8  1  0.86662200  0.81558300  0.53503600  1
  O  O9  1  0.18441700  0.13337800  0.96496400  1
  O  O10  1  0.13337800  0.18441700  0.46496400  1
  O  O11  1  0.81558300  0.86662200  0.03503600  1
  O  O12  1  0.09060100  0.90939900  0.75000000  1
  O  O13  1  0.90939900  0.09060100  0.25000000  1
loop_
_geom_bond_atom_site_label_1
_geom_bond_atom_site_label_2
_geom_bond_distance
_geom_bond_site_symmetry_2
Cr0 O0 1.607222 1_555
Cr0 O8 1.615555 1_455
Cr0 O12 1.793027 1_555
Cr0 O4 2.012204 1_555
Cr1 O1 1.607222 1_555
Cr1 O9 1.615555 1_565
Cr1 O12 1.793027 1_555
Cr1 O5 2.012204 1_555
Cr2 O2 1.607222 1_555
Cr2 O10 1.615555 1_655
Cr2 O13 1.793027 1_555
Cr2 O6 2.012204 1_555
Cr3 O3 1.607222 1_555
Cr3 O11 1.615555 1_545
Cr3 O13 1.793027 1_555
Cr3 O7 2.012204 1_555
N0 O6 1.190216 1_455
N1 O7 1.190216 1_565
N2 O4 1.190216 1_655
N3 O5 1.190216 1_545
