# generated using pymatgen
data_La8(BiPb)3
_symmetry_space_group_name_H-M   'P 1'
_cell_length_a   8.57466899
_cell_length_b   8.57466899
_cell_length_c   9.87025878
_cell_angle_alpha   54.83041104
_cell_angle_beta   54.83041104
_cell_angle_gamma   70.46576962
_symmetry_Int_Tables_number   1
_chemical_formula_structural   La8(BiPb)3
_chemical_formula_sum   'La8 Bi3 Pb3'
_cell_volume   484.93459820
_cell_formula_units_Z   1
loop_
 _symmetry_equiv_pos_site_id
 _symmetry_equiv_pos_as_xyz
  1  'x, y, z'
loop_
 _atom_site_type_symbol
 _atom_site_label
 _atom_site_symmetry_multiplicity
 _atom_site_fract_x
 _atom_site_fract_y
 _atom_site_fract_z
 _atom_site_occupancy
  La  La0  1  0.35397800  0.99862700  0.25172200  1
  La  La1  1  0.14384500  0.50106600  0.10634200  1
  La  La2  1  0.49893400  0.85615500  0.89365800  1
  La  La3  1  0.00137300  0.64602200  0.74827800  1
  La  La4  1  0.64557900  0.50065800  0.60470600  1
  La  La5  1  0.85594900  0.99966000  0.25150300  1
  La  La6  1  0.49934200  0.35442100  0.39529400  1
  La  La7  1  0.00034000  0.14405100  0.74849700  1
  Bi  Bi0  1  0.25002400  0.25012100  0.87526800  1
  Bi  Bi1  1  0.74987900  0.74997600  0.12473200  1
  Bi  Bi2  1  0.62599600  0.37400400  0.00000000  1
  Pb  Pb0  1  0.87414800  0.12585200  0.50000000  1
  Pb  Pb1  1  0.12566100  0.62504700  0.37474200  1
  Pb  Pb2  1  0.37495300  0.87433900  0.62525800  1
loop_
_geom_bond_atom_site_label_1
_geom_bond_atom_site_label_2
_geom_bond_distance
_geom_bond_site_symmetry_2
La0 Pb2 3.297057 1_555
La0 Pb1 3.541607 1_555
La0 Pb0 3.547750 1_465
La1 Pb1 3.290947 1_555
La1 Pb0 3.319585 1_455
La1 Pb2 3.551366 1_554
La2 Pb2 3.290947 1_555
La2 Pb0 3.319585 1_565
La2 Pb1 3.551366 1_556
La3 Pb1 3.297057 1_555
La3 Pb2 3.541607 1_555
La3 Pb0 3.547750 1_465
La4 Pb2 3.305598 1_555
La4 Pb0 3.538172 1_555
La4 Pb1 3.552307 1_655
La5 Pb0 3.289728 1_565
La5 Pb1 3.304227 1_655
La5 Pb2 3.555809 1_555
La6 Pb1 3.305598 1_555
La6 Pb0 3.538172 1_555
La6 Pb2 3.552307 1_545
La7 Pb0 3.289728 1_455
La7 Pb2 3.304227 1_545
La7 Pb1 3.555809 1_555
Bi0 La2 3.304288 1_545
Bi0 La3 3.313252 1_555
Bi0 La5 3.321241 1_446
Bi0 La4 3.328656 1_555
Bi0 La6 3.541772 1_555
Bi0 La0 3.542687 1_546
Bi0 La1 3.551376 1_556
Bi0 La7 3.560319 1_555
Bi1 La1 3.304288 1_655
Bi1 La0 3.313252 1_555
Bi1 La7 3.321241 1_664
Bi1 La6 3.328656 1_555
Bi1 La4 3.541772 1_555
Bi1 La3 3.542687 1_654
Bi1 La2 3.551376 1_554
Bi1 La5 3.560319 1_555
Bi2 La6 3.304003 1_555
Bi2 La4 3.304003 1_554
Bi2 La3 3.332510 1_654
Bi2 La0 3.332510 1_545
Bi2 La5 3.546874 1_545
Bi2 La7 3.546874 1_654
Bi2 La2 3.561909 1_554
Bi2 La1 3.561909 1_555
