# generated using pymatgen
data_Li5Ta12O32
_symmetry_space_group_name_H-M   'P 1'
_cell_length_a   7.78348200
_cell_length_b   8.98277400
_cell_length_c   16.97288100
_cell_angle_alpha   90.00000000
_cell_angle_beta   90.00000000
_cell_angle_gamma   90.00000000
_symmetry_Int_Tables_number   1
_chemical_formula_structural   Li5Ta12O32
_chemical_formula_sum   'Li10 Ta24 O64'
_cell_volume   1186.69732940
_cell_formula_units_Z   2
loop_
 _symmetry_equiv_pos_site_id
 _symmetry_equiv_pos_as_xyz
  1  'x, y, z'
loop_
 _atom_site_type_symbol
 _atom_site_label
 _atom_site_symmetry_multiplicity
 _atom_site_fract_x
 _atom_site_fract_y
 _atom_site_fract_z
 _atom_site_occupancy
  Li  Li0  1  0.00000000  0.46785400  0.75493900  1
  Li  Li1  1  0.50000000  0.92093300  0.84031300  1
  Li  Li2  1  0.00000000  0.68226400  0.00000000  1
  Li  Li3  1  0.50000000  0.92093300  0.15968700  1
  Li  Li4  1  0.00000000  0.46785400  0.24506100  1
  Li  Li5  1  0.50000000  0.53214600  0.25493900  1
  Li  Li6  1  0.00000000  0.07906700  0.34031300  1
  Li  Li7  1  0.50000000  0.31773600  0.50000000  1
  Li  Li8  1  0.00000000  0.07906700  0.65968700  1
  Li  Li9  1  0.50000000  0.53214600  0.74506100  1
  Ta  Ta0  1  0.25138100  0.18998400  0.81002600  1
  Ta  Ta1  1  0.74861900  0.18998400  0.81002600  1
  Ta  Ta2  1  0.74649400  0.60706400  0.88043700  1
  Ta  Ta3  1  0.25350600  0.60706400  0.88043700  1
  Ta  Ta4  1  0.24801700  0.31504400  0.00000000  1
  Ta  Ta5  1  0.74805700  0.94944700  0.00000000  1
  Ta  Ta6  1  0.25194300  0.94944700  0.00000000  1
  Ta  Ta7  1  0.75198300  0.31504400  0.00000000  1
  Ta  Ta8  1  0.74649400  0.60706400  0.11956300  1
  Ta  Ta9  1  0.25350600  0.60706400  0.11956300  1
  Ta  Ta10  1  0.25138100  0.18998400  0.18997400  1
  Ta  Ta11  1  0.74861900  0.18998400  0.18997400  1
  Ta  Ta12  1  0.75138100  0.81001600  0.31002600  1
  Ta  Ta13  1  0.24861900  0.81001600  0.31002600  1
  Ta  Ta14  1  0.24649400  0.39293600  0.38043700  1
  Ta  Ta15  1  0.75350600  0.39293600  0.38043700  1
  Ta  Ta16  1  0.74801700  0.68495600  0.50000000  1
  Ta  Ta17  1  0.25198300  0.68495600  0.50000000  1
  Ta  Ta18  1  0.24805700  0.05055300  0.50000000  1
  Ta  Ta19  1  0.75194300  0.05055300  0.50000000  1
  Ta  Ta20  1  0.24649400  0.39293600  0.61956300  1
  Ta  Ta21  1  0.75350600  0.39293600  0.61956300  1
  Ta  Ta22  1  0.75138100  0.81001600  0.68997400  1
  Ta  Ta23  1  0.24861900  0.81001600  0.68997400  1
  O  O0  1  0.75000000  0.00000000  0.75000000  1
  O  O1  1  0.25000000  0.00000000  0.75000000  1
  O  O2  1  0.78898000  0.65287700  0.76943200  1
  O  O3  1  0.21102000  0.65287700  0.76943200  1
  O  O4  1  0.00000000  0.20723300  0.79010100  1
  O  O5  1  0.50000000  0.15704400  0.82320600  1
  O  O6  1  0.50000000  0.58604800  0.85670800  1
  O  O7  1  0.75673500  0.38253800  0.88180400  1
  O  O8  1  0.24326500  0.38253800  0.88180400  1
  O  O9  1  0.00000000  0.61460900  0.89427600  1
  O  O10  1  0.29027900  0.81387200  0.91135800  1
  O  O11  1  0.70972100  0.81387200  0.91135800  1
  O  O12  1  0.77678200  0.12465000  0.92420800  1
  O  O13  1  0.22321800  0.12465000  0.92420800  1
  O  O14  1  0.73318600  0.55191100  0.00000000  1
  O  O15  1  0.00000000  0.32946800  0.00000000  1
  O  O16  1  0.26681400  0.55191100  0.00000000  1
  O  O17  1  0.50000000  0.98405600  0.00000000  1
  O  O18  1  0.50000000  0.30365500  0.00000000  1
  O  O19  1  0.00000000  0.90154000  0.00000000  1
  O  O20  1  0.77678200  0.12465000  0.07579200  1
  O  O21  1  0.22321800  0.12465000  0.07579200  1
  O  O22  1  0.29027900  0.81387200  0.08864200  1
  O  O23  1  0.70972100  0.81387200  0.08864200  1
  O  O24  1  0.00000000  0.61460900  0.10572400  1
  O  O25  1  0.75673500  0.38253800  0.11819600  1
  O  O26  1  0.24326500  0.38253800  0.11819600  1
  O  O27  1  0.50000000  0.58604800  0.14329200  1
  O  O28  1  0.50000000  0.15704400  0.17679400  1
  O  O29  1  0.00000000  0.20723300  0.20989900  1
  O  O30  1  0.78898000  0.65287700  0.23056800  1
  O  O31  1  0.21102000  0.65287700  0.23056800  1
  O  O32  1  0.75000000  0.00000000  0.25000000  1
  O  O33  1  0.25000000  0.00000000  0.25000000  1
  O  O34  1  0.28898000  0.34712300  0.26943200  1
  O  O35  1  0.71102000  0.34712300  0.26943200  1
  O  O36  1  0.50000000  0.79276700  0.29010100  1
  O  O37  1  0.00000000  0.84295600  0.32320600  1
  O  O38  1  0.00000000  0.41395200  0.35670800  1
  O  O39  1  0.25673500  0.61746200  0.38180400  1
  O  O40  1  0.74326500  0.61746200  0.38180400  1
  O  O41  1  0.50000000  0.38539100  0.39427600  1
  O  O42  1  0.79027900  0.18612800  0.41135800  1
  O  O43  1  0.20972100  0.18612800  0.41135800  1
  O  O44  1  0.27678200  0.87535000  0.42420800  1
  O  O45  1  0.72321800  0.87535000  0.42420800  1
  O  O46  1  0.00000000  0.69634500  0.50000000  1
  O  O47  1  0.00000000  0.01594400  0.50000000  1
  O  O48  1  0.23318600  0.44808900  0.50000000  1
  O  O49  1  0.50000000  0.67053200  0.50000000  1
  O  O50  1  0.50000000  0.09846000  0.50000000  1
  O  O51  1  0.76681400  0.44808900  0.50000000  1
  O  O52  1  0.27678200  0.87535000  0.57579200  1
  O  O53  1  0.72321800  0.87535000  0.57579200  1
  O  O54  1  0.79027900  0.18612800  0.58864200  1
  O  O55  1  0.20972100  0.18612800  0.58864200  1
  O  O56  1  0.50000000  0.38539100  0.60572400  1
  O  O57  1  0.25673500  0.61746200  0.61819600  1
  O  O58  1  0.74326500  0.61746200  0.61819600  1
  O  O59  1  0.00000000  0.41395200  0.64329200  1
  O  O60  1  0.00000000  0.84295600  0.67679400  1
  O  O61  1  0.50000000  0.79276700  0.70989900  1
  O  O62  1  0.28898000  0.34712300  0.73056800  1
  O  O63  1  0.71102000  0.34712300  0.73056800  1
loop_
_geom_bond_atom_site_label_1
_geom_bond_atom_site_label_2
_geom_bond_distance
_geom_bond_site_symmetry_2
Li0 O59 1.955852 1_555
Li0 O2 2.349581 1_455
Li0 O3 2.349581 1_555
Li0 O4 2.415971 1_555
Li0 O62 2.531099 1_555
Li0 O63 2.531099 1_455
Li1 O5 2.140714 1_565
Li1 O10 2.245778 1_555
Li1 O11 2.245778 1_555
Li1 O61 2.495005 1_555
Li1 O0 2.576927 1_565
Li1 O1 2.576927 1_565
Li2 O24 1.894559 1_555
Li2 O9 1.894559 1_554
Li2 O19 1.969707 1_555
Li2 O14 2.384101 1_455
Li2 O16 2.384101 1_555
Li3 O28 2.140714 1_565
Li3 O22 2.245778 1_555
Li3 O23 2.245778 1_555
Li3 O36 2.495005 1_555
Li3 O33 2.576927 1_565
Li3 O32 2.576927 1_565
Li4 O38 1.955852 1_555
Li4 O31 2.349581 1_555
Li4 O30 2.349581 1_455
Li4 O29 2.415971 1_555
Li4 O35 2.531099 1_455
Li4 O34 2.531099 1_555
Li5 O27 1.955852 1_555
Li5 O35 2.349581 1_555
Li5 O34 2.349581 1_555
Li5 O36 2.415971 1_555
Li5 O30 2.531099 1_555
Li5 O31 2.531099 1_555
Li6 O37 2.140714 1_545
Li6 O43 2.245778 1_555
Li6 O42 2.245778 1_455
Li6 O29 2.495005 1_555
Li6 O32 2.576927 1_455
Li6 O33 2.576927 1_555
Li7 O41 1.894559 1_555
Li7 O56 1.894559 1_555
Li7 O50 1.969707 1_555
Li7 O51 2.384101 1_555
Li7 O48 2.384101 1_555
Li8 O60 2.140714 1_545
Li8 O55 2.245778 1_555
Li8 O54 2.245778 1_455
Li8 O4 2.495005 1_555
Li8 O0 2.576927 1_455
Li8 O1 2.576927 1_555
Li9 O6 1.955852 1_555
Li9 O63 2.349581 1_555
Li9 O62 2.349581 1_555
Li9 O61 2.415971 1_555
Li9 O2 2.531099 1_555
Li9 O3 2.531099 1_555
O0 Ta1 1.987593 1_555
O0 Ta22 1.987593 1_545
O1 Ta0 1.987593 1_555
O1 Ta23 1.987593 1_545
O2 Ta2 1.956642 1_555
O2 Ta22 1.974059 1_555
O3 Ta3 1.956642 1_555
O3 Ta23 1.974059 1_555
O4 Ta1 1.991667 1_455
O4 Ta0 1.991667 1_555
O5 Ta0 1.970353 1_555
O5 Ta1 1.970353 1_555
O6 Ta3 1.969467 1_555
O6 Ta2 1.969467 1_555
O7 Ta2 2.018574 1_555
O7 Ta7 2.096066 1_556
O7 Ta1 2.116589 1_555
O8 Ta3 2.018574 1_555
O8 Ta4 2.096066 1_556
O8 Ta0 2.116589 1_555
O9 Ta2 1.988246 1_455
O9 Ta3 1.988246 1_555
O10 Ta3 1.951523 1_555
O10 Ta6 1.958499 1_556
O11 Ta2 1.951523 1_555
O11 Ta5 1.958499 1_556
O12 Ta1 2.036741 1_555
O12 Ta5 2.044923 1_546
O12 Ta7 2.148747 1_556
O13 Ta0 2.036741 1_555
O13 Ta6 2.044923 1_546
O13 Ta4 2.148747 1_556
O14 Ta2 2.091495 1_554
O14 Ta8 2.091495 1_555
O14 Ta7 2.132747 1_555
O15 Ta4 1.934779 1_555
O15 Ta7 1.934779 1_455
O16 Ta3 2.091495 1_554
O16 Ta9 2.091495 1_555
O16 Ta4 2.132747 1_555
O17 Ta5 1.955616 1_555
O17 Ta6 1.955616 1_555
O18 Ta7 1.963972 1_555
O18 Ta4 1.963972 1_555
O19 Ta6 2.007657 1_555
O19 Ta5 2.007657 1_455
O20 Ta11 2.036741 1_555
O20 Ta5 2.044923 1_545
O20 Ta7 2.148747 1_555
O21 Ta10 2.036741 1_555
O21 Ta6 2.044923 1_545
O21 Ta4 2.148747 1_555
O22 Ta9 1.951523 1_555
O22 Ta6 1.958499 1_555
O23 Ta8 1.951523 1_555
O23 Ta5 1.958499 1_555
O24 Ta8 1.988246 1_455
O24 Ta9 1.988246 1_555
O25 Ta8 2.018574 1_555
O25 Ta7 2.096066 1_555
O25 Ta11 2.116589 1_555
O26 Ta9 2.018574 1_555
O26 Ta4 2.096066 1_555
O26 Ta10 2.116589 1_555
O27 Ta8 1.969467 1_555
O27 Ta9 1.969467 1_555
O28 Ta10 1.970353 1_555
O28 Ta11 1.970353 1_555
O29 Ta11 1.991667 1_455
O29 Ta10 1.991667 1_555
O30 Ta8 1.956642 1_555
O30 Ta12 1.974059 1_555
O31 Ta9 1.956642 1_555
O31 Ta13 1.974059 1_555
O32 Ta11 1.987593 1_555
O32 Ta12 1.987593 1_545
O33 Ta10 1.987593 1_555
O33 Ta13 1.987593 1_545
O34 Ta14 1.956642 1_555
O34 Ta10 1.974059 1_555
O35 Ta15 1.956642 1_555
O35 Ta11 1.974059 1_555
O36 Ta13 1.991667 1_555
O36 Ta12 1.991667 1_555
O37 Ta13 1.970353 1_555
O37 Ta12 1.970353 1_455
O38 Ta15 1.969467 1_455
O38 Ta14 1.969467 1_555
O39 Ta14 2.018574 1_555
O39 Ta17 2.096066 1_555
O39 Ta13 2.116589 1_555
O40 Ta15 2.018574 1_555
O40 Ta16 2.096066 1_555
O40 Ta12 2.116589 1_555
O41 Ta14 1.988246 1_555
O41 Ta15 1.988246 1_555
O42 Ta15 1.951523 1_555
O42 Ta19 1.958499 1_555
O43 Ta14 1.951523 1_555
O43 Ta18 1.958499 1_555
O44 Ta13 2.036741 1_555
O44 Ta18 2.044923 1_565
O44 Ta17 2.148747 1_555
O45 Ta12 2.036741 1_555
O45 Ta19 2.044923 1_565
O45 Ta16 2.148747 1_555
O46 Ta16 1.963972 1_455
O46 Ta17 1.963972 1_555
O47 Ta19 1.955616 1_455
O47 Ta18 1.955616 1_555
O48 Ta14 2.091495 1_555
O48 Ta20 2.091495 1_555
O48 Ta17 2.132747 1_555
O49 Ta17 1.934779 1_555
O49 Ta16 1.934779 1_555
O50 Ta18 2.007657 1_555
O50 Ta19 2.007657 1_555
O51 Ta15 2.091495 1_555
O51 Ta21 2.091495 1_555
O51 Ta16 2.132747 1_555
O52 Ta23 2.036741 1_555
O52 Ta18 2.044923 1_565
O52 Ta17 2.148747 1_555
O53 Ta22 2.036741 1_555
O53 Ta19 2.044923 1_565
O53 Ta16 2.148747 1_555
O54 Ta21 1.951523 1_555
O54 Ta19 1.958499 1_555
O55 Ta20 1.951523 1_555
O55 Ta18 1.958499 1_555
O56 Ta21 1.988246 1_555
O56 Ta20 1.988246 1_555
O57 Ta20 2.018574 1_555
O57 Ta17 2.096066 1_555
O57 Ta23 2.116589 1_555
O58 Ta21 2.018574 1_555
O58 Ta16 2.096066 1_555
O58 Ta22 2.116589 1_555
O59 Ta20 1.969467 1_555
O59 Ta21 1.969467 1_455
O60 Ta23 1.970353 1_555
O60 Ta22 1.970353 1_455
O61 Ta22 1.991667 1_555
O61 Ta23 1.991667 1_555
O62 Ta20 1.956642 1_555
O62 Ta0 1.974059 1_555
O63 Ta21 1.956642 1_555
O63 Ta1 1.974059 1_555
