# generated using pymatgen
data_Na2MnH4(SeO5)2
_symmetry_space_group_name_H-M   'P 1'
_cell_length_a   5.79068920
_cell_length_b   6.02711618
_cell_length_c   13.70450500
_cell_angle_alpha   90.00000000
_cell_angle_beta   90.00000000
_cell_angle_gamma   105.82983314
_symmetry_Int_Tables_number   1
_chemical_formula_structural   Na2MnH4(SeO5)2
_chemical_formula_sum   'Na4 Mn2 H8 Se4 O20'
_cell_volume   460.16395256
_cell_formula_units_Z   2
loop_
 _symmetry_equiv_pos_site_id
 _symmetry_equiv_pos_as_xyz
  1  'x, y, z'
loop_
 _atom_site_type_symbol
 _atom_site_label
 _atom_site_symmetry_multiplicity
 _atom_site_fract_x
 _atom_site_fract_y
 _atom_site_fract_z
 _atom_site_occupancy
  Na  Na0  1  0.73783100  0.57343300  0.37694600  1
  Na  Na1  1  0.76216900  0.42656700  0.87694600  1
  Na  Na2  1  0.26216900  0.42656700  0.62305400  1
  Na  Na3  1  0.23783100  0.57343300  0.12305400  1
  Mn  Mn0  1  0.50000000  0.00000000  0.50000000  1
  Mn  Mn1  1  0.00000000  0.00000000  0.00000000  1
  H  H0  1  0.49603100  0.90576200  0.30126600  1
  H  H1  1  0.00396900  0.09423800  0.80126600  1
  H  H2  1  0.50396900  0.09423800  0.69873400  1
  H  H3  1  0.99603100  0.90576200  0.19873400  1
  H  H4  1  0.31010000  0.69499800  0.35088800  1
  H  H5  1  0.18990000  0.30500200  0.85088800  1
  H  H6  1  0.68990000  0.30500200  0.64911200  1
  H  H7  1  0.81010000  0.69499800  0.14911200  1
  Se  Se0  1  0.06656400  0.22420500  0.38153000  1
  Se  Se1  1  0.43343600  0.77579500  0.88153000  1
  Se  Se2  1  0.93343600  0.77579500  0.61847000  1
  Se  Se3  1  0.56656400  0.22420500  0.11847000  1
  O  O0  1  0.00433800  0.97291400  0.32321700  1
  O  O1  1  0.49566200  0.02708600  0.82321700  1
  O  O2  1  0.99566200  0.02708600  0.67678300  1
  O  O3  1  0.50433800  0.97291400  0.17678300  1
  O  O4  1  0.32291700  0.26718400  0.44689500  1
  O  O5  1  0.17708300  0.73281600  0.94689500  1
  O  O6  1  0.67708300  0.73281600  0.55310500  1
  O  O7  1  0.82291700  0.26718400  0.05310500  1
  O  O8  1  0.84207400  0.23432200  0.45889200  1
  O  O9  1  0.65792600  0.76567800  0.95889200  1
  O  O10  1  0.15792600  0.76567800  0.54110800  1
  O  O11  1  0.34207400  0.23432200  0.04110800  1
  O  O12  1  0.09130600  0.44907000  0.30659100  1
  O  O13  1  0.40869400  0.55093000  0.80659100  1
  O  O14  1  0.90869400  0.55093000  0.69340900  1
  O  O15  1  0.59130600  0.44907000  0.19340900  1
  O  O16  1  0.46633400  0.81272600  0.36217900  1
  O  O17  1  0.03366600  0.18727400  0.86217900  1
  O  O18  1  0.53366600  0.18727400  0.63782100  1
  O  O19  1  0.96633400  0.81272600  0.13782100  1
loop_
_geom_bond_atom_site_label_1
_geom_bond_atom_site_label_2
_geom_bond_distance
_geom_bond_site_symmetry_2
Na0 O16 2.414483 1_555
Na0 O8 2.544805 1_555
Na0 O12 2.553064 1_655
Na0 O0 2.587233 1_655
Na0 O6 2.656900 1_555
Na0 O15 2.694704 1_555
Na0 O4 2.771125 1_555
Na1 O17 2.414483 1_655
Na1 O9 2.544805 1_555
Na1 O13 2.553064 1_555
Na1 O1 2.587233 1_555
Na1 O7 2.656900 1_556
Na1 O14 2.694704 1_555
Na1 O5 2.771125 1_655
Na2 O18 2.414483 1_555
Na2 O10 2.544805 1_555
Na2 O14 2.553064 1_455
Na2 O2 2.587233 1_455
Na2 O4 2.656900 1_555
Na2 O13 2.694704 1_555
Na2 O6 2.771125 1_555
Na3 O19 2.414483 1_455
Na3 O11 2.544805 1_555
Na3 O15 2.553064 1_555
Na3 O3 2.587233 1_555
Na3 O5 2.656900 1_554
Na3 O12 2.694704 1_555
Na3 O7 2.771125 1_455
Mn0 O8 2.170128 1_555
Mn0 O10 2.170128 1_545
Mn0 O18 2.181609 1_555
Mn0 O16 2.181609 1_545
Mn0 O6 2.252840 1_545
Mn0 O4 2.252840 1_555
Mn1 O11 2.170128 1_555
Mn1 O9 2.170128 1_444
Mn1 O17 2.181609 1_554
Mn1 O19 2.181609 1_445
Mn1 O5 2.252840 1_544
Mn1 O7 2.252840 1_455
H0 O16 0.994110 1_555
H0 O3 1.750960 1_555
H1 O17 0.994110 1_555
H1 O2 1.750960 1_455
H2 O18 0.994110 1_555
H2 O1 1.750960 1_555
H3 O19 0.994110 1_555
H3 O0 1.750960 1_655
H4 O16 0.997841 1_555
H4 O12 1.773761 1_555
H5 O17 0.997841 1_555
H5 O13 1.773761 1_555
H6 O18 0.997841 1_555
H6 O14 1.773761 1_555
H7 O19 0.997841 1_555
H7 O15 1.773761 1_555
O0 Se0 1.662719 1_565
O1 Se1 1.662719 1_545
O2 Se2 1.662719 1_545
O3 Se3 1.662719 1_565
O4 Se0 1.692154 1_555
O5 Se1 1.692154 1_555
O6 Se2 1.692154 1_555
O7 Se3 1.692154 1_555
O8 Se0 1.691413 1_655
O9 Se1 1.691413 1_555
O10 Se2 1.691413 1_455
O11 Se3 1.691413 1_555
O12 Se0 1.675150 1_555
O13 Se1 1.675150 1_555
O14 Se2 1.675150 1_555
O15 Se3 1.675150 1_555
