# generated using pymatgen
data_Ca3Ga2(FeO5)2
_symmetry_space_group_name_H-M   'P 1'
_cell_length_a   5.49973700
_cell_length_b   5.81426300
_cell_length_c   14.94543283
_cell_angle_alpha   68.65583756
_cell_angle_beta   90.00000000
_cell_angle_gamma   90.00000000
_symmetry_Int_Tables_number   1
_chemical_formula_structural   Ca3Ga2(FeO5)2
_chemical_formula_sum   'Ca6 Ga4 Fe4 O20'
_cell_volume   445.12956165
_cell_formula_units_Z   2
loop_
 _symmetry_equiv_pos_site_id
 _symmetry_equiv_pos_as_xyz
  1  'x, y, z'
loop_
 _atom_site_type_symbol
 _atom_site_label
 _atom_site_symmetry_multiplicity
 _atom_site_fract_x
 _atom_site_fract_y
 _atom_site_fract_z
 _atom_site_occupancy
  Ca  Ca0  1  0.73016200  0.06854600  0.88571100  1
  Ca  Ca1  1  0.77125200  0.93669100  0.11113300  1
  Ca  Ca2  1  0.76629600  0.62147200  0.40746900  1
  Ca  Ca3  1  0.22874800  0.93669100  0.61113300  1
  Ca  Ca4  1  0.23370400  0.62147200  0.90746900  1
  Ca  Ca5  1  0.26983800  0.06854600  0.38571100  1
  Ga  Ga0  1  0.81278700  0.33579100  0.24846400  1
  Ga  Ga1  1  0.18721300  0.33579100  0.74846400  1
  Ga  Ga2  1  0.30745600  0.65407000  0.24603300  1
  Ga  Ga3  1  0.69254400  0.65407000  0.74603300  1
  Fe  Fe0  1  0.73948100  0.50281600  0.00529900  1
  Fe  Fe1  1  0.74687000  0.01198100  0.50258700  1
  Fe  Fe2  1  0.26051900  0.50281600  0.50529900  1
  Fe  Fe3  1  0.25313000  0.01198100  0.00258700  1
  O  O0  1  0.85345900  0.37227700  0.75282700  1
  O  O1  1  0.02699400  0.73522200  0.51419500  1
  O  O2  1  0.97300600  0.73522200  0.01419500  1
  O  O3  1  0.72957200  0.29464400  0.13647700  1
  O  O4  1  0.49438800  0.76634300  0.01524800  1
  O  O5  1  0.51282300  0.27953000  0.97840900  1
  O  O6  1  0.50561200  0.76634300  0.51524800  1
  O  O7  1  0.27851500  0.06306000  0.85784100  1
  O  O8  1  0.34606800  0.62245400  0.75282200  1
  O  O9  1  0.14654100  0.37227700  0.25282700  1
  O  O10  1  0.48717700  0.27953000  0.47840900  1
  O  O11  1  0.77032000  0.70025500  0.86181700  1
  O  O12  1  0.72148500  0.06306000  0.35784100  1
  O  O13  1  0.65393200  0.62245400  0.25282200  1
  O  O14  1  0.99985600  0.24537100  0.47642900  1
  O  O15  1  0.27042800  0.29464400  0.63647700  1
  O  O16  1  0.21435800  0.92466100  0.13914900  1
  O  O17  1  0.00014400  0.24537100  0.97642900  1
  O  O18  1  0.78564200  0.92466100  0.63914900  1
  O  O19  1  0.22968000  0.70025500  0.36181700  1
loop_
_geom_bond_atom_site_label_1
_geom_bond_atom_site_label_2
_geom_bond_distance
_geom_bond_site_symmetry_2
Ca0 O0 2.229273 1_555
Ca0 O11 2.306141 1_545
Ca0 O4 2.457762 1_546
Ca0 O5 2.467812 1_555
Ca0 O17 2.472785 1_655
Ca0 O7 2.520742 1_555
Ca0 O2 2.553051 1_546
Ca1 O3 2.258628 1_565
Ca1 O13 2.328588 1_555
Ca1 O2 2.436741 1_555
Ca1 O16 2.469352 1_655
Ca1 O17 2.495723 1_664
Ca1 O4 2.527124 1_555
Ca1 O5 2.655177 1_564
Ca2 O13 2.390454 1_555
Ca2 O1 2.409414 1_655
Ca2 O12 2.411789 1_565
Ca2 O14 2.419398 1_555
Ca2 O10 2.428755 1_555
Ca2 O6 2.519393 1_555
Ca2 O19 2.634889 1_655
Ca3 O15 2.258628 1_565
Ca3 O8 2.328588 1_555
Ca3 O1 2.436741 1_555
Ca3 O18 2.469352 1_455
Ca3 O14 2.495723 1_465
Ca3 O6 2.527124 1_555
Ca3 O10 2.655177 1_565
Ca4 O8 2.390454 1_555
Ca4 O2 2.409414 1_456
Ca4 O7 2.411789 1_565
Ca4 O17 2.419398 1_555
Ca4 O5 2.428755 1_555
Ca4 O4 2.519393 1_556
Ca4 O11 2.634889 1_455
Ca5 O9 2.229273 1_555
Ca5 O19 2.306141 1_545
Ca5 O6 2.457762 1_545
Ca5 O10 2.467812 1_555
Ca5 O14 2.472785 1_455
Ca5 O12 2.520742 1_555
Ca5 O1 2.553051 1_545
Ga0 O3 1.832871 1_555
Ga0 O9 1.851649 1_655
Ga0 O12 1.884659 1_555
Ga0 O13 1.903825 1_555
Ga1 O15 1.832871 1_555
Ga1 O0 1.851649 1_455
Ga1 O7 1.884659 1_555
Ga1 O8 1.903825 1_555
Ga2 O9 1.832166 1_555
Ga2 O16 1.860028 1_555
Ga2 O19 1.894139 1_555
Ga2 O13 1.913516 1_555
Ga3 O0 1.832166 1_555
Ga3 O18 1.860028 1_555
Ga3 O11 1.894139 1_555
Ga3 O8 1.913516 1_555
Fe0 O3 1.893201 1_555
Fe0 O2 1.903649 1_555
Fe0 O5 1.944390 1_554
Fe0 O11 2.037910 1_554
Fe0 O4 2.086288 1_555
Fe0 O17 2.225315 1_654
Fe1 O14 1.882540 1_555
Fe1 O6 1.907719 1_545
Fe1 O18 1.927311 1_545
Fe1 O10 2.044788 1_555
Fe1 O12 2.078424 1_555
Fe1 O1 2.188543 1_645
Fe2 O15 1.893201 1_555
Fe2 O1 1.903649 1_555
Fe2 O10 1.944390 1_555
Fe2 O19 2.037910 1_555
Fe2 O6 2.086288 1_555
Fe2 O14 2.225315 1_455
Fe3 O17 1.882540 1_554
Fe3 O4 1.907719 1_545
Fe3 O16 1.927311 1_545
Fe3 O5 2.044788 1_554
Fe3 O7 2.078424 1_554
Fe3 O2 2.188543 1_445
