# generated using pymatgen
data_MgTi5
_symmetry_space_group_name_H-M   'P 1'
_cell_length_a   5.11198982
_cell_length_b   5.11198982
_cell_length_c   4.73459000
_cell_angle_alpha   90.00000000
_cell_angle_beta   90.00000000
_cell_angle_gamma   119.99999771
_symmetry_Int_Tables_number   1
_chemical_formula_structural   MgTi5
_chemical_formula_sum   'Mg1 Ti5'
_cell_volume   107.15019836
_cell_formula_units_Z   1
loop_
 _symmetry_equiv_pos_site_id
 _symmetry_equiv_pos_as_xyz
  1  'x, y, z'
loop_
 _atom_site_type_symbol
 _atom_site_label
 _atom_site_symmetry_multiplicity
 _atom_site_fract_x
 _atom_site_fract_y
 _atom_site_fract_z
 _atom_site_occupancy
  Mg  Mg0  1  0.00000000  0.00000000  0.50000000  1
  Ti  Ti0  1  0.66830300  0.00000000  0.00000000  1
  Ti  Ti1  1  0.00000000  0.66830300  0.00000000  1
  Ti  Ti2  1  0.33169700  0.33169700  0.00000000  1
  Ti  Ti3  1  0.33333300  0.66666700  0.50000000  1
  Ti  Ti4  1  0.66666700  0.33333300  0.50000000  1
loop_
_geom_bond_atom_site_label_1
_geom_bond_atom_site_label_2
_geom_bond_distance
_geom_bond_site_symmetry_2
Mg0 Ti1 2.911916 1_546
Mg0 Ti0 2.911916 1_456
Mg0 Ti1 2.911916 1_545
Mg0 Ti0 2.911916 1_455
Mg0 Ti2 2.911916 1_556
Mg0 Ti2 2.911916 1_555
Mg0 Ti4 2.951406 1_455
Mg0 Ti3 2.951406 1_545
Mg0 Ti4 2.951410 1_445
Mg0 Ti3 2.951410 1_555
Mg0 Ti3 2.951410 1_445
Mg0 Ti4 2.951410 1_555
Ti0 Ti4 2.919247 1_555
Ti0 Ti4 2.919247 1_554
Ti0 Ti3 2.919249 1_544
Ti0 Ti3 2.919249 1_545
Ti0 Ti1 2.936920 1_645
Ti0 Ti2 2.936920 1_655
Ti0 Ti2 2.958680 1_555
Ti0 Ti1 2.958680 1_655
Ti0 Ti1 2.958680 1_545
Ti0 Ti2 2.958680 1_545
Ti1 Ti3 2.919247 1_554
Ti1 Ti3 2.919247 1_555
Ti1 Ti4 2.919249 1_455
Ti1 Ti4 2.919249 1_454
Ti1 Ti2 2.936920 1_565
Ti1 Ti2 2.958680 1_555
Ti1 Ti2 2.958680 1_455
Ti2 Ti4 2.919250 1_555
Ti2 Ti3 2.919250 1_554
Ti2 Ti3 2.919250 1_555
Ti2 Ti4 2.919250 1_554
Ti3 Ti4 2.951406 1_455
Ti3 Ti4 2.951406 1_565
Ti3 Ti4 2.951415 1_555
