# generated using pymatgen
data_DyGa2Co3
_symmetry_space_group_name_H-M   'P 1'
_cell_length_a   3.85850000
_cell_length_b   8.94767984
_cell_length_c   8.95833774
_cell_angle_alpha   119.96064948
_cell_angle_beta   90.00000000
_cell_angle_gamma   90.00000000
_symmetry_Int_Tables_number   1
_chemical_formula_structural   DyGa2Co3
_chemical_formula_sum   'Dy3 Ga6 Co9'
_cell_volume   267.95327840
_cell_formula_units_Z   3
loop_
 _symmetry_equiv_pos_site_id
 _symmetry_equiv_pos_as_xyz
  1  'x, y, z'
loop_
 _atom_site_type_symbol
 _atom_site_label
 _atom_site_symmetry_multiplicity
 _atom_site_fract_x
 _atom_site_fract_y
 _atom_site_fract_z
 _atom_site_occupancy
  Dy  Dy0  1  0.00000000  0.00007000  0.00000000  1
  Dy  Dy1  1  0.50000000  0.33320700  0.66649700  1
  Dy  Dy2  1  0.50000000  0.66671000  0.33350300  1
  Ga  Ga0  1  0.50000000  0.31144300  0.00000000  1
  Ga  Ga1  1  0.50000000  0.68865100  0.68865500  1
  Ga  Ga2  1  0.50000000  0.99999600  0.31134500  1
  Ga  Ga3  1  0.50000000  0.68859000  0.00000000  1
  Ga  Ga4  1  0.50000000  0.31134900  0.31135900  1
  Ga  Ga5  1  0.50000000  0.99999100  0.68864100  1
  Co  Co0  1  0.00000000  0.49997000  0.00000000  1
  Co  Co1  1  0.00000000  0.50000700  0.50000800  1
  Co  Co2  1  0.00000000  0.99999900  0.49999200  1
  Co  Co3  1  0.00000000  0.18325200  0.36651600  1
  Co  Co4  1  0.00000000  0.18322100  0.81679300  1
  Co  Co5  1  0.00000000  0.63355000  0.81682000  1
  Co  Co6  1  0.00000000  0.81673700  0.63348400  1
  Co  Co7  1  0.00000000  0.36642700  0.18320700  1
  Co  Co8  1  0.00000000  0.81673000  0.18318000  1
loop_
_geom_bond_atom_site_label_1
_geom_bond_atom_site_label_2
_geom_bond_distance
_geom_bond_site_symmetry_2
Dy1 Ga5 3.085369 1_545
Dy1 Ga1 3.086063 1_555
Dy1 Ga2 3.088215 1_545
Dy1 Ga4 3.088425 1_555
Dy1 Ga0 3.089495 1_556
Dy1 Ga3 3.090062 1_556
Dy2 Ga4 3.085378 1_555
Dy2 Ga2 3.086063 1_555
Dy2 Ga1 3.088215 1_555
Dy2 Ga5 3.088429 1_555
Dy2 Ga0 3.089496 1_555
Dy2 Ga3 3.090062 1_555
Co0 Co4 2.465798 1_554
Co0 Co7 2.465805 1_555
Co0 Co5 2.465856 1_554
Co0 Co8 2.465856 1_555
Co0 Ga0 2.562727 1_455
Co0 Ga0 2.562727 1_555
Co0 Ga3 2.563274 1_455
Co0 Ga3 2.563274 1_555
Co0 Dy2 3.228277 1_555
Co0 Dy2 3.228277 1_455
Co0 Dy1 3.228277 1_554
Co0 Dy1 3.228277 1_454
Co1 Co6 2.465087 1_555
Co1 Co3 2.465278 1_555
Co1 Co7 2.468773 1_555
Co1 Co5 2.468892 1_555
Co1 Ga1 2.564749 1_455
Co1 Ga1 2.564749 1_555
Co1 Ga4 2.564796 1_455
Co1 Ga4 2.564796 1_555
Co1 Dy2 3.223977 1_455
Co1 Dy2 3.223977 1_555
Co1 Dy1 3.224480 1_455
Co1 Dy1 3.224480 1_555
Co2 Co3 2.465079 1_565
Co2 Co6 2.465269 1_555
Co2 Co4 2.468773 1_565
Co2 Co8 2.468892 1_555
Co2 Ga2 2.564749 1_555
Co2 Ga2 2.564749 1_455
Co2 Ga5 2.564793 1_455
Co2 Ga5 2.564793 1_555
Co2 Dy1 3.223977 1_565
Co2 Dy1 3.223977 1_465
Co2 Dy2 3.224480 1_455
Co2 Dy2 3.224480 1_555
Co3 Ga2 2.417746 1_445
Co3 Ga2 2.417746 1_545
Co3 Ga4 2.417753 1_555
Co3 Ga4 2.417753 1_455
Co3 Co7 2.840983 1_555
Co3 Co8 2.841278 1_545
Co3 Dy0 2.844612 1_555
Co3 Dy1 3.023675 1_455
Co3 Dy1 3.023675 1_555
Co4 Ga5 2.418253 1_445
Co4 Ga5 2.418253 1_545
Co4 Ga0 2.418923 1_556
Co4 Ga0 2.418923 1_456
Co4 Dy0 2.840006 1_556
Co4 Co6 2.840983 1_545
Co4 Co7 2.843821 1_556
Co4 Dy1 3.023342 1_555
Co4 Dy1 3.023342 1_455
Co5 Ga1 2.418411 1_555
Co5 Ga1 2.418411 1_455
Co5 Ga3 2.418717 1_456
Co5 Ga3 2.418717 1_556
Co5 Dy0 2.841261 1_566
Co5 Co6 2.841286 1_555
Co5 Co8 2.843401 1_556
Co5 Dy1 3.023706 1_455
Co5 Dy1 3.023706 1_555
Co6 Ga1 2.417752 1_555
Co6 Ga1 2.417752 1_455
Co6 Ga5 2.417753 1_555
Co6 Ga5 2.417753 1_455
Co6 Dy0 2.844612 1_566
Co6 Dy2 3.023675 1_555
Co6 Dy2 3.023675 1_455
Co7 Ga4 2.418253 1_555
Co7 Ga4 2.418253 1_455
Co7 Ga0 2.418924 1_455
Co7 Ga0 2.418924 1_555
Co7 Dy0 2.839998 1_555
Co7 Dy2 3.023348 1_455
Co7 Dy2 3.023348 1_555
Co8 Ga2 2.418411 1_455
Co8 Ga2 2.418411 1_555
Co8 Ga3 2.418717 1_555
Co8 Ga3 2.418717 1_455
Co8 Dy0 2.841261 1_565
Co8 Dy2 3.023706 1_555
Co8 Dy2 3.023706 1_455
