# generated using pymatgen
data_Mg6Si5
_symmetry_space_group_name_H-M   'P 1'
_cell_length_a   4.50619300
_cell_length_b   6.90253063
_cell_length_c   14.19541718
_cell_angle_alpha   89.45941984
_cell_angle_beta   96.71464358
_cell_angle_gamma   98.26595149
_symmetry_Int_Tables_number   1
_chemical_formula_structural   Mg6Si5
_chemical_formula_sum   'Mg12 Si10'
_cell_volume   433.93989111
_cell_formula_units_Z   2
loop_
 _symmetry_equiv_pos_site_id
 _symmetry_equiv_pos_as_xyz
  1  'x, y, z'
loop_
 _atom_site_type_symbol
 _atom_site_label
 _atom_site_symmetry_multiplicity
 _atom_site_fract_x
 _atom_site_fract_y
 _atom_site_fract_z
 _atom_site_occupancy
  Mg  Mg0  1  0.94579800  0.69937200  0.02756600  1
  Mg  Mg1  1  0.71806300  0.67494200  0.49324300  1
  Mg  Mg2  1  0.13528100  0.47997200  0.34981600  1
  Mg  Mg3  1  0.32824200  0.82016800  0.64506300  1
  Mg  Mg4  1  0.15147700  0.14513600  0.78266400  1
  Mg  Mg5  1  0.52151900  0.49221600  0.16819800  1
  Mg  Mg6  1  0.20293900  0.97730200  0.41863600  1
  Mg  Mg7  1  0.19747200  0.38531000  0.57696200  1
  Mg  Mg8  1  0.62419200  0.93392000  0.88328100  1
  Mg  Mg9  1  0.57162500  0.96803600  0.11384300  1
  Mg  Mg10  1  0.11449400  0.19810400  0.01478000  1
  Mg  Mg11  1  0.74634600  0.39901200  0.86369100  1
  Si  Si0  1  0.79119200  0.04470700  0.55990900  1
  Si  Si1  1  0.65556200  0.29309200  0.44777700  1
  Si  Si2  1  0.12233800  0.16171000  0.21384100  1
  Si  Si3  1  0.33927900  0.55517700  0.94037800  1
  Si  Si4  1  0.79551700  0.57092300  0.67743900  1
  Si  Si5  1  0.62478500  0.79430800  0.30722000  1
  Si  Si6  1  0.06532100  0.78968600  0.21686800  1
  Si  Si7  1  0.64375000  0.21764500  0.69258600  1
  Si  Si8  1  0.06108300  0.74936600  0.81724600  1
  Si  Si9  1  0.64715500  0.15358500  0.29263100  1
loop_
_geom_bond_atom_site_label_1
_geom_bond_atom_site_label_2
_geom_bond_distance
_geom_bond_site_symmetry_2
Mg0 Si3 2.590411 1_654
Mg0 Si6 2.737969 1_655
Mg0 Si3 2.905563 1_554
Mg0 Mg9 3.034264 1_555
Mg0 Si8 3.097477 1_654
Mg0 Mg9 3.259353 1_655
Mg1 Si1 2.686838 1_555
Mg1 Si0 2.692451 1_565
Mg1 Si4 2.701372 1_555
Mg1 Si5 2.761821 1_555
Mg1 Mg6 3.072399 1_655
Mg2 Si1 2.852722 1_455
Mg2 Si6 2.865286 1_555
Mg2 Si2 2.927797 1_555
Mg2 Si9 2.960539 1_455
Mg2 Si5 2.974869 1_555
Mg2 Si1 3.027816 1_555
Mg3 Si0 2.799999 1_565
Mg3 Si4 2.826541 1_455
Mg3 Si8 2.856343 1_555
Mg3 Si4 2.899165 1_555
Mg3 Si7 2.948358 1_565
Mg3 Si0 3.174750 1_465
Mg4 Si7 2.598684 1_455
Mg4 Si7 2.671762 1_555
Mg4 Si8 2.751584 1_545
Mg5 Si2 2.815068 1_555
Mg5 Si5 2.836035 1_555
Mg5 Si6 2.980318 1_655
Mg5 Si9 2.995469 1_555
Mg5 Si6 3.239122 1_555
Mg5 Mg9 3.348591 1_555
Mg6 Si1 2.761123 1_565
Mg6 Si9 2.963577 1_565
Mg6 Si0 2.969297 1_465
Mg6 Si5 3.002046 1_455
Mg6 Si5 3.023505 1_555
Mg6 Si0 3.112027 1_565
Mg6 Si6 3.112701 1_555
Mg6 Si2 3.165416 1_565
Mg7 Si0 2.758104 1_455
Mg7 Si7 2.817624 1_555
Mg7 Si1 2.873870 1_455
Mg7 Si4 2.874454 1_455
Mg7 Si4 3.013503 1_555
Mg7 Si1 3.051933 1_555
Mg8 Si8 2.734436 1_555
Mg8 Si8 2.748191 1_655
Mg8 Si3 2.894481 1_555
Mg8 Mg9 3.321969 1_556
Mg9 Si9 2.816286 1_565
Mg9 Si2 2.866830 1_665
Mg9 Si6 2.931944 1_655
Mg9 Si6 2.966200 1_555
Mg9 Si5 2.982864 1_555
Mg9 Si2 3.063847 1_565
Mg10 Si3 2.774796 1_554
Mg10 Si2 2.831085 1_555
Mg10 Mg9 2.993954 1_545
Mg10 Mg9 3.182603 1_445
Mg11 Si3 2.601804 1_555
Mg11 Si7 2.703502 1_555
Mg11 Si8 2.738039 1_655
Mg11 Si3 2.828379 1_655
Mg11 Si4 2.906836 1_555
Si0 Si1 2.422601 1_555
Si0 Si7 2.444725 1_555
Si1 Si9 2.406061 1_555
Si2 Si9 2.503073 1_555
Si2 Si9 2.522587 1_455
Si2 Si6 2.544169 1_545
Si3 Si8 2.519903 1_555
Si4 Si8 2.440247 1_655
Si4 Si7 2.450563 1_555
Si5 Si9 2.475150 1_565
Si5 Si6 2.490223 1_655
Si5 Si6 2.687611 1_555
