# generated using pymatgen
data_CoNiSb6
_symmetry_space_group_name_H-M   'P 1'
_cell_length_a   7.92611876
_cell_length_b   7.92611876
_cell_length_c   9.16181319
_cell_angle_alpha   54.84821793
_cell_angle_beta   54.84821793
_cell_angle_gamma   70.61647251
_symmetry_Int_Tables_number   1
_chemical_formula_structural   CoNiSb6
_chemical_formula_sum   'Co2 Ni2 Sb12'
_cell_volume   384.78296082
_cell_formula_units_Z   2
loop_
 _symmetry_equiv_pos_site_id
 _symmetry_equiv_pos_as_xyz
  1  'x, y, z'
loop_
 _atom_site_type_symbol
 _atom_site_label
 _atom_site_symmetry_multiplicity
 _atom_site_fract_x
 _atom_site_fract_y
 _atom_site_fract_z
 _atom_site_occupancy
  Co  Co0  1  0.50000000  0.00000000  0.50000000  1
  Co  Co1  1  0.00000000  0.50000000  0.50000000  1
  Ni  Ni0  1  0.00000000  0.50000000  0.00000000  1
  Ni  Ni1  1  0.50000000  0.00000000  0.00000000  1
  Sb  Sb0  1  0.66691000  0.66691000  0.49299000  1
  Sb  Sb1  1  0.33309000  0.33309000  0.50701000  1
  Sb  Sb2  1  0.66385400  0.66385400  0.17739300  1
  Sb  Sb3  1  0.33614600  0.33614600  0.82260700  1
  Sb  Sb4  1  0.16218300  0.84340500  0.66257900  1
  Sb  Sb5  1  0.83781700  0.15659500  0.33742100  1
  Sb  Sb6  1  0.84340500  0.16218300  0.66257900  1
  Sb  Sb7  1  0.15659500  0.83781700  0.33742100  1
  Sb  Sb8  1  0.82478600  0.49393000  0.83780100  1
  Sb  Sb9  1  0.17521400  0.50607000  0.16219900  1
  Sb  Sb10  1  0.50607000  0.17521400  0.16219900  1
  Sb  Sb11  1  0.49393000  0.82478600  0.83780100  1
loop_
_geom_bond_atom_site_label_1
_geom_bond_atom_site_label_2
_geom_bond_distance
_geom_bond_site_symmetry_2
Co0 Sb5 2.532451 1_555
Co0 Sb4 2.532451 1_545
Co0 Sb11 2.536325 1_545
Co0 Sb10 2.536325 1_555
Co0 Sb1 2.550198 1_555
Co0 Sb0 2.550198 1_545
Co1 Sb6 2.532451 1_455
Co1 Sb7 2.532451 1_555
Co1 Sb9 2.536325 1_555
Co1 Sb8 2.536325 1_455
Co1 Sb1 2.550198 1_555
Co1 Sb0 2.550198 1_455
Ni0 Sb2 2.564034 1_455
Ni0 Sb3 2.564034 1_554
Ni0 Sb8 2.577279 1_454
Ni0 Sb9 2.577279 1_555
Ni0 Sb5 2.583652 1_455
Ni0 Sb4 2.583652 1_554
Ni1 Sb2 2.564034 1_545
Ni1 Sb3 2.564034 1_554
Ni1 Sb11 2.577279 1_544
Ni1 Sb10 2.577279 1_555
Ni1 Sb6 2.583652 1_554
Ni1 Sb7 2.583652 1_545
