# generated using pymatgen
data_LaAl33O51
_symmetry_space_group_name_H-M   'P 1'
_cell_length_a   9.80311158
_cell_length_b   9.80311158
_cell_length_c   11.80250334
_cell_angle_alpha   82.01394646
_cell_angle_beta   82.01394646
_cell_angle_gamma   120.11871400
_symmetry_Int_Tables_number   1
_chemical_formula_structural   LaAl33O51
_chemical_formula_sum   'La1 Al33 O51'
_cell_volume   942.31973298
_cell_formula_units_Z   1
loop_
 _symmetry_equiv_pos_site_id
 _symmetry_equiv_pos_as_xyz
  1  'x, y, z'
loop_
 _atom_site_type_symbol
 _atom_site_label
 _atom_site_symmetry_multiplicity
 _atom_site_fract_x
 _atom_site_fract_y
 _atom_site_fract_z
 _atom_site_occupancy
  La  La0  1  0.00000000  0.00000000  0.50000000  1
  Al  Al0  1  0.66577000  0.33423000  0.00000000  1
  Al  Al1  1  0.57017700  0.23859500  0.78409800  1
  Al  Al2  1  0.24054700  0.07220800  0.78316800  1
  Al  Al3  1  0.42742900  0.26202300  0.21553200  1
  Al  Al4  1  0.00000000  0.00000000  0.00000000  1
  Al  Al5  1  0.11829400  0.78097300  0.64978900  1
  Al  Al6  1  0.01768200  0.68286400  0.95032400  1
  Al  Al7  1  0.31713600  0.98231800  0.04967600  1
  Al  Al8  1  0.21902700  0.88170600  0.35021100  1
  Al  Al9  1  0.07220800  0.24054700  0.78316800  1
  Al  Al10  1  0.09985900  0.09985900  0.20510700  1
  Al  Al11  1  0.90014100  0.90014100  0.79489300  1
  Al  Al12  1  0.92779200  0.75945300  0.21683200  1
  Al  Al13  1  0.98231800  0.31713600  0.04967600  1
  Al  Al14  1  0.78097300  0.11829400  0.64978900  1
  Al  Al15  1  0.88170600  0.21902700  0.35021100  1
  Al  Al16  1  0.68286400  0.01768200  0.95032400  1
  Al  Al17  1  0.73797700  0.57257100  0.78446800  1
  Al  Al18  1  0.57257100  0.73797700  0.78446800  1
  Al  Al19  1  0.76140500  0.42982300  0.21590200  1
  Al  Al20  1  0.75945300  0.92779200  0.21683200  1
  Al  Al21  1  0.59533900  0.09432200  0.21478400  1
  Al  Al22  1  0.54792000  0.54792000  0.35273900  1
  Al  Al23  1  0.65027200  0.65027200  0.05268600  1
  Al  Al24  1  0.34972800  0.34972800  0.94731400  1
  Al  Al25  1  0.33423000  0.66577000  0.00000000  1
  Al  Al26  1  0.45208000  0.45208000  0.64726100  1
  Al  Al27  1  0.40466100  0.90567800  0.78521600  1
  Al  Al28  1  0.42982300  0.76140500  0.21590200  1
  Al  Al29  1  0.23859500  0.57017700  0.78409800  1
  Al  Al30  1  0.26202300  0.42742900  0.21553200  1
  Al  Al31  1  0.90567800  0.40466100  0.78521600  1
  Al  Al32  1  0.09432200  0.59533900  0.21478400  1
  O  O0  1  0.57102000  0.23775500  0.28350500  1
  O  O1  1  0.36931600  0.03523400  0.88888100  1
  O  O2  1  0.42844400  0.26231500  0.71203500  1
  O  O3  1  0.47264900  0.14222600  0.10146800  1
  O  O4  1  0.26302800  0.92937100  0.71012000  1
  O  O5  1  0.18703300  0.18703300  0.89867100  1
  O  O6  1  0.14266300  0.85733700  0.50000000  1
  O  O7  1  0.03181600  0.87596600  0.89931800  1
  O  O8  1  0.09172300  0.09172300  0.70887000  1
  O  O9  1  0.22820000  0.07042800  0.29770200  1
  O  O10  1  0.29423700  0.29423700  0.11021100  1
  O  O11  1  0.87596600  0.03181600  0.89931800  1
  O  O12  1  0.92937100  0.26302800  0.71012000  1
  O  O13  1  0.07042800  0.22820000  0.29770200  1
  O  O14  1  0.07062900  0.73697200  0.28988000  1
  O  O15  1  0.92957200  0.77180000  0.70229800  1
  O  O16  1  0.85777400  0.52735100  0.89853200  1
  O  O17  1  0.12403400  0.96818400  0.10068200  1
  O  O18  1  0.85733700  0.14266300  0.50000000  1
  O  O19  1  0.69861200  0.20966200  0.90118800  1
  O  O20  1  0.96818400  0.12403400  0.10068200  1
  O  O21  1  0.70576300  0.70576300  0.88978900  1
  O  O22  1  0.77180000  0.92957200  0.70229800  1
  O  O23  1  0.76224500  0.42898000  0.71649500  1
  O  O24  1  0.96476600  0.63068400  0.11111900  1
  O  O25  1  0.90827700  0.90827700  0.29113000  1
  O  O26  1  0.54246700  0.36651700  0.90086700  1
  O  O27  1  0.81296700  0.81296700  0.10132900  1
  O  O28  1  0.59986500  0.59986500  0.71000000  1
  O  O29  1  0.73768500  0.57155600  0.28796500  1
  O  O30  1  0.73697200  0.07062900  0.28988000  1
  O  O31  1  0.59510600  0.09761300  0.70806100  1
  O  O32  1  0.52735100  0.85777400  0.89853200  1
  O  O33  1  0.79033800  0.30138800  0.09881200  1
  O  O34  1  0.50000000  0.50000000  0.50000000  1
  O  O35  1  0.63348300  0.45753300  0.09913300  1
  O  O36  1  0.36651700  0.54246700  0.90086700  1
  O  O37  1  0.63068400  0.96476600  0.11111900  1
  O  O38  1  0.57155600  0.73768500  0.28796500  1
  O  O39  1  0.42898000  0.76224500  0.71649500  1
  O  O40  1  0.20966200  0.69861200  0.90118800  1
  O  O41  1  0.40489400  0.90238700  0.29193900  1
  O  O42  1  0.40013500  0.40013500  0.29000000  1
  O  O43  1  0.26231500  0.42844400  0.71203500  1
  O  O44  1  0.45753300  0.63348300  0.09913300  1
  O  O45  1  0.30138800  0.79033800  0.09881200  1
  O  O46  1  0.03523400  0.36931600  0.88888100  1
  O  O47  1  0.23775500  0.57102000  0.28350500  1
  O  O48  1  0.09761300  0.59510600  0.70806100  1
  O  O49  1  0.14222600  0.47264900  0.10146800  1
  O  O50  1  0.90238700  0.40489400  0.29193900  1
loop_
_geom_bond_atom_site_label_1
_geom_bond_atom_site_label_2
_geom_bond_distance
_geom_bond_site_symmetry_2
La0 O18 2.423792 1_455
La0 O6 2.423792 1_545
La0 O22 2.773023 1_445
La0 O15 2.773023 1_445
La0 O9 2.773023 1_555
La0 O13 2.773023 1_555
La0 O25 2.848615 1_445
La0 O8 2.848615 1_555
Al0 O26 1.898483 1_554
Al0 O35 1.898483 1_555
Al0 O33 1.908118 1_555
Al0 O19 1.908118 1_554
Al0 O16 1.930966 1_554
Al0 O3 1.930966 1_555
Al1 O2 1.818134 1_555
Al1 O23 1.818566 1_555
Al1 O31 1.843326 1_555
Al1 O1 2.019831 1_555
Al1 O26 2.064898 1_555
Al1 O19 2.075678 1_555
Al2 O2 1.805915 1_555
Al2 O4 1.828909 1_545
Al2 O8 1.876975 1_555
Al2 O1 2.013140 1_555
Al2 O5 2.054498 1_555
Al2 O7 2.074699 1_545
Al3 O0 1.810659 1_555
Al3 O42 1.818259 1_555
Al3 O9 1.889136 1_555
Al3 O10 2.026196 1_555
Al3 O3 2.045483 1_555
Al3 O35 2.062257 1_555
Al4 O5 1.887160 1_554
Al4 O27 1.887160 1_445
Al4 O20 1.914913 1_455
Al4 O17 1.914913 1_545
Al4 O11 1.914913 1_454
Al4 O7 1.914913 1_544
Al5 O48 1.753965 1_555
Al5 O6 1.754517 1_555
Al5 O4 1.770183 1_555
Al5 O15 1.820401 1_455
Al6 O16 1.811618 1_455
Al6 O40 1.811726 1_555
Al6 O24 1.822840 1_456
Al6 O7 1.833574 1_555
Al7 O3 1.811618 1_565
Al7 O45 1.811726 1_555
Al7 O1 1.822840 1_564
Al7 O17 1.833574 1_555
Al8 O41 1.753965 1_555
Al8 O6 1.754517 1_555
Al8 O14 1.770183 1_555
Al8 O9 1.820401 1_565
Al9 O43 1.805915 1_555
Al9 O12 1.828909 1_455
Al9 O8 1.876975 1_555
Al9 O46 2.013140 1_555
Al9 O5 2.054498 1_555
Al9 O11 2.074699 1_455
Al10 O25 1.867016 1_445
Al10 O9 1.875959 1_555
Al10 O13 1.875959 1_555
Al10 O10 1.919983 1_555
Al10 O17 1.977195 1_545
Al10 O20 1.977195 1_455
Al11 O8 1.867016 1_665
Al11 O15 1.875959 1_555
Al11 O22 1.875959 1_555
Al11 O21 1.919983 1_555
Al11 O11 1.977195 1_565
Al11 O7 1.977195 1_655
Al12 O29 1.805915 1_555
Al12 O14 1.828909 1_655
Al12 O25 1.876975 1_555
Al12 O24 2.013140 1_555
Al12 O27 2.054498 1_555
Al12 O17 2.074699 1_655
Al13 O49 1.811618 1_655
Al13 O33 1.811726 1_555
Al13 O46 1.822840 1_654
Al13 O20 1.833574 1_555
Al14 O31 1.753965 1_555
Al14 O18 1.754517 1_555
Al14 O12 1.770183 1_555
Al14 O22 1.820401 1_545
Al15 O50 1.753965 1_555
Al15 O18 1.754517 1_555
Al15 O30 1.770183 1_555
Al15 O13 1.820401 1_655
Al16 O32 1.811618 1_545
Al16 O19 1.811726 1_555
Al16 O37 1.822840 1_546
Al16 O11 1.833574 1_555
Al17 O23 1.810659 1_555
Al17 O28 1.818259 1_555
Al17 O15 1.889136 1_555
Al17 O21 2.026196 1_555
Al17 O16 2.045483 1_555
Al17 O26 2.062257 1_555
Al18 O39 1.810659 1_555
Al18 O28 1.818259 1_555
Al18 O22 1.889136 1_555
Al18 O21 2.026196 1_555
Al18 O32 2.045483 1_555
Al18 O36 2.062257 1_555
Al19 O29 1.818134 1_555
Al19 O0 1.818566 1_555
Al19 O50 1.843326 1_555
Al19 O24 2.019831 1_555
Al19 O35 2.064898 1_555
Al19 O33 2.075678 1_555
Al20 O38 1.805915 1_555
Al20 O30 1.828909 1_565
Al20 O25 1.876975 1_555
Al20 O37 2.013140 1_555
Al20 O27 2.054498 1_555
Al20 O20 2.074699 1_565
Al21 O0 1.814209 1_555
Al21 O30 1.837300 1_555
Al21 O41 1.838790 1_545
Al21 O37 1.996416 1_545
Al21 O33 2.062729 1_555
Al21 O3 2.072459 1_555
Al22 O34 1.669420 1_555
Al22 O38 1.794946 1_555
Al22 O29 1.794946 1_555
Al22 O42 1.798842 1_555
Al23 O44 1.809041 1_555
Al23 O35 1.809041 1_555
Al23 O27 1.836599 1_555
Al23 O21 1.846620 1_554
Al24 O26 1.809041 1_555
Al24 O36 1.809041 1_555
Al24 O5 1.836599 1_555
Al24 O10 1.846620 1_556
Al25 O36 1.898483 1_554
Al25 O44 1.898483 1_555
Al25 O45 1.908118 1_555
Al25 O40 1.908118 1_554
Al25 O49 1.930966 1_555
Al25 O32 1.930966 1_554
Al26 O34 1.669420 1_555
Al26 O43 1.794946 1_555
Al26 O2 1.794946 1_555
Al26 O28 1.798842 1_555
Al27 O39 1.814209 1_555
Al27 O4 1.837300 1_555
Al27 O31 1.838790 1_565
Al27 O1 1.996416 1_565
Al27 O40 2.062729 1_555
Al27 O32 2.072459 1_555
Al28 O38 1.818134 1_555
Al28 O47 1.818566 1_555
Al28 O41 1.843326 1_555
Al28 O37 2.019831 1_555
Al28 O44 2.064898 1_555
Al28 O45 2.075678 1_555
Al29 O43 1.818134 1_555
Al29 O39 1.818566 1_555
Al29 O48 1.843326 1_555
Al29 O46 2.019831 1_555
Al29 O36 2.064898 1_555
Al29 O40 2.075678 1_555
Al30 O47 1.810659 1_555
Al30 O42 1.818259 1_555
Al30 O13 1.889136 1_555
Al30 O10 2.026196 1_555
Al30 O49 2.045483 1_555
Al30 O44 2.062257 1_555
Al31 O23 1.814209 1_555
Al31 O12 1.837300 1_555
Al31 O48 1.838790 1_655
Al31 O46 1.996416 1_655
Al31 O19 2.062729 1_555
Al31 O16 2.072459 1_555
Al32 O47 1.814209 1_555
Al32 O14 1.837300 1_555
Al32 O50 1.838790 1_455
Al32 O24 1.996416 1_455
Al32 O45 2.062729 1_555
Al32 O49 2.072459 1_555
