# generated using pymatgen
data_Y3Cu11Si4
_symmetry_space_group_name_H-M   'P 1'
_cell_length_a   8.43765785
_cell_length_b   8.43765785
_cell_length_c   8.60946800
_cell_angle_alpha   90.00000000
_cell_angle_beta   90.00000000
_cell_angle_gamma   119.99999880
_symmetry_Int_Tables_number   1
_chemical_formula_structural   Y3Cu11Si4
_chemical_formula_sum   'Y6 Cu22 Si8'
_cell_volume   530.82427350
_cell_formula_units_Z   2
loop_
 _symmetry_equiv_pos_site_id
 _symmetry_equiv_pos_as_xyz
  1  'x, y, z'
loop_
 _atom_site_type_symbol
 _atom_site_label
 _atom_site_symmetry_multiplicity
 _atom_site_fract_x
 _atom_site_fract_y
 _atom_site_fract_z
 _atom_site_occupancy
  Y  Y0  1  0.80112700  0.19887300  0.75000000  1
  Y  Y1  1  0.19887300  0.80112700  0.25000000  1
  Y  Y2  1  0.39774700  0.19887300  0.75000000  1
  Y  Y3  1  0.60225300  0.80112700  0.25000000  1
  Y  Y4  1  0.80112700  0.60225300  0.75000000  1
  Y  Y5  1  0.19887300  0.39774700  0.25000000  1
  Cu  Cu0  1  0.85054600  0.14945400  0.40817800  1
  Cu  Cu1  1  0.14945400  0.85054600  0.59182200  1
  Cu  Cu2  1  0.29890700  0.14945400  0.40817800  1
  Cu  Cu3  1  0.14945400  0.85054600  0.90817800  1
  Cu  Cu4  1  0.70109300  0.85054600  0.59182200  1
  Cu  Cu5  1  0.85054600  0.14945400  0.09182200  1
  Cu  Cu6  1  0.85054600  0.70109300  0.40817800  1
  Cu  Cu7  1  0.70109300  0.85054600  0.90817800  1
  Cu  Cu8  1  0.14945400  0.29890700  0.59182200  1
  Cu  Cu9  1  0.29890700  0.14945400  0.09182200  1
  Cu  Cu10  1  0.14945400  0.29890700  0.90817800  1
  Cu  Cu11  1  0.85054600  0.70109300  0.09182200  1
  Cu  Cu12  1  0.43501100  0.56498900  0.75000000  1
  Cu  Cu13  1  0.56498900  0.43501100  0.25000000  1
  Cu  Cu14  1  0.12997900  0.56498900  0.75000000  1
  Cu  Cu15  1  0.87002100  0.43501100  0.25000000  1
  Cu  Cu16  1  0.43501100  0.87002100  0.75000000  1
  Cu  Cu17  1  0.56498900  0.12997900  0.25000000  1
  Cu  Cu18  1  0.66666700  0.33333300  0.01266600  1
  Cu  Cu19  1  0.33333300  0.66666700  0.98733400  1
  Cu  Cu20  1  0.33333300  0.66666700  0.51266600  1
  Cu  Cu21  1  0.66666700  0.33333300  0.48733400  1
  Si  Si0  1  0.50000000  0.50000000  0.00000000  1
  Si  Si1  1  0.00000000  0.50000000  0.00000000  1
  Si  Si2  1  0.50000000  0.50000000  0.50000000  1
  Si  Si3  1  0.50000000  0.00000000  0.00000000  1
  Si  Si4  1  0.00000000  0.50000000  0.50000000  1
  Si  Si5  1  0.50000000  0.00000000  0.50000000  1
  Si  Si6  1  0.00000000  0.00000000  0.75000000  1
  Si  Si7  1  0.00000000  0.00000000  0.25000000  1
loop_
_geom_bond_atom_site_label_1
_geom_bond_atom_site_label_2
_geom_bond_distance
_geom_bond_site_symmetry_2
Cu0 Si7 2.573957 1_655
Cu0 Si4 2.689571 1_655
Cu0 Si5 2.689571 1_555
Cu0 Cu8 2.696383 1_655
Cu0 Cu4 2.696383 1_545
Cu0 Cu15 2.700188 1_555
Cu0 Cu17 2.700188 1_555
Cu0 Cu5 2.723657 1_555
Cu0 Cu21 2.772357 1_555
Cu0 Y3 2.953705 1_545
Cu0 Y5 2.953705 1_655
Cu0 Y0 3.030233 1_555
Cu1 Si6 2.573957 1_565
Cu1 Si4 2.689571 1_555
Cu1 Si5 2.689571 1_565
Cu1 Cu6 2.696383 1_455
Cu1 Cu2 2.696383 1_565
Cu1 Cu16 2.700188 1_555
Cu1 Cu14 2.700188 1_555
Cu1 Cu3 2.723657 1_555
Cu1 Cu20 2.772357 1_555
Cu1 Y4 2.953705 1_455
Cu1 Y2 2.953705 1_565
Cu1 Y1 3.030233 1_555
Cu2 Si7 2.573951 1_555
Cu2 Si2 2.689571 1_555
Cu2 Si5 2.689578 1_555
Cu2 Cu8 2.696372 1_555
Cu2 Cu9 2.723657 1_555
Cu2 Cu21 2.772371 1_555
Cu2 Y5 2.953705 1_555
Cu2 Y1 2.953705 1_545
Cu2 Y2 3.030236 1_555
Cu3 Si6 2.573957 1_565
Cu3 Si3 2.689571 1_566
Cu3 Si1 2.689571 1_556
Cu3 Cu9 2.696383 1_566
Cu3 Y4 2.953705 1_455
Cu3 Y2 2.953705 1_565
Cu3 Y1 3.030233 1_556
Cu4 Si6 2.573951 1_665
Cu4 Si2 2.689571 1_555
Cu4 Si5 2.689578 1_565
Cu4 Cu6 2.696372 1_555
Cu4 Cu7 2.723657 1_555
Cu4 Y4 2.953705 1_555
Cu4 Y0 2.953705 1_565
Cu4 Y3 3.030236 1_555
Cu5 Si7 2.573957 1_655
Cu5 Si1 2.689571 1_655
Cu5 Si3 2.689571 1_555
Cu5 Cu7 2.696383 1_544
Cu5 Y3 2.953705 1_545
Cu5 Y5 2.953705 1_655
Cu5 Y0 3.030233 1_554
Cu6 Si7 2.573951 1_665
Cu6 Si2 2.689571 1_555
Cu6 Si4 2.689578 1_655
Cu6 Y3 2.953705 1_555
Cu6 Y1 2.953705 1_655
Cu6 Y4 3.030236 1_555
Cu7 Si6 2.573951 1_665
Cu7 Si0 2.689571 1_556
Cu7 Si3 2.689578 1_566
Cu7 Y4 2.953705 1_555
Cu7 Y0 2.953705 1_565
Cu7 Y3 3.030236 1_556
Cu8 Si6 2.573951 1_555
Cu8 Si2 2.689571 1_555
Cu8 Si4 2.689578 1_555
Cu8 Y2 2.953705 1_555
Cu8 Y0 2.953705 1_455
Cu8 Y5 3.030236 1_555
Cu9 Si7 2.573951 1_555
Cu9 Si0 2.689571 1_555
Cu9 Si3 2.689578 1_555
Cu9 Y5 2.953705 1_555
Cu9 Y1 2.953705 1_545
Cu9 Y2 3.030236 1_554
Cu10 Si6 2.573951 1_555
Cu10 Si0 2.689571 1_556
Cu10 Si1 2.689578 1_556
Cu10 Cu9 2.696372 1_556
Cu10 Cu5 2.696383 1_456
Cu10 Cu14 2.700188 1_555
Cu10 Cu12 2.700188 1_555
Cu10 Cu8 2.723657 1_555
Cu10 Cu19 2.772371 1_555
Cu10 Y2 2.953705 1_555
Cu10 Y0 2.953705 1_455
Cu10 Y5 3.030236 1_556
Cu11 Si7 2.573951 1_665
Cu11 Si0 2.689571 1_555
Cu11 Si1 2.689578 1_655
Cu11 Cu7 2.696372 1_554
Cu11 Cu3 2.696383 1_654
Cu11 Cu15 2.700188 1_555
Cu11 Cu13 2.700188 1_555
Cu11 Cu6 2.723657 1_555
Cu11 Cu18 2.772371 1_555
Cu11 Y3 2.953705 1_555
Cu11 Y1 2.953705 1_655
Cu11 Y4 3.030236 1_554
Cu12 Si0 2.352608 1_556
Cu12 Si2 2.352608 1_555
Cu12 Cu19 2.526511 1_555
Cu12 Cu20 2.526511 1_555
Cu12 Cu14 2.573756 1_555
Cu12 Cu16 2.573756 1_555
Cu12 Cu8 2.700188 1_555
Cu12 Cu7 2.700188 1_555
Cu12 Cu4 2.700188 1_555
Cu12 Y4 2.944568 1_555
Cu12 Y2 2.944568 1_555
Cu13 Si2 2.352608 1_555
Cu13 Si0 2.352608 1_555
Cu13 Cu21 2.526511 1_555
Cu13 Cu18 2.526511 1_555
Cu13 Cu17 2.573756 1_555
Cu13 Cu15 2.573756 1_555
Cu13 Cu9 2.700188 1_555
Cu13 Cu2 2.700188 1_555
Cu13 Cu6 2.700188 1_555
Cu13 Y5 2.944568 1_555
Cu13 Y3 2.944568 1_555
Cu14 Si4 2.352611 1_555
Cu14 Si1 2.352611 1_556
Cu14 Cu19 2.526502 1_555
Cu14 Cu20 2.526502 1_555
Cu14 Cu16 2.573756 1_555
Cu14 Cu8 2.700188 1_555
Cu14 Cu3 2.700188 1_555
Cu14 Y4 2.944568 1_455
Cu14 Y0 2.944568 1_455
Cu15 Si4 2.352611 1_655
Cu15 Si1 2.352611 1_655
Cu15 Cu18 2.526502 1_555
Cu15 Cu21 2.526502 1_555
Cu15 Cu17 2.573756 1_555
Cu15 Cu6 2.700188 1_555
Cu15 Cu5 2.700188 1_555
Cu15 Y5 2.944568 1_655
Cu15 Y1 2.944568 1_655
Cu16 Si5 2.352611 1_565
Cu16 Si3 2.352611 1_566
Cu16 Cu19 2.526502 1_555
Cu16 Cu20 2.526502 1_555
Cu16 Cu4 2.700188 1_555
Cu16 Cu7 2.700188 1_555
Cu16 Cu3 2.700188 1_555
Cu16 Y2 2.944568 1_565
Cu16 Y0 2.944568 1_565
Cu17 Si3 2.352611 1_555
Cu17 Si5 2.352611 1_555
Cu17 Cu18 2.526502 1_555
Cu17 Cu21 2.526502 1_555
Cu17 Cu2 2.700188 1_555
Cu17 Cu9 2.700188 1_555
Cu17 Cu5 2.700188 1_555
Cu17 Y3 2.944568 1_545
Cu17 Y1 2.944568 1_545
Cu18 Si1 2.438179 1_655
Cu18 Si3 2.438179 1_555
Cu18 Si0 2.438187 1_555
Cu18 Cu5 2.772357 1_555
Cu18 Cu9 2.772371 1_555
Cu18 Y0 2.995906 1_554
Cu18 Y2 2.995906 1_554
Cu18 Y4 2.995906 1_554
Cu19 Si3 2.438179 1_566
Cu19 Si1 2.438179 1_556
Cu19 Si0 2.438187 1_556
Cu19 Cu3 2.772357 1_555
Cu19 Cu7 2.772371 1_555
Cu19 Y1 2.995906 1_556
Cu19 Y3 2.995906 1_556
Cu19 Y5 2.995906 1_556
Cu20 Si4 2.438179 1_555
Cu20 Si5 2.438179 1_565
Cu20 Si2 2.438187 1_555
Cu20 Cu4 2.772371 1_555
Cu20 Cu8 2.772371 1_555
Cu20 Y1 2.995906 1_555
Cu20 Y3 2.995906 1_555
Cu20 Y5 2.995906 1_555
Cu21 Si4 2.438179 1_655
Cu21 Si5 2.438179 1_555
Cu21 Si2 2.438187 1_555
Cu21 Cu6 2.772371 1_555
Cu21 Y0 2.995906 1_555
Cu21 Y2 2.995906 1_555
Cu21 Y4 2.995906 1_555
Si0 Y3 3.104934 1_555
Si0 Y5 3.104934 1_555
Si0 Y4 3.104934 1_554
Si0 Y2 3.104934 1_554
Si1 Y5 3.104929 1_555
Si1 Y4 3.104929 1_454
Si1 Y1 3.104933 1_555
Si1 Y0 3.104933 1_454
Si2 Y2 3.104934 1_555
Si2 Y3 3.104934 1_555
Si2 Y5 3.104934 1_555
Si2 Y4 3.104934 1_555
Si3 Y3 3.104929 1_545
Si3 Y2 3.104929 1_554
Si3 Y0 3.104933 1_554
Si3 Y1 3.104933 1_545
Si4 Y5 3.104929 1_555
Si4 Y4 3.104929 1_455
Si4 Y1 3.104933 1_555
Si4 Y0 3.104933 1_455
Si5 Y2 3.104929 1_555
Si5 Y3 3.104929 1_545
Si5 Y0 3.104933 1_555
Si5 Y1 3.104933 1_545
Si6 Y0 2.906420 1_455
Si6 Y4 2.906427 1_445
Si6 Y2 2.906427 1_555
Si7 Y1 2.906420 1_545
Si7 Y3 2.906427 1_445
Si7 Y5 2.906427 1_555
