# generated using pymatgen
data_Cs3Ac
_symmetry_space_group_name_H-M   'P 1'
_cell_length_a   7.75631227
_cell_length_b   7.75631227
_cell_length_c   7.75631227
_cell_angle_alpha   60.00000000
_cell_angle_beta   60.00000000
_cell_angle_gamma   60.00000000
_symmetry_Int_Tables_number   1
_chemical_formula_structural   Cs3Ac
_chemical_formula_sum   'Cs3 Ac1'
_cell_volume   329.95207047
_cell_formula_units_Z   1
loop_
 _symmetry_equiv_pos_site_id
 _symmetry_equiv_pos_as_xyz
  1  'x, y, z'
loop_
 _atom_site_type_symbol
 _atom_site_label
 _atom_site_symmetry_multiplicity
 _atom_site_fract_x
 _atom_site_fract_y
 _atom_site_fract_z
 _atom_site_occupancy
  Cs  Cs0  1  0.25000000  0.25000000  0.25000000  1
  Cs  Cs1  1  0.75000000  0.75000000  0.75000000  1
  Cs  Cs2  1  0.50000000  0.50000000  0.50000000  1
  Ac  Ac0  1  0.00000000  0.00000000  0.00000000  1
loop_
_geom_bond_atom_site_label_1
_geom_bond_atom_site_label_2
_geom_bond_distance
_geom_bond_site_symmetry_2
Cs0 Cs2 4.749752 1_455
Cs0 Cs2 4.749752 1_545
Cs0 Cs2 4.749752 1_555
Cs0 Cs2 4.749752 1_554
Cs1 Cs2 4.749752 1_565
Cs1 Cs2 4.749752 1_655
Cs1 Cs2 4.749752 1_555
Cs1 Cs2 4.749752 1_556
Ac0 Cs0 4.749752 1_555
Ac0 Cs1 4.749752 1_544
Ac0 Cs0 4.749752 1_545
Ac0 Cs1 4.749752 1_445
Ac0 Cs0 4.749752 1_554
Ac0 Cs0 4.749752 1_455
Ac0 Cs1 4.749752 1_454
Ac0 Cs1 4.749752 1_444
