# generated using pymatgen
data_Ba(SmSe2)2
_symmetry_space_group_name_H-M   'P 1'
_cell_length_a   4.28780392
_cell_length_b   12.91159495
_cell_length_c   15.40969549
_cell_angle_alpha   90.00000000
_cell_angle_beta   90.00000000
_cell_angle_gamma   90.00000000
_symmetry_Int_Tables_number   1
_chemical_formula_structural   Ba(SmSe2)2
_chemical_formula_sum   'Ba4 Sm8 Se16'
_cell_volume   853.11753205
_cell_formula_units_Z   4
loop_
 _symmetry_equiv_pos_site_id
 _symmetry_equiv_pos_as_xyz
  1  'x, y, z'
loop_
 _atom_site_type_symbol
 _atom_site_label
 _atom_site_symmetry_multiplicity
 _atom_site_fract_x
 _atom_site_fract_y
 _atom_site_fract_z
 _atom_site_occupancy
  Ba  Ba0  1  0.25000000  0.75758223  0.33725306  1
  Ba  Ba1  1  0.25000000  0.25758223  0.16274694  1
  Ba  Ba2  1  0.75000000  0.24241777  0.66274694  1
  Ba  Ba3  1  0.75000000  0.74241777  0.83725306  1
  Sm  Sm0  1  0.25000000  0.43109571  0.39171235  1
  Sm  Sm1  1  0.25000000  0.93109571  0.10828765  1
  Sm  Sm2  1  0.75000000  0.56890429  0.60828765  1
  Sm  Sm3  1  0.75000000  0.06890429  0.89171235  1
  Sm  Sm4  1  0.25000000  0.42123254  0.89880465  1
  Sm  Sm5  1  0.25000000  0.92123254  0.60119535  1
  Sm  Sm6  1  0.75000000  0.57876746  0.10119535  1
  Sm  Sm7  1  0.75000000  0.07876746  0.39880465  1
  Se  Se0  1  0.25000000  0.20773926  0.83101526  1
  Se  Se1  1  0.25000000  0.70773926  0.66898474  1
  Se  Se2  1  0.75000000  0.79226074  0.16898474  1
  Se  Se3  1  0.75000000  0.29226074  0.33101526  1
  Se  Se4  1  0.25000000  0.12870713  0.52429245  1
  Se  Se5  1  0.25000000  0.62870713  0.97570755  1
  Se  Se6  1  0.75000000  0.87129287  0.47570755  1
  Se  Se7  1  0.75000000  0.37129287  0.02429245  1
  Se  Se8  1  0.25000000  0.52256141  0.21726186  1
  Se  Se9  1  0.25000000  0.02256141  0.28273814  1
  Se  Se10  1  0.75000000  0.47743859  0.78273814  1
  Se  Se11  1  0.75000000  0.97743859  0.71726186  1
  Se  Se12  1  0.25000000  0.41688485  0.57881766  1
  Se  Se13  1  0.25000000  0.91688485  0.92118234  1
  Se  Se14  1  0.75000000  0.58311515  0.42118234  1
  Se  Se15  1  0.75000000  0.08311515  0.07881766  1
loop_
_geom_bond_atom_site_label_1
_geom_bond_atom_site_label_2
_geom_bond_distance
_geom_bond_site_symmetry_2
Ba0 Se6 3.362125 1_555
Ba0 Se6 3.362125 1_455
Ba0 Se14 3.368001 1_455
Ba0 Se14 3.368001 1_555
Ba0 Se2 3.394151 1_455
Ba0 Se2 3.394151 1_555
Ba0 Se9 3.522927 1_565
Ba0 Se8 3.553457 1_555
Ba1 Se7 3.362125 1_555
Ba1 Se7 3.362125 1_455
Ba1 Se15 3.368001 1_455
Ba1 Se15 3.368001 1_555
Ba1 Se3 3.394151 1_455
Ba1 Se3 3.394151 1_555
Ba1 Se8 3.522927 1_555
Ba1 Se9 3.553457 1_555
Ba2 Se4 3.362125 1_555
Ba2 Se4 3.362125 1_655
Ba2 Se12 3.368001 1_555
Ba2 Se12 3.368001 1_655
Ba2 Se0 3.394151 1_555
Ba2 Se0 3.394151 1_655
Ba2 Se11 3.522927 1_545
Ba2 Se10 3.553457 1_555
Ba3 Se5 3.362125 1_555
Ba3 Se5 3.362125 1_655
Ba3 Se13 3.368001 1_555
Ba3 Se13 3.368001 1_655
Ba3 Se1 3.394151 1_655
Ba3 Se1 3.394151 1_555
Ba3 Se10 3.522927 1_555
Ba3 Se11 3.553457 1_555
Se0 Sm3 2.946946 1_555
Se0 Sm3 2.946946 1_455
Se0 Sm4 2.947834 1_555
Se1 Sm2 2.946946 1_555
Se1 Sm2 2.946946 1_455
Se1 Sm5 2.947834 1_555
Se2 Sm1 2.946946 1_555
Se2 Sm1 2.946946 1_655
Se2 Sm6 2.947834 1_555
Se3 Sm0 2.946946 1_555
Se3 Sm0 2.946946 1_655
Se3 Sm7 2.947834 1_555
Se4 Sm5 2.929243 1_545
Se4 Sm7 2.958275 1_555
Se4 Sm7 2.958275 1_455
Se5 Sm4 2.929243 1_555
Se5 Sm6 2.958275 1_556
Se5 Sm6 2.958275 1_456
Se6 Sm7 2.929243 1_565
Se6 Sm5 2.958275 1_655
Se6 Sm5 2.958275 1_555
Se7 Sm6 2.929243 1_555
Se7 Sm4 2.958275 1_554
Se7 Sm4 2.958275 1_654
Se8 Sm6 2.884767 1_555
Se8 Sm6 2.884767 1_455
Se8 Sm0 2.936198 1_555
Se9 Sm7 2.884767 1_455
Se9 Sm7 2.884767 1_555
Se9 Sm1 2.936198 1_545
Se10 Sm4 2.884767 1_555
Se10 Sm4 2.884767 1_655
Se10 Sm2 2.936198 1_555
Se11 Sm5 2.884767 1_655
Se11 Sm5 2.884767 1_555
Se11 Sm3 2.936198 1_565
Se12 Sm0 2.889068 1_555
Se12 Sm2 2.941969 1_455
Se12 Sm2 2.941969 1_555
Se13 Sm1 2.889068 1_556
Se13 Sm3 2.941969 1_465
Se13 Sm3 2.941969 1_565
Se14 Sm2 2.889068 1_555
Se14 Sm0 2.941969 1_555
Se14 Sm0 2.941969 1_655
Se15 Sm3 2.889068 1_554
Se15 Sm1 2.941969 1_645
Se15 Sm1 2.941969 1_545
