# generated using pymatgen
data_Ca6Al3(Si4N9)2
_symmetry_space_group_name_H-M   'P 1'
_cell_length_a   7.58633200
_cell_length_b   7.58924522
_cell_length_c   7.64594635
_cell_angle_alpha   81.10779069
_cell_angle_beta   79.60528511
_cell_angle_gamma   80.13866198
_symmetry_Int_Tables_number   1
_chemical_formula_structural   Ca6Al3(Si4N9)2
_chemical_formula_sum   'Ca6 Al3 Si8 N18'
_cell_volume   423.10135493
_cell_formula_units_Z   1
loop_
 _symmetry_equiv_pos_site_id
 _symmetry_equiv_pos_as_xyz
  1  'x, y, z'
loop_
 _atom_site_type_symbol
 _atom_site_label
 _atom_site_symmetry_multiplicity
 _atom_site_fract_x
 _atom_site_fract_y
 _atom_site_fract_z
 _atom_site_occupancy
  Ca  Ca0  1  0.56746300  0.55956500  0.86088800  1
  Ca  Ca1  1  0.25498400  0.22307000  0.52279700  1
  Ca  Ca2  1  0.82401900  0.93293800  0.23631200  1
  Ca  Ca3  1  0.27934200  0.26744600  0.95512900  1
  Ca  Ca4  1  0.93728100  0.93897600  0.62319000  1
  Ca  Ca5  1  0.59505400  0.55267400  0.27729400  1
  Al  Al0  1  0.95588900  0.61375500  0.95334900  1
  Al  Al1  1  0.90716400  0.54557400  0.57042500  1
  Al  Al2  1  0.22444100  0.89147800  0.90875900  1
  Si  Si0  1  0.64109100  0.27349000  0.60874800  1
  Si  Si1  1  0.30578000  0.94044600  0.27996500  1
  Si  Si2  1  0.60966700  0.96117100  0.94158300  1
  Si  Si3  1  0.28525400  0.62615900  0.61038700  1
  Si  Si4  1  0.95698400  0.28537700  0.28081500  1
  Si  Si5  1  0.54344600  0.88936500  0.57045800  1
  Si  Si6  1  0.19542400  0.58696900  0.23308800  1
  Si  Si7  1  0.88905200  0.22710500  0.89797400  1
  N  N0  1  0.72569200  0.74643300  0.98349300  1
  N  N1  1  0.43139800  0.41863600  0.63140600  1
  N  N2  1  0.09370500  0.07649100  0.31859300  1
  N  N3  1  0.73892300  0.74380400  0.51514300  1
  N  N4  1  0.37871700  0.46665200  0.11690300  1
  N  N5  1  0.08858400  0.09846100  0.81167600  1
  N  N6  1  0.46287300  0.00024600  0.38446400  1
  N  N7  1  0.09170300  0.73027000  0.07051200  1
  N  N8  1  0.79547900  0.35660000  0.71518500  1
  N  N9  1  0.04634500  0.45107600  0.36671600  1
  N  N10  1  0.71391800  0.11631900  0.00415800  1
  N  N11  1  0.36776100  0.78232800  0.71065500  1
  N  N12  1  0.94503400  0.36563000  0.04908500  1
  N  N13  1  0.59408500  0.04768800  0.70529300  1
  N  N14  1  0.27522900  0.71138100  0.37728800  1
  N  N15  1  0.38298200  0.95527400  0.04680700  1
  N  N16  1  0.06397600  0.61137700  0.70984200  1
  N  N17  1  0.74432900  0.26344100  0.39298400  1
loop_
_geom_bond_atom_site_label_1
_geom_bond_atom_site_label_2
_geom_bond_distance
_geom_bond_site_symmetry_2
Ca0 N4 2.299332 1_556
Ca0 N8 2.351261 1_555
Ca0 N11 2.371317 1_555
Ca0 N0 2.393974 1_555
Ca0 N1 2.626780 1_555
Ca0 N3 2.979056 1_555
Ca1 N6 2.345886 1_555
Ca1 N9 2.455356 1_555
Ca1 N5 2.474567 1_555
Ca1 N1 2.479122 1_555
Ca1 N2 2.620067 1_555
Ca2 N10 2.271219 1_565
Ca2 N3 2.428354 1_555
Ca2 N7 2.588561 1_655
Ca2 N2 2.684840 1_665
Ca2 N6 2.762251 1_565
Ca2 N0 2.832732 1_554
Ca2 N17 2.870546 1_565
Ca3 N4 2.385148 1_556
Ca3 N15 2.402049 1_546
Ca3 N12 2.522735 1_456
Ca3 N5 2.566201 1_555
Ca3 N1 2.705316 1_555
Ca4 N16 2.538923 1_655
Ca4 N5 2.543918 1_665
Ca4 N2 2.568427 1_665
Ca4 N13 2.586125 1_565
Ca4 N3 2.594471 1_555
Ca5 N17 2.406851 1_555
Ca5 N4 2.442225 1_555
Ca5 N14 2.556655 1_555
Ca5 N0 2.620185 1_554
Ca5 N1 2.876631 1_555
Ca5 N3 2.945601 1_555
Al0 N0 1.854979 1_555
Al0 N7 1.880432 1_656
Al0 N16 1.895668 1_655
Al0 N12 1.921931 1_556
Al1 N3 1.846982 1_555
Al1 N9 1.883522 1_655
Al1 N8 1.893902 1_555
Al1 N16 1.904361 1_655
Al2 N5 1.855220 1_565
Al2 N7 1.882877 1_556
Al2 N15 1.900175 1_556
Al2 N11 1.909910 1_555
N0 Si2 1.726948 1_555
N1 Si3 1.767322 1_555
N1 Si0 1.770138 1_555
N2 Si4 1.753771 1_455
N2 Si1 1.759412 1_545
N3 Si5 1.719116 1_555
N4 Si6 1.710729 1_555
N5 Si7 1.735632 1_455
N6 Si5 1.694596 1_545
N6 Si1 1.704589 1_545
N7 Si6 1.728867 1_555
N8 Si7 1.765632 1_555
N8 Si0 1.785389 1_555
N9 Si6 1.744532 1_555
N9 Si4 1.783357 1_455
N10 Si2 1.694251 1_544
N10 Si7 1.706943 1_554
N11 Si3 1.758524 1_555
N11 Si5 1.780842 1_555
N12 Si4 1.795513 1_555
N12 Si7 1.823742 1_554
N13 Si0 1.825371 1_555
N13 Si5 1.827055 1_545
N13 Si2 1.841974 1_545
N14 Si6 1.797821 1_555
N14 Si3 1.810043 1_555
N14 Si1 1.818085 1_555
N15 Si1 1.765655 1_555
N15 Si2 1.767099 1_554
N16 Si3 1.728098 1_555
N17 Si0 1.700876 1_555
N17 Si4 1.707183 1_555
