# generated using pymatgen
data_Dy11In9Ni4
_symmetry_space_group_name_H-M   'P 1'
_cell_length_a   7.18507600
_cell_length_b   25.88506097
_cell_length_c   25.88506097
_cell_angle_alpha   111.25144122
_cell_angle_beta   90.00000000
_cell_angle_gamma   90.00000000
_symmetry_Int_Tables_number   1
_chemical_formula_structural   Dy11In9Ni4
_chemical_formula_sum   'Dy88 In72 Ni32'
_cell_volume   4486.88647803
_cell_formula_units_Z   8
loop_
 _symmetry_equiv_pos_site_id
 _symmetry_equiv_pos_as_xyz
  1  'x, y, z'
loop_
 _atom_site_type_symbol
 _atom_site_label
 _atom_site_symmetry_multiplicity
 _atom_site_fract_x
 _atom_site_fract_y
 _atom_site_fract_z
 _atom_site_occupancy
  Dy  Dy0_0  1  0.00000000  0.46128500  0.29118650  1
  Dy  Dy0_1  1  0.00000000  0.46128500  0.79118650  1
  Dy  Dy0_2  1  0.00000000  0.96128500  0.29118650  1
  Dy  Dy0_3  1  0.00000000  0.96128500  0.79118650  1
  Dy  Dy0_4  1  0.50000000  0.46128500  0.29118650  1
  Dy  Dy0_5  1  0.50000000  0.46128500  0.79118650  1
  Dy  Dy0_6  1  0.50000000  0.96128500  0.29118650  1
  Dy  Dy0_7  1  0.50000000  0.96128500  0.79118650  1
  Dy  Dy1_0  1  0.00000000  0.03871500  0.20881350  1
  Dy  Dy1_1  1  0.00000000  0.03871500  0.70881350  1
  Dy  Dy1_2  1  0.00000000  0.53871500  0.20881350  1
  Dy  Dy1_3  1  0.00000000  0.53871500  0.70881350  1
  Dy  Dy1_4  1  0.50000000  0.03871500  0.20881350  1
  Dy  Dy1_5  1  0.50000000  0.03871500  0.70881350  1
  Dy  Dy1_6  1  0.50000000  0.53871500  0.20881350  1
  Dy  Dy1_7  1  0.50000000  0.53871500  0.70881350  1
  Dy  Dy2_0  1  0.00000000  0.29118650  0.46128500  1
  Dy  Dy2_1  1  0.00000000  0.29118650  0.96128500  1
  Dy  Dy2_2  1  0.00000000  0.79118650  0.46128500  1
  Dy  Dy2_3  1  0.00000000  0.79118650  0.96128500  1
  Dy  Dy2_4  1  0.50000000  0.29118650  0.46128500  1
  Dy  Dy2_5  1  0.50000000  0.29118650  0.96128500  1
  Dy  Dy2_6  1  0.50000000  0.79118650  0.46128500  1
  Dy  Dy2_7  1  0.50000000  0.79118650  0.96128500  1
  Dy  Dy3_0  1  0.00000000  0.20881350  0.03871500  1
  Dy  Dy3_1  1  0.00000000  0.20881350  0.53871500  1
  Dy  Dy3_2  1  0.00000000  0.70881350  0.03871500  1
  Dy  Dy3_3  1  0.00000000  0.70881350  0.53871500  1
  Dy  Dy3_4  1  0.50000000  0.20881350  0.03871500  1
  Dy  Dy3_5  1  0.50000000  0.20881350  0.53871500  1
  Dy  Dy3_6  1  0.50000000  0.70881350  0.03871500  1
  Dy  Dy3_7  1  0.50000000  0.70881350  0.53871500  1
  Dy  Dy4_0  1  0.00000000  0.07973750  0.42026250  1
  Dy  Dy4_1  1  0.00000000  0.07973750  0.92026250  1
  Dy  Dy4_2  1  0.00000000  0.57973750  0.42026250  1
  Dy  Dy4_3  1  0.00000000  0.57973750  0.92026250  1
  Dy  Dy4_4  1  0.50000000  0.07973750  0.42026250  1
  Dy  Dy4_5  1  0.50000000  0.07973750  0.92026250  1
  Dy  Dy4_6  1  0.50000000  0.57973750  0.42026250  1
  Dy  Dy4_7  1  0.50000000  0.57973750  0.92026250  1
  Dy  Dy5_0  1  0.00000000  0.42026250  0.07973750  1
  Dy  Dy5_1  1  0.00000000  0.42026250  0.57973750  1
  Dy  Dy5_2  1  0.00000000  0.92026250  0.07973750  1
  Dy  Dy5_3  1  0.00000000  0.92026250  0.57973750  1
  Dy  Dy5_4  1  0.50000000  0.42026250  0.07973750  1
  Dy  Dy5_5  1  0.50000000  0.42026250  0.57973750  1
  Dy  Dy5_6  1  0.50000000  0.92026250  0.07973750  1
  Dy  Dy5_7  1  0.50000000  0.92026250  0.57973750  1
  Dy  Dy6_0  1  0.00000000  0.18728800  0.31271200  1
  Dy  Dy6_1  1  0.00000000  0.18728800  0.81271200  1
  Dy  Dy6_2  1  0.00000000  0.68728800  0.31271200  1
  Dy  Dy6_3  1  0.00000000  0.68728800  0.81271200  1
  Dy  Dy6_4  1  0.50000000  0.18728800  0.31271200  1
  Dy  Dy6_5  1  0.50000000  0.18728800  0.81271200  1
  Dy  Dy6_6  1  0.50000000  0.68728800  0.31271200  1
  Dy  Dy6_7  1  0.50000000  0.68728800  0.81271200  1
  Dy  Dy7_0  1  0.00000000  0.31271200  0.18728800  1
  Dy  Dy7_1  1  0.00000000  0.31271200  0.68728800  1
  Dy  Dy7_2  1  0.00000000  0.81271200  0.18728800  1
  Dy  Dy7_3  1  0.00000000  0.81271200  0.68728800  1
  Dy  Dy7_4  1  0.50000000  0.31271200  0.18728800  1
  Dy  Dy7_5  1  0.50000000  0.31271200  0.68728800  1
  Dy  Dy7_6  1  0.50000000  0.81271200  0.18728800  1
  Dy  Dy7_7  1  0.50000000  0.81271200  0.68728800  1
  Dy  Dy8_0  1  0.00000000  0.34351100  0.34351100  1
  Dy  Dy8_1  1  0.00000000  0.34351100  0.84351100  1
  Dy  Dy8_2  1  0.00000000  0.84351100  0.34351100  1
  Dy  Dy8_3  1  0.00000000  0.84351100  0.84351100  1
  Dy  Dy8_4  1  0.50000000  0.34351100  0.34351100  1
  Dy  Dy8_5  1  0.50000000  0.34351100  0.84351100  1
  Dy  Dy8_6  1  0.50000000  0.84351100  0.34351100  1
  Dy  Dy8_7  1  0.50000000  0.84351100  0.84351100  1
  Dy  Dy9_0  1  0.00000000  0.15648900  0.15648900  1
  Dy  Dy9_1  1  0.00000000  0.15648900  0.65648900  1
  Dy  Dy9_2  1  0.00000000  0.65648900  0.15648900  1
  Dy  Dy9_3  1  0.00000000  0.65648900  0.65648900  1
  Dy  Dy9_4  1  0.50000000  0.15648900  0.15648900  1
  Dy  Dy9_5  1  0.50000000  0.15648900  0.65648900  1
  Dy  Dy9_6  1  0.50000000  0.65648900  0.15648900  1
  Dy  Dy9_7  1  0.50000000  0.65648900  0.65648900  1
  Dy  Dy10_0  1  0.00000000  0.00000000  0.00000000  1
  Dy  Dy10_1  1  0.00000000  0.00000000  0.50000000  1
  Dy  Dy10_2  1  0.00000000  0.50000000  0.00000000  1
  Dy  Dy10_3  1  0.00000000  0.50000000  0.50000000  1
  Dy  Dy10_4  1  0.50000000  0.00000000  0.00000000  1
  Dy  Dy10_5  1  0.50000000  0.00000000  0.50000000  1
  Dy  Dy10_6  1  0.50000000  0.50000000  0.00000000  1
  Dy  Dy10_7  1  0.50000000  0.50000000  0.50000000  1
  In  In0_0  1  0.25000000  0.07971400  0.31577050  1
  In  In0_1  1  0.25000000  0.07971400  0.81577050  1
  In  In0_2  1  0.25000000  0.57971400  0.31577050  1
  In  In0_3  1  0.25000000  0.57971400  0.81577050  1
  In  In0_4  1  0.75000000  0.07971400  0.31577050  1
  In  In0_5  1  0.75000000  0.07971400  0.81577050  1
  In  In0_6  1  0.75000000  0.57971400  0.31577050  1
  In  In0_7  1  0.75000000  0.57971400  0.81577050  1
  In  In1_0  1  0.25000000  0.42028600  0.18422950  1
  In  In1_1  1  0.25000000  0.42028600  0.68422950  1
  In  In1_2  1  0.25000000  0.92028600  0.18422950  1
  In  In1_3  1  0.25000000  0.92028600  0.68422950  1
  In  In1_4  1  0.75000000  0.42028600  0.18422950  1
  In  In1_5  1  0.75000000  0.42028600  0.68422950  1
  In  In1_6  1  0.75000000  0.92028600  0.18422950  1
  In  In1_7  1  0.75000000  0.92028600  0.68422950  1
  In  In2_0  1  0.25000000  0.31577050  0.07971400  1
  In  In2_1  1  0.25000000  0.31577050  0.57971400  1
  In  In2_2  1  0.25000000  0.81577050  0.07971400  1
  In  In2_3  1  0.25000000  0.81577050  0.57971400  1
  In  In2_4  1  0.75000000  0.31577050  0.07971400  1
  In  In2_5  1  0.75000000  0.31577050  0.57971400  1
  In  In2_6  1  0.75000000  0.81577050  0.07971400  1
  In  In2_7  1  0.75000000  0.81577050  0.57971400  1
  In  In3_0  1  0.25000000  0.18422950  0.42028600  1
  In  In3_1  1  0.25000000  0.18422950  0.92028600  1
  In  In3_2  1  0.25000000  0.68422950  0.42028600  1
  In  In3_3  1  0.25000000  0.68422950  0.92028600  1
  In  In3_4  1  0.75000000  0.18422950  0.42028600  1
  In  In3_5  1  0.75000000  0.18422950  0.92028600  1
  In  In3_6  1  0.75000000  0.68422950  0.42028600  1
  In  In3_7  1  0.75000000  0.68422950  0.92028600  1
  In  In4_0  1  0.25000000  0.46109600  0.39012600  1
  In  In4_1  1  0.25000000  0.46109600  0.89012600  1
  In  In4_2  1  0.25000000  0.96109600  0.39012600  1
  In  In4_3  1  0.25000000  0.96109600  0.89012600  1
  In  In4_4  1  0.75000000  0.46109600  0.39012600  1
  In  In4_5  1  0.75000000  0.46109600  0.89012600  1
  In  In4_6  1  0.75000000  0.96109600  0.39012600  1
  In  In4_7  1  0.75000000  0.96109600  0.89012600  1
  In  In5_0  1  0.25000000  0.03890400  0.10987400  1
  In  In5_1  1  0.25000000  0.03890400  0.60987400  1
  In  In5_2  1  0.25000000  0.53890400  0.10987400  1
  In  In5_3  1  0.25000000  0.53890400  0.60987400  1
  In  In5_4  1  0.75000000  0.03890400  0.10987400  1
  In  In5_5  1  0.75000000  0.03890400  0.60987400  1
  In  In5_6  1  0.75000000  0.53890400  0.10987400  1
  In  In5_7  1  0.75000000  0.53890400  0.60987400  1
  In  In6_0  1  0.25000000  0.39012600  0.46109600  1
  In  In6_1  1  0.25000000  0.39012600  0.96109600  1
  In  In6_2  1  0.25000000  0.89012600  0.46109600  1
  In  In6_3  1  0.25000000  0.89012600  0.96109600  1
  In  In6_4  1  0.75000000  0.39012600  0.46109600  1
  In  In6_5  1  0.75000000  0.39012600  0.96109600  1
  In  In6_6  1  0.75000000  0.89012600  0.46109600  1
  In  In6_7  1  0.75000000  0.89012600  0.96109600  1
  In  In7_0  1  0.25000000  0.10987400  0.03890400  1
  In  In7_1  1  0.25000000  0.10987400  0.53890400  1
  In  In7_2  1  0.25000000  0.60987400  0.03890400  1
  In  In7_3  1  0.25000000  0.60987400  0.53890400  1
  In  In7_4  1  0.75000000  0.10987400  0.03890400  1
  In  In7_5  1  0.75000000  0.10987400  0.53890400  1
  In  In7_6  1  0.75000000  0.60987400  0.03890400  1
  In  In7_7  1  0.75000000  0.60987400  0.53890400  1
  In  In8_0  1  0.25000000  0.25000000  0.25000000  1
  In  In8_1  1  0.25000000  0.25000000  0.75000000  1
  In  In8_2  1  0.25000000  0.75000000  0.25000000  1
  In  In8_3  1  0.25000000  0.75000000  0.75000000  1
  In  In8_4  1  0.75000000  0.25000000  0.25000000  1
  In  In8_5  1  0.75000000  0.25000000  0.75000000  1
  In  In8_6  1  0.75000000  0.75000000  0.25000000  1
  In  In8_7  1  0.75000000  0.75000000  0.75000000  1
  Ni  Ni0_0  1  0.25000000  0.37509250  0.27488300  1
  Ni  Ni0_1  1  0.25000000  0.37509250  0.77488300  1
  Ni  Ni0_2  1  0.25000000  0.87509250  0.27488300  1
  Ni  Ni0_3  1  0.25000000  0.87509250  0.77488300  1
  Ni  Ni0_4  1  0.75000000  0.37509250  0.27488300  1
  Ni  Ni0_5  1  0.75000000  0.37509250  0.77488300  1
  Ni  Ni0_6  1  0.75000000  0.87509250  0.27488300  1
  Ni  Ni0_7  1  0.75000000  0.87509250  0.77488300  1
  Ni  Ni1_0  1  0.25000000  0.12490750  0.22511700  1
  Ni  Ni1_1  1  0.25000000  0.12490750  0.72511700  1
  Ni  Ni1_2  1  0.25000000  0.62490750  0.22511700  1
  Ni  Ni1_3  1  0.25000000  0.62490750  0.72511700  1
  Ni  Ni1_4  1  0.75000000  0.12490750  0.22511700  1
  Ni  Ni1_5  1  0.75000000  0.12490750  0.72511700  1
  Ni  Ni1_6  1  0.75000000  0.62490750  0.22511700  1
  Ni  Ni1_7  1  0.75000000  0.62490750  0.72511700  1
  Ni  Ni2_0  1  0.25000000  0.27488300  0.37509250  1
  Ni  Ni2_1  1  0.25000000  0.27488300  0.87509250  1
  Ni  Ni2_2  1  0.25000000  0.77488300  0.37509250  1
  Ni  Ni2_3  1  0.25000000  0.77488300  0.87509250  1
  Ni  Ni2_4  1  0.75000000  0.27488300  0.37509250  1
  Ni  Ni2_5  1  0.75000000  0.27488300  0.87509250  1
  Ni  Ni2_6  1  0.75000000  0.77488300  0.37509250  1
  Ni  Ni2_7  1  0.75000000  0.77488300  0.87509250  1
  Ni  Ni3_0  1  0.25000000  0.22511700  0.12490750  1
  Ni  Ni3_1  1  0.25000000  0.22511700  0.62490750  1
  Ni  Ni3_2  1  0.25000000  0.72511700  0.12490750  1
  Ni  Ni3_3  1  0.25000000  0.72511700  0.62490750  1
  Ni  Ni3_4  1  0.75000000  0.22511700  0.12490750  1
  Ni  Ni3_5  1  0.75000000  0.22511700  0.62490750  1
  Ni  Ni3_6  1  0.75000000  0.72511700  0.12490750  1
  Ni  Ni3_7  1  0.75000000  0.72511700  0.62490750  1
loop_
_geom_bond_atom_site_label_1
_geom_bond_atom_site_label_2
_geom_bond_distance
_geom_bond_site_symmetry_2
Dy0_0 Ni0_0 2.774873 1_555
Dy0_0 Ni0_4 2.774873 1_455
Dy0_0 In4_0 3.129647 1_555
Dy0_0 In4_4 3.129647 1_455
Dy0_0 In1_4 3.144515 1_455
Dy0_0 In1_0 3.144515 1_555
Dy0_0 In0_2 3.408066 1_555
Dy0_0 In0_6 3.408066 1_455
Dy0_0 Dy4_2 3.624647 1_555
Dy0_1 Ni0_1 2.774873 1_555
Dy0_1 Ni0_5 2.774873 1_455
Dy0_1 In4_1 3.129647 1_555
Dy0_1 In4_5 3.129647 1_455
Dy0_1 In1_5 3.144515 1_455
Dy0_1 In1_1 3.144515 1_555
Dy0_1 In0_3 3.408066 1_555
Dy0_1 In0_7 3.408066 1_455
Dy0_1 Dy4_3 3.624647 1_555
Dy0_2 Ni0_6 2.774873 1_455
Dy0_2 Ni0_2 2.774873 1_555
Dy0_2 In4_6 3.129647 1_455
Dy0_2 In4_2 3.129647 1_555
Dy0_2 In1_6 3.144515 1_455
Dy0_2 In1_2 3.144515 1_555
Dy0_2 In0_0 3.408066 1_565
Dy0_2 In0_4 3.408066 1_465
Dy0_2 Dy4_0 3.624647 1_565
Dy0_3 Ni0_7 2.774873 1_455
Dy0_3 Ni0_3 2.774873 1_555
Dy0_3 In4_7 3.129647 1_455
Dy0_3 In4_3 3.129647 1_555
Dy0_3 In1_3 3.144515 1_555
Dy0_3 In1_7 3.144515 1_455
Dy0_3 In0_5 3.408066 1_465
Dy0_3 In0_1 3.408066 1_565
Dy0_3 Dy4_1 3.624647 1_565
Dy0_4 Ni0_0 2.774873 1_555
Dy0_4 Ni0_4 2.774873 1_555
Dy0_4 In4_4 3.129647 1_555
Dy0_4 In4_0 3.129647 1_555
Dy0_4 In1_4 3.144515 1_555
Dy0_4 In1_0 3.144515 1_555
Dy0_4 In0_6 3.408066 1_555
Dy0_4 In0_2 3.408066 1_555
Dy0_4 Dy4_6 3.624647 1_555
Dy0_5 Ni0_1 2.774873 1_555
Dy0_5 Ni0_5 2.774873 1_555
Dy0_5 In4_1 3.129647 1_555
Dy0_5 In4_5 3.129647 1_555
Dy0_5 In1_5 3.144515 1_555
Dy0_5 In1_1 3.144515 1_555
Dy0_5 In0_3 3.408066 1_555
Dy0_5 In0_7 3.408066 1_555
Dy0_5 Dy4_7 3.624647 1_555
Dy0_6 Ni0_6 2.774873 1_555
Dy0_6 Ni0_2 2.774873 1_555
Dy0_6 In4_6 3.129647 1_555
Dy0_6 In4_2 3.129647 1_555
Dy0_6 In1_2 3.144515 1_555
Dy0_6 In1_6 3.144515 1_555
Dy0_6 In0_0 3.408066 1_565
Dy0_6 In0_4 3.408066 1_565
Dy0_6 Dy4_4 3.624647 1_565
Dy0_7 Ni0_7 2.774873 1_555
Dy0_7 Ni0_3 2.774873 1_555
Dy0_7 In4_3 3.129647 1_555
Dy0_7 In4_7 3.129647 1_555
Dy0_7 In1_3 3.144515 1_555
Dy0_7 In1_7 3.144515 1_555
Dy0_7 In0_5 3.408066 1_565
Dy0_7 In0_1 3.408066 1_565
Dy0_7 Dy4_5 3.624647 1_565
Dy1_0 Ni1_0 2.774873 1_555
Dy1_0 Ni1_4 2.774873 1_455
Dy1_0 In5_4 3.129647 1_455
Dy1_0 In5_0 3.129647 1_555
Dy1_0 In0_4 3.144515 1_455
Dy1_0 In0_0 3.144515 1_555
Dy1_0 In1_2 3.408066 1_545
Dy1_0 In1_6 3.408066 1_445
Dy1_0 Dy5_2 3.624647 1_545
Dy1_1 Ni1_1 2.774873 1_555
Dy1_1 Ni1_5 2.774873 1_455
Dy1_1 In5_1 3.129647 1_555
Dy1_1 In5_5 3.129647 1_455
Dy1_1 In0_1 3.144515 1_555
Dy1_1 In0_5 3.144515 1_455
Dy1_1 In1_3 3.408066 1_545
Dy1_1 In1_7 3.408066 1_445
Dy1_1 Dy5_3 3.624647 1_545
Dy1_2 Ni1_2 2.774873 1_555
Dy1_2 Ni1_6 2.774873 1_455
Dy1_2 In5_6 3.129647 1_455
Dy1_2 In5_2 3.129647 1_555
Dy1_2 In0_2 3.144515 1_555
Dy1_2 In0_6 3.144515 1_455
Dy1_2 In1_0 3.408066 1_555
Dy1_2 In1_4 3.408066 1_455
Dy1_2 Dy5_0 3.624647 1_555
Dy1_3 Ni1_3 2.774873 1_555
Dy1_3 Ni1_7 2.774873 1_455
Dy1_3 In5_7 3.129647 1_455
Dy1_3 In5_3 3.129647 1_555
Dy1_3 In0_3 3.144515 1_555
Dy1_3 In0_7 3.144515 1_455
Dy1_3 In1_1 3.408066 1_555
Dy1_3 In1_5 3.408066 1_455
Dy1_3 Dy5_1 3.624647 1_555
Dy1_4 Ni1_0 2.774873 1_555
Dy1_4 Ni1_4 2.774873 1_555
Dy1_4 In5_0 3.129647 1_555
Dy1_4 In5_4 3.129647 1_555
Dy1_4 In0_4 3.144515 1_555
Dy1_4 In0_0 3.144515 1_555
Dy1_4 In1_2 3.408066 1_545
Dy1_4 In1_6 3.408066 1_545
Dy1_4 Dy5_6 3.624647 1_545
Dy1_5 Ni1_1 2.774873 1_555
Dy1_5 Ni1_5 2.774873 1_555
Dy1_5 In5_1 3.129647 1_555
Dy1_5 In5_5 3.129647 1_555
Dy1_5 In0_1 3.144515 1_555
Dy1_5 In0_5 3.144515 1_555
Dy1_5 In1_3 3.408066 1_545
Dy1_5 In1_7 3.408066 1_545
Dy1_5 Dy5_7 3.624647 1_545
Dy1_6 Ni1_2 2.774873 1_555
Dy1_6 Ni1_6 2.774873 1_555
Dy1_6 In5_2 3.129647 1_555
Dy1_6 In5_6 3.129647 1_555
Dy1_6 In0_2 3.144515 1_555
Dy1_6 In0_6 3.144515 1_555
Dy1_6 In1_0 3.408066 1_555
Dy1_6 In1_4 3.408066 1_555
Dy1_6 Dy5_4 3.624647 1_555
Dy1_7 Ni1_7 2.774873 1_555
Dy1_7 Ni1_3 2.774873 1_555
Dy1_7 In5_7 3.129647 1_555
Dy1_7 In5_3 3.129647 1_555
Dy1_7 In0_3 3.144515 1_555
Dy1_7 In0_7 3.144515 1_555
Dy1_7 In1_1 3.408066 1_555
Dy1_7 In1_5 3.408066 1_555
Dy1_7 Dy5_5 3.624647 1_555
Dy2_0 Ni2_0 2.774873 1_555
Dy2_0 Ni2_4 2.774873 1_455
Dy2_0 In6_0 3.129647 1_555
Dy2_0 In6_4 3.129647 1_455
Dy2_0 In3_0 3.144515 1_555
Dy2_0 In3_4 3.144515 1_455
Dy2_0 In2_5 3.408066 1_455
Dy2_0 In2_1 3.408066 1_555
Dy2_0 Dy5_1 3.624647 1_555
Dy2_1 Ni2_1 2.774873 1_555
Dy2_1 Ni2_5 2.774873 1_455
Dy2_1 In6_1 3.129647 1_555
Dy2_1 In6_5 3.129647 1_455
Dy2_1 In3_1 3.144515 1_555
Dy2_1 In3_5 3.144515 1_455
Dy2_1 In2_0 3.408066 1_556
Dy2_1 In2_4 3.408066 1_456
Dy2_1 Dy5_0 3.624647 1_556
Dy2_2 Ni2_6 2.774873 1_455
Dy2_2 Ni2_2 2.774873 1_555
Dy2_2 In6_2 3.129647 1_555
Dy2_2 In6_6 3.129647 1_455
Dy2_2 In3_2 3.144515 1_555
Dy2_2 In3_6 3.144515 1_455
Dy2_2 In2_3 3.408066 1_555
Dy2_2 In2_7 3.408066 1_455
Dy2_2 Dy5_3 3.624647 1_555
Dy2_3 Ni2_7 2.774873 1_455
Dy2_3 Ni2_3 2.774873 1_555
Dy2_3 In6_7 3.129647 1_455
Dy2_3 In6_3 3.129647 1_555
Dy2_3 In3_3 3.144515 1_555
Dy2_3 In3_7 3.144515 1_455
Dy2_3 In2_2 3.408066 1_556
Dy2_3 In2_6 3.408066 1_456
Dy2_3 Dy5_2 3.624647 1_556
Dy2_4 Ni2_0 2.774873 1_555
Dy2_4 Ni2_4 2.774873 1_555
Dy2_4 In6_0 3.129647 1_555
Dy2_4 In6_4 3.129647 1_555
Dy2_4 In3_0 3.144515 1_555
Dy2_4 In3_4 3.144515 1_555
Dy2_4 In2_1 3.408066 1_555
Dy2_4 In2_5 3.408066 1_555
Dy2_4 Dy5_5 3.624647 1_555
Dy2_5 Ni2_1 2.774873 1_555
Dy2_5 Ni2_5 2.774873 1_555
Dy2_5 In6_1 3.129647 1_555
Dy2_5 In6_5 3.129647 1_555
Dy2_5 In3_1 3.144515 1_555
Dy2_5 In3_5 3.144515 1_555
Dy2_5 In2_0 3.408066 1_556
Dy2_5 In2_4 3.408066 1_556
Dy2_5 Dy5_4 3.624647 1_556
Dy2_6 Ni2_2 2.774873 1_555
Dy2_6 Ni2_6 2.774873 1_555
Dy2_6 In6_2 3.129647 1_555
Dy2_6 In6_6 3.129647 1_555
Dy2_6 In3_2 3.144515 1_555
Dy2_6 In3_6 3.144515 1_555
Dy2_6 In2_3 3.408066 1_555
Dy2_6 In2_7 3.408066 1_555
Dy2_6 Dy5_7 3.624647 1_555
Dy2_7 Ni2_7 2.774873 1_555
Dy2_7 Ni2_3 2.774873 1_555
Dy2_7 In6_7 3.129647 1_555
Dy2_7 In6_3 3.129647 1_555
Dy2_7 In3_7 3.144515 1_555
Dy2_7 In3_3 3.144515 1_555
Dy2_7 In2_2 3.408066 1_556
Dy2_7 In2_6 3.408066 1_556
Dy2_7 Dy5_6 3.624647 1_556
Dy3_0 Ni3_4 2.774873 1_455
Dy3_0 Ni3_0 2.774873 1_555
Dy3_0 In7_4 3.129647 1_455
Dy3_0 In7_0 3.129647 1_555
Dy3_0 In2_4 3.144515 1_455
Dy3_0 In2_0 3.144515 1_555
Dy3_0 In3_1 3.408066 1_554
Dy3_0 In3_5 3.408066 1_454
Dy3_0 Dy4_1 3.624647 1_554
Dy3_1 Ni3_5 2.774873 1_455
Dy3_1 Ni3_1 2.774873 1_555
Dy3_1 In7_1 3.129647 1_555
Dy3_1 In7_5 3.129647 1_455
Dy3_1 In2_5 3.144515 1_455
Dy3_1 In2_1 3.144515 1_555
Dy3_1 In3_4 3.408066 1_455
Dy3_1 In3_0 3.408066 1_555
Dy3_1 Dy4_0 3.624647 1_555
Dy3_2 Ni3_2 2.774873 1_555
Dy3_2 Ni3_6 2.774873 1_455
Dy3_2 In7_2 3.129647 1_555
Dy3_2 In7_6 3.129647 1_455
Dy3_2 In2_6 3.144515 1_455
Dy3_2 In2_2 3.144515 1_555
Dy3_2 In3_7 3.408066 1_454
Dy3_2 In3_3 3.408066 1_554
Dy3_2 Dy4_3 3.624647 1_554
Dy3_3 Ni3_3 2.774873 1_555
Dy3_3 Ni3_7 2.774873 1_455
Dy3_3 In7_3 3.129647 1_555
Dy3_3 In7_7 3.129647 1_455
Dy3_3 In2_7 3.144515 1_455
Dy3_3 In2_3 3.144515 1_555
Dy3_3 In3_2 3.408066 1_555
Dy3_3 In3_6 3.408066 1_455
Dy3_3 Dy4_2 3.624647 1_555
Dy3_4 Ni3_0 2.774873 1_555
Dy3_4 Ni3_4 2.774873 1_555
Dy3_4 In7_0 3.129647 1_555
Dy3_4 In7_4 3.129647 1_555
Dy3_4 In2_0 3.144515 1_555
Dy3_4 In2_4 3.144515 1_555
Dy3_4 In3_1 3.408066 1_554
Dy3_4 In3_5 3.408066 1_554
Dy3_4 Dy4_5 3.624647 1_554
Dy3_5 Ni3_5 2.774873 1_555
Dy3_5 Ni3_1 2.774873 1_555
Dy3_5 In7_1 3.129647 1_555
Dy3_5 In7_5 3.129647 1_555
Dy3_5 In2_5 3.144515 1_555
Dy3_5 In2_1 3.144515 1_555
Dy3_5 In3_0 3.408066 1_555
Dy3_5 In3_4 3.408066 1_555
Dy3_5 Dy4_4 3.624647 1_555
Dy3_6 Ni3_2 2.774873 1_555
Dy3_6 Ni3_6 2.774873 1_555
Dy3_6 In7_2 3.129647 1_555
Dy3_6 In7_6 3.129647 1_555
Dy3_6 In2_6 3.144515 1_555
Dy3_6 In2_2 3.144515 1_555
Dy3_6 In3_7 3.408066 1_554
Dy3_6 In3_3 3.408066 1_554
Dy3_6 Dy4_7 3.624647 1_554
Dy3_7 Ni3_3 2.774873 1_555
Dy3_7 Ni3_7 2.774873 1_555
Dy3_7 In7_3 3.129647 1_555
Dy3_7 In7_7 3.129647 1_555
Dy3_7 In2_7 3.144515 1_555
Dy3_7 In2_3 3.144515 1_555
Dy3_7 In3_2 3.408066 1_555
Dy3_7 In3_6 3.408066 1_555
Dy3_7 Dy4_6 3.624647 1_555
Dy4_0 In3_0 3.246727 1_555
Dy4_0 In3_4 3.246727 1_455
Dy4_0 In0_4 3.246727 1_455
Dy4_0 In0_0 3.246727 1_555
Dy4_0 In4_6 3.395547 1_445
Dy4_0 In4_2 3.395547 1_545
Dy4_0 In7_5 3.395547 1_455
Dy4_0 In7_1 3.395547 1_555
Dy4_0 Dy4_4 3.592538 1_455
Dy4_0 Dy4_4 3.592538 1_555
Dy4_1 In3_5 3.246727 1_455
Dy4_1 In3_1 3.246727 1_555
Dy4_1 In0_5 3.246727 1_455
Dy4_1 In0_1 3.246727 1_555
Dy4_1 In7_0 3.395547 1_556
Dy4_1 In7_4 3.395547 1_456
Dy4_1 In4_3 3.395547 1_545
Dy4_1 In4_7 3.395547 1_445
Dy4_1 Dy4_5 3.592538 1_555
Dy4_1 Dy4_5 3.592538 1_455
Dy4_2 In3_6 3.246727 1_455
Dy4_2 In3_2 3.246727 1_555
Dy4_2 In0_2 3.246727 1_555
Dy4_2 In0_6 3.246727 1_455
Dy4_2 In4_0 3.395547 1_555
Dy4_2 In4_4 3.395547 1_455
Dy4_2 In7_7 3.395547 1_455
Dy4_2 In7_3 3.395547 1_555
Dy4_2 Dy4_6 3.592538 1_555
Dy4_2 Dy4_6 3.592538 1_455
Dy4_3 In0_3 3.246727 1_555
Dy4_3 In0_7 3.246727 1_455
Dy4_3 In3_7 3.246727 1_455
Dy4_3 In3_3 3.246727 1_555
Dy4_3 In4_1 3.395547 1_555
Dy4_3 In4_5 3.395547 1_455
Dy4_3 In7_2 3.395547 1_556
Dy4_3 In7_6 3.395547 1_456
Dy4_3 Dy4_7 3.592538 1_455
Dy4_3 Dy4_7 3.592538 1_555
Dy4_4 In3_0 3.246727 1_555
Dy4_4 In3_4 3.246727 1_555
Dy4_4 In0_0 3.246727 1_555
Dy4_4 In0_4 3.246727 1_555
Dy4_4 In4_6 3.395547 1_545
Dy4_4 In4_2 3.395547 1_545
Dy4_4 In7_5 3.395547 1_555
Dy4_4 In7_1 3.395547 1_555
Dy4_5 In3_5 3.246727 1_555
Dy4_5 In3_1 3.246727 1_555
Dy4_5 In0_1 3.246727 1_555
Dy4_5 In0_5 3.246727 1_555
Dy4_5 In7_4 3.395547 1_556
Dy4_5 In7_0 3.395547 1_556
Dy4_5 In4_3 3.395547 1_545
Dy4_5 In4_7 3.395547 1_545
Dy4_6 In3_6 3.246727 1_555
Dy4_6 In3_2 3.246727 1_555
Dy4_6 In0_2 3.246727 1_555
Dy4_6 In0_6 3.246727 1_555
Dy4_6 In4_0 3.395547 1_555
Dy4_6 In4_4 3.395547 1_555
Dy4_6 In7_7 3.395547 1_555
Dy4_6 In7_3 3.395547 1_555
Dy4_7 In0_3 3.246727 1_555
Dy4_7 In0_7 3.246727 1_555
Dy4_7 In3_7 3.246727 1_555
Dy4_7 In3_3 3.246727 1_555
Dy4_7 In4_5 3.395547 1_555
Dy4_7 In4_1 3.395547 1_555
Dy4_7 In7_2 3.395547 1_556
Dy4_7 In7_6 3.395547 1_556
Dy5_0 In2_4 3.246727 1_455
Dy5_0 In2_0 3.246727 1_555
Dy5_0 In1_0 3.246727 1_555
Dy5_0 In1_4 3.246727 1_455
Dy5_0 In5_2 3.395547 1_555
Dy5_0 In5_6 3.395547 1_455
Dy5_0 In6_1 3.395547 1_554
Dy5_0 In6_5 3.395547 1_454
Dy5_0 Dy5_4 3.592538 1_555
Dy5_0 Dy5_4 3.592538 1_455
Dy5_1 In1_5 3.246727 1_455
Dy5_1 In1_1 3.246727 1_555
Dy5_1 In2_1 3.246727 1_555
Dy5_1 In2_5 3.246727 1_455
Dy5_1 In6_0 3.395547 1_555
Dy5_1 In6_4 3.395547 1_455
Dy5_1 In5_3 3.395547 1_555
Dy5_1 In5_7 3.395547 1_455
Dy5_1 Dy5_5 3.592538 1_555
Dy5_1 Dy5_5 3.592538 1_455
Dy5_2 In2_2 3.246727 1_555
Dy5_2 In2_6 3.246727 1_455
Dy5_2 In1_6 3.246727 1_455
Dy5_2 In1_2 3.246727 1_555
Dy5_2 In6_7 3.395547 1_454
Dy5_2 In6_3 3.395547 1_554
Dy5_2 In5_0 3.395547 1_565
Dy5_2 In5_4 3.395547 1_465
Dy5_2 Dy5_6 3.592538 1_455
Dy5_2 Dy5_6 3.592538 1_555
Dy5_3 In2_3 3.246727 1_555
Dy5_3 In2_7 3.246727 1_455
Dy5_3 In1_7 3.246727 1_455
Dy5_3 In1_3 3.246727 1_555
Dy5_3 In5_5 3.395547 1_465
Dy5_3 In6_6 3.395547 1_455
Dy5_3 In5_1 3.395547 1_565
Dy5_3 In6_2 3.395547 1_555
Dy5_3 Dy5_7 3.592538 1_455
Dy5_3 Dy5_7 3.592538 1_555
Dy5_4 In2_4 3.246727 1_555
Dy5_4 In2_0 3.246727 1_555
Dy5_4 In1_0 3.246727 1_555
Dy5_4 In1_4 3.246727 1_555
Dy5_4 In5_2 3.395547 1_555
Dy5_4 In5_6 3.395547 1_555
Dy5_4 In6_5 3.395547 1_554
Dy5_4 In6_1 3.395547 1_554
Dy5_5 In1_5 3.246727 1_555
Dy5_5 In1_1 3.246727 1_555
Dy5_5 In2_1 3.246727 1_555
Dy5_5 In2_5 3.246727 1_555
Dy5_5 In6_0 3.395547 1_555
Dy5_5 In6_4 3.395547 1_555
Dy5_5 In5_3 3.395547 1_555
Dy5_5 In5_7 3.395547 1_555
Dy5_6 In2_2 3.246727 1_555
Dy5_6 In2_6 3.246727 1_555
Dy5_6 In1_6 3.246727 1_555
Dy5_6 In1_2 3.246727 1_555
Dy5_6 In6_3 3.395547 1_554
Dy5_6 In6_7 3.395547 1_554
Dy5_6 In5_0 3.395547 1_565
Dy5_6 In5_4 3.395547 1_565
Dy5_7 In2_3 3.246727 1_555
Dy5_7 In2_7 3.246727 1_555
Dy5_7 In1_3 3.246727 1_555
Dy5_7 In1_7 3.246727 1_555
Dy5_7 In5_1 3.395547 1_565
Dy5_7 In6_2 3.395547 1_555
Dy5_7 In5_5 3.395547 1_565
Dy5_7 In6_6 3.395547 1_555
Dy6_0 Ni2_0 2.884600 1_555
Dy6_0 Ni2_4 2.884600 1_455
Dy6_0 Ni1_0 2.884600 1_555
Dy6_0 Ni1_4 2.884600 1_455
Dy6_0 In8_0 3.225999 1_555
Dy6_0 In8_4 3.225999 1_455
Dy6_0 In0_4 3.338627 1_455
Dy6_0 In0_0 3.338627 1_555
Dy6_0 In3_4 3.338627 1_455
Dy6_0 In3_0 3.338627 1_555
Dy6_1 Ni1_1 2.884600 1_555
Dy6_1 Ni1_5 2.884600 1_455
Dy6_1 Ni2_1 2.884600 1_555
Dy6_1 Ni2_5 2.884600 1_455
Dy6_1 In8_5 3.225999 1_455
Dy6_1 In8_1 3.225999 1_555
Dy6_1 In0_5 3.338627 1_455
Dy6_1 In0_1 3.338627 1_555
Dy6_1 In3_1 3.338627 1_555
Dy6_1 In3_5 3.338627 1_455
Dy6_2 Ni2_2 2.884600 1_555
Dy6_2 Ni2_6 2.884600 1_455
Dy6_2 Ni1_6 2.884600 1_455
Dy6_2 Ni1_2 2.884600 1_555
Dy6_2 In8_6 3.225999 1_455
Dy6_2 In8_2 3.225999 1_555
Dy6_2 In0_6 3.338627 1_455
Dy6_2 In0_2 3.338627 1_555
Dy6_2 In3_6 3.338627 1_455
Dy6_2 In3_2 3.338627 1_555
Dy6_3 Ni2_3 2.884600 1_555
Dy6_3 Ni2_7 2.884600 1_455
Dy6_3 Ni1_3 2.884600 1_555
Dy6_3 Ni1_7 2.884600 1_455
Dy6_3 In8_3 3.225999 1_555
Dy6_3 In8_7 3.225999 1_455
Dy6_3 In0_7 3.338627 1_455
Dy6_3 In0_3 3.338627 1_555
Dy6_3 In3_3 3.338627 1_555
Dy6_3 In3_7 3.338627 1_455
Dy6_4 Ni2_4 2.884600 1_555
Dy6_4 Ni2_0 2.884600 1_555
Dy6_4 Ni1_4 2.884600 1_555
Dy6_4 Ni1_0 2.884600 1_555
Dy6_4 In8_0 3.225999 1_555
Dy6_4 In8_4 3.225999 1_555
Dy6_4 In0_4 3.338627 1_555
Dy6_4 In0_0 3.338627 1_555
Dy6_4 In3_0 3.338627 1_555
Dy6_4 In3_4 3.338627 1_555
Dy6_5 Ni1_1 2.884600 1_555
Dy6_5 Ni1_5 2.884600 1_555
Dy6_5 Ni2_5 2.884600 1_555
Dy6_5 Ni2_1 2.884600 1_555
Dy6_5 In8_5 3.225999 1_555
Dy6_5 In8_1 3.225999 1_555
Dy6_5 In0_5 3.338627 1_555
Dy6_5 In0_1 3.338627 1_555
Dy6_5 In3_1 3.338627 1_555
Dy6_5 In3_5 3.338627 1_555
Dy6_6 Ni2_2 2.884600 1_555
Dy6_6 Ni2_6 2.884600 1_555
Dy6_6 Ni1_6 2.884600 1_555
Dy6_6 Ni1_2 2.884600 1_555
Dy6_6 In8_6 3.225999 1_555
Dy6_6 In8_2 3.225999 1_555
Dy6_6 In0_6 3.338627 1_555
Dy6_6 In0_2 3.338627 1_555
Dy6_6 In3_2 3.338627 1_555
Dy6_6 In3_6 3.338627 1_555
Dy6_7 Ni2_3 2.884600 1_555
Dy6_7 Ni2_7 2.884600 1_555
Dy6_7 Ni1_3 2.884600 1_555
Dy6_7 Ni1_7 2.884600 1_555
Dy6_7 In8_7 3.225999 1_555
Dy6_7 In8_3 3.225999 1_555
Dy6_7 In0_7 3.338627 1_555
Dy6_7 In0_3 3.338627 1_555
Dy6_7 In3_7 3.338627 1_555
Dy6_7 In3_3 3.338627 1_555
Dy7_0 Ni3_0 2.884600 1_555
Dy7_0 Ni3_4 2.884600 1_455
Dy7_0 Ni0_0 2.884600 1_555
Dy7_0 Ni0_4 2.884600 1_455
Dy7_0 In8_4 3.225999 1_455
Dy7_0 In8_0 3.225999 1_555
Dy7_0 In2_4 3.338627 1_455
Dy7_0 In2_0 3.338627 1_555
Dy7_0 In1_0 3.338627 1_555
Dy7_0 In1_4 3.338627 1_455
Dy7_1 Ni3_5 2.884600 1_455
Dy7_1 Ni3_1 2.884600 1_555
Dy7_1 Ni0_1 2.884600 1_555
Dy7_1 Ni0_5 2.884600 1_455
Dy7_1 In8_1 3.225999 1_555
Dy7_1 In8_5 3.225999 1_455
Dy7_1 In2_1 3.338627 1_555
Dy7_1 In2_5 3.338627 1_455
Dy7_1 In1_5 3.338627 1_455
Dy7_1 In1_1 3.338627 1_555
Dy7_2 Ni3_2 2.884600 1_555
Dy7_2 Ni3_6 2.884600 1_455
Dy7_2 Ni0_2 2.884600 1_555
Dy7_2 Ni0_6 2.884600 1_455
Dy7_2 In8_2 3.225999 1_555
Dy7_2 In8_6 3.225999 1_455
Dy7_2 In2_2 3.338627 1_555
Dy7_2 In2_6 3.338627 1_455
Dy7_2 In1_2 3.338627 1_555
Dy7_2 In1_6 3.338627 1_455
Dy7_3 Ni0_3 2.884600 1_555
Dy7_3 Ni0_7 2.884600 1_455
Dy7_3 Ni3_7 2.884600 1_455
Dy7_3 Ni3_3 2.884600 1_555
Dy7_3 In8_3 3.225999 1_555
Dy7_3 In8_7 3.225999 1_455
Dy7_3 In2_7 3.338627 1_455
Dy7_3 In2_3 3.338627 1_555
Dy7_3 In1_7 3.338627 1_455
Dy7_3 In1_3 3.338627 1_555
Dy7_4 Ni0_4 2.884600 1_555
Dy7_4 Ni3_0 2.884600 1_555
Dy7_4 Ni3_4 2.884600 1_555
Dy7_4 Ni0_0 2.884600 1_555
Dy7_4 In8_0 3.225999 1_555
Dy7_4 In8_4 3.225999 1_555
Dy7_4 In2_4 3.338627 1_555
Dy7_4 In2_0 3.338627 1_555
Dy7_4 In1_0 3.338627 1_555
Dy7_4 In1_4 3.338627 1_555
Dy7_5 Ni3_5 2.884600 1_555
Dy7_5 Ni3_1 2.884600 1_555
Dy7_5 Ni0_1 2.884600 1_555
Dy7_5 Ni0_5 2.884600 1_555
Dy7_5 In8_1 3.225999 1_555
Dy7_5 In8_5 3.225999 1_555
Dy7_5 In2_1 3.338627 1_555
Dy7_5 In2_5 3.338627 1_555
Dy7_5 In1_1 3.338627 1_555
Dy7_5 In1_5 3.338627 1_555
Dy7_6 Ni3_2 2.884600 1_555
Dy7_6 Ni0_2 2.884600 1_555
Dy7_6 Ni3_6 2.884600 1_555
Dy7_6 Ni0_6 2.884600 1_555
Dy7_6 In8_2 3.225999 1_555
Dy7_6 In8_6 3.225999 1_555
Dy7_6 In2_2 3.338627 1_555
Dy7_6 In2_6 3.338627 1_555
Dy7_6 In1_2 3.338627 1_555
Dy7_6 In1_6 3.338627 1_555
Dy7_7 Ni0_3 2.884600 1_555
Dy7_7 Ni0_7 2.884600 1_555
Dy7_7 Ni3_3 2.884600 1_555
Dy7_7 Ni3_7 2.884600 1_555
Dy7_7 In8_7 3.225999 1_555
Dy7_7 In8_3 3.225999 1_555
Dy7_7 In2_7 3.338627 1_555
Dy7_7 In2_3 3.338627 1_555
Dy7_7 In1_3 3.338627 1_555
Dy7_7 In1_7 3.338627 1_555
Dy8_0 Ni0_0 2.846640 1_555
Dy8_0 Ni0_4 2.846640 1_455
Dy8_0 Ni2_4 2.846640 1_455
Dy8_0 Ni2_0 2.846640 1_555
Dy8_0 In8_0 3.270667 1_555
Dy8_0 In8_4 3.270667 1_455
Dy8_0 In4_0 3.359205 1_555
Dy8_0 In4_4 3.359205 1_455
Dy8_0 In6_0 3.359205 1_555
Dy8_0 In6_4 3.359205 1_455
Dy8_1 Ni0_1 2.846640 1_555
Dy8_1 Ni0_5 2.846640 1_455
Dy8_1 Ni2_5 2.846640 1_455
Dy8_1 Ni2_1 2.846640 1_555
Dy8_1 In8_1 3.270667 1_555
Dy8_1 In8_5 3.270667 1_455
Dy8_1 In6_5 3.359205 1_455
Dy8_1 In6_1 3.359205 1_555
Dy8_1 In4_1 3.359205 1_555
Dy8_1 In4_5 3.359205 1_455
Dy8_2 Ni0_6 2.846640 1_455
Dy8_2 Ni0_2 2.846640 1_555
Dy8_2 Ni2_2 2.846640 1_555
Dy8_2 Ni2_6 2.846640 1_455
Dy8_2 In8_6 3.270667 1_455
Dy8_2 In8_2 3.270667 1_555
Dy8_2 In4_2 3.359205 1_555
Dy8_2 In4_6 3.359205 1_455
Dy8_2 In6_6 3.359205 1_455
Dy8_2 In6_2 3.359205 1_555
Dy8_3 Ni2_3 2.846640 1_555
Dy8_3 Ni0_3 2.846640 1_555
Dy8_3 Ni0_7 2.846640 1_455
Dy8_3 Ni2_7 2.846640 1_455
Dy8_3 In8_3 3.270667 1_555
Dy8_3 In8_7 3.270667 1_455
Dy8_3 In4_7 3.359205 1_455
Dy8_3 In4_3 3.359205 1_555
Dy8_3 In6_7 3.359205 1_455
Dy8_3 In6_3 3.359205 1_555
Dy8_4 Ni0_0 2.846640 1_555
Dy8_4 Ni0_4 2.846640 1_555
Dy8_4 Ni2_4 2.846640 1_555
Dy8_4 Ni2_0 2.846640 1_555
Dy8_4 In8_0 3.270667 1_555
Dy8_4 In8_4 3.270667 1_555
Dy8_4 In4_0 3.359205 1_555
Dy8_4 In4_4 3.359205 1_555
Dy8_4 In6_4 3.359205 1_555
Dy8_4 In6_0 3.359205 1_555
Dy8_5 Ni0_1 2.846640 1_555
Dy8_5 Ni0_5 2.846640 1_555
Dy8_5 Ni2_5 2.846640 1_555
Dy8_5 Ni2_1 2.846640 1_555
Dy8_5 In8_1 3.270667 1_555
Dy8_5 In8_5 3.270667 1_555
Dy8_5 In6_5 3.359205 1_555
Dy8_5 In6_1 3.359205 1_555
Dy8_5 In4_1 3.359205 1_555
Dy8_5 In4_5 3.359205 1_555
Dy8_6 Ni0_6 2.846640 1_555
Dy8_6 Ni0_2 2.846640 1_555
Dy8_6 Ni2_2 2.846640 1_555
Dy8_6 Ni2_6 2.846640 1_555
Dy8_6 In8_6 3.270667 1_555
Dy8_6 In8_2 3.270667 1_555
Dy8_6 In4_2 3.359205 1_555
Dy8_6 In4_6 3.359205 1_555
Dy8_6 In6_6 3.359205 1_555
Dy8_6 In6_2 3.359205 1_555
Dy8_7 Ni2_3 2.846640 1_555
Dy8_7 Ni0_3 2.846640 1_555
Dy8_7 Ni2_7 2.846640 1_555
Dy8_7 Ni0_7 2.846640 1_555
Dy8_7 In8_7 3.270667 1_555
Dy8_7 In8_3 3.270667 1_555
Dy8_7 In4_3 3.359205 1_555
Dy8_7 In4_7 3.359205 1_555
Dy8_7 In6_7 3.359205 1_555
Dy8_7 In6_3 3.359205 1_555
Dy9_0 Ni3_0 2.846640 1_555
Dy9_0 Ni1_0 2.846640 1_555
Dy9_0 Ni1_4 2.846640 1_455
Dy9_0 Ni3_4 2.846640 1_455
Dy9_0 In8_4 3.270667 1_455
Dy9_0 In8_0 3.270667 1_555
Dy9_0 In7_4 3.359205 1_455
Dy9_0 In7_0 3.359205 1_555
Dy9_0 In5_0 3.359205 1_555
Dy9_0 In5_4 3.359205 1_455
Dy9_1 Ni1_5 2.846640 1_455
Dy9_1 Ni1_1 2.846640 1_555
Dy9_1 Ni3_1 2.846640 1_555
Dy9_1 Ni3_5 2.846640 1_455
Dy9_1 In8_1 3.270667 1_555
Dy9_1 In8_5 3.270667 1_455
Dy9_1 In5_1 3.359205 1_555
Dy9_1 In7_1 3.359205 1_555
Dy9_1 In5_5 3.359205 1_455
Dy9_1 In7_5 3.359205 1_455
Dy9_2 Ni1_6 2.846640 1_455
Dy9_2 Ni1_2 2.846640 1_555
Dy9_2 Ni3_6 2.846640 1_455
Dy9_2 Ni3_2 2.846640 1_555
Dy9_2 In8_2 3.270667 1_555
Dy9_2 In8_6 3.270667 1_455
Dy9_2 In5_2 3.359205 1_555
Dy9_2 In5_6 3.359205 1_455
Dy9_2 In7_2 3.359205 1_555
Dy9_2 In7_6 3.359205 1_455
Dy9_3 Ni1_3 2.846640 1_555
Dy9_3 Ni1_7 2.846640 1_455
Dy9_3 Ni3_3 2.846640 1_555
Dy9_3 Ni3_7 2.846640 1_455
Dy9_3 In8_3 3.270667 1_555
Dy9_3 In8_7 3.270667 1_455
Dy9_3 In7_7 3.359205 1_455
Dy9_3 In7_3 3.359205 1_555
Dy9_3 In5_3 3.359205 1_555
Dy9_3 In5_7 3.359205 1_455
Dy9_4 Ni3_0 2.846640 1_555
Dy9_4 Ni1_0 2.846640 1_555
Dy9_4 Ni3_4 2.846640 1_555
Dy9_4 Ni1_4 2.846640 1_555
Dy9_4 In8_4 3.270667 1_555
Dy9_4 In8_0 3.270667 1_555
Dy9_4 In7_0 3.359205 1_555
Dy9_4 In5_0 3.359205 1_555
Dy9_4 In5_4 3.359205 1_555
Dy9_4 In7_4 3.359205 1_555
Dy9_5 Ni1_1 2.846640 1_555
Dy9_5 Ni1_5 2.846640 1_555
Dy9_5 Ni3_1 2.846640 1_555
Dy9_5 Ni3_5 2.846640 1_555
Dy9_5 In8_1 3.270667 1_555
Dy9_5 In8_5 3.270667 1_555
Dy9_5 In5_1 3.359205 1_555
Dy9_5 In5_5 3.359205 1_555
Dy9_5 In7_1 3.359205 1_555
Dy9_5 In7_5 3.359205 1_555
Dy9_6 Ni1_2 2.846640 1_555
Dy9_6 Ni1_6 2.846640 1_555
Dy9_6 Ni3_2 2.846640 1_555
Dy9_6 Ni3_6 2.846640 1_555
Dy9_6 In8_2 3.270667 1_555
Dy9_6 In8_6 3.270667 1_555
Dy9_6 In5_2 3.359205 1_555
Dy9_6 In5_6 3.359205 1_555
Dy9_6 In7_6 3.359205 1_555
Dy9_6 In7_2 3.359205 1_555
Dy9_7 Ni1_3 2.846640 1_555
Dy9_7 Ni1_7 2.846640 1_555
Dy9_7 Ni3_3 2.846640 1_555
Dy9_7 Ni3_7 2.846640 1_555
Dy9_7 In8_3 3.270667 1_555
Dy9_7 In8_7 3.270667 1_555
Dy9_7 In7_3 3.359205 1_555
Dy9_7 In7_7 3.359205 1_555
Dy9_7 In5_3 3.359205 1_555
Dy9_7 In5_7 3.359205 1_555
Dy10_0 In7_0 3.202081 1_555
Dy10_0 In5_4 3.202081 1_455
Dy10_0 In7_4 3.202081 1_455
Dy10_0 In5_0 3.202081 1_555
Dy10_0 In6_3 3.202081 1_544
Dy10_0 In6_7 3.202081 1_444
Dy10_0 In4_3 3.202081 1_544
Dy10_0 In4_7 3.202081 1_444
Dy10_0 Dy4_1 3.407132 1_554
Dy10_0 Dy5_2 3.407132 1_545
Dy10_0 Dy10_4 3.592538 1_555
Dy10_0 Dy10_4 3.592538 1_455
Dy10_1 In7_5 3.202081 1_455
Dy10_1 In7_1 3.202081 1_555
Dy10_1 In6_2 3.202081 1_545
Dy10_1 In6_6 3.202081 1_445
Dy10_1 In5_1 3.202081 1_555
Dy10_1 In5_5 3.202081 1_455
Dy10_1 In4_2 3.202081 1_545
Dy10_1 In4_6 3.202081 1_445
Dy10_1 Dy4_0 3.407132 1_555
Dy10_1 Dy5_3 3.407132 1_545
Dy10_1 Dy10_5 3.592538 1_455
Dy10_1 Dy10_5 3.592538 1_555
Dy10_2 In6_5 3.202081 1_454
Dy10_2 In5_2 3.202081 1_555
Dy10_2 In5_6 3.202081 1_455
Dy10_2 In7_2 3.202081 1_555
Dy10_2 In7_6 3.202081 1_455
Dy10_2 In6_1 3.202081 1_554
Dy10_2 In4_5 3.202081 1_454
Dy10_2 In4_1 3.202081 1_554
Dy10_2 Dy5_0 3.407132 1_555
Dy10_2 Dy4_3 3.407132 1_554
Dy10_2 Dy10_6 3.592538 1_555
Dy10_2 Dy10_6 3.592538 1_455
Dy10_3 In7_3 3.202081 1_555
Dy10_3 In5_3 3.202081 1_555
Dy10_3 In6_0 3.202081 1_555
Dy10_3 In6_4 3.202081 1_455
Dy10_3 In5_7 3.202081 1_455
Dy10_3 In7_7 3.202081 1_455
Dy10_3 In4_0 3.202081 1_555
Dy10_3 In4_4 3.202081 1_455
Dy10_3 Dy5_1 3.407132 1_555
Dy10_3 Dy4_2 3.407132 1_555
Dy10_3 Dy10_7 3.592538 1_455
Dy10_3 Dy10_7 3.592538 1_555
Dy10_4 In7_0 3.202081 1_555
Dy10_4 In7_4 3.202081 1_555
Dy10_4 In5_4 3.202081 1_555
Dy10_4 In5_0 3.202081 1_555
Dy10_4 In6_3 3.202081 1_544
Dy10_4 In6_7 3.202081 1_544
Dy10_4 In4_3 3.202081 1_544
Dy10_4 In4_7 3.202081 1_544
Dy10_4 Dy4_5 3.407132 1_554
Dy10_4 Dy5_6 3.407132 1_545
Dy10_5 In7_5 3.202081 1_555
Dy10_5 In7_1 3.202081 1_555
Dy10_5 In6_2 3.202081 1_545
Dy10_5 In6_6 3.202081 1_545
Dy10_5 In5_1 3.202081 1_555
Dy10_5 In5_5 3.202081 1_555
Dy10_5 In4_2 3.202081 1_545
Dy10_5 In4_6 3.202081 1_545
Dy10_5 Dy4_4 3.407132 1_555
Dy10_5 Dy5_7 3.407132 1_545
Dy10_6 In5_2 3.202081 1_555
Dy10_6 In5_6 3.202081 1_555
Dy10_6 In7_2 3.202081 1_555
Dy10_6 In7_6 3.202081 1_555
Dy10_6 In6_1 3.202081 1_554
Dy10_6 In6_5 3.202081 1_554
Dy10_6 In4_5 3.202081 1_554
Dy10_6 In4_1 3.202081 1_554
Dy10_6 Dy5_4 3.407132 1_555
Dy10_6 Dy4_7 3.407132 1_554
Dy10_7 In7_7 3.202081 1_555
Dy10_7 In7_3 3.202081 1_555
Dy10_7 In5_3 3.202081 1_555
Dy10_7 In6_0 3.202081 1_555
Dy10_7 In5_7 3.202081 1_555
Dy10_7 In6_4 3.202081 1_555
Dy10_7 In4_4 3.202081 1_555
Dy10_7 In4_0 3.202081 1_555
Dy10_7 Dy5_5 3.407132 1_555
Dy10_7 Dy4_6 3.407132 1_555
In0_0 Ni1_0 2.977399 1_555
In0_0 In3_0 3.054908 1_555
In0_1 Ni1_1 2.977399 1_555
In0_1 In3_1 3.054908 1_555
In0_2 Ni1_2 2.977399 1_555
In0_2 In3_2 3.054908 1_555
In0_3 Ni1_3 2.977399 1_555
In0_3 In3_3 3.054908 1_555
In0_4 Ni1_4 2.977399 1_555
In0_4 In3_4 3.054908 1_555
In0_5 Ni1_5 2.977399 1_555
In0_5 In3_5 3.054908 1_555
In0_6 Ni1_6 2.977399 1_555
In0_6 In3_6 3.054908 1_555
In0_7 Ni1_7 2.977399 1_555
In0_7 In3_7 3.054908 1_555
In1_0 Ni0_0 2.977399 1_555
In1_0 In2_0 3.054908 1_555
In1_1 Ni0_1 2.977399 1_555
In1_1 In2_1 3.054908 1_555
In1_2 Ni0_2 2.977399 1_555
In1_2 In2_2 3.054908 1_555
In1_3 Ni0_3 2.977399 1_555
In1_3 In2_3 3.054908 1_555
In1_4 Ni0_4 2.977399 1_555
In1_4 In2_4 3.054908 1_555
In1_5 Ni0_5 2.977399 1_555
In1_5 In2_5 3.054908 1_555
In1_6 Ni0_6 2.977399 1_555
In1_6 In2_6 3.054908 1_555
In1_7 Ni0_7 2.977399 1_555
In1_7 In2_7 3.054908 1_555
In2_0 Ni3_0 2.977399 1_555
In2_1 Ni3_1 2.977399 1_555
In2_2 Ni3_2 2.977399 1_555
In2_3 Ni3_3 2.977399 1_555
In2_4 Ni3_4 2.977399 1_555
In2_5 Ni3_5 2.977399 1_555
In2_6 Ni3_6 2.977399 1_555
In2_7 Ni3_7 2.977399 1_555
In3_0 Ni2_0 2.977399 1_555
In3_1 Ni2_1 2.977399 1_555
In3_2 Ni2_2 2.977399 1_555
In3_3 Ni2_3 2.977399 1_555
In3_4 Ni2_4 2.977399 1_555
In3_5 Ni2_5 2.977399 1_555
In3_6 Ni2_6 2.977399 1_555
In3_7 Ni2_7 2.977399 1_555
In4_0 Ni0_0 3.006750 1_555
In4_0 In6_0 3.032502 1_555
In4_1 Ni0_1 3.006750 1_555
In4_1 In6_1 3.032502 1_555
In4_2 Ni0_2 3.006750 1_555
In4_2 In6_2 3.032502 1_555
In4_3 Ni0_3 3.006750 1_555
In4_3 In6_3 3.032502 1_555
In4_4 Ni0_4 3.006750 1_555
In4_4 In6_4 3.032502 1_555
In4_5 Ni0_5 3.006750 1_555
In4_5 In6_5 3.032502 1_555
In4_6 Ni0_6 3.006750 1_555
In4_6 In6_6 3.032502 1_555
In4_7 Ni0_7 3.006750 1_555
In4_7 In6_7 3.032502 1_555
In5_0 Ni1_0 3.006750 1_555
In5_0 In7_0 3.032502 1_555
In5_1 Ni1_1 3.006750 1_555
In5_1 In7_1 3.032502 1_555
In5_2 Ni1_2 3.006750 1_555
In5_2 In7_2 3.032502 1_555
In5_3 Ni1_3 3.006750 1_555
In5_3 In7_3 3.032502 1_555
In5_4 Ni1_4 3.006750 1_555
In5_4 In7_4 3.032502 1_555
In5_5 Ni1_5 3.006750 1_555
In5_5 In7_5 3.032502 1_555
In5_6 Ni1_6 3.006750 1_555
In5_6 In7_6 3.032502 1_555
In5_7 Ni1_7 3.006750 1_555
In5_7 In7_7 3.032502 1_555
In6_0 Ni2_0 3.006750 1_555
In6_1 Ni2_1 3.006750 1_555
In6_2 Ni2_2 3.006750 1_555
In6_3 Ni2_3 3.006750 1_555
In6_4 Ni2_4 3.006750 1_555
In6_5 Ni2_5 3.006750 1_555
In6_6 Ni2_6 3.006750 1_555
In6_7 Ni2_7 3.006750 1_555
In7_0 Ni3_0 3.006750 1_555
In7_1 Ni3_1 3.006750 1_555
In7_2 Ni3_2 3.006750 1_555
In7_3 Ni3_3 3.006750 1_555
In7_4 Ni3_4 3.006750 1_555
In7_5 Ni3_5 3.006750 1_555
In7_6 Ni3_6 3.006750 1_555
In7_7 Ni3_7 3.006750 1_555
In8_0 Ni0_0 3.063948 1_555
In8_0 Ni2_0 3.063948 1_555
In8_0 Ni1_0 3.063948 1_555
In8_0 Ni3_0 3.063948 1_555
In8_1 Ni0_1 3.063948 1_555
In8_1 Ni2_1 3.063948 1_555
In8_1 Ni1_1 3.063948 1_555
In8_1 Ni3_1 3.063948 1_555
In8_2 Ni0_2 3.063948 1_555
In8_2 Ni2_2 3.063948 1_555
In8_2 Ni1_2 3.063948 1_555
In8_2 Ni3_2 3.063948 1_555
In8_3 Ni0_3 3.063948 1_555
In8_3 Ni2_3 3.063948 1_555
In8_3 Ni1_3 3.063948 1_555
In8_3 Ni3_3 3.063948 1_555
In8_4 Ni0_4 3.063948 1_555
In8_4 Ni2_4 3.063948 1_555
In8_4 Ni3_4 3.063948 1_555
In8_4 Ni1_4 3.063948 1_555
In8_5 Ni0_5 3.063948 1_555
In8_5 Ni2_5 3.063948 1_555
In8_5 Ni1_5 3.063948 1_555
In8_5 Ni3_5 3.063948 1_555
In8_6 Ni0_6 3.063948 1_555
In8_6 Ni2_6 3.063948 1_555
In8_6 Ni1_6 3.063948 1_555
In8_6 Ni3_6 3.063948 1_555
In8_7 Ni0_7 3.063948 1_555
In8_7 Ni2_7 3.063948 1_555
In8_7 Ni1_7 3.063948 1_555
In8_7 Ni3_7 3.063948 1_555
