# generated using pymatgen
data_UInPd
_symmetry_space_group_name_H-M   'P 1'
_cell_length_a   7.48866960
_cell_length_b   7.48866960
_cell_length_c   4.12029200
_cell_angle_alpha   90.00000000
_cell_angle_beta   90.00000000
_cell_angle_gamma   119.99999648
_symmetry_Int_Tables_number   1
_chemical_formula_structural   UInPd
_chemical_formula_sum   'U3 In3 Pd3'
_cell_volume   200.10962687
_cell_formula_units_Z   3
loop_
 _symmetry_equiv_pos_site_id
 _symmetry_equiv_pos_as_xyz
  1  'x, y, z'
loop_
 _atom_site_type_symbol
 _atom_site_label
 _atom_site_symmetry_multiplicity
 _atom_site_fract_x
 _atom_site_fract_y
 _atom_site_fract_z
 _atom_site_occupancy
  U  U0  1  0.41982800  0.41982800  0.00000000  1
  U  U1  1  0.58017200  0.00000000  0.00000000  1
  U  U2  1  0.00000000  0.58017200  0.00000000  1
  In  In0  1  0.75138600  0.75138600  0.50000000  1
  In  In1  1  0.24861400  0.00000000  0.50000000  1
  In  In2  1  0.00000000  0.24861400  0.50000000  1
  Pd  Pd0  1  0.66666700  0.33333300  0.50000000  1
  Pd  Pd1  1  0.33333300  0.66666700  0.50000000  1
  Pd  Pd2  1  0.00000000  0.00000000  0.00000000  1
loop_
_geom_bond_atom_site_label_1
_geom_bond_atom_site_label_2
_geom_bond_distance
_geom_bond_site_symmetry_2
In0 Pd2 2.776771 1_665
In0 Pd2 2.776771 1_666
In0 Pd0 2.866592 1_555
In0 Pd1 2.866592 1_555
In0 In1 3.224712 1_665
In0 In2 3.224712 1_665
In0 U0 3.226319 1_555
In0 U0 3.226319 1_556
In0 U1 3.426591 1_566
In0 U1 3.426591 1_565
In0 U2 3.426591 1_656
In0 U2 3.426591 1_655
In1 Pd2 2.776771 1_555
In1 Pd2 2.776771 1_556
In1 Pd1 2.866584 1_545
In1 Pd0 2.866589 1_555
In1 In2 3.224712 1_555
In1 U1 3.226319 1_556
In1 U1 3.226319 1_555
In1 U0 3.426591 1_555
In1 U0 3.426591 1_556
In1 U2 3.426591 1_545
In1 U2 3.426591 1_546
In2 Pd2 2.776771 1_555
In2 Pd2 2.776771 1_556
In2 Pd0 2.866584 1_455
In2 Pd1 2.866589 1_555
In2 U2 3.226319 1_556
In2 U2 3.226319 1_555
In2 U0 3.426591 1_555
In2 U0 3.426591 1_556
In2 U1 3.426591 1_455
In2 U1 3.426591 1_456
Pd0 U1 3.045980 1_556
Pd0 U1 3.045980 1_555
Pd0 U2 3.045981 1_656
Pd0 U2 3.045981 1_655
Pd0 U0 3.045985 1_556
Pd0 U0 3.045985 1_555
Pd1 U2 3.045980 1_555
Pd1 U2 3.045980 1_556
Pd1 U1 3.045981 1_566
Pd1 U1 3.045981 1_565
Pd1 U0 3.045985 1_556
Pd1 U0 3.045985 1_555
Pd2 U2 3.143953 1_545
Pd2 U1 3.143953 1_455
Pd2 U0 3.143953 1_555
