# generated using pymatgen
data_UGe2Rh
_symmetry_space_group_name_H-M   'P 1'
_cell_length_a   4.33813000
_cell_length_b   8.79361600
_cell_length_c   9.37677457
_cell_angle_alpha   117.96318250
_cell_angle_beta   103.37498344
_cell_angle_gamma   90.00000000
_symmetry_Int_Tables_number   1
_chemical_formula_structural   UGe2Rh
_chemical_formula_sum   'U4 Ge8 Rh4'
_cell_volume   304.91358565
_cell_formula_units_Z   4
loop_
 _symmetry_equiv_pos_site_id
 _symmetry_equiv_pos_as_xyz
  1  'x, y, z'
loop_
 _atom_site_type_symbol
 _atom_site_label
 _atom_site_symmetry_multiplicity
 _atom_site_fract_x
 _atom_site_fract_y
 _atom_site_fract_z
 _atom_site_occupancy
  U  U0  1  0.00000000  0.26331400  0.00000000  1
  U  U1  1  0.00000000  0.73668600  0.00000000  1
  U  U2  1  0.79519900  0.29519900  0.59039800  1
  U  U3  1  0.20480100  0.70480100  0.40960200  1
  Ge  Ge0  1  0.42415000  0.92415000  0.84830100  1
  Ge  Ge1  1  0.57585000  0.07585000  0.15169900  1
  Ge  Ge2  1  0.42399800  0.42399800  0.84799700  1
  Ge  Ge3  1  0.57600200  0.57600200  0.15200300  1
  Ge  Ge4  1  0.19832300  0.04493000  0.39664600  1
  Ge  Ge5  1  0.80167700  0.95507000  0.60335400  1
  Ge  Ge6  1  0.19832300  0.35171500  0.39664600  1
  Ge  Ge7  1  0.80167700  0.64828500  0.60335400  1
  Rh  Rh0  1  0.35338800  0.10205500  0.70677600  1
  Rh  Rh1  1  0.64661200  0.89794500  0.29322400  1
  Rh  Rh2  1  0.35338800  0.60472100  0.70677600  1
  Rh  Rh3  1  0.64661200  0.39527900  0.29322400  1
loop_
_geom_bond_atom_site_label_1
_geom_bond_atom_site_label_2
_geom_bond_distance
_geom_bond_site_symmetry_2
Ge0 Rh2 2.461946 1_555
Ge0 Rh0 2.461953 1_565
Ge0 U1 3.396539 1_556
Ge0 U1 3.396542 1_656
Ge0 U0 3.396545 1_566
Ge0 U0 3.396548 1_666
Ge0 U3 3.506496 1_555
Ge1 Rh3 2.461946 1_555
Ge1 Rh1 2.461953 1_545
Ge1 U0 3.396539 1_655
Ge1 U0 3.396542 1_555
Ge1 U1 3.396545 1_645
Ge1 U1 3.396548 1_545
Ge1 U2 3.506496 1_555
Ge2 Ge3 2.429903 1_556
Ge2 Rh0 2.481685 1_555
Ge2 Rh2 2.481693 1_555
Ge2 U2 2.990687 1_455
Ge2 U2 2.990690 1_555
Ge2 U0 3.242351 1_556
Ge2 U0 3.242354 1_656
Ge2 U1 3.242356 1_556
Ge2 U1 3.242359 1_656
Ge3 Rh1 2.481685 1_555
Ge3 Rh3 2.481693 1_555
Ge3 U3 2.990687 1_655
Ge3 U3 2.990690 1_555
Ge3 U1 3.242351 1_655
Ge3 U1 3.242354 1_555
Ge3 U0 3.242356 1_655
Ge3 U0 3.242359 1_555
Ge4 Rh1 2.467813 1_545
Ge4 Rh1 2.467813 1_445
Ge4 Rh0 2.624205 1_555
Ge4 Ge6 2.697749 1_555
Ge4 U2 2.987077 1_455
Ge4 U2 2.987077 1_555
Ge4 U3 3.049688 1_545
Ge4 U1 3.314447 1_545
Ge5 Rh0 2.467813 1_565
Ge5 Rh0 2.467813 1_665
Ge5 Rh1 2.624205 1_555
Ge5 Ge7 2.697749 1_555
Ge5 U3 2.987077 1_655
Ge5 U3 2.987077 1_555
Ge5 U2 3.049688 1_565
Ge5 U0 3.314447 1_666
Ge6 Rh3 2.467816 1_555
Ge6 Rh3 2.467816 1_455
Ge6 Rh2 2.624208 1_555
Ge6 U2 2.987073 1_555
Ge6 U2 2.987073 1_455
Ge6 U3 3.049696 1_555
Ge6 U0 3.314450 1_555
Ge7 Rh2 2.467816 1_555
Ge7 Rh2 2.467816 1_655
Ge7 Rh3 2.624208 1_555
Ge7 U3 2.987073 1_655
Ge7 U3 2.987073 1_555
Ge7 U2 3.049696 1_555
Ge7 U1 3.314450 1_656
Rh0 U0 3.196008 1_656
Rh0 U0 3.196008 1_556
Rh0 U3 3.228561 1_545
Rh0 U2 3.233385 1_555
Rh0 U2 3.233385 1_455
Rh1 U1 3.196008 1_555
Rh1 U1 3.196008 1_655
Rh1 U2 3.228561 1_565
Rh1 U3 3.233385 1_655
Rh1 U3 3.233385 1_555
Rh2 U1 3.196008 1_656
Rh2 U1 3.196008 1_556
Rh2 U3 3.228561 1_555
Rh2 U2 3.233385 1_555
Rh2 U2 3.233385 1_455
Rh3 U0 3.196008 1_655
Rh3 U0 3.196008 1_555
Rh3 U2 3.228561 1_555
Rh3 U3 3.233385 1_655
Rh3 U3 3.233385 1_555
