# generated using pymatgen
data_Cs2KSbI6
_symmetry_space_group_name_H-M   'P 1'
_cell_length_a   9.07325056
_cell_length_b   9.07325056
_cell_length_c   9.07325056
_cell_angle_alpha   60.00000000
_cell_angle_beta   60.00000000
_cell_angle_gamma   60.00000000
_symmetry_Int_Tables_number   1
_chemical_formula_structural   Cs2KSbI6
_chemical_formula_sum   'Cs2 K1 Sb1 I6'
_cell_volume   528.16998221
_cell_formula_units_Z   1
loop_
 _symmetry_equiv_pos_site_id
 _symmetry_equiv_pos_as_xyz
  1  'x, y, z'
loop_
 _atom_site_type_symbol
 _atom_site_label
 _atom_site_symmetry_multiplicity
 _atom_site_fract_x
 _atom_site_fract_y
 _atom_site_fract_z
 _atom_site_occupancy
  Cs  Cs0  1  0.75000000  0.75000000  0.75000000  1
  Cs  Cs1  1  0.25000000  0.25000000  0.25000000  1
  K  K0  1  0.50000000  0.50000000  0.50000000  1
  Sb  Sb0  1  0.00000000  0.00000000  0.00000000  1
  I  I0  1  0.76391000  0.23609000  0.23609000  1
  I  I1  1  0.23609000  0.23609000  0.76391000  1
  I  I2  1  0.23609000  0.76391000  0.76391000  1
  I  I3  1  0.23609000  0.76391000  0.23609000  1
  I  I4  1  0.76391000  0.23609000  0.76391000  1
  I  I5  1  0.76391000  0.76391000  0.23609000  1
loop_
_geom_bond_atom_site_label_1
_geom_bond_atom_site_label_2
_geom_bond_distance
_geom_bond_site_symmetry_2
Cs0 I5 4.540135 1_555
Cs0 I0 4.540135 1_556
Cs0 I0 4.540135 1_565
Cs0 I2 4.540135 1_555
Cs0 I3 4.540135 1_655
Cs0 I1 4.540135 1_565
Cs0 I3 4.540135 1_556
Cs0 I5 4.540135 1_556
Cs0 I1 4.540135 1_655
Cs0 I4 4.540135 1_555
Cs0 I2 4.540135 1_655
Cs0 I4 4.540135 1_565
Cs1 I1 4.540135 1_554
Cs1 I5 4.540135 1_545
Cs1 I4 4.540135 1_554
Cs1 I0 4.540135 1_455
Cs1 I3 4.540135 1_545
Cs1 I5 4.540135 1_455
Cs1 I0 4.540135 1_555
Cs1 I4 4.540135 1_455
Cs1 I2 4.540135 1_554
Cs1 I2 4.540135 1_545
Cs1 I3 4.540135 1_555
Cs1 I1 4.540135 1_555
I0 Sb0 3.029392 1_655
I0 K0 3.386365 1_555
I1 Sb0 3.029392 1_556
I1 K0 3.386365 1_555
I2 Sb0 3.029392 1_566
I2 K0 3.386365 1_555
I3 Sb0 3.029392 1_565
I3 K0 3.386365 1_555
I4 Sb0 3.029392 1_656
I4 K0 3.386365 1_555
I5 Sb0 3.029392 1_665
I5 K0 3.386365 1_555
