# generated using pymatgen
data_UTl
_symmetry_space_group_name_H-M   'P 1'
_cell_length_a   6.24811944
_cell_length_b   6.24811944
_cell_length_c   11.58556600
_cell_angle_alpha   90.00000000
_cell_angle_beta   90.00000000
_cell_angle_gamma   119.99999408
_symmetry_Int_Tables_number   1
_chemical_formula_structural   UTl
_chemical_formula_sum   'U8 Tl8'
_cell_volume   391.69367555
_cell_formula_units_Z   8
loop_
 _symmetry_equiv_pos_site_id
 _symmetry_equiv_pos_as_xyz
  1  'x, y, z'
loop_
 _atom_site_type_symbol
 _atom_site_label
 _atom_site_symmetry_multiplicity
 _atom_site_fract_x
 _atom_site_fract_y
 _atom_site_fract_z
 _atom_site_occupancy
  U  U0_0  1  0.00000000  0.00000000  0.00000000  1
  U  U0_1  1  0.00000000  0.00000000  0.50000000  1
  U  U0_2  1  0.00000000  0.50000000  0.00000000  1
  U  U0_3  1  0.00000000  0.50000000  0.50000000  1
  U  U0_4  1  0.50000000  0.00000000  0.00000000  1
  U  U0_5  1  0.50000000  0.00000000  0.50000000  1
  U  U0_6  1  0.50000000  0.50000000  0.00000000  1
  U  U0_7  1  0.50000000  0.50000000  0.50000000  1
  Tl  Tl0_0  1  0.16666650  0.33333350  0.25000000  1
  Tl  Tl0_1  1  0.16666650  0.33333350  0.75000000  1
  Tl  Tl0_2  1  0.16666650  0.83333350  0.25000000  1
  Tl  Tl0_3  1  0.16666650  0.83333350  0.75000000  1
  Tl  Tl0_4  1  0.66666650  0.33333350  0.25000000  1
  Tl  Tl0_5  1  0.66666650  0.33333350  0.75000000  1
  Tl  Tl0_6  1  0.66666650  0.83333350  0.25000000  1
  Tl  Tl0_7  1  0.66666650  0.83333350  0.75000000  1
loop_
_geom_bond_atom_site_label_1
_geom_bond_atom_site_label_2
_geom_bond_distance
_geom_bond_site_symmetry_2
U0_0 U0_4 3.124060 1_555
U0_0 U0_2 3.124060 1_555
U0_0 U0_4 3.124060 1_455
U0_0 U0_2 3.124060 1_545
U0_0 U0_6 3.124060 1_445
U0_0 U0_6 3.124060 1_555
U0_1 U0_5 3.124060 1_455
U0_1 U0_3 3.124060 1_545
U0_1 U0_5 3.124060 1_555
U0_1 U0_3 3.124060 1_555
U0_1 U0_7 3.124060 1_555
U0_1 U0_7 3.124060 1_445
U0_2 U0_6 3.124060 1_455
U0_2 U0_6 3.124060 1_555
U0_2 U0_4 3.124060 1_565
U0_2 U0_4 3.124060 1_455
U0_3 U0_7 3.124060 1_455
U0_3 U0_7 3.124060 1_555
U0_3 U0_5 3.124060 1_455
U0_3 U0_5 3.124060 1_565
U0_4 U0_6 3.124060 1_545
U0_4 U0_6 3.124060 1_555
U0_5 U0_7 3.124060 1_545
U0_5 U0_7 3.124060 1_555
Tl0_0 Tl0_4 3.124060 1_455
Tl0_0 Tl0_2 3.124060 1_545
Tl0_0 Tl0_4 3.124060 1_555
Tl0_0 Tl0_2 3.124060 1_555
Tl0_0 Tl0_6 3.124060 1_555
Tl0_0 Tl0_6 3.124060 1_445
Tl0_0 U0_2 3.412085 1_555
Tl0_0 U0_3 3.412085 1_555
Tl0_0 U0_6 3.412087 1_555
Tl0_0 U0_1 3.412087 1_555
Tl0_0 U0_7 3.412087 1_555
Tl0_0 U0_0 3.412087 1_555
Tl0_1 Tl0_5 3.124060 1_455
Tl0_1 Tl0_3 3.124060 1_555
Tl0_1 Tl0_3 3.124060 1_545
Tl0_1 Tl0_5 3.124060 1_555
Tl0_1 Tl0_7 3.124060 1_445
Tl0_1 Tl0_7 3.124060 1_555
Tl0_1 U0_2 3.412085 1_556
Tl0_1 U0_3 3.412085 1_555
Tl0_1 U0_0 3.412087 1_556
Tl0_1 U0_1 3.412087 1_555
Tl0_1 U0_7 3.412087 1_555
Tl0_1 U0_6 3.412087 1_556
Tl0_2 Tl0_6 3.124060 1_555
Tl0_2 Tl0_6 3.124060 1_455
Tl0_2 Tl0_4 3.124060 1_565
Tl0_2 Tl0_4 3.124060 1_455
Tl0_2 U0_0 3.412085 1_565
Tl0_2 U0_1 3.412085 1_565
Tl0_2 U0_4 3.412087 1_565
Tl0_2 U0_3 3.412087 1_555
Tl0_2 U0_2 3.412087 1_555
Tl0_2 U0_5 3.412087 1_565
Tl0_3 Tl0_7 3.124060 1_555
Tl0_3 Tl0_7 3.124060 1_455
Tl0_3 Tl0_5 3.124060 1_455
Tl0_3 Tl0_5 3.124060 1_565
Tl0_3 U0_0 3.412085 1_566
Tl0_3 U0_1 3.412085 1_565
Tl0_3 U0_2 3.412087 1_556
Tl0_3 U0_3 3.412087 1_555
Tl0_3 U0_4 3.412087 1_566
Tl0_3 U0_5 3.412087 1_565
Tl0_4 Tl0_6 3.124060 1_555
Tl0_4 Tl0_6 3.124060 1_545
Tl0_4 U0_7 3.412085 1_555
Tl0_4 U0_6 3.412085 1_555
Tl0_4 U0_2 3.412087 1_655
Tl0_4 U0_3 3.412087 1_655
Tl0_4 U0_4 3.412087 1_555
Tl0_4 U0_5 3.412087 1_555
Tl0_5 Tl0_7 3.124060 1_555
Tl0_5 Tl0_7 3.124060 1_545
Tl0_5 U0_6 3.412085 1_556
Tl0_5 U0_7 3.412085 1_555
Tl0_5 U0_4 3.412087 1_556
Tl0_5 U0_3 3.412087 1_655
Tl0_5 U0_5 3.412087 1_555
Tl0_5 U0_2 3.412087 1_656
Tl0_6 U0_5 3.412085 1_565
Tl0_6 U0_4 3.412085 1_565
Tl0_6 U0_6 3.412087 1_555
Tl0_6 U0_7 3.412087 1_555
Tl0_6 U0_0 3.412087 1_665
Tl0_6 U0_1 3.412087 1_665
Tl0_7 U0_4 3.412085 1_566
Tl0_7 U0_5 3.412085 1_565
Tl0_7 U0_7 3.412087 1_555
Tl0_7 U0_0 3.412087 1_666
Tl0_7 U0_1 3.412087 1_665
Tl0_7 U0_6 3.412087 1_556
