# generated using pymatgen
data_Cr3FeO6
_symmetry_space_group_name_H-M   'P 1'
_cell_length_a   10.15768609
_cell_length_b   10.48076029
_cell_length_c   9.57629692
_cell_angle_alpha   81.79885345
_cell_angle_beta   85.57417961
_cell_angle_gamma   89.24717315
_symmetry_Int_Tables_number   1
_chemical_formula_structural   Cr3FeO6
_chemical_formula_sum   'Cr24 Fe8 O48'
_cell_volume   1006.05788021
_cell_formula_units_Z   8
loop_
 _symmetry_equiv_pos_site_id
 _symmetry_equiv_pos_as_xyz
  1  'x, y, z'
loop_
 _atom_site_type_symbol
 _atom_site_label
 _atom_site_symmetry_multiplicity
 _atom_site_fract_x
 _atom_site_fract_y
 _atom_site_fract_z
 _atom_site_occupancy
  Cr  Cr0  1  0.31041900  0.85571800  0.41627300  1
  Cr  Cr1  1  0.07035400  0.87433100  0.29949200  1
  Cr  Cr2  1  0.98438800  0.64958000  0.15013200  1
  Cr  Cr3  1  0.61847700  0.12559000  0.79856900  1
  Cr  Cr4  1  0.50270300  0.33012400  0.97951300  1
  Cr  Cr5  1  0.19505300  0.22870600  0.96696700  1
  Cr  Cr6  1  0.15637400  0.30045600  0.61944500  1
  Cr  Cr7  1  0.67341400  0.85759600  0.98870200  1
  Cr  Cr8  1  0.91837900  0.32551900  0.20827200  1
  Cr  Cr9  1  0.85941000  0.12854500  0.48183300  1
  Cr  Cr10  1  0.90296000  0.28755000  0.93304500  1
  Cr  Cr11  1  0.95592500  0.05173600  0.74892800  1
  Cr  Cr12  1  0.51118100  0.67193900  0.91677700  1
  Cr  Cr13  1  0.41661900  0.27430600  0.64515200  1
  Cr  Cr14  1  0.94277800  0.44494700  0.44807600  1
  Cr  Cr15  1  0.88295600  0.59555000  0.88029000  1
  Cr  Cr16  1  0.20589300  0.41378500  0.13434900  1
  Cr  Cr17  1  0.81864900  0.68581300  0.47017400  1
  Cr  Cr18  1  0.07218200  0.81429500  0.64336700  1
  Cr  Cr19  1  0.66131800  0.87389600  0.34325900  1
  Cr  Cr20  1  0.83236600  0.05294500  0.20278300  1
  Cr  Cr21  1  0.15884300  0.74532800  0.92780200  1
  Cr  Cr22  1  0.31948200  0.59683000  0.64817000  1
  Cr  Cr23  1  0.14199100  0.17751900  0.35810700  1
  Fe  Fe0  1  0.29507500  0.01897800  0.72940500  1
  Fe  Fe1  1  0.67465000  0.58644700  0.15939000  1
  Fe  Fe2  1  0.51387600  0.08138300  0.18243300  1
  Fe  Fe3  1  0.35757900  0.67386000  0.17401200  1
  Fe  Fe4  1  0.42181400  0.34637900  0.33478300  1
  Fe  Fe5  1  0.76625400  0.83916600  0.71401200  1
  Fe  Fe6  1  0.48967800  0.80631100  0.63046400  1
  Fe  Fe7  1  0.68896400  0.35474400  0.58286700  1
  O  O0  1  0.25915700  0.19640000  0.77637400  1
  O  O1  1  0.70779300  0.69354900  0.31306200  1
  O  O2  1  0.04488500  0.33634800  0.03221500  1
  O  O3  1  0.56172700  0.31411700  0.76159100  1
  O  O4  1  0.77027400  0.18280700  0.65614000  1
  O  O5  1  0.04053200  0.16417600  0.56715600  1
  O  O6  1  0.55286100  0.50953200  0.00517600  1
  O  O7  1  0.12543300  0.79873800  0.15004000  1
  O  O8  1  0.91082000  0.95246300  0.59964600  1
  O  O9  1  0.84451800  0.42238400  0.83207500  1
  O  O10  1  0.90756500  0.70581300  0.67822700  1
  O  O11  1  0.72528700  0.69879600  0.89338100  1
  O  O12  1  0.12647300  0.77084600  0.45503200  1
  O  O13  1  0.47589500  0.92542200  0.32555700  1
  O  O14  1  0.53445600  0.35541000  0.48319600  1
  O  O15  1  0.31181500  0.88940900  0.60542300  1
  O  O16  1  0.82260400  0.31962100  0.40374000  1
  O  O17  1  0.10852700  0.92483200  0.79332200  1
  O  O18  1  0.72105200  0.05989900  0.37066400  1
  O  O19  1  0.96512200  0.73336000  0.95842800  1
  O  O20  1  0.14029900  0.58236800  0.06203800  1
  O  O21  1  0.28757300  0.24685600  0.47221200  1
  O  O22  1  0.78507900  0.50899900  0.55119000  1
  O  O23  1  0.06988300  0.37180300  0.31024000  1
  O  O24  1  0.23230800  0.22136900  0.17269900  1
  O  O25  1  0.48249300  0.09738800  0.67692900  1
  O  O26  1  0.34516900  0.73414000  0.96281400  1
  O  O27  1  0.38324900  0.68622900  0.47846400  1
  O  O28  1  0.29580600  0.42961000  0.64188900  1
  O  O29  1  0.51528400  0.13935400  0.97543400  1
  O  O30  1  0.96109400  0.60640600  0.35670800  1
  O  O31  1  0.03593800  0.43004100  0.59393500  1
  O  O32  1  0.50844500  0.27478400  0.18678400  1
  O  O33  1  0.54629600  0.73178500  0.10076800  1
  O  O34  1  0.89172600  0.87909900  0.31211400  1
  O  O35  1  0.96728600  0.14310500  0.29042100  1
  O  O36  1  0.31659300  0.37382100  0.96342600  1
  O  O37  1  0.80180500  0.22983000  0.09496500  1
  O  O38  1  0.33105200  0.49007700  0.24672300  1
  O  O39  1  0.67940000  0.80159000  0.54770000  1
  O  O40  1  0.17516100  0.67293800  0.74527600  1
  O  O41  1  0.69131500  0.95471500  0.14099700  1
  O  O42  1  0.18746300  0.99500300  0.33966300  1
  O  O43  1  0.46602400  0.62256400  0.73809800  1
  O  O44  1  0.85954800  0.51361100  0.11140300  1
  O  O45  1  0.78077900  0.97878500  0.84919300  1
  O  O46  1  0.01289400  0.16070500  0.88427700  1
  O  O47  1  0.56926500  0.85214600  0.81758500  1
loop_
_geom_bond_atom_site_label_1
_geom_bond_atom_site_label_2
_geom_bond_distance
_geom_bond_site_symmetry_2
Cr0 O15 1.895382 1_555
Cr0 O13 1.933778 1_555
Cr0 O27 1.946565 1_555
Cr0 O42 2.004273 1_555
Cr0 O12 2.064613 1_555
Cr1 O7 1.782499 1_555
Cr1 O34 1.809646 1_455
Cr1 O12 1.836791 1_555
Cr1 O42 1.847038 1_555
Cr2 O20 1.910505 1_655
Cr2 O19 1.941795 1_554
Cr2 O30 1.961972 1_555
Cr2 O44 2.011776 1_555
Cr2 O7 2.134185 1_655
Cr3 O25 1.926005 1_555
Cr3 O29 1.944204 1_555
Cr3 O4 2.015885 1_555
Cr3 O3 2.040551 1_555
Cr3 O45 2.272490 1_545
Cr4 O36 1.951752 1_555
Cr4 O32 1.992015 1_556
Cr4 O29 2.007564 1_555
Cr4 O6 2.007974 1_556
Cr4 O3 2.155651 1_555
Cr5 O0 1.963924 1_555
Cr5 O36 1.966380 1_555
Cr5 O2 1.999675 1_556
Cr5 O24 2.025263 1_556
Cr5 O46 2.231693 1_555
Cr6 O31 1.818967 1_555
Cr6 O21 1.998967 1_555
Cr6 O5 2.003639 1_555
Cr6 O28 2.016136 1_555
Cr6 O0 2.069407 1_555
Cr7 O41 1.914538 1_556
Cr7 O45 1.978612 1_555
Cr7 O33 1.996201 1_556
Cr7 O47 2.025714 1_555
Cr7 O11 2.053554 1_555
Cr8 O23 1.985902 1_655
Cr8 O2 2.030150 1_655
Cr8 O37 2.031075 1_555
Cr8 O35 2.031515 1_555
Cr8 O16 2.035101 1_555
Cr8 O44 2.153304 1_555
Cr9 O4 1.988349 1_555
Cr9 O18 2.025368 1_555
Cr9 O35 2.049037 1_555
Cr9 O16 2.075027 1_555
Cr9 O8 2.103075 1_545
Cr9 O5 2.128140 1_655
Cr10 O9 1.720777 1_555
Cr10 O46 1.813861 1_655
Cr10 O37 1.824523 1_556
Cr10 O2 1.900265 1_656
Cr11 O8 1.968272 1_545
Cr11 O46 1.968410 1_655
Cr11 O45 2.057738 1_545
Cr11 O17 2.058819 1_645
Cr11 O5 2.089947 1_655
Cr11 O4 2.464780 1_555
Cr12 O26 1.844268 1_555
Cr12 O6 1.848908 1_556
Cr12 O43 1.945761 1_555
Cr12 O33 2.010794 1_556
Cr12 O47 2.061201 1_555
Cr12 O11 2.186817 1_555
Cr13 O25 1.953552 1_555
Cr13 O14 1.981101 1_555
Cr13 O3 1.998140 1_555
Cr13 O28 2.023681 1_555
Cr13 O0 2.058013 1_555
Cr13 O21 2.241568 1_555
Cr14 O31 1.734574 1_655
Cr14 O30 1.795688 1_555
Cr14 O16 1.917521 1_555
Cr14 O22 1.976969 1_555
Cr14 O23 1.999138 1_655
Cr15 O11 1.927120 1_555
Cr15 O19 1.943980 1_555
Cr15 O9 1.986216 1_555
Cr15 O10 2.106475 1_555
Cr15 O44 2.252603 1_556
Cr16 O20 1.933007 1_555
Cr16 O38 1.974089 1_555
Cr16 O36 2.004531 1_554
Cr16 O24 2.015812 1_555
Cr16 O23 2.093993 1_555
Cr16 O2 2.190499 1_555
Cr17 O22 1.928195 1_555
Cr17 O1 1.939713 1_555
Cr17 O30 1.987601 1_555
Cr17 O39 2.018439 1_555
Cr17 O10 2.287158 1_555
Cr17 O34 2.436633 1_555
Cr18 O12 1.959209 1_555
Cr18 O40 1.986414 1_555
Cr18 O10 2.013873 1_455
Cr18 O17 2.026887 1_555
Cr18 O8 2.197591 1_455
Cr18 O15 2.551266 1_555
Cr19 O13 1.965771 1_555
Cr19 O1 1.997664 1_555
Cr19 O41 2.002401 1_555
Cr19 O39 2.017305 1_555
Cr19 O18 2.106898 1_565
Cr19 O34 2.336758 1_555
Cr20 O18 1.902398 1_555
Cr20 O41 1.950941 1_545
Cr20 O35 1.978195 1_555
Cr20 O37 2.021774 1_555
Cr20 O34 2.074579 1_545
Cr21 O26 1.946573 1_555
Cr21 O19 1.969959 1_455
Cr21 O20 1.987392 1_556
Cr21 O40 1.997165 1_555
Cr21 O17 2.200960 1_555
Cr21 O7 2.276236 1_556
Cr22 O28 1.782251 1_555
Cr22 O43 1.817895 1_555
Cr22 O27 1.832388 1_555
Cr22 O40 1.902782 1_555
Cr23 O24 1.931895 1_555
Cr23 O35 1.990095 1_455
Cr23 O42 1.991064 1_545
Cr23 O21 2.100727 1_555
Cr23 O23 2.153886 1_555
Cr23 O5 2.166756 1_555
Fe0 O15 1.924953 1_545
Fe0 O0 1.997171 1_555
Fe0 O25 2.080318 1_555
Fe0 O17 2.153305 1_545
Fe1 O1 2.024024 1_555
Fe1 O33 2.037670 1_555
Fe1 O44 2.061678 1_555
Fe1 O6 2.238078 1_555
Fe2 O29 1.987725 1_554
Fe2 O13 1.998763 1_545
Fe2 O32 2.033290 1_555
Fe2 O41 2.268366 1_545
Fe3 O38 1.967148 1_555
Fe3 O26 2.044072 1_554
Fe3 O33 2.058333 1_555
Fe3 O7 2.691264 1_555
Fe4 O32 1.854634 1_555
Fe4 O38 1.884273 1_555
Fe4 O14 1.905323 1_555
Fe4 O21 2.011998 1_555
Fe5 O39 1.968481 1_555
Fe5 O10 2.034502 1_555
Fe5 O8 2.047541 1_555
Fe5 O45 2.101062 1_555
Fe5 O11 2.114905 1_555
Fe5 O47 2.175113 1_555
Fe6 O15 2.011476 1_555
Fe6 O39 2.029144 1_555
Fe6 O43 2.058277 1_555
Fe6 O47 2.138851 1_555
Fe6 O27 2.381742 1_555
Fe7 O22 1.874779 1_555
Fe7 O14 1.898220 1_555
Fe7 O4 2.027661 1_555
Fe7 O3 2.060612 1_555
Fe7 O16 2.174485 1_555
