# generated using pymatgen
data_Ba2InSbSe5
_symmetry_space_group_name_H-M   'P 1'
_cell_length_a   9.93179405
_cell_length_b   9.93179405
_cell_length_c   13.38214400
_cell_angle_alpha   90.00000000
_cell_angle_beta   90.00000000
_cell_angle_gamma   154.70601072
_symmetry_Int_Tables_number   1
_chemical_formula_structural   Ba2InSbSe5
_chemical_formula_sum   'Ba4 In2 Sb2 Se10'
_cell_volume   563.99650387
_cell_formula_units_Z   2
loop_
 _symmetry_equiv_pos_site_id
 _symmetry_equiv_pos_as_xyz
  1  'x, y, z'
loop_
 _atom_site_type_symbol
 _atom_site_label
 _atom_site_symmetry_multiplicity
 _atom_site_fract_x
 _atom_site_fract_y
 _atom_site_fract_z
 _atom_site_occupancy
  Ba  Ba0  1  0.88604100  0.11395900  0.81307900  1
  Ba  Ba1  1  0.11395900  0.88604100  0.31307900  1
  Ba  Ba2  1  0.87185800  0.12814200  0.19176800  1
  Ba  Ba3  1  0.12814200  0.87185800  0.69176800  1
  In  In0  1  0.56163900  0.43836100  0.05236000  1
  In  In1  1  0.43836100  0.56163900  0.55236000  1
  Sb  Sb0  1  0.78129700  0.21870300  0.47752700  1
  Sb  Sb1  1  0.21870300  0.78129700  0.97752700  1
  Se  Se0  1  0.95427200  0.04572800  0.44096300  1
  Se  Se1  1  0.04572800  0.95427200  0.94096300  1
  Se  Se2  1  0.71749800  0.28250200  0.83669000  1
  Se  Se3  1  0.28250200  0.71749800  0.33669000  1
  Se  Se4  1  0.68996300  0.31003700  0.13008500  1
  Se  Se5  1  0.31003700  0.68996300  0.63008500  1
  Se  Se6  1  0.64504900  0.35495100  0.49965700  1
  Se  Se7  1  0.35495100  0.64504900  0.99965700  1
  Se  Se8  1  0.49799000  0.50201000  0.22303100  1
  Se  Se9  1  0.50201000  0.49799000  0.72303100  1
loop_
_geom_bond_atom_site_label_1
_geom_bond_atom_site_label_2
_geom_bond_distance
_geom_bond_site_symmetry_2
Ba0 Se2 3.281886 1_555
Ba0 Se9 3.351506 1_655
Ba0 Se9 3.351506 1_545
Ba0 Se7 3.365359 1_655
Ba0 Se7 3.365359 1_545
Ba0 Se1 3.536632 1_645
Ba0 Se5 3.591004 1_545
Ba0 Se5 3.591004 1_655
Ba1 Se3 3.281886 1_555
Ba1 Se8 3.351506 1_565
Ba1 Se8 3.351506 1_455
Ba1 Se6 3.365359 1_565
Ba1 Se6 3.365359 1_455
Ba1 Se0 3.536632 1_465
Ba1 Se4 3.591004 1_455
Ba1 Se4 3.591004 1_565
Ba2 Se8 3.298452 1_545
Ba2 Se8 3.298452 1_655
Ba2 Se7 3.383068 1_654
Ba2 Se7 3.383068 1_544
Ba2 Se3 3.389538 1_545
Ba2 Se3 3.389538 1_655
Ba2 Se4 3.620772 1_555
Ba2 Se0 3.697577 1_555
Ba3 Se9 3.298452 1_565
Ba3 Se9 3.298452 1_455
Ba3 Se6 3.383068 1_455
Ba3 Se6 3.383068 1_565
Ba3 Se2 3.389538 1_565
Ba3 Se2 3.389538 1_455
Ba3 Se5 3.620772 1_555
Ba3 Se1 3.697577 1_555
In0 Se8 2.595809 1_555
In0 Se1 2.654400 1_544
In0 Se1 2.654400 1_654
In0 Se4 2.695864 1_555
In1 Se9 2.595809 1_555
In1 Se0 2.654400 1_565
In1 Se0 2.654400 1_455
In1 Se5 2.695864 1_555
Sb0 Se6 2.657265 1_555
Sb0 Se3 2.877691 1_545
Sb0 Se3 2.877691 1_655
Sb0 Se5 3.034252 1_655
Sb0 Se5 3.034252 1_545
Sb1 Se7 2.657265 1_555
Sb1 Se2 2.877691 1_565
Sb1 Se2 2.877691 1_455
Sb1 Se4 3.034252 1_566
Sb1 Se4 3.034252 1_456
