# generated using pymatgen
data_KNaMg14O15
_symmetry_space_group_name_H-M   'P 1'
_cell_length_a   8.47450246
_cell_length_b   8.79465804
_cell_length_c   4.41686550
_cell_angle_alpha   90.00000000
_cell_angle_beta   90.00000000
_cell_angle_gamma   90.00000000
_symmetry_Int_Tables_number   1
_chemical_formula_structural   KNaMg14O15
_chemical_formula_sum   'K1 Na1 Mg14 O15'
_cell_volume   329.19053690
_cell_formula_units_Z   1
loop_
 _symmetry_equiv_pos_site_id
 _symmetry_equiv_pos_as_xyz
  1  'x, y, z'
loop_
 _atom_site_type_symbol
 _atom_site_label
 _atom_site_symmetry_multiplicity
 _atom_site_fract_x
 _atom_site_fract_y
 _atom_site_fract_z
 _atom_site_occupancy
  K  K0  1  0.05899258  0.00000000  0.00000000  1
  Na  Na0  1  0.50214669  0.50000000  0.00000000  1
  Mg  Mg0  1  0.99315137  0.50000000  0.00000000  1
  Mg  Mg1  1  0.52245254  0.00000000  0.00000000  1
  Mg  Mg2  1  0.99548841  0.25482149  0.50000000  1
  Mg  Mg3  1  0.99548841  0.74517851  0.50000000  1
  Mg  Mg4  1  0.49688766  0.25009019  0.50000000  1
  Mg  Mg5  1  0.49688766  0.74990981  0.50000000  1
  Mg  Mg6  1  0.25094834  0.00000000  0.50000000  1
  Mg  Mg7  1  0.24936839  0.50000000  0.50000000  1
  Mg  Mg8  1  0.76290011  0.00000000  0.50000000  1
  Mg  Mg9  1  0.74272427  0.50000000  0.50000000  1
  Mg  Mg10  1  0.24737886  0.28138519  -0.00000000  1
  Mg  Mg11  1  0.24737886  0.71861481  0.00000000  1
  Mg  Mg12  1  0.75633218  0.25008546  -0.00000000  1
  Mg  Mg13  1  0.75633218  0.74991454  0.00000000  1
  O  O0  1  0.23840133  0.50000000  0.00000000  1
  O  O1  1  0.75014857  0.00000000  0.00000000  1
  O  O2  1  0.75694596  0.50000000  0.00000000  1
  O  O3  1  0.24493946  0.23850831  0.50000000  1
  O  O4  1  0.24493946  0.76149169  0.50000000  1
  O  O5  1  0.74561059  0.24824040  0.50000000  1
  O  O6  1  0.74561059  0.75175960  0.50000000  1
  O  O7  1  0.00351954  0.00000000  0.50000000  1
  O  O8  1  0.00108596  0.50000000  0.50000000  1
  O  O9  1  0.48776952  0.00000000  0.50000000  1
  O  O10  1  0.49165000  0.50000000  0.50000000  1
  O  O11  1  0.00324960  0.26967556  0.00000000  1
  O  O12  1  0.00324960  0.73032444  0.00000000  1
  O  O13  1  0.47901066  0.22396402  0.00000000  1
  O  O14  1  0.47901066  0.77603598  0.00000000  1
loop_
_geom_bond_atom_site_label_1
_geom_bond_atom_site_label_2
_geom_bond_distance
_geom_bond_site_symmetry_2
K0 O7 2.257914 1_555
K0 O7 2.257914 1_554
K0 O11 2.418292 1_555
K0 O12 2.418292 1_545
K0 O1 2.617299 1_455
Na0 O2 2.159297 1_555
Na0 O10 2.210224 1_555
Na0 O10 2.210224 1_554
Na0 O0 2.235111 1_555
Na0 O14 2.435547 1_555
Na0 O13 2.435547 1_555
Mg0 O2 2.001723 1_555
Mg0 O12 2.027432 1_655
Mg0 O11 2.027432 1_655
Mg0 O0 2.078371 1_655
Mg0 O8 2.209456 1_655
Mg0 O8 2.209456 1_654
Mg1 O1 1.929611 1_555
Mg1 O13 2.003796 1_555
Mg1 O14 2.003796 1_545
Mg1 O9 2.227906 1_554
Mg1 O9 2.227906 1_555
Mg2 O5 2.118381 1_555
Mg2 O3 2.118836 1_655
Mg2 O8 2.156783 1_655
Mg2 O11 2.213271 1_655
Mg2 O11 2.213271 1_656
Mg2 O7 2.242101 1_655
Mg3 O6 2.118381 1_555
Mg3 O4 2.118836 1_655
Mg3 O8 2.156783 1_655
Mg3 O12 2.213271 1_656
Mg3 O12 2.213271 1_655
Mg3 O7 2.242101 1_665
Mg4 O5 2.107866 1_555
Mg4 O3 2.137564 1_555
Mg4 O10 2.198319 1_555
Mg4 O9 2.200815 1_555
Mg4 O13 2.225516 1_555
Mg4 O13 2.225516 1_556
Mg5 O6 2.107866 1_555
Mg5 O4 2.137564 1_555
Mg5 O10 2.198319 1_555
Mg5 O9 2.200815 1_565
Mg5 O14 2.225516 1_556
Mg5 O14 2.225516 1_555
Mg6 O9 2.006942 1_555
Mg6 O7 2.096836 1_555
Mg6 O4 2.098217 1_545
Mg6 O3 2.098217 1_555
Mg7 O10 2.053216 1_555
Mg7 O8 2.104070 1_555
Mg7 O0 2.210388 1_556
Mg7 O0 2.210388 1_555
Mg7 O3 2.300036 1_555
Mg7 O4 2.300036 1_555
Mg8 O7 2.039130 1_655
Mg8 O6 2.188101 1_545
Mg8 O5 2.188101 1_555
Mg8 O1 2.211075 1_556
Mg8 O1 2.211075 1_555
Mg8 O9 2.331595 1_555
Mg9 O10 2.127730 1_555
Mg9 O8 2.189487 1_655
Mg9 O2 2.211719 1_556
Mg9 O2 2.211719 1_555
Mg9 O5 2.214275 1_555
Mg9 O6 2.214275 1_555
Mg10 O0 1.924147 1_555
Mg10 O13 2.026883 1_555
Mg10 O11 2.071435 1_555
Mg10 O3 2.240490 1_554
Mg10 O3 2.240490 1_555
Mg11 O0 1.924147 1_555
Mg11 O14 2.026883 1_555
Mg11 O12 2.071435 1_555
Mg11 O4 2.240490 1_554
Mg11 O4 2.240490 1_555
Mg12 O11 2.099583 1_655
Mg12 O2 2.197919 1_555
Mg12 O1 2.200040 1_555
Mg12 O5 2.210361 1_554
Mg12 O5 2.210361 1_555
Mg12 O13 2.361363 1_555
Mg13 O12 2.099583 1_655
Mg13 O2 2.197919 1_555
Mg13 O1 2.200040 1_565
Mg13 O6 2.210361 1_555
Mg13 O6 2.210361 1_554
Mg13 O14 2.361363 1_555
