# generated using pymatgen
data_LiMg14FeO16
_symmetry_space_group_name_H-M   'P 1'
_cell_length_a   8.50592847
_cell_length_b   8.51345256
_cell_length_c   4.24779693
_cell_angle_alpha   90.00000000
_cell_angle_beta   90.00000000
_cell_angle_gamma   90.00000000
_symmetry_Int_Tables_number   1
_chemical_formula_structural   LiMg14FeO16
_chemical_formula_sum   'Li1 Mg14 Fe1 O16'
_cell_volume   307.60344375
_cell_formula_units_Z   1
loop_
 _symmetry_equiv_pos_site_id
 _symmetry_equiv_pos_as_xyz
  1  'x, y, z'
loop_
 _atom_site_type_symbol
 _atom_site_label
 _atom_site_symmetry_multiplicity
 _atom_site_fract_x
 _atom_site_fract_y
 _atom_site_fract_z
 _atom_site_occupancy
  Li  Li0  1  0.00000000  0.50000000  0.00000000  1
  Mg  Mg0  1  0.50000000  0.00000000  0.00000000  1
  Mg  Mg1  1  0.50000000  0.50000000  0.00000000  1
  Mg  Mg2  1  0.00000000  0.26019795  0.50000000  1
  Mg  Mg3  1  0.00000000  0.73980205  0.50000000  1
  Mg  Mg4  1  0.50000000  0.25235688  0.50000000  1
  Mg  Mg5  1  0.50000000  0.74764312  0.50000000  1
  Mg  Mg6  1  0.25223589  0.00000000  0.50000000  1
  Mg  Mg7  1  0.24442370  0.50000000  0.50000000  1
  Mg  Mg8  1  0.74776411  0.00000000  0.50000000  1
  Mg  Mg9  1  0.75557630  0.50000000  0.50000000  1
  Mg  Mg10  1  0.24931452  0.25670848  0.00000000  1
  Mg  Mg11  1  0.24931452  0.74329152  0.00000000  1
  Mg  Mg12  1  0.75068548  0.25670848  0.00000000  1
  Mg  Mg13  1  0.75068548  0.74329152  0.00000000  1
  Fe  Fe0  1  0.00000000  0.00000000  0.00000000  1
  O  O0  1  0.24511595  0.00000000  0.00000000  1
  O  O1  1  0.25607380  0.50000000  0.00000000  1
  O  O2  1  0.75488405  0.00000000  0.00000000  1
  O  O3  1  0.74392620  0.50000000  0.00000000  1
  O  O4  1  0.24883441  0.24780724  0.50000000  1
  O  O5  1  0.24883441  0.75219276  0.50000000  1
  O  O6  1  0.75116559  0.24780724  0.50000000  1
  O  O7  1  0.75116559  0.75219276  0.50000000  1
  O  O8  1  0.00000000  0.00000000  0.50000000  1
  O  O9  1  0.00000000  0.50000000  0.50000000  1
  O  O10  1  0.50000000  0.00000000  0.50000000  1
  O  O11  1  0.50000000  0.50000000  0.50000000  1
  O  O12  1  0.00000000  0.23463367  0.00000000  1
  O  O13  1  0.00000000  0.76536633  0.00000000  1
  O  O14  1  0.50000000  0.24616174  0.00000000  1
  O  O15  1  0.50000000  0.75383826  0.00000000  1
loop_
_geom_bond_atom_site_label_1
_geom_bond_atom_site_label_2
_geom_bond_distance
_geom_bond_site_symmetry_2
Li0 O9 2.123898 1_554
Li0 O9 2.123898 1_555
Li0 O1 2.178145 1_555
Li0 O3 2.178145 1_455
Li0 O13 2.259184 1_555
Li0 O12 2.259184 1_555
Mg0 O15 2.095686 1_545
Mg0 O14 2.095686 1_555
Mg0 O10 2.123898 1_555
Mg0 O10 2.123898 1_554
Mg0 O0 2.168025 1_555
Mg0 O2 2.168025 1_555
Mg1 O3 2.074819 1_555
Mg1 O1 2.074819 1_555
Mg1 O11 2.123898 1_554
Mg1 O11 2.123898 1_555
Mg1 O15 2.161040 1_555
Mg1 O14 2.161040 1_555
Mg2 O9 2.041543 1_555
Mg2 O6 2.119195 1_455
Mg2 O4 2.119195 1_555
Mg2 O12 2.135020 1_556
Mg2 O12 2.135020 1_555
Mg2 O8 2.215183 1_555
Mg3 O9 2.041543 1_555
Mg3 O7 2.119195 1_455
Mg3 O5 2.119195 1_555
Mg3 O13 2.135020 1_555
Mg3 O13 2.135020 1_556
Mg3 O8 2.215183 1_565
Mg4 O11 2.108298 1_555
Mg4 O14 2.124553 1_555
Mg4 O14 2.124553 1_556
Mg4 O4 2.136748 1_555
Mg4 O6 2.136748 1_555
Mg4 O10 2.148428 1_555
Mg5 O11 2.108298 1_555
Mg5 O15 2.124553 1_556
Mg5 O15 2.124553 1_555
Mg5 O5 2.136748 1_555
Mg5 O7 2.136748 1_555
Mg5 O10 2.148428 1_565
Mg6 O10 2.107464 1_555
Mg6 O5 2.109894 1_545
Mg6 O4 2.109894 1_555
Mg6 O0 2.124762 1_556
Mg6 O0 2.124762 1_555
Mg6 O8 2.145500 1_555
Mg7 O9 2.079051 1_555
Mg7 O1 2.126209 1_556
Mg7 O1 2.126209 1_555
Mg7 O5 2.147359 1_555
Mg7 O4 2.147359 1_555
Mg7 O11 2.173914 1_555
Mg8 O10 2.107464 1_555
Mg8 O7 2.109894 1_545
Mg8 O6 2.109894 1_555
Mg8 O2 2.124762 1_555
Mg8 O2 2.124762 1_556
Mg8 O8 2.145500 1_655
Mg9 O9 2.079051 1_655
Mg9 O3 2.126209 1_556
Mg9 O3 2.126209 1_555
Mg9 O6 2.147359 1_555
Mg9 O7 2.147359 1_555
Mg9 O11 2.173914 1_555
Mg10 O1 2.072049 1_555
Mg10 O4 2.125254 1_554
Mg10 O4 2.125254 1_555
Mg10 O12 2.128963 1_555
Mg10 O14 2.134202 1_555
Mg10 O0 2.185767 1_555
Mg11 O1 2.072049 1_555
Mg11 O5 2.125254 1_554
Mg11 O5 2.125254 1_555
Mg11 O13 2.128963 1_555
Mg11 O15 2.134202 1_555
Mg11 O0 2.185767 1_565
Mg12 O3 2.072049 1_555
Mg12 O6 2.125254 1_554
Mg12 O6 2.125254 1_555
Mg12 O12 2.128963 1_655
Mg12 O14 2.134202 1_555
Mg12 O2 2.185767 1_555
Mg13 O3 2.072049 1_555
Mg13 O7 2.125254 1_554
Mg13 O7 2.125254 1_555
Mg13 O13 2.128963 1_655
Mg13 O15 2.134202 1_555
Mg13 O2 2.185767 1_565
Fe0 O13 1.997543 1_545
Fe0 O12 1.997543 1_555
Fe0 O2 2.084939 1_455
Fe0 O0 2.084939 1_555
Fe0 O8 2.123898 1_554
Fe0 O8 2.123898 1_555
