# generated using pymatgen
data_CaPrV2O6
_symmetry_space_group_name_H-M   'P 1'
_cell_length_a   5.52978900
_cell_length_b   5.63639400
_cell_length_c   7.60079600
_cell_angle_alpha   90.00000000
_cell_angle_beta   90.00000000
_cell_angle_gamma   90.00000000
_symmetry_Int_Tables_number   1
_chemical_formula_structural   CaPrV2O6
_chemical_formula_sum   'Ca2 Pr2 V4 O12'
_cell_volume   236.90213829
_cell_formula_units_Z   2
loop_
 _symmetry_equiv_pos_site_id
 _symmetry_equiv_pos_as_xyz
  1  'x, y, z'
loop_
 _atom_site_type_symbol
 _atom_site_label
 _atom_site_symmetry_multiplicity
 _atom_site_fract_x
 _atom_site_fract_y
 _atom_site_fract_z
 _atom_site_occupancy
  Ca  Ca0  1  0.48716000  0.20592200  0.00000000  1
  Ca  Ca1  1  0.98716000  0.79407800  0.50000000  1
  Pr  Pr0  1  0.01280600  0.70701900  0.00000000  1
  Pr  Pr1  1  0.51280600  0.29298100  0.50000000  1
  V  V0  1  0.00061500  0.24839300  0.75087600  1
  V  V1  1  0.00061500  0.24839300  0.24912400  1
  V  V2  1  0.50061500  0.75160700  0.25087600  1
  V  V3  1  0.50061500  0.75160700  0.74912400  1
  O  O0  1  0.07668600  0.23204000  0.50000000  1
  O  O1  1  0.21423400  0.95898400  0.79222700  1
  O  O2  1  0.21423400  0.95898400  0.20777300  1
  O  O3  1  0.28654300  0.45786200  0.20536500  1
  O  O4  1  0.28654300  0.45786200  0.79463500  1
  O  O5  1  0.42056200  0.73522000  0.50000000  1
  O  O6  1  0.57668600  0.76796000  0.00000000  1
  O  O7  1  0.71423400  0.04101600  0.70777300  1
  O  O8  1  0.71423400  0.04101600  0.29222700  1
  O  O9  1  0.78654300  0.54213800  0.70536500  1
  O  O10  1  0.78654300  0.54213800  0.29463500  1
  O  O11  1  0.92056200  0.26478000  0.00000000  1
loop_
_geom_bond_atom_site_label_1
_geom_bond_atom_site_label_2
_geom_bond_distance
_geom_bond_site_symmetry_2
Ca0 O3 2.384056 1_555
Ca0 O4 2.384056 1_554
Ca0 O11 2.419473 1_555
Ca0 O6 2.517679 1_545
Ca0 O2 2.590168 1_545
Ca0 O1 2.590168 1_544
Ca0 O8 2.715544 1_555
Ca0 O7 2.715544 1_554
Ca1 O10 2.384056 1_555
Ca1 O9 2.384056 1_555
Ca1 O5 2.419473 1_655
Ca1 O0 2.517679 1_665
Ca1 O7 2.590168 1_565
Ca1 O8 2.590168 1_565
Ca1 O1 2.715544 1_655
Ca1 O2 2.715544 1_655
O0 V0 1.954879 1_555
O0 V1 1.954879 1_555
O0 Pr1 2.435990 1_555
O1 V3 1.995354 1_555
O1 V0 2.038398 1_565
O1 Pr0 2.398242 1_556
O2 V2 1.995354 1_555
O2 V1 2.038398 1_565
O2 Pr0 2.398242 1_555
O3 V1 2.001126 1_555
O3 V2 2.064509 1_555
O3 Pr0 2.588441 1_555
O3 Pr1 2.728427 1_555
O4 V0 2.001126 1_555
O4 V3 2.064509 1_555
O4 Pr0 2.588441 1_556
O4 Pr1 2.728427 1_555
O5 V2 1.946790 1_555
O5 V3 1.946790 1_555
O5 Pr1 2.544290 1_555
O6 V3 1.954879 1_554
O6 V2 1.954879 1_555
O6 Pr0 2.435990 1_655
O7 V0 1.995354 1_655
O7 V3 2.038398 1_545
O7 Pr1 2.398242 1_555
O8 V1 1.995354 1_655
O8 V2 2.038398 1_545
O8 Pr1 2.398242 1_555
O9 V3 2.001126 1_555
O9 V0 2.064509 1_655
O9 Pr1 2.588441 1_555
O9 Pr0 2.728427 1_656
O10 V2 2.001126 1_555
O10 V1 2.064509 1_655
O10 Pr1 2.588441 1_555
O10 Pr0 2.728427 1_655
O11 V1 1.946790 1_655
O11 V0 1.946790 1_654
O11 Pr0 2.544290 1_655
