# generated using pymatgen
data_Li4FeCu3(PO4)4
_symmetry_space_group_name_H-M   'P 1'
_cell_length_a   6.10586100
_cell_length_b   4.76532400
_cell_length_c   10.07908835
_cell_angle_alpha   89.41891394
_cell_angle_beta   90.00000000
_cell_angle_gamma   90.00000000
_symmetry_Int_Tables_number   1
_chemical_formula_structural   Li4FeCu3(PO4)4
_chemical_formula_sum   'Li4 Fe1 Cu3 P4 O16'
_cell_volume   293.25016426
_cell_formula_units_Z   1
loop_
 _symmetry_equiv_pos_site_id
 _symmetry_equiv_pos_as_xyz
  1  'x, y, z'
loop_
 _atom_site_type_symbol
 _atom_site_label
 _atom_site_symmetry_multiplicity
 _atom_site_fract_x
 _atom_site_fract_y
 _atom_site_fract_z
 _atom_site_occupancy
  Li  Li0  1  0.25690800  0.00093100  0.00903100  1
  Li  Li1  1  0.74309200  0.00093100  0.00903100  1
  Li  Li2  1  0.74589800  0.49685100  0.49278700  1
  Li  Li3  1  0.25410200  0.49685100  0.49278700  1
  Fe  Fe0  1  0.00000000  0.01896200  0.71887800  1
  Cu  Cu0  1  0.50000000  0.95827700  0.28523200  1
  Cu  Cu1  1  0.50000000  0.55493300  0.78590900  1
  Cu  Cu2  1  0.00000000  0.44996300  0.21599700  1
  P  P0  1  0.00000000  0.91788500  0.40361400  1
  P  P1  1  0.00000000  0.58702300  0.90474300  1
  P  P2  1  0.50000000  0.42252900  0.09499800  1
  P  P3  1  0.50000000  0.07494000  0.59604400  1
  O  O0  1  0.00000000  0.80222700  0.55190900  1
  O  O1  1  0.20380500  0.78225600  0.33788200  1
  O  O2  1  0.79619500  0.78225600  0.33788200  1
  O  O3  1  0.50000000  0.75146600  0.60089700  1
  O  O4  1  0.50000000  0.74615900  0.09845700  1
  O  O5  1  0.19656800  0.73534100  0.83108800  1
  O  O6  1  0.80343200  0.73534100  0.83108800  1
  O  O7  1  0.00000000  0.69412500  0.04866700  1
  O  O8  1  0.50000000  0.31182400  0.94902800  1
  O  O9  1  0.70328900  0.28419400  0.16316900  1
  O  O10  1  0.29671100  0.28419400  0.16316900  1
  O  O11  1  0.00000000  0.26580000  0.89230000  1
  O  O12  1  0.00000000  0.24149400  0.40131200  1
  O  O13  1  0.70942800  0.20110800  0.66531400  1
  O  O14  1  0.29057200  0.20110800  0.66531400  1
  O  O15  1  0.50000000  0.20103000  0.45347500  1
loop_
_geom_bond_atom_site_label_1
_geom_bond_atom_site_label_2
_geom_bond_distance
_geom_bond_site_symmetry_2
Li0 O10 2.082606 1_555
Li0 O4 2.113594 1_545
Li0 O8 2.178427 1_554
Li0 O7 2.178515 1_545
Li0 O5 2.236120 1_544
Li0 O11 2.325487 1_554
Li1 O9 2.082606 1_555
Li1 O4 2.113594 1_545
Li1 O8 2.178427 1_554
Li1 O7 2.178515 1_645
Li1 O6 2.236120 1_544
Li1 O11 2.325487 1_654
Li2 O2 2.082939 1_555
Li2 O15 2.099950 1_555
Li2 O12 2.181913 1_655
Li2 O0 2.213034 1_655
Li2 O3 2.222738 1_555
Li2 O13 2.238272 1_555
Li3 O1 2.082939 1_555
Li3 O15 2.099950 1_555
Li3 O12 2.181913 1_555
Li3 O0 2.213034 1_555
Li3 O3 2.222738 1_555
Li3 O14 2.238272 1_555
Fe0 O0 1.983455 1_545
Fe0 O14 2.045267 1_555
Fe0 O13 2.045267 1_455
Fe0 O11 2.116737 1_555
Fe0 O5 2.124923 1_545
Fe0 O6 2.124923 1_445
Cu0 O1 2.060806 1_555
Cu0 O2 2.060806 1_555
Cu0 O15 2.062399 1_565
Cu0 O4 2.145745 1_555
Cu0 O9 2.329737 1_565
Cu0 O10 2.329737 1_565
Cu1 O8 2.001626 1_555
Cu1 O3 2.078218 1_555
Cu1 O5 2.094500 1_555
Cu1 O6 2.094500 1_555
Cu1 O14 2.448888 1_555
Cu1 O13 2.448888 1_555
Cu2 O7 2.039204 1_555
Cu2 O10 2.048957 1_555
Cu2 O9 2.048957 1_455
Cu2 O12 2.106645 1_555
Cu2 O1 2.367406 1_555
Cu2 O2 2.367406 1_455
O0 P0 1.587803 1_555
O1 P0 1.553668 1_555
O2 P0 1.553668 1_655
O3 P3 1.541738 1_565
O4 P2 1.542949 1_555
O5 P1 1.574974 1_555
O6 P1 1.574974 1_655
O7 P1 1.542662 1_554
O8 P2 1.567995 1_556
O9 P2 1.561471 1_555
O10 P2 1.561471 1_555
O11 P1 1.537128 1_555
O12 P0 1.542041 1_545
O13 P3 1.578803 1_555
O14 P3 1.578803 1_555
O15 P3 1.551899 1_555
