# generated using pymatgen
data_CeEuAl4
_symmetry_space_group_name_H-M   'P 1'
_cell_length_a   5.67285479
_cell_length_b   5.67283068
_cell_length_c   5.67287810
_cell_angle_alpha   59.99976514
_cell_angle_beta   59.99990599
_cell_angle_gamma   60.00008725
_symmetry_Int_Tables_number   1
_chemical_formula_structural   CeEuAl4
_chemical_formula_sum   'Ce1 Eu1 Al4'
_cell_volume   129.08897367
_cell_formula_units_Z   1
loop_
 _symmetry_equiv_pos_site_id
 _symmetry_equiv_pos_as_xyz
  1  'x, y, z'
loop_
 _atom_site_type_symbol
 _atom_site_label
 _atom_site_symmetry_multiplicity
 _atom_site_fract_x
 _atom_site_fract_y
 _atom_site_fract_z
 _atom_site_occupancy
  Ce  Ce0  1  0.24996580  0.25000481  0.25001470  1
  Eu  Eu0  1  0.99999496  0.00000438  0.00000035  1
  Al  Al0  1  0.62461659  0.62460548  0.12617053  1
  Al  Al1  1  0.62461654  0.12617462  0.62460494  1
  Al  Al2  1  0.12619055  0.62460630  0.62460210  1
  Al  Al3  1  0.62461656  0.62460541  0.62460838  1
loop_
_geom_bond_atom_site_label_1
_geom_bond_atom_site_label_2
_geom_bond_distance
_geom_bond_site_symmetry_2
Ce0 Eu0 3.473835 1_455
Ce0 Eu0 3.473838 1_456
Ce0 Eu0 3.473880 1_465
Ce0 Eu0 3.474037 1_555
Al0 Al2 2.827516 1_555
Al0 Al1 2.827526 1_555
Al0 Al3 2.827577 1_555
Al0 Al3 2.845301 1_554
Al0 Al1 2.845309 1_564
Al0 Al2 2.845342 1_654
Al0 Ce0 3.324907 1_655
Al0 Ce0 3.325140 1_565
Al0 Ce0 3.325172 1_555
Al0 Eu0 3.326904 1_555
Al0 Eu0 3.326927 1_565
Al0 Eu0 3.327014 1_465
Al1 Al2 2.827512 1_555
Al1 Al3 2.827523 1_555
Al1 Al3 2.845307 1_545
Al1 Al2 2.845338 1_645
Al1 Ce0 3.324863 1_655
Al1 Ce0 3.325174 1_556
Al1 Ce0 3.325178 1_555
Al1 Eu0 3.326933 1_556
Al1 Eu0 3.326939 1_555
Al1 Eu0 3.327003 1_456
Al2 Al3 2.827514 1_555
Al2 Al3 2.845341 1_455
Al2 Ce0 3.324953 1_565
Al2 Ce0 3.325050 1_556
Al2 Ce0 3.325054 1_555
Al2 Eu0 3.326954 1_456
Al2 Eu0 3.326975 1_466
Al2 Eu0 3.326982 1_465
Al3 Ce0 3.324910 1_655
Al3 Ce0 3.325143 1_565
Al3 Ce0 3.325171 1_556
Al3 Eu0 3.326903 1_556
Al3 Eu0 3.326932 1_565
Al3 Eu0 3.327013 1_466
