# generated using pymatgen
data_Ba2H4Pd
_symmetry_space_group_name_H-M   'P 1'
_cell_length_a   5.81347600
_cell_length_b   8.14331500
_cell_length_c   10.28488900
_cell_angle_alpha   90.00000000
_cell_angle_beta   90.00000000
_cell_angle_gamma   90.00000000
_symmetry_Int_Tables_number   1
_chemical_formula_structural   Ba2H4Pd
_chemical_formula_sum   'Ba8 H16 Pd4'
_cell_volume   486.89658368
_cell_formula_units_Z   4
loop_
 _symmetry_equiv_pos_site_id
 _symmetry_equiv_pos_as_xyz
  1  'x, y, z'
loop_
 _atom_site_type_symbol
 _atom_site_label
 _atom_site_symmetry_multiplicity
 _atom_site_fract_x
 _atom_site_fract_y
 _atom_site_fract_z
 _atom_site_occupancy
  Ba  Ba0  1  0.25000000  0.85329300  0.40540500  1
  Ba  Ba1  1  0.25000000  0.35329300  0.09459500  1
  Ba  Ba2  1  0.75000000  0.14670700  0.59459500  1
  Ba  Ba3  1  0.75000000  0.64670700  0.90540500  1
  Ba  Ba4  1  0.25000000  0.01090000  0.83266000  1
  Ba  Ba5  1  0.25000000  0.51090000  0.66734000  1
  Ba  Ba6  1  0.75000000  0.98910000  0.16734000  1
  Ba  Ba7  1  0.75000000  0.48910000  0.33266000  1
  H  H0  1  0.25000000  0.17460000  0.57957500  1
  H  H1  1  0.25000000  0.67460000  0.92042500  1
  H  H2  1  0.75000000  0.82540000  0.42042500  1
  H  H3  1  0.75000000  0.32540000  0.07957500  1
  H  H4  1  0.25000000  0.47601300  0.39234700  1
  H  H5  1  0.25000000  0.97601300  0.10765300  1
  H  H6  1  0.75000000  0.52398700  0.60765300  1
  H  H7  1  0.75000000  0.02398700  0.89234700  1
  H  H8  1  0.99398700  0.17926200  0.34445300  1
  H  H9  1  0.50601300  0.67926200  0.15554700  1
  H  H10  1  0.49398700  0.82073800  0.65554700  1
  H  H11  1  0.00601300  0.32073800  0.84445300  1
  H  H12  1  0.00601300  0.82073800  0.65554700  1
  H  H13  1  0.49398700  0.32073800  0.84445300  1
  H  H14  1  0.50601300  0.17926200  0.34445300  1
  H  H15  1  0.99398700  0.67926200  0.15554700  1
  Pd  Pd0  1  0.25000000  0.25838500  0.41748000  1
  Pd  Pd1  1  0.25000000  0.75838500  0.08252000  1
  Pd  Pd2  1  0.75000000  0.74161500  0.58252000  1
  Pd  Pd3  1  0.75000000  0.24161500  0.91748000  1
loop_
_geom_bond_atom_site_label_1
_geom_bond_atom_site_label_2
_geom_bond_distance
_geom_bond_site_symmetry_2
Ba0 H2 2.919689 1_455
Ba0 H2 2.919689 1_555
Ba0 H12 2.949724 1_555
Ba0 H10 2.949724 1_555
Ba0 H4 3.075244 1_555
Ba0 H14 3.107137 1_565
Ba0 H8 3.107137 1_465
Ba1 H3 2.919689 1_455
Ba1 H3 2.919689 1_555
Ba1 H13 2.949724 1_554
Ba1 H11 2.949724 1_554
Ba1 H5 3.075244 1_545
Ba1 H15 3.107137 1_455
Ba1 H9 3.107137 1_555
Ba2 H0 2.919689 1_655
Ba2 H0 2.919689 1_555
Ba2 H8 2.949724 1_555
Ba2 H14 2.949724 1_555
Ba2 H6 3.075244 1_555
Ba2 H10 3.107137 1_545
Ba2 H12 3.107137 1_645
Ba3 H1 2.919689 1_555
Ba3 H1 2.919689 1_655
Ba3 H9 2.949724 1_556
Ba3 H15 2.949724 1_556
Ba3 H7 3.075244 1_565
Ba3 H13 3.107137 1_555
Ba3 H11 3.107137 1_655
Ba4 H10 2.779942 1_545
Ba4 H12 2.779942 1_545
Ba4 H5 2.842505 1_546
Ba4 H1 2.883521 1_545
Ba4 H11 2.897013 1_555
Ba4 H13 2.897013 1_555
Ba4 H0 2.924450 1_555
Ba4 H7 2.972764 1_455
Ba4 H7 2.972764 1_555
Ba5 H11 2.779942 1_555
Ba5 H13 2.779942 1_555
Ba5 H4 2.842505 1_555
Ba5 H0 2.883521 1_555
Ba5 H12 2.897013 1_555
Ba5 H10 2.897013 1_555
Ba5 H1 2.924450 1_555
Ba5 H6 2.972764 1_555
Ba5 H6 2.972764 1_455
Ba6 H14 2.779942 1_565
Ba6 H8 2.779942 1_565
Ba6 H7 2.842505 1_564
Ba6 H3 2.883521 1_565
Ba6 H9 2.897013 1_555
Ba6 H15 2.897013 1_555
Ba6 H2 2.924450 1_555
Ba6 H5 2.972764 1_655
Ba6 H5 2.972764 1_555
Ba7 H15 2.779942 1_555
Ba7 H9 2.779942 1_555
Ba7 H6 2.842505 1_555
Ba7 H2 2.883521 1_555
Ba7 H8 2.897013 1_555
Ba7 H14 2.897013 1_555
Ba7 H3 2.924450 1_555
Ba7 H4 2.972764 1_555
Ba7 H4 2.972764 1_655
H0 Pd0 1.801343 1_555
H1 Pd1 1.801343 1_556
H2 Pd2 1.801343 1_555
H3 Pd3 1.801343 1_554
H4 Pd0 1.790965 1_555
H5 Pd1 1.790965 1_555
H6 Pd2 1.790965 1_555
H7 Pd3 1.790965 1_555
H8 Pd0 1.787282 1_655
H9 Pd1 1.787282 1_555
H10 Pd2 1.787282 1_555
H11 Pd3 1.787282 1_455
H12 Pd2 1.787282 1_455
H13 Pd3 1.787282 1_555
H14 Pd0 1.787282 1_555
H15 Pd1 1.787282 1_655
