# generated using pymatgen
data_YbCuPbSe3
_symmetry_space_group_name_H-M   'P 1'
_cell_length_a   4.01535413
_cell_length_b   7.05855869
_cell_length_c   10.42629340
_cell_angle_alpha   90.00000000
_cell_angle_beta   90.00000000
_cell_angle_gamma   106.52487495
_symmetry_Int_Tables_number   1
_chemical_formula_structural   YbCuPbSe3
_chemical_formula_sum   'Yb2 Cu2 Pb2 Se6'
_cell_volume   283.30281794
_cell_formula_units_Z   2
loop_
 _symmetry_equiv_pos_site_id
 _symmetry_equiv_pos_as_xyz
  1  'x, y, z'
loop_
 _atom_site_type_symbol
 _atom_site_label
 _atom_site_symmetry_multiplicity
 _atom_site_fract_x
 _atom_site_fract_y
 _atom_site_fract_z
 _atom_site_occupancy
  Yb  Yb0  1  0.00000000  0.00000000  0.00000000  1
  Yb  Yb1  1  0.00000000  0.00000000  0.50000000  1
  Cu  Cu0  1  0.46963995  0.93927990  0.25000000  1
  Cu  Cu1  1  0.53036005  0.06072010  0.75000000  1
  Pb  Pb0  1  0.75694430  0.51388860  0.25000000  1
  Pb  Pb1  1  0.24305570  0.48611140  0.75000000  1
  Se  Se0  1  0.92187222  0.84374444  0.75000000  1
  Se  Se1  1  0.07812778  0.15625556  0.25000000  1
  Se  Se2  1  0.63782396  0.27564792  0.93745577  1
  Se  Se3  1  0.36217604  0.72435208  0.43745577  1
  Se  Se4  1  0.36217604  0.72435208  0.06254423  1
  Se  Se5  1  0.63782396  0.27564792  0.56254423  1
loop_
_geom_bond_atom_site_label_1
_geom_bond_atom_site_label_2
_geom_bond_distance
_geom_bond_site_symmetry_2
Cu0 Se3 2.436244 1_555
Cu0 Se4 2.436244 1_555
Cu0 Se1 2.487289 1_665
Cu0 Se1 2.487289 1_565
Cu1 Se2 2.436244 1_555
Cu1 Se5 2.436244 1_555
Cu1 Se0 2.487289 1_445
Cu1 Se0 2.487289 1_545
Pb0 Se3 3.143102 1_655
Pb0 Se4 3.143102 1_655
Pb0 Se3 3.143102 1_555
Pb0 Se4 3.143102 1_555
Pb0 Se1 3.144470 1_655
Pb0 Se1 3.144470 1_555
Pb1 Se2 3.143102 1_455
Pb1 Se5 3.143102 1_455
Pb1 Se2 3.143102 1_555
Pb1 Se5 3.143102 1_555
Pb1 Se0 3.144470 1_455
Pb1 Se0 3.144470 1_555
Se0 Yb0 2.812878 1_666
Se0 Yb1 2.812878 1_665
Se1 Yb1 2.812878 1_555
Se1 Yb0 2.812878 1_555
Se2 Yb0 2.816984 1_656
Se2 Yb0 2.816984 1_556
Se3 Yb1 2.816984 1_565
Se3 Yb1 2.816984 1_665
Se4 Yb0 2.816984 1_565
Se4 Yb0 2.816984 1_665
Se5 Yb1 2.816984 1_655
Se5 Yb1 2.816984 1_555
