# generated using pymatgen
data_AlNi4As3
_symmetry_space_group_name_H-M   'P 1'
_cell_length_a   3.63910939
_cell_length_b   3.63910939
_cell_length_c   9.94628300
_cell_angle_alpha   90.00000000
_cell_angle_beta   90.00000000
_cell_angle_gamma   119.99998887
_symmetry_Int_Tables_number   1
_chemical_formula_structural   AlNi4As3
_chemical_formula_sum   'Al1 Ni4 As3'
_cell_volume   114.07269783
_cell_formula_units_Z   1
loop_
 _symmetry_equiv_pos_site_id
 _symmetry_equiv_pos_as_xyz
  1  'x, y, z'
loop_
 _atom_site_type_symbol
 _atom_site_label
 _atom_site_symmetry_multiplicity
 _atom_site_fract_x
 _atom_site_fract_y
 _atom_site_fract_z
 _atom_site_occupancy
  Al  Al0  1  0.66666700  0.33333300  0.00000000  1
  Ni  Ni0  1  0.00000000  0.00000000  0.12682400  1
  Ni  Ni1  1  0.00000000  0.00000000  0.62590100  1
  Ni  Ni2  1  0.00000000  0.00000000  0.37409900  1
  Ni  Ni3  1  0.00000000  0.00000000  0.87317600  1
  As  As0  1  0.66666700  0.33333300  0.50000000  1
  As  As1  1  0.33333300  0.66666700  0.24335200  1
  As  As2  1  0.33333300  0.66666700  0.75664800  1
loop_
_geom_bond_atom_site_label_1
_geom_bond_atom_site_label_2
_geom_bond_distance
_geom_bond_site_symmetry_2
Al0 Ni0 2.450625 1_655
Al0 Ni3 2.450625 1_654
Al0 Ni0 2.450628 1_665
Al0 Ni0 2.450628 1_555
Al0 Ni3 2.450628 1_664
Al0 Ni3 2.450628 1_554
Ni0 Ni2 2.459467 1_555
Ni1 Ni3 2.459467 1_555
Ni1 Ni2 2.504494 1_555
As0 Ni2 2.445912 1_655
As0 Ni1 2.445912 1_655
As0 Ni2 2.445915 1_665
As0 Ni2 2.445915 1_555
As0 Ni1 2.445915 1_665
As0 Ni1 2.445915 1_555
As1 Ni0 2.399519 1_565
As1 Ni0 2.399522 1_665
As1 Ni0 2.399522 1_555
As1 Ni2 2.470936 1_565
As1 Ni2 2.470939 1_665
As1 Ni2 2.470939 1_555
As2 Ni3 2.399519 1_565
As2 Ni3 2.399522 1_665
As2 Ni3 2.399522 1_555
As2 Ni1 2.470936 1_565
As2 Ni1 2.470939 1_665
As2 Ni1 2.470939 1_555
