# generated using pymatgen
data_Fe3(AsO4)4
_symmetry_space_group_name_H-M   'P 1'
_cell_length_a   4.99892500
_cell_length_b   9.53397113
_cell_length_c   14.80842156
_cell_angle_alpha   102.92177073
_cell_angle_beta   90.00000000
_cell_angle_gamma   90.00000000
_symmetry_Int_Tables_number   1
_chemical_formula_structural   Fe3(AsO4)4
_chemical_formula_sum   'Fe6 As8 O32'
_cell_volume   687.89099895
_cell_formula_units_Z   2
loop_
 _symmetry_equiv_pos_site_id
 _symmetry_equiv_pos_as_xyz
  1  'x, y, z'
loop_
 _atom_site_type_symbol
 _atom_site_label
 _atom_site_symmetry_multiplicity
 _atom_site_fract_x
 _atom_site_fract_y
 _atom_site_fract_z
 _atom_site_occupancy
  Fe  Fe0  1  0.04156200  0.32841400  0.12813100  1
  Fe  Fe1  1  0.95843800  0.67158600  0.87186900  1
  Fe  Fe2  1  0.54156200  0.17158600  0.37186900  1
  Fe  Fe3  1  0.45843800  0.82841400  0.62813100  1
  Fe  Fe4  1  0.50000000  0.50000000  0.00000000  1
  Fe  Fe5  1  0.00000000  0.00000000  0.50000000  1
  As  As0  1  0.44625700  0.89030900  0.85580300  1
  As  As1  1  0.05507400  0.34739900  0.89630600  1
  As  As2  1  0.55507400  0.15260100  0.60369400  1
  As  As3  1  0.44492600  0.84739900  0.39630600  1
  As  As4  1  0.55374300  0.10969100  0.14419700  1
  As  As5  1  0.94492600  0.65260100  0.10369400  1
  As  As6  1  0.05374300  0.39030900  0.35580300  1
  As  As7  1  0.94625700  0.60969100  0.64419700  1
  O  O0  1  0.99291000  0.55460000  0.74565000  1
  O  O1  1  0.71625000  0.17268700  0.50146300  1
  O  O2  1  0.12941800  0.21569600  0.80238100  1
  O  O3  1  0.10393900  0.77234400  0.65487400  1
  O  O4  1  0.87058200  0.78430400  0.19761900  1
  O  O5  1  0.50709000  0.05460000  0.24565000  1
  O  O6  1  0.62941800  0.28430400  0.69761900  1
  O  O7  1  0.78297700  0.87467100  0.40552200  1
  O  O8  1  0.92280600  0.52852700  0.44209700  1
  O  O9  1  0.00709000  0.44540000  0.25435000  1
  O  O10  1  0.39606100  0.27234400  0.15487400  1
  O  O11  1  0.21702300  0.12532900  0.59447800  1
  O  O12  1  0.21303400  0.51703900  0.90079000  1
  O  O13  1  0.07719400  0.47147300  0.55790300  1
  O  O14  1  0.87860600  0.14525700  0.11748900  1
  O  O15  1  0.37860600  0.35474300  0.38251100  1
  O  O16  1  0.71303400  0.98296100  0.59921000  1
  O  O17  1  0.37058200  0.71569600  0.30238100  1
  O  O18  1  0.42280600  0.97147300  0.05790300  1
  O  O19  1  0.28297700  0.62532900  0.09447800  1
  O  O20  1  0.62139400  0.64525700  0.61748900  1
  O  O21  1  0.12139400  0.85474300  0.88251100  1
  O  O22  1  0.28375000  0.82731300  0.49853700  1
  O  O23  1  0.21625000  0.32731300  0.99853700  1
  O  O24  1  0.78696600  0.48296100  0.09921000  1
  O  O25  1  0.49291000  0.94540000  0.75435000  1
  O  O26  1  0.89606100  0.22765600  0.34512600  1
  O  O27  1  0.57719400  0.02852700  0.94209700  1
  O  O28  1  0.78375000  0.67268700  0.00146300  1
  O  O29  1  0.71702300  0.37467100  0.90552200  1
  O  O30  1  0.28696600  0.01703900  0.40079000  1
  O  O31  1  0.60393900  0.72765600  0.84512600  1
loop_
_geom_bond_atom_site_label_1
_geom_bond_atom_site_label_2
_geom_bond_distance
_geom_bond_site_symmetry_2
Fe0 O14 1.901211 1_455
Fe0 O10 1.917724 1_555
Fe0 O9 1.958283 1_555
Fe0 O24 2.063122 1_455
Fe0 O23 2.106312 1_554
Fe1 O21 1.901211 1_655
Fe1 O31 1.917724 1_555
Fe1 O0 1.958283 1_555
Fe1 O12 2.063122 1_655
Fe1 O28 2.106312 1_556
Fe2 O15 1.901211 1_555
Fe2 O26 1.917724 1_555
Fe2 O5 1.958283 1_555
Fe2 O30 2.063122 1_555
Fe2 O1 2.106312 1_555
Fe3 O20 1.901211 1_555
Fe3 O3 1.917724 1_555
Fe3 O25 1.958283 1_555
Fe3 O16 2.063122 1_555
Fe3 O22 2.106312 1_555
Fe4 O19 1.953061 1_555
Fe4 O29 1.953061 1_554
Fe4 O24 2.085513 1_555
Fe4 O12 2.085513 1_554
Fe4 O28 2.169588 1_555
Fe4 O23 2.169588 1_554
Fe5 O11 1.953061 1_555
Fe5 O7 1.953061 1_445
Fe5 O30 2.085513 1_555
Fe5 O16 2.085513 1_445
Fe5 O1 2.169588 1_455
Fe5 O22 2.169588 1_545
As0 O25 1.714718 1_555
As0 O31 1.715058 1_555
As0 O21 1.722976 1_555
As0 O27 1.744930 1_565
As1 O2 1.693588 1_555
As1 O29 1.710583 1_455
As1 O23 1.762761 1_555
As1 O12 1.787650 1_555
As2 O6 1.693588 1_555
As2 O11 1.710583 1_555
As2 O1 1.762761 1_555
As2 O16 1.787650 1_545
As3 O17 1.693588 1_555
As3 O7 1.710583 1_555
As3 O22 1.762761 1_555
As3 O30 1.787650 1_565
As4 O5 1.714718 1_555
As4 O10 1.715058 1_555
As4 O14 1.722976 1_555
As4 O18 1.744930 1_545
As5 O4 1.693588 1_555
As5 O19 1.710583 1_655
As5 O28 1.762761 1_555
As5 O24 1.787650 1_555
As6 O9 1.714718 1_555
As6 O26 1.715058 1_455
As6 O15 1.722976 1_555
As6 O8 1.744930 1_455
As7 O0 1.714718 1_555
As7 O3 1.715058 1_655
As7 O20 1.722976 1_555
As7 O13 1.744930 1_655
