# generated using pymatgen
data_Li3Yb3(TeO6)2
_symmetry_space_group_name_H-M   'P 1'
_cell_length_a   10.83058052
_cell_length_b   10.83058052
_cell_length_c   10.83058052
_cell_angle_alpha   109.47122063
_cell_angle_beta   109.47122063
_cell_angle_gamma   109.47122063
_symmetry_Int_Tables_number   1
_chemical_formula_structural   Li3Yb3(TeO6)2
_chemical_formula_sum   'Li12 Yb12 Te8 O48'
_cell_volume   977.98752696
_cell_formula_units_Z   4
loop_
 _symmetry_equiv_pos_site_id
 _symmetry_equiv_pos_as_xyz
  1  'x, y, z'
loop_
 _atom_site_type_symbol
 _atom_site_label
 _atom_site_symmetry_multiplicity
 _atom_site_fract_x
 _atom_site_fract_y
 _atom_site_fract_z
 _atom_site_occupancy
  Li  Li0  1  0.62500000  0.37500000  0.75000000  1
  Li  Li1  1  0.37500000  0.62500000  0.25000000  1
  Li  Li2  1  0.87500000  0.12500000  0.25000000  1
  Li  Li3  1  0.37500000  0.75000000  0.62500000  1
  Li  Li4  1  0.62500000  0.25000000  0.37500000  1
  Li  Li5  1  0.12500000  0.87500000  0.75000000  1
  Li  Li6  1  0.12500000  0.25000000  0.87500000  1
  Li  Li7  1  0.87500000  0.75000000  0.12500000  1
  Li  Li8  1  0.75000000  0.62500000  0.37500000  1
  Li  Li9  1  0.25000000  0.37500000  0.62500000  1
  Li  Li10  1  0.25000000  0.87500000  0.12500000  1
  Li  Li11  1  0.75000000  0.12500000  0.87500000  1
  Yb  Yb0  1  0.87500000  0.62500000  0.75000000  1
  Yb  Yb1  1  0.12500000  0.37500000  0.25000000  1
  Yb  Yb2  1  0.62500000  0.87500000  0.25000000  1
  Yb  Yb3  1  0.62500000  0.75000000  0.87500000  1
  Yb  Yb4  1  0.87500000  0.25000000  0.62500000  1
  Yb  Yb5  1  0.37500000  0.12500000  0.75000000  1
  Yb  Yb6  1  0.37500000  0.25000000  0.12500000  1
  Yb  Yb7  1  0.12500000  0.75000000  0.37500000  1
  Yb  Yb8  1  0.75000000  0.87500000  0.62500000  1
  Yb  Yb9  1  0.25000000  0.12500000  0.37500000  1
  Yb  Yb10  1  0.25000000  0.62500000  0.87500000  1
  Yb  Yb11  1  0.75000000  0.37500000  0.12500000  1
  Te  Te0  1  0.00000000  -0.00000000  0.00000000  1
  Te  Te1  1  0.50000000  0.00000000  0.50000000  1
  Te  Te2  1  0.50000000  0.50000000  0.00000000  1
  Te  Te3  1  0.00000000  -0.00000000  0.50000000  1
  Te  Te4  1  0.00000000  0.50000000  0.50000000  1
  Te  Te5  1  0.50000000  0.50000000  0.50000000  1
  Te  Te6  1  0.50000000  0.00000000  0.00000000  1
  Te  Te7  1  0.00000000  0.50000000  0.00000000  1
  O  O0  1  0.69665719  0.61607301  0.52593620  1
  O  O1  1  0.30334281  0.38392699  0.47406380  1
  O  O2  1  0.80334281  0.82927901  0.41941582  1
  O  O3  1  0.40986319  0.88392699  0.08058418  1
  O  O4  1  0.61607301  0.52593620  0.69665719  1
  O  O5  1  0.69665719  0.08058418  0.67072099  1
  O  O6  1  0.19665719  0.17072099  0.58058418  1
  O  O7  1  0.59013681  0.11607301  0.91941582  1
  O  O8  1  0.38392699  0.47406380  0.30334281  1
  O  O9  1  0.30334281  0.91941582  0.32927901  1
  O  O10  1  0.09013681  0.67072099  0.97406380  1
  O  O11  1  0.82927901  0.41941582  0.80334281  1
  O  O12  1  0.80334281  0.97406380  0.88392699  1
  O  O13  1  0.90986319  0.32927901  0.02593620  1
  O  O14  1  0.17072099  0.58058418  0.19665719  1
  O  O15  1  0.19665719  0.02593620  0.11607301  1
  O  O16  1  0.88392699  0.08058418  0.40986319  1
  O  O17  1  0.40986319  0.52593620  0.82927901  1
  O  O18  1  0.11607301  0.91941582  0.59013681  1
  O  O19  1  0.59013681  0.47406380  0.17072099  1
  O  O20  1  0.67072099  0.97406380  0.09013681  1
  O  O21  1  0.09013681  0.41941582  0.61607301  1
  O  O22  1  0.32927901  0.02593620  0.90986319  1
  O  O23  1  0.90986319  0.58058418  0.38392699  1
  O  O24  1  0.52593620  0.69665719  0.61607301  1
  O  O25  1  0.61607301  0.09013681  0.41941582  1
  O  O26  1  0.47406380  0.30334281  0.38392699  1
  O  O27  1  0.38392699  0.90986319  0.58058418  1
  O  O28  1  0.08058418  0.40986319  0.88392699  1
  O  O29  1  0.88392699  0.80334281  0.97406380  1
  O  O30  1  0.91941582  0.59013681  0.11607301  1
  O  O31  1  0.11607301  0.19665719  0.02593620  1
  O  O32  1  0.97406380  0.09013681  0.67072099  1
  O  O33  1  0.67072099  0.69665719  0.08058418  1
  O  O34  1  0.02593620  0.90986319  0.32927901  1
  O  O35  1  0.32927901  0.30334281  0.91941582  1
  O  O36  1  0.41941582  0.80334281  0.82927901  1
  O  O37  1  0.82927901  0.40986319  0.52593620  1
  O  O38  1  0.58058418  0.19665719  0.17072099  1
  O  O39  1  0.17072099  0.59013681  0.47406380  1
  O  O40  1  0.08058418  0.67072099  0.69665719  1
  O  O41  1  0.91941582  0.32927901  0.30334281  1
  O  O42  1  0.97406380  0.88392699  0.80334281  1
  O  O43  1  0.02593620  0.11607301  0.19665719  1
  O  O44  1  0.41941582  0.61607301  0.09013681  1
  O  O45  1  0.58058418  0.38392699  0.90986319  1
  O  O46  1  0.52593620  0.82927901  0.40986319  1
  O  O47  1  0.47406380  0.17072099  0.59013681  1
loop_
_geom_bond_atom_site_label_1
_geom_bond_atom_site_label_2
_geom_bond_distance
_geom_bond_site_symmetry_2
Li0 O4 1.926969 1_555
Li0 O47 1.926969 1_555
Li0 O11 1.926969 1_555
Li0 O45 1.926969 1_555
Li1 O44 1.926969 1_555
Li1 O14 1.926969 1_555
Li1 O46 1.926969 1_555
Li1 O8 1.926969 1_555
Li2 O41 1.926969 1_555
Li2 O16 1.926969 1_555
Li2 O20 1.926969 1_545
Li2 O43 1.926969 1_655
Li3 O24 1.926969 1_555
Li3 O39 1.926969 1_555
Li3 O27 1.926969 1_555
Li3 O36 1.926969 1_555
Li4 O25 1.926969 1_555
Li4 O37 1.926969 1_555
Li4 O38 1.926969 1_555
Li4 O26 1.926969 1_555
Li5 O42 1.926969 1_455
Li5 O22 1.926969 1_565
Li5 O18 1.926969 1_555
Li5 O40 1.926969 1_555
Li6 O35 1.926969 1_555
Li6 O28 1.926969 1_555
Li6 O32 1.926969 1_455
Li6 O31 1.926969 1_556
Li7 O29 1.926969 1_554
Li7 O34 1.926969 1_655
Li7 O30 1.926969 1_555
Li7 O33 1.926969 1_555
Li8 O0 1.926969 1_555
Li8 O19 1.926969 1_555
Li8 O23 1.926969 1_555
Li8 O2 1.926969 1_555
Li9 O21 1.926969 1_555
Li9 O17 1.926969 1_555
Li9 O6 1.926969 1_555
Li9 O1 1.926969 1_555
Li10 O3 1.926969 1_555
Li10 O9 1.926969 1_555
Li10 O10 1.926969 1_554
Li10 O15 1.926969 1_565
Li11 O12 1.926969 1_545
Li11 O13 1.926969 1_556
Li11 O5 1.926969 1_555
Li11 O7 1.926969 1_555
O0 Te5 1.943315 1_555
O0 Yb8 2.418672 1_555
O0 Yb0 2.494691 1_555
O1 Te5 1.943315 1_555
O1 Yb9 2.418672 1_555
O1 Yb1 2.494691 1_555
O2 Te3 1.943315 1_665
O2 Yb8 2.418672 1_555
O2 Yb2 2.494691 1_555
O3 Te6 1.943315 1_565
O3 Yb10 2.418672 1_554
O3 Yb2 2.494691 1_555
O4 Te5 1.943315 1_555
O4 Yb0 2.418672 1_555
O4 Yb3 2.494691 1_555
O5 Te1 1.943315 1_555
O5 Yb8 2.418672 1_545
O5 Yb4 2.494691 1_555
O6 Te3 1.943315 1_555
O6 Yb9 2.418672 1_555
O6 Yb5 2.494691 1_555
O7 Te6 1.943315 1_556
O7 Yb11 2.418672 1_556
O7 Yb5 2.494691 1_555
O8 Te5 1.943315 1_555
O8 Yb1 2.418672 1_555
O8 Yb6 2.494691 1_555
O9 Te1 1.943315 1_565
O9 Yb9 2.418672 1_565
O9 Yb7 2.494691 1_555
O10 Te7 1.943315 1_556
O10 Yb10 2.418672 1_555
O10 Yb0 2.494691 1_455
O11 Te7 1.943315 1_656
O11 Yb0 2.418672 1_555
O11 Yb4 2.494691 1_555
O12 Te0 1.943315 1_666
O12 Yb8 2.418672 1_555
O12 Yb3 2.494691 1_555
O13 Te7 1.943315 1_655
O13 Yb11 2.418672 1_555
O13 Yb1 2.494691 1_655
O14 Te7 1.943315 1_555
O14 Yb1 2.418672 1_555
O14 Yb7 2.494691 1_555
O15 Te0 1.943315 1_555
O15 Yb9 2.418672 1_555
O15 Yb6 2.494691 1_555
O16 Te3 1.943315 1_655
O16 Yb2 2.418672 1_545
O16 Yb4 2.494691 1_555
O17 Te2 1.943315 1_556
O17 Yb10 2.418672 1_555
O17 Yb3 2.494691 1_555
O18 Te3 1.943315 1_565
O18 Yb5 2.418672 1_565
O18 Yb7 2.494691 1_555
O19 Te2 1.943315 1_555
O19 Yb11 2.418672 1_555
O19 Yb6 2.494691 1_555
O20 Te6 1.943315 1_565
O20 Yb2 2.418672 1_555
O20 Yb3 2.494691 1_554
O21 Te4 1.943315 1_555
O21 Yb10 2.418672 1_555
O21 Yb4 2.494691 1_455
O22 Te6 1.943315 1_556
O22 Yb5 2.418672 1_555
O22 Yb6 2.494691 1_556
O23 Te4 1.943315 1_655
O23 Yb11 2.418672 1_555
O23 Yb7 2.494691 1_655
O24 Te5 1.943315 1_555
O24 Yb3 2.418672 1_555
O24 Yb8 2.494691 1_555
O25 Te1 1.943315 1_555
O25 Yb4 2.418672 1_555
O25 Yb2 2.494691 1_545
O26 Te5 1.943315 1_555
O26 Yb6 2.418672 1_555
O26 Yb9 2.494691 1_555
O27 Te1 1.943315 1_565
O27 Yb7 2.418672 1_555
O27 Yb5 2.494691 1_565
O28 Te7 1.943315 1_556
O28 Yb4 2.418672 1_455
O28 Yb10 2.494691 1_555
O29 Te0 1.943315 1_666
O29 Yb3 2.418672 1_555
O29 Yb0 2.494691 1_555
O30 Te7 1.943315 1_655
O30 Yb7 2.418672 1_655
O30 Yb11 2.494691 1_555
O31 Te0 1.943315 1_555
O31 Yb6 2.418672 1_555
O31 Yb1 2.494691 1_555
O32 Te3 1.943315 1_655
O32 Yb4 2.418672 1_555
O32 Yb8 2.494691 1_545
O33 Te2 1.943315 1_555
O33 Yb3 2.418672 1_554
O33 Yb2 2.494691 1_555
O34 Te3 1.943315 1_565
O34 Yb7 2.418672 1_555
O34 Yb9 2.494691 1_565
O35 Te2 1.943315 1_556
O35 Yb6 2.418672 1_556
O35 Yb5 2.494691 1_555
O36 Te6 1.943315 1_566
O36 Yb3 2.418672 1_555
O36 Yb10 2.494691 1_555
O37 Te4 1.943315 1_655
O37 Yb4 2.418672 1_555
O37 Yb0 2.494691 1_555
O38 Te6 1.943315 1_555
O38 Yb6 2.418672 1_555
O38 Yb11 2.494691 1_555
O39 Te4 1.943315 1_555
O39 Yb7 2.418672 1_555
O39 Yb1 2.494691 1_555
O40 Te4 1.943315 1_555
O40 Yb0 2.418672 1_455
O40 Yb10 2.494691 1_555
O41 Te4 1.943315 1_655
O41 Yb1 2.418672 1_655
O41 Yb11 2.494691 1_555
O42 Te0 1.943315 1_666
O42 Yb0 2.418672 1_555
O42 Yb8 2.494691 1_555
O43 Te0 1.943315 1_555
O43 Yb1 2.418672 1_555
O43 Yb9 2.494691 1_555
O44 Te2 1.943315 1_555
O44 Yb2 2.418672 1_555
O44 Yb10 2.494691 1_554
O45 Te2 1.943315 1_556
O45 Yb5 2.418672 1_555
O45 Yb11 2.494691 1_556
O46 Te1 1.943315 1_565
O46 Yb2 2.418672 1_555
O46 Yb8 2.494691 1_555
O47 Te1 1.943315 1_555
O47 Yb5 2.418672 1_555
O47 Yb9 2.494691 1_555
