# generated using pymatgen
data_InFeNi
_symmetry_space_group_name_H-M   'P 1'
_cell_length_a   4.37534172
_cell_length_b   4.37534172
_cell_length_c   5.26773900
_cell_angle_alpha   90.00000000
_cell_angle_beta   90.00000000
_cell_angle_gamma   119.99999578
_symmetry_Int_Tables_number   1
_chemical_formula_structural   InFeNi
_chemical_formula_sum   'In2 Fe2 Ni2'
_cell_volume   87.33309563
_cell_formula_units_Z   2
loop_
 _symmetry_equiv_pos_site_id
 _symmetry_equiv_pos_as_xyz
  1  'x, y, z'
loop_
 _atom_site_type_symbol
 _atom_site_label
 _atom_site_symmetry_multiplicity
 _atom_site_fract_x
 _atom_site_fract_y
 _atom_site_fract_z
 _atom_site_occupancy
  In  In0  1  0.66666700  0.33333300  0.75000000  1
  In  In1  1  0.33333300  0.66666700  0.25000000  1
  Fe  Fe0  1  0.00000000  0.00000000  0.00000000  1
  Fe  Fe1  1  0.00000000  0.00000000  0.50000000  1
  Ni  Ni0  1  0.66666700  0.33333300  0.25000000  1
  Ni  Ni1  1  0.33333300  0.66666700  0.75000000  1
loop_
_geom_bond_atom_site_label_1
_geom_bond_atom_site_label_2
_geom_bond_distance
_geom_bond_site_symmetry_2
In0 Ni1 2.526102 1_655
In0 Ni1 2.526102 1_545
In0 Ni1 2.526110 1_555
In0 Ni0 2.633869 1_555
In0 Ni0 2.633869 1_556
In1 Ni0 2.526102 1_455
In1 Ni0 2.526102 1_565
In1 Ni0 2.526110 1_555
In1 Ni1 2.633869 1_555
In1 Ni1 2.633869 1_554
Fe0 Fe1 2.633869 1_554
Fe0 Fe1 2.633869 1_555
Fe0 Ni1 2.848773 1_544
Fe0 In1 2.848773 1_545
Fe0 In0 2.848773 1_454
Fe0 Ni0 2.848773 1_455
Fe0 In0 2.848777 1_554
Fe0 Ni0 2.848777 1_555
Fe0 In1 2.848777 1_445
Fe0 Ni1 2.848777 1_444
Fe0 Ni1 2.848777 1_554
Fe0 Ni0 2.848777 1_445
Fe0 In1 2.848777 1_555
Fe0 In0 2.848777 1_444
Fe1 In1 2.848773 1_545
Fe1 Ni1 2.848773 1_545
Fe1 In0 2.848773 1_455
Fe1 Ni0 2.848773 1_455
Fe1 Ni1 2.848777 1_445
Fe1 Ni0 2.848777 1_555
Fe1 In1 2.848777 1_445
Fe1 In0 2.848777 1_555
Fe1 Ni0 2.848777 1_445
Fe1 In1 2.848777 1_555
Fe1 Ni1 2.848777 1_555
Fe1 In0 2.848777 1_445
