# generated using pymatgen
data_YFe6Co5Re
_symmetry_space_group_name_H-M   'P 1'
_cell_length_a   4.66951000
_cell_length_b   6.39943016
_cell_length_c   6.39943016
_cell_angle_alpha   97.33781301
_cell_angle_beta   111.39761039
_cell_angle_gamma   68.60238961
_symmetry_Int_Tables_number   1
_chemical_formula_structural   YFe6Co5Re
_chemical_formula_sum   'Y1 Fe6 Co5 Re1'
_cell_volume   165.77199386
_cell_formula_units_Z   1
loop_
 _symmetry_equiv_pos_site_id
 _symmetry_equiv_pos_as_xyz
  1  'x, y, z'
loop_
 _atom_site_type_symbol
 _atom_site_label
 _atom_site_symmetry_multiplicity
 _atom_site_fract_x
 _atom_site_fract_y
 _atom_site_fract_z
 _atom_site_occupancy
  Y  Y0  1  0.00000000  0.00374300  0.00374300  1
  Fe  Fe0  1  0.49807100  0.00232900  0.49993200  1
  Fe  Fe1  1  0.99953200  0.00232900  0.49993200  1
  Fe  Fe2  1  0.50192900  0.49993200  0.00232900  1
  Fe  Fe3  1  0.00046800  0.49993200  0.00232900  1
  Fe  Fe4  1  0.50000000  0.77471800  0.77471800  1
  Fe  Fe5  1  0.50000000  0.22690200  0.22690200  1
  Co  Co0  1  0.64032600  0.35820800  0.63886100  1
  Co  Co1  1  0.35967400  0.63886100  0.35820800  1
  Co  Co2  1  0.00000000  0.35615900  0.35615900  1
  Co  Co3  1  0.72673300  0.77243800  0.22590500  1
  Co  Co4  1  0.27326700  0.22590500  0.77243800  1
  Re  Re0  1  0.00000000  0.63854300  0.63854300  1
loop_
_geom_bond_atom_site_label_1
_geom_bond_atom_site_label_2
_geom_bond_distance
_geom_bond_site_symmetry_2
Fe0 Fe1 2.327933 1_455
Fe0 Fe1 2.341577 1_555
Fe0 Fe5 2.404293 1_555
Fe0 Fe4 2.418073 1_545
Fe0 Re0 2.594009 1_645
Fe0 Y0 3.177295 1_555
Fe0 Y0 3.222165 1_656
Fe1 Fe5 2.404293 1_555
Fe1 Fe4 2.418073 1_645
Fe1 Re0 2.594009 1_645
Fe1 Y0 3.177295 1_655
Fe1 Y0 3.222165 1_656
Fe2 Fe3 2.327933 1_655
Fe2 Fe3 2.341577 1_555
Fe2 Fe5 2.404293 1_555
Fe2 Fe4 2.418073 1_554
Fe2 Re0 2.594009 1_554
Fe2 Y0 3.177295 1_655
Fe2 Y0 3.222165 1_565
Fe3 Fe5 2.404293 1_555
Fe3 Fe4 2.418073 1_454
Fe3 Re0 2.594009 1_554
Fe3 Y0 3.177295 1_555
Fe3 Y0 3.222165 1_565
Fe4 Re0 2.603060 1_555
Fe4 Re0 2.603060 1_655
Fe4 Y0 3.032906 1_666
Fe4 Y0 3.032906 1_566
Fe5 Y0 3.001502 1_655
Fe5 Y0 3.001502 1_555
Co0 Co1 2.357518 1_555
Co0 Fe0 2.563993 1_555
Co0 Fe1 2.563995 1_555
Co0 Fe5 2.580882 1_555
Co0 Co4 2.588075 1_555
Co0 Co4 2.588084 1_655
Co0 Fe2 2.603978 1_556
Co0 Fe3 2.603980 1_656
Co0 Fe4 2.615162 1_555
Co0 Re0 2.870719 1_555
Co0 Re0 2.870722 1_655
Co0 Co2 2.879024 1_555
Co0 Co2 2.879028 1_655
Co0 Y0 3.021621 1_656
Co1 Fe2 2.563993 1_555
Co1 Fe3 2.563995 1_555
Co1 Fe5 2.580882 1_555
Co1 Co3 2.588075 1_555
Co1 Co3 2.588084 1_455
Co1 Fe0 2.603978 1_565
Co1 Fe1 2.603980 1_465
Co1 Fe4 2.615162 1_555
Co1 Re0 2.870719 1_655
Co1 Re0 2.870722 1_555
Co1 Co2 2.879024 1_655
Co1 Co2 2.879028 1_555
Co1 Y0 3.021621 1_565
Co2 Re0 2.386847 1_555
Co2 Fe1 2.551639 1_455
Co2 Fe0 2.551639 1_555
Co2 Fe2 2.551639 1_455
Co2 Fe3 2.551639 1_555
Co2 Fe5 2.577738 1_555
Co2 Fe5 2.577738 1_455
Co2 Co4 2.594304 1_555
Co2 Co3 2.594304 1_455
Co2 Y0 2.978791 1_555
Co3 Fe2 2.406787 1_555
Co3 Fe3 2.406789 1_655
Co3 Fe0 2.437343 1_565
Co3 Fe1 2.437345 1_565
Co3 Re0 2.580107 1_655
Co3 Fe4 2.688268 1_554
Co3 Fe5 2.707887 1_565
Co3 Y0 3.013307 1_565
Co3 Y0 3.013311 1_665
Co4 Fe0 2.406787 1_555
Co4 Fe1 2.406789 1_455
Co4 Fe2 2.437343 1_556
Co4 Fe3 2.437345 1_556
Co4 Re0 2.580107 1_555
Co4 Fe4 2.688268 1_545
Co4 Fe5 2.707887 1_556
Co4 Y0 3.013307 1_656
Co4 Y0 3.013311 1_556
Re0 Y0 3.086848 1_566
