# generated using pymatgen
data_CaLa2FeO6
_symmetry_space_group_name_H-M   'P 1'
_cell_length_a   5.61658890
_cell_length_b   5.61658890
_cell_length_c   5.61658906
_cell_angle_alpha   62.66468637
_cell_angle_beta   62.66468637
_cell_angle_gamma   62.66468868
_symmetry_Int_Tables_number   1
_chemical_formula_structural   CaLa2FeO6
_chemical_formula_sum   'Ca1 La2 Fe1 O6'
_cell_volume   132.71677997
_cell_formula_units_Z   1
loop_
 _symmetry_equiv_pos_site_id
 _symmetry_equiv_pos_as_xyz
  1  'x, y, z'
loop_
 _atom_site_type_symbol
 _atom_site_label
 _atom_site_symmetry_multiplicity
 _atom_site_fract_x
 _atom_site_fract_y
 _atom_site_fract_z
 _atom_site_occupancy
  Ca  Ca0  1  0.50000000  0.50000000  0.50000000  1
  La  La0  1  0.76044000  0.76044000  0.76044000  1
  La  La1  1  0.23956000  0.23956000  0.23956000  1
  Fe  Fe0  1  0.00000000  0.00000000  0.00000000  1
  O  O0  1  0.78665900  0.31968500  0.13806800  1
  O  O1  1  0.13806800  0.78665900  0.31968500  1
  O  O2  1  0.31968500  0.13806800  0.78665900  1
  O  O3  1  0.21334100  0.68031500  0.86193200  1
  O  O4  1  0.68031500  0.86193200  0.21334100  1
  O  O5  1  0.86193200  0.21334100  0.68031500  1
loop_
_geom_bond_atom_site_label_1
_geom_bond_atom_site_label_2
_geom_bond_distance
_geom_bond_site_symmetry_2
Ca0 O2 2.266643 1_555
Ca0 O4 2.266643 1_555
Ca0 O1 2.266643 1_555
Ca0 O5 2.266643 1_555
Ca0 O3 2.266643 1_555
Ca0 O0 2.266643 1_555
La0 O0 2.403850 1_556
La0 O1 2.403850 1_655
La0 O2 2.403850 1_565
La0 O5 2.653854 1_565
La0 O3 2.653854 1_655
La0 O4 2.653854 1_556
La0 O3 3.065205 1_555
La0 O5 3.065205 1_555
La0 O4 3.065205 1_555
La1 O3 2.403850 1_554
La1 O5 2.403850 1_455
La1 O4 2.403850 1_545
La1 O1 2.653854 1_545
La1 O0 2.653854 1_455
La1 O2 2.653854 1_554
La1 O0 3.065205 1_555
La1 O1 3.065205 1_555
La1 O2 3.065205 1_555
Fe0 O4 1.926285 1_445
Fe0 O2 1.926285 1_554
Fe0 O3 1.926285 1_544
Fe0 O0 1.926285 1_455
Fe0 O1 1.926285 1_545
Fe0 O5 1.926285 1_454
