# generated using pymatgen
data_K2VHgF6
_symmetry_space_group_name_H-M   'P 1'
_cell_length_a   6.71462300
_cell_length_b   6.71462317
_cell_length_c   6.71462356
_cell_angle_alpha   59.99999638
_cell_angle_beta   59.99999785
_cell_angle_gamma   59.99999590
_symmetry_Int_Tables_number   1
_chemical_formula_structural   K2VHgF6
_chemical_formula_sum   'K2 V1 Hg1 F6'
_cell_volume   214.06709640
_cell_formula_units_Z   1
loop_
 _symmetry_equiv_pos_site_id
 _symmetry_equiv_pos_as_xyz
  1  'x, y, z'
loop_
 _atom_site_type_symbol
 _atom_site_label
 _atom_site_symmetry_multiplicity
 _atom_site_fract_x
 _atom_site_fract_y
 _atom_site_fract_z
 _atom_site_occupancy
  K  K0  1  0.25000000  0.25000000  0.25000000  1
  K  K1  1  0.75000000  0.75000000  0.75000000  1
  V  V0  1  0.00000000  0.00000000  0.00000000  1
  Hg  Hg0  1  0.50000000  0.50000000  0.50000000  1
  F  F0  1  0.19683400  0.80316600  0.19683400  1
  F  F1  1  0.80316600  0.80316600  0.19683400  1
  F  F2  1  0.80316600  0.19683400  0.80316600  1
  F  F3  1  0.80316600  0.19683400  0.19683400  1
  F  F4  1  0.19683400  0.80316600  0.80316600  1
  F  F5  1  0.19683400  0.19683400  0.80316600  1
loop_
_geom_bond_atom_site_label_1
_geom_bond_atom_site_label_2
_geom_bond_distance
_geom_bond_site_symmetry_2
F0 V0 1.869118 1_565
F1 V0 1.869118 1_665
F2 V0 1.869118 1_656
F3 V0 1.869118 1_655
F4 V0 1.869118 1_566
F5 V0 1.869118 1_556
