# generated using pymatgen
data_SmNiSn
_symmetry_space_group_name_H-M   'P 1'
_cell_length_a   7.33150975
_cell_length_b   7.33150975
_cell_length_c   3.98616989
_cell_angle_alpha   90.00000000
_cell_angle_beta   90.00000000
_cell_angle_gamma   119.99999796
_symmetry_Int_Tables_number   1
_chemical_formula_structural   SmNiSn
_chemical_formula_sum   'Sm3 Ni3 Sn3'
_cell_volume   185.55526359
_cell_formula_units_Z   3
loop_
 _symmetry_equiv_pos_site_id
 _symmetry_equiv_pos_as_xyz
  1  'x, y, z'
loop_
 _atom_site_type_symbol
 _atom_site_label
 _atom_site_symmetry_multiplicity
 _atom_site_fract_x
 _atom_site_fract_y
 _atom_site_fract_z
 _atom_site_occupancy
  Sm  Sm0  1  0.58933664  0.00000000  -0.00000000  1
  Sm  Sm1  1  0.00000000  0.58933664  -0.00000000  1
  Sm  Sm2  1  0.41066336  0.41066336  0.00000000  1
  Ni  Ni0  1  0.33333300  0.66666700  0.50000000  1
  Ni  Ni1  1  0.66666700  0.33333300  0.50000000  1
  Ni  Ni2  1  -0.00000000  -0.00000000  0.00000000  1
  Sn  Sn0  1  0.25183896  1.00000000  0.50000000  1
  Sn  Sn1  1  1.00000000  0.25183896  0.50000000  1
  Sn  Sn2  1  0.74816104  0.74816104  0.50000000  1
loop_
_geom_bond_atom_site_label_1
_geom_bond_atom_site_label_2
_geom_bond_distance
_geom_bond_site_symmetry_2
Sm0 Sn0 3.177244 1_544
Sm0 Sn0 3.177244 1_545
Sm0 Sn2 3.299584 1_544
Sm0 Sn2 3.299584 1_545
Sm0 Sn1 3.299584 1_555
Sm0 Sn1 3.299584 1_554
Sm1 Sn1 3.177244 1_455
Sm1 Sn1 3.177244 1_454
Sm1 Sn2 3.299584 1_455
Sm1 Sn2 3.299584 1_454
Sm1 Sn0 3.299584 1_555
Sm1 Sn0 3.299584 1_554
Sm2 Sn2 3.177245 1_555
Sm2 Sn2 3.177245 1_554
Sm2 Sn0 3.299584 1_545
Sm2 Sn0 3.299584 1_544
Sm2 Sn1 3.299584 1_455
Sm2 Sn1 3.299584 1_454
Ni0 Sn0 2.790955 1_555
Ni0 Sn1 2.790960 1_455
Ni0 Sn2 2.790962 1_555
Ni0 Sm1 2.980036 1_555
Ni0 Sm1 2.980036 1_556
Ni0 Sm0 2.980038 1_566
Ni0 Sm0 2.980038 1_565
Ni0 Sm2 2.980041 1_555
Ni0 Sm2 2.980041 1_556
Ni1 Sn1 2.790955 1_555
Ni1 Sn0 2.790960 1_545
Ni1 Sn2 2.790962 1_555
Ni1 Sm0 2.980036 1_556
Ni1 Sm0 2.980036 1_555
Ni1 Sm1 2.980038 1_655
Ni1 Sm1 2.980038 1_656
Ni1 Sm2 2.980041 1_555
Ni1 Sm2 2.980041 1_556
Ni2 Sn1 2.716879 1_455
Ni2 Sn1 2.716879 1_454
Ni2 Sn0 2.716879 1_544
Ni2 Sn0 2.716879 1_545
Ni2 Sn2 2.716879 1_445
Ni2 Sn2 2.716879 1_444
Ni2 Sm0 3.010782 1_455
Ni2 Sm1 3.010782 1_545
Ni2 Sm2 3.010783 1_555
