# generated using pymatgen
data_TlNiO3
_symmetry_space_group_name_H-M   'P 1'
_cell_length_a   3.78582596
_cell_length_b   3.78582596
_cell_length_c   3.79803114
_cell_angle_alpha   89.80953029
_cell_angle_beta   89.80953029
_cell_angle_gamma   90.22610265
_symmetry_Int_Tables_number   1
_chemical_formula_structural   TlNiO3
_chemical_formula_sum   'Tl1 Ni1 O3'
_cell_volume   54.43417079
_cell_formula_units_Z   1
loop_
 _symmetry_equiv_pos_site_id
 _symmetry_equiv_pos_as_xyz
  1  'x, y, z'
loop_
 _atom_site_type_symbol
 _atom_site_label
 _atom_site_symmetry_multiplicity
 _atom_site_fract_x
 _atom_site_fract_y
 _atom_site_fract_z
 _atom_site_occupancy
  Tl  Tl0  1  0.99066600  0.99066600  0.99972000  1
  Ni  Ni0  1  0.50688700  0.50688700  0.50946400  1
  O  O0  1  0.50376100  0.50376100  0.01071200  1
  O  O1  1  0.00911200  0.53270000  0.51087000  1
  O  O2  1  0.53270000  0.00911200  0.51087000  1
loop_
_geom_bond_atom_site_label_1
_geom_bond_atom_site_label_2
_geom_bond_distance
_geom_bond_site_symmetry_2
Ni0 O1 1.887397 1_555
Ni0 O2 1.887397 1_555
Ni0 O0 1.894428 1_555
Ni0 O1 1.903487 1_655
Ni0 O2 1.903487 1_565
Ni0 O0 1.903750 1_556
O0 Tl0 2.601863 1_554
O0 Tl0 2.683502 1_544
O0 Tl0 2.683502 1_454
O0 Tl0 2.742182 1_444
O1 Tl0 2.545502 1_455
O1 Tl0 2.599854 1_454
O1 Tl0 2.763270 1_445
O1 Tl0 2.830357 1_444
O2 Tl0 2.545502 1_545
O2 Tl0 2.599854 1_544
O2 Tl0 2.763270 1_445
O2 Tl0 2.830357 1_444
