# generated using pymatgen
data_Pb(IO3)2
_symmetry_space_group_name_H-M   'P 1'
_cell_length_a   6.95170149
_cell_length_b   7.09512990
_cell_length_c   13.23736186
_cell_angle_alpha   85.56023883
_cell_angle_beta   86.41353088
_cell_angle_gamma   63.12026229
_symmetry_Int_Tables_number   1
_chemical_formula_structural   Pb(IO3)2
_chemical_formula_sum   'Pb4 I8 O24'
_cell_volume   580.34106009
_cell_formula_units_Z   4
loop_
 _symmetry_equiv_pos_site_id
 _symmetry_equiv_pos_as_xyz
  1  'x, y, z'
loop_
 _atom_site_type_symbol
 _atom_site_label
 _atom_site_symmetry_multiplicity
 _atom_site_fract_x
 _atom_site_fract_y
 _atom_site_fract_z
 _atom_site_occupancy
  Pb  Pb0  1  0.97661906  0.84757348  0.86909821  1
  Pb  Pb1  1  0.02338094  0.15242652  0.13090179  1
  Pb  Pb2  1  0.96523933  0.32613064  0.62980988  1
  Pb  Pb3  1  0.03476067  0.67386936  0.37019012  1
  I  I0  1  0.65430608  0.96005225  0.61606634  1
  I  I1  1  0.34569392  0.03994775  0.38393366  1
  I  I2  1  0.33127180  0.60959956  0.61549369  1
  I  I3  1  0.66872820  0.39040044  0.38450631  1
  I  I4  1  0.32869436  0.14548275  0.87495835  1
  I  I5  1  0.67130564  0.85451725  0.12504165  1
  I  I6  1  0.67117319  0.49489539  0.88275108  1
  I  I7  1  0.32882681  0.50510461  0.11724892  1
  O  O0  1  0.90319620  0.93053111  0.66808400  1
  O  O1  1  0.09680380  0.06946889  0.33191600  1
  O  O2  1  0.73463871  0.94123838  0.48213978  1
  O  O3  1  0.26536129  0.05876162  0.51786022  1
  O  O4  1  0.67096420  0.69824825  0.64749310  1
  O  O5  1  0.32903580  0.30175175  0.35250690  1
  O  O6  1  0.57717353  0.36713831  0.58993728  1
  O  O7  1  0.42282647  0.63286169  0.41006272  1
  O  O8  1  0.29802234  0.55386422  0.74843789  1
  O  O9  1  0.70197766  0.44613578  0.25156211  1
  O  O10  1  0.14463970  0.53238232  0.56003314  1
  O  O11  1  0.85536030  0.46761768  0.43996686  1
  O  O12  1  0.58340381  0.90668933  0.89400957  1
  O  O13  1  0.41659619  0.09331067  0.10599043  1
  O  O14  1  0.27813513  0.08877346  0.75123680  1
  O  O15  1  0.72186487  0.91122654  0.24876320  1
  O  O16  1  0.15622128  0.05446092  0.94943403  1
  O  O17  1  0.84377872  0.94553908  0.05056597  1
  O  O18  1  0.92793920  0.48921277  0.83869618  1
  O  O19  1  0.07206080  0.51078723  0.16130382  1
  O  O20  1  0.72083841  0.45255911  0.01793089  1
  O  O21  1  0.27916159  0.54744089  0.98206911  1
  O  O22  1  0.71895252  0.23693572  0.84468820  1
  O  O23  1  0.28104748  0.76306428  0.15531180  1
loop_
_geom_bond_atom_site_label_1
_geom_bond_atom_site_label_2
_geom_bond_distance
_geom_bond_site_symmetry_2
I0 O0 1.819522 1_555
I0 O2 1.821536 1_555
I0 O4 1.824495 1_555
I1 O1 1.819522 1_555
I1 O3 1.821536 1_555
I1 O5 1.824495 1_555
I2 O8 1.797450 1_555
I2 O10 1.829368 1_555
I2 O6 1.831572 1_555
I3 O9 1.797450 1_555
I3 O11 1.829368 1_555
I3 O7 1.831572 1_555
I4 O14 1.808191 1_555
I4 O16 1.811150 1_555
I4 O12 1.829321 1_545
I5 O15 1.808191 1_555
I5 O17 1.811150 1_555
I5 O13 1.829321 1_565
I6 O22 1.812779 1_555
I6 O20 1.819827 1_556
I6 O18 1.826508 1_555
I7 O23 1.812779 1_555
I7 O21 1.819827 1_554
I7 O19 1.826508 1_555
O0 Pb0 2.709820 1_555
O1 Pb1 2.709820 1_555
O2 Pb3 2.572397 1_655
O3 Pb2 2.572397 1_455
O4 Pb2 2.522373 1_555
O5 Pb3 2.522373 1_555
O6 Pb2 2.661866 1_555
O7 Pb3 2.661866 1_555
O8 Pb0 2.782899 1_455
O9 Pb1 2.782899 1_655
O10 Pb2 2.418031 1_455
O10 Pb3 2.657573 1_555
O11 Pb3 2.418031 1_655
O11 Pb2 2.657573 1_555
O12 Pb0 2.574621 1_555
O13 Pb1 2.574621 1_555
O14 Pb2 2.618598 1_455
O15 Pb3 2.618598 1_655
O16 Pb1 2.550849 1_556
O16 Pb0 2.628587 1_445
O17 Pb0 2.550849 1_554
O17 Pb1 2.628587 1_665
O18 Pb0 2.773965 1_555
O19 Pb1 2.773965 1_555
O20 Pb1 2.654253 1_655
O21 Pb0 2.654253 1_455
O22 Pb0 2.530691 1_545
O23 Pb1 2.530691 1_565
