# generated using pymatgen
data_CeSe2
_symmetry_space_group_name_H-M   'P 1'
_cell_length_a   10.96545914
_cell_length_b   10.96545914
_cell_length_c   7.48820640
_cell_angle_alpha   80.43107806
_cell_angle_beta   80.43107806
_cell_angle_gamma   42.25169494
_symmetry_Int_Tables_number   1
_chemical_formula_structural   CeSe2
_chemical_formula_sum   'Ce6 Se12'
_cell_volume   595.72185277
_cell_formula_units_Z   6
loop_
 _symmetry_equiv_pos_site_id
 _symmetry_equiv_pos_as_xyz
  1  'x, y, z'
loop_
 _atom_site_type_symbol
 _atom_site_label
 _atom_site_symmetry_multiplicity
 _atom_site_fract_x
 _atom_site_fract_y
 _atom_site_fract_z
 _atom_site_occupancy
  Ce  Ce0  1  0.02042100  0.30376900  0.67252100  1
  Ce  Ce1  1  0.69623100  0.97957900  0.82747900  1
  Ce  Ce2  1  0.97957900  0.69623100  0.32747900  1
  Ce  Ce3  1  0.30376900  0.02042100  0.17252100  1
  Ce  Ce4  1  0.64012700  0.35987300  0.25000000  1
  Ce  Ce5  1  0.35987300  0.64012700  0.75000000  1
  Se  Se0  1  0.22091100  0.96419700  0.53860500  1
  Se  Se1  1  0.03580300  0.77908900  0.96139500  1
  Se  Se2  1  0.77908900  0.03580300  0.46139500  1
  Se  Se3  1  0.96419700  0.22091100  0.03860500  1
  Se  Se4  1  0.45121300  0.69534400  0.03969400  1
  Se  Se5  1  0.30465600  0.54878700  0.46030600  1
  Se  Se6  1  0.54878700  0.30465600  0.96030600  1
  Se  Se7  1  0.69534400  0.45121300  0.53969400  1
  Se  Se8  1  0.34309600  0.13908800  0.82013000  1
  Se  Se9  1  0.86091200  0.65690400  0.67987000  1
  Se  Se10  1  0.65690400  0.86091200  0.17987000  1
  Se  Se11  1  0.13908800  0.34309600  0.32013000  1
loop_
_geom_bond_atom_site_label_1
_geom_bond_atom_site_label_2
_geom_bond_distance
_geom_bond_site_symmetry_2
Ce0 Se9 2.840617 1_455
Ce0 Se0 2.844910 1_545
Ce0 Se11 2.855368 1_555
Ce0 Se3 2.856517 1_456
Ce0 Se8 2.860045 1_555
Ce0 Se7 2.902077 1_455
Ce1 Se8 2.840617 1_565
Ce1 Se1 2.844910 1_655
Ce1 Se10 2.855368 1_556
Ce1 Se2 2.856517 1_565
Ce1 Se9 2.860045 1_555
Ce1 Se6 2.902077 1_565
Ce2 Se11 2.840617 1_655
Ce2 Se2 2.844910 1_565
Ce2 Se9 2.855368 1_555
Ce2 Se1 2.856517 1_654
Ce2 Se10 2.860045 1_555
Ce2 Se5 2.902077 1_655
Ce3 Se10 2.840617 1_545
Ce3 Se3 2.844910 1_455
Ce3 Se8 2.855368 1_554
Ce3 Se0 2.856517 1_545
Ce3 Se11 2.860045 1_555
Ce3 Se4 2.902077 1_545
Ce4 Se7 2.851737 1_555
Ce4 Se6 2.851737 1_554
Ce4 Se4 2.860213 1_555
Ce4 Se5 2.860213 1_555
Ce4 Se3 2.893301 1_555
Ce4 Se2 2.893301 1_555
Ce5 Se4 2.851737 1_556
Ce5 Se5 2.851737 1_555
Ce5 Se7 2.860213 1_555
Ce5 Se6 2.860213 1_555
Ce5 Se0 2.893301 1_555
Ce5 Se1 2.893301 1_555
