# generated using pymatgen
data_Na2Th(MoO4)3
_symmetry_space_group_name_H-M   'P 1'
_cell_length_a   6.97183335
_cell_length_b   6.97183335
_cell_length_c   12.01438113
_cell_angle_alpha   80.25574186
_cell_angle_beta   80.25574186
_cell_angle_gamma   114.53857084
_symmetry_Int_Tables_number   1
_chemical_formula_structural   Na2Th(MoO4)3
_chemical_formula_sum   'Na4 Th2 Mo6 O24'
_cell_volume   504.53545027
_cell_formula_units_Z   2
loop_
 _symmetry_equiv_pos_site_id
 _symmetry_equiv_pos_as_xyz
  1  'x, y, z'
loop_
 _atom_site_type_symbol
 _atom_site_label
 _atom_site_symmetry_multiplicity
 _atom_site_fract_x
 _atom_site_fract_y
 _atom_site_fract_z
 _atom_site_occupancy
  Na  Na0  1  0.20936600  0.46070500  0.57820600  1
  Na  Na1  1  0.53929500  0.79063400  0.92179400  1
  Na  Na2  1  0.46070500  0.20936600  0.07820600  1
  Na  Na3  1  0.79063400  0.53929500  0.42179400  1
  Th  Th0  1  0.87733000  0.12267000  0.25000000  1
  Th  Th1  1  0.12267000  0.87733000  0.75000000  1
  Mo  Mo0  1  0.70708600  0.95814900  0.58647600  1
  Mo  Mo1  1  0.04185100  0.29291400  0.91352400  1
  Mo  Mo2  1  0.37366300  0.62633700  0.25000000  1
  Mo  Mo3  1  0.29291400  0.04185100  0.41352400  1
  Mo  Mo4  1  0.62633700  0.37366300  0.75000000  1
  Mo  Mo5  1  0.95814900  0.70708600  0.08647600  1
  O  O0  1  0.07198100  0.50253800  0.78825300  1
  O  O1  1  0.38455600  0.81172500  0.12547100  1
  O  O2  1  0.74530100  0.14452400  0.44809800  1
  O  O3  1  0.49746200  0.92801900  0.71174700  1
  O  O4  1  0.85547600  0.25469900  0.05190200  1
  O  O5  1  0.18827500  0.61544400  0.37452900  1
  O  O6  1  0.74111200  0.64635000  0.77924700  1
  O  O7  1  0.04601100  0.97122800  0.11945100  1
  O  O8  1  0.38209900  0.30197100  0.43987200  1
  O  O9  1  0.35365000  0.25888800  0.72075300  1
  O  O10  1  0.69802900  0.61790100  0.06012800  1
  O  O11  1  0.02877200  0.95398900  0.38054900  1
  O  O12  1  0.61544400  0.18827500  0.87452900  1
  O  O13  1  0.92801900  0.49746200  0.21174700  1
  O  O14  1  0.25469900  0.85547600  0.55190200  1
  O  O15  1  0.14452400  0.74530100  0.94809800  1
  O  O16  1  0.50253800  0.07198100  0.28825300  1
  O  O17  1  0.81172500  0.38455600  0.62547100  1
  O  O18  1  0.95398900  0.02877200  0.88054900  1
  O  O19  1  0.25888800  0.35365000  0.22075300  1
  O  O20  1  0.61790100  0.69802900  0.56012800  1
  O  O21  1  0.30197100  0.38209900  0.93987200  1
  O  O22  1  0.64635000  0.74111200  0.27924700  1
  O  O23  1  0.97122800  0.04601100  0.61945100  1
loop_
_geom_bond_atom_site_label_1
_geom_bond_atom_site_label_2
_geom_bond_distance
_geom_bond_site_symmetry_2
Na0 O17 2.536228 1_455
Na0 O8 2.547404 1_555
Na0 O5 2.556067 1_555
Na0 O23 2.571079 1_455
Na0 O20 2.579118 1_555
Na0 O14 2.593075 1_555
Na0 O9 2.620642 1_555
Na0 O0 2.652157 1_555
Na1 O12 2.536228 1_565
Na1 O10 2.547404 1_556
Na1 O1 2.556067 1_556
Na1 O18 2.571079 1_565
Na1 O21 2.579118 1_555
Na1 O15 2.593075 1_555
Na1 O6 2.620642 1_555
Na1 O3 2.652157 1_555
Na2 O1 2.536228 1_545
Na2 O21 2.547404 1_554
Na2 O12 2.556067 1_554
Na2 O7 2.571079 1_545
Na2 O10 2.579118 1_555
Na2 O4 2.593075 1_555
Na2 O19 2.620642 1_555
Na2 O16 2.652157 1_555
Na3 O5 2.536228 1_655
Na3 O20 2.547404 1_555
Na3 O17 2.556067 1_555
Na3 O11 2.571079 1_655
Na3 O8 2.579118 1_555
Na3 O2 2.593075 1_555
Na3 O22 2.620642 1_555
Na3 O13 2.652157 1_555
Mo0 O20 1.760681 1_555
Mo0 O23 1.820888 1_565
Mo0 O3 1.827187 1_555
Mo0 O2 1.831562 1_565
Mo1 O21 1.760681 1_555
Mo1 O18 1.820888 1_455
Mo1 O0 1.827187 1_555
Mo1 O4 1.831562 1_456
Mo2 O1 1.772053 1_555
Mo2 O5 1.772053 1_555
Mo2 O22 1.853589 1_555
Mo2 O19 1.853589 1_555
Mo3 O8 1.760681 1_555
Mo3 O11 1.820888 1_545
Mo3 O16 1.827187 1_555
Mo3 O14 1.831562 1_545
Mo4 O17 1.772053 1_555
Mo4 O12 1.772053 1_555
Mo4 O6 1.853589 1_555
Mo4 O9 1.853589 1_555
Mo5 O10 1.760681 1_555
Mo5 O7 1.820888 1_655
Mo5 O13 1.827187 1_555
Mo5 O15 1.831562 1_654
O0 Th1 2.436253 1_555
O2 Th0 2.456152 1_555
O3 Th1 2.436253 1_555
O4 Th0 2.456152 1_555
O6 Th1 2.393122 1_655
O7 Th0 2.434216 1_465
O9 Th1 2.393122 1_545
O11 Th0 2.434216 1_465
O13 Th0 2.436253 1_555
O14 Th1 2.456152 1_555
O15 Th1 2.456152 1_555
O16 Th0 2.436253 1_555
O18 Th1 2.434216 1_645
O19 Th0 2.393122 1_455
O22 Th0 2.393122 1_565
O23 Th1 2.434216 1_645
