# generated using pymatgen
data_ScHgPd2
_symmetry_space_group_name_H-M   'P 1'
_cell_length_a   10.95281446
_cell_length_b   10.95281446
_cell_length_c   10.95281446
_cell_angle_alpha   125.55272835
_cell_angle_beta   118.21304660
_cell_angle_gamma   86.89285365
_symmetry_Int_Tables_number   1
_chemical_formula_structural   ScHgPd2
_chemical_formula_sum   'Sc1 Hg1 Pd2'
_cell_volume   896.26155283
_cell_formula_units_Z   1
loop_
 _symmetry_equiv_pos_site_id
 _symmetry_equiv_pos_as_xyz
  1  'x, y, z'
loop_
 _atom_site_type_symbol
 _atom_site_label
 _atom_site_symmetry_multiplicity
 _atom_site_fract_x
 _atom_site_fract_y
 _atom_site_fract_z
 _atom_site_occupancy
  Sc  Sc0  1  0.00000000  0.00000000  0.00000000  1
  Hg  Hg0  1  0.00000000  0.50000000  0.50000000  1
  Pd  Pd0  1  0.00000000  0.22472100  0.22472100  1
  Pd  Pd1  1  0.00000000  0.77527900  0.77527900  1
loop_
_geom_bond_atom_site_label_1
_geom_bond_atom_site_label_2
_geom_bond_distance
_geom_bond_site_symmetry_2
Hg0 Pd1 2.758586 1_555
Hg0 Pd0 2.758586 1_555
Pd0 Sc0 2.251941 1_555
Pd1 Sc0 2.251941 1_566
