# generated using pymatgen
data_Mg6VBi
_symmetry_space_group_name_H-M   'P 1'
_cell_length_a   5.11215100
_cell_length_b   6.45263500
_cell_length_c   10.89194200
_cell_angle_alpha   90.00000000
_cell_angle_beta   90.00000000
_cell_angle_gamma   90.00000000
_symmetry_Int_Tables_number   1
_chemical_formula_structural   Mg6VBi
_chemical_formula_sum   'Mg12 V2 Bi2'
_cell_volume   359.29079671
_cell_formula_units_Z   2
loop_
 _symmetry_equiv_pos_site_id
 _symmetry_equiv_pos_as_xyz
  1  'x, y, z'
loop_
 _atom_site_type_symbol
 _atom_site_label
 _atom_site_symmetry_multiplicity
 _atom_site_fract_x
 _atom_site_fract_y
 _atom_site_fract_z
 _atom_site_occupancy
  Mg  Mg0  1  0.00000000  0.24139200  0.08007100  1
  Mg  Mg1  1  0.00000000  0.75860800  0.08007100  1
  Mg  Mg2  1  0.00000000  0.50000000  0.83502500  1
  Mg  Mg3  1  0.50000000  0.24552200  0.91476700  1
  Mg  Mg4  1  0.50000000  0.75447800  0.91476700  1
  Mg  Mg5  1  0.50000000  0.50000000  0.66777800  1
  Mg  Mg6  1  0.00000000  0.74139200  0.58007100  1
  Mg  Mg7  1  0.00000000  0.25860800  0.58007100  1
  Mg  Mg8  1  0.00000000  0.00000000  0.33502500  1
  Mg  Mg9  1  0.50000000  0.74552200  0.41476700  1
  Mg  Mg10  1  0.50000000  0.25447800  0.41476700  1
  Mg  Mg11  1  0.50000000  0.00000000  0.16777800  1
  V  V0  1  0.00000000  0.50000000  0.33570000  1
  V  V1  1  0.00000000  0.00000000  0.83570000  1
  Bi  Bi0  1  0.50000000  0.50000000  0.17182100  1
  Bi  Bi1  1  0.50000000  0.00000000  0.67182100  1
loop_
_geom_bond_atom_site_label_1
_geom_bond_atom_site_label_2
_geom_bond_distance
_geom_bond_site_symmetry_2
Mg0 V1 3.083938 1_554
Mg0 Mg1 3.115229 1_545
Mg0 Mg3 3.126654 1_554
Mg0 Mg3 3.126654 1_454
Mg0 Mg11 3.142019 1_455
Mg0 Mg11 3.142019 1_555
Mg0 Mg2 3.147741 1_554
Mg0 Mg8 3.183957 1_555
Mg0 V0 3.246055 1_555
Mg0 Mg1 3.337406 1_555
Mg1 V1 3.083938 1_564
Mg1 Mg4 3.126654 1_554
Mg1 Mg4 3.126654 1_454
Mg1 Mg11 3.142019 1_565
Mg1 Mg11 3.142019 1_465
Mg1 Mg2 3.147741 1_554
Mg1 Mg8 3.183957 1_565
Mg1 V0 3.246055 1_555
Mg2 Mg5 3.138775 1_555
Mg2 Mg5 3.138775 1_455
Mg2 Mg4 3.159784 1_455
Mg2 Mg3 3.159784 1_555
Mg2 Mg4 3.159784 1_555
Mg2 Mg3 3.159784 1_455
Mg2 Mg7 3.183957 1_555
Mg2 Mg6 3.183957 1_555
Mg2 V1 3.226326 1_555
Mg2 V1 3.226326 1_565
Mg3 V1 3.128109 1_655
Mg3 V1 3.128109 1_555
Mg3 Mg5 3.151739 1_555
Mg3 Mg4 3.168528 1_545
Mg3 Mg4 3.284107 1_555
Mg4 V1 3.128109 1_565
Mg4 V1 3.128109 1_665
Mg4 Mg5 3.151739 1_555
Mg5 Mg7 3.142019 1_555
Mg5 Mg7 3.142019 1_655
Mg5 Mg6 3.142019 1_555
Mg5 Mg6 3.142019 1_655
Mg5 Mg9 3.178714 1_555
Mg6 V0 3.083938 1_555
Mg6 Mg7 3.115229 1_555
Mg6 Mg9 3.126654 1_455
Mg6 Mg9 3.126654 1_555
Mg6 Mg8 3.147741 1_565
Mg6 V1 3.246055 1_565
Mg6 Mg7 3.337406 1_565
Mg7 V0 3.083938 1_555
Mg7 Mg8 3.147741 1_555
Mg7 V1 3.246055 1_555
Mg8 Mg9 3.159784 1_445
Mg8 Mg9 3.159784 1_545
Mg8 V0 3.226326 1_545
Mg8 V0 3.226326 1_555
Mg9 V0 3.128109 1_655
Mg9 V0 3.128109 1_555
Mg10 Mg7 3.126654 1_555
Mg10 Mg7 3.126654 1_655
Mg10 V0 3.128109 1_655
Mg10 V0 3.128109 1_555
Mg10 Mg11 3.151739 1_555
Mg10 Mg8 3.159784 1_655
Mg10 Mg8 3.159784 1_555
Mg10 Mg9 3.168528 1_555
Mg10 Mg5 3.178714 1_555
Mg10 Mg9 3.284107 1_545
Mg11 Mg8 3.138775 1_655
Mg11 Mg8 3.138775 1_555
Mg11 Mg9 3.151739 1_545
Mg11 Mg3 3.178714 1_554
Mg11 Mg4 3.178714 1_544
Bi0 Mg9 3.084157 1_555
Bi0 Mg10 3.084157 1_555
Bi0 V0 3.117628 1_655
Bi0 V0 3.117628 1_555
Bi0 Mg0 3.211972 1_655
Bi0 Mg1 3.211972 1_655
Bi0 Mg1 3.211972 1_555
Bi0 Mg0 3.211972 1_555
Bi0 Mg11 3.226618 1_555
Bi0 Mg11 3.226618 1_565
Bi0 Mg3 3.245815 1_554
Bi0 Mg4 3.245815 1_554
Bi1 Mg3 3.084157 1_555
Bi1 Mg4 3.084157 1_545
Bi1 V1 3.117628 1_655
Bi1 V1 3.117628 1_555
Bi1 Mg7 3.211972 1_655
Bi1 Mg6 3.211972 1_645
Bi1 Mg6 3.211972 1_545
Bi1 Mg7 3.211972 1_555
Bi1 Mg5 3.226618 1_555
Bi1 Mg5 3.226618 1_545
Bi1 Mg9 3.245815 1_545
Bi1 Mg10 3.245815 1_555
