# generated using pymatgen
data_LaMg2H7Pd
_symmetry_space_group_name_H-M   'P 1'
_cell_length_a   4.76628800
_cell_length_b   8.11108300
_cell_length_c   11.75360400
_cell_angle_alpha   90.00000000
_cell_angle_beta   90.00000000
_cell_angle_gamma   90.00000000
_symmetry_Int_Tables_number   1
_chemical_formula_structural   LaMg2H7Pd
_chemical_formula_sum   'La4 Mg8 H28 Pd4'
_cell_volume   454.39148121
_cell_formula_units_Z   4
loop_
 _symmetry_equiv_pos_site_id
 _symmetry_equiv_pos_as_xyz
  1  'x, y, z'
loop_
 _atom_site_type_symbol
 _atom_site_label
 _atom_site_symmetry_multiplicity
 _atom_site_fract_x
 _atom_site_fract_y
 _atom_site_fract_z
 _atom_site_occupancy
  La  La0  1  0.99886200  0.44921600  0.21927900  1
  La  La1  1  0.00113800  0.94921600  0.28072100  1
  La  La2  1  0.49886200  0.05078400  0.78072100  1
  La  La3  1  0.50113800  0.55078400  0.71927900  1
  Mg  Mg0  1  0.98425800  0.34121200  0.89932700  1
  Mg  Mg1  1  0.01574200  0.84121200  0.60067300  1
  Mg  Mg2  1  0.48425800  0.15878800  0.10067300  1
  Mg  Mg3  1  0.51574200  0.65878800  0.39932700  1
  Mg  Mg4  1  0.99780200  0.72630400  0.89834300  1
  Mg  Mg5  1  0.00219800  0.22630400  0.60165700  1
  Mg  Mg6  1  0.49780200  0.77369600  0.10165700  1
  Mg  Mg7  1  0.50219800  0.27369600  0.39834300  1
  H  H0  1  0.53426900  0.40002400  0.13070400  1
  H  H1  1  0.46573100  0.90002400  0.36929600  1
  H  H2  1  0.03426900  0.09997600  0.86929600  1
  H  H3  1  0.96573100  0.59997600  0.63070400  1
  H  H4  1  0.11349200  0.51503300  0.01767700  1
  H  H5  1  0.88650800  0.01503300  0.48232300  1
  H  H6  1  0.61349200  0.98496700  0.98232300  1
  H  H7  1  0.38650800  0.48496700  0.51767700  1
  H  H8  1  0.59693200  0.65932600  0.94715400  1
  H  H9  1  0.40306800  0.15932600  0.55284600  1
  H  H10  1  0.09693200  0.84067400  0.05284600  1
  H  H11  1  0.90306800  0.34067400  0.44715400  1
  H  H12  1  0.53167500  0.32496500  0.88959200  1
  H  H13  1  0.46832500  0.82496500  0.61040800  1
  H  H14  1  0.03167500  0.17503500  0.11040800  1
  H  H15  1  0.96832500  0.67503500  0.38959200  1
  H  H16  1  0.27601200  0.78639400  0.78697800  1
  H  H17  1  0.72398800  0.28639400  0.71302200  1
  H  H18  1  0.77601200  0.71360600  0.21302200  1
  H  H19  1  0.22398800  0.21360600  0.28697800  1
  H  H20  1  0.97707100  0.53147700  0.80063300  1
  H  H21  1  0.02292900  0.03147700  0.69936700  1
  H  H22  1  0.47707100  0.96852300  0.19936700  1
  H  H23  1  0.52292900  0.46852300  0.30063300  1
  H  H24  1  0.75264900  0.79392500  0.76696100  1
  H  H25  1  0.24735100  0.29392500  0.73303900  1
  H  H26  1  0.25264900  0.70607500  0.23303900  1
  H  H27  1  0.74735100  0.20607500  0.26696100  1
  Pd  Pd0  1  0.47003100  0.47226000  0.99471100  1
  Pd  Pd1  1  0.52996900  0.97226000  0.50528900  1
  Pd  Pd2  1  0.97003100  0.02774000  0.00528900  1
  Pd  Pd3  1  0.02996900  0.52774000  0.49471100  1
loop_
_geom_bond_atom_site_label_1
_geom_bond_atom_site_label_2
_geom_bond_distance
_geom_bond_site_symmetry_2
H0 Pd0 1.729724 1_554
H0 Mg2 2.002505 1_555
H0 La0 2.479221 1_555
H0 La0 2.784826 1_455
H1 Pd1 1.729724 1_555
H1 Mg3 2.002505 1_555
H1 La1 2.479221 1_555
H1 La1 2.784826 1_655
H2 Pd2 1.729724 1_456
H2 Mg0 2.002505 1_455
H2 La2 2.479221 1_555
H2 La2 2.784826 1_455
H3 Pd3 1.729724 1_655
H3 Mg1 2.002505 1_655
H3 La3 2.479221 1_555
H3 La3 2.784826 1_655
H4 Pd0 1.755300 1_554
H4 Mg0 2.074164 1_454
H4 Mg4 2.282083 1_454
H4 La0 2.489632 1_455
H5 Pd1 1.755300 1_545
H5 Mg1 2.074164 1_645
H5 Mg5 2.282083 1_655
H5 La1 2.489632 1_645
H6 Pd2 1.755300 1_566
H6 Mg2 2.074164 1_566
H6 Mg6 2.282083 1_556
H6 La2 2.489632 1_565
H7 Pd3 1.755300 1_555
H7 Mg3 2.074164 1_555
H7 Mg7 2.282083 1_555
H7 La3 2.489632 1_555
H8 Pd0 1.726414 1_555
H8 Mg4 2.067584 1_555
H8 Mg6 2.093212 1_556
H8 La3 2.856069 1_555
H9 Pd1 1.726414 1_545
H9 Mg5 2.067584 1_555
H9 Mg7 2.093212 1_555
H9 La2 2.856069 1_555
H10 Pd2 1.726414 1_465
H10 Mg6 2.067584 1_555
H10 Mg4 2.093212 1_454
H10 La1 2.856069 1_555
H11 Pd3 1.726414 1_655
H11 Mg7 2.067584 1_555
H11 Mg5 2.093212 1_655
H11 La0 2.856069 1_555
H12 Pd0 1.743621 1_555
H12 Mg0 2.164189 1_555
H12 La2 2.570536 1_555
H12 La3 2.717213 1_555
H13 Pd1 1.743621 1_555
H13 Mg1 2.164189 1_555
H13 La3 2.570536 1_555
H13 La2 2.717213 1_565
H14 Pd2 1.743621 1_455
H14 Mg2 2.164189 1_555
H14 La0 2.570536 1_455
H14 La1 2.717213 1_545
H15 Pd3 1.743621 1_655
H15 Mg3 2.164189 1_555
H15 La1 2.570536 1_655
H15 La0 2.717213 1_555
H16 Mg4 1.925936 1_455
H16 La3 2.331659 1_555
H16 La2 2.394252 1_565
H17 Mg5 1.925936 1_655
H17 La2 2.331659 1_555
H17 La3 2.394252 1_555
H18 Mg6 1.925936 1_555
H18 La1 2.331659 1_655
H18 La0 2.394252 1_555
H19 Mg7 1.925936 1_555
H19 La0 2.331659 1_455
H19 La1 2.394252 1_545
H20 Mg0 1.930915 1_555
H20 Mg4 1.955992 1_555
H20 La3 2.466706 1_555
H20 La3 2.679202 1_655
H21 Mg1 1.930915 1_545
H21 Mg5 1.955992 1_555
H21 La2 2.466706 1_555
H21 La2 2.679202 1_455
H22 Mg2 1.930915 1_565
H22 Mg6 1.955992 1_555
H22 La1 2.466706 1_555
H22 La1 2.679202 1_655
H23 Mg3 1.930915 1_555
H23 Mg7 1.955992 1_555
H23 La0 2.466706 1_555
H23 La0 2.679202 1_455
H24 Mg4 2.012646 1_555
H24 Mg1 2.353630 1_655
H24 La3 2.374967 1_555
H24 La2 2.414522 1_565
H25 Mg5 2.012646 1_555
H25 Mg0 2.353630 1_455
H25 La2 2.374967 1_555
H25 La3 2.414522 1_555
H26 Mg6 2.012646 1_555
H26 Mg3 2.353630 1_555
H26 La1 2.374967 1_555
H26 La0 2.414522 1_455
H27 Mg7 2.012646 1_555
H27 Mg2 2.353630 1_555
H27 La0 2.374967 1_555
H27 La1 2.414522 1_645
