# generated using pymatgen
data_MgSi2
_symmetry_space_group_name_H-M   'P 1'
_cell_length_a   5.20010959
_cell_length_b   3.43779868
_cell_length_c   12.88995250
_cell_angle_alpha   105.45025262
_cell_angle_beta   107.99878469
_cell_angle_gamma   71.75407610
_symmetry_Int_Tables_number   1
_chemical_formula_structural   MgSi2
_chemical_formula_sum   'Mg4 Si8'
_cell_volume   204.43275184
_cell_formula_units_Z   4
loop_
 _symmetry_equiv_pos_site_id
 _symmetry_equiv_pos_as_xyz
  1  'x, y, z'
loop_
 _atom_site_type_symbol
 _atom_site_label
 _atom_site_symmetry_multiplicity
 _atom_site_fract_x
 _atom_site_fract_y
 _atom_site_fract_z
 _atom_site_occupancy
  Mg  Mg0  1  0.14241900  0.87036800  0.86305200  1
  Mg  Mg1  1  0.17174200  0.10006400  0.10595100  1
  Mg  Mg2  1  0.49189100  0.63784400  0.29796100  1
  Mg  Mg3  1  0.17048100  0.62529800  0.62525200  1
  Si  Si0  1  0.61251700  0.35721800  0.08212200  1
  Si  Si1  1  0.74730600  0.66319800  0.95197000  1
  Si  Si2  1  0.74264000  0.38000200  0.67035900  1
  Si  Si3  1  0.13309500  0.41619900  0.38840100  1
  Si  Si4  1  0.55444700  0.10343200  0.80069900  1
  Si  Si5  1  0.88467500  0.88170300  0.23526500  1
  Si  Si6  1  0.83999000  0.12632300  0.45943600  1
  Si  Si7  1  0.50855800  0.83859900  0.51971400  1
loop_
_geom_bond_atom_site_label_1
_geom_bond_atom_site_label_2
_geom_bond_distance
_geom_bond_site_symmetry_2
Mg0 Si4 2.815454 1_465
Mg0 Si4 2.891531 1_565
Mg0 Si1 2.918743 1_555
Mg0 Si4 2.930175 1_555
Mg0 Si1 2.974723 1_455
Mg0 Si1 3.041078 1_465
Mg0 Si2 3.178913 1_455
Mg0 Si2 3.226055 1_465
Mg1 Si0 2.704693 1_455
Mg1 Si0 2.824555 1_555
Mg1 Si0 2.867303 1_545
Mg1 Si5 2.911429 1_445
Mg1 Si1 2.974323 1_444
Mg1 Si5 2.977723 1_455
Mg1 Si1 3.036955 1_454
Mg2 Si7 2.736325 1_555
Mg2 Si5 2.825087 1_555
Mg2 Si3 2.851041 1_555
Mg2 Si6 2.853370 1_565
Mg2 Si5 2.856267 1_545
Mg2 Si6 2.886127 1_555
Mg2 Si0 2.886876 1_555
Mg2 Si5 2.907345 1_455
Mg2 Si3 2.925078 1_565
Mg2 Si3 3.088290 1_655
Mg3 Si2 2.742730 1_555
Mg3 Si6 2.843749 1_455
Mg3 Si2 2.869579 1_455
Mg3 Si7 2.880239 1_555
Mg3 Si6 2.885554 1_465
Mg3 Si2 2.898360 1_465
Mg3 Si3 2.902884 1_555
Mg3 Si7 2.965826 1_545
Mg3 Si4 3.014456 1_565
Mg3 Si4 3.073735 1_555
Mg3 Si7 3.208333 1_455
Si0 Si1 2.557523 1_554
Si0 Si1 2.558353 1_544
Si0 Si5 2.667596 1_545
Si0 Si5 2.669408 1_555
Si1 Si4 2.551797 1_565
Si1 Si4 2.551816 1_555
Si2 Si7 2.589699 1_555
Si2 Si7 2.597853 1_545
Si2 Si4 2.670993 1_555
Si2 Si4 2.689116 1_565
Si2 Si6 2.778388 1_555
Si3 Si6 2.540541 1_455
Si3 Si6 2.542195 1_465
Si3 Si5 2.630500 1_445
Si3 Si5 2.634161 1_455
Si3 Si7 2.684991 1_555
Si3 Si7 2.817914 1_545
Si5 Si6 2.847559 1_565
Si6 Si7 2.596388 1_555
Si6 Si7 2.618594 1_545
