# generated using pymatgen
data_LaMg14Al
_symmetry_space_group_name_H-M   'P 1'
_cell_length_a   6.56739126
_cell_length_b   6.42917708
_cell_length_c   10.33824276
_cell_angle_alpha   90.00000000
_cell_angle_beta   90.00000000
_cell_angle_gamma   119.30623341
_symmetry_Int_Tables_number   1
_chemical_formula_structural   LaMg14Al
_chemical_formula_sum   'La1 Mg14 Al1'
_cell_volume   380.64442240
_cell_formula_units_Z   1
loop_
 _symmetry_equiv_pos_site_id
 _symmetry_equiv_pos_as_xyz
  1  'x, y, z'
loop_
 _atom_site_type_symbol
 _atom_site_label
 _atom_site_symmetry_multiplicity
 _atom_site_fract_x
 _atom_site_fract_y
 _atom_site_fract_z
 _atom_site_occupancy
  La  La0  1  0.15484181  0.82742041  0.12500000  1
  Mg  Mg0  1  0.16326319  0.33163109  0.62500000  1
  Mg  Mg1  1  0.16670479  0.83335189  0.62500000  1
  Mg  Mg2  1  0.65163388  0.33379076  0.12500000  1
  Mg  Mg3  1  0.66659721  0.32979872  0.62500000  1
  Mg  Mg4  1  0.65163388  0.81784212  0.12500000  1
  Mg  Mg5  1  0.66659721  0.83679748  0.62500000  1
  Mg  Mg6  1  0.33687104  0.17402581  0.38110807  1
  Mg  Mg7  1  0.33687104  0.17402581  0.86889193  1
  Mg  Mg8  1  0.33687104  0.66284624  0.38110807  1
  Mg  Mg9  1  0.33687104  0.66284624  0.86889193  1
  Mg  Mg10  1  0.84170561  0.17085330  0.36125903  1
  Mg  Mg11  1  0.84170561  0.17085330  0.88874097  1
  Mg  Mg12  1  0.82715211  0.66357655  0.38626028  1
  Mg  Mg13  1  0.82715211  0.66357655  0.86373972  1
  Al  Al0  1  0.19352845  0.34676372  0.12500000  1
loop_
_geom_bond_atom_site_label_1
_geom_bond_atom_site_label_2
_geom_bond_distance
_geom_bond_site_symmetry_2
La0 Mg2 3.275061 1_455
La0 Mg4 3.275061 1_455
La0 Mg8 3.285919 1_555
La0 Mg9 3.285919 1_554
La0 Mg7 3.285925 1_564
La0 Mg6 3.285925 1_565
La0 Mg12 3.288923 1_455
La0 Mg13 3.288923 1_454
La0 Mg2 3.293208 1_565
La0 Mg4 3.293208 1_555
Mg0 Mg6 3.132916 1_555
Mg0 Mg7 3.132916 1_555
Mg0 Mg8 3.132922 1_555
Mg0 Mg9 3.132922 1_555
Mg0 Mg1 3.214649 1_555
Mg0 Mg1 3.214649 1_545
Mg0 Mg5 3.256049 1_445
Mg0 Mg3 3.256050 1_455
Mg0 Mg11 3.290234 1_455
Mg0 Mg10 3.290234 1_455
Mg0 Mg5 3.311373 1_555
Mg0 Mg3 3.311374 1_555
Mg1 Mg12 3.142154 1_455
Mg1 Mg13 3.142154 1_455
Mg1 Mg8 3.163449 1_555
Mg1 Mg9 3.163449 1_555
Mg1 Mg6 3.163455 1_565
Mg1 Mg7 3.163455 1_565
Mg1 Mg3 3.272203 1_565
Mg1 Mg5 3.272203 1_555
Mg1 Mg3 3.295302 1_455
Mg1 Mg5 3.295302 1_455
Mg2 Mg4 3.112052 1_555
Mg2 Mg7 3.203120 1_554
Mg2 Mg6 3.203120 1_555
Mg2 Mg4 3.317125 1_545
Mg3 Mg7 3.150653 1_555
Mg3 Mg6 3.150653 1_555
Mg3 Mg5 3.169592 1_545
Mg3 Mg5 3.259585 1_555
Mg4 Mg8 3.203120 1_555
Mg4 Mg9 3.203120 1_554
Mg5 Mg8 3.150653 1_555
Mg5 Mg9 3.150653 1_555
Mg6 Mg8 3.142713 1_555
Mg6 Mg8 3.286464 1_545
Mg7 Mg9 3.142713 1_555
Mg7 Mg9 3.286464 1_545
Mg10 Mg2 3.146665 1_555
Mg10 Mg4 3.146671 1_545
Mg10 Mg12 3.226040 1_545
Mg10 Mg12 3.226040 1_555
Mg10 Mg8 3.248498 1_655
Mg10 Mg6 3.248498 1_655
Mg10 Mg3 3.309329 1_555
Mg10 Mg5 3.309335 1_545
Mg10 Mg8 3.331802 1_545
Mg10 Mg6 3.331803 1_555
Mg11 Mg2 3.146665 1_556
Mg11 Mg4 3.146671 1_546
Mg11 Mg13 3.226040 1_545
Mg11 Mg13 3.226040 1_555
Mg11 Mg9 3.248498 1_655
Mg11 Mg7 3.248498 1_655
Mg11 Mg3 3.309329 1_555
Mg11 Mg5 3.309335 1_545
Mg11 Mg9 3.331802 1_545
Mg11 Mg7 3.331803 1_555
Mg12 Mg5 3.097322 1_555
Mg12 Mg3 3.097328 1_555
Mg12 Mg6 3.218012 1_555
Mg12 Mg8 3.218013 1_555
Mg12 Mg4 3.275182 1_555
Mg12 Mg2 3.275188 1_555
Mg12 Mg6 3.350248 1_665
Mg12 Mg8 3.350248 1_655
Mg13 Mg5 3.097322 1_555
Mg13 Mg3 3.097328 1_555
Mg13 Mg7 3.218012 1_555
Mg13 Mg9 3.218013 1_555
Mg13 Mg4 3.275182 1_556
Mg13 Mg2 3.275188 1_556
Mg13 Mg7 3.350248 1_665
Mg13 Mg9 3.350248 1_655
Al0 Mg4 3.050250 1_555
Al0 Mg2 3.050250 1_555
Al0 Mg10 3.166294 1_455
Al0 Mg11 3.166294 1_454
Al0 Mg7 3.186437 1_554
Al0 Mg6 3.186437 1_555
Al0 Mg9 3.186443 1_554
Al0 Mg8 3.186443 1_555
Al0 La0 3.222214 1_545
Al0 La0 3.222214 1_555
