# generated using pymatgen
data_Tb3Al
_symmetry_space_group_name_H-M   'P 1'
_cell_length_a   4.76091752
_cell_length_b   4.76094766
_cell_length_c   4.76090492
_cell_angle_alpha   90.00000000
_cell_angle_beta   90.00000000
_cell_angle_gamma   90.00000000
_symmetry_Int_Tables_number   1
_chemical_formula_structural   Tb3Al
_chemical_formula_sum   'Tb3 Al1'
_cell_volume   107.91295199
_cell_formula_units_Z   1
loop_
 _symmetry_equiv_pos_site_id
 _symmetry_equiv_pos_as_xyz
  1  'x, y, z'
loop_
 _atom_site_type_symbol
 _atom_site_label
 _atom_site_symmetry_multiplicity
 _atom_site_fract_x
 _atom_site_fract_y
 _atom_site_fract_z
 _atom_site_occupancy
  Tb  Tb0  1  -0.00000000  0.50000000  0.50000000  1
  Tb  Tb1  1  0.50000000  0.50000000  -0.00000000  1
  Tb  Tb2  1  0.50000000  0.00000000  0.50000000  1
  Al  Al0  1  -0.00000000  0.00000000  -0.00000000  1
loop_
_geom_bond_atom_site_label_1
_geom_bond_atom_site_label_2
_geom_bond_distance
_geom_bond_site_symmetry_2
Tb0 Tb1 3.366473 1_556
Tb0 Tb1 3.366473 1_456
Tb0 Tb1 3.366473 1_455
Tb0 Tb1 3.366473 1_555
Tb0 Tb2 3.366488 1_455
Tb0 Tb2 3.366488 1_555
Tb0 Tb2 3.366488 1_465
Tb0 Tb2 3.366488 1_565
Tb1 Tb2 3.366483 1_564
Tb1 Tb2 3.366483 1_565
Tb1 Tb2 3.366483 1_555
Tb1 Tb2 3.366483 1_554
Al0 Tb2 3.366473 1_454
Al0 Tb2 3.366473 1_554
Al0 Tb2 3.366473 1_455
Al0 Tb2 3.366473 1_555
Al0 Tb0 3.366483 1_555
Al0 Tb0 3.366483 1_545
Al0 Tb0 3.366483 1_554
Al0 Tb0 3.366483 1_544
Al0 Tb1 3.366488 1_445
Al0 Tb1 3.366488 1_545
Al0 Tb1 3.366488 1_455
Al0 Tb1 3.366488 1_555
