# generated using pymatgen
data_Sm2Fe17C
_symmetry_space_group_name_H-M   'P 1'
_cell_length_a   6.46617057
_cell_length_b   6.46617057
_cell_length_c   6.46505828
_cell_angle_alpha   83.59092545
_cell_angle_beta   83.59092545
_cell_angle_gamma   83.48704461
_symmetry_Int_Tables_number   1
_chemical_formula_structural   Sm2Fe17C
_chemical_formula_sum   'Sm2 Fe17 C1'
_cell_volume   265.54578186
_cell_formula_units_Z   1
loop_
 _symmetry_equiv_pos_site_id
 _symmetry_equiv_pos_as_xyz
  1  'x, y, z'
loop_
 _atom_site_type_symbol
 _atom_site_label
 _atom_site_symmetry_multiplicity
 _atom_site_fract_x
 _atom_site_fract_y
 _atom_site_fract_z
 _atom_site_occupancy
  Sm  Sm0  1  0.33836900  0.33836900  0.35072800  1
  Sm  Sm1  1  0.66163100  0.66163100  0.64927200  1
  Fe  Fe0  1  0.65713700  0.65713700  0.14936600  1
  Fe  Fe1  1  0.65838600  0.15072300  0.65733900  1
  Fe  Fe2  1  0.15072300  0.65838600  0.65733900  1
  Fe  Fe3  1  0.34286300  0.34286300  0.85063400  1
  Fe  Fe4  1  0.34161400  0.84927700  0.34266100  1
  Fe  Fe5  1  0.84927700  0.34161400  0.34266100  1
  Fe  Fe6  1  0.09637400  0.09637400  0.09679100  1
  Fe  Fe7  1  0.90362600  0.90362600  0.90320900  1
  Fe  Fe8  1  0.00000000  0.00000000  0.50000000  1
  Fe  Fe9  1  0.00000000  0.50000000  0.00000000  1
  Fe  Fe10  1  0.50000000  0.00000000  0.00000000  1
  Fe  Fe11  1  0.71471100  0.28528900  0.00000000  1
  Fe  Fe12  1  0.28839600  0.99960200  0.71149300  1
  Fe  Fe13  1  0.00039800  0.71160400  0.28850700  1
  Fe  Fe14  1  0.71160400  0.00039800  0.28850700  1
  Fe  Fe15  1  0.99960200  0.28839600  0.71149300  1
  Fe  Fe16  1  0.28528900  0.71471100  0.00000000  1
  C  C0  1  0.50000000  0.50000000  0.00000000  1
loop_
_geom_bond_atom_site_label_1
_geom_bond_atom_site_label_2
_geom_bond_distance
_geom_bond_site_symmetry_2
Fe0 Fe9 2.471864 1_655
Fe0 Fe10 2.471864 1_565
Fe0 Fe4 2.543648 1_555
Fe0 Fe5 2.543648 1_555
Fe0 Fe13 2.560003 1_655
Fe0 Fe14 2.560003 1_565
Fe0 Fe7 2.656503 1_554
Fe1 Fe8 2.468857 1_655
Fe1 Fe10 2.478767 1_556
Fe1 Fe5 2.531874 1_555
Fe1 Fe3 2.543648 1_555
Fe1 Fe15 2.543758 1_555
Fe1 Fe11 2.545543 1_556
Fe1 Fe14 2.647183 1_555
Fe1 Fe7 2.648620 1_545
Fe1 Fe12 2.658586 1_545
Fe1 Sm0 3.081025 1_555
Fe1 Sm1 3.166453 1_545
Fe1 Sm1 3.300617 1_555
Fe2 Fe8 2.468857 1_565
Fe2 Fe9 2.478767 1_556
Fe2 Fe4 2.531874 1_555
Fe2 Fe3 2.543648 1_555
Fe2 Fe7 2.648620 1_455
Fe2 Sm0 3.081025 1_555
Fe2 Sm1 3.166453 1_455
Fe2 Sm1 3.300617 1_555
Fe3 Fe9 2.471864 1_556
Fe3 Fe6 2.656503 1_556
Fe4 Fe8 2.468857 1_565
Fe4 Fe6 2.648620 1_565
Fe4 Sm1 3.081025 1_555
Fe4 Sm0 3.166453 1_565
Fe4 Sm0 3.300617 1_555
Fe5 Fe8 2.468857 1_655
Fe5 Fe9 2.478767 1_655
Fe5 Fe6 2.648620 1_655
Fe5 Sm1 3.081025 1_555
Fe5 Sm0 3.166453 1_655
Fe5 Sm0 3.300617 1_555
Fe6 Fe7 2.392048 1_444
Fe6 Fe8 2.633381 1_555
Fe6 Fe9 2.635347 1_555
Fe6 Sm0 3.048741 1_555
Fe7 Fe8 2.633381 1_665
Fe7 Fe9 2.635347 1_656
Fe7 Sm1 3.048741 1_555
Fe8 Sm0 3.263248 1_555
Fe8 Sm1 3.263248 1_445
Fe9 Sm0 3.328762 1_555
Fe9 Sm1 3.328762 1_454
Fe10 Fe11 2.431371 1_555
Fe10 Fe16 2.431371 1_545
Fe10 Fe14 2.433685 1_555
Fe10 Fe12 2.433685 1_544
Fe10 Fe3 2.471864 1_554
Fe10 Fe4 2.478767 1_545
Fe10 Fe7 2.635347 1_544
Fe10 Fe6 2.635347 1_555
Fe10 Sm0 3.328762 1_555
Fe10 Sm1 3.328762 1_544
Fe11 Fe9 2.431371 1_655
Fe11 Fe15 2.471010 1_554
Fe11 Fe14 2.471010 1_555
Fe11 Fe5 2.545543 1_555
Fe11 Fe6 2.732127 1_655
Fe11 Fe7 2.732127 1_544
Fe12 Fe8 2.431969 1_565
Fe12 Fe16 2.471010 1_556
Fe12 Fe15 2.486608 1_465
Fe12 Fe2 2.543758 1_555
Fe12 Fe3 2.560003 1_565
Fe12 Fe4 2.647183 1_555
Fe12 Fe7 2.757094 1_455
Fe12 Fe6 2.760331 1_566
Fe12 Sm0 3.032235 1_565
Fe12 Sm1 3.089537 1_555
Fe13 Fe8 2.431969 1_565
Fe13 Fe9 2.433685 1_555
Fe13 Fe16 2.471010 1_555
Fe13 Fe14 2.486608 1_465
Fe13 Fe4 2.543758 1_555
Fe13 Fe2 2.647183 1_555
Fe13 Fe5 2.658586 1_455
Fe13 Fe6 2.757094 1_565
Fe13 Fe7 2.760331 1_454
Fe13 Sm1 3.032235 1_455
Fe13 Sm0 3.089537 1_555
Fe14 Fe8 2.431969 1_655
Fe14 Fe5 2.543758 1_555
Fe14 Fe4 2.658586 1_545
Fe14 Fe6 2.757094 1_655
Fe14 Fe7 2.760331 1_544
Fe14 Sm1 3.032235 1_545
Fe14 Sm0 3.089537 1_555
Fe15 Fe8 2.431969 1_655
Fe15 Fe9 2.433685 1_656
Fe15 Fe3 2.560003 1_655
Fe15 Fe5 2.647183 1_555
Fe15 Fe2 2.658586 1_655
Fe15 Fe7 2.757094 1_545
Fe15 Fe6 2.760331 1_656
Fe15 Sm0 3.032235 1_655
Fe15 Sm1 3.089537 1_555
Fe16 Fe9 2.431371 1_555
Fe16 Fe4 2.545543 1_555
Fe16 Fe2 2.545543 1_554
Fe16 Fe6 2.732127 1_565
Fe16 Fe7 2.732127 1_454
C0 Fe16 1.848730 1_555
C0 Fe11 1.848730 1_555
C0 Fe0 1.915627 1_555
C0 Fe3 1.915627 1_554
C0 Sm0 2.552591 1_555
C0 Sm1 2.552591 1_554
