# generated using pymatgen
data_Tb2SO2
_symmetry_space_group_name_H-M   'P 1'
_cell_length_a   3.80964225
_cell_length_b   3.80964093
_cell_length_c   6.61388556
_cell_angle_alpha   90.00000000
_cell_angle_beta   90.00000000
_cell_angle_gamma   120.00000273
_symmetry_Int_Tables_number   1
_chemical_formula_structural   Tb2SO2
_chemical_formula_sum   'Tb2 S1 O2'
_cell_volume   83.12956997
_cell_formula_units_Z   1
loop_
 _symmetry_equiv_pos_site_id
 _symmetry_equiv_pos_as_xyz
  1  'x, y, z'
loop_
 _atom_site_type_symbol
 _atom_site_label
 _atom_site_symmetry_multiplicity
 _atom_site_fract_x
 _atom_site_fract_y
 _atom_site_fract_z
 _atom_site_occupancy
  Tb  Tb0  1  0.66666700  0.33333300  0.71732653  1
  Tb  Tb1  1  0.33333300  0.66666700  0.28267347  1
  S  S0  1  -0.00000000  0.00000000  0.00000000  1
  O  O0  1  0.66666700  0.33333300  0.37089921  1
  O  O1  1  0.33333300  0.66666700  0.62910079  1
loop_
_geom_bond_atom_site_label_1
_geom_bond_atom_site_label_2
_geom_bond_distance
_geom_bond_site_symmetry_2
S0 Tb1 2.886706 1_545
S0 Tb0 2.886706 1_454
S0 Tb1 2.886708 1_555
S0 Tb0 2.886708 1_444
S0 Tb0 2.886709 1_554
S0 Tb1 2.886709 1_445
O0 Tb1 2.275581 1_545
O0 Tb1 2.275581 1_655
O0 Tb1 2.275588 1_555
O0 Tb0 2.291231 1_555
O1 Tb0 2.275581 1_565
O1 Tb0 2.275581 1_455
O1 Tb0 2.275588 1_555
O1 Tb1 2.291231 1_555
