# generated using pymatgen
data_TmAlGe
_symmetry_space_group_name_H-M   'P 1'
_cell_length_a   5.51458574
_cell_length_b   5.51458574
_cell_length_c   5.68016714
_cell_angle_alpha   90.00000000
_cell_angle_beta   90.00000000
_cell_angle_gamma   137.51261281
_symmetry_Int_Tables_number   1
_chemical_formula_structural   TmAlGe
_chemical_formula_sum   'Tm2 Al2 Ge2'
_cell_volume   116.67179858
_cell_formula_units_Z   2
loop_
 _symmetry_equiv_pos_site_id
 _symmetry_equiv_pos_as_xyz
  1  'x, y, z'
loop_
 _atom_site_type_symbol
 _atom_site_label
 _atom_site_symmetry_multiplicity
 _atom_site_fract_x
 _atom_site_fract_y
 _atom_site_fract_z
 _atom_site_occupancy
  Tm  Tm0  1  0.69013357  0.30986643  0.25000000  1
  Tm  Tm1  1  0.30986643  0.69013357  0.75000000  1
  Al  Al0  1  -0.00000000  0.00000000  0.50000000  1
  Al  Al1  1  -0.00000000  0.00000000  -0.00000000  1
  Ge  Ge0  1  0.39309035  0.60690965  0.25000000  1
  Ge  Ge1  1  0.60690965  0.39309035  0.75000000  1
loop_
_geom_bond_atom_site_label_1
_geom_bond_atom_site_label_2
_geom_bond_distance
_geom_bond_site_symmetry_2
Al0 Ge0 2.686418 1_445
Al0 Ge1 2.686418 1_555
Al0 Ge0 2.686418 1_555
Al0 Ge1 2.686418 1_445
Al0 Tm0 3.135153 1_445
Al0 Tm1 3.135153 1_555
Al0 Tm1 3.135153 1_445
Al0 Tm0 3.135153 1_555
Al1 Ge0 2.686418 1_445
Al1 Ge0 2.686418 1_555
Al1 Ge1 2.686418 1_554
Al1 Ge1 2.686418 1_444
Al1 Tm1 3.135153 1_554
Al1 Tm0 3.135153 1_445
Al1 Tm1 3.135153 1_444
Al1 Tm0 3.135153 1_555
Ge0 Tm0 2.888828 1_455
Ge0 Tm0 2.888828 1_565
Ge0 Tm1 2.966140 1_554
Ge0 Tm1 2.966140 1_555
Ge0 Tm0 3.053520 1_555
Ge1 Tm1 2.888828 1_655
Ge1 Tm1 2.888828 1_545
Ge1 Tm0 2.966140 1_556
Ge1 Tm0 2.966140 1_555
Ge1 Tm1 3.053520 1_555
