# generated using pymatgen
data_Y2MgS4
_symmetry_space_group_name_H-M   'P 1'
_cell_length_a   7.87829182
_cell_length_b   7.87832789
_cell_length_c   7.87833430
_cell_angle_alpha   59.99921392
_cell_angle_beta   59.99966833
_cell_angle_gamma   59.99974950
_symmetry_Int_Tables_number   1
_chemical_formula_structural   Y2MgS4
_chemical_formula_sum   'Y4 Mg2 S8'
_cell_volume   345.76500143
_cell_formula_units_Z   2
loop_
 _symmetry_equiv_pos_site_id
 _symmetry_equiv_pos_as_xyz
  1  'x, y, z'
loop_
 _atom_site_type_symbol
 _atom_site_label
 _atom_site_symmetry_multiplicity
 _atom_site_fract_x
 _atom_site_fract_y
 _atom_site_fract_z
 _atom_site_occupancy
  Y  Y0  1  0.62500001  0.12499997  0.62500001  1
  Y  Y1  1  0.62500002  0.62500001  0.12499997  1
  Y  Y2  1  0.12499997  0.62500001  0.62500000  1
  Y  Y3  1  0.62500001  0.62500002  0.62500001  1
  Mg  Mg0  1  0.00000139  0.00000135  0.00000136  1
  Mg  Mg1  1  0.24999864  0.24999860  0.24999861  1
  S  S0  1  0.37951653  0.37952044  0.37952025  1
  S  S1  1  0.86144448  0.37951962  0.37951980  1
  S  S2  1  0.37951962  0.86144451  0.37951590  1
  S  S3  1  0.37951980  0.37951590  0.86144451  1
  S  S4  1  0.87047596  0.87047986  0.38856820  1
  S  S5  1  0.87047615  0.38856820  0.87047987  1
  S  S6  1  0.38856817  0.87047616  0.87047597  1
  S  S7  1  0.87047925  0.87047535  0.87047554  1
loop_
_geom_bond_atom_site_label_1
_geom_bond_atom_site_label_2
_geom_bond_distance
_geom_bond_site_symmetry_2
Mg0 S6 2.499488 1_544
Mg0 S4 2.499488 1_445
Mg0 S5 2.499488 1_454
Mg0 S7 2.499557 1_444
Mg1 S2 2.499406 1_545
Mg1 S3 2.499406 1_554
Mg1 S1 2.499407 1_455
Mg1 S0 2.499476 1_555
S0 Y1 2.735968 1_555
S0 Y0 2.735974 1_555
S0 Y2 2.735977 1_555
S1 Y0 2.735975 1_555
S1 Y1 2.735980 1_555
S1 Y3 2.735985 1_555
S2 Y2 2.735975 1_555
S2 Y3 2.735982 1_555
S2 Y1 2.735983 1_555
S3 Y3 2.735977 1_555
S3 Y2 2.735980 1_555
S3 Y0 2.735983 1_555
S4 Y3 2.735931 1_555
S4 Y2 2.735935 1_655
S4 Y0 2.735938 1_565
S5 Y2 2.735929 1_655
S5 Y3 2.735936 1_555
S5 Y1 2.735938 1_556
S6 Y0 2.735929 1_565
S6 Y1 2.735935 1_556
S6 Y3 2.735939 1_555
S7 Y1 2.735923 1_556
S7 Y0 2.735928 1_565
S7 Y2 2.735931 1_655
