# generated using pymatgen
data_Ti3Fe(BiO3)5
_symmetry_space_group_name_H-M   'P 1'
_cell_length_a   3.96800350
_cell_length_b   3.96800350
_cell_length_c   20.70600862
_cell_angle_alpha   84.57108651
_cell_angle_beta   84.57108651
_cell_angle_gamma   88.55952303
_symmetry_Int_Tables_number   1
_chemical_formula_structural   Ti3Fe(BiO3)5
_chemical_formula_sum   'Ti3 Fe1 Bi5 O15'
_cell_volume   323.05583639
_cell_formula_units_Z   1
loop_
 _symmetry_equiv_pos_site_id
 _symmetry_equiv_pos_as_xyz
  1  'x, y, z'
loop_
 _atom_site_type_symbol
 _atom_site_label
 _atom_site_symmetry_multiplicity
 _atom_site_fract_x
 _atom_site_fract_y
 _atom_site_fract_z
 _atom_site_occupancy
  Ti  Ti0  1  0.57769200  0.57769200  0.90132800  1
  Ti  Ti1  1  0.37785700  0.37785700  0.30325100  1
  Ti  Ti2  1  0.68165000  0.68165000  0.69771100  1
  Fe  Fe0  1  0.49115900  0.49115900  0.09881400  1
  Bi  Bi0  1  0.96921800  0.96921800  0.00964500  1
  Bi  Bi1  1  0.06920700  0.06920700  0.79622600  1
  Bi  Bi2  1  0.85838200  0.85838200  0.20641500  1
  Bi  Bi3  1  0.16809300  0.16809300  0.56218900  1
  Bi  Bi4  1  0.73021400  0.73021400  0.43913300  1
  O  O0  1  0.01192900  0.54476000  0.09080800  1
  O  O1  1  0.63871500  0.11813800  0.90142200  1
  O  O2  1  0.54476000  0.01192900  0.09080800  1
  O  O3  1  0.11813800  0.63871500  0.90142200  1
  O  O4  1  0.91248000  0.43092300  0.28638400  1
  O  O5  1  0.71695200  0.20051400  0.71474400  1
  O  O6  1  0.43092300  0.91248000  0.28638400  1
  O  O7  1  0.20051400  0.71695200  0.71474400  1
  O  O8  1  0.58775800  0.58775800  0.99657700  1
  O  O9  1  0.74328100  0.24299200  0.50016300  1
  O  O10  1  0.24299200  0.74328100  0.50016300  1
  O  O11  1  0.75565300  0.75565300  0.61073200  1
  O  O12  1  0.36648100  0.36648100  0.38961000  1
  O  O13  1  0.67838500  0.67838500  0.80657300  1
  O  O14  1  0.48016600  0.48016600  0.19475500  1
loop_
_geom_bond_atom_site_label_1
_geom_bond_atom_site_label_2
_geom_bond_distance
_geom_bond_site_symmetry_2
Fe0 O0 1.929090 1_555
Fe0 O2 1.929090 1_555
Fe0 O14 1.979270 1_555
Fe0 O2 2.072053 1_565
Fe0 O0 2.072053 1_655
Fe0 O8 2.115539 1_554
Bi0 O8 2.219366 1_554
Bi0 O2 2.278961 1_565
Bi0 O0 2.278961 1_655
Bi1 O13 2.202483 1_445
Bi1 O5 2.305424 1_455
Bi1 O7 2.305424 1_545
Bi1 O3 2.656959 1_545
Bi1 O1 2.656959 1_455
Bi2 O14 2.193906 1_555
Bi2 O6 2.276477 1_555
Bi2 O4 2.276477 1_555
Bi3 O10 2.211662 1_545
Bi3 O9 2.211662 1_455
Bi3 O11 2.424686 1_445
Bi3 O10 2.520738 1_555
Bi3 O9 2.520738 1_555
Bi4 O10 2.209596 1_555
Bi4 O9 2.209596 1_555
Bi4 O12 2.425389 1_555
Bi4 O9 2.498770 1_565
Bi4 O10 2.498770 1_655
O1 Ti0 1.833316 1_555
O1 Ti0 2.164363 1_545
O3 Ti0 1.833316 1_555
O3 Ti0 2.164363 1_455
O4 Ti1 1.914387 1_655
O4 Ti1 2.129540 1_555
O5 Ti2 1.912421 1_555
O5 Ti2 2.131698 1_545
O6 Ti1 1.914387 1_565
O6 Ti1 2.129540 1_555
O7 Ti2 1.912421 1_555
O7 Ti2 2.131698 1_455
O8 Ti0 1.980596 1_555
O11 Ti2 1.794494 1_555
O12 Ti1 1.780762 1_555
O13 Ti0 1.969791 1_555
O13 Ti2 2.251721 1_555
O14 Ti1 2.244906 1_555
