# generated using pymatgen
data_CaFe3(P2O7)2
_symmetry_space_group_name_H-M   'P 1'
_cell_length_a   7.78143700
_cell_length_b   7.56659300
_cell_length_c   9.59935418
_cell_angle_alpha   68.15168463
_cell_angle_beta   90.00000000
_cell_angle_gamma   90.00000000
_symmetry_Int_Tables_number   1
_chemical_formula_structural   CaFe3(P2O7)2
_chemical_formula_sum   'Ca2 Fe6 P8 O28'
_cell_volume   524.60305615
_cell_formula_units_Z   2
loop_
 _symmetry_equiv_pos_site_id
 _symmetry_equiv_pos_as_xyz
  1  'x, y, z'
loop_
 _atom_site_type_symbol
 _atom_site_label
 _atom_site_symmetry_multiplicity
 _atom_site_fract_x
 _atom_site_fract_y
 _atom_site_fract_z
 _atom_site_occupancy
  Ca  Ca0  1  0.00000000  0.50000000  0.00000000  1
  Ca  Ca1  1  0.50000000  0.50000000  0.50000000  1
  Fe  Fe0  1  0.12432000  0.81007400  0.52685400  1
  Fe  Fe1  1  0.62432000  0.18992600  0.97314600  1
  Fe  Fe2  1  0.87568000  0.18992600  0.47314600  1
  Fe  Fe3  1  0.37568000  0.81007400  0.02685400  1
  Fe  Fe4  1  0.00000000  0.00000000  0.00000000  1
  Fe  Fe5  1  0.50000000  0.00000000  0.50000000  1
  P  P0  1  0.93603000  0.40270800  0.70454500  1
  P  P1  1  0.43603000  0.59729200  0.79545500  1
  P  P2  1  0.06397000  0.59729200  0.29545500  1
  P  P3  1  0.56397000  0.40270800  0.20454500  1
  P  P4  1  0.20238300  0.12246000  0.68966300  1
  P  P5  1  0.70238300  0.87754000  0.81033700  1
  P  P6  1  0.79761700  0.87754000  0.31033700  1
  P  P7  1  0.29761700  0.12246000  0.18966300  1
  O  O0  1  0.37387300  0.17432600  0.60736700  1
  O  O1  1  0.87387300  0.82567400  0.89263300  1
  O  O2  1  0.62612700  0.82567400  0.39263300  1
  O  O3  1  0.12612700  0.17432600  0.10736700  1
  O  O4  1  0.38658400  0.71847400  0.62907800  1
  O  O5  1  0.88658400  0.28152600  0.87092200  1
  O  O6  1  0.61341600  0.28152600  0.37092200  1
  O  O7  1  0.11341600  0.71847400  0.12907800  1
  O  O8  1  0.80688100  0.38169900  0.59290800  1
  O  O9  1  0.30688100  0.61830100  0.90709200  1
  O  O10  1  0.19311900  0.61830100  0.40709200  1
  O  O11  1  0.69311900  0.38169900  0.09290800  1
  O  O12  1  0.12012200  0.32447000  0.67390700  1
  O  O13  1  0.62012200  0.67553000  0.82609300  1
  O  O14  1  0.87987800  0.67553000  0.32609300  1
  O  O15  1  0.37987800  0.32447000  0.17390700  1
  O  O16  1  0.51909200  0.60292800  0.19477000  1
  O  O17  1  0.01909200  0.39707200  0.30523000  1
  O  O18  1  0.48090800  0.39707200  0.80523000  1
  O  O19  1  0.98090800  0.60292800  0.69477000  1
  O  O20  1  0.78858100  0.98788400  0.13944600  1
  O  O21  1  0.28858100  0.01211600  0.36055400  1
  O  O22  1  0.21141900  0.01211600  0.86055400  1
  O  O23  1  0.71141900  0.98788400  0.63944600  1
  O  O24  1  0.41979500  0.03188000  0.11076500  1
  O  O25  1  0.91979500  0.96812000  0.38923500  1
  O  O26  1  0.58020500  0.96812000  0.88923500  1
  O  O27  1  0.08020500  0.03188000  0.61076500  1
loop_
_geom_bond_atom_site_label_1
_geom_bond_atom_site_label_2
_geom_bond_distance
_geom_bond_site_symmetry_2
Ca0 O3 2.491509 1_555
Ca0 O1 2.491509 1_454
Ca0 O7 2.563487 1_555
Ca0 O5 2.563487 1_454
Ca0 O11 2.589382 1_455
Ca0 O9 2.589382 1_554
Ca0 O19 2.741376 1_454
Ca0 O17 2.741376 1_555
Ca1 O0 2.491509 1_555
Ca1 O2 2.491509 1_555
Ca1 O4 2.563487 1_555
Ca1 O6 2.563487 1_555
Ca1 O10 2.589382 1_555
Ca1 O8 2.589382 1_555
Ca1 O18 2.741376 1_555
Ca1 O16 2.741376 1_555
Fe0 O19 2.102330 1_455
Fe0 O25 2.128920 1_455
Fe0 O27 2.142335 1_565
Fe0 O21 2.168605 1_565
Fe0 O10 2.226099 1_555
Fe0 O4 2.258742 1_555
Fe1 O18 2.102330 1_555
Fe1 O24 2.128920 1_556
Fe1 O26 2.142335 1_545
Fe1 O20 2.168605 1_546
Fe1 O11 2.226099 1_556
Fe1 O5 2.258742 1_555
Fe2 O17 2.102330 1_655
Fe2 O27 2.128920 1_655
Fe2 O25 2.142335 1_545
Fe2 O23 2.168605 1_545
Fe2 O8 2.226099 1_555
Fe2 O6 2.258742 1_555
Fe3 O16 2.102330 1_555
Fe3 O26 2.128920 1_554
Fe3 O24 2.142335 1_565
Fe3 O22 2.168605 1_564
Fe3 O9 2.226099 1_554
Fe3 O7 2.258742 1_555
Fe4 O22 2.101283 1_554
Fe4 O20 2.101283 1_445
Fe4 O1 2.185695 1_444
Fe4 O3 2.185695 1_555
Fe4 O5 2.210732 1_454
Fe4 O7 2.210732 1_545
Fe5 O23 2.101283 1_545
Fe5 O21 2.101283 1_555
Fe5 O2 2.185695 1_545
Fe5 O0 2.185695 1_555
Fe5 O6 2.210732 1_555
Fe5 O4 2.210732 1_545
O0 P4 1.525801 1_555
O1 P5 1.525801 1_555
O2 P6 1.525801 1_555
O3 P7 1.525801 1_555
O4 P1 1.565115 1_555
O5 P0 1.565115 1_555
O6 P3 1.565115 1_555
O7 P2 1.565115 1_555
O8 P0 1.520013 1_555
O9 P1 1.520013 1_555
O10 P2 1.520013 1_555
O11 P3 1.520013 1_555
O12 P4 1.611502 1_555
O12 P0 1.618210 1_455
O13 P5 1.611502 1_555
O13 P1 1.618210 1_555
O14 P6 1.611502 1_555
O14 P2 1.618210 1_655
O15 P7 1.611502 1_555
O15 P3 1.618210 1_555
O16 P3 1.523195 1_555
O17 P2 1.523195 1_555
O18 P1 1.523195 1_555
O19 P0 1.523195 1_555
O20 P6 1.540672 1_555
O21 P7 1.540672 1_555
O22 P4 1.540672 1_555
O23 P5 1.540672 1_555
O24 P7 1.527607 1_555
O25 P6 1.527607 1_555
O26 P5 1.527607 1_555
O27 P4 1.527607 1_555
