# generated using pymatgen
data_FePRh
_symmetry_space_group_name_H-M   'P 1'
_cell_length_a   6.10092025
_cell_length_b   6.10092025
_cell_length_c   3.60944400
_cell_angle_alpha   90.00000000
_cell_angle_beta   90.00000000
_cell_angle_gamma   120.00000276
_symmetry_Int_Tables_number   1
_chemical_formula_structural   FePRh
_chemical_formula_sum   'Fe3 P3 Rh3'
_cell_volume   116.34872393
_cell_formula_units_Z   3
loop_
 _symmetry_equiv_pos_site_id
 _symmetry_equiv_pos_as_xyz
  1  'x, y, z'
loop_
 _atom_site_type_symbol
 _atom_site_label
 _atom_site_symmetry_multiplicity
 _atom_site_fract_x
 _atom_site_fract_y
 _atom_site_fract_z
 _atom_site_occupancy
  Fe  Fe0  1  0.38967400  0.38967400  0.50000000  1
  Fe  Fe1  1  0.61032600  0.00000000  0.50000000  1
  Fe  Fe2  1  0.00000000  0.61032600  0.50000000  1
  P  P0  1  0.66666700  0.33333300  0.00000000  1
  P  P1  1  0.33333300  0.66666700  0.00000000  1
  P  P2  1  0.00000000  0.00000000  0.50000000  1
  Rh  Rh0  1  0.73133900  0.73133900  0.00000000  1
  Rh  Rh1  1  0.26866100  0.00000000  0.00000000  1
  Rh  Rh2  1  0.00000000  0.26866100  0.00000000  1
loop_
_geom_bond_atom_site_label_1
_geom_bond_atom_site_label_2
_geom_bond_distance
_geom_bond_site_symmetry_2
Fe0 P2 2.377370 1_555
Fe0 P0 2.609953 1_556
Fe0 P1 2.609953 1_556
Fe0 P0 2.609953 1_555
Fe0 P1 2.609953 1_555
Fe0 Rh0 2.757180 1_555
Fe0 Rh0 2.757180 1_556
Fe0 Rh2 2.774670 1_555
Fe0 Rh2 2.774670 1_556
Fe0 Rh1 2.774670 1_555
Fe0 Rh1 2.774670 1_556
Fe1 P2 2.377370 1_655
Fe1 P0 2.609948 1_555
Fe1 P0 2.609948 1_556
Fe1 P1 2.609950 1_545
Fe1 P1 2.609950 1_546
Fe1 Rh1 2.757180 1_555
Fe1 Rh1 2.757180 1_556
Fe1 Rh2 2.774670 1_655
Fe1 Rh2 2.774670 1_656
Fe1 Rh0 2.774670 1_545
Fe1 Rh0 2.774670 1_546
Fe2 P2 2.377370 1_565
Fe2 P1 2.609948 1_555
Fe2 P1 2.609948 1_556
Fe2 P0 2.609950 1_456
Fe2 P0 2.609950 1_455
Fe2 Rh2 2.757180 1_556
Fe2 Rh2 2.757180 1_555
Fe2 Rh1 2.774670 1_565
Fe2 Rh1 2.774670 1_566
Fe2 Rh0 2.774670 1_456
Fe2 Rh0 2.774670 1_455
P0 Rh2 2.256934 1_655
P0 Rh1 2.256937 1_555
P0 Rh0 2.256940 1_555
P1 Rh1 2.256934 1_565
P1 Rh2 2.256937 1_555
P1 Rh0 2.256940 1_555
P2 Rh0 2.437950 1_445
P2 Rh0 2.437950 1_446
P2 Rh1 2.437950 1_555
P2 Rh1 2.437950 1_556
P2 Rh2 2.437950 1_556
P2 Rh2 2.437950 1_555
