# generated using pymatgen
data_NbV3Fe2(PO4)6
_symmetry_space_group_name_H-M   'P 1'
_cell_length_a   8.65181947
_cell_length_b   8.65181947
_cell_length_c   8.65181877
_cell_angle_alpha   60.60688370
_cell_angle_beta   60.60688370
_cell_angle_gamma   60.60688915
_symmetry_Int_Tables_number   1
_chemical_formula_structural   NbV3Fe2(PO4)6
_chemical_formula_sum   'Nb1 V3 Fe2 P6 O24'
_cell_volume   464.21514391
_cell_formula_units_Z   1
loop_
 _symmetry_equiv_pos_site_id
 _symmetry_equiv_pos_as_xyz
  1  'x, y, z'
loop_
 _atom_site_type_symbol
 _atom_site_label
 _atom_site_symmetry_multiplicity
 _atom_site_fract_x
 _atom_site_fract_y
 _atom_site_fract_z
 _atom_site_occupancy
  Nb  Nb0  1  0.14286000  0.14286000  0.14286000  1
  V  V0  1  0.64205200  0.64205200  0.64205200  1
  V  V1  1  0.85582700  0.85582700  0.85582700  1
  V  V2  1  0.35827400  0.35827400  0.35827400  1
  Fe  Fe0  1  0.99507500  0.99507500  0.99507500  1
  Fe  Fe1  1  0.49931200  0.49931200  0.49931200  1
  P  P0  1  0.54838300  0.95559500  0.25248600  1
  P  P1  1  0.25248600  0.54838300  0.95559500  1
  P  P2  1  0.95559500  0.25248600  0.54838300  1
  P  P3  1  0.04222100  0.74520600  0.46179100  1
  P  P4  1  0.74520600  0.46179100  0.04222100  1
  P  P5  1  0.46179100  0.04222100  0.74520600  1
  O  O0  1  0.31175200  0.50516100  0.11389700  1
  O  O1  1  0.11389700  0.31175200  0.50516100  1
  O  O2  1  0.50516100  0.11389700  0.31175200  1
  O  O3  1  0.73807700  0.94024500  0.08861000  1
  O  O4  1  0.38347500  0.00398500  0.18700800  1
  O  O5  1  0.55531300  0.76208400  0.40878700  1
  O  O6  1  0.08861000  0.73807700  0.94024500  1
  O  O7  1  0.40878700  0.55531300  0.76208400  1
  O  O8  1  0.00481800  0.81267200  0.61342200  1
  O  O9  1  0.76208400  0.40878700  0.55531300  1
  O  O10  1  0.06186500  0.91000900  0.26280900  1
  O  O11  1  0.81267200  0.61342200  0.00481800  1
  O  O12  1  0.18700800  0.38347500  0.00398500  1
  O  O13  1  0.94024500  0.08861000  0.73807700  1
  O  O14  1  0.23868900  0.58991100  0.44044500  1
  O  O15  1  0.00398500  0.18700800  0.38347500  1
  O  O16  1  0.58991100  0.44044500  0.23868900  1
  O  O17  1  0.91000900  0.26280900  0.06186500  1
  O  O18  1  0.44044500  0.23868900  0.58991100  1
  O  O19  1  0.61342200  0.00481800  0.81267200  1
  O  O20  1  0.26280900  0.06186500  0.91000900  1
  O  O21  1  0.49244000  0.88516600  0.69029000  1
  O  O22  1  0.88516600  0.69029000  0.49244000  1
  O  O23  1  0.69029000  0.49244000  0.88516600  1
loop_
_geom_bond_atom_site_label_1
_geom_bond_atom_site_label_2
_geom_bond_distance
_geom_bond_site_symmetry_2
Nb0 O15 1.948857 1_555
Nb0 O12 1.948857 1_555
Nb0 O4 1.948857 1_555
Nb0 O20 2.060650 1_554
Nb0 O10 2.060650 1_545
Nb0 O17 2.060650 1_455
Fe0 O13 2.171673 1_565
Fe0 O3 2.171674 1_556
Fe0 O6 2.171674 1_655
Fe0 O10 2.337570 1_656
Fe0 O20 2.337570 1_665
Fe0 O17 2.337570 1_566
Fe1 O16 2.226811 1_555
Fe1 O18 2.226811 1_555
Fe1 O14 2.226811 1_555
Fe1 O7 2.231076 1_555
Fe1 O5 2.231076 1_555
Fe1 O9 2.231076 1_555
O0 P1 1.508961 1_554
O0 V2 1.985718 1_555
O1 P2 1.508961 1_455
O1 V2 1.985718 1_555
O2 P0 1.508961 1_545
O2 V2 1.985718 1_555
O3 P0 1.551827 1_555
O3 V1 2.080142 1_554
O4 P0 1.583059 1_545
O5 P0 1.547250 1_555
O5 V0 2.092611 1_555
O6 P1 1.551827 1_555
O6 V1 2.080142 1_455
O7 P1 1.547250 1_555
O7 V0 2.092611 1_555
O8 P3 1.521840 1_555
O8 V1 1.960098 1_455
O9 P2 1.547250 1_555
O9 V0 2.092611 1_555
O10 P3 1.602136 1_555
O11 P4 1.521840 1_555
O11 V1 1.960098 1_554
O12 P1 1.583059 1_554
O13 P2 1.551827 1_555
O13 V1 2.080142 1_545
O14 P3 1.556369 1_555
O14 V2 2.057529 1_555
O15 P2 1.583059 1_455
O16 P4 1.556368 1_555
O16 V2 2.057529 1_555
O17 P4 1.602137 1_555
O18 P5 1.556368 1_555
O18 V2 2.057528 1_555
O19 P5 1.521840 1_555
O19 V1 1.960098 1_545
O20 P5 1.602136 1_555
O21 P5 1.516177 1_565
O21 V0 1.983117 1_555
O22 P3 1.516177 1_655
O22 V0 1.983117 1_555
O23 P4 1.516177 1_556
O23 V0 1.983117 1_555
