# generated using pymatgen
data_Li9Mn2Co5O16
_symmetry_space_group_name_H-M   'P 1'
_cell_length_a   7.79429963
_cell_length_b   7.79429963
_cell_length_c   13.06870550
_cell_angle_alpha   87.56117652
_cell_angle_beta   87.56117652
_cell_angle_gamma   21.36001906
_symmetry_Int_Tables_number   1
_chemical_formula_structural   Li9Mn2Co5O16
_chemical_formula_sum   'Li9 Mn2 Co5 O16'
_cell_volume   288.90253195
_cell_formula_units_Z   1
loop_
 _symmetry_equiv_pos_site_id
 _symmetry_equiv_pos_as_xyz
  1  'x, y, z'
loop_
 _atom_site_type_symbol
 _atom_site_label
 _atom_site_symmetry_multiplicity
 _atom_site_fract_x
 _atom_site_fract_y
 _atom_site_fract_z
 _atom_site_occupancy
  Li  Li0  1  0.43748200  0.43748200  0.19596300  1
  Li  Li1  1  0.31153800  0.31153800  0.55861900  1
  Li  Li2  1  0.19246900  0.19246900  0.93871700  1
  Li  Li3  1  0.06421900  0.06421900  0.32812900  1
  Li  Li4  1  0.94020700  0.94020700  0.66693200  1
  Li  Li5  1  0.81038200  0.81038200  0.07056000  1
  Li  Li6  1  0.68637800  0.68637800  0.43532200  1
  Li  Li7  1  0.55805700  0.55805700  0.80572600  1
  Li  Li8  1  0.49945600  0.49945600  0.49908600  1
  Mn  Mn0  1  0.00035900  0.00035900  0.00022900  1
  Mn  Mn1  1  0.74724200  0.74724200  0.74911100  1
  Co  Co0  1  0.88089400  0.88089400  0.38863400  1
  Co  Co1  1  0.62792000  0.62792000  0.12849500  1
  Co  Co2  1  0.37514800  0.37514800  0.87255700  1
  Co  Co3  1  0.25330500  0.25330500  0.25144400  1
  Co  Co4  1  0.11577500  0.11577500  0.61042800  1
  O  O0  1  0.41618500  0.41618500  0.02579600  1
  O  O1  1  0.28974900  0.28974900  0.39818200  1
  O  O2  1  0.16589200  0.16589200  0.77934600  1
  O  O3  1  0.03319900  0.03319900  0.14213300  1
  O  O4  1  0.90204900  0.90204900  0.52349500  1
  O  O5  1  0.78170700  0.78170700  0.89335400  1
  O  O6  1  0.66031100  0.66031100  0.27634200  1
  O  O7  1  0.53538900  0.53538900  0.65691600  1
  O  O8  1  0.46077500  0.46077500  0.34643900  1
  O  O9  1  0.33238700  0.33238700  0.72285700  1
  O  O10  1  0.21660200  0.21660200  0.09595900  1
  O  O11  1  0.09923100  0.09923100  0.47623500  1
  O  O12  1  0.96923200  0.96923200  0.85778700  1
  O  O13  1  0.83940500  0.83940500  0.22104700  1
  O  O14  1  0.71339100  0.71339100  0.61029200  1
  O  O15  1  0.58366500  0.58366500  0.97386900  1
loop_
_geom_bond_atom_site_label_1
_geom_bond_atom_site_label_2
_geom_bond_distance
_geom_bond_site_symmetry_2
Li0 O8 2.013781 1_555
Li0 O13 2.099643 1_545
Li0 O13 2.099643 1_455
Li0 O3 2.154515 1_655
Li0 O3 2.154515 1_565
Li0 O0 2.261599 1_555
Li1 O4 2.040700 1_545
Li1 O4 2.040700 1_455
Li1 O1 2.137331 1_555
Li1 O14 2.171409 1_455
Li1 O14 2.171409 1_545
Li1 O9 2.183646 1_555
Li2 O5 2.058262 1_545
Li2 O5 2.058262 1_455
Li2 O10 2.103634 1_556
Li2 O2 2.139422 1_555
Li2 O15 2.238119 1_545
Li2 O15 2.238119 1_455
Li3 O11 2.030746 1_555
Li3 O8 2.149863 1_545
Li3 O8 2.149863 1_455
Li3 O6 2.150585 1_545
Li3 O6 2.150585 1_455
Li3 O3 2.496851 1_555
Li4 O4 1.987574 1_555
Li4 O7 2.052562 1_655
Li4 O7 2.052562 1_565
Li4 O9 2.289990 1_565
Li4 O9 2.289990 1_655
Li4 O12 2.552431 1_555
Li5 O13 2.034988 1_555
Li5 O10 2.054050 1_655
Li5 O10 2.054050 1_565
Li5 O0 2.230121 1_655
Li5 O0 2.230121 1_565
Li5 O5 2.375758 1_554
Li6 O11 2.023041 1_655
Li6 O11 2.023041 1_565
Li6 O6 2.132600 1_555
Li6 O1 2.182423 1_655
Li6 O1 2.182423 1_565
Li6 O14 2.341337 1_555
Li7 O7 1.990259 1_555
Li7 O12 2.078616 1_455
Li7 O12 2.078616 1_545
Li7 O2 2.210141 1_655
Li7 O2 2.210141 1_565
Li7 O15 2.248811 1_555
Li8 O4 2.091290 1_455
Li8 O4 2.091290 1_545
Li8 O8 2.105491 1_555
Li8 O11 2.114753 1_565
Li8 O11 2.114753 1_655
Li8 O7 2.157724 1_555
Mn0 O12 1.941529 1_444
Mn0 O3 1.942432 1_555
Mn0 O15 1.948229 1_544
Mn0 O15 1.948229 1_454
Mn0 O0 1.955361 1_545
Mn0 O0 1.955361 1_455
Mn1 O14 1.908306 1_555
Mn1 O2 1.937241 1_655
Mn1 O2 1.937241 1_565
Mn1 O9 1.966380 1_565
Mn1 O9 1.966380 1_655
Mn1 O5 1.979499 1_555
Co0 O4 1.805753 1_555
Co0 O8 1.956906 1_565
Co0 O8 1.956906 1_655
Co0 O1 2.009074 1_565
Co0 O1 2.009074 1_655
Co0 O13 2.306775 1_555
Co1 O6 2.015566 1_555
Co1 O10 2.015622 1_565
Co1 O10 2.015622 1_655
Co1 O3 2.049691 1_655
Co1 O3 2.049691 1_565
Co1 O15 2.159097 1_554
Co2 O5 2.043410 1_455
Co2 O5 2.043410 1_545
Co2 O12 2.043723 1_545
Co2 O12 2.043723 1_455
Co2 O9 2.089857 1_555
Co2 O0 2.124794 1_556
Co3 O13 1.984564 1_455
Co3 O13 1.984564 1_545
Co3 O1 2.020362 1_555
Co3 O6 2.044877 1_545
Co3 O6 2.044877 1_455
Co3 O10 2.131673 1_555
Co4 O11 1.782774 1_555
Co4 O7 1.976650 1_545
Co4 O7 1.976650 1_455
Co4 O14 2.079013 1_455
Co4 O14 2.079013 1_545
Co4 O2 2.368418 1_555
