# generated using pymatgen
data_CsTaWO6
_symmetry_space_group_name_H-M   'P 1'
_cell_length_a   7.44957810
_cell_length_b   7.44957810
_cell_length_c   7.44957810
_cell_angle_alpha   120.16162209
_cell_angle_beta   119.94981711
_cell_angle_gamma   89.90361593
_symmetry_Int_Tables_number   1
_chemical_formula_structural   CsTaWO6
_chemical_formula_sum   'Cs2 Ta2 W2 O12'
_cell_volume   292.08657341
_cell_formula_units_Z   2
loop_
 _symmetry_equiv_pos_site_id
 _symmetry_equiv_pos_as_xyz
  1  'x, y, z'
loop_
 _atom_site_type_symbol
 _atom_site_label
 _atom_site_symmetry_multiplicity
 _atom_site_fract_x
 _atom_site_fract_y
 _atom_site_fract_z
 _atom_site_occupancy
  Cs  Cs0  1  0.62426600  0.87426600  0.75000000  1
  Cs  Cs1  1  0.37573400  0.12573400  0.25000000  1
  Ta  Ta0  1  0.50000000  0.50000000  0.00000000  1
  Ta  Ta1  1  0.00000000  0.50000000  0.50000000  1
  W  W0  1  0.00000000  0.50000000  0.00000000  1
  W  W1  1  0.00000000  0.00000000  0.50000000  1
  O  O0  1  0.05893900  0.80893900  0.25000000  1
  O  O1  1  0.68707700  0.43707700  0.25000000  1
  O  O2  1  0.05981700  0.81578900  0.62154100  1
  O  O3  1  0.69424800  0.43827600  0.87845900  1
  O  O4  1  0.69424800  0.81578900  0.25597200  1
  O  O5  1  0.05981700  0.43827600  0.24402800  1
  O  O6  1  0.94106100  0.19106100  0.75000000  1
  O  O7  1  0.31292300  0.56292300  0.75000000  1
  O  O8  1  0.94018300  0.18421100  0.37845900  1
  O  O9  1  0.30575200  0.56172400  0.12154100  1
  O  O10  1  0.30575200  0.18421100  0.74402800  1
  O  O11  1  0.94018300  0.56172400  0.75597200  1
loop_
_geom_bond_atom_site_label_1
_geom_bond_atom_site_label_2
_geom_bond_distance
_geom_bond_site_symmetry_2
Cs0 O7 3.282848 1_555
Cs0 O8 3.307993 1_566
Cs0 O10 3.307993 1_565
Cs0 O9 3.307993 1_555
Cs0 O11 3.307993 1_555
Cs0 O6 3.340335 1_565
Cs1 O1 3.282848 1_555
Cs1 O5 3.307993 1_555
Cs1 O2 3.307993 1_544
Cs1 O3 3.307993 1_555
Cs1 O4 3.307993 1_545
Cs1 O0 3.340335 1_545
O0 W0 1.959029 1_555
O0 W1 1.959029 1_565
O1 Ta1 1.978375 1_655
O1 Ta0 1.978375 1_555
O2 W1 1.935259 1_565
O2 Ta1 2.003212 1_555
O3 W0 1.935259 1_656
O3 Ta0 2.003212 1_556
O4 W1 1.935259 1_665
O4 Ta0 2.003212 1_555
O5 W0 1.935259 1_555
O5 Ta1 2.003212 1_555
O6 W0 1.959029 1_656
O6 W1 1.959029 1_655
O7 Ta0 1.978375 1_556
O7 Ta1 1.978375 1_555
O8 W1 1.935259 1_655
O8 Ta1 2.003212 1_655
O9 W0 1.935259 1_555
O9 Ta0 2.003212 1_555
O10 W1 1.935259 1_555
O10 Ta0 2.003212 1_556
O11 W0 1.935259 1_656
O11 Ta1 2.003212 1_655
