# generated using pymatgen
data_SrIn3Hg
_symmetry_space_group_name_H-M   'P 1'
_cell_length_a   7.13779448
_cell_length_b   7.13779448
_cell_length_c   7.13779448
_cell_angle_alpha   141.40889786
_cell_angle_beta   141.40889786
_cell_angle_gamma   55.72020475
_symmetry_Int_Tables_number   1
_chemical_formula_structural   SrIn3Hg
_chemical_formula_sum   'Sr1 In3 Hg1'
_cell_volume   140.42270703
_cell_formula_units_Z   1
loop_
 _symmetry_equiv_pos_site_id
 _symmetry_equiv_pos_as_xyz
  1  'x, y, z'
loop_
 _atom_site_type_symbol
 _atom_site_label
 _atom_site_symmetry_multiplicity
 _atom_site_fract_x
 _atom_site_fract_y
 _atom_site_fract_z
 _atom_site_occupancy
  Sr  Sr0  1  0.00655681  0.00655681  0.00000000  1
  In  In0  1  0.74753634  0.24753634  0.50000000  1
  In  In1  1  0.24753634  0.74753634  0.50000000  1
  In  In2  1  0.38987805  0.38987805  -0.00000000  1
  Hg  Hg0  1  0.60849347  0.60849347  -0.00000000  1
loop_
_geom_bond_atom_site_label_1
_geom_bond_atom_site_label_2
_geom_bond_distance
_geom_bond_site_symmetry_2
In0 In2 2.964869 1_555
In0 In2 2.964869 1_656
In0 Sr0 3.848780 1_656
In0 Sr0 3.848780 1_555
In0 Sr0 4.031124 1_655
In0 Sr0 4.031124 1_666
In1 In2 2.964869 1_555
In1 In2 2.964869 1_566
In1 Sr0 3.848780 1_555
In1 Sr0 3.848780 1_566
In1 Sr0 4.031124 1_565
In1 Sr0 4.031124 1_666
In2 Sr0 3.646192 1_565
In2 Sr0 3.646192 1_666
In2 Sr0 3.646192 1_655
In2 Sr0 3.646192 1_554
Hg0 In2 2.759128 1_555
Hg0 In1 2.939828 1_655
Hg0 In0 2.939828 1_565
Hg0 In1 2.939828 1_554
Hg0 In0 2.939828 1_554
Hg0 Sr0 3.575102 1_655
Hg0 Sr0 3.575102 1_666
Hg0 Sr0 3.575102 1_554
Hg0 Sr0 3.575102 1_565
