# generated using pymatgen
data_S
_symmetry_space_group_name_H-M   'P 1'
_cell_length_a   9.48274493
_cell_length_b   14.01240305
_cell_length_c   17.88712956
_cell_angle_alpha   67.72647103
_cell_angle_beta   90.00000000
_cell_angle_gamma   90.00000000
_symmetry_Int_Tables_number   1
_chemical_formula_structural   S
_chemical_formula_sum   S80
_cell_volume   2199.42808125
_cell_formula_units_Z   80
loop_
 _symmetry_equiv_pos_site_id
 _symmetry_equiv_pos_as_xyz
  1  'x, y, z'
loop_
 _atom_site_type_symbol
 _atom_site_label
 _atom_site_symmetry_multiplicity
 _atom_site_fract_x
 _atom_site_fract_y
 _atom_site_fract_z
 _atom_site_occupancy
  S  S0  1  0.01011389  -0.00000000  -0.00000000  1
  S  S1  1  0.51282956  -0.00000000  0.50000000  1
  S  S2  1  0.21067304  0.50000000  -0.00000000  1
  S  S3  1  0.71299745  0.50000000  0.50000000  1
  S  S4  1  0.64057161  0.12684293  0.44990200  1
  S  S5  1  0.64057161  0.87315707  0.55009800  1
  S  S6  1  0.68113805  0.18542638  0.53719721  1
  S  S7  1  0.68113805  0.81457362  0.46280279  1
  S  S8  1  0.52469371  0.28999714  0.53020080  1
  S  S9  1  0.52469371  0.71000286  0.46979920  1
  S  S10  1  0.58505374  0.42914905  0.44414940  1
  S  S11  1  0.58505374  0.57085095  0.55585060  1
  S  S12  1  0.05812970  0.07075756  0.45317633  1
  S  S13  1  0.05812970  0.92924244  0.54682367  1
  S  S14  1  0.20760303  0.16002261  0.47874863  1
  S  S15  1  0.20760303  0.83997739  0.52125137  1
  S  S16  1  0.11458055  0.22019852  0.55489376  1
  S  S17  1  0.11458055  0.77980148  0.44510624  1
  S  S18  1  0.01352948  0.35346098  0.48395652  1
  S  S19  1  0.01352948  0.64653902  0.51604348  1
  S  S20  1  0.15824215  0.52885930  0.54507280  1
  S  S21  1  0.15824215  0.47114070  0.45492720  1
  S  S22  1  0.78720562  0.04449236  0.30340959  1
  S  S23  1  0.78720562  0.95550764  0.69659041  1
  S  S24  1  0.71597924  0.01468653  0.77869497  1
  S  S25  1  0.71597924  0.98531347  0.22130503  1
  S  S26  1  0.87111092  0.11120075  0.78936793  1
  S  S27  1  0.87111092  0.88879925  0.21063207  1
  S  S28  1  0.84287117  0.25220648  0.69748267  1
  S  S29  1  0.84287117  0.74779352  0.30251733  1
  S  S30  1  0.70098554  0.33341647  0.73708492  1
  S  S31  1  0.70098554  0.66658353  0.26291508  1
  S  S32  1  0.81133266  0.39641587  0.80574913  1
  S  S33  1  0.81133266  0.60358413  0.19425087  1
  S  S34  1  0.89801596  0.53212738  0.72792609  1
  S  S35  1  0.89801596  0.46787262  0.27207391  1
  S  S36  1  0.74773579  0.64489073  0.70722966  1
  S  S37  1  0.74773579  0.35510927  0.29277034  1
  S  S38  1  0.76293444  0.70270276  0.79701387  1
  S  S39  1  0.76293444  0.29729724  0.20298613  1
  S  S40  1  0.90101772  0.17507716  0.24063396  1
  S  S41  1  0.90101772  0.82492284  0.75936604  1
  S  S42  1  0.37802808  0.11081938  0.28572078  1
  S  S43  1  0.37802808  0.88918062  0.71427922  1
  S  S44  1  0.22119708  0.01198670  0.28111843  1
  S  S45  1  0.22119708  0.98801330  0.71888157  1
  S  S46  1  0.28206592  0.04758942  0.80265919  1
  S  S47  1  0.28206592  0.95241058  0.19734081  1
  S  S48  1  0.40030981  0.17714807  0.74321805  1
  S  S49  1  0.40030981  0.82285193  0.25678195  1
  S  S50  1  0.26511033  0.30079268  0.70163496  1
  S  S51  1  0.26511033  0.69920732  0.29836504  1
  S  S52  1  0.24347427  0.35917120  0.79074459  1
  S  S53  1  0.24347427  0.64082880  0.20925541  1
  S  S54  1  0.39647745  0.46934385  0.77363102  1
  S  S55  1  0.39647745  0.53065615  0.22636898  1
  S  S56  1  0.31652843  0.60649507  0.69394642  1
  S  S57  1  0.31652843  0.39350493  0.30605358  1
  S  S58  1  0.20120015  0.67059420  0.76007050  1
  S  S59  1  0.20120015  0.32940580  0.23992950  1
  S  S60  1  0.33961529  0.74846306  0.80471606  1
  S  S61  1  0.33961529  0.25153694  0.19528394  1
  S  S62  1  0.61184921  0.77991661  0.94482701  1
  S  S63  1  0.61184921  0.22008339  0.05517299  1
  S  S64  1  0.70356214  0.15966299  0.97877864  1
  S  S65  1  0.70356214  0.84033701  0.02122136  1
  S  S66  1  0.55305939  0.07088723  0.95338998  1
  S  S67  1  0.55305939  0.92911277  0.04661002  1
  S  S68  1  0.51106892  0.35349926  0.98426416  1
  S  S69  1  0.51106892  0.64650074  0.01573584  1
  S  S70  1  0.65596650  0.47110348  0.95495986  1
  S  S71  1  0.65596650  0.52889652  0.04504014  1
  S  S72  1  0.17677428  0.81354625  0.96410724  1
  S  S73  1  0.17677428  0.18645375  0.03589276  1
  S  S74  1  0.13745550  0.12689086  0.94903285  1
  S  S75  1  0.13745550  0.87310914  0.05096715  1
  S  S76  1  0.02027766  0.70860807  0.97208651  1
  S  S77  1  0.02027766  0.29139193  0.02791349  1
  S  S78  1  0.08284004  0.43062392  0.94293836  1
  S  S79  1  0.08284004  0.56937608  0.05706164  1
loop_
_geom_bond_atom_site_label_1
_geom_bond_atom_site_label_2
_geom_bond_distance
_geom_bond_site_symmetry_2
S0 S75 2.054739 1_545
S0 S74 2.054739 1_554
S1 S5 2.054764 1_545
S1 S4 2.054764 1_555
S2 S78 2.051438 1_554
S2 S79 2.051438 1_555
S4 S6 2.057105 1_555
S5 S7 2.057105 1_555
S6 S8 2.055373 1_555
S7 S9 2.055373 1_555
S10 S3 2.051217 1_555
S10 S8 2.055142 1_555
S11 S3 2.051217 1_555
S11 S9 2.055142 1_555
S12 S14 2.053427 1_555
S12 S13 2.054281 1_545
S13 S15 2.053427 1_555
S14 S16 2.053001 1_555
S15 S17 2.053001 1_555
S16 S18 2.054026 1_555
S17 S19 2.054026 1_555
S18 S21 2.054946 1_555
S19 S20 2.054946 1_555
S20 S21 2.059779 1_555
S22 S40 2.053360 1_555
S22 S25 2.055200 1_545
S23 S41 2.053360 1_555
S23 S24 2.055200 1_565
S24 S26 2.055529 1_555
S25 S27 2.055529 1_555
S26 S28 2.053095 1_555
S27 S29 2.053095 1_555
S28 S30 2.053789 1_555
S29 S31 2.053789 1_555
S30 S32 2.050518 1_555
S31 S33 2.050518 1_555
S32 S34 2.054991 1_555
S33 S35 2.054991 1_555
S34 S36 2.054535 1_555
S35 S37 2.054535 1_555
S36 S38 2.059710 1_555
S37 S39 2.059710 1_555
S38 S41 2.055911 1_555
S39 S40 2.055911 1_555
S42 S61 2.054141 1_555
S42 S44 2.054953 1_555
S43 S60 2.054141 1_555
S43 S45 2.054953 1_555
S44 S47 2.055240 1_545
S45 S46 2.055240 1_565
S46 S48 2.054333 1_555
S47 S49 2.054333 1_555
S48 S50 2.054699 1_555
S49 S51 2.054699 1_555
S50 S52 2.059180 1_555
S51 S53 2.059180 1_555
S52 S54 2.055193 1_555
S53 S55 2.055193 1_555
S54 S56 2.055050 1_555
S55 S57 2.055050 1_555
S56 S58 2.051102 1_555
S57 S59 2.051102 1_555
S58 S60 2.052227 1_555
S59 S61 2.052227 1_555
S62 S65 2.053633 1_556
S62 S69 2.054144 1_556
S63 S64 2.053633 1_554
S63 S68 2.054144 1_554
S64 S66 2.053961 1_555
S65 S67 2.053961 1_555
S66 S67 2.053252 1_546
S68 S70 2.055124 1_555
S69 S71 2.055124 1_555
S70 S71 2.059410 1_556
S72 S76 2.055667 1_555
S72 S75 2.057305 1_556
S73 S77 2.055667 1_555
S73 S74 2.057305 1_554
S76 S79 2.054409 1_556
S77 S78 2.054409 1_554
