# generated using pymatgen
data_HoRe2
_symmetry_space_group_name_H-M   'P 1'
_cell_length_a   5.39582788
_cell_length_b   5.39582788
_cell_length_c   8.77543979
_cell_angle_alpha   90.00001600
_cell_angle_beta   89.99998400
_cell_angle_gamma   120.00299197
_symmetry_Int_Tables_number   1
_chemical_formula_structural   HoRe2
_chemical_formula_sum   'Ho4 Re8'
_cell_volume   221.25984500
_cell_formula_units_Z   4
loop_
 _symmetry_equiv_pos_site_id
 _symmetry_equiv_pos_as_xyz
  1  'x, y, z'
loop_
 _atom_site_type_symbol
 _atom_site_label
 _atom_site_symmetry_multiplicity
 _atom_site_fract_x
 _atom_site_fract_y
 _atom_site_fract_z
 _atom_site_occupancy
  Ho  Ho0  1  0.66665719  0.33334281  0.56251993  1
  Ho  Ho1  1  0.33334282  0.66665718  0.43747711  1
  Ho  Ho2  1  0.33334280  0.66665720  0.06252264  1
  Ho  Ho3  1  0.66665722  0.33334278  0.93748121  1
  Re  Re0  1  0.00000004  -0.00000004  0.49999185  1
  Re  Re1  1  0.00000004  -0.00000004  0.00000817  1
  Re  Re2  1  0.17091840  0.34184776  0.75000091  1
  Re  Re3  1  0.17093639  0.82906361  0.75000096  1
  Re  Re4  1  0.65815224  0.82908160  0.75000091  1
  Re  Re5  1  0.82907940  0.65814675  0.24999912  1
  Re  Re6  1  0.82906221  0.17093779  0.24999908  1
  Re  Re7  1  0.34185325  0.17092060  0.24999912  1
loop_
_geom_bond_atom_site_label_1
_geom_bond_atom_site_label_2
_geom_bond_distance
_geom_bond_site_symmetry_2
Ho0 Re5 3.134466 1_555
Ho0 Re7 3.134466 1_555
Ho0 Re6 3.134513 1_555
Ho0 Re3 3.160136 1_655
Ho0 Re3 3.160136 1_545
Ho0 Re4 3.160198 1_555
Ho0 Re2 3.160198 1_555
Ho0 Re2 3.160275 1_655
Ho0 Re4 3.160275 1_545
Ho0 Re0 3.163101 1_665
Ho0 Re0 3.163101 1_555
Ho0 Re0 3.163371 1_655
Ho1 Re2 3.134502 1_555
Ho1 Re4 3.134502 1_555
Ho1 Re3 3.134542 1_555
Ho1 Re6 3.160122 1_455
Ho1 Re6 3.160122 1_565
Ho1 Re5 3.160187 1_555
Ho1 Re7 3.160187 1_555
Ho1 Re7 3.160260 1_565
Ho1 Re5 3.160260 1_455
Ho1 Re0 3.163081 1_555
Ho1 Re0 3.163081 1_665
Ho1 Re0 3.163350 1_565
Ho2 Re2 3.134485 1_554
Ho2 Re4 3.134485 1_554
Ho2 Re3 3.134526 1_554
Ho2 Re6 3.160115 1_565
Ho2 Re6 3.160115 1_455
Ho2 Re5 3.160181 1_555
Ho2 Re7 3.160181 1_555
Ho2 Re7 3.160252 1_565
Ho2 Re5 3.160252 1_455
Ho2 Re1 3.163081 1_555
Ho2 Re1 3.163081 1_665
Ho2 Re1 3.163350 1_565
Ho3 Re5 3.134444 1_556
Ho3 Re7 3.134444 1_556
Ho3 Re6 3.134491 1_556
Ho3 Re3 3.160132 1_655
Ho3 Re3 3.160132 1_545
Ho3 Re4 3.160195 1_555
Ho3 Re2 3.160195 1_555
Ho3 Re2 3.160271 1_655
Ho3 Re4 3.160271 1_545
Ho3 Re1 3.163099 1_556
Ho3 Re1 3.163099 1_666
Ho3 Re1 3.163369 1_656
Re0 Re5 2.713751 1_445
Re0 Re7 2.713751 1_555
Re0 Re4 2.713852 1_445
Re0 Re2 2.713852 1_555
Re0 Re6 2.713856 1_455
Re0 Re3 2.713964 1_545
Re1 Re5 2.713739 1_445
Re1 Re7 2.713739 1_555
Re1 Re2 2.713840 1_554
Re1 Re4 2.713840 1_444
Re1 Re6 2.713842 1_455
Re1 Re3 2.713950 1_544
Re2 Re3 2.628884 1_555
Re2 Re4 2.628911 1_555
Re2 Re4 2.766673 1_445
Re2 Re3 2.766944 1_545
Re3 Re4 2.628884 1_555
Re3 Re4 2.766944 1_455
Re5 Re6 2.628849 1_555
Re5 Re7 2.628870 1_555
Re5 Re7 2.766714 1_665
Re5 Re6 2.766979 1_565
Re6 Re7 2.628849 1_555
Re6 Re7 2.766979 1_655
