# generated using pymatgen
data_LiAl4Cd2O8
_symmetry_space_group_name_H-M   'P 1'
_cell_length_a   6.25428028
_cell_length_b   6.25428028
_cell_length_c   6.25428028
_cell_angle_alpha   60.00000000
_cell_angle_beta   60.00000000
_cell_angle_gamma   60.00000000
_symmetry_Int_Tables_number   1
_chemical_formula_structural   LiAl4Cd2O8
_chemical_formula_sum   'Li1 Al4 Cd2 O8'
_cell_volume   172.98841621
_cell_formula_units_Z   1
loop_
 _symmetry_equiv_pos_site_id
 _symmetry_equiv_pos_as_xyz
  1  'x, y, z'
loop_
 _atom_site_type_symbol
 _atom_site_label
 _atom_site_symmetry_multiplicity
 _atom_site_fract_x
 _atom_site_fract_y
 _atom_site_fract_z
 _atom_site_occupancy
  Li  Li0  1  0.37500000  0.37500000  0.37500000  1
  Al  Al0  1  0.51092200  0.51092200  0.96723300  1
  Al  Al1  1  0.51092200  0.96723300  0.51092200  1
  Al  Al2  1  0.96723300  0.51092200  0.51092200  1
  Al  Al3  1  0.51092200  0.51092200  0.51092200  1
  Cd  Cd0  1  0.12500000  0.12500000  0.12500000  1
  Cd  Cd1  1  0.87500000  0.87500000  0.87500000  1
  O  O0  1  0.26808400  0.26808400  0.69574700  1
  O  O1  1  0.26808400  0.69574700  0.26808400  1
  O  O2  1  0.69574700  0.26808400  0.26808400  1
  O  O3  1  0.26808400  0.26808400  0.26808400  1
  O  O4  1  0.72743300  0.72743300  0.31770000  1
  O  O5  1  0.72743300  0.31770000  0.72743300  1
  O  O6  1  0.31770000  0.72743300  0.72743300  1
  O  O7  1  0.72743300  0.72743300  0.72743300  1
loop_
_geom_bond_atom_site_label_1
_geom_bond_atom_site_label_2
_geom_bond_distance
_geom_bond_site_symmetry_2
Li0 O0 1.637926 1_555
Li0 O1 1.637926 1_555
Li0 O2 1.637926 1_555
Li0 O3 1.637931 1_555
Al0 O7 1.920547 1_555
Al0 O6 1.920547 1_555
Al0 O5 1.920547 1_555
Al0 Li0 2.082302 1_556
Al0 O3 2.178305 1_556
Al0 O1 2.178305 1_556
Al0 O2 2.178305 1_556
Al1 O7 1.920547 1_555
Al1 O6 1.920547 1_555
Al1 O4 1.920547 1_555
Al1 Li0 2.082302 1_565
Al1 O2 2.178305 1_565
Al1 O3 2.178305 1_565
Al1 O0 2.178305 1_565
Al2 O4 1.920547 1_555
Al2 O5 1.920547 1_555
Al2 O7 1.920547 1_555
Al2 Li0 2.082302 1_655
Al2 O1 2.178305 1_655
Al2 O3 2.178305 1_655
Al2 O0 2.178305 1_655
Al3 O4 1.920547 1_555
Al3 O5 1.920547 1_555
Al3 O6 1.920547 1_555
Al3 Li0 2.082297 1_555
Al3 O0 2.178305 1_555
Al3 O1 2.178305 1_555
Al3 O2 2.178305 1_555
Cd0 O3 2.192018 1_555
Cd0 O1 2.192023 1_545
Cd0 O0 2.192023 1_554
Cd0 O2 2.192023 1_455
Cd1 O5 2.260691 1_565
Cd1 O6 2.260691 1_655
Cd1 O4 2.260691 1_556
Cd1 O7 2.260696 1_555
