# generated using pymatgen
data_Zr2TlC
_symmetry_space_group_name_H-M   'P 1'
_cell_length_a   3.38071908
_cell_length_b   3.38071908
_cell_length_c   14.99041902
_cell_angle_alpha   90.00000000
_cell_angle_beta   90.00000000
_cell_angle_gamma   119.99997030
_symmetry_Int_Tables_number   1
_chemical_formula_structural   Zr2TlC
_chemical_formula_sum   'Zr4 Tl2 C2'
_cell_volume   148.37567382
_cell_formula_units_Z   2
loop_
 _symmetry_equiv_pos_site_id
 _symmetry_equiv_pos_as_xyz
  1  'x, y, z'
loop_
 _atom_site_type_symbol
 _atom_site_label
 _atom_site_symmetry_multiplicity
 _atom_site_fract_x
 _atom_site_fract_y
 _atom_site_fract_z
 _atom_site_occupancy
  Zr  Zr0  1  0.66666700  0.33333300  0.41799089  1
  Zr  Zr1  1  0.33333300  0.66666700  0.58200911  1
  Zr  Zr2  1  0.33333300  0.66666700  0.91799089  1
  Zr  Zr3  1  0.66666700  0.33333300  0.08200911  1
  Tl  Tl0  1  0.66666700  0.33333300  0.75000000  1
  Tl  Tl1  1  0.33333300  0.66666700  0.25000000  1
  C  C0  1  0.00000000  -0.00000000  -0.00000000  1
  C  C1  1  0.00000000  -0.00000000  0.50000000  1
loop_
_geom_bond_atom_site_label_1
_geom_bond_atom_site_label_2
_geom_bond_distance
_geom_bond_site_symmetry_2
Tl0 Zr2 3.186118 1_655
Tl0 Zr2 3.186118 1_545
Tl0 Zr1 3.186118 1_545
Tl0 Zr1 3.186118 1_655
Tl0 Zr2 3.186122 1_555
Tl0 Zr1 3.186122 1_555
Tl1 Zr0 3.186118 1_565
Tl1 Zr3 3.186118 1_565
Tl1 Zr0 3.186118 1_455
Tl1 Zr3 3.186118 1_455
Tl1 Zr0 3.186122 1_555
Tl1 Zr3 3.186122 1_555
C0 Zr3 2.306740 1_455
C0 Zr2 2.306740 1_544
C0 Zr2 2.306743 1_554
C0 Zr3 2.306743 1_555
C0 Zr2 2.306743 1_444
C0 Zr3 2.306743 1_445
C1 Zr1 2.306740 1_545
C1 Zr0 2.306740 1_455
C1 Zr0 2.306743 1_445
C1 Zr1 2.306743 1_445
C1 Zr0 2.306743 1_555
C1 Zr1 2.306743 1_555
