# generated using pymatgen
data_Ba3NiIrRuO9
_symmetry_space_group_name_H-M   'P 1'
_cell_length_a   5.82303591
_cell_length_b   5.82303591
_cell_length_c   14.28048700
_cell_angle_alpha   90.00000000
_cell_angle_beta   90.00000000
_cell_angle_gamma   119.99999899
_symmetry_Int_Tables_number   1
_chemical_formula_structural   Ba3NiIrRuO9
_chemical_formula_sum   'Ba6 Ni2 Ir2 Ru2 O18'
_cell_volume   419.34608341
_cell_formula_units_Z   2
loop_
 _symmetry_equiv_pos_site_id
 _symmetry_equiv_pos_as_xyz
  1  'x, y, z'
loop_
 _atom_site_type_symbol
 _atom_site_label
 _atom_site_symmetry_multiplicity
 _atom_site_fract_x
 _atom_site_fract_y
 _atom_site_fract_z
 _atom_site_occupancy
  Ba  Ba0  1  0.33333300  0.66666700  0.58749100  1
  Ba  Ba1  1  0.66666700  0.33333300  0.41250900  1
  Ba  Ba2  1  0.66666700  0.33333300  0.08670300  1
  Ba  Ba3  1  0.33333300  0.66666700  0.91329700  1
  Ba  Ba4  1  0.00000000  0.00000000  0.24948300  1
  Ba  Ba5  1  0.00000000  0.00000000  0.75051700  1
  Ni  Ni0  1  0.00000000  0.00000000  0.50000000  1
  Ni  Ni1  1  0.00000000  0.00000000  0.00000000  1
  Ir  Ir0  1  0.66666700  0.33333300  0.84017900  1
  Ir  Ir1  1  0.33333300  0.66666700  0.15982100  1
  Ru  Ru0  1  0.33333300  0.66666700  0.34232100  1
  Ru  Ru1  1  0.66666700  0.33333300  0.65767900  1
  O  O0  1  0.48859100  0.51140900  0.25011900  1
  O  O1  1  0.48859100  0.97718100  0.25011900  1
  O  O2  1  0.02281900  0.51140900  0.25011900  1
  O  O3  1  0.51140900  0.48859100  0.74988100  1
  O  O4  1  0.51140900  0.02281900  0.74988100  1
  O  O5  1  0.97718100  0.48859100  0.74988100  1
  O  O6  1  0.17092100  0.82907900  0.08409800  1
  O  O7  1  0.17092100  0.34184100  0.08409800  1
  O  O8  1  0.65815900  0.82907900  0.08409800  1
  O  O9  1  0.82907900  0.17092100  0.91590200  1
  O  O10  1  0.82907900  0.65815900  0.91590200  1
  O  O11  1  0.34184100  0.17092100  0.91590200  1
  O  O12  1  0.82898000  0.17102000  0.58430000  1
  O  O13  1  0.82898000  0.65796100  0.58430000  1
  O  O14  1  0.34203900  0.17102000  0.58430000  1
  O  O15  1  0.17102000  0.82898000  0.41570000  1
  O  O16  1  0.17102000  0.34203900  0.41570000  1
  O  O17  1  0.65796100  0.82898000  0.41570000  1
loop_
_geom_bond_atom_site_label_1
_geom_bond_atom_site_label_2
_geom_bond_distance
_geom_bond_site_symmetry_2
Ba0 O13 2.912205 1_555
Ba0 O14 2.912205 1_555
Ba0 O13 2.912205 1_455
Ba0 O14 2.912205 1_565
Ba0 O12 2.912206 1_565
Ba0 O12 2.912206 1_455
Ba0 O3 2.933181 1_555
Ba0 O4 2.933181 1_565
Ba0 O5 2.933181 1_455
Ba0 O15 2.949310 1_555
Ba0 O16 2.949316 1_555
Ba0 O17 2.949316 1_555
Ba1 O16 2.912205 1_555
Ba1 O17 2.912205 1_555
Ba1 O16 2.912205 1_655
Ba1 O17 2.912205 1_545
Ba1 O15 2.912206 1_545
Ba1 O15 2.912206 1_655
Ba1 O0 2.933181 1_555
Ba1 O1 2.933181 1_545
Ba1 O2 2.933181 1_655
Ba1 O12 2.949310 1_555
Ba1 O14 2.949316 1_555
Ba1 O13 2.949316 1_555
Ba2 O7 2.912072 1_555
Ba2 O8 2.912072 1_555
Ba2 O8 2.912072 1_545
Ba2 O7 2.912072 1_655
Ba2 O6 2.912072 1_655
Ba2 O6 2.912072 1_545
Ba2 O9 2.938117 1_554
Ba2 O10 2.938123 1_554
Ba2 O11 2.938123 1_554
Ba2 O0 2.944779 1_555
Ba2 O2 2.944779 1_655
Ba2 O1 2.944779 1_545
Ba3 O11 2.912072 1_555
Ba3 O10 2.912072 1_555
Ba3 O10 2.912072 1_455
Ba3 O11 2.912072 1_565
Ba3 O9 2.912072 1_455
Ba3 O9 2.912072 1_565
Ba3 O6 2.938117 1_556
Ba3 O8 2.938123 1_556
Ba3 O7 2.938123 1_556
Ba3 O3 2.944779 1_555
Ba3 O4 2.944779 1_565
Ba3 O5 2.944779 1_455
Ba4 O1 2.913802 1_445
Ba4 O2 2.913802 1_555
Ba4 O0 2.913805 1_555
Ba4 O0 2.913805 1_445
Ba4 O2 2.913808 1_545
Ba4 O1 2.913808 1_545
Ba4 O7 2.923991 1_555
Ba4 O8 2.923991 1_445
Ba4 O6 2.923994 1_545
Ba4 O16 2.934183 1_555
Ba4 O17 2.934183 1_445
Ba4 O15 2.934186 1_545
Ba5 O5 2.913802 1_445
Ba5 O4 2.913802 1_555
Ba5 O3 2.913805 1_555
Ba5 O3 2.913805 1_445
Ba5 O4 2.913808 1_455
Ba5 O5 2.913808 1_455
Ba5 O11 2.923991 1_555
Ba5 O10 2.923991 1_445
Ba5 O9 2.923994 1_455
Ba5 O13 2.934183 1_445
Ba5 O14 2.934183 1_555
Ba5 O12 2.934186 1_455
Ni0 O17 2.103428 1_445
Ni0 O16 2.103428 1_555
Ni0 O14 2.103428 1_555
Ni0 O13 2.103428 1_445
Ni0 O15 2.103432 1_545
Ni0 O12 2.103432 1_455
Ni1 O7 2.100959 1_555
Ni1 O8 2.100959 1_445
Ni1 O11 2.100959 1_554
Ni1 O10 2.100959 1_444
Ni1 O6 2.100963 1_545
Ni1 O9 2.100963 1_454
Ir0 O9 1.962795 1_555
Ir0 O10 1.962803 1_555
Ir0 O11 1.962803 1_555
Ir0 O4 2.028502 1_555
Ir0 O5 2.028502 1_555
Ir0 O3 2.028510 1_555
Ir1 O6 1.962795 1_555
Ir1 O8 1.962803 1_555
Ir1 O7 1.962803 1_555
Ir1 O1 2.028502 1_555
Ir1 O2 2.028502 1_555
Ir1 O0 2.028510 1_555
O0 Ru0 2.045902 1_555
O1 Ru0 2.045894 1_555
O2 Ru0 2.045894 1_555
O3 Ru1 2.045902 1_555
O4 Ru1 2.045894 1_555
O5 Ru1 2.045894 1_555
O12 Ru1 1.943713 1_555
O13 Ru1 1.943721 1_555
O14 Ru1 1.943721 1_555
O15 Ru0 1.943713 1_555
O16 Ru0 1.943721 1_555
O17 Ru0 1.943721 1_555
