# generated using pymatgen
data_Ho(FeSn)6
_symmetry_space_group_name_H-M   'P 1'
_cell_length_a   15.01041629
_cell_length_b   15.01041629
_cell_length_c   15.01041629
_cell_angle_alpha   159.13980177
_cell_angle_beta   145.26288258
_cell_angle_gamma   40.86728945
_symmetry_Int_Tables_number   1
_chemical_formula_structural   Ho(FeSn)6
_chemical_formula_sum   'Ho3 Fe18 Sn18'
_cell_volume   685.08944432
_cell_formula_units_Z   3
loop_
 _symmetry_equiv_pos_site_id
 _symmetry_equiv_pos_as_xyz
  1  'x, y, z'
loop_
 _atom_site_type_symbol
 _atom_site_label
 _atom_site_symmetry_multiplicity
 _atom_site_fract_x
 _atom_site_fract_y
 _atom_site_fract_z
 _atom_site_occupancy
  Ho  Ho0  1  0.16820800  0.66820800  0.50000000  1
  Ho  Ho1  1  0.83179200  0.33179200  0.50000000  1
  Ho  Ho2  1  0.00000000  0.00000000  0.00000000  1
  Fe  Fe0  1  0.00000000  0.00000000  0.50000000  1
  Fe  Fe1  1  0.24659100  0.50000000  0.74659100  1
  Fe  Fe2  1  0.16259800  0.66697400  0.99630100  1
  Fe  Fe3  1  0.16259800  0.16629600  0.49562400  1
  Fe  Fe4  1  0.32932700  0.33302600  0.49562400  1
  Fe  Fe5  1  0.00000000  0.50000000  0.00000000  1
  Fe  Fe6  1  0.41373200  0.16672600  0.24700600  1
  Fe  Fe7  1  0.08028000  0.83327400  0.24700600  1
  Fe  Fe8  1  0.58626800  0.83327400  0.75299400  1
  Fe  Fe9  1  0.83740200  0.33302600  0.00369900  1
  Fe  Fe10  1  0.91972000  0.16672600  0.75299400  1
  Fe  Fe11  1  0.83740200  0.83370400  0.50437600  1
  Fe  Fe12  1  0.75340900  0.50000000  0.25340900  1
  Fe  Fe13  1  0.67067300  0.16629600  0.00369900  1
  Fe  Fe14  1  0.50000000  0.00000000  0.00000000  1
  Fe  Fe15  1  0.50000000  0.50000000  0.50000000  1
  Fe  Fe16  1  0.67067300  0.66697400  0.50437600  1
  Fe  Fe17  1  0.32932700  0.83370400  0.99630100  1
  Sn  Sn0  1  0.94432000  0.44432000  0.50000000  1
  Sn  Sn1  1  0.28000500  0.78000500  0.50000000  1
  Sn  Sn2  1  0.61026800  0.11026800  0.50000000  1
  Sn  Sn3  1  0.66298900  0.00000000  0.66298900  1
  Sn  Sn4  1  0.33701100  0.00000000  0.33701100  1
  Sn  Sn5  1  0.17092900  0.33382400  0.83710600  1
  Sn  Sn6  1  0.71999500  0.21999500  0.50000000  1
  Sn  Sn7  1  0.50328200  0.66617600  0.83710600  1
  Sn  Sn8  1  0.05568000  0.55568000  0.50000000  1
  Sn  Sn9  1  0.38973200  0.88973200  0.50000000  1
  Sn  Sn10  1  0.77656100  0.77656100  0.00000000  1
  Sn  Sn11  1  0.88781400  0.88781400  0.00000000  1
  Sn  Sn12  1  0.11218600  0.11218600  0.00000000  1
  Sn  Sn13  1  0.55554200  0.55554200  0.00000000  1
  Sn  Sn14  1  0.22343900  0.22343900  0.00000000  1
  Sn  Sn15  1  0.82907100  0.66617600  0.16289400  1
  Sn  Sn16  1  0.44445800  0.44445800  0.00000000  1
  Sn  Sn17  1  0.49671800  0.33382400  0.16289400  1
loop_
_geom_bond_atom_site_label_1
_geom_bond_atom_site_label_2
_geom_bond_distance
_geom_bond_site_symmetry_2
Ho0 Sn15 3.021590 1_455
Ho0 Sn7 3.021594 1_555
Ho0 Sn14 3.130260 1_566
Ho0 Sn14 3.130260 1_555
Ho0 Sn12 3.141364 1_555
Ho0 Sn12 3.141364 1_566
Ho0 Sn1 3.145055 1_555
Ho0 Sn8 3.165619 1_555
Ho1 Sn5 3.021590 1_655
Ho1 Sn17 3.021594 1_555
Ho1 Sn10 3.130260 1_556
Ho1 Sn10 3.130260 1_545
Ho1 Sn11 3.141364 1_556
Ho1 Sn11 3.141364 1_545
Ho1 Sn6 3.145055 1_555
Ho1 Sn0 3.165619 1_555
Ho2 Sn3 3.020202 1_454
Ho2 Sn4 3.020202 1_555
Ho2 Sn8 3.136548 1_544
Ho2 Sn8 3.136548 1_555
Ho2 Sn0 3.136548 1_455
Ho2 Sn0 3.136548 1_444
Ho2 Sn12 3.155998 1_555
Ho2 Sn11 3.155998 1_445
Fe0 Fe7 2.708289 1_545
Fe0 Fe10 2.708289 1_455
Fe0 Fe5 2.717423 1_545
Fe0 Fe5 2.717423 1_556
Fe0 Sn10 2.724694 1_445
Fe0 Sn14 2.724694 1_556
Fe0 Sn6 2.752841 1_455
Fe0 Sn1 2.752841 1_545
Fe0 Sn5 2.831280 1_555
Fe0 Sn15 2.831280 1_445
Fe0 Ho1 3.487126 1_455
Fe0 Ho0 3.487126 1_545
Fe1 Sn8 2.708713 1_555
Fe1 Sn0 2.708713 1_455
Fe1 Fe4 2.711287 1_555
Fe1 Fe2 2.711287 1_555
Fe1 Fe3 2.711301 1_555
Fe1 Fe17 2.711301 1_555
Fe1 Sn16 2.756586 1_556
Fe1 Sn13 2.756586 1_556
Fe1 Sn4 2.835667 1_555
Fe1 Sn4 2.835667 1_566
Fe1 Ho2 3.502566 1_555
Fe1 Ho2 3.502566 1_566
Fe2 Sn0 2.704879 1_455
Fe2 Fe7 2.709380 1_556
Fe2 Sn11 2.712419 1_456
Fe2 Fe3 2.713741 1_566
Fe2 Fe3 2.721105 1_555
Fe2 Sn9 2.756247 1_556
Fe2 Sn16 2.765266 1_556
Fe2 Sn5 2.818783 1_555
Fe2 Sn4 2.829633 1_566
Fe2 Ho2 3.492816 1_566
Fe2 Ho1 3.522307 1_455
Fe3 Sn0 2.704888 1_455
Fe3 Fe7 2.709366 1_545
Fe3 Sn11 2.712417 1_445
Fe3 Sn9 2.756238 1_545
Fe3 Sn16 2.765268 1_556
Fe3 Sn5 2.818774 1_555
Fe3 Sn4 2.829643 1_555
Fe3 Ho2 3.492827 1_555
Fe3 Ho1 3.522302 1_455
Fe4 Sn8 2.704879 1_555
Fe4 Fe6 2.709380 1_555
Fe4 Sn12 2.712419 1_555
Fe4 Sn2 2.756247 1_555
Fe4 Sn13 2.765266 1_556
Fe4 Sn7 2.818774 1_555
Fe4 Sn4 2.829633 1_555
Fe4 Ho2 3.492816 1_555
Fe4 Ho0 3.522307 1_555
Fe5 Fe7 2.708289 1_555
Fe5 Sn14 2.724694 1_555
Fe5 Sn10 2.724694 1_455
Fe5 Sn6 2.752841 1_454
Fe5 Sn1 2.752841 1_555
Fe5 Sn5 2.831277 1_554
Fe5 Sn15 2.831277 1_455
Fe5 Ho1 3.487126 1_454
Fe5 Ho0 3.487126 1_555
Fe6 Sn12 2.693351 1_555
Fe6 Sn6 2.717748 1_555
Fe6 Sn14 2.728638 1_555
Fe6 Sn2 2.768227 1_555
Fe6 Sn7 2.834891 1_544
Fe6 Sn7 2.834891 1_555
Fe6 Ho0 3.505162 1_544
Fe6 Ho0 3.505162 1_555
Fe7 Sn11 2.693351 1_455
Fe7 Sn1 2.717748 1_555
Fe7 Sn10 2.728638 1_455
Fe7 Sn9 2.768227 1_555
Fe7 Sn5 2.834887 1_554
Fe7 Sn5 2.834892 1_565
Fe7 Ho1 3.505162 1_454
Fe7 Ho1 3.505162 1_465
Fe8 Sn11 2.693351 1_556
Fe8 Sn1 2.717748 1_555
Fe8 Sn10 2.728638 1_556
Fe8 Sn9 2.768227 1_555
Fe8 Sn17 2.834891 1_555
Fe8 Sn17 2.834891 1_566
Fe8 Ho1 3.505162 1_566
Fe8 Ho1 3.505162 1_555
Fe9 Sn8 2.704879 1_655
Fe9 Sn12 2.712419 1_655
Fe9 Sn2 2.756247 1_554
Fe9 Sn13 2.765266 1_555
Fe9 Sn15 2.818783 1_555
Fe9 Sn3 2.829633 1_554
Fe9 Ho2 3.492816 1_655
Fe9 Ho0 3.522307 1_655
Fe10 Sn12 2.693351 1_656
Fe10 Fe5 2.708289 1_656
Fe10 Fe11 2.709366 1_545
Fe10 Fe9 2.709380 1_556
Fe10 Sn6 2.717748 1_555
Fe10 Sn14 2.728638 1_656
Fe10 Sn2 2.768227 1_555
Fe10 Sn15 2.834887 1_556
Fe10 Sn15 2.834892 1_545
Fe10 Ho0 3.505162 1_656
Fe10 Ho0 3.505162 1_645
Fe11 Sn8 2.704888 1_655
Fe11 Fe12 2.711301 1_555
Fe11 Sn12 2.712417 1_666
Fe11 Fe9 2.713741 1_566
Fe11 Fe9 2.721105 1_555
Fe11 Sn2 2.756238 1_565
Fe11 Sn13 2.765268 1_555
Fe11 Sn15 2.818774 1_555
Fe11 Sn3 2.829643 1_565
Fe11 Ho2 3.492827 1_666
Fe11 Ho0 3.522302 1_655
Fe12 Sn0 2.708713 1_555
Fe12 Sn8 2.708713 1_655
Fe12 Fe9 2.711287 1_555
Fe12 Fe16 2.711287 1_555
Fe12 Fe13 2.711301 1_555
Fe12 Sn16 2.756586 1_555
Fe12 Sn13 2.756586 1_555
Fe12 Sn3 2.835667 1_554
Fe12 Sn3 2.835667 1_565
Fe12 Ho2 3.502566 1_666
Fe12 Ho2 3.502566 1_655
Fe13 Sn0 2.704881 1_555
Fe13 Fe8 2.709366 1_544
Fe13 Sn11 2.712410 1_545
Fe13 Fe16 2.713741 1_544
Fe13 Fe16 2.721105 1_555
Fe13 Sn9 2.756245 1_544
Fe13 Sn16 2.765275 1_555
Fe13 Sn17 2.818765 1_555
Fe13 Sn3 2.829645 1_554
Fe13 Ho2 3.492822 1_655
Fe13 Ho1 3.522296 1_555
Fe14 Fe8 2.708289 1_544
Fe14 Fe6 2.708289 1_555
Fe14 Fe15 2.717423 1_555
Fe14 Fe15 2.717423 1_544
Fe14 Sn10 2.724694 1_545
Fe14 Sn14 2.724694 1_555
Fe14 Sn1 2.752841 1_544
Fe14 Sn6 2.752841 1_555
Fe14 Sn17 2.831291 1_555
Fe14 Sn7 2.831291 1_544
Fe14 Ho1 3.487126 1_555
Fe14 Ho0 3.487126 1_544
Fe15 Fe8 2.708289 1_555
Fe15 Fe6 2.708289 1_555
Fe15 Sn10 2.724694 1_556
Fe15 Sn14 2.724694 1_555
Fe15 Sn1 2.752841 1_555
Fe15 Sn6 2.752841 1_555
Fe15 Sn17 2.831291 1_555
Fe15 Sn7 2.831291 1_555
Fe15 Ho1 3.487126 1_555
Fe15 Ho0 3.487126 1_555
Fe16 Sn0 2.704879 1_555
Fe16 Fe8 2.709380 1_555
Fe16 Sn11 2.712419 1_556
Fe16 Sn9 2.756247 1_555
Fe16 Sn16 2.765266 1_555
Fe16 Sn17 2.818774 1_555
Fe16 Sn3 2.829633 1_565
Fe16 Ho2 3.492816 1_666
Fe16 Ho1 3.522307 1_555
Fe17 Sn8 2.704881 1_555
Fe17 Fe6 2.709366 1_566
Fe17 Sn12 2.712410 1_566
Fe17 Fe4 2.713741 1_566
Fe17 Fe4 2.721105 1_555
Fe17 Sn2 2.756245 1_566
Fe17 Sn13 2.765275 1_556
Fe17 Sn7 2.818765 1_555
Fe17 Sn4 2.829645 1_566
Fe17 Ho2 3.492822 1_566
Fe17 Ho0 3.522296 1_555
Sn3 Sn4 2.921327 1_555
Sn15 Sn7 2.919629 1_554
Sn17 Sn5 2.919629 1_554
