# generated using pymatgen
data_HoP5O14
_symmetry_space_group_name_H-M   'P 1'
_cell_length_a   9.04184958
_cell_length_b   9.04184958
_cell_length_c   12.38279283
_cell_angle_alpha   89.13908387
_cell_angle_beta   89.13908387
_cell_angle_gamma   89.56912334
_symmetry_Int_Tables_number   1
_chemical_formula_structural   HoP5O14
_chemical_formula_sum   'Ho4 P20 O56'
_cell_volume   1012.10028313
_cell_formula_units_Z   4
loop_
 _symmetry_equiv_pos_site_id
 _symmetry_equiv_pos_as_xyz
  1  'x, y, z'
loop_
 _atom_site_type_symbol
 _atom_site_label
 _atom_site_symmetry_multiplicity
 _atom_site_fract_x
 _atom_site_fract_y
 _atom_site_fract_z
 _atom_site_occupancy
  Ho  Ho0  1  0.47989077  0.52010923  0.25000000  1
  Ho  Ho1  1  0.52010923  0.47989077  0.75000000  1
  Ho  Ho2  1  0.03120722  0.96879278  0.25000000  1
  Ho  Ho3  1  0.96879278  0.03120722  0.75000000  1
  P  P0  1  0.61186595  0.68052636  0.50173831  1
  P  P1  1  0.31947364  0.38813405  -0.00173831  1
  P  P2  1  0.38813405  0.31947364  0.49826169  1
  P  P3  1  0.68052636  0.61186595  0.00173831  1
  P  P4  1  0.51826137  0.18244060  0.10249265  1
  P  P5  1  0.81755940  0.48173863  0.39750735  1
  P  P6  1  0.48173863  0.81755940  0.89750735  1
  P  P7  1  0.18244060  0.51826137  0.60249265  1
  P  P8  1  0.82403392  0.12533272  0.03325120  1
  P  P9  1  0.87466728  0.17596608  0.46674880  1
  P  P10  1  0.17596608  0.87466728  0.96674880  1
  P  P11  1  0.12533272  0.82403392  0.53325120  1
  P  P12  1  0.68136836  0.95438116  0.39101507  1
  P  P13  1  0.04561884  0.31863164  0.10898493  1
  P  P14  1  0.31863164  0.04561884  0.60898493  1
  P  P15  1  0.95438116  0.68136836  0.89101507  1
  P  P16  1  0.42758331  0.92507823  0.24018855  1
  P  P17  1  0.07492177  0.57241669  0.25981145  1
  P  P18  1  0.57241669  0.07492177  0.75981145  1
  P  P19  1  0.92507823  0.42758331  0.74018855  1
  O  O0  1  0.57466227  0.65146551  0.61535500  1
  O  O1  1  0.34853449  0.42533773  0.88464500  1
  O  O2  1  0.42533773  0.34853449  0.38464500  1
  O  O3  1  0.65146551  0.57466227  0.11535500  1
  O  O4  1  0.51129459  0.64230542  0.41355982  1
  O  O5  1  0.35769458  0.48870541  0.08644018  1
  O  O6  1  0.48870541  0.35769458  0.58644018  1
  O  O7  1  0.64230542  0.51129459  0.91355982  1
  O  O8  1  0.53867912  0.28254799  0.19210962  1
  O  O9  1  0.71745201  0.46132088  0.30789038  1
  O  O10  1  0.46132088  0.71745201  0.80789038  1
  O  O11  1  0.28254799  0.53867912  0.69210962  1
  O  O12  1  0.87389479  0.07512434  0.92675441  1
  O  O13  1  0.92487566  0.12610521  0.57324559  1
  O  O14  1  0.12610521  0.92487566  0.07324559  1
  O  O15  1  0.07512434  0.87389479  0.42675441  1
  O  O16  1  0.84250578  0.03510670  0.13284670  1
  O  O17  1  0.96489330  0.15749422  0.36715330  1
  O  O18  1  0.15749422  0.96489330  0.86715330  1
  O  O19  1  0.27805991  0.97653545  0.26958615  1
  O  O20  1  0.03510670  0.84250578  0.63284670  1
  O  O21  1  0.10522856  0.20082050  0.17783644  1
  O  O22  1  0.20082050  0.10522856  0.67783644  1
  O  O23  1  0.89477144  0.79917950  0.82216356  1
  O  O24  1  0.98391032  0.53102716  0.83520392  1
  O  O25  1  0.46897284  0.01608968  0.66479608  1
  O  O26  1  0.01608968  0.46897284  0.16479608  1
  O  O27  1  0.53102716  0.98391032  0.33520392  1
  O  O28  1  0.01848411  0.49011191  0.63661977  1
  O  O29  1  0.50988809  0.98151589  0.86338023  1
  O  O30  1  0.98151589  0.50988809  0.36338023  1
  O  O31  1  0.49011191  0.01848411  0.13661977  1
  O  O32  1  0.28830531  0.89295023  0.55623213  1
  O  O33  1  0.10704977  0.71169469  0.94376787  1
  O  O34  1  0.71169469  0.10704977  0.44376787  1
  O  O35  1  0.89295023  0.28830531  0.05623213  1
  O  O36  1  0.85450721  0.64746644  0.99274626  1
  O  O37  1  0.35253356  0.14549279  0.50725374  1
  O  O38  1  0.14549279  0.35253356  0.00725374  1
  O  O39  1  0.64746644  0.85450721  0.49274626  1
  O  O40  1  0.17210285  0.65300465  0.52216135  1
  O  O41  1  0.34699535  0.82789715  0.97783865  1
  O  O42  1  0.82789715  0.34699535  0.47783865  1
  O  O43  1  0.65300465  0.17210285  0.02216135  1
  O  O44  1  0.61193256  0.77586432  0.97421863  1
  O  O45  1  0.22413568  0.38806744  0.52578137  1
  O  O46  1  0.38806744  0.22413568  0.02578137  1
  O  O47  1  0.77586432  0.61193256  0.47421863  1
  O  O48  1  0.76967589  0.45921894  0.71544832  1
  O  O49  1  0.54078106  0.23032411  0.78455168  1
  O  O50  1  0.23032411  0.54078106  0.28455168  1
  O  O51  1  0.45921894  0.76967589  0.21544832  1
  O  O52  1  0.97653545  0.27805991  0.76958615  1
  O  O53  1  0.72194009  0.02346455  0.73041385  1
  O  O54  1  0.02346455  0.72194009  0.23041385  1
  O  O55  1  0.79917950  0.89477144  0.32216356  1
loop_
_geom_bond_atom_site_label_1
_geom_bond_atom_site_label_2
_geom_bond_distance
_geom_bond_site_symmetry_2
Ho0 O50 2.297178 1_555
Ho0 O51 2.297178 1_555
Ho0 O2 2.310605 1_555
Ho0 O3 2.310605 1_555
Ho0 O8 2.329794 1_555
Ho0 O9 2.329794 1_555
Ho0 O5 2.343626 1_555
Ho0 O4 2.343626 1_555
Ho1 O48 2.297178 1_555
Ho1 O49 2.297178 1_555
Ho1 O0 2.310605 1_555
Ho1 O1 2.310605 1_555
Ho1 O11 2.329794 1_555
Ho1 O10 2.329794 1_555
Ho1 O6 2.343626 1_555
Ho1 O7 2.343626 1_555
Ho2 O19 2.250488 1_555
Ho2 O54 2.250488 1_555
Ho2 O17 2.325514 1_465
Ho2 O16 2.325514 1_465
Ho2 O55 2.365310 1_455
Ho2 O21 2.365310 1_565
Ho2 O15 2.376754 1_555
Ho2 O14 2.376754 1_555
Ho3 O52 2.250488 1_555
Ho3 O53 2.250488 1_555
Ho3 O20 2.325514 1_645
Ho3 O18 2.325514 1_645
Ho3 O23 2.365310 1_545
Ho3 O22 2.365310 1_655
Ho3 O13 2.376754 1_555
Ho3 O12 2.376754 1_555
O0 P0 1.462035 1_555
O1 P1 1.462035 1_556
O2 P2 1.462035 1_555
O3 P3 1.462035 1_555
O4 P0 1.478002 1_555
O5 P1 1.478002 1_555
O6 P2 1.478002 1_555
O7 P3 1.478002 1_556
O8 P4 1.457291 1_555
O9 P5 1.457291 1_555
O10 P6 1.457291 1_555
O11 P7 1.457291 1_555
O12 P8 1.464731 1_556
O13 P9 1.464731 1_555
O14 P10 1.464731 1_554
O15 P11 1.464731 1_555
O16 P8 1.479292 1_555
O17 P9 1.479292 1_555
O18 P10 1.479292 1_555
O19 P16 1.468893 1_555
O20 P11 1.479292 1_555
O21 P13 1.459446 1_555
O22 P14 1.459446 1_555
O23 P15 1.459446 1_555
O24 P15 1.553705 1_555
O24 P19 1.612900 1_555
O25 P14 1.553705 1_555
O25 P18 1.612900 1_555
O26 P13 1.553705 1_555
O26 P17 1.612900 1_555
O27 P12 1.553705 1_555
O27 P16 1.612900 1_555
O28 P7 1.557144 1_555
O28 P19 1.621884 1_455
O29 P6 1.557144 1_555
O29 P18 1.621884 1_565
O30 P5 1.557144 1_555
O30 P17 1.621884 1_655
O31 P4 1.557144 1_555
O31 P16 1.621884 1_545
O32 P14 1.563838 1_565
O32 P11 1.634757 1_555
O33 P15 1.563838 1_455
O33 P10 1.634757 1_555
O34 P12 1.563838 1_545
O34 P9 1.634757 1_555
O35 P13 1.563838 1_655
O35 P8 1.634757 1_555
O36 P15 1.566753 1_555
O36 P3 1.609957 1_556
O37 P14 1.566753 1_555
O37 P2 1.609957 1_555
O38 P13 1.566753 1_555
O38 P1 1.609957 1_555
O39 P12 1.566753 1_555
O39 P0 1.609957 1_555
O40 P7 1.564354 1_555
O40 P11 1.607455 1_555
O41 P6 1.564354 1_555
O41 P10 1.607455 1_555
O42 P5 1.564354 1_555
O42 P9 1.607455 1_555
O43 P4 1.564354 1_555
O43 P8 1.607455 1_555
O44 P6 1.564094 1_555
O44 P3 1.636143 1_556
O45 P7 1.564094 1_555
O45 P2 1.636143 1_555
O46 P4 1.564094 1_555
O46 P1 1.636143 1_555
O47 P5 1.564094 1_555
O47 P0 1.636143 1_555
O48 P19 1.467755 1_555
O49 P18 1.467755 1_555
O50 P17 1.467755 1_555
O51 P16 1.467755 1_555
O52 P19 1.468893 1_555
O53 P18 1.468893 1_555
O54 P17 1.468893 1_555
O55 P12 1.459446 1_555
