# generated using pymatgen
data_Ni2Sb2O7
_symmetry_space_group_name_H-M   'P 1'
_cell_length_a   7.20856048
_cell_length_b   7.20856048
_cell_length_c   7.20856048
_cell_angle_alpha   60.00000000
_cell_angle_beta   60.00000000
_cell_angle_gamma   60.00000000
_symmetry_Int_Tables_number   1
_chemical_formula_structural   Ni2Sb2O7
_chemical_formula_sum   'Ni4 Sb4 O14'
_cell_volume   264.86870143
_cell_formula_units_Z   2
loop_
 _symmetry_equiv_pos_site_id
 _symmetry_equiv_pos_as_xyz
  1  'x, y, z'
loop_
 _atom_site_type_symbol
 _atom_site_label
 _atom_site_symmetry_multiplicity
 _atom_site_fract_x
 _atom_site_fract_y
 _atom_site_fract_z
 _atom_site_occupancy
  Ni  Ni0  1  0.62500000  0.12500000  0.12500000  1
  Ni  Ni1  1  0.12500000  0.62500000  0.12500000  1
  Ni  Ni2  1  0.12500000  0.12500000  0.62500000  1
  Ni  Ni3  1  0.12500000  0.12500000  0.12500000  1
  Sb  Sb0  1  0.12500000  0.62500000  0.62500000  1
  Sb  Sb1  1  0.62500000  0.12500000  0.62500000  1
  Sb  Sb2  1  0.62500000  0.62500000  0.12500000  1
  Sb  Sb3  1  0.62500000  0.62500000  0.62500000  1
  O  O0  1  0.70610600  0.70610600  0.29389400  1
  O  O1  1  0.29389400  0.29389400  0.70610600  1
  O  O2  1  0.70610600  0.29389400  0.70610600  1
  O  O3  1  0.29389400  0.70610600  0.29389400  1
  O  O4  1  0.29389400  0.70610600  0.70610600  1
  O  O5  1  0.70610600  0.29389400  0.29389400  1
  O  O6  1  0.54389400  0.54389400  0.95610600  1
  O  O7  1  0.95610600  0.95610600  0.54389400  1
  O  O8  1  0.54389400  0.95610600  0.54389400  1
  O  O9  1  0.95610600  0.54389400  0.95610600  1
  O  O10  1  0.95610600  0.54389400  0.54389400  1
  O  O11  1  0.54389400  0.95610600  0.95610600  1
  O  O12  1  0.25000000  0.25000000  0.25000000  1
  O  O13  1  0.00000000  0.00000000  0.00000000  1
loop_
_geom_bond_atom_site_label_1
_geom_bond_atom_site_label_2
_geom_bond_distance
_geom_bond_site_symmetry_2
Ni0 O13 2.207162 1_655
Ni0 O12 2.207162 1_555
Ni0 O5 2.492436 1_555
Ni0 O11 2.492436 1_544
Ni0 O6 2.492436 1_554
Ni0 O8 2.492436 1_545
Ni0 O2 2.492436 1_554
Ni0 O0 2.492436 1_545
Ni1 O13 2.207162 1_565
Ni1 O12 2.207162 1_555
Ni1 O0 2.492436 1_455
Ni1 O3 2.492436 1_555
Ni1 O9 2.492436 1_454
Ni1 O6 2.492436 1_554
Ni1 O4 2.492436 1_554
Ni1 O10 2.492436 1_455
Ni2 O13 2.207162 1_556
Ni2 O12 2.207162 1_555
Ni2 O8 2.492436 1_545
Ni2 O10 2.492436 1_455
Ni2 O7 2.492436 1_445
Ni2 O1 2.492436 1_555
Ni2 O2 2.492436 1_455
Ni2 O4 2.492436 1_545
Ni3 O13 2.207162 1_555
Ni3 O12 2.207162 1_555
Ni3 O11 2.492436 1_544
Ni3 O9 2.492436 1_454
Ni3 O5 2.492436 1_455
Ni3 O1 2.492436 1_554
Ni3 O3 2.492436 1_545
Ni3 O7 2.492436 1_445
O0 Sb2 1.982765 1_555
O0 Sb3 1.982765 1_555
O1 Sb0 1.982765 1_555
O1 Sb1 1.982765 1_555
O2 Sb1 1.982765 1_555
O2 Sb3 1.982765 1_555
O3 Sb2 1.982765 1_555
O3 Sb0 1.982765 1_555
O4 Sb0 1.982765 1_555
O4 Sb3 1.982765 1_555
O5 Sb1 1.982765 1_555
O5 Sb2 1.982765 1_555
O6 Sb2 1.982765 1_556
O6 Sb3 1.982765 1_555
O7 Sb1 1.982765 1_565
O7 Sb0 1.982765 1_655
O8 Sb1 1.982765 1_565
O8 Sb3 1.982765 1_555
O9 Sb2 1.982765 1_556
O9 Sb0 1.982765 1_655
O10 Sb0 1.982765 1_655
O10 Sb3 1.982765 1_555
O11 Sb2 1.982765 1_556
O11 Sb1 1.982765 1_565
