# generated using pymatgen
data_V2O5
_symmetry_space_group_name_H-M   'P 1'
_cell_length_a   11.79136430
_cell_length_b   11.81448902
_cell_length_c   12.11226274
_cell_angle_alpha   90.76671569
_cell_angle_beta   93.04664587
_cell_angle_gamma   84.37660524
_symmetry_Int_Tables_number   1
_chemical_formula_structural   V2O5
_chemical_formula_sum   'V30 O75'
_cell_volume   1676.79599247
_cell_formula_units_Z   15
loop_
 _symmetry_equiv_pos_site_id
 _symmetry_equiv_pos_as_xyz
  1  'x, y, z'
loop_
 _atom_site_type_symbol
 _atom_site_label
 _atom_site_symmetry_multiplicity
 _atom_site_fract_x
 _atom_site_fract_y
 _atom_site_fract_z
 _atom_site_occupancy
  V  V0  1  0.71998754  0.70206592  0.94302872  1
  V  V1  1  0.90454064  0.74839074  0.16746338  1
  V  V2  1  0.96198603  0.76233316  0.66546964  1
  V  V3  1  0.46579404  0.70098745  0.06564177  1
  V  V4  1  0.83425897  0.02100544  0.64213425  1
  V  V5  1  0.36678511  0.12545947  0.72033136  1
  V  V6  1  0.39907211  0.57016965  0.81648905  1
  V  V7  1  0.48034237  0.69723047  0.60890388  1
  V  V8  1  0.85053241  0.99780693  0.06214897  1
  V  V9  1  0.35392315  0.93668144  0.22889279  1
  V  V10  1  0.53468092  0.01796437  0.34259928  1
  V  V11  1  0.19987220  0.54636964  0.61174229  1
  V  V12  1  0.76203000  0.59803531  0.53227668  1
  V  V13  1  0.08055968  0.85216081  0.91860056  1
  V  V14  1  0.19814814  0.18436745  0.26804550  1
  V  V15  1  0.03248618  0.97848046  0.26437709  1
  V  V16  1  0.10212721  0.27659615  0.66892266  1
  V  V17  1  0.87998876  0.55410536  0.28502813  1
  V  V18  1  0.98742172  0.56969103  0.96679433  1
  V  V19  1  0.58870954  0.09384828  0.90833291  1
  V  V20  1  0.88542192  0.23900344  0.83982681  1
  V  V21  1  0.55128779  0.97609847  0.62163335  1
  V  V22  1  0.44479351  0.44045182  0.19082835  1
  V  V23  1  0.24079588  0.41298917  0.96583587  1
  V  V24  1  0.90696860  0.37137992  0.47910357  1
  V  V25  1  0.34359287  0.66974682  0.32860717  1
  V  V26  1  0.62126628  0.26937239  0.22800731  1
  V  V27  1  0.35789196  0.97145912  0.96610812  1
  V  V28  1  0.65566152  0.45773153  0.78953105  1
  V  V29  1  0.87023345  0.34037837  0.09651323  1
  O  O0  1  0.08657676  0.64492385  0.63604900  1
  O  O1  1  0.71191159  0.58304645  0.84937383  1
  O  O2  1  0.21479548  0.28357771  0.93507328  1
  O  O3  1  0.22943790  0.92457558  0.61161026  1
  O  O4  1  0.01257962  0.28423861  0.78547223  1
  O  O5  1  0.35600233  0.52062306  0.28695493  1
  O  O6  1  0.11713891  0.49397016  0.01710653  1
  O  O7  1  0.38721595  0.64068334  0.95437188  1
  O  O8  1  0.80718800  0.31024987  0.41228181  1
  O  O9  1  0.32134667  0.23519794  0.24628042  1
  O  O10  1  0.42685233  0.09094662  0.59239096  1
  O  O11  1  0.14985002  0.23522504  0.38430786  1
  O  O12  1  0.68892198  0.82399047  0.88463336  1
  O  O13  1  0.50369867  0.66175996  0.75159863  1
  O  O14  1  0.32352293  0.02276142  0.83289373  1
  O  O15  1  0.20856654  0.89266988  0.96724520  1
  O  O16  1  0.76517198  0.33885355  0.81709077  1
  O  O17  1  0.33891640  0.42160711  0.08266310  1
  O  O18  1  0.20870466  0.90005300  0.51368355  1
  O  O19  1  0.47209508  0.84166686  0.62196094  1
  O  O20  1  0.63914275  0.46340461  0.65547774  1
  O  O21  1  0.28014569  0.48115297  0.84545892  1
  O  O22  1  0.39339571  0.25282314  0.75414663  1
  O  O23  1  0.41186857  0.68437716  0.46168694  1
  O  O24  1  0.58166758  0.23070929  0.90557673  1
  O  O25  1  0.73009221  0.05554154  0.97930299  1
  O  O26  1  0.99275236  0.99212090  0.38892765  1
  O  O27  1  0.70579822  0.96498232  0.66684528  1
  O  O28  1  0.21294896  0.53546726  0.48008708  1
  O  O29  1  0.47566531  0.06049053  0.99076817  1
  O  O30  1  0.99571405  0.30971287  0.18913167  1
  O  O31  1  0.09459219  0.82876708  0.76059921  1
  O  O32  1  0.43628513  0.84355025  0.98327015  1
  O  O33  1  0.05931429  0.71587129  0.96590439  1
  O  O34  1  0.61641170  0.69651147  0.04689414  1
  O  O35  1  0.85555282  0.69609796  0.55078866  1
  O  O36  1  0.81243292  0.70864192  0.26390028  1
  O  O37  1  0.89653722  0.45336326  0.00906249  1
  O  O38  1  0.75220288  0.57160210  0.39524639  1
  O  O39  1  0.18017887  0.01429131  0.26112370  1
  O  O40  1  0.88368388  0.75247633  0.77167500  1
  O  O41  1  0.00503090  0.26458413  0.55602171  1
  O  O42  1  0.98430293  0.59951451  0.20157188  1
  O  O43  1  0.81227228  0.46485961  0.20308522  1
  O  O44  1  0.93104222  0.90816772  0.60049133  1
  O  O45  1  0.38491107  0.76185446  0.20813164  1
  O  O46  1  0.51698672  0.45517294  0.83778548  1
  O  O47  1  0.20490284  0.16350145  0.67512268  1
  O  O48  1  0.52717504  0.04992649  0.77684481  1
  O  O49  1  0.56918839  0.39258462  0.29803950  1
  O  O50  1  0.62126549  0.66426207  0.56783908  1
  O  O51  1  0.16231382  0.40272754  0.65562128  1
  O  O52  1  0.21257453  0.72073340  0.33663599  1
  O  O53  1  0.92143411  0.06356958  0.17755662  1
  O  O54  1  0.84607778  0.46680391  0.58165666  1
  O  O55  1  0.31683428  0.01242608  0.10847028  1
  O  O56  1  0.96584218  0.46630018  0.38804968  1
  O  O57  1  0.97946145  0.54457267  0.83613093  1
  O  O58  1  0.90197126  0.21908843  0.98030467  1
  O  O59  1  0.80975103  0.11110581  0.54227252  1
  O  O60  1  0.01768395  0.83691241  0.21561539  1
  O  O61  1  0.52215410  0.92117524  0.23362885  1
  O  O62  1  0.50443421  0.55053158  0.13720095  1
  O  O63  1  0.86279481  0.11364319  0.77326442  1
  O  O64  1  0.09262795  0.24157860  0.15511093  1
  O  O65  1  0.51557632  0.29254217  0.12760656  1
  O  O66  1  0.38387055  0.02399889  0.35448352  1
  O  O67  1  0.59349282  0.95799040  0.46007952  1
  O  O68  1  0.85878482  0.68387401  0.01984983  1
  O  O69  1  0.74694089  0.26742069  0.15644077  1
  O  O70  1  0.60082439  0.14129082  0.30227972  1
  O  O71  1  0.96325882  0.94267860  0.98546019  1
  O  O72  1  0.80087049  0.88358997  0.12020075  1
  O  O73  1  0.04622934  0.94139493  0.79459163  1
  O  O74  1  0.33618659  0.59989924  0.66552147  1
loop_
_geom_bond_atom_site_label_1
_geom_bond_atom_site_label_2
_geom_bond_distance
_geom_bond_site_symmetry_2
O0 V11 1.718973 1_555
O0 V2 1.962755 1_455
O1 V0 1.801446 1_555
O1 V28 1.808287 1_555
O2 V23 1.623246 1_555
O4 V20 1.799589 1_455
O4 V16 1.803397 1_555
O5 V22 1.804060 1_555
O5 V25 1.820298 1_555
O6 V18 1.777224 1_454
O6 V23 1.798327 1_554
O7 V3 1.775780 1_556
O7 V6 1.862115 1_555
O8 V24 1.615735 1_555
O9 V14 1.660220 1_555
O10 V5 1.764223 1_555
O10 V21 1.920121 1_545
O11 V14 1.632155 1_555
O12 V0 1.614231 1_555
O13 V7 1.784614 1_555
O13 V6 1.923050 1_555
O14 V27 1.744592 1_545
O14 V5 1.957217 1_555
O15 V13 1.701150 1_555
O15 V27 2.071486 1_555
O16 V20 1.765595 1_555
O16 V28 1.833768 1_555
O17 V23 1.787877 1_554
O17 V22 1.788126 1_555
O18 O3 1.234679 1_555
O19 V7 1.705375 1_555
O19 V21 1.919819 1_555
O20 V28 1.626509 1_555
O21 V23 1.779400 1_555
O21 V6 1.883304 1_555
O22 V5 1.610223 1_555
O23 V25 1.777102 1_555
O23 V7 1.928277 1_555
O24 V19 1.611630 1_555
O25 V8 1.779330 1_546
O25 V19 1.852882 1_555
O26 V15 1.604726 1_655
O27 V4 1.752727 1_565
O27 V21 1.866921 1_555
O28 V11 1.612451 1_555
O29 V19 1.784370 1_555
O29 V27 1.832460 1_545
O30 O64 1.408741 1_655
O30 V29 1.818874 1_555
O31 O73 1.458392 1_555
O31 V13 1.943389 1_555
O31 V2 2.100798 1_455
O32 V27 1.701628 1_555
O32 V3 1.961274 1_556
O33 V13 1.761463 1_555
O33 V18 1.997450 1_455
O34 V3 1.797953 1_555
O34 V0 1.805491 1_554
O35 V12 1.681003 1_555
O35 V2 2.023583 1_555
O36 V1 1.736078 1_555
O36 V17 1.933719 1_555
O37 V29 1.775924 1_555
O37 V18 1.914467 1_554
O38 V12 1.684782 1_555
O38 V17 2.059292 1_555
O39 V15 1.834533 1_545
O39 V14 2.041201 1_555
O39 V9 2.213039 1_545
O40 V2 1.634671 1_555
O41 V16 1.749621 1_555
O41 V24 1.851483 1_455
O42 V17 1.760267 1_555
O42 V1 1.950101 1_555
O43 V17 1.669470 1_555
O43 V29 2.035245 1_555
O44 V4 1.754710 1_565
O44 V2 1.898344 1_555
O45 V25 1.942390 1_555
O45 V9 2.076285 1_555
O45 V3 2.100641 1_555
O46 V28 1.768625 1_555
O46 V6 1.856502 1_555
O47 V16 1.713255 1_555
O47 V5 1.967933 1_555
O48 V19 1.805824 1_555
O48 V21 2.083322 1_545
O48 V5 2.095133 1_555
O49 V26 1.750079 1_555
O49 V22 1.952481 1_555
O50 V7 1.765248 1_555
O50 V12 1.834437 1_555
O51 V16 1.725130 1_555
O51 V11 1.885484 1_555
O52 V25 1.609662 1_555
O53 V8 1.797383 1_545
O53 V15 1.858778 1_645
O54 V24 1.796699 1_555
O54 V12 1.845103 1_555
O55 V9 1.734931 1_545
O55 V27 1.860759 1_544
O56 V24 1.795244 1_555
O56 V17 1.831004 1_555
O57 V18 1.605831 1_555
O58 V20 1.719005 1_555
O58 V29 2.017817 1_556
O59 V4 1.617616 1_555
O60 V15 1.787888 1_555
O60 V1 1.840707 1_455
O61 V10 1.744565 1_565
O61 V9 1.971998 1_555
O62 V22 1.690641 1_555
O62 V3 1.989745 1_555
O63 V20 1.713872 1_555
O63 V4 1.950016 1_555
O64 V14 1.885500 1_555
O65 V26 1.699361 1_555
O65 V22 2.020632 1_555
O66 V10 1.786085 1_555
O66 V9 1.864195 1_545
O67 V10 1.683315 1_565
O67 V21 2.047894 1_555
O68 V0 1.834398 1_554
O68 V1 2.002592 1_555
O68 V18 2.052535 1_554
O69 V26 1.754194 1_555
O69 V29 1.938514 1_555
O70 V10 1.803323 1_555
O70 V26 1.813335 1_555
O71 V8 1.731812 1_556
O71 V13 1.875778 1_655
O72 V8 1.697720 1_555
O72 V1 1.985151 1_555
O73 V13 1.850816 1_555
O74 V11 1.866730 1_555
O74 V6 1.959298 1_555
O74 V7 2.282534 1_555
