# generated using pymatgen
data_Eu2MnSbO7
_symmetry_space_group_name_H-M   'P 1'
_cell_length_a   7.36832986
_cell_length_b   7.36832986
_cell_length_c   7.36832986
_cell_angle_alpha   119.95466806
_cell_angle_beta   119.73316385
_cell_angle_gamma   90.27066530
_symmetry_Int_Tables_number   1
_chemical_formula_structural   Eu2MnSbO7
_chemical_formula_sum   'Eu4 Mn2 Sb2 O14'
_cell_volume   283.53606040
_cell_formula_units_Z   2
loop_
 _symmetry_equiv_pos_site_id
 _symmetry_equiv_pos_as_xyz
  1  'x, y, z'
loop_
 _atom_site_type_symbol
 _atom_site_label
 _atom_site_symmetry_multiplicity
 _atom_site_fract_x
 _atom_site_fract_y
 _atom_site_fract_z
 _atom_site_occupancy
  Eu  Eu0  1  0.00000000  0.50000000  0.00000000  1
  Eu  Eu1  1  0.00000000  0.00000000  0.50000000  1
  Eu  Eu2  1  0.00000000  0.50000000  0.50000000  1
  Eu  Eu3  1  0.50000000  0.50000000  0.00000000  1
  Mn  Mn0  1  0.50000000  0.00000000  0.00000000  1
  Mn  Mn1  1  0.50000000  0.50000000  0.50000000  1
  Sb  Sb0  1  0.50000000  0.00000000  0.50000000  1
  Sb  Sb1  1  0.00000000  0.00000000  0.00000000  1
  O  O0  1  0.82718600  0.07718600  0.75000000  1
  O  O1  1  0.42517000  0.67517000  0.75000000  1
  O  O2  1  0.82486100  0.67368200  0.74932800  1
  O  O3  1  0.42435400  0.07553300  0.75067200  1
  O  O4  1  0.82486100  0.07553300  0.15118000  1
  O  O5  1  0.42435400  0.67368200  0.34882000  1
  O  O6  1  0.17281400  0.92281400  0.25000000  1
  O  O7  1  0.57483000  0.32483000  0.25000000  1
  O  O8  1  0.17513900  0.32631800  0.25067200  1
  O  O9  1  0.57564600  0.92446700  0.24932800  1
  O  O10  1  0.17513900  0.92446700  0.84882000  1
  O  O11  1  0.57564600  0.32631800  0.65118000  1
  O  O12  1  0.87543000  0.62543000  0.25000000  1
  O  O13  1  0.12457000  0.37457000  0.75000000  1
loop_
_geom_bond_atom_site_label_1
_geom_bond_atom_site_label_2
_geom_bond_distance
_geom_bond_site_symmetry_2
Eu0 O12 2.252763 1_455
Eu0 O13 2.252763 1_554
Eu0 O6 2.573994 1_555
Eu0 O0 2.573994 1_454
Eu0 O5 2.593532 1_555
Eu0 O11 2.593532 1_454
Eu0 O8 2.593533 1_555
Eu0 O2 2.593533 1_454
Eu1 O12 2.252763 1_445
Eu1 O13 2.252763 1_555
Eu1 O6 2.573994 1_545
Eu1 O0 2.573994 1_455
Eu1 O4 2.593527 1_455
Eu1 O10 2.593527 1_545
Eu1 O3 2.593533 1_555
Eu1 O9 2.593533 1_445
Eu2 O13 2.262948 1_555
Eu2 O12 2.262948 1_455
Eu2 O10 2.587960 1_555
Eu2 O4 2.587960 1_455
Eu2 O2 2.587961 1_455
Eu2 O8 2.587961 1_555
Eu2 O7 2.595535 1_455
Eu2 O1 2.595535 1_555
Eu3 O13 2.262948 1_554
Eu3 O12 2.262948 1_555
Eu3 O11 2.587955 1_554
Eu3 O5 2.587955 1_555
Eu3 O9 2.587961 1_555
Eu3 O3 2.587961 1_554
Eu3 O7 2.595535 1_555
Eu3 O1 2.595535 1_554
Mn0 O7 2.000767 1_555
Mn0 O1 2.000767 1_544
Mn0 O4 2.000936 1_555
Mn0 O10 2.000936 1_544
Mn0 O3 2.000937 1_554
Mn0 O9 2.000937 1_545
Mn1 O1 2.000767 1_555
Mn1 O7 2.000767 1_555
Mn1 O8 2.000937 1_555
Mn1 O2 2.000937 1_555
Mn1 O5 2.000942 1_555
Mn1 O11 2.000942 1_555
O0 Sb1 2.016068 1_656
O0 Sb0 2.016068 1_555
O2 Sb1 2.007368 1_666
O3 Sb0 2.007368 1_555
O4 Sb1 2.007373 1_655
O5 Sb0 2.007366 1_565
O6 Sb0 2.016068 1_565
O6 Sb1 2.016068 1_565
O8 Sb1 2.007368 1_555
O9 Sb0 2.007368 1_565
O10 Sb1 2.007373 1_566
O11 Sb0 2.007366 1_555
