# generated using pymatgen
data_NaCrNO6
_symmetry_space_group_name_H-M   'P 1'
_cell_length_a   7.95398700
_cell_length_b   7.42898200
_cell_length_c   10.27080300
_cell_angle_alpha   90.00000000
_cell_angle_beta   90.00000000
_cell_angle_gamma   90.00000000
_symmetry_Int_Tables_number   1
_chemical_formula_structural   NaCrNO6
_chemical_formula_sum   'Na4 Cr4 N4 O24'
_cell_volume   606.90201889
_cell_formula_units_Z   4
loop_
 _symmetry_equiv_pos_site_id
 _symmetry_equiv_pos_as_xyz
  1  'x, y, z'
loop_
 _atom_site_type_symbol
 _atom_site_label
 _atom_site_symmetry_multiplicity
 _atom_site_fract_x
 _atom_site_fract_y
 _atom_site_fract_z
 _atom_site_occupancy
  Na  Na0  1  0.58858200  0.65517300  0.03556900  1
  Na  Na1  1  0.08858200  0.84482700  0.96443100  1
  Na  Na2  1  0.41141800  0.15517300  0.46443100  1
  Na  Na3  1  0.91141800  0.34482700  0.53556900  1
  Cr  Cr0  1  0.11341400  0.86991500  0.64786500  1
  Cr  Cr1  1  0.61341400  0.63008500  0.35213500  1
  Cr  Cr2  1  0.88658600  0.36991500  0.85213500  1
  Cr  Cr3  1  0.38658600  0.13008500  0.14786500  1
  N  N0  1  0.10769400  0.83218500  0.28854700  1
  N  N1  1  0.60769400  0.66781500  0.71145300  1
  N  N2  1  0.89230600  0.33218500  0.21145300  1
  N  N3  1  0.39230600  0.16781500  0.78854700  1
  O  O0  1  0.27974700  0.83509000  0.73509500  1
  O  O1  1  0.77974700  0.66491000  0.26490500  1
  O  O2  1  0.72025300  0.33509000  0.76490500  1
  O  O3  1  0.22025300  0.16491000  0.23509500  1
  O  O4  1  0.95167500  0.88903100  0.74292100  1
  O  O5  1  0.45167500  0.61096900  0.25707900  1
  O  O6  1  0.04832500  0.38903100  0.75707900  1
  O  O7  1  0.54832500  0.11096900  0.24292100  1
  O  O8  1  0.07389600  0.66471000  0.54882000  1
  O  O9  1  0.57389600  0.83529000  0.45118000  1
  O  O10  1  0.92610400  0.16471000  0.95118000  1
  O  O11  1  0.42610400  0.33529000  0.04882000  1
  O  O12  1  0.36197700  0.95327100  0.05314700  1
  O  O13  1  0.86197700  0.54672900  0.94685300  1
  O  O14  1  0.63802300  0.45327100  0.44685300  1
  O  O15  1  0.13802300  0.04672900  0.55314700  1
  O  O16  1  0.79030900  0.91941100  0.03618100  1
  O  O17  1  0.29030900  0.58058900  0.96381900  1
  O  O18  1  0.20969100  0.41941100  0.46381900  1
  O  O19  1  0.70969100  0.08058900  0.53618100  1
  O  O20  1  0.76009900  0.07328600  0.98830700  1
  O  O21  1  0.26009900  0.42671400  0.01169300  1
  O  O22  1  0.23990100  0.57328600  0.51169300  1
  O  O23  1  0.73990100  0.92671400  0.48830700  1
loop_
_geom_bond_atom_site_label_1
_geom_bond_atom_site_label_2
_geom_bond_distance
_geom_bond_site_symmetry_2
Na0 O13 2.491605 1_554
Na0 O16 2.535353 1_555
Na0 O5 2.543557 1_555
Na0 O17 2.545317 1_554
Na0 O11 2.708503 1_555
Na0 O1 2.804539 1_555
Na0 O12 2.861046 1_555
Na1 O12 2.491605 1_556
Na1 O17 2.535353 1_555
Na1 O4 2.543557 1_455
Na1 O16 2.545317 1_456
Na1 O10 2.708503 1_465
Na1 O0 2.804539 1_555
Na1 O13 2.861046 1_455
Na2 O15 2.491605 1_555
Na2 O18 2.535353 1_555
Na2 O7 2.543557 1_555
Na2 O19 2.545317 1_555
Na2 O9 2.708503 1_545
Na2 O3 2.804539 1_555
Na2 O14 2.861046 1_555
Na3 O14 2.491605 1_555
Na3 O19 2.535353 1_555
Na3 O6 2.543557 1_655
Na3 O18 2.545317 1_655
Na3 O8 2.708503 1_655
Na3 O2 2.804539 1_555
Na3 O15 2.861046 1_655
Cr0 O0 1.618631 1_555
Cr0 O4 1.621215 1_455
Cr0 O15 1.646244 1_565
Cr0 O8 1.859471 1_555
Cr1 O1 1.618631 1_555
Cr1 O5 1.621215 1_555
Cr1 O14 1.646244 1_555
Cr1 O9 1.859471 1_555
Cr2 O2 1.618631 1_555
Cr2 O6 1.621215 1_655
Cr2 O13 1.646244 1_555
Cr2 O10 1.859471 1_555
Cr3 O3 1.618631 1_555
Cr3 O7 1.621215 1_555
Cr3 O12 1.646244 1_545
Cr3 O11 1.859471 1_555
O10 O20 1.533024 1_555
O11 O21 1.533024 1_555
O16 O20 1.267387 1_564
O17 O21 1.267387 1_556
O18 O22 1.267387 1_555
O19 O23 1.267387 1_545
O22 O8 1.533024 1_555
O23 O9 1.533024 1_555
