# generated using pymatgen
data_Tm2Si9B36C
_symmetry_space_group_name_H-M   'P 1'
_cell_length_a   8.02956471
_cell_length_b   8.02956471
_cell_length_c   7.99483830
_cell_angle_alpha   78.04090195
_cell_angle_beta   78.04090195
_cell_angle_gamma   78.01307905
_symmetry_Int_Tables_number   1
_chemical_formula_structural   Tm2Si9B36C
_chemical_formula_sum   'Tm2 Si9 B36 C1'
_cell_volume   485.96171467
_cell_formula_units_Z   1
loop_
 _symmetry_equiv_pos_site_id
 _symmetry_equiv_pos_as_xyz
  1  'x, y, z'
loop_
 _atom_site_type_symbol
 _atom_site_label
 _atom_site_symmetry_multiplicity
 _atom_site_fract_x
 _atom_site_fract_y
 _atom_site_fract_z
 _atom_site_occupancy
  Tm  Tm0  1  0.49974800  0.99982900  0.49966900  1
  Tm  Tm1  1  0.99982900  0.49974800  0.49966900  1
  Si  Si0  1  0.34430100  0.73379800  0.74531700  1
  Si  Si1  1  0.73741600  0.73741600  0.33856400  1
  Si  Si2  1  0.73379800  0.34430100  0.74531700  1
  Si  Si3  1  0.65442500  0.26614400  0.25485700  1
  Si  Si4  1  0.26286500  0.26286500  0.65974400  1
  Si  Si5  1  0.26614400  0.65442500  0.25485700  1
  Si  Si6  1  0.57168400  0.57168400  0.57300000  1
  Si  Si7  1  0.42973700  0.42973700  0.42807000  1
  Si  Si8  1  0.95536300  0.95536300  0.95725500  1
  B  B0  1  0.79864300  0.62591300  0.98087000  1
  B  B1  1  0.62536500  0.98122300  0.80285700  1
  B  B2  1  0.98220200  0.80195000  0.62592000  1
  B  B3  1  0.80195000  0.98220200  0.62592000  1
  B  B4  1  0.98122300  0.62536500  0.80285700  1
  B  B5  1  0.62591300  0.79864300  0.98087000  1
  B  B6  1  0.20419600  0.37181500  0.02232500  1
  B  B7  1  0.37201100  0.02176700  0.20055100  1
  B  B8  1  0.02080100  0.20132100  0.37171700  1
  B  B9  1  0.20132100  0.02080100  0.37171700  1
  B  B10  1  0.02176700  0.37201100  0.20055100  1
  B  B11  1  0.37181500  0.20419600  0.02232500  1
  B  B12  1  0.99397400  0.70347300  0.99416800  1
  B  B13  1  0.70347300  0.99397400  0.99416800  1
  B  B14  1  0.99438900  0.99438900  0.70491900  1
  B  B15  1  0.01799000  0.27685100  0.01766200  1
  B  B16  1  0.27685100  0.01799000  0.01766200  1
  B  B17  1  0.01773600  0.01773600  0.27491000  1
  B  B18  1  0.89281800  0.57907900  0.17653800  1
  B  B19  1  0.58011100  0.17988800  0.89342700  1
  B  B20  1  0.18070500  0.89097700  0.58117800  1
  B  B21  1  0.89097700  0.18070500  0.58117800  1
  B  B22  1  0.17988800  0.58011100  0.89342700  1
  B  B23  1  0.57907900  0.89281800  0.17653800  1
  B  B24  1  0.10823700  0.41251900  0.82799600  1
  B  B25  1  0.41157900  0.82470500  0.10757700  1
  B  B26  1  0.82353100  0.11010200  0.41068800  1
  B  B27  1  0.11010200  0.82353100  0.41068800  1
  B  B28  1  0.82470500  0.41157900  0.10757700  1
  B  B29  1  0.41251900  0.10823700  0.82799600  1
  B  B30  1  0.12600300  0.55430500  0.12583100  1
  B  B31  1  0.55430500  0.12600300  0.12583100  1
  B  B32  1  0.12569800  0.12569800  0.55517500  1
  B  B33  1  0.87772100  0.43733500  0.87780400  1
  B  B34  1  0.43733500  0.87772100  0.87780400  1
  B  B35  1  0.87814000  0.87814000  0.43625800  1
  C  C0  1  0.06778000  0.06778000  0.06646300  1
loop_
_geom_bond_atom_site_label_1
_geom_bond_atom_site_label_2
_geom_bond_distance
_geom_bond_site_symmetry_2
Si0 Si6 2.374748 1_555
Si0 Tm0 2.886330 1_555
Si1 Si6 2.392280 1_555
Si1 Tm0 2.859434 1_555
Si1 Tm1 2.859434 1_555
Si2 Si6 2.374748 1_555
Si2 Tm1 2.886330 1_555
Si3 Si7 2.373226 1_555
Si3 Tm0 2.882235 1_545
Si4 Si7 2.389575 1_555
Si4 Tm1 2.856429 1_455
Si4 Tm0 2.856429 1_545
Si5 Si7 2.373226 1_555
Si5 Tm1 2.882235 1_455
Si6 Si7 2.361135 1_555
Si6 Tm1 3.313032 1_555
Si6 Tm0 3.313032 1_555
Si7 Tm0 3.326892 1_545
Si7 Tm1 3.326892 1_455
B0 B5 1.745914 1_555
B0 B28 1.802106 1_556
B0 B33 1.809924 1_555
B0 B18 1.813475 1_556
B0 B4 1.819335 1_555
B0 B12 1.833404 1_555
B1 B3 1.783350 1_555
B1 B29 1.794436 1_565
B1 B13 1.797864 1_555
B1 B34 1.808071 1_555
B1 B5 1.819335 1_555
B1 B19 1.824793 1_565
B1 Tm0 2.777722 1_555
B2 B4 1.783350 1_555
B2 B27 1.806562 1_655
B2 B35 1.816582 1_555
B2 B20 1.819472 1_655
B2 B3 1.821944 1_555
B2 Tm1 2.782113 1_555
B3 B35 1.816582 1_555
B3 Tm0 2.782113 1_555
B4 Tm1 2.777722 1_555
B7 B9 1.724498 1_555
B7 Tm0 2.751128 1_545
B8 B9 1.824653 1_555
B8 Tm1 2.755652 1_455
B9 Tm0 2.755652 1_545
B10 B8 1.724498 1_555
B10 B18 1.763062 1_455
B10 B30 1.771782 1_555
B10 B15 1.792682 1_555
B10 B6 1.819615 1_555
B10 B28 1.827002 1_455
B10 Tm1 2.751128 1_455
B11 B6 1.694253 1_555
B11 B19 1.769428 1_554
B11 B31 1.769515 1_555
B11 B29 1.815304 1_554
B11 B7 1.819615 1_555
B11 B16 1.823939 1_555
B12 B18 1.739505 1_556
B12 B22 1.753988 1_655
B12 B30 1.754722 1_656
B12 B4 1.797864 1_555
B12 Si8 1.950404 1_555
B13 B23 1.739505 1_556
B13 B19 1.753988 1_565
B13 B31 1.754722 1_566
B13 B5 1.833404 1_555
B13 Si8 1.950404 1_555
B14 B32 1.752741 1_665
B14 B20 1.765612 1_655
B14 B21 1.765612 1_565
B14 B3 1.813558 1_555
B14 B2 1.813558 1_555
B14 Si8 1.945005 1_555
B15 C0 1.626247 1_555
B15 B24 1.788594 1_554
B15 B28 1.805068 1_455
B15 B6 1.823939 1_555
B15 B33 1.871161 1_454
B16 C0 1.626247 1_555
B16 B29 1.788594 1_554
B16 B7 1.792682 1_555
B16 B25 1.805068 1_545
B16 B34 1.871161 1_544
B17 C0 1.616226 1_555
B17 B9 1.807868 1_555
B17 B8 1.807868 1_555
B17 B26 1.819842 1_455
B17 B27 1.819842 1_545
B17 B35 1.870890 1_445
B18 B28 1.774765 1_555
B18 B30 1.809375 1_655
B18 Si1 2.050634 1_555
B18 Tm1 2.797951 1_555
B19 B29 1.775831 1_555
B19 B31 1.796370 1_556
B19 Si2 2.022647 1_555
B20 B9 1.775308 1_565
B20 B27 1.796173 1_555
B20 B32 1.822175 1_565
B20 Si0 2.092802 1_555
B20 Tm0 2.784504 1_555
B21 B8 1.775308 1_655
B21 B26 1.796173 1_555
B21 B3 1.819472 1_545
B21 B32 1.822175 1_655
B21 Si2 2.092802 1_555
B21 Tm1 2.784504 1_555
B22 B6 1.769428 1_556
B22 B24 1.775831 1_555
B22 B30 1.796370 1_556
B22 B4 1.824793 1_455
B22 Si0 2.022647 1_555
B23 B7 1.763062 1_565
B23 B25 1.774765 1_555
B23 B31 1.809375 1_565
B23 B5 1.813475 1_554
B23 Si1 2.050634 1_555
B23 Tm0 2.797951 1_555
B24 B33 1.788433 1_455
B24 B4 1.794436 1_455
B24 B6 1.815304 1_556
B24 Si4 2.037882 1_555
B24 Tm1 2.840818 1_455
B25 B34 1.775835 1_554
B25 B5 1.802106 1_554
B25 B7 1.827002 1_565
B25 Si5 2.011411 1_555
B26 B35 1.800911 1_545
B26 B3 1.806562 1_545
B26 B8 1.823568 1_655
B26 Si3 2.076832 1_555
B26 Tm0 2.824520 1_545
B27 B35 1.800911 1_455
B27 B9 1.823568 1_565
B27 Si5 2.076832 1_555
B27 Tm1 2.824520 1_455
B28 B33 1.775835 1_554
B28 Si3 2.011411 1_555
B29 B34 1.788433 1_545
B29 Si4 2.037882 1_555
B29 Tm0 2.840818 1_545
B30 B6 1.769515 1_555
B30 Si5 2.043793 1_555
B30 Tm1 2.921979 1_455
B31 B7 1.771782 1_555
B31 Si3 2.043793 1_555
B31 Tm0 2.921979 1_545
B32 B8 1.777594 1_555
B32 B9 1.777594 1_555
B32 Si4 2.095736 1_555
B32 Tm1 2.934583 1_455
B32 Tm0 2.934583 1_545
B33 B4 1.808071 1_555
B33 Si2 2.051650 1_555
B33 Tm1 2.949510 1_555
B34 B5 1.809924 1_555
B34 Si0 2.051650 1_555
B34 Tm0 2.949510 1_555
B35 Si1 2.103681 1_555
B35 Tm0 2.962590 1_555
B35 Tm1 2.962590 1_555
C0 Si8 1.839448 1_444
