# generated using pymatgen
data_Sb2PS2O13
_symmetry_space_group_name_H-M   'P 1'
_cell_length_a   5.20230800
_cell_length_b   8.29907954
_cell_length_c   13.00621449
_cell_angle_alpha   82.89239645
_cell_angle_beta   87.89592210
_cell_angle_gamma   86.71729814
_symmetry_Int_Tables_number   1
_chemical_formula_structural   Sb2PS2O13
_chemical_formula_sum   'Sb4 P2 S4 O26'
_cell_volume   556.05681192
_cell_formula_units_Z   2
loop_
 _symmetry_equiv_pos_site_id
 _symmetry_equiv_pos_as_xyz
  1  'x, y, z'
loop_
 _atom_site_type_symbol
 _atom_site_label
 _atom_site_symmetry_multiplicity
 _atom_site_fract_x
 _atom_site_fract_y
 _atom_site_fract_z
 _atom_site_occupancy
  Sb  Sb0  1  0.28529400  0.24154000  0.45780000  1
  Sb  Sb1  1  0.71470600  0.75846000  0.54220000  1
  Sb  Sb2  1  0.29723600  0.20684000  0.82419800  1
  Sb  Sb3  1  0.70276400  0.79316000  0.17580200  1
  P  P0  1  0.22998600  0.53091700  0.63999000  1
  P  P1  1  0.77001400  0.46908300  0.36001000  1
  S  S0  1  0.79403300  0.10312300  0.65760800  1
  S  S1  1  0.20596700  0.89687700  0.34239200  1
  S  S2  1  0.75133400  0.20671000  0.97104300  1
  S  S3  1  0.24866600  0.79329000  0.02895700  1
  O  O0  1  0.46849900  0.63328900  0.64187100  1
  O  O1  1  0.53150100  0.36671100  0.35812900  1
  O  O2  1  0.98260100  0.64379900  0.63770100  1
  O  O3  1  0.01739900  0.35620100  0.36229900  1
  O  O4  1  0.20808000  0.42452500  0.74678300  1
  O  O5  1  0.79192000  0.57547500  0.25321700  1
  O  O6  1  0.63813900  0.22226000  0.71826200  1
  O  O7  1  0.36186100  0.77774000  0.28173800  1
  O  O8  1  0.72914900  0.21488500  0.08197400  1
  O  O9  1  0.27085100  0.78511500  0.91802600  1
  O  O10  1  0.74280100  0.04680500  0.93603200  1
  O  O11  1  0.25719900  0.95319500  0.06396800  1
  O  O12  1  0.07037300  0.10273600  0.68740000  1
  O  O13  1  0.92962700  0.89726400  0.31260000  1
  O  O14  1  0.53234500  0.31982300  0.91720300  1
  O  O15  1  0.46765500  0.68017700  0.08279700  1
  O  O16  1  0.24984800  0.43227200  0.54792900  1
  O  O17  1  0.75015200  0.56772800  0.45207100  1
  O  O18  1  0.78166300  0.16570100  0.54543900  1
  O  O19  1  0.21833700  0.83429900  0.45456100  1
  O  O20  1  0.00049400  0.28691800  0.93013600  1
  O  O21  1  0.99950600  0.71308200  0.06986400  1
  O  O22  1  0.68765500  0.94130200  0.67990700  1
  O  O23  1  0.31234500  0.05869800  0.32009300  1
  O  O24  1  0.78160100  0.66987500  0.85639300  1
  O  O25  1  0.21839900  0.33012500  0.14360700  1
loop_
_geom_bond_atom_site_label_1
_geom_bond_atom_site_label_2
_geom_bond_distance
_geom_bond_site_symmetry_2
O0 P0 1.546008 1_555
O0 Sb1 2.024201 1_555
O1 P1 1.546008 1_555
O1 Sb0 2.024201 1_555
O2 P0 1.546818 1_655
O2 Sb1 2.018264 1_555
O3 P1 1.546818 1_455
O3 Sb0 2.018264 1_555
O4 P0 1.555073 1_555
O4 Sb2 1.995210 1_555
O5 P1 1.555073 1_555
O5 Sb3 1.995210 1_555
O6 S0 1.520478 1_555
O6 Sb2 2.205210 1_555
O7 S1 1.520478 1_555
O7 Sb3 2.205210 1_555
O8 S2 1.452815 1_554
O9 S3 1.452815 1_556
O10 S2 1.458834 1_555
O11 S3 1.458834 1_555
O12 S0 1.502308 1_455
O12 Sb2 2.440563 1_555
O13 S1 1.502308 1_655
O13 Sb3 2.440563 1_555
O14 S2 1.562975 1_555
O14 Sb2 2.087845 1_555
O15 S3 1.562975 1_555
O15 Sb3 2.087845 1_555
O16 P0 1.529174 1_555
O16 Sb0 2.079326 1_555
O17 P1 1.529174 1_555
O17 Sb1 2.079326 1_555
O18 S0 1.489227 1_555
O19 S1 1.489227 1_555
O20 S2 1.538457 1_455
O20 Sb2 2.162451 1_555
O21 S3 1.538457 1_655
O21 Sb3 2.162451 1_555
O22 S0 1.473390 1_565
O22 Sb1 2.481896 1_555
O23 S1 1.473390 1_545
O23 Sb0 2.481896 1_555
