# generated using pymatgen
data_PrZn(FeO3)2
_symmetry_space_group_name_H-M   'P 1'
_cell_length_a   5.32575200
_cell_length_b   5.48107300
_cell_length_c   7.73348800
_cell_angle_alpha   90.00000000
_cell_angle_beta   90.00000000
_cell_angle_gamma   90.00000000
_symmetry_Int_Tables_number   1
_chemical_formula_structural   PrZn(FeO3)2
_chemical_formula_sum   'Pr2 Zn2 Fe4 O12'
_cell_volume   225.74697599
_cell_formula_units_Z   2
loop_
 _symmetry_equiv_pos_site_id
 _symmetry_equiv_pos_as_xyz
  1  'x, y, z'
loop_
 _atom_site_type_symbol
 _atom_site_label
 _atom_site_symmetry_multiplicity
 _atom_site_fract_x
 _atom_site_fract_y
 _atom_site_fract_z
 _atom_site_occupancy
  Pr  Pr0  1  0.01113000  0.70861400  0.00000000  1
  Pr  Pr1  1  0.51113000  0.29138600  0.50000000  1
  Zn  Zn0  1  0.48587300  0.22199400  0.00000000  1
  Zn  Zn1  1  0.98587300  0.77800600  0.50000000  1
  Fe  Fe0  1  0.99998000  0.24401800  0.75014600  1
  Fe  Fe1  1  0.99998000  0.24401800  0.24985400  1
  Fe  Fe2  1  0.49998000  0.75598200  0.25014600  1
  Fe  Fe3  1  0.49998000  0.75598200  0.74985400  1
  O  O0  1  0.07906400  0.21072400  0.50000000  1
  O  O1  1  0.22026500  0.97191700  0.80306700  1
  O  O2  1  0.22026500  0.97191700  0.19693300  1
  O  O3  1  0.30753900  0.44586700  0.19132800  1
  O  O4  1  0.30753900  0.44586700  0.80867200  1
  O  O5  1  0.36840500  0.72679000  0.50000000  1
  O  O6  1  0.57906400  0.78927600  0.00000000  1
  O  O7  1  0.72026500  0.02808300  0.69693300  1
  O  O8  1  0.72026500  0.02808300  0.30306700  1
  O  O9  1  0.80753900  0.55413300  0.69132800  1
  O  O10  1  0.80753900  0.55413300  0.30867200  1
  O  O11  1  0.86840500  0.27321000  0.00000000  1
loop_
_geom_bond_atom_site_label_1
_geom_bond_atom_site_label_2
_geom_bond_distance
_geom_bond_site_symmetry_2
Fe0 O1 1.941171 1_645
Fe0 O7 1.946622 1_555
Fe0 O0 1.988213 1_655
Fe0 O4 2.027770 1_655
Fe0 O9 2.036297 1_555
Fe0 O11 2.061600 1_556
Fe1 O2 1.941171 1_645
Fe1 O8 1.946622 1_555
Fe1 O0 1.988213 1_655
Fe1 O3 2.027770 1_655
Fe1 O10 2.036297 1_555
Fe1 O11 2.061600 1_555
Fe2 O8 1.941171 1_565
Fe2 O2 1.946622 1_555
Fe2 O6 1.988213 1_555
Fe2 O10 2.027770 1_555
Fe2 O3 2.036297 1_555
Fe2 O5 2.061600 1_555
Fe3 O7 1.941171 1_565
Fe3 O1 1.946622 1_555
Fe3 O6 1.988213 1_556
Fe3 O9 2.027770 1_555
Fe3 O4 2.036297 1_555
Fe3 O5 2.061600 1_555
O0 Pr1 2.343164 1_555
O0 Zn1 2.423131 1_445
O1 Pr0 2.375457 1_556
O1 Zn0 2.489828 1_566
O2 Pr0 2.375457 1_555
O2 Zn0 2.489828 1_565
O3 Zn0 2.144073 1_555
O3 Pr0 2.599093 1_555
O3 Pr1 2.755157 1_555
O4 Zn0 2.144073 1_556
O4 Pr0 2.599093 1_556
O4 Pr1 2.755157 1_555
O5 Zn1 2.056520 1_455
O5 Pr1 2.504610 1_555
O6 Pr0 2.343164 1_655
O6 Zn0 2.423131 1_565
O7 Pr1 2.375457 1_555
O7 Zn1 2.489828 1_545
O8 Pr1 2.375457 1_555
O8 Zn1 2.489828 1_545
O9 Zn1 2.144073 1_555
O9 Pr1 2.599093 1_555
O9 Pr0 2.755157 1_656
O10 Zn1 2.144073 1_555
O10 Pr1 2.599093 1_555
O10 Pr0 2.755157 1_655
O11 Zn0 2.056520 1_555
O11 Pr0 2.504610 1_655
