# generated using pymatgen
data_Nd3(AgGe)4
_symmetry_space_group_name_H-M   'P 1'
_cell_length_a   4.43723750
_cell_length_b   7.13190142
_cell_length_c   8.49859602
_cell_angle_alpha   114.80239293
_cell_angle_beta   105.13157463
_cell_angle_gamma   89.99925552
_symmetry_Int_Tables_number   1
_chemical_formula_structural   Nd3(AgGe)4
_chemical_formula_sum   'Nd3 Ag4 Ge4'
_cell_volume   233.82705360
_cell_formula_units_Z   1
loop_
 _symmetry_equiv_pos_site_id
 _symmetry_equiv_pos_as_xyz
  1  'x, y, z'
loop_
 _atom_site_type_symbol
 _atom_site_label
 _atom_site_symmetry_multiplicity
 _atom_site_fract_x
 _atom_site_fract_y
 _atom_site_fract_z
 _atom_site_occupancy
  Nd  Nd0  1  0.87097395  0.37111113  0.74190336  1
  Nd  Nd1  1  0.12902599  0.62888869  0.25809600  1
  Nd  Nd2  1  0.00000001  0.00000007  -0.00000008  1
  Ag  Ag0  1  0.33212064  0.63738201  0.66389561  1
  Ag  Ag1  1  0.66787881  0.36261830  0.33610429  1
  Ag  Ag2  1  0.33171143  0.02651481  0.66398254  1
  Ag  Ag3  1  0.66828826  0.97348504  0.33601750  1
  Ge  Ge0  1  0.21651454  0.21652640  0.43294850  1
  Ge  Ge1  1  0.78348537  0.78347359  0.56705153  1
  Ge  Ge2  1  0.50021925  0.68075597  0.99990320  1
  Ge  Ge3  1  0.49978075  0.31924399  0.00009654  1
loop_
_geom_bond_atom_site_label_1
_geom_bond_atom_site_label_2
_geom_bond_distance
_geom_bond_site_symmetry_2
Ag0 Ge2 2.636922 1_555
Ag0 Ge1 2.711884 1_555
Ag0 Ge1 2.713438 1_455
Ag0 Ge0 2.767004 1_555
Ag0 Ag2 2.774948 1_565
Ag0 Nd0 3.160906 1_555
Ag0 Nd0 3.161859 1_455
Ag0 Nd1 3.303284 1_555
Ag0 Nd2 3.607356 1_666
Ag0 Nd2 3.608185 1_566
Ag1 Ge3 2.636922 1_555
Ag1 Ge0 2.711885 1_555
Ag1 Ge0 2.713441 1_655
Ag1 Ge1 2.767002 1_555
Ag1 Ag3 2.774951 1_545
Ag1 Nd1 3.160903 1_555
Ag1 Nd1 3.161861 1_655
Ag1 Nd0 3.303281 1_555
Ag1 Nd2 3.607355 1_555
Ag1 Nd2 3.608188 1_655
Ag2 Ge3 2.637968 1_556
Ag2 Ge1 2.712310 1_445
Ag2 Ge1 2.713983 1_545
Ag2 Ge0 2.767894 1_555
Ag2 Nd0 3.162165 1_455
Ag2 Nd0 3.164109 1_555
Ag2 Nd1 3.305003 1_545
Ag2 Nd2 3.606180 1_556
Ag2 Nd2 3.607777 1_656
Ag3 Ge2 2.637970 1_554
Ag3 Ge0 2.712311 1_665
Ag3 Ge0 2.713983 1_565
Ag3 Ge1 2.767894 1_555
Ag3 Nd1 3.162166 1_655
Ag3 Nd1 3.164107 1_555
Ag3 Nd0 3.304999 1_565
Ag3 Nd2 3.606183 1_665
Ag3 Nd2 3.607778 1_565
Ge0 Nd0 3.183314 1_555
Ge0 Nd0 3.183330 1_455
Ge0 Nd2 3.198991 1_555
Ge1 Nd1 3.183316 1_555
Ge1 Nd1 3.183335 1_655
Ge1 Nd2 3.198990 1_666
Ge2 Ge3 2.578959 1_556
Ge2 Nd2 3.177965 1_666
Ge2 Nd2 3.179581 1_566
Ge2 Nd0 3.195559 1_555
Ge2 Nd1 3.197082 1_656
Ge2 Nd0 3.197173 1_455
Ge2 Nd1 3.198809 1_556
Ge3 Nd2 3.177964 1_555
Ge3 Nd2 3.179580 1_655
Ge3 Nd1 3.195557 1_555
Ge3 Nd0 3.197083 1_454
Ge3 Nd1 3.197172 1_655
Ge3 Nd0 3.198811 1_554
