# generated using pymatgen
data_Na3H5(SeO4)4
_symmetry_space_group_name_H-M   'P 1'
_cell_length_a   5.98735200
_cell_length_b   7.41668727
_cell_length_c   9.06492379
_cell_angle_alpha   104.97647216
_cell_angle_beta   92.62596656
_cell_angle_gamma   105.66526524
_symmetry_Int_Tables_number   1
_chemical_formula_structural   Na3H5(SeO4)4
_chemical_formula_sum   'Na3 H5 Se4 O16'
_cell_volume   371.51963539
_cell_formula_units_Z   1
loop_
 _symmetry_equiv_pos_site_id
 _symmetry_equiv_pos_as_xyz
  1  'x, y, z'
loop_
 _atom_site_type_symbol
 _atom_site_label
 _atom_site_symmetry_multiplicity
 _atom_site_fract_x
 _atom_site_fract_y
 _atom_site_fract_z
 _atom_site_occupancy
  Na  Na0  1  0.80680800  0.63292200  0.08738600  1
  Na  Na1  1  0.19685000  0.37220400  0.92444700  1
  Na  Na2  1  0.98275900  0.99180700  0.49427400  1
  H  H0  1  0.41314700  0.11872200  0.14629300  1
  H  H1  1  0.58529000  0.88239100  0.85664800  1
  H  H2  1  0.85247000  0.61982000  0.61899500  1
  H  H3  1  0.15671600  0.39039000  0.38203500  1
  H  H4  1  0.48824400  0.02894600  0.51364200  1
  Se  Se0  1  0.67054100  0.33662600  0.67928700  1
  Se  Se1  1  0.33628300  0.67877000  0.32920700  1
  Se  Se2  1  0.79758400  0.14380800  0.15713900  1
  Se  Se3  1  0.20106400  0.85505000  0.84127600  1
  O  O0  1  0.88146400  0.32451600  0.07837900  1
  O  O1  1  0.11323600  0.67225200  0.91709600  1
  O  O2  1  0.98107400  0.17055300  0.30945400  1
  O  O3  1  0.01845000  0.82896500  0.68782200  1
  O  O4  1  0.53737700  0.15610100  0.23670100  1
  O  O5  1  0.46306300  0.84549700  0.76439500  1
  O  O6  1  0.43144300  0.15269600  0.57278300  1
  O  O7  1  0.55746400  0.86325200  0.43874300  1
  O  O8  1  0.73886000  0.92419200  0.03206000  1
  O  O9  1  0.25751800  0.07412200  0.96646800  1
  O  O10  1  0.57971500  0.44897800  0.83464200  1
  O  O11  1  0.42467400  0.56447000  0.17221200  1
  O  O12  1  0.73621500  0.48557800  0.55858900  1
  O  O13  1  0.26711200  0.52161700  0.44562900  1
  O  O14  1  0.88408700  0.24104000  0.69863700  1
  O  O15  1  0.10749100  0.75671500  0.30276000  1
loop_
_geom_bond_atom_site_label_1
_geom_bond_atom_site_label_2
_geom_bond_distance
_geom_bond_site_symmetry_2
Na0 O15 2.398864 1_655
Na0 O11 2.412367 1_555
Na0 O0 2.428458 1_555
Na0 O1 2.457095 1_654
Na0 O10 2.460982 1_554
Na0 O8 2.469743 1_555
Na1 O0 2.402875 1_456
Na1 O1 2.425392 1_555
Na1 O10 2.438746 1_555
Na1 O11 2.439673 1_556
Na1 O9 2.453739 1_555
Na1 O14 2.505767 1_455
Na2 O2 2.391255 1_565
Na2 O3 2.404744 1_655
Na2 O15 2.422665 1_655
Na2 O7 2.443344 1_555
Na2 O14 2.473451 1_565
Na2 O6 2.608068 1_665
H0 O4 1.008521 1_555
H0 O9 1.746592 1_554
H1 O5 1.013550 1_555
H1 O8 1.710924 1_556
H2 O12 1.041473 1_555
H2 O3 1.547091 1_655
H3 O13 1.021843 1_555
H3 O2 1.628929 1_455
H4 O6 1.084627 1_555
H4 O7 1.418637 1_545
O0 Se2 1.649895 1_555
O1 Se3 1.648240 1_555
O2 Se2 1.659661 1_555
O3 Se3 1.665900 1_555
O4 Se2 1.761070 1_555
O5 Se3 1.756745 1_555
O6 Se0 1.726391 1_555
O7 Se1 1.676478 1_555
O8 Se2 1.661909 1_565
O9 Se3 1.660525 1_545
O10 Se0 1.637593 1_555
O11 Se1 1.646762 1_555
O12 Se0 1.732538 1_555
O13 Se1 1.748983 1_555
O14 Se0 1.643570 1_555
O15 Se1 1.654501 1_555
