# generated using pymatgen
data_Pr3Tm3Mn23
_symmetry_space_group_name_H-M   'P 1'
_cell_length_a   8.64435353
_cell_length_b   8.64435353
_cell_length_c   8.65055031
_cell_angle_alpha   90.00000000
_cell_angle_beta   60.02368827
_cell_angle_gamma   120.00000000
_symmetry_Int_Tables_number   1
_chemical_formula_structural   Pr3Tm3Mn23
_chemical_formula_sum   'Pr3 Tm3 Mn23'
_cell_volume   457.24523030
_cell_formula_units_Z   1
loop_
 _symmetry_equiv_pos_site_id
 _symmetry_equiv_pos_as_xyz
  1  'x, y, z'
loop_
 _atom_site_type_symbol
 _atom_site_label
 _atom_site_symmetry_multiplicity
 _atom_site_fract_x
 _atom_site_fract_y
 _atom_site_fract_z
 _atom_site_occupancy
  Pr  Pr0  1  0.58702200  0.29351100  0.70492500  1
  Pr  Pr1  1  0.00156400  0.70805300  0.70492500  1
  Pr  Pr2  1  0.00156400  0.29351100  0.70492500  1
  Tm  Tm0  1  0.42701500  0.71350800  0.28334000  1
  Tm  Tm1  1  0.00315300  0.28964500  0.28334000  1
  Tm  Tm2  1  0.00315300  0.71350800  0.28334000  1
  Mn  Mn0  1  0.63754000  0.31877000  0.04368900  1
  Mn  Mn1  1  0.35816100  0.32182600  0.32001300  1
  Mn  Mn2  1  0.35816100  0.03633500  0.32001300  1
  Mn  Mn3  1  0.64365200  0.32182600  0.32001300  1
  Mn  Mn4  1  0.35731800  0.67865900  0.96402300  1
  Mn  Mn5  1  0.64163500  0.68044300  0.67792300  1
  Mn  Mn6  1  0.64163500  0.96119200  0.67792300  1
  Mn  Mn7  1  0.36088500  0.68044300  0.67792300  1
  Mn  Mn8  1  0.99477400  0.99738700  0.00784000  1
  Mn  Mn9  1  0.23656100  0.11828100  0.64515800  1
  Mn  Mn10  1  0.76419300  0.11702700  0.11878000  1
  Mn  Mn11  1  0.76419300  0.64716700  0.11878000  1
  Mn  Mn12  1  0.23405300  0.11702700  0.11878000  1
  Mn  Mn13  1  0.76519600  0.88259800  0.35220500  1
  Mn  Mn14  1  0.23654000  0.88000100  0.88345900  1
  Mn  Mn15  1  0.23654000  0.35653900  0.88345900  1
  Mn  Mn16  1  0.76000200  0.88000100  0.88345900  1
  Mn  Mn17  1  0.99989600  0.99994800  0.49629300  1
  Mn  Mn18  1  0.50375900  0.50381100  0.49629300  1
  Mn  Mn19  1  0.50375900  0.99994800  0.49629300  1
  Mn  Mn20  1  0.99783200  0.49891600  0.01096200  1
  Mn  Mn21  1  0.49012200  0.99120600  0.01096200  1
  Mn  Mn22  1  0.49012200  0.49891600  0.01096200  1
loop_
_geom_bond_atom_site_label_1
_geom_bond_atom_site_label_2
_geom_bond_distance
_geom_bond_site_symmetry_2
Mn0 Mn2 2.417037 1_555
Mn0 Mn1 2.417037 1_555
Mn0 Mn3 2.417042 1_555
Mn0 Mn21 2.544416 1_545
Mn0 Mn22 2.544416 1_555
Mn0 Mn20 2.544423 1_555
Mn0 Mn12 2.698504 1_555
Mn0 Mn10 2.698504 1_555
Mn0 Mn11 2.698511 1_555
Mn0 Pr0 3.163802 1_554
Mn0 Pr2 3.163807 1_654
Mn0 Pr1 3.163807 1_654
Mn1 Mn22 2.449152 1_555
Mn1 Mn3 2.467885 1_555
Mn1 Mn2 2.467885 1_555
Mn1 Mn17 2.514391 1_445
Mn1 Mn18 2.514391 1_555
Mn1 Mn11 2.698584 1_555
Mn1 Mn12 2.698585 1_555
Mn1 Mn9 2.703338 1_555
Mn1 Pr2 3.104483 1_555
Mn1 Tm1 3.116860 1_555
Mn1 Tm0 3.116868 1_555
Mn2 Mn21 2.449152 1_545
Mn2 Mn3 2.467885 1_555
Mn2 Mn9 2.703342 1_555
Mn2 Pr1 3.104483 1_545
Mn2 Tm0 3.116860 1_545
Mn2 Tm2 3.116860 1_545
Mn3 Mn9 2.703342 1_555
Mn3 Pr0 3.104483 1_555
Mn3 Tm1 3.116868 1_655
Mn3 Tm2 3.116868 1_655
Mn4 Mn5 2.459613 1_555
Mn4 Mn6 2.459613 1_555
Mn4 Mn7 2.459613 1_555
Mn4 Tm1 3.092798 1_556
Mn4 Tm2 3.092798 1_556
Mn4 Tm0 3.092798 1_556
Mn5 Mn6 2.426894 1_555
Mn5 Mn7 2.426902 1_555
Mn5 Pr1 3.126610 1_655
Mn5 Pr0 3.126615 1_555
Mn5 Tm2 3.153769 1_655
Mn6 Mn7 2.426898 1_555
Mn6 Pr2 3.126610 1_665
Mn6 Pr0 3.126615 1_565
Mn6 Tm1 3.153769 1_665
Mn7 Pr1 3.126610 1_555
Mn7 Pr2 3.126615 1_555
Mn7 Tm0 3.153770 1_555
Mn8 Mn9 2.562592 1_664
Mn9 Pr2 2.952269 1_555
Mn9 Pr1 2.952276 1_545
Mn9 Pr0 2.952277 1_555
Mn10 Mn8 2.472538 1_545
Mn10 Mn19 2.670605 1_545
Mn10 Mn2 2.698581 1_555
Mn10 Mn3 2.698581 1_555
Mn10 Mn20 2.701317 1_555
Mn10 Mn21 2.701317 1_545
Mn10 Mn13 2.866911 1_545
Mn10 Mn15 2.888393 1_654
Mn10 Mn16 2.888393 1_544
Mn10 Tm0 2.894138 1_545
Mn10 Tm1 2.894144 1_655
Mn10 Pr2 2.980533 1_654
Mn11 Mn8 2.472531 1_555
Mn11 Mn18 2.670605 1_555
Mn11 Mn3 2.698589 1_555
Mn11 Mn22 2.701318 1_555
Mn11 Mn20 2.701325 1_555
Mn11 Mn13 2.866905 1_555
Mn11 Mn16 2.888387 1_554
Mn11 Mn14 2.888393 1_654
Mn11 Tm0 2.894138 1_555
Mn11 Tm2 2.894145 1_655
Mn11 Pr1 2.980534 1_654
Mn12 Mn8 2.472524 1_445
Mn12 Mn17 2.670605 1_445
Mn12 Mn2 2.698589 1_555
Mn12 Mn22 2.701318 1_555
Mn12 Mn21 2.701325 1_545
Mn12 Mn13 2.866911 1_445
Mn12 Mn15 2.888387 1_554
Mn12 Mn14 2.888393 1_544
Mn12 Tm1 2.894132 1_555
Mn12 Tm2 2.894139 1_545
Mn12 Pr0 2.980534 1_554
Mn13 Mn8 2.433170 1_555
Mn13 Mn18 2.677255 1_555
Mn13 Mn19 2.677255 1_555
Mn13 Mn17 2.677262 1_555
Mn13 Mn7 2.694398 1_555
Mn13 Mn6 2.694402 1_555
Mn13 Mn5 2.694402 1_555
Mn13 Tm0 2.916273 1_555
Mn13 Tm2 2.916280 1_655
Mn13 Tm1 2.916280 1_665
Mn14 Mn8 2.535493 1_456
Mn14 Mn4 2.673801 1_555
Mn14 Mn7 2.690150 1_555
Mn14 Mn6 2.690157 1_555
Mn14 Mn20 2.693428 1_456
Mn14 Mn21 2.693429 1_556
Mn14 Mn19 2.738985 1_555
Mn14 Tm2 2.868821 1_556
Mn14 Mn9 2.914008 1_565
Mn14 Pr0 2.972545 1_565
Mn14 Pr1 2.972545 1_555
Mn15 Mn8 2.535493 1_446
Mn15 Mn4 2.673801 1_555
Mn15 Mn5 2.690157 1_555
Mn15 Mn7 2.690157 1_555
Mn15 Mn20 2.693428 1_456
Mn15 Mn22 2.693429 1_556
Mn15 Mn18 2.738985 1_555
Mn15 Tm1 2.868821 1_556
Mn15 Mn9 2.914002 1_555
Mn15 Pr0 2.972545 1_555
Mn15 Pr2 2.972545 1_555
Mn16 Mn8 2.535500 1_556
Mn16 Mn4 2.673801 1_555
Mn16 Mn5 2.690150 1_555
Mn16 Mn6 2.690150 1_555
Mn16 Mn21 2.693428 1_556
Mn16 Mn22 2.693428 1_556
Mn16 Mn17 2.738985 1_555
Mn16 Tm0 2.868821 1_556
Mn16 Mn9 2.914002 1_665
Mn16 Pr1 2.972545 1_655
Mn16 Pr2 2.972545 1_665
Mn17 Mn5 2.504388 1_555
Mn17 Mn6 2.504388 1_555
Mn17 Mn2 2.514391 1_665
Mn17 Mn9 2.725803 1_665
Mn17 Tm2 3.089215 1_655
Mn17 Tm1 3.089215 1_665
Mn17 Pr1 3.112329 1_655
Mn17 Pr2 3.112329 1_665
Mn18 Mn7 2.504395 1_555
Mn18 Mn5 2.504395 1_555
Mn18 Mn3 2.514391 1_555
Mn18 Mn9 2.725803 1_555
Mn18 Tm2 3.089221 1_655
Mn18 Tm0 3.089221 1_555
Mn18 Pr2 3.112328 1_555
Mn18 Pr0 3.112329 1_555
Mn19 Mn7 2.504388 1_555
Mn19 Mn6 2.504395 1_555
Mn19 Mn3 2.514391 1_565
Mn19 Mn2 2.514391 1_565
Mn19 Mn9 2.725809 1_565
Mn19 Tm0 3.089215 1_555
Mn19 Tm1 3.089221 1_665
Mn19 Pr1 3.112328 1_555
Mn19 Pr0 3.112329 1_565
Mn20 Mn3 2.449152 1_555
Mn20 Mn4 2.479214 1_654
Mn20 Mn7 2.579131 1_654
Mn20 Tm1 3.002985 1_655
Mn20 Tm2 3.002985 1_655
Mn20 Pr2 3.183453 1_654
Mn20 Pr1 3.183453 1_654
Mn21 Mn4 2.479214 1_554
Mn21 Mn6 2.579132 1_554
Mn21 Tm2 3.002979 1_555
Mn21 Tm0 3.002979 1_555
Mn21 Pr2 3.183453 1_664
Mn21 Pr0 3.183453 1_564
Mn22 Mn4 2.479214 1_554
Mn22 Mn5 2.579132 1_554
Mn22 Tm1 3.002979 1_555
Mn22 Tm0 3.002985 1_555
Mn22 Pr1 3.183453 1_654
Mn22 Pr0 3.183453 1_554
