# generated using pymatgen
data_CaFeO2
_symmetry_space_group_name_H-M   'P 1'
_cell_length_a   3.23596786
_cell_length_b   7.71026365
_cell_length_c   7.89978882
_cell_angle_alpha   108.22300079
_cell_angle_beta   90.31003386
_cell_angle_gamma   89.62916699
_symmetry_Int_Tables_number   1
_chemical_formula_structural   CaFeO2
_chemical_formula_sum   'Ca4 Fe4 O8'
_cell_volume   187.21063679
_cell_formula_units_Z   4
loop_
 _symmetry_equiv_pos_site_id
 _symmetry_equiv_pos_as_xyz
  1  'x, y, z'
loop_
 _atom_site_type_symbol
 _atom_site_label
 _atom_site_symmetry_multiplicity
 _atom_site_fract_x
 _atom_site_fract_y
 _atom_site_fract_z
 _atom_site_occupancy
  Ca  Ca0  1  0.73907421  0.20374666  0.56820635  1
  Ca  Ca1  1  0.26092579  0.79625334  0.43179365  1
  Ca  Ca2  1  0.26499722  0.06642001  0.18454860  1
  Ca  Ca3  1  0.73500278  0.93357999  0.81545140  1
  Fe  Fe0  1  0.23171905  0.56434484  0.69708394  1
  Fe  Fe1  1  0.20087781  0.33786592  0.94870178  1
  Fe  Fe2  1  0.79912219  0.66213408  0.05129822  1
  Fe  Fe3  1  0.76828095  0.43565516  0.30291606  1
  O  O0  1  0.32010993  0.55241009  0.17815201  1
  O  O1  1  0.23436730  0.79304446  0.94511418  1
  O  O2  1  0.76563270  0.20695554  0.05488582  1
  O  O3  1  0.67989007  0.44758991  0.82184799  1
  O  O4  1  0.76769159  0.66471785  0.57187772  1
  O  O5  1  0.23528766  0.06846923  0.69210159  1
  O  O6  1  0.23230841  0.33528215  0.42812228  1
  O  O7  1  0.76471234  0.93153077  0.30789841  1
loop_
_geom_bond_atom_site_label_1
_geom_bond_atom_site_label_2
_geom_bond_distance
_geom_bond_site_symmetry_2
Ca0 O5 2.285608 1_655
Ca0 O3 2.286852 1_555
Ca0 O5 2.319757 1_555
Ca0 O6 2.354293 1_655
Ca0 O6 2.367098 1_555
Ca0 O7 2.437411 1_545
Ca1 O7 2.285608 1_455
Ca1 O0 2.286852 1_555
Ca1 O7 2.319757 1_555
Ca1 O4 2.354293 1_455
Ca1 O4 2.367098 1_555
Ca1 O5 2.437411 1_565
Ca2 O7 2.289346 1_545
Ca2 O7 2.307544 1_445
Ca2 O2 2.342678 1_455
Ca2 O6 2.348533 1_555
Ca2 O1 2.353189 1_544
Ca2 O2 2.362775 1_555
Ca3 O5 2.289346 1_565
Ca3 O5 2.307544 1_665
Ca3 O1 2.342678 1_655
Ca3 O4 2.348533 1_555
Ca3 O2 2.353189 1_566
Ca3 O1 2.362775 1_555
Fe0 O4 2.068724 1_455
Fe0 O3 2.099436 1_555
Fe0 O1 2.188088 1_555
Fe0 O4 2.258328 1_555
Fe0 O6 2.299298 1_555
Fe0 O3 2.359091 1_455
Fe1 O2 2.065638 1_456
Fe1 O0 2.072718 1_556
Fe1 O3 2.164877 1_555
Fe1 O3 2.248490 1_455
Fe1 O2 2.356134 1_556
Fe1 O5 2.408728 1_555
Fe2 O1 2.065638 1_654
Fe2 O3 2.072718 1_554
Fe2 O0 2.164877 1_555
Fe2 O0 2.248490 1_655
Fe2 O1 2.356134 1_554
Fe2 O7 2.408728 1_555
Fe3 O6 2.068724 1_655
Fe3 O0 2.099436 1_555
Fe3 O2 2.188088 1_555
Fe3 O6 2.258328 1_555
Fe3 O4 2.299298 1_555
Fe3 O0 2.359091 1_655
