# generated using pymatgen
data_Hf9NiMo4
_symmetry_space_group_name_H-M   'P 1'
_cell_length_a   8.41938200
_cell_length_b   8.71127331
_cell_length_c   8.71127331
_cell_angle_alpha   119.96956808
_cell_angle_beta   90.00000000
_cell_angle_gamma   90.00000000
_symmetry_Int_Tables_number   1
_chemical_formula_structural   Hf9NiMo4
_chemical_formula_sum   'Hf18 Ni2 Mo8'
_cell_volume   553.48674054
_cell_formula_units_Z   2
loop_
 _symmetry_equiv_pos_site_id
 _symmetry_equiv_pos_as_xyz
  1  'x, y, z'
loop_
 _atom_site_type_symbol
 _atom_site_label
 _atom_site_symmetry_multiplicity
 _atom_site_fract_x
 _atom_site_fract_y
 _atom_site_fract_z
 _atom_site_occupancy
  Hf  Hf0  1  0.55717100  0.80010800  0.60021200  1
  Hf  Hf1  1  0.55720800  0.80017400  0.19982600  1
  Hf  Hf2  1  0.55717100  0.39978800  0.19989200  1
  Hf  Hf3  1  0.44282900  0.19989200  0.39978800  1
  Hf  Hf4  1  0.44279200  0.19982600  0.80017400  1
  Hf  Hf5  1  0.44282900  0.60021200  0.80010800  1
  Hf  Hf6  1  0.05717100  0.19989200  0.39978800  1
  Hf  Hf7  1  0.05720800  0.19982600  0.80017400  1
  Hf  Hf8  1  0.05717100  0.60021200  0.80010800  1
  Hf  Hf9  1  0.94282900  0.80010800  0.60021200  1
  Hf  Hf10  1  0.94279200  0.80017400  0.19982600  1
  Hf  Hf11  1  0.94282900  0.39978800  0.19989200  1
  Hf  Hf12  1  0.75000000  0.45826000  0.91647200  1
  Hf  Hf13  1  0.75000000  0.45820800  0.54179200  1
  Hf  Hf14  1  0.75000000  0.08352800  0.54174000  1
  Hf  Hf15  1  0.25000000  0.54174000  0.08352800  1
  Hf  Hf16  1  0.25000000  0.54179200  0.45820800  1
  Hf  Hf17  1  0.25000000  0.91647200  0.45826000  1
  Ni  Ni0  1  0.75000000  0.66667700  0.33332300  1
  Ni  Ni1  1  0.25000000  0.33332300  0.66667700  1
  Mo  Mo0  1  0.75000000  0.11158400  0.22315300  1
  Mo  Mo1  1  0.75000000  0.11168500  0.88831500  1
  Mo  Mo2  1  0.75000000  0.77684700  0.88841600  1
  Mo  Mo3  1  0.25000000  0.88841600  0.77684700  1
  Mo  Mo4  1  0.25000000  0.88831500  0.11168500  1
  Mo  Mo5  1  0.25000000  0.22315300  0.11158400  1
  Mo  Mo6  1  0.50000000  0.00000000  0.00000000  1
  Mo  Mo7  1  0.00000000  0.00000000  0.00000000  1
loop_
_geom_bond_atom_site_label_1
_geom_bond_atom_site_label_2
_geom_bond_distance
_geom_bond_site_symmetry_2
Hf0 Ni0 2.586941 1_555
Hf0 Mo3 2.909502 1_555
Hf0 Mo6 3.055156 1_566
Hf0 Mo2 3.080311 1_555
Hf0 Mo1 3.081537 1_565
Hf1 Ni0 2.586641 1_555
Hf1 Mo4 2.908280 1_555
Hf1 Mo6 3.052822 1_565
Hf1 Mo0 3.079683 1_565
Hf1 Mo2 3.079683 1_554
Hf2 Ni0 2.586941 1_555
Hf2 Mo5 2.909502 1_555
Hf2 Mo6 3.055156 1_555
Hf2 Mo0 3.080311 1_555
Hf2 Mo1 3.081537 1_554
Hf3 Ni1 2.586941 1_555
Hf3 Mo0 2.909502 1_555
Hf3 Mo6 3.055156 1_555
Hf3 Mo5 3.080311 1_555
Hf3 Mo4 3.081537 1_545
Hf4 Ni1 2.586641 1_555
Hf4 Mo1 2.908280 1_555
Hf4 Mo6 3.052822 1_556
Hf4 Mo5 3.079683 1_556
Hf4 Mo3 3.079683 1_545
Hf5 Ni1 2.586941 1_555
Hf5 Mo2 2.909502 1_555
Hf5 Mo6 3.055156 1_566
Hf5 Mo3 3.080311 1_555
Hf5 Mo4 3.081537 1_556
Hf6 Ni1 2.586941 1_555
Hf6 Mo0 2.909502 1_455
Hf6 Mo7 3.055156 1_555
Hf6 Mo5 3.080311 1_555
Hf6 Mo4 3.081537 1_545
Hf7 Ni1 2.586641 1_555
Hf7 Mo1 2.908280 1_455
Hf7 Mo7 3.052822 1_556
Hf7 Mo5 3.079683 1_556
Hf7 Mo3 3.079683 1_545
Hf8 Ni1 2.586941 1_555
Hf8 Mo2 2.909502 1_455
Hf8 Mo7 3.055156 1_566
Hf8 Mo3 3.080311 1_555
Hf8 Mo4 3.081537 1_556
Hf9 Ni0 2.586941 1_555
Hf9 Mo3 2.909502 1_655
Hf9 Mo7 3.055156 1_666
Hf9 Mo2 3.080311 1_555
Hf9 Mo1 3.081537 1_565
Hf10 Ni0 2.586641 1_555
Hf10 Mo4 2.908280 1_655
Hf10 Mo7 3.052822 1_665
Hf10 Mo0 3.079683 1_565
Hf10 Mo2 3.079683 1_554
Hf11 Ni0 2.586941 1_555
Hf11 Mo5 2.909502 1_655
Hf11 Mo7 3.055156 1_655
Hf11 Mo0 3.080311 1_555
Hf11 Mo1 3.081537 1_554
Hf12 Mo1 2.904364 1_555
Hf12 Mo2 2.905113 1_555
Hf13 Mo2 2.906652 1_555
Hf13 Mo0 2.906652 1_555
Hf14 Mo1 2.904364 1_555
Hf14 Mo0 2.905113 1_555
Hf15 Mo4 2.904364 1_555
Hf15 Mo5 2.905113 1_555
Hf16 Mo3 2.906652 1_555
Hf16 Mo5 2.906652 1_555
Hf17 Mo4 2.904364 1_555
Hf17 Mo3 2.905113 1_555
Mo0 Mo7 2.695609 1_655
Mo0 Mo6 2.695609 1_555
Mo0 Mo1 2.917305 1_554
Mo0 Mo2 2.917327 1_544
Mo1 Mo6 2.696148 1_556
Mo1 Mo7 2.696148 1_656
Mo1 Mo2 2.917305 1_545
Mo2 Mo6 2.695609 1_566
Mo2 Mo7 2.695609 1_666
Mo3 Mo7 2.695609 1_566
Mo3 Mo6 2.695609 1_566
Mo3 Mo4 2.917305 1_556
Mo3 Mo5 2.917327 1_566
Mo4 Mo6 2.696148 1_565
Mo4 Mo7 2.696148 1_565
Mo4 Mo5 2.917305 1_565
Mo5 Mo6 2.695609 1_555
Mo5 Mo7 2.695609 1_555
