# generated using pymatgen
data_MgSi
_symmetry_space_group_name_H-M   'P 1'
_cell_length_a   3.89387100
_cell_length_b   6.19769220
_cell_length_c   10.15941021
_cell_angle_alpha   94.53721802
_cell_angle_beta   96.49753720
_cell_angle_gamma   107.18674740
_symmetry_Int_Tables_number   1
_chemical_formula_structural   MgSi
_chemical_formula_sum   'Mg6 Si6'
_cell_volume   231.08310468
_cell_formula_units_Z   6
loop_
 _symmetry_equiv_pos_site_id
 _symmetry_equiv_pos_as_xyz
  1  'x, y, z'
loop_
 _atom_site_type_symbol
 _atom_site_label
 _atom_site_symmetry_multiplicity
 _atom_site_fract_x
 _atom_site_fract_y
 _atom_site_fract_z
 _atom_site_occupancy
  Mg  Mg0  1  0.57943200  0.08285800  0.85500700  1
  Mg  Mg1  1  0.58831300  0.92669500  0.14209500  1
  Mg  Mg2  1  0.30553100  0.23852800  0.33752500  1
  Mg  Mg3  1  0.85794800  0.75736100  0.66278300  1
  Mg  Mg4  1  0.86693600  0.49743000  0.13862500  1
  Mg  Mg5  1  0.30393000  0.51251100  0.86503200  1
  Si  Si0  1  0.58762800  0.12653000  0.59377200  1
  Si  Si1  1  0.98723200  0.59944000  0.41046100  1
  Si  Si2  1  0.97151300  0.80617600  0.94924300  1
  Si  Si3  1  0.19751000  0.20324400  0.05053100  1
  Si  Si4  1  0.57446500  0.85965100  0.40010200  1
  Si  Si5  1  0.17958400  0.38948600  0.59476500  1
loop_
_geom_bond_atom_site_label_1
_geom_bond_atom_site_label_2
_geom_bond_distance
_geom_bond_site_symmetry_2
Mg0 Si0 2.691779 1_555
Mg0 Si2 2.768400 1_545
Mg0 Si3 2.793557 1_556
Mg0 Si2 2.798982 1_445
Mg0 Si3 2.813738 1_656
Mg1 Si4 2.690225 1_555
Mg1 Si3 2.755351 1_565
Mg1 Si2 2.777022 1_554
Mg1 Si3 2.789076 1_665
Mg1 Si2 2.794330 1_454
Mg2 Si5 2.849583 1_555
Mg2 Si3 2.879791 1_555
Mg2 Si1 2.895211 1_555
Mg2 Si4 2.924614 1_545
Mg2 Si0 2.924889 1_555
Mg2 Si1 2.944926 1_455
Mg2 Si4 3.273689 1_445
Mg3 Si1 2.822924 1_555
Mg3 Si2 2.871775 1_555
Mg3 Si0 2.888678 1_565
Mg3 Si5 2.903726 1_555
Mg3 Si4 2.959188 1_555
Mg3 Si5 2.979671 1_655
Mg3 Si0 3.265297 1_665
Mg4 Si3 2.678018 1_655
Mg4 Si3 2.706499 1_555
Mg4 Si1 2.738986 1_555
Mg4 Si2 2.797941 1_554
Mg5 Si2 2.667670 1_455
Mg5 Si2 2.693720 1_555
Mg5 Si5 2.739466 1_555
Mg5 Si3 2.770565 1_556
Si0 Si5 2.396092 1_655
Si0 Si4 2.453972 1_545
Si0 Si5 2.590734 1_555
Si1 Si4 2.396352 1_655
Si1 Si5 2.530652 1_655
Si1 Si4 2.591446 1_555
Si2 Si3 2.450295 1_666
