# generated using pymatgen
data_BaYCo4O7
_symmetry_space_group_name_H-M   'P 1'
_cell_length_a   6.42075836
_cell_length_b   6.42075836
_cell_length_c   10.32560900
_cell_angle_alpha   90.00000000
_cell_angle_beta   90.00000000
_cell_angle_gamma   119.60959218
_symmetry_Int_Tables_number   1
_chemical_formula_structural   BaYCo4O7
_chemical_formula_sum   'Ba2 Y2 Co8 O14'
_cell_volume   370.09572626
_cell_formula_units_Z   2
loop_
 _symmetry_equiv_pos_site_id
 _symmetry_equiv_pos_as_xyz
  1  'x, y, z'
loop_
 _atom_site_type_symbol
 _atom_site_label
 _atom_site_symmetry_multiplicity
 _atom_site_fract_x
 _atom_site_fract_y
 _atom_site_fract_z
 _atom_site_occupancy
  Ba  Ba0  1  0.33617300  0.66382700  0.49890700  1
  Ba  Ba1  1  0.66382700  0.33617300  0.99890700  1
  Y  Y0  1  0.33256500  0.66743500  0.12978500  1
  Y  Y1  1  0.66743500  0.33256500  0.62978500  1
  Co  Co0  1  0.82996000  0.17004000  0.31160700  1
  Co  Co1  1  0.83194500  0.66457600  0.31044000  1
  Co  Co2  1  0.33542400  0.16805500  0.31044000  1
  Co  Co3  1  0.17004000  0.82996000  0.81160700  1
  Co  Co4  1  0.16805500  0.33542400  0.81044000  1
  Co  Co5  1  0.66457600  0.83194500  0.81044000  1
  Co  Co6  1  0.00224000  0.99776000  0.55388100  1
  Co  Co7  1  0.99776000  0.00224000  0.05388100  1
  O  O0  1  0.50026600  0.49973400  0.25274300  1
  O  O1  1  0.49851000  0.99865100  0.25208400  1
  O  O2  1  0.00134900  0.50149000  0.25208400  1
  O  O3  1  0.49973400  0.50026600  0.75274300  1
  O  O4  1  0.50149000  0.00134900  0.75208400  1
  O  O5  1  0.99865100  0.49851000  0.75208400  1
  O  O6  1  0.00160100  0.99839900  0.74274100  1
  O  O7  1  0.99839900  0.00160100  0.24274100  1
  O  O8  1  0.83783100  0.16216900  0.50219100  1
  O  O9  1  0.82952200  0.67766300  0.50355800  1
  O  O10  1  0.32233700  0.17047800  0.50355800  1
  O  O11  1  0.16216900  0.83783100  0.00219100  1
  O  O12  1  0.17047800  0.32233700  0.00355800  1
  O  O13  1  0.67766300  0.82952200  0.00355800  1
loop_
_geom_bond_atom_site_label_1
_geom_bond_atom_site_label_2
_geom_bond_distance
_geom_bond_site_symmetry_2
Ba0 O9 3.125105 1_555
Ba0 O10 3.125105 1_555
Ba0 O0 3.126950 1_555
Ba0 O1 3.160572 1_555
Ba0 O2 3.160572 1_555
Ba0 O3 3.188311 1_555
Ba0 O5 3.222447 1_455
Ba0 O4 3.222447 1_565
Ba0 O8 3.229535 1_565
Ba0 O8 3.229535 1_455
Ba0 O10 3.298231 1_565
Ba0 O9 3.298231 1_455
Ba1 O12 3.125105 1_556
Ba1 O13 3.125105 1_556
Ba1 O3 3.126950 1_555
Ba1 O5 3.160572 1_555
Ba1 O4 3.160572 1_555
Ba1 O0 3.188311 1_556
Ba1 O2 3.222447 1_656
Ba1 O1 3.222447 1_546
Ba1 O11 3.229535 1_656
Ba1 O11 3.229535 1_546
Ba1 O12 3.298231 1_656
Ba1 O13 3.298231 1_546
Co0 O1 1.950273 1_545
Co0 O2 1.950273 1_655
Co0 O8 1.969834 1_555
Co0 O7 2.000194 1_555
Co1 O2 1.941178 1_655
Co1 O0 1.945024 1_555
Co1 O9 1.996215 1_555
Co1 O7 2.007038 1_565
Co2 O1 1.941178 1_545
Co2 O0 1.945024 1_555
Co2 O10 1.996215 1_555
Co2 O7 2.007038 1_455
Co3 O4 1.950273 1_565
Co3 O5 1.950273 1_455
Co3 O11 1.969834 1_556
Co3 O6 2.000194 1_555
Co4 O5 1.941178 1_455
Co4 O3 1.945024 1_555
Co4 O12 1.996215 1_556
Co4 O6 2.007038 1_545
Co5 O4 1.941178 1_565
Co5 O3 1.945024 1_555
Co5 O13 1.996215 1_556
Co5 O6 2.007038 1_655
Co6 O10 1.863238 1_565
Co6 O9 1.863238 1_455
Co6 O8 1.901252 1_465
Co6 O6 1.950107 1_555
Co7 O12 1.863238 1_655
Co7 O13 1.863238 1_545
Co7 O11 1.901252 1_645
Co7 O7 1.950107 1_555
O0 Y0 2.253109 1_555
O1 Y0 2.239084 1_555
O2 Y0 2.239084 1_555
O3 Y1 2.253109 1_555
O4 Y1 2.239084 1_555
O5 Y1 2.239084 1_555
O8 Y1 2.304906 1_555
O9 Y1 2.326554 1_555
O10 Y1 2.326554 1_555
O11 Y0 2.304906 1_555
O12 Y0 2.326554 1_555
O13 Y0 2.326554 1_555
