# generated using pymatgen
data_Sr3(NiN2)2
_symmetry_space_group_name_H-M   'P 1'
_cell_length_a   5.86012000
_cell_length_b   9.99638900
_cell_length_c   9.44569600
_cell_angle_alpha   90.00000000
_cell_angle_beta   90.00000000
_cell_angle_gamma   90.00000000
_symmetry_Int_Tables_number   1
_chemical_formula_structural   Sr3(NiN2)2
_chemical_formula_sum   'Sr12 Ni8 N16'
_cell_volume   553.32924107
_cell_formula_units_Z   4
loop_
 _symmetry_equiv_pos_site_id
 _symmetry_equiv_pos_as_xyz
  1  'x, y, z'
loop_
 _atom_site_type_symbol
 _atom_site_label
 _atom_site_symmetry_multiplicity
 _atom_site_fract_x
 _atom_site_fract_y
 _atom_site_fract_z
 _atom_site_occupancy
  Sr  Sr0  1  0.60143100  0.15492700  0.41189500  1
  Sr  Sr1  1  0.89856900  0.84507300  0.41189500  1
  Sr  Sr2  1  0.60143100  0.34507300  0.08810500  1
  Sr  Sr3  1  0.89856900  0.65492700  0.08810500  1
  Sr  Sr4  1  0.39856900  0.84507300  0.58810500  1
  Sr  Sr5  1  0.10143100  0.15492700  0.58810500  1
  Sr  Sr6  1  0.39856900  0.65492700  0.91189500  1
  Sr  Sr7  1  0.10143100  0.34507300  0.91189500  1
  Sr  Sr8  1  0.75000000  0.50000000  0.40279300  1
  Sr  Sr9  1  0.75000000  0.00000000  0.09720700  1
  Sr  Sr10  1  0.25000000  0.50000000  0.59720700  1
  Sr  Sr11  1  0.25000000  0.00000000  0.90279300  1
  Ni  Ni0  1  0.75000000  0.50000000  0.73277100  1
  Ni  Ni1  1  0.75000000  0.00000000  0.76722900  1
  Ni  Ni2  1  0.25000000  0.50000000  0.26722900  1
  Ni  Ni3  1  0.25000000  0.00000000  0.23277100  1
  Ni  Ni4  1  0.64658500  0.25000000  0.75000000  1
  Ni  Ni5  1  0.85341500  0.75000000  0.75000000  1
  Ni  Ni6  1  0.35341500  0.75000000  0.25000000  1
  Ni  Ni7  1  0.14658500  0.25000000  0.25000000  1
  N  N0  1  0.86697800  0.35541900  0.63128700  1
  N  N1  1  0.63302200  0.64458100  0.63128700  1
  N  N2  1  0.86697800  0.14458100  0.86871300  1
  N  N3  1  0.63302200  0.85541900  0.86871300  1
  N  N4  1  0.13302200  0.64458100  0.36871300  1
  N  N5  1  0.36697800  0.35541900  0.36871300  1
  N  N6  1  0.13302200  0.85541900  0.13128700  1
  N  N7  1  0.36697800  0.14458100  0.13128700  1
  N  N8  1  0.50483000  0.40712200  0.82815200  1
  N  N9  1  0.99517000  0.59287800  0.82815200  1
  N  N10  1  0.50483000  0.09287800  0.67184800  1
  N  N11  1  0.99517000  0.90712200  0.67184800  1
  N  N12  1  0.49517000  0.59287800  0.17184800  1
  N  N13  1  0.00483000  0.40712200  0.17184800  1
  N  N14  1  0.49517000  0.90712200  0.32815200  1
  N  N15  1  0.00483000  0.09287800  0.32815200  1
loop_
_geom_bond_atom_site_label_1
_geom_bond_atom_site_label_2
_geom_bond_distance
_geom_bond_site_symmetry_2
N0 Ni0 1.864849 1_555
N0 Ni4 2.008964 1_555
N0 Sr5 2.463906 1_655
N0 Sr8 2.686442 1_555
N0 Sr10 2.688961 1_655
N1 Ni0 1.864849 1_555
N1 Ni5 2.008964 1_555
N1 Sr4 2.463906 1_555
N1 Sr8 2.686442 1_555
N1 Sr10 2.688961 1_555
N2 Ni1 1.864849 1_555
N2 Ni4 2.008964 1_555
N2 Sr7 2.463906 1_655
N2 Sr9 2.686442 1_556
N2 Sr11 2.688961 1_655
N3 Ni1 1.864849 1_565
N3 Ni5 2.008964 1_555
N3 Sr6 2.463906 1_555
N3 Sr9 2.686442 1_566
N3 Sr11 2.688961 1_565
N4 Ni2 1.864849 1_555
N4 Ni6 2.008964 1_555
N4 Sr1 2.463906 1_455
N4 Sr10 2.686442 1_555
N4 Sr8 2.688961 1_455
N5 Ni2 1.864849 1_555
N5 Ni7 2.008964 1_555
N5 Sr0 2.463906 1_555
N5 Sr10 2.686442 1_555
N5 Sr8 2.688961 1_555
N6 Ni3 1.864849 1_565
N6 Ni6 2.008964 1_555
N6 Sr3 2.463906 1_455
N6 Sr11 2.686442 1_564
N6 Sr9 2.688961 1_465
N7 Ni3 1.864849 1_555
N7 Ni7 2.008964 1_555
N7 Sr2 2.463906 1_555
N7 Sr11 2.686442 1_554
N7 Sr9 2.688961 1_555
N8 Ni4 1.924046 1_555
N8 Ni0 1.933360 1_555
N8 Sr7 2.568806 1_555
N8 Sr2 2.595065 1_556
N8 Sr6 2.673902 1_555
N8 Sr10 2.801914 1_555
N9 Ni5 1.924046 1_555
N9 Ni0 1.933360 1_555
N9 Sr6 2.568806 1_655
N9 Sr3 2.595065 1_556
N9 Sr7 2.673902 1_655
N9 Sr10 2.801914 1_655
N10 Ni4 1.924046 1_555
N10 Ni1 1.933360 1_555
N10 Sr5 2.568806 1_555
N10 Sr0 2.595065 1_555
N10 Sr4 2.673902 1_545
N10 Sr11 2.801914 1_555
N11 Ni5 1.924046 1_555
N11 Ni1 1.933360 1_565
N11 Sr4 2.568806 1_655
N11 Sr1 2.595065 1_555
N11 Sr5 2.673902 1_665
N11 Sr11 2.801914 1_665
N12 Ni6 1.924046 1_555
N12 Ni2 1.933360 1_555
N12 Sr3 2.568806 1_555
N12 Sr6 2.595065 1_554
N12 Sr2 2.673902 1_555
N12 Sr8 2.801914 1_555
N13 Ni7 1.924046 1_555
N13 Ni2 1.933360 1_555
N13 Sr2 2.568806 1_455
N13 Sr7 2.595065 1_554
N13 Sr3 2.673902 1_455
N13 Sr8 2.801914 1_455
N14 Ni6 1.924046 1_555
N14 Ni3 1.933360 1_565
N14 Sr1 2.568806 1_555
N14 Sr4 2.595065 1_555
N14 Sr0 2.673902 1_565
N14 Sr9 2.801914 1_565
N15 Ni7 1.924046 1_555
N15 Ni3 1.933360 1_555
N15 Sr0 2.568806 1_455
N15 Sr5 2.595065 1_555
N15 Sr1 2.673902 1_445
N15 Sr9 2.801914 1_455
