# generated using pymatgen
data_YbNi2
_symmetry_space_group_name_H-M   'P 1'
_cell_length_a   4.95572116
_cell_length_b   4.95572116
_cell_length_c   4.95572116
_cell_angle_alpha   60.00000000
_cell_angle_beta   60.00000000
_cell_angle_gamma   60.00000000
_symmetry_Int_Tables_number   1
_chemical_formula_structural   YbNi2
_chemical_formula_sum   'Yb2 Ni4'
_cell_volume   86.06084143
_cell_formula_units_Z   2
loop_
 _symmetry_equiv_pos_site_id
 _symmetry_equiv_pos_as_xyz
  1  'x, y, z'
loop_
 _atom_site_type_symbol
 _atom_site_label
 _atom_site_symmetry_multiplicity
 _atom_site_fract_x
 _atom_site_fract_y
 _atom_site_fract_z
 _atom_site_occupancy
  Yb  Yb0  1  0.50000000  0.50000000  0.50000000  1
  Yb  Yb1  1  0.75000000  0.75000000  0.75000000  1
  Ni  Ni0  1  0.12500000  0.12500000  0.12500000  1
  Ni  Ni1  1  0.62500000  0.12500000  0.12500000  1
  Ni  Ni2  1  0.12500000  0.62500000  0.12500000  1
  Ni  Ni3  1  0.12500000  0.12500000  0.62500000  1
loop_
_geom_bond_atom_site_label_1
_geom_bond_atom_site_label_2
_geom_bond_distance
_geom_bond_site_symmetry_2
Yb0 Yb1 3.034747 1_554
Yb0 Yb1 3.034747 1_555
Yb0 Yb1 3.034747 1_545
Yb0 Yb1 3.034747 1_455
Ni0 Ni3 2.477861 1_554
Ni0 Ni2 2.477861 1_555
Ni0 Ni2 2.477861 1_545
Ni0 Ni3 2.477861 1_555
Ni0 Ni1 2.477861 1_455
Ni0 Ni1 2.477861 1_555
Ni0 Yb1 2.905549 1_544
Ni0 Yb0 2.905549 1_455
Ni0 Yb1 2.905549 1_454
Ni0 Yb1 2.905549 1_445
Ni0 Yb0 2.905549 1_545
Ni0 Yb0 2.905549 1_554
Ni1 Ni2 2.477861 1_645
Ni1 Ni2 2.477861 1_555
Ni1 Ni3 2.477861 1_555
Ni1 Ni3 2.477861 1_654
Ni1 Yb1 2.905549 1_554
Ni1 Yb1 2.905549 1_544
Ni1 Yb0 2.905549 1_545
Ni1 Yb0 2.905549 1_555
Ni1 Yb0 2.905549 1_554
Ni1 Yb1 2.905549 1_545
Ni2 Ni3 2.477861 1_555
Ni2 Ni3 2.477861 1_564
Ni2 Yb1 2.905549 1_554
Ni2 Yb0 2.905549 1_455
Ni2 Yb1 2.905549 1_454
Ni2 Yb1 2.905549 1_455
Ni2 Yb0 2.905549 1_555
Ni2 Yb0 2.905549 1_554
Ni3 Yb0 2.905549 1_455
Ni3 Yb1 2.905549 1_445
Ni3 Yb0 2.905549 1_545
Ni3 Yb1 2.905549 1_455
Ni3 Yb0 2.905549 1_555
Ni3 Yb1 2.905549 1_545
