# generated using pymatgen
data_Na2ZrSi4H4O13
_symmetry_space_group_name_H-M   'P 1'
_cell_length_a   8.93193500
_cell_length_b   7.65795400
_cell_length_c   9.23589757
_cell_angle_alpha   67.14507870
_cell_angle_beta   90.00000000
_cell_angle_gamma   90.00000000
_symmetry_Int_Tables_number   1
_chemical_formula_structural   Na2ZrSi4H4O13
_chemical_formula_sum   'Na4 Zr2 Si8 H8 O26'
_cell_volume   582.14160792
_cell_formula_units_Z   2
loop_
 _symmetry_equiv_pos_site_id
 _symmetry_equiv_pos_as_xyz
  1  'x, y, z'
loop_
 _atom_site_type_symbol
 _atom_site_label
 _atom_site_symmetry_multiplicity
 _atom_site_fract_x
 _atom_site_fract_y
 _atom_site_fract_z
 _atom_site_occupancy
  Na  Na0  1  0.68812400  0.28939800  0.20875400  1
  Na  Na1  1  0.31187600  0.71060200  0.79124600  1
  Na  Na2  1  0.18812400  0.21060200  0.79124600  1
  Na  Na3  1  0.81187600  0.78939800  0.20875400  1
  Zr  Zr0  1  0.50000000  0.00000000  0.00000000  1
  Zr  Zr1  1  0.00000000  0.50000000  0.00000000  1
  Si  Si0  1  0.34236700  0.30144500  0.16860300  1
  Si  Si1  1  0.65763300  0.69855500  0.83139700  1
  Si  Si2  1  0.84236700  0.19855500  0.83139700  1
  Si  Si3  1  0.15763300  0.80144500  0.16860300  1
  Si  Si4  1  0.05898700  0.08885900  0.31866000  1
  Si  Si5  1  0.94101300  0.91114100  0.68134000  1
  Si  Si6  1  0.55898700  0.41114100  0.68134000  1
  Si  Si7  1  0.44101300  0.58885900  0.31866000  1
  H  H0  1  0.30220900  0.08090400  0.51161700  1
  H  H1  1  0.69779100  0.91909600  0.48838300  1
  H  H2  1  0.80220900  0.41909600  0.48838300  1
  H  H3  1  0.19779100  0.58090400  0.51161700  1
  H  H4  1  0.89944700  0.40342900  0.34953200  1
  H  H5  1  0.10055300  0.59657100  0.65046800  1
  H  H6  1  0.39944700  0.09657100  0.65046800  1
  H  H7  1  0.60055300  0.90342900  0.34953200  1
  O  O0  1  0.23325300  0.43371100  0.02745500  1
  O  O1  1  0.76674700  0.56628900  0.97254500  1
  O  O2  1  0.73325300  0.06628900  0.97254500  1
  O  O3  1  0.26674700  0.93371100  0.02745500  1
  O  O4  1  0.46585200  0.18379200  0.11561600  1
  O  O5  1  0.53414800  0.81620800  0.88438400  1
  O  O6  1  0.96585200  0.31620800  0.88438400  1
  O  O7  1  0.03414800  0.68379200  0.11561600  1
  O  O8  1  0.95781600  0.27036300  0.21741100  1
  O  O9  1  0.04218400  0.72963700  0.78258900  1
  O  O10  1  0.45781600  0.22963700  0.78258900  1
  O  O11  1  0.54218400  0.77036300  0.21741100  1
  O  O12  1  0.81532600  0.47015800  0.37306000  1
  O  O13  1  0.18467400  0.52984200  0.62694000  1
  O  O14  1  0.31532600  0.02984200  0.62694000  1
  O  O15  1  0.68467400  0.97015800  0.37306000  1
  O  O16  1  0.23623800  0.15490600  0.31584400  1
  O  O17  1  0.76376200  0.84509400  0.68415600  1
  O  O18  1  0.73623800  0.34509400  0.68415600  1
  O  O19  1  0.26376200  0.65490600  0.31584400  1
  O  O20  1  0.44538100  0.42152400  0.24907700  1
  O  O21  1  0.55461900  0.57847600  0.75092300  1
  O  O22  1  0.94538100  0.07847600  0.75092300  1
  O  O23  1  0.05461900  0.92152400  0.24907700  1
  O  O24  1  0.50000000  0.50000000  0.50000000  1
  O  O25  1  0.00000000  0.00000000  0.50000000  1
loop_
_geom_bond_atom_site_label_1
_geom_bond_atom_site_label_2
_geom_bond_distance
_geom_bond_site_symmetry_2
Na0 O15 2.323496 1_545
Na0 O8 2.412727 1_555
Na0 O4 2.424025 1_555
Na0 O1 2.480993 1_554
Na0 O20 2.481152 1_555
Na1 O14 2.323496 1_565
Na1 O9 2.412727 1_555
Na1 O5 2.424025 1_555
Na1 O0 2.480993 1_556
Na1 O21 2.481152 1_555
Na2 O13 2.323496 1_555
Na2 O10 2.412727 1_555
Na2 O6 2.424025 1_455
Na2 O3 2.480993 1_546
Na2 O22 2.481152 1_455
Na3 O12 2.323496 1_555
Na3 O11 2.412727 1_555
Na3 O7 2.424025 1_655
Na3 O2 2.480993 1_564
Na3 O23 2.481152 1_655
H0 O14 0.988718 1_555
H1 O15 0.988718 1_555
H2 O12 0.988718 1_555
H3 O13 0.988718 1_555
H4 O12 0.979364 1_555
H5 O13 0.979364 1_555
H6 O14 0.979364 1_555
H7 O15 0.979364 1_555
O0 Si0 1.627736 1_555
O0 Zr1 2.136015 1_555
O1 Si1 1.627736 1_555
O1 Zr1 2.136015 1_656
O2 Si2 1.627736 1_555
O2 Zr0 2.136015 1_556
O3 Si3 1.627736 1_555
O3 Zr0 2.136015 1_565
O4 Si0 1.615640 1_555
O4 Zr0 2.093252 1_555
O5 Si1 1.615640 1_555
O5 Zr0 2.093252 1_566
O6 Si2 1.615640 1_555
O6 Zr1 2.093252 1_656
O7 Si3 1.615640 1_555
O7 Zr1 2.093252 1_555
O8 Si4 1.616584 1_655
O8 Zr1 2.126849 1_655
O9 Si5 1.616584 1_455
O9 Zr1 2.126849 1_556
O10 Si6 1.616584 1_555
O10 Zr0 2.126849 1_556
O11 Si7 1.616584 1_555
O11 Zr0 2.126849 1_565
O16 Si4 1.659151 1_555
O16 Si0 1.679816 1_555
O17 Si5 1.659151 1_555
O17 Si1 1.679816 1_555
O18 Si6 1.659151 1_555
O18 Si2 1.679816 1_555
O19 Si7 1.659151 1_555
O19 Si3 1.679816 1_555
O20 Si7 1.642058 1_555
O20 Si0 1.665993 1_555
O21 Si6 1.642058 1_555
O21 Si1 1.665993 1_555
O22 Si5 1.642058 1_545
O22 Si2 1.665993 1_555
O23 Si4 1.642058 1_565
O23 Si3 1.665993 1_555
O24 Si7 1.631077 1_555
O24 Si6 1.631077 1_555
O25 Si4 1.631077 1_555
O25 Si5 1.631077 1_445
