# generated using pymatgen
data_KMg2AlFe(SiO4)3
_symmetry_space_group_name_H-M   'P 1'
_cell_length_a   9.23340754
_cell_length_b   10.67031504
_cell_length_c   11.40335473
_cell_angle_alpha   113.98109383
_cell_angle_beta   82.61014301
_cell_angle_gamma   90.72780031
_symmetry_Int_Tables_number   1
_chemical_formula_structural   KMg2AlFe(SiO4)3
_chemical_formula_sum   'K4 Mg8 Al4 Fe4 Si12 O48'
_cell_volume   1017.01855455
_cell_formula_units_Z   4
loop_
 _symmetry_equiv_pos_site_id
 _symmetry_equiv_pos_as_xyz
  1  'x, y, z'
loop_
 _atom_site_type_symbol
 _atom_site_label
 _atom_site_symmetry_multiplicity
 _atom_site_fract_x
 _atom_site_fract_y
 _atom_site_fract_z
 _atom_site_occupancy
  K  K0  1  0.24770900  0.63511100  0.02667900  1
  K  K1  1  0.24770400  0.13513000  0.02671400  1
  K  K2  1  0.74770800  0.38513000  0.02668000  1
  K  K3  1  0.74769900  0.88511400  0.02668100  1
  Mg  Mg0  1  0.16954700  0.99434100  0.49535000  1
  Mg  Mg1  1  0.16962200  0.49433900  0.49534300  1
  Mg  Mg2  1  0.66960000  0.74434600  0.49533500  1
  Mg  Mg3  1  0.66960500  0.24432100  0.49533100  1
  Mg  Mg4  1  0.33057500  0.75314300  0.49609500  1
  Mg  Mg5  1  0.33058700  0.25317800  0.49609500  1
  Mg  Mg6  1  0.83057400  0.50316700  0.49613700  1
  Mg  Mg7  1  0.83058800  0.00318200  0.49613500  1
  Al  Al0  1  0.04888500  0.97353100  0.22747500  1
  Al  Al1  1  0.04888600  0.47353200  0.22747600  1
  Al  Al2  1  0.54889600  0.72357700  0.22751600  1
  Al  Al3  1  0.54889300  0.22356900  0.22750900  1
  Fe  Fe0  1  0.49701900  0.99569700  0.49571600  1
  Fe  Fe1  1  0.99699000  0.74552800  0.49558900  1
  Fe  Fe2  1  0.49713000  0.49568200  0.49559500  1
  Fe  Fe3  1  0.99696100  0.24564500  0.49561300  1
  Si  Si0  1  0.38261400  0.46919200  0.22361200  1
  Si  Si1  1  0.38260400  0.96920100  0.22362600  1
  Si  Si2  1  0.88260600  0.21915900  0.22358000  1
  Si  Si3  1  0.88260100  0.71916400  0.22360000  1
  Si  Si4  1  0.45308700  0.77592400  0.76860000  1
  Si  Si5  1  0.45307700  0.27593700  0.76861300  1
  Si  Si6  1  0.95307700  0.52593800  0.76859900  1
  Si  Si7  1  0.95307600  0.02595200  0.76861100  1
  Si  Si8  1  0.12055600  0.27756700  0.76858000  1
  Si  Si9  1  0.12054800  0.77757700  0.76861500  1
  Si  Si10  1  0.62055900  0.02758400  0.76862700  1
  Si  Si11  1  0.62055600  0.52758200  0.76861100  1
  O  O0  1  0.50254300  0.34128700  0.16685200  1
  O  O1  1  0.50253400  0.84128900  0.16685300  1
  O  O2  1  0.00253100  0.09125900  0.16682700  1
  O  O3  1  0.00253000  0.59126000  0.16682900  1
  O  O4  1  0.02541300  0.92555900  0.82645300  1
  O  O5  1  0.02541900  0.42553700  0.82643800  1
  O  O6  1  0.52540000  0.67552800  0.82645900  1
  O  O7  1  0.52541300  0.17555500  0.82645700  1
  O  O8  1  0.43711000  0.58450100  0.17098200  1
  O  O9  1  0.43709700  0.08450700  0.17099200  1
  O  O10  1  0.93708300  0.33445000  0.17093200  1
  O  O11  1  0.93708400  0.83445900  0.17095500  1
  O  O12  1  0.22948600  0.91293700  0.16926500  1
  O  O13  1  0.22948800  0.41293700  0.16926700  1
  O  O14  1  0.72948000  0.66293500  0.16926500  1
  O  O15  1  0.72946400  0.16294200  0.16925500  1
  O  O16  1  0.03121800  0.17538500  0.82629800  1
  O  O17  1  0.03124600  0.67534500  0.82627200  1
  O  O18  1  0.53124100  0.92534300  0.82626400  1
  O  O19  1  0.53123900  0.42534400  0.82626000  1
  O  O20  1  0.27800100  0.80602500  0.82796600  1
  O  O21  1  0.27799500  0.30603700  0.82796500  1
  O  O22  1  0.77799100  0.55602800  0.82797100  1
  O  O23  1  0.77799200  0.05604000  0.82797900  1
  O  O24  1  0.01871500  0.04481500  0.40008000  1
  O  O25  1  0.01870400  0.54477500  0.40008900  1
  O  O26  1  0.51870100  0.79481100  0.40013100  1
  O  O27  1  0.51874800  0.29484900  0.40012200  1
  O  O28  1  0.35431800  0.53670100  0.38694000  1
  O  O29  1  0.35428400  0.03672900  0.38696400  1
  O  O30  1  0.85431300  0.28667200  0.38691900  1
  O  O31  1  0.85424600  0.78666300  0.38693900  1
  O  O32  1  0.47928800  0.71040500  0.61058900  1
  O  O33  1  0.47928000  0.21042900  0.61060900  1
  O  O34  1  0.97918700  0.46046200  0.61061000  1
  O  O35  1  0.97917600  0.96047200  0.61061800  1
  O  O36  1  0.14953000  0.21224500  0.61133600  1
  O  O37  1  0.14950300  0.71225200  0.61137600  1
  O  O38  1  0.64948700  0.96227700  0.61138000  1
  O  O39  1  0.64949000  0.46226900  0.61136700  1
  O  O40  1  0.15878600  0.78466800  0.41153600  1
  O  O41  1  0.15886700  0.28466100  0.41145900  1
  O  O42  1  0.65885000  0.53459400  0.41133900  1
  O  O43  1  0.65879000  0.03456600  0.41138100  1
  O  O44  1  0.33563200  0.96603800  0.58966200  1
  O  O45  1  0.33568500  0.46603700  0.58963400  1
  O  O46  1  0.83556800  0.71600200  0.58981600  1
  O  O47  1  0.83571100  0.21607800  0.58970400  1
loop_
_geom_bond_atom_site_label_1
_geom_bond_atom_site_label_2
_geom_bond_distance
_geom_bond_site_symmetry_2
K0 O12 2.735764 1_555
K0 O8 2.746705 1_555
K0 O3 2.747422 1_555
K1 O13 2.735539 1_555
K1 O9 2.746497 1_555
K1 O2 2.747235 1_555
K2 O14 2.735574 1_555
K2 O10 2.746425 1_555
K2 O0 2.747428 1_555
K3 O15 2.735762 1_565
K3 O11 2.746563 1_555
K3 O1 2.747352 1_555
Mg0 O40 2.051677 1_555
Mg0 O24 2.072147 1_565
Mg0 O44 2.073549 1_555
Mg0 O29 2.129378 1_565
Mg0 O36 2.153572 1_565
Mg0 O35 2.173425 1_455
Mg1 O41 2.051743 1_555
Mg1 O25 2.072411 1_555
Mg1 O45 2.073219 1_555
Mg1 O28 2.129092 1_555
Mg1 O37 2.153759 1_555
Mg1 O34 2.173884 1_455
Mg2 O42 2.052487 1_555
Mg2 O26 2.072022 1_555
Mg2 O46 2.074134 1_555
Mg2 O31 2.128502 1_555
Mg2 O38 2.153940 1_555
Mg2 O32 2.173246 1_555
Mg3 O43 2.052557 1_555
Mg3 O27 2.072098 1_555
Mg3 O47 2.073939 1_555
Mg3 O30 2.129178 1_555
Mg3 O39 2.154075 1_555
Mg3 O33 2.173279 1_555
Mg4 O40 2.056607 1_555
Mg4 O26 2.073503 1_555
Mg4 O44 2.083489 1_555
Mg4 O28 2.130053 1_555
Mg4 O37 2.143862 1_555
Mg4 O32 2.181544 1_555
Mg5 O41 2.056470 1_555
Mg5 O27 2.073816 1_555
Mg5 O45 2.083155 1_555
Mg5 O29 2.130063 1_555
Mg5 O36 2.143692 1_555
Mg5 O33 2.181642 1_555
Mg6 O42 2.057457 1_555
Mg6 O25 2.073750 1_655
Mg6 O46 2.082973 1_555
Mg6 O30 2.130625 1_555
Mg6 O39 2.143626 1_555
Mg6 O34 2.180545 1_555
Mg7 O43 2.057540 1_555
Mg7 O24 2.073880 1_655
Mg7 O47 2.083545 1_555
Mg7 O31 2.130779 1_545
Mg7 O38 2.143871 1_545
Mg7 O35 2.180493 1_545
Al0 O12 1.741609 1_555
Al0 O2 1.742273 1_565
Al0 O11 1.742964 1_455
Al0 O24 1.782592 1_565
Al1 O13 1.741618 1_555
Al1 O3 1.742270 1_555
Al1 O10 1.743077 1_455
Al1 O25 1.782686 1_555
Al2 O14 1.741632 1_555
Al2 O1 1.742268 1_555
Al2 O8 1.742922 1_555
Al2 O26 1.782712 1_555
Al3 O15 1.741490 1_555
Al3 O0 1.742241 1_555
Al3 O9 1.742857 1_555
Al3 O27 1.782672 1_555
Fe0 O43 1.807478 1_565
Fe0 O44 1.822455 1_555
Fe0 O26 1.969363 1_555
Fe0 O29 2.083993 1_565
Fe0 O33 2.123059 1_565
Fe0 O38 2.172889 1_555
Fe1 O40 1.807245 1_655
Fe1 O46 1.823898 1_555
Fe1 O25 1.968054 1_655
Fe1 O31 2.083672 1_555
Fe1 O35 2.125205 1_555
Fe1 O37 2.173610 1_655
Fe2 O42 1.806855 1_555
Fe2 O45 1.823378 1_555
Fe2 O27 1.968723 1_555
Fe2 O28 2.083593 1_555
Fe2 O32 2.123185 1_555
Fe2 O39 2.173064 1_555
Fe3 O41 1.808032 1_655
Fe3 O47 1.822040 1_555
Fe3 O24 1.968818 1_655
Fe3 O30 2.082893 1_555
Fe3 O34 2.124015 1_555
Fe3 O36 2.173987 1_655
O0 Si0 1.625968 1_555
O1 Si1 1.626020 1_555
O2 Si2 1.625910 1_455
O3 Si3 1.625957 1_455
O4 Si7 1.653649 1_465
O4 Si9 1.655162 1_555
O5 Si6 1.653715 1_455
O5 Si8 1.655056 1_555
O6 Si4 1.653711 1_555
O6 Si11 1.654944 1_555
O7 Si5 1.653565 1_555
O7 Si10 1.655124 1_555
O8 Si0 1.622979 1_555
O9 Si1 1.622972 1_545
O10 Si2 1.622891 1_555
O11 Si3 1.622922 1_555
O12 Si1 1.626315 1_555
O13 Si0 1.626301 1_555
O14 Si3 1.626163 1_555
O15 Si2 1.626275 1_555
O16 Si8 1.650229 1_555
O16 Si7 1.654083 1_455
O17 Si9 1.650099 1_555
O17 Si6 1.653970 1_455
O18 Si10 1.650105 1_565
O18 Si4 1.654000 1_555
O19 Si11 1.650157 1_555
O19 Si5 1.653921 1_555
O20 Si4 1.652239 1_555
O20 Si9 1.654907 1_555
O21 Si5 1.652172 1_555
O21 Si8 1.654962 1_555
O22 Si6 1.652248 1_555
O22 Si11 1.654799 1_555
O23 Si7 1.652221 1_555
O23 Si10 1.654742 1_555
O28 Si0 1.686727 1_555
O29 Si1 1.686831 1_545
O30 Si2 1.686840 1_555
O31 Si3 1.686854 1_555
O32 Si4 1.631612 1_555
O33 Si5 1.631542 1_555
O34 Si6 1.631383 1_555
O35 Si7 1.631422 1_565
O36 Si8 1.624203 1_555
O37 Si9 1.624145 1_555
O38 Si10 1.624225 1_565
O39 Si11 1.624194 1_555
