# generated using pymatgen
data_CeTl(PS3)2
_symmetry_space_group_name_H-M   'P 1'
_cell_length_a   7.54659000
_cell_length_b   11.47165100
_cell_length_c   12.18866429
_cell_angle_alpha   70.53415454
_cell_angle_beta   90.00000000
_cell_angle_gamma   90.00000000
_symmetry_Int_Tables_number   1
_chemical_formula_structural   CeTl(PS3)2
_chemical_formula_sum   'Ce4 Tl4 P8 S24'
_cell_volume   994.88054592
_cell_formula_units_Z   4
loop_
 _symmetry_equiv_pos_site_id
 _symmetry_equiv_pos_as_xyz
  1  'x, y, z'
loop_
 _atom_site_type_symbol
 _atom_site_label
 _atom_site_symmetry_multiplicity
 _atom_site_fract_x
 _atom_site_fract_y
 _atom_site_fract_z
 _atom_site_occupancy
  Ce  Ce0  1  0.89349000  0.40223500  0.35231200  1
  Ce  Ce1  1  0.39349000  0.09776500  0.64768800  1
  Ce  Ce2  1  0.10651000  0.59776500  0.64768800  1
  Ce  Ce3  1  0.60651000  0.90223500  0.35231200  1
  Tl  Tl0  1  0.09098000  0.12564200  0.12666000  1
  Tl  Tl1  1  0.59098000  0.37435800  0.87334000  1
  Tl  Tl2  1  0.90902000  0.87435800  0.87334000  1
  Tl  Tl3  1  0.40902000  0.62564200  0.12666000  1
  P  P0  1  0.62174200  0.22874200  0.21216700  1
  P  P1  1  0.12174200  0.27125800  0.78783300  1
  P  P2  1  0.37825800  0.77125800  0.78783300  1
  P  P3  1  0.87825800  0.72874200  0.21216700  1
  P  P4  1  0.89955700  0.25507500  0.67206700  1
  P  P5  1  0.39955700  0.24492500  0.32793300  1
  P  P6  1  0.10044300  0.74492500  0.32793300  1
  P  P7  1  0.60044300  0.75507500  0.67206700  1
  S  S0  1  0.21291300  0.35513200  0.22436400  1
  S  S1  1  0.71291300  0.14486800  0.77563600  1
  S  S2  1  0.78708700  0.64486800  0.77563600  1
  S  S3  1  0.28708700  0.85513200  0.22436400  1
  S  S4  1  0.52701500  0.12750400  0.11877700  1
  S  S5  1  0.02701500  0.37249600  0.88122300  1
  S  S6  1  0.47298500  0.87249600  0.88122300  1
  S  S7  1  0.97298500  0.62750400  0.11877700  1
  S  S8  1  0.51759500  0.31391700  0.44498700  1
  S  S9  1  0.01759500  0.18608300  0.55501300  1
  S  S10  1  0.48240500  0.68608300  0.55501300  1
  S  S11  1  0.98240500  0.81391700  0.44498700  1
  S  S12  1  0.80760200  0.13373600  0.32817000  1
  S  S13  1  0.30760200  0.36626400  0.67183000  1
  S  S14  1  0.19239800  0.86626400  0.67183000  1
  S  S15  1  0.69239800  0.63373600  0.32817000  1
  S  S16  1  0.81461800  0.43193000  0.58973700  1
  S  S17  1  0.31461800  0.06807000  0.41026300  1
  S  S18  1  0.18538200  0.56807000  0.41026300  1
  S  S19  1  0.68538200  0.93193000  0.58973700  1
  S  S20  1  0.71094700  0.40340800  0.13297600  1
  S  S21  1  0.21094700  0.09659200  0.86702400  1
  S  S22  1  0.28905300  0.59659200  0.86702400  1
  S  S23  1  0.78905300  0.90340800  0.13297600  1
loop_
_geom_bond_atom_site_label_1
_geom_bond_atom_site_label_2
_geom_bond_distance
_geom_bond_site_symmetry_2
Ce0 S15 2.986883 1_555
Ce0 S20 3.003508 1_555
Ce0 S9 3.007774 1_655
Ce0 S0 3.016037 1_655
Ce0 S16 3.082527 1_555
Ce0 S8 3.096239 1_555
Ce0 S18 3.141008 1_655
Ce0 S7 3.199663 1_555
Ce0 S12 3.255451 1_555
Ce1 S14 2.986883 1_545
Ce1 S21 3.003508 1_555
Ce1 S8 3.007774 1_555
Ce1 S1 3.016037 1_555
Ce1 S17 3.082527 1_555
Ce1 S9 3.096239 1_555
Ce1 S19 3.141008 1_545
Ce1 S6 3.199663 1_545
Ce1 S13 3.255451 1_555
Ce2 S13 2.986883 1_555
Ce2 S22 3.003508 1_555
Ce2 S11 3.007774 1_455
Ce2 S2 3.016037 1_455
Ce2 S18 3.082527 1_555
Ce2 S10 3.096239 1_555
Ce2 S16 3.141008 1_455
Ce2 S5 3.199663 1_555
Ce2 S14 3.255451 1_555
Ce3 S12 2.986883 1_565
Ce3 S23 3.003508 1_555
Ce3 S10 3.007774 1_555
Ce3 S3 3.016037 1_555
Ce3 S19 3.082527 1_555
Ce3 S11 3.096239 1_555
Ce3 S17 3.141008 1_565
Ce3 S4 3.199663 1_565
Ce3 S15 3.255451 1_555
P0 S4 2.009134 1_555
P0 S20 2.027483 1_555
P0 S12 2.031565 1_555
P0 P5 2.238643 1_555
P1 S5 2.009134 1_555
P1 S21 2.027483 1_555
P1 S13 2.031565 1_555
P1 P4 2.238643 1_455
P2 S6 2.009134 1_555
P2 S22 2.027483 1_555
P2 S14 2.031565 1_555
P2 P7 2.238643 1_555
P3 S7 2.009134 1_555
P3 S23 2.027483 1_555
P3 S15 2.031565 1_555
P3 P6 2.238643 1_655
P4 S1 2.027849 1_555
P4 S16 2.043789 1_555
P4 S9 2.051353 1_655
P5 S0 2.027849 1_555
P5 S17 2.043789 1_555
P5 S8 2.051353 1_555
P6 S3 2.027849 1_555
P6 S18 2.043789 1_555
P6 S11 2.051353 1_455
P7 S2 2.027849 1_555
P7 S19 2.043789 1_555
P7 S10 2.051353 1_555
