# generated using pymatgen
data_K4Ba2SnBi4
_symmetry_space_group_name_H-M   'P 1'
_cell_length_a   11.42411661
_cell_length_b   11.42411661
_cell_length_c   8.51271549
_cell_angle_alpha   89.05127163
_cell_angle_beta   89.05127163
_cell_angle_gamma   60.43087481
_symmetry_Int_Tables_number   1
_chemical_formula_structural   K4Ba2SnBi4
_chemical_formula_sum   'K8 Ba4 Sn2 Bi8'
_cell_volume   966.12551440
_cell_formula_units_Z   2
loop_
 _symmetry_equiv_pos_site_id
 _symmetry_equiv_pos_as_xyz
  1  'x, y, z'
loop_
 _atom_site_type_symbol
 _atom_site_label
 _atom_site_symmetry_multiplicity
 _atom_site_fract_x
 _atom_site_fract_y
 _atom_site_fract_z
 _atom_site_occupancy
  K  K0  1  0.95422427  0.52333401  0.37237308  1
  K  K1  1  0.52333401  0.95422427  0.37237308  1
  K  K2  1  0.70865105  0.13946434  0.18816110  1
  K  K3  1  0.13946434  0.70865105  0.18816110  1
  K  K4  1  0.15011383  0.15011383  0.20503117  1
  K  K5  1  0.28792867  0.85807355  0.67603625  1
  K  K6  1  0.85807355  0.28792867  0.67603625  1
  K  K7  1  0.85208493  0.85208493  0.65047128  1
  Ba  Ba0  1  0.52304341  0.52304341  0.37082537  1
  Ba  Ba1  1  0.03660688  0.48381518  0.87255487  1
  Ba  Ba2  1  0.48381518  0.03660688  0.87255487  1
  Ba  Ba3  1  0.48267226  0.48267226  0.87048595  1
  Sn  Sn0  1  0.33291999  0.33291999  0.49252877  1
  Sn  Sn1  1  0.66537352  0.66537352  -0.00220358  1
  Bi  Bi0  1  0.38096958  0.80749863  0.09994169  1
  Bi  Bi1  1  0.80749863  0.38096958  0.09994169  1
  Bi  Bi2  1  0.80840983  0.80840983  0.08010630  1
  Bi  Bi3  1  0.61298787  0.19872630  0.60361212  1
  Bi  Bi4  1  0.19872630  0.61298787  0.60361212  1
  Bi  Bi5  1  0.19450109  0.19450109  0.61798236  1
  Bi  Bi6  1  0.33684857  0.33684857  0.14122489  1
  Bi  Bi7  1  0.66236621  0.66236621  0.65100728  1
loop_
_geom_bond_atom_site_label_1
_geom_bond_atom_site_label_2
_geom_bond_distance
_geom_bond_site_symmetry_2
K0 Sn0 3.908900 1_655
K0 K3 3.952380 1_655
K0 K4 3.986863 1_655
K0 K7 4.116918 1_555
K0 K6 4.208601 1_555
K1 Sn0 3.908900 1_565
K1 K2 3.952380 1_565
K1 K4 3.986863 1_565
K1 K7 4.116918 1_555
K1 K5 4.208601 1_555
Ba0 Bi1 3.630736 1_555
Ba0 Bi0 3.630736 1_555
Ba0 Bi7 3.675195 1_555
Ba0 Bi3 3.844084 1_555
Ba0 Bi4 3.844084 1_555
Ba0 Sn0 3.874969 1_555
Ba0 K2 4.130672 1_555
Ba0 K3 4.130672 1_555
Ba0 Bi6 4.196459 1_555
Ba0 Sn1 4.199861 1_555
Ba0 K5 4.308849 1_555
Ba0 K6 4.308849 1_555
Ba0 Ba3 4.312473 1_555
Ba0 Ba3 4.348177 1_554
Ba1 Bi5 3.619092 1_555
Ba1 Bi4 3.646151 1_555
Ba1 Bi2 3.767250 1_456
Ba1 Bi6 3.776722 1_556
Ba1 Sn1 3.829724 1_456
Ba1 Bi1 3.843152 1_456
Ba1 K6 4.087547 1_455
Ba1 K7 4.102879 1_455
Ba1 Bi7 4.186767 1_455
Ba1 K3 4.302121 1_556
Ba1 K0 4.324887 1_456
Ba1 K0 4.343850 1_455
Ba1 K4 4.371555 1_556
Ba2 Bi5 3.619092 1_555
Ba2 Bi3 3.646151 1_555
Ba2 Bi2 3.767250 1_546
Ba2 Bi6 3.776722 1_556
Ba2 Sn1 3.829724 1_546
Ba2 Bi0 3.843152 1_546
Ba2 K5 4.087547 1_545
Ba2 K7 4.102879 1_545
Ba2 Bi7 4.186767 1_545
Ba2 K2 4.302121 1_556
Ba2 K1 4.324887 1_546
Ba2 K1 4.343850 1_545
Ba2 K4 4.371555 1_556
Ba3 Bi4 3.642227 1_555
Ba3 Bi3 3.642227 1_555
Ba3 Bi6 3.653351 1_556
Ba3 Sn1 3.786383 1_556
Ba3 Bi1 3.852969 1_556
Ba3 Bi0 3.852969 1_556
Ba3 Bi7 3.977970 1_555
Ba3 K6 4.068432 1_555
Ba3 K5 4.068432 1_555
Ba3 K2 4.386453 1_556
Ba3 K3 4.386453 1_556
Bi0 Sn1 2.948806 1_555
Bi0 K3 3.525532 1_555
Bi0 K4 3.595227 1_565
Bi0 K1 3.711793 1_555
Bi0 K5 3.733278 1_554
Bi1 Sn1 2.948806 1_555
Bi1 K2 3.525532 1_555
Bi1 K4 3.595227 1_655
Bi1 K0 3.711793 1_555
Bi1 K6 3.733278 1_554
Bi2 Sn1 2.922742 1_555
Bi2 K3 3.503577 1_655
Bi2 K2 3.503577 1_565
Bi2 K7 3.741528 1_554
Bi2 K1 3.753128 1_555
Bi2 K0 3.753128 1_555
Bi3 Sn0 2.948321 1_555
Bi3 K6 3.485961 1_555
Bi3 K7 3.551108 1_545
Bi3 K2 3.658064 1_555
Bi3 K1 3.974713 1_545
Bi4 Sn0 2.948321 1_555
Bi4 K5 3.485961 1_555
Bi4 K7 3.551108 1_455
Bi4 K3 3.658064 1_555
Bi4 K0 3.974713 1_455
Bi5 Sn0 2.915079 1_555
Bi5 K6 3.472896 1_455
Bi5 K5 3.472896 1_545
Bi5 K4 3.639189 1_555
Bi5 K0 3.971303 1_455
Bi5 K1 3.971303 1_545
Bi6 Sn0 2.990070 1_555
Bi6 K4 3.716386 1_555
Bi6 K3 3.722805 1_555
Bi6 K2 3.722805 1_555
Bi7 Sn1 2.953852 1_556
Bi7 K6 3.726761 1_555
Bi7 K5 3.726761 1_555
Bi7 K0 3.728544 1_555
Bi7 K1 3.728544 1_555
Bi7 K7 3.745732 1_555
