# generated using pymatgen
data_ZnSiNiO5
_symmetry_space_group_name_H-M   'P 1'
_cell_length_a   5.26412386
_cell_length_b   5.26412386
_cell_length_c   7.04585922
_cell_angle_alpha   73.66371674
_cell_angle_beta   73.66371674
_cell_angle_gamma   102.42145209
_symmetry_Int_Tables_number   1
_chemical_formula_structural   ZnSiNiO5
_chemical_formula_sum   'Zn2 Si2 Ni2 O10'
_cell_volume   170.37710425
_cell_formula_units_Z   2
loop_
 _symmetry_equiv_pos_site_id
 _symmetry_equiv_pos_as_xyz
  1  'x, y, z'
loop_
 _atom_site_type_symbol
 _atom_site_label
 _atom_site_symmetry_multiplicity
 _atom_site_fract_x
 _atom_site_fract_y
 _atom_site_fract_z
 _atom_site_occupancy
  Zn  Zn0  1  0.83227700  0.16772300  0.75000000  1
  Zn  Zn1  1  0.16772300  0.83227700  0.25000000  1
  Si  Si0  1  0.18077500  0.81922500  0.75000000  1
  Si  Si1  1  0.81922500  0.18077500  0.25000000  1
  Ni  Ni0  1  0.50000000  0.50000000  0.50000000  1
  Ni  Ni1  1  0.50000000  0.50000000  0.00000000  1
  O  O0  1  0.39090300  0.81161500  0.88105200  1
  O  O1  1  0.18838500  0.60909700  0.61894800  1
  O  O2  1  0.60909700  0.18838500  0.11894800  1
  O  O3  1  0.81161500  0.39090300  0.38105200  1
  O  O4  1  0.77601500  0.85535200  0.40352100  1
  O  O5  1  0.14464800  0.22398500  0.09647900  1
  O  O6  1  0.22398500  0.14464800  0.59647900  1
  O  O7  1  0.85535200  0.77601500  0.90352100  1
  O  O8  1  0.41209500  0.58790500  0.25000000  1
  O  O9  1  0.58790500  0.41209500  0.75000000  1
loop_
_geom_bond_atom_site_label_1
_geom_bond_atom_site_label_2
_geom_bond_distance
_geom_bond_site_symmetry_2
Ni0 O8 1.903455 1_555
Ni0 O9 1.903455 1_555
Ni0 O1 1.904133 1_555
Ni0 O3 1.904133 1_555
Ni0 O4 1.905835 1_555
Ni0 O6 1.905835 1_555
Ni1 O8 1.903455 1_555
Ni1 O9 1.903455 1_554
Ni1 O2 1.904133 1_555
Ni1 O0 1.904133 1_554
Ni1 O7 1.905835 1_554
Ni1 O5 1.905835 1_555
O0 Si0 1.628066 1_555
O0 Zn0 2.389715 1_565
O0 Zn1 2.577935 1_556
O1 Si0 1.628066 1_555
O1 Zn0 2.389715 1_455
O1 Zn1 2.577935 1_555
O2 Si1 1.628066 1_555
O2 Zn1 2.389715 1_545
O2 Zn0 2.577935 1_554
O3 Si1 1.628066 1_555
O3 Zn1 2.389715 1_655
O3 Zn0 2.577935 1_555
O4 Si1 1.675690 1_565
O4 Zn1 2.088919 1_655
O5 Si1 1.675690 1_455
O5 Zn1 2.088919 1_545
O6 Si0 1.675690 1_545
O6 Zn0 2.088919 1_455
O7 Si0 1.675690 1_655
O7 Zn0 2.088919 1_565
O8 Zn1 2.005389 1_555
O9 Zn0 2.005389 1_555
