# generated using pymatgen
data_ScSi7Ir3
_symmetry_space_group_name_H-M   'P 1'
_cell_length_a   7.93397922
_cell_length_b   7.93397922
_cell_length_c   7.93397997
_cell_angle_alpha   56.66898168
_cell_angle_beta   56.66898168
_cell_angle_gamma   56.66897604
_symmetry_Int_Tables_number   1
_chemical_formula_structural   ScSi7Ir3
_chemical_formula_sum   'Sc2 Si14 Ir6'
_cell_volume   325.98151324
_cell_formula_units_Z   2
loop_
 _symmetry_equiv_pos_site_id
 _symmetry_equiv_pos_as_xyz
  1  'x, y, z'
loop_
 _atom_site_type_symbol
 _atom_site_label
 _atom_site_symmetry_multiplicity
 _atom_site_fract_x
 _atom_site_fract_y
 _atom_site_fract_z
 _atom_site_occupancy
  Sc  Sc0  1  0.00000000  0.00000000  -0.00000000  1
  Sc  Sc1  1  0.50000000  0.50000000  0.50000000  1
  Si  Si0  1  0.75000000  0.75000000  0.75000000  1
  Si  Si1  1  0.25000000  0.25000000  0.25000000  1
  Si  Si2  1  0.85073180  0.06318936  0.67341365  1
  Si  Si3  1  0.67341365  0.85073180  0.06318936  1
  Si  Si4  1  0.06318936  0.67341365  0.85073180  1
  Si  Si5  1  0.64926820  0.82658635  0.43681064  1
  Si  Si6  1  0.43681064  0.64926820  0.82658635  1
  Si  Si7  1  0.82658635  0.43681064  0.64926820  1
  Si  Si8  1  0.17341365  0.56318936  0.35073180  1
  Si  Si9  1  0.56318936  0.35073180  0.17341365  1
  Si  Si10  1  0.35073180  0.17341365  0.56318936  1
  Si  Si11  1  0.93681064  0.32658635  0.14926820  1
  Si  Si12  1  0.32658635  0.14926820  0.93681064  1
  Si  Si13  1  0.14926820  0.93681064  0.32658635  1
  Ir  Ir0  1  0.07362955  0.42637045  0.75000000  1
  Ir  Ir1  1  0.25000000  0.92637045  0.57362955  1
  Ir  Ir2  1  0.57362955  0.25000000  0.92637045  1
  Ir  Ir3  1  0.92637045  0.57362955  0.25000000  1
  Ir  Ir4  1  0.42637045  0.75000000  0.07362955  1
  Ir  Ir5  1  0.75000000  0.07362955  0.42637045  1
loop_
_geom_bond_atom_site_label_1
_geom_bond_atom_site_label_2
_geom_bond_distance
_geom_bond_site_symmetry_2
Sc0 Si11 3.108064 1_455
Sc0 Si4 3.108064 1_544
Sc0 Si12 3.108064 1_554
Sc0 Si3 3.108064 1_445
Sc0 Si13 3.108064 1_545
Sc0 Si2 3.108064 1_454
Sc0 Si9 3.164866 1_455
Sc0 Si6 3.164866 1_544
Sc0 Si8 3.164866 1_545
Sc0 Si7 3.164866 1_454
Sc0 Si10 3.164866 1_554
Sc0 Si5 3.164866 1_445
Sc1 Si7 3.108064 1_555
Sc1 Si8 3.108064 1_555
Sc1 Si5 3.108064 1_555
Sc1 Si10 3.108064 1_555
Sc1 Si6 3.108064 1_555
Sc1 Si9 3.108064 1_555
Sc1 Si2 3.164866 1_555
Sc1 Si13 3.164866 1_555
Sc1 Si4 3.164866 1_555
Sc1 Si11 3.164866 1_555
Sc1 Si3 3.164866 1_555
Sc1 Si12 3.164866 1_555
Ir0 Si10 2.428410 1_555
Ir0 Si12 2.428410 1_555
Ir0 Si0 2.437325 1_455
Ir0 Si4 2.440826 1_555
Ir0 Si7 2.440826 1_455
Ir0 Si8 2.499883 1_555
Ir0 Si11 2.499883 1_456
Ir0 Sc0 3.040320 1_556
Ir0 Sc1 3.040320 1_555
Ir1 Si6 2.428410 1_555
Ir1 Si4 2.428410 1_555
Ir1 Si1 2.437326 1_565
Ir1 Si10 2.440826 1_565
Ir1 Si13 2.440826 1_555
Ir1 Si2 2.499882 1_465
Ir1 Si5 2.499882 1_555
Ir1 Sc1 3.040320 1_555
Ir1 Sc0 3.040321 1_566
Ir2 Si2 2.428410 1_555
Ir2 Si7 2.428410 1_555
Ir2 Si1 2.437326 1_556
Ir2 Si12 2.440826 1_555
Ir2 Si9 2.440826 1_556
Ir2 Si6 2.499882 1_555
Ir2 Si3 2.499882 1_546
Ir2 Sc0 3.040320 1_656
Ir2 Sc1 3.040321 1_555
Ir3 Si3 2.428410 1_555
Ir3 Si5 2.428410 1_555
Ir3 Si1 2.437325 1_655
Ir3 Si8 2.440826 1_655
Ir3 Si11 2.440826 1_555
Ir3 Si7 2.499883 1_555
Ir3 Si4 2.499883 1_654
Ir3 Sc0 3.040320 1_665
Ir3 Sc1 3.040320 1_555
Ir4 Si13 2.428410 1_555
Ir4 Si8 2.428410 1_555
Ir4 Si0 2.437326 1_554
Ir4 Si3 2.440826 1_555
Ir4 Si6 2.440826 1_554
Ir4 Si9 2.499882 1_555
Ir4 Si12 2.499882 1_564
Ir4 Sc0 3.040320 1_565
Ir4 Sc1 3.040321 1_555
Ir5 Si9 2.428410 1_555
Ir5 Si11 2.428410 1_555
Ir5 Si0 2.437326 1_545
Ir5 Si5 2.440826 1_545
Ir5 Si2 2.440826 1_555
Ir5 Si13 2.499882 1_645
Ir5 Si10 2.499882 1_555
Ir5 Sc1 3.040320 1_555
Ir5 Sc0 3.040321 1_655
