# generated using pymatgen
data_CaCd2
_symmetry_space_group_name_H-M   'P 1'
_cell_length_a   6.03798611
_cell_length_b   6.03798704
_cell_length_c   9.52293956
_cell_angle_alpha   90.00000000
_cell_angle_beta   90.00000000
_cell_angle_gamma   120.00000054
_symmetry_Int_Tables_number   1
_chemical_formula_structural   CaCd2
_chemical_formula_sum   'Ca4 Cd8'
_cell_volume   300.66712396
_cell_formula_units_Z   4
loop_
 _symmetry_equiv_pos_site_id
 _symmetry_equiv_pos_as_xyz
  1  'x, y, z'
loop_
 _atom_site_type_symbol
 _atom_site_label
 _atom_site_symmetry_multiplicity
 _atom_site_fract_x
 _atom_site_fract_y
 _atom_site_fract_z
 _atom_site_occupancy
  Ca  Ca0  1  0.33333300  0.66666700  0.06020152  1
  Ca  Ca1  1  0.66666700  0.33333300  0.56020152  1
  Ca  Ca2  1  0.66666700  0.33333300  0.93979848  1
  Ca  Ca3  1  0.33333300  0.66666700  0.43979848  1
  Cd  Cd0  1  0.00000000  -0.00000000  0.00000000  1
  Cd  Cd1  1  0.00000000  -0.00000000  0.50000000  1
  Cd  Cd2  1  0.34140217  0.17070058  0.25000000  1
  Cd  Cd3  1  0.17070058  0.34140217  0.75000000  1
  Cd  Cd4  1  0.17070058  0.82929942  0.75000000  1
  Cd  Cd5  1  0.82929942  0.17070058  0.25000000  1
  Cd  Cd6  1  0.82929942  0.65859783  0.25000000  1
  Cd  Cd7  1  0.65859783  0.82929942  0.75000000  1
loop_
_geom_bond_atom_site_label_1
_geom_bond_atom_site_label_2
_geom_bond_distance
_geom_bond_site_symmetry_2
Ca0 Cd7 3.408681 1_554
Ca0 Cd4 3.408681 1_554
Ca0 Cd3 3.408681 1_554
Ca0 Cd6 3.518935 1_455
Ca0 Cd2 3.518935 1_565
Ca0 Cd5 3.518940 1_455
Ca0 Cd5 3.518940 1_565
Ca0 Cd6 3.518945 1_555
Ca0 Cd2 3.518945 1_555
Ca0 Cd0 3.532856 1_565
Ca0 Cd0 3.532861 1_665
Ca0 Cd0 3.532861 1_555
Ca0 Ca3 3.614879 1_555
Ca0 Ca2 3.669751 1_454
Ca0 Ca2 3.669751 1_564
Ca0 Ca2 3.669761 1_554
Ca1 Cd2 3.408681 1_555
Ca1 Cd5 3.408681 1_555
Ca1 Cd6 3.408681 1_555
Ca1 Cd3 3.518935 1_655
Ca1 Cd7 3.518935 1_545
Ca1 Cd4 3.518940 1_655
Ca1 Cd4 3.518940 1_545
Ca1 Cd3 3.518945 1_555
Ca1 Cd7 3.518945 1_555
Ca1 Cd1 3.532856 1_655
Ca1 Cd1 3.532861 1_555
Ca1 Cd1 3.532861 1_665
Ca1 Ca2 3.614879 1_555
Ca1 Ca3 3.669751 1_655
Ca1 Ca3 3.669751 1_545
Ca1 Ca3 3.669761 1_555
Ca2 Cd2 3.408681 1_556
Ca2 Cd5 3.408681 1_556
Ca2 Cd6 3.408681 1_556
Ca2 Cd3 3.518935 1_655
Ca2 Cd7 3.518935 1_545
Ca2 Cd4 3.518940 1_655
Ca2 Cd4 3.518940 1_545
Ca2 Cd3 3.518945 1_555
Ca2 Cd7 3.518945 1_555
Ca2 Cd0 3.532856 1_656
Ca2 Cd0 3.532861 1_556
Ca2 Cd0 3.532861 1_666
Ca3 Cd7 3.408681 1_555
Ca3 Cd4 3.408681 1_555
Ca3 Cd3 3.408681 1_555
Ca3 Cd6 3.518935 1_455
Ca3 Cd2 3.518935 1_565
Ca3 Cd5 3.518940 1_455
Ca3 Cd5 3.518940 1_565
Ca3 Cd6 3.518945 1_555
Ca3 Cd2 3.518945 1_555
Ca3 Cd1 3.532856 1_565
Ca3 Cd1 3.532861 1_665
Ca3 Cd1 3.532861 1_555
Cd0 Cd5 2.975710 1_455
Cd0 Cd4 2.975710 1_544
Cd0 Cd7 2.975713 1_444
Cd0 Cd2 2.975713 1_555
Cd0 Cd3 2.975713 1_554
Cd0 Cd6 2.975713 1_445
Cd1 Cd5 2.975710 1_455
Cd1 Cd4 2.975710 1_545
Cd1 Cd7 2.975713 1_445
Cd1 Cd2 2.975713 1_555
Cd1 Cd3 2.975713 1_555
Cd1 Cd6 2.975713 1_445
Cd2 Cd5 2.945917 1_555
Cd2 Cd6 2.945917 1_555
Cd2 Cd5 3.092069 1_455
Cd2 Cd6 3.092070 1_445
Cd3 Cd7 2.945917 1_555
Cd3 Cd4 2.945917 1_555
Cd3 Cd7 3.092070 1_445
Cd3 Cd4 3.092070 1_545
Cd4 Cd7 2.945917 1_555
Cd4 Cd7 3.092069 1_455
Cd5 Cd6 2.945917 1_555
Cd5 Cd6 3.092070 1_545
