# generated using pymatgen
data_Mg2Ga
_symmetry_space_group_name_H-M   'P 1'
_cell_length_a   11.84151095
_cell_length_b   11.84151095
_cell_length_c   14.41141280
_cell_angle_alpha   78.57739275
_cell_angle_beta   78.57739275
_cell_angle_gamma   30.30438429
_symmetry_Int_Tables_number   1
_chemical_formula_structural   Mg2Ga
_chemical_formula_sum   'Mg32 Ga16'
_cell_volume   997.98321242
_cell_formula_units_Z   16
loop_
 _symmetry_equiv_pos_site_id
 _symmetry_equiv_pos_as_xyz
  1  'x, y, z'
loop_
 _atom_site_type_symbol
 _atom_site_label
 _atom_site_symmetry_multiplicity
 _atom_site_fract_x
 _atom_site_fract_y
 _atom_site_fract_z
 _atom_site_occupancy
  Mg  Mg0_0  1  0.00272500  0.00272500  0.00176400  1
  Mg  Mg0_1  1  0.00272500  0.00272500  0.50176400  1
  Mg  Mg0_2  1  0.00272500  0.50272500  0.00176400  1
  Mg  Mg0_3  1  0.00272500  0.50272500  0.50176400  1
  Mg  Mg0_4  1  0.50272500  0.00272500  0.00176400  1
  Mg  Mg0_5  1  0.50272500  0.00272500  0.50176400  1
  Mg  Mg0_6  1  0.50272500  0.50272500  0.00176400  1
  Mg  Mg0_7  1  0.50272500  0.50272500  0.50176400  1
  Mg  Mg1_0  1  0.16835550  0.16835550  0.16984900  1
  Mg  Mg1_1  1  0.16835550  0.16835550  0.66984900  1
  Mg  Mg1_2  1  0.16835550  0.66835550  0.16984900  1
  Mg  Mg1_3  1  0.16835550  0.66835550  0.66984900  1
  Mg  Mg1_4  1  0.66835550  0.16835550  0.16984900  1
  Mg  Mg1_5  1  0.66835550  0.16835550  0.66984900  1
  Mg  Mg1_6  1  0.66835550  0.66835550  0.16984900  1
  Mg  Mg1_7  1  0.66835550  0.66835550  0.66984900  1
  Mg  Mg2_0  1  0.32937700  0.32937700  0.32747000  1
  Mg  Mg2_1  1  0.32937700  0.32937700  0.82747000  1
  Mg  Mg2_2  1  0.32937700  0.82937700  0.32747000  1
  Mg  Mg2_3  1  0.32937700  0.82937700  0.82747000  1
  Mg  Mg2_4  1  0.82937700  0.32937700  0.32747000  1
  Mg  Mg2_5  1  0.82937700  0.32937700  0.82747000  1
  Mg  Mg2_6  1  0.82937700  0.82937700  0.32747000  1
  Mg  Mg2_7  1  0.82937700  0.82937700  0.82747000  1
  Mg  Mg3_0  1  0.13976700  0.13976700  0.47061050  1
  Mg  Mg3_1  1  0.13976700  0.13976700  0.97061050  1
  Mg  Mg3_2  1  0.13976700  0.63976700  0.47061050  1
  Mg  Mg3_3  1  0.13976700  0.63976700  0.97061050  1
  Mg  Mg3_4  1  0.63976700  0.13976700  0.47061050  1
  Mg  Mg3_5  1  0.63976700  0.13976700  0.97061050  1
  Mg  Mg3_6  1  0.63976700  0.63976700  0.47061050  1
  Mg  Mg3_7  1  0.63976700  0.63976700  0.97061050  1
  Ga  Ga0_0  1  0.30801250  0.30801250  0.13780050  1
  Ga  Ga0_1  1  0.30801250  0.30801250  0.63780050  1
  Ga  Ga0_2  1  0.30801250  0.80801250  0.13780050  1
  Ga  Ga0_3  1  0.30801250  0.80801250  0.63780050  1
  Ga  Ga0_4  1  0.80801250  0.30801250  0.13780050  1
  Ga  Ga0_5  1  0.80801250  0.30801250  0.63780050  1
  Ga  Ga0_6  1  0.80801250  0.80801250  0.13780050  1
  Ga  Ga0_7  1  0.80801250  0.80801250  0.63780050  1
  Ga  Ga1_0  1  0.46842900  0.46842900  0.30917250  1
  Ga  Ga1_1  1  0.46842900  0.46842900  0.80917250  1
  Ga  Ga1_2  1  0.46842900  0.96842900  0.30917250  1
  Ga  Ga1_3  1  0.46842900  0.96842900  0.80917250  1
  Ga  Ga1_4  1  0.96842900  0.46842900  0.30917250  1
  Ga  Ga1_5  1  0.96842900  0.46842900  0.80917250  1
  Ga  Ga1_6  1  0.96842900  0.96842900  0.30917250  1
  Ga  Ga1_7  1  0.96842900  0.96842900  0.80917250  1
loop_
_geom_bond_atom_site_label_1
_geom_bond_atom_site_label_2
_geom_bond_distance
_geom_bond_site_symmetry_2
Mg0_0 Mg3_1 3.072206 1_554
Mg0_0 Mg3_5 3.120898 1_454
Mg0_0 Mg3_3 3.120898 1_544
Mg0_0 Mg2_3 3.157299 1_544
Mg0_0 Mg2_5 3.157299 1_454
Mg0_0 Mg1_2 3.172599 1_545
Mg0_0 Mg1_4 3.172599 1_455
Mg0_1 Mg3_0 3.072206 1_555
Mg0_1 Mg3_4 3.120898 1_455
Mg0_1 Mg3_2 3.120898 1_545
Mg0_1 Mg2_4 3.157299 1_455
Mg0_1 Mg2_2 3.157299 1_545
Mg0_1 Mg1_3 3.172599 1_545
Mg0_1 Mg1_5 3.172599 1_455
Mg0_2 Mg3_3 3.072206 1_554
Mg0_2 Mg3_1 3.120898 1_554
Mg0_2 Mg3_7 3.120898 1_454
Mg0_2 Mg2_1 3.157299 1_554
Mg0_2 Mg2_7 3.157299 1_454
Mg0_2 Mg1_0 3.172599 1_555
Mg0_2 Mg1_6 3.172599 1_455
Mg0_3 Mg3_2 3.072206 1_555
Mg0_3 Mg3_6 3.120898 1_455
Mg0_3 Mg3_0 3.120898 1_555
Mg0_3 Mg2_0 3.157299 1_555
Mg0_3 Mg2_6 3.157299 1_455
Mg0_3 Mg1_7 3.172599 1_455
Mg0_3 Mg1_1 3.172599 1_555
Mg0_4 Mg3_5 3.072206 1_554
Mg0_4 Mg3_1 3.120898 1_554
Mg0_4 Mg3_7 3.120898 1_544
Mg0_4 Mg2_1 3.157299 1_554
Mg0_4 Mg2_7 3.157299 1_544
Mg0_4 Mg1_0 3.172599 1_555
Mg0_4 Mg1_6 3.172599 1_545
Mg0_5 Mg3_4 3.072206 1_555
Mg0_5 Mg3_6 3.120898 1_545
Mg0_5 Mg3_0 3.120898 1_555
Mg0_5 Mg2_0 3.157299 1_555
Mg0_5 Mg2_6 3.157299 1_545
Mg0_5 Mg1_7 3.172599 1_545
Mg0_5 Mg1_1 3.172599 1_555
Mg0_6 Mg3_7 3.072206 1_554
Mg0_6 Mg3_3 3.120898 1_554
Mg0_6 Mg3_5 3.120898 1_554
Mg0_6 Mg2_3 3.157299 1_554
Mg0_6 Mg2_5 3.157299 1_554
Mg0_6 Mg1_4 3.172599 1_555
Mg0_6 Mg1_2 3.172599 1_555
Mg0_7 Mg3_6 3.072206 1_555
Mg0_7 Mg3_4 3.120898 1_555
Mg0_7 Mg3_2 3.120898 1_555
Mg0_7 Mg2_2 3.157299 1_555
Mg0_7 Mg2_4 3.157299 1_555
Mg0_7 Mg1_3 3.172599 1_555
Mg0_7 Mg1_5 3.172599 1_555
Mg1_0 Mg3_1 3.072706 1_554
Mg1_0 Mg1_6 3.095180 1_455
Mg1_0 Mg1_6 3.095180 1_545
Mg1_0 Mg2_2 3.129886 1_545
Mg1_0 Mg2_4 3.129886 1_455
Mg1_1 Mg3_0 3.072706 1_555
Mg1_1 Mg1_7 3.095180 1_455
Mg1_1 Mg1_7 3.095180 1_545
Mg1_1 Mg2_3 3.129886 1_545
Mg1_1 Mg2_5 3.129886 1_455
Mg1_2 Mg3_3 3.072706 1_554
Mg1_2 Mg1_4 3.095180 1_555
Mg1_2 Mg1_4 3.095180 1_465
Mg1_2 Mg2_6 3.129886 1_455
Mg1_2 Mg2_0 3.129886 1_555
Mg1_3 Mg3_2 3.072706 1_555
Mg1_3 Mg1_5 3.095180 1_555
Mg1_3 Mg1_5 3.095180 1_465
Mg1_3 Mg2_1 3.129886 1_555
Mg1_3 Mg2_7 3.129886 1_455
Mg1_4 Mg3_5 3.072706 1_554
Mg1_4 Mg2_6 3.129886 1_545
Mg1_4 Mg2_0 3.129886 1_555
Mg1_5 Mg3_4 3.072706 1_555
Mg1_5 Mg2_1 3.129886 1_555
Mg1_5 Mg2_7 3.129886 1_545
Mg1_6 Mg3_7 3.072706 1_554
Mg1_6 Mg2_4 3.129886 1_555
Mg1_6 Mg2_2 3.129886 1_555
Mg1_7 Mg3_6 3.072706 1_555
Mg1_7 Mg2_3 3.129886 1_555
Mg1_7 Mg2_5 3.129886 1_555
Mg2_0 Mg2_6 3.095180 1_455
Mg2_0 Mg2_6 3.095180 1_545
Mg2_0 Mg3_2 3.118457 1_555
Mg2_0 Mg3_4 3.118457 1_555
Mg2_1 Mg2_7 3.095180 1_455
Mg2_1 Mg2_7 3.095180 1_545
Mg2_1 Mg3_5 3.118457 1_555
Mg2_1 Mg3_3 3.118457 1_555
Mg2_2 Mg2_4 3.095180 1_555
Mg2_2 Mg2_4 3.095180 1_465
Mg2_2 Mg3_0 3.118457 1_565
Mg2_2 Mg3_6 3.118457 1_555
Mg2_3 Mg2_5 3.095180 1_555
Mg2_3 Mg2_5 3.095180 1_465
Mg2_3 Mg3_1 3.118457 1_565
Mg2_3 Mg3_7 3.118457 1_555
Mg2_4 Mg3_0 3.118457 1_655
Mg2_4 Mg3_6 3.118457 1_555
Mg2_5 Mg3_7 3.118457 1_555
Mg2_5 Mg3_1 3.118457 1_655
Mg2_6 Mg3_4 3.118457 1_565
Mg2_6 Mg3_2 3.118457 1_655
Mg2_7 Mg3_3 3.118457 1_655
Mg2_7 Mg3_5 3.118457 1_565
Mg3_0 Mg3_6 3.095180 1_545
Mg3_0 Mg3_6 3.095180 1_455
Mg3_1 Mg3_7 3.095180 1_545
Mg3_1 Mg3_7 3.095180 1_455
Mg3_2 Mg3_4 3.095180 1_555
Mg3_2 Mg3_4 3.095180 1_465
Mg3_3 Mg3_5 3.095180 1_555
Mg3_3 Mg3_5 3.095180 1_465
Ga0_0 Mg2_0 2.873644 1_555
Ga0_0 Mg0_2 2.975331 1_555
Ga0_0 Mg0_4 2.975331 1_555
Ga0_0 Mg1_4 3.073914 1_555
Ga0_0 Mg1_2 3.073914 1_555
Ga0_0 Mg1_0 3.130558 1_555
Ga0_0 Mg3_5 3.137732 1_554
Ga0_0 Mg3_3 3.137732 1_554
Ga0_1 Mg2_1 2.873644 1_555
Ga0_1 Mg0_5 2.975331 1_555
Ga0_1 Mg0_3 2.975331 1_555
Ga0_1 Mg1_5 3.073914 1_555
Ga0_1 Mg1_3 3.073914 1_555
Ga0_1 Mg1_1 3.130558 1_555
Ga0_1 Mg3_2 3.137732 1_555
Ga0_1 Mg3_4 3.137732 1_555
Ga0_2 Mg2_2 2.873644 1_555
Ga0_2 Mg0_0 2.975331 1_565
Ga0_2 Mg0_6 2.975331 1_555
Ga0_2 Mg1_6 3.073914 1_555
Ga0_2 Mg1_0 3.073914 1_565
Ga0_2 Mg1_2 3.130558 1_555
Ga0_2 Mg3_1 3.137732 1_564
Ga0_2 Mg3_7 3.137732 1_554
Ga0_3 Mg2_3 2.873644 1_555
Ga0_3 Mg0_1 2.975331 1_565
Ga0_3 Mg0_7 2.975331 1_555
Ga0_3 Mg1_1 3.073914 1_565
Ga0_3 Mg1_7 3.073914 1_555
Ga0_3 Mg1_3 3.130558 1_555
Ga0_3 Mg3_0 3.137732 1_565
Ga0_3 Mg3_6 3.137732 1_555
Ga0_4 Mg2_4 2.873644 1_555
Ga0_4 Mg0_0 2.975331 1_655
Ga0_4 Mg0_6 2.975331 1_555
Ga0_4 Mg1_6 3.073914 1_555
Ga0_4 Mg1_0 3.073914 1_655
Ga0_4 Mg1_4 3.130558 1_555
Ga0_4 Mg3_1 3.137732 1_654
Ga0_4 Mg3_7 3.137732 1_554
Ga0_5 Mg2_5 2.873644 1_555
Ga0_5 Mg0_1 2.975331 1_655
Ga0_5 Mg0_7 2.975331 1_555
Ga0_5 Mg1_1 3.073914 1_655
Ga0_5 Mg1_7 3.073914 1_555
Ga0_5 Mg1_5 3.130558 1_555
Ga0_5 Mg3_0 3.137732 1_655
Ga0_5 Mg3_6 3.137732 1_555
Ga0_6 Mg2_6 2.873644 1_555
Ga0_6 Mg0_4 2.975331 1_565
Ga0_6 Mg0_2 2.975331 1_655
Ga0_6 Mg1_4 3.073914 1_565
Ga0_6 Mg1_2 3.073914 1_655
Ga0_6 Mg1_6 3.130558 1_555
Ga0_6 Mg3_3 3.137732 1_654
Ga0_6 Mg3_5 3.137732 1_564
Ga0_7 Mg2_7 2.873644 1_555
Ga0_7 Mg0_3 2.975331 1_655
Ga0_7 Mg0_5 2.975331 1_565
Ga0_7 Mg1_3 3.073914 1_655
Ga0_7 Mg1_5 3.073914 1_565
Ga0_7 Mg1_7 3.130558 1_555
Ga0_7 Mg3_2 3.137732 1_655
Ga0_7 Mg3_4 3.137732 1_565
Ga1_0 Mg1_2 2.946162 1_555
Ga1_0 Mg1_4 2.946162 1_555
Ga1_0 Mg2_2 3.028448 1_555
Ga1_0 Mg2_4 3.028448 1_555
Ga1_0 Mg0_7 3.034973 1_555
Ga1_0 Mg3_4 3.053621 1_555
Ga1_0 Mg3_2 3.053621 1_555
Ga1_0 Mg2_0 3.135221 1_555
Ga1_1 Mg1_3 2.946162 1_555
Ga1_1 Mg1_5 2.946162 1_555
Ga1_1 Mg2_3 3.028448 1_555
Ga1_1 Mg2_5 3.028448 1_555
Ga1_1 Mg0_6 3.034973 1_556
Ga1_1 Mg3_3 3.053621 1_555
Ga1_1 Mg3_5 3.053621 1_555
Ga1_1 Mg2_1 3.135221 1_555
Ga1_2 Mg1_0 2.946162 1_565
Ga1_2 Mg1_6 2.946162 1_555
Ga1_2 Mg2_6 3.028448 1_555
Ga1_2 Mg2_0 3.028448 1_565
Ga1_2 Mg0_5 3.034973 1_565
Ga1_2 Mg3_6 3.053621 1_555
Ga1_2 Mg3_0 3.053621 1_565
Ga1_2 Mg2_2 3.135221 1_555
Ga1_3 Mg1_7 2.946162 1_555
Ga1_3 Mg1_1 2.946162 1_565
Ga1_3 Mg2_7 3.028448 1_555
Ga1_3 Mg2_1 3.028448 1_565
Ga1_3 Mg0_4 3.034973 1_566
Ga1_3 Mg3_7 3.053621 1_555
Ga1_3 Mg3_1 3.053621 1_565
Ga1_3 Mg2_3 3.135221 1_555
Ga1_4 Mg1_0 2.946162 1_655
Ga1_4 Mg1_6 2.946162 1_555
Ga1_4 Mg2_6 3.028448 1_555
Ga1_4 Mg2_0 3.028448 1_655
Ga1_4 Mg0_3 3.034973 1_655
Ga1_4 Mg3_6 3.053621 1_555
Ga1_4 Mg3_0 3.053621 1_655
Ga1_4 Mg2_4 3.135221 1_555
Ga1_5 Mg1_7 2.946162 1_555
Ga1_5 Mg1_1 2.946162 1_655
Ga1_5 Mg2_7 3.028448 1_555
Ga1_5 Mg2_1 3.028448 1_655
Ga1_5 Mg0_2 3.034973 1_656
Ga1_5 Mg3_7 3.053621 1_555
Ga1_5 Mg3_1 3.053621 1_655
Ga1_5 Mg2_5 3.135221 1_555
Ga1_6 Mg1_2 2.946162 1_655
Ga1_6 Mg1_4 2.946162 1_565
Ga1_6 Mg2_2 3.028448 1_655
Ga1_6 Mg2_4 3.028448 1_565
Ga1_6 Mg0_1 3.034973 1_665
Ga1_6 Mg3_4 3.053621 1_565
Ga1_6 Mg3_2 3.053621 1_655
Ga1_6 Mg2_6 3.135221 1_555
Ga1_7 Mg1_3 2.946162 1_655
Ga1_7 Mg1_5 2.946162 1_565
Ga1_7 Mg2_5 3.028448 1_565
Ga1_7 Mg2_3 3.028448 1_655
Ga1_7 Mg0_0 3.034973 1_666
Ga1_7 Mg3_3 3.053621 1_655
Ga1_7 Mg3_5 3.053621 1_565
Ga1_7 Mg2_7 3.135221 1_555
