# generated using pymatgen
data_Dy2(Ga3Rh)3
_symmetry_space_group_name_H-M   'P 1'
_cell_length_a   7.47045129
_cell_length_b   7.47045129
_cell_length_c   9.48058477
_cell_angle_alpha   90.00000000
_cell_angle_beta   90.00000000
_cell_angle_gamma   119.73536481
_symmetry_Int_Tables_number   1
_chemical_formula_structural   Dy2(Ga3Rh)3
_chemical_formula_sum   'Dy4 Ga18 Rh6'
_cell_volume   459.42156293
_cell_formula_units_Z   2
loop_
 _symmetry_equiv_pos_site_id
 _symmetry_equiv_pos_as_xyz
  1  'x, y, z'
loop_
 _atom_site_type_symbol
 _atom_site_label
 _atom_site_symmetry_multiplicity
 _atom_site_fract_x
 _atom_site_fract_y
 _atom_site_fract_z
 _atom_site_occupancy
  Dy  Dy0  1  0.99797955  0.66925872  0.25000000  1
  Dy  Dy1  1  0.00202045  0.33074128  0.75000000  1
  Dy  Dy2  1  0.66925872  0.99797955  0.25000000  1
  Dy  Dy3  1  0.33074128  0.00202045  0.75000000  1
  Ga  Ga0  1  0.12813752  0.12813752  0.25000000  1
  Ga  Ga1  1  0.87186248  0.87186248  0.75000000  1
  Ga  Ga2  1  0.00195739  0.33452249  0.07777060  1
  Ga  Ga3  1  0.99804261  0.66547751  0.92222940  1
  Ga  Ga4  1  0.99804261  0.66547751  0.57777060  1
  Ga  Ga5  1  0.33452249  0.00195739  0.42222940  1
  Ga  Ga6  1  0.00195739  0.33452249  0.42222940  1
  Ga  Ga7  1  0.66547751  0.99804261  0.57777060  1
  Ga  Ga8  1  0.66547751  0.99804261  0.92222940  1
  Ga  Ga9  1  0.33452249  0.00195739  0.07777060  1
  Ga  Ga10  1  0.33452783  0.33452783  0.56603840  1
  Ga  Ga11  1  0.66547217  0.66547217  0.43396160  1
  Ga  Ga12  1  0.66547217  0.66547217  0.06603840  1
  Ga  Ga13  1  0.33452783  0.33452783  0.93396160  1
  Ga  Ga14  1  0.33727616  0.54530532  0.25000000  1
  Ga  Ga15  1  0.66272384  0.45469468  0.75000000  1
  Ga  Ga16  1  0.54530532  0.33727616  0.25000000  1
  Ga  Ga17  1  0.45469468  0.66272384  0.75000000  1
  Rh  Rh0  1  0.67146194  0.32853806  0.00000000  1
  Rh  Rh1  1  0.32853806  0.67146194  0.00000000  1
  Rh  Rh2  1  0.32853806  0.67146194  0.50000000  1
  Rh  Rh3  1  0.67146194  0.32853806  0.50000000  1
  Rh  Rh4  1  0.00000000  0.00000000  0.00000000  1
  Rh  Rh5  1  0.00000000  0.00000000  0.50000000  1
loop_
_geom_bond_atom_site_label_1
_geom_bond_atom_site_label_2
_geom_bond_distance
_geom_bond_site_symmetry_2
Dy0 Ga5 2.994272 1_665
Dy0 Ga9 2.994272 1_665
Dy0 Ga6 2.998984 1_655
Dy0 Ga2 2.998984 1_655
Dy0 Ga11 3.023742 1_555
Dy0 Ga12 3.023742 1_555
Dy0 Ga16 3.044154 1_555
Dy0 Ga0 3.064366 1_665
Dy0 Ga14 3.100073 1_655
Dy0 Ga4 3.107588 1_555
Dy0 Ga3 3.107588 1_554
Dy1 Ga8 2.994272 1_445
Dy1 Ga7 2.994272 1_445
Dy1 Ga4 2.998984 1_455
Dy1 Ga3 2.998984 1_455
Dy1 Ga13 3.023742 1_555
Dy1 Ga10 3.023742 1_555
Dy1 Ga17 3.044154 1_555
Dy1 Ga1 3.064366 1_445
Dy1 Ga15 3.100073 1_455
Dy1 Ga2 3.107588 1_556
Dy1 Ga6 3.107588 1_555
Dy2 Ga6 2.994272 1_665
Dy2 Ga2 2.994272 1_665
Dy2 Ga5 2.998984 1_565
Dy2 Ga9 2.998984 1_565
Dy2 Ga11 3.023742 1_555
Dy2 Ga12 3.023742 1_555
Dy2 Ga14 3.044154 1_555
Dy2 Ga0 3.064366 1_665
Dy2 Ga16 3.100073 1_565
Dy2 Ga8 3.107588 1_554
Dy2 Ga7 3.107588 1_555
Dy3 Ga3 2.994272 1_445
Dy3 Ga4 2.994272 1_445
Dy3 Ga7 2.998984 1_545
Dy3 Ga8 2.998984 1_545
Dy3 Ga13 3.023742 1_555
Dy3 Ga10 3.023742 1_555
Dy3 Ga15 3.044154 1_555
Dy3 Ga1 3.064366 1_445
Dy3 Ga17 3.100073 1_545
Dy3 Ga9 3.107588 1_556
Dy3 Ga5 3.107588 1_555
Ga0 Rh4 2.557587 1_555
Ga0 Rh5 2.557587 1_555
Ga0 Ga16 2.706128 1_555
Ga0 Ga14 2.706128 1_555
Ga0 Ga5 2.715416 1_555
Ga0 Ga6 2.715416 1_555
Ga0 Ga9 2.715416 1_555
Ga0 Ga2 2.715416 1_555
Ga1 Rh4 2.557587 1_666
Ga1 Rh5 2.557587 1_665
Ga1 Ga17 2.706128 1_555
Ga1 Ga15 2.706128 1_555
Ga1 Ga7 2.715416 1_555
Ga1 Ga4 2.715416 1_555
Ga1 Ga3 2.715416 1_555
Ga1 Ga8 2.715416 1_555
Ga2 Rh0 2.555748 1_455
Ga2 Rh1 2.596106 1_555
Ga2 Rh4 2.598608 1_555
Ga2 Ga3 2.891327 1_454
Ga2 Ga8 2.922942 1_444
Ga3 Rh1 2.555748 1_656
Ga3 Rh0 2.596106 1_556
Ga3 Rh4 2.598608 1_666
Ga3 Ga9 2.922942 1_666
Ga4 Rh2 2.555748 1_655
Ga4 Rh3 2.596106 1_555
Ga4 Rh5 2.598608 1_665
Ga4 Ga6 2.891327 1_655
Ga4 Ga5 2.922942 1_665
Ga5 Rh2 2.555748 1_545
Ga5 Rh3 2.596106 1_555
Ga5 Rh5 2.598608 1_555
Ga5 Ga7 2.891327 1_545
Ga6 Rh3 2.555748 1_455
Ga6 Rh2 2.596106 1_555
Ga6 Rh5 2.598608 1_555
Ga6 Ga7 2.922942 1_445
Ga7 Rh3 2.555748 1_565
Ga7 Rh2 2.596106 1_555
Ga7 Rh5 2.598608 1_665
Ga8 Rh0 2.555748 1_566
Ga8 Rh1 2.596106 1_556
Ga8 Rh4 2.598608 1_666
Ga8 Ga9 2.891327 1_566
Ga9 Rh1 2.555748 1_545
Ga9 Rh0 2.596106 1_555
Ga9 Rh4 2.598608 1_555
Ga10 Rh5 2.585997 1_555
Ga10 Rh2 2.615578 1_555
Ga10 Rh3 2.615578 1_555
Ga10 Ga17 2.770467 1_555
Ga10 Ga15 2.770467 1_555
Ga10 Ga11 2.780138 1_555
Ga10 Ga6 2.833944 1_555
Ga10 Ga5 2.833944 1_555
Ga11 Rh5 2.585997 1_665
Ga11 Rh2 2.615578 1_555
Ga11 Rh3 2.615578 1_555
Ga11 Ga14 2.770467 1_555
Ga11 Ga16 2.770467 1_555
Ga11 Ga7 2.833944 1_555
Ga11 Ga4 2.833944 1_555
Ga12 Rh4 2.585997 1_665
Ga12 Rh0 2.615578 1_555
Ga12 Rh1 2.615578 1_555
Ga12 Ga14 2.770467 1_555
Ga12 Ga16 2.770467 1_555
Ga12 Ga13 2.780138 1_554
Ga12 Ga8 2.833944 1_554
Ga12 Ga3 2.833944 1_554
Ga13 Rh4 2.585997 1_556
Ga13 Rh0 2.615578 1_556
Ga13 Rh1 2.615578 1_556
Ga13 Ga17 2.770467 1_555
Ga13 Ga15 2.770467 1_555
Ga13 Ga2 2.833944 1_556
Ga13 Ga9 2.833944 1_556
Ga14 Rh1 2.563413 1_555
Ga14 Rh2 2.563413 1_555
Ga14 Ga16 2.688135 1_555
Ga14 Ga6 2.740024 1_555
Ga14 Ga2 2.740024 1_555
Ga15 Rh3 2.563413 1_555
Ga15 Rh0 2.563413 1_556
Ga15 Ga17 2.688135 1_555
Ga15 Ga3 2.740024 1_555
Ga15 Ga4 2.740024 1_555
Ga16 Rh3 2.563413 1_555
Ga16 Rh0 2.563413 1_555
Ga16 Ga5 2.740024 1_555
Ga16 Ga9 2.740024 1_555
Ga17 Rh1 2.563413 1_556
Ga17 Rh2 2.563413 1_555
Ga17 Ga8 2.740024 1_555
Ga17 Ga7 2.740024 1_555
