# generated using pymatgen
data_GdH2C2SNO9
_symmetry_space_group_name_H-M   'P 1'
_cell_length_a   8.84140100
_cell_length_b   6.67209100
_cell_length_c   15.43610792
_cell_angle_alpha   66.96591773
_cell_angle_beta   90.00000000
_cell_angle_gamma   90.00000000
_symmetry_Int_Tables_number   1
_chemical_formula_structural   GdH2C2SNO9
_chemical_formula_sum   'Gd4 H8 C8 S4 N4 O36'
_cell_volume   837.98682217
_cell_formula_units_Z   4
loop_
 _symmetry_equiv_pos_site_id
 _symmetry_equiv_pos_as_xyz
  1  'x, y, z'
loop_
 _atom_site_type_symbol
 _atom_site_label
 _atom_site_symmetry_multiplicity
 _atom_site_fract_x
 _atom_site_fract_y
 _atom_site_fract_z
 _atom_site_occupancy
  Gd  Gd0  1  0.73120300  0.32781700  0.41724700  1
  Gd  Gd1  1  0.76879700  0.32781700  0.91724700  1
  Gd  Gd2  1  0.26879700  0.67218300  0.58275300  1
  Gd  Gd3  1  0.23120300  0.67218300  0.08275300  1
  H  H0  1  0.88655700  0.19754300  0.59870700  1
  H  H1  1  0.61344300  0.19754300  0.09870700  1
  H  H2  1  0.11344300  0.80245700  0.40129300  1
  H  H3  1  0.38655700  0.80245700  0.90129300  1
  H  H4  1  0.02686100  0.24946000  0.53304600  1
  H  H5  1  0.47313900  0.24946000  0.03304600  1
  H  H6  1  0.97313900  0.75054000  0.46695400  1
  H  H7  1  0.52686100  0.75054000  0.96695400  1
  C  C0  1  0.02895500  0.60717200  0.27741400  1
  C  C1  1  0.47104500  0.60717200  0.77741400  1
  C  C2  1  0.97104500  0.39282800  0.72258600  1
  C  C3  1  0.52895500  0.39282800  0.22258600  1
  C  C4  1  0.02295500  0.34192500  0.26469100  1
  C  C5  1  0.47704500  0.34192500  0.76469100  1
  C  C6  1  0.97704500  0.65807500  0.73530900  1
  C  C7  1  0.52295500  0.65807500  0.23530900  1
  S  S0  1  0.33465700  0.26500600  0.47399200  1
  S  S1  1  0.16534300  0.26500600  0.97399200  1
  S  S2  1  0.66534300  0.73499400  0.52600800  1
  S  S3  1  0.83465800  0.73499400  0.02600800  1
  N  N0  1  0.84264100  0.04564100  0.19198100  1
  N  N1  1  0.65735900  0.04564100  0.69198100  1
  N  N2  1  0.15735900  0.95435900  0.80801900  1
  N  N3  1  0.34264100  0.95435900  0.30801900  1
  O  O0  1  0.50271700  0.26635100  0.48792500  1
  O  O1  1  0.99728300  0.26635100  0.98792500  1
  O  O2  1  0.49728300  0.73364900  0.51207500  1
  O  O3  1  0.00271700  0.73364900  0.01207500  1
  O  O4  1  0.26214400  0.42307100  0.50880800  1
  O  O5  1  0.23785600  0.42307100  0.00880800  1
  O  O6  1  0.73785600  0.57692900  0.49119200  1
  O  O7  1  0.76214400  0.57692900  0.99119200  1
  O  O8  1  0.29875400  0.32229900  0.37471900  1
  O  O9  1  0.20124600  0.32229900  0.87471900  1
  O  O10  1  0.70124600  0.67770100  0.62528100  1
  O  O11  1  0.79875400  0.67770100  0.12528100  1
  O  O12  1  0.27550100  0.04500400  0.53493900  1
  O  O13  1  0.22449900  0.04500400  0.03493900  1
  O  O14  1  0.72449900  0.95499600  0.46506100  1
  O  O15  1  0.77550100  0.95499600  0.96506100  1
  O  O16  1  0.94273600  0.60439700  0.34019500  1
  O  O17  1  0.55726400  0.60439700  0.84019500  1
  O  O18  1  0.05726400  0.39560300  0.65980500  1
  O  O19  1  0.44273600  0.39560300  0.15980500  1
  O  O20  1  0.93657900  0.22021200  0.32396300  1
  O  O21  1  0.56342100  0.22021200  0.82396300  1
  O  O22  1  0.06342100  0.77978800  0.67603700  1
  O  O23  1  0.43657900  0.77978800  0.17603700  1
  O  O24  1  0.10406100  0.34731800  0.19960300  1
  O  O25  1  0.39593900  0.34731800  0.69960300  1
  O  O26  1  0.89593900  0.65268200  0.80039700  1
  O  O27  1  0.60406100  0.65268200  0.30039700  1
  O  O28  1  0.11864600  0.72990000  0.22092500  1
  O  O29  1  0.38135400  0.72990000  0.72092500  1
  O  O30  1  0.88135400  0.27010000  0.77907500  1
  O  O31  1  0.61864600  0.27010000  0.27907500  1
  O  O32  1  0.92108900  0.20279600  0.53782800  1
  O  O33  1  0.57891100  0.20279600  0.03782800  1
  O  O34  1  0.07891100  0.79720400  0.46217200  1
  O  O35  1  0.42108900  0.79720400  0.96217200  1
loop_
_geom_bond_atom_site_label_1
_geom_bond_atom_site_label_2
_geom_bond_distance
_geom_bond_site_symmetry_2
Gd0 O0 2.255941 1_555
Gd0 O14 2.301992 1_545
Gd0 O6 2.356589 1_555
Gd0 O32 2.400794 1_555
Gd0 O27 2.481068 1_555
Gd0 O31 2.516026 1_555
Gd0 O16 2.569094 1_555
Gd0 O20 2.587483 1_555
Gd1 O1 2.255941 1_555
Gd1 O15 2.301992 1_545
Gd1 O7 2.356589 1_555
Gd1 O33 2.400794 1_556
Gd1 O26 2.481068 1_555
Gd1 O30 2.516026 1_555
Gd1 O17 2.569094 1_555
Gd1 O21 2.587483 1_555
Gd2 O2 2.255941 1_555
Gd2 O12 2.301992 1_565
Gd2 O4 2.356589 1_555
Gd2 O34 2.400794 1_555
Gd2 O25 2.481068 1_555
Gd2 O29 2.516026 1_555
Gd2 O18 2.569094 1_555
Gd2 O22 2.587483 1_555
Gd3 O3 2.255941 1_555
Gd3 O13 2.301992 1_565
Gd3 O5 2.356589 1_555
Gd3 O35 2.400794 1_554
Gd3 O24 2.481068 1_555
Gd3 O28 2.516026 1_555
Gd3 O19 2.569094 1_555
Gd3 O23 2.587483 1_555
H0 O32 0.975587 1_555
H1 O33 0.975587 1_555
H2 O34 0.975587 1_555
H3 O35 0.975587 1_555
H4 O32 0.979259 1_455
H5 O33 0.979259 1_555
H6 O34 0.979259 1_655
H7 O35 0.979259 1_555
C0 O28 1.225126 1_555
C0 O16 1.227413 1_455
C1 O29 1.225126 1_555
C1 O17 1.227413 1_555
C2 O30 1.225126 1_555
C2 O18 1.227413 1_655
C3 O31 1.225126 1_555
C3 O19 1.227413 1_555
C4 O24 1.223379 1_555
C4 O20 1.224070 1_455
C5 O25 1.223379 1_555
C5 O21 1.224070 1_555
C6 O26 1.223379 1_555
C6 O22 1.224070 1_655
C7 O27 1.223379 1_555
C7 O23 1.224070 1_555
O0 S0 1.501900 1_555
O1 S1 1.501900 1_655
O2 S2 1.501900 1_555
O3 S3 1.501891 1_455
O4 S0 1.501873 1_555
O5 S1 1.501873 1_554
O6 S2 1.501873 1_555
O7 S3 1.501877 1_556
O8 S0 1.461746 1_555
O9 S1 1.461746 1_555
O10 S2 1.461746 1_555
O11 S3 1.461748 1_555
O12 S0 1.494190 1_555
O13 S1 1.494190 1_554
O14 S2 1.494190 1_555
O15 S3 1.494194 1_556
