# generated using pymatgen
data_Eu3W
_symmetry_space_group_name_H-M   'P 1'
_cell_length_a   5.79169153
_cell_length_b   5.79169153
_cell_length_c   5.79169153
_cell_angle_alpha   128.39075385
_cell_angle_beta   128.39075385
_cell_angle_gamma   75.99287196
_symmetry_Int_Tables_number   1
_chemical_formula_structural   Eu3W
_chemical_formula_sum   'Eu3 W1'
_cell_volume   116.04176124
_cell_formula_units_Z   1
loop_
 _symmetry_equiv_pos_site_id
 _symmetry_equiv_pos_as_xyz
  1  'x, y, z'
loop_
 _atom_site_type_symbol
 _atom_site_label
 _atom_site_symmetry_multiplicity
 _atom_site_fract_x
 _atom_site_fract_y
 _atom_site_fract_z
 _atom_site_occupancy
  Eu  Eu0  1  0.74999900  0.24999900  0.50000000  1
  Eu  Eu1  1  0.24999900  0.74999900  0.50000000  1
  Eu  Eu2  1  0.50000000  0.50000000  0.00000000  1
  W  W0  1  0.00000000  0.00000000  0.00000000  1
loop_
_geom_bond_atom_site_label_1
_geom_bond_atom_site_label_2
_geom_bond_distance
_geom_bond_site_symmetry_2
Eu0 Eu2 3.400583 1_556
Eu0 Eu2 3.400583 1_545
Eu0 W0 3.400583 1_656
Eu0 W0 3.400583 1_555
Eu0 Eu2 3.400596 1_555
Eu0 W0 3.400596 1_655
Eu0 Eu2 3.400596 1_656
Eu0 W0 3.400596 1_666
Eu0 Eu1 3.565437 1_555
Eu0 Eu1 3.565437 1_645
Eu0 Eu1 3.565437 1_656
Eu0 Eu1 3.565437 1_544
Eu1 W0 3.400583 1_566
Eu1 Eu2 3.400583 1_455
Eu1 Eu2 3.400583 1_556
Eu1 W0 3.400583 1_555
Eu1 Eu2 3.400596 1_555
Eu1 W0 3.400596 1_565
Eu1 W0 3.400596 1_666
Eu1 Eu2 3.400596 1_566
Eu2 W0 3.565437 1_666
Eu2 W0 3.565437 1_655
Eu2 W0 3.565437 1_565
Eu2 W0 3.565437 1_554
