# generated using pymatgen
data_K2CuCl4
_symmetry_space_group_name_H-M   'P 1'
_cell_length_a   7.05355800
_cell_length_b   9.34649000
_cell_length_c   12.17177400
_cell_angle_alpha   90.00000000
_cell_angle_beta   90.00000000
_cell_angle_gamma   90.00000000
_symmetry_Int_Tables_number   1
_chemical_formula_structural   K2CuCl4
_chemical_formula_sum   'K8 Cu4 Cl16'
_cell_volume   802.43648606
_cell_formula_units_Z   4
loop_
 _symmetry_equiv_pos_site_id
 _symmetry_equiv_pos_as_xyz
  1  'x, y, z'
loop_
 _atom_site_type_symbol
 _atom_site_label
 _atom_site_symmetry_multiplicity
 _atom_site_fract_x
 _atom_site_fract_y
 _atom_site_fract_z
 _atom_site_occupancy
  K  K0  1  0.25000000  0.99406400  0.17282500  1
  K  K1  1  0.75000000  0.00593600  0.82717500  1
  K  K2  1  0.75000000  0.50593600  0.67282500  1
  K  K3  1  0.25000000  0.49406400  0.32717500  1
  K  K4  1  0.25000000  0.64700900  0.91668300  1
  K  K5  1  0.75000000  0.35299100  0.08331700  1
  K  K6  1  0.75000000  0.85299100  0.41668300  1
  K  K7  1  0.25000000  0.14700900  0.58331700  1
  Cu  Cu0  1  0.25000000  0.72477300  0.57500500  1
  Cu  Cu1  1  0.75000000  0.27522700  0.42499500  1
  Cu  Cu2  1  0.75000000  0.77522700  0.07500500  1
  Cu  Cu3  1  0.25000000  0.22477300  0.92499500  1
  Cl  Cl0  1  0.98143500  0.80412000  0.65258600  1
  Cl  Cl1  1  0.01856500  0.19588000  0.34741400  1
  Cl  Cl2  1  0.01856500  0.69588000  0.15258600  1
  Cl  Cl3  1  0.48143500  0.19588000  0.34741400  1
  Cl  Cl4  1  0.98143500  0.30412000  0.84741400  1
  Cl  Cl5  1  0.51856500  0.80412000  0.65258600  1
  Cl  Cl6  1  0.51856500  0.30412000  0.84741400  1
  Cl  Cl7  1  0.48143500  0.69588000  0.15258600  1
  Cl  Cl8  1  0.25000000  0.48460900  0.59746000  1
  Cl  Cl9  1  0.75000000  0.51539100  0.40254000  1
  Cl  Cl10  1  0.75000000  0.01539100  0.09746000  1
  Cl  Cl11  1  0.25000000  0.98460900  0.90254000  1
  Cl  Cl12  1  0.25000000  0.33276500  0.09002800  1
  Cl  Cl13  1  0.75000000  0.66723500  0.90997200  1
  Cl  Cl14  1  0.75000000  0.16723500  0.59002800  1
  Cl  Cl15  1  0.25000000  0.83276500  0.40997200  1
loop_
_geom_bond_atom_site_label_1
_geom_bond_atom_site_label_2
_geom_bond_distance
_geom_bond_site_symmetry_2
Cl0 Cu0 2.242814 1_655
Cl0 K2 3.239254 1_555
Cl0 K1 3.277003 1_565
Cl0 K6 3.334396 1_555
Cl1 Cu1 2.242814 1_455
Cl1 K3 3.239254 1_555
Cl1 K0 3.277003 1_545
Cl1 K7 3.334396 1_555
Cl2 Cu2 2.242814 1_455
Cl2 K0 3.239254 1_555
Cl2 K3 3.277003 1_555
Cl2 K4 3.334396 1_554
Cl3 Cu1 2.242814 1_555
Cl3 K3 3.239254 1_555
Cl3 K0 3.277003 1_545
Cl3 K7 3.334396 1_555
Cl4 Cu3 2.242814 1_655
Cl4 K1 3.239254 1_555
Cl4 K2 3.277003 1_555
Cl4 K5 3.334396 1_556
Cl5 Cu0 2.242814 1_555
Cl5 K2 3.239254 1_555
Cl5 K1 3.277003 1_565
Cl5 K6 3.334396 1_555
Cl6 Cu3 2.242814 1_555
Cl6 K1 3.239254 1_555
Cl6 K2 3.277003 1_555
Cl6 K5 3.334396 1_556
Cl7 Cu2 2.242814 1_555
Cl7 K0 3.239254 1_555
Cl7 K3 3.277003 1_555
Cl7 K4 3.334396 1_554
Cl8 Cu0 2.261269 1_555
Cl8 K7 3.160067 1_555
Cl8 K3 3.291035 1_555
Cl8 K2 3.649574 1_455
Cl8 K2 3.649574 1_555
Cl9 Cu1 2.261269 1_555
Cl9 K6 3.160067 1_555
Cl9 K2 3.291035 1_555
Cl9 K3 3.649574 1_555
Cl9 K3 3.649574 1_655
Cl10 Cu2 2.261269 1_545
Cl10 K5 3.160067 1_555
Cl10 K1 3.291035 1_554
Cl10 K0 3.649574 1_545
Cl10 K0 3.649574 1_645
Cl11 Cu3 2.261269 1_565
Cl11 K4 3.160067 1_555
Cl11 K0 3.291035 1_556
Cl11 K1 3.649574 1_465
Cl11 K1 3.649574 1_565
Cl12 Cu3 2.248073 1_554
Cl12 K3 3.256482 1_555
Cl12 K0 3.322209 1_545
Cl12 K5 3.532786 1_455
Cl12 K5 3.532786 1_555
Cl12 K4 3.616376 1_554
Cl13 Cu2 2.248073 1_556
Cl13 K2 3.256482 1_555
Cl13 K1 3.322209 1_565
Cl13 K4 3.532786 1_655
Cl13 K4 3.532786 1_555
Cl13 K5 3.616376 1_556
Cl14 Cu1 2.248073 1_555
Cl14 K1 3.256482 1_555
Cl14 K2 3.322209 1_555
Cl14 K7 3.532786 1_655
Cl14 K7 3.532786 1_555
Cl14 K6 3.616376 1_545
Cl15 Cu0 2.248073 1_555
Cl15 K0 3.256482 1_555
Cl15 K3 3.322209 1_555
Cl15 K6 3.532786 1_455
Cl15 K6 3.532786 1_555
Cl15 K7 3.616376 1_565
