# generated using pymatgen
data_ScSeO3F
_symmetry_space_group_name_H-M   'P 1'
_cell_length_a   4.11558025
_cell_length_b   6.37260611
_cell_length_c   6.66367722
_cell_angle_alpha   92.26925365
_cell_angle_beta   94.79343684
_cell_angle_gamma   95.33102106
_symmetry_Int_Tables_number   1
_chemical_formula_structural   ScSeO3F
_chemical_formula_sum   'Sc2 Se2 O6 F2'
_cell_volume   173.20585413
_cell_formula_units_Z   2
loop_
 _symmetry_equiv_pos_site_id
 _symmetry_equiv_pos_as_xyz
  1  'x, y, z'
loop_
 _atom_site_type_symbol
 _atom_site_label
 _atom_site_symmetry_multiplicity
 _atom_site_fract_x
 _atom_site_fract_y
 _atom_site_fract_z
 _atom_site_occupancy
  Sc  Sc0  1  0.53515500  0.62898300  0.75623400  1
  Sc  Sc1  1  0.46484500  0.37101700  0.24376600  1
  Se  Se0  1  0.68347600  0.85755600  0.27918400  1
  Se  Se1  1  0.31652400  0.14244400  0.72081600  1
  O  O0  1  0.59861300  0.96914400  0.77165100  1
  O  O1  1  0.40138700  0.03085600  0.22834900  1
  O  O2  1  0.60978600  0.67016800  0.07861900  1
  O  O3  1  0.39021400  0.32983200  0.92138100  1
  O  O4  1  0.48404500  0.67668700  0.43095400  1
  O  O5  1  0.51595500  0.32331300  0.56904600  1
  F  F0  1  0.03539400  0.64949900  0.74224800  1
  F  F1  1  0.96460600  0.35050100  0.25775200  1
loop_
_geom_bond_atom_site_label_1
_geom_bond_atom_site_label_2
_geom_bond_distance
_geom_bond_site_symmetry_2
O0 Se1 1.698341 1_565
O0 Sc0 2.156483 1_555
O1 Se0 1.698341 1_545
O1 Sc1 2.156483 1_555
O2 Se0 1.744356 1_555
O2 Sc0 2.146714 1_554
O2 Sc1 2.294710 1_555
O3 Se1 1.744356 1_555
O3 Sc1 2.146714 1_556
O3 Sc0 2.294710 1_555
O4 Se0 1.755063 1_555
O4 Sc0 2.196098 1_555
O4 Sc1 2.262528 1_555
O5 Se1 1.755063 1_555
O5 Sc1 2.196098 1_555
O5 Sc0 2.262528 1_555
F0 Sc0 2.060909 1_455
F0 Sc0 2.067638 1_555
F1 Sc1 2.060909 1_655
F1 Sc1 2.067638 1_555
