# generated using pymatgen
data_Li9Mn7O16
_symmetry_space_group_name_H-M   'P 1'
_cell_length_a   5.10037800
_cell_length_b   6.07592664
_cell_length_c   10.12392521
_cell_angle_alpha   103.22739964
_cell_angle_beta   101.01508260
_cell_angle_gamma   91.83553615
_symmetry_Int_Tables_number   1
_chemical_formula_structural   Li9Mn7O16
_chemical_formula_sum   'Li9 Mn7 O16'
_cell_volume   298.84195528
_cell_formula_units_Z   1
loop_
 _symmetry_equiv_pos_site_id
 _symmetry_equiv_pos_as_xyz
  1  'x, y, z'
loop_
 _atom_site_type_symbol
 _atom_site_label
 _atom_site_symmetry_multiplicity
 _atom_site_fract_x
 _atom_site_fract_y
 _atom_site_fract_z
 _atom_site_occupancy
  Li  Li0  1  0.48976000  0.73956100  0.00124100  1
  Li  Li1  1  0.25234400  0.37018100  0.75021300  1
  Li  Li2  1  0.51024000  0.26043900  0.99875900  1
  Li  Li3  1  0.24309800  0.88122100  0.75335400  1
  Li  Li4  1  0.75690200  0.11877900  0.24664600  1
  Li  Li5  1  0.74765600  0.62981900  0.24978700  1
  Li  Li6  1  0.00000000  0.50000000  0.50000000  1
  Li  Li7  1  0.00000000  0.00000000  0.50000000  1
  Li  Li8  1  0.00000000  0.50000000  0.00000000  1
  Mn  Mn0  1  0.00000000  0.00000000  0.00000000  1
  Mn  Mn1  1  0.74778500  0.63089800  0.75537700  1
  Mn  Mn2  1  0.50327300  0.24958300  0.49961800  1
  Mn  Mn3  1  0.24993600  0.86172800  0.24435300  1
  Mn  Mn4  1  0.75006400  0.13827200  0.75564700  1
  Mn  Mn5  1  0.49672700  0.75041700  0.50038200  1
  Mn  Mn6  1  0.25221500  0.36910200  0.24462300  1
  O  O0  1  0.35378700  0.03830200  0.11905800  1
  O  O1  1  0.09181000  0.71946800  0.88145300  1
  O  O2  1  0.36873900  0.56157800  0.13633600  1
  O  O3  1  0.09968900  0.17398800  0.87414600  1
  O  O4  1  0.60934900  0.41957400  0.37404600  1
  O  O5  1  0.60193200  0.91864000  0.37187300  1
  O  O6  1  0.84662500  0.81464800  0.62908600  1
  O  O7  1  0.86042200  0.30124200  0.62407400  1
  O  O8  1  0.63126100  0.43842200  0.86366400  1
  O  O9  1  0.39806800  0.08136000  0.62812700  1
  O  O10  1  0.64621300  0.96169800  0.88094200  1
  O  O11  1  0.39065100  0.58042600  0.62595400  1
  O  O12  1  0.90031100  0.82601200  0.12585400  1
  O  O13  1  0.90819000  0.28053200  0.11854700  1
  O  O14  1  0.15337500  0.18535200  0.37091400  1
  O  O15  1  0.13957800  0.69875800  0.37592600  1
loop_
_geom_bond_atom_site_label_1
_geom_bond_atom_site_label_2
_geom_bond_distance
_geom_bond_site_symmetry_2
Li0 O2 2.092303 1_555
Li0 O1 2.140334 1_554
Li0 O0 2.145765 1_565
Li0 O12 2.206573 1_555
Li0 O10 2.235245 1_554
Li0 O8 2.260769 1_554
Li1 O8 2.026976 1_555
Li1 O7 2.127941 1_455
Li1 O3 2.144706 1_555
Li1 O9 2.145136 1_555
Li1 O11 2.174576 1_555
Li1 O1 2.485215 1_555
Li2 O8 2.092303 1_555
Li2 O13 2.140334 1_556
Li2 O10 2.145765 1_545
Li2 O3 2.206573 1_555
Li2 O0 2.235245 1_556
Li2 O2 2.260769 1_556
Li3 O1 2.039671 1_555
Li3 O6 2.139643 1_455
Li3 O3 2.150434 1_565
Li3 O9 2.176609 1_565
Li3 O10 2.183243 1_555
Li3 O11 2.224942 1_555
Li4 O13 2.039671 1_555
Li4 O14 2.139643 1_655
Li4 O12 2.150434 1_545
Li4 O5 2.176609 1_545
Li4 O0 2.183243 1_555
Li4 O4 2.224942 1_555
Li5 O2 2.026976 1_555
Li5 O15 2.127941 1_655
Li5 O12 2.144706 1_555
Li5 O5 2.145136 1_555
Li5 O4 2.174576 1_555
Li5 O13 2.485215 1_555
Li6 O11 2.125160 1_555
Li6 O4 2.125160 1_455
Li6 O15 2.126937 1_555
Li6 O7 2.126937 1_455
Li6 O6 2.306041 1_455
Li6 O14 2.306041 1_555
Li7 O6 2.143798 1_445
Li7 O14 2.143798 1_555
Li7 O5 2.164472 1_445
Li7 O9 2.164472 1_555
Li7 O15 2.192661 1_545
Li7 O7 2.192661 1_455
Li8 O2 2.075760 1_555
Li8 O8 2.075760 1_454
Li8 O13 2.084454 1_455
Li8 O1 2.084454 1_554
Li8 O12 2.227712 1_455
Li8 O3 2.227712 1_554
Mn0 O0 1.943353 1_555
Mn0 O10 1.943353 1_444
Mn0 O12 1.956788 1_445
Mn0 O3 1.956788 1_554
Mn0 O13 1.973494 1_455
Mn0 O1 1.973494 1_544
Mn1 O8 1.927147 1_555
Mn1 O1 1.940854 1_655
Mn1 O11 1.999269 1_555
Mn1 O6 1.999704 1_555
Mn1 O10 2.252381 1_555
Mn1 O7 2.292603 1_555
Mn2 O4 1.950277 1_555
Mn2 O9 1.966078 1_555
Mn2 O14 1.966980 1_555
Mn2 O7 1.977272 1_555
Mn2 O5 2.256649 1_545
Mn2 O11 2.277009 1_555
Mn3 O12 1.924775 1_455
Mn3 O5 1.969682 1_555
Mn3 O0 1.970720 1_565
Mn3 O15 1.981422 1_555
Mn3 O2 2.073696 1_555
Mn3 O14 2.213791 1_565
Mn4 O3 1.924775 1_655
Mn4 O9 1.969682 1_555
Mn4 O10 1.970720 1_545
Mn4 O7 1.981422 1_555
Mn4 O8 2.073696 1_555
Mn4 O6 2.213791 1_545
Mn5 O11 1.950277 1_555
Mn5 O5 1.966078 1_555
Mn5 O6 1.966980 1_555
Mn5 O15 1.977272 1_555
Mn5 O9 2.256649 1_565
Mn5 O4 2.277009 1_555
Mn6 O2 1.927147 1_555
Mn6 O13 1.940854 1_455
Mn6 O4 1.999269 1_555
Mn6 O14 1.999704 1_555
Mn6 O0 2.252381 1_555
Mn6 O15 2.292603 1_555
