# generated using pymatgen
data_La2Ge4IrPd3
_symmetry_space_group_name_H-M   'P 1'
_cell_length_a   4.45125300
_cell_length_b   4.45125300
_cell_length_c   9.97114800
_cell_angle_alpha   90.00000000
_cell_angle_beta   90.00000000
_cell_angle_gamma   90.00000000
_symmetry_Int_Tables_number   1
_chemical_formula_structural   La2Ge4IrPd3
_chemical_formula_sum   'La2 Ge4 Ir1 Pd3'
_cell_volume   197.56486918
_cell_formula_units_Z   1
loop_
 _symmetry_equiv_pos_site_id
 _symmetry_equiv_pos_as_xyz
  1  'x, y, z'
loop_
 _atom_site_type_symbol
 _atom_site_label
 _atom_site_symmetry_multiplicity
 _atom_site_fract_x
 _atom_site_fract_y
 _atom_site_fract_z
 _atom_site_occupancy
  La  La0  1  0.50000000  0.50000000  0.25627900  1
  La  La1  1  0.00000000  0.00000000  0.74602000  1
  Ge  Ge0  1  0.50000000  0.50000000  0.86704200  1
  Ge  Ge1  1  0.00000000  0.00000000  0.12760800  1
  Ge  Ge2  1  0.50000000  0.00000000  0.50226900  1
  Ge  Ge3  1  0.00000000  0.50000000  0.50226900  1
  Ir  Ir0  1  0.50000000  0.50000000  0.62281400  1
  Pd  Pd0  1  0.00000000  0.00000000  0.37570100  1
  Pd  Pd1  1  0.50000000  0.00000000  0.00000000  1
  Pd  Pd2  1  0.00000000  0.50000000  0.00000000  1
loop_
_geom_bond_atom_site_label_1
_geom_bond_atom_site_label_2
_geom_bond_distance
_geom_bond_site_symmetry_2
La0 Pd0 3.365230 1_665
La0 Pd0 3.365230 1_565
La0 Pd0 3.365230 1_555
La0 Pd0 3.365230 1_655
La0 Pd1 3.388726 1_565
La0 Pd2 3.388726 1_655
La0 Pd2 3.388726 1_555
La0 Pd1 3.388726 1_555
La1 Pd2 3.371473 1_546
La1 Pd1 3.371473 1_556
La1 Pd2 3.371473 1_556
La1 Pd1 3.371473 1_456
Ge0 Ir0 2.435234 1_555
Ge0 Pd1 2.590562 1_566
Ge0 Pd2 2.590562 1_656
Ge0 Pd1 2.590562 1_556
Ge0 Pd2 2.590562 1_556
Ge0 La1 3.370908 1_665
Ge0 La1 3.370908 1_555
Ge0 La1 3.370908 1_565
Ge0 La1 3.370908 1_655
Ge1 Pd0 2.473772 1_555
Ge1 Pd1 2.563671 1_455
Ge1 Pd2 2.563671 1_545
Ge1 Pd2 2.563671 1_555
Ge1 Pd1 2.563671 1_555
Ge1 La0 3.398957 1_445
Ge1 La0 3.398957 1_455
Ge1 La0 3.398957 1_545
Ge1 La0 3.398957 1_555
Ge2 Ir0 2.529456 1_545
Ge2 Ir0 2.529456 1_555
Ge2 Pd0 2.558540 1_555
Ge2 Pd0 2.558540 1_655
Ge2 La1 3.295547 1_555
Ge2 La1 3.295547 1_655
Ge2 La0 3.312047 1_545
Ge2 La0 3.312047 1_555
Ge3 Ir0 2.529456 1_555
Ge3 Ir0 2.529456 1_455
Ge3 Pd0 2.558540 1_555
Ge3 Pd0 2.558540 1_565
Ge3 La1 3.295547 1_565
Ge3 La1 3.295547 1_555
Ge3 La0 3.312047 1_455
Ge3 La0 3.312047 1_555
Ir0 La1 3.378765 1_555
Ir0 La1 3.378765 1_655
Ir0 La1 3.378765 1_665
Ir0 La1 3.378765 1_565
