# generated using pymatgen
data_Mg14CrC
_symmetry_space_group_name_H-M   'P 1'
_cell_length_a   6.30597991
_cell_length_b   6.44472008
_cell_length_c   9.68284988
_cell_angle_alpha   90.00000000
_cell_angle_beta   90.00000000
_cell_angle_gamma   120.73051301
_symmetry_Int_Tables_number   1
_chemical_formula_structural   Mg14CrC
_chemical_formula_sum   'Mg14 Cr1 C1'
_cell_volume   338.25659499
_cell_formula_units_Z   1
loop_
 _symmetry_equiv_pos_site_id
 _symmetry_equiv_pos_as_xyz
  1  'x, y, z'
loop_
 _atom_site_type_symbol
 _atom_site_label
 _atom_site_symmetry_multiplicity
 _atom_site_fract_x
 _atom_site_fract_y
 _atom_site_fract_z
 _atom_site_occupancy
  Mg  Mg0  1  0.17765589  0.33882744  0.62500000  1
  Mg  Mg1  1  0.17123528  0.83561714  0.62500000  1
  Mg  Mg2  1  0.73890617  0.37947975  0.12500000  1
  Mg  Mg3  1  0.65997631  0.33482291  0.62500000  1
  Mg  Mg4  1  0.73890617  0.85942541  0.12500000  1
  Mg  Mg5  1  0.65997631  0.82515240  0.62500000  1
  Mg  Mg6  1  0.31788149  0.14341539  0.33703806  1
  Mg  Mg7  1  0.31788149  0.14341539  0.91296194  1
  Mg  Mg8  1  0.31788149  0.67446710  0.33703806  1
  Mg  Mg9  1  0.31788149  0.67446710  0.91296194  1
  Mg  Mg10  1  0.83446520  0.16723310  0.37688562  1
  Mg  Mg11  1  0.83446520  0.16723310  0.87311438  1
  Mg  Mg12  1  0.83750515  0.66875308  0.36706040  1
  Mg  Mg13  1  0.83750515  0.66875308  0.88293960  1
  Cr  Cr0  1  0.17318717  0.33659309  0.12500000  1
  C  C0  1  0.06469007  0.78234453  0.12500000  1
loop_
_geom_bond_atom_site_label_1
_geom_bond_atom_site_label_2
_geom_bond_distance
_geom_bond_site_symmetry_2
Mg0 Mg10 3.038481 1_455
Mg0 Mg11 3.038481 1_455
Mg0 Mg5 3.054771 1_555
Mg0 Mg3 3.054771 1_555
Mg0 Mg1 3.222548 1_545
Mg0 Mg1 3.222548 1_555
Mg0 Mg5 3.251364 1_445
Mg0 Mg3 3.251365 1_455
Mg0 Mg7 3.358665 1_555
Mg0 Mg6 3.358665 1_555
Mg0 Mg8 3.358672 1_555
Mg0 Mg9 3.358672 1_555
Mg1 Mg13 3.083890 1_455
Mg1 Mg12 3.083890 1_455
Mg1 Mg3 3.116993 1_565
Mg1 Mg5 3.116993 1_555
Mg1 Mg3 3.190052 1_455
Mg1 Mg5 3.190053 1_455
Mg1 Mg8 3.269541 1_555
Mg1 Mg9 3.269541 1_555
Mg1 Mg7 3.269547 1_565
Mg1 Mg6 3.269547 1_565
Mg3 Mg5 3.160036 1_555
Mg3 Mg5 3.284684 1_545
Mg3 Mg7 3.351165 1_555
Mg3 Mg6 3.351165 1_555
Mg5 Mg8 3.351166 1_555
Mg5 Mg9 3.351166 1_555
Mg10 Mg2 3.004192 1_555
Mg10 Mg4 3.004199 1_545
Mg10 Mg3 3.060003 1_555
Mg10 Mg5 3.060010 1_545
Mg10 Mg8 3.153328 1_655
Mg10 Mg6 3.153328 1_655
Mg10 Mg8 3.205174 1_545
Mg10 Mg6 3.205174 1_555
Mg10 Mg12 3.223806 1_545
Mg10 Mg12 3.223806 1_555
Mg11 Mg2 3.004192 1_556
Mg11 Mg4 3.004199 1_546
Mg11 Mg3 3.060003 1_555
Mg11 Mg5 3.060010 1_545
Mg11 Mg9 3.153328 1_655
Mg11 Mg7 3.153328 1_655
Mg11 Mg9 3.205174 1_545
Mg11 Mg7 3.205174 1_555
Mg11 Mg13 3.223806 1_545
Mg11 Mg13 3.223806 1_555
Mg12 Mg5 3.108119 1_555
Mg12 Mg3 3.108126 1_555
Mg13 Mg5 3.108119 1_555
Mg13 Mg3 3.108126 1_555
Cr0 Mg7 2.785467 1_554
Cr0 Mg6 2.785467 1_555
Cr0 Mg8 2.785474 1_555
Cr0 Mg9 2.785474 1_554
Cr0 Mg4 2.889587 1_445
Cr0 Mg2 2.889588 1_455
Cr0 Mg11 3.052806 1_454
Cr0 Mg10 3.052806 1_455
Cr0 Mg4 3.434403 1_555
Cr0 Mg2 3.434403 1_555
C0 Mg2 2.347398 1_455
C0 Mg4 2.347399 1_455
C0 Mg12 2.647648 1_455
C0 Mg13 2.647648 1_454
