# generated using pymatgen
data_Sr2YbNbO6
_symmetry_space_group_name_H-M   'P 1'
_cell_length_a   6.01004600
_cell_length_b   5.83972700
_cell_length_c   10.14691589
_cell_angle_alpha   55.07784882
_cell_angle_beta   90.00000000
_cell_angle_gamma   90.00000000
_symmetry_Int_Tables_number   1
_chemical_formula_structural   Sr2YbNbO6
_chemical_formula_sum   'Sr4 Yb2 Nb2 O12'
_cell_volume   291.99909450
_cell_formula_units_Z   2
loop_
 _symmetry_equiv_pos_site_id
 _symmetry_equiv_pos_as_xyz
  1  'x, y, z'
loop_
 _atom_site_type_symbol
 _atom_site_label
 _atom_site_symmetry_multiplicity
 _atom_site_fract_x
 _atom_site_fract_y
 _atom_site_fract_z
 _atom_site_occupancy
  Sr  Sr0  1  0.45174700  0.73296800  0.75335800  1
  Sr  Sr1  1  0.95174700  0.26703200  0.74664200  1
  Sr  Sr2  1  0.04825300  0.73296800  0.25335800  1
  Sr  Sr3  1  0.54825300  0.26703200  0.24664200  1
  Yb  Yb0  1  0.00000000  0.50000000  0.00000000  1
  Yb  Yb1  1  0.50000000  0.50000000  0.50000000  1
  Nb  Nb0  1  0.00000000  0.00000000  0.50000000  1
  Nb  Nb1  1  0.50000000  0.00000000  0.00000000  1
  O  O0  1  0.03422200  0.85908300  0.73300100  1
  O  O1  1  0.53422200  0.14091700  0.76699900  1
  O  O2  1  0.96577800  0.14091700  0.26699900  1
  O  O3  1  0.46577800  0.85908300  0.23300100  1
  O  O4  1  0.30752400  0.68062000  0.04320600  1
  O  O5  1  0.80752400  0.31938000  0.45679400  1
  O  O6  1  0.69247600  0.31938000  0.95679400  1
  O  O7  1  0.19247600  0.68062000  0.54320600  1
  O  O8  1  0.72747300  0.75644600  0.55391500  1
  O  O9  1  0.22747300  0.24355400  0.94608500  1
  O  O10  1  0.27252700  0.24355400  0.44608500  1
  O  O11  1  0.77252700  0.75644600  0.05391500  1
loop_
_geom_bond_atom_site_label_1
_geom_bond_atom_site_label_2
_geom_bond_distance
_geom_bond_site_symmetry_2
Nb0 O5 2.018108 1_455
Nb0 O7 2.018108 1_545
Nb0 O2 2.020296 1_455
Nb0 O0 2.020296 1_545
Nb0 O10 2.028312 1_555
Nb0 O8 2.028312 1_445
Nb1 O6 2.018108 1_554
Nb1 O4 2.018108 1_545
Nb1 O1 2.020296 1_554
Nb1 O3 2.020296 1_545
Nb1 O9 2.028312 1_554
Nb1 O11 2.028312 1_545
O0 Yb0 2.296720 1_556
O0 Sr1 2.513522 1_465
O0 Sr0 2.589923 1_555
O1 Yb1 2.296720 1_555
O1 Sr0 2.513522 1_545
O1 Sr1 2.589923 1_555
O2 Yb0 2.296720 1_655
O2 Sr2 2.513522 1_645
O2 Sr3 2.589923 1_555
O3 Yb1 2.296720 1_555
O3 Sr3 2.513522 1_565
O3 Sr2 2.589923 1_555
O4 Yb0 2.291320 1_555
O4 Sr3 2.545488 1_555
O4 Sr2 2.795529 1_555
O4 Sr0 2.909510 1_554
O5 Yb1 2.291320 1_555
O5 Sr2 2.545488 1_655
O5 Sr3 2.795529 1_555
O5 Sr1 2.909510 1_555
O6 Yb0 2.291320 1_656
O6 Sr0 2.545488 1_555
O6 Sr1 2.795529 1_555
O6 Sr3 2.909510 1_556
O7 Yb1 2.291320 1_555
O7 Sr1 2.545488 1_455
O7 Sr0 2.795529 1_555
O7 Sr2 2.909510 1_555
O8 Yb1 2.312803 1_555
O8 Sr0 2.557866 1_555
O8 Sr1 2.722204 1_555
O8 Sr3 3.021248 1_565
O9 Yb0 2.312803 1_556
O9 Sr1 2.557866 1_455
O9 Sr0 2.722204 1_555
O9 Sr2 3.021248 1_546
O10 Yb1 2.312803 1_555
O10 Sr3 2.557866 1_555
O10 Sr2 2.722204 1_555
O10 Sr0 3.021248 1_545
O11 Yb0 2.312803 1_655
O11 Sr2 2.557866 1_655
O11 Sr3 2.722204 1_555
O11 Sr1 3.021248 1_564
