# generated using pymatgen
data_Yb5Ir3
_symmetry_space_group_name_H-M   'P 1'
_cell_length_a   8.16157669
_cell_length_b   8.16157669
_cell_length_c   6.04319673
_cell_angle_alpha   90.00000000
_cell_angle_beta   90.00000000
_cell_angle_gamma   120.00000507
_symmetry_Int_Tables_number   1
_chemical_formula_structural   Yb5Ir3
_chemical_formula_sum   'Yb10 Ir6'
_cell_volume   348.61452203
_cell_formula_units_Z   2
loop_
 _symmetry_equiv_pos_site_id
 _symmetry_equiv_pos_as_xyz
  1  'x, y, z'
loop_
 _atom_site_type_symbol
 _atom_site_label
 _atom_site_symmetry_multiplicity
 _atom_site_fract_x
 _atom_site_fract_y
 _atom_site_fract_z
 _atom_site_occupancy
  Yb  Yb0  1  0.66666700  0.33333300  0.50000000  1
  Yb  Yb1  1  0.33333300  0.66666700  0.50000000  1
  Yb  Yb2  1  0.33333300  0.66666700  0.00000000  1
  Yb  Yb3  1  0.66666700  0.33333300  0.00000000  1
  Yb  Yb4  1  0.73602480  0.73602480  0.25000000  1
  Yb  Yb5  1  0.26397520  0.00000000  0.25000000  1
  Yb  Yb6  1  0.00000000  0.26397520  0.25000000  1
  Yb  Yb7  1  0.26397520  0.26397520  0.75000000  1
  Yb  Yb8  1  0.73602480  1.00000000  0.75000000  1
  Yb  Yb9  1  1.00000000  0.73602480  0.75000000  1
  Ir  Ir0  1  0.38732522  0.38732522  0.25000000  1
  Ir  Ir1  1  0.61267478  0.00000000  0.25000000  1
  Ir  Ir2  1  0.00000000  0.61267478  0.25000000  1
  Ir  Ir3  1  0.61267478  0.61267478  0.75000000  1
  Ir  Ir4  1  0.38732522  1.00000000  0.75000000  1
  Ir  Ir5  1  1.00000000  0.38732522  0.75000000  1
loop_
_geom_bond_atom_site_label_1
_geom_bond_atom_site_label_2
_geom_bond_distance
_geom_bond_site_symmetry_2
Ir0 Yb5 2.797165 1_555
Ir0 Yb6 2.797165 1_555
Ir0 Yb4 2.845938 1_555
Ir0 Yb1 2.946040 1_555
Ir0 Yb2 2.946040 1_555
Ir0 Yb0 2.946040 1_555
Ir0 Yb3 2.946040 1_555
Ir0 Yb7 3.184896 1_555
Ir0 Yb7 3.184896 1_554
Ir1 Yb6 2.797165 1_655
Ir1 Yb4 2.797165 1_545
Ir1 Yb5 2.845938 1_555
Ir1 Yb3 2.946033 1_555
Ir1 Yb0 2.946033 1_555
Ir1 Yb1 2.946036 1_545
Ir1 Yb2 2.946036 1_545
Ir1 Yb8 3.184896 1_544
Ir1 Yb8 3.184896 1_545
Ir2 Yb5 2.797165 1_565
Ir2 Yb4 2.797165 1_455
Ir2 Yb6 2.845938 1_555
Ir2 Yb1 2.946033 1_555
Ir2 Yb2 2.946033 1_555
Ir2 Yb3 2.946036 1_455
Ir2 Yb0 2.946036 1_455
Ir2 Yb9 3.184896 1_455
Ir2 Yb9 3.184896 1_454
Ir3 Yb9 2.797165 1_555
Ir3 Yb8 2.797165 1_555
Ir3 Yb7 2.845938 1_555
Ir3 Yb1 2.946040 1_555
Ir3 Yb2 2.946040 1_556
Ir3 Yb0 2.946040 1_555
Ir3 Yb3 2.946040 1_556
Ir3 Yb4 3.184896 1_555
Ir3 Yb4 3.184896 1_556
Ir4 Yb9 2.797165 1_455
Ir4 Yb7 2.797165 1_565
Ir4 Yb8 2.845938 1_555
Ir4 Yb1 2.946033 1_555
Ir4 Yb2 2.946033 1_556
Ir4 Yb3 2.946036 1_566
Ir4 Yb0 2.946036 1_565
Ir4 Yb5 3.184896 1_565
Ir4 Yb5 3.184896 1_566
Ir5 Yb8 2.797165 1_545
Ir5 Yb7 2.797165 1_655
Ir5 Yb9 2.845938 1_555
Ir5 Yb0 2.946033 1_555
Ir5 Yb3 2.946033 1_556
Ir5 Yb2 2.946036 1_656
Ir5 Yb1 2.946036 1_655
Ir5 Yb6 3.184896 1_655
Ir5 Yb6 3.184896 1_656
