# generated using pymatgen
data_Rb3LiTbV2O8
_symmetry_space_group_name_H-M   'P 1'
_cell_length_a   6.21969713
_cell_length_b   6.14163168
_cell_length_c   7.95823844
_cell_angle_alpha   94.14802841
_cell_angle_beta   91.59747211
_cell_angle_gamma   119.78391258
_symmetry_Int_Tables_number   1
_chemical_formula_structural   Rb3LiTbV2O8
_chemical_formula_sum   'Rb3 Li1 Tb1 V2 O8'
_cell_volume   262.43388134
_cell_formula_units_Z   1
loop_
 _symmetry_equiv_pos_site_id
 _symmetry_equiv_pos_as_xyz
  1  'x, y, z'
loop_
 _atom_site_type_symbol
 _atom_site_label
 _atom_site_symmetry_multiplicity
 _atom_site_fract_x
 _atom_site_fract_y
 _atom_site_fract_z
 _atom_site_occupancy
  Rb  Rb0  1  0.65829700  0.31867900  0.31159500  1
  Rb  Rb1  1  0.35284400  0.71655700  0.67449400  1
  Rb  Rb2  1  0.90385700  0.91388000  0.02935800  1
  Li  Li0  1  0.35157100  0.35433800  0.91160800  1
  Tb  Tb0  1  0.00912800  0.00930300  0.51161200  1
  V  V0  1  0.70041800  0.37103900  0.74525700  1
  V  V1  1  0.31410300  0.63862700  0.24759600  1
  O  O0  1  0.66560700  0.38573700  0.96399700  1
  O  O1  1  0.30829600  0.60659900  0.02940300  1
  O  O2  1  0.86147400  0.68103800  0.66145300  1
  O  O3  1  0.16230400  0.33815100  0.32121400  1
  O  O4  1  0.83466400  0.18695300  0.65921000  1
  O  O5  1  0.17154200  0.81135700  0.31987800  1
  O  O6  1  0.36070600  0.23146400  0.67639500  1
  O  O7  1  0.62643700  0.80086200  0.32859800  1
loop_
_geom_bond_atom_site_label_1
_geom_bond_atom_site_label_2
_geom_bond_distance
_geom_bond_site_symmetry_2
Li0 O1 1.889388 1_556
Li0 O0 1.895998 1_555
Li0 O6 1.980108 1_555
Li0 Rb2 2.996456 1_446
O0 V0 1.761550 1_555
O0 Rb2 2.815232 1_556
O0 Rb0 2.824384 1_556
O1 V1 1.730672 1_555
O1 Rb1 2.940073 1_554
O1 Rb2 3.215275 1_555
O2 V0 1.843723 1_555
O2 Tb0 2.213466 1_665
O2 Rb1 2.952162 1_655
O2 Rb2 3.108646 1_556
O2 Rb0 3.227264 1_555
O2 Rb1 3.281291 1_555
O3 V1 1.759690 1_555
O3 Tb0 2.427810 1_555
O3 Rb0 3.075681 1_455
O3 Rb2 3.086020 1_445
O3 Rb0 3.148855 1_555
O3 Rb1 3.292843 1_555
O4 V0 1.817152 1_555
O4 Tb0 2.193049 1_655
O4 Rb1 2.968478 1_545
O4 Rb1 3.238537 1_655
O4 Rb0 3.247615 1_555
O5 V1 1.765543 1_555
O5 Tb0 2.421626 1_565
O5 Rb0 3.089921 1_565
O5 Rb2 3.090527 1_455
O5 Rb0 3.116697 1_455
O5 Rb1 3.207405 1_555
O6 V0 1.888815 1_555
O6 Tb0 2.231648 1_555
O6 Rb1 3.004968 1_555
O6 Rb1 3.137293 1_545
O6 Rb0 3.417722 1_555
O7 V1 1.759669 1_555
O7 Tb0 2.436269 1_665
O7 Rb2 2.899760 1_555
O7 Rb0 3.058419 1_555
O7 Rb0 3.099869 1_565
O7 Rb1 3.214543 1_555
