# generated using pymatgen
data_Ba3InHg10
_symmetry_space_group_name_H-M   'P 1'
_cell_length_a   9.66478418
_cell_length_b   9.66478418
_cell_length_c   9.66478418
_cell_angle_alpha   147.77892506
_cell_angle_beta   116.71922446
_cell_angle_gamma   72.80553117
_symmetry_Int_Tables_number   1
_chemical_formula_structural   Ba3InHg10
_chemical_formula_sum   'Ba3 In1 Hg10'
_cell_volume   423.08328976
_cell_formula_units_Z   1
loop_
 _symmetry_equiv_pos_site_id
 _symmetry_equiv_pos_as_xyz
  1  'x, y, z'
loop_
 _atom_site_type_symbol
 _atom_site_label
 _atom_site_symmetry_multiplicity
 _atom_site_fract_x
 _atom_site_fract_y
 _atom_site_fract_z
 _atom_site_occupancy
  Ba  Ba0  1  0.00000000  0.00000000  0.00000000  1
  Ba  Ba1  1  0.70109700  0.70109700  0.00000000  1
  Ba  Ba2  1  0.29890300  0.29890300  0.00000000  1
  In  In0  1  0.50000000  0.00000000  0.50000000  1
  Hg  Hg0  1  0.14289300  0.85870600  0.28418700  1
  Hg  Hg1  1  0.85710700  0.14129400  0.71581300  1
  Hg  Hg2  1  0.42548100  0.14129400  0.28418700  1
  Hg  Hg3  1  0.57451900  0.85870600  0.71581300  1
  Hg  Hg4  1  0.01762100  0.66221000  0.35541000  1
  Hg  Hg5  1  0.98237900  0.33779000  0.64459000  1
  Hg  Hg6  1  0.69320000  0.33779000  0.35541000  1
  Hg  Hg7  1  0.30680000  0.66221000  0.64459000  1
  Hg  Hg8  1  0.67883100  0.50000000  0.17883100  1
  Hg  Hg9  1  0.32116900  0.50000000  0.82116900  1
loop_
_geom_bond_atom_site_label_1
_geom_bond_atom_site_label_2
_geom_bond_distance
_geom_bond_site_symmetry_2
Ba0 Hg0 3.624376 1_545
Ba0 Hg3 3.624376 1_444
Ba0 Hg2 3.624376 1_555
Ba0 Hg1 3.624376 1_454
Ba0 Hg6 3.963681 1_455
Ba0 Hg6 3.963681 1_444
Ba0 Hg7 3.963681 1_544
Ba0 Hg7 3.963681 1_555
Ba0 Hg4 3.963682 1_555
Ba0 Hg5 3.963682 1_444
Ba0 Hg4 3.963686 1_544
Ba0 Hg5 3.963686 1_455
Ba1 Hg1 3.584280 1_565
Ba1 Hg1 3.584280 1_554
Ba1 Hg2 3.584280 1_565
Ba1 Hg2 3.584280 1_554
Ba1 Hg9 3.616133 1_554
Ba1 Hg8 3.616133 1_555
Ba1 Hg7 3.654294 1_554
Ba1 Hg4 3.654298 1_655
Ba1 Hg5 3.723523 1_554
Ba1 Hg5 3.723527 1_565
Ba1 Hg6 3.723532 1_565
Ba1 Hg6 3.723532 1_554
Ba1 Hg0 3.783708 1_655
Ba1 Hg3 3.783708 1_554
Ba2 Hg3 3.584280 1_555
Ba2 Hg3 3.584280 1_544
Ba2 Hg0 3.584280 1_555
Ba2 Hg0 3.584280 1_544
Ba2 Hg8 3.616133 1_555
Ba2 Hg9 3.616133 1_554
Ba2 Hg6 3.654294 1_555
Ba2 Hg5 3.654298 1_454
Ba2 Hg4 3.723523 1_555
Ba2 Hg4 3.723527 1_544
Ba2 Hg7 3.723532 1_555
Ba2 Hg7 3.723532 1_544
Ba2 Hg2 3.783708 1_555
Ba2 Hg1 3.783708 1_454
Hg0 Hg5 3.049940 1_454
Hg0 Hg5 3.049945 1_465
Hg0 In0 3.101773 1_565
Hg0 Hg4 3.141168 1_555
Hg1 Hg4 3.049940 1_656
Hg1 Hg4 3.049945 1_645
Hg1 In0 3.101773 1_555
Hg1 Hg5 3.141168 1_555
Hg2 Hg7 3.049940 1_544
Hg2 Hg7 3.049940 1_555
Hg2 In0 3.101773 1_555
Hg2 Hg6 3.141175 1_555
Hg3 Hg6 3.049940 1_555
Hg3 Hg6 3.049940 1_566
Hg3 In0 3.101773 1_565
Hg3 Hg7 3.141175 1_555
Hg4 Hg7 2.932287 1_555
Hg4 Hg8 3.094290 1_455
Hg5 Hg6 2.932287 1_555
Hg5 Hg9 3.094290 1_655
Hg6 Hg8 3.094281 1_555
Hg7 Hg9 3.094281 1_555
Hg8 In0 3.237406 1_565
Hg8 In0 3.237406 1_554
Hg9 In0 3.237406 1_555
Hg9 In0 3.237406 1_566
