# generated using pymatgen
data_Sc(P2Rh3)2
_symmetry_space_group_name_H-M   'P 1'
_cell_length_a   7.00900801
_cell_length_b   7.00900801
_cell_length_c   3.67635000
_cell_angle_alpha   90.00000000
_cell_angle_beta   90.00000000
_cell_angle_gamma   120.00000014
_symmetry_Int_Tables_number   1
_chemical_formula_structural   Sc(P2Rh3)2
_chemical_formula_sum   'Sc1 P4 Rh6'
_cell_volume   156.40858791
_cell_formula_units_Z   1
loop_
 _symmetry_equiv_pos_site_id
 _symmetry_equiv_pos_as_xyz
  1  'x, y, z'
loop_
 _atom_site_type_symbol
 _atom_site_label
 _atom_site_symmetry_multiplicity
 _atom_site_fract_x
 _atom_site_fract_y
 _atom_site_fract_z
 _atom_site_occupancy
  Sc  Sc0  1  0.00000000  0.00000000  0.00000000  1
  P  P0  1  0.66666700  0.33333300  0.00000000  1
  P  P1  1  0.19137400  0.37361100  0.50000000  1
  P  P2  1  0.18223600  0.80862600  0.50000000  1
  P  P3  1  0.62638900  0.81776400  0.50000000  1
  Rh  Rh0  1  0.48192000  0.93450200  0.00000000  1
  Rh  Rh1  1  0.45258200  0.51808000  0.00000000  1
  Rh  Rh2  1  0.06549800  0.54741800  0.00000000  1
  Rh  Rh3  1  0.79850900  0.61397900  0.50000000  1
  Rh  Rh4  1  0.81547000  0.20149100  0.50000000  1
  Rh  Rh5  1  0.38602100  0.18453000  0.50000000  1
loop_
_geom_bond_atom_site_label_1
_geom_bond_atom_site_label_2
_geom_bond_distance
_geom_bond_site_symmetry_2
P0 Rh0 2.423078 1_545
P0 Rh2 2.423078 1_655
P0 Rh1 2.423084 1_555
P0 Rh4 2.506863 1_554
P0 Rh4 2.506863 1_555
P0 Rh5 2.506867 1_555
P0 Rh5 2.506867 1_554
P0 Rh3 2.506868 1_554
P0 Rh3 2.506868 1_555
P1 Rh4 2.284426 1_455
P1 Rh5 2.329303 1_555
P1 Rh1 2.429450 1_556
P1 Rh1 2.429450 1_555
P1 Rh2 2.591547 1_556
P1 Rh2 2.591547 1_555
P1 Sc0 2.919397 1_555
P1 Sc0 2.919397 1_556
P2 Rh5 2.284426 1_565
P2 Rh3 2.329297 1_455
P2 Rh2 2.429450 1_555
P2 Rh2 2.429450 1_556
P2 Rh0 2.591552 1_555
P2 Rh0 2.591552 1_556
P2 Sc0 2.919392 1_565
P2 Sc0 2.919392 1_566
P3 Rh3 2.284432 1_555
P3 Rh4 2.329296 1_565
P3 Rh0 2.429446 1_555
P3 Rh0 2.429446 1_556
P3 Rh1 2.591551 1_555
P3 Rh1 2.591551 1_556
P3 Sc0 2.919397 1_666
P3 Sc0 2.919397 1_665
Rh3 Sc0 2.978712 1_666
Rh3 Sc0 2.978712 1_665
Rh4 Sc0 2.978712 1_655
Rh4 Sc0 2.978712 1_656
Rh5 Sc0 2.978712 1_555
Rh5 Sc0 2.978712 1_556
