# generated using pymatgen
data_NaEuTi2O6
_symmetry_space_group_name_H-M   'P 1'
_cell_length_a   5.43782000
_cell_length_b   5.50522100
_cell_length_c   7.74591000
_cell_angle_alpha   90.00000000
_cell_angle_beta   90.00000000
_cell_angle_gamma   90.00000000
_symmetry_Int_Tables_number   1
_chemical_formula_structural   NaEuTi2O6
_chemical_formula_sum   'Na2 Eu2 Ti4 O12'
_cell_volume   231.88466677
_cell_formula_units_Z   2
loop_
 _symmetry_equiv_pos_site_id
 _symmetry_equiv_pos_as_xyz
  1  'x, y, z'
loop_
 _atom_site_type_symbol
 _atom_site_label
 _atom_site_symmetry_multiplicity
 _atom_site_fract_x
 _atom_site_fract_y
 _atom_site_fract_z
 _atom_site_occupancy
  Na  Na0  1  0.49564200  0.77709600  0.50000000  1
  Na  Na1  1  0.99564200  0.22290400  0.00000000  1
  Eu  Eu0  1  0.00550400  0.29001000  0.50000000  1
  Eu  Eu1  1  0.50550400  0.70999000  0.00000000  1
  Ti  Ti0  1  0.50367400  0.24338000  0.75121700  1
  Ti  Ti1  1  0.00367400  0.75662000  0.25121700  1
  Ti  Ti2  1  0.50367400  0.24338000  0.24878300  1
  Ti  Ti3  1  0.00367400  0.75662000  0.74878300  1
  O  O0  1  0.57165800  0.23509900  0.50000000  1
  O  O1  1  0.94173200  0.73416100  0.50000000  1
  O  O2  1  0.44173200  0.26583900  0.00000000  1
  O  O3  1  0.07165800  0.76490100  0.00000000  1
  O  O4  1  0.28206800  0.53352300  0.72038500  1
  O  O5  1  0.20699000  0.04208300  0.28755400  1
  O  O6  1  0.70699000  0.95791700  0.21244600  1
  O  O7  1  0.78206800  0.46647700  0.77961500  1
  O  O8  1  0.70699000  0.95791700  0.78755400  1
  O  O9  1  0.78206800  0.46647700  0.22038500  1
  O  O10  1  0.28206800  0.53352300  0.27961500  1
  O  O11  1  0.20699000  0.04208300  0.71244600  1
loop_
_geom_bond_atom_site_label_1
_geom_bond_atom_site_label_2
_geom_bond_distance
_geom_bond_site_symmetry_2
Na0 O1 2.437246 1_555
Na0 O10 2.461910 1_555
Na0 O4 2.461910 1_555
Na0 O0 2.555066 1_565
Na0 O6 2.696837 1_555
Na0 O8 2.696837 1_555
Na0 O11 2.701824 1_565
Na0 O5 2.701824 1_565
Na1 O2 2.437246 1_655
Na1 O9 2.461910 1_555
Na1 O7 2.461910 1_554
Na1 O3 2.555066 1_645
Na1 O11 2.696837 1_654
Na1 O5 2.696837 1_655
Na1 O6 2.701824 1_545
Na1 O8 2.701824 1_544
Eu0 O0 2.378465 1_455
Eu0 O11 2.402359 1_555
Eu0 O5 2.402359 1_555
Eu0 O1 2.469618 1_455
Eu0 O10 2.640653 1_555
Eu0 O4 2.640653 1_555
Eu0 O7 2.666652 1_455
Eu0 O9 2.666652 1_455
Eu1 O3 2.378465 1_555
Eu1 O8 2.402359 1_554
Eu1 O6 2.402359 1_555
Eu1 O2 2.469618 1_555
Eu1 O9 2.640653 1_555
Eu1 O7 2.640653 1_554
Eu1 O4 2.666652 1_554
Eu1 O10 2.666652 1_555
O0 Ti0 1.981234 1_555
O0 Ti2 1.981234 1_555
O1 Ti3 1.960170 1_655
O1 Ti1 1.960170 1_655
O2 Ti0 1.960170 1_554
O2 Ti2 1.960170 1_555
O3 Ti3 1.981234 1_554
O3 Ti1 1.981234 1_555
O4 Ti3 1.961790 1_555
O4 Ti0 2.015083 1_555
O5 Ti1 1.941981 1_545
O5 Ti2 1.980163 1_555
O6 Ti2 1.941981 1_565
O6 Ti1 1.980163 1_655
O7 Ti0 1.961790 1_555
O7 Ti3 2.015083 1_655
O8 Ti0 1.941981 1_565
O8 Ti3 1.980163 1_655
O9 Ti2 1.961790 1_555
O9 Ti1 2.015083 1_655
O10 Ti1 1.961790 1_555
O10 Ti2 2.015083 1_555
O11 Ti3 1.941981 1_545
O11 Ti0 1.980163 1_555
