# generated using pymatgen
data_Na6Ni3B9P6H3O38
_symmetry_space_group_name_H-M   'P 1'
_cell_length_a   11.81013017
_cell_length_b   11.81397715
_cell_length_c   12.19898083
_cell_angle_alpha   90.00000000
_cell_angle_beta   90.00000000
_cell_angle_gamma   120.00018583
_symmetry_Int_Tables_number   1
_chemical_formula_structural   Na6Ni3B9P6H3O38
_chemical_formula_sum   'Na12 Ni6 B18 P12 H6 O76'
_cell_volume   1474.02272130
_cell_formula_units_Z   2
loop_
 _symmetry_equiv_pos_site_id
 _symmetry_equiv_pos_as_xyz
  1  'x, y, z'
loop_
 _atom_site_type_symbol
 _atom_site_label
 _atom_site_symmetry_multiplicity
 _atom_site_fract_x
 _atom_site_fract_y
 _atom_site_fract_z
 _atom_site_occupancy
  Na  Na0  1  0.71908961  0.70148529  0.02880551  1
  Na  Na1  1  0.29867429  0.01746350  0.02874513  1
  Na  Na2  1  0.98260703  0.28122175  0.02872968  1
  Na  Na3  1  0.28091039  0.29851471  0.52880551  1
  Na  Na4  1  0.70132571  0.98253650  0.52874513  1
  Na  Na5  1  0.01739297  0.71877825  0.52872968  1
  Na  Na6  1  0.66686866  0.33328086  0.38087533  1
  Na  Na7  1  0.33313134  0.66671914  0.88087533  1
  Na  Na8  1  0.33317502  0.66650855  0.37301891  1
  Na  Na9  1  0.66682498  0.33349145  0.87301891  1
  Na  Na10  1  0.99980915  0.99979702  0.98530081  1
  Na  Na11  1  0.00019085  0.00020298  0.48530081  1
  Ni  Ni0  1  0.99700627  0.50097211  0.28108174  1
  Ni  Ni1  1  0.49900861  0.49595073  0.28130091  1
  Ni  Ni2  1  0.50407649  0.00293748  0.28117725  1
  Ni  Ni3  1  0.00299373  0.49902789  0.78108174  1
  Ni  Ni4  1  0.50099139  0.50404927  0.78130091  1
  Ni  Ni5  1  0.49592351  0.99706252  0.78117725  1
  B  B0  1  0.03801476  0.74914002  0.13225636  1
  B  B1  1  0.25143426  0.28910584  0.13220813  1
  B  B2  1  0.71128465  0.96214235  0.13221729  1
  B  B3  1  0.96198524  0.25085998  0.63225636  1
  B  B4  1  0.74856574  0.71089416  0.63220813  1
  B  B5  1  0.28871535  0.03785765  0.63221729  1
  B  B6  1  0.29597890  0.04299659  0.43053287  1
  B  B7  1  0.95675404  0.25289822  0.43046121  1
  B  B8  1  0.74652483  0.70366996  0.43059837  1
  B  B9  1  0.70402110  0.95700341  0.93053287  1
  B  B10  1  0.04324596  0.74710178  0.93046121  1
  B  B11  1  0.25347517  0.29633004  0.93059837  1
  B  B12  1  0.08800890  0.59332098  0.03545520  1
  B  B13  1  0.40752333  0.49486951  0.03550436  1
  B  B14  1  0.50541081  0.91213350  0.03547399  1
  B  B15  1  0.91199110  0.40667902  0.53545520  1
  B  B16  1  0.59247667  0.50513049  0.53550436  1
  B  B17  1  0.49458919  0.08786650  0.53547399  1
  P  P0  1  0.18738043  0.80735815  0.31615170  1
  P  P1  1  0.19271328  0.37996234  0.31612546  1
  P  P2  1  0.62019153  0.81279594  0.31603311  1
  P  P3  1  0.81261957  0.19264185  0.81615170  1
  P  P4  1  0.80728672  0.62003766  0.81612546  1
  P  P5  1  0.37980847  0.18720406  0.81603311  1
  P  P6  1  0.81381279  0.19674913  0.24230612  1
  P  P7  1  0.80310074  0.61708068  0.24241341  1
  P  P8  1  0.38285399  0.18608553  0.24246944  1
  P  P9  1  0.18618721  0.80325087  0.74230612  1
  P  P10  1  0.19689926  0.38291932  0.74241341  1
  P  P11  1  0.61714601  0.81391447  0.74246944  1
  H  H0  1  0.16482998  0.50575550  0.11705173  1
  H  H1  1  0.49419936  0.65911595  0.11712058  1
  H  H2  1  0.34099961  0.83512391  0.11707194  1
  H  H3  1  0.83517002  0.49424450  0.61705173  1
  H  H4  1  0.50580064  0.34088405  0.61712058  1
  H  H5  1  0.65900039  0.16487609  0.61707194  1
  O  O0  1  0.11377425  0.83673500  0.22344904  1
  O  O1  1  0.16398342  0.27735541  0.22341571  1
  O  O2  1  0.72323334  0.88655873  0.22350833  1
  O  O3  1  0.88622575  0.16326500  0.72344904  1
  O  O4  1  0.83601658  0.72264459  0.72341571  1
  O  O5  1  0.27676666  0.11344127  0.72350833  1
  O  O6  1  0.80580615  0.10290602  0.14780721  1
  O  O7  1  0.89721981  0.70307263  0.14805620  1
  O  O8  1  0.29713960  0.19425488  0.14783761  1
  O  O9  1  0.19419385  0.89709398  0.64780721  1
  O  O10  1  0.10278019  0.29692737  0.64805620  1
  O  O11  1  0.70286040  0.80574512  0.64783761  1
  O  O12  1  0.20143682  0.90076192  0.41289725  1
  O  O13  1  0.09908813  0.30047094  0.41270232  1
  O  O14  1  0.69926456  0.79845392  0.41286728  1
  O  O15  1  0.79856318  0.09923808  0.91289725  1
  O  O16  1  0.90091187  0.69952906  0.91270232  1
  O  O17  1  0.30073544  0.20154608  0.91286728  1
  O  O18  1  0.88205605  0.16583486  0.34000317  1
  O  O19  1  0.83353645  0.71595051  0.34016284  1
  O  O20  1  0.28352850  0.11757346  0.33999760  1
  O  O21  1  0.11794395  0.83416514  0.84000317  1
  O  O22  1  0.16646355  0.28404949  0.84016284  1
  O  O23  1  0.71647150  0.88242654  0.83999760  1
  O  O24  1  0.05895196  0.63292455  0.13235095  1
  O  O25  1  0.36801925  0.42611104  0.13239042  1
  O  O26  1  0.57410730  0.94122448  0.13234554  1
  O  O27  1  0.94104804  0.36707545  0.63235095  1
  O  O28  1  0.63198075  0.57388896  0.63239042  1
  O  O29  1  0.42589270  0.05877552  0.63234554  1
  O  O30  1  0.93522190  0.36956265  0.43451888  1
  O  O31  1  0.62951352  0.56560876  0.43456145  1
  O  O32  1  0.43416947  0.06447573  0.43457913  1
  O  O33  1  0.06477810  0.63043735  0.93451888  1
  O  O34  1  0.37048648  0.43439124  0.93456145  1
  O  O35  1  0.56583053  0.93552427  0.93457913  1
  O  O36  1  0.10550193  0.67054937  0.36612375  1
  O  O37  1  0.32963050  0.43517464  0.36618558  1
  O  O38  1  0.56529141  0.89467352  0.36609403  1
  O  O39  1  0.89449807  0.32945063  0.86612375  1
  O  O40  1  0.67036950  0.56482536  0.86618558  1
  O  O41  1  0.43470859  0.10532648  0.86609403  1
  O  O42  1  0.90352448  0.33324288  0.19482173  1
  O  O43  1  0.66665879  0.57016785  0.19492394  1
  O  O44  1  0.42948412  0.09620907  0.19488576  1
  O  O45  1  0.09647552  0.66675712  0.69482173  1
  O  O46  1  0.33334121  0.42983215  0.69492394  1
  O  O47  1  0.57051588  0.90379093  0.69488576  1
  O  O48  1  0.08159628  0.82160970  0.03090119  1
  O  O49  1  0.17887914  0.26037510  0.03094829  1
  O  O50  1  0.74033188  0.91864152  0.03089033  1
  O  O51  1  0.91840372  0.17839030  0.53090119  1
  O  O52  1  0.82112086  0.73962490  0.53094829  1
  O  O53  1  0.25966812  0.08135848  0.53089033  1
  O  O54  1  0.32046404  0.83234691  0.27312832  1
  O  O55  1  0.16754706  0.48789259  0.27309934  1
  O  O56  1  0.51214393  0.67975658  0.27283450  1
  O  O57  1  0.67953596  0.16765309  0.77312832  1
  O  O58  1  0.83245294  0.51210741  0.77309934  1
  O  O59  1  0.48785607  0.32024342  0.77283450  1
  O  O60  1  0.82930993  0.50970010  0.28104068  1
  O  O61  1  0.49011920  0.31937000  0.28121804  1
  O  O62  1  0.68032191  0.17070903  0.28095847  1
  O  O63  1  0.17069007  0.49029990  0.78104068  1
  O  O64  1  0.50988080  0.68063000  0.78121804  1
  O  O65  1  0.31967809  0.82929097  0.78095847  1
  O  O66  1  0.14520969  0.51564566  0.03962188  1
  O  O67  1  0.48464003  0.62967012  0.03963725  1
  O  O68  1  0.37050534  0.85469938  0.03961612  1
  O  O69  1  0.85479031  0.48435434  0.53962188  1
  O  O70  1  0.51535997  0.37032988  0.53963725  1
  O  O71  1  0.62949466  0.14530062  0.53961612  1
  O  O72  1  0.66660058  0.33335970  0.07701958  1
  O  O73  1  0.33339942  0.66664030  0.57701958  1
  O  O74  1  0.99998484  0.99997864  0.78250378  1
  O  O75  1  0.00001516  0.00002136  0.28250378  1
loop_
_geom_bond_atom_site_label_1
_geom_bond_atom_site_label_2
_geom_bond_distance
_geom_bond_site_symmetry_2
Na0 O43 2.436426 1_555
Na0 O40 2.438064 1_554
Na0 O50 2.449827 1_555
Na0 O67 2.460647 1_555
Na0 O7 2.550076 1_555
Na0 O16 2.582106 1_554
Na1 O44 2.433640 1_555
Na1 O41 2.434723 1_554
Na1 O48 2.448485 1_545
Na1 O68 2.462932 1_545
Na1 O8 2.551690 1_555
Na1 O17 2.583684 1_554
Na2 O42 2.435019 1_555
Na2 O39 2.436210 1_554
Na2 O49 2.450590 1_655
Na2 O66 2.461102 1_655
Na2 O6 2.551302 1_555
Na2 O15 2.582693 1_554
Na3 O46 2.436426 1_555
Na3 O37 2.438064 1_555
Na3 O53 2.449827 1_555
Na3 O70 2.460647 1_555
Na3 O10 2.550076 1_555
Na3 O13 2.582106 1_555
Na4 O47 2.433640 1_555
Na4 O38 2.434723 1_555
Na4 O51 2.448485 1_565
Na4 O71 2.462932 1_565
Na4 O11 2.551690 1_555
Na4 O14 2.583684 1_555
Na5 O45 2.435019 1_555
Na5 O36 2.436210 1_555
Na5 O52 2.450590 1_455
Na5 O69 2.461102 1_455
Na5 O9 2.551302 1_555
Na5 O12 2.582693 1_555
Na6 O62 2.346244 1_555
Na6 O60 2.347158 1_555
Na6 O61 2.349320 1_555
Na6 O71 2.810062 1_555
Na6 O69 2.810724 1_555
Na6 O70 2.815570 1_555
Na7 O65 2.346244 1_555
Na7 O63 2.347158 1_555
Na7 O64 2.349320 1_555
Na7 O68 2.810062 1_556
Na7 O66 2.810724 1_556
Na7 O67 2.815570 1_556
Na8 O55 2.374267 1_555
Na8 O54 2.374880 1_555
Na8 O56 2.377988 1_555
Na8 O73 2.488601 1_555
Na8 O37 2.713566 1_555
Na8 O36 2.714337 1_555
Na8 O38 2.720024 1_555
Na9 O58 2.374267 1_555
Na9 O57 2.374880 1_555
Na9 O59 2.377988 1_555
Na9 O72 2.488601 1_556
Na9 O40 2.713566 1_555
Na9 O39 2.714337 1_555
Na9 O41 2.720024 1_555
Na10 O74 2.473918 1_555
Na10 O50 2.771521 1_556
Na10 O48 2.776194 1_656
Na10 O49 2.783716 1_666
Na11 O75 2.473918 1_555
Na11 O53 2.771521 1_555
Na11 O51 2.776194 1_455
Na11 O52 2.783716 1_445
Ni0 O42 2.016190 1_555
Ni0 O60 2.034033 1_555
Ni0 O36 2.040735 1_655
Ni0 O55 2.097908 1_655
Ni0 O24 2.262032 1_655
Ni0 O30 2.305066 1_555
Ni1 O43 2.015768 1_555
Ni1 O61 2.035660 1_555
Ni1 O37 2.037897 1_555
Ni1 O56 2.100759 1_555
Ni1 O25 2.257751 1_555
Ni1 O31 2.297798 1_555
Ni2 O44 2.017202 1_555
Ni2 O62 2.033585 1_555
Ni2 O38 2.038713 1_545
Ni2 O54 2.098412 1_545
Ni2 O26 2.261634 1_545
Ni2 O32 2.304853 1_555
Ni3 O45 2.016190 1_555
Ni3 O63 2.034033 1_555
Ni3 O39 2.040735 1_455
Ni3 O58 2.097908 1_455
Ni3 O27 2.262032 1_455
Ni3 O33 2.305066 1_555
Ni4 O46 2.015768 1_555
Ni4 O64 2.035660 1_555
Ni4 O40 2.037897 1_555
Ni4 O59 2.100759 1_555
Ni4 O28 2.257751 1_555
Ni4 O34 2.297798 1_555
Ni5 O47 2.017202 1_555
Ni5 O65 2.033585 1_555
Ni5 O41 2.038713 1_565
Ni5 O57 2.098412 1_565
Ni5 O29 2.261634 1_565
Ni5 O35 2.304853 1_555
B0 O48 1.444303 1_555
B0 O0 1.477530 1_555
B0 O7 1.480980 1_455
B0 O24 1.511846 1_555
B1 O49 1.443778 1_555
B1 O1 1.476669 1_555
B1 O8 1.479278 1_555
B1 O25 1.512283 1_555
B2 O50 1.444301 1_555
B2 O2 1.477668 1_555
B2 O6 1.480340 1_565
B2 O26 1.511746 1_555
B3 O51 1.444303 1_555
B3 O3 1.477530 1_555
B3 O10 1.480980 1_655
B3 O27 1.511846 1_555
B4 O52 1.443778 1_555
B4 O4 1.476669 1_555
B4 O11 1.479278 1_555
B4 O28 1.512283 1_555
B5 O53 1.444301 1_555
B5 O5 1.477668 1_555
B5 O9 1.480340 1_545
B5 O29 1.511746 1_555
B6 O53 1.443072 1_555
B6 O20 1.465334 1_555
B6 O12 1.496782 1_545
B6 O32 1.521929 1_555
B7 O51 1.443103 1_555
B7 O18 1.465099 1_555
B7 O13 1.497916 1_655
B7 O30 1.522249 1_555
B8 O52 1.442545 1_555
B8 O19 1.464601 1_555
B8 O14 1.495734 1_555
B8 O31 1.522620 1_555
B9 O50 1.443072 1_556
B9 O23 1.465334 1_555
B9 O15 1.496782 1_565
B9 O35 1.521929 1_555
B10 O48 1.443103 1_556
B10 O21 1.465099 1_555
B10 O16 1.497916 1_455
B10 O33 1.522249 1_555
B11 O49 1.442545 1_556
B11 O22 1.464601 1_555
B11 O17 1.495734 1_555
B11 O34 1.522620 1_555
B12 O24 1.376381 1_555
B12 O33 1.379856 1_554
B12 O66 1.385988 1_555
B13 O25 1.376752 1_555
B13 O34 1.380450 1_554
B13 O67 1.384832 1_555
B14 O26 1.376230 1_555
B14 O35 1.379585 1_554
B14 O68 1.385760 1_555
B15 O27 1.376381 1_555
B15 O30 1.379856 1_555
B15 O69 1.385988 1_555
B16 O28 1.376752 1_555
B16 O31 1.380450 1_555
B16 O70 1.384832 1_555
B17 O29 1.376230 1_555
B17 O32 1.379585 1_555
B17 O71 1.385760 1_555
H0 O66 0.993289 1_555
H1 O67 0.993943 1_555
H2 O68 0.993542 1_555
H3 O69 0.993289 1_555
H4 O70 0.993943 1_555
H5 O71 0.993542 1_555
O0 P0 1.567390 1_555
O1 P1 1.565989 1_555
O2 P2 1.566470 1_555
O3 P3 1.567390 1_555
O4 P4 1.565989 1_555
O5 P5 1.566470 1_555
O6 P6 1.569127 1_555
O7 P7 1.569499 1_555
O8 P8 1.569850 1_555
O9 P9 1.569127 1_555
O10 P10 1.569499 1_555
O11 P11 1.569850 1_555
O12 P0 1.566807 1_555
O13 P1 1.566577 1_555
O14 P2 1.566671 1_555
O15 P3 1.566807 1_555
O16 P4 1.566577 1_555
O17 P5 1.566671 1_555
O18 P6 1.580416 1_555
O19 P7 1.579747 1_555
O20 P8 1.580250 1_555
O21 P9 1.580416 1_555
O22 P10 1.579747 1_555
O23 P11 1.580250 1_555
O36 P0 1.534948 1_555
O37 P1 1.535700 1_555
O38 P2 1.534987 1_555
O39 P3 1.534948 1_555
O40 P4 1.535700 1_555
O41 P5 1.534987 1_555
O42 P6 1.532927 1_555
O43 P7 1.531763 1_555
O44 P8 1.533749 1_555
O45 P9 1.532927 1_555
O46 P10 1.531763 1_555
O47 P11 1.533749 1_555
O54 P0 1.539142 1_555
O55 P1 1.539043 1_555
O56 P2 1.539715 1_555
O57 P3 1.539142 1_555
O58 P4 1.539043 1_555
O59 P5 1.539715 1_555
O60 P7 1.523106 1_555
O61 P8 1.520830 1_555
O62 P6 1.522320 1_555
O63 P10 1.523106 1_555
O64 P11 1.520830 1_555
O65 P9 1.522320 1_555
