# generated using pymatgen
data_GaBiN2
_symmetry_space_group_name_H-M   'P 1'
_cell_length_a   5.73737900
_cell_length_b   10.74593200
_cell_length_c   15.79636500
_cell_angle_alpha   90.00000000
_cell_angle_beta   90.00000000
_cell_angle_gamma   90.00000000
_symmetry_Int_Tables_number   1
_chemical_formula_structural   GaBiN2
_chemical_formula_sum   'Ga16 Bi16 N32'
_cell_volume   973.90094614
_cell_formula_units_Z   16
loop_
 _symmetry_equiv_pos_site_id
 _symmetry_equiv_pos_as_xyz
  1  'x, y, z'
loop_
 _atom_site_type_symbol
 _atom_site_label
 _atom_site_symmetry_multiplicity
 _atom_site_fract_x
 _atom_site_fract_y
 _atom_site_fract_z
 _atom_site_occupancy
  Ga  Ga0  1  0.76199400  0.00718100  0.18447000  1
  Ga  Ga1  1  0.26199400  0.49281900  0.81553000  1
  Ga  Ga2  1  0.23800600  0.50718100  0.31553000  1
  Ga  Ga3  1  0.73800600  0.99281900  0.68447000  1
  Ga  Ga4  1  0.23800600  0.99281900  0.81553000  1
  Ga  Ga5  1  0.73800600  0.50718100  0.18447000  1
  Ga  Ga6  1  0.76199400  0.49281900  0.68447000  1
  Ga  Ga7  1  0.26199400  0.00718100  0.31553000  1
  Ga  Ga8  1  0.78112000  0.26817700  0.06406600  1
  Ga  Ga9  1  0.28112000  0.23182300  0.93593400  1
  Ga  Ga10  1  0.21888000  0.76817700  0.43593400  1
  Ga  Ga11  1  0.71888000  0.73182300  0.56406600  1
  Ga  Ga12  1  0.21888000  0.73182300  0.93593400  1
  Ga  Ga13  1  0.71888000  0.76817700  0.06406600  1
  Ga  Ga14  1  0.78112000  0.23182300  0.56406600  1
  Ga  Ga15  1  0.28112000  0.26817700  0.43593400  1
  Bi  Bi0  1  0.75328600  0.99899100  0.44236900  1
  Bi  Bi1  1  0.25328600  0.50100900  0.55763100  1
  Bi  Bi2  1  0.24671400  0.49899100  0.05763100  1
  Bi  Bi3  1  0.74671400  0.00100900  0.94236900  1
  Bi  Bi4  1  0.24671400  0.00100900  0.55763100  1
  Bi  Bi5  1  0.74671400  0.49899100  0.44236900  1
  Bi  Bi6  1  0.75328600  0.50100900  0.94236900  1
  Bi  Bi7  1  0.25328600  0.99899100  0.05763100  1
  Bi  Bi8  1  0.82596900  0.27201600  0.30191600  1
  Bi  Bi9  1  0.32596900  0.22798400  0.69808400  1
  Bi  Bi10  1  0.17403100  0.77201600  0.19808400  1
  Bi  Bi11  1  0.67403100  0.72798400  0.80191600  1
  Bi  Bi12  1  0.17403100  0.72798400  0.69808400  1
  Bi  Bi13  1  0.67403100  0.77201600  0.30191600  1
  Bi  Bi14  1  0.82596900  0.22798400  0.80191600  1
  Bi  Bi15  1  0.32596900  0.27201600  0.19808400  1
  N  N0  1  0.51744700  0.42699300  0.26433700  1
  N  N1  1  0.01744700  0.07300700  0.73566300  1
  N  N2  1  0.48255300  0.92699300  0.23566300  1
  N  N3  1  0.98255300  0.57300700  0.76433700  1
  N  N4  1  0.48255300  0.57300700  0.73566300  1
  N  N5  1  0.98255300  0.92699300  0.26433700  1
  N  N6  1  0.51744700  0.07300700  0.76433700  1
  N  N7  1  0.01744700  0.42699300  0.23566300  1
  N  N8  1  0.58560100  0.32224800  0.48402200  1
  N  N9  1  0.08560100  0.17775200  0.51597800  1
  N  N10  1  0.41439900  0.82224800  0.01597800  1
  N  N11  1  0.91439900  0.67775200  0.98402200  1
  N  N12  1  0.41439900  0.67775200  0.51597800  1
  N  N13  1  0.91439900  0.82224800  0.48402200  1
  N  N14  1  0.58560100  0.17775200  0.98402200  1
  N  N15  1  0.08560100  0.32224800  0.01597800  1
  N  N16  1  0.63889800  0.43760100  0.07319200  1
  N  N17  1  0.13889800  0.06239900  0.92680800  1
  N  N18  1  0.36110200  0.93760100  0.42680800  1
  N  N19  1  0.86110200  0.56239900  0.57319200  1
  N  N20  1  0.36110200  0.56239900  0.92680800  1
  N  N21  1  0.86110200  0.93760100  0.07319200  1
  N  N22  1  0.63889800  0.06239900  0.57319200  1
  N  N23  1  0.13889800  0.43760100  0.42680800  1
  N  N24  1  0.74892800  0.18638400  0.17596800  1
  N  N25  1  0.24892800  0.31361600  0.82403200  1
  N  N26  1  0.25107200  0.68638400  0.32403200  1
  N  N27  1  0.75107200  0.81361600  0.67596800  1
  N  N28  1  0.25107200  0.81361600  0.82403200  1
  N  N29  1  0.75107200  0.68638400  0.17596800  1
  N  N30  1  0.74892800  0.31361600  0.67596800  1
  N  N31  1  0.24892800  0.18638400  0.32403200  1
loop_
_geom_bond_atom_site_label_1
_geom_bond_atom_site_label_2
_geom_bond_distance
_geom_bond_site_symmetry_2
Ga0 N24 1.931836 1_555
Ga0 N5 1.983806 1_545
Ga0 N2 1.991706 1_545
Ga0 N21 1.993039 1_545
Ga1 N25 1.931836 1_555
Ga1 N4 1.983806 1_555
Ga1 N3 1.991706 1_455
Ga1 N20 1.993039 1_555
Ga2 N26 1.931836 1_555
Ga2 N7 1.983806 1_555
Ga2 N0 1.991706 1_555
Ga2 N23 1.993039 1_555
Ga3 N27 1.931836 1_555
Ga3 N6 1.983806 1_565
Ga3 N1 1.991706 1_665
Ga3 N22 1.993039 1_565
Ga4 N28 1.931836 1_555
Ga4 N1 1.983806 1_565
Ga4 N6 1.991706 1_565
Ga4 N17 1.993039 1_565
Ga5 N29 1.931836 1_555
Ga5 N0 1.983806 1_555
Ga5 N7 1.991706 1_655
Ga5 N16 1.993039 1_555
Ga6 N30 1.931836 1_555
Ga6 N3 1.983806 1_555
Ga6 N4 1.991706 1_555
Ga6 N19 1.993039 1_555
Ga7 N31 1.931836 1_555
Ga7 N2 1.983806 1_545
Ga7 N5 1.991706 1_445
Ga7 N18 1.993039 1_545
Ga8 N14 1.949687 1_554
Ga8 N24 1.982731 1_555
Ga8 N15 1.991574 1_655
Ga8 N16 2.000315 1_555
Ga9 N15 1.949687 1_556
Ga9 N25 1.982731 1_555
Ga9 N14 1.991574 1_555
Ga9 N17 2.000315 1_555
Ga10 N12 1.949687 1_555
Ga10 N26 1.982731 1_555
Ga10 N13 1.991574 1_455
Ga10 N18 2.000315 1_555
Ga11 N13 1.949687 1_555
Ga11 N27 1.982731 1_555
Ga11 N12 1.991574 1_555
Ga11 N19 2.000315 1_555
Ga12 N10 1.949687 1_556
Ga12 N28 1.982731 1_555
Ga12 N11 1.991574 1_455
Ga12 N20 2.000315 1_555
Ga13 N11 1.949687 1_554
Ga13 N29 1.982731 1_555
Ga13 N10 1.991574 1_555
Ga13 N21 2.000315 1_555
Ga14 N8 1.949687 1_555
Ga14 N30 1.982731 1_555
Ga14 N9 1.991574 1_655
Ga14 N22 2.000315 1_555
Ga15 N9 1.949687 1_555
Ga15 N31 1.982731 1_555
Ga15 N8 1.991574 1_555
Ga15 N23 2.000315 1_555
Bi0 N13 2.212373 1_555
Bi0 N22 2.272779 1_565
Bi0 N18 2.357669 1_555
Bi1 N12 2.212373 1_555
Bi1 N23 2.272779 1_555
Bi1 N19 2.357669 1_455
Bi2 N15 2.212373 1_555
Bi2 N20 2.272779 1_554
Bi2 N16 2.357669 1_555
Bi3 N14 2.212373 1_555
Bi3 N21 2.272779 1_546
Bi3 N17 2.357669 1_655
Bi4 N9 2.212373 1_555
Bi4 N18 2.272779 1_545
Bi4 N22 2.357669 1_555
Bi5 N8 2.212373 1_555
Bi5 N19 2.272779 1_555
Bi5 N23 2.357669 1_655
Bi6 N11 2.212373 1_555
Bi6 N16 2.272779 1_556
Bi6 N20 2.357669 1_555
Bi7 N10 2.212373 1_555
Bi7 N17 2.272779 1_564
Bi7 N21 2.357669 1_455
Bi8 N24 2.236141 1_555
Bi8 N7 2.252915 1_655
Bi8 N0 2.501823 1_555
Bi8 N31 2.618695 1_655
Bi9 N25 2.236141 1_555
Bi9 N6 2.252915 1_555
Bi9 N1 2.501823 1_555
Bi9 N30 2.618695 1_555
Bi10 N26 2.236141 1_555
Bi10 N5 2.252915 1_455
Bi10 N2 2.501823 1_555
Bi10 N29 2.618695 1_455
Bi11 N27 2.236141 1_555
Bi11 N4 2.252915 1_555
Bi11 N3 2.501823 1_555
Bi11 N28 2.618695 1_555
Bi12 N28 2.236141 1_555
Bi12 N3 2.252915 1_455
Bi12 N4 2.501823 1_555
Bi12 N27 2.618695 1_455
Bi13 N29 2.236141 1_555
Bi13 N2 2.252915 1_555
Bi13 N5 2.501823 1_555
Bi13 N26 2.618695 1_555
Bi14 N30 2.236141 1_555
Bi14 N1 2.252915 1_655
Bi14 N6 2.501823 1_555
Bi14 N25 2.618695 1_655
Bi15 N31 2.236141 1_555
Bi15 N0 2.252915 1_555
Bi15 N7 2.501823 1_555
Bi15 N24 2.618695 1_555
