# generated using pymatgen
data_HC2N3
_symmetry_space_group_name_H-M   'P 1'
_cell_length_a   4.21627900
_cell_length_b   12.75390000
_cell_length_c   17.00156400
_cell_angle_alpha   90.00000000
_cell_angle_beta   90.00000000
_cell_angle_gamma   90.00000000
_symmetry_Int_Tables_number   1
_chemical_formula_structural   HC2N3
_chemical_formula_sum   'H12 C24 N36'
_cell_volume   914.24211508
_cell_formula_units_Z   12
loop_
 _symmetry_equiv_pos_site_id
 _symmetry_equiv_pos_as_xyz
  1  'x, y, z'
loop_
 _atom_site_type_symbol
 _atom_site_label
 _atom_site_symmetry_multiplicity
 _atom_site_fract_x
 _atom_site_fract_y
 _atom_site_fract_z
 _atom_site_occupancy
  H  H0  1  0.00000000  0.05687200  0.57729400  1
  H  H1  1  0.00000000  0.94312800  0.42270600  1
  H  H2  1  0.00000000  0.18218800  0.62494900  1
  H  H3  1  0.00000000  0.81781200  0.37505100  1
  H  H4  1  0.00000000  0.61554900  0.38165900  1
  H  H5  1  0.00000000  0.38445100  0.61834100  1
  H  H6  1  0.00000000  0.44312800  0.07729400  1
  H  H7  1  0.00000000  0.55687200  0.92270600  1
  H  H8  1  0.00000000  0.31781200  0.12494900  1
  H  H9  1  0.00000000  0.68218800  0.87505100  1
  H  H10  1  0.00000000  0.11554900  0.11834100  1
  H  H11  1  0.00000000  0.88445100  0.88165900  1
  C  C0  1  0.00000000  0.96433100  0.16315900  1
  C  C1  1  0.00000000  0.03566900  0.83684100  1
  C  C2  1  0.00000000  0.82931600  0.07439100  1
  C  C3  1  0.00000000  0.17068400  0.92560900  1
  C  C4  1  0.00000000  0.80217600  0.21674200  1
  C  C5  1  0.00000000  0.19782400  0.78325800  1
  C  C6  1  0.00000000  0.65197200  0.12932300  1
  C  C7  1  0.00000000  0.34802800  0.87067700  1
  C  C8  1  0.00000000  0.63308200  0.26232100  1
  C  C9  1  0.00000000  0.36691800  0.73767900  1
  C  C10  1  0.00000000  0.46433100  0.33684100  1
  C  C11  1  0.00000000  0.53566900  0.66315900  1
  C  C12  1  0.00000000  0.32931600  0.42560900  1
  C  C13  1  0.00000000  0.67068400  0.57439100  1
  C  C14  1  0.00000000  0.13308200  0.23767900  1
  C  C15  1  0.00000000  0.86691800  0.76232100  1
  C  C16  1  0.00000000  0.15197200  0.37067700  1
  C  C17  1  0.00000000  0.84802800  0.62932300  1
  C  C18  1  0.00000000  0.18127000  0.50392400  1
  C  C19  1  0.00000000  0.81873000  0.49607600  1
  C  C20  1  0.00000000  0.30217600  0.28325800  1
  C  C21  1  0.00000000  0.69782400  0.71674200  1
  C  C22  1  0.00000000  0.31873000  0.00392400  1
  C  C23  1  0.00000000  0.68127000  0.99607600  1
  N  N0  1  0.00000000  0.90529100  0.22812200  1
  N  N1  1  0.00000000  0.09470900  0.77187800  1
  N  N2  1  0.00000000  0.93265400  0.08770300  1
  N  N3  1  0.00000000  0.06734600  0.91229700  1
  N  N4  1  0.00000000  0.76130400  0.14032400  1
  N  N5  1  0.00000000  0.23869600  0.85967600  1
  N  N6  1  0.00000000  0.73730200  0.27814500  1
  N  N7  1  0.00000000  0.26269800  0.72185500  1
  N  N8  1  0.00000000  0.61265200  0.05772000  1
  N  N9  1  0.00000000  0.38734800  0.94228000  1
  N  N10  1  0.00000000  0.58820200  0.19176100  1
  N  N11  1  0.00000000  0.41179800  0.80823900  1
  N  N12  1  0.00000000  0.57318000  0.33004100  1
  N  N13  1  0.00000000  0.42682000  0.66995900  1
  N  N14  1  0.00000000  0.40529100  0.27187800  1
  N  N15  1  0.00000000  0.59470900  0.72812200  1
  N  N16  1  0.00000000  0.43265400  0.41229700  1
  N  N17  1  0.00000000  0.56734600  0.58770300  1
  N  N18  1  0.00000000  0.28848500  0.49864100  1
  N  N19  1  0.00000000  0.71151500  0.50135900  1
  N  N20  1  0.00000000  0.26130400  0.35967600  1
  N  N21  1  0.00000000  0.73869600  0.64032400  1
  N  N22  1  0.00000000  0.23730200  0.22185500  1
  N  N23  1  0.00000000  0.76269800  0.77814500  1
  N  N24  1  0.00000000  0.07318000  0.16995900  1
  N  N25  1  0.00000000  0.92682000  0.83004100  1
  N  N26  1  0.00000000  0.08820200  0.30823900  1
  N  N27  1  0.00000000  0.91179800  0.69176100  1
  N  N28  1  0.00000000  0.11265200  0.44228000  1
  N  N29  1  0.00000000  0.88734800  0.55772000  1
  N  N30  1  0.00000000  0.13729700  0.57448900  1
  N  N31  1  0.00000000  0.86270300  0.42551100  1
  N  N32  1  0.00000000  0.78848500  0.00135900  1
  N  N33  1  0.00000000  0.21151500  0.99864100  1
  N  N34  1  0.00000000  0.36270300  0.07448900  1
  N  N35  1  0.00000000  0.63729700  0.92551100  1
loop_
_geom_bond_atom_site_label_1
_geom_bond_atom_site_label_2
_geom_bond_distance
_geom_bond_site_symmetry_2
H0 N30 1.026840 1_555
H1 N31 1.026840 1_555
H2 N30 1.031401 1_555
H3 N31 1.031401 1_555
H4 N12 1.030611 1_555
H5 N13 1.030611 1_555
H6 N34 1.026840 1_555
H7 N35 1.026840 1_555
H8 N34 1.031401 1_555
H9 N35 1.031401 1_555
H10 N24 1.030611 1_555
H11 N25 1.030611 1_555
C0 N0 1.336733 1_555
C0 N2 1.344982 1_555
C0 N24 1.393055 1_565
C1 N1 1.336733 1_555
C1 N3 1.344982 1_555
C1 N25 1.393055 1_545
C2 N2 1.337254 1_555
C2 N32 1.346440 1_555
C2 N4 1.417383 1_555
C3 N3 1.337254 1_555
C3 N33 1.346440 1_555
C3 N5 1.417383 1_555
C4 N0 1.329274 1_555
C4 N6 1.332070 1_555
C4 N4 1.399899 1_555
C5 N1 1.329274 1_555
C5 N7 1.332070 1_555
C5 N5 1.399899 1_555
C6 N8 1.316609 1_555
C6 N10 1.337295 1_555
C6 N4 1.406897 1_555
C7 N9 1.316609 1_555
C7 N11 1.337295 1_555
C7 N5 1.406897 1_555
C8 N10 1.329191 1_555
C8 N6 1.356164 1_555
C8 N12 1.381763 1_555
C9 N11 1.329191 1_555
C9 N7 1.356164 1_555
C9 N13 1.381763 1_555
C10 N14 1.336733 1_555
C10 N16 1.344982 1_555
C10 N12 1.393055 1_555
C11 N15 1.336733 1_555
C11 N17 1.344982 1_555
C11 N13 1.393055 1_555
C12 N16 1.337254 1_555
C12 N18 1.346440 1_555
C12 N20 1.417383 1_555
C13 N17 1.337254 1_555
C13 N19 1.346440 1_555
C13 N21 1.417383 1_555
C14 N26 1.329191 1_555
C14 N22 1.356164 1_555
C14 N24 1.381763 1_555
C15 N27 1.329191 1_555
C15 N23 1.356164 1_555
C15 N25 1.381763 1_555
C16 N28 1.316609 1_555
C16 N26 1.337295 1_555
C16 N20 1.406897 1_555
C17 N29 1.316609 1_555
C17 N27 1.337295 1_555
C17 N21 1.406897 1_555
C18 N30 1.324328 1_555
C18 N28 1.365386 1_555
C18 N18 1.370356 1_555
C19 N31 1.324328 1_555
C19 N29 1.365386 1_555
C19 N19 1.370356 1_555
C20 N14 1.329274 1_555
C20 N22 1.332070 1_555
C20 N20 1.399899 1_555
C21 N15 1.329274 1_555
C21 N23 1.332070 1_555
C21 N21 1.399899 1_555
C22 N34 1.324328 1_555
C22 N9 1.365386 1_554
C22 N33 1.370356 1_554
C23 N35 1.324328 1_555
C23 N8 1.365386 1_556
C23 N32 1.370356 1_556
