# generated using pymatgen
data_PmNd3
_symmetry_space_group_name_H-M   'P 1'
_cell_length_a   7.50597826
_cell_length_b   7.50597826
_cell_length_c   5.87537204
_cell_angle_alpha   90.00000000
_cell_angle_beta   90.00000000
_cell_angle_gamma   120.00000162
_symmetry_Int_Tables_number   1
_chemical_formula_structural   PmNd3
_chemical_formula_sum   'Pm2 Nd6'
_cell_volume   286.66891432
_cell_formula_units_Z   2
loop_
 _symmetry_equiv_pos_site_id
 _symmetry_equiv_pos_as_xyz
  1  'x, y, z'
loop_
 _atom_site_type_symbol
 _atom_site_label
 _atom_site_symmetry_multiplicity
 _atom_site_fract_x
 _atom_site_fract_y
 _atom_site_fract_z
 _atom_site_occupancy
  Pm  Pm0  1  0.66666700  0.33333300  0.25000000  1
  Pm  Pm1  1  0.33333300  0.66666700  0.75000000  1
  Nd  Nd0  1  0.83330702  0.16669298  0.75000000  1
  Nd  Nd1  1  0.33338697  0.16669298  0.75000000  1
  Nd  Nd2  1  0.83330702  0.66661303  0.75000000  1
  Nd  Nd3  1  0.16669298  0.83330702  0.25000000  1
  Nd  Nd4  1  0.66661303  0.83330702  0.25000000  1
  Nd  Nd5  1  0.16669298  0.33338697  0.25000000  1
loop_
_geom_bond_atom_site_label_1
_geom_bond_atom_site_label_2
_geom_bond_distance
_geom_bond_site_symmetry_2
Nd0 Pm0 3.650133 1_555
Nd0 Pm0 3.650133 1_556
Nd0 Nd4 3.650542 1_546
Nd0 Nd4 3.650542 1_545
Nd0 Nd5 3.650542 1_655
Nd0 Nd5 3.650542 1_656
Nd0 Nd2 3.752389 1_555
Nd0 Nd1 3.752389 1_555
Nd0 Pm1 3.752989 1_545
Nd0 Pm1 3.752989 1_655
Nd0 Nd2 3.753589 1_545
Nd0 Nd1 3.753589 1_655
Nd1 Pm0 3.650133 1_555
Nd1 Pm0 3.650133 1_556
Nd1 Nd3 3.650542 1_545
Nd1 Nd3 3.650542 1_546
Nd1 Nd5 3.650550 1_556
Nd1 Nd5 3.650550 1_555
Nd1 Nd2 3.752389 1_555
Nd1 Pm1 3.752982 1_545
Nd1 Pm1 3.752997 1_555
Nd1 Nd2 3.753589 1_445
Nd2 Pm0 3.650133 1_555
Nd2 Pm0 3.650133 1_556
Nd2 Nd3 3.650542 1_655
Nd2 Nd3 3.650542 1_656
Nd2 Nd4 3.650550 1_555
Nd2 Nd4 3.650550 1_556
Nd2 Pm1 3.752982 1_655
Nd2 Pm1 3.752997 1_555
Nd3 Pm1 3.650133 1_554
Nd3 Pm1 3.650133 1_555
Nd3 Nd4 3.752389 1_555
Nd3 Nd5 3.752389 1_555
Nd3 Pm0 3.752989 1_455
Nd3 Pm0 3.752989 1_565
Nd3 Nd4 3.753589 1_455
Nd3 Nd5 3.753589 1_565
Nd4 Pm1 3.650133 1_555
Nd4 Pm1 3.650133 1_554
Nd4 Nd5 3.752389 1_555
Nd4 Pm0 3.752982 1_565
Nd4 Pm0 3.752997 1_555
Nd4 Nd5 3.753589 1_665
Nd5 Pm1 3.650133 1_554
Nd5 Pm1 3.650133 1_555
Nd5 Pm0 3.752982 1_455
Nd5 Pm0 3.752997 1_555
