# generated using pymatgen
data_Sr5(SnN3)2
_symmetry_space_group_name_H-M   'P 1'
_cell_length_a   6.45745682
_cell_length_b   6.90514904
_cell_length_c   13.89907974
_cell_angle_alpha   89.99999972
_cell_angle_beta   98.39142534
_cell_angle_gamma   122.32117883
_symmetry_Int_Tables_number   1
_chemical_formula_structural   Sr5(SnN3)2
_chemical_formula_sum   'Sr10 Sn4 N12'
_cell_volume   515.86494818
_cell_formula_units_Z   2
loop_
 _symmetry_equiv_pos_site_id
 _symmetry_equiv_pos_as_xyz
  1  'x, y, z'
loop_
 _atom_site_type_symbol
 _atom_site_label
 _atom_site_symmetry_multiplicity
 _atom_site_fract_x
 _atom_site_fract_y
 _atom_site_fract_z
 _atom_site_occupancy
  Sr  Sr0  1  0.08919800  0.77309900  0.99888100  1
  Sr  Sr1  1  0.91080200  0.68390100  0.50111900  1
  Sr  Sr2  1  0.91080200  0.22690100  0.00111900  1
  Sr  Sr3  1  0.08919800  0.31609900  0.49888100  1
  Sr  Sr4  1  0.31409300  0.04610900  0.71684300  1
  Sr  Sr5  1  0.68590700  0.73201600  0.78315700  1
  Sr  Sr6  1  0.68590700  0.95389100  0.28315700  1
  Sr  Sr7  1  0.31409300  0.26798400  0.21684300  1
  Sr  Sr8  1  0.00000000  0.36812000  0.75000000  1
  Sr  Sr9  1  0.00000000  0.63188000  0.25000000  1
  Sn  Sn0  1  0.56204900  0.88272800  0.57373100  1
  Sn  Sn1  1  0.43795100  0.32067900  0.92626900  1
  Sn  Sn2  1  0.43795100  0.11727200  0.42626900  1
  Sn  Sn3  1  0.56204900  0.67932100  0.07373100  1
  N  N0  1  0.91818500  0.96753300  0.62464300  1
  N  N1  1  0.08181500  0.04934800  0.87535700  1
  N  N2  1  0.08181500  0.03246700  0.37535700  1
  N  N3  1  0.91818500  0.95065200  0.12464300  1
  N  N4  1  0.28898400  0.67074600  0.65380500  1
  N  N5  1  0.71101600  0.38176200  0.84619500  1
  N  N6  1  0.71101600  0.32925400  0.34619500  1
  N  N7  1  0.28898400  0.61823800  0.15380500  1
  N  N8  1  0.61114500  0.22458400  0.57642000  1
  N  N9  1  0.38885500  0.61343900  0.92358000  1
  N  N10  1  0.38885500  0.77541600  0.42358000  1
  N  N11  1  0.61114500  0.38656100  0.07642000  1
loop_
_geom_bond_atom_site_label_1
_geom_bond_atom_site_label_2
_geom_bond_distance
_geom_bond_site_symmetry_2
N0 Sn0 2.053626 1_555
N0 Sr4 2.456233 1_665
N0 Sr1 2.581082 1_555
N0 Sr3 2.790923 1_665
N0 Sr5 2.846885 1_555
N0 Sr8 3.022400 1_665
N1 Sn1 2.053626 1_555
N1 Sr5 2.456233 1_445
N1 Sr0 2.581082 1_545
N1 Sr2 2.790923 1_456
N1 Sr4 2.846885 1_555
N1 Sr8 3.022400 1_555
N2 Sn2 2.053626 1_555
N2 Sr6 2.456233 1_445
N2 Sr3 2.581082 1_555
N2 Sr1 2.790923 1_445
N2 Sr7 2.846885 1_555
N2 Sr9 3.022400 1_545
N3 Sn3 2.053626 1_555
N3 Sr7 2.456233 1_665
N3 Sr2 2.581082 1_565
N3 Sr0 2.790923 1_654
N3 Sr6 2.846885 1_555
N3 Sr9 3.022400 1_655
N4 Sn0 2.074441 1_555
N4 Sr8 2.488982 1_555
N4 Sr4 2.649763 1_565
N4 Sr5 2.734289 1_555
N4 Sr3 2.847625 1_555
N4 Sr1 3.033208 1_455
N5 Sn1 2.074441 1_555
N5 Sr8 2.488982 1_655
N5 Sr5 2.649763 1_555
N5 Sr4 2.734289 1_555
N5 Sr2 2.847625 1_556
N5 Sr0 3.033208 1_655
N6 Sn2 2.074441 1_555
N6 Sr9 2.488982 1_655
N6 Sr6 2.649763 1_545
N6 Sr7 2.734289 1_555
N6 Sr1 2.847625 1_555
N6 Sr3 3.033208 1_655
N7 Sn3 2.074441 1_555
N7 Sr9 2.488982 1_555
N7 Sr7 2.649763 1_555
N7 Sr6 2.734289 1_555
N7 Sr0 2.847625 1_554
N7 Sr2 3.033208 1_455
N8 Sn2 2.141931 1_555
N8 Sn0 2.206911 1_545
N8 Sr4 2.751811 1_555
N8 Sr8 2.945967 1_655
N8 Sr1 2.987890 1_555
N8 Sr3 3.158394 1_655
N9 Sn3 2.141931 1_556
N9 Sn1 2.206911 1_555
N9 Sr5 2.751811 1_555
N9 Sr8 2.945967 1_555
N9 Sr0 2.987890 1_555
N9 Sr2 3.158394 1_456
N10 Sn0 2.141931 1_555
N10 Sn2 2.206911 1_565
N10 Sr6 2.751811 1_555
N10 Sr9 2.945967 1_555
N10 Sr3 2.987890 1_555
N10 Sr1 3.158394 1_455
N11 Sn1 2.141931 1_554
N11 Sn3 2.206911 1_555
N11 Sr7 2.751811 1_555
N11 Sr9 2.945967 1_655
N11 Sr2 2.987890 1_555
N11 Sr0 3.158394 1_654
