# generated using pymatgen
data_TmNi3
_symmetry_space_group_name_H-M   'P 1'
_cell_length_a   4.87865417
_cell_length_b   4.87865417
_cell_length_c   8.44079459
_cell_angle_alpha   73.23090567
_cell_angle_beta   73.23090567
_cell_angle_gamma   60.03474456
_symmetry_Int_Tables_number   1
_chemical_formula_structural   TmNi3
_chemical_formula_sum   'Tm3 Ni9'
_cell_volume   164.10063108
_cell_formula_units_Z   3
loop_
 _symmetry_equiv_pos_site_id
 _symmetry_equiv_pos_as_xyz
  1  'x, y, z'
loop_
 _atom_site_type_symbol
 _atom_site_label
 _atom_site_symmetry_multiplicity
 _atom_site_fract_x
 _atom_site_fract_y
 _atom_site_fract_z
 _atom_site_occupancy
  Tm  Tm0  1  0.13900646  0.13900646  0.58317895  1
  Tm  Tm1  1  0.86103324  0.86103324  0.41670032  1
  Tm  Tm2  1  -0.00000741  -0.00000741  0.00002096  1
  Ni  Ni0  1  0.08022740  0.58317404  0.75391031  1
  Ni  Ni1  1  0.58309725  0.58309725  0.75389987  1
  Ni  Ni2  1  0.58317404  0.08022740  0.75391031  1
  Ni  Ni3  1  0.91978496  0.41680925  0.24610848  1
  Ni  Ni4  1  0.41688644  0.41688644  0.24611822  1
  Ni  Ni5  1  0.41680925  0.91978496  0.24610848  1
  Ni  Ni6  1  0.33340749  0.33340749  -0.00014457  1
  Ni  Ni7  1  0.66654525  0.66654525  0.00029478  1
  Ni  Ni8  1  0.50003563  0.50003563  0.49989390  1
loop_
_geom_bond_atom_site_label_1
_geom_bond_atom_site_label_2
_geom_bond_distance
_geom_bond_site_symmetry_2
Ni0 Ni7 2.410360 1_456
Ni0 Ni6 2.415898 1_556
Ni0 Ni1 2.425539 1_455
Ni0 Ni2 2.426225 1_465
Ni0 Ni1 2.453116 1_555
Ni0 Ni2 2.454991 1_555
Ni0 Ni8 2.468690 1_555
Ni0 Tm0 2.792095 1_565
Ni0 Tm0 2.792382 1_555
Ni0 Tm1 3.027297 1_455
Ni0 Tm2 3.126831 1_566
Ni0 Tm2 3.129909 1_556
Ni1 Ni7 2.408243 1_556
Ni1 Ni6 2.416934 1_556
Ni1 Ni2 2.425539 1_565
Ni1 Ni2 2.453116 1_555
Ni1 Ni8 2.468180 1_555
Ni1 Tm0 2.793316 1_565
Ni1 Tm0 2.793316 1_655
Ni1 Tm1 3.026714 1_555
Ni1 Tm2 3.129428 1_566
Ni1 Tm2 3.129428 1_656
Ni2 Ni7 2.410360 1_546
Ni2 Ni6 2.415898 1_556
Ni2 Ni8 2.468690 1_555
Ni2 Tm0 2.792095 1_655
Ni2 Tm0 2.792382 1_555
Ni2 Tm1 3.027297 1_545
Ni2 Tm2 3.126831 1_656
Ni2 Tm2 3.129909 1_556
Ni3 Ni6 2.409470 1_655
Ni3 Ni7 2.415090 1_555
Ni3 Ni4 2.425398 1_655
Ni3 Ni5 2.426083 1_645
Ni3 Ni4 2.453256 1_555
Ni3 Ni5 2.455133 1_555
Ni3 Ni8 2.467229 1_555
Ni3 Tm1 2.791554 1_545
Ni3 Tm1 2.791844 1_555
Ni3 Tm0 3.026275 1_655
Ni3 Tm2 3.126717 1_655
Ni3 Tm2 3.129794 1_665
Ni4 Ni6 2.407323 1_555
Ni4 Ni7 2.416147 1_555
Ni4 Ni5 2.425398 1_545
Ni4 Ni5 2.453256 1_555
Ni4 Ni8 2.466732 1_555
Ni4 Tm1 2.792779 1_545
Ni4 Tm1 2.792779 1_455
Ni4 Tm0 3.025696 1_555
Ni4 Tm2 3.129310 1_565
Ni4 Tm2 3.129310 1_655
Ni5 Ni6 2.409470 1_565
Ni5 Ni7 2.415090 1_555
Ni5 Ni8 2.467229 1_555
Ni5 Tm1 2.791554 1_455
Ni5 Tm1 2.791844 1_555
Ni5 Tm0 3.026275 1_565
Ni5 Tm2 3.126717 1_565
Ni5 Tm2 3.129794 1_665
Ni6 Tm2 2.816423 1_555
Ni6 Tm2 2.817567 1_655
Ni6 Tm2 2.817567 1_565
Ni7 Tm2 2.816393 1_665
Ni7 Tm2 2.817583 1_655
Ni7 Tm2 2.817583 1_565
Ni8 Tm1 2.892728 1_555
Ni8 Tm0 2.892904 1_555
Ni8 Tm1 2.894548 1_545
Ni8 Tm1 2.894548 1_455
Ni8 Tm0 2.894710 1_565
Ni8 Tm0 2.894710 1_655
