# generated using pymatgen
data_K2CuAs
_symmetry_space_group_name_H-M   'P 1'
_cell_length_a   5.82699999
_cell_length_b   6.29682108
_cell_length_c   6.29682042
_cell_angle_alpha   105.85242825
_cell_angle_beta   90.00000000
_cell_angle_gamma   90.00000000
_symmetry_Int_Tables_number   1
_chemical_formula_structural   K2CuAs
_chemical_formula_sum   'K4 Cu2 As2'
_cell_volume   222.25344586
_cell_formula_units_Z   2
loop_
 _symmetry_equiv_pos_site_id
 _symmetry_equiv_pos_as_xyz
  1  'x, y, z'
loop_
 _atom_site_type_symbol
 _atom_site_label
 _atom_site_symmetry_multiplicity
 _atom_site_fract_x
 _atom_site_fract_y
 _atom_site_fract_z
 _atom_site_occupancy
  K  K0  1  0.25000000  0.02176703  0.68413002  1
  K  K1  1  0.75000000  0.97823297  0.31586998  1
  K  K2  1  0.75000000  0.31586998  0.97823297  1
  K  K3  1  0.25000000  0.68413002  0.02176703  1
  Cu  Cu0  1  0.50000000  0.50000000  0.50000000  1
  Cu  Cu1  1  -0.00000000  0.50000000  0.50000000  1
  As  As0  1  0.25000000  0.26077789  0.26077789  1
  As  As1  1  0.75000000  0.73922211  0.73922211  1
loop_
_geom_bond_atom_site_label_1
_geom_bond_atom_site_label_2
_geom_bond_distance
_geom_bond_site_symmetry_2
Cu0 K3 3.489935 1_556
Cu0 K2 3.489935 1_554
Cu0 K1 3.489935 1_545
Cu0 K0 3.489935 1_565
Cu1 K3 3.489935 1_556
Cu1 K2 3.489935 1_454
Cu1 K1 3.489935 1_445
Cu1 K0 3.489935 1_565
As0 Cu0 2.328218 1_555
As0 Cu1 2.328218 1_555
As0 K0 3.400476 1_555
As0 K3 3.400477 1_555
As0 K2 3.480134 1_454
As0 K2 3.480134 1_554
As0 K1 3.480134 1_445
As0 K1 3.480134 1_545
As0 K0 3.530446 1_554
As0 K3 3.530446 1_545
As1 Cu0 2.328218 1_555
As1 Cu1 2.328218 1_655
As1 K1 3.400476 1_555
As1 K2 3.400477 1_555
As1 K3 3.480134 1_556
As1 K3 3.480134 1_656
As1 K0 3.480134 1_565
As1 K0 3.480134 1_665
As1 K1 3.530446 1_556
As1 K2 3.530446 1_565
