# generated using pymatgen
data_K5Na3Ta5Nb3O20
_symmetry_space_group_name_H-M   'P 1'
_cell_length_a   11.45970388
_cell_length_b   11.45654437
_cell_length_c   17.84375800
_cell_angle_alpha   108.96652547
_cell_angle_beta   108.88618266
_cell_angle_gamma   90.05565513
_symmetry_Int_Tables_number   1
_chemical_formula_structural   K5Na3Ta5Nb3O20
_chemical_formula_sum   'K20 Na12 Ta20 Nb12 O80'
_cell_volume   2081.41042573
_cell_formula_units_Z   4
loop_
 _symmetry_equiv_pos_site_id
 _symmetry_equiv_pos_as_xyz
  1  'x, y, z'
loop_
 _atom_site_type_symbol
 _atom_site_label
 _atom_site_symmetry_multiplicity
 _atom_site_fract_x
 _atom_site_fract_y
 _atom_site_fract_z
 _atom_site_occupancy
  K  K0  1  0.30656800  0.05684200  0.12021800  1
  K  K1  1  0.31039400  0.55788200  0.12058100  1
  K  K2  1  0.80920900  0.05908200  0.12236000  1
  K  K3  1  0.80772400  0.55916000  0.12106100  1
  K  K4  1  0.81523000  0.57294900  0.62763100  1
  K  K5  1  0.18953700  0.94194900  0.38004700  1
  K  K6  1  0.18640500  0.92556300  0.87472700  1
  K  K7  1  0.69204600  0.44329100  0.38192400  1
  K  K8  1  0.68223900  0.42275000  0.87770400  1
  K  K9  1  0.68733700  0.93810600  0.37876100  1
  K  K10  1  0.68910300  0.92449200  0.88079700  1
  K  K11  1  0.06127600  0.31073900  0.12195400  1
  K  K12  1  0.05903500  0.81072400  0.12087200  1
  K  K13  1  0.55939800  0.31363900  0.12237300  1
  K  K14  1  0.55811700  0.80939800  0.12251100  1
  K  K15  1  0.43952400  0.18714900  0.38134200  1
  K  K16  1  0.44266900  0.68918100  0.38127700  1
  K  K17  1  0.44225300  0.70505100  0.88975300  1
  K  K18  1  0.94021800  0.69035800  0.38200600  1
  K  K19  1  0.93478100  0.69303000  0.87301700  1
  Na  Na0  1  0.29885400  0.07618100  0.60667200  1
  Na  Na1  1  0.30133800  0.56734200  0.60125700  1
  Na  Na2  1  0.80233800  0.06676300  0.60226800  1
  Na  Na3  1  0.19578000  0.43346300  0.38327000  1
  Na  Na4  1  0.19466000  0.42735100  0.89226100  1
  Na  Na5  1  0.04907200  0.28381900  0.60604000  1
  Na  Na6  1  0.05811300  0.79868700  0.61273800  1
  Na  Na7  1  0.55284300  0.29185900  0.60923200  1
  Na  Na8  1  0.55204800  0.78759200  0.60842000  1
  Na  Na9  1  0.44118900  0.20962100  0.89518600  1
  Na  Na10  1  0.94202300  0.19346700  0.38170700  1
  Na  Na11  1  0.94602600  0.20947500  0.89804800  1
  Ta  Ta0  1  0.99698600  0.99875000  0.99865800  1
  Ta  Ta1  1  0.00127800  0.00041000  0.50168900  1
  Ta  Ta2  1  0.99742900  0.49740200  0.99762400  1
  Ta  Ta3  1  0.00554200  0.50328800  0.50591900  1
  Ta  Ta4  1  0.49890200  0.00073400  0.00092000  1
  Ta  Ta5  1  0.50215300  0.00188200  0.50422200  1
  Ta  Ta6  1  0.49663500  0.49921100  0.99808900  1
  Ta  Ta7  1  0.50265100  0.49973400  0.50272500  1
  Ta  Ta8  1  0.24712400  0.24640200  0.99830700  1
  Ta  Ta9  1  0.25157000  0.25468800  0.50363500  1
  Ta  Ta10  1  0.24625400  0.74609200  0.99755400  1
  Ta  Ta11  1  0.25379900  0.75246400  0.50287000  1
  Ta  Ta12  1  0.74784900  0.24692700  0.00027000  1
  Ta  Ta13  1  0.75389400  0.25170400  0.50231200  1
  Ta  Ta14  1  0.74872200  0.74646500  0.00005000  1
  Ta  Ta15  1  0.75357100  0.75458000  0.50524900  1
  Ta  Ta16  1  0.12018800  0.11800700  0.25243000  1
  Ta  Ta17  1  0.13111300  0.61618300  0.25103200  1
  Ta  Ta18  1  0.62395400  0.11219300  0.25192500  1
  Ta  Ta19  1  0.87952700  0.38894400  0.25410000  1
  Nb  Nb0  1  0.08750400  0.08856700  0.74701500  1
  Nb  Nb1  1  0.14576200  0.56280600  0.74887200  1
  Nb  Nb2  1  0.58605500  0.07547000  0.74754000  1
  Nb  Nb3  1  0.62272900  0.61816200  0.25167100  1
  Nb  Nb4  1  0.58876300  0.57779000  0.74570800  1
  Nb  Nb5  1  0.37923000  0.37949200  0.25152300  1
  Nb  Nb6  1  0.35123700  0.42704600  0.74727100  1
  Nb  Nb7  1  0.36668000  0.87792300  0.25039700  1
  Nb  Nb8  1  0.37634400  0.92824500  0.74679800  1
  Nb  Nb9  1  0.86409600  0.38862500  0.74795700  1
  Nb  Nb10  1  0.87593500  0.87775400  0.25128200  1
  Nb  Nb11  1  0.87075700  0.93357400  0.74891100  1
  O  O0  1  0.12582200  0.12874700  0.50292200  1
  O  O1  1  0.11713300  0.12049600  0.99151600  1
  O  O2  1  0.12987000  0.62822400  0.50373300  1
  O  O3  1  0.11830900  0.61707500  0.98970100  1
  O  O4  1  0.62777300  0.12683800  0.50416300  1
  O  O5  1  0.61971300  0.12230200  0.99571600  1
  O  O6  1  0.62779000  0.62889300  0.50570300  1
  O  O7  1  0.62073700  0.62023200  0.99561700  1
  O  O8  1  0.12202600  0.37208000  0.99747600  1
  O  O9  1  0.13076500  0.38125300  0.50923500  1
  O  O10  1  0.11880000  0.87141100  0.99396500  1
  O  O11  1  0.13619600  0.88392100  0.51740700  1
  O  O12  1  0.61871800  0.36819800  0.99508400  1
  O  O13  1  0.63260300  0.37856500  0.51246100  1
  O  O14  1  0.62297500  0.87481000  0.00012200  1
  O  O15  1  0.63251000  0.88473000  0.51540200  1
  O  O16  1  0.37588900  0.12937500  0.50463200  1
  O  O17  1  0.36980500  0.11960600  0.98881400  1
  O  O18  1  0.37456000  0.62438700  0.50043800  1
  O  O19  1  0.36743500  0.61874500  0.99324300  1
  O  O20  1  0.87483700  0.12357100  0.49493400  1
  O  O21  1  0.86978600  0.12199200  0.99429400  1
  O  O22  1  0.88252700  0.62920800  0.50671700  1
  O  O23  1  0.87068600  0.61761500  0.99255400  1
  O  O24  1  0.36829000  0.36955900  0.99210000  1
  O  O25  1  0.37900100  0.38087000  0.51028300  1
  O  O26  1  0.37253100  0.87643100  0.99884400  1
  O  O27  1  0.38153900  0.88103000  0.51196000  1
  O  O28  1  0.87192100  0.36988200  0.99872400  1
  O  O29  1  0.88380500  0.37851700  0.50933200  1
  O  O30  1  0.87237700  0.87099700  0.99593300  1
  O  O31  1  0.88134000  0.88223800  0.51211700  1
  O  O32  1  0.05947200  0.06752100  0.12436600  1
  O  O33  1  0.05676700  0.08873500  0.63396500  1
  O  O34  1  0.06345700  0.56780200  0.12613100  1
  O  O35  1  0.08438700  0.57982700  0.63671700  1
  O  O36  1  0.55942700  0.06898200  0.12498300  1
  O  O37  1  0.56099100  0.08922000  0.63832800  1
  O  O38  1  0.55802500  0.56255800  0.12078400  1
  O  O39  1  0.56442500  0.57761800  0.63303000  1
  O  O40  1  0.44000500  0.42983000  0.38043400  1
  O  O41  1  0.43048900  0.43500700  0.86397000  1
  O  O42  1  0.43839300  0.93429300  0.38166400  1
  O  O43  1  0.43827200  0.92624600  0.86064500  1
  O  O44  1  0.94314200  0.43070900  0.37771100  1
  O  O45  1  0.93366400  0.41390400  0.86884000  1
  O  O46  1  0.94390200  0.92833000  0.38087200  1
  O  O47  1  0.92648300  0.93557900  0.86458000  1
  O  O48  1  0.30950200  0.30266300  0.12004900  1
  O  O49  1  0.31501800  0.30943900  0.63303000  1
  O  O50  1  0.30500700  0.80525000  0.12061500  1
  O  O51  1  0.33772400  0.80187800  0.63774900  1
  O  O52  1  0.81249600  0.30743200  0.12638600  1
  O  O53  1  0.82877200  0.29001300  0.62892500  1
  O  O54  1  0.81150000  0.80484400  0.12143200  1
  O  O55  1  0.82482800  0.81358900  0.63598400  1
  O  O56  1  0.18665300  0.20119200  0.37786000  1
  O  O57  1  0.17488000  0.18815500  0.86331200  1
  O  O58  1  0.18790600  0.69766000  0.37783300  1
  O  O59  1  0.19309300  0.68517600  0.86245200  1
  O  O60  1  0.68594900  0.19717900  0.37586000  1
  O  O61  1  0.67576500  0.17619300  0.86458400  1
  O  O62  1  0.69109400  0.69805800  0.38223600  1
  O  O63  1  0.67334800  0.67542700  0.86421300  1
  O  O64  1  0.49513400  0.00888100  0.25065400  1
  O  O65  1  0.41233400  0.10167900  0.74882900  1
  O  O66  1  0.50129400  0.49850300  0.25166300  1
  O  O67  1  0.41458700  0.58441000  0.73725800  1
  O  O68  1  0.99377000  0.01706200  0.25461900  1
  O  O69  1  0.91470200  0.10339400  0.74911300  1
  O  O70  1  0.00009100  0.50570100  0.25295500  1
  O  O71  1  0.97973400  0.51157700  0.74922100  1
  O  O72  1  0.25098400  0.50629100  0.25320500  1
  O  O73  1  0.17607500  0.39031000  0.74793900  1
  O  O74  1  0.24830600  0.01371600  0.25171700  1
  O  O75  1  0.20201600  0.95738500  0.73692300  1
  O  O76  1  0.75105300  0.49353700  0.25265300  1
  O  O77  1  0.70207700  0.44287500  0.73761900  1
  O  O78  1  0.75276900  0.01112800  0.25279300  1
  O  O79  1  0.68258900  0.93297500  0.73562000  1
loop_
_geom_bond_atom_site_label_1
_geom_bond_atom_site_label_2
_geom_bond_distance
_geom_bond_site_symmetry_2
K0 O26 2.772556 1_544
K0 O48 2.817420 1_555
K0 O10 2.821405 1_544
K0 O74 2.821844 1_555
K0 O64 2.822448 1_555
K0 O32 2.858171 1_555
K0 O36 2.873188 1_555
K0 O50 2.884737 1_545
K0 O1 2.895300 1_554
K0 O17 2.955498 1_554
K1 O8 2.810343 1_554
K1 O50 2.834522 1_555
K1 O38 2.837039 1_555
K1 O19 2.840220 1_554
K1 O24 2.850139 1_554
K1 O34 2.864501 1_555
K1 O72 2.892181 1_555
K1 O66 2.905880 1_555
K1 O3 2.909252 1_554
K1 O48 2.920853 1_555
K2 O14 2.784526 1_545
K2 O68 2.789940 1_555
K2 O78 2.818158 1_555
K2 O52 2.822606 1_555
K2 O30 2.856009 1_544
K2 O32 2.857702 1_655
K2 O5 2.870036 1_554
K2 O36 2.879663 1_555
K2 O21 2.884442 1_554
K2 O54 2.907542 1_545
K3 O54 2.812803 1_555
K3 O28 2.823915 1_554
K3 O7 2.829741 1_554
K3 O12 2.858804 1_554
K3 O38 2.860205 1_555
K3 O23 2.880193 1_554
K3 O70 2.890422 1_655
K3 O34 2.903192 1_655
K3 O52 2.916189 1_555
K3 O76 2.938421 1_555
K4 O71 2.664925 1_555
K4 O55 2.712290 1_555
K4 O6 2.764395 1_555
K4 O22 2.765034 1_555
K4 O13 2.791846 1_555
K4 O29 2.838328 1_555
K4 O39 2.906732 1_555
K4 O35 3.035435 1_655
K5 O58 2.786077 1_555
K5 O0 2.812404 1_565
K5 O16 2.815675 1_565
K5 O46 2.824131 1_455
K5 O42 2.844335 1_555
K5 O27 2.930333 1_555
K5 O74 2.931608 1_565
K5 O68 2.964424 1_465
K5 O11 2.975135 1_555
K5 O56 2.983016 1_565
K6 O75 2.660580 1_555
K6 O59 2.693985 1_555
K6 O10 2.726945 1_555
K6 O26 2.743321 1_555
K6 O17 2.789759 1_565
K6 O1 2.830133 1_565
K6 O47 2.929712 1_455
K6 O43 2.977382 1_555
K6 O57 3.080756 1_565
K7 O60 2.786234 1_555
K7 O6 2.818683 1_555
K7 O76 2.825162 1_555
K7 O22 2.832192 1_555
K7 O66 2.872319 1_555
K7 O40 2.883333 1_555
K7 O29 2.900659 1_555
K7 O44 2.905194 1_555
K7 O62 2.916982 1_555
K7 O13 2.930594 1_555
K8 O77 2.663731 1_555
K8 O12 2.672912 1_555
K8 O28 2.751186 1_555
K8 O61 2.756389 1_555
K8 O7 2.812670 1_555
K8 O41 2.822825 1_555
K8 O23 2.828254 1_555
K8 O45 2.936340 1_555
K8 O63 2.980924 1_555
K9 O20 2.770064 1_565
K9 O62 2.770959 1_555
K9 O4 2.827505 1_565
K9 O42 2.870557 1_555
K9 O31 2.929624 1_555
K9 O46 2.930901 1_555
K9 O78 2.937121 1_565
K9 O15 2.945101 1_555
K9 O64 2.946701 1_565
K9 O60 2.985276 1_565
K10 O79 2.600808 1_555
K10 O30 2.652378 1_555
K10 O14 2.695045 1_556
K10 O63 2.770872 1_555
K10 O43 2.779898 1_555
K10 O21 2.793912 1_565
K10 O5 2.830433 1_565
K10 O47 2.834211 1_555
K10 O61 2.989457 1_565
K11 O32 2.800881 1_555
K11 O28 2.808076 1_454
K11 O8 2.815460 1_554
K11 O48 2.857011 1_555
K11 O21 2.869351 1_454
K11 O1 2.871765 1_554
K11 O52 2.878068 1_455
K11 O72 2.917906 1_555
K11 O34 2.921556 1_555
K11 O70 2.935114 1_555
K12 O34 2.814903 1_555
K12 O30 2.817595 1_454
K12 O50 2.820979 1_555
K12 O54 2.840739 1_455
K12 O10 2.847271 1_554
K12 O23 2.880014 1_454
K12 O3 2.918638 1_554
K12 O32 2.922302 1_565
K12 O74 2.957423 1_565
K12 O68 3.055300 1_465
K13 O12 2.816606 1_554
K13 O36 2.818403 1_555
K13 O76 2.836747 1_555
K13 O66 2.841186 1_555
K13 O48 2.852637 1_555
K13 O5 2.860861 1_554
K13 O38 2.861101 1_555
K13 O24 2.878426 1_554
K13 O52 2.879570 1_555
K13 O17 2.921731 1_554
K14 O38 2.818064 1_555
K14 O14 2.827881 1_555
K14 O26 2.837056 1_554
K14 O7 2.864213 1_554
K14 O19 2.884271 1_554
K14 O50 2.889956 1_555
K14 O54 2.910389 1_555
K14 O64 2.940583 1_565
K14 O36 2.959844 1_565
K14 O78 2.976899 1_565
K15 O40 2.785604 1_555
K15 O16 2.791751 1_555
K15 O74 2.796893 1_555
K15 O4 2.803719 1_555
K15 O64 2.807853 1_555
K15 O60 2.860597 1_555
K15 O56 2.884092 1_555
K15 O42 2.898753 1_545
K15 O25 2.901224 1_555
K15 O13 2.912537 1_555
K16 O18 2.789361 1_555
K16 O6 2.803108 1_555
K16 O42 2.806414 1_555
K16 O72 2.840196 1_555
K16 O62 2.842906 1_555
K16 O66 2.880460 1_555
K16 O58 2.902589 1_555
K16 O27 2.913450 1_555
K16 O15 2.935016 1_555
K16 O40 2.966489 1_555
K17 O67 2.532006 1_555
K17 O26 2.609245 1_555
K17 O14 2.609999 1_556
K17 O19 2.707979 1_555
K17 O7 2.718815 1_555
K17 O59 2.732774 1_555
K17 O43 2.744838 1_555
K17 O63 2.831747 1_555
K17 O41 2.972386 1_555
K18 O46 2.733367 1_555
K18 O22 2.800858 1_555
K18 O2 2.810706 1_655
K18 O70 2.847442 1_655
K18 O62 2.857625 1_555
K18 O58 2.865248 1_655
K18 O31 2.894353 1_555
K18 O76 2.911952 1_555
K18 O44 2.951166 1_555
K18 O11 2.965408 1_655
K19 O71 2.687056 1_555
K19 O10 2.731210 1_655
K19 O30 2.755060 1_555
K19 O3 2.803934 1_655
K19 O47 2.831337 1_555
K19 O23 2.836651 1_555
K19 O63 2.952046 1_555
K19 O59 3.026063 1_655
K19 O45 3.174294 1_555
Na0 O65 2.364947 1_555
Na0 O0 2.464221 1_555
Na0 O16 2.495351 1_555
Na0 O49 2.553920 1_555
Na0 O11 2.579260 1_545
Na0 O27 2.708744 1_545
Na0 O37 2.865527 1_555
Na0 O33 2.963817 1_555
Na1 O67 2.294315 1_555
Na1 O2 2.440059 1_555
Na1 O18 2.471436 1_555
Na1 O51 2.549985 1_555
Na1 O25 2.583769 1_555
Na1 O9 2.588584 1_555
Na1 O35 2.749953 1_555
Na1 O39 2.876503 1_555
Na2 O69 2.408293 1_555
Na2 O53 2.444199 1_555
Na2 O4 2.461460 1_555
Na2 O15 2.545061 1_545
Na2 O31 2.571459 1_545
Na2 O20 2.573189 1_555
Na2 O33 2.779010 1_655
Na3 O56 2.631966 1_555
Na3 O18 2.756559 1_555
Na3 O25 2.778060 1_555
Na3 O9 2.814638 1_555
Na3 O40 2.815638 1_555
Na3 O2 2.847138 1_555
Na3 O44 2.864374 1_455
Na3 O72 2.948033 1_555
Na3 O70 2.999947 1_555
Na4 O73 2.406598 1_555
Na4 O24 2.458805 1_555
Na4 O8 2.530206 1_555
Na4 O57 2.613545 1_555
Na4 O3 2.654246 1_555
Na4 O19 2.662454 1_555
Na4 O45 2.879608 1_455
Na4 O41 2.911655 1_555
Na5 O73 2.370786 1_555
Na5 O33 2.438666 1_555
Na5 O0 2.498259 1_555
Na5 O20 2.520317 1_455
Na5 O29 2.616666 1_455
Na5 O53 2.682194 1_455
Na5 O9 2.721119 1_555
Na5 O49 2.926178 1_555
Na6 O75 2.438243 1_555
Na6 O22 2.556971 1_455
Na6 O11 2.590611 1_555
Na6 O2 2.615863 1_555
Na6 O31 2.647628 1_455
Na6 O35 2.678831 1_555
Na6 O55 2.832116 1_455
Na7 O77 2.459221 1_555
Na7 O16 2.518916 1_555
Na7 O37 2.533841 1_555
Na7 O4 2.562785 1_555
Na7 O13 2.634172 1_555
Na7 O25 2.650155 1_555
Na7 O49 2.888498 1_555
Na8 O79 2.345928 1_555
Na8 O6 2.507031 1_555
Na8 O18 2.541505 1_555
Na8 O39 2.578133 1_555
Na8 O27 2.636477 1_555
Na8 O15 2.651992 1_555
Na8 O51 2.666509 1_555
Na9 O65 2.408257 1_555
Na9 O24 2.433998 1_555
Na9 O12 2.481328 1_555
Na9 O17 2.554781 1_555
Na9 O5 2.683034 1_555
Na9 O41 2.807863 1_555
Na9 O57 2.912306 1_555
Na9 O61 2.913323 1_555
Na10 O20 2.715423 1_555
Na10 O68 2.733574 1_555
Na10 O44 2.742103 1_555
Na10 O0 2.785803 1_655
Na10 O29 2.823789 1_555
Na10 O78 2.827864 1_555
Na10 O56 2.828352 1_655
Na10 O9 2.847323 1_655
Na10 O60 2.903290 1_555
Na11 O69 2.439384 1_555
Na11 O28 2.483995 1_555
Na11 O8 2.492732 1_655
Na11 O45 2.554054 1_555
Na11 O1 2.580226 1_655
Na11 O21 2.608795 1_555
Na11 O57 2.876984 1_655
Na11 O61 2.957450 1_555
Na11 O47 2.991180 1_545
Nb0 O57 1.929834 1_555
Nb0 O33 1.932835 1_555
Nb0 O75 1.998516 1_545
Nb0 O69 1.999049 1_455
Nb1 O59 1.951168 1_555
Nb1 O35 1.969896 1_555
Nb1 O71 1.993084 1_455
Nb1 O73 2.002508 1_555
Nb2 O37 1.934484 1_555
Nb2 O61 1.947165 1_555
Nb2 O79 1.965760 1_545
Nb2 O65 2.019964 1_555
Nb3 O66 1.952414 1_555
Nb3 O76 2.050617 1_555
Nb3 O62 2.076109 1_555
Nb3 O38 2.078729 1_555
Nb4 O39 1.937703 1_555
Nb4 O63 1.948245 1_555
Nb4 O67 1.955868 1_555
Nb4 O77 2.018993 1_555
Nb5 O66 1.951288 1_555
Nb5 O40 2.051490 1_555
Nb5 O72 2.067714 1_555
Nb5 O48 2.087991 1_555
Nb6 O49 1.951643 1_555
Nb6 O41 1.954838 1_555
Nb6 O67 2.024853 1_555
Nb6 O73 2.055153 1_555
Nb7 O50 2.059512 1_555
Nb7 O74 2.064451 1_565
Nb7 O42 2.085263 1_555
Nb7 O64 2.098757 1_565
Nb8 O51 1.920461 1_555
Nb8 O43 1.930790 1_555
Nb8 O75 1.986238 1_555
Nb8 O65 2.015273 1_565
Nb9 O71 1.922796 1_555
Nb9 O77 1.929417 1_555
Nb9 O53 1.958110 1_555
Nb9 O45 1.962743 1_555
Nb10 O54 2.060254 1_555
Nb10 O46 2.061957 1_555
Nb10 O68 2.063048 1_565
Nb10 O78 2.080806 1_565
Nb11 O55 1.933508 1_555
Nb11 O47 1.945298 1_555
Nb11 O69 2.007773 1_565
Nb11 O79 2.091406 1_555
O0 Ta9 2.032416 1_555
O0 Ta1 2.038096 1_555
O1 Ta8 2.019843 1_555
O1 Ta0 2.020593 1_445
O2 Ta11 2.016832 1_555
O2 Ta3 2.036786 1_555
O3 Ta2 2.016864 1_455
O3 Ta10 2.020472 1_555
O4 Ta5 2.029702 1_555
O4 Ta13 2.047934 1_555
O5 Ta4 2.007149 1_556
O5 Ta12 2.011119 1_556
O6 Ta7 2.035763 1_555
O6 Ta15 2.040164 1_555
O7 Ta6 2.005838 1_555
O7 Ta14 2.023677 1_556
O8 Ta2 2.025859 1_455
O8 Ta8 2.032890 1_555
O9 Ta3 2.005035 1_555
O9 Ta9 2.007058 1_555
O10 Ta0 2.020941 1_455
O10 Ta10 2.049877 1_555
O11 Ta11 2.031760 1_555
O11 Ta1 2.053483 1_565
O12 Ta12 2.031645 1_556
O12 Ta6 2.052650 1_555
O13 Ta13 2.018145 1_555
O13 Ta7 2.041632 1_555
O14 Ta4 2.026529 1_565
O14 Ta14 2.059778 1_555
O15 Ta5 2.014396 1_565
O15 Ta15 2.042525 1_555
O16 Ta9 2.023670 1_555
O16 Ta5 2.056979 1_555
O17 Ta4 2.019468 1_556
O17 Ta8 2.028195 1_555
O18 Ta11 2.017791 1_555
O18 Ta7 2.049140 1_555
O19 Ta10 2.015712 1_555
O19 Ta6 2.018180 1_555
O20 Ta13 2.022278 1_555
O20 Ta1 2.026435 1_655
O21 Ta12 2.003451 1_556
O21 Ta0 2.031355 1_545
O22 Ta3 2.017972 1_655
O22 Ta15 2.061828 1_555
O23 Ta2 2.003577 1_555
O23 Ta14 2.036457 1_556
O24 Ta8 2.031846 1_555
O24 Ta6 2.042495 1_555
O25 Ta9 2.002169 1_555
O25 Ta7 2.029734 1_555
O26 Ta4 2.013347 1_566
O26 Ta10 2.067913 1_555
O27 Ta11 2.006366 1_555
O27 Ta5 2.022526 1_565
O28 Ta12 2.013302 1_556
O28 Ta2 2.058209 1_555
O29 Ta13 2.024736 1_555
O29 Ta3 2.025082 1_655
O30 Ta0 2.021973 1_555
O30 Ta14 2.044630 1_556
O31 Ta15 2.015196 1_555
O31 Ta1 2.020481 1_665
O32 Ta0 1.993815 1_444
O32 Ta16 2.037471 1_555
O33 Ta1 2.115159 1_555
O34 Ta17 1.988212 1_555
O34 Ta2 2.038258 1_454
O35 Ta3 2.082175 1_555
O36 Ta4 1.967969 1_555
O36 Ta18 2.026991 1_555
O37 Ta5 2.140044 1_555
O38 Ta6 1.945226 1_554
O39 Ta7 2.070781 1_555
O40 Ta7 1.940928 1_555
O41 Ta6 2.126790 1_555
O42 Ta5 1.944141 1_565
O43 Ta4 2.227257 1_566
O44 Ta19 1.974278 1_555
O44 Ta3 2.034613 1_655
O45 Ta2 2.052421 1_555
O46 Ta1 1.919875 1_665
O47 Ta0 2.126589 1_555
O48 Ta8 1.931095 1_554
O49 Ta9 2.055235 1_555
O50 Ta10 1.951690 1_554
O51 Ta11 2.157008 1_555
O52 Ta12 1.999820 1_555
O52 Ta19 2.034082 1_555
O53 Ta13 2.032940 1_555
O54 Ta14 1.924769 1_555
O55 Ta15 2.075183 1_555
O56 Ta9 1.997516 1_555
O56 Ta16 2.001535 1_555
O57 Ta8 2.143859 1_555
O58 Ta11 1.984984 1_555
O58 Ta17 2.021612 1_555
O59 Ta10 2.150483 1_555
O60 Ta18 1.981213 1_555
O60 Ta13 2.008282 1_555
O61 Ta12 2.151648 1_556
O62 Ta15 1.951354 1_555
O63 Ta14 2.155096 1_556
O64 Ta18 1.881006 1_555
O68 Ta16 1.870958 1_655
O70 Ta19 1.931585 1_455
O70 Ta17 1.978786 1_555
O72 Ta17 1.863911 1_555
O74 Ta16 1.894454 1_555
O76 Ta19 1.898170 1_555
O78 Ta18 1.876209 1_555
