# generated using pymatgen
data_Mg5Ag
_symmetry_space_group_name_H-M   'P 1'
_cell_length_a   5.36217914
_cell_length_b   5.36217914
_cell_length_c   4.94743407
_cell_angle_alpha   90.00000000
_cell_angle_beta   90.00000000
_cell_angle_gamma   120.00000790
_symmetry_Int_Tables_number   1
_chemical_formula_structural   Mg5Ag
_chemical_formula_sum   'Mg5 Ag1'
_cell_volume   123.19504777
_cell_formula_units_Z   1
loop_
 _symmetry_equiv_pos_site_id
 _symmetry_equiv_pos_as_xyz
  1  'x, y, z'
loop_
 _atom_site_type_symbol
 _atom_site_label
 _atom_site_symmetry_multiplicity
 _atom_site_fract_x
 _atom_site_fract_y
 _atom_site_fract_z
 _atom_site_occupancy
  Mg  Mg0  1  0.66666700  0.33333300  -0.00000000  1
  Mg  Mg1  1  0.31941940  -0.00000000  0.50000000  1
  Mg  Mg2  1  0.68058060  0.68058060  0.50000000  1
  Mg  Mg3  1  -0.00000000  0.31941940  0.50000000  1
  Mg  Mg4  1  0.33333300  0.66666700  0.00000000  1
  Ag  Ag0  1  0.00000000  0.00000000  0.00000000  1
loop_
_geom_bond_atom_site_label_1
_geom_bond_atom_site_label_2
_geom_bond_distance
_geom_bond_site_symmetry_2
Mg0 Mg3 3.074567 1_654
Mg0 Mg3 3.074567 1_655
Mg0 Mg1 3.074569 1_555
Mg0 Mg1 3.074569 1_554
Mg0 Mg2 3.074570 1_554
Mg0 Mg2 3.074570 1_555
Mg0 Mg4 3.095852 1_545
Mg0 Mg4 3.095852 1_655
Mg0 Mg4 3.095862 1_555
Mg1 Mg2 2.966629 1_445
Mg1 Mg3 2.966629 1_555
Mg1 Mg4 3.074567 1_545
Mg1 Mg4 3.074567 1_546
Mg1 Mg2 3.162449 1_555
Mg1 Mg3 3.162449 1_545
Mg1 Mg3 3.162449 1_655
Mg1 Mg2 3.162450 1_545
Mg2 Mg3 2.966629 1_665
Mg2 Mg4 3.074570 1_556
Mg2 Mg4 3.074570 1_555
Mg2 Mg3 3.162449 1_555
Mg2 Mg3 3.162450 1_655
Mg3 Mg4 3.074569 1_555
Mg3 Mg4 3.074569 1_556
Ag0 Mg2 3.008804 1_444
Ag0 Mg2 3.008804 1_445
Ag0 Mg3 3.008805 1_555
Ag0 Mg3 3.008805 1_554
Ag0 Mg1 3.008805 1_555
Ag0 Mg1 3.008805 1_554
Ag0 Mg4 3.095853 1_545
Ag0 Mg0 3.095853 1_455
Ag0 Mg4 3.095857 1_445
Ag0 Mg0 3.095857 1_555
Ag0 Mg0 3.095857 1_445
Ag0 Mg4 3.095857 1_555
