# generated using pymatgen
data_Rb2Cd3S4
_symmetry_space_group_name_H-M   'P 1'
_cell_length_a   6.64761019
_cell_length_b   10.62820565
_cell_length_c   14.30973411
_cell_angle_alpha   90.00000000
_cell_angle_beta   90.00000000
_cell_angle_gamma   90.00000000
_symmetry_Int_Tables_number   1
_chemical_formula_structural   Rb2Cd3S4
_chemical_formula_sum   'Rb8 Cd12 S16'
_cell_volume   1011.01374096
_cell_formula_units_Z   4
loop_
 _symmetry_equiv_pos_site_id
 _symmetry_equiv_pos_as_xyz
  1  'x, y, z'
loop_
 _atom_site_type_symbol
 _atom_site_label
 _atom_site_symmetry_multiplicity
 _atom_site_fract_x
 _atom_site_fract_y
 _atom_site_fract_z
 _atom_site_occupancy
  Rb  Rb0  1  0.02300017  0.75000000  0.46553659  1
  Rb  Rb1  1  0.52300017  0.25000000  0.03446341  1
  Rb  Rb2  1  0.97699983  0.25000000  0.53446341  1
  Rb  Rb3  1  0.47699983  0.75000000  0.96553659  1
  Rb  Rb4  1  -0.00000000  -0.00000000  0.00000000  1
  Rb  Rb5  1  0.50000000  0.50000000  0.50000000  1
  Rb  Rb6  1  -0.00000000  0.50000000  0.00000000  1
  Rb  Rb7  1  0.50000000  -0.00000000  0.50000000  1
  Cd  Cd0  1  0.32239635  0.90683570  0.25309622  1
  Cd  Cd1  1  0.82239635  0.09316430  0.24690378  1
  Cd  Cd2  1  0.67760365  0.40683570  0.74690378  1
  Cd  Cd3  1  0.17760365  0.59316430  0.75309622  1
  Cd  Cd4  1  0.67760365  0.09316430  0.74690378  1
  Cd  Cd5  1  0.17760365  0.90683570  0.75309622  1
  Cd  Cd6  1  0.32239635  0.59316430  0.25309622  1
  Cd  Cd7  1  0.82239635  0.40683570  0.24690378  1
  Cd  Cd8  1  0.74032324  0.75000000  0.70732495  1
  Cd  Cd9  1  0.24032324  0.25000000  0.79267505  1
  Cd  Cd10  1  0.25967676  0.25000000  0.29267505  1
  Cd  Cd11  1  0.75967676  0.75000000  0.20732495  1
  S  S0  1  0.60621634  0.96273200  0.14017317  1
  S  S1  1  0.10621634  0.03726800  0.35982683  1
  S  S2  1  0.39378366  0.46273200  0.85982683  1
  S  S3  1  0.89378366  0.53726800  0.64017317  1
  S  S4  1  0.39378366  0.03726800  0.85982683  1
  S  S5  1  0.89378366  0.96273200  0.64017317  1
  S  S6  1  0.60621634  0.53726800  0.14017317  1
  S  S7  1  0.10621634  0.46273200  0.35982683  1
  S  S8  1  0.95467340  0.75000000  0.85650784  1
  S  S9  1  0.45467340  0.25000000  0.64349216  1
  S  S10  1  0.04532660  0.25000000  0.14349216  1
  S  S11  1  0.54532660  0.75000000  0.35650784  1
  S  S12  1  0.88350991  0.25000000  0.84695039  1
  S  S13  1  0.61649009  0.25000000  0.34695039  1
  S  S14  1  0.11649009  0.75000000  0.15304961  1
  S  S15  1  0.38350991  0.75000000  0.65304961  1
loop_
_geom_bond_atom_site_label_1
_geom_bond_atom_site_label_2
_geom_bond_distance
_geom_bond_site_symmetry_2
Rb0 S1 3.451941 1_565
Rb0 S7 3.451941 1_555
Rb0 S5 3.477758 1_455
Rb0 S3 3.477758 1_455
Rb0 S11 3.537969 1_455
Rb0 S15 3.597671 1_555
Rb0 S11 3.806635 1_555
Rb1 S6 3.451941 1_555
Rb1 S0 3.451941 1_545
Rb1 S2 3.477758 1_554
Rb1 S4 3.477758 1_554
Rb1 S10 3.537969 1_555
Rb1 S12 3.597671 1_554
Rb1 S10 3.806635 1_655
Rb2 S3 3.451941 1_555
Rb2 S5 3.451941 1_545
Rb2 S7 3.477758 1_655
Rb2 S1 3.477758 1_655
Rb2 S9 3.537969 1_655
Rb2 S13 3.597671 1_555
Rb2 S9 3.806635 1_555
Rb3 S4 3.451941 1_565
Rb3 S2 3.451941 1_555
Rb3 S0 3.477758 1_556
Rb3 S6 3.477758 1_556
Rb3 S8 3.537969 1_555
Rb3 S14 3.597671 1_556
Rb3 S8 3.806635 1_455
Rb4 S4 3.321558 1_554
Rb4 S0 3.321558 1_445
Rb4 S10 3.371483 1_555
Rb4 S8 3.371483 1_444
Rb4 S12 3.529323 1_454
Rb4 S14 3.529323 1_545
Rb5 S3 3.321558 1_555
Rb5 S7 3.321558 1_555
Rb5 S11 3.371483 1_555
Rb5 S9 3.371483 1_555
Rb5 S13 3.529323 1_555
Rb5 S15 3.529323 1_555
Rb6 S6 3.321558 1_455
Rb6 S2 3.321558 1_554
Rb6 S10 3.371483 1_555
Rb6 S8 3.371483 1_454
Rb6 S12 3.529323 1_454
Rb6 S14 3.529323 1_555
Rb7 S1 3.321558 1_555
Rb7 S5 3.321558 1_545
Rb7 S11 3.371483 1_545
Rb7 S9 3.371483 1_555
Rb7 S13 3.529323 1_555
Rb7 S15 3.529323 1_545
Cd0 S1 2.513867 1_565
Cd0 S0 2.554170 1_555
Cd0 S14 2.588757 1_555
Cd0 S11 2.676652 1_555
Cd1 S0 2.513867 1_545
Cd1 S1 2.554170 1_655
Cd1 S13 2.588757 1_555
Cd1 S10 2.676652 1_655
Cd2 S3 2.513867 1_555
Cd2 S2 2.554170 1_555
Cd2 S12 2.588757 1_555
Cd2 S9 2.676652 1_555
Cd3 S2 2.513867 1_555
Cd3 S3 2.554170 1_455
Cd3 S15 2.588757 1_555
Cd3 S8 2.676652 1_455
Cd4 S5 2.513867 1_545
Cd4 S4 2.554170 1_555
Cd4 S12 2.588757 1_555
Cd4 S9 2.676652 1_555
Cd5 S4 2.513867 1_565
Cd5 S5 2.554170 1_455
Cd5 S15 2.588757 1_555
Cd5 S8 2.676652 1_455
Cd6 S7 2.513867 1_555
Cd6 S6 2.554170 1_555
Cd6 S14 2.588757 1_555
Cd6 S11 2.676652 1_555
Cd7 S6 2.513867 1_555
Cd7 S7 2.554170 1_655
Cd7 S13 2.588757 1_555
Cd7 S10 2.676652 1_655
Cd8 S15 2.495873 1_555
Cd8 S8 2.566636 1_555
Cd8 S5 2.660077 1_555
Cd8 S3 2.660077 1_555
Cd9 S12 2.495873 1_455
Cd9 S9 2.566636 1_555
Cd9 S2 2.660077 1_555
Cd9 S4 2.660077 1_555
Cd10 S13 2.495873 1_555
Cd10 S10 2.566636 1_555
Cd10 S7 2.660077 1_555
Cd10 S1 2.660077 1_555
Cd11 S14 2.495873 1_655
Cd11 S11 2.566636 1_555
Cd11 S0 2.660077 1_555
Cd11 S6 2.660077 1_555
