# generated using pymatgen
data_K2Te2W3O5
_symmetry_space_group_name_H-M   'P 1'
_cell_length_a   6.91940300
_cell_length_b   8.58838500
_cell_length_c   18.63678995
_cell_angle_alpha   82.49986737
_cell_angle_beta   90.00000000
_cell_angle_gamma   90.00000000
_symmetry_Int_Tables_number   1
_chemical_formula_structural   K2Te2W3O5
_chemical_formula_sum   'K8 Te8 W12 O20'
_cell_volume   1098.04382657
_cell_formula_units_Z   4
loop_
 _symmetry_equiv_pos_site_id
 _symmetry_equiv_pos_as_xyz
  1  'x, y, z'
loop_
 _atom_site_type_symbol
 _atom_site_label
 _atom_site_symmetry_multiplicity
 _atom_site_fract_x
 _atom_site_fract_y
 _atom_site_fract_z
 _atom_site_occupancy
  K  K0  1  0.81006300  0.84933900  0.26007700  1
  K  K1  1  0.18993700  0.15066100  0.73992300  1
  K  K2  1  0.31006300  0.15066100  0.23992300  1
  K  K3  1  0.68993700  0.84933900  0.76007700  1
  K  K4  1  0.00851500  0.62979300  0.08127000  1
  K  K5  1  0.99148500  0.37020700  0.91873000  1
  K  K6  1  0.50851500  0.37020700  0.41873000  1
  K  K7  1  0.49148500  0.62979300  0.58127000  1
  Te  Te0  1  0.90407600  0.67425600  0.45647900  1
  Te  Te1  1  0.09592400  0.32574400  0.54352100  1
  Te  Te2  1  0.40407600  0.32574400  0.04352100  1
  Te  Te3  1  0.59592400  0.67425600  0.95647900  1
  Te  Te4  1  0.42901800  0.94656200  0.40937400  1
  Te  Te5  1  0.57098200  0.05343800  0.59062600  1
  Te  Te6  1  0.92901800  0.05343800  0.09062600  1
  Te  Te7  1  0.07098200  0.94656200  0.90937400  1
  W  W0  1  0.43580600  0.90136500  0.11304700  1
  W  W1  1  0.56419400  0.09863500  0.88695300  1
  W  W2  1  0.93580600  0.09863500  0.38695300  1
  W  W3  1  0.06419400  0.90136500  0.61304700  1
  W  W4  1  0.01203200  0.45306800  0.29440400  1
  W  W5  1  0.98796800  0.54693200  0.70559600  1
  W  W6  1  0.51203200  0.54693200  0.20559600  1
  W  W7  1  0.48796800  0.45306800  0.79440400  1
  W  W8  1  0.30622100  0.72476200  0.31479800  1
  W  W9  1  0.69377900  0.27523800  0.68520200  1
  W  W10  1  0.80622100  0.27523800  0.18520200  1
  W  W11  1  0.19377900  0.72476200  0.81479800  1
  O  O0  1  0.52681100  0.35378200  0.13802100  1
  O  O1  1  0.47318900  0.64621800  0.86197900  1
  O  O2  1  0.02681100  0.64621800  0.36197900  1
  O  O3  1  0.97318900  0.35378200  0.63802100  1
  O  O4  1  0.66090700  0.72837000  0.41091400  1
  O  O5  1  0.33909300  0.27163000  0.58908600  1
  O  O6  1  0.16090700  0.27163000  0.08908600  1
  O  O7  1  0.83909300  0.72837000  0.91091400  1
  O  O8  1  0.74548100  0.87130600  0.10902200  1
  O  O9  1  0.25451900  0.12869400  0.89097800  1
  O  O10  1  0.24548100  0.12869400  0.39097800  1
  O  O11  1  0.75451900  0.87130600  0.60902200  1
  O  O12  1  0.81050500  0.47021300  0.49269400  1
  O  O13  1  0.18949500  0.52978700  0.50730600  1
  O  O14  1  0.31050500  0.52978700  0.00730600  1
  O  O15  1  0.68949500  0.47021300  0.99269400  1
  O  O16  1  0.36955300  0.91689400  0.63940400  1
  O  O17  1  0.63044700  0.08310600  0.36059600  1
  O  O18  1  0.86955300  0.08310600  0.86059600  1
  O  O19  1  0.13044700  0.91689400  0.13940400  1
loop_
_geom_bond_atom_site_label_1
_geom_bond_atom_site_label_2
_geom_bond_distance
_geom_bond_site_symmetry_2
K0 O8 2.832291 1_555
K0 O2 2.834487 1_655
K0 O4 3.047047 1_555
K0 O19 3.157260 1_655
K0 O17 3.172811 1_565
K1 O9 2.832291 1_555
K1 O3 2.834487 1_455
K1 O5 3.047047 1_555
K1 O18 3.157260 1_455
K1 O16 3.172811 1_545
K2 O10 2.832291 1_555
K2 O0 2.834487 1_555
K2 O6 3.047047 1_555
K2 O17 3.157260 1_555
K2 O19 3.172811 1_545
K3 O11 2.832291 1_555
K3 O1 2.834487 1_555
K3 O7 3.047047 1_555
K3 O16 3.157260 1_555
K3 O18 3.172811 1_565
K4 O14 2.704309 1_555
K4 O8 2.856998 1_455
K4 O19 2.943279 1_555
K4 O15 3.172819 1_454
K4 O6 3.237000 1_555
K5 O15 2.704309 1_555
K5 O9 2.856998 1_655
K5 O18 2.943279 1_555
K5 O14 3.172819 1_656
K5 O7 3.237000 1_555
K6 O12 2.704309 1_555
K6 O10 2.856998 1_555
K6 O17 2.943279 1_555
K6 O13 3.172819 1_555
K6 O4 3.237000 1_555
K7 O13 2.704309 1_555
K7 O11 2.856998 1_555
K7 O16 2.943279 1_555
K7 O12 3.172819 1_555
K7 O5 3.237000 1_555
O0 Te2 1.997917 1_555
O0 W10 2.193447 1_555
O0 W6 2.212159 1_555
O1 Te3 1.997917 1_555
O1 W11 2.193447 1_555
O1 W7 2.212159 1_555
O2 Te0 1.997917 1_455
O2 W8 2.193447 1_555
O2 W4 2.212159 1_555
O3 Te1 1.997917 1_655
O3 W9 2.193447 1_555
O3 W5 2.212159 1_555
O4 Te0 1.914464 1_555
O4 Te4 2.464320 1_555
O5 Te1 1.914464 1_555
O5 Te5 2.464320 1_555
O6 Te2 1.914464 1_555
O6 Te6 2.464320 1_455
O7 Te3 1.914464 1_555
O7 Te7 2.464320 1_655
O8 Te6 2.009263 1_565
O8 W0 2.160735 1_555
O9 Te7 2.009263 1_545
O9 W1 2.160735 1_555
O10 Te4 2.009263 1_545
O10 W2 2.160735 1_455
O11 Te5 2.009263 1_565
O11 W3 2.160735 1_655
O12 Te0 1.907058 1_555
O12 Te1 2.455663 1_655
O13 Te1 1.907058 1_555
O13 Te0 2.455663 1_455
O14 Te2 1.907058 1_555
O14 Te3 2.455663 1_554
O15 Te3 1.907058 1_555
O15 Te2 2.455663 1_556
O16 Te5 1.966188 1_565
O16 W3 2.177276 1_555
O17 Te4 1.966188 1_545
O17 W2 2.177276 1_555
O18 Te7 1.966188 1_645
O18 W1 2.177276 1_555
O19 Te6 1.966188 1_465
O19 W0 2.177276 1_555
