# generated using pymatgen
data_Y4CdPd
_symmetry_space_group_name_H-M   'P 1'
_cell_length_a   9.71189306
_cell_length_b   9.71153309
_cell_length_c   9.71136823
_cell_angle_alpha   59.99980358
_cell_angle_beta   60.00099852
_cell_angle_gamma   60.00179751
_symmetry_Int_Tables_number   1
_chemical_formula_structural   Y4CdPd
_chemical_formula_sum   'Y16 Cd4 Pd4'
_cell_volume   647.68768831
_cell_formula_units_Z   4
loop_
 _symmetry_equiv_pos_site_id
 _symmetry_equiv_pos_as_xyz
  1  'x, y, z'
loop_
 _atom_site_type_symbol
 _atom_site_label
 _atom_site_symmetry_multiplicity
 _atom_site_fract_x
 _atom_site_fract_y
 _atom_site_fract_z
 _atom_site_occupancy
  Y  Y0  1  0.35402708  0.35409789  0.35412746  1
  Y  Y1  1  0.35403450  0.35410650  0.93773757  1
  Y  Y2  1  0.35401811  0.93776026  0.35411795  1
  Y  Y3  1  0.93779966  0.35405296  0.35407989  1
  Y  Y4  1  0.81005291  0.18999068  0.19000118  1
  Y  Y5  1  0.19000805  0.80999617  0.80995925  1
  Y  Y6  1  0.19000098  0.80999106  0.19003424  1
  Y  Y7  1  0.81005774  0.18999724  0.80994177  1
  Y  Y8  1  0.19001815  0.19004119  0.80996039  1
  Y  Y9  1  0.81005125  0.80997053  0.18999101  1
  Y  Y10  1  0.93489654  0.56517217  0.56514993  1
  Y  Y11  1  0.56523044  0.93481509  0.93477261  1
  Y  Y12  1  0.56522677  0.93481556  0.56516708  1
  Y  Y13  1  0.93489792  0.56517446  0.93476390  1
  Y  Y14  1  0.56523330  0.56519451  0.93477698  1
  Y  Y15  1  0.93489251  0.93480140  0.56514787  1
  Cd  Cd0  1  0.58168034  0.58154991  0.58149158  1
  Cd  Cd1  1  0.58163922  0.58151365  0.25535960  1
  Cd  Cd2  1  0.58171378  0.25520293  0.58152486  1
  Cd  Cd3  1  0.25487523  0.58173913  0.58167390  1
  Pd  Pd0  1  0.14444009  0.14456547  0.14463190  1
  Pd  Pd1  1  0.14444690  0.14457359  0.56636683  1
  Pd  Pd2  1  0.14443006  0.56635760  0.14462407  1
  Pd  Pd3  1  0.56632849  0.14452006  0.14459618  1
loop_
_geom_bond_atom_site_label_1
_geom_bond_atom_site_label_2
_geom_bond_distance
_geom_bond_site_symmetry_2
Y0 Y10 3.533643 1_455
Y0 Y12 3.534766 1_545
Y0 Y14 3.535253 1_554
Y1 Y13 3.533730 1_455
Y1 Y11 3.534878 1_545
Y1 Y14 3.535128 1_555
Y10 Y3 3.534566 1_555
Y10 Y13 3.589475 1_555
Y10 Y15 3.589637 1_555
Y10 Y14 3.589911 1_555
Y10 Y12 3.590096 1_555
Y10 Y6 3.642182 1_655
Y10 Y8 3.642326 1_655
Y10 Y9 3.642678 1_555
Y10 Y7 3.642806 1_555
Y11 Y2 3.535187 1_556
Y11 Y12 3.589391 1_555
Y11 Y14 3.589547 1_555
Y11 Y15 3.589894 1_555
Y11 Y13 3.590072 1_555
Y11 Y7 3.642842 1_565
Y11 Y9 3.643028 1_556
Y11 Y8 3.643132 1_565
Y11 Y6 3.643296 1_556
Y12 Y2 3.534956 1_555
Y12 Y14 3.589492 1_555
Y12 Y15 3.589992 1_555
Y12 Y4 3.642722 1_565
Y12 Y9 3.642854 1_555
Y12 Y8 3.643078 1_565
Y12 Y5 3.643187 1_555
Y13 Y3 3.534773 1_556
Y13 Y15 3.589550 1_555
Y13 Y14 3.589982 1_555
Y13 Y5 3.642299 1_655
Y13 Y8 3.642368 1_655
Y13 Y9 3.642850 1_556
Y13 Y4 3.642907 1_556
Y14 Y7 3.643039 1_555
Y14 Y4 3.643103 1_556
Y14 Y5 3.643263 1_555
Y14 Y6 3.643323 1_556
Y15 Y2 3.533567 1_655
Y15 Y3 3.534306 1_565
Y15 Y6 3.642180 1_655
Y15 Y5 3.642247 1_655
Y15 Y4 3.642551 1_565
Y15 Y7 3.642618 1_565
Cd0 Cd1 3.167564 1_555
Cd0 Cd2 3.169006 1_555
Cd0 Cd3 3.172093 1_555
Cd0 Y10 3.279235 1_555
Cd0 Y12 3.279325 1_555
Cd0 Y14 3.279348 1_555
Cd0 Y3 3.364663 1_555
Cd0 Y2 3.365497 1_555
Cd0 Y1 3.365821 1_555
Cd0 Y9 3.514073 1_555
Cd0 Y7 3.514503 1_555
Cd0 Y5 3.515466 1_555
Cd1 Cd2 3.168235 1_555
Cd1 Cd3 3.171277 1_555
Cd1 Y13 3.279858 1_554
Cd1 Y14 3.279910 1_554
Cd1 Y11 3.279916 1_554
Cd1 Y3 3.364699 1_555
Cd1 Y2 3.365499 1_555
Cd1 Y0 3.365629 1_555
Cd1 Y9 3.514424 1_555
Cd1 Y4 3.514599 1_555
Cd1 Y6 3.515529 1_555
Cd2 Cd3 3.172781 1_555
Cd2 Y15 3.278645 1_545
Cd2 Y12 3.278704 1_545
Cd2 Y11 3.278748 1_545
Cd2 Y3 3.364650 1_555
Cd2 Y0 3.365618 1_555
Cd2 Y1 3.365824 1_555
Cd2 Y4 3.513954 1_555
Cd2 Y7 3.514223 1_555
Cd2 Y8 3.515329 1_555
Cd3 Y10 3.276163 1_455
Cd3 Y15 3.276172 1_455
Cd3 Y13 3.276223 1_455
Cd3 Y2 3.365340 1_555
Cd3 Y0 3.365495 1_555
Cd3 Y1 3.365733 1_555
Cd3 Y6 3.513542 1_555
Cd3 Y5 3.513840 1_555
Cd3 Y8 3.514001 1_555
Pd0 Y4 2.875100 1_455
Pd0 Y6 2.876193 1_545
Pd0 Y8 2.876756 1_554
Pd0 Y3 2.877038 1_455
Pd0 Y2 2.877915 1_545
Pd0 Y1 2.878390 1_554
Pd0 Y15 3.533337 1_445
Pd0 Y13 3.534207 1_454
Pd0 Y11 3.535913 1_544
Pd1 Y7 2.875032 1_455
Pd1 Y5 2.876130 1_545
Pd1 Y8 2.876454 1_555
Pd1 Y3 2.877029 1_455
Pd1 Y2 2.877899 1_545
Pd1 Y0 2.878178 1_555
Pd1 Y15 3.533600 1_445
Pd1 Y10 3.534082 1_455
Pd1 Y12 3.535786 1_545
Pd2 Y9 2.875130 1_455
Pd2 Y6 2.876503 1_555
Pd2 Y5 2.876792 1_554
Pd2 Y3 2.877027 1_455
Pd2 Y0 2.878163 1_555
Pd2 Y1 2.878415 1_554
Pd2 Y10 3.533470 1_455
Pd2 Y13 3.533936 1_454
Pd2 Y14 3.536056 1_554
Pd3 Y9 2.876488 1_545
Pd3 Y4 2.876778 1_555
Pd3 Y7 2.877090 1_554
Pd3 Y2 2.877952 1_545
Pd3 Y0 2.878226 1_555
Pd3 Y1 2.878524 1_554
Pd3 Y12 3.534039 1_545
Pd3 Y11 3.534558 1_544
Pd3 Y14 3.534988 1_554
