# generated using pymatgen
data_Ca2MnFeSi4(HO3)5
_symmetry_space_group_name_H-M   'P 1'
_cell_length_a   9.83403805
_cell_length_b   9.97239600
_cell_length_c   9.66313129
_cell_angle_alpha   51.66034511
_cell_angle_beta   68.13075015
_cell_angle_gamma   79.83389586
_symmetry_Int_Tables_number   1
_chemical_formula_structural   Ca2MnFeSi4(HO3)5
_chemical_formula_sum   'Ca4 Mn2 Fe2 Si8 H10 O30'
_cell_volume   687.85853176
_cell_formula_units_Z   2
loop_
 _symmetry_equiv_pos_site_id
 _symmetry_equiv_pos_as_xyz
  1  'x, y, z'
loop_
 _atom_site_type_symbol
 _atom_site_label
 _atom_site_symmetry_multiplicity
 _atom_site_fract_x
 _atom_site_fract_y
 _atom_site_fract_z
 _atom_site_occupancy
  Ca  Ca0  1  0.40522400  0.16720300  0.35199500  1
  Ca  Ca1  1  0.48779700  0.70596500  0.16247700  1
  Ca  Ca2  1  0.51220300  0.29403500  0.83752300  1
  Ca  Ca3  1  0.59477600  0.83279700  0.64800500  1
  Mn  Mn0  1  0.20801100  0.99918200  0.27497800  1
  Mn  Mn1  1  0.79198900  0.00081800  0.72502200  1
  Fe  Fe0  1  0.10500700  0.78871900  0.16378300  1
  Fe  Fe1  1  0.89499300  0.21128100  0.83621700  1
  Si  Si0  1  0.97883300  0.20516400  0.39032200  1
  Si  Si1  1  0.20345800  0.20025000  0.87208400  1
  Si  Si2  1  0.18127800  0.55795100  0.50797300  1
  Si  Si3  1  0.22923000  0.76083300  0.80507600  1
  Si  Si4  1  0.77077000  0.23916700  0.19492400  1
  Si  Si5  1  0.81872200  0.44204900  0.49202700  1
  Si  Si6  1  0.79654200  0.79975000  0.12791600  1
  Si  Si7  1  0.02116700  0.79483600  0.60967800  1
  H  H0  1  0.09361000  0.44492600  0.38696500  1
  H  H1  1  0.50206100  0.98741500  0.19964500  1
  H  H2  1  0.37525200  0.39634900  0.58687200  1
  H  H3  1  0.25958800  0.57901000  0.89794300  1
  H  H4  1  0.85455400  0.65705100  0.99504900  1
  H  H5  1  0.14544600  0.34294900  0.00495100  1
  H  H6  1  0.74041200  0.42099000  0.10205700  1
  H  H7  1  0.62474900  0.60365100  0.41312800  1
  H  H8  1  0.49793900  0.01258500  0.80035500  1
  H  H9  1  0.90639000  0.55507400  0.61303500  1
  O  O0  1  0.80449500  0.19989300  0.04490300  1
  O  O1  1  0.95444700  0.38969000  0.36585000  1
  O  O2  1  0.15103400  0.16243400  0.35090600  1
  O  O3  1  0.92717200  0.22717900  0.23421300  1
  O  O4  1  0.85444800  0.46326000  0.63603600  1
  O  O5  1  0.37210100  0.19063300  0.76715600  1
  O  O6  1  0.10926800  0.31523200  0.72174100  1
  O  O7  1  0.10564400  0.02640000  0.06612100  1
  O  O8  1  0.35138400  0.52064800  0.51015000  1
  O  O9  1  0.36130700  0.89092700  0.61587900  1
  O  O10  1  0.23005200  0.30758000  0.94401100  1
  O  O11  1  0.41756200  0.48902700  0.09798800  1
  O  O12  1  0.23376200  0.77336700  0.30351700  1
  O  O13  1  0.46105000  0.43938800  0.24246000  1
  O  O14  1  0.43382300  0.08034600  0.16277700  1
  O  O15  1  0.56617700  0.91965400  0.83722300  1
  O  O16  1  0.53895000  0.56061200  0.75754000  1
  O  O17  1  0.76623800  0.22663300  0.69648300  1
  O  O18  1  0.58243800  0.51097300  0.90201200  1
  O  O19  1  0.76994800  0.69242000  0.05598900  1
  O  O20  1  0.63869300  0.10907300  0.38412100  1
  O  O21  1  0.64861600  0.47935200  0.48985000  1
  O  O22  1  0.89435600  0.97360000  0.93387900  1
  O  O23  1  0.89073200  0.68476800  0.27825900  1
  O  O24  1  0.62789900  0.80936700  0.23284400  1
  O  O25  1  0.14555200  0.53674000  0.36396400  1
  O  O26  1  0.07282800  0.77282100  0.76578700  1
  O  O27  1  0.84896600  0.83756600  0.64909400  1
  O  O28  1  0.04555300  0.61031000  0.63415000  1
  O  O29  1  0.19550500  0.80010700  0.95509700  1
loop_
_geom_bond_atom_site_label_1
_geom_bond_atom_site_label_2
_geom_bond_distance
_geom_bond_site_symmetry_2
Ca0 O9 2.272233 1_545
Ca0 O13 2.306103 1_555
Ca0 O20 2.354073 1_555
Ca0 O14 2.380821 1_555
Ca0 O2 2.512594 1_555
Ca0 O11 2.545948 1_555
Ca1 O13 2.297823 1_555
Ca1 O15 2.340765 1_554
Ca1 O24 2.343764 1_555
Ca1 O8 2.513296 1_555
Ca1 O12 2.560764 1_555
Ca1 O19 2.586323 1_555
Ca1 O11 2.840134 1_555
Ca2 O16 2.297823 1_555
Ca2 O14 2.340765 1_556
Ca2 O5 2.343764 1_555
Ca2 O21 2.513296 1_555
Ca2 O17 2.560764 1_555
Ca2 O10 2.586323 1_555
Ca2 O18 2.840134 1_555
Ca3 O20 2.272233 1_565
Ca3 O16 2.306103 1_555
Ca3 O9 2.354073 1_555
Ca3 O15 2.380821 1_555
Ca3 O27 2.512594 1_555
Ca3 O18 2.545948 1_555
Mn0 O12 2.071608 1_555
Mn0 O2 2.087186 1_565
Mn0 O14 2.124617 1_565
Mn0 O7 2.428529 1_565
Mn0 Si7 2.589778 1_555
Mn0 O10 2.692558 1_564
Mn1 O17 2.071608 1_555
Mn1 O27 2.087186 1_545
Mn1 O15 2.124617 1_545
Mn1 O22 2.428529 1_545
Mn1 Si0 2.589778 1_555
Mn1 O19 2.692558 1_546
Fe0 O29 1.812736 1_554
Fe0 O7 1.932467 1_565
Fe0 O23 2.085770 1_455
Fe0 O12 2.097299 1_555
Fe0 O25 2.098939 1_555
Fe1 O0 1.812736 1_556
Fe1 O22 1.932467 1_545
Fe1 O6 2.085770 1_655
Fe1 O17 2.097299 1_555
Fe1 O4 2.098939 1_555
H0 O25 0.988278 1_555
H0 O1 1.682707 1_455
H1 O14 0.992496 1_565
H2 O8 1.013924 1_555
H2 O5 1.671155 1_555
H3 Si3 1.473752 1_555
H4 O19 0.975970 1_556
H5 O10 0.975970 1_554
H6 Si4 1.473752 1_555
H7 O21 1.013922 1_555
H7 O24 1.671157 1_555
H8 O15 0.992496 1_545
H9 O4 0.988278 1_555
H9 O28 1.682707 1_655
O0 Si4 1.632578 1_555
O1 Si0 1.687080 1_555
O1 Si5 1.694752 1_555
O2 Si0 1.631097 1_455
O3 Si0 1.643947 1_555
O3 Si4 1.684597 1_555
O4 Si5 1.691245 1_555
O5 Si1 1.612285 1_555
O6 Si1 1.686481 1_555
O6 Si2 1.984796 1_555
O7 Si1 1.630561 1_554
O8 Si2 1.653487 1_555
O9 Si3 1.611131 1_555
O10 Si1 1.689461 1_555
O11 O13 1.374618 1_555
O11 O18 1.893857 1_554
O12 Si2 1.775033 1_555
O16 O18 1.374618 1_555
O17 Si5 1.775033 1_555
O19 Si6 1.689461 1_555
O20 Si4 1.611131 1_555
O21 Si5 1.653487 1_555
O22 Si6 1.630561 1_556
O23 Si6 1.686481 1_555
O23 Si5 1.984796 1_555
O24 Si6 1.612285 1_555
O25 Si2 1.691245 1_555
O26 Si7 1.643947 1_555
O26 Si3 1.684597 1_555
O27 Si7 1.631097 1_655
O28 Si7 1.687080 1_555
O28 Si2 1.694752 1_555
O29 Si3 1.632578 1_555
