# generated using pymatgen
data_Pb
_symmetry_space_group_name_H-M   'P 1'
_cell_length_a   7.01334480
_cell_length_b   7.01334480
_cell_length_c   12.90378989
_cell_angle_alpha   73.49391892
_cell_angle_beta   73.49391892
_cell_angle_gamma   59.88621935
_symmetry_Int_Tables_number   1
_chemical_formula_structural   Pb
_chemical_formula_sum   Pb16
_cell_volume   518.68258636
_cell_formula_units_Z   16
loop_
 _symmetry_equiv_pos_site_id
 _symmetry_equiv_pos_as_xyz
  1  'x, y, z'
loop_
 _atom_site_type_symbol
 _atom_site_label
 _atom_site_symmetry_multiplicity
 _atom_site_fract_x
 _atom_site_fract_y
 _atom_site_fract_z
 _atom_site_occupancy
  Pb  Pb0_0  1  0.04574580  0.04574580  0.36314610  1
  Pb  Pb0_1  1  0.04574579  0.04574579  0.86314610  1
  Pb  Pb0_2  1  0.04574580  0.54574579  0.36314610  1
  Pb  Pb0_3  1  0.04574580  0.54574580  0.86314610  1
  Pb  Pb0_4  1  0.54574579  0.04574580  0.36314610  1
  Pb  Pb0_5  1  0.54574580  0.04574580  0.86314610  1
  Pb  Pb0_6  1  0.54574579  0.54574579  0.36314610  1
  Pb  Pb0_7  1  0.54574579  0.54574579  0.86314610  1
  Pb  Pb1_0  1  0.45425421  0.45425421  0.13685390  1
  Pb  Pb1_1  1  0.45425420  0.45425420  0.63685390  1
  Pb  Pb1_2  1  0.45425421  0.95425421  0.13685390  1
  Pb  Pb1_3  1  0.45425421  0.95425421  0.63685390  1
  Pb  Pb1_4  1  0.95425421  0.45425421  0.13685390  1
  Pb  Pb1_5  1  0.95425421  0.45425421  0.63685390  1
  Pb  Pb1_6  1  0.95425421  0.95425421  0.13685390  1
  Pb  Pb1_7  1  0.95425420  0.95425420  0.63685390  1
loop_
_geom_bond_atom_site_label_1
_geom_bond_atom_site_label_2
_geom_bond_distance
_geom_bond_site_symmetry_2
Pb0_0 Pb1_7 3.336938 1_445
Pb0_0 Pb1_2 3.407752 1_545
Pb0_0 Pb1_4 3.407752 1_455
Pb0_0 Pb1_6 3.448555 1_445
Pb0_0 Pb0_6 3.500640 1_545
Pb0_0 Pb0_6 3.500640 1_455
Pb0_0 Pb0_4 3.506672 1_555
Pb0_0 Pb0_2 3.506672 1_555
Pb0_0 Pb0_2 3.506672 1_545
Pb0_0 Pb0_4 3.506672 1_455
Pb0_1 Pb1_6 3.336938 1_446
Pb0_1 Pb1_3 3.407752 1_545
Pb0_1 Pb1_5 3.407752 1_455
Pb0_1 Pb1_7 3.448555 1_445
Pb0_1 Pb0_7 3.500640 1_455
Pb0_1 Pb0_7 3.500640 1_545
Pb0_1 Pb0_5 3.506672 1_455
Pb0_1 Pb0_3 3.506672 1_545
Pb0_1 Pb0_3 3.506672 1_555
Pb0_1 Pb0_5 3.506672 1_555
Pb0_2 Pb1_5 3.336938 1_455
Pb0_2 Pb1_6 3.407752 1_455
Pb0_2 Pb1_0 3.407752 1_555
Pb0_2 Pb1_4 3.448555 1_455
Pb0_2 Pb0_4 3.500640 1_555
Pb0_2 Pb0_4 3.500640 1_465
Pb0_2 Pb0_6 3.506672 1_455
Pb0_2 Pb0_6 3.506672 1_555
Pb0_3 Pb1_4 3.336938 1_456
Pb0_3 Pb1_7 3.407752 1_455
Pb0_3 Pb1_1 3.407752 1_555
Pb0_3 Pb1_5 3.448555 1_455
Pb0_3 Pb0_5 3.500640 1_465
Pb0_3 Pb0_5 3.500640 1_555
Pb0_3 Pb0_7 3.506672 1_555
Pb0_3 Pb0_7 3.506672 1_455
Pb0_4 Pb1_3 3.336938 1_545
Pb0_4 Pb1_6 3.407752 1_545
Pb0_4 Pb1_0 3.407752 1_555
Pb0_4 Pb1_2 3.448555 1_545
Pb0_4 Pb0_6 3.506672 1_545
Pb0_4 Pb0_6 3.506672 1_555
Pb0_5 Pb1_2 3.336938 1_546
Pb0_5 Pb1_7 3.407752 1_545
Pb0_5 Pb1_1 3.407752 1_555
Pb0_5 Pb1_3 3.448555 1_545
Pb0_5 Pb0_7 3.506672 1_555
Pb0_5 Pb0_7 3.506672 1_545
Pb0_6 Pb1_1 3.336938 1_555
Pb0_6 Pb1_4 3.407752 1_555
Pb0_6 Pb1_2 3.407752 1_555
Pb0_6 Pb1_0 3.448555 1_555
Pb0_7 Pb1_0 3.336938 1_556
Pb0_7 Pb1_5 3.407752 1_555
Pb0_7 Pb1_3 3.407752 1_555
Pb0_7 Pb1_1 3.448555 1_555
Pb1_0 Pb1_6 3.500640 1_545
Pb1_0 Pb1_6 3.500640 1_455
Pb1_0 Pb1_4 3.506672 1_455
Pb1_0 Pb1_2 3.506672 1_545
Pb1_0 Pb1_2 3.506672 1_555
Pb1_0 Pb1_4 3.506672 1_555
Pb1_1 Pb1_7 3.500640 1_455
Pb1_1 Pb1_7 3.500640 1_545
Pb1_1 Pb1_5 3.506672 1_455
Pb1_1 Pb1_3 3.506672 1_545
Pb1_1 Pb1_5 3.506672 1_555
Pb1_1 Pb1_3 3.506672 1_555
Pb1_2 Pb1_4 3.500640 1_555
Pb1_2 Pb1_4 3.500640 1_465
Pb1_2 Pb1_6 3.506672 1_555
Pb1_2 Pb1_6 3.506672 1_455
Pb1_3 Pb1_5 3.500640 1_555
Pb1_3 Pb1_5 3.500640 1_465
Pb1_3 Pb1_7 3.506672 1_555
Pb1_3 Pb1_7 3.506672 1_455
Pb1_4 Pb1_6 3.506672 1_555
Pb1_4 Pb1_6 3.506672 1_545
Pb1_5 Pb1_7 3.506672 1_555
Pb1_5 Pb1_7 3.506672 1_545
