# generated using pymatgen
data_KLiWO5
_symmetry_space_group_name_H-M   'P 1'
_cell_length_a   7.73301800
_cell_length_b   10.99145300
_cell_length_c   12.65971900
_cell_angle_alpha   90.00000000
_cell_angle_beta   90.00000000
_cell_angle_gamma   90.00000000
_symmetry_Int_Tables_number   1
_chemical_formula_structural   KLiWO5
_chemical_formula_sum   'K8 Li8 W8 O40'
_cell_volume   1076.03945113
_cell_formula_units_Z   8
loop_
 _symmetry_equiv_pos_site_id
 _symmetry_equiv_pos_as_xyz
  1  'x, y, z'
loop_
 _atom_site_type_symbol
 _atom_site_label
 _atom_site_symmetry_multiplicity
 _atom_site_fract_x
 _atom_site_fract_y
 _atom_site_fract_z
 _atom_site_occupancy
  K  K0  1  0.19436800  0.79570700  0.87268700  1
  K  K1  1  0.80563200  0.20429300  0.12731300  1
  K  K2  1  0.30563200  0.29570700  0.12731300  1
  K  K3  1  0.80563200  0.70429300  0.37268700  1
  K  K4  1  0.69436800  0.70429300  0.87268700  1
  K  K5  1  0.19436800  0.29570700  0.62731300  1
  K  K6  1  0.69436800  0.20429300  0.62731300  1
  K  K7  1  0.30563200  0.79570700  0.37268700  1
  Li  Li0  1  0.00894300  0.58209300  0.67465800  1
  Li  Li1  1  0.99105700  0.41790700  0.32534200  1
  Li  Li2  1  0.49105700  0.08209300  0.32534200  1
  Li  Li3  1  0.99105700  0.91790700  0.17465800  1
  Li  Li4  1  0.50894300  0.91790700  0.67465800  1
  Li  Li5  1  0.00894300  0.08209300  0.82534200  1
  Li  Li6  1  0.50894300  0.41790700  0.82534200  1
  Li  Li7  1  0.49105700  0.58209300  0.17465800  1
  W  W0  1  0.43807000  0.62191000  0.62418700  1
  W  W1  1  0.56193000  0.37809000  0.37581300  1
  W  W2  1  0.06193000  0.12191000  0.37581300  1
  W  W3  1  0.56193000  0.87809000  0.12418700  1
  W  W4  1  0.93807000  0.87809000  0.62418700  1
  W  W5  1  0.43807000  0.12191000  0.87581300  1
  W  W6  1  0.93807000  0.37809000  0.87581300  1
  W  W7  1  0.06193000  0.62191000  0.12418700  1
  O  O0  1  0.22273500  0.56188100  0.59789600  1
  O  O1  1  0.77726500  0.43811900  0.40210400  1
  O  O2  1  0.27726500  0.06188100  0.40210400  1
  O  O3  1  0.77726500  0.93811900  0.09789600  1
  O  O4  1  0.72273500  0.93811900  0.59789600  1
  O  O5  1  0.22273500  0.06188100  0.90210400  1
  O  O6  1  0.72273500  0.43811900  0.90210400  1
  O  O7  1  0.27726500  0.56188100  0.09789600  1
  O  O8  1  0.03621500  0.83432900  0.50145600  1
  O  O9  1  0.96378500  0.16567100  0.49854400  1
  O  O10  1  0.46378500  0.33432900  0.49854400  1
  O  O11  1  0.96378500  0.66567100  0.00145600  1
  O  O12  1  0.53621500  0.66567100  0.50145600  1
  O  O13  1  0.03621500  0.33432900  0.99854400  1
  O  O14  1  0.53621500  0.16567100  0.99854400  1
  O  O15  1  0.46378500  0.83432900  0.00145600  1
  O  O16  1  0.06971300  0.98896500  0.69699800  1
  O  O17  1  0.93028700  0.01103500  0.30300200  1
  O  O18  1  0.43028700  0.48896500  0.30300200  1
  O  O19  1  0.93028700  0.51103500  0.19699800  1
  O  O20  1  0.56971300  0.51103500  0.69699800  1
  O  O21  1  0.06971300  0.48896500  0.80300200  1
  O  O22  1  0.56971300  0.01103500  0.80300200  1
  O  O23  1  0.43028700  0.98896500  0.19699800  1
  O  O24  1  0.34116800  0.54685600  0.89065200  1
  O  O25  1  0.65883200  0.45314400  0.10934800  1
  O  O26  1  0.15883200  0.04685600  0.10934800  1
  O  O27  1  0.65883200  0.95314400  0.39065200  1
  O  O28  1  0.84116800  0.95314400  0.89065200  1
  O  O29  1  0.34116800  0.04685600  0.60934800  1
  O  O30  1  0.84116800  0.45314400  0.60934800  1
  O  O31  1  0.15883200  0.54685600  0.39065200  1
  O  O32  1  0.42180600  0.75673500  0.70762000  1
  O  O33  1  0.57819400  0.24326500  0.29238000  1
  O  O34  1  0.07819400  0.25673500  0.29238000  1
  O  O35  1  0.57819400  0.74326500  0.20762000  1
  O  O36  1  0.92180600  0.74326500  0.70762000  1
  O  O37  1  0.42180600  0.25673500  0.79238000  1
  O  O38  1  0.92180600  0.24326500  0.79238000  1
  O  O39  1  0.07819400  0.75673500  0.20762000  1
loop_
_geom_bond_atom_site_label_1
_geom_bond_atom_site_label_2
_geom_bond_distance
_geom_bond_site_symmetry_2
K0 O15 2.679231 1_556
K0 O32 2.764717 1_555
K0 O11 2.807097 1_456
K0 O5 2.957393 1_565
K0 O24 2.970173 1_555
K0 O36 3.023511 1_455
K0 O16 3.223094 1_555
K0 O28 3.241332 1_455
K1 O14 2.679231 1_554
K1 O33 2.764717 1_555
K1 O13 2.807097 1_654
K1 O3 2.957393 1_545
K1 O25 2.970173 1_555
K1 O34 3.023511 1_655
K1 O17 3.223094 1_555
K1 O26 3.241332 1_655
K2 O13 2.679231 1_554
K2 O34 2.764717 1_555
K2 O14 2.807097 1_554
K2 O7 2.957393 1_555
K2 O26 2.970173 1_555
K2 O33 3.023511 1_555
K2 O18 3.223094 1_555
K2 O25 3.241332 1_555
K3 O12 2.679231 1_555
K3 O35 2.764717 1_555
K3 O8 2.807097 1_655
K3 O1 2.957393 1_555
K3 O27 2.970173 1_555
K3 O39 3.023511 1_655
K3 O19 3.223094 1_555
K3 O31 3.241332 1_655
K4 O11 2.679231 1_556
K4 O36 2.764717 1_555
K4 O15 2.807097 1_556
K4 O6 2.957393 1_555
K4 O28 2.970173 1_555
K4 O32 3.023511 1_555
K4 O20 3.223094 1_555
K4 O24 3.241332 1_555
K5 O10 2.679231 1_555
K5 O37 2.764717 1_555
K5 O9 2.807097 1_455
K5 O0 2.957393 1_555
K5 O29 2.970173 1_555
K5 O38 3.023511 1_455
K5 O21 3.223094 1_555
K5 O30 3.241332 1_455
K6 O9 2.679231 1_555
K6 O38 2.764717 1_555
K6 O10 2.807097 1_555
K6 O4 2.957393 1_545
K6 O30 2.970173 1_555
K6 O37 3.023511 1_555
K6 O22 3.223094 1_555
K6 O29 3.241332 1_555
K7 O8 2.679231 1_555
K7 O39 2.764717 1_555
K7 O12 2.807097 1_555
K7 O2 2.957393 1_565
K7 O31 2.970173 1_555
K7 O35 3.023511 1_555
K7 O23 3.223094 1_555
K7 O27 3.241332 1_555
Li0 O0 1.930539 1_555
Li0 O36 1.940733 1_455
Li0 O21 1.977016 1_555
Li0 O30 2.091822 1_455
Li1 O1 1.930539 1_555
Li1 O34 1.940733 1_655
Li1 O19 1.977016 1_555
Li1 O31 2.091822 1_655
Li2 O2 1.930539 1_555
Li2 O33 1.940733 1_555
Li2 O23 1.977016 1_545
Li2 O27 2.091822 1_545
Li3 O3 1.930539 1_555
Li3 O39 1.940733 1_655
Li3 O17 1.977016 1_565
Li3 O26 2.091822 1_665
Li4 O4 1.930539 1_555
Li4 O32 1.940733 1_555
Li4 O22 1.977016 1_565
Li4 O29 2.091822 1_565
Li5 O5 1.930539 1_555
Li5 O38 1.940733 1_455
Li5 O16 1.977016 1_545
Li5 O28 2.091822 1_445
Li6 O6 1.930539 1_555
Li6 O37 1.940733 1_555
Li6 O20 1.977016 1_555
Li6 O24 2.091822 1_555
Li7 O7 1.930539 1_555
Li7 O35 1.940733 1_555
Li7 O18 1.977016 1_555
Li7 O25 2.091822 1_555
O0 W0 1.821807 1_555
O1 W1 1.821807 1_555
O2 W2 1.821807 1_555
O3 W3 1.821807 1_555
O4 W4 1.821807 1_555
O5 W5 1.821807 1_555
O6 W6 1.821807 1_555
O7 W7 1.821807 1_555
O8 W4 1.794849 1_455
O9 W2 1.794849 1_655
O10 W1 1.794849 1_555
O11 W7 1.794849 1_655
O12 W0 1.794849 1_555
O13 W6 1.794849 1_455
O14 W5 1.794849 1_555
O15 W3 1.794849 1_555
O16 W4 1.836069 1_455
O17 W2 1.836069 1_655
O18 W1 1.836069 1_555
O19 W7 1.836069 1_655
O20 W0 1.836069 1_555
O21 W6 1.836069 1_455
O22 W5 1.836069 1_555
O23 W3 1.836069 1_555
O32 W0 1.824158 1_555
O33 W1 1.824158 1_555
O34 W2 1.824158 1_555
O35 W3 1.824158 1_555
O36 W4 1.824158 1_555
O37 W5 1.824158 1_555
O38 W6 1.824158 1_555
O39 W7 1.824158 1_555
