# generated using pymatgen
data_GdSO4F
_symmetry_space_group_name_H-M   'P 1'
_cell_length_a   6.50372100
_cell_length_b   7.09072300
_cell_length_c   8.52957600
_cell_angle_alpha   90.00000000
_cell_angle_beta   90.00000000
_cell_angle_gamma   90.00000000
_symmetry_Int_Tables_number   1
_chemical_formula_structural   GdSO4F
_chemical_formula_sum   'Gd4 S4 O16 F4'
_cell_volume   393.35064399
_cell_formula_units_Z   4
loop_
 _symmetry_equiv_pos_site_id
 _symmetry_equiv_pos_as_xyz
  1  'x, y, z'
loop_
 _atom_site_type_symbol
 _atom_site_label
 _atom_site_symmetry_multiplicity
 _atom_site_fract_x
 _atom_site_fract_y
 _atom_site_fract_z
 _atom_site_occupancy
  Gd  Gd0  1  0.65092300  0.75000000  0.05474400  1
  Gd  Gd1  1  0.15092300  0.25000000  0.44525600  1
  Gd  Gd2  1  0.34907700  0.25000000  0.94525600  1
  Gd  Gd3  1  0.84907700  0.75000000  0.55474400  1
  S  S0  1  0.18639100  0.75000000  0.90833800  1
  S  S1  1  0.68639100  0.25000000  0.59166200  1
  S  S2  1  0.31360900  0.75000000  0.40833800  1
  S  S3  1  0.81360900  0.25000000  0.09166200  1
  O  O0  1  0.01317700  0.75000000  0.01838000  1
  O  O1  1  0.51317700  0.25000000  0.48162000  1
  O  O2  1  0.98682300  0.25000000  0.98162000  1
  O  O3  1  0.48682300  0.75000000  0.51838000  1
  O  O4  1  0.67483400  0.08362100  0.05981900  1
  O  O5  1  0.17483400  0.91637900  0.44018100  1
  O  O6  1  0.32516600  0.58362100  0.94018100  1
  O  O7  1  0.82516600  0.41637900  0.55981900  1
  O  O8  1  0.12042400  0.75000000  0.74447300  1
  O  O9  1  0.17483400  0.58362100  0.44018100  1
  O  O10  1  0.87957600  0.25000000  0.25552700  1
  O  O11  1  0.37957600  0.75000000  0.24447300  1
  O  O12  1  0.82516600  0.08362100  0.55981900  1
  O  O13  1  0.67483400  0.41637900  0.05981900  1
  O  O14  1  0.62042400  0.25000000  0.75552700  1
  O  O15  1  0.32516600  0.91637900  0.94018100  1
  F  F0  1  0.70131900  0.75000000  0.79411500  1
  F  F1  1  0.29868100  0.25000000  0.20588500  1
  F  F2  1  0.79868100  0.75000000  0.29411500  1
  F  F3  1  0.20131900  0.25000000  0.70588500  1
loop_
_geom_bond_atom_site_label_1
_geom_bond_atom_site_label_2
_geom_bond_distance
_geom_bond_site_symmetry_2
Gd0 O4 2.371115 1_565
Gd0 O13 2.371115 1_555
Gd0 O0 2.376328 1_655
Gd0 O11 2.394435 1_555
Gd0 O6 2.614436 1_554
Gd0 O15 2.614436 1_554
Gd1 O9 2.371115 1_555
Gd1 O5 2.371115 1_545
Gd1 O1 2.376328 1_555
Gd1 O10 2.394435 1_455
Gd1 O12 2.614436 1_455
Gd1 O7 2.614436 1_455
Gd2 O6 2.371115 1_555
Gd2 O15 2.371115 1_545
Gd2 O2 2.376328 1_455
Gd2 O14 2.394435 1_555
Gd2 O4 2.614436 1_556
Gd2 O13 2.614436 1_556
Gd3 O12 2.371115 1_565
Gd3 O7 2.371115 1_555
Gd3 O3 2.376328 1_555
Gd3 O8 2.394435 1_655
Gd3 O9 2.614436 1_655
Gd3 O5 2.614436 1_655
O0 S0 1.466313 1_554
O1 S1 1.466313 1_555
O2 S3 1.466313 1_556
O3 S2 1.466313 1_555
O4 S3 1.510026 1_555
O5 S2 1.510026 1_555
O6 S0 1.510026 1_555
O7 S1 1.510026 1_555
O8 S0 1.462064 1_555
O9 S2 1.510026 1_555
O10 S3 1.462064 1_555
O11 S2 1.462064 1_555
O12 S1 1.510026 1_555
O13 S3 1.510026 1_555
O14 S1 1.462064 1_555
O15 S0 1.510026 1_555
F0 Gd0 2.247087 1_556
F0 Gd3 2.256579 1_555
F1 Gd2 2.247087 1_554
F1 Gd1 2.256579 1_555
F2 Gd3 2.247087 1_555
F2 Gd0 2.256579 1_555
F3 Gd1 2.247087 1_555
F3 Gd2 2.256579 1_555
