# generated using pymatgen
data_Mn5(AsO5)4
_symmetry_space_group_name_H-M   'P 1'
_cell_length_a   9.35795500
_cell_length_b   9.55384193
_cell_length_c   9.96236641
_cell_angle_alpha   102.50302664
_cell_angle_beta   118.01257388
_cell_angle_gamma   90.00000000
_symmetry_Int_Tables_number   1
_chemical_formula_structural   Mn5(AsO5)4
_chemical_formula_sum   'Mn10 As8 O40'
_cell_volume   762.32292712
_cell_formula_units_Z   2
loop_
 _symmetry_equiv_pos_site_id
 _symmetry_equiv_pos_as_xyz
  1  'x, y, z'
loop_
 _atom_site_type_symbol
 _atom_site_label
 _atom_site_symmetry_multiplicity
 _atom_site_fract_x
 _atom_site_fract_y
 _atom_site_fract_z
 _atom_site_occupancy
  Mn  Mn0  1  0.10435700  0.25000000  0.00000000  1
  Mn  Mn1  1  0.89564300  0.75000000  0.00000000  1
  Mn  Mn2  1  0.26116800  0.69522600  0.63752500  1
  Mn  Mn3  1  0.62364200  0.80477400  0.36247500  1
  Mn  Mn4  1  0.73883200  0.30477400  0.36247500  1
  Mn  Mn5  1  0.37635800  0.19522600  0.63752500  1
  Mn  Mn6  1  0.85032200  0.61385900  0.64597700  1
  Mn  Mn7  1  0.20434500  0.88614100  0.35402300  1
  Mn  Mn8  1  0.14967800  0.38614100  0.35402300  1
  Mn  Mn9  1  0.79565500  0.11385900  0.64597700  1
  As  As0  1  0.12773700  0.89714900  0.86965800  1
  As  As1  1  0.25807800  0.60285100  0.13034200  1
  As  As2  1  0.87226300  0.10285100  0.13034200  1
  As  As3  1  0.74192200  0.39714900  0.86965800  1
  As  As4  1  0.39161500  0.14701200  0.30003700  1
  As  As5  1  0.09157800  0.35298800  0.69996300  1
  As  As6  1  0.60838500  0.85298800  0.69996300  1
  As  As7  1  0.90842200  0.64701200  0.30003700  1
  O  O0  1  0.96704600  0.77569900  0.84960300  1
  O  O1  1  0.11744400  0.72430100  0.15039700  1
  O  O2  1  0.03295400  0.22430100  0.15039700  1
  O  O3  1  0.88255600  0.27569900  0.84960300  1
  O  O4  1  0.11371300  0.82084500  0.69005100  1
  O  O5  1  0.42366200  0.67915500  0.30994900  1
  O  O6  1  0.88628700  0.17915500  0.30994900  1
  O  O7  1  0.57633800  0.32084500  0.69005100  1
  O  O8  1  0.02426900  0.05434400  0.85834300  1
  O  O9  1  0.16592600  0.44565600  0.14165700  1
  O  O10  1  0.97573100  0.94565600  0.14165700  1
  O  O11  1  0.83407400  0.55434400  0.85834300  1
  O  O12  1  0.37093700  0.97670900  0.32640100  1
  O  O13  1  0.04453600  0.52329100  0.67359900  1
  O  O14  1  0.62906300  0.02329100  0.67359900  1
  O  O15  1  0.95546400  0.47670900  0.32640100  1
  O  O16  1  0.60106600  0.16977300  0.38267600  1
  O  O17  1  0.21839100  0.33022700  0.61732400  1
  O  O18  1  0.39893400  0.83022700  0.61732400  1
  O  O19  1  0.78160900  0.66977300  0.38267600  1
  O  O20  1  0.32793200  0.25824900  0.41950100  1
  O  O21  1  0.90843200  0.24175100  0.58049900  1
  O  O22  1  0.67206800  0.74175100  0.58049900  1
  O  O23  1  0.09156800  0.75824900  0.41950100  1
  O  O24  1  0.31535800  0.20087500  0.12720300  1
  O  O25  1  0.18815600  0.29912500  0.87279700  1
  O  O26  1  0.68464200  0.79912500  0.87279700  1
  O  O27  1  0.81184400  0.70087500  0.12720300  1
  O  O28  1  0.30458100  0.91695700  0.03090000  1
  O  O29  1  0.27368100  0.58304300  0.96910000  1
  O  O30  1  0.69541900  0.08304300  0.96910000  1
  O  O31  1  0.72631900  0.41695700  0.03090000  1
  O  O32  1  0.77740600  0.95157200  0.49363200  1
  O  O33  1  0.28377400  0.54842800  0.50636800  1
  O  O34  1  0.22259400  0.04842800  0.50636800  1
  O  O35  1  0.71622600  0.45157200  0.49363200  1
  O  O36  1  0.62132100  0.31886800  0.18240800  1
  O  O37  1  0.43891300  0.18113200  0.81759200  1
  O  O38  1  0.37867900  0.68113200  0.81759200  1
  O  O39  1  0.56108700  0.81886800  0.18240800  1
loop_
_geom_bond_atom_site_label_1
_geom_bond_atom_site_label_2
_geom_bond_distance
_geom_bond_site_symmetry_2
Mn0 O24 1.905803 1_555
Mn0 O25 1.905810 1_554
Mn0 O2 1.962493 1_555
Mn0 O3 1.962500 1_454
Mn0 O8 1.977813 1_554
Mn0 O9 1.977813 1_555
Mn1 O26 1.905803 1_554
Mn1 O27 1.905810 1_555
Mn1 O0 1.962493 1_554
Mn1 O1 1.962500 1_655
Mn1 O10 1.977813 1_555
Mn1 O11 1.977813 1_554
Mn2 O38 1.642265 1_555
Mn2 O33 1.784712 1_555
Mn2 O18 1.929297 1_555
Mn2 O4 2.006134 1_555
Mn2 O23 2.219760 1_555
Mn3 O39 1.642266 1_555
Mn3 O32 1.784716 1_555
Mn3 O19 1.929297 1_555
Mn3 O5 2.006126 1_555
Mn3 O22 2.219755 1_555
Mn4 O36 1.642265 1_555
Mn4 O35 1.784712 1_555
Mn4 O16 1.929297 1_555
Mn4 O6 2.006134 1_555
Mn4 O21 2.219760 1_555
Mn5 O37 1.642266 1_555
Mn5 O34 1.784716 1_555
Mn5 O17 1.929297 1_555
Mn5 O7 2.006126 1_555
Mn5 O20 2.219755 1_555
Mn6 O35 1.863928 1_555
Mn6 O13 1.939289 1_655
Mn6 O22 2.005988 1_555
Mn6 O0 2.063866 1_555
Mn6 O11 2.376026 1_555
Mn6 O19 2.569405 1_555
Mn7 O34 1.863928 1_565
Mn7 O12 1.939289 1_555
Mn7 O23 2.005994 1_555
Mn7 O1 2.063866 1_555
Mn7 O10 2.376026 1_455
Mn7 O18 2.569407 1_555
Mn8 O33 1.863928 1_555
Mn8 O15 1.939289 1_455
Mn8 O20 2.005988 1_555
Mn8 O2 2.063866 1_555
Mn8 O9 2.376026 1_555
Mn8 O17 2.569405 1_555
Mn9 O32 1.863928 1_545
Mn9 O14 1.939289 1_555
Mn9 O21 2.005994 1_555
Mn9 O3 2.063866 1_555
Mn9 O8 2.376026 1_655
Mn9 O16 2.569407 1_555
As0 O28 1.651114 1_556
As0 O4 1.721898 1_555
As0 O8 1.782257 1_565
As0 O0 1.806901 1_455
As1 O29 1.651119 1_554
As1 O5 1.721902 1_555
As1 O9 1.782253 1_555
As1 O1 1.806886 1_555
As2 O30 1.651114 1_554
As2 O6 1.721898 1_555
As2 O10 1.782257 1_545
As2 O2 1.806901 1_655
As3 O31 1.651119 1_556
As3 O7 1.721902 1_555
As3 O11 1.782253 1_555
As3 O3 1.806886 1_555
As4 O24 1.722858 1_555
As4 O16 1.724394 1_555
As4 O12 1.728145 1_545
As4 O20 1.737698 1_555
As5 O25 1.722859 1_555
As5 O17 1.724403 1_555
As5 O13 1.728145 1_555
As5 O21 1.737691 1_455
As6 O26 1.722858 1_555
As6 O18 1.724394 1_555
As6 O14 1.728145 1_565
As6 O22 1.737698 1_555
As7 O27 1.722859 1_555
As7 O19 1.724403 1_555
As7 O15 1.728145 1_555
As7 O23 1.737691 1_655
