# generated using pymatgen
data_Li5Fe2(PO4)3
_symmetry_space_group_name_H-M   'P 1'
_cell_length_a   8.82014700
_cell_length_b   8.71788400
_cell_length_c   12.57496355
_cell_angle_alpha   88.93004595
_cell_angle_beta   90.00000000
_cell_angle_gamma   90.00000000
_symmetry_Int_Tables_number   1
_chemical_formula_structural   Li5Fe2(PO4)3
_chemical_formula_sum   'Li20 Fe8 P12 O48'
_cell_volume   966.75831195
_cell_formula_units_Z   4
loop_
 _symmetry_equiv_pos_site_id
 _symmetry_equiv_pos_as_xyz
  1  'x, y, z'
loop_
 _atom_site_type_symbol
 _atom_site_label
 _atom_site_symmetry_multiplicity
 _atom_site_fract_x
 _atom_site_fract_y
 _atom_site_fract_z
 _atom_site_occupancy
  Li  Li0  1  0.52308200  0.17280900  0.10618800  1
  Li  Li1  1  0.09668200  0.17507300  0.43971900  1
  Li  Li2  1  0.73361100  0.11002500  0.49645000  1
  Li  Li3  1  0.66010100  0.15644500  0.71816500  1
  Li  Li4  1  0.76806700  0.05104100  0.93188400  1
  Li  Li5  1  0.26806700  0.94895900  0.06811600  1
  Li  Li6  1  0.16010100  0.84355500  0.28183500  1
  Li  Li7  1  0.23361100  0.88997500  0.50355000  1
  Li  Li8  1  0.59668200  0.82492700  0.56028100  1
  Li  Li9  1  0.02308200  0.82719100  0.89381200  1
  Li  Li10  1  0.98032900  0.68948800  0.59839400  1
  Li  Li11  1  0.40328900  0.67042500  0.93998200  1
  Li  Li12  1  0.77236200  0.62864900  0.00540000  1
  Li  Li13  1  0.69061000  0.61621800  0.24723600  1
  Li  Li14  1  0.73419100  0.55331400  0.44572400  1
  Li  Li15  1  0.23419100  0.44668600  0.55427600  1
  Li  Li16  1  0.19061000  0.38378200  0.75276400  1
  Li  Li17  1  0.27236200  0.37135100  0.99460000  1
  Li  Li18  1  0.90328900  0.32957500  0.06001800  1
  Li  Li19  1  0.48032900  0.31051200  0.40160600  1
  Fe  Fe0  1  0.53650700  0.99298100  0.34941500  1
  Fe  Fe1  1  0.03650700  0.00701900  0.65058500  1
  Fe  Fe2  1  0.44429700  0.00083300  0.85961900  1
  Fe  Fe3  1  0.94429700  0.99916700  0.14038100  1
  Fe  Fe4  1  0.04464600  0.50146300  0.35069200  1
  Fe  Fe5  1  0.54464600  0.49853700  0.64930800  1
  Fe  Fe6  1  0.94438300  0.50252800  0.85498600  1
  Fe  Fe7  1  0.44438300  0.49747200  0.14501400  1
  P  P0  1  0.24603700  0.19403600  0.24158500  1
  P  P1  1  0.39415200  0.14343200  0.59742900  1
  P  P2  1  0.09907000  0.14254400  0.90914600  1
  P  P3  1  0.89415200  0.85656800  0.40257100  1
  P  P4  1  0.59907000  0.85745600  0.09085400  1
  P  P5  1  0.74603700  0.80596400  0.75841500  1
  P  P6  1  0.24612500  0.69818900  0.74014700  1
  P  P7  1  0.40197800  0.64652500  0.40225800  1
  P  P8  1  0.10776800  0.64375500  0.09658300  1
  P  P9  1  0.90197800  0.35347500  0.59774200  1
  P  P10  1  0.60776800  0.35624500  0.90341700  1
  P  P11  1  0.74612500  0.30181100  0.25985300  1
  O  O0  1  0.86148600  0.21180700  0.19446800  1
  O  O1  1  0.85985600  0.17970000  0.62042400  1
  O  O2  1  0.68027100  0.20932100  0.35688500  1
  O  O3  1  0.58609900  0.18742000  0.94408400  1
  O  O4  1  0.37126500  0.15416500  0.32531700  1
  O  O5  1  0.22810100  0.09654000  0.56692500  1
  O  O6  1  0.41628300  0.13404200  0.71797900  1
  O  O7  1  0.97274500  0.13022800  0.99531700  1
  O  O8  1  0.25728200  0.09002400  0.94958400  1
  O  O9  1  0.17726000  0.03994800  0.20106200  1
  O  O10  1  0.04962700  0.04001500  0.81646200  1
  O  O11  1  0.51228100  0.03951400  0.54026500  1
  O  O12  1  0.01228100  0.96048600  0.45973500  1
  O  O13  1  0.54962700  0.95998500  0.18353800  1
  O  O14  1  0.67726000  0.96005200  0.79893800  1
  O  O15  1  0.75728200  0.90997600  0.05041600  1
  O  O16  1  0.91628300  0.86595800  0.28202100  1
  O  O17  1  0.47274500  0.86977200  0.00468300  1
  O  O18  1  0.72810100  0.90346000  0.43307500  1
  O  O19  1  0.87126500  0.84583500  0.67468300  1
  O  O20  1  0.18027100  0.79067900  0.64311500  1
  O  O21  1  0.35985600  0.82030000  0.37957600  1
  O  O22  1  0.08609900  0.81258000  0.05591600  1
  O  O23  1  0.36148600  0.78819300  0.80553200  1
  O  O24  1  0.62720700  0.71442700  0.69778000  1
  O  O25  1  0.91997500  0.68558600  0.44312700  1
  O  O26  1  0.61481700  0.68236700  0.11744600  1
  O  O27  1  0.81576800  0.71878400  0.85565400  1
  O  O28  1  0.11754300  0.65199400  0.81958800  1
  O  O29  1  0.26581000  0.58595900  0.05554700  1
  O  O30  1  0.51887500  0.63493200  0.49585000  1
  O  O31  1  0.11475700  0.63741600  0.21946500  1
  O  O32  1  0.25361100  0.56273800  0.43084800  1
  O  O33  1  0.31306500  0.54478600  0.69514400  1
  O  O34  1  0.48233200  0.57130500  0.30660600  1
  O  O35  1  0.97967800  0.54425800  0.04973100  1
  O  O36  1  0.47967800  0.45574200  0.95026900  1
  O  O37  1  0.98233200  0.42869500  0.69339400  1
  O  O38  1  0.81306500  0.45521400  0.30485600  1
  O  O39  1  0.75361100  0.43726200  0.56915200  1
  O  O40  1  0.01887500  0.36506800  0.50415000  1
  O  O41  1  0.61475700  0.36258400  0.78053500  1
  O  O42  1  0.76581000  0.41404100  0.94445300  1
  O  O43  1  0.61754300  0.34800600  0.18041200  1
  O  O44  1  0.41997500  0.31441400  0.55687300  1
  O  O45  1  0.31576800  0.28121600  0.14434600  1
  O  O46  1  0.11481700  0.31763300  0.88255400  1
  O  O47  1  0.12720700  0.28557300  0.30222000  1
loop_
_geom_bond_atom_site_label_1
_geom_bond_atom_site_label_2
_geom_bond_distance
_geom_bond_site_symmetry_2
Li0 O43 1.987801 1_555
Li0 O13 2.091872 1_545
Li0 O3 2.114415 1_554
Li0 O45 2.117525 1_555
Li1 O40 1.980163 1_555
Li1 O47 1.981887 1_555
Li1 O12 2.024754 1_545
Li1 O5 2.080909 1_555
Li2 O18 1.983428 1_545
Li2 O2 1.998516 1_555
Li2 O1 2.018560 1_555
Li2 O11 2.116537 1_555
Li3 O14 1.980160 1_545
Li3 O41 2.014267 1_555
Li3 O1 2.155606 1_555
Li3 O6 2.159366 1_555
Li4 O15 1.916942 1_546
Li4 O3 2.004967 1_555
Li4 O14 2.028575 1_545
Li4 O7 2.095826 1_555
Li5 O8 1.916942 1_564
Li5 O22 2.004967 1_555
Li5 O9 2.028575 1_565
Li5 O17 2.095826 1_555
Li6 O9 1.980160 1_565
Li6 O31 2.014267 1_555
Li6 O21 2.155606 1_555
Li6 O16 2.159366 1_455
Li7 O5 1.983428 1_565
Li7 O20 1.998516 1_555
Li7 O21 2.018560 1_555
Li7 O12 2.116537 1_555
Li8 O30 1.980163 1_555
Li8 O24 1.981887 1_555
Li8 O11 2.024754 1_565
Li8 O18 2.080909 1_555
Li9 O28 1.987801 1_555
Li9 O10 2.091872 1_565
Li9 O22 2.114415 1_556
Li9 O27 2.117525 1_455
Li10 O19 1.937093 1_555
Li10 O25 2.024643 1_555
Li10 O20 2.054995 1_655
Li10 O37 2.548546 1_555
Li11 O36 1.991096 1_555
Li11 O23 1.995918 1_555
Li11 O29 2.021014 1_556
Li11 O17 2.027389 1_556
Li12 O42 2.035839 1_554
Li12 O26 2.039624 1_555
Li12 O35 2.044588 1_555
Li12 O27 2.062681 1_554
Li12 O15 2.530832 1_555
Li13 O26 1.846097 1_555
Li13 O38 1.903603 1_555
Li13 O34 2.018537 1_555
Li14 O39 1.844806 1_555
Li14 O25 2.003627 1_555
Li14 O38 2.099965 1_555
Li14 O30 2.127676 1_555
Li15 O32 1.844806 1_555
Li15 O44 2.003627 1_555
Li15 O33 2.099965 1_555
Li15 O40 2.127676 1_555
Li16 O46 1.846097 1_555
Li16 O33 1.903603 1_555
Li16 O37 2.018537 1_455
Li17 O29 2.035839 1_556
Li17 O46 2.039624 1_555
Li17 O36 2.044588 1_555
Li17 O45 2.062681 1_556
Li17 O8 2.530832 1_555
Li18 O35 1.991096 1_555
Li18 O0 1.995918 1_555
Li18 O42 2.021014 1_554
Li18 O7 2.027389 1_554
Li19 O4 1.937093 1_555
Li19 O44 2.024643 1_555
Li19 O2 2.054995 1_555
Li19 O34 2.548546 1_555
Fe0 O4 2.043196 1_565
Fe0 O13 2.114122 1_555
Fe0 O18 2.130935 1_555
Fe0 O21 2.194637 1_555
Fe0 O2 2.276052 1_565
Fe0 O11 2.450767 1_565
Fe1 O19 2.043196 1_445
Fe1 O10 2.114122 1_555
Fe1 O5 2.130935 1_555
Fe1 O1 2.194637 1_455
Fe1 O20 2.276052 1_545
Fe1 O12 2.450767 1_545
Fe2 O23 2.116516 1_545
Fe2 O6 2.122453 1_555
Fe2 O17 2.149002 1_546
Fe2 O8 2.153637 1_555
Fe2 O14 2.222805 1_545
Fe2 O3 2.324421 1_555
Fe3 O0 2.116516 1_565
Fe3 O16 2.122453 1_555
Fe3 O7 2.149002 1_564
Fe3 O15 2.153637 1_555
Fe3 O9 2.222805 1_665
Fe3 O22 2.324421 1_655
Fe4 O31 2.106464 1_555
Fe4 O47 2.118246 1_555
Fe4 O38 2.162312 1_455
Fe4 O32 2.172204 1_555
Fe4 O40 2.259143 1_555
Fe4 O25 2.281772 1_455
Fe5 O41 2.106464 1_555
Fe5 O24 2.118246 1_555
Fe5 O33 2.162312 1_555
Fe5 O39 2.172204 1_555
Fe5 O30 2.259143 1_555
Fe5 O44 2.281772 1_555
Fe6 O28 2.051096 1_655
Fe6 O42 2.075850 1_555
Fe6 O37 2.168932 1_555
Fe6 O27 2.200425 1_555
Fe6 O46 2.226495 1_655
Fe6 O35 2.501939 1_556
Fe7 O43 2.051096 1_555
Fe7 O29 2.075850 1_555
Fe7 O34 2.168932 1_555
Fe7 O45 2.200425 1_555
Fe7 O26 2.226495 1_555
Fe7 O36 2.501939 1_554
O0 P11 1.533331 1_555
O1 P9 1.580607 1_555
O2 P11 1.561924 1_555
O3 P10 1.560808 1_555
O4 P0 1.560702 1_555
O5 P1 1.570079 1_555
O6 P1 1.529104 1_555
O7 P2 1.556541 1_655
O8 P2 1.551390 1_555
O9 P0 1.567717 1_555
O10 P2 1.544802 1_555
O11 P1 1.564407 1_555
O12 P3 1.564407 1_455
O13 P4 1.544802 1_555
O14 P5 1.567717 1_555
O15 P4 1.551390 1_555
O16 P3 1.529104 1_555
O17 P4 1.556541 1_555
O18 P3 1.570079 1_555
O19 P5 1.560702 1_555
O20 P6 1.561924 1_555
O21 P7 1.580607 1_555
O22 P8 1.560808 1_555
O23 P6 1.533331 1_555
O24 P5 1.529520 1_555
O25 P3 1.582867 1_555
O26 P4 1.562678 1_555
O27 P5 1.554473 1_555
O28 P6 1.559265 1_555
O29 P8 1.572569 1_555
O30 P7 1.566514 1_555
O31 P8 1.546422 1_555
O32 P7 1.538011 1_555
O33 P6 1.576585 1_555
O34 P7 1.551953 1_555
O35 P8 1.547570 1_655
O36 P10 1.547570 1_555
O37 P9 1.551953 1_555
O38 P11 1.576585 1_555
O39 P9 1.538011 1_555
O40 P9 1.566514 1_455
O41 P10 1.546422 1_555
O42 P10 1.572569 1_555
O43 P11 1.559265 1_555
O44 P1 1.582867 1_555
O45 P0 1.554473 1_555
O46 P2 1.562678 1_555
O47 P0 1.529520 1_555
