# generated using pymatgen
data_Pr5(In2Pt)2
_symmetry_space_group_name_H-M   'P 1'
_cell_length_a   7.64338298
_cell_length_b   16.63545810
_cell_length_c   37.45963840
_cell_angle_alpha   90.00000000
_cell_angle_beta   90.00000000
_cell_angle_gamma   90.00000000
_symmetry_Int_Tables_number   1
_chemical_formula_structural   Pr5(In2Pt)2
_chemical_formula_sum   'Pr80 In64 Pt32'
_cell_volume   4763.03712402
_cell_formula_units_Z   16
loop_
 _symmetry_equiv_pos_site_id
 _symmetry_equiv_pos_as_xyz
  1  'x, y, z'
loop_
 _atom_site_type_symbol
 _atom_site_label
 _atom_site_symmetry_multiplicity
 _atom_site_fract_x
 _atom_site_fract_y
 _atom_site_fract_z
 _atom_site_occupancy
  Pr  Pr0_0  1  0.00000000  0.05879705  0.20785718  1
  Pr  Pr0_1  1  0.00000000  0.05879705  0.70785719  1
  Pr  Pr0_2  1  0.00000000  0.55879704  0.20785718  1
  Pr  Pr0_3  1  0.00000000  0.55879704  0.70785719  1
  Pr  Pr0_4  1  0.50000000  0.05879705  0.20785718  1
  Pr  Pr0_5  1  0.50000000  0.05879705  0.70785719  1
  Pr  Pr0_6  1  0.50000000  0.55879704  0.20785718  1
  Pr  Pr0_7  1  0.50000000  0.55879704  0.70785719  1
  Pr  Pr1_0  1  0.00000000  0.44120296  0.29214282  1
  Pr  Pr1_1  1  0.00000000  0.44120296  0.79214281  1
  Pr  Pr1_2  1  0.00000000  0.94120295  0.29214282  1
  Pr  Pr1_3  1  0.00000000  0.94120295  0.79214281  1
  Pr  Pr1_4  1  0.50000000  0.44120296  0.29214282  1
  Pr  Pr1_5  1  0.50000000  0.44120296  0.79214281  1
  Pr  Pr1_6  1  0.50000000  0.94120295  0.29214282  1
  Pr  Pr1_7  1  0.50000000  0.94120295  0.79214281  1
  Pr  Pr2_0  1  0.00000000  0.19120296  0.45785719  1
  Pr  Pr2_1  1  0.00000000  0.19120296  0.95785718  1
  Pr  Pr2_2  1  0.00000000  0.69120296  0.45785719  1
  Pr  Pr2_3  1  0.00000000  0.69120296  0.95785718  1
  Pr  Pr2_4  1  0.50000000  0.19120296  0.45785719  1
  Pr  Pr2_5  1  0.50000000  0.19120296  0.95785718  1
  Pr  Pr2_6  1  0.50000000  0.69120296  0.45785719  1
  Pr  Pr2_7  1  0.50000000  0.69120296  0.95785718  1
  Pr  Pr3_0  1  0.00000000  0.30879705  0.04214282  1
  Pr  Pr3_1  1  0.00000000  0.30879705  0.54214281  1
  Pr  Pr3_2  1  0.00000000  0.80879705  0.04214282  1
  Pr  Pr3_3  1  0.00000000  0.80879705  0.54214281  1
  Pr  Pr3_4  1  0.50000000  0.30879705  0.04214282  1
  Pr  Pr3_5  1  0.50000000  0.30879705  0.54214281  1
  Pr  Pr3_6  1  0.50000000  0.80879705  0.04214282  1
  Pr  Pr3_7  1  0.50000000  0.80879705  0.54214281  1
  Pr  Pr4_0  1  0.00000000  0.12058627  0.11116157  1
  Pr  Pr4_1  1  0.00000000  0.12058627  0.61116156  1
  Pr  Pr4_2  1  0.00000000  0.62058627  0.11116157  1
  Pr  Pr4_3  1  0.00000000  0.62058627  0.61116156  1
  Pr  Pr4_4  1  0.50000000  0.12058627  0.11116157  1
  Pr  Pr4_5  1  0.50000000  0.12058627  0.61116156  1
  Pr  Pr4_6  1  0.50000000  0.62058627  0.11116157  1
  Pr  Pr4_7  1  0.50000000  0.62058627  0.61116156  1
  Pr  Pr5_0  1  0.00000000  0.37941374  0.38883843  1
  Pr  Pr5_1  1  0.00000000  0.37941374  0.88883844  1
  Pr  Pr5_2  1  0.00000000  0.87941374  0.38883843  1
  Pr  Pr5_3  1  0.00000000  0.87941374  0.88883844  1
  Pr  Pr5_4  1  0.50000000  0.37941374  0.38883843  1
  Pr  Pr5_5  1  0.50000000  0.37941374  0.88883844  1
  Pr  Pr5_6  1  0.50000000  0.87941374  0.38883843  1
  Pr  Pr5_7  1  0.50000000  0.87941374  0.88883844  1
  Pr  Pr6_0  1  0.00000000  0.12941374  0.36116157  1
  Pr  Pr6_1  1  0.00000000  0.12941374  0.86116157  1
  Pr  Pr6_2  1  0.00000000  0.62941374  0.36116157  1
  Pr  Pr6_3  1  0.00000000  0.62941374  0.86116157  1
  Pr  Pr6_4  1  0.50000000  0.12941374  0.36116157  1
  Pr  Pr6_5  1  0.50000000  0.12941374  0.86116157  1
  Pr  Pr6_6  1  0.50000000  0.62941374  0.36116157  1
  Pr  Pr6_7  1  0.50000000  0.62941374  0.86116157  1
  Pr  Pr7_0  1  0.00000000  0.37058627  0.13883844  1
  Pr  Pr7_1  1  0.00000000  0.37058627  0.63883844  1
  Pr  Pr7_2  1  0.00000000  0.87058627  0.13883844  1
  Pr  Pr7_3  1  0.00000000  0.87058627  0.63883844  1
  Pr  Pr7_4  1  0.50000000  0.37058627  0.13883844  1
  Pr  Pr7_5  1  0.50000000  0.37058627  0.63883844  1
  Pr  Pr7_6  1  0.50000000  0.87058627  0.13883844  1
  Pr  Pr7_7  1  0.50000000  0.87058627  0.63883844  1
  Pr  Pr8_0  1  0.00000000  0.00000000  0.00000000  1
  Pr  Pr8_1  1  0.00000000  0.00000000  0.50000000  1
  Pr  Pr8_2  1  0.00000000  0.50000000  0.00000000  1
  Pr  Pr8_3  1  0.00000000  0.50000000  0.50000000  1
  Pr  Pr8_4  1  0.50000000  0.00000000  0.00000000  1
  Pr  Pr8_5  1  0.50000000  0.00000000  0.50000000  1
  Pr  Pr8_6  1  0.50000000  0.50000000  0.00000000  1
  Pr  Pr8_7  1  0.50000000  0.50000000  0.50000000  1
  Pr  Pr9_0  1  0.00000000  0.25000000  0.25000000  1
  Pr  Pr9_1  1  0.00000000  0.25000000  0.75000000  1
  Pr  Pr9_2  1  0.00000000  0.75000000  0.25000000  1
  Pr  Pr9_3  1  0.00000000  0.75000000  0.75000000  1
  Pr  Pr9_4  1  0.50000000  0.25000000  0.25000000  1
  Pr  Pr9_5  1  0.50000000  0.25000000  0.75000000  1
  Pr  Pr9_6  1  0.50000000  0.75000000  0.25000000  1
  Pr  Pr9_7  1  0.50000000  0.75000000  0.75000000  1
  In  In0_0  1  0.25000000  0.21603040  0.17520297  1
  In  In0_1  1  0.25000000  0.21603040  0.67520297  1
  In  In0_2  1  0.25000000  0.71603039  0.17520297  1
  In  In0_3  1  0.25000000  0.71603039  0.67520297  1
  In  In0_4  1  0.75000000  0.21603040  0.17520297  1
  In  In0_5  1  0.75000000  0.21603040  0.67520297  1
  In  In0_6  1  0.75000000  0.71603039  0.17520297  1
  In  In0_7  1  0.75000000  0.71603039  0.67520297  1
  In  In1_0  1  0.25000000  0.28396961  0.32479703  1
  In  In1_1  1  0.25000000  0.28396961  0.82479703  1
  In  In1_2  1  0.25000000  0.78396961  0.32479703  1
  In  In1_3  1  0.25000000  0.78396961  0.82479703  1
  In  In1_4  1  0.75000000  0.28396961  0.32479703  1
  In  In1_5  1  0.75000000  0.28396961  0.82479703  1
  In  In1_6  1  0.75000000  0.78396961  0.32479703  1
  In  In1_7  1  0.75000000  0.78396961  0.82479703  1
  In  In2_0  1  0.25000000  0.03396960  0.42520297  1
  In  In2_1  1  0.25000000  0.03396960  0.92520297  1
  In  In2_2  1  0.25000000  0.53396961  0.42520297  1
  In  In2_3  1  0.25000000  0.53396961  0.92520297  1
  In  In2_4  1  0.75000000  0.03396960  0.42520297  1
  In  In2_5  1  0.75000000  0.03396960  0.92520297  1
  In  In2_6  1  0.75000000  0.53396961  0.42520297  1
  In  In2_7  1  0.75000000  0.53396961  0.92520297  1
  In  In3_0  1  0.25000000  0.46603040  0.07479703  1
  In  In3_1  1  0.25000000  0.46603040  0.57479703  1
  In  In3_2  1  0.25000000  0.96603039  0.07479703  1
  In  In3_3  1  0.25000000  0.96603039  0.57479703  1
  In  In3_4  1  0.75000000  0.46603040  0.07479703  1
  In  In3_5  1  0.75000000  0.46603040  0.57479703  1
  In  In3_6  1  0.75000000  0.96603039  0.07479703  1
  In  In3_7  1  0.75000000  0.96603039  0.57479703  1
  In  In4_0  1  0.25000000  0.14453376  0.03554225  1
  In  In4_1  1  0.25000000  0.14453376  0.53554225  1
  In  In4_2  1  0.25000000  0.64453376  0.03554225  1
  In  In4_3  1  0.25000000  0.64453376  0.53554225  1
  In  In4_4  1  0.75000000  0.14453376  0.03554225  1
  In  In4_5  1  0.75000000  0.14453376  0.53554225  1
  In  In4_6  1  0.75000000  0.64453376  0.03554225  1
  In  In4_7  1  0.75000000  0.64453376  0.53554225  1
  In  In5_0  1  0.25000000  0.35546624  0.46445775  1
  In  In5_1  1  0.25000000  0.35546624  0.96445775  1
  In  In5_2  1  0.25000000  0.85546624  0.46445775  1
  In  In5_3  1  0.25000000  0.85546624  0.96445775  1
  In  In5_4  1  0.75000000  0.35546624  0.46445775  1
  In  In5_5  1  0.75000000  0.35546624  0.96445775  1
  In  In5_6  1  0.75000000  0.85546624  0.46445775  1
  In  In5_7  1  0.75000000  0.85546624  0.96445775  1
  In  In6_0  1  0.25000000  0.10546624  0.28554225  1
  In  In6_1  1  0.25000000  0.10546624  0.78554225  1
  In  In6_2  1  0.25000000  0.60546624  0.28554225  1
  In  In6_3  1  0.25000000  0.60546624  0.78554225  1
  In  In6_4  1  0.75000000  0.10546624  0.28554225  1
  In  In6_5  1  0.75000000  0.10546624  0.78554225  1
  In  In6_6  1  0.75000000  0.60546624  0.28554225  1
  In  In6_7  1  0.75000000  0.60546624  0.78554225  1
  In  In7_0  1  0.25000000  0.39453376  0.21445775  1
  In  In7_1  1  0.25000000  0.39453376  0.71445775  1
  In  In7_2  1  0.25000000  0.89453376  0.21445775  1
  In  In7_3  1  0.25000000  0.89453376  0.71445775  1
  In  In7_4  1  0.75000000  0.39453376  0.21445775  1
  In  In7_5  1  0.75000000  0.39453376  0.71445775  1
  In  In7_6  1  0.75000000  0.89453376  0.21445775  1
  In  In7_7  1  0.75000000  0.89453376  0.71445775  1
  Pt  Pt0_0  1  0.25000000  0.00885313  0.15188439  1
  Pt  Pt0_1  1  0.25000000  0.00885313  0.65188439  1
  Pt  Pt0_2  1  0.25000000  0.50885313  0.15188439  1
  Pt  Pt0_3  1  0.25000000  0.50885313  0.65188439  1
  Pt  Pt0_4  1  0.75000000  0.00885313  0.15188439  1
  Pt  Pt0_5  1  0.75000000  0.00885313  0.65188439  1
  Pt  Pt0_6  1  0.75000000  0.50885313  0.15188439  1
  Pt  Pt0_7  1  0.75000000  0.50885313  0.65188439  1
  Pt  Pt1_0  1  0.25000000  0.49114687  0.34811561  1
  Pt  Pt1_1  1  0.25000000  0.49114687  0.84811561  1
  Pt  Pt1_2  1  0.25000000  0.99114687  0.34811561  1
  Pt  Pt1_3  1  0.25000000  0.99114687  0.84811561  1
  Pt  Pt1_4  1  0.75000000  0.49114687  0.34811561  1
  Pt  Pt1_5  1  0.75000000  0.49114687  0.84811561  1
  Pt  Pt1_6  1  0.75000000  0.99114687  0.34811561  1
  Pt  Pt1_7  1  0.75000000  0.99114687  0.84811561  1
  Pt  Pt2_0  1  0.25000000  0.24114687  0.40188439  1
  Pt  Pt2_1  1  0.25000000  0.24114687  0.90188439  1
  Pt  Pt2_2  1  0.25000000  0.74114687  0.40188439  1
  Pt  Pt2_3  1  0.25000000  0.74114687  0.90188439  1
  Pt  Pt2_4  1  0.75000000  0.24114687  0.40188439  1
  Pt  Pt2_5  1  0.75000000  0.24114687  0.90188439  1
  Pt  Pt2_6  1  0.75000000  0.74114687  0.40188439  1
  Pt  Pt2_7  1  0.75000000  0.74114687  0.90188439  1
  Pt  Pt3_0  1  0.25000000  0.25885313  0.09811561  1
  Pt  Pt3_1  1  0.25000000  0.25885313  0.59811561  1
  Pt  Pt3_2  1  0.25000000  0.75885313  0.09811561  1
  Pt  Pt3_3  1  0.25000000  0.75885313  0.59811561  1
  Pt  Pt3_4  1  0.75000000  0.25885313  0.09811561  1
  Pt  Pt3_5  1  0.75000000  0.25885313  0.59811561  1
  Pt  Pt3_6  1  0.75000000  0.75885313  0.09811561  1
  Pt  Pt3_7  1  0.75000000  0.75885313  0.59811561  1
loop_
_geom_bond_atom_site_label_1
_geom_bond_atom_site_label_2
_geom_bond_distance
_geom_bond_site_symmetry_2
Pr0_0 Pt0_4 2.955988 1_455
Pr0_0 Pt0_0 2.955988 1_555
Pr0_0 Pr9_0 3.550959 1_555
Pr0_1 Pt0_5 2.955988 1_455
Pr0_1 Pt0_1 2.955988 1_555
Pr0_1 Pr9_1 3.550959 1_555
Pr0_2 Pt0_2 2.955988 1_555
Pr0_2 Pt0_6 2.955988 1_455
Pr0_2 Pr9_2 3.550959 1_555
Pr0_3 Pt0_7 2.955988 1_455
Pr0_3 Pt0_3 2.955988 1_555
Pr0_3 Pr9_3 3.550959 1_555
Pr0_4 Pt0_0 2.955988 1_555
Pr0_4 Pt0_4 2.955988 1_555
Pr0_4 Pr9_4 3.550959 1_555
Pr0_5 Pt0_1 2.955988 1_555
Pr0_5 Pt0_5 2.955988 1_555
Pr0_5 Pr9_5 3.550959 1_555
Pr0_6 Pt0_2 2.955988 1_555
Pr0_6 Pt0_6 2.955988 1_555
Pr0_6 Pr9_6 3.550959 1_555
Pr0_7 Pt0_3 2.955988 1_555
Pr0_7 Pt0_7 2.955988 1_555
Pr0_7 Pr9_7 3.550959 1_555
Pr1_0 Pt1_4 2.955988 1_455
Pr1_0 Pt1_0 2.955988 1_555
Pr1_0 Pr9_0 3.550959 1_555
Pr1_1 Pt1_5 2.955988 1_455
Pr1_1 Pt1_1 2.955988 1_555
Pr1_1 Pr9_1 3.550959 1_555
Pr1_2 Pt1_6 2.955988 1_455
Pr1_2 Pt1_2 2.955988 1_555
Pr1_2 Pr9_2 3.550959 1_555
Pr1_3 Pt1_7 2.955988 1_455
Pr1_3 Pt1_3 2.955988 1_555
Pr1_3 Pr9_3 3.550959 1_555
Pr1_4 Pt1_0 2.955988 1_555
Pr1_4 Pt1_4 2.955988 1_555
Pr1_4 Pr9_4 3.550959 1_555
Pr1_5 Pt1_1 2.955988 1_555
Pr1_5 Pt1_5 2.955988 1_555
Pr1_5 Pr9_5 3.550959 1_555
Pr1_6 Pt1_2 2.955988 1_555
Pr1_6 Pt1_6 2.955988 1_555
Pr1_6 Pr9_6 3.550959 1_555
Pr1_7 Pt1_3 2.955988 1_555
Pr1_7 Pt1_7 2.955988 1_555
Pr1_7 Pr9_7 3.550959 1_555
Pr2_0 Pt2_4 2.955988 1_455
Pr2_0 Pt2_0 2.955988 1_555
Pr2_0 Pr8_1 3.550959 1_555
Pr2_1 Pt2_5 2.955988 1_455
Pr2_1 Pt2_1 2.955988 1_555
Pr2_1 Pr8_0 3.550959 1_556
Pr2_2 Pt2_6 2.955988 1_455
Pr2_2 Pt2_2 2.955988 1_555
Pr2_2 Pr8_3 3.550959 1_555
Pr2_3 Pt2_7 2.955988 1_455
Pr2_3 Pt2_3 2.955988 1_555
Pr2_3 Pr8_2 3.550959 1_556
Pr2_4 Pt2_0 2.955988 1_555
Pr2_4 Pt2_4 2.955988 1_555
Pr2_4 Pr8_5 3.550959 1_555
Pr2_5 Pt2_1 2.955988 1_555
Pr2_5 Pt2_5 2.955988 1_555
Pr2_5 Pr8_4 3.550959 1_556
Pr2_6 Pt2_2 2.955988 1_555
Pr2_6 Pt2_6 2.955988 1_555
Pr2_6 Pr8_7 3.550959 1_555
Pr2_7 Pt2_3 2.955988 1_555
Pr2_7 Pt2_7 2.955988 1_555
Pr2_7 Pr8_6 3.550959 1_556
Pr3_0 Pt3_4 2.955988 1_455
Pr3_0 Pt3_0 2.955988 1_555
Pr3_0 Pr8_2 3.550959 1_555
Pr3_1 Pt3_5 2.955988 1_455
Pr3_1 Pt3_1 2.955988 1_555
Pr3_1 Pr8_3 3.550959 1_555
Pr3_2 Pt3_6 2.955988 1_455
Pr3_2 Pt3_2 2.955988 1_555
Pr3_2 Pr8_0 3.550959 1_565
Pr3_3 Pt3_7 2.955988 1_455
Pr3_3 Pt3_3 2.955988 1_555
Pr3_3 Pr8_1 3.550959 1_565
Pr3_4 Pt3_0 2.955988 1_555
Pr3_4 Pt3_4 2.955988 1_555
Pr3_4 Pr8_6 3.550959 1_555
Pr3_5 Pt3_1 2.955988 1_555
Pr3_5 Pt3_5 2.955988 1_555
Pr3_5 Pr8_7 3.550959 1_555
Pr3_6 Pt3_2 2.955988 1_555
Pr3_6 Pt3_6 2.955988 1_555
Pr3_6 Pr8_4 3.550959 1_565
Pr3_7 Pt3_3 2.955988 1_555
Pr3_7 Pt3_7 2.955988 1_555
Pr3_7 Pr8_5 3.550959 1_565
Pr4_0 Pt3_4 3.029978 1_455
Pr4_0 Pt3_0 3.029978 1_555
Pr4_0 Pt0_4 3.071360 1_455
Pr4_0 Pt0_0 3.071360 1_555
Pr4_1 Pt3_5 3.029978 1_455
Pr4_1 Pt3_1 3.029978 1_555
Pr4_1 Pt0_5 3.071360 1_455
Pr4_1 Pt0_1 3.071360 1_555
Pr4_2 Pt3_6 3.029978 1_455
Pr4_2 Pt3_2 3.029978 1_555
Pr4_2 Pt0_6 3.071360 1_455
Pr4_2 Pt0_2 3.071360 1_555
Pr4_3 Pt3_7 3.029978 1_455
Pr4_3 Pt3_3 3.029978 1_555
Pr4_3 Pt0_7 3.071360 1_455
Pr4_3 Pt0_3 3.071360 1_555
Pr4_4 Pt3_0 3.029978 1_555
Pr4_4 Pt3_4 3.029978 1_555
Pr4_4 Pt0_0 3.071360 1_555
Pr4_4 Pt0_4 3.071360 1_555
Pr4_5 Pt3_1 3.029978 1_555
Pr4_5 Pt3_5 3.029978 1_555
Pr4_5 Pt0_1 3.071360 1_555
Pr4_5 Pt0_5 3.071360 1_555
Pr4_6 Pt3_2 3.029978 1_555
Pr4_6 Pt3_6 3.029978 1_555
Pr4_6 Pt0_2 3.071360 1_555
Pr4_6 Pt0_6 3.071360 1_555
Pr4_7 Pt3_3 3.029978 1_555
Pr4_7 Pt3_7 3.029978 1_555
Pr4_7 Pt0_3 3.071360 1_555
Pr4_7 Pt0_7 3.071360 1_555
Pr5_0 Pt2_4 3.029978 1_455
Pr5_0 Pt2_0 3.029978 1_555
Pr5_0 Pt1_0 3.071360 1_555
Pr5_0 Pt1_4 3.071360 1_455
Pr5_1 Pt2_5 3.029978 1_455
Pr5_1 Pt2_1 3.029978 1_555
Pr5_1 Pt1_5 3.071360 1_455
Pr5_1 Pt1_1 3.071360 1_555
Pr5_2 Pt2_6 3.029978 1_455
Pr5_2 Pt2_2 3.029978 1_555
Pr5_2 Pt1_6 3.071360 1_455
Pr5_2 Pt1_2 3.071360 1_555
Pr5_3 Pt2_7 3.029978 1_455
Pr5_3 Pt2_3 3.029978 1_555
Pr5_3 Pt1_7 3.071360 1_455
Pr5_3 Pt1_3 3.071360 1_555
Pr5_4 Pt2_0 3.029978 1_555
Pr5_4 Pt2_4 3.029978 1_555
Pr5_4 Pt1_0 3.071360 1_555
Pr5_4 Pt1_4 3.071360 1_555
Pr5_5 Pt2_1 3.029978 1_555
Pr5_5 Pt2_5 3.029978 1_555
Pr5_5 Pt1_1 3.071360 1_555
Pr5_5 Pt1_5 3.071360 1_555
Pr5_6 Pt2_2 3.029978 1_555
Pr5_6 Pt2_6 3.029978 1_555
Pr5_6 Pt1_2 3.071360 1_555
Pr5_6 Pt1_6 3.071360 1_555
Pr5_7 Pt2_3 3.029978 1_555
Pr5_7 Pt2_7 3.029978 1_555
Pr5_7 Pt1_3 3.071360 1_555
Pr5_7 Pt1_7 3.071360 1_555
Pr6_0 Pt1_2 3.029978 1_545
Pr6_0 Pt1_6 3.029978 1_445
Pr6_0 Pt2_4 3.071360 1_455
Pr6_0 Pt2_0 3.071360 1_555
Pr6_1 Pt1_7 3.029978 1_445
Pr6_1 Pt1_3 3.029978 1_545
Pr6_1 Pt2_5 3.071360 1_455
Pr6_1 Pt2_1 3.071360 1_555
Pr6_2 Pt1_4 3.029978 1_455
Pr6_2 Pt1_0 3.029978 1_555
Pr6_2 Pt2_2 3.071360 1_555
Pr6_2 Pt2_6 3.071360 1_455
Pr6_3 Pt1_5 3.029978 1_455
Pr6_3 Pt1_1 3.029978 1_555
Pr6_3 Pt2_7 3.071360 1_455
Pr6_3 Pt2_3 3.071360 1_555
Pr6_4 Pt1_2 3.029978 1_545
Pr6_4 Pt1_6 3.029978 1_545
Pr6_4 Pt2_0 3.071360 1_555
Pr6_4 Pt2_4 3.071360 1_555
Pr6_5 Pt1_3 3.029978 1_545
Pr6_5 Pt1_7 3.029978 1_545
Pr6_5 Pt2_1 3.071360 1_555
Pr6_5 Pt2_5 3.071360 1_555
Pr6_6 Pt1_0 3.029978 1_555
Pr6_6 Pt1_4 3.029978 1_555
Pr6_6 Pt2_2 3.071360 1_555
Pr6_6 Pt2_6 3.071360 1_555
Pr6_7 Pt1_1 3.029978 1_555
Pr6_7 Pt1_5 3.029978 1_555
Pr6_7 Pt2_3 3.071360 1_555
Pr6_7 Pt2_7 3.071360 1_555
Pr7_0 Pt0_6 3.029978 1_455
Pr7_0 Pt0_2 3.029978 1_555
Pr7_0 Pt3_4 3.071360 1_455
Pr7_0 Pt3_0 3.071360 1_555
Pr7_1 Pt0_7 3.029978 1_455
Pr7_1 Pt0_3 3.029978 1_555
Pr7_1 Pt3_5 3.071360 1_455
Pr7_1 Pt3_1 3.071360 1_555
Pr7_2 Pt0_4 3.029978 1_465
Pr7_2 Pt0_0 3.029978 1_565
Pr7_2 Pt3_6 3.071360 1_455
Pr7_2 Pt3_2 3.071360 1_555
Pr7_3 Pt0_5 3.029978 1_465
Pr7_3 Pt0_1 3.029978 1_565
Pr7_3 Pt3_3 3.071360 1_555
Pr7_3 Pt3_7 3.071360 1_455
Pr7_4 Pt0_2 3.029978 1_555
Pr7_4 Pt0_6 3.029978 1_555
Pr7_4 Pt3_0 3.071360 1_555
Pr7_4 Pt3_4 3.071360 1_555
Pr7_5 Pt0_3 3.029978 1_555
Pr7_5 Pt0_7 3.029978 1_555
Pr7_5 Pt3_1 3.071360 1_555
Pr7_5 Pt3_5 3.071360 1_555
Pr7_6 Pt0_0 3.029978 1_565
Pr7_6 Pt0_4 3.029978 1_565
Pr7_6 Pt3_2 3.071360 1_555
Pr7_6 Pt3_6 3.071360 1_555
Pr7_7 Pt0_1 3.029978 1_565
Pr7_7 Pt0_5 3.029978 1_565
Pr7_7 Pt3_3 3.071360 1_555
Pr7_7 Pt3_7 3.071360 1_555
Pr8_0 Pr8_4 3.821691 1_455
Pr8_0 Pr8_4 3.821691 1_555
Pr8_1 Pr8_5 3.821691 1_555
Pr8_1 Pr8_5 3.821691 1_455
Pr8_2 Pr8_6 3.821691 1_555
Pr8_2 Pr8_6 3.821691 1_455
Pr8_3 Pr8_7 3.821691 1_455
Pr8_3 Pr8_7 3.821691 1_555
Pr9_0 Pr9_4 3.821691 1_555
Pr9_0 Pr9_4 3.821691 1_455
Pr9_1 Pr9_5 3.821691 1_455
Pr9_1 Pr9_5 3.821691 1_555
Pr9_2 Pr9_6 3.821691 1_455
Pr9_2 Pr9_6 3.821691 1_555
Pr9_3 Pr9_7 3.821691 1_455
Pr9_3 Pr9_7 3.821691 1_555
In0_0 Pt3_0 2.974237 1_555
In0_0 In7_0 3.313627 1_555
In0_0 Pr9_4 3.438189 1_555
In0_0 Pr9_0 3.438189 1_555
In0_0 Pr4_4 3.453600 1_555
In0_0 Pr4_0 3.453600 1_555
In0_0 Pr0_4 3.462543 1_555
In0_0 Pr0_0 3.462543 1_555
In0_0 Pr7_0 3.481023 1_555
In0_0 Pr7_4 3.481023 1_555
In0_1 Pt3_1 2.974237 1_555
In0_1 In7_1 3.313627 1_555
In0_1 Pr9_1 3.438189 1_555
In0_1 Pr9_5 3.438189 1_555
In0_1 Pr4_5 3.453600 1_555
In0_1 Pr4_1 3.453600 1_555
In0_1 Pr0_5 3.462543 1_555
In0_1 Pr0_1 3.462543 1_555
In0_1 Pr7_1 3.481023 1_555
In0_1 Pr7_5 3.481023 1_555
In0_2 Pt3_2 2.974237 1_555
In0_2 In7_2 3.313627 1_555
In0_2 Pr9_2 3.438189 1_555
In0_2 Pr9_6 3.438189 1_555
In0_2 Pr4_2 3.453600 1_555
In0_2 Pr4_6 3.453600 1_555
In0_2 Pr0_2 3.462543 1_555
In0_2 Pr0_6 3.462543 1_555
In0_2 Pr7_2 3.481023 1_555
In0_2 Pr7_6 3.481023 1_555
In0_3 Pt3_3 2.974237 1_555
In0_3 In7_3 3.313627 1_555
In0_3 Pr9_3 3.438189 1_555
In0_3 Pr9_7 3.438189 1_555
In0_3 Pr4_7 3.453600 1_555
In0_3 Pr4_3 3.453600 1_555
In0_3 Pr0_7 3.462543 1_555
In0_3 Pr0_3 3.462543 1_555
In0_3 Pr7_7 3.481023 1_555
In0_3 Pr7_3 3.481023 1_555
In0_4 Pt3_4 2.974237 1_555
In0_4 In7_4 3.313627 1_555
In0_4 Pr9_0 3.438189 1_655
In0_4 Pr9_4 3.438189 1_555
In0_4 Pr4_0 3.453600 1_655
In0_4 Pr4_4 3.453600 1_555
In0_4 Pr0_0 3.462543 1_655
In0_4 Pr0_4 3.462543 1_555
In0_4 Pr7_0 3.481023 1_655
In0_4 Pr7_4 3.481023 1_555
In0_5 Pt3_5 2.974237 1_555
In0_5 In7_5 3.313627 1_555
In0_5 Pr9_1 3.438189 1_655
In0_5 Pr9_5 3.438189 1_555
In0_5 Pr4_1 3.453600 1_655
In0_5 Pr4_5 3.453600 1_555
In0_5 Pr0_1 3.462543 1_655
In0_5 Pr0_5 3.462543 1_555
In0_5 Pr7_1 3.481023 1_655
In0_5 Pr7_5 3.481023 1_555
In0_6 Pt3_6 2.974237 1_555
In0_6 In7_6 3.313627 1_555
In0_6 Pr9_2 3.438189 1_655
In0_6 Pr9_6 3.438189 1_555
In0_6 Pr4_2 3.453600 1_655
In0_6 Pr4_6 3.453600 1_555
In0_6 Pr0_2 3.462543 1_655
In0_6 Pr0_6 3.462543 1_555
In0_6 Pr7_2 3.481023 1_655
In0_6 Pr7_6 3.481023 1_555
In0_7 Pt3_7 2.974237 1_555
In0_7 In7_7 3.313627 1_555
In0_7 Pr9_3 3.438189 1_655
In0_7 Pr9_7 3.438189 1_555
In0_7 Pr4_3 3.453600 1_655
In0_7 Pr4_7 3.453600 1_555
In0_7 Pr0_3 3.462543 1_655
In0_7 Pr0_7 3.462543 1_555
In0_7 Pr7_3 3.481023 1_655
In0_7 Pr7_7 3.481023 1_555
In1_0 Pt2_0 2.974237 1_555
In1_0 In6_0 3.313627 1_555
In1_0 Pr9_4 3.438189 1_555
In1_0 Pr9_0 3.438189 1_555
In1_0 Pr5_0 3.453600 1_555
In1_0 Pr5_4 3.453600 1_555
In1_0 Pr1_4 3.462543 1_555
In1_0 Pr1_0 3.462543 1_555
In1_0 Pr6_0 3.481023 1_555
In1_0 Pr6_4 3.481023 1_555
In1_1 Pt2_1 2.974237 1_555
In1_1 In6_1 3.313627 1_555
In1_1 Pr9_5 3.438189 1_555
In1_1 Pr9_1 3.438189 1_555
In1_1 Pr5_1 3.453600 1_555
In1_1 Pr5_5 3.453600 1_555
In1_1 Pr1_5 3.462543 1_555
In1_1 Pr1_1 3.462543 1_555
In1_1 Pr6_5 3.481023 1_555
In1_1 Pr6_1 3.481023 1_555
In1_2 Pt2_2 2.974237 1_555
In1_2 In6_2 3.313627 1_555
In1_2 Pr9_2 3.438189 1_555
In1_2 Pr9_6 3.438189 1_555
In1_2 Pr5_2 3.453600 1_555
In1_2 Pr5_6 3.453600 1_555
In1_2 Pr1_2 3.462543 1_555
In1_2 Pr1_6 3.462543 1_555
In1_2 Pr6_2 3.481023 1_555
In1_2 Pr6_6 3.481023 1_555
In1_3 Pt2_3 2.974237 1_555
In1_3 In6_3 3.313627 1_555
In1_3 Pr9_3 3.438189 1_555
In1_3 Pr9_7 3.438189 1_555
In1_3 Pr5_3 3.453600 1_555
In1_3 Pr5_7 3.453600 1_555
In1_3 Pr1_3 3.462543 1_555
In1_3 Pr1_7 3.462543 1_555
In1_3 Pr6_3 3.481023 1_555
In1_3 Pr6_7 3.481023 1_555
In1_4 Pt2_4 2.974237 1_555
In1_4 In6_4 3.313627 1_555
In1_4 Pr9_0 3.438189 1_655
In1_4 Pr9_4 3.438189 1_555
In1_4 Pr5_0 3.453600 1_655
In1_4 Pr5_4 3.453600 1_555
In1_4 Pr1_0 3.462543 1_655
In1_4 Pr1_4 3.462543 1_555
In1_4 Pr6_0 3.481023 1_655
In1_4 Pr6_4 3.481023 1_555
In1_5 Pt2_5 2.974237 1_555
In1_5 In6_5 3.313627 1_555
In1_5 Pr9_1 3.438189 1_655
In1_5 Pr9_5 3.438189 1_555
In1_5 Pr5_1 3.453600 1_655
In1_5 Pr5_5 3.453600 1_555
In1_5 Pr1_1 3.462543 1_655
In1_5 Pr1_5 3.462543 1_555
In1_5 Pr6_1 3.481023 1_655
In1_5 Pr6_5 3.481023 1_555
In1_6 Pt2_6 2.974237 1_555
In1_6 In6_6 3.313627 1_555
In1_6 Pr9_2 3.438189 1_655
In1_6 Pr9_6 3.438189 1_555
In1_6 Pr5_2 3.453600 1_655
In1_6 Pr5_6 3.453600 1_555
In1_6 Pr1_2 3.462543 1_655
In1_6 Pr1_6 3.462543 1_555
In1_6 Pr6_2 3.481023 1_655
In1_6 Pr6_6 3.481023 1_555
In1_7 Pt2_7 2.974237 1_555
In1_7 In6_7 3.313627 1_555
In1_7 Pr9_3 3.438189 1_655
In1_7 Pr9_7 3.438189 1_555
In1_7 Pr5_3 3.453600 1_655
In1_7 Pr5_7 3.453600 1_555
In1_7 Pr1_3 3.462543 1_655
In1_7 Pr1_7 3.462543 1_555
In1_7 Pr6_3 3.481023 1_655
In1_7 Pr6_7 3.481023 1_555
In2_0 Pt1_2 2.974237 1_545
In2_0 In5_2 3.313627 1_545
In2_0 Pr8_1 3.438189 1_555
In2_0 Pr8_5 3.438189 1_555
In2_0 Pr6_0 3.453600 1_555
In2_0 Pr6_4 3.453600 1_555
In2_0 Pr2_0 3.462543 1_555
In2_0 Pr2_4 3.462543 1_555
In2_0 Pr5_6 3.481023 1_545
In2_0 Pr5_2 3.481023 1_545
In2_1 Pt1_3 2.974237 1_545
In2_1 In5_3 3.313627 1_545
In2_1 Pr8_0 3.438189 1_556
In2_1 Pr8_4 3.438189 1_556
In2_1 Pr6_5 3.453600 1_555
In2_1 Pr6_1 3.453600 1_555
In2_1 Pr2_5 3.462543 1_555
In2_1 Pr2_1 3.462543 1_555
In2_1 Pr5_7 3.481023 1_545
In2_1 Pr5_3 3.481023 1_545
In2_2 Pt1_0 2.974237 1_555
In2_2 In5_0 3.313627 1_555
In2_2 Pr8_3 3.438189 1_555
In2_2 Pr8_7 3.438189 1_555
In2_2 Pr6_2 3.453600 1_555
In2_2 Pr6_6 3.453600 1_555
In2_2 Pr2_6 3.462543 1_555
In2_2 Pr2_2 3.462543 1_555
In2_2 Pr5_0 3.481023 1_555
In2_2 Pr5_4 3.481023 1_555
In2_3 Pt1_1 2.974237 1_555
In2_3 In5_1 3.313627 1_555
In2_3 Pr8_2 3.438189 1_556
In2_3 Pr8_6 3.438189 1_556
In2_3 Pr6_3 3.453600 1_555
In2_3 Pr6_7 3.453600 1_555
In2_3 Pr2_7 3.462543 1_555
In2_3 Pr2_3 3.462543 1_555
In2_3 Pr5_1 3.481023 1_555
In2_3 Pr5_5 3.481023 1_555
In2_4 Pt1_6 2.974237 1_545
In2_4 In5_6 3.313627 1_545
In2_4 Pr8_1 3.438189 1_655
In2_4 Pr8_5 3.438189 1_555
In2_4 Pr6_0 3.453600 1_655
In2_4 Pr6_4 3.453600 1_555
In2_4 Pr2_0 3.462543 1_655
In2_4 Pr2_4 3.462543 1_555
In2_4 Pr5_2 3.481023 1_645
In2_4 Pr5_6 3.481023 1_545
In2_5 Pt1_7 2.974237 1_545
In2_5 In5_7 3.313627 1_545
In2_5 Pr8_0 3.438189 1_656
In2_5 Pr8_4 3.438189 1_556
In2_5 Pr6_1 3.453600 1_655
In2_5 Pr6_5 3.453600 1_555
In2_5 Pr2_1 3.462543 1_655
In2_5 Pr2_5 3.462543 1_555
In2_5 Pr5_3 3.481023 1_645
In2_5 Pr5_7 3.481023 1_545
In2_6 Pt1_4 2.974237 1_555
In2_6 In5_4 3.313627 1_555
In2_6 Pr8_3 3.438189 1_655
In2_6 Pr8_7 3.438189 1_555
In2_6 Pr6_2 3.453600 1_655
In2_6 Pr6_6 3.453600 1_555
In2_6 Pr2_2 3.462543 1_655
In2_6 Pr2_6 3.462543 1_555
In2_6 Pr5_0 3.481023 1_655
In2_6 Pr5_4 3.481023 1_555
In2_7 Pt1_5 2.974237 1_555
In2_7 In5_5 3.313627 1_555
In2_7 Pr8_2 3.438189 1_656
In2_7 Pr8_6 3.438189 1_556
In2_7 Pr6_3 3.453600 1_655
In2_7 Pr6_7 3.453600 1_555
In2_7 Pr2_3 3.462543 1_655
In2_7 Pr2_7 3.462543 1_555
In2_7 Pr5_1 3.481023 1_655
In2_7 Pr5_5 3.481023 1_555
In3_0 Pt0_2 2.974237 1_555
In3_0 In4_2 3.313627 1_555
In3_0 Pr8_2 3.438189 1_555
In3_0 Pr8_6 3.438189 1_555
In3_0 Pr7_4 3.453600 1_555
In3_0 Pr7_0 3.453600 1_555
In3_0 Pr3_4 3.462543 1_555
In3_0 Pr3_0 3.462543 1_555
In3_0 Pr4_6 3.481023 1_555
In3_0 Pr4_2 3.481023 1_555
In3_1 Pt0_3 2.974237 1_555
In3_1 In4_3 3.313627 1_555
In3_1 Pr8_3 3.438189 1_555
In3_1 Pr8_7 3.438189 1_555
In3_1 Pr7_1 3.453600 1_555
In3_1 Pr7_5 3.453600 1_555
In3_1 Pr3_1 3.462543 1_555
In3_1 Pr3_5 3.462543 1_555
In3_1 Pr4_3 3.481023 1_555
In3_1 Pr4_7 3.481023 1_555
In3_2 Pt0_0 2.974237 1_565
In3_2 In4_0 3.313627 1_565
In3_2 Pr8_0 3.438189 1_565
In3_2 Pr8_4 3.438189 1_565
In3_2 Pr7_2 3.453600 1_555
In3_2 Pr7_6 3.453600 1_555
In3_2 Pr3_2 3.462543 1_555
In3_2 Pr3_6 3.462543 1_555
In3_2 Pr4_0 3.481023 1_565
In3_2 Pr4_4 3.481023 1_565
In3_3 Pt0_1 2.974237 1_565
In3_3 In4_1 3.313627 1_565
In3_3 Pr8_5 3.438189 1_565
In3_3 Pr8_1 3.438189 1_565
In3_3 Pr7_3 3.453600 1_555
In3_3 Pr7_7 3.453600 1_555
In3_3 Pr3_3 3.462543 1_555
In3_3 Pr3_7 3.462543 1_555
In3_3 Pr4_1 3.481023 1_565
In3_3 Pr4_5 3.481023 1_565
In3_4 Pt0_6 2.974237 1_555
In3_4 In4_6 3.313627 1_555
In3_4 Pr8_2 3.438189 1_655
In3_4 Pr8_6 3.438189 1_555
In3_4 Pr7_0 3.453600 1_655
In3_4 Pr7_4 3.453600 1_555
In3_4 Pr3_0 3.462543 1_655
In3_4 Pr3_4 3.462543 1_555
In3_4 Pr4_2 3.481023 1_655
In3_4 Pr4_6 3.481023 1_555
In3_5 Pt0_7 2.974237 1_555
In3_5 In4_7 3.313627 1_555
In3_5 Pr8_3 3.438189 1_655
In3_5 Pr8_7 3.438189 1_555
In3_5 Pr7_1 3.453600 1_655
In3_5 Pr7_5 3.453600 1_555
In3_5 Pr3_1 3.462543 1_655
In3_5 Pr3_5 3.462543 1_555
In3_5 Pr4_3 3.481023 1_655
In3_5 Pr4_7 3.481023 1_555
In3_6 Pt0_4 2.974237 1_565
In3_6 In4_4 3.313627 1_565
In3_6 Pr8_0 3.438189 1_665
In3_6 Pr8_4 3.438189 1_565
In3_6 Pr7_2 3.453600 1_655
In3_6 Pr7_6 3.453600 1_555
In3_6 Pr3_2 3.462543 1_655
In3_6 Pr3_6 3.462543 1_555
In3_6 Pr4_0 3.481023 1_665
In3_6 Pr4_4 3.481023 1_565
In3_7 Pt0_5 2.974237 1_565
In3_7 In4_5 3.313627 1_565
In3_7 Pr8_1 3.438189 1_665
In3_7 Pr8_5 3.438189 1_565
In3_7 Pr7_3 3.453600 1_655
In3_7 Pr7_7 3.453600 1_555
In3_7 Pr3_3 3.462543 1_655
In3_7 Pr3_7 3.462543 1_555
In3_7 Pr4_1 3.481023 1_665
In3_7 Pr4_5 3.481023 1_565
In4_0 Pt3_0 3.018426 1_555
In4_0 Pr3_0 3.343582 1_555
In4_0 Pr3_4 3.343582 1_555
In4_0 Pr8_0 3.347391 1_555
In4_0 Pr8_4 3.347391 1_555
In4_0 Pr4_4 3.440068 1_555
In4_0 Pr4_0 3.440068 1_555
In4_0 Pr2_1 3.566860 1_554
In4_0 Pr2_5 3.566860 1_554
In4_1 Pt3_1 3.018426 1_555
In4_1 Pr3_1 3.343582 1_555
In4_1 Pr3_5 3.343582 1_555
In4_1 Pr8_1 3.347391 1_555
In4_1 Pr8_5 3.347391 1_555
In4_1 Pr4_5 3.440068 1_555
In4_1 Pr4_1 3.440068 1_555
In4_1 Pr2_0 3.566860 1_555
In4_1 Pr2_4 3.566860 1_555
In4_2 Pt3_2 3.018426 1_555
In4_2 Pr3_2 3.343582 1_555
In4_2 Pr3_6 3.343582 1_555
In4_2 Pr8_2 3.347391 1_555
In4_2 Pr8_6 3.347391 1_555
In4_2 Pr4_2 3.440068 1_555
In4_2 Pr4_6 3.440068 1_555
In4_2 Pr2_7 3.566860 1_554
In4_2 Pr2_3 3.566860 1_554
In4_3 Pt3_3 3.018426 1_555
In4_3 Pr3_7 3.343582 1_555
In4_3 Pr3_3 3.343582 1_555
In4_3 Pr8_3 3.347391 1_555
In4_3 Pr8_7 3.347391 1_555
In4_3 Pr4_3 3.440068 1_555
In4_3 Pr4_7 3.440068 1_555
In4_3 Pr2_2 3.566860 1_555
In4_3 Pr2_6 3.566860 1_555
In4_4 Pt3_4 3.018426 1_555
In4_4 Pr3_0 3.343582 1_655
In4_4 Pr3_4 3.343582 1_555
In4_4 Pr8_0 3.347391 1_655
In4_4 Pr8_4 3.347391 1_555
In4_4 Pr4_0 3.440068 1_655
In4_4 Pr4_4 3.440068 1_555
In4_4 Pr2_1 3.566860 1_654
In4_4 Pr2_5 3.566860 1_554
In4_5 Pt3_5 3.018426 1_555
In4_5 Pr3_1 3.343582 1_655
In4_5 Pr3_5 3.343582 1_555
In4_5 Pr8_1 3.347391 1_655
In4_5 Pr8_5 3.347391 1_555
In4_5 Pr4_1 3.440068 1_655
In4_5 Pr4_5 3.440068 1_555
In4_5 Pr2_0 3.566860 1_655
In4_5 Pr2_4 3.566860 1_555
In4_6 Pt3_6 3.018426 1_555
In4_6 Pr3_2 3.343582 1_655
In4_6 Pr3_6 3.343582 1_555
In4_6 Pr8_2 3.347391 1_655
In4_6 Pr8_6 3.347391 1_555
In4_6 Pr4_2 3.440068 1_655
In4_6 Pr4_6 3.440068 1_555
In4_6 Pr2_3 3.566860 1_654
In4_6 Pr2_7 3.566860 1_554
In4_7 Pt3_7 3.018426 1_555
In4_7 Pr3_3 3.343582 1_655
In4_7 Pr3_7 3.343582 1_555
In4_7 Pr8_3 3.347391 1_655
In4_7 Pr8_7 3.347391 1_555
In4_7 Pr4_3 3.440068 1_655
In4_7 Pr4_7 3.440068 1_555
In4_7 Pr2_2 3.566860 1_655
In4_7 Pr2_6 3.566860 1_555
In5_0 Pt2_0 3.018426 1_555
In5_0 Pr2_4 3.343582 1_555
In5_0 Pr2_0 3.343582 1_555
In5_0 Pr8_3 3.347391 1_555
In5_0 Pr8_7 3.347391 1_555
In5_0 Pr5_4 3.440068 1_555
In5_0 Pr5_0 3.440068 1_555
In5_0 Pr3_1 3.566860 1_555
In5_0 Pr3_5 3.566860 1_555
In5_1 Pt2_1 3.018426 1_555
In5_1 Pr2_5 3.343582 1_555
In5_1 Pr2_1 3.343582 1_555
In5_1 Pr8_2 3.347391 1_556
In5_1 Pr8_6 3.347391 1_556
In5_1 Pr5_5 3.440068 1_555
In5_1 Pr5_1 3.440068 1_555
In5_1 Pr3_0 3.566860 1_556
In5_1 Pr3_4 3.566860 1_556
In5_2 Pt2_2 3.018426 1_555
In5_2 Pr2_6 3.343582 1_555
In5_2 Pr2_2 3.343582 1_555
In5_2 Pr8_1 3.347391 1_565
In5_2 Pr8_5 3.347391 1_565
In5_2 Pr5_2 3.440068 1_555
In5_2 Pr5_6 3.440068 1_555
In5_2 Pr3_7 3.566860 1_555
In5_2 Pr3_3 3.566860 1_555
In5_3 Pt2_3 3.018426 1_555
In5_3 Pr2_7 3.343582 1_555
In5_3 Pr2_3 3.343582 1_555
In5_3 Pr8_4 3.347391 1_566
In5_3 Pr8_0 3.347391 1_566
In5_3 Pr5_3 3.440068 1_555
In5_3 Pr5_7 3.440068 1_555
In5_3 Pr3_2 3.566860 1_556
In5_3 Pr3_6 3.566860 1_556
In5_4 Pt2_4 3.018426 1_555
In5_4 Pr2_0 3.343582 1_655
In5_4 Pr2_4 3.343582 1_555
In5_4 Pr8_3 3.347391 1_655
In5_4 Pr8_7 3.347391 1_555
In5_4 Pr5_0 3.440068 1_655
In5_4 Pr5_4 3.440068 1_555
In5_4 Pr3_1 3.566860 1_655
In5_4 Pr3_5 3.566860 1_555
In5_5 Pt2_5 3.018426 1_555
In5_5 Pr2_1 3.343582 1_655
In5_5 Pr2_5 3.343582 1_555
In5_5 Pr8_2 3.347391 1_656
In5_5 Pr8_6 3.347391 1_556
In5_5 Pr5_1 3.440068 1_655
In5_5 Pr5_5 3.440068 1_555
In5_5 Pr3_0 3.566860 1_656
In5_5 Pr3_4 3.566860 1_556
In5_6 Pt2_6 3.018426 1_555
In5_6 Pr2_2 3.343582 1_655
In5_6 Pr2_6 3.343582 1_555
In5_6 Pr8_1 3.347391 1_665
In5_6 Pr8_5 3.347391 1_565
In5_6 Pr5_2 3.440068 1_655
In5_6 Pr5_6 3.440068 1_555
In5_6 Pr3_3 3.566860 1_655
In5_6 Pr3_7 3.566860 1_555
In5_7 Pt2_7 3.018426 1_555
In5_7 Pr2_3 3.343582 1_655
In5_7 Pr2_7 3.343582 1_555
In5_7 Pr8_0 3.347391 1_666
In5_7 Pr8_4 3.347391 1_566
In5_7 Pr5_3 3.440068 1_655
In5_7 Pr5_7 3.440068 1_555
In5_7 Pr3_2 3.566860 1_656
In5_7 Pr3_6 3.566860 1_556
In6_0 Pt1_2 3.018426 1_545
In6_0 Pr1_6 3.343582 1_545
In6_0 Pr1_2 3.343582 1_545
In6_0 Pr9_0 3.347391 1_555
In6_0 Pr9_4 3.347391 1_555
In6_0 Pr6_4 3.440068 1_555
In6_0 Pr6_0 3.440068 1_555
In6_0 Pr0_4 3.566860 1_555
In6_0 Pr0_0 3.566860 1_555
In6_1 Pt1_3 3.018426 1_545
In6_1 Pr1_3 3.343582 1_545
In6_1 Pr1_7 3.343582 1_545
In6_1 Pr9_1 3.347391 1_555
In6_1 Pr9_5 3.347391 1_555
In6_1 Pr6_1 3.440068 1_555
In6_1 Pr6_5 3.440068 1_555
In6_1 Pr0_1 3.566860 1_555
In6_1 Pr0_5 3.566860 1_555
In6_2 Pt1_0 3.018426 1_555
In6_2 Pr1_4 3.343582 1_555
In6_2 Pr1_0 3.343582 1_555
In6_2 Pr9_6 3.347391 1_555
In6_2 Pr9_2 3.347391 1_555
In6_2 Pr6_2 3.440068 1_555
In6_2 Pr6_6 3.440068 1_555
In6_2 Pr0_2 3.566860 1_555
In6_2 Pr0_6 3.566860 1_555
In6_3 Pt1_1 3.018426 1_555
In6_3 Pr1_5 3.343582 1_555
In6_3 Pr1_1 3.343582 1_555
In6_3 Pr9_7 3.347391 1_555
In6_3 Pr9_3 3.347391 1_555
In6_3 Pr6_7 3.440068 1_555
In6_3 Pr6_3 3.440068 1_555
In6_3 Pr0_7 3.566860 1_555
In6_3 Pr0_3 3.566860 1_555
In6_4 Pt1_6 3.018426 1_545
In6_4 Pr1_2 3.343582 1_645
In6_4 Pr1_6 3.343582 1_545
In6_4 Pr9_0 3.347391 1_655
In6_4 Pr9_4 3.347391 1_555
In6_4 Pr6_0 3.440068 1_655
In6_4 Pr6_4 3.440068 1_555
In6_4 Pr0_0 3.566860 1_655
In6_4 Pr0_4 3.566860 1_555
In6_5 Pt1_7 3.018426 1_545
In6_5 Pr1_3 3.343582 1_645
In6_5 Pr1_7 3.343582 1_545
In6_5 Pr9_1 3.347391 1_655
In6_5 Pr9_5 3.347391 1_555
In6_5 Pr6_1 3.440068 1_655
In6_5 Pr6_5 3.440068 1_555
In6_5 Pr0_1 3.566860 1_655
In6_5 Pr0_5 3.566860 1_555
In6_6 Pt1_4 3.018426 1_555
In6_6 Pr1_0 3.343582 1_655
In6_6 Pr1_4 3.343582 1_555
In6_6 Pr9_2 3.347391 1_655
In6_6 Pr9_6 3.347391 1_555
In6_6 Pr6_2 3.440068 1_655
In6_6 Pr6_6 3.440068 1_555
In6_6 Pr0_2 3.566860 1_655
In6_6 Pr0_6 3.566860 1_555
In6_7 Pt1_5 3.018426 1_555
In6_7 Pr1_1 3.343582 1_655
In6_7 Pr1_5 3.343582 1_555
In6_7 Pr9_3 3.347391 1_655
In6_7 Pr9_7 3.347391 1_555
In6_7 Pr6_3 3.440068 1_655
In6_7 Pr6_7 3.440068 1_555
In6_7 Pr0_3 3.566860 1_655
In6_7 Pr0_7 3.566860 1_555
In7_0 Pt0_2 3.018426 1_555
In7_0 Pr0_2 3.343582 1_555
In7_0 Pr0_6 3.343582 1_555
In7_0 Pr9_0 3.347391 1_555
In7_0 Pr9_4 3.347391 1_555
In7_0 Pr7_0 3.440068 1_555
In7_0 Pr7_4 3.440068 1_555
In7_0 Pr1_4 3.566860 1_555
In7_0 Pr1_0 3.566860 1_555
In7_1 Pt0_3 3.018426 1_555
In7_1 Pr0_3 3.343582 1_555
In7_1 Pr0_7 3.343582 1_555
In7_1 Pr9_1 3.347391 1_555
In7_1 Pr9_5 3.347391 1_555
In7_1 Pr7_1 3.440068 1_555
In7_1 Pr7_5 3.440068 1_555
In7_1 Pr1_5 3.566860 1_555
In7_1 Pr1_1 3.566860 1_555
In7_2 Pt0_0 3.018426 1_565
In7_2 Pr0_0 3.343582 1_565
In7_2 Pr0_4 3.343582 1_565
In7_2 Pr9_2 3.347391 1_555
In7_2 Pr9_6 3.347391 1_555
In7_2 Pr7_2 3.440068 1_555
In7_2 Pr7_6 3.440068 1_555
In7_2 Pr1_2 3.566860 1_555
In7_2 Pr1_6 3.566860 1_555
In7_3 Pt0_1 3.018426 1_565
In7_3 Pr0_5 3.343582 1_565
In7_3 Pr0_1 3.343582 1_565
In7_3 Pr9_3 3.347391 1_555
In7_3 Pr9_7 3.347391 1_555
In7_3 Pr7_3 3.440068 1_555
In7_3 Pr7_7 3.440068 1_555
In7_3 Pr1_3 3.566860 1_555
In7_3 Pr1_7 3.566860 1_555
In7_4 Pt0_6 3.018426 1_555
In7_4 Pr0_2 3.343582 1_655
In7_4 Pr0_6 3.343582 1_555
In7_4 Pr9_0 3.347391 1_655
In7_4 Pr9_4 3.347391 1_555
In7_4 Pr7_0 3.440068 1_655
In7_4 Pr7_4 3.440068 1_555
In7_4 Pr1_0 3.566860 1_655
In7_4 Pr1_4 3.566860 1_555
In7_5 Pt0_7 3.018426 1_555
In7_5 Pr0_3 3.343582 1_655
In7_5 Pr0_7 3.343582 1_555
In7_5 Pr9_1 3.347391 1_655
In7_5 Pr9_5 3.347391 1_555
In7_5 Pr7_1 3.440068 1_655
In7_5 Pr7_5 3.440068 1_555
In7_5 Pr1_1 3.566860 1_655
In7_5 Pr1_5 3.566860 1_555
In7_6 Pt0_4 3.018426 1_565
In7_6 Pr0_0 3.343582 1_665
In7_6 Pr0_4 3.343582 1_565
In7_6 Pr9_2 3.347391 1_655
In7_6 Pr9_6 3.347391 1_555
In7_6 Pr7_2 3.440068 1_655
In7_6 Pr7_6 3.440068 1_555
In7_6 Pr1_2 3.566860 1_655
In7_6 Pr1_6 3.566860 1_555
In7_7 Pt0_5 3.018426 1_565
In7_7 Pr0_1 3.343582 1_665
In7_7 Pr0_5 3.343582 1_565
In7_7 Pr9_3 3.347391 1_655
In7_7 Pr9_7 3.347391 1_555
In7_7 Pr7_3 3.440068 1_655
In7_7 Pr7_7 3.440068 1_555
In7_7 Pr1_3 3.566860 1_655
In7_7 Pr1_7 3.566860 1_555
