# generated using pymatgen
data_NdMnFeBiO6
_symmetry_space_group_name_H-M   'P 1'
_cell_length_a   3.97033567
_cell_length_b   7.44556200
_cell_length_c   9.28294109
_cell_angle_alpha   90.00000000
_cell_angle_beta   95.23984526
_cell_angle_gamma   90.00000000
_symmetry_Int_Tables_number   1
_chemical_formula_structural   NdMnFeBiO6
_chemical_formula_sum   'Nd2 Mn2 Fe2 Bi2 O12'
_cell_volume   273.26980150
_cell_formula_units_Z   2
loop_
 _symmetry_equiv_pos_site_id
 _symmetry_equiv_pos_as_xyz
  1  'x, y, z'
loop_
 _atom_site_type_symbol
 _atom_site_label
 _atom_site_symmetry_multiplicity
 _atom_site_fract_x
 _atom_site_fract_y
 _atom_site_fract_z
 _atom_site_occupancy
  Nd  Nd0  1  0.25606400  0.81120200  0.77265400  1
  Nd  Nd1  1  0.24393600  0.31120200  0.72734600  1
  Mn  Mn0  1  0.80854800  0.54290300  0.99280500  1
  Mn  Mn1  1  0.69145200  0.04290300  0.50719500  1
  Fe  Fe0  1  0.71813600  0.56172400  0.54429900  1
  Fe  Fe1  1  0.78186400  0.06172400  0.95570100  1
  Bi  Bi0  1  0.02903800  0.28216500  0.27895500  1
  Bi  Bi1  1  0.47096200  0.78216500  0.22104500  1
  O  O0  1  0.85910400  0.56963100  0.23521400  1
  O  O1  1  0.64089600  0.06963100  0.26478600  1
  O  O2  1  0.75354500  0.48366900  0.75569100  1
  O  O3  1  0.74645500  0.98366900  0.74430900  1
  O  O4  1  0.77908600  0.81247500  0.01043300  1
  O  O5  1  0.72091400  0.31247500  0.48956700  1
  O  O6  1  0.20623300  0.06047800  0.54973800  1
  O  O7  1  0.29376700  0.56047800  0.95026200  1
  O  O8  1  0.27869500  0.08297900  0.91583100  1
  O  O9  1  0.22130500  0.58297900  0.58416900  1
  O  O10  1  0.67370300  0.79277400  0.45371500  1
  O  O11  1  0.82629700  0.29277400  0.04628500  1
loop_
_geom_bond_atom_site_label_1
_geom_bond_atom_site_label_2
_geom_bond_distance
_geom_bond_site_symmetry_2
Nd0 O3 2.366988 1_555
Nd0 O3 2.390557 1_455
Nd0 O8 2.418152 1_565
Nd0 O9 2.433890 1_555
Nd0 O7 2.486060 1_555
Nd0 O6 2.773296 1_565
Nd1 O2 2.366988 1_455
Nd1 O2 2.390557 1_555
Nd1 O9 2.418152 1_555
Nd1 O8 2.433890 1_555
Nd1 O6 2.486060 1_555
Nd1 O7 2.773296 1_555
Mn0 O11 1.927016 1_556
Mn0 O7 2.005838 1_655
Mn0 O4 2.018036 1_556
Mn0 O7 2.050121 1_555
Mn0 O2 2.235914 1_555
Mn0 O0 2.249689 1_556
Mn1 O10 1.927016 1_545
Mn1 O6 2.005838 1_555
Mn1 O5 2.018036 1_555
Mn1 O6 2.050121 1_655
Mn1 O3 2.235914 1_545
Mn1 O1 2.249689 1_555
Fe0 O10 1.915865 1_555
Fe0 O5 1.924389 1_555
Fe0 O9 2.004490 1_655
Fe0 O2 2.039094 1_555
Fe0 O9 2.046087 1_555
Fe1 O11 1.915865 1_556
Fe1 O4 1.924389 1_546
Fe1 O8 2.004490 1_555
Fe1 O3 2.039094 1_545
Fe1 O8 2.046087 1_655
Bi0 O1 2.204365 1_455
Bi0 O11 2.236434 1_455
Bi0 O0 2.269610 1_455
Bi0 O5 2.409730 1_455
Bi1 O0 2.204365 1_555
Bi1 O10 2.236434 1_555
Bi1 O1 2.269610 1_565
Bi1 O4 2.409730 1_555
