# generated using pymatgen
data_Ca(H8O5)2
_symmetry_space_group_name_H-M   'P 1'
_cell_length_a   6.15433000
_cell_length_b   6.23708179
_cell_length_c   12.04696750
_cell_angle_alpha   80.98256817
_cell_angle_beta   88.00672009
_cell_angle_gamma   88.96084253
_symmetry_Int_Tables_number   1
_chemical_formula_structural   Ca(H8O5)2
_chemical_formula_sum   'Ca2 H32 O20'
_cell_volume   456.39429683
_cell_formula_units_Z   2
loop_
 _symmetry_equiv_pos_site_id
 _symmetry_equiv_pos_as_xyz
  1  'x, y, z'
loop_
 _atom_site_type_symbol
 _atom_site_label
 _atom_site_symmetry_multiplicity
 _atom_site_fract_x
 _atom_site_fract_y
 _atom_site_fract_z
 _atom_site_occupancy
  Ca  Ca0  1  0.01199900  0.02396900  0.54401900  1
  Ca  Ca1  1  0.98422000  0.02230400  0.00565900  1
  H  H0  1  0.70156900  0.63918000  0.36936800  1
  H  H1  1  0.94285200  0.74787100  0.35267400  1
  H  H2  1  0.08004300  0.34307700  0.34697300  1
  H  H3  1  0.30711300  0.36640400  0.41022200  1
  H  H4  1  0.25509400  0.94797100  0.35003300  1
  H  H5  1  0.31844300  0.70392700  0.40996800  1
  H  H6  1  0.72651200  0.10155000  0.33601500  1
  H  H7  1  0.64124500  0.27392300  0.41359100  1
  H  H8  1  0.04479300  0.72216500  0.85360100  1
  H  H9  1  0.29630600  0.66152900  0.89221400  1
  H  H10  1  0.70336400  0.41113600  0.90631000  1
  H  H11  1  0.87617800  0.37061100  0.80884800  1
  H  H12  1  0.72244300  0.95311200  0.79500000  1
  H  H13  1  0.64793400  0.74627400  0.88756300  1
  H  H14  1  0.37767100  0.08997100  0.85573400  1
  H  H15  1  0.36013000  0.32542000  0.89261200  1
  H  H16  1  0.18414500  0.27626800  0.72466100  1
  H  H17  1  0.28316400  0.38790200  0.60734900  1
  H  H18  1  0.72689300  0.61397000  0.58505800  1
  H  H19  1  0.97100100  0.54780500  0.61807500  1
  H  H20  1  0.62162600  0.26260200  0.62359400  1
  H  H21  1  0.55869900  0.01601300  0.64012800  1
  H  H22  1  0.28735400  0.81056000  0.71776100  1
  H  H23  1  0.39220100  0.71984500  0.60648600  1
  H  H24  1  0.70245700  0.34202400  0.10948500  1
  H  H25  1  0.94266900  0.39057000  0.13073200  1
  H  H26  1  0.09124600  0.67170600  0.18829800  1
  H  H27  1  0.25811300  0.59369700  0.09382200  1
  H  H28  1  0.35485400  0.24801500  0.09718300  1
  H  H29  1  0.42550000  0.00176800  0.11329300  1
  H  H30  1  0.71181700  0.80540700  0.18792400  1
  H  H31  1  0.60032300  0.70914200  0.08851700  1
  O  O0  1  0.49273900  0.50949400  0.43843400  1
  O  O1  1  0.48527900  0.51915800  0.93607200  1
  O  O2  1  0.50044900  0.49853300  0.56328100  1
  O  O3  1  0.47841200  0.49228200  0.06163800  1
  O  O4  1  0.81278200  0.71203700  0.31299700  1
  O  O5  1  0.18841700  0.26165500  0.39404500  1
  O  O6  1  0.19545300  0.81779900  0.39639600  1
  O  O7  1  0.72959600  0.13775000  0.41185900  1
  O  O8  1  0.19259500  0.77838900  0.85156800  1
  O  O9  1  0.85047000  0.34136700  0.89002300  1
  O  O10  1  0.75383700  0.86848800  0.86898600  1
  O  O11  1  0.27668000  0.21048300  0.85979500  1
  O  O12  1  0.14248000  0.31559700  0.64421000  1
  O  O13  1  0.87020200  0.67482900  0.60431200  1
  O  O14  1  0.68071600  0.11249900  0.65338400  1
  O  O15  1  0.33392800  0.85393600  0.63632300  1
  O  O16  1  0.84249100  0.26701000  0.13490700  1
  O  O17  1  0.10297400  0.65267000  0.10926900  1
  O  O18  1  0.29317000  0.09744100  0.11253700  1
  O  O19  1  0.65992500  0.84808100  0.10954100  1
loop_
_geom_bond_atom_site_label_1
_geom_bond_atom_site_label_2
_geom_bond_distance
_geom_bond_site_symmetry_2
Ca0 O13 2.357997 1_445
Ca0 O5 2.392305 1_555
Ca0 O7 2.419238 1_455
Ca0 O15 2.448255 1_545
Ca0 O14 2.489558 1_455
Ca0 O12 2.493735 1_555
Ca0 O6 2.572066 1_545
Ca1 O9 2.393683 1_554
Ca1 O18 2.425785 1_655
Ca1 O16 2.473223 1_555
Ca1 O19 2.491761 1_545
Ca1 O10 2.519627 1_544
Ca1 O17 2.550971 1_645
Ca1 O11 2.629654 1_654
H0 O4 1.009129 1_555
H0 O0 1.658510 1_555
H1 O4 0.992879 1_555
H2 O5 0.973689 1_555
H3 O5 1.032262 1_555
H3 O0 1.541480 1_555
H4 O6 0.979926 1_555
H5 O6 1.028006 1_555
H5 O0 1.608386 1_555
H6 O7 0.975806 1_555
H7 O7 1.002723 1_555
H7 O0 1.775883 1_555
H8 O8 0.978934 1_555
H9 O8 1.035082 1_555
H9 O1 1.509457 1_555
H10 O9 1.023530 1_555
H10 O1 1.547043 1_555
H11 O9 0.974158 1_555
H12 O10 0.985470 1_555
H13 O10 1.005144 1_555
H14 O11 0.972692 1_555
H15 O11 1.024834 1_555
H15 O1 1.608601 1_555
H16 O12 1.002863 1_555
H17 O12 1.036748 1_555
H17 O2 1.554166 1_555
H18 O13 1.014757 1_555
H18 O2 1.628005 1_555
H19 O13 0.994058 1_555
H20 O14 1.014362 1_555
H20 O2 1.706517 1_555
H21 O14 1.003202 1_555
H22 O15 1.008919 1_555
H23 O15 1.015709 1_555
H23 O2 1.669671 1_555
H24 O16 1.007095 1_555
H24 O3 1.717801 1_555
H25 O16 0.989682 1_555
H26 O17 0.977787 1_555
H27 O17 1.038209 1_555
H27 O3 1.548484 1_555
H28 O18 1.006931 1_555
H28 O3 1.702221 1_555
H29 O18 1.000297 1_555
H30 O19 1.001800 1_555
H31 O19 1.018058 1_555
H31 O3 1.639583 1_555
O0 O2 1.497211 1_555
O1 O3 1.494804 1_556
