# generated using pymatgen
data_Li6V3Fe(PO4)6
_symmetry_space_group_name_H-M   'P 1'
_cell_length_a   8.63366379
_cell_length_b   8.63495520
_cell_length_c   8.65037426
_cell_angle_alpha   61.62833421
_cell_angle_beta   61.32144840
_cell_angle_gamma   61.40279310
_symmetry_Int_Tables_number   1
_chemical_formula_structural   Li6V3Fe(PO4)6
_chemical_formula_sum   'Li6 V3 Fe1 P6 O24'
_cell_volume   470.86032912
_cell_formula_units_Z   1
loop_
 _symmetry_equiv_pos_site_id
 _symmetry_equiv_pos_as_xyz
  1  'x, y, z'
loop_
 _atom_site_type_symbol
 _atom_site_label
 _atom_site_symmetry_multiplicity
 _atom_site_fract_x
 _atom_site_fract_y
 _atom_site_fract_z
 _atom_site_occupancy
  Li  Li0  1  0.02534100  0.00614400  0.99695000  1
  Li  Li1  1  0.75023600  0.15296400  0.34777200  1
  Li  Li2  1  0.47413200  0.50234500  0.49057900  1
  Li  Li3  1  0.24315700  0.84698100  0.65728000  1
  Li  Li4  1  0.66025300  0.24011700  0.84629900  1
  Li  Li5  1  0.84462800  0.66215500  0.24141500  1
  V  V0  1  0.14412600  0.14512700  0.13798500  1
  V  V1  1  0.35618300  0.36234500  0.35518100  1
  V  V2  1  0.64451100  0.64606500  0.64594900  1
  Fe  Fe0  1  0.85179900  0.85024500  0.85243000  1
  P  P0  1  0.04713900  0.75097500  0.45067700  1
  P  P1  1  0.45280500  0.05100900  0.74798200  1
  P  P2  1  0.75002900  0.45306300  0.04703500  1
  P  P3  1  0.24886800  0.54478600  0.95781100  1
  P  P4  1  0.54546200  0.96135300  0.24902200  1
  P  P5  1  0.95610200  0.24782400  0.54073000  1
  O  O0  1  0.12599400  0.28880100  0.50238300  1
  O  O1  1  0.29917200  0.51309800  0.11918100  1
  O  O2  1  0.04582000  0.92126600  0.26997000  1
  O  O3  1  0.52814100  0.12071200  0.29781900  1
  O  O4  1  0.23794000  0.59399400  0.42946800  1
  O  O5  1  0.01395500  0.80560100  0.61387100  1
  O  O6  1  0.26258700  0.07041500  0.90573700  1
  O  O7  1  0.45470600  0.23248800  0.57906000  1
  O  O8  1  0.59422000  0.43276600  0.24082800  1
  O  O9  1  0.19982200  0.38290000  0.98759800  1
  O  O10  1  0.08681200  0.73696000  0.93442300  1
  O  O11  1  0.37504900  0.00017100  0.20874300  1
  O  O12  1  0.61253100  0.01317900  0.80978000  1
  O  O13  1  0.90528800  0.25940600  0.07098500  1
  O  O14  1  0.80929600  0.61214900  0.01409500  1
  O  O15  1  0.40850400  0.57217900  0.76438700  1
  O  O16  1  0.57144400  0.76838700  0.40640400  1
  O  O17  1  0.73395800  0.93699300  0.08373300  1
  O  O18  1  0.97255900  0.20223300  0.38005600  1
  O  O19  1  0.76550600  0.41006100  0.57066500  1
  O  O20  1  0.48803700  0.88944500  0.68964600  1
  O  O21  1  0.93355900  0.08631900  0.73107600  1
  O  O22  1  0.69253600  0.48525000  0.88919300  1
  O  O23  1  0.88779200  0.69073300  0.48679700  1
loop_
_geom_bond_atom_site_label_1
_geom_bond_atom_site_label_2
_geom_bond_distance
_geom_bond_site_symmetry_2
Li0 O6 2.060821 1_555
Li0 O2 2.185829 1_546
Li0 O13 2.188848 1_456
Li0 O10 2.390693 1_545
Li0 O21 2.471354 1_455
Li0 O17 2.539342 1_446
Li1 O13 2.092756 1_555
Li1 O8 2.112808 1_555
Li1 O18 2.313539 1_555
Li1 O3 2.315577 1_555
Li1 O2 2.389946 1_645
Li1 O7 2.390285 1_555
Li2 O4 2.038690 1_555
Li2 O8 2.142624 1_555
Li2 O7 2.144691 1_555
Li2 O15 2.457009 1_555
Li2 O16 2.486810 1_555
Li2 O19 2.583082 1_555
Li3 O10 2.104560 1_555
Li3 O15 2.112875 1_555
Li3 O5 2.387911 1_555
Li3 O20 2.467904 1_555
Li3 O21 2.480170 1_465
Li3 O16 2.618832 1_555
Li4 O21 2.079858 1_555
Li4 O19 2.129782 1_555
Li4 O12 2.365532 1_555
Li4 O17 2.454637 1_546
Li4 O22 2.471094 1_555
Li5 O16 2.093687 1_555
Li5 O17 2.099835 1_555
Li5 O14 2.378028 1_555
Li5 O23 2.459771 1_555
Li5 O10 2.484902 1_654
Li5 O19 2.642155 1_555
Fe0 O14 1.953067 1_556
Fe0 O5 1.957970 1_655
Fe0 O12 1.959295 1_565
Fe0 O17 2.083425 1_556
Fe0 O21 2.094816 1_565
Fe0 O10 2.097310 1_655
O0 P5 1.518224 1_455
O0 V1 1.996289 1_555
O1 P3 1.522227 1_554
O1 V1 1.982405 1_555
O2 P0 1.556417 1_555
O2 V0 2.074499 1_565
O3 P4 1.545486 1_545
O3 V1 2.028617 1_555
O4 P0 1.547062 1_555
O4 V1 2.023212 1_555
O5 P0 1.553296 1_555
O6 P1 1.546052 1_555
O6 V0 2.031367 1_556
O7 P1 1.554526 1_555
O7 V1 2.082223 1_555
O8 P2 1.559684 1_555
O8 V1 2.060416 1_555
O9 P3 1.522950 1_555
O9 V0 1.986288 1_556
O10 P3 1.575495 1_555
O11 P4 1.519004 1_545
O11 V0 1.992597 1_555
O12 P1 1.550655 1_555
O13 P2 1.558054 1_555
O13 V0 2.053606 1_655
O14 P2 1.546294 1_555
O15 P3 1.574066 1_555
O15 V2 2.056250 1_555
O16 P4 1.568301 1_555
O16 V2 2.084250 1_555
O17 P4 1.569037 1_555
O18 P5 1.543986 1_555
O18 V0 2.031550 1_655
O19 P5 1.570471 1_555
O19 V2 2.058820 1_555
O20 P1 1.552088 1_565
O20 V2 1.982807 1_555
O21 P5 1.569666 1_555
O22 P2 1.531568 1_556
O22 V2 2.009217 1_555
O23 P0 1.542385 1_655
O23 V2 1.987794 1_555
