# generated using pymatgen
data_Ba4Sr2Dy2Co4O15
_symmetry_space_group_name_H-M   'P 1'
_cell_length_a   11.70096102
_cell_length_b   11.70096102
_cell_length_c   6.86148989
_cell_angle_alpha   89.57869919
_cell_angle_beta   89.57869919
_cell_angle_gamma   119.86109020
_symmetry_Int_Tables_number   1
_chemical_formula_structural   Ba4Sr2Dy2Co4O15
_chemical_formula_sum   'Ba8 Sr4 Dy4 Co8 O30'
_cell_volume   814.61341321
_cell_formula_units_Z   2
loop_
 _symmetry_equiv_pos_site_id
 _symmetry_equiv_pos_as_xyz
  1  'x, y, z'
loop_
 _atom_site_type_symbol
 _atom_site_label
 _atom_site_symmetry_multiplicity
 _atom_site_fract_x
 _atom_site_fract_y
 _atom_site_fract_z
 _atom_site_occupancy
  Ba  Ba0  1  0.82630500  0.65496700  0.32277700  1
  Ba  Ba1  1  0.34614700  0.17391000  0.33090800  1
  Ba  Ba2  1  0.82305300  0.17172600  0.32470100  1
  Ba  Ba3  1  0.17391000  0.34614700  0.83090800  1
  Ba  Ba4  1  0.65496700  0.82630500  0.82277700  1
  Ba  Ba5  1  0.17172600  0.82305300  0.82470100  1
  Ba  Ba6  1  0.66476700  0.33456500  0.00286500  1
  Ba  Ba7  1  0.33456500  0.66476700  0.50286500  1
  Sr  Sr0  1  0.00109800  0.00082900  0.51266300  1
  Sr  Sr1  1  0.00082900  0.00109800  0.01266300  1
  Sr  Sr2  1  0.52440700  0.04960000  0.66285100  1
  Sr  Sr3  1  0.04960000  0.52440700  0.16285100  1
  Dy  Dy0  1  0.95331100  0.47619000  0.66573000  1
  Dy  Dy1  1  0.52149200  0.47602700  0.65542600  1
  Dy  Dy2  1  0.47619000  0.95331100  0.16573000  1
  Dy  Dy3  1  0.47602700  0.52149200  0.15542600  1
  Co  Co0  1  0.82153400  0.64843300  0.82832600  1
  Co  Co1  1  0.35240600  0.17355000  0.84225700  1
  Co  Co2  1  0.82100200  0.17344100  0.83524700  1
  Co  Co3  1  0.17355000  0.35240600  0.34225700  1
  Co  Co4  1  0.64843300  0.82153400  0.32832600  1
  Co  Co5  1  0.17344100  0.82100200  0.33524700  1
  Co  Co6  1  0.66543300  0.33459400  0.46273500  1
  Co  Co7  1  0.33459400  0.66543300  0.96273500  1
  O  O0  1  0.09552000  0.18565200  0.25108000  1
  O  O1  1  0.82160000  0.90650800  0.25750100  1
  O  O2  1  0.08664000  0.90525500  0.25276900  1
  O  O3  1  0.90650800  0.82160000  0.75750100  1
  O  O4  1  0.18565200  0.09552000  0.75108000  1
  O  O5  1  0.90525500  0.08664000  0.75276900  1
  O  O6  1  0.58168800  0.16688700  0.31873800  1
  O  O7  1  0.83039500  0.41710200  0.34193100  1
  O  O8  1  0.57880600  0.41968500  0.32440900  1
  O  O9  1  0.41710200  0.83039500  0.84193100  1
  O  O10  1  0.16688700  0.58168800  0.81873800  1
  O  O11  1  0.41968500  0.57880600  0.82440900  1
  O  O12  1  0.74506500  0.50538300  0.65385700  1
  O  O13  1  0.49883700  0.26173500  0.66020200  1
  O  O14  1  0.75900100  0.25683500  0.66047100  1
  O  O15  1  0.26173500  0.49883700  0.16020200  1
  O  O16  1  0.50538300  0.74506500  0.15385700  1
  O  O17  1  0.25683500  0.75900100  0.16047100  1
  O  O18  1  0.33869300  0.40005800  0.46470600  1
  O  O19  1  0.59852100  0.93261400  0.44248900  1
  O  O20  1  0.05927200  0.66696400  0.48043800  1
  O  O21  1  0.60176700  0.66046500  0.45952900  1
  O  O22  1  0.06497400  0.39510700  0.47978900  1
  O  O23  1  0.33284000  0.93669600  0.45047900  1
  O  O24  1  0.66046500  0.60176700  0.95952900  1
  O  O25  1  0.39510700  0.06497400  0.97978900  1
  O  O26  1  0.93669600  0.33284000  0.95047900  1
  O  O27  1  0.40005800  0.33869300  0.96470600  1
  O  O28  1  0.93261400  0.59852100  0.94248900  1
  O  O29  1  0.66696400  0.05927200  0.98043800  1
loop_
_geom_bond_atom_site_label_1
_geom_bond_atom_site_label_2
_geom_bond_distance
_geom_bond_site_symmetry_2
Ba0 O12 2.716742 1_555
Ba0 O7 2.809518 1_555
Ba0 O21 2.814301 1_555
Ba0 O8 2.832989 1_555
Ba0 O20 2.878413 1_655
Ba0 O1 3.001469 1_555
Ba0 O2 3.026696 1_655
Ba0 O24 3.042407 1_554
Ba0 O28 3.096442 1_554
Ba1 O13 2.760141 1_555
Ba1 O6 2.798538 1_555
Ba1 O8 2.807787 1_555
Ba1 O23 2.817048 1_545
Ba1 O18 2.849018 1_555
Ba1 O25 2.917053 1_554
Ba1 O27 3.020507 1_554
Ba1 O0 3.056573 1_555
Ba1 O2 3.151666 1_545
Ba1 O4 3.293317 1_555
Ba2 O14 2.759146 1_555
Ba2 O6 2.797051 1_555
Ba2 O19 2.828304 1_545
Ba2 O7 2.832719 1_555
Ba2 O29 2.891872 1_554
Ba2 O22 2.948655 1_655
Ba2 O26 3.049205 1_554
Ba2 O1 3.132414 1_545
Ba2 O0 3.147009 1_655
Ba2 O5 3.390502 1_555
Ba3 O15 2.760141 1_556
Ba3 O10 2.798538 1_555
Ba3 O11 2.807787 1_555
Ba3 O26 2.817048 1_455
Ba3 O27 2.849018 1_555
Ba3 O22 2.917053 1_555
Ba3 O18 3.020507 1_555
Ba3 O4 3.056573 1_555
Ba3 O5 3.151666 1_455
Ba3 O0 3.293317 1_556
Ba4 O16 2.716742 1_556
Ba4 O9 2.809518 1_555
Ba4 O24 2.814301 1_555
Ba4 O11 2.832989 1_555
Ba4 O29 2.878413 1_565
Ba4 O3 3.001469 1_555
Ba4 O5 3.026696 1_565
Ba4 O21 3.042407 1_555
Ba4 O19 3.096442 1_555
Ba5 O17 2.759146 1_556
Ba5 O10 2.797051 1_555
Ba5 O28 2.828304 1_455
Ba5 O9 2.832719 1_555
Ba5 O20 2.891872 1_555
Ba5 O25 2.948655 1_565
Ba5 O23 3.049205 1_555
Ba5 O3 3.132414 1_455
Ba5 O4 3.147009 1_565
Ba5 O2 3.390502 1_556
Ba6 O6 2.738446 1_555
Ba6 O8 2.805096 1_555
Ba6 O7 2.887338 1_555
Ba6 O13 2.910814 1_554
Ba6 O14 2.924781 1_554
Ba6 O12 2.939193 1_554
Ba6 O27 3.134514 1_554
Ba6 O28 3.139450 1_554
Ba6 O24 3.163755 1_554
Ba6 O25 3.167782 1_554
Ba6 O26 3.209501 1_554
Ba6 O29 3.238844 1_554
Ba7 O10 2.738446 1_555
Ba7 O11 2.805096 1_555
Ba7 O9 2.887338 1_555
Ba7 O15 2.910814 1_555
Ba7 O17 2.924781 1_555
Ba7 O16 2.939193 1_555
Ba7 O18 3.134514 1_555
Ba7 O19 3.139450 1_555
Ba7 O21 3.163755 1_555
Ba7 O22 3.167782 1_555
Ba7 O23 3.209501 1_555
Ba7 O20 3.238844 1_555
Dy0 O20 2.305557 1_655
Dy0 O22 2.337234 1_655
Dy0 O10 2.420116 1_655
Dy0 O14 2.439237 1_555
Dy0 O28 2.468208 1_555
Dy0 O26 2.508004 1_555
Dy0 O7 2.561653 1_555
Dy0 O12 2.625275 1_555
Dy1 O18 2.289672 1_555
Dy1 O21 2.294908 1_555
Dy1 O11 2.374129 1_555
Dy1 O13 2.386480 1_555
Dy1 O12 2.463002 1_555
Dy1 O8 2.546155 1_555
Dy1 O27 2.595459 1_555
Dy1 O24 2.622107 1_555
Dy2 O29 2.305557 1_564
Dy2 O25 2.337234 1_564
Dy2 O6 2.420116 1_565
Dy2 O17 2.439237 1_555
Dy2 O19 2.468208 1_555
Dy2 O23 2.508004 1_555
Dy2 O9 2.561653 1_554
Dy2 O16 2.625275 1_555
Dy3 O27 2.289672 1_554
Dy3 O24 2.294908 1_554
Dy3 O8 2.374129 1_555
Dy3 O15 2.386480 1_555
Dy3 O16 2.463002 1_555
Dy3 O11 2.546155 1_554
Dy3 O18 2.595459 1_555
Dy3 O21 2.622107 1_555
Co0 O3 1.817298 1_555
Co0 O28 1.846115 1_555
Co0 O12 1.894521 1_555
Co0 O24 1.898316 1_555
Co1 O4 1.812312 1_555
Co1 O25 1.837279 1_555
Co1 O27 1.925766 1_555
Co1 O13 1.936456 1_555
Co2 O5 1.822367 1_555
Co2 O26 1.859994 1_555
Co2 O29 1.892625 1_555
Co2 O14 1.901876 1_555
Co3 O0 1.812312 1_555
Co3 O22 1.837279 1_555
Co3 O18 1.925766 1_555
Co3 O15 1.936456 1_555
Co4 O1 1.817298 1_555
Co4 O19 1.846115 1_555
Co4 O16 1.894521 1_555
Co4 O21 1.898316 1_555
Co5 O2 1.822367 1_555
Co5 O23 1.859994 1_555
Co5 O20 1.892625 1_555
Co5 O17 1.901876 1_555
Co6 O7 1.858466 1_555
Co6 O6 1.978663 1_555
Co6 O8 1.981107 1_555
Co6 O13 2.156804 1_555
Co6 O12 2.187188 1_555
Co6 O14 2.205211 1_555
Co7 O9 1.858466 1_555
Co7 O10 1.978663 1_555
Co7 O11 1.981107 1_555
Co7 O15 2.156804 1_556
Co7 O16 2.187188 1_556
Co7 O17 2.205211 1_556
O0 Sr1 2.502611 1_555
O0 Sr0 2.579435 1_555
O1 Sr1 2.460643 1_665
O1 Sr0 2.543385 1_665
O2 Sr1 2.469509 1_565
O2 Sr0 2.559334 1_565
O3 Sr0 2.460643 1_665
O3 Sr1 2.543385 1_666
O4 Sr0 2.502611 1_555
O4 Sr1 2.579435 1_556
O5 Sr0 2.469509 1_655
O5 Sr1 2.559334 1_656
O6 Sr2 2.630717 1_555
O7 Sr3 2.527673 1_655
O9 Sr2 2.527673 1_565
O10 Sr3 2.630717 1_556
O13 Sr2 2.643867 1_555
O14 Sr2 2.604923 1_555
O15 Sr3 2.643867 1_555
O17 Sr3 2.604923 1_555
O19 Sr2 2.470872 1_565
O20 Sr3 2.722659 1_555
O22 Sr3 2.697943 1_555
O23 Sr2 2.453695 1_565
O25 Sr2 2.697943 1_555
O26 Sr3 2.453695 1_656
O28 Sr3 2.470872 1_656
O29 Sr2 2.722659 1_555
