# generated using pymatgen
data_MgCo5(P2O7)4
_symmetry_space_group_name_H-M   'P 1'
_cell_length_a   7.59210924
_cell_length_b   7.80443610
_cell_length_c   10.31527983
_cell_angle_alpha   108.33257123
_cell_angle_beta   86.58811990
_cell_angle_gamma   92.18157620
_symmetry_Int_Tables_number   1
_chemical_formula_structural   MgCo5(P2O7)4
_chemical_formula_sum   'Mg1 Co5 P8 O28'
_cell_volume   579.03275398
_cell_formula_units_Z   1
loop_
 _symmetry_equiv_pos_site_id
 _symmetry_equiv_pos_as_xyz
  1  'x, y, z'
loop_
 _atom_site_type_symbol
 _atom_site_label
 _atom_site_symmetry_multiplicity
 _atom_site_fract_x
 _atom_site_fract_y
 _atom_site_fract_z
 _atom_site_occupancy
  Mg  Mg0  1  0.01849730  0.59409751  0.45137332  1
  Co  Co0  1  0.30068036  0.89298261  0.62174823  1
  Co  Co1  1  0.24056200  0.84730984  0.06970663  1
  Co  Co2  1  0.50149550  0.50081973  0.00467974  1
  Co  Co3  1  0.77077558  0.15764350  0.92868463  1
  Co  Co4  1  0.71293064  0.11139146  0.39388758  1
  P  P0  1  0.15707622  0.20489651  0.01389888  1
  P  P1  1  0.10941953  0.18620424  0.29273944  1
  P  P2  1  0.32844061  0.57802206  0.74888999  1
  P  P3  1  0.44008594  0.74770338  0.31633682  1
  P  P4  1  0.54912857  0.25171198  0.69429335  1
  P  P5  1  0.69091587  0.43601717  0.25577268  1
  P  P6  1  0.87801878  0.79945072  0.69948103  1
  P  P7  1  0.84584909  0.79378736  0.98297108  1
  O  O0  1  0.00542826  0.78217760  0.06877318  1
  O  O1  1  0.94831835  0.08604352  0.33757065  1
  O  O2  1  0.16127268  0.48937152  0.69479124  1
  O  O3  1  0.04872362  0.22550632  0.15620485  1
  O  O4  1  0.28983423  0.35523147  0.02864195  1
  O  O5  1  0.15031800  0.36712165  0.39407097  1
  O  O6  1  0.39287314  0.73734536  0.69299554  1
  O  O7  1  0.28049594  0.77220442  0.42088887  1
  O  O8  1  0.34822969  0.64720777  0.90684302  1
  O  O9  1  0.38513438  0.12511790  0.66142156  1
  O  O10  1  0.23899516  0.01515155  0.96415162  1
  O  O11  1  0.38590817  0.71746834  0.16908940  1
  O  O12  1  0.26061682  0.05246129  0.24412221  1
  O  O13  1  0.49463991  0.44403197  0.69181161  1
  O  O14  1  0.52129948  0.56267325  0.31557398  1
  O  O15  1  0.75757819  0.96175780  0.75247708  1
  O  O16  1  0.60713452  0.28081322  0.84075117  1
  O  O17  1  0.76665012  0.98431765  0.02816759  1
  O  O18  1  0.58005999  0.89721513  0.36257342  1
  O  O19  1  0.66884796  0.36170310  0.09945059  1
  O  O20  1  0.69925047  0.19178881  0.58606375  1
  O  O21  1  0.65154031  0.28583952  0.32150157  1
  O  O22  1  0.80780156  0.63272530  0.59530775  1
  O  O23  1  0.71254653  0.64891313  0.98452157  1
  O  O24  1  0.93844206  0.75725692  0.83308879  1
  O  O25  1  0.85664156  0.54616372  0.29840017  1
  O  O26  1  0.05328009  0.84232336  0.62418380  1
  O  O27  1  0.00676182  0.21969733  0.92084872  1
loop_
_geom_bond_atom_site_label_1
_geom_bond_atom_site_label_2
_geom_bond_distance
_geom_bond_site_symmetry_2
Mg0 O5 1.973523 1_555
Mg0 O25 1.991075 1_455
Mg0 O22 2.080035 1_455
Mg0 O26 2.201148 1_555
Mg0 O7 2.444927 1_555
Co0 O6 1.786887 1_555
Co0 O9 1.826799 1_565
Co0 O26 1.904997 1_555
Co0 O7 2.000768 1_555
Co1 O0 1.837162 1_555
Co1 O10 1.949743 1_564
Co1 O12 2.006381 1_565
Co1 O11 2.041755 1_555
Co1 O8 2.052487 1_554
Co2 O23 1.979153 1_554
Co2 O4 1.981115 1_555
Co2 O16 2.137234 1_554
Co2 O11 2.153398 1_555
Co2 O8 2.155006 1_554
Co2 O19 2.160867 1_555
Co3 O27 1.841834 1_655
Co3 O17 1.936508 1_546
Co3 O15 1.978126 1_545
Co3 O16 2.015902 1_555
Co3 O19 2.098774 1_556
Co4 O21 1.832374 1_555
Co4 O1 1.844275 1_555
Co4 O18 1.867274 1_545
Co4 O20 1.879416 1_555
O0 P7 1.563917 1_454
O1 P1 1.551826 1_655
O2 P2 1.474932 1_555
O3 P0 1.604744 1_555
O3 P1 1.627809 1_555
O4 P0 1.493844 1_555
O5 P1 1.503147 1_555
O6 P2 1.577640 1_555
O7 P3 1.549226 1_555
O8 P2 1.561528 1_555
O9 P4 1.545039 1_555
O10 P0 1.548276 1_556
O11 P3 1.540594 1_555
O12 P1 1.533654 1_555
O13 P4 1.580298 1_555
O13 P2 1.630046 1_555
O14 P3 1.589212 1_555
O14 P5 1.623172 1_555
O15 P6 1.527289 1_555
O16 P4 1.543901 1_555
O17 P7 1.545516 1_554
O18 P3 1.527804 1_555
O19 P5 1.549538 1_555
O20 P4 1.524729 1_555
O21 P5 1.540087 1_555
O22 P6 1.505927 1_555
O23 P7 1.491718 1_555
O24 P7 1.604501 1_555
O24 P6 1.609524 1_555
O25 P5 1.503704 1_555
O26 P6 1.578707 1_455
O27 P0 1.564333 1_556
