# generated using pymatgen
data_Ag3Sb
_symmetry_space_group_name_H-M   'P 1'
_cell_length_a   4.86574281
_cell_length_b   5.31598564
_cell_length_c   6.02640496
_cell_angle_alpha   90.00000000
_cell_angle_beta   90.00000000
_cell_angle_gamma   90.00000000
_symmetry_Int_Tables_number   1
_chemical_formula_structural   Ag3Sb
_chemical_formula_sum   'Ag6 Sb2'
_cell_volume   155.88030991
_cell_formula_units_Z   2
loop_
 _symmetry_equiv_pos_site_id
 _symmetry_equiv_pos_as_xyz
  1  'x, y, z'
loop_
 _atom_site_type_symbol
 _atom_site_label
 _atom_site_symmetry_multiplicity
 _atom_site_fract_x
 _atom_site_fract_y
 _atom_site_fract_z
 _atom_site_occupancy
  Ag  Ag0  1  0.75000000  0.67368136  0.25000000  1
  Ag  Ag1  1  0.25000000  0.32631864  0.75000000  1
  Ag  Ag2  1  0.25000000  0.84618555  0.50200195  1
  Ag  Ag3  1  0.75000000  0.15381445  0.49799805  1
  Ag  Ag4  1  0.25000000  0.84618555  0.99799805  1
  Ag  Ag5  1  0.75000000  0.15381445  0.00200195  1
  Sb  Sb0  1  0.25000000  0.32982160  0.25000000  1
  Sb  Sb1  1  0.75000000  0.67017840  0.75000000  1
loop_
_geom_bond_atom_site_label_1
_geom_bond_atom_site_label_2
_geom_bond_distance
_geom_bond_site_symmetry_2
Ag0 Ag5 2.957750 1_565
Ag0 Ag3 2.957750 1_565
Ag0 Ag4 3.011005 1_554
Ag0 Ag2 3.011005 1_555
Ag0 Ag2 3.011005 1_655
Ag0 Ag4 3.011005 1_654
Ag0 Sb1 3.013260 1_554
Ag0 Sb1 3.013260 1_555
Ag0 Sb0 3.043070 1_655
Ag0 Sb0 3.043070 1_555
Ag0 Ag5 3.141839 1_555
Ag0 Ag3 3.141839 1_555
Ag1 Ag4 2.957750 1_545
Ag1 Ag2 2.957750 1_545
Ag1 Ag5 3.011005 1_456
Ag1 Ag5 3.011005 1_556
Ag1 Ag3 3.011005 1_555
Ag1 Ag3 3.011005 1_455
Ag1 Sb0 3.013260 1_555
Ag1 Sb0 3.013260 1_556
Ag1 Sb1 3.043070 1_555
Ag1 Sb1 3.043070 1_455
Ag1 Ag2 3.141839 1_555
Ag1 Ag4 3.141839 1_555
Ag2 Ag3 2.931521 1_565
Ag2 Ag3 2.931521 1_465
Ag2 Sb0 2.986034 1_565
Ag2 Ag4 2.989073 1_555
Ag2 Sb1 3.004654 1_455
Ag2 Sb1 3.004654 1_555
Ag2 Ag4 3.037332 1_554
Ag2 Sb0 3.137081 1_555
Ag3 Sb1 2.986034 1_545
Ag3 Ag5 2.989073 1_555
Ag3 Sb0 3.004654 1_555
Ag3 Sb0 3.004654 1_655
Ag3 Ag5 3.037332 1_556
Ag3 Sb1 3.137081 1_555
Ag4 Ag5 2.931521 1_566
Ag4 Ag5 2.931521 1_466
Ag4 Sb0 2.986034 1_566
Ag4 Sb1 3.004654 1_455
Ag4 Sb1 3.004654 1_555
Ag4 Sb0 3.137081 1_556
Ag5 Sb1 2.986034 1_544
Ag5 Sb0 3.004654 1_555
Ag5 Sb0 3.004654 1_655
Ag5 Sb1 3.137081 1_554
