# generated using pymatgen
data_In(CoSb3)16
_symmetry_space_group_name_H-M   'P 1'
_cell_length_a   7.94406539
_cell_length_b   7.94406539
_cell_length_c   25.91609969
_cell_angle_alpha   89.97866387
_cell_angle_beta   89.97866387
_cell_angle_gamma   70.49102483
_symmetry_Int_Tables_number   1
_chemical_formula_structural   In(CoSb3)16
_chemical_formula_sum   'In1 Co16 Sb48'
_cell_volume   1541.62119511
_cell_formula_units_Z   1
loop_
 _symmetry_equiv_pos_site_id
 _symmetry_equiv_pos_as_xyz
  1  'x, y, z'
loop_
 _atom_site_type_symbol
 _atom_site_label
 _atom_site_symmetry_multiplicity
 _atom_site_fract_x
 _atom_site_fract_y
 _atom_site_fract_z
 _atom_site_occupancy
  In  In0  1  0.00000000  0.00000000  0.00000000  1
  Co  Co0  1  0.25017600  0.74969100  0.87506700  1
  Co  Co1  1  0.74999500  0.25009100  0.62509500  1
  Co  Co2  1  0.25000500  0.74990900  0.37490500  1
  Co  Co3  1  0.74982400  0.25030900  0.12493300  1
  Co  Co4  1  0.49991100  0.99990400  0.75015300  1
  Co  Co5  1  0.00000000  0.50000000  0.50000000  1
  Co  Co6  1  0.50008900  0.00009600  0.24984700  1
  Co  Co7  1  0.00000000  0.50000000  0.00000000  1
  Co  Co8  1  0.99990400  0.49991100  0.75015300  1
  Co  Co9  1  0.50000000  0.00000000  0.50000000  1
  Co  Co10  1  0.00009600  0.50008900  0.24984700  1
  Co  Co11  1  0.50000000  0.00000000  0.00000000  1
  Co  Co12  1  0.74969100  0.25017600  0.87506700  1
  Co  Co13  1  0.25009100  0.74999500  0.62509500  1
  Co  Co14  1  0.74990900  0.25000500  0.37490500  1
  Co  Co15  1  0.25030900  0.74982400  0.12493300  1
  Sb  Sb0  1  0.50635100  0.82522600  0.83285400  1
  Sb  Sb1  1  0.00694600  0.32617700  0.58335100  1
  Sb  Sb2  1  0.50701100  0.82643400  0.33348300  1
  Sb  Sb3  1  0.00717200  0.32878200  0.08417300  1
  Sb  Sb4  1  0.99282800  0.67121800  0.91582700  1
  Sb  Sb5  1  0.49298900  0.17356600  0.66651700  1
  Sb  Sb6  1  0.99305400  0.67382300  0.41664900  1
  Sb  Sb7  1  0.49364900  0.17477400  0.16714600  1
  Sb  Sb8  1  0.82522600  0.50635100  0.83285400  1
  Sb  Sb9  1  0.32617700  0.00694600  0.58335100  1
  Sb  Sb10  1  0.82643400  0.50701100  0.33348300  1
  Sb  Sb11  1  0.32878200  0.00717200  0.08417300  1
  Sb  Sb12  1  0.67121800  0.99282800  0.91582700  1
  Sb  Sb13  1  0.17356600  0.49298900  0.66651700  1
  Sb  Sb14  1  0.67382300  0.99305400  0.41664900  1
  Sb  Sb15  1  0.17477400  0.49364900  0.16714600  1
  Sb  Sb16  1  0.41537200  0.74554800  0.95972700  1
  Sb  Sb17  1  0.91330500  0.24670800  0.71000000  1
  Sb  Sb18  1  0.41328800  0.74648200  0.46009400  1
  Sb  Sb19  1  0.91345600  0.24636000  0.21030300  1
  Sb  Sb20  1  0.08654400  0.75364000  0.78969700  1
  Sb  Sb21  1  0.58671200  0.25351800  0.53990600  1
  Sb  Sb22  1  0.08669500  0.75329200  0.29000000  1
  Sb  Sb23  1  0.58462800  0.25445200  0.04027300  1
  Sb  Sb24  1  0.75364000  0.08654400  0.78969700  1
  Sb  Sb25  1  0.25351800  0.58671200  0.53990600  1
  Sb  Sb26  1  0.75329200  0.08669500  0.29000000  1
  Sb  Sb27  1  0.25445200  0.58462800  0.04027300  1
  Sb  Sb28  1  0.74554800  0.41537200  0.95972700  1
  Sb  Sb29  1  0.24670800  0.91330500  0.71000000  1
  Sb  Sb30  1  0.74648200  0.41328800  0.46009400  1
  Sb  Sb31  1  0.24636000  0.91345600  0.21030300  1
  Sb  Sb32  1  0.25465800  0.25465800  0.79283300  1
  Sb  Sb33  1  0.75371700  0.75371700  0.54341900  1
  Sb  Sb34  1  0.25357900  0.25357900  0.29356300  1
  Sb  Sb35  1  0.75149500  0.75149500  0.04402100  1
  Sb  Sb36  1  0.24850500  0.24850500  0.95597900  1
  Sb  Sb37  1  0.74642100  0.74642100  0.70643700  1
  Sb  Sb38  1  0.24628300  0.24628300  0.45658100  1
  Sb  Sb39  1  0.74534200  0.74534200  0.20716700  1
  Sb  Sb40  1  0.41372100  0.41372100  0.87265800  1
  Sb  Sb41  1  0.91307700  0.91307700  0.62322400  1
  Sb  Sb42  1  0.41319200  0.41319200  0.37331400  1
  Sb  Sb43  1  0.91254400  0.91254400  0.12444700  1
  Sb  Sb44  1  0.08745600  0.08745600  0.87555300  1
  Sb  Sb45  1  0.58680800  0.58680800  0.62668600  1
  Sb  Sb46  1  0.08692300  0.08692300  0.37677600  1
  Sb  Sb47  1  0.58627900  0.58627900  0.12734200  1
loop_
_geom_bond_atom_site_label_1
_geom_bond_atom_site_label_2
_geom_bond_distance
_geom_bond_site_symmetry_2
In0 Sb16 3.407002 1_544
In0 Sb28 3.407002 1_454
In0 Sb23 3.407002 1_455
In0 Sb27 3.407002 1_545
In0 Sb43 3.418511 1_445
In0 Sb44 3.418511 1_554
In0 Sb3 3.418696 1_555
In0 Sb11 3.418696 1_555
In0 Sb4 3.418696 1_444
In0 Sb12 3.418696 1_444
In0 Sb36 3.419889 1_554
In0 Sb35 3.419889 1_445
Co0 Sb40 2.549371 1_555
Co0 Sb16 2.551552 1_555
Co0 Sb0 2.551839 1_555
Co0 Sb4 2.555999 1_455
Co0 Sb44 2.560118 1_565
Co0 Sb20 2.561358 1_555
Co1 Sb17 2.550375 1_555
Co1 Sb5 2.552892 1_555
Co1 Sb45 2.553690 1_555
Co1 Sb1 2.554269 1_655
Co1 Sb41 2.555759 1_545
Co1 Sb21 2.556565 1_555
Co2 Sb22 2.550375 1_555
Co2 Sb2 2.552892 1_555
Co2 Sb42 2.553690 1_555
Co2 Sb6 2.554269 1_455
Co2 Sb46 2.555759 1_565
Co2 Sb18 2.556565 1_555
Co3 Sb47 2.549371 1_555
Co3 Sb23 2.551552 1_555
Co3 Sb7 2.551839 1_555
Co3 Sb3 2.555999 1_655
Co3 Sb43 2.560118 1_545
Co3 Sb19 2.561358 1_555
Co4 Sb0 2.544078 1_555
Co4 Sb32 2.545894 1_565
Co4 Sb24 2.552539 1_565
Co4 Sb29 2.555083 1_555
Co4 Sb37 2.557270 1_555
Co4 Sb5 2.559610 1_565
Co5 Sb33 2.553954 1_455
Co5 Sb38 2.553954 1_555
Co5 Sb1 2.554011 1_555
Co5 Sb6 2.554011 1_455
Co5 Sb25 2.555156 1_555
Co5 Sb30 2.555156 1_455
Co6 Sb7 2.544078 1_555
Co6 Sb39 2.545894 1_545
Co6 Sb31 2.552539 1_545
Co6 Sb26 2.555083 1_555
Co6 Sb34 2.557270 1_555
Co6 Sb2 2.559610 1_545
Co7 Sb27 2.556769 1_555
Co7 Sb28 2.556769 1_454
Co7 Sb35 2.560480 1_455
Co7 Sb36 2.560480 1_554
Co7 Sb4 2.560876 1_454
Co7 Sb3 2.560876 1_555
Co8 Sb8 2.544078 1_555
Co8 Sb32 2.545894 1_655
Co8 Sb20 2.552539 1_655
Co8 Sb17 2.555083 1_555
Co8 Sb37 2.557270 1_555
Co8 Sb13 2.559610 1_655
Co9 Sb33 2.553954 1_545
Co9 Sb38 2.553954 1_555
Co9 Sb9 2.554011 1_555
Co9 Sb14 2.554011 1_545
Co9 Sb21 2.555156 1_555
Co9 Sb18 2.555156 1_545
Co10 Sb15 2.544078 1_555
Co10 Sb39 2.545894 1_455
Co10 Sb19 2.552539 1_455
Co10 Sb22 2.555083 1_555
Co10 Sb34 2.557270 1_555
Co10 Sb10 2.559610 1_455
Co11 Sb23 2.556769 1_555
Co11 Sb16 2.556769 1_544
Co11 Sb35 2.560480 1_545
Co11 Sb36 2.560480 1_554
Co11 Sb12 2.560876 1_544
Co11 Sb11 2.560876 1_555
Co12 Sb40 2.549371 1_555
Co12 Sb28 2.551552 1_555
Co12 Sb8 2.551839 1_555
Co12 Sb12 2.555999 1_545
Co12 Sb44 2.560118 1_655
Co12 Sb24 2.561358 1_555
Co13 Sb29 2.550375 1_555
Co13 Sb13 2.552892 1_555
Co13 Sb45 2.553690 1_555
Co13 Sb9 2.554269 1_565
Co13 Sb41 2.555759 1_455
Co13 Sb25 2.556565 1_555
Co14 Sb26 2.550375 1_555
Co14 Sb10 2.552892 1_555
Co14 Sb42 2.553690 1_555
Co14 Sb14 2.554269 1_545
Co14 Sb46 2.555759 1_655
Co14 Sb30 2.556565 1_555
Co15 Sb47 2.549371 1_555
Co15 Sb27 2.551552 1_555
Co15 Sb15 2.551839 1_555
Co15 Sb11 2.555999 1_565
Co15 Sb43 2.560118 1_455
Co15 Sb31 2.561358 1_555
