# generated using pymatgen
data_DyAlB14
_symmetry_space_group_name_H-M   'P 1'
_cell_length_a   7.29319257
_cell_length_b   7.29319257
_cell_length_c   7.29319257
_cell_angle_alpha   132.17512435
_cell_angle_beta   111.07404724
_cell_angle_gamma   88.22508958
_symmetry_Int_Tables_number   1
_chemical_formula_structural   DyAlB14
_chemical_formula_sum   'Dy2 Al2 B28'
_cell_volume   255.54102213
_cell_formula_units_Z   2
loop_
 _symmetry_equiv_pos_site_id
 _symmetry_equiv_pos_as_xyz
  1  'x, y, z'
loop_
 _atom_site_type_symbol
 _atom_site_label
 _atom_site_symmetry_multiplicity
 _atom_site_fract_x
 _atom_site_fract_y
 _atom_site_fract_z
 _atom_site_occupancy
  Dy  Dy0  1  0.59845600  0.25000000  0.34845600  1
  Dy  Dy1  1  0.40154400  0.75000000  0.65154400  1
  Al  Al0  1  0.00000000  0.00000000  0.50000000  1
  Al  Al1  1  0.00000000  0.50000000  0.00000000  1
  B  B0  1  0.63373900  0.66743300  0.96630700  1
  B  B1  1  0.36626100  0.33256700  0.03369300  1
  B  B2  1  0.20112600  0.16743300  0.03369300  1
  B  B3  1  0.79887400  0.83256700  0.96630700  1
  B  B4  1  0.76986700  0.14374000  0.62612700  1
  B  B5  1  0.23013300  0.85626000  0.37387300  1
  B  B6  1  0.01761300  0.64374000  0.37387300  1
  B  B7  1  0.98238700  0.35626000  0.62612700  1
  B  B8  1  0.92339100  0.09015400  0.83323700  1
  B  B9  1  0.07660900  0.90984600  0.16676300  1
  B  B10  1  0.75691700  0.59015400  0.16676300  1
  B  B11  1  0.24308300  0.40984600  0.83323700  1
  B  B12  1  0.39841800  0.39829700  0.67562200  1
  B  B13  1  0.60158200  0.27720400  0.99987900  1
  B  B14  1  0.22267500  0.89829700  0.99987900  1
  B  B15  1  0.77732500  0.77720400  0.67562200  1
  B  B16  1  0.60158200  0.60170300  0.32437800  1
  B  B17  1  0.39841800  0.72279600  0.00012100  1
  B  B18  1  0.77732500  0.10170300  0.00012100  1
  B  B19  1  0.22267500  0.22279600  0.32437800  1
  B  B20  1  0.03152100  0.83193800  0.70394700  1
  B  B21  1  0.96847900  0.67242700  0.80041700  1
  B  B22  1  0.62799000  0.33193800  0.80041700  1
  B  B23  1  0.37201000  0.17242700  0.70394700  1
  B  B24  1  0.96847900  0.16806200  0.29605300  1
  B  B25  1  0.03152100  0.32757300  0.19958300  1
  B  B26  1  0.37201000  0.66806200  0.19958300  1
  B  B27  1  0.62799000  0.82757300  0.29605300  1
loop_
_geom_bond_atom_site_label_1
_geom_bond_atom_site_label_2
_geom_bond_distance
_geom_bond_site_symmetry_2
Al0 B5 2.113907 1_545
Al0 B6 2.113907 1_545
Al0 B7 2.113907 1_455
Al0 B4 2.113907 1_455
Al0 B9 2.336483 1_545
Al0 B11 2.336483 1_555
Al0 B8 2.336483 1_455
Al0 B10 2.336483 1_445
Al0 B24 2.439754 1_455
Al0 B20 2.439754 1_545
Al0 B27 2.439762 1_445
Al0 B23 2.439762 1_555
Al1 B6 2.113907 1_555
Al1 B5 2.113907 1_555
Al1 B7 2.113907 1_454
Al1 B4 2.113907 1_454
Al1 B9 2.336483 1_555
Al1 B11 2.336483 1_554
Al1 B10 2.336483 1_455
Al1 B8 2.336483 1_454
Al1 B25 2.439761 1_555
Al1 B22 2.439761 1_454
Al1 B26 2.439761 1_555
Al1 B21 2.439761 1_454
B0 B3 1.729395 1_555
B0 B17 1.815785 1_556
B0 B12 1.815788 1_555
B0 B10 1.841904 1_556
B0 B22 1.856677 1_555
B0 B27 1.856679 1_556
B0 Dy1 2.738184 1_555
B1 B2 1.729395 1_555
B1 B13 1.815785 1_554
B1 B16 1.815788 1_555
B1 B11 1.841904 1_554
B1 B26 1.856677 1_555
B1 B23 1.856679 1_554
B1 Dy0 2.738184 1_555
B2 B8 1.841903 1_454
B2 B25 1.856676 1_555
B2 B20 1.856677 1_544
B2 Dy0 2.738186 1_555
B3 B9 1.841903 1_656
B3 Dy1 2.738186 1_555
B4 B8 1.799252 1_555
B4 B7 2.225646 1_555
B4 Dy0 2.547789 1_555
B5 B9 1.799252 1_555
B5 B6 2.225646 1_555
B5 Dy1 2.547789 1_555
B6 Dy1 2.547789 1_555
B7 Dy0 2.547789 1_555
B10 B22 1.765175 1_554
B10 B27 1.765175 1_555
B10 B6 1.799252 1_655
B10 B13 1.847301 1_554
B10 B16 1.847301 1_555
B11 B26 1.765175 1_556
B11 B23 1.765175 1_555
B11 B7 1.799252 1_455
B11 B12 1.847301 1_555
B11 B17 1.847301 1_556
B12 B19 1.783511 1_555
B12 B23 1.816214 1_555
B12 B22 1.819703 1_555
B12 B17 1.918583 1_556
B12 Dy1 2.687400 1_555
B12 Dy0 2.816370 1_555
B13 B18 1.783511 1_556
B13 B22 1.816220 1_555
B13 B23 1.819707 1_555
B13 B16 1.918583 1_556
B13 Dy0 2.687400 1_556
B13 Dy1 2.816370 1_545
B14 B17 1.783511 1_556
B14 B2 1.815792 1_566
B14 B21 1.816220 1_455
B14 B20 1.819709 1_555
B14 B9 1.847301 1_556
B14 B19 1.918583 1_566
B14 Dy0 2.687400 1_566
B14 Dy1 2.816370 1_555
B15 B16 1.783511 1_555
B15 B3 1.815792 1_555
B15 B20 1.816222 1_655
B15 B21 1.819703 1_555
B15 B8 1.847301 1_565
B15 B18 1.918583 1_566
B15 Dy1 2.687400 1_555
B15 Dy0 2.816370 1_555
B16 B27 1.816214 1_555
B16 B26 1.819703 1_555
B16 Dy0 2.687400 1_555
B16 Dy1 2.816370 1_555
B17 B26 1.816220 1_555
B17 B27 1.819707 1_555
B17 Dy1 2.687400 1_554
B17 Dy0 2.816370 1_565
B18 B3 1.815792 1_544
B18 B25 1.816220 1_655
B18 B24 1.819709 1_555
B18 B8 1.847301 1_554
B18 Dy1 2.687400 1_544
B18 Dy0 2.816370 1_555
B19 B2 1.815792 1_555
B19 B24 1.816222 1_455
B19 B25 1.819703 1_555
B19 B9 1.847301 1_545
B19 Dy0 2.687400 1_555
B19 Dy1 2.816370 1_555
B20 B6 1.756553 1_555
B20 B8 1.765175 1_465
B20 B21 1.850576 1_455
B20 Dy1 2.849741 1_555
B21 B7 1.756559 1_555
B21 B9 1.765175 1_656
B21 B3 1.856676 1_555
B21 Dy0 2.849743 1_555
B22 B4 1.756559 1_555
B22 B23 1.850566 1_555
B22 Dy0 2.849743 1_555
B23 B5 1.756557 1_545
B23 Dy1 2.849747 1_545
B24 B7 1.756553 1_555
B24 B9 1.765175 1_645
B24 B25 1.850576 1_655
B24 B3 1.856677 1_544
B24 Dy0 2.849741 1_555
B25 B6 1.756559 1_555
B25 B8 1.765175 1_454
B25 Dy1 2.849743 1_555
B26 B5 1.756559 1_555
B26 B27 1.850566 1_555
B26 Dy1 2.849743 1_555
B27 B4 1.756557 1_565
B27 Dy0 2.849747 1_565
