# generated using pymatgen
data_FeBO3
_symmetry_space_group_name_H-M   'P 1'
_cell_length_a   5.52196402
_cell_length_b   5.52196368
_cell_length_c   5.52196326
_cell_angle_alpha   49.74109871
_cell_angle_beta   49.74109212
_cell_angle_gamma   49.74110201
_symmetry_Int_Tables_number   1
_chemical_formula_structural   FeBO3
_chemical_formula_sum   'Fe2 B2 O6'
_cell_volume   90.18607293
_cell_formula_units_Z   2
loop_
 _symmetry_equiv_pos_site_id
 _symmetry_equiv_pos_as_xyz
  1  'x, y, z'
loop_
 _atom_site_type_symbol
 _atom_site_label
 _atom_site_symmetry_multiplicity
 _atom_site_fract_x
 _atom_site_fract_y
 _atom_site_fract_z
 _atom_site_occupancy
  Fe  Fe0  1  0.50000000  0.50000000  0.50000000  1
  Fe  Fe1  1  0.00000000  0.00000000  -0.00000000  1
  B  B0  1  0.75000000  0.75000000  0.75000000  1
  B  B1  1  0.25000000  0.25000000  0.25000000  1
  O  O0  1  0.75000000  0.45323570  0.04676430  1
  O  O1  1  0.04676430  0.75000000  0.45323570  1
  O  O2  1  0.54676430  0.95323570  0.25000000  1
  O  O3  1  0.25000000  0.54676430  0.95323570  1
  O  O4  1  0.95323570  0.25000000  0.54676430  1
  O  O5  1  0.45323570  0.04676430  0.75000000  1
loop_
_geom_bond_atom_site_label_1
_geom_bond_atom_site_label_2
_geom_bond_distance
_geom_bond_site_symmetry_2
Fe0 O3 2.035976 1_555
Fe0 O0 2.035976 1_555
Fe0 O2 2.035976 1_555
Fe0 O5 2.035976 1_555
Fe0 O4 2.035976 1_555
Fe0 O1 2.035976 1_555
Fe1 O1 2.035976 1_545
Fe1 O4 2.035976 1_454
Fe1 O5 2.035976 1_554
Fe1 O2 2.035976 1_445
Fe1 O0 2.035976 1_455
Fe1 O3 2.035976 1_544
B0 O1 1.378393 1_655
B0 O0 1.378393 1_556
B0 O5 1.378393 1_565
B1 O4 1.378393 1_455
B1 O3 1.378393 1_554
B1 O2 1.378393 1_545
