# generated using pymatgen
data_CaV2O4
_symmetry_space_group_name_H-M   'P 1'
_cell_length_a   5.18938607
_cell_length_b   5.18938607
_cell_length_c   10.11168800
_cell_angle_alpha   90.00000000
_cell_angle_beta   90.00000000
_cell_angle_gamma   145.29505296
_symmetry_Int_Tables_number   1
_chemical_formula_structural   CaV2O4
_chemical_formula_sum   'Ca2 V4 O8'
_cell_volume   155.03699254
_cell_formula_units_Z   2
loop_
 _symmetry_equiv_pos_site_id
 _symmetry_equiv_pos_as_xyz
  1  'x, y, z'
loop_
 _atom_site_type_symbol
 _atom_site_label
 _atom_site_symmetry_multiplicity
 _atom_site_fract_x
 _atom_site_fract_y
 _atom_site_fract_z
 _atom_site_occupancy
  Ca  Ca0  1  0.61436600  0.38563400  0.75000000  1
  Ca  Ca1  1  0.38563400  0.61436600  0.25000000  1
  V  V0  1  0.13218200  0.86781800  0.06992800  1
  V  V1  1  0.86781800  0.13218200  0.93007200  1
  V  V2  1  0.13218200  0.86781800  0.43007200  1
  V  V3  1  0.86781800  0.13218200  0.56992800  1
  O  O0  1  0.76841500  0.23158500  0.39315900  1
  O  O1  1  0.23158500  0.76841500  0.60684100  1
  O  O2  1  0.23158500  0.76841500  0.89315900  1
  O  O3  1  0.76841500  0.23158500  0.10684100  1
  O  O4  1  0.06676100  0.93323900  0.25000000  1
  O  O5  1  0.93323900  0.06676100  0.75000000  1
  O  O6  1  0.50000000  0.50000000  0.00000000  1
  O  O7  1  0.50000000  0.50000000  0.50000000  1
loop_
_geom_bond_atom_site_label_1
_geom_bond_atom_site_label_2
_geom_bond_distance
_geom_bond_site_symmetry_2
Ca0 O5 2.369609 1_455
Ca0 O5 2.369609 1_565
Ca0 O1 2.416482 1_545
Ca0 O2 2.416482 1_545
Ca0 O2 2.416482 1_655
Ca0 O1 2.416482 1_655
Ca0 O7 2.770195 1_555
Ca0 O6 2.770195 1_556
Ca1 O4 2.369609 1_545
Ca1 O4 2.369609 1_655
Ca1 O3 2.416482 1_455
Ca1 O0 2.416482 1_455
Ca1 O3 2.416482 1_565
Ca1 O0 2.416482 1_565
Ca1 O7 2.770195 1_555
Ca1 O6 2.770195 1_555
O0 V3 2.040736 1_555
O0 V2 2.087140 1_545
O0 V2 2.087140 1_655
O1 V2 2.040736 1_555
O1 V3 2.087140 1_455
O1 V3 2.087140 1_565
O2 V0 2.040736 1_556
O2 V1 2.087140 1_455
O2 V1 2.087140 1_565
O3 V1 2.040736 1_554
O3 V0 2.087140 1_655
O3 V0 2.087140 1_545
O4 V0 1.932730 1_555
O4 V2 1.932730 1_555
O5 V1 1.932730 1_555
O5 V3 1.932730 1_555
O6 V0 2.147115 1_655
O6 V1 2.147115 1_454
O6 V0 2.147115 1_545
O6 V1 2.147115 1_564
O7 V3 2.147115 1_565
O7 V2 2.147115 1_655
O7 V3 2.147115 1_455
O7 V2 2.147115 1_545
