# generated using pymatgen
data_Zn3P2(HO2)4
_symmetry_space_group_name_H-M   'P 1'
_cell_length_a   5.27626900
_cell_length_b   10.45302600
_cell_length_c   18.02539100
_cell_angle_alpha   90.00000000
_cell_angle_beta   90.00000000
_cell_angle_gamma   90.00000000
_symmetry_Int_Tables_number   1
_chemical_formula_structural   Zn3P2(HO2)4
_chemical_formula_sum   'Zn12 P8 H16 O32'
_cell_volume   994.15397596
_cell_formula_units_Z   4
loop_
 _symmetry_equiv_pos_site_id
 _symmetry_equiv_pos_as_xyz
  1  'x, y, z'
loop_
 _atom_site_type_symbol
 _atom_site_label
 _atom_site_symmetry_multiplicity
 _atom_site_fract_x
 _atom_site_fract_y
 _atom_site_fract_z
 _atom_site_occupancy
  Zn  Zn0  1  0.28426600  0.25176200  0.25000000  1
  Zn  Zn1  1  0.71573400  0.74823800  0.75000000  1
  Zn  Zn2  1  0.78426600  0.24823800  0.75000000  1
  Zn  Zn3  1  0.21573400  0.75176200  0.25000000  1
  Zn  Zn4  1  0.15949100  0.35042500  0.00207900  1
  Zn  Zn5  1  0.84050900  0.64957500  0.99792100  1
  Zn  Zn6  1  0.65949100  0.14957500  0.99792100  1
  Zn  Zn7  1  0.84050900  0.64957500  0.50207900  1
  Zn  Zn8  1  0.34050900  0.85042500  0.00207900  1
  Zn  Zn9  1  0.15949100  0.35042500  0.49792100  1
  Zn  Zn10  1  0.34050900  0.85042500  0.49792100  1
  Zn  Zn11  1  0.65949100  0.14957500  0.50207900  1
  P  P0  1  0.15887900  0.09210200  0.09201600  1
  P  P1  1  0.84112100  0.90789800  0.90798400  1
  P  P2  1  0.65887900  0.40789800  0.90798400  1
  P  P3  1  0.84112100  0.90789800  0.59201600  1
  P  P4  1  0.34112100  0.59210200  0.09201600  1
  P  P5  1  0.15887900  0.09210200  0.40798400  1
  P  P6  1  0.34112100  0.59210200  0.40798400  1
  P  P7  1  0.65887900  0.40789800  0.59201600  1
  H  H0  1  0.20960800  0.22693700  0.72625000  1
  H  H1  1  0.79039200  0.77306300  0.27375000  1
  H  H2  1  0.70960800  0.27306300  0.27375000  1
  H  H3  1  0.79039200  0.77306300  0.22625000  1
  H  H4  1  0.29039200  0.72693700  0.72625000  1
  H  H5  1  0.20960800  0.22693700  0.77375000  1
  H  H6  1  0.29039200  0.72693700  0.77375000  1
  H  H7  1  0.70960800  0.27306300  0.22625000  1
  H  H8  1  0.84811100  0.22908400  0.25000000  1
  H  H9  1  0.15188900  0.77091600  0.75000000  1
  H  H10  1  0.34811100  0.27091600  0.75000000  1
  H  H11  1  0.65188900  0.72908400  0.25000000  1
  H  H12  1  0.46641700  0.36854300  0.25000000  1
  H  H13  1  0.53358300  0.63145700  0.75000000  1
  H  H14  1  0.96641700  0.13145700  0.75000000  1
  H  H15  1  0.03358300  0.86854300  0.25000000  1
  O  O0  1  0.21564700  0.14567600  0.16997400  1
  O  O1  1  0.78435300  0.85432400  0.83002600  1
  O  O2  1  0.71564700  0.35432400  0.83002600  1
  O  O3  1  0.78435300  0.85432400  0.66997400  1
  O  O4  1  0.28435300  0.64567600  0.16997400  1
  O  O5  1  0.21564700  0.14567600  0.33002600  1
  O  O6  1  0.28435300  0.64567600  0.33002600  1
  O  O7  1  0.71564700  0.35432400  0.66997400  1
  O  O8  1  0.29745100  0.17562500  0.02990000  1
  O  O9  1  0.70254900  0.82437500  0.97010000  1
  O  O10  1  0.79745100  0.32437500  0.97010000  1
  O  O11  1  0.70254900  0.82437500  0.52990000  1
  O  O12  1  0.20254900  0.67562500  0.02990000  1
  O  O13  1  0.29745100  0.17562500  0.47010000  1
  O  O14  1  0.20254900  0.67562500  0.47010000  1
  O  O15  1  0.79745100  0.32437500  0.52990000  1
  O  O16  1  0.23153800  0.45591700  0.08822800  1
  O  O17  1  0.76846200  0.54408300  0.91177200  1
  O  O18  1  0.73153800  0.04408300  0.91177200  1
  O  O19  1  0.76846200  0.54408300  0.58822800  1
  O  O20  1  0.26846200  0.95591700  0.08822800  1
  O  O21  1  0.23153800  0.45591700  0.41177200  1
  O  O22  1  0.26846200  0.95591700  0.41177200  1
  O  O23  1  0.73153800  0.04408300  0.58822800  1
  O  O24  1  0.37067400  0.39771800  0.58136500  1
  O  O25  1  0.62932600  0.60228200  0.41863500  1
  O  O26  1  0.87067400  0.10228200  0.41863500  1
  O  O27  1  0.62932600  0.60228200  0.08136500  1
  O  O28  1  0.12932600  0.89771800  0.58136500  1
  O  O29  1  0.37067400  0.39771800  0.91863500  1
  O  O30  1  0.12932600  0.89771800  0.91863500  1
  O  O31  1  0.87067400  0.10228200  0.08136500  1
loop_
_geom_bond_atom_site_label_1
_geom_bond_atom_site_label_2
_geom_bond_distance
_geom_bond_site_symmetry_2
H0 H5 0.856206 1_555
H0 H10 0.963663 1_555
H1 H3 0.856206 1_555
H1 H11 0.963663 1_555
H2 H7 0.856206 1_555
H2 H8 0.963663 1_555
H4 H6 0.856206 1_555
H4 H9 0.963663 1_555
H6 H9 0.963663 1_555
H7 H8 0.963663 1_555
H10 H5 0.963663 1_555
H11 H3 0.963663 1_555
H12 Zn0 1.553646 1_555
H13 Zn1 1.553646 1_555
H14 Zn2 1.553646 1_555
H15 Zn3 1.553646 1_555
O0 P0 1.542070 1_555
O0 Zn0 1.855153 1_555
O1 P1 1.542070 1_555
O1 Zn1 1.855153 1_555
O2 P2 1.542070 1_555
O2 Zn2 1.855153 1_555
O3 P3 1.542070 1_555
O3 Zn1 1.855153 1_555
O4 P4 1.542070 1_555
O4 Zn3 1.855153 1_555
O5 P5 1.542070 1_555
O5 Zn0 1.855153 1_555
O6 P6 1.542070 1_555
O6 Zn3 1.855153 1_555
O7 P7 1.542070 1_555
O7 Zn2 1.855153 1_555
O8 P0 1.597019 1_555
O8 Zn6 2.013794 1_554
O8 Zn4 2.029770 1_555
O9 P1 1.597019 1_555
O9 Zn8 2.013794 1_556
O9 Zn5 2.029770 1_555
O10 P2 1.597019 1_555
O10 Zn4 2.013794 1_656
O10 Zn6 2.029770 1_555
O11 P3 1.597019 1_555
O11 Zn10 2.013794 1_555
O11 Zn7 2.029770 1_555
O12 P4 1.597019 1_555
O12 Zn5 2.013794 1_454
O12 Zn8 2.029770 1_555
O13 P5 1.597019 1_555
O13 Zn11 2.013794 1_555
O13 Zn9 2.029770 1_555
O14 P6 1.597019 1_555
O14 Zn7 2.013794 1_455
O14 Zn10 2.029770 1_555
O15 P7 1.597019 1_555
O15 Zn9 2.013794 1_655
O15 Zn11 2.029770 1_555
O16 P4 1.538001 1_555
O16 Zn4 1.942133 1_555
O17 P2 1.538001 1_555
O17 Zn5 1.942133 1_555
O18 P1 1.538001 1_545
O18 Zn6 1.942133 1_555
O19 P7 1.538001 1_555
O19 Zn7 1.942133 1_555
O20 P0 1.538001 1_565
O20 Zn8 1.942133 1_555
O21 P6 1.538001 1_555
O21 Zn9 1.942133 1_555
O22 P5 1.538001 1_565
O22 Zn10 1.942133 1_555
O23 P3 1.538001 1_545
O23 Zn11 1.942133 1_555
O24 P7 1.536408 1_555
O24 Zn9 1.936055 1_555
O25 P6 1.536408 1_555
O25 Zn7 1.936055 1_555
O26 P5 1.536408 1_655
O26 Zn11 1.936055 1_555
O27 P4 1.536408 1_555
O27 Zn5 1.936055 1_554
O28 P3 1.536408 1_455
O28 Zn10 1.936055 1_555
O29 P2 1.536408 1_555
O29 Zn4 1.936055 1_556
O30 P1 1.536408 1_455
O30 Zn8 1.936055 1_556
O31 P0 1.536408 1_655
O31 Zn6 1.936055 1_554
