# generated using pymatgen
data_Er3NF10
_symmetry_space_group_name_H-M   'P 1'
_cell_length_a   8.12643323
_cell_length_b   8.12643323
_cell_length_c   13.37171700
_cell_angle_alpha   90.00000000
_cell_angle_beta   90.00000000
_cell_angle_gamma   119.92402119
_symmetry_Int_Tables_number   1
_chemical_formula_structural   Er3NF10
_chemical_formula_sum   'Er12 N4 F40'
_cell_volume   765.33177377
_cell_formula_units_Z   4
loop_
 _symmetry_equiv_pos_site_id
 _symmetry_equiv_pos_as_xyz
  1  'x, y, z'
loop_
 _atom_site_type_symbol
 _atom_site_label
 _atom_site_symmetry_multiplicity
 _atom_site_fract_x
 _atom_site_fract_y
 _atom_site_fract_z
 _atom_site_occupancy
  Er  Er0  1  0.50478900  0.01515700  0.50015600  1
  Er  Er1  1  0.50526100  0.49473900  0.49926500  1
  Er  Er2  1  0.98484300  0.49521100  0.50015600  1
  Er  Er3  1  0.49521100  0.98484300  0.00015600  1
  Er  Er4  1  0.49473900  0.50526100  0.99926500  1
  Er  Er5  1  0.01515700  0.50478900  0.00015600  1
  Er  Er6  1  0.82504900  0.17495100  0.25947500  1
  Er  Er7  1  0.34847300  0.17700800  0.26068300  1
  Er  Er8  1  0.82299200  0.65152700  0.26068300  1
  Er  Er9  1  0.17495100  0.82504900  0.75947500  1
  Er  Er10  1  0.65152700  0.82299200  0.76068300  1
  Er  Er11  1  0.17700800  0.34847300  0.76068300  1
  N  N0  1  0.99407100  0.00592900  0.47919900  1
  N  N1  1  0.00592900  0.99407100  0.97919900  1
  N  N2  1  0.33130100  0.66869900  0.25798800  1
  N  N3  1  0.66869900  0.33130100  0.75798800  1
  F  F0  1  0.78237400  0.89362600  0.29179500  1
  F  F1  1  0.10637400  0.21762600  0.29179500  1
  F  F2  1  0.10825800  0.89174200  0.29247700  1
  F  F3  1  0.21762600  0.10637400  0.79179500  1
  F  F4  1  0.89362600  0.78237400  0.79179500  1
  F  F5  1  0.89174200  0.10825800  0.79247700  1
  F  F6  1  0.55225600  0.77901400  0.46612900  1
  F  F7  1  0.22098600  0.44774400  0.46612900  1
  F  F8  1  0.22107400  0.77892600  0.46588900  1
  F  F9  1  0.44774400  0.22098600  0.96612900  1
  F  F10  1  0.77901400  0.55225600  0.96612900  1
  F  F11  1  0.77892600  0.22107400  0.96588900  1
  F  F12  1  0.52226600  0.04435300  0.32591300  1
  F  F13  1  0.51798900  0.48201100  0.32512800  1
  F  F14  1  0.95564700  0.47773400  0.32591300  1
  F  F15  1  0.47773400  0.95564700  0.82591300  1
  F  F16  1  0.48201100  0.51798900  0.82512800  1
  F  F17  1  0.04435300  0.52226600  0.82591300  1
  F  F18  1  0.66469600  0.00934900  0.13051900  1
  F  F19  1  0.34253200  0.33897800  0.13075000  1
  F  F20  1  0.99314300  0.66097300  0.13073600  1
  F  F21  1  0.66102200  0.65746800  0.13075000  1
  F  F22  1  0.33902700  0.00685700  0.13073600  1
  F  F23  1  0.99065100  0.33530400  0.13051900  1
  F  F24  1  0.33530400  0.99065100  0.63051900  1
  F  F25  1  0.65746800  0.66102200  0.63075000  1
  F  F26  1  0.00685700  0.33902700  0.63073600  1
  F  F27  1  0.33897800  0.34253200  0.63075000  1
  F  F28  1  0.66097300  0.99314300  0.63073600  1
  F  F29  1  0.00934900  0.66469600  0.63051900  1
  F  F30  1  0.66607600  0.33392400  0.54222700  1
  F  F31  1  0.33392400  0.66607600  0.04222700  1
  F  F32  1  0.66517400  0.33482600  0.21098200  1
  F  F33  1  0.33482600  0.66517400  0.71098200  1
  F  F34  1  0.81867500  0.18132500  0.43723900  1
  F  F35  1  0.36897700  0.18765400  0.43565700  1
  F  F36  1  0.81234600  0.63102300  0.43565700  1
  F  F37  1  0.18132500  0.81867500  0.93723900  1
  F  F38  1  0.63102300  0.81234600  0.93565700  1
  F  F39  1  0.18765400  0.36897700  0.93565700  1
loop_
_geom_bond_atom_site_label_1
_geom_bond_atom_site_label_2
_geom_bond_distance
_geom_bond_site_symmetry_2
Er0 F24 2.168329 1_545
Er0 F6 2.185614 1_545
Er0 F8 2.189773 1_545
Er0 F28 2.217712 1_545
Er0 F30 2.314583 1_555
Er0 F35 2.338905 1_555
Er0 F12 2.339104 1_555
Er0 F34 2.366679 1_555
Er1 F25 2.186214 1_555
Er1 F27 2.186214 1_555
Er1 F7 2.190595 1_555
Er1 F6 2.190595 1_555
Er1 F36 2.328114 1_555
Er1 F35 2.328114 1_555
Er1 F30 2.334457 1_555
Er1 F13 2.335387 1_555
Er2 F29 2.168329 1_655
Er2 F7 2.185614 1_655
Er2 F8 2.189773 1_655
Er2 F26 2.217712 1_655
Er2 F30 2.314583 1_555
Er2 F36 2.338905 1_555
Er2 F14 2.339104 1_555
Er2 F34 2.366679 1_555
Er3 F18 2.168329 1_565
Er3 F9 2.185614 1_564
Er3 F11 2.189773 1_564
Er3 F22 2.217712 1_565
Er3 F31 2.314583 1_555
Er3 F38 2.338905 1_554
Er3 F15 2.339104 1_554
Er3 F37 2.366679 1_554
Er4 F21 2.186214 1_556
Er4 F19 2.186214 1_556
Er4 F9 2.190595 1_555
Er4 F10 2.190595 1_555
Er4 F39 2.328114 1_555
Er4 F38 2.328114 1_555
Er4 F31 2.334457 1_556
Er4 F16 2.335387 1_555
Er5 F23 2.168329 1_455
Er5 F10 2.185614 1_454
Er5 F11 2.189773 1_454
Er5 F20 2.217712 1_455
Er5 F31 2.314583 1_555
Er5 F39 2.338905 1_554
Er5 F17 2.339104 1_554
Er5 F37 2.366679 1_554
Er6 F18 2.175529 1_555
Er6 F23 2.175529 1_555
Er6 F1 2.177751 1_655
Er6 F0 2.177751 1_545
Er6 F12 2.316140 1_555
Er6 F14 2.316140 1_555
Er6 F32 2.341037 1_555
Er6 F34 2.378701 1_555
Er7 F1 2.191027 1_555
Er7 F19 2.194737 1_555
Er7 F22 2.198003 1_555
Er7 F2 2.202386 1_545
Er7 F13 2.318858 1_555
Er7 F32 2.327452 1_555
Er7 F12 2.331640 1_555
Er7 F35 2.344158 1_555
Er8 F0 2.191027 1_555
Er8 F21 2.194737 1_555
Er8 F20 2.198003 1_555
Er8 F2 2.202386 1_655
Er8 F13 2.318858 1_555
Er8 F32 2.327452 1_555
Er8 F14 2.331640 1_555
Er8 F36 2.344158 1_555
Er9 F29 2.175529 1_555
Er9 F24 2.175529 1_555
Er9 F3 2.177751 1_565
Er9 F4 2.177751 1_455
Er9 F17 2.316140 1_555
Er9 F15 2.316140 1_555
Er9 F33 2.341037 1_555
Er9 F37 2.378701 1_555
Er10 F4 2.191027 1_555
Er10 F25 2.194737 1_555
Er10 F28 2.198003 1_555
Er10 F5 2.202386 1_565
Er10 F16 2.318858 1_555
Er10 F33 2.327452 1_555
Er10 F15 2.331640 1_555
Er10 F38 2.344158 1_555
Er11 F3 2.191027 1_555
Er11 F27 2.194737 1_555
Er11 F26 2.198003 1_555
Er11 F5 2.202386 1_455
Er11 F16 2.318858 1_555
Er11 F33 2.327452 1_555
Er11 F17 2.331640 1_555
Er11 F39 2.344158 1_555
