# generated using pymatgen
data_NaCdSbS3
_symmetry_space_group_name_H-M   'P 1'
_cell_length_a   5.85337332
_cell_length_b   5.85337332
_cell_length_c   17.27833694
_cell_angle_alpha   80.81788022
_cell_angle_beta   80.81788022
_cell_angle_gamma   90.57423930
_symmetry_Int_Tables_number   1
_chemical_formula_structural   NaCdSbS3
_chemical_formula_sum   'Na4 Cd4 Sb4 S12'
_cell_volume   576.53324005
_cell_formula_units_Z   4
loop_
 _symmetry_equiv_pos_site_id
 _symmetry_equiv_pos_as_xyz
  1  'x, y, z'
loop_
 _atom_site_type_symbol
 _atom_site_label
 _atom_site_symmetry_multiplicity
 _atom_site_fract_x
 _atom_site_fract_y
 _atom_site_fract_z
 _atom_site_occupancy
  Na  Na0  1  0.18805900  0.48933500  0.07863900  1
  Na  Na1  1  0.51066500  0.81194100  0.42136100  1
  Na  Na2  1  0.81194100  0.51066500  0.92136100  1
  Na  Na3  1  0.48933500  0.18805900  0.57863900  1
  Cd  Cd0  1  0.11458400  0.88541600  0.25000000  1
  Cd  Cd1  1  0.88541600  0.11458400  0.75000000  1
  Cd  Cd2  1  0.61940400  0.38059600  0.25000000  1
  Cd  Cd3  1  0.38059600  0.61940400  0.75000000  1
  Sb  Sb0  1  0.94826100  0.69773800  0.59355200  1
  Sb  Sb1  1  0.30226200  0.05173900  0.90644800  1
  Sb  Sb2  1  0.05173900  0.30226200  0.40644800  1
  Sb  Sb3  1  0.69773800  0.94826100  0.09355200  1
  S  S0  1  0.01522400  0.88321300  0.40171500  1
  S  S1  1  0.11678700  0.98477600  0.09828500  1
  S  S2  1  0.98477600  0.11678700  0.59828500  1
  S  S3  1  0.88321300  0.01522400  0.90171500  1
  S  S4  1  0.67224100  0.52366900  0.09697800  1
  S  S5  1  0.47633100  0.32775900  0.40302200  1
  S  S6  1  0.32775900  0.47633100  0.90302200  1
  S  S7  1  0.52366900  0.67224100  0.59697800  1
  S  S8  1  0.07762300  0.41747700  0.25978000  1
  S  S9  1  0.58252300  0.92237700  0.24022000  1
  S  S10  1  0.92237700  0.58252300  0.74022000  1
  S  S11  1  0.41747700  0.07762300  0.75978000  1
loop_
_geom_bond_atom_site_label_1
_geom_bond_atom_site_label_2
_geom_bond_distance
_geom_bond_site_symmetry_2
Na0 S4 2.910054 1_555
Na0 S1 2.936295 1_545
Na0 S4 2.997328 1_455
Na0 S1 2.998749 1_555
Na0 S6 3.027364 1_554
Na0 S8 3.052743 1_555
Na1 S5 2.910054 1_555
Na1 S0 2.936295 1_655
Na1 S5 2.997328 1_565
Na1 S0 2.998749 1_555
Na1 S7 3.027364 1_555
Na1 S9 3.052743 1_555
Na2 S6 2.910054 1_555
Na2 S3 2.936295 1_565
Na2 S6 2.997328 1_655
Na2 S3 2.998749 1_555
Na2 S4 3.027364 1_556
Na2 S10 3.052743 1_555
Na3 S7 2.910054 1_555
Na3 S2 2.936295 1_455
Na3 S7 2.997328 1_545
Na3 S2 2.998749 1_555
Na3 S5 3.027364 1_555
Na3 S11 3.052743 1_555
Cd0 S0 2.590861 1_555
Cd0 S1 2.590861 1_555
Cd0 S8 2.721459 1_555
Cd0 S9 2.721459 1_555
Cd0 S9 3.153465 1_455
Cd0 S8 3.153465 1_565
Cd1 S3 2.590861 1_555
Cd1 S2 2.590861 1_555
Cd1 S11 2.721459 1_555
Cd1 S10 2.721459 1_555
Cd1 S10 3.153465 1_545
Cd1 S11 3.153465 1_655
Cd2 S4 2.610503 1_555
Cd2 S5 2.610503 1_555
Cd2 S9 2.722801 1_545
Cd2 S8 2.722801 1_655
Cd2 S8 3.160111 1_555
Cd2 S9 3.160111 1_555
Cd3 S7 2.610503 1_555
Cd3 S6 2.610503 1_555
Cd3 S10 2.722801 1_455
Cd3 S11 2.722801 1_565
Cd3 S11 3.160111 1_555
Cd3 S10 3.160111 1_555
S0 Sb2 2.475466 1_565
S1 Sb3 2.475466 1_455
S2 Sb0 2.475466 1_545
S3 Sb1 2.475466 1_655
S4 Sb3 2.478964 1_555
S5 Sb2 2.478964 1_555
S6 Sb1 2.478964 1_555
S7 Sb0 2.478964 1_555
S8 Sb2 2.495959 1_555
S9 Sb3 2.495959 1_555
S10 Sb0 2.495959 1_555
S11 Sb1 2.495959 1_555
