# generated using pymatgen
data_TiPO4F
_symmetry_space_group_name_H-M   'P 1'
_cell_length_a   5.19764172
_cell_length_b   5.19782253
_cell_length_c   7.42650986
_cell_angle_alpha   109.70684607
_cell_angle_beta   109.69565718
_cell_angle_gamma   89.97989319
_symmetry_Int_Tables_number   1
_chemical_formula_structural   TiPO4F
_chemical_formula_sum   'Ti2 P2 O8 F2'
_cell_volume   176.37702899
_cell_formula_units_Z   2
loop_
 _symmetry_equiv_pos_site_id
 _symmetry_equiv_pos_as_xyz
  1  'x, y, z'
loop_
 _atom_site_type_symbol
 _atom_site_label
 _atom_site_symmetry_multiplicity
 _atom_site_fract_x
 _atom_site_fract_y
 _atom_site_fract_z
 _atom_site_occupancy
  Ti  Ti0  1  0.00000000  0.00000000  0.00000000  1
  Ti  Ti1  1  0.50000000  0.50000000  0.50000000  1
  P  P0  1  0.38030100  0.11973100  0.75006800  1
  P  P1  1  0.61969900  0.88026900  0.24993200  1
  O  O0  1  0.32751000  0.83454500  0.08650700  1
  O  O1  1  0.84005800  0.85470700  0.15104200  1
  O  O2  1  0.66551000  0.17254900  0.41331000  1
  O  O3  1  0.64497000  0.66001400  0.34886100  1
  O  O4  1  0.15994200  0.14529300  0.84895800  1
  O  O5  1  0.33449000  0.82745100  0.58669000  1
  O  O6  1  0.35503000  0.33998600  0.65113900  1
  O  O7  1  0.67249000  0.16545500  0.91349300  1
  F  F0  1  0.16975600  0.33013500  0.25006700  1
  F  F1  1  0.83024400  0.66986500  0.74993300  1
loop_
_geom_bond_atom_site_label_1
_geom_bond_atom_site_label_2
_geom_bond_distance
_geom_bond_site_symmetry_2
O0 P1 1.548948 1_555
O0 Ti0 1.919516 1_565
O1 P1 1.539444 1_555
O1 Ti0 1.928727 1_665
O2 P1 1.548951 1_545
O2 Ti1 1.919564 1_555
O3 P1 1.539420 1_555
O3 Ti1 1.928605 1_555
O4 P0 1.539444 1_555
O4 Ti0 1.928727 1_556
O5 P0 1.548951 1_565
O5 Ti1 1.919564 1_555
O6 P0 1.539420 1_555
O6 Ti1 1.928605 1_555
O7 P0 1.548948 1_555
O7 Ti0 1.919516 1_656
F0 Ti0 1.979738 1_555
F0 Ti1 1.979746 1_555
F1 Ti0 1.979738 1_666
F1 Ti1 1.979746 1_555
