# generated using pymatgen
data_Mg16Al12Rh
_symmetry_space_group_name_H-M   'P 1'
_cell_length_a   9.19801896
_cell_length_b   9.00575148
_cell_length_c   9.00575124
_cell_angle_alpha   109.03470612
_cell_angle_beta   109.90428048
_cell_angle_gamma   109.90428641
_symmetry_Int_Tables_number   1
_chemical_formula_structural   Mg16Al12Rh
_chemical_formula_sum   'Mg16 Al12 Rh1'
_cell_volume   571.16717476
_cell_formula_units_Z   1
loop_
 _symmetry_equiv_pos_site_id
 _symmetry_equiv_pos_as_xyz
  1  'x, y, z'
loop_
 _atom_site_type_symbol
 _atom_site_label
 _atom_site_symmetry_multiplicity
 _atom_site_fract_x
 _atom_site_fract_y
 _atom_site_fract_z
 _atom_site_occupancy
  Mg  Mg0  1  0.00221500  0.35289300  0.00000000  1
  Mg  Mg1  1  0.98809600  0.00000000  0.00000000  1
  Mg  Mg2  1  0.57098700  0.25993100  0.00000000  1
  Mg  Mg3  1  0.31811600  0.59244600  0.00000000  1
  Mg  Mg4  1  0.57098700  0.00000000  0.25993100  1
  Mg  Mg5  1  0.68159600  0.67338700  0.27467800  1
  Mg  Mg6  1  0.00820800  0.60129000  0.32661300  1
  Mg  Mg7  1  0.00221500  0.99999900  0.35289300  1
  Mg  Mg8  1  0.40691900  0.72532400  0.39871100  1
  Mg  Mg9  1  0.72567100  0.40755400  0.40755500  1
  Mg  Mg10  1  0.31811600  0.00000100  0.59244600  1
  Mg  Mg11  1  0.00820800  0.32661200  0.60129000  1
  Mg  Mg12  1  0.64932100  0.64710700  0.64710700  1
  Mg  Mg13  1  0.68159500  0.27467800  0.67338700  1
  Mg  Mg14  1  0.40691900  0.39871100  0.72532200  1
  Mg  Mg15  1  0.31105600  0.74006900  0.74006900  1
  Al  Al0  1  0.81058500  0.60903800  0.00000000  1
  Al  Al1  1  0.65294100  0.80936700  0.00000000  1
  Al  Al2  1  0.18380400  0.81835500  0.17931400  1
  Al  Al3  1  0.36544900  0.36096000  0.18164400  1
  Al  Al4  1  0.84357300  0.19063400  0.19063400  1
  Al  Al5  1  0.36544900  0.18164400  0.36096000  1
  Al  Al6  1  0.20154700  0.39096300  0.39096300  1
  Al  Al7  1  0.81058500  0.99999900  0.60903800  1
  Al  Al8  1  0.00448900  0.82068600  0.63904200  1
  Al  Al9  1  0.65294100  0.00000000  0.80936600  1
  Al  Al10  1  0.18380300  0.17931400  0.81835500  1
  Al  Al11  1  0.00449000  0.63904200  0.82068600  1
  Rh  Rh0  1  0.27012200  0.00000000  0.00000000  1
loop_
_geom_bond_atom_site_label_1
_geom_bond_atom_site_label_2
_geom_bond_distance
_geom_bond_site_symmetry_2
Mg0 Mg3 2.971331 1_555
Mg0 Mg6 3.028647 1_555
Mg0 Mg13 3.028651 1_454
Mg0 Mg1 3.136232 1_455
Mg1 Rh0 2.594080 1_655
Mg1 Mg12 3.136234 1_544
Mg1 Mg7 3.136235 1_645
Mg2 Rh0 2.954164 1_555
Mg2 Mg9 3.039185 1_555
Mg2 Mg5 3.273761 1_555
Mg2 Mg6 3.450345 1_655
Mg3 Mg4 3.039177 1_565
Mg3 Mg5 3.059627 1_555
Mg3 Mg8 3.086572 1_555
Mg4 Rh0 2.954164 1_555
Mg4 Mg9 3.039175 1_555
Mg4 Mg8 3.273759 1_545
Mg4 Mg5 3.450353 1_545
Mg5 Mg7 3.028641 1_655
Mg5 Mg9 3.086567 1_555
Mg5 Mg6 3.199211 1_655
Mg5 Mg8 3.199222 1_555
Mg6 Mg9 3.059617 1_455
Mg6 Mg8 3.199224 1_555
Mg10 Mg7 2.971321 1_545
Mg10 Mg2 3.039176 1_556
Mg10 Mg15 3.039185 1_545
Mg10 Mg13 3.059617 1_555
Mg10 Mg8 3.059621 1_545
Mg10 Mg14 3.086565 1_555
Mg10 Mg6 3.086572 1_545
Mg11 Mg7 3.028647 1_545
Mg11 Mg9 3.059614 1_455
Mg11 Mg3 3.086568 1_556
Mg11 Mg13 3.199221 1_455
Mg11 Mg14 3.199223 1_555
Mg11 Mg15 3.273768 1_555
Mg11 Mg4 3.450344 1_455
Mg12 Mg9 2.971339 1_555
Mg12 Mg14 3.028625 1_555
Mg12 Mg8 3.028638 1_555
Mg13 Mg9 3.086555 1_555
Mg13 Mg14 3.199208 1_555
Mg13 Mg4 3.273764 1_555
Mg13 Mg2 3.450347 1_556
Mg14 Mg3 3.059627 1_556
Mg14 Mg2 3.273772 1_556
Mg14 Mg15 3.450341 1_555
Mg15 Rh0 2.954164 1_566
Mg15 Mg3 3.039177 1_556
Mg15 Mg6 3.273762 1_555
Mg15 Mg8 3.450343 1_555
Al0 Al1 2.671813 1_555
Al0 Al2 2.789153 1_655
Al0 Al11 2.789154 1_654
Al0 Mg13 2.922414 1_554
Al0 Mg6 2.922419 1_655
Al0 Mg14 3.064964 1_554
Al0 Mg5 3.064969 1_555
Al0 Mg2 3.166008 1_555
Al0 Mg7 3.203901 1_655
Al0 Mg12 3.203907 1_554
Al0 Mg1 3.338911 1_565
Al0 Mg0 3.346126 1_655
Al1 Al9 2.795947 1_564
Al1 Al4 2.795947 1_565
Al1 Mg15 2.908024 1_554
Al1 Mg4 2.908024 1_565
Al1 Mg1 2.974418 1_565
Al1 Mg12 3.016976 1_554
Al1 Mg7 3.016981 1_655
Al1 Mg3 3.033889 1_555
Al1 Mg14 3.072445 1_554
Al1 Mg5 3.072458 1_555
Al2 Al5 2.664109 1_565
Al2 Rh0 2.761502 1_565
Al2 Mg8 2.882188 1_555
Al2 Mg6 3.031542 1_555
Al2 Mg3 3.033128 1_555
Al2 Mg4 3.063349 1_565
Al2 Mg10 3.093398 1_565
Al2 Mg7 3.143181 1_555
Al2 Mg1 3.205162 1_465
Al3 Al5 2.629958 1_555
Al3 Rh0 2.761509 1_555
Al3 Al6 2.789168 1_555
Al3 Mg5 2.882178 1_555
Al3 Mg8 3.031542 1_555
Al3 Mg9 3.033144 1_555
Al3 Mg2 3.063346 1_555
Al3 Mg3 3.093384 1_555
Al3 Mg0 3.143180 1_555
Al3 Mg1 3.205168 1_455
Al4 Al6 2.671820 1_655
Al4 Al9 2.795955 1_554
Al4 Mg4 2.908014 1_555
Al4 Mg2 2.908015 1_555
Al4 Mg1 2.974436 1_555
Al4 Mg0 3.016988 1_655
Al4 Mg7 3.016996 1_645
Al4 Mg9 3.033870 1_555
Al4 Mg6 3.072443 1_655
Al4 Mg11 3.072444 1_655
Al5 Rh0 2.761509 1_555
Al5 Al6 2.789168 1_555
Al5 Mg13 2.882173 1_555
Al5 Mg14 3.031527 1_555
Al5 Mg9 3.033138 1_555
Al5 Mg4 3.063346 1_555
Al5 Mg10 3.093377 1_555
Al5 Mg7 3.143181 1_545
Al5 Mg1 3.205168 1_455
Al6 Mg14 2.922407 1_555
Al6 Mg8 2.922421 1_555
Al6 Mg6 3.064962 1_555
Al6 Mg11 3.064964 1_555
Al6 Mg15 3.165999 1_555
Al6 Mg0 3.203910 1_555
Al6 Mg7 3.203918 1_545
Al6 Mg1 3.338920 1_455
Al6 Mg12 3.346118 1_555
Al7 Al9 2.671805 1_565
Al7 Al8 2.789139 1_655
Al7 Mg5 2.922412 1_555
Al7 Mg11 2.922419 1_665
Al7 Mg8 3.064958 1_555
Al7 Mg13 3.064984 1_565
Al7 Mg4 3.166014 1_565
Al7 Mg12 3.203900 1_555
Al7 Mg0 3.203910 1_666
Al7 Mg1 3.338906 1_566
Al7 Mg7 3.346125 1_655
Al8 Rh0 2.761498 1_566
Al8 Mg6 2.882196 1_555
Al8 Mg5 3.031533 1_455
Al8 Mg10 3.033144 1_565
Al8 Mg15 3.063357 1_555
Al8 Mg9 3.093394 1_455
Al8 Mg12 3.143181 1_455
Al8 Mg1 3.205149 1_466
Al9 Mg15 2.908028 1_545
Al9 Mg2 2.908028 1_556
Al9 Mg1 2.974420 1_556
Al9 Mg12 3.016974 1_545
Al9 Mg0 3.016979 1_656
Al9 Mg10 3.033892 1_555
Al9 Mg8 3.072436 1_545
Al9 Mg13 3.072452 1_555
Al10 Al8 2.629929 1_545
Al10 Al3 2.664109 1_556
Al10 Rh0 2.761505 1_556
Al10 Al7 2.789145 1_445
Al10 Mg14 2.882206 1_555
Al10 Mg11 3.031530 1_555
Al10 Mg10 3.033132 1_555
Al10 Mg2 3.063357 1_556
Al10 Mg3 3.093396 1_556
Al10 Mg0 3.143178 1_556
Al10 Mg1 3.205156 1_456
Al11 Al2 2.629929 1_556
Al11 Al8 2.664102 1_555
Al11 Rh0 2.761496 1_566
Al11 Mg11 2.882198 1_555
Al11 Mg13 3.031542 1_455
Al11 Mg3 3.033134 1_556
Al11 Mg15 3.063348 1_555
Al11 Mg9 3.093390 1_455
Al11 Mg12 3.143189 1_455
Al11 Mg1 3.205154 1_466
