# generated using pymatgen
data_Li3AsF6
_symmetry_space_group_name_H-M   'P 1'
_cell_length_a   5.41780185
_cell_length_b   7.54317814
_cell_length_c   7.20047947
_cell_angle_alpha   80.26949484
_cell_angle_beta   102.82011179
_cell_angle_gamma   131.11806931
_symmetry_Int_Tables_number   1
_chemical_formula_structural   Li3AsF6
_chemical_formula_sum   'Li3 As1 F6'
_cell_volume   216.05328818
_cell_formula_units_Z   1
loop_
 _symmetry_equiv_pos_site_id
 _symmetry_equiv_pos_as_xyz
  1  'x, y, z'
loop_
 _atom_site_type_symbol
 _atom_site_label
 _atom_site_symmetry_multiplicity
 _atom_site_fract_x
 _atom_site_fract_y
 _atom_site_fract_z
 _atom_site_occupancy
  Li  Li0  1  0.00000000  0.00000000  0.50000000  1
  Li  Li1  1  0.50000000  0.50000000  0.00000000  1
  Li  Li2  1  0.00000000  0.50000000  0.00000000  1
  As  As0  1  0.00000000  0.00000000  0.00000000  1
  F  F0  1  0.03722500  0.29308000  0.89734100  1
  F  F1  1  0.96277500  0.70692000  0.10265900  1
  F  F2  1  0.91881400  0.88649500  0.73379900  1
  F  F3  1  0.08118600  0.11350500  0.26620100  1
  F  F4  1  0.48888200  0.74731800  0.00045100  1
  F  F5  1  0.51111800  0.25268200  0.99954900  1
loop_
_geom_bond_atom_site_label_1
_geom_bond_atom_site_label_2
_geom_bond_distance
_geom_bond_site_symmetry_2
As0 F3 2.070228 1_555
As0 F2 2.070228 1_444
As0 F4 2.088334 1_445
As0 F5 2.088334 1_554
As0 F1 2.098064 1_445
As0 F0 2.098064 1_554
F0 Li1 1.920771 1_556
F0 Li2 1.973186 1_556
F1 Li1 1.920771 1_555
F1 Li2 1.973186 1_655
F2 Li0 1.762572 1_665
F3 Li0 1.762572 1_555
F4 Li1 1.906278 1_555
F4 Li2 1.998783 1_555
F5 Li1 1.906278 1_556
F5 Li2 1.998783 1_656
