# generated using pymatgen
data_SmH3
_symmetry_space_group_name_H-M   'P 1'
_cell_length_a   6.53938313
_cell_length_b   6.53937954
_cell_length_c   6.80578403
_cell_angle_alpha   90.00003782
_cell_angle_beta   89.99988857
_cell_angle_gamma   119.99999854
_symmetry_Int_Tables_number   1
_chemical_formula_structural   SmH3
_chemical_formula_sum   'Sm6 H18'
_cell_volume   252.04734573
_cell_formula_units_Z   6
loop_
 _symmetry_equiv_pos_site_id
 _symmetry_equiv_pos_as_xyz
  1  'x, y, z'
loop_
 _atom_site_type_symbol
 _atom_site_label
 _atom_site_symmetry_multiplicity
 _atom_site_fract_x
 _atom_site_fract_y
 _atom_site_fract_z
 _atom_site_occupancy
  Sm  Sm0  1  0.33692622  0.33692622  0.75000020  1
  Sm  Sm1  1  0.66307426  -0.00000000  0.74999986  1
  Sm  Sm2  1  0.00000018  0.66307434  0.75000003  1
  Sm  Sm3  1  0.33692575  0.00000001  0.25000022  1
  Sm  Sm4  1  0.99999984  0.33692565  0.25000008  1
  Sm  Sm5  1  0.66307380  0.66307378  0.24999990  1
  H  H0  1  0.67917388  0.64956937  0.59162897  1
  H  H1  1  0.35043028  0.02960425  0.59162957  1
  H  H2  1  0.97039504  0.32082616  0.59162886  1
  H  H3  1  0.67917329  0.02960522  0.09162884  1
  H  H4  1  0.97039456  0.64956846  0.09162906  1
  H  H5  1  0.35043047  0.32082620  0.09162927  1
  H  H6  1  0.32082611  0.35043064  0.40837122  1
  H  H7  1  0.64956973  0.97039575  0.40837054  1
  H  H8  1  0.02960492  0.67917383  0.40837123  1
  H  H9  1  0.32082672  0.97039484  0.90837126  1
  H  H10  1  0.02960543  0.35043152  0.90837103  1
  H  H11  1  0.64956948  0.67917380  0.90837077  1
  H  H12  1  0.00000042  0.00000067  0.75000081  1
  H  H13  1  0.99999958  0.99999931  0.24999920  1
  H  H14  1  0.33333379  0.66666708  0.68464490  1
  H  H15  1  0.33333332  0.66666646  0.18464551  1
  H  H16  1  0.66666622  0.33333290  0.31535515  1
  H  H17  1  0.66666671  0.33333355  0.81535453  1
loop_
_geom_bond_atom_site_label_1
_geom_bond_atom_site_label_2
_geom_bond_distance
_geom_bond_site_symmetry_2
H0 Sm2 2.320752 1_655
H0 Sm5 2.331106 1_555
H0 Sm0 2.403116 1_555
H0 Sm1 2.581764 1_565
H1 Sm0 2.320748 1_555
H1 Sm3 2.331108 1_555
H1 Sm1 2.403121 1_555
H1 Sm2 2.581760 1_545
H2 Sm1 2.320747 1_555
H2 Sm4 2.331104 1_555
H2 Sm2 2.403118 1_655
H2 Sm0 2.581773 1_655
H3 Sm4 2.320750 1_555
H3 Sm1 2.331106 1_554
H3 Sm3 2.403114 1_555
H3 Sm5 2.581773 1_545
H4 Sm5 2.320746 1_555
H4 Sm2 2.331106 1_654
H4 Sm4 2.403118 1_555
H4 Sm3 2.581773 1_665
H5 Sm3 2.320750 1_555
H5 Sm0 2.331106 1_554
H5 Sm5 2.403117 1_555
H5 Sm4 2.581763 1_455
H6 Sm4 2.320752 1_455
H6 Sm0 2.331106 1_555
H6 Sm5 2.403117 1_555
H6 Sm3 2.581764 1_555
H7 Sm5 2.320748 1_555
H7 Sm1 2.331108 1_565
H7 Sm3 2.403121 1_565
H7 Sm4 2.581760 1_565
H8 Sm3 2.320747 1_565
H8 Sm2 2.331104 1_555
H8 Sm4 2.403118 1_455
H8 Sm5 2.581773 1_455
H9 Sm2 2.320750 1_555
H9 Sm3 2.331106 1_566
H9 Sm1 2.403114 1_565
H9 Sm0 2.581773 1_565
H10 Sm0 2.320746 1_555
H10 Sm4 2.331106 1_456
H10 Sm2 2.403118 1_555
H10 Sm1 2.581773 1_455
H11 Sm1 2.320749 1_565
H11 Sm5 2.331107 1_556
H11 Sm0 2.403117 1_555
H11 Sm2 2.581763 1_655
H12 Sm0 2.203286 1_555
H12 Sm1 2.203287 1_455
H12 Sm2 2.203288 1_545
H13 Sm5 2.203285 1_555
H13 Sm3 2.203287 1_665
H13 Sm4 2.203288 1_565
H14 Sm1 2.213295 1_565
H14 Sm0 2.213297 1_555
H14 Sm2 2.213298 1_555
H15 Sm5 2.213296 1_555
H15 Sm4 2.213296 1_455
H15 Sm3 2.213297 1_565
H16 Sm3 2.213295 1_555
H16 Sm5 2.213297 1_555
H16 Sm4 2.213298 1_555
H17 Sm0 2.213296 1_555
H17 Sm2 2.213296 1_655
H17 Sm1 2.213297 1_555
