# generated using pymatgen
data_Mg3Si4(NiO7)2
_symmetry_space_group_name_H-M   'P 1'
_cell_length_a   9.24079732
_cell_length_b   9.24079732
_cell_length_c   9.66681504
_cell_angle_alpha   58.80249321
_cell_angle_beta   58.80249321
_cell_angle_gamma   47.55797102
_symmetry_Int_Tables_number   1
_chemical_formula_structural   Mg3Si4(NiO7)2
_chemical_formula_sum   'Mg6 Si8 Ni4 O28'
_cell_volume   502.18160342
_cell_formula_units_Z   2
loop_
 _symmetry_equiv_pos_site_id
 _symmetry_equiv_pos_as_xyz
  1  'x, y, z'
loop_
 _atom_site_type_symbol
 _atom_site_label
 _atom_site_symmetry_multiplicity
 _atom_site_fract_x
 _atom_site_fract_y
 _atom_site_fract_z
 _atom_site_occupancy
  Mg  Mg0  1  0.09447600  0.25076000  0.10121200  1
  Mg  Mg1  1  0.74924000  0.90552400  0.39878800  1
  Mg  Mg2  1  0.25076000  0.09447600  0.60121200  1
  Mg  Mg3  1  0.37817400  0.62182600  0.75000000  1
  Mg  Mg4  1  0.90552400  0.74924000  0.89878800  1
  Mg  Mg5  1  0.62182600  0.37817400  0.25000000  1
  Si  Si0  1  0.53720100  0.09874000  0.70579800  1
  Si  Si1  1  0.09874000  0.53720100  0.20579800  1
  Si  Si2  1  0.53220100  0.22771200  0.10124800  1
  Si  Si3  1  0.22771200  0.53220100  0.60124800  1
  Si  Si4  1  0.90126000  0.46279900  0.79420200  1
  Si  Si5  1  0.46779900  0.77228900  0.89875200  1
  Si  Si6  1  0.77228900  0.46779900  0.39875200  1
  Si  Si7  1  0.46279900  0.90126000  0.29420200  1
  Ni  Ni0  1  0.78125800  0.21874200  0.75000000  1
  Ni  Ni1  1  0.21874200  0.78125800  0.25000000  1
  Ni  Ni2  1  0.00000000  0.00000000  0.00000000  1
  Ni  Ni3  1  0.00000000  0.00000000  0.50000000  1
  O  O0  1  0.85063200  0.29225300  0.32553700  1
  O  O1  1  0.97960300  0.87734500  0.41790800  1
  O  O2  1  0.46115000  0.63248100  0.09044700  1
  O  O3  1  0.87734500  0.97960300  0.91790800  1
  O  O4  1  0.24160800  0.97079500  0.30600900  1
  O  O5  1  0.05763300  0.50892300  0.61770900  1
  O  O6  1  0.63248100  0.46115000  0.59044700  1
  O  O7  1  0.02920500  0.75839200  0.19399100  1
  O  O8  1  0.94236700  0.49107700  0.38229100  1
  O  O9  1  0.64162500  0.67406900  0.26318300  1
  O  O10  1  0.02039700  0.12265500  0.58209200  1
  O  O11  1  0.75839200  0.02920500  0.69399100  1
  O  O12  1  0.49107700  0.94236700  0.88229100  1
  O  O13  1  0.29225300  0.85063200  0.82553700  1
  O  O14  1  0.67406900  0.64162500  0.76318300  1
  O  O15  1  0.97079500  0.24160800  0.80600900  1
  O  O16  1  0.91003600  0.48302700  0.94540600  1
  O  O17  1  0.35837500  0.32593100  0.73681700  1
  O  O18  1  0.51697300  0.08996400  0.55459400  1
  O  O19  1  0.32593100  0.35837500  0.23681700  1
  O  O20  1  0.50892300  0.05763300  0.11770900  1
  O  O21  1  0.12265500  0.02039700  0.08209200  1
  O  O22  1  0.48302700  0.91003600  0.44540600  1
  O  O23  1  0.53885000  0.36751900  0.90955300  1
  O  O24  1  0.08996400  0.51697300  0.05459400  1
  O  O25  1  0.36751900  0.53885000  0.40955300  1
  O  O26  1  0.70774700  0.14936800  0.17446300  1
  O  O27  1  0.14936800  0.70774700  0.67446300  1
loop_
_geom_bond_atom_site_label_1
_geom_bond_atom_site_label_2
_geom_bond_distance
_geom_bond_site_symmetry_2
Mg0 O16 2.037926 1_454
Mg0 O21 2.059876 1_555
Mg0 O0 2.135417 1_455
Mg0 O24 2.233621 1_555
Mg0 O4 2.279471 1_545
Mg1 O18 2.037926 1_565
Mg1 O1 2.059876 1_555
Mg1 O26 2.135417 1_565
Mg1 O22 2.233621 1_555
Mg1 O7 2.279471 1_655
Mg2 O22 2.037926 1_545
Mg2 O10 2.059876 1_555
Mg2 O13 2.135417 1_545
Mg2 O18 2.233621 1_555
Mg2 O15 2.279471 1_455
Mg3 O23 2.003519 1_555
Mg3 O6 2.003519 1_555
Mg3 O13 2.089764 1_555
Mg3 O27 2.089764 1_555
Mg4 O24 2.037926 1_656
Mg4 O3 2.059876 1_555
Mg4 O27 2.135417 1_655
Mg4 O16 2.233621 1_555
Mg4 O11 2.279471 1_565
Mg5 O2 2.003519 1_555
Mg5 O25 2.003519 1_555
Mg5 O0 2.089764 1_555
Mg5 O26 2.089764 1_555
Ni0 O3 1.853428 1_545
Ni0 O10 1.853428 1_655
Ni0 O23 1.935908 1_555
Ni0 O6 1.935908 1_555
Ni0 O15 2.237384 1_555
Ni0 O11 2.237384 1_555
Ni1 O1 1.853428 1_455
Ni1 O21 1.853428 1_565
Ni1 O25 1.935908 1_555
Ni1 O2 1.935908 1_555
Ni1 O4 2.237384 1_555
Ni1 O7 2.237384 1_555
Ni2 O21 1.823473 1_555
Ni2 O3 1.823473 1_444
Ni2 O15 1.986908 1_454
Ni2 O7 1.986908 1_545
Ni2 O26 2.169073 1_455
Ni2 O13 2.169073 1_544
Ni3 O10 1.823473 1_555
Ni3 O1 1.823473 1_445
Ni3 O11 1.986908 1_455
Ni3 O4 1.986908 1_545
Ni3 O27 2.169073 1_545
Ni3 O0 2.169073 1_455
O0 Si6 1.652289 1_555
O2 Si5 1.617333 1_554
O4 Si7 1.632608 1_555
O5 Si3 1.644224 1_555
O5 Si4 1.644515 1_455
O6 Si6 1.617333 1_555
O7 Si1 1.632608 1_555
O8 Si6 1.644215 1_555
O8 Si1 1.644515 1_655
O9 Si7 1.638481 1_555
O9 Si6 1.659437 1_555
O11 Si0 1.632608 1_555
O12 Si5 1.644215 1_555
O12 Si0 1.644515 1_565
O13 Si5 1.652289 1_555
O14 Si4 1.638481 1_555
O14 Si5 1.659437 1_555
O15 Si4 1.632608 1_555
O16 Si4 1.613778 1_555
O17 Si0 1.638481 1_555
O17 Si3 1.659434 1_555
O18 Si0 1.613778 1_555
O19 Si1 1.638481 1_555
O19 Si2 1.659434 1_555
O20 Si2 1.644224 1_555
O20 Si7 1.644515 1_545
O22 Si7 1.613778 1_555
O23 Si2 1.617331 1_556
O24 Si1 1.613778 1_555
O25 Si3 1.617331 1_555
O26 Si2 1.652285 1_555
O27 Si3 1.652285 1_555
