# generated using pymatgen
data_Si48O107
_symmetry_space_group_name_H-M   'P 1'
_cell_length_a   17.35864604
_cell_length_b   17.35557097
_cell_length_c   17.34889118
_cell_angle_alpha   89.99997663
_cell_angle_beta   60.01851023
_cell_angle_gamma   119.99416895
_symmetry_Int_Tables_number   1
_chemical_formula_structural   Si48O107
_chemical_formula_sum   'Si48 O107'
_cell_volume   3697.18422498
_cell_formula_units_Z   1
loop_
 _symmetry_equiv_pos_site_id
 _symmetry_equiv_pos_as_xyz
  1  'x, y, z'
loop_
 _atom_site_type_symbol
 _atom_site_label
 _atom_site_symmetry_multiplicity
 _atom_site_fract_x
 _atom_site_fract_y
 _atom_site_fract_z
 _atom_site_occupancy
  Si  Si0  1  0.60752860  0.39209751  0.85684783  1
  Si  Si1  1  0.60752807  0.21543098  0.03562384  1
  Si  Si2  1  0.89242356  0.85675819  0.39211716  1
  Si  Si3  1  0.89242323  0.03566537  0.21546004  1
  Si  Si4  1  0.07237584  0.21561294  0.39213126  1
  Si  Si5  1  0.42758775  0.39204910  0.21555932  1
  Si  Si6  1  0.42758791  0.03553861  0.85685277  1
  Si  Si7  1  0.07237598  0.85676248  0.03549280  1
  Si  Si8  1  0.24886277  0.85677367  0.21557282  1
  Si  Si9  1  0.25113591  0.03557046  0.39211328  1
  Si  Si10  1  0.24886293  0.39208932  0.03556437  1
  Si  Si11  1  0.25113567  0.21556543  0.85675133  1
  Si  Si12  1  0.24886309  0.39208918  0.21557191  1
  Si  Si13  1  0.25113602  0.21556551  0.39211311  1
  Si  Si14  1  0.24886263  0.85677373  0.03556546  1
  Si  Si15  1  0.25113595  0.03557031  0.85675073  1
  Si  Si16  1  0.60752856  0.21543153  0.85684754  1
  Si  Si17  1  0.60752815  0.39209670  0.03562402  1
  Si  Si18  1  0.89242294  0.03566475  0.39211723  1
  Si  Si19  1  0.89242266  0.85675812  0.21546020  1
  Si  Si20  1  0.07237578  0.85676220  0.39213117  1
  Si  Si21  1  0.42758785  0.03553887  0.21555957  1
  Si  Si22  1  0.42758837  0.39204938  0.85685237  1
  Si  Si23  1  0.07237601  0.21561371  0.03549277  1
  Si  Si24  1  0.39252255  0.60792964  0.14318473  1
  Si  Si25  1  0.39252288  0.78459301  0.96429238  1
  Si  Si26  1  0.10752962  0.14318704  0.60792478  1
  Si  Si27  1  0.10752981  0.96434221  0.78454470  1
  Si  Si28  1  0.92759309  0.78440355  0.60803630  1
  Si  Si29  1  0.57240088  0.60789526  0.78448030  1
  Si  Si30  1  0.57240070  0.96450561  0.14311898  1
  Si  Si31  1  0.92759326  0.14319010  0.96437133  1
  Si  Si32  1  0.75113365  0.14319868  0.78450767  1
  Si  Si33  1  0.74890168  0.96446560  0.60799374  1
  Si  Si34  1  0.75113374  0.60793475  0.96435852  1
  Si  Si35  1  0.74890179  0.78443578  0.14310453  1
  Si  Si36  1  0.75113461  0.60793553  0.78450707  1
  Si  Si37  1  0.74890250  0.78443596  0.60799383  1
  Si  Si38  1  0.75113405  0.14319853  0.96435853  1
  Si  Si39  1  0.74890265  0.96446660  0.14310409  1
  Si  Si40  1  0.39252266  0.78459295  0.14318420  1
  Si  Si41  1  0.39252293  0.60792983  0.96429279  1
  Si  Si42  1  0.10752912  0.96434191  0.60792500  1
  Si  Si43  1  0.10752933  0.14318723  0.78454547  1
  Si  Si44  1  0.92759284  0.14318891  0.60803625  1
  Si  Si45  1  0.57240030  0.96450513  0.78448013  1
  Si  Si46  1  0.57240061  0.60789502  0.14311928  1
  Si  Si47  1  0.92759275  0.78440314  0.96437144  1
  O  O0  1  0.50604381  0.36427003  0.14179490  1
  O  O1  1  0.50604370  0.14177387  0.85216141  1
  O  O2  1  0.99385394  0.14167262  0.36434759  1
  O  O3  1  0.99385402  0.85218142  0.14179801  1
  O  O4  1  0.28338894  0.14169481  0.36433992  1
  O  O5  1  0.21656144  0.36423031  0.14172001  1
  O  O6  1  0.21656140  0.85233122  0.14171901  1
  O  O7  1  0.28338847  0.14169434  0.85227142  1
  O  O8  1  0.50604365  0.14177407  0.14179479  1
  O  O9  1  0.99385343  0.85218123  0.36434696  1
  O  O10  1  0.50604293  0.36426938  0.85216094  1
  O  O11  1  0.99385326  0.14167235  0.14179948  1
  O  O12  1  0.49415330  0.63595963  0.85809510  1
  O  O13  1  0.49415379  0.85819411  0.14775213  1
  O  O14  1  0.00603575  0.85816516  0.63580323  1
  O  O15  1  0.00603623  0.14787047  0.85816113  1
  O  O16  1  0.71635215  0.85817537  0.63578281  1
  O  O17  1  0.78375751  0.63593133  0.85812120  1
  O  O18  1  0.78375731  0.14782624  0.85812087  1
  O  O19  1  0.71635270  0.85817591  0.14786464  1
  O  O20  1  0.49415383  0.85819424  0.85809480  1
  O  O21  1  0.00603519  0.14787050  0.63580338  1
  O  O22  1  0.49415416  0.63596013  0.14775135  1
  O  O23  1  0.00603512  0.85816509  0.85816129  1
  O  O24  1  0.35705819  0.03504629  0.32205914  1
  O  O25  1  0.35705749  0.32201162  0.82088273  1
  O  O26  1  0.14291903  0.32204072  0.03502606  1
  O  O27  1  0.14291903  0.82087872  0.32205526  1
  O  O28  1  0.64432913  0.32216435  0.03462863  1
  O  O29  1  0.85589144  0.03507662  0.32205345  1
  O  O30  1  0.85589145  0.82081531  0.32205431  1
  O  O31  1  0.64432986  0.32216479  0.82104157  1
  O  O32  1  0.35705736  0.32201189  0.32205954  1
  O  O33  1  0.14291901  0.82087911  0.03502593  1
  O  O34  1  0.35705724  0.03504589  0.82088299  1
  O  O35  1  0.14291876  0.32204036  0.32205536  1
  O  O36  1  0.64315210  0.96521910  0.67781550  1
  O  O37  1  0.64315258  0.67793332  0.17903212  1
  O  O38  1  0.85686458  0.67784905  0.96523491  1
  O  O39  1  0.85686439  0.17901550  0.67790058  1
  O  O40  1  0.35568163  0.67784056  0.96540255  1
  O  O41  1  0.14442303  0.96541308  0.67778943  1
  O  O42  1  0.14442267  0.17900944  0.67778894  1
  O  O43  1  0.35568152  0.67784096  0.17891588  1
  O  O44  1  0.64315115  0.67793198  0.67781616  1
  O  O45  1  0.85686450  0.17901525  0.96523463  1
  O  O46  1  0.64315190  0.96521893  0.17903289  1
  O  O47  1  0.85686403  0.67784858  0.67790129  1
  O  O48  1  0.75052116  0.87526046  0.87473961  1
  O  O49  1  0.24998479  0.12499232  0.12500775  1
  O  O50  1  0.34732682  0.38132009  0.96607200  1
  O  O51  1  0.34732793  0.96600788  0.18660101  1
  O  O52  1  0.15247719  0.96593860  0.38157296  1
  O  O53  1  0.15247754  0.18653798  0.96594902  1
  O  O54  1  0.93162962  0.96581494  0.38180503  1
  O  O55  1  0.56789484  0.38154456  0.96605266  1
  O  O56  1  0.56789506  0.18635026  0.96605205  1
  O  O57  1  0.93162938  0.96581455  0.18656513  1
  O  O58  1  0.34732704  0.96600774  0.96607171  1
  O  O59  1  0.15247718  0.18653845  0.38157201  1
  O  O60  1  0.34732647  0.38131940  0.18660149  1
  O  O61  1  0.15247791  0.96593962  0.96594948  1
  O  O62  1  0.65244255  0.61840555  0.03403389  1
  O  O63  1  0.65244218  0.03403766  0.81352396  1
  O  O64  1  0.84756761  0.03389337  0.61846660  1
  O  O65  1  0.84756727  0.81367483  0.03396634  1
  O  O66  1  0.06792157  0.03396043  0.61859773  1
  O  O67  1  0.43209240  0.61851499  0.03395417  1
  O  O68  1  0.43209295  0.81357764  0.03395355  1
  O  O69  1  0.06792144  0.03396059  0.81348119  1
  O  O70  1  0.65244224  0.03403766  0.03403477  1
  O  O71  1  0.84756656  0.81367412  0.61846696  1
  O  O72  1  0.65244247  0.61840499  0.81352356  1
  O  O73  1  0.84756675  0.03389287  0.03396695  1
  O  O74  1  0.49972256  0.49998653  0.21215429  1
  O  O75  1  0.49972254  0.99973608  0.78812315  1
  O  O76  1  0.99993076  0.21206850  0.50004657  1
  O  O77  1  0.99992984  0.78786139  0.00002197  1
  O  O78  1  0.21200136  0.99993880  0.50005826  1
  O  O79  1  0.28811857  0.50009514  0.99990571  1
  O  O80  1  0.28811898  0.78802335  0.21197566  1
  O  O81  1  0.21200179  0.21206306  0.78794019  1
  O  O82  1  0.71197512  0.21207198  0.99988222  1
  O  O83  1  0.78793864  0.78780506  0.49997566  1
  O  O84  1  0.71197486  0.49990284  0.78814238  1
  O  O85  1  0.78793825  0.00013329  0.21208612  1
  O  O86  1  0.71197581  0.49990308  0.99988185  1
  O  O87  1  0.78793850  0.00013377  0.49997510  1
  O  O88  1  0.71197591  0.21207245  0.78814189  1
  O  O89  1  0.78793742  0.78780365  0.21208594  1
  O  O90  1  0.49972364  0.99973708  0.21215424  1
  O  O91  1  0.49972374  0.49998705  0.78812215  1
  O  O92  1  0.99992988  0.78786192  0.50004804  1
  O  O93  1  0.99993008  0.21206896  0.00002164  1
  O  O94  1  0.21200104  0.21206273  0.50005881  1
  O  O95  1  0.28811900  0.78802292  0.99990616  1
  O  O96  1  0.28811893  0.50009513  0.21197554  1
  O  O97  1  0.21200131  0.99993913  0.78793932  1
  O  O98  1  0.75008272  0.55176078  0.55156253  1
  O  O99  1  0.75008272  0.19832196  0.19835475  1
  O  O100  1  0.75008313  0.19832218  0.55156253  1
  O  O101  1  0.75008313  0.55176082  0.19835464  1
  O  O102  1  0.60358391  0.80179181  0.44820806  1
  O  O103  1  0.24995617  0.44825563  0.44825182  1
  O  O104  1  0.24995626  0.80170035  0.80179193  1
  O  O105  1  0.24995594  0.80170034  0.44825178  1
  O  O106  1  0.24995618  0.44825549  0.80179235  1
loop_
_geom_bond_atom_site_label_1
_geom_bond_atom_site_label_2
_geom_bond_distance
_geom_bond_site_symmetry_2
O0 Si17 1.623487 1_555
O0 Si5 1.624655 1_555
O1 Si16 1.623491 1_555
O1 Si6 1.624657 1_555
O2 Si18 1.621895 1_555
O2 Si4 1.626283 1_655
O3 Si19 1.621901 1_555
O3 Si7 1.626280 1_655
O4 Si13 1.623996 1_555
O4 Si9 1.624007 1_555
O5 Si12 1.623800 1_555
O5 Si10 1.623834 1_555
O6 Si14 1.623801 1_555
O6 Si8 1.623829 1_555
O7 Si11 1.624001 1_555
O7 Si15 1.624005 1_555
O8 Si1 1.623484 1_555
O8 Si21 1.624657 1_555
O9 Si2 1.621876 1_555
O9 Si20 1.626301 1_655
O10 Si0 1.623509 1_555
O10 Si22 1.624644 1_555
O11 Si3 1.621879 1_555
O11 Si23 1.626299 1_655
O12 Si41 1.623838 1_555
O12 Si29 1.625101 1_555
O13 Si40 1.623858 1_555
O13 Si30 1.625090 1_555
O14 Si42 1.623569 1_555
O14 Si28 1.624114 1_455
O15 Si43 1.623567 1_555
O15 Si31 1.624125 1_455
O16 Si37 1.624896 1_555
O16 Si33 1.624909 1_555
O17 Si34 1.623430 1_555
O17 Si36 1.623430 1_555
O18 Si32 1.623423 1_555
O18 Si38 1.623437 1_555
O19 Si35 1.624895 1_555
O19 Si39 1.624915 1_555
O20 Si25 1.623840 1_555
O20 Si45 1.625088 1_555
O21 Si26 1.623587 1_555
O21 Si44 1.624108 1_455
O22 Si24 1.623851 1_555
O22 Si46 1.625097 1_555
O23 Si27 1.623581 1_555
O23 Si47 1.624121 1_455
O24 Si9 1.625181 1_555
O24 Si21 1.625274 1_555
O25 Si11 1.625174 1_555
O25 Si22 1.625289 1_555
O26 Si23 1.624802 1_555
O26 Si10 1.625407 1_555
O27 Si20 1.624795 1_555
O27 Si8 1.625407 1_555
O28 Si17 1.626551 1_555
O28 Si1 1.626551 1_555
O29 Si3 1.625897 1_555
O29 Si18 1.625932 1_555
O30 Si19 1.625911 1_555
O30 Si2 1.625921 1_555
O31 Si16 1.626548 1_555
O31 Si0 1.626562 1_555
O32 Si13 1.625174 1_555
O32 Si5 1.625280 1_555
O33 Si7 1.624794 1_555
O33 Si14 1.625417 1_555
O34 Si15 1.625169 1_555
O34 Si6 1.625290 1_555
O35 Si4 1.624804 1_555
O35 Si12 1.625418 1_555
O36 Si33 1.624444 1_555
O36 Si45 1.626732 1_555
O37 Si35 1.624436 1_555
O37 Si46 1.626739 1_555
O38 Si47 1.624518 1_555
O38 Si34 1.625526 1_555
O39 Si44 1.624528 1_555
O39 Si32 1.625521 1_555
O40 Si41 1.626362 1_555
O40 Si25 1.626367 1_555
O41 Si27 1.625840 1_555
O41 Si42 1.625889 1_555
O42 Si43 1.625859 1_555
O42 Si26 1.625875 1_555
O43 Si40 1.626362 1_555
O43 Si24 1.626367 1_555
O44 Si37 1.624459 1_555
O44 Si29 1.626722 1_555
O45 Si31 1.624520 1_555
O45 Si38 1.625517 1_555
O46 Si39 1.624449 1_555
O46 Si30 1.626743 1_555
O47 Si28 1.624527 1_555
O47 Si36 1.625500 1_555
O50 Si22 1.633500 1_555
O50 Si10 1.633930 1_556
O51 Si21 1.633483 1_565
O51 Si8 1.633947 1_555
O52 Si20 1.633556 1_555
O52 Si9 1.634182 1_565
O53 Si23 1.633570 1_556
O53 Si11 1.634159 1_555
O54 Si18 1.633412 1_565
O54 Si2 1.633418 1_555
O55 Si0 1.633282 1_555
O55 Si17 1.633284 1_556
O56 Si16 1.633279 1_555
O56 Si1 1.633287 1_556
O57 Si19 1.633411 1_555
O57 Si3 1.633423 1_565
O58 Si6 1.633484 1_565
O58 Si14 1.633944 1_556
O59 Si4 1.633544 1_555
O59 Si13 1.634192 1_555
O60 Si5 1.633492 1_555
O60 Si12 1.633932 1_555
O61 Si7 1.633564 1_556
O61 Si15 1.634170 1_565
O62 Si46 1.632155 1_555
O62 Si34 1.634216 1_554
O63 Si45 1.632168 1_545
O63 Si32 1.634204 1_555
O64 Si33 1.632770 1_545
O64 Si44 1.635487 1_555
O65 Si35 1.632755 1_555
O65 Si47 1.635508 1_554
O66 Si42 1.634089 1_545
O66 Si26 1.634095 1_555
O67 Si24 1.633889 1_555
O67 Si41 1.633897 1_554
O68 Si40 1.633888 1_555
O68 Si25 1.633901 1_554
O69 Si43 1.634097 1_555
O69 Si27 1.634099 1_545
O70 Si30 1.632144 1_545
O70 Si38 1.634206 1_554
O71 Si37 1.632742 1_555
O71 Si28 1.635511 1_555
O72 Si29 1.632154 1_555
O72 Si36 1.634215 1_555
O73 Si39 1.632740 1_545
O73 Si31 1.635509 1_554
O74 Si46 1.631267 1_555
O74 Si5 1.631411 1_555
O75 Si45 1.631272 1_555
O75 Si6 1.631407 1_565
O76 Si4 1.630939 1_655
O76 Si44 1.632111 1_555
O77 Si7 1.630963 1_655
O77 Si47 1.632085 1_554
O78 Si9 1.630801 1_565
O78 Si42 1.631092 1_555
O79 Si41 1.630504 1_555
O79 Si10 1.631682 1_556
O80 Si40 1.630496 1_555
O80 Si8 1.631692 1_555
O81 Si11 1.630807 1_555
O81 Si43 1.631101 1_555
O82 Si1 1.630076 1_556
O82 Si38 1.632300 1_555
O83 Si2 1.631284 1_555
O83 Si37 1.632694 1_555
O84 Si0 1.630064 1_555
O84 Si36 1.632301 1_555
O85 Si3 1.631291 1_555
O85 Si39 1.632689 1_545
O86 Si17 1.630080 1_556
O86 Si34 1.632292 1_555
O87 Si18 1.631278 1_555
O87 Si33 1.632700 1_545
O88 Si16 1.630081 1_555
O88 Si32 1.632292 1_555
O89 Si19 1.631303 1_555
O89 Si35 1.632682 1_555
O90 Si30 1.631274 1_555
O90 Si21 1.631415 1_565
O91 Si29 1.631269 1_555
O91 Si22 1.631414 1_555
O92 Si20 1.630954 1_655
O92 Si28 1.632090 1_555
O93 Si23 1.630965 1_655
O93 Si31 1.632079 1_554
O94 Si13 1.630812 1_555
O94 Si26 1.631082 1_555
O95 Si25 1.630491 1_555
O95 Si14 1.631703 1_556
O96 Si24 1.630497 1_555
O96 Si12 1.631686 1_555
O97 Si15 1.630818 1_565
O97 Si27 1.631084 1_555
