# generated using pymatgen
data_Ga4Ni3Pt
_symmetry_space_group_name_H-M   'P 1'
_cell_length_a   4.74685301
_cell_length_b   4.74685301
_cell_length_c   4.74685301
_cell_angle_alpha   90.30256474
_cell_angle_beta   89.69743526
_cell_angle_gamma   90.30256474
_symmetry_Int_Tables_number   1
_chemical_formula_structural   Ga4Ni3Pt
_chemical_formula_sum   'Ga4 Ni3 Pt1'
_cell_volume   106.95454561
_cell_formula_units_Z   1
loop_
 _symmetry_equiv_pos_site_id
 _symmetry_equiv_pos_as_xyz
  1  'x, y, z'
loop_
 _atom_site_type_symbol
 _atom_site_label
 _atom_site_symmetry_multiplicity
 _atom_site_fract_x
 _atom_site_fract_y
 _atom_site_fract_z
 _atom_site_occupancy
  Ga  Ga0  1  0.16676600  0.33323400  0.66676600  1
  Ga  Ga1  1  0.34572800  0.66266100  0.14418500  1
  Ga  Ga2  1  0.64418500  0.15427200  0.33733900  1
  Ga  Ga3  1  0.83733900  0.85581500  0.84572800  1
  Ni  Ni0  1  0.63986700  0.35551700  0.85956900  1
  Ni  Ni1  1  0.35956900  0.86013300  0.64448300  1
  Ni  Ni2  1  0.14448300  0.14043100  0.13986700  1
  Pt  Pt0  1  0.86206300  0.63793700  0.36206300  1
loop_
_geom_bond_atom_site_label_1
_geom_bond_atom_site_label_2
_geom_bond_distance
_geom_bond_site_symmetry_2
Ga0 Ni0 2.431115 1_555
Ga0 Ni2 2.431115 1_556
Ga0 Ni1 2.431115 1_545
Ga0 Pt0 2.518399 1_455
Ga0 Ni1 2.661193 1_555
Ga0 Ni0 2.661193 1_455
Ga0 Ni2 2.661193 1_555
Ga1 Ni0 2.425118 1_554
Ga1 Ni2 2.465755 1_565
Ga1 Pt0 2.515526 1_455
Ga1 Ni1 2.549576 1_555
Ga1 Ni1 2.555505 1_554
Ga1 Ni2 2.651948 1_555
Ga1 Pt0 2.668659 1_555
Ga2 Ni1 2.425118 1_545
Ga2 Ni0 2.465755 1_554
Ga2 Pt0 2.515526 1_555
Ga2 Ni2 2.549576 1_655
Ga2 Ni2 2.555505 1_555
Ga2 Ni0 2.651948 1_555
Ga2 Pt0 2.668659 1_545
Ga3 Ni2 2.425118 1_666
Ga3 Ni1 2.465755 1_555
Ga3 Pt0 2.515526 1_555
Ga3 Ni0 2.549576 1_555
Ga3 Ni0 2.555505 1_565
Ga3 Ni1 2.651948 1_655
Ga3 Pt0 2.668659 1_556
Ni0 Pt0 2.911868 1_555
Ni0 Pt0 2.928658 1_556
Ni1 Pt0 2.911868 1_455
Ni1 Pt0 2.928658 1_555
Ni2 Pt0 2.911868 1_455
Ni2 Pt0 2.928658 1_445
