# generated using pymatgen
data_LiSbWO6
_symmetry_space_group_name_H-M   'P 1'
_cell_length_a   4.75928800
_cell_length_b   5.09390500
_cell_length_c   17.74070400
_cell_angle_alpha   90.00000000
_cell_angle_beta   90.00000000
_cell_angle_gamma   90.00000000
_symmetry_Int_Tables_number   1
_chemical_formula_structural   LiSbWO6
_chemical_formula_sum   'Li4 Sb4 W4 O24'
_cell_volume   430.09429040
_cell_formula_units_Z   4
loop_
 _symmetry_equiv_pos_site_id
 _symmetry_equiv_pos_as_xyz
  1  'x, y, z'
loop_
 _atom_site_type_symbol
 _atom_site_label
 _atom_site_symmetry_multiplicity
 _atom_site_fract_x
 _atom_site_fract_y
 _atom_site_fract_z
 _atom_site_occupancy
  Li  Li0  1  0.00000000  0.75000000  0.04792900  1
  Li  Li1  1  0.50000000  0.25000000  0.45207100  1
  Li  Li2  1  0.00000000  0.25000000  0.95207100  1
  Li  Li3  1  0.50000000  0.75000000  0.54792900  1
  Sb  Sb0  1  0.00000000  0.75000000  0.71846300  1
  Sb  Sb1  1  0.00000000  0.25000000  0.28153700  1
  Sb  Sb2  1  0.50000000  0.75000000  0.21846300  1
  Sb  Sb3  1  0.50000000  0.25000000  0.78153700  1
  W  W0  1  0.50000000  0.25000000  0.10323700  1
  W  W1  1  0.00000000  0.25000000  0.60323700  1
  W  W2  1  0.50000000  0.75000000  0.89676300  1
  W  W3  1  0.00000000  0.75000000  0.39676300  1
  O  O0  1  0.29382900  0.56089200  0.13615300  1
  O  O1  1  0.73991500  0.92020500  0.79332500  1
  O  O2  1  0.23991500  0.07979500  0.70667500  1
  O  O3  1  0.76008500  0.42020500  0.70667500  1
  O  O4  1  0.26008500  0.57979500  0.79332500  1
  O  O5  1  0.26008500  0.07979500  0.20667500  1
  O  O6  1  0.76008500  0.92020500  0.29332500  1
  O  O7  1  0.23991500  0.57979500  0.29332500  1
  O  O8  1  0.79382900  0.43910800  0.36384700  1
  O  O9  1  0.29382900  0.06089200  0.86384700  1
  O  O10  1  0.70617100  0.93910800  0.13615300  1
  O  O11  1  0.20617100  0.06089200  0.36384700  1
  O  O12  1  0.20617100  0.56089200  0.63615300  1
  O  O13  1  0.70617100  0.43910800  0.86384700  1
  O  O14  1  0.75384000  0.39392600  0.04239300  1
  O  O15  1  0.79382900  0.93910800  0.63615300  1
  O  O16  1  0.75384000  0.89392600  0.95760700  1
  O  O17  1  0.25384000  0.60607400  0.45760700  1
  O  O18  1  0.74616000  0.89392600  0.45760700  1
  O  O19  1  0.24616000  0.10607400  0.04239300  1
  O  O20  1  0.24616000  0.60607400  0.95760700  1
  O  O21  1  0.74616000  0.39392600  0.54239300  1
  O  O22  1  0.25384000  0.10607400  0.54239300  1
  O  O23  1  0.73991500  0.42020500  0.20667500  1
loop_
_geom_bond_atom_site_label_1
_geom_bond_atom_site_label_2
_geom_bond_distance
_geom_bond_site_symmetry_2
Li0 O16 2.116041 1_454
Li0 O20 2.116041 1_554
Li0 O14 2.161496 1_455
Li0 O19 2.161496 1_565
Li0 O10 2.309378 1_455
Li0 O0 2.309378 1_555
Li1 O21 2.116041 1_555
Li1 O22 2.116041 1_555
Li1 O18 2.161496 1_545
Li1 O17 2.161496 1_555
Li1 O8 2.309378 1_555
Li1 O11 2.309378 1_555
Li2 O19 2.116041 1_556
Li2 O14 2.116041 1_456
Li2 O16 2.161496 1_445
Li2 O20 2.161496 1_555
Li2 O13 2.309378 1_455
Li2 O9 2.309378 1_555
Li3 O18 2.116041 1_555
Li3 O17 2.116041 1_555
Li3 O21 2.161496 1_555
Li3 O22 2.161496 1_565
Li3 O15 2.309378 1_555
Li3 O12 2.309378 1_555
O0 W0 1.952375 1_555
O0 Sb2 2.005753 1_555
O1 Sb0 2.011905 1_655
O1 Sb3 2.041987 1_565
O1 W2 2.328717 1_555
O2 Sb3 2.011905 1_555
O2 Sb0 2.041987 1_545
O2 W1 2.328717 1_555
O3 Sb3 2.011905 1_555
O3 Sb0 2.041987 1_655
O3 W1 2.328717 1_655
O4 Sb0 2.011905 1_555
O4 Sb3 2.041987 1_555
O4 W2 2.328717 1_555
O5 Sb1 2.011905 1_555
O5 Sb2 2.041987 1_545
O5 W0 2.328717 1_555
O6 Sb2 2.011905 1_555
O6 Sb1 2.041987 1_665
O6 W3 2.328717 1_655
O7 Sb2 2.011905 1_555
O7 Sb1 2.041987 1_555
O7 W3 2.328717 1_555
O8 W3 1.952375 1_655
O8 Sb1 2.005753 1_655
O9 W2 1.952375 1_545
O9 Sb3 2.005753 1_555
O10 W0 1.952375 1_565
O10 Sb2 2.005753 1_555
O11 W3 1.952375 1_545
O11 Sb1 2.005753 1_555
O12 W1 1.952375 1_555
O12 Sb0 2.005753 1_555
O13 W2 1.952375 1_555
O13 Sb3 2.005753 1_555
O14 W0 1.778241 1_555
O15 W1 1.952375 1_665
O15 Sb0 2.005753 1_655
O16 W2 1.778241 1_555
O17 W3 1.778241 1_555
O18 W3 1.778241 1_655
O19 W0 1.778241 1_555
O20 W2 1.778241 1_555
O21 W1 1.778241 1_655
O22 W1 1.778241 1_555
O23 Sb1 2.011905 1_655
O23 Sb2 2.041987 1_555
O23 W0 2.328717 1_555
