# generated using pymatgen
data_Hf10NiSb5
_symmetry_space_group_name_H-M   'P 1'
_cell_length_a   5.56439000
_cell_length_b   8.26079143
_cell_length_c   8.26079143
_cell_angle_alpha   96.51313665
_cell_angle_beta   109.68174089
_cell_angle_gamma   70.31825911
_symmetry_Int_Tables_number   1
_chemical_formula_structural   Hf10NiSb5
_chemical_formula_sum   'Hf10 Ni1 Sb5'
_cell_volume   336.64596225
_cell_formula_units_Z   1
loop_
 _symmetry_equiv_pos_site_id
 _symmetry_equiv_pos_as_xyz
  1  'x, y, z'
loop_
 _atom_site_type_symbol
 _atom_site_label
 _atom_site_symmetry_multiplicity
 _atom_site_fract_x
 _atom_site_fract_y
 _atom_site_fract_z
 _atom_site_occupancy
  Hf  Hf0  1  0.93255600  0.85863400  0.70853000  1
  Hf  Hf1  1  0.08265900  0.14136600  0.29147000  1
  Hf  Hf2  1  0.41734100  0.29147000  0.14136600  1
  Hf  Hf3  1  0.56744400  0.70853000  0.85863400  1
  Hf  Hf4  1  0.22402600  0.70853000  0.14136600  1
  Hf  Hf5  1  0.79118900  0.29147000  0.85863400  1
  Hf  Hf6  1  0.27597400  0.14136600  0.70853000  1
  Hf  Hf7  1  0.70881100  0.85863400  0.29147000  1
  Hf  Hf8  1  0.25000000  0.50000000  0.50000000  1
  Hf  Hf9  1  0.75000000  0.50000000  0.50000000  1
  Ni  Ni0  1  0.25000000  0.00000000  0.00000000  1
  Sb  Sb0  1  0.33510900  0.82978200  0.50000000  1
  Sb  Sb1  1  0.66489100  0.17021800  0.50000000  1
  Sb  Sb2  1  0.83510900  0.50000000  0.17021800  1
  Sb  Sb3  1  0.16489100  0.50000000  0.82978200  1
  Sb  Sb4  1  0.75000000  0.00000000  0.00000000  1
loop_
_geom_bond_atom_site_label_1
_geom_bond_atom_site_label_2
_geom_bond_distance
_geom_bond_site_symmetry_2
Hf0 Ni0 2.857969 1_666
Hf0 Sb4 2.898887 1_566
Hf0 Sb1 2.916547 1_565
Hf0 Sb3 2.944942 1_655
Hf0 Sb0 3.191870 1_655
Hf0 Sb0 3.264836 1_555
Hf1 Ni0 2.857972 1_555
Hf1 Sb4 2.898885 1_455
Hf1 Sb0 2.916547 1_545
Hf1 Sb2 2.944942 1_455
Hf1 Sb1 3.191875 1_555
Hf1 Sb1 3.264832 1_455
Hf2 Ni0 2.857972 1_555
Hf2 Sb4 2.898885 1_555
Hf2 Sb3 2.916547 1_554
Hf2 Sb1 2.944942 1_555
Hf2 Sb2 3.191875 1_455
Hf2 Sb2 3.264832 1_555
Hf3 Ni0 2.857969 1_566
Hf3 Sb4 2.898887 1_566
Hf3 Sb2 2.916547 1_556
Hf3 Sb0 2.944942 1_555
Hf3 Sb3 3.191870 1_555
Hf3 Sb3 3.264836 1_655
Hf4 Ni0 2.857969 1_565
Hf4 Sb4 2.898887 1_465
Hf4 Sb3 2.916547 1_554
Hf4 Sb0 2.944942 1_555
Hf4 Sb2 3.191870 1_555
Hf4 Sb2 3.264836 1_455
Hf5 Ni0 2.857972 1_656
Hf5 Sb4 2.898885 1_556
Hf5 Sb2 2.916547 1_556
Hf5 Sb1 2.944942 1_555
Hf5 Sb3 3.191875 1_655
Hf5 Sb3 3.264832 1_555
Hf6 Ni0 2.857969 1_556
Hf6 Sb4 2.898887 1_556
Hf6 Sb0 2.916547 1_545
Hf6 Sb3 2.944942 1_555
Hf6 Sb1 3.191870 1_455
Hf6 Sb1 3.264836 1_555
Hf7 Ni0 2.857972 1_565
Hf7 Sb4 2.898885 1_565
Hf7 Sb1 2.916547 1_565
Hf7 Sb2 2.944942 1_555
Hf7 Sb0 3.191875 1_555
Hf7 Sb0 3.264832 1_655
Hf8 Sb3 2.918031 1_555
Hf8 Sb2 2.918031 1_455
Hf8 Sb1 2.918031 1_555
Hf8 Sb0 2.918031 1_555
Hf9 Sb0 2.918031 1_555
Hf9 Sb1 2.918031 1_555
Hf9 Sb3 2.918031 1_655
Hf9 Sb2 2.918031 1_555
Ni0 Sb4 2.782195 1_455
Ni0 Sb4 2.782195 1_555
