# generated using pymatgen
data_Sc3Nb3(B2Ru5)2
_symmetry_space_group_name_H-M   'P 1'
_cell_length_a   9.50446855
_cell_length_b   9.50446855
_cell_length_c   3.06619700
_cell_angle_alpha   90.00000000
_cell_angle_beta   90.00000000
_cell_angle_gamma   90.02550770
_symmetry_Int_Tables_number   1
_chemical_formula_structural   Sc3Nb3(B2Ru5)2
_chemical_formula_sum   'Sc3 Nb3 B4 Ru10'
_cell_volume   276.98464093
_cell_formula_units_Z   1
loop_
 _symmetry_equiv_pos_site_id
 _symmetry_equiv_pos_as_xyz
  1  'x, y, z'
loop_
 _atom_site_type_symbol
 _atom_site_label
 _atom_site_symmetry_multiplicity
 _atom_site_fract_x
 _atom_site_fract_y
 _atom_site_fract_z
 _atom_site_occupancy
  Sc  Sc0  1  0.17570300  0.82429700  0.00000000  1
  Sc  Sc1  1  0.32463000  0.32536700  0.00000000  1
  Sc  Sc2  1  0.67463300  0.67537000  0.00000000  1
  Nb  Nb0  1  0.49762500  0.99965200  0.00000000  1
  Nb  Nb1  1  0.00034800  0.50237500  0.00000000  1
  Nb  Nb2  1  0.82503400  0.17496600  0.00000000  1
  B  B0  1  0.61990700  0.38009300  0.00000000  1
  B  B1  1  0.37875500  0.62124500  0.00000000  1
  B  B2  1  0.12175100  0.12158800  0.00000000  1
  B  B3  1  0.87841200  0.87824900  0.00000000  1
  Ru  Ru0  1  0.50144800  0.49855200  0.50000000  1
  Ru  Ru1  1  0.99670800  0.00329200  0.50000000  1
  Ru  Ru2  1  0.57888100  0.21526100  0.50000000  1
  Ru  Ru3  1  0.43024800  0.78139700  0.50000000  1
  Ru  Ru4  1  0.06410500  0.28096100  0.50000000  1
  Ru  Ru5  1  0.92816200  0.71873100  0.50000000  1
  Ru  Ru6  1  0.28126900  0.07183800  0.50000000  1
  Ru  Ru7  1  0.71903900  0.93589500  0.50000000  1
  Ru  Ru8  1  0.21860300  0.56975200  0.50000000  1
  Ru  Ru9  1  0.78473900  0.42111900  0.50000000  1
loop_
_geom_bond_atom_site_label_1
_geom_bond_atom_site_label_2
_geom_bond_distance
_geom_bond_site_symmetry_2
Nb0 Ru6 2.655360 1_564
Nb0 Ru6 2.655360 1_565
Nb0 Ru3 2.657522 1_555
Nb0 Ru3 2.657522 1_554
Nb0 Ru2 2.672984 1_565
Nb0 Ru2 2.672984 1_564
Nb0 Ru7 2.673449 1_555
Nb0 Ru7 2.673449 1_554
Nb1 Ru5 2.655360 1_455
Nb1 Ru5 2.655360 1_454
Nb1 Ru8 2.657522 1_555
Nb1 Ru8 2.657522 1_554
Nb1 Ru9 2.672984 1_454
Nb1 Ru9 2.672984 1_455
Nb1 Ru4 2.673449 1_555
Nb1 Ru4 2.673449 1_554
Nb2 Ru1 2.770822 1_554
Nb2 Ru1 2.770822 1_555
Nb2 Ru9 2.823362 1_554
Nb2 Ru9 2.823362 1_555
Nb2 Ru2 2.823362 1_554
Nb2 Ru2 2.823362 1_555
Nb2 Ru4 2.919991 1_655
Nb2 Ru7 2.919991 1_545
Nb2 Ru7 2.919991 1_544
Nb2 Ru4 2.919991 1_654
B0 Ru0 2.210605 1_554
B0 Ru0 2.210605 1_555
B0 Ru2 2.226265 1_554
B0 Ru9 2.226265 1_554
B0 Ru2 2.226265 1_555
B0 Ru9 2.226265 1_555
B0 Nb2 2.757797 1_555
B0 Sc1 2.854017 1_555
B0 Sc2 2.854017 1_555
B1 Ru3 2.215000 1_555
B1 Ru3 2.215000 1_554
B1 Ru8 2.215000 1_554
B1 Ru8 2.215000 1_555
B1 Ru0 2.251961 1_555
B1 Ru0 2.251961 1_554
B1 Sc0 2.729900 1_555
B1 Sc2 2.858603 1_555
B1 Sc1 2.858603 1_555
B2 Ru6 2.207550 1_554
B2 Ru6 2.207550 1_555
B2 Ru4 2.223916 1_555
B2 Ru4 2.223916 1_554
B2 Ru1 2.241829 1_455
B2 Ru1 2.241829 1_454
B2 Sc1 2.732414 1_555
B2 Nb2 2.865629 1_455
B2 Sc0 2.871970 1_545
B3 Ru5 2.207550 1_555
B3 Ru5 2.207550 1_554
B3 Ru7 2.223916 1_555
B3 Ru7 2.223916 1_554
B3 Ru1 2.241829 1_564
B3 Ru1 2.241829 1_565
B3 Sc2 2.732414 1_555
B3 Nb2 2.865629 1_565
B3 Sc0 2.871970 1_655
Ru0 Sc1 2.807425 1_555
Ru0 Sc1 2.807425 1_556
Ru0 Sc2 2.807425 1_555
Ru0 Sc2 2.807425 1_556
Ru1 Sc0 2.853329 1_646
Ru1 Sc0 2.853329 1_645
Ru2 Sc1 3.047519 1_555
Ru2 Sc1 3.047519 1_556
Ru3 Sc0 2.893200 1_555
Ru3 Sc0 2.893200 1_556
Ru3 Sc2 2.960264 1_555
Ru3 Sc2 2.960264 1_556
Ru4 Sc1 2.942604 1_555
Ru4 Sc1 2.942604 1_556
Ru5 Sc2 2.885447 1_556
Ru5 Sc2 2.885447 1_555
Ru5 Sc0 2.981679 1_656
Ru5 Sc0 2.981679 1_655
Ru6 Sc1 2.885447 1_555
Ru6 Sc1 2.885447 1_556
Ru6 Sc0 2.981679 1_545
Ru6 Sc0 2.981679 1_546
Ru7 Sc2 2.942604 1_555
Ru7 Sc2 2.942604 1_556
Ru8 Sc0 2.893200 1_555
Ru8 Sc0 2.893200 1_556
Ru8 Sc1 2.960264 1_555
Ru8 Sc1 2.960264 1_556
Ru9 Sc2 3.047519 1_555
Ru9 Sc2 3.047519 1_556
