# generated using pymatgen
data_HoNi5Ge3
_symmetry_space_group_name_H-M   'P 1'
_cell_length_a   18.88961931
_cell_length_b   3.81705779
_cell_length_c   6.78201268
_cell_angle_alpha   90.00000000
_cell_angle_beta   90.00000000
_cell_angle_gamma   90.00000000
_symmetry_Int_Tables_number   1
_chemical_formula_structural   HoNi5Ge3
_chemical_formula_sum   'Ho4 Ni20 Ge12'
_cell_volume   489.00189048
_cell_formula_units_Z   4
loop_
 _symmetry_equiv_pos_site_id
 _symmetry_equiv_pos_as_xyz
  1  'x, y, z'
loop_
 _atom_site_type_symbol
 _atom_site_label
 _atom_site_symmetry_multiplicity
 _atom_site_fract_x
 _atom_site_fract_y
 _atom_site_fract_z
 _atom_site_occupancy
  Ho  Ho0  1  0.64542240  0.25000000  0.62087165  1
  Ho  Ho1  1  0.14542240  0.25000000  0.87912835  1
  Ho  Ho2  1  0.35457760  0.75000000  0.37912835  1
  Ho  Ho3  1  0.85457760  0.75000000  0.12087165  1
  Ni  Ni0  1  0.79982918  0.25000000  0.81118237  1
  Ni  Ni1  1  0.29982918  0.25000000  0.68881763  1
  Ni  Ni2  1  0.20017082  0.75000000  0.18881763  1
  Ni  Ni3  1  0.70017082  0.75000000  0.31118237  1
  Ni  Ni4  1  0.99581709  0.25000000  0.13266090  1
  Ni  Ni5  1  0.49581709  0.25000000  0.36733910  1
  Ni  Ni6  1  0.00418291  0.75000000  0.86733910  1
  Ni  Ni7  1  0.50418291  0.75000000  0.63266090  1
  Ni  Ni8  1  0.51289515  0.25000000  0.88168742  1
  Ni  Ni9  1  0.01289515  0.25000000  0.61831258  1
  Ni  Ni10  1  0.48710485  0.75000000  0.11831258  1
  Ni  Ni11  1  0.98710485  0.75000000  0.38168742  1
  Ni  Ni12  1  0.61209455  0.25000000  0.14080077  1
  Ni  Ni13  1  0.11209455  0.25000000  0.35919923  1
  Ni  Ni14  1  0.38790545  0.75000000  0.85919923  1
  Ni  Ni15  1  0.88790545  0.75000000  0.64080077  1
  Ni  Ni16  1  0.79247374  0.25000000  0.42528862  1
  Ni  Ni17  1  0.29247374  0.25000000  0.07471138  1
  Ni  Ni18  1  0.20752626  0.75000000  0.57471138  1
  Ni  Ni19  1  0.70752626  0.75000000  0.92528862  1
  Ge  Ge0  1  0.91395038  0.25000000  0.40683530  1
  Ge  Ge1  1  0.41395038  0.25000000  0.09316470  1
  Ge  Ge2  1  0.08604962  0.75000000  0.59316470  1
  Ge  Ge3  1  0.58604962  0.75000000  0.90683530  1
  Ge  Ge4  1  0.73652378  0.25000000  0.11713774  1
  Ge  Ge5  1  0.23652378  0.25000000  0.38286226  1
  Ge  Ge6  1  0.26347622  0.75000000  0.88286226  1
  Ge  Ge7  1  0.76347622  0.75000000  0.61713774  1
  Ge  Ge8  1  0.92420542  0.25000000  0.85175518  1
  Ge  Ge9  1  0.42420542  0.25000000  0.64824482  1
  Ge  Ge10  1  0.07579458  0.75000000  0.14824482  1
  Ge  Ge11  1  0.57579458  0.75000000  0.35175518  1
loop_
_geom_bond_atom_site_label_1
_geom_bond_atom_site_label_2
_geom_bond_distance
_geom_bond_site_symmetry_2
Ho0 Ni3 3.020486 1_555
Ho0 Ni3 3.020486 1_545
Ho0 Ni19 3.046489 1_555
Ho0 Ni19 3.046489 1_545
Ho0 Ni8 3.065258 1_555
Ho0 Ni16 3.078201 1_555
Ho0 Ni0 3.189504 1_555
Ho0 Ni7 3.281293 1_555
Ho0 Ni7 3.281293 1_545
Ho0 Ni5 3.307983 1_555
Ho0 Ni12 3.316153 1_555
Ho1 Ni2 3.020486 1_546
Ho1 Ni2 3.020486 1_556
Ho1 Ni18 3.046489 1_545
Ho1 Ni18 3.046489 1_555
Ho1 Ni9 3.065258 1_555
Ho1 Ni17 3.078201 1_556
Ho1 Ni1 3.189504 1_555
Ho1 Ni6 3.281293 1_545
Ho1 Ni6 3.281293 1_555
Ho1 Ni4 3.307983 1_456
Ho1 Ni13 3.316153 1_556
Ho2 Ni1 3.020486 1_565
Ho2 Ni1 3.020486 1_555
Ho2 Ni17 3.046489 1_565
Ho2 Ni17 3.046489 1_555
Ho2 Ni10 3.065258 1_555
Ho2 Ni18 3.078201 1_555
Ho2 Ni2 3.189504 1_555
Ho2 Ni5 3.281293 1_565
Ho2 Ni5 3.281293 1_555
Ho2 Ni7 3.307983 1_555
Ho2 Ni14 3.316153 1_555
Ho3 Ni0 3.020486 1_564
Ho3 Ni0 3.020486 1_554
Ho3 Ni16 3.046489 1_565
Ho3 Ni16 3.046489 1_555
Ho3 Ni11 3.065258 1_555
Ho3 Ni19 3.078201 1_554
Ho3 Ni3 3.189504 1_555
Ho3 Ni4 3.281293 1_565
Ho3 Ni4 3.281293 1_555
Ho3 Ni6 3.307983 1_654
Ho3 Ni15 3.316153 1_554
Ni0 Ni16 2.620822 1_555
Ni0 Ni19 2.698404 1_555
Ni0 Ni19 2.698404 1_545
Ni0 Ni15 2.783113 1_555
Ni0 Ni15 2.783113 1_545
Ni1 Ni17 2.620822 1_556
Ni1 Ni18 2.698404 1_555
Ni1 Ni18 2.698404 1_545
Ni1 Ni14 2.783113 1_545
Ni1 Ni14 2.783113 1_555
Ni6 Ni9 2.553811 1_565
Ni6 Ni9 2.553811 1_555
Ni7 Ni8 2.553811 1_555
Ni7 Ni8 2.553811 1_565
Ni10 Ni8 2.540705 1_564
Ni10 Ni8 2.540705 1_554
Ni10 Ni5 2.553811 1_565
Ni10 Ni5 2.553811 1_555
Ni10 Ni14 2.568932 1_554
Ni11 Ni9 2.540705 1_665
Ni11 Ni9 2.540705 1_655
Ni11 Ni4 2.553811 1_565
Ni11 Ni4 2.553811 1_555
Ni11 Ni15 2.568932 1_555
Ni12 Ni8 2.568932 1_554
Ni12 Ni3 2.783113 1_545
Ni12 Ni3 2.783113 1_555
Ni13 Ni9 2.568932 1_555
Ni13 Ni2 2.783113 1_545
Ni13 Ni2 2.783113 1_555
Ni16 Ni3 2.698404 1_545
Ni16 Ni3 2.698404 1_555
Ni17 Ni2 2.698404 1_555
Ni17 Ni2 2.698404 1_545
Ni18 Ni2 2.620822 1_555
Ni19 Ni3 2.620822 1_556
Ge0 Ni16 2.298058 1_555
Ge0 Ni9 2.355911 1_655
Ge0 Ni11 2.362437 1_555
Ge0 Ni11 2.362437 1_545
Ge0 Ni4 2.418475 1_555
Ge0 Ni15 2.530281 1_545
Ge0 Ni15 2.530281 1_555
Ge0 Ho3 2.943063 1_555
Ge0 Ho3 2.943063 1_545
Ge1 Ni17 2.298058 1_555
Ge1 Ni8 2.355911 1_554
Ge1 Ni10 2.362437 1_545
Ge1 Ni10 2.362437 1_555
Ge1 Ni5 2.418475 1_555
Ge1 Ni14 2.530281 1_554
Ge1 Ni14 2.530281 1_544
Ge1 Ho2 2.943063 1_545
Ge1 Ho2 2.943063 1_555
Ge2 Ni18 2.298058 1_555
Ge2 Ni11 2.355911 1_455
Ge2 Ni9 2.362437 1_565
Ge2 Ni9 2.362437 1_555
Ge2 Ni6 2.418475 1_555
Ge2 Ni13 2.530281 1_565
Ge2 Ni13 2.530281 1_555
Ge2 Ho1 2.943063 1_565
Ge2 Ho1 2.943063 1_555
Ge3 Ni19 2.298058 1_555
Ge3 Ni10 2.355911 1_556
Ge3 Ni8 2.362437 1_555
Ge3 Ni8 2.362437 1_565
Ge3 Ni7 2.418475 1_555
Ge3 Ni12 2.530281 1_556
Ge3 Ni12 2.530281 1_566
Ge3 Ho0 2.943063 1_565
Ge3 Ho0 2.943063 1_555
Ge4 Ni16 2.341921 1_555
Ge4 Ni12 2.355893 1_555
Ge4 Ni19 2.373907 1_544
Ge4 Ni19 2.373907 1_554
Ge4 Ni0 2.394905 1_554
Ge4 Ni3 2.417834 1_555
Ge4 Ni3 2.417834 1_545
Ge4 Ho3 2.935300 1_545
Ge4 Ho3 2.935300 1_555
Ge5 Ni17 2.341921 1_555
Ge5 Ni13 2.355893 1_555
Ge5 Ni18 2.373907 1_545
Ge5 Ni18 2.373907 1_555
Ge5 Ni1 2.394905 1_555
Ge5 Ni2 2.417834 1_545
Ge5 Ni2 2.417834 1_555
Ge5 Ho2 2.935300 1_555
Ge5 Ho2 2.935300 1_545
Ge6 Ni18 2.341921 1_555
Ge6 Ni14 2.355893 1_555
Ge6 Ni17 2.373907 1_556
Ge6 Ni17 2.373907 1_566
Ge6 Ni2 2.394905 1_556
Ge6 Ni1 2.417834 1_565
Ge6 Ni1 2.417834 1_555
Ge6 Ho1 2.935300 1_565
Ge6 Ho1 2.935300 1_555
Ge7 Ni19 2.341921 1_555
Ge7 Ni15 2.355893 1_555
Ge7 Ni16 2.373907 1_565
Ge7 Ni16 2.373907 1_555
Ge7 Ni3 2.394905 1_555
Ge7 Ni0 2.417834 1_555
Ge7 Ni0 2.417834 1_565
Ge7 Ho0 2.935300 1_555
Ge7 Ho0 2.935300 1_565
Ge8 Ni9 2.305046 1_655
Ge8 Ni4 2.336509 1_556
Ge8 Ni0 2.365479 1_555
Ge8 Ni6 2.436391 1_645
Ge8 Ni6 2.436391 1_655
Ge8 Ni15 2.481843 1_555
Ge8 Ni15 2.481843 1_545
Ge8 Ho3 2.950174 1_546
Ge8 Ho3 2.950174 1_556
Ge9 Ni8 2.305046 1_555
Ge9 Ni5 2.336509 1_555
Ge9 Ni1 2.365479 1_555
Ge9 Ni7 2.436391 1_555
Ge9 Ni7 2.436391 1_545
Ge9 Ni14 2.481843 1_545
Ge9 Ni14 2.481843 1_555
Ge9 Ho2 2.950174 1_555
Ge9 Ho2 2.950174 1_545
Ge10 Ni11 2.305046 1_455
Ge10 Ni6 2.336509 1_554
Ge10 Ni2 2.365479 1_555
Ge10 Ni4 2.436391 1_455
Ge10 Ni4 2.436391 1_465
Ge10 Ni13 2.481843 1_555
Ge10 Ni13 2.481843 1_565
Ge10 Ho1 2.950174 1_564
Ge10 Ho1 2.950174 1_554
Ge11 Ni10 2.305046 1_555
Ge11 Ni7 2.336509 1_555
Ge11 Ni3 2.365479 1_555
Ge11 Ni5 2.436391 1_565
Ge11 Ni5 2.436391 1_555
Ge11 Ni12 2.481843 1_555
Ge11 Ni12 2.481843 1_565
Ge11 Ho0 2.950174 1_555
Ge11 Ho0 2.950174 1_565
