# generated using pymatgen
data_Rb2Nb2O5
_symmetry_space_group_name_H-M   'P 1'
_cell_length_a   9.14073929
_cell_length_b   9.14073929
_cell_length_c   9.14073929
_cell_angle_alpha   141.64886442
_cell_angle_beta   141.46054948
_cell_angle_gamma   55.50027653
_symmetry_Int_Tables_number   1
_chemical_formula_structural   Rb2Nb2O5
_chemical_formula_sum   'Rb4 Nb4 O10'
_cell_volume   293.06422527
_cell_formula_units_Z   2
loop_
 _symmetry_equiv_pos_site_id
 _symmetry_equiv_pos_as_xyz
  1  'x, y, z'
loop_
 _atom_site_type_symbol
 _atom_site_label
 _atom_site_symmetry_multiplicity
 _atom_site_fract_x
 _atom_site_fract_y
 _atom_site_fract_z
 _atom_site_occupancy
  Rb  Rb0  1  0.38387500  0.87179200  0.49806500  1
  Rb  Rb1  1  0.62627200  0.12820800  0.51208200  1
  Rb  Rb2  1  0.88387500  0.38581000  0.51208200  1
  Rb  Rb3  1  0.12627200  0.61419000  0.49806500  1
  Nb  Nb0  1  0.98529500  0.00000000  0.98529500  1
  Nb  Nb1  1  0.48529500  0.50000000  0.98529500  1
  Nb  Nb2  1  0.76413400  0.79267400  0.05680800  1
  Nb  Nb3  1  0.26413400  0.20732600  0.97145900  1
  O  O0  1  0.77351400  0.76202400  0.53032000  1
  O  O1  1  0.76829600  0.23797600  0.01149000  1
  O  O2  1  0.27351400  0.74319400  0.01149000  1
  O  O3  1  0.26829600  0.25680600  0.53032000  1
  O  O4  1  0.88249400  0.85963400  0.99927900  1
  O  O5  1  0.13964500  0.14036600  0.02286000  1
  O  O6  1  0.38249400  0.38321500  0.02286000  1
  O  O7  1  0.63964500  0.61678500  0.99927900  1
  O  O8  1  0.01247600  0.00194000  0.51441600  1
  O  O9  1  0.51247600  0.99806000  0.01053500  1
loop_
_geom_bond_atom_site_label_1
_geom_bond_atom_site_label_2
_geom_bond_distance
_geom_bond_site_symmetry_2
Nb0 O1 1.939552 1_556
Nb0 O0 1.939552 1_545
Nb0 O5 2.087210 1_656
Nb0 O4 2.087210 1_545
Nb0 O2 2.323256 1_646
Nb0 O3 2.323256 1_656
Nb1 O2 1.939552 1_556
Nb1 O3 1.939552 1_555
Nb1 O7 2.087210 1_555
Nb1 O6 2.087210 1_556
Nb1 O1 2.323256 1_556
Nb1 O0 2.323256 1_556
Nb2 O8 1.955485 1_665
Nb2 O9 1.956083 1_555
Nb2 O7 1.991633 1_554
Nb2 O4 1.991633 1_554
Nb3 O9 1.955485 1_546
Nb3 O8 1.956079 1_555
Nb3 O6 1.991626 1_556
Nb3 O5 1.991642 1_556
O0 Rb3 2.869942 1_655
O0 Rb2 2.881911 1_555
O0 Rb1 2.909273 1_565
O0 Rb0 2.924332 1_555
O1 Rb2 2.869942 1_555
O1 Rb3 2.881911 1_655
O1 Rb0 2.909270 1_544
O1 Rb1 2.924335 1_554
O2 Rb1 2.869947 1_565
O2 Rb0 2.881917 1_555
O2 Rb3 2.909264 1_554
O2 Rb2 2.924329 1_454
O3 Rb0 2.869950 1_545
O3 Rb1 2.881914 1_555
O3 Rb2 2.909264 1_455
O3 Rb3 2.924329 1_555
O4 Rb2 2.892209 1_555
O4 Rb0 2.982942 1_656
O4 Rb0 3.055226 1_555
O4 Rb2 3.117783 1_566
O5 Rb3 2.892209 1_555
O5 Rb1 2.982936 1_555
O5 Rb1 3.055232 1_454
O5 Rb3 3.117783 1_544
O6 Rb0 2.892205 1_555
O6 Rb2 2.982939 1_555
O6 Rb2 3.055229 1_454
O6 Rb0 3.117785 1_544
O7 Rb1 2.892205 1_555
O7 Rb3 2.982939 1_656
O7 Rb3 3.055229 1_555
O7 Rb1 3.117785 1_566
O8 Rb0 2.983707 1_545
O8 Rb3 2.983710 1_545
O8 Rb1 3.016628 1_455
O8 Rb2 3.016630 1_455
O9 Rb2 2.983707 1_565
O9 Rb1 2.983713 1_565
O9 Rb0 3.016616 1_554
O9 Rb3 3.016633 1_554
