# generated using pymatgen
data_CaMg14Zr
_symmetry_space_group_name_H-M   'P 1'
_cell_length_a   6.53976794
_cell_length_b   6.53976738
_cell_length_c   10.31013685
_cell_angle_alpha   90.00000000
_cell_angle_beta   90.00000000
_cell_angle_gamma   120.00000285
_symmetry_Int_Tables_number   1
_chemical_formula_structural   CaMg14Zr
_chemical_formula_sum   'Ca1 Mg14 Zr1'
_cell_volume   381.87364576
_cell_formula_units_Z   1
loop_
 _symmetry_equiv_pos_site_id
 _symmetry_equiv_pos_as_xyz
  1  'x, y, z'
loop_
 _atom_site_type_symbol
 _atom_site_label
 _atom_site_symmetry_multiplicity
 _atom_site_fract_x
 _atom_site_fract_y
 _atom_site_fract_z
 _atom_site_occupancy
  Ca  Ca0  1  0.16666700  0.33333300  0.12500000  1
  Mg  Mg0  1  0.17269668  0.83634784  0.12500000  1
  Mg  Mg1  1  0.17060401  0.83530150  0.62500000  1
  Mg  Mg2  1  0.66365216  0.32730332  0.12500000  1
  Mg  Mg3  1  0.66469850  0.32939599  0.62500000  1
  Mg  Mg4  1  0.66365216  0.83634784  0.12500000  1
  Mg  Mg5  1  0.66469850  0.83530150  0.62500000  1
  Mg  Mg6  1  0.33464489  0.16535511  0.38259648  1
  Mg  Mg7  1  0.33464489  0.16535511  0.86740352  1
  Mg  Mg8  1  0.33464489  0.66929079  0.38259648  1
  Mg  Mg9  1  0.33464489  0.66929079  0.86740352  1
  Mg  Mg10  1  0.83070921  0.16535511  0.38259648  1
  Mg  Mg11  1  0.83070921  0.16535511  0.86740352  1
  Mg  Mg12  1  0.83333300  0.66666700  0.37385209  1
  Mg  Mg13  1  0.83333300  0.66666700  0.87614791  1
  Zr  Zr0  1  0.16666700  0.33333300  0.62500000  1
loop_
_geom_bond_atom_site_label_1
_geom_bond_atom_site_label_2
_geom_bond_distance
_geom_bond_site_symmetry_2
Ca0 Mg7 3.267095 1_554
Ca0 Mg6 3.267095 1_555
Ca0 Mg9 3.267102 1_554
Ca0 Mg8 3.267102 1_555
Ca0 Mg11 3.267102 1_454
Ca0 Mg10 3.267102 1_455
Ca0 Mg4 3.270062 1_555
Ca0 Mg0 3.270062 1_555
Ca0 Mg0 3.270062 1_545
Ca0 Mg4 3.270062 1_445
Ca0 Mg2 3.270062 1_555
Ca0 Mg2 3.270062 1_455
Mg0 Mg13 3.205773 1_454
Mg0 Mg12 3.205773 1_455
Mg0 Mg2 3.210735 1_565
Mg0 Mg4 3.210735 1_555
Mg0 Mg9 3.244370 1_554
Mg0 Mg8 3.244370 1_555
Mg0 Mg7 3.244377 1_564
Mg0 Mg6 3.244377 1_565
Mg0 Mg2 3.329033 1_455
Mg0 Mg4 3.329033 1_455
Mg1 Mg8 3.120949 1_555
Mg1 Mg9 3.120949 1_555
Mg1 Mg6 3.120956 1_565
Mg1 Mg7 3.120956 1_565
Mg1 Mg12 3.217698 1_455
Mg1 Mg13 3.217698 1_455
Mg1 Mg3 3.231263 1_565
Mg1 Mg5 3.231263 1_555
Mg1 Zr0 3.269960 1_555
Mg1 Zr0 3.269960 1_565
Mg1 Mg3 3.308504 1_455
Mg1 Mg5 3.308505 1_455
Mg2 Mg4 3.210735 1_545
Mg2 Mg7 3.244377 1_554
Mg2 Mg6 3.244377 1_555
Mg2 Mg4 3.329033 1_555
Mg3 Mg6 3.120956 1_555
Mg3 Mg7 3.120956 1_555
Mg3 Mg5 3.231263 1_545
Mg3 Zr0 3.269960 1_655
Mg3 Zr0 3.269960 1_555
Mg3 Mg5 3.308504 1_555
Mg4 Mg8 3.244377 1_555
Mg4 Mg9 3.244377 1_554
Mg5 Mg8 3.120956 1_555
Mg5 Mg9 3.120956 1_555
Mg5 Zr0 3.269960 1_555
Mg5 Zr0 3.269960 1_665
Mg6 Zr0 3.141085 1_555
Mg6 Mg8 3.244145 1_545
Mg6 Mg8 3.295622 1_555
Mg7 Zr0 3.141085 1_555
Mg7 Mg9 3.244145 1_545
Mg7 Mg9 3.295622 1_555
Mg8 Zr0 3.141092 1_555
Mg9 Zr0 3.141092 1_555
Mg10 Mg3 3.120949 1_555
Mg10 Mg5 3.120956 1_545
Mg10 Zr0 3.141092 1_655
Mg10 Mg8 3.244145 1_545
Mg10 Mg6 3.244146 1_555
Mg10 Mg2 3.244370 1_555
Mg10 Mg4 3.244377 1_545
Mg10 Mg12 3.271160 1_555
Mg10 Mg12 3.271160 1_545
Mg10 Mg8 3.295622 1_655
Mg10 Mg6 3.295622 1_655
Mg11 Mg3 3.120949 1_555
Mg11 Mg5 3.120956 1_545
Mg11 Zr0 3.141092 1_655
Mg11 Mg9 3.244145 1_545
Mg11 Mg7 3.244146 1_555
Mg11 Mg2 3.244370 1_556
Mg11 Mg4 3.244377 1_546
Mg11 Mg13 3.271160 1_555
Mg11 Mg13 3.271160 1_545
Mg11 Mg9 3.295622 1_655
Mg11 Mg7 3.295622 1_655
Mg12 Mg4 3.205766 1_555
Mg12 Mg2 3.205773 1_555
Mg12 Mg5 3.217691 1_555
Mg12 Mg3 3.217698 1_555
Mg12 Mg6 3.271160 1_555
Mg12 Mg6 3.271160 1_665
Mg12 Mg8 3.271160 1_655
Mg12 Mg8 3.271160 1_555
Mg13 Mg4 3.205766 1_556
Mg13 Mg2 3.205773 1_556
Mg13 Mg5 3.217691 1_555
Mg13 Mg3 3.217698 1_555
Mg13 Mg7 3.271160 1_555
Mg13 Mg7 3.271160 1_665
Mg13 Mg9 3.271160 1_655
Mg13 Mg9 3.271160 1_555
