# generated using pymatgen
data_GaN
_symmetry_space_group_name_H-M   'P 1'
_cell_length_a   10.86371707
_cell_length_b   11.65991746
_cell_length_c   12.02469796
_cell_angle_alpha   94.64888961
_cell_angle_beta   91.43129015
_cell_angle_gamma   90.44092764
_symmetry_Int_Tables_number   1
_chemical_formula_structural   GaN
_chemical_formula_sum   'Ga50 N50'
_cell_volume   1517.61204028
_cell_formula_units_Z   50
loop_
 _symmetry_equiv_pos_site_id
 _symmetry_equiv_pos_as_xyz
  1  'x, y, z'
loop_
 _atom_site_type_symbol
 _atom_site_label
 _atom_site_symmetry_multiplicity
 _atom_site_fract_x
 _atom_site_fract_y
 _atom_site_fract_z
 _atom_site_occupancy
  Ga  Ga0  1  0.05363444  0.66941203  0.49793732  1
  Ga  Ga1  1  0.20755763  0.43631592  0.38552809  1
  Ga  Ga2  1  0.08238394  0.67184358  0.78970477  1
  Ga  Ga3  1  0.79583927  0.79655390  0.68298335  1
  Ga  Ga4  1  0.23497962  0.25921350  0.18306140  1
  Ga  Ga5  1  0.40966130  0.55837661  0.78168941  1
  Ga  Ga6  1  0.59573554  0.75252002  0.81442214  1
  Ga  Ga7  1  0.20872716  0.94123074  0.18172550  1
  Ga  Ga8  1  0.53568983  0.50873622  0.50698849  1
  Ga  Ga9  1  0.92942183  0.02163634  0.19308085  1
  Ga  Ga10  1  0.28211561  0.75708660  0.03503138  1
  Ga  Ga11  1  0.13396759  0.00958419  0.97427745  1
  Ga  Ga12  1  0.68112642  0.51783046  0.86666841  1
  Ga  Ga13  1  0.82443852  0.19838591  0.86778481  1
  Ga  Ga14  1  0.99233130  0.21925888  0.33028220  1
  Ga  Ga15  1  0.50364118  0.94605849  0.71358736  1
  Ga  Ga16  1  0.70857235  0.27781955  0.41269287  1
  Ga  Ga17  1  0.50828950  0.70351673  0.02959370  1
  Ga  Ga18  1  0.63189521  0.50191446  0.17583089  1
  Ga  Ga19  1  0.86944186  0.03221884  0.46546129  1
  Ga  Ga20  1  0.08140123  0.68150407  0.27594204  1
  Ga  Ga21  1  0.49119445  0.78640836  0.26825924  1
  Ga  Ga22  1  0.91224761  0.42007295  0.56486076  1
  Ga  Ga23  1  0.50057365  0.35562341  0.26119042  1
  Ga  Ga24  1  0.41888829  0.24209186  0.46780085  1
  Ga  Ga25  1  0.64697765  0.02119723  0.23430152  1
  Ga  Ga26  1  0.11284193  0.45108101  0.12243399  1
  Ga  Ga27  1  0.91200857  0.47462147  0.33632934  1
  Ga  Ga28  1  0.27796452  0.80240742  0.43369576  1
  Ga  Ga29  1  0.74153448  0.89984145  0.00007947  1
  Ga  Ga30  1  0.97255828  0.45513224  0.90042378  1
  Ga  Ga31  1  0.69600050  0.45552943  0.67077551  1
  Ga  Ga32  1  0.87405248  0.05274883  0.67832381  1
  Ga  Ga33  1  0.14791253  0.46055239  0.60223737  1
  Ga  Ga34  1  0.45604215  0.95337698  0.04259133  1
  Ga  Ga35  1  0.05108951  0.20755900  0.04645581  1
  Ga  Ga36  1  0.71919668  0.99778868  0.81915909  1
  Ga  Ga37  1  0.83438050  0.72417258  0.89969162  1
  Ga  Ga38  1  0.32565569  0.68785726  0.62687604  1
  Ga  Ga39  1  0.89573231  0.55758611  0.09999352  1
  Ga  Ga40  1  0.82082701  0.30950092  0.10918021  1
  Ga  Ga41  1  0.76938919  0.77071998  0.21151024  1
  Ga  Ga42  1  0.99215744  0.92988124  0.81504011  1
  Ga  Ga43  1  0.35637577  0.37207660  0.62235969  1
  Ga  Ga44  1  0.38897414  0.08093720  0.27624497  1
  Ga  Ga45  1  0.20259087  0.52729765  0.92409071  1
  Ga  Ga46  1  0.17266165  0.01706916  0.38936108  1
  Ga  Ga47  1  0.51567853  0.72728911  0.49353755  1
  Ga  Ga48  1  0.75016038  0.63944268  0.52255651  1
  Ga  Ga49  1  0.00413187  0.78559668  0.04778362  1
  N  N0  1  0.29284245  0.14996495  0.68210662  1
  N  N1  1  0.55307754  0.17691502  0.64277182  1
  N  N2  1  0.63080952  0.12667252  0.36675429  1
  N  N3  1  0.99203426  0.05384650  0.35358133  1
  N  N4  1  0.90581989  0.57027616  0.47775405  1
  N  N5  1  0.13322469  0.70271466  0.95124766  1
  N  N6  1  0.81185248  0.46443096  0.20203170  1
  N  N7  1  0.14703171  0.63858239  0.63972565  1
  N  N8  1  0.77793924  0.78142852  0.38753718  1
  N  N9  1  0.22335971  0.76469616  0.20698171  1
  N  N10  1  0.94285176  0.76684202  0.78110598  1
  N  N11  1  0.56870182  0.85031510  0.96571076  1
  N  N12  1  0.24607356  0.17822328  0.40318939  1
  N  N13  1  0.67591616  0.28284568  0.86886094  1
  N  N14  1  0.11569260  0.26660308  0.80164221  1
  N  N15  1  0.17392125  0.25455025  0.34397976  1
  N  N16  1  0.56107643  0.10645649  0.02639659  1
  N  N17  1  0.55957558  0.96350944  0.52847925  1
  N  N18  1  0.87859612  0.32572461  0.40946091  1
  N  N19  1  0.61342701  0.68090931  0.17057788  1
  N  N20  1  0.39907481  0.51915953  0.11198867  1
  N  N21  1  0.31673048  0.50328324  0.16589674  1
  N  N22  1  0.39488868  0.31692336  0.89875017  1
  N  N23  1  0.93544906  0.70757884  0.17502579  1
  N  N24  1  0.17594757  0.93100391  0.60495283  1
  N  N25  1  0.28345396  0.93311685  0.02818248  1
  N  N26  1  0.53911681  0.61362923  0.88903012  1
  N  N27  1  0.49016962  0.94636676  0.20627731  1
  N  N28  1  0.08230928  0.89624991  0.62719781  1
  N  N29  1  0.66545445  0.37501067  0.04621678  1
  N  N30  1  0.66504537  0.96562356  0.53561599  1
  N  N31  1  0.04717723  0.94007713  0.10207078  1
  N  N32  1  0.83258096  0.85812793  0.44101996  1
  N  N33  1  0.92737366  0.19217964  0.17236748  1
  N  N34  1  0.40237700  0.22707028  0.20353357  1
  N  N35  1  0.08315006  0.50594520  0.28349662  1
  N  N36  1  0.32033623  0.74095667  0.28409156  1
  N  N37  1  0.65170877  0.36762220  0.93882326  1
  N  N38  1  0.65110039  0.20519992  0.63019957  1
  N  N39  1  0.92870711  0.30348955  0.96960110  1
  N  N40  1  0.77575327  0.93193092  0.16707243  1
  N  N41  1  0.30923394  0.08051784  0.74003710  1
  N  N42  1  0.51426616  0.11225005  0.40259581  1
  N  N43  1  0.05874017  0.23204132  0.72691302  1
  N  N44  1  0.55539382  0.35916505  0.41975818  1
  N  N45  1  0.50643982  0.46292247  0.66272741  1
  N  N46  1  0.48408960  0.77913078  0.67563857  1
  N  N47  1  0.63683775  0.13215853  0.09532889  1
  N  N48  1  0.36338814  0.23999238  0.93913320  1
  N  N49  1  0.83585611  0.56561326  0.94609450  1
loop_
_geom_bond_atom_site_label_1
_geom_bond_atom_site_label_2
_geom_bond_distance
_geom_bond_site_symmetry_2
Ga0 N4 1.969816 1_455
Ga0 N7 2.020929 1_555
Ga1 N35 2.021524 1_555
Ga1 N15 2.163839 1_555
Ga2 N10 1.889967 1_455
Ga2 N7 1.962190 1_555
Ga2 N5 2.009465 1_555
Ga3 N10 2.010857 1_555
Ga3 Ga36 2.890580 1_555
Ga4 N34 1.873846 1_555
Ga4 N15 2.065859 1_555
Ga5 N26 1.954355 1_555
Ga5 N45 2.055595 1_555
Ga6 N26 2.013349 1_555
Ga6 N46 2.083502 1_555
Ga6 N11 2.095608 1_555
Ga7 N31 1.977705 1_555
Ga7 N25 2.030908 1_555
Ga7 N9 2.111488 1_555
Ga8 N44 1.976861 1_555
Ga8 N45 2.020559 1_555
Ga9 N31 1.912712 1_645
Ga9 N40 1.967940 1_545
Ga9 N33 2.024212 1_555
Ga9 N3 2.035068 1_555
Ga10 N5 1.957686 1_554
Ga10 N25 2.060763 1_555
Ga10 N9 2.174294 1_555
Ga11 N25 1.978836 1_546
Ga11 N31 2.041982 1_546
Ga12 N26 1.923187 1_555
Ga12 N49 1.966536 1_555
Ga12 N37 2.043026 1_555
Ga13 N13 1.896528 1_555
Ga13 N39 1.987470 1_555
Ga13 Ga36 2.612182 1_545
Ga14 N18 1.965957 1_555
Ga14 N3 1.971270 1_555
Ga14 N33 2.008944 1_555
Ga14 N15 2.012077 1_655
Ga15 N46 1.971421 1_555
Ga15 N17 2.346108 1_555
Ga15 N41 2.650147 1_565
Ga15 Ga36 2.676698 1_555
Ga16 N44 1.922061 1_555
Ga16 N18 1.927817 1_555
Ga16 N2 1.980077 1_555
Ga17 N26 1.952958 1_554
Ga17 N11 2.042455 1_554
Ga17 N19 2.056314 1_555
Ga18 N6 2.029045 1_555
Ga18 N29 2.101045 1_555
Ga18 N19 2.104107 1_555
Ga19 N3 1.945902 1_555
Ga19 N32 2.062056 1_545
Ga19 N30 2.533467 1_545
Ga20 N23 2.012502 1_455
Ga20 N9 2.044055 1_555
Ga20 N35 2.056571 1_555
Ga21 N36 1.944553 1_555
Ga21 N27 2.063845 1_555
Ga21 N19 2.127204 1_555
Ga22 N18 2.112372 1_555
Ga22 N4 2.113014 1_555
Ga23 N34 1.906683 1_555
Ga23 N44 1.980438 1_555
Ga24 N42 1.962838 1_555
Ga24 N12 2.120071 1_555
Ga24 N44 2.129734 1_555
Ga25 N40 1.906970 1_545
Ga25 N27 1.917708 1_545
Ga25 N2 1.944180 1_555
Ga25 N47 2.195930 1_555
Ga26 N35 2.024291 1_555
Ga26 N21 2.328013 1_555
Ga27 N6 1.919636 1_555
Ga27 N4 1.959563 1_555
Ga27 N35 2.019879 1_655
Ga27 N18 2.042776 1_555
Ga28 N36 1.949099 1_555
Ga29 N11 1.983818 1_554
Ga29 N40 2.036957 1_555
Ga29 Ga36 2.544931 1_554
Ga30 N49 2.030288 1_555
Ga30 N39 2.071344 1_555
Ga31 N45 2.061984 1_555
Ga32 Ga36 2.531882 1_545
Ga33 N7 2.088335 1_555
Ga34 N25 1.889862 1_555
Ga34 N11 1.922426 1_554
Ga34 N27 2.002082 1_555
Ga34 N16 2.135859 1_565
Ga35 N39 2.000478 1_454
Ga35 N33 2.067083 1_455
Ga37 N10 1.964543 1_555
Ga37 N49 1.974043 1_555
Ga38 N7 2.032683 1_555
Ga38 N46 2.063764 1_555
Ga39 N23 1.942170 1_555
Ga39 N6 1.942238 1_555
Ga39 N49 1.955873 1_554
Ga40 N33 1.984268 1_555
Ga40 N29 2.013829 1_555
Ga40 N6 2.049548 1_555
Ga40 N39 2.067831 1_554
Ga41 N40 1.996564 1_555
Ga41 N23 1.999157 1_555
Ga41 N19 2.014222 1_555
Ga41 N8 2.109899 1_555
Ga42 N10 1.978630 1_555
Ga42 N28 2.487519 1_655
Ga43 N45 1.966193 1_555
Ga44 N34 1.983170 1_555
Ga44 N42 2.023236 1_555
Ga44 N27 2.058451 1_545
Ga44 N12 2.427282 1_555
Ga45 N5 2.187626 1_555
Ga46 N12 2.028341 1_555
Ga46 N3 2.054322 1_455
Ga47 N46 2.259238 1_555
Ga48 N4 1.948418 1_555
Ga48 N8 2.433178 1_555
Ga49 N31 1.915835 1_555
Ga49 N23 1.999378 1_455
Ga49 N5 2.041706 1_554
N0 N41 1.122544 1_555
N1 N38 1.129751 1_555
N2 N42 1.361158 1_555
N12 N15 1.413835 1_555
N13 N37 1.278384 1_555
N14 N43 1.123552 1_555
N16 N47 1.173088 1_555
N17 N30 1.146790 1_555
N20 N21 1.140433 1_555
N22 N48 1.109829 1_555
N24 N28 1.138155 1_555
N29 N37 1.292093 1_554
N32 N8 1.202201 1_555
N36 N9 1.429534 1_555
