# generated using pymatgen
data_Mg14CrSi
_symmetry_space_group_name_H-M   'P 1'
_cell_length_a   6.24447055
_cell_length_b   6.22530278
_cell_length_c   10.21603266
_cell_angle_alpha   90.00000000
_cell_angle_beta   90.00000000
_cell_angle_gamma   119.89851681
_symmetry_Int_Tables_number   1
_chemical_formula_structural   Mg14CrSi
_chemical_formula_sum   'Mg14 Cr1 Si1'
_cell_volume   344.28033079
_cell_formula_units_Z   1
loop_
 _symmetry_equiv_pos_site_id
 _symmetry_equiv_pos_as_xyz
  1  'x, y, z'
loop_
 _atom_site_type_symbol
 _atom_site_label
 _atom_site_symmetry_multiplicity
 _atom_site_fract_x
 _atom_site_fract_y
 _atom_site_fract_z
 _atom_site_occupancy
  Mg  Mg0  1  0.16734526  0.33367213  0.62500000  1
  Mg  Mg1  1  0.16815222  0.83407561  0.62500000  1
  Mg  Mg2  1  0.66948812  0.33597011  0.12500000  1
  Mg  Mg3  1  0.66568334  0.33225456  0.62500000  1
  Mg  Mg4  1  0.66948812  0.83351700  0.12500000  1
  Mg  Mg5  1  0.66568334  0.83342778  0.62500000  1
  Mg  Mg6  1  0.32901416  0.16514517  0.36544406  1
  Mg  Mg7  1  0.32901416  0.16514517  0.88455594  1
  Mg  Mg8  1  0.32901416  0.66386999  0.36544406  1
  Mg  Mg9  1  0.32901416  0.66386999  0.88455594  1
  Mg  Mg10  1  0.83749667  0.16874884  0.37098146  1
  Mg  Mg11  1  0.83749667  0.16874884  0.87901854  1
  Mg  Mg12  1  0.83719150  0.66859625  0.37310116  1
  Mg  Mg13  1  0.83719150  0.66859625  0.87689884  1
  Cr  Cr0  1  0.16520768  0.83260334  0.12500000  1
  Si  Si0  1  0.16351893  0.33175896  0.12500000  1
loop_
_geom_bond_atom_site_label_1
_geom_bond_atom_site_label_2
_geom_bond_distance
_geom_bond_site_symmetry_2
Mg0 Mg1 3.112654 1_555
Mg0 Mg1 3.112654 1_545
Mg0 Mg5 3.116265 1_555
Mg0 Mg3 3.116266 1_555
Mg0 Mg5 3.128223 1_445
Mg0 Mg3 3.128224 1_455
Mg0 Mg10 3.150034 1_455
Mg0 Mg11 3.150034 1_455
Mg0 Mg6 3.194821 1_555
Mg0 Mg7 3.194821 1_555
Mg0 Mg8 3.194827 1_555
Mg0 Mg9 3.194827 1_555
Mg1 Mg3 3.108830 1_565
Mg1 Mg5 3.108831 1_555
Mg1 Mg3 3.135644 1_455
Mg1 Mg5 3.135644 1_455
Mg1 Mg13 3.135654 1_455
Mg1 Mg12 3.135654 1_455
Mg1 Mg8 3.197493 1_555
Mg1 Mg9 3.197493 1_555
Mg1 Mg7 3.197499 1_565
Mg1 Mg6 3.197499 1_565
Mg2 Mg7 3.070981 1_554
Mg2 Mg6 3.070981 1_555
Mg2 Mg4 3.097380 1_555
Mg2 Si0 3.098112 1_655
Mg2 Mg4 3.127923 1_545
Mg2 Si0 3.146524 1_555
Mg3 Mg5 3.105348 1_545
Mg3 Mg5 3.119955 1_555
Mg3 Mg6 3.217576 1_555
Mg3 Mg7 3.217576 1_555
Mg4 Mg9 3.070981 1_554
Mg4 Mg8 3.070981 1_555
Mg4 Si0 3.098112 1_665
Mg4 Si0 3.146524 1_555
Mg5 Mg8 3.217576 1_555
Mg5 Mg9 3.217576 1_555
Mg6 Si0 3.040762 1_555
Mg6 Mg8 3.104713 1_555
Mg6 Mg8 3.120590 1_545
Mg7 Si0 3.040762 1_556
Mg7 Mg9 3.104713 1_555
Mg7 Mg9 3.120590 1_545
Mg8 Si0 3.040769 1_555
Mg9 Si0 3.040769 1_556
Mg10 Si0 3.070792 1_655
Mg10 Mg8 3.081030 1_655
Mg10 Mg6 3.081030 1_655
Mg10 Mg2 3.096462 1_555
Mg10 Mg4 3.096469 1_545
Mg10 Mg12 3.112727 1_555
Mg10 Mg12 3.112727 1_545
Mg10 Mg3 3.163889 1_555
Mg10 Mg5 3.163895 1_545
Mg10 Mg8 3.164587 1_545
Mg10 Mg6 3.164587 1_555
Mg11 Si0 3.070792 1_656
Mg11 Mg9 3.081030 1_655
Mg11 Mg7 3.081030 1_655
Mg11 Mg2 3.096462 1_556
Mg11 Mg4 3.096469 1_546
Mg11 Mg13 3.112727 1_555
Mg11 Mg13 3.112727 1_545
Mg11 Mg3 3.163889 1_555
Mg11 Mg5 3.163895 1_545
Mg11 Mg9 3.164587 1_545
Mg11 Mg7 3.164587 1_555
Mg12 Mg6 3.086935 1_665
Mg12 Mg8 3.086935 1_655
Mg12 Mg4 3.105938 1_555
Mg12 Mg2 3.105944 1_555
Mg12 Mg5 3.149275 1_555
Mg12 Mg3 3.149281 1_555
Mg12 Mg6 3.159704 1_555
Mg12 Mg8 3.159704 1_555
Mg13 Mg7 3.086935 1_665
Mg13 Mg9 3.086935 1_655
Mg13 Mg4 3.105938 1_556
Mg13 Mg2 3.105944 1_556
Mg13 Mg5 3.149275 1_555
Mg13 Mg3 3.149281 1_555
Mg13 Mg7 3.159704 1_555
Mg13 Mg9 3.159704 1_555
Cr0 Mg9 3.042145 1_554
Cr0 Mg8 3.042145 1_555
Cr0 Mg7 3.042152 1_564
Cr0 Mg6 3.042152 1_565
Cr0 Mg12 3.094719 1_455
Cr0 Mg13 3.094719 1_454
Cr0 Mg2 3.098345 1_455
Cr0 Mg4 3.098345 1_455
Cr0 Si0 3.112665 1_565
Cr0 Si0 3.112665 1_555
Cr0 Mg2 3.146133 1_565
Cr0 Mg4 3.146133 1_555
