# generated using pymatgen
data_Mn(CN)2
_symmetry_space_group_name_H-M   'P 1'
_cell_length_a   6.11780600
_cell_length_b   6.11780600
_cell_length_c   6.11780600
_cell_angle_alpha   90.00000000
_cell_angle_beta   90.00000000
_cell_angle_gamma   90.00000000
_symmetry_Int_Tables_number   1
_chemical_formula_structural   Mn(CN)2
_chemical_formula_sum   'Mn2 C4 N4'
_cell_volume   228.97449151
_cell_formula_units_Z   2
loop_
 _symmetry_equiv_pos_site_id
 _symmetry_equiv_pos_as_xyz
  1  'x, y, z'
loop_
 _atom_site_type_symbol
 _atom_site_label
 _atom_site_symmetry_multiplicity
 _atom_site_fract_x
 _atom_site_fract_y
 _atom_site_fract_z
 _atom_site_occupancy
  Mn  Mn0  1  0.00000000  0.00000000  0.00000000  1
  Mn  Mn1  1  0.50000000  0.50000000  0.50000000  1
  C  C0  1  0.80373200  0.80373200  0.19626800  1
  C  C1  1  0.80373200  0.19626800  0.80373200  1
  C  C2  1  0.19626800  0.80373200  0.80373200  1
  C  C3  1  0.19626800  0.19626800  0.19626800  1
  N  N0  1  0.69315700  0.69315700  0.30684300  1
  N  N1  1  0.69315700  0.30684300  0.69315700  1
  N  N2  1  0.30684300  0.69315700  0.69315700  1
  N  N3  1  0.30684300  0.30684300  0.30684300  1
loop_
_geom_bond_atom_site_label_1
_geom_bond_atom_site_label_2
_geom_bond_distance
_geom_bond_site_symmetry_2
Mn1 N0 2.046759 1_555
Mn1 N3 2.046759 1_555
Mn1 N1 2.046759 1_555
Mn1 N2 2.046759 1_555
C0 N0 1.171691 1_555
C0 Mn0 2.079725 1_665
C1 N1 1.171691 1_555
C1 Mn0 2.079725 1_656
C2 N2 1.171691 1_555
C2 Mn0 2.079725 1_566
C3 N3 1.171691 1_555
C3 Mn0 2.079725 1_555
