# generated using pymatgen
data_Co6W20C7
_symmetry_space_group_name_H-M   'P 1'
_cell_length_a   7.87553442
_cell_length_b   7.87553442
_cell_length_c   7.88106200
_cell_angle_alpha   90.00000000
_cell_angle_beta   90.00000000
_cell_angle_gamma   120.00000355
_symmetry_Int_Tables_number   1
_chemical_formula_structural   Co6W20C7
_chemical_formula_sum   'Co6 W20 C7'
_cell_volume   423.32647315
_cell_formula_units_Z   1
loop_
 _symmetry_equiv_pos_site_id
 _symmetry_equiv_pos_as_xyz
  1  'x, y, z'
loop_
 _atom_site_type_symbol
 _atom_site_label
 _atom_site_symmetry_multiplicity
 _atom_site_fract_x
 _atom_site_fract_y
 _atom_site_fract_z
 _atom_site_occupancy
  Co  Co0  1  0.11050700  0.55525300  0.50000000  1
  Co  Co1  1  0.44474700  0.55525300  0.50000000  1
  Co  Co2  1  0.44474700  0.88949300  0.50000000  1
  Co  Co3  1  0.55505500  0.77752800  0.00000000  1
  Co  Co4  1  0.22247200  0.77752800  0.00000000  1
  Co  Co5  1  0.22247200  0.44494500  0.00000000  1
  W  W0  1  0.74072700  0.87036300  0.67810200  1
  W  W1  1  0.12963700  0.87036300  0.67810200  1
  W  W2  1  0.12963700  0.25927300  0.67810200  1
  W  W3  1  0.93407900  0.46703900  0.82052100  1
  W  W4  1  0.53296100  0.46703900  0.82052100  1
  W  W5  1  0.53296100  0.06592100  0.82052100  1
  W  W6  1  0.93407900  0.46703900  0.17947900  1
  W  W7  1  0.53296100  0.46703900  0.17947900  1
  W  W8  1  0.53296100  0.06592100  0.17947900  1
  W  W9  1  0.74072700  0.87036300  0.32189800  1
  W  W10  1  0.12963700  0.87036300  0.32189800  1
  W  W11  1  0.12963700  0.25927300  0.32189800  1
  W  W12  1  0.43833800  0.21916900  0.50000000  1
  W  W13  1  0.78083100  0.21916900  0.50000000  1
  W  W14  1  0.78083100  0.56166200  0.50000000  1
  W  W15  1  0.23626600  0.11813300  0.00000000  1
  W  W16  1  0.88186700  0.11813300  0.00000000  1
  W  W17  1  0.88186700  0.76373400  0.00000000  1
  W  W18  1  0.33333300  0.66666700  0.75057100  1
  W  W19  1  0.33333300  0.66666700  0.24942900  1
  C  C0  1  0.33813300  0.16906600  0.74984000  1
  C  C1  1  0.83093400  0.16906600  0.74984000  1
  C  C2  1  0.83093400  0.66186700  0.74984000  1
  C  C3  1  0.33813300  0.16906600  0.25016000  1
  C  C4  1  0.83093400  0.16906600  0.25016000  1
  C  C5  1  0.83093400  0.66186700  0.25016000  1
  C  C6  1  0.00000000  0.00000000  0.50000000  1
loop_
_geom_bond_atom_site_label_1
_geom_bond_atom_site_label_2
_geom_bond_distance
_geom_bond_site_symmetry_2
Co0 W18 2.491864 1_555
Co0 W19 2.491864 1_555
Co0 W13 2.621972 1_455
Co0 W14 2.621976 1_455
Co0 Co2 2.632318 1_555
Co0 Co1 2.632319 1_555
Co0 W1 2.788841 1_555
Co0 W10 2.788841 1_555
Co0 W11 2.788841 1_555
Co0 W2 2.788841 1_555
Co0 W6 2.798011 1_455
Co0 W3 2.798011 1_455
Co1 W18 2.491872 1_555
Co1 W19 2.491872 1_555
Co1 W12 2.621968 1_555
Co1 W14 2.621968 1_555
Co1 Co2 2.632319 1_555
Co1 W0 2.788841 1_555
Co1 W9 2.788841 1_555
Co1 W2 2.788841 1_555
Co1 W11 2.788841 1_555
Co1 W7 2.798011 1_555
Co1 W4 2.798011 1_555
Co2 W18 2.491864 1_555
Co2 W19 2.491864 1_555
Co2 W13 2.621972 1_565
Co2 W12 2.621976 1_565
Co2 W10 2.788841 1_555
Co2 W1 2.788841 1_555
Co2 W0 2.788841 1_555
Co2 W9 2.788841 1_555
Co2 W5 2.798011 1_565
Co2 W8 2.798011 1_565
Co3 W18 2.480139 1_554
Co3 W19 2.480139 1_555
Co3 Co5 2.619269 1_555
Co3 Co4 2.619269 1_555
Co3 W16 2.629816 1_565
Co3 W17 2.629820 1_555
Co3 W8 2.754055 1_565
Co3 W5 2.754055 1_564
Co3 W7 2.754068 1_555
Co3 W4 2.754068 1_554
Co3 W0 2.835405 1_554
Co3 W9 2.835405 1_555
Co4 W18 2.480139 1_554
Co4 W19 2.480139 1_555
Co4 Co5 2.619269 1_555
Co4 W15 2.629812 1_565
Co4 W17 2.629812 1_455
Co4 W8 2.754062 1_565
Co4 W5 2.754062 1_564
Co4 W6 2.754062 1_455
Co4 W3 2.754062 1_454
Co4 W10 2.835398 1_555
Co4 W1 2.835398 1_554
Co5 W19 2.480139 1_555
Co5 W18 2.480139 1_554
Co5 W16 2.629816 1_455
Co5 W15 2.629820 1_555
Co5 W6 2.754055 1_455
Co5 W3 2.754055 1_454
Co5 W7 2.754068 1_555
Co5 W4 2.754068 1_554
Co5 W11 2.835405 1_555
Co5 W2 2.835405 1_554
C0 W12 2.084243 1_555
C0 W15 2.090366 1_556
C0 W4 2.137960 1_555
C0 W5 2.137960 1_555
C0 W1 2.164973 1_545
C0 W2 2.164974 1_555
C1 W13 2.084245 1_555
C1 W16 2.090363 1_556
C1 W5 2.137960 1_555
C1 W3 2.137960 1_555
C1 W0 2.164973 1_545
C1 W2 2.164973 1_655
C2 W14 2.084243 1_555
C2 W17 2.090366 1_556
C2 W4 2.137960 1_555
C2 W3 2.137960 1_555
C2 W1 2.164973 1_655
C2 W0 2.164974 1_555
C3 W12 2.084243 1_555
C3 W15 2.090366 1_555
C3 W7 2.137960 1_555
C3 W8 2.137960 1_555
C3 W10 2.164973 1_545
C3 W11 2.164974 1_555
C4 W13 2.084245 1_555
C4 W16 2.090363 1_555
C4 W8 2.137960 1_555
C4 W6 2.137960 1_555
C4 W9 2.164973 1_545
C4 W11 2.164973 1_655
C5 W14 2.084243 1_555
C5 W17 2.090366 1_555
C5 W7 2.137960 1_555
C5 W6 2.137960 1_555
C5 W10 2.164973 1_655
C5 W9 2.164974 1_555
C6 W2 2.257707 1_555
C6 W0 2.257707 1_445
C6 W9 2.257707 1_445
C6 W11 2.257707 1_555
C6 W1 2.257713 1_545
C6 W10 2.257713 1_545
