# generated using pymatgen
data_Rb2SnO12
_symmetry_space_group_name_H-M   'P 1'
_cell_length_a   7.97770235
_cell_length_b   7.97770235
_cell_length_c   10.60015700
_cell_angle_alpha   90.00000000
_cell_angle_beta   90.00000000
_cell_angle_gamma   120.00000290
_symmetry_Int_Tables_number   1
_chemical_formula_structural   Rb2SnO12
_chemical_formula_sum   'Rb4 Sn2 O24'
_cell_volume   584.24980212
_cell_formula_units_Z   2
loop_
 _symmetry_equiv_pos_site_id
 _symmetry_equiv_pos_as_xyz
  1  'x, y, z'
loop_
 _atom_site_type_symbol
 _atom_site_label
 _atom_site_symmetry_multiplicity
 _atom_site_fract_x
 _atom_site_fract_y
 _atom_site_fract_z
 _atom_site_occupancy
  Rb  Rb0  1  0.33333300  0.66666700  0.96982500  1
  Rb  Rb1  1  0.33333300  0.66666700  0.46982500  1
  Rb  Rb2  1  0.66666700  0.33333300  0.03017500  1
  Rb  Rb3  1  0.66666700  0.33333300  0.53017500  1
  Sn  Sn0  1  0.00000000  0.00000000  0.00000000  1
  Sn  Sn1  1  0.00000000  0.00000000  0.50000000  1
  O  O0  1  0.86366700  0.13333100  0.88647700  1
  O  O1  1  0.26966400  0.13633300  0.88647700  1
  O  O2  1  0.86666900  0.73033600  0.88647700  1
  O  O3  1  0.86366700  0.73033600  0.38647700  1
  O  O4  1  0.86666900  0.13633300  0.38647700  1
  O  O5  1  0.26966400  0.13333100  0.38647700  1
  O  O6  1  0.13633300  0.86666900  0.11352300  1
  O  O7  1  0.73033600  0.86366700  0.11352300  1
  O  O8  1  0.13333100  0.26966400  0.11352300  1
  O  O9  1  0.13633300  0.26966400  0.61352300  1
  O  O10  1  0.13333100  0.86366700  0.61352300  1
  O  O11  1  0.73033600  0.86666900  0.61352300  1
  O  O12  1  0.97521300  0.32455700  0.87598000  1
  O  O13  1  0.34934500  0.02478700  0.87598000  1
  O  O14  1  0.67544300  0.65065500  0.87598000  1
  O  O15  1  0.97521300  0.65065500  0.37598000  1
  O  O16  1  0.67544300  0.02478700  0.37598000  1
  O  O17  1  0.34934500  0.32455700  0.37598000  1
  O  O18  1  0.02478700  0.67544300  0.12402000  1
  O  O19  1  0.65065500  0.97521300  0.12402000  1
  O  O20  1  0.32455700  0.34934500  0.12402000  1
  O  O21  1  0.02478700  0.34934500  0.62402000  1
  O  O22  1  0.32455700  0.97521300  0.62402000  1
  O  O23  1  0.65065500  0.67544300  0.62402000  1
loop_
_geom_bond_atom_site_label_1
_geom_bond_atom_site_label_2
_geom_bond_distance
_geom_bond_site_symmetry_2
O0 O12 1.331916 1_555
O0 Sn0 2.217947 1_656
O0 Rb2 3.137442 1_556
O1 O13 1.331923 1_555
O1 Sn0 2.217947 1_556
O1 Rb2 3.137448 1_556
O2 Sn0 2.217947 1_666
O2 Rb2 3.137448 1_556
O3 Sn1 2.217947 1_665
O3 Rb3 3.137448 1_555
O4 Sn1 2.217947 1_655
O4 Rb3 3.137442 1_555
O5 Sn1 2.217947 1_555
O5 Rb3 3.137448 1_555
O6 Sn0 2.217947 1_565
O6 Rb0 3.137442 1_554
O7 Sn0 2.217947 1_665
O7 Rb0 3.137448 1_554
O8 Sn0 2.217947 1_555
O8 Rb0 3.137448 1_554
O9 Sn1 2.217947 1_555
O9 Rb1 3.137448 1_555
O10 O22 1.331916 1_555
O10 Sn1 2.217947 1_565
O10 Rb1 3.137442 1_555
O11 O23 1.331916 1_555
O11 Sn1 2.217947 1_665
O11 Rb1 3.137448 1_555
O12 Rb0 2.967033 1_655
O12 Rb2 2.984581 1_556
O13 Rb0 2.967026 1_545
O13 Rb2 2.984581 1_556
O14 O2 1.331916 1_555
O14 Rb0 2.967041 1_555
O14 Rb2 2.984581 1_556
O15 O3 1.331923 1_555
O15 Rb1 2.967026 1_655
O15 Rb3 2.984581 1_555
O16 O4 1.331916 1_555
O16 Rb1 2.967033 1_545
O16 Rb3 2.984581 1_555
O17 O5 1.331916 1_555
O17 Rb1 2.967041 1_555
O17 Rb3 2.984581 1_555
O18 O6 1.331916 1_555
O18 Rb2 2.967033 1_455
O18 Rb0 2.984581 1_554
O19 O7 1.331923 1_555
O19 Rb2 2.967026 1_565
O19 Rb0 2.984581 1_554
O20 O8 1.331916 1_555
O20 Rb2 2.967041 1_555
O20 Rb0 2.984581 1_554
O21 O9 1.331923 1_555
O21 Rb3 2.967026 1_455
O21 Rb1 2.984581 1_555
O22 Rb3 2.967033 1_565
O22 Rb1 2.984581 1_555
O23 Rb3 2.967041 1_555
O23 Rb1 2.984581 1_555
