# generated using pymatgen
data_Sr3H5(OsO4)2
_symmetry_space_group_name_H-M   'P 1'
_cell_length_a   5.87796142
_cell_length_b   9.99316343
_cell_length_c   10.92022125
_cell_angle_alpha   109.91735615
_cell_angle_beta   102.22180486
_cell_angle_gamma   107.60987526
_symmetry_Int_Tables_number   1
_chemical_formula_structural   Sr3H5(OsO4)2
_chemical_formula_sum   'Sr6 H10 Os4 O16'
_cell_volume   538.19297001
_cell_formula_units_Z   2
loop_
 _symmetry_equiv_pos_site_id
 _symmetry_equiv_pos_as_xyz
  1  'x, y, z'
loop_
 _atom_site_type_symbol
 _atom_site_label
 _atom_site_symmetry_multiplicity
 _atom_site_fract_x
 _atom_site_fract_y
 _atom_site_fract_z
 _atom_site_occupancy
  Sr  Sr0  1  0.18670400  0.24115600  0.65327600  1
  Sr  Sr1  1  0.81329600  0.75884400  0.34672400  1
  Sr  Sr2  1  0.60834500  0.35339200  0.40237800  1
  Sr  Sr3  1  0.39165500  0.64660800  0.59762200  1
  Sr  Sr4  1  0.25641500  0.86444700  0.08113500  1
  Sr  Sr5  1  0.74358500  0.13555300  0.91886500  1
  H  H0  1  0.30449700  0.98978900  0.68765800  1
  H  H1  1  0.69550300  0.01021100  0.31234200  1
  H  H2  1  0.00668300  0.24153100  0.37191200  1
  H  H3  1  0.99331700  0.75846900  0.62808800  1
  H  H4  1  0.08448300  0.43095800  0.83499500  1
  H  H5  1  0.91551700  0.56904200  0.16500500  1
  H  H6  1  0.23913300  0.32858100  0.14252900  1
  H  H7  1  0.76086700  0.67141900  0.85747100  1
  H  H8  1  0.25518500  0.75251700  0.38833200  1
  H  H9  1  0.74481500  0.24748300  0.61166800  1
  Os  Os0  1  0.94847400  0.05726000  0.25511000  1
  Os  Os1  1  0.05152600  0.94274000  0.74489000  1
  Os  Os2  1  0.18010700  0.57446200  0.26402500  1
  Os  Os3  1  0.81989300  0.42553800  0.73597500  1
  O  O0  1  0.10334200  0.36148300  0.11454300  1
  O  O1  1  0.89665800  0.63851700  0.88545700  1
  O  O2  1  0.72761500  0.08699500  0.13555200  1
  O  O3  1  0.27238500  0.91300500  0.86444800  1
  O  O4  1  0.49003100  0.55938700  0.37875100  1
  O  O5  1  0.50996900  0.44061300  0.62124900  1
  O  O6  1  0.01668000  0.48955200  0.64249700  1
  O  O7  1  0.98332000  0.51044800  0.35750300  1
  O  O8  1  0.23961000  0.12861700  0.20372600  1
  O  O9  1  0.76039000  0.87138300  0.79627400  1
  O  O10  1  0.34632700  0.68407800  0.18681600  1
  O  O11  1  0.65367300  0.31592200  0.81318400  1
  O  O12  1  0.12326900  0.05653500  0.41550300  1
  O  O13  1  0.87673100  0.94346500  0.58449700  1
  O  O14  1  0.13345200  0.15832600  0.84456300  1
  O  O15  1  0.86654800  0.84167400  0.15543700  1
loop_
_geom_bond_atom_site_label_1
_geom_bond_atom_site_label_2
_geom_bond_distance
_geom_bond_site_symmetry_2
H0 Os1 1.730133 1_555
H0 Sr5 2.760125 1_565
H0 Sr0 2.918071 1_565
H1 Os0 1.730133 1_555
H1 Sr4 2.760125 1_545
H1 Sr1 2.918071 1_545
H2 Os0 1.722970 1_455
H2 Sr2 2.915920 1_455
H3 Os1 1.722970 1_655
H3 Sr3 2.915920 1_655
H4 Os3 1.669756 1_455
H4 Sr0 2.554686 1_555
H5 Os2 1.669756 1_655
H5 Sr1 2.554686 1_555
H6 O0 0.981103 1_555
H7 O1 0.981103 1_555
H8 Os2 1.681980 1_555
H8 Sr1 2.564416 1_455
H8 Sr3 2.893547 1_555
H9 Os3 1.681980 1_555
H9 Sr0 2.564416 1_655
H9 Sr2 2.893547 1_555
O0 Os2 2.034213 1_555
O0 Sr5 2.458911 1_454
O1 Os3 2.034213 1_555
O1 Sr4 2.458911 1_656
O2 Os0 1.805083 1_555
O2 Sr5 2.586951 1_554
O2 Sr4 2.765143 1_545
O3 Os1 1.805083 1_555
O3 Sr4 2.586951 1_556
O3 Sr5 2.765143 1_565
O4 Os2 2.058952 1_555
O4 Sr2 2.437197 1_555
O4 Sr1 2.484035 1_555
O4 Sr3 2.505494 1_555
O5 Os3 2.058952 1_555
O5 Sr3 2.437197 1_555
O5 Sr0 2.484035 1_555
O5 Sr2 2.505494 1_555
O6 Os3 1.812828 1_455
O6 Sr3 2.539619 1_555
O6 Sr2 2.723291 1_455
O6 Sr0 2.970617 1_555
O7 Os2 1.812828 1_655
O7 Sr2 2.539619 1_555
O7 Sr3 2.723291 1_655
O7 Sr1 2.970617 1_555
O8 Os0 1.921632 1_455
O8 Sr2 2.488510 1_555
O8 Sr4 2.564541 1_545
O9 Os1 1.921632 1_655
O9 Sr3 2.488510 1_555
O9 Sr5 2.564541 1_565
O10 Os2 1.787701 1_555
O10 Sr4 2.568157 1_555
O10 Sr1 2.642434 1_555
O11 Os3 1.787701 1_555
O11 Sr5 2.568157 1_555
O11 Sr0 2.642434 1_555
O12 Os0 1.837048 1_455
O12 Sr0 2.488938 1_555
O12 Sr1 2.711522 1_445
O13 Os1 1.837048 1_655
O13 Sr1 2.488938 1_555
O13 Sr0 2.711522 1_665
O14 Os1 1.900176 1_545
O14 Sr0 2.538647 1_555
O14 Sr5 2.561095 1_455
O15 Os0 1.900176 1_565
O15 Sr1 2.538647 1_555
O15 Sr4 2.561095 1_655
