# generated using pymatgen
data_Rb2(TeO4)3
_symmetry_space_group_name_H-M   'P 1'
_cell_length_a   7.58446626
_cell_length_b   7.58446626
_cell_length_c   7.58446603
_cell_angle_alpha   56.07738824
_cell_angle_beta   56.07738824
_cell_angle_gamma   56.07738902
_symmetry_Int_Tables_number   1
_chemical_formula_structural   Rb2(TeO4)3
_chemical_formula_sum   'Rb2 Te3 O12'
_cell_volume   280.47793334
_cell_formula_units_Z   1
loop_
 _symmetry_equiv_pos_site_id
 _symmetry_equiv_pos_as_xyz
  1  'x, y, z'
loop_
 _atom_site_type_symbol
 _atom_site_label
 _atom_site_symmetry_multiplicity
 _atom_site_fract_x
 _atom_site_fract_y
 _atom_site_fract_z
 _atom_site_occupancy
  Rb  Rb0  1  0.37070300  0.37070300  0.37070300  1
  Rb  Rb1  1  0.62929700  0.62929700  0.62929700  1
  Te  Te0  1  0.50000000  0.00000000  0.00000000  1
  Te  Te1  1  0.00000000  0.00000000  0.50000000  1
  Te  Te2  1  0.00000000  0.50000000  0.00000000  1
  O  O0  1  0.93245500  0.33326200  0.33326200  1
  O  O1  1  0.29962100  0.95874700  0.95874700  1
  O  O2  1  0.33326200  0.33326200  0.93245500  1
  O  O3  1  0.95874700  0.95874700  0.29962100  1
  O  O4  1  0.95874700  0.29962100  0.95874700  1
  O  O5  1  0.33326200  0.93245500  0.33326200  1
  O  O6  1  0.06754500  0.66673800  0.66673800  1
  O  O7  1  0.70037900  0.04125300  0.04125300  1
  O  O8  1  0.66673800  0.66673800  0.06754500  1
  O  O9  1  0.04125300  0.04125300  0.70037900  1
  O  O10  1  0.04125300  0.70037900  0.04125300  1
  O  O11  1  0.66673800  0.06754500  0.66673800  1
loop_
_geom_bond_atom_site_label_1
_geom_bond_atom_site_label_2
_geom_bond_distance
_geom_bond_site_symmetry_2
O0 Te2 1.990136 1_655
O0 Te1 1.990137 1_655
O0 Rb1 3.077609 1_555
O1 Te0 1.917347 1_566
O1 Rb1 3.429414 1_555
O2 Te2 1.990137 1_556
O2 Te0 1.990137 1_556
O2 Rb1 3.077609 1_555
O3 Te1 1.917347 1_665
O3 Rb1 3.429414 1_555
O4 Te2 1.917347 1_656
O4 Rb1 3.429414 1_555
O5 Te0 1.990136 1_565
O5 Te1 1.990137 1_565
O5 Rb1 3.077609 1_555
O6 Te2 1.990136 1_556
O6 Te1 1.990137 1_565
O6 Rb0 3.077609 1_555
O7 Te0 1.917347 1_555
O7 Rb0 3.429414 1_555
O8 Te2 1.990137 1_655
O8 Te0 1.990137 1_565
O8 Rb0 3.077609 1_555
O9 Te1 1.917347 1_555
O9 Rb0 3.429414 1_555
O10 Te2 1.917347 1_555
O10 Rb0 3.429414 1_555
O11 Te0 1.990136 1_556
O11 Te1 1.990137 1_655
O11 Rb0 3.077609 1_555
