# generated using pymatgen
data_Hg4SbHO6
_symmetry_space_group_name_H-M   'P 1'
_cell_length_a   4.98776300
_cell_length_b   4.99197575
_cell_length_c   8.73942445
_cell_angle_alpha   104.72962596
_cell_angle_beta   105.56645595
_cell_angle_gamma   92.96635007
_symmetry_Int_Tables_number   1
_chemical_formula_structural   Hg4SbHO6
_chemical_formula_sum   'Hg4 Sb1 H1 O6'
_cell_volume   201.04247229
_cell_formula_units_Z   1
loop_
 _symmetry_equiv_pos_site_id
 _symmetry_equiv_pos_as_xyz
  1  'x, y, z'
loop_
 _atom_site_type_symbol
 _atom_site_label
 _atom_site_symmetry_multiplicity
 _atom_site_fract_x
 _atom_site_fract_y
 _atom_site_fract_z
 _atom_site_occupancy
  Hg  Hg0  1  0.96950100  0.90830400  0.98771400  1
  Hg  Hg1  1  0.17675900  0.10485900  0.34021300  1
  Hg  Hg2  1  0.33508600  0.30088500  0.74126500  1
  Hg  Hg3  1  0.68405500  0.49621400  0.14457900  1
  Sb  Sb0  1  0.75631900  0.70299900  0.55857200  1
  H  H0  1  0.54705100  0.25748000  0.96234000  1
  O  O0  1  0.67493000  0.59355500  0.75437300  1
  O  O1  1  0.05349800  0.46025800  0.54491900  1
  O  O2  1  0.49397900  0.40448000  0.34698600  1
  O  O3  1  0.03260200  0.00253900  0.75807500  1
  O  O4  1  0.83725600  0.84040700  0.35545700  1
  O  O5  1  0.47076600  0.95652000  0.54670600  1
loop_
_geom_bond_atom_site_label_1
_geom_bond_atom_site_label_2
_geom_bond_distance
_geom_bond_site_symmetry_2
Hg0 O3 2.269762 1_665
Hg0 O0 2.304270 1_555
Hg1 O2 2.098528 1_555
Hg1 O4 2.146422 1_445
Hg1 O5 2.308045 1_545
Hg1 O1 2.411498 1_555
Hg2 O3 2.124523 1_555
Hg2 O0 2.138981 1_555
Hg2 O1 2.250871 1_555
Hg2 O5 2.357094 1_545
Hg3 O4 2.104905 1_555
Hg3 O2 2.346202 1_555
H0 Hg3 1.670392 1_556
H0 Hg2 2.009442 1_555
O0 Sb0 2.053468 1_555
O1 Sb0 1.971543 1_455
O2 Sb0 2.109613 1_555
O3 Sb0 2.084770 1_445
O4 Sb0 2.181654 1_555
O5 Sb0 1.953201 1_555
