# generated using pymatgen
data_YTiO3
_symmetry_space_group_name_H-M   'P 1'
_cell_length_a   6.09302934
_cell_length_b   6.09302934
_cell_length_c   12.01894000
_cell_angle_alpha   90.00000000
_cell_angle_beta   90.00000000
_cell_angle_gamma   119.99999280
_symmetry_Int_Tables_number   1
_chemical_formula_structural   YTiO3
_chemical_formula_sum   'Y6 Ti6 O18'
_cell_volume   386.42335665
_cell_formula_units_Z   6
loop_
 _symmetry_equiv_pos_site_id
 _symmetry_equiv_pos_as_xyz
  1  'x, y, z'
loop_
 _atom_site_type_symbol
 _atom_site_label
 _atom_site_symmetry_multiplicity
 _atom_site_fract_x
 _atom_site_fract_y
 _atom_site_fract_z
 _atom_site_occupancy
  Y  Y0  1  0.66666700  0.33333300  0.23165200  1
  Y  Y1  1  0.33333300  0.66666700  0.73165200  1
  Y  Y2  1  0.66666700  0.33333300  0.73165200  1
  Y  Y3  1  0.33333300  0.66666700  0.23165200  1
  Y  Y4  1  0.00000000  0.00000000  0.77944000  1
  Y  Y5  1  0.00000000  0.00000000  0.27944000  1
  Ti  Ti0  1  0.66565200  0.00000000  0.50138400  1
  Ti  Ti1  1  0.66565200  0.66565200  0.00138400  1
  Ti  Ti2  1  0.00000000  0.33434800  0.00138400  1
  Ti  Ti3  1  0.00000000  0.66565200  0.50138400  1
  Ti  Ti4  1  0.33434800  0.33434800  0.50138400  1
  Ti  Ti5  1  0.33434800  0.00000000  0.00138400  1
  O  O0  1  0.66666700  0.33333300  0.02056800  1
  O  O1  1  0.33333300  0.66666700  0.52056800  1
  O  O2  1  0.66666700  0.33333300  0.52056800  1
  O  O3  1  0.33333300  0.66666700  0.02056800  1
  O  O4  1  0.00000000  0.00000000  0.97648800  1
  O  O5  1  0.00000000  0.00000000  0.47648800  1
  O  O6  1  0.36058300  0.00000000  0.83792100  1
  O  O7  1  0.36058300  0.36058300  0.33792100  1
  O  O8  1  0.00000000  0.63941700  0.33792100  1
  O  O9  1  0.00000000  0.36058300  0.83792100  1
  O  O10  1  0.63941700  0.63941700  0.83792100  1
  O  O11  1  0.63941700  0.00000000  0.33792100  1
  O  O12  1  0.30511700  0.00000000  0.16557300  1
  O  O13  1  0.30511700  0.30511700  0.66557300  1
  O  O14  1  0.00000000  0.69488300  0.66557300  1
  O  O15  1  0.00000000  0.30511700  0.16557300  1
  O  O16  1  0.69488300  0.69488300  0.16557300  1
  O  O17  1  0.69488300  0.00000000  0.66557300  1
loop_
_geom_bond_atom_site_label_1
_geom_bond_atom_site_label_2
_geom_bond_distance
_geom_bond_site_symmetry_2
O0 Ti2 2.040988 1_655
O0 Ti5 2.040992 1_555
O0 Ti1 2.040994 1_555
O0 Y0 2.537006 1_555
O1 Ti3 2.040988 1_555
O1 Ti0 2.040992 1_565
O1 Ti4 2.040994 1_555
O1 Y1 2.537006 1_555
O2 Ti0 2.040988 1_555
O2 Ti3 2.040992 1_655
O2 Ti4 2.040994 1_555
O2 Y2 2.537006 1_555
O3 Ti5 2.040988 1_565
O3 Ti2 2.040992 1_555
O3 Ti1 2.040994 1_555
O3 Y3 2.537006 1_555
O4 Ti5 2.059050 1_556
O4 Ti2 2.059050 1_556
O4 Ti1 2.059050 1_446
O4 Y4 2.368308 1_555
O5 Ti0 2.059050 1_455
O5 Ti3 2.059050 1_545
O5 Ti4 2.059050 1_555
O5 Y5 2.368308 1_555
O6 Ti5 1.971144 1_556
O6 Y4 2.306737 1_555
O6 Y1 2.333814 1_545
O6 Y2 2.333816 1_555
O7 Ti4 1.971144 1_555
O7 Y5 2.306737 1_555
O7 Y3 2.333819 1_555
O7 Y0 2.333819 1_555
O8 Ti3 1.971144 1_555
O8 Y5 2.306737 1_565
O8 Y3 2.333814 1_555
O8 Y0 2.333816 1_455
O9 Ti2 1.971144 1_556
O9 Y4 2.306737 1_555
O9 Y2 2.333814 1_455
O9 Y1 2.333816 1_555
O10 Ti1 1.971144 1_556
O10 Y4 2.306737 1_665
O10 Y1 2.333819 1_555
O10 Y2 2.333819 1_555
O11 Ti0 1.971144 1_555
O11 Y5 2.306737 1_655
O11 Y0 2.333814 1_555
O11 Y3 2.333816 1_545
O12 Ti5 1.981399 1_555
O12 Y3 2.265938 1_545
O12 Y0 2.265941 1_555
O12 Y5 2.308498 1_555
O13 Ti4 1.981399 1_555
O13 Y1 2.265944 1_555
O13 Y2 2.265944 1_555
O13 Y4 2.308498 1_555
O14 Ti3 1.981399 1_555
O14 Y1 2.265938 1_555
O14 Y2 2.265941 1_455
O14 Y4 2.308498 1_565
O15 Ti2 1.981399 1_555
O15 Y0 2.265938 1_455
O15 Y3 2.265941 1_555
O15 Y5 2.308498 1_555
O16 Ti1 1.981399 1_555
O16 Y3 2.265944 1_555
O16 Y0 2.265944 1_555
O16 Y5 2.308498 1_665
O17 Ti0 1.981399 1_555
O17 Y2 2.265938 1_555
O17 Y1 2.265941 1_545
O17 Y4 2.308498 1_655
