# generated using pymatgen
data_LiNiO2
_symmetry_space_group_name_H-M   'P 1'
_cell_length_a   4.04125500
_cell_length_b   5.06010640
_cell_length_c   7.71100384
_cell_angle_alpha   103.47621398
_cell_angle_beta   74.80744331
_cell_angle_gamma   113.53758766
_symmetry_Int_Tables_number   1
_chemical_formula_structural   LiNiO2
_chemical_formula_sum   'Li4 Ni4 O8'
_cell_volume   138.03507385
_cell_formula_units_Z   4
loop_
 _symmetry_equiv_pos_site_id
 _symmetry_equiv_pos_as_xyz
  1  'x, y, z'
loop_
 _atom_site_type_symbol
 _atom_site_label
 _atom_site_symmetry_multiplicity
 _atom_site_fract_x
 _atom_site_fract_y
 _atom_site_fract_z
 _atom_site_occupancy
  Li  Li0  1  0.24051100  0.60906000  0.12817700  1
  Li  Li1  1  0.25274900  0.13131300  0.62572500  1
  Li  Li2  1  0.49734000  0.24385000  0.24920400  1
  Li  Li3  1  0.50950100  0.76594700  0.74680100  1
  Ni  Ni0  1  0.99985600  0.50086700  0.50090600  1
  Ni  Ni1  1  0.75004300  0.87439300  0.37423700  1
  Ni  Ni2  1  0.99687800  0.99395600  0.00028400  1
  Ni  Ni3  1  0.75319100  0.38098700  0.87467500  1
  O  O0  1  0.77061900  0.64225200  0.10112000  1
  O  O1  1  0.76713400  0.16635000  0.63206400  1
  O  O2  1  0.23291000  0.84883100  0.38296600  1
  O  O3  1  0.22465200  0.33741200  0.88828500  1
  O  O4  1  0.51698700  0.52625300  0.49212900  1
  O  O5  1  0.52541800  0.03728900  0.98662300  1
  O  O6  1  0.98297200  0.20867300  0.24280700  1
  O  O7  1  0.97924100  0.73256500  0.77399600  1
loop_
_geom_bond_atom_site_label_1
_geom_bond_atom_site_label_2
_geom_bond_distance
_geom_bond_site_symmetry_2
Li0 O3 2.030272 1_554
Li0 O0 2.038598 1_555
Li0 O0 2.038746 1_455
Li0 O2 2.054280 1_555
Li0 O6 2.153494 1_455
Li0 O5 2.379807 1_564
Li1 O1 2.027013 1_455
Li1 O1 2.027296 1_555
Li1 O3 2.046826 1_555
Li1 O2 2.072120 1_545
Li1 O4 2.207667 1_555
Li1 O7 2.287274 1_445
Li2 O6 2.027117 1_455
Li2 O6 2.027302 1_555
Li2 O5 2.047670 1_554
Li2 O4 2.072898 1_555
Li2 O2 2.208700 1_545
Li2 O0 2.285029 1_555
Li3 O5 2.029161 1_565
Li3 O7 2.038742 1_455
Li3 O7 2.038987 1_555
Li3 O4 2.053399 1_555
Li3 O1 2.153977 1_565
Li3 O3 2.380790 1_555
Ni0 O2 1.946074 1_655
Ni0 O1 1.949471 1_555
Ni0 O4 2.025466 1_555
Ni0 O4 2.025856 1_655
Ni0 O7 2.156675 1_555
Ni0 O6 2.184200 1_555
Ni1 O4 1.946600 1_555
Ni1 O6 1.949764 1_565
Ni1 O2 2.025643 1_555
Ni1 O2 2.025753 1_655
Ni1 O0 2.157594 1_555
Ni1 O1 2.182061 1_565
Ni2 O0 1.892209 1_555
Ni2 O3 1.902289 1_664
Ni2 O7 1.927026 1_554
Ni2 O6 1.930688 1_565
Ni2 O5 2.034439 1_564
Ni2 O5 2.034769 1_664
Ni3 O7 1.891062 1_555
Ni3 O5 1.903089 1_555
Ni3 O0 1.927647 1_556
Ni3 O1 1.931110 1_555
Ni3 O3 2.034476 1_555
Ni3 O3 2.034921 1_655
