# generated using pymatgen
data_Yb5In4Cu20Rh
_symmetry_space_group_name_H-M   'P 1'
_cell_length_a   20.56350338
_cell_length_b   20.56350338
_cell_length_c   20.56350335
_cell_angle_alpha   14.17297597
_cell_angle_beta   14.17297597
_cell_angle_gamma   14.17297582
_symmetry_Int_Tables_number   1
_chemical_formula_structural   Yb5In4Cu20Rh
_chemical_formula_sum   'Yb5 In4 Cu20 Rh1'
_cell_volume   453.76532412
_cell_formula_units_Z   1
loop_
 _symmetry_equiv_pos_site_id
 _symmetry_equiv_pos_as_xyz
  1  'x, y, z'
loop_
 _atom_site_type_symbol
 _atom_site_label
 _atom_site_symmetry_multiplicity
 _atom_site_fract_x
 _atom_site_fract_y
 _atom_site_fract_z
 _atom_site_occupancy
  Yb  Yb0  1  0.39794300  0.39794300  0.39794300  1
  Yb  Yb1  1  0.19988600  0.19988600  0.19988600  1
  Yb  Yb2  1  0.80004600  0.80004600  0.80004600  1
  Yb  Yb3  1  0.00165900  0.00165900  0.00165900  1
  Yb  Yb4  1  0.59992600  0.59992600  0.59992600  1
  In  In0  1  0.95012500  0.95012500  0.95012500  1
  In  In1  1  0.54983500  0.54983500  0.54983500  1
  In  In2  1  0.14996300  0.14996300  0.14996300  1
  In  In3  1  0.74979100  0.74979100  0.74979100  1
  Cu  Cu0  1  0.47425100  0.97807800  0.47425100  1
  Cu  Cu1  1  0.07508600  0.57490300  0.07508600  1
  Cu  Cu2  1  0.67478500  0.17538000  0.67478500  1
  Cu  Cu3  1  0.27489700  0.77498200  0.27489700  1
  Cu  Cu4  1  0.87420300  0.37517800  0.87420300  1
  Cu  Cu5  1  0.47425100  0.47425100  0.97807800  1
  Cu  Cu6  1  0.07508600  0.07508600  0.57490300  1
  Cu  Cu7  1  0.67478500  0.67478500  0.17538000  1
  Cu  Cu8  1  0.27489700  0.27489700  0.77498200  1
  Cu  Cu9  1  0.87420300  0.87420300  0.37517800  1
  Cu  Cu10  1  0.27548900  0.27548900  0.27548900  1
  Cu  Cu11  1  0.87511200  0.87511200  0.87511200  1
  Cu  Cu12  1  0.47519800  0.47519800  0.47519800  1
  Cu  Cu13  1  0.07498600  0.07498600  0.07498600  1
  Cu  Cu14  1  0.67506400  0.67506400  0.67506400  1
  Cu  Cu15  1  0.97807800  0.47425100  0.47425100  1
  Cu  Cu16  1  0.57490300  0.07508600  0.07508600  1
  Cu  Cu17  1  0.17538000  0.67478500  0.67478500  1
  Cu  Cu18  1  0.77498200  0.27489700  0.27489700  1
  Cu  Cu19  1  0.37517800  0.87420300  0.87420300  1
  Rh  Rh0  1  0.35001100  0.35001100  0.35001100  1
loop_
_geom_bond_atom_site_label_1
_geom_bond_atom_site_label_2
_geom_bond_distance
_geom_bond_site_symmetry_2
In0 Yb4 3.105076 1_565
In0 Yb4 3.105076 1_655
In0 Yb4 3.105076 1_556
In0 Yb3 3.146737 1_666
In1 Yb4 3.058625 1_555
In1 Yb1 3.100047 1_655
In1 Yb1 3.100047 1_565
In1 Yb1 3.100047 1_556
In2 Yb1 3.048367 1_555
In2 Yb2 3.099408 1_544
In2 Yb2 3.099408 1_454
In2 Yb2 3.099408 1_445
In3 Yb2 3.068639 1_555
In3 Yb0 3.139909 1_655
In3 Yb0 3.139909 1_565
In3 Yb0 3.139909 1_556
Cu0 Cu14 2.491337 1_555
Cu0 Cu10 2.502929 1_565
Cu0 Cu15 2.517450 1_465
Cu0 Cu5 2.517450 1_564
Cu0 Cu15 2.556284 1_555
Cu0 Cu5 2.556284 1_555
Cu0 Rh0 2.902820 1_565
Cu0 Yb4 2.973087 1_555
Cu0 In0 2.973484 1_554
Cu0 In0 2.973484 1_455
Cu0 Yb3 2.996999 1_566
Cu0 Yb3 2.996999 1_665
Cu1 Cu11 2.503592 1_454
Cu1 Cu10 2.530329 1_555
Cu1 Cu16 2.535939 1_555
Cu1 Cu6 2.535939 1_555
Cu1 Cu16 2.537795 1_465
Cu1 Cu6 2.537796 1_564
Cu1 In0 2.941256 1_454
Cu1 Yb1 2.942787 1_555
Cu1 Yb4 2.957631 1_455
Cu1 Yb4 2.957631 1_554
Cu1 In1 2.966742 1_554
Cu1 In1 2.966742 1_455
Cu2 Cu7 2.533848 1_555
Cu2 Cu7 2.539886 1_546
Cu2 In1 2.926977 1_555
Cu2 Yb2 2.933250 1_545
Cu2 Yb1 2.957684 1_556
Cu2 Yb1 2.957684 1_655
Cu2 In2 2.961384 1_655
Cu2 In2 2.961384 1_556
Cu3 Cu8 2.536436 1_564
Cu3 Cu8 2.537298 1_555
Cu3 In2 2.937564 1_565
Cu3 Yb2 2.964549 1_455
Cu3 Yb2 2.964549 1_554
Cu3 In3 2.964981 1_554
Cu3 In3 2.964981 1_455
Cu3 Yb0 3.041318 1_555
Cu4 Cu9 2.531920 1_555
Cu4 Cu9 2.541814 1_546
Cu4 Yb3 2.825154 1_656
Cu4 Yb0 2.912026 1_556
Cu4 Yb0 2.912026 1_655
Cu4 Rh0 2.945647 1_655
Cu4 Rh0 2.945647 1_556
Cu4 In3 2.948206 1_555
Cu5 Rh0 2.902820 1_556
Cu5 Yb4 2.973087 1_555
Cu5 In0 2.973484 1_455
Cu5 In0 2.973484 1_545
Cu5 Yb3 2.996999 1_566
Cu5 Yb3 2.996999 1_656
Cu6 In0 2.941256 1_445
Cu6 Yb1 2.942787 1_555
Cu6 Yb4 2.957631 1_545
Cu6 Yb4 2.957631 1_455
Cu6 In1 2.966742 1_545
Cu6 In1 2.966742 1_455
Cu7 In1 2.926977 1_555
Cu7 Yb2 2.933250 1_554
Cu7 Yb1 2.957684 1_565
Cu7 Yb1 2.957684 1_655
Cu7 In2 2.961384 1_655
Cu7 In2 2.961384 1_565
Cu8 In2 2.937564 1_556
Cu8 Yb2 2.964549 1_455
Cu8 Yb2 2.964549 1_545
Cu8 In3 2.964981 1_545
Cu8 In3 2.964981 1_455
Cu8 Yb0 3.041318 1_555
Cu9 Yb3 2.825154 1_665
Cu9 Yb0 2.912026 1_655
Cu9 Yb0 2.912026 1_565
Cu9 Rh0 2.945647 1_655
Cu9 Rh0 2.945647 1_565
Cu9 In3 2.948206 1_555
Cu10 Cu15 2.502929 1_455
Cu10 Cu5 2.502929 1_554
Cu10 Cu16 2.530329 1_555
Cu10 Cu6 2.530329 1_555
Cu10 In0 2.969465 1_544
Cu10 In0 2.969465 1_454
Cu10 In0 2.969465 1_445
Cu10 Yb4 2.979264 1_455
Cu10 Yb4 2.979264 1_545
Cu10 Yb4 2.979264 1_554
Cu11 Cu16 2.503592 1_566
Cu11 Cu6 2.503592 1_665
Cu11 Cu2 2.514985 1_565
Cu11 Cu17 2.514985 1_655
Cu11 Cu7 2.514985 1_556
Cu11 In1 2.970340 1_565
Cu11 In1 2.970340 1_655
Cu11 In1 2.970340 1_556
Cu11 Yb1 2.975581 1_566
Cu11 Yb1 2.975581 1_656
Cu11 Yb1 2.975581 1_665
Cu12 Cu17 2.495939 1_555
Cu12 Cu2 2.495939 1_555
Cu12 Cu7 2.495939 1_555
Cu12 Cu18 2.521266 1_555
Cu12 Cu3 2.521266 1_555
Cu12 Cu8 2.521266 1_555
Cu12 In2 2.970766 1_655
Cu12 In2 2.970766 1_565
Cu12 In2 2.970766 1_556
Cu12 Yb2 2.974791 1_455
Cu12 Yb2 2.974791 1_545
Cu12 Yb2 2.974791 1_554
Cu13 Cu3 2.504437 1_545
Cu13 Cu18 2.504437 1_455
Cu13 Cu8 2.504437 1_554
Cu13 Cu19 2.531995 1_544
Cu13 Cu4 2.531995 1_454
Cu13 Cu9 2.531995 1_445
Cu13 In3 2.971174 1_454
Cu13 In3 2.971174 1_544
Cu13 In3 2.971174 1_445
Cu13 Yb0 2.997060 1_545
Cu13 Yb0 2.997060 1_455
Cu13 Yb0 2.997060 1_554
Cu14 Cu4 2.479411 1_555
Cu14 Cu19 2.479411 1_555
Cu14 Cu9 2.479411 1_555
Cu14 Cu15 2.491337 1_555
Cu14 Cu5 2.491337 1_555
Cu14 Yb3 2.958077 1_566
Cu14 Yb3 2.958077 1_656
Cu14 Yb3 2.958077 1_665
Cu14 Rh0 2.972636 1_655
Cu14 Rh0 2.972636 1_565
Cu14 Rh0 2.972636 1_556
Cu15 Cu5 2.517450 1_654
Cu15 Cu5 2.556284 1_555
Cu15 Rh0 2.902820 1_655
Cu15 Yb4 2.973087 1_555
Cu15 In0 2.973484 1_554
Cu15 In0 2.973484 1_545
Cu15 Yb3 2.996999 1_656
Cu15 Yb3 2.996999 1_665
Cu16 Cu6 2.535939 1_555
Cu16 Cu6 2.537796 1_654
Cu16 In0 2.941256 1_544
Cu16 Yb1 2.942787 1_555
Cu16 Yb4 2.957631 1_545
Cu16 Yb4 2.957631 1_554
Cu16 In1 2.966742 1_554
Cu16 In1 2.966742 1_545
Cu17 Cu2 2.533848 1_555
Cu17 Cu7 2.533848 1_555
Cu17 Cu2 2.539886 1_465
Cu17 Cu7 2.539886 1_456
Cu17 In1 2.926977 1_555
Cu17 Yb2 2.933250 1_455
Cu17 Yb1 2.957684 1_556
Cu17 Yb1 2.957684 1_565
Cu17 In2 2.961384 1_565
Cu17 In2 2.961384 1_556
Cu18 Cu3 2.536436 1_645
Cu18 Cu8 2.536436 1_654
Cu18 Cu3 2.537298 1_555
Cu18 Cu8 2.537298 1_555
Cu18 In2 2.937564 1_655
Cu18 Yb2 2.964549 1_545
Cu18 Yb2 2.964549 1_554
Cu18 In3 2.964981 1_554
Cu18 In3 2.964981 1_545
Cu18 Yb0 3.041318 1_555
Cu19 Cu4 2.531920 1_555
Cu19 Cu9 2.531920 1_555
Cu19 Cu4 2.541814 1_465
Cu19 Cu9 2.541814 1_456
Cu19 Yb3 2.825154 1_566
Cu19 Yb0 2.912026 1_556
Cu19 Yb0 2.912026 1_565
Cu19 Rh0 2.945647 1_565
Cu19 Rh0 2.945647 1_556
Cu19 In3 2.948206 1_555
Rh0 Yb0 2.926794 1_555
Rh0 Yb3 3.069515 1_655
Rh0 Yb3 3.069515 1_565
Rh0 Yb3 3.069516 1_556
