# generated using pymatgen
data_K4In9Si14
_symmetry_space_group_name_H-M   'P 1'
_cell_length_a   11.22939230
_cell_length_b   11.22939230
_cell_length_c   10.99989200
_cell_angle_alpha   90.00000000
_cell_angle_beta   90.00000000
_cell_angle_gamma   90.19022886
_symmetry_Int_Tables_number   1
_chemical_formula_structural   K4In9Si14
_chemical_formula_sum   'K8 In18 Si28'
_cell_volume   1387.07050096
_cell_formula_units_Z   2
loop_
 _symmetry_equiv_pos_site_id
 _symmetry_equiv_pos_as_xyz
  1  'x, y, z'
loop_
 _atom_site_type_symbol
 _atom_site_label
 _atom_site_symmetry_multiplicity
 _atom_site_fract_x
 _atom_site_fract_y
 _atom_site_fract_z
 _atom_site_occupancy
  K  K0  1  0.75223700  0.49984900  0.25000000  1
  K  K1  1  0.49984900  0.75223700  0.75000000  1
  K  K2  1  0.00028000  0.00028000  0.50000000  1
  K  K3  1  0.24787300  0.49996500  0.25000000  1
  K  K4  1  0.49996500  0.24787300  0.75000000  1
  K  K5  1  0.00028000  0.00028000  0.00000000  1
  K  K6  1  0.49973500  0.00028800  0.25000000  1
  K  K7  1  0.00028800  0.49973500  0.75000000  1
  In  In0  1  0.67313000  0.82185300  0.42576500  1
  In  In1  1  0.32410100  0.17978500  0.07426700  1
  In  In2  1  0.32410100  0.17978500  0.42573300  1
  In  In3  1  0.67313000  0.82185300  0.07423500  1
  In  In4  1  0.67317900  0.18022600  0.07481900  1
  In  In5  1  0.32504600  0.82237200  0.42637800  1
  In  In6  1  0.32504600  0.82237200  0.07362200  1
  In  In7  1  0.67317900  0.18022600  0.42518100  1
  In  In8  1  0.82185300  0.67313000  0.92576500  1
  In  In9  1  0.17978500  0.32410100  0.57426700  1
  In  In10  1  0.17978500  0.32410100  0.92573300  1
  In  In11  1  0.82185300  0.67313000  0.57423500  1
  In  In12  1  0.18022600  0.67317900  0.57481900  1
  In  In13  1  0.82237200  0.32504600  0.92637800  1
  In  In14  1  0.82237200  0.32504600  0.57362200  1
  In  In15  1  0.18022600  0.67317900  0.92518100  1
  In  In16  1  0.75052200  0.00013200  0.75000000  1
  In  In17  1  0.00013200  0.75052200  0.25000000  1
  Si  Si0  1  0.49814200  0.66932400  0.35973500  1
  Si  Si1  1  0.59516300  0.00151300  0.56553600  1
  Si  Si2  1  0.81723000  0.90390500  0.25000000  1
  Si  Si3  1  0.49868300  0.33082100  0.14080700  1
  Si  Si4  1  0.38412400  0.00203200  0.92540100  1
  Si  Si5  1  0.17416000  0.11643700  0.25000000  1
  Si  Si6  1  0.49868300  0.33082100  0.35919300  1
  Si  Si7  1  0.38412400  0.00203200  0.57459900  1
  Si  Si8  1  0.49814200  0.66932400  0.14026500  1
  Si  Si9  1  0.59516300  0.00151300  0.93446400  1
  Si  Si10  1  0.82523200  0.11663400  0.25000000  1
  Si  Si11  1  0.18305400  0.90449500  0.25000000  1
  Si  Si12  1  0.66932400  0.49814200  0.85973500  1
  Si  Si13  1  0.00151300  0.59516300  0.06553600  1
  Si  Si14  1  0.90390500  0.81723000  0.75000000  1
  Si  Si15  1  0.33082100  0.49868300  0.64080700  1
  Si  Si16  1  0.00203200  0.38412400  0.42540100  1
  Si  Si17  1  0.11643700  0.17416000  0.75000000  1
  Si  Si18  1  0.33082100  0.49868300  0.85919300  1
  Si  Si19  1  0.00203200  0.38412400  0.07459900  1
  Si  Si20  1  0.66932400  0.49814200  0.64026500  1
  Si  Si21  1  0.00151300  0.59516300  0.43446400  1
  Si  Si22  1  0.11663400  0.82523200  0.75000000  1
  Si  Si23  1  0.90449500  0.18305400  0.75000000  1
  Si  Si24  1  0.49953600  0.49953600  0.50000000  1
  Si  Si25  1  0.24941500  0.00021300  0.75000000  1
  Si  Si26  1  0.00021300  0.24941500  0.25000000  1
  Si  Si27  1  0.49953600  0.49953600  0.00000000  1
loop_
_geom_bond_atom_site_label_1
_geom_bond_atom_site_label_2
_geom_bond_distance
_geom_bond_site_symmetry_2
K0 Si13 3.616420 1_655
K0 Si21 3.616420 1_655
K0 Si6 3.621653 1_555
K0 Si3 3.621653 1_555
K0 Si8 3.640932 1_555
K0 Si0 3.640932 1_555
K0 Si16 3.647437 1_655
K0 Si19 3.647437 1_655
K1 Si9 3.616420 1_565
K1 Si1 3.616420 1_565
K1 Si18 3.621653 1_555
K1 Si15 3.621653 1_555
K1 Si12 3.640932 1_555
K1 Si20 3.640932 1_555
K1 Si4 3.647437 1_565
K1 Si7 3.647437 1_565
K2 Si14 3.597784 1_445
K2 Si2 3.597784 1_445
K2 Si11 3.598118 1_545
K2 Si23 3.598118 1_455
K2 Si5 3.613771 1_555
K2 Si17 3.613771 1_555
K2 Si22 3.626359 1_545
K2 Si10 3.626359 1_455
K3 Si21 3.596246 1_555
K3 Si13 3.596246 1_555
K3 Si8 3.596741 1_555
K3 Si0 3.596741 1_555
K3 Si16 3.607217 1_555
K3 Si19 3.607217 1_555
K3 Si6 3.608075 1_555
K3 Si3 3.608075 1_555
K4 Si1 3.596246 1_555
K4 Si9 3.596246 1_555
K4 Si20 3.596741 1_555
K4 Si12 3.596741 1_555
K4 Si7 3.607217 1_555
K4 Si4 3.607217 1_555
K4 Si18 3.608075 1_555
K4 Si15 3.608075 1_555
K5 Si14 3.597784 1_444
K5 Si2 3.597784 1_445
K5 Si11 3.598118 1_545
K5 Si23 3.598118 1_454
K5 Si5 3.613771 1_555
K5 Si17 3.613771 1_554
K5 Si10 3.626359 1_455
K5 Si22 3.626359 1_544
K6 Si9 3.632533 1_554
K6 Si1 3.632533 1_555
K6 Si11 3.711849 1_545
K6 Si2 3.729375 1_545
K7 Si21 3.632533 1_555
K7 Si13 3.632533 1_556
K7 Si23 3.711849 1_455
K7 Si14 3.729375 1_455
In0 Si2 2.682446 1_555
In0 Si1 2.685566 1_565
In0 Si0 2.701882 1_555
In0 In11 2.874713 1_555
In0 K6 3.401483 1_565
In1 Si5 2.658898 1_555
In1 Si4 2.670005 1_554
In1 Si3 2.689530 1_555
In1 In10 2.817711 1_554
In1 K6 3.422819 1_555
In2 Si5 2.658898 1_555
In2 Si7 2.670005 1_555
In2 Si6 2.689530 1_555
In2 In9 2.817711 1_555
In2 K6 3.422819 1_555
In3 Si2 2.682446 1_555
In3 Si9 2.685566 1_564
In3 Si8 2.701882 1_555
In3 In8 2.874713 1_554
In3 K6 3.401483 1_565
In4 Si10 2.673328 1_555
In4 Si9 2.677093 1_554
In4 Si3 2.692256 1_555
In4 K6 3.400487 1_555
In5 Si7 2.675757 1_565
In5 Si11 2.677073 1_555
In5 Si0 2.700276 1_555
In5 K6 3.402609 1_565
In6 Si4 2.675757 1_564
In6 Si11 2.677073 1_555
In6 Si8 2.700276 1_555
In6 K6 3.402609 1_565
In7 Si10 2.673328 1_555
In7 Si1 2.677093 1_555
In7 Si6 2.692256 1_555
In7 K6 3.400487 1_555
In8 Si14 2.682446 1_555
In8 Si13 2.685566 1_656
In8 Si12 2.701882 1_555
In8 K7 3.401483 1_655
In9 Si17 2.658898 1_555
In9 Si16 2.670005 1_555
In9 Si15 2.689530 1_555
In9 K7 3.422819 1_555
In10 Si17 2.658898 1_555
In10 Si19 2.670005 1_556
In10 Si18 2.689530 1_555
In10 K7 3.422819 1_555
In11 Si14 2.682446 1_555
In11 Si21 2.685566 1_655
In11 Si20 2.701882 1_555
In11 K7 3.401483 1_655
In12 Si22 2.673328 1_555
In12 Si21 2.677093 1_555
In12 Si15 2.692256 1_555
In12 In5 2.845963 1_555
In12 K7 3.400487 1_555
In13 Si19 2.675757 1_656
In13 Si23 2.677073 1_555
In13 Si12 2.700276 1_555
In13 In4 2.845963 1_556
In13 K7 3.402609 1_655
In14 Si16 2.675757 1_655
In14 Si23 2.677073 1_555
In14 Si20 2.700276 1_555
In14 In7 2.845963 1_555
In14 K7 3.402609 1_655
In15 Si22 2.673328 1_555
In15 Si13 2.677093 1_556
In15 Si18 2.692256 1_555
In15 In6 2.845963 1_556
In15 K7 3.400487 1_555
In16 Si1 2.676039 1_555
In16 Si9 2.676039 1_555
In16 Si23 2.680537 1_555
In16 Si14 2.684876 1_545
In16 K5 3.927884 1_656
In16 K2 3.927884 1_655
In17 Si21 2.676039 1_555
In17 Si13 2.676039 1_555
In17 Si11 2.680537 1_555
In17 Si2 2.684876 1_455
In17 K2 3.927884 1_565
In17 K5 3.927884 1_565
Si0 Si8 2.414146 1_555
Si0 Si24 2.452788 1_555
Si1 Si7 2.371962 1_555
Si3 Si6 2.402222 1_555
Si4 Si9 2.371962 1_555
Si10 Si2 2.390209 1_545
Si10 Si26 2.462667 1_655
Si11 Si5 2.382406 1_565
Si12 Si20 2.414146 1_555
Si12 Si27 2.452788 1_556
Si13 Si19 2.371962 1_555
Si14 Si22 2.390209 1_655
Si15 Si18 2.402222 1_555
Si15 Si24 2.447106 1_555
Si16 Si21 2.371962 1_555
Si16 Si26 2.451740 1_555
Si17 Si23 2.382406 1_455
Si17 Si25 2.462652 1_555
Si18 Si27 2.447106 1_556
Si19 Si26 2.451740 1_555
Si20 Si24 2.452788 1_555
Si22 Si25 2.462667 1_565
Si24 Si6 2.447106 1_555
Si25 Si7 2.451740 1_555
Si25 Si4 2.451740 1_555
Si26 Si5 2.462652 1_555
Si27 Si3 2.447106 1_555
Si27 Si8 2.452788 1_555
