# generated using pymatgen
data_CaLa2BeO5
_symmetry_space_group_name_H-M   'P 1'
_cell_length_a   6.62669300
_cell_length_b   7.29408400
_cell_length_c   9.65728300
_cell_angle_alpha   90.00000000
_cell_angle_beta   90.00000000
_cell_angle_gamma   90.00000000
_symmetry_Int_Tables_number   1
_chemical_formula_structural   CaLa2BeO5
_chemical_formula_sum   'Ca4 La8 Be4 O20'
_cell_volume   466.79110304
_cell_formula_units_Z   4
loop_
 _symmetry_equiv_pos_site_id
 _symmetry_equiv_pos_as_xyz
  1  'x, y, z'
loop_
 _atom_site_type_symbol
 _atom_site_label
 _atom_site_symmetry_multiplicity
 _atom_site_fract_x
 _atom_site_fract_y
 _atom_site_fract_z
 _atom_site_occupancy
  Ca  Ca0  1  0.57667800  0.97820200  0.67449400  1
  Ca  Ca1  1  0.42332200  0.47820200  0.32550600  1
  Ca  Ca2  1  0.07667800  0.47820200  0.82550600  1
  Ca  Ca3  1  0.92332200  0.97820200  0.17449400  1
  La  La0  1  0.09675900  0.74581700  0.52368900  1
  La  La1  1  0.40324100  0.74581700  0.02368900  1
  La  La2  1  0.90324100  0.24581700  0.47631100  1
  La  La3  1  0.59675900  0.24581700  0.97631100  1
  La  La4  1  0.92628200  0.52746900  0.17239500  1
  La  La5  1  0.07371800  0.02746900  0.82760500  1
  La  La6  1  0.42628200  0.02746900  0.32760500  1
  La  La7  1  0.57371800  0.52746900  0.67239500  1
  Be  Be0  1  0.69405300  0.74898600  0.39535900  1
  Be  Be1  1  0.80594700  0.74898600  0.89535900  1
  Be  Be2  1  0.30594700  0.24898600  0.60464100  1
  Be  Be3  1  0.19405300  0.24898600  0.10464100  1
  O  O0  1  0.01676800  0.74988000  0.98569500  1
  O  O1  1  0.48323200  0.74988000  0.48569500  1
  O  O2  1  0.98323200  0.24988000  0.01430500  1
  O  O3  1  0.51676800  0.24988000  0.51430500  1
  O  O4  1  0.64126600  0.75040800  0.22454000  1
  O  O5  1  0.85873400  0.75040800  0.72454000  1
  O  O6  1  0.35873400  0.25040800  0.77546000  1
  O  O7  1  0.14126600  0.25040800  0.27546000  1
  O  O8  1  0.16202000  0.74899100  0.27290200  1
  O  O9  1  0.33798000  0.74899100  0.77290200  1
  O  O10  1  0.83798000  0.24899100  0.72709800  1
  O  O11  1  0.66202000  0.24899100  0.22709800  1
  O  O12  1  0.31102000  0.05854400  0.07160900  1
  O  O13  1  0.19203800  0.44170300  0.57315200  1
  O  O14  1  0.68898000  0.55854400  0.92839100  1
  O  O15  1  0.80796200  0.94170300  0.42684800  1
  O  O16  1  0.69203800  0.94170300  0.92684800  1
  O  O17  1  0.81102000  0.55854400  0.42839100  1
  O  O18  1  0.30796200  0.44170300  0.07315200  1
  O  O19  1  0.18898000  0.05854400  0.57160900  1
loop_
_geom_bond_atom_site_label_1
_geom_bond_atom_site_label_2
_geom_bond_distance
_geom_bond_site_symmetry_2
Ca0 O9 2.490059 1_555
Ca0 O3 2.545132 1_565
Ca0 O1 2.545856 1_555
Ca0 O5 2.547128 1_555
Ca0 O16 2.567976 1_555
Ca0 O6 2.641737 1_565
Ca0 O10 2.675379 1_565
Ca0 O19 2.816239 1_565
Ca0 O15 2.852994 1_555
Ca1 O11 2.490059 1_555
Ca1 O1 2.545132 1_555
Ca1 O3 2.545856 1_555
Ca1 O7 2.547128 1_555
Ca1 O18 2.567976 1_555
Ca1 O4 2.641737 1_555
Ca1 O8 2.675379 1_555
Ca1 O17 2.816239 1_555
Ca1 O13 2.852994 1_555
Ca2 O10 2.490059 1_455
Ca2 O0 2.545132 1_555
Ca2 O2 2.545856 1_456
Ca2 O6 2.547128 1_555
Ca2 O13 2.567976 1_555
Ca2 O5 2.641737 1_455
Ca2 O9 2.675379 1_555
Ca2 O14 2.816239 1_455
Ca2 O18 2.852994 1_556
Ca3 O8 2.490059 1_655
Ca3 O2 2.545132 1_565
Ca3 O0 2.545856 1_654
Ca3 O4 2.547128 1_555
Ca3 O15 2.567976 1_555
Ca3 O7 2.641737 1_665
Ca3 O11 2.675379 1_565
Ca3 O12 2.816239 1_665
Ca3 O16 2.852994 1_554
La0 O13 2.355288 1_555
La0 O19 2.406419 1_565
La0 O8 2.460338 1_555
La0 O5 2.500279 1_455
La0 O17 2.509634 1_455
La0 O15 2.564887 1_455
La0 O1 2.587358 1_555
La0 O9 2.889296 1_555
La1 O18 2.355288 1_555
La1 O12 2.406419 1_565
La1 O9 2.460338 1_554
La1 O4 2.500279 1_555
La1 O14 2.509634 1_554
La1 O16 2.564887 1_554
La1 O0 2.587358 1_554
La1 O8 2.889296 1_555
La2 O15 2.355288 1_545
La2 O17 2.406419 1_555
La2 O10 2.460338 1_555
La2 O7 2.500279 1_655
La2 O19 2.509634 1_655
La2 O13 2.564887 1_655
La2 O3 2.587358 1_555
La2 O11 2.889296 1_555
La3 O16 2.355288 1_545
La3 O14 2.406419 1_555
La3 O11 2.460338 1_556
La3 O6 2.500279 1_555
La3 O12 2.509634 1_556
La3 O18 2.564887 1_556
La3 O2 2.587358 1_556
La3 O10 2.889296 1_555
La4 O8 2.448117 1_655
La4 O0 2.498443 1_654
La4 O4 2.542666 1_555
La4 O2 2.563775 1_555
La4 O17 2.597436 1_555
La4 O7 2.665393 1_655
La4 O11 2.733435 1_555
La4 O18 2.776177 1_655
La4 O14 2.841991 1_554
La5 O10 2.448117 1_455
La5 O2 2.498443 1_456
La5 O6 2.542666 1_555
La5 O0 2.563775 1_545
La5 O19 2.597436 1_555
La5 O5 2.665393 1_445
La5 O9 2.733435 1_545
La5 O16 2.776177 1_445
La5 O12 2.841991 1_556
La6 O11 2.448117 1_555
La6 O3 2.498443 1_555
La6 O7 2.542666 1_555
La6 O1 2.563775 1_545
La6 O12 2.597436 1_555
La6 O4 2.665393 1_545
La6 O8 2.733435 1_545
La6 O15 2.776177 1_545
La6 O19 2.841991 1_555
La7 O9 2.448117 1_555
La7 O1 2.498443 1_555
La7 O5 2.542666 1_555
La7 O3 2.563775 1_555
La7 O14 2.597436 1_555
La7 O6 2.665393 1_555
La7 O10 2.733435 1_555
La7 O13 2.776177 1_555
La7 O17 2.841991 1_555
Be0 O17 1.622389 1_555
Be0 O15 1.624264 1_555
Be0 O1 1.647077 1_555
Be0 O4 1.686359 1_555
Be1 O14 1.622389 1_555
Be1 O16 1.624264 1_555
Be1 O0 1.647077 1_655
Be1 O5 1.686359 1_555
Be2 O19 1.622389 1_555
Be2 O13 1.624264 1_555
Be2 O3 1.647077 1_555
Be2 O6 1.686359 1_555
Be3 O12 1.622389 1_555
Be3 O18 1.624264 1_555
Be3 O2 1.647077 1_455
Be3 O7 1.686359 1_555
