# generated using pymatgen
data_MgTi3
_symmetry_space_group_name_H-M   'P 1'
_cell_length_a   5.71340200
_cell_length_b   9.71756600
_cell_length_c   10.55927000
_cell_angle_alpha   90.00000000
_cell_angle_beta   90.00000000
_cell_angle_gamma   90.00000000
_symmetry_Int_Tables_number   1
_chemical_formula_structural   MgTi3
_chemical_formula_sum   'Mg8 Ti24'
_cell_volume   586.25448250
_cell_formula_units_Z   8
loop_
 _symmetry_equiv_pos_site_id
 _symmetry_equiv_pos_as_xyz
  1  'x, y, z'
loop_
 _atom_site_type_symbol
 _atom_site_label
 _atom_site_symmetry_multiplicity
 _atom_site_fract_x
 _atom_site_fract_y
 _atom_site_fract_z
 _atom_site_occupancy
  Mg  Mg0_0  1  0.00000000  0.25000000  0.16130550  1
  Mg  Mg0_1  1  0.00000000  0.25000000  0.66130550  1
  Mg  Mg0_2  1  0.00000000  0.75000000  0.16130550  1
  Mg  Mg0_3  1  0.00000000  0.75000000  0.66130550  1
  Mg  Mg0_4  1  0.50000000  0.25000000  0.16130550  1
  Mg  Mg0_5  1  0.50000000  0.25000000  0.66130550  1
  Mg  Mg0_6  1  0.50000000  0.75000000  0.16130550  1
  Mg  Mg0_7  1  0.50000000  0.75000000  0.66130550  1
  Ti  Ti0_0  1  0.00000000  0.00000000  0.49216600  1
  Ti  Ti0_1  1  0.00000000  0.00000000  0.99216600  1
  Ti  Ti0_2  1  0.00000000  0.50000000  0.49216600  1
  Ti  Ti0_3  1  0.00000000  0.50000000  0.99216600  1
  Ti  Ti0_4  1  0.50000000  0.00000000  0.49216600  1
  Ti  Ti0_5  1  0.50000000  0.00000000  0.99216600  1
  Ti  Ti0_6  1  0.50000000  0.50000000  0.49216600  1
  Ti  Ti0_7  1  0.50000000  0.50000000  0.99216600  1
  Ti  Ti1_0  1  0.25000000  0.00000000  0.26508900  1
  Ti  Ti1_1  1  0.25000000  0.00000000  0.76508900  1
  Ti  Ti1_2  1  0.25000000  0.50000000  0.26508900  1
  Ti  Ti1_3  1  0.25000000  0.50000000  0.76508900  1
  Ti  Ti1_4  1  0.75000000  0.00000000  0.26508900  1
  Ti  Ti1_5  1  0.75000000  0.00000000  0.76508900  1
  Ti  Ti1_6  1  0.75000000  0.50000000  0.26508900  1
  Ti  Ti1_7  1  0.75000000  0.50000000  0.76508900  1
  Ti  Ti2_0  1  0.25000000  0.25000000  0.41477250  1
  Ti  Ti2_1  1  0.25000000  0.25000000  0.91477250  1
  Ti  Ti2_2  1  0.25000000  0.75000000  0.41477250  1
  Ti  Ti2_3  1  0.25000000  0.75000000  0.91477250  1
  Ti  Ti2_4  1  0.75000000  0.25000000  0.41477250  1
  Ti  Ti2_5  1  0.75000000  0.25000000  0.91477250  1
  Ti  Ti2_6  1  0.75000000  0.75000000  0.41477250  1
  Ti  Ti2_7  1  0.75000000  0.75000000  0.91477250  1
loop_
_geom_bond_atom_site_label_1
_geom_bond_atom_site_label_2
_geom_bond_distance
_geom_bond_site_symmetry_2
Mg0_0 Mg0_4 2.856701 1_455
Mg0_0 Mg0_4 2.856701 1_555
Mg0_0 Ti2_5 2.969323 1_454
Mg0_0 Ti2_1 2.969323 1_554
Mg0_0 Ti0_1 3.015245 1_554
Mg0_0 Ti0_3 3.015245 1_554
Mg0_0 Ti1_2 3.023752 1_555
Mg0_0 Ti1_0 3.023752 1_555
Mg0_0 Ti1_4 3.023752 1_455
Mg0_0 Ti1_6 3.023752 1_455
Mg0_0 Ti2_4 3.033718 1_455
Mg0_0 Ti2_0 3.033718 1_555
Mg0_1 Mg0_5 2.856701 1_555
Mg0_1 Mg0_5 2.856701 1_455
Mg0_1 Ti2_0 2.969323 1_555
Mg0_1 Ti2_4 2.969323 1_455
Mg0_1 Ti0_0 3.015245 1_555
Mg0_1 Ti0_2 3.015245 1_555
Mg0_1 Ti1_3 3.023752 1_555
Mg0_1 Ti1_1 3.023752 1_555
Mg0_1 Ti1_7 3.023752 1_455
Mg0_1 Ti1_5 3.023752 1_455
Mg0_1 Ti2_1 3.033718 1_555
Mg0_1 Ti2_5 3.033718 1_455
Mg0_2 Mg0_6 2.856701 1_455
Mg0_2 Mg0_6 2.856701 1_555
Mg0_2 Ti2_7 2.969323 1_454
Mg0_2 Ti2_3 2.969323 1_554
Mg0_2 Ti0_1 3.015245 1_564
Mg0_2 Ti0_3 3.015245 1_554
Mg0_2 Ti1_0 3.023752 1_565
Mg0_2 Ti1_4 3.023752 1_465
Mg0_2 Ti1_2 3.023752 1_555
Mg0_2 Ti1_6 3.023752 1_455
Mg0_2 Ti2_6 3.033718 1_455
Mg0_2 Ti2_2 3.033718 1_555
Mg0_3 Mg0_7 2.856701 1_455
Mg0_3 Mg0_7 2.856701 1_555
Mg0_3 Ti2_2 2.969323 1_555
Mg0_3 Ti2_6 2.969323 1_455
Mg0_3 Ti0_0 3.015245 1_565
Mg0_3 Ti0_2 3.015245 1_555
Mg0_3 Ti1_1 3.023752 1_565
Mg0_3 Ti1_5 3.023752 1_465
Mg0_3 Ti1_7 3.023752 1_455
Mg0_3 Ti1_3 3.023752 1_555
Mg0_3 Ti2_3 3.033718 1_555
Mg0_3 Ti2_7 3.033718 1_455
Mg0_4 Ti2_5 2.969323 1_554
Mg0_4 Ti2_1 2.969323 1_554
Mg0_4 Ti0_7 3.015245 1_554
Mg0_4 Ti0_5 3.015245 1_554
Mg0_4 Ti1_4 3.023752 1_555
Mg0_4 Ti1_2 3.023752 1_555
Mg0_4 Ti1_6 3.023752 1_555
Mg0_4 Ti1_0 3.023752 1_555
Mg0_4 Ti2_4 3.033718 1_555
Mg0_4 Ti2_0 3.033718 1_555
Mg0_5 Ti2_0 2.969323 1_555
Mg0_5 Ti2_4 2.969323 1_555
Mg0_5 Ti0_4 3.015245 1_555
Mg0_5 Ti0_6 3.015245 1_555
Mg0_5 Ti1_5 3.023752 1_555
Mg0_5 Ti1_1 3.023752 1_555
Mg0_5 Ti1_3 3.023752 1_555
Mg0_5 Ti1_7 3.023752 1_555
Mg0_5 Ti2_5 3.033718 1_555
Mg0_5 Ti2_1 3.033718 1_555
Mg0_6 Ti2_7 2.969323 1_554
Mg0_6 Ti2_3 2.969323 1_554
Mg0_6 Ti0_5 3.015245 1_564
Mg0_6 Ti0_7 3.015245 1_554
Mg0_6 Ti1_0 3.023752 1_565
Mg0_6 Ti1_4 3.023752 1_565
Mg0_6 Ti1_6 3.023752 1_555
Mg0_6 Ti1_2 3.023752 1_555
Mg0_6 Ti2_6 3.033718 1_555
Mg0_6 Ti2_2 3.033718 1_555
Mg0_7 Ti2_2 2.969323 1_555
Mg0_7 Ti2_6 2.969323 1_555
Mg0_7 Ti0_4 3.015245 1_565
Mg0_7 Ti0_6 3.015245 1_555
Mg0_7 Ti1_5 3.023752 1_565
Mg0_7 Ti1_1 3.023752 1_565
Mg0_7 Ti1_7 3.023752 1_555
Mg0_7 Ti1_3 3.023752 1_555
Mg0_7 Ti2_7 3.033718 1_555
Mg0_7 Ti2_3 3.033718 1_555
Ti0_0 Ti1_0 2.790963 1_555
Ti0_0 Ti1_4 2.790963 1_455
Ti0_0 Ti0_4 2.856701 1_455
Ti0_0 Ti0_4 2.856701 1_555
Ti0_0 Ti2_2 2.934276 1_545
Ti0_0 Ti2_6 2.934276 1_445
Ti0_0 Ti2_0 2.934276 1_555
Ti0_0 Ti2_4 2.934276 1_455
Ti0_0 Ti1_1 3.216418 1_555
Ti0_0 Ti1_5 3.216418 1_455
Ti0_1 Ti1_1 2.790963 1_555
Ti0_1 Ti1_5 2.790963 1_455
Ti0_1 Ti0_5 2.856701 1_455
Ti0_1 Ti0_5 2.856701 1_555
Ti0_1 Ti2_3 2.934276 1_545
Ti0_1 Ti2_7 2.934276 1_445
Ti0_1 Ti2_1 2.934276 1_555
Ti0_1 Ti2_5 2.934276 1_455
Ti0_1 Ti1_0 3.216418 1_556
Ti0_1 Ti1_4 3.216418 1_456
Ti0_2 Ti1_2 2.790963 1_555
Ti0_2 Ti1_6 2.790963 1_455
Ti0_2 Ti0_6 2.856701 1_555
Ti0_2 Ti0_6 2.856701 1_455
Ti0_2 Ti2_0 2.934276 1_555
Ti0_2 Ti2_2 2.934276 1_555
Ti0_2 Ti2_4 2.934276 1_455
Ti0_2 Ti2_6 2.934276 1_455
Ti0_2 Ti1_3 3.216418 1_555
Ti0_2 Ti1_7 3.216418 1_455
Ti0_3 Ti1_7 2.790963 1_455
Ti0_3 Ti1_3 2.790963 1_555
Ti0_3 Ti0_7 2.856701 1_455
Ti0_3 Ti0_7 2.856701 1_555
Ti0_3 Ti2_1 2.934276 1_555
Ti0_3 Ti2_5 2.934276 1_455
Ti0_3 Ti2_7 2.934276 1_455
Ti0_3 Ti2_3 2.934276 1_555
Ti0_3 Ti1_2 3.216418 1_556
Ti0_3 Ti1_6 3.216418 1_456
Ti0_4 Ti1_0 2.790963 1_555
Ti0_4 Ti1_4 2.790963 1_555
Ti0_4 Ti2_2 2.934276 1_545
Ti0_4 Ti2_6 2.934276 1_545
Ti0_4 Ti2_4 2.934276 1_555
Ti0_4 Ti2_0 2.934276 1_555
Ti0_4 Ti1_5 3.216418 1_555
Ti0_4 Ti1_1 3.216418 1_555
Ti0_5 Ti1_5 2.790963 1_555
Ti0_5 Ti1_1 2.790963 1_555
Ti0_5 Ti2_7 2.934276 1_545
Ti0_5 Ti2_3 2.934276 1_545
Ti0_5 Ti2_5 2.934276 1_555
Ti0_5 Ti2_1 2.934276 1_555
Ti0_5 Ti1_4 3.216418 1_556
Ti0_5 Ti1_0 3.216418 1_556
Ti0_6 Ti1_6 2.790963 1_555
Ti0_6 Ti1_2 2.790963 1_555
Ti0_6 Ti2_4 2.934276 1_555
Ti0_6 Ti2_0 2.934276 1_555
Ti0_6 Ti2_6 2.934276 1_555
Ti0_6 Ti2_2 2.934276 1_555
Ti0_6 Ti1_7 3.216418 1_555
Ti0_6 Ti1_3 3.216418 1_555
Ti0_7 Ti1_7 2.790963 1_555
Ti0_7 Ti1_3 2.790963 1_555
Ti0_7 Ti2_5 2.934276 1_555
Ti0_7 Ti2_1 2.934276 1_555
Ti0_7 Ti2_7 2.934276 1_555
Ti0_7 Ti2_3 2.934276 1_555
Ti0_7 Ti1_6 3.216418 1_556
Ti0_7 Ti1_2 3.216418 1_556
Ti1_0 Ti1_4 2.856701 1_555
Ti1_0 Ti1_4 2.856701 1_455
Ti1_0 Ti2_2 2.898289 1_545
Ti1_0 Ti2_0 2.898289 1_555
Ti1_1 Ti1_5 2.856701 1_555
Ti1_1 Ti1_5 2.856701 1_455
Ti1_1 Ti2_3 2.898289 1_545
Ti1_1 Ti2_1 2.898289 1_555
Ti1_2 Ti1_6 2.856701 1_555
Ti1_2 Ti1_6 2.856701 1_455
Ti1_2 Ti2_0 2.898289 1_555
Ti1_2 Ti2_2 2.898289 1_555
Ti1_3 Ti1_7 2.856701 1_555
Ti1_3 Ti1_7 2.856701 1_455
Ti1_3 Ti2_1 2.898289 1_555
Ti1_3 Ti2_3 2.898289 1_555
Ti1_4 Ti2_6 2.898289 1_545
Ti1_4 Ti2_4 2.898289 1_555
Ti1_5 Ti2_7 2.898289 1_545
Ti1_5 Ti2_5 2.898289 1_555
Ti1_6 Ti2_4 2.898289 1_555
Ti1_6 Ti2_6 2.898289 1_555
Ti1_7 Ti2_5 2.898289 1_555
Ti1_7 Ti2_7 2.898289 1_555
Ti2_0 Ti2_4 2.856701 1_555
Ti2_0 Ti2_4 2.856701 1_455
Ti2_1 Ti2_5 2.856701 1_555
Ti2_1 Ti2_5 2.856701 1_455
Ti2_2 Ti2_6 2.856701 1_555
Ti2_2 Ti2_6 2.856701 1_455
Ti2_3 Ti2_7 2.856701 1_555
Ti2_3 Ti2_7 2.856701 1_455
