# generated using pymatgen
data_Na3GaN2
_symmetry_space_group_name_H-M   'P 1'
_cell_length_a   9.43709700
_cell_length_b   10.89702149
_cell_length_c   10.89702131
_cell_angle_alpha   89.99999948
_cell_angle_beta   125.26438848
_cell_angle_gamma   54.73561221
_symmetry_Int_Tables_number   1
_chemical_formula_structural   Na3GaN2
_chemical_formula_sum   'Na24 Ga8 N16'
_cell_volume   646.98383295
_cell_formula_units_Z   8
loop_
 _symmetry_equiv_pos_site_id
 _symmetry_equiv_pos_as_xyz
  1  'x, y, z'
loop_
 _atom_site_type_symbol
 _atom_site_label
 _atom_site_symmetry_multiplicity
 _atom_site_fract_x
 _atom_site_fract_y
 _atom_site_fract_z
 _atom_site_occupancy
  Na  Na0  1  0.19834600  0.05759900  0.96293900  1
  Na  Na1  1  0.80165400  0.75594500  0.53706100  1
  Na  Na2  1  0.80165400  0.44240100  0.76459200  1
  Na  Na3  1  0.19834600  0.74405500  0.73540800  1
  Na  Na4  1  0.27246900  0.76459200  0.29300700  1
  Na  Na5  1  0.72753100  0.73540800  0.02053800  1
  Na  Na6  1  0.27246900  0.96293900  0.47946200  1
  Na  Na7  1  0.72753100  0.53706100  0.20699300  1
  Na  Na8  1  0.68645600  0.02053800  0.74405500  1
  Na  Na9  1  0.68645600  0.29300700  0.44240100  1
  Na  Na10  1  0.31354400  0.20699300  0.75594500  1
  Na  Na11  1  0.31354400  0.47946200  0.05759900  1
  Na  Na12  1  0.80165400  0.94240100  0.03706100  1
  Na  Na13  1  0.19834600  0.24405500  0.46293900  1
  Na  Na14  1  0.19834600  0.55759900  0.23540800  1
  Na  Na15  1  0.80165400  0.25594500  0.26459200  1
  Na  Na16  1  0.72753100  0.23540800  0.70699300  1
  Na  Na17  1  0.27246900  0.26459200  0.97946200  1
  Na  Na18  1  0.72753100  0.03706100  0.52053800  1
  Na  Na19  1  0.27246900  0.46293900  0.79300700  1
  Na  Na20  1  0.31354400  0.97946200  0.25594500  1
  Na  Na21  1  0.31354400  0.70699300  0.55759900  1
  Na  Na22  1  0.68645600  0.79300700  0.24405500  1
  Na  Na23  1  0.68645600  0.52053800  0.94240100  1
  Ga  Ga0  1  0.21404500  0.00000000  0.71404500  1
  Ga  Ga1  1  0.78595500  0.71404500  0.78595500  1
  Ga  Ga2  1  0.78595500  0.50000000  0.50000000  1
  Ga  Ga3  1  0.21404500  0.78595500  0.00000000  1
  Ga  Ga4  1  0.78595500  0.00000000  0.28595500  1
  Ga  Ga5  1  0.21404500  0.28595500  0.21404500  1
  Ga  Ga6  1  0.21404500  0.50000000  0.50000000  1
  Ga  Ga7  1  0.78595500  0.21404500  0.00000000  1
  N  N0  1  0.00000000  0.00000000  0.50000000  1
  N  N1  1  0.00000000  0.50000000  0.00000000  1
  N  N2  1  0.00000000  0.50000000  0.50000000  1
  N  N3  1  0.00000000  0.00000000  0.00000000  1
  N  N4  1  0.50000000  0.94093200  0.75000000  1
  N  N5  1  0.50000000  0.55906800  0.25000000  1
  N  N6  1  0.00000000  0.25000000  0.69093200  1
  N  N7  1  0.00000000  0.75000000  0.80906800  1
  N  N8  1  0.61813600  0.69093200  0.55906800  1
  N  N9  1  0.38186400  0.80906800  0.94093200  1
  N  N10  1  0.50000000  0.05906800  0.25000000  1
  N  N11  1  0.50000000  0.44093200  0.75000000  1
  N  N12  1  0.00000000  0.75000000  0.30906800  1
  N  N13  1  0.00000000  0.25000000  0.19093200  1
  N  N14  1  0.38186400  0.30906800  0.44093200  1
  N  N15  1  0.61813600  0.19093200  0.05906800  1
loop_
_geom_bond_atom_site_label_1
_geom_bond_atom_site_label_2
_geom_bond_distance
_geom_bond_site_symmetry_2
Ga0 N0 2.019964 1_555
Ga0 N4 2.150255 1_545
Ga0 N9 2.150256 1_545
Ga0 N6 2.150256 1_555
Ga1 N1 2.019964 1_656
Ga1 N7 2.150255 1_655
Ga1 N8 2.150256 1_555
Ga1 N4 2.150256 1_555
Ga2 N2 2.019963 1_655
Ga2 N5 2.150256 1_555
Ga2 N8 2.150256 1_555
Ga2 N6 2.150256 1_655
Ga3 N3 2.019964 1_565
Ga3 N9 2.150255 1_554
Ga3 N7 2.150256 1_554
Ga3 N5 2.150256 1_555
Ga4 N0 2.019964 1_655
Ga4 N10 2.150255 1_555
Ga4 N15 2.150256 1_555
Ga4 N12 2.150256 1_645
Ga5 N1 2.019964 1_555
Ga5 N13 2.150255 1_555
Ga5 N14 2.150256 1_555
Ga5 N10 2.150256 1_555
Ga6 N2 2.019963 1_555
Ga6 N11 2.150256 1_555
Ga6 N14 2.150256 1_555
Ga6 N12 2.150256 1_555
Ga7 N3 2.019964 1_655
Ga7 N15 2.150255 1_555
Ga7 N13 2.150256 1_655
Ga7 N11 2.150256 1_554
N0 Na9 2.508037 1_455
N0 Na21 2.508037 1_545
N0 Na3 2.508037 1_545
N0 Na15 2.508037 1_455
N0 Na18 2.508040 1_455
N0 Na6 2.508040 1_545
N1 Na11 2.508030 1_555
N1 Na23 2.508030 1_454
N1 Na14 2.508037 1_555
N1 Na2 2.508037 1_454
N1 Na5 2.508040 1_455
N1 Na17 2.508040 1_554
N2 Na1 2.508031 1_455
N2 Na13 2.508031 1_555
N2 Na10 2.508037 1_555
N2 Na22 2.508037 1_455
N2 Na7 2.508040 1_455
N2 Na19 2.508040 1_555
N3 Na12 2.508030 1_445
N3 Na0 2.508030 1_554
N3 Na8 2.508031 1_454
N3 Na20 2.508031 1_545
N3 Na4 2.508040 1_545
N3 Na16 2.508040 1_454
N4 Na6 2.335622 1_555
N4 Na5 2.335622 1_556
N4 Na10 2.397295 1_565
N4 Na8 2.397303 1_565
N4 Na12 2.767555 1_556
N4 Na13 2.767555 1_565
N5 Na7 2.335622 1_555
N5 Na4 2.335622 1_555
N5 Na9 2.397295 1_555
N5 Na11 2.397303 1_555
N5 Na14 2.767561 1_555
N5 Na15 2.767561 1_555
N6 Na10 2.335617 1_555
N6 Na9 2.335617 1_455
N6 Na2 2.397295 1_455
N6 Na0 2.397304 1_555
N6 Na16 2.767551 1_455
N6 Na17 2.767552 1_555
N7 Na8 2.335623 1_465
N7 Na11 2.335623 1_556
N7 Na3 2.397295 1_555
N7 Na1 2.397304 1_455
N7 Na19 2.767552 1_555
N7 Na18 2.767552 1_465
N8 Na2 2.335617 1_555
N8 Na1 2.335623 1_555
N8 Na4 2.397299 1_555
N8 Na6 2.397299 1_555
N8 Na20 2.767555 1_555
N8 Na21 2.767561 1_555
N9 Na3 2.335617 1_555
N9 Na0 2.335623 1_565
N9 Na5 2.397299 1_556
N9 Na7 2.397300 1_556
N9 Na23 2.767555 1_555
N9 Na22 2.767561 1_556
N10 Na18 2.335622 1_555
N10 Na17 2.335622 1_554
N10 Na22 2.397295 1_545
N10 Na20 2.397303 1_545
N10 Na0 2.767555 1_554
N10 Na1 2.767555 1_545
N11 Na19 2.335622 1_555
N11 Na16 2.335622 1_555
N11 Na21 2.397295 1_555
N11 Na23 2.397303 1_555
N11 Na2 2.767561 1_555
N11 Na3 2.767561 1_555
N12 Na22 2.335617 1_455
N12 Na21 2.335617 1_555
N12 Na14 2.397295 1_555
N12 Na12 2.397304 1_455
N12 Na4 2.767551 1_555
N12 Na5 2.767552 1_455
N13 Na20 2.335623 1_545
N13 Na23 2.335623 1_454
N13 Na15 2.397295 1_455
N13 Na13 2.397304 1_555
N13 Na7 2.767552 1_455
N13 Na6 2.767552 1_545
N14 Na14 2.335617 1_555
N14 Na13 2.335623 1_555
N14 Na16 2.397299 1_555
N14 Na18 2.397299 1_555
N14 Na8 2.767555 1_555
N14 Na9 2.767561 1_555
N15 Na15 2.335617 1_555
N15 Na12 2.335623 1_545
N15 Na17 2.397299 1_554
N15 Na19 2.397300 1_554
N15 Na11 2.767555 1_555
N15 Na10 2.767561 1_554
