# generated using pymatgen
data_EuInPt4
_symmetry_space_group_name_H-M   'P 1'
_cell_length_a   5.40979767
_cell_length_b   5.40981275
_cell_length_c   5.40981275
_cell_angle_alpha   60.00000000
_cell_angle_beta   59.99990782
_cell_angle_gamma   59.99990782
_symmetry_Int_Tables_number   1
_chemical_formula_structural   EuInPt4
_chemical_formula_sum   'Eu1 In1 Pt4'
_cell_volume   111.95149203
_cell_formula_units_Z   1
loop_
 _symmetry_equiv_pos_site_id
 _symmetry_equiv_pos_as_xyz
  1  'x, y, z'
loop_
 _atom_site_type_symbol
 _atom_site_label
 _atom_site_symmetry_multiplicity
 _atom_site_fract_x
 _atom_site_fract_y
 _atom_site_fract_z
 _atom_site_occupancy
  Eu  Eu0  1  0.00000334  0.99999922  0.99999922  1
  In  In0  1  0.24999725  0.25000092  0.25000092  1
  Pt  Pt0  1  0.62446586  0.62446568  0.12660377  1
  Pt  Pt1  1  0.62446586  0.12660377  0.62446568  1
  Pt  Pt2  1  0.12660383  0.62446572  0.62446572  1
  Pt  Pt3  1  0.62446586  0.62446568  0.62446568  1
loop_
_geom_bond_atom_site_label_1
_geom_bond_atom_site_label_2
_geom_bond_distance
_geom_bond_site_symmetry_2
Eu0 Pt0 3.173003 1_556
Eu0 Pt1 3.173003 1_565
Eu0 Pt3 3.173003 1_555
Eu0 Pt2 3.173022 1_556
Eu0 Pt2 3.173022 1_565
Eu0 Pt2 3.173022 1_555
Eu0 Pt0 3.173028 1_466
Eu0 Pt1 3.173028 1_466
Eu0 Pt3 3.173028 1_456
Eu0 Pt3 3.173028 1_465
Eu0 Pt1 3.173028 1_465
Eu0 Pt0 3.173028 1_456
Eu0 In0 3.312807 1_566
Eu0 In0 3.312811 1_556
Eu0 In0 3.312811 1_565
Eu0 In0 3.312833 1_466
In0 Pt1 3.170536 1_455
In0 Pt0 3.170536 1_455
In0 Pt3 3.170538 1_455
In0 Pt2 3.170554 1_554
In0 Pt2 3.170554 1_545
In0 Pt2 3.170559 1_555
In0 Pt0 3.170560 1_545
In0 Pt1 3.170560 1_554
In0 Pt3 3.170562 1_545
In0 Pt3 3.170562 1_554
In0 Pt0 3.170564 1_555
In0 Pt1 3.170564 1_555
Pt0 Pt2 2.693333 1_555
Pt0 Pt3 2.693340 1_555
Pt0 Pt1 2.693340 1_555
Pt0 Pt2 2.716465 1_654
Pt0 Pt1 2.716473 1_564
Pt0 Pt3 2.716473 1_554
Pt1 Pt2 2.693333 1_555
Pt1 Pt3 2.693340 1_555
Pt1 Pt2 2.716465 1_645
Pt1 Pt3 2.716473 1_545
Pt2 Pt3 2.693333 1_555
Pt2 Pt3 2.716465 1_455
