# generated using pymatgen
data_MgZr4(PO4)6
_symmetry_space_group_name_H-M   'P 1'
_cell_length_a   9.11107100
_cell_length_b   8.98352200
_cell_length_c   15.49944670
_cell_angle_alpha   54.89387414
_cell_angle_beta   90.00000000
_cell_angle_gamma   90.00000000
_symmetry_Int_Tables_number   1
_chemical_formula_structural   MgZr4(PO4)6
_chemical_formula_sum   'Mg2 Zr8 P12 O48'
_cell_volume   1037.84478866
_cell_formula_units_Z   2
loop_
 _symmetry_equiv_pos_site_id
 _symmetry_equiv_pos_as_xyz
  1  'x, y, z'
loop_
 _atom_site_type_symbol
 _atom_site_label
 _atom_site_symmetry_multiplicity
 _atom_site_fract_x
 _atom_site_fract_y
 _atom_site_fract_z
 _atom_site_occupancy
  Mg  Mg0  1  0.52863700  0.46658000  0.32045200  1
  Mg  Mg1  1  0.47136300  0.46658000  0.82045200  1
  Zr  Zr0  1  0.72212300  0.87096600  0.38294300  1
  Zr  Zr1  1  0.27787700  0.87096600  0.88294300  1
  Zr  Zr2  1  0.77665400  0.13171400  0.62127000  1
  Zr  Zr3  1  0.22334600  0.13171400  0.12127000  1
  Zr  Zr4  1  0.72284900  0.64636600  0.10471200  1
  Zr  Zr5  1  0.27715100  0.64636600  0.60471200  1
  Zr  Zr6  1  0.80498800  0.35784800  0.88661200  1
  Zr  Zr7  1  0.19501200  0.35784800  0.38661200  1
  P  P0  1  0.49982500  0.04179800  0.99512800  1
  P  P1  1  0.50017500  0.04179800  0.49512800  1
  P  P2  1  0.00280400  0.95855800  0.00695400  1
  P  P3  1  0.99719600  0.95855800  0.50695400  1
  P  P4  1  0.37068800  0.74667100  0.35282800  1
  P  P5  1  0.62931200  0.74667100  0.85282800  1
  P  P6  1  0.13789200  0.24800000  0.64520500  1
  P  P7  1  0.86210800  0.24800000  0.14520500  1
  P  P8  1  0.35412700  0.47003700  0.14750800  1
  P  P9  1  0.64587300  0.47003700  0.64750800  1
  P  P10  1  0.15487200  0.53193100  0.85751700  1
  P  P11  1  0.84512800  0.53193100  0.35751700  1
  O  O0  1  0.26915800  0.90142000  0.27199600  1
  O  O1  1  0.73084200  0.90142000  0.77199600  1
  O  O2  1  0.23112400  0.08395800  0.72785200  1
  O  O3  1  0.76887600  0.08395800  0.22785200  1
  O  O4  1  0.41253800  0.01854400  0.91866300  1
  O  O5  1  0.58746200  0.01854400  0.41866300  1
  O  O6  1  0.08822500  0.99124800  0.07971200  1
  O  O7  1  0.91177500  0.99124800  0.57971200  1
  O  O8  1  0.24968900  0.43490100  0.23614200  1
  O  O9  1  0.75031100  0.43490100  0.73614200  1
  O  O10  1  0.26791100  0.56379300  0.77049200  1
  O  O11  1  0.73208900  0.56379300  0.27049200  1
  O  O12  1  0.35548900  0.30190100  0.14422500  1
  O  O13  1  0.64451100  0.30190100  0.64422500  1
  O  O14  1  0.15373200  0.69877700  0.86033100  1
  O  O15  1  0.84626800  0.69877700  0.36033100  1
  O  O16  1  0.31332000  0.64286300  0.04083100  1
  O  O17  1  0.68668000  0.64286300  0.54083100  1
  O  O18  1  0.21459100  0.36182100  0.96018700  1
  O  O19  1  0.78540900  0.36182100  0.46018700  1
  O  O20  1  0.51104300  0.50006300  0.18021700  1
  O  O21  1  0.48895700  0.50006300  0.68021700  1
  O  O22  1  0.99914500  0.50048300  0.83193600  1
  O  O23  1  0.00085500  0.50048300  0.33193600  1
  O  O24  1  0.53340900  0.79896200  0.33451400  1
  O  O25  1  0.46659100  0.79896200  0.83451400  1
  O  O26  1  0.97188100  0.20324200  0.66058500  1
  O  O27  1  0.02811900  0.20324200  0.16058500  1
  O  O28  1  0.61322800  0.88886100  0.05711800  1
  O  O29  1  0.38677200  0.88886100  0.55711800  1
  O  O30  1  0.89277900  0.11582400  0.93728700  1
  O  O31  1  0.10722100  0.11582400  0.43728700  1
  O  O32  1  0.57790000  0.23317100  0.92497400  1
  O  O33  1  0.42210000  0.23317100  0.42497400  1
  O  O34  1  0.91493200  0.77938800  0.07386100  1
  O  O35  1  0.08506800  0.77938800  0.57386100  1
  O  O36  1  0.35674000  0.58125500  0.34409400  1
  O  O37  1  0.64326000  0.58125500  0.84409400  1
  O  O38  1  0.17091900  0.40813200  0.65345000  1
  O  O39  1  0.82908100  0.40813200  0.15345000  1
  O  O40  1  0.39899900  0.04879700  0.07200400  1
  O  O41  1  0.60100100  0.04879700  0.57200400  1
  O  O42  1  0.10195500  0.94645600  0.93179500  1
  O  O43  1  0.89804500  0.94645600  0.43179500  1
  O  O44  1  0.32349600  0.68403500  0.46467700  1
  O  O45  1  0.67650400  0.68403500  0.96467700  1
  O  O46  1  0.18147100  0.30663600  0.53292700  1
  O  O47  1  0.81852900  0.30663600  0.03292700  1
loop_
_geom_bond_atom_site_label_1
_geom_bond_atom_site_label_2
_geom_bond_distance
_geom_bond_site_symmetry_2
Mg0 O11 2.005133 1_555
Mg0 O33 2.014027 1_555
Mg0 O36 2.020551 1_555
Mg0 O20 2.022021 1_555
Mg1 O10 2.005133 1_555
Mg1 O32 2.014027 1_555
Mg1 O37 2.020551 1_555
Mg1 O21 2.022021 1_555
O0 P4 1.534503 1_555
O0 Zr3 2.086382 1_565
O1 P5 1.534503 1_555
O1 Zr2 2.086382 1_565
O2 P6 1.537180 1_555
O2 Zr1 2.081031 1_545
O3 P7 1.537180 1_555
O3 Zr0 2.081031 1_545
O4 P0 1.538016 1_555
O4 Zr1 2.100885 1_545
O5 P1 1.538016 1_555
O5 Zr0 2.100885 1_545
O6 P2 1.531208 1_555
O6 Zr3 2.111331 1_565
O7 P3 1.531208 1_555
O7 Zr2 2.111331 1_565
O8 P8 1.547120 1_555
O8 Zr7 2.075973 1_555
O9 P9 1.547120 1_555
O9 Zr6 2.075973 1_555
O10 P10 1.586801 1_555
O10 Zr5 2.228759 1_555
O11 P11 1.586801 1_555
O11 Zr4 2.228759 1_555
O12 P8 1.540329 1_555
O12 Zr3 2.130549 1_555
O13 P9 1.540329 1_555
O13 Zr2 2.130549 1_555
O14 P10 1.524401 1_555
O14 Zr1 2.102034 1_555
O15 P11 1.524401 1_555
O15 Zr0 2.102034 1_555
O16 P8 1.526421 1_555
O16 Zr1 2.127025 1_554
O17 P9 1.526421 1_555
O17 Zr0 2.127025 1_555
O18 P10 1.538394 1_555
O18 Zr3 2.139354 1_556
O19 P11 1.538394 1_555
O19 Zr2 2.139354 1_555
O20 P8 1.590922 1_555
O20 Zr4 2.247647 1_555
O21 P9 1.590922 1_555
O21 Zr5 2.247647 1_555
O22 P10 1.542389 1_655
O22 Zr6 2.059216 1_555
O23 P11 1.542389 1_455
O23 Zr7 2.059216 1_555
O24 P4 1.531623 1_555
O24 Zr0 2.120519 1_555
O25 P5 1.531623 1_555
O25 Zr1 2.120519 1_555
O26 P6 1.547910 1_655
O26 Zr2 2.097250 1_555
O27 P7 1.547910 1_455
O27 Zr3 2.097250 1_555
O28 P0 1.536235 1_564
O28 Zr4 2.106901 1_555
O29 P1 1.536235 1_565
O29 Zr5 2.106901 1_555
O30 P2 1.553132 1_646
O30 Zr6 2.004939 1_555
O31 P3 1.553132 1_445
O31 Zr7 2.004939 1_555
O32 P0 1.579201 1_555
O32 Zr6 2.263375 1_555
O33 P1 1.579201 1_555
O33 Zr7 2.263375 1_555
O34 P2 1.545081 1_655
O34 Zr4 2.015499 1_555
O35 P3 1.545081 1_455
O35 Zr5 2.015499 1_555
O36 P4 1.572928 1_555
O36 Zr7 2.261031 1_555
O37 P5 1.572928 1_555
O37 Zr6 2.261031 1_555
O38 P6 1.545234 1_555
O38 Zr5 2.056283 1_555
O39 P7 1.545234 1_555
O39 Zr4 2.056283 1_555
O40 P0 1.534199 1_554
O40 Zr3 2.086478 1_555
O41 P1 1.534199 1_555
O41 Zr2 2.086478 1_555
O42 P2 1.526635 1_556
O42 Zr1 2.047665 1_555
O43 P3 1.526635 1_555
O43 Zr0 2.047665 1_555
O44 P4 1.544303 1_555
O44 Zr5 2.039347 1_555
O45 P5 1.544303 1_555
O45 Zr4 2.039347 1_556
O46 P6 1.552167 1_555
O46 Zr7 2.042003 1_555
O47 P7 1.552167 1_555
O47 Zr6 2.042003 1_554
