# generated using pymatgen
data_Nb12Sn3Sb
_symmetry_space_group_name_H-M   'P 1'
_cell_length_a   5.31285604
_cell_length_b   5.32247753
_cell_length_c   10.64492757
_cell_angle_alpha   90.00000000
_cell_angle_beta   90.00000000
_cell_angle_gamma   90.00000000
_symmetry_Int_Tables_number   1
_chemical_formula_structural   Nb12Sn3Sb
_chemical_formula_sum   'Nb12 Sn3 Sb1'
_cell_volume   301.01254498
_cell_formula_units_Z   1
loop_
 _symmetry_equiv_pos_site_id
 _symmetry_equiv_pos_as_xyz
  1  'x, y, z'
loop_
 _atom_site_type_symbol
 _atom_site_label
 _atom_site_symmetry_multiplicity
 _atom_site_fract_x
 _atom_site_fract_y
 _atom_site_fract_z
 _atom_site_occupancy
  Nb  Nb0  1  0.00000000  0.50000000  0.37655097  1
  Nb  Nb1  1  0.00000000  0.50000000  0.87659507  1
  Nb  Nb2  1  0.50000000  0.24952130  -0.00000000  1
  Nb  Nb3  1  0.50000000  0.24736689  0.50000000  1
  Nb  Nb4  1  0.75194209  -0.00000000  0.25100851  1
  Nb  Nb5  1  0.75194209  -0.00000000  0.74899149  1
  Nb  Nb6  1  0.00000000  0.50000000  0.12340493  1
  Nb  Nb7  1  0.00000000  0.50000000  0.62344903  1
  Nb  Nb8  1  0.50000000  0.75047870  -0.00000000  1
  Nb  Nb9  1  0.50000000  0.75263311  0.50000000  1
  Nb  Nb10  1  0.24805791  -0.00000000  0.25100851  1
  Nb  Nb11  1  0.24805791  -0.00000000  0.74899149  1
  Sn  Sn0  1  0.50000000  0.50000000  0.24996010  1
  Sn  Sn1  1  0.50000000  0.50000000  0.75003990  1
  Sn  Sn2  1  0.00000000  -0.00000000  -0.00000000  1
  Sb  Sb0  1  0.00000000  -0.00000000  0.50000000  1
loop_
_geom_bond_atom_site_label_1
_geom_bond_atom_site_label_2
_geom_bond_distance
_geom_bond_site_symmetry_2
Nb0 Nb7 2.628212 1_555
Nb0 Nb6 2.694721 1_555
Nb0 Sb0 2.968007 1_565
Nb0 Sb0 2.968007 1_555
Nb0 Sn0 2.978675 1_455
Nb0 Sn0 2.978675 1_555
Nb1 Nb6 2.627273 1_556
Nb1 Nb7 2.694721 1_555
Nb1 Sn2 2.967799 1_566
Nb1 Sn2 2.967799 1_556
Nb1 Sn1 2.978503 1_555
Nb1 Sn1 2.978503 1_455
Nb2 Nb8 2.656143 1_545
Nb2 Nb8 2.666335 1_555
Nb2 Sn2 2.969913 1_555
Nb2 Sn2 2.969913 1_655
Nb2 Sn0 2.976110 1_555
Nb2 Sn1 2.976110 1_554
Nb3 Nb9 2.633209 1_545
Nb3 Nb9 2.689268 1_555
Nb3 Sb0 2.964803 1_555
Nb3 Sb0 2.964803 1_655
Nb3 Sn1 2.982022 1_555
Nb3 Sn0 2.982022 1_555
Nb4 Sb0 2.960064 1_655
Nb4 Sn0 2.978923 1_545
Nb4 Sn0 2.978923 1_555
Nb4 Sn2 2.979305 1_655
Nb5 Sb0 2.960064 1_655
Nb5 Sn1 2.978923 1_545
Nb5 Sn1 2.978923 1_555
Nb5 Sn2 2.979305 1_656
Nb6 Sn2 2.967799 1_555
Nb6 Sn2 2.967799 1_565
Nb6 Sn0 2.978503 1_555
Nb6 Sn0 2.978503 1_455
Nb7 Sb0 2.968007 1_555
Nb7 Sb0 2.968007 1_565
Nb7 Sn1 2.978675 1_555
Nb7 Sn1 2.978675 1_455
Nb8 Sn2 2.969913 1_665
Nb8 Sn2 2.969913 1_565
Nb8 Sn0 2.976110 1_555
Nb8 Sn1 2.976110 1_554
Nb9 Sb0 2.964803 1_565
Nb9 Sb0 2.964803 1_665
Nb9 Sn1 2.982022 1_555
Nb9 Sn0 2.982022 1_555
Nb10 Nb4 2.635792 1_455
Nb10 Nb4 2.677064 1_555
Nb10 Sb0 2.960064 1_555
Nb10 Sn0 2.978923 1_545
Nb10 Sn0 2.978923 1_555
Nb10 Sn2 2.979305 1_555
Nb11 Nb5 2.635792 1_455
Nb11 Nb5 2.677064 1_555
Nb11 Sb0 2.960064 1_555
Nb11 Sn1 2.978923 1_545
Nb11 Sn1 2.978923 1_555
Nb11 Sn2 2.979305 1_556
