# generated using pymatgen
data_GdMgIn
_symmetry_space_group_name_H-M   'P 1'
_cell_length_a   7.55861437
_cell_length_b   7.55862065
_cell_length_c   4.70267711
_cell_angle_alpha   90.00000000
_cell_angle_beta   90.00000000
_cell_angle_gamma   120.00002580
_symmetry_Int_Tables_number   1
_chemical_formula_structural   GdMgIn
_chemical_formula_sum   'Gd3 Mg3 In3'
_cell_volume   232.68073001
_cell_formula_units_Z   3
loop_
 _symmetry_equiv_pos_site_id
 _symmetry_equiv_pos_as_xyz
  1  'x, y, z'
loop_
 _atom_site_type_symbol
 _atom_site_label
 _atom_site_symmetry_multiplicity
 _atom_site_fract_x
 _atom_site_fract_y
 _atom_site_fract_z
 _atom_site_occupancy
  Gd  Gd0  1  -0.00000000  0.43464897  -0.00000000  1
  Gd  Gd1  1  0.56535455  0.56535046  0.00000000  1
  Gd  Gd2  1  0.43464545  0.99999591  0.00000000  1
  Mg  Mg0  1  0.99999900  0.75868118  0.50000000  1
  Mg  Mg1  1  0.24131845  0.24132099  0.50000000  1
  Mg  Mg2  1  0.75868155  0.00000154  0.50000000  1
  In  In0  1  0.33332933  0.66666574  0.50000000  1
  In  In1  1  0.66667067  0.33333741  0.50000000  1
  In  In2  1  0.99999900  0.99999880  0.00000000  1
loop_
_geom_bond_atom_site_label_1
_geom_bond_atom_site_label_2
_geom_bond_distance
_geom_bond_site_symmetry_2
Gd0 In0 3.245572 1_554
Gd0 In0 3.245572 1_555
Gd0 In1 3.245573 1_455
Gd0 In1 3.245573 1_454
Gd0 In2 3.285352 1_445
Gd0 Mg0 3.395228 1_455
Gd0 Mg0 3.395228 1_454
Gd0 Mg1 3.695499 1_554
Gd0 Mg1 3.695499 1_555
Gd0 Mg2 3.695504 1_455
Gd0 Mg2 3.695504 1_454
Gd0 Gd1 3.874912 1_455
Gd0 Gd2 3.874912 1_555
Gd0 Gd1 3.874967 1_555
Gd0 Gd2 3.874967 1_445
Gd1 In1 3.245569 1_554
Gd1 In1 3.245569 1_555
Gd1 In0 3.245625 1_555
Gd1 In0 3.245625 1_554
Gd1 In2 3.285325 1_555
Gd1 Mg1 3.395227 1_554
Gd1 Mg1 3.395227 1_555
Gd1 Mg0 3.695486 1_554
Gd1 Mg0 3.695486 1_555
Gd1 Mg2 3.695524 1_564
Gd1 Mg2 3.695524 1_565
Gd1 Gd2 3.874953 1_555
Gd1 Gd2 3.874953 1_545
Gd2 In0 3.245574 1_555
Gd2 In0 3.245574 1_554
Gd2 In1 3.245629 1_565
Gd2 In1 3.245629 1_564
Gd2 In2 3.285336 1_455
Gd2 Mg2 3.395229 1_564
Gd2 Mg2 3.395229 1_565
Gd2 Mg0 3.695496 1_455
Gd2 Mg0 3.695496 1_454
Gd2 Mg1 3.695529 1_564
Gd2 Mg1 3.695529 1_565
Mg0 Mg2 3.159326 1_565
Mg0 Mg1 3.159339 1_665
Mg1 Mg2 3.159317 1_455
In0 Mg0 2.929853 1_455
In0 Mg1 2.929858 1_555
In0 Mg2 2.929898 1_565
In1 Mg0 2.929839 1_555
In1 Mg2 2.929873 1_555
In1 Mg1 2.929898 1_555
In2 Mg0 2.975882 1_555
In2 Mg0 2.975882 1_554
In2 Mg2 2.975886 1_565
In2 Mg2 2.975886 1_564
In2 Mg1 2.975896 1_664
In2 Mg1 2.975896 1_665
