# generated using pymatgen
data_LiEu2CI3N2
_symmetry_space_group_name_H-M   'P 1'
_cell_length_a   10.80046211
_cell_length_b   10.80046211
_cell_length_c   10.80046211
_cell_angle_alpha   60.00000000
_cell_angle_beta   60.00000000
_cell_angle_gamma   60.00000000
_symmetry_Int_Tables_number   1
_chemical_formula_structural   LiEu2CI3N2
_chemical_formula_sum   'Li4 Eu8 C4 I12 N8'
_cell_volume   890.86524341
_cell_formula_units_Z   4
loop_
 _symmetry_equiv_pos_site_id
 _symmetry_equiv_pos_as_xyz
  1  'x, y, z'
loop_
 _atom_site_type_symbol
 _atom_site_label
 _atom_site_symmetry_multiplicity
 _atom_site_fract_x
 _atom_site_fract_y
 _atom_site_fract_z
 _atom_site_occupancy
  Li  Li0  1  0.62500000  0.12500000  0.12500000  1
  Li  Li1  1  0.12500000  0.62500000  0.12500000  1
  Li  Li2  1  0.12500000  0.12500000  0.62500000  1
  Li  Li3  1  0.12500000  0.12500000  0.12500000  1
  Eu  Eu0  1  0.77529400  0.40823500  0.40823500  1
  Eu  Eu1  1  0.40823500  0.77529400  0.40823500  1
  Eu  Eu2  1  0.40823500  0.40823500  0.77529400  1
  Eu  Eu3  1  0.40823500  0.40823500  0.40823500  1
  Eu  Eu4  1  0.47470600  0.84176500  0.84176500  1
  Eu  Eu5  1  0.84176500  0.47470600  0.84176500  1
  Eu  Eu6  1  0.84176500  0.84176500  0.47470600  1
  Eu  Eu7  1  0.84176500  0.84176500  0.84176500  1
  C  C0  1  0.12500000  0.62500000  0.62500000  1
  C  C1  1  0.62500000  0.12500000  0.62500000  1
  C  C2  1  0.62500000  0.62500000  0.12500000  1
  C  C3  1  0.62500000  0.62500000  0.62500000  1
  I  I0  1  0.80029100  0.80029100  0.19970900  1
  I  I1  1  0.19970900  0.19970900  0.80029100  1
  I  I2  1  0.80029100  0.19970900  0.80029100  1
  I  I3  1  0.19970900  0.80029100  0.19970900  1
  I  I4  1  0.19970900  0.80029100  0.80029100  1
  I  I5  1  0.80029100  0.19970900  0.19970900  1
  I  I6  1  0.44970900  0.44970900  0.05029100  1
  I  I7  1  0.05029100  0.05029100  0.44970900  1
  I  I8  1  0.44970900  0.05029100  0.44970900  1
  I  I9  1  0.05029100  0.44970900  0.05029100  1
  I  I10  1  0.05029100  0.44970900  0.44970900  1
  I  I11  1  0.44970900  0.05029100  0.05029100  1
  N  N0  1  0.26568200  0.57810600  0.57810600  1
  N  N1  1  0.57810600  0.26568200  0.57810600  1
  N  N2  1  0.57810600  0.57810600  0.26568200  1
  N  N3  1  0.57810600  0.57810600  0.57810600  1
  N  N4  1  0.98431800  0.67189400  0.67189400  1
  N  N5  1  0.67189400  0.98431800  0.67189400  1
  N  N6  1  0.67189400  0.67189400  0.98431800  1
  N  N7  1  0.67189400  0.67189400  0.67189400  1
loop_
_geom_bond_atom_site_label_1
_geom_bond_atom_site_label_2
_geom_bond_distance
_geom_bond_site_symmetry_2
Eu0 N1 2.611350 1_555
Eu0 N2 2.611350 1_555
Eu0 N3 2.611357 1_555
Eu0 I9 3.476234 1_655
Eu0 I7 3.476234 1_655
Eu0 I10 3.476240 1_655
Eu0 I5 3.751495 1_555
Eu0 I0 3.751504 1_555
Eu0 I2 3.751504 1_555
Eu1 N0 2.611350 1_555
Eu1 N2 2.611350 1_555
Eu1 N3 2.611357 1_555
Eu1 I7 3.476234 1_565
Eu1 I11 3.476234 1_565
Eu1 I8 3.476240 1_565
Eu1 I3 3.751495 1_555
Eu1 I0 3.751504 1_555
Eu1 I4 3.751504 1_555
Eu2 N0 2.611350 1_555
Eu2 N1 2.611350 1_555
Eu2 N3 2.611357 1_555
Eu2 I11 3.476234 1_556
Eu2 I9 3.476234 1_556
Eu2 I6 3.476240 1_556
Eu2 I1 3.751495 1_555
Eu2 I2 3.751504 1_555
Eu2 I4 3.751504 1_555
Eu3 N0 2.611358 1_555
Eu3 N2 2.611358 1_555
Eu3 N1 2.611358 1_555
Eu3 I6 3.476230 1_555
Eu3 I8 3.476230 1_555
Eu3 I10 3.476230 1_555
Eu3 I1 3.751500 1_555
Eu3 I5 3.751500 1_555
Eu3 I3 3.751500 1_555
Eu4 N5 2.611350 1_555
Eu4 N6 2.611350 1_555
Eu4 N7 2.611357 1_555
Eu4 I1 3.476234 1_565
Eu4 I3 3.476234 1_556
Eu4 I4 3.476240 1_555
Eu4 I11 3.751495 1_566
Eu4 I8 3.751504 1_565
Eu4 I6 3.751504 1_556
Eu5 N4 2.611350 1_555
Eu5 N6 2.611350 1_555
Eu5 N7 2.611357 1_555
Eu5 I5 3.476234 1_556
Eu5 I1 3.476234 1_655
Eu5 I2 3.476240 1_555
Eu5 I9 3.751495 1_656
Eu5 I10 3.751504 1_655
Eu5 I6 3.751504 1_556
Eu6 N4 2.611350 1_555
Eu6 N5 2.611350 1_555
Eu6 N7 2.611357 1_555
Eu6 I5 3.476234 1_565
Eu6 I3 3.476234 1_655
Eu6 I0 3.476240 1_555
Eu6 I7 3.751495 1_665
Eu6 I10 3.751504 1_655
Eu6 I8 3.751504 1_565
Eu7 N4 2.611358 1_555
Eu7 N5 2.611358 1_555
Eu7 N6 2.611358 1_555
Eu7 I4 3.476230 1_655
Eu7 I2 3.476230 1_565
Eu7 I0 3.476230 1_556
Eu7 I9 3.751500 1_656
Eu7 I11 3.751500 1_566
Eu7 I7 3.751500 1_665
C0 N0 1.240610 1_555
C0 N4 1.240610 1_455
C1 N1 1.240610 1_555
C1 N5 1.240610 1_545
C2 N6 1.240610 1_554
C2 N2 1.240610 1_555
C3 N3 1.240610 1_555
C3 N7 1.240610 1_555
I0 Li0 2.931343 1_565
I0 Li1 2.931343 1_655
I1 Li2 2.931343 1_555
I1 Li3 2.931343 1_556
I2 Li0 2.931343 1_556
I2 Li2 2.931343 1_655
I3 Li1 2.931343 1_555
I3 Li3 2.931343 1_565
I4 Li2 2.931343 1_565
I4 Li1 2.931343 1_556
I5 Li0 2.931343 1_555
I5 Li3 2.931343 1_655
I6 Li0 2.931343 1_555
I6 Li1 2.931343 1_555
I7 Li2 2.931343 1_555
I7 Li3 2.931343 1_555
I8 Li0 2.931343 1_555
I8 Li2 2.931343 1_555
I9 Li1 2.931343 1_555
I9 Li3 2.931343 1_555
I10 Li2 2.931343 1_555
I10 Li1 2.931343 1_555
I11 Li0 2.931343 1_555
I11 Li3 2.931343 1_555
