# generated using pymatgen
data_Ce(GeAu)2
_symmetry_space_group_name_H-M   'P 1'
_cell_length_a   6.07523328
_cell_length_b   6.07523328
_cell_length_c   6.07523328
_cell_angle_alpha   137.05495531
_cell_angle_beta   137.05495531
_cell_angle_gamma   62.35350626
_symmetry_Int_Tables_number   1
_chemical_formula_structural   Ce(GeAu)2
_chemical_formula_sum   'Ce1 Ge2 Au2'
_cell_volume   102.82513087
_cell_formula_units_Z   1
loop_
 _symmetry_equiv_pos_site_id
 _symmetry_equiv_pos_as_xyz
  1  'x, y, z'
loop_
 _atom_site_type_symbol
 _atom_site_label
 _atom_site_symmetry_multiplicity
 _atom_site_fract_x
 _atom_site_fract_y
 _atom_site_fract_z
 _atom_site_occupancy
  Ce  Ce0  1  0.00000000  -0.00000000  0.00000000  1
  Ge  Ge0  1  0.61751769  0.61751769  0.00000000  1
  Ge  Ge1  1  0.38248231  0.38248231  -0.00000000  1
  Au  Au0  1  0.75000000  0.25000000  0.50000000  1
  Au  Au1  1  0.25000000  0.75000000  0.50000000  1
loop_
_geom_bond_atom_site_label_1
_geom_bond_atom_site_label_2
_geom_bond_distance
_geom_bond_site_symmetry_2
Ce0 Ge1 3.373969 1_545
Ce0 Ge0 3.373969 1_455
Ce0 Ge0 3.373969 1_556
Ce0 Ge1 3.373969 1_455
Ce0 Ge1 3.373969 1_556
Ce0 Ge0 3.373969 1_444
Ce0 Ge1 3.373969 1_444
Ce0 Ge0 3.373969 1_545
Ge0 Ge1 2.443340 1_555
Au0 Ge0 2.615794 1_545
Au0 Ge1 2.615794 1_656
Au0 Ge0 2.615794 1_556
Au0 Ge1 2.615794 1_555
Au0 Ce0 3.420513 1_666
Au0 Ce0 3.420513 1_656
Au0 Ce0 3.420513 1_555
Au0 Ce0 3.420513 1_655
Au1 Ge0 2.615794 1_556
Au1 Ge1 2.615794 1_566
Au1 Ge1 2.615794 1_555
Au1 Ge0 2.615794 1_455
Au1 Ce0 3.420513 1_666
Au1 Ce0 3.420513 1_565
Au1 Ce0 3.420513 1_555
Au1 Ce0 3.420513 1_566
