# generated using pymatgen
data_Sr2LaNbO6
_symmetry_space_group_name_H-M   'P 1'
_cell_length_a   8.56816983
_cell_length_b   8.56816983
_cell_length_c   8.56816983
_cell_angle_alpha   90.00000000
_cell_angle_beta   90.00000000
_cell_angle_gamma   90.00000000
_symmetry_Int_Tables_number   1
_chemical_formula_structural   Sr2LaNbO6
_chemical_formula_sum   'Sr8 La4 Nb4 O24'
_cell_volume   629.01962915
_cell_formula_units_Z   4
loop_
 _symmetry_equiv_pos_site_id
 _symmetry_equiv_pos_as_xyz
  1  'x, y, z'
loop_
 _atom_site_type_symbol
 _atom_site_label
 _atom_site_symmetry_multiplicity
 _atom_site_fract_x
 _atom_site_fract_y
 _atom_site_fract_z
 _atom_site_occupancy
  Sr  Sr0  1  0.50000000  0.50000000  0.50000000  1
  Sr  Sr1  1  0.00000000  0.00000000  0.00000000  1
  Sr  Sr2  1  0.00000000  0.00000000  0.50000000  1
  Sr  Sr3  1  0.00000000  0.50000000  0.00000000  1
  Sr  Sr4  1  0.50000000  0.00000000  0.00000000  1
  Sr  Sr5  1  0.50000000  0.50000000  0.00000000  1
  Sr  Sr6  1  0.50000000  0.00000000  0.50000000  1
  Sr  Sr7  1  0.00000000  0.50000000  0.50000000  1
  La  La0  1  0.75000000  0.75000000  0.75000000  1
  La  La1  1  0.75000000  0.25000000  0.25000000  1
  La  La2  1  0.25000000  0.75000000  0.25000000  1
  La  La3  1  0.25000000  0.25000000  0.75000000  1
  Nb  Nb0  1  0.25000000  0.25000000  0.25000000  1
  Nb  Nb1  1  0.25000000  0.75000000  0.75000000  1
  Nb  Nb2  1  0.75000000  0.25000000  0.75000000  1
  Nb  Nb3  1  0.75000000  0.75000000  0.25000000  1
  O  O0  1  0.21169633  0.29790140  0.47861856  1
  O  O1  1  0.21169633  0.70209860  0.52138144  1
  O  O2  1  0.78830367  0.29790140  0.52138144  1
  O  O3  1  0.78830367  0.70209860  0.47861856  1
  O  O4  1  0.29790140  0.47861856  0.21169633  1
  O  O5  1  0.70209860  0.52138144  0.21169633  1
  O  O6  1  0.29790140  0.52138144  0.78830367  1
  O  O7  1  0.70209860  0.47861856  0.78830367  1
  O  O8  1  0.47861856  0.21169633  0.29790140  1
  O  O9  1  0.52138144  0.21169633  0.70209860  1
  O  O10  1  0.52138144  0.78830367  0.29790140  1
  O  O11  1  0.47861856  0.78830367  0.70209860  1
  O  O12  1  0.28830367  0.20209860  0.02138144  1
  O  O13  1  0.28830367  0.79790140  0.97861856  1
  O  O14  1  0.71169633  0.20209860  0.97861856  1
  O  O15  1  0.71169633  0.79790140  0.02138144  1
  O  O16  1  0.20209860  0.02138144  0.28830367  1
  O  O17  1  0.79790140  0.97861856  0.28830367  1
  O  O18  1  0.20209860  0.97861856  0.71169633  1
  O  O19  1  0.79790140  0.02138144  0.71169633  1
  O  O20  1  0.02138144  0.28830367  0.20209860  1
  O  O21  1  0.97861856  0.28830367  0.79790140  1
  O  O22  1  0.97861856  0.71169633  0.20209860  1
  O  O23  1  0.02138144  0.71169633  0.79790140  1
loop_
_geom_bond_atom_site_label_1
_geom_bond_atom_site_label_2
_geom_bond_distance
_geom_bond_site_symmetry_2
La0 O3 2.383886 1_555
La0 O11 2.383886 1_555
La0 O7 2.383886 1_555
La0 O19 2.383886 1_565
La0 O15 2.383886 1_556
La0 O23 2.383886 1_655
La1 O2 2.383886 1_555
La1 O14 2.383886 1_554
La1 O8 2.383886 1_555
La1 O5 2.383886 1_555
La1 O17 2.383886 1_545
La1 O20 2.383886 1_655
La2 O13 2.383886 1_554
La2 O1 2.383886 1_555
La2 O4 2.383886 1_555
La2 O22 2.383886 1_455
La2 O10 2.383886 1_555
La2 O16 2.383886 1_565
La3 O0 2.383886 1_555
La3 O21 2.383886 1_455
La3 O6 2.383886 1_555
La3 O9 2.383886 1_555
La3 O18 2.383886 1_545
La3 O12 2.383886 1_556
Nb0 O12 2.028109 1_555
Nb0 O20 2.028109 1_555
Nb0 O4 2.028109 1_555
Nb0 O8 2.028109 1_555
Nb0 O0 2.028109 1_555
Nb0 O16 2.028109 1_555
Nb1 O23 2.028109 1_555
Nb1 O11 2.028109 1_555
Nb1 O1 2.028109 1_555
Nb1 O6 2.028109 1_555
Nb1 O18 2.028109 1_555
Nb1 O13 2.028109 1_555
Nb2 O19 2.028109 1_555
Nb2 O21 2.028109 1_555
Nb2 O14 2.028109 1_555
Nb2 O7 2.028109 1_555
Nb2 O9 2.028109 1_555
Nb2 O2 2.028109 1_555
Nb3 O15 2.028109 1_555
Nb3 O5 2.028109 1_555
Nb3 O22 2.028109 1_555
Nb3 O10 2.028109 1_555
Nb3 O17 2.028109 1_555
Nb3 O3 2.028109 1_555
O0 Sr7 2.514380 1_555
O0 Sr0 3.022270 1_555
O1 Sr7 2.514380 1_555
O1 Sr0 3.022270 1_555
O2 Sr7 2.514380 1_655
O2 Sr0 3.022270 1_555
O3 Sr7 2.514380 1_655
O3 Sr0 3.022270 1_555
O4 Sr5 2.514380 1_555
O4 Sr0 3.022270 1_555
O5 Sr5 2.514380 1_555
O5 Sr0 3.022270 1_555
O6 Sr5 2.514380 1_556
O6 Sr0 3.022270 1_555
O7 Sr5 2.514380 1_556
O7 Sr0 3.022270 1_555
O8 Sr6 2.514380 1_555
O8 Sr0 3.022270 1_555
O9 Sr6 2.514380 1_555
O9 Sr0 3.022270 1_555
O10 Sr6 2.514380 1_565
O10 Sr0 3.022270 1_555
O11 Sr6 2.514380 1_565
O11 Sr0 3.022270 1_555
O12 Sr4 2.514380 1_555
O12 Sr1 3.022270 1_555
O13 Sr4 2.514380 1_566
O13 Sr1 3.022270 1_566
O14 Sr4 2.514380 1_556
O14 Sr1 3.022270 1_656
O15 Sr4 2.514380 1_565
O15 Sr1 3.022270 1_665
O16 Sr2 2.514380 1_555
O16 Sr1 3.022270 1_555
O17 Sr2 2.514380 1_665
O17 Sr1 3.022270 1_665
O18 Sr2 2.514380 1_565
O18 Sr1 3.022270 1_566
O19 Sr2 2.514380 1_655
O19 Sr1 3.022270 1_656
O20 Sr3 2.514380 1_555
O20 Sr1 3.022270 1_555
O21 Sr3 2.514380 1_656
O21 Sr1 3.022270 1_656
O22 Sr3 2.514380 1_655
O22 Sr1 3.022270 1_665
O23 Sr3 2.514380 1_556
O23 Sr1 3.022270 1_566
