# generated using pymatgen
data_Te4MoW
_symmetry_space_group_name_H-M   'P 1'
_cell_length_a   3.55956053
_cell_length_b   3.55956053
_cell_length_c   40.10774500
_cell_angle_alpha   90.00000000
_cell_angle_beta   90.00000000
_cell_angle_gamma   120.00000988
_symmetry_Int_Tables_number   1
_chemical_formula_structural   Te4MoW
_chemical_formula_sum   'Te8 Mo2 W2'
_cell_volume   440.10023338
_cell_formula_units_Z   2
loop_
 _symmetry_equiv_pos_site_id
 _symmetry_equiv_pos_as_xyz
  1  'x, y, z'
loop_
 _atom_site_type_symbol
 _atom_site_label
 _atom_site_symmetry_multiplicity
 _atom_site_fract_x
 _atom_site_fract_y
 _atom_site_fract_z
 _atom_site_occupancy
  Te  Te0  1  0.33333300  0.66666700  0.95136900  1
  Te  Te1  1  0.33333300  0.66666700  0.32692700  1
  Te  Te2  1  0.66666700  0.33333300  0.67307300  1
  Te  Te3  1  0.66666700  0.33333300  0.04863100  1
  Te  Te4  1  0.66666700  0.33333300  0.76333400  1
  Te  Te5  1  0.66666700  0.33333300  0.13923900  1
  Te  Te6  1  0.33333300  0.66666700  0.86076100  1
  Te  Te7  1  0.33333300  0.66666700  0.23666600  1
  Mo  Mo0  1  0.33333300  0.66666700  0.71818800  1
  Mo  Mo1  1  0.66666700  0.33333300  0.28181200  1
  W  W0  1  0.33333300  0.66666700  0.09392900  1
  W  W1  1  0.66666700  0.33333300  0.90607100  1
loop_
_geom_bond_atom_site_label_1
_geom_bond_atom_site_label_2
_geom_bond_distance
_geom_bond_site_symmetry_2
Te0 W1 2.743036 1_455
Te0 W1 2.743036 1_565
Te0 W1 2.743041 1_555
Te3 W0 2.743036 1_545
Te3 W0 2.743036 1_655
Te3 W0 2.743041 1_555
Te5 W0 2.743355 1_545
Te5 W0 2.743355 1_655
Te5 W0 2.743359 1_555
Te6 W1 2.743355 1_455
Te6 W1 2.743355 1_565
Te6 W1 2.743359 1_555
Mo0 Te2 2.738180 1_455
Mo0 Te2 2.738180 1_565
Mo0 Te2 2.738185 1_555
Mo0 Te4 2.739002 1_455
Mo0 Te4 2.739002 1_565
Mo0 Te4 2.739007 1_555
Mo1 Te1 2.738180 1_545
Mo1 Te1 2.738180 1_655
Mo1 Te1 2.738185 1_555
Mo1 Te7 2.739002 1_655
Mo1 Te7 2.739002 1_545
Mo1 Te7 2.739007 1_555
