# generated using pymatgen
data_Mg17(SiO3)20
_symmetry_space_group_name_H-M   'P 1'
_cell_length_a   5.35107641
_cell_length_b   10.05044020
_cell_length_c   23.20579845
_cell_angle_alpha   87.76301324
_cell_angle_beta   83.37929570
_cell_angle_gamma   70.21177645
_symmetry_Int_Tables_number   1
_chemical_formula_structural   Mg17(SiO3)20
_chemical_formula_sum   'Mg17 Si20 O60'
_cell_volume   1166.49675064
_cell_formula_units_Z   1
loop_
 _symmetry_equiv_pos_site_id
 _symmetry_equiv_pos_as_xyz
  1  'x, y, z'
loop_
 _atom_site_type_symbol
 _atom_site_label
 _atom_site_symmetry_multiplicity
 _atom_site_fract_x
 _atom_site_fract_y
 _atom_site_fract_z
 _atom_site_occupancy
  Mg  Mg0  1  0.73447915  0.50000000  0.53104171  1
  Mg  Mg1  1  0.26552085  0.50000000  0.46895829  1
  Mg  Mg2  1  0.19874887  0.50000000  0.60250227  1
  Mg  Mg3  1  0.80125113  0.50000000  0.39749773  1
  Mg  Mg4  1  0.66243696  0.50000000  0.67512608  1
  Mg  Mg5  1  0.33756304  0.50000000  0.32487392  1
  Mg  Mg6  1  0.12866319  0.50000000  0.74267363  1
  Mg  Mg7  1  0.87133681  0.50000000  0.25732637  1
  Mg  Mg8  1  0.59759662  0.50000000  0.80480677  1
  Mg  Mg9  1  0.40240338  0.50000000  0.19519323  1
  Mg  Mg10  1  0.04056386  0.00000000  0.91887227  1
  Mg  Mg11  1  0.95943614  0.00000000  0.08112773  1
  Mg  Mg12  1  0.57199796  0.00000000  0.85600408  1
  Mg  Mg13  1  0.42800204  -0.00000000  0.14399592  1
  Mg  Mg14  1  0.50000000  -0.00000000  0.00000000  1
  Mg  Mg15  1  0.10540505  -0.00000000  0.78918991  1
  Mg  Mg16  1  0.89459495  0.00000000  0.21081009  1
  Si  Si0  1  0.21420122  0.79099892  0.53324613  1
  Si  Si1  1  0.25255266  0.20900108  0.53324613  1
  Si  Si2  1  0.78579878  0.20900108  0.46675387  1
  Si  Si3  1  0.74744734  0.79099892  0.46675387  1
  Si  Si4  1  0.13817677  0.78750561  0.66741493  1
  Si  Si5  1  0.19440830  0.21249439  0.66741493  1
  Si  Si6  1  0.86182323  0.21249439  0.33258507  1
  Si  Si7  1  0.80559170  0.78750561  0.33258507  1
  Si  Si8  1  0.60104154  0.79690714  0.73649281  1
  Si  Si9  1  0.66246565  0.20309286  0.73649281  1
  Si  Si10  1  0.39895846  0.20309286  0.26350719  1
  Si  Si11  1  0.33753435  0.79690714  0.26350719  1
  Si  Si12  1  0.55340524  0.71487968  0.93265924  1
  Si  Si13  1  0.51393552  0.28512032  0.93265924  1
  Si  Si14  1  0.44659476  0.28512032  0.06734076  1
  Si  Si15  1  0.48606448  0.71487968  0.06734076  1
  Si  Si16  1  0.09227394  0.70196960  0.86355373  1
  Si  Si17  1  0.04417233  0.29803040  0.86355373  1
  Si  Si18  1  0.90772606  0.29803040  0.13644627  1
  Si  Si19  1  0.95582767  0.70196960  0.13644627  1
  O  O0  1  0.78783809  0.59104333  0.60322019  1
  O  O1  1  0.60894173  0.40895667  0.60322019  1
  O  O2  1  0.21216191  0.40895667  0.39677981  1
  O  O3  1  0.39105827  0.59104333  0.39677981  1
  O  O4  1  0.94631076  0.84952243  0.49907496  1
  O  O5  1  0.55461428  0.15047757  0.49907496  1
  O  O6  1  0.05368924  0.15047757  0.50092504  1
  O  O7  1  0.44538572  0.84952243  0.50092504  1
  O  O8  1  0.31938904  0.61753073  0.53341247  1
  O  O9  1  0.14719848  0.38246927  0.53341247  1
  O  O10  1  0.68061096  0.38246927  0.46658753  1
  O  O11  1  0.85280152  0.61753073  0.46658753  1
  O  O12  1  0.14424697  0.84556547  0.60082060  1
  O  O13  1  0.25493243  0.15443453  0.60082060  1
  O  O14  1  0.85575303  0.15443453  0.39917940  1
  O  O15  1  0.74506757  0.84556547  0.39917940  1
  O  O16  1  0.25062714  0.61503350  0.67162914  1
  O  O17  1  0.07774372  0.38496650  0.67162914  1
  O  O18  1  0.74937286  0.38496650  0.32837086  1
  O  O19  1  0.92225628  0.61503350  0.32837086  1
  O  O20  1  0.83256113  0.84863907  0.69944890  1
  O  O21  1  0.46798997  0.15136093  0.69944890  1
  O  O22  1  0.16743887  0.15136093  0.30055110  1
  O  O23  1  0.53201003  0.84863907  0.30055110  1
  O  O24  1  0.31866628  0.85200828  0.70428745  1
  O  O25  1  0.97704627  0.14799172  0.70428745  1
  O  O26  1  0.68133372  0.14799172  0.29571255  1
  O  O27  1  0.02295373  0.85200828  0.29571255  1
  O  O28  1  0.71633973  0.62281464  0.74102506  1
  O  O29  1  0.54263522  0.37718536  0.74102506  1
  O  O30  1  0.28366027  0.37718536  0.25897494  1
  O  O31  1  0.45736478  0.62281464  0.25897494  1
  O  O32  1  0.49306976  0.88171522  0.79699815  1
  O  O33  1  0.70993210  0.11828478  0.79699815  1
  O  O34  1  0.50693024  0.11828478  0.20300185  1
  O  O35  1  0.29006790  0.88171522  0.20300185  1
  O  O36  1  0.95979842  0.93437174  0.00000000  1
  O  O37  1  0.04020158  0.06562826  0.00000000  1
  O  O38  1  0.45218551  0.88779539  0.92958396  1
  O  O39  1  0.61823053  0.11220461  0.92958396  1
  O  O40  1  0.54781449  0.11220461  0.07041604  1
  O  O41  1  0.38176947  0.88779539  0.07041604  1
  O  O42  1  0.98162409  0.87643375  0.85808079  1
  O  O43  1  0.16029512  0.12356625  0.85808079  1
  O  O44  1  0.01837591  0.12356625  0.14191921  1
  O  O45  1  0.83970488  0.87643375  0.14191921  1
  O  O46  1  0.21041325  0.61649722  0.80370478  1
  O  O47  1  0.98588197  0.38350278  0.80370478  1
  O  O48  1  0.78958675  0.38350278  0.19629522  1
  O  O49  1  0.01411803  0.61649722  0.19629522  1
  O  O50  1  0.35484249  0.65241498  0.90175406  1
  O  O51  1  0.74340345  0.34758502  0.90175406  1
  O  O52  1  0.64515751  0.34758502  0.09824594  1
  O  O53  1  0.25659655  0.65241498  0.09824594  1
  O  O54  1  0.85154926  0.65101339  0.89724101  1
  O  O55  1  0.25120974  0.34898661  0.89724101  1
  O  O56  1  0.14845074  0.34898661  0.10275899  1
  O  O57  1  0.74879026  0.65101339  0.10275899  1
  O  O58  1  0.56624013  0.66097557  0.00000000  1
  O  O59  1  0.43375987  0.33902443  0.00000000  1
loop_
_geom_bond_atom_site_label_1
_geom_bond_atom_site_label_2
_geom_bond_distance
_geom_bond_site_symmetry_2
Mg0 O1 2.032514 1_555
Mg0 O0 2.032514 1_555
Mg0 O11 2.045348 1_555
Mg0 O10 2.045348 1_555
Mg0 O9 2.128937 1_655
Mg0 O8 2.128937 1_555
Mg1 O3 2.032514 1_555
Mg1 O2 2.032514 1_555
Mg1 O9 2.045348 1_555
Mg1 O8 2.045348 1_555
Mg1 O11 2.128937 1_455
Mg1 O10 2.128937 1_555
Mg2 O1 2.074318 1_555
Mg2 O0 2.074318 1_455
Mg2 O16 2.109923 1_555
Mg2 O17 2.109923 1_555
Mg2 O8 2.124237 1_555
Mg2 O9 2.124237 1_555
Mg3 O3 2.074318 1_555
Mg3 O2 2.074318 1_655
Mg3 O18 2.109923 1_555
Mg3 O19 2.109923 1_555
Mg3 O10 2.124237 1_555
Mg3 O11 2.124237 1_555
Mg4 O1 2.027373 1_555
Mg4 O0 2.027373 1_555
Mg4 O29 2.106062 1_555
Mg4 O28 2.106062 1_555
Mg4 O16 2.123229 1_555
Mg4 O17 2.123229 1_655
Mg5 O3 2.027373 1_555
Mg5 O2 2.027373 1_555
Mg5 O31 2.106062 1_555
Mg5 O30 2.106062 1_555
Mg5 O18 2.123229 1_555
Mg5 O19 2.123229 1_455
Mg6 O46 2.046265 1_555
Mg6 O47 2.046265 1_455
Mg6 O28 2.136570 1_455
Mg6 O29 2.136570 1_555
Mg6 O16 2.143502 1_555
Mg6 O17 2.143502 1_555
Mg7 O48 2.046265 1_555
Mg7 O49 2.046265 1_655
Mg7 O30 2.136570 1_655
Mg7 O31 2.136570 1_555
Mg7 O18 2.143502 1_555
Mg7 O19 2.143502 1_555
Mg8 O47 2.007854 1_555
Mg8 O46 2.007854 1_555
Mg8 O28 2.071136 1_555
Mg8 O29 2.071136 1_555
Mg9 O49 2.007854 1_555
Mg9 O48 2.007854 1_555
Mg9 O30 2.071136 1_555
Mg9 O31 2.071136 1_555
Mg10 O36 2.018566 1_446
Mg10 O37 2.018566 1_556
Mg10 O42 2.033829 1_445
Mg10 O43 2.033829 1_555
Mg10 O39 2.146528 1_455
Mg10 O38 2.146528 1_545
Mg11 O37 2.018566 1_655
Mg11 O36 2.018566 1_545
Mg11 O44 2.033829 1_655
Mg11 O45 2.033829 1_545
Mg11 O41 2.146528 1_645
Mg11 O40 2.146528 1_555
Mg12 O32 2.016676 1_545
Mg12 O33 2.016676 1_555
Mg12 O42 2.127386 1_545
Mg12 O43 2.127386 1_555
Mg12 O38 2.164494 1_545
Mg12 O39 2.164494 1_555
Mg13 O34 2.016676 1_555
Mg13 O35 2.016676 1_545
Mg13 O44 2.127386 1_555
Mg13 O45 2.127386 1_545
Mg13 O40 2.164494 1_555
Mg13 O41 2.164494 1_545
Mg14 O41 2.107834 1_545
Mg14 O39 2.107834 1_554
Mg14 O40 2.107834 1_555
Mg14 O38 2.107834 1_544
Mg14 O37 2.321612 1_555
Mg14 O36 2.321612 1_545
Mg15 O32 2.037015 1_545
Mg15 O33 2.037015 1_455
Mg15 O43 2.166694 1_555
Mg15 O42 2.166694 1_445
Mg15 O24 2.440786 1_545
Mg15 O25 2.440786 1_455
Mg16 O34 2.037015 1_555
Mg16 O35 2.037015 1_645
Mg16 O45 2.166694 1_545
Mg16 O44 2.166694 1_655
Mg16 O26 2.440786 1_555
Mg16 O27 2.440786 1_645
O4 Si3 1.638041 1_555
O4 Si0 1.638445 1_655
O5 Si2 1.638041 1_555
O5 Si1 1.638445 1_555
O6 Si1 1.638041 1_555
O6 Si2 1.638445 1_455
O7 Si0 1.638041 1_555
O7 Si3 1.638445 1_555
O8 Si0 1.640708 1_555
O9 Si1 1.640708 1_555
O10 Si2 1.640708 1_555
O11 Si3 1.640708 1_555
O12 Si4 1.631136 1_555
O12 Si0 1.640934 1_555
O13 Si5 1.631136 1_555
O13 Si1 1.640934 1_555
O14 Si6 1.631136 1_555
O14 Si2 1.640934 1_555
O15 Si7 1.631136 1_555
O15 Si3 1.640934 1_555
O16 Si4 1.634162 1_555
O17 Si5 1.634162 1_555
O18 Si6 1.634162 1_555
O19 Si7 1.634162 1_555
O20 Si4 1.636931 1_655
O20 Si8 1.643101 1_555
O21 Si5 1.636931 1_555
O21 Si9 1.643101 1_555
O22 Si6 1.636931 1_455
O22 Si10 1.643101 1_555
O23 Si7 1.636931 1_555
O23 Si11 1.643101 1_555
O24 Si4 1.656204 1_555
O24 Si8 1.676271 1_555
O25 Si5 1.656204 1_655
O25 Si9 1.676271 1_555
O26 Si6 1.656204 1_555
O26 Si10 1.676271 1_555
O27 Si7 1.656204 1_455
O27 Si11 1.676271 1_555
O28 Si8 1.650107 1_555
O29 Si9 1.650107 1_555
O30 Si10 1.650107 1_555
O31 Si11 1.650107 1_555
O32 Si8 1.613901 1_555
O33 Si9 1.613901 1_555
O34 Si10 1.613901 1_555
O35 Si11 1.613901 1_555
O36 O37 1.519755 1_665
O38 Si12 1.637246 1_555
O39 Si13 1.637246 1_555
O40 Si14 1.637246 1_555
O41 Si15 1.637246 1_555
O42 Si16 1.654770 1_655
O43 Si17 1.654770 1_555
O44 Si18 1.654770 1_455
O45 Si19 1.654770 1_555
O46 Si16 1.609176 1_555
O47 Si17 1.609176 1_655
O48 Si18 1.609176 1_555
O49 Si19 1.609176 1_455
O50 Si12 1.643153 1_555
O50 Si16 1.669403 1_555
O51 Si13 1.643153 1_555
O51 Si17 1.669403 1_655
O52 Si14 1.643153 1_555
O52 Si18 1.669403 1_555
O53 Si15 1.643153 1_555
O53 Si19 1.669403 1_455
O54 Si12 1.636540 1_555
O54 Si16 1.648001 1_655
O55 Si13 1.636540 1_555
O55 Si17 1.648001 1_555
O56 Si14 1.636540 1_555
O56 Si18 1.648001 1_455
O57 Si15 1.636540 1_555
O57 Si19 1.648001 1_555
O58 Si12 1.635147 1_554
O58 Si15 1.635147 1_555
O59 Si14 1.635147 1_555
O59 Si13 1.635147 1_554
