# generated using pymatgen
data_KNaMg3Zn2(Si2O5)6
_symmetry_space_group_name_H-M   'P 1'
_cell_length_a   10.29481837
_cell_length_b   10.29543824
_cell_length_c   14.44018103
_cell_angle_alpha   90.00009320
_cell_angle_beta   90.00406801
_cell_angle_gamma   120.00203354
_symmetry_Int_Tables_number   1
_chemical_formula_structural   KNaMg3Zn2(Si2O5)6
_chemical_formula_sum   'K2 Na2 Mg6 Zn4 Si24 O60'
_cell_volume   1325.43335229
_cell_formula_units_Z   2
loop_
 _symmetry_equiv_pos_site_id
 _symmetry_equiv_pos_as_xyz
  1  'x, y, z'
loop_
 _atom_site_type_symbol
 _atom_site_label
 _atom_site_symmetry_multiplicity
 _atom_site_fract_x
 _atom_site_fract_y
 _atom_site_fract_z
 _atom_site_occupancy
  K  K0  1  0.00000311  0.99988555  0.25000102  1
  K  K1  1  0.00000186  0.99997166  0.75000073  1
  Na  Na0  1  0.66668406  0.33328320  0.49999287  1
  Na  Na1  1  0.33337556  0.66665632  0.00000543  1
  Mg  Mg0  1  0.66695092  0.33367004  0.24619173  1
  Mg  Mg1  1  0.66665384  0.33331405  0.75356427  1
  Mg  Mg2  1  0.33335751  0.66667030  0.74643146  1
  Mg  Mg3  1  0.33305966  0.66672701  0.25380715  1
  Mg  Mg4  1  0.50049939  0.00004080  0.24998793  1
  Mg  Mg5  1  0.49949456  0.49952742  0.25001346  1
  Zn  Zn0  1  0.00000693  0.49978349  0.25000004  1
  Zn  Zn1  1  0.49967999  0.99999923  0.74999501  1
  Zn  Zn2  1  0.50032045  0.50031257  0.75000446  1
  Zn  Zn3  1  0.00000682  0.49971604  0.75000056  1
  Si  Si0  1  0.23777666  0.88544889  0.39017466  1
  Si  Si1  1  0.64753666  0.76217048  0.39014145  1
  Si  Si2  1  0.11382087  0.35141055  0.39026411  1
  Si  Si3  1  0.23775828  0.88627835  0.60971331  1
  Si  Si4  1  0.64856611  0.76227813  0.60970957  1
  Si  Si5  1  0.11372928  0.35149941  0.60971495  1
  Si  Si6  1  0.35143784  0.11371614  0.89028997  1
  Si  Si7  1  0.88627733  0.23777376  0.89028526  1
  Si  Si8  1  0.76224423  0.64852001  0.89028615  1
  Si  Si9  1  0.35246791  0.11464070  0.10985754  1
  Si  Si10  1  0.88618587  0.23759339  0.10973502  1
  Si  Si11  1  0.76222454  0.64767230  0.10982639  1
  Si  Si12  1  0.76327713  0.11319281  0.61059221  1
  Si  Si13  1  0.34989103  0.23665751  0.61062018  1
  Si  Si14  1  0.88677949  0.65006220  0.61056281  1
  Si  Si15  1  0.76331646  0.11387894  0.38945409  1
  Si  Si16  1  0.35063741  0.23660273  0.38943289  1
  Si  Si17  1  0.88657494  0.65016690  0.38945706  1
  Si  Si18  1  0.64936861  0.88597074  0.11057013  1
  Si  Si19  1  0.11342902  0.76359582  0.11054305  1
  Si  Si20  1  0.23668782  0.35056688  0.11054426  1
  Si  Si21  1  0.65011447  0.88677099  0.88937967  1
  Si  Si22  1  0.11322530  0.76328649  0.88943750  1
  Si  Si23  1  0.23672798  0.34991985  0.88940831  1
  O  O0  1  0.05782245  0.78330856  0.36670370  1
  O  O1  1  0.72428397  0.94204913  0.36636450  1
  O  O2  1  0.21790024  0.27571903  0.36633014  1
  O  O3  1  0.05807657  0.78314448  0.63342453  1
  O  O4  1  0.72511819  0.94195644  0.63346531  1
  O  O5  1  0.21684598  0.27494052  0.63339895  1
  O  O6  1  0.27488590  0.21684300  0.86653412  1
  O  O7  1  0.78315927  0.05809827  0.86660100  1
  O  O8  1  0.94192622  0.72506996  0.86657582  1
  O  O9  1  0.27571958  0.21777015  0.13363588  1
  O  O10  1  0.78210595  0.05782245  0.13366990  1
  O  O11  1  0.94217992  0.72548817  0.13329625  1
  O  O12  1  0.94224595  0.21618307  0.63375468  1
  O  O13  1  0.27390707  0.05774408  0.63381121  1
  O  O14  1  0.78383854  0.72602996  0.63376702  1
  O  O15  1  0.94239999  0.21605154  0.36633638  1
  O  O16  1  0.27474698  0.05774514  0.36609625  1
  O  O17  1  0.78286722  0.72530044  0.36607949  1
  O  O18  1  0.72525325  0.78299869  0.13390387  1
  O  O19  1  0.21713632  0.94243695  0.13392157  1
  O  O20  1  0.05760456  0.27365323  0.13366302  1
  O  O21  1  0.72609397  0.78383724  0.86618937  1
  O  O22  1  0.21616395  0.94219433  0.86623242  1
  O  O23  1  0.05775948  0.27393859  0.86624581  1
  O  O24  1  0.34031195  0.84558277  0.32646901  1
  O  O25  1  0.50512590  0.65971290  0.32642005  1
  O  O26  1  0.15583400  0.49543892  0.32688130  1
  O  O27  1  0.33976331  0.84413224  0.67314498  1
  O  O28  1  0.50436652  0.66020497  0.67313269  1
  O  O29  1  0.15584296  0.49564682  0.67309414  1
  O  O30  1  0.49563987  0.15584522  0.82686990  1
  O  O31  1  0.84417045  0.33981121  0.82690405  1
  O  O32  1  0.66024274  0.50436896  0.82685331  1
  O  O33  1  0.49487985  0.15459608  0.17357725  1
  O  O34  1  0.84417960  0.33961286  0.17312020  1
  O  O35  1  0.65969266  0.50527126  0.17353253  1
  O  O36  1  0.65915421  0.15774742  0.67017005  1
  O  O37  1  0.49859459  0.34085544  0.67015514  1
  O  O38  1  0.84226911  0.50137849  0.67010440  1
  O  O39  1  0.65849644  0.15623413  0.32952802  1
  O  O40  1  0.49775888  0.34157432  0.32956391  1
  O  O41  1  0.84221870  0.50146524  0.32988389  1
  O  O42  1  0.50224491  0.84382622  0.17043740  1
  O  O43  1  0.15779109  0.65925640  0.17011745  1
  O  O44  1  0.34150951  0.49774151  0.17047159  1
  O  O45  1  0.50140914  0.84226798  0.82984576  1
  O  O46  1  0.15774113  0.65911900  0.82989457  1
  O  O47  1  0.34085298  0.49859637  0.82982923  1
  O  O48  1  0.26441135  0.87190271  0.50010144  1
  O  O49  1  0.60761813  0.73573881  0.50009230  1
  O  O50  1  0.12799071  0.39238745  0.50007013  1
  O  O51  1  0.39238216  0.12812160  0.99990757  1
  O  O52  1  0.87200919  0.26439819  -0.00006972  1
  O  O53  1  0.73558903  0.60749234  0.99989903  1
  O  O54  1  0.73644186  0.13537283  0.50012341  1
  O  O55  1  0.39880470  0.26348333  0.50009682  1
  O  O56  1  0.86479959  0.60121744  0.50002313  1
  O  O57  1  0.60120316  0.86468467  0.99990394  1
  O  O58  1  0.13520471  0.73642137  -0.00002316  1
  O  O59  1  0.26356351  0.39893746  0.99987646  1
loop_
_geom_bond_atom_site_label_1
_geom_bond_atom_site_label_2
_geom_bond_distance
_geom_bond_site_symmetry_2
K0 O15 3.073544 1_465
K0 O20 3.073561 1_565
K0 O19 3.078798 1_555
K0 O17 3.078818 1_455
K0 O16 3.078911 1_565
K0 O18 3.078965 1_455
K0 O0 3.081109 1_555
K0 O11 3.081119 1_455
K0 O1 3.089557 1_455
K0 O9 3.089561 1_565
K0 O2 3.089840 1_565
K0 O10 3.089864 1_465
K1 O13 3.073020 1_565
K1 O21 3.073034 1_455
K1 O22 3.073492 1_555
K1 O14 3.073520 1_455
K1 O23 3.074034 1_565
K1 O12 3.074055 1_465
K1 O6 3.083124 1_565
K1 O4 3.083133 1_455
K1 O8 3.083718 1_455
K1 O3 3.083727 1_555
K1 O7 3.084319 1_465
K1 O5 3.084334 1_565
Na0 O54 2.476046 1_555
Na0 O55 2.477862 1_555
Na0 O56 2.478439 1_555
Na1 O59 2.476401 1_554
Na1 O57 2.477347 1_554
Na1 O58 2.478605 1_555
Mg0 O34 2.081992 1_555
Mg0 O35 2.087992 1_555
Mg0 O33 2.090488 1_555
Mg0 O41 2.140794 1_555
Mg0 O40 2.152195 1_555
Mg0 O39 2.152642 1_555
Mg1 O30 2.083692 1_555
Mg1 O32 2.083755 1_555
Mg1 O31 2.084052 1_555
Mg1 O36 2.140964 1_555
Mg1 O37 2.141060 1_555
Mg1 O38 2.141693 1_555
Mg2 O28 2.083646 1_555
Mg2 O27 2.083725 1_555
Mg2 O29 2.084039 1_555
Mg2 O47 2.141036 1_555
Mg2 O45 2.141056 1_555
Mg2 O46 2.141727 1_555
Mg3 O26 2.082007 1_555
Mg3 O24 2.088000 1_555
Mg3 O25 2.090489 1_555
Mg3 O43 2.140791 1_555
Mg3 O42 2.152162 1_555
Mg3 O44 2.152646 1_555
Mg4 O33 1.960822 1_555
Mg4 O24 1.961044 1_545
Mg4 O39 1.983621 1_555
Mg4 O42 1.983787 1_545
Mg5 O25 1.960829 1_555
Mg5 O35 1.961075 1_555
Mg5 O44 1.983611 1_555
Mg5 O40 1.983771 1_555
O0 Si17 1.636551 1_455
O0 Si0 1.644518 1_555
O1 Si15 1.640515 1_565
O1 Si1 1.645760 1_555
O2 Si16 1.640458 1_555
O2 Si2 1.646167 1_555
O3 Si14 1.636969 1_455
O3 Si3 1.643850 1_555
O4 Si12 1.636716 1_565
O4 Si4 1.644012 1_555
O5 Si13 1.636915 1_555
O5 Si5 1.643745 1_555
O6 Si23 1.636706 1_555
O6 Si6 1.644019 1_555
O7 Si21 1.636908 1_545
O7 Si7 1.643744 1_555
O8 Si22 1.636984 1_655
O8 Si8 1.643848 1_555
O9 Si20 1.640512 1_555
O9 Si9 1.645756 1_555
O10 Si18 1.640435 1_545
O10 Si10 1.646171 1_555
O11 Si19 1.636561 1_655
O11 Si11 1.644524 1_555
O12 Si12 1.636149 1_555
O12 Si5 1.648772 1_655
O13 Si13 1.635864 1_555
O13 Si3 1.648910 1_545
O14 Si14 1.635859 1_555
O14 Si4 1.648931 1_555
O15 Si15 1.636328 1_555
O15 Si2 1.648098 1_655
O16 Si16 1.635844 1_555
O16 Si0 1.654446 1_545
O17 Si17 1.636477 1_555
O17 Si1 1.653719 1_555
O18 Si18 1.635834 1_555
O18 Si11 1.654453 1_555
O19 Si19 1.636476 1_555
O19 Si9 1.653749 1_565
O20 Si20 1.636326 1_555
O20 Si10 1.648085 1_455
O21 Si21 1.635864 1_555
O21 Si8 1.648920 1_555
O22 Si22 1.635853 1_555
O22 Si6 1.648942 1_565
O23 Si23 1.636144 1_555
O23 Si7 1.648766 1_455
O24 Si0 1.600745 1_555
O25 Si1 1.600628 1_555
O26 Si2 1.606935 1_555
O26 Zn0 1.969645 1_555
O27 Si3 1.607975 1_555
O27 Zn1 1.968418 1_555
O28 Si4 1.608398 1_555
O28 Zn2 1.968558 1_555
O29 Si5 1.607635 1_555
O29 Zn3 1.968838 1_555
O30 Si6 1.608387 1_555
O30 Zn1 1.968551 1_545
O31 Si7 1.607642 1_555
O31 Zn3 1.968813 1_655
O32 Si8 1.607975 1_555
O32 Zn2 1.968431 1_555
O33 Si9 1.600620 1_555
O34 Si10 1.606945 1_555
O34 Zn0 1.969627 1_655
O35 Si11 1.600741 1_555
O36 Si12 1.609796 1_555
O36 Zn1 1.998867 1_545
O37 Si13 1.609634 1_555
O37 Zn2 1.998937 1_555
O38 Si14 1.609668 1_555
O38 Zn3 1.998967 1_655
O39 Si15 1.604335 1_555
O40 Si16 1.603925 1_555
O41 Si17 1.610327 1_555
O41 Zn0 1.999505 1_655
O42 Si18 1.603941 1_555
O43 Si19 1.610327 1_555
O43 Zn0 1.999491 1_555
O44 Si20 1.604343 1_555
O45 Si21 1.609646 1_555
O45 Zn1 1.998966 1_555
O46 Si22 1.609663 1_555
O46 Zn3 1.998945 1_555
O47 Si23 1.609805 1_555
O47 Zn2 1.998848 1_555
O48 Si3 1.625784 1_555
O48 Si0 1.628661 1_555
O49 Si4 1.625616 1_555
O49 Si1 1.628501 1_555
O50 Si5 1.625977 1_555
O50 Si2 1.628455 1_555
O51 Si6 1.625614 1_555
O51 Si9 1.628482 1_556
O52 Si7 1.625986 1_554
O52 Si10 1.628445 1_555
O53 Si8 1.625798 1_555
O53 Si11 1.628667 1_556
O54 Si12 1.654124 1_555
O54 Si15 1.655500 1_555
O55 Si13 1.654697 1_555
O55 Si16 1.654918 1_555
O56 Si14 1.654730 1_555
O56 Si17 1.655419 1_555
O57 Si21 1.654705 1_555
O57 Si18 1.654945 1_556
O58 Si22 1.654727 1_554
O58 Si19 1.655421 1_555
O59 Si23 1.654119 1_555
O59 Si20 1.655485 1_556
