# generated using pymatgen
data_NdH3CSO7
_symmetry_space_group_name_H-M   'P 1'
_cell_length_a   7.02636600
_cell_length_b   7.02636600
_cell_length_c   11.92934100
_cell_angle_alpha   90.00000000
_cell_angle_beta   90.00000000
_cell_angle_gamma   90.00000000
_symmetry_Int_Tables_number   1
_chemical_formula_structural   NdH3CSO7
_chemical_formula_sum   'Nd4 H12 C4 S4 O28'
_cell_volume   588.94940794
_cell_formula_units_Z   4
loop_
 _symmetry_equiv_pos_site_id
 _symmetry_equiv_pos_as_xyz
  1  'x, y, z'
loop_
 _atom_site_type_symbol
 _atom_site_label
 _atom_site_symmetry_multiplicity
 _atom_site_fract_x
 _atom_site_fract_y
 _atom_site_fract_z
 _atom_site_occupancy
  Nd  Nd0  1  0.11517700  0.37174000  0.24656800  1
  Nd  Nd1  1  0.88482300  0.62826000  0.74656800  1
  Nd  Nd2  1  0.37174000  0.88482300  0.49656800  1
  Nd  Nd3  1  0.62826000  0.11517700  0.99656800  1
  H  H0  1  0.03129400  0.86764400  0.20742900  1
  H  H1  1  0.96870600  0.13235600  0.70742900  1
  H  H2  1  0.86764400  0.96870600  0.45742900  1
  H  H3  1  0.13235600  0.03129400  0.95742900  1
  H  H4  1  0.36803800  0.53982600  0.05616200  1
  H  H5  1  0.63196200  0.46017400  0.55616200  1
  H  H6  1  0.53982600  0.63196200  0.30616200  1
  H  H7  1  0.46017400  0.36803800  0.80616200  1
  H  H8  1  0.15474300  0.59635300  0.02434400  1
  H  H9  1  0.84525700  0.40364700  0.52434400  1
  H  H10  1  0.59635300  0.84525700  0.27434400  1
  H  H11  1  0.40364700  0.15474300  0.77434400  1
  C  C0  1  0.11614700  0.87000200  0.28506100  1
  C  C1  1  0.88385300  0.12999800  0.78506100  1
  C  C2  1  0.87000200  0.88385300  0.53506100  1
  C  C3  1  0.12999800  0.11614700  0.03506100  1
  S  S0  1  0.61233900  0.23122200  0.30367500  1
  S  S1  1  0.38766100  0.76877800  0.80367500  1
  S  S2  1  0.23122200  0.38766100  0.55367500  1
  S  S3  1  0.76877800  0.61233900  0.05367500  1
  O  O0  1  0.16741000  0.03036500  0.32604300  1
  O  O1  1  0.83259000  0.96963500  0.82604300  1
  O  O2  1  0.03036500  0.83259000  0.57604300  1
  O  O3  1  0.96963500  0.16741000  0.07604300  1
  O  O4  1  0.10379900  0.37758800  0.45428100  1
  O  O5  1  0.89620100  0.62241200  0.95428100  1
  O  O6  1  0.37758800  0.89620100  0.70428100  1
  O  O7  1  0.62241200  0.10379900  0.20428100  1
  O  O8  1  0.56770600  0.11675300  0.40386800  1
  O  O9  1  0.43229400  0.88324700  0.90386800  1
  O  O10  1  0.11675300  0.43229400  0.65386800  1
  O  O11  1  0.88324700  0.56770600  0.15386800  1
  O  O12  1  0.79777000  0.32475500  0.32271100  1
  O  O13  1  0.20223000  0.67524500  0.82271100  1
  O  O14  1  0.32475500  0.20223000  0.57271100  1
  O  O15  1  0.67524500  0.79777000  0.07271100  1
  O  O16  1  0.46090600  0.37916200  0.28633500  1
  O  O17  1  0.53909400  0.62083800  0.78633500  1
  O  O18  1  0.37916200  0.53909400  0.53633500  1
  O  O19  1  0.62083800  0.46090600  0.03633500  1
  O  O20  1  0.15747400  0.71396000  0.33221600  1
  O  O21  1  0.84252600  0.28604000  0.83221600  1
  O  O22  1  0.71396000  0.84252600  0.58221600  1
  O  O23  1  0.28604000  0.15747400  0.08221600  1
  O  O24  1  0.24077600  0.56627000  0.08682600  1
  O  O25  1  0.75922400  0.43373000  0.58682600  1
  O  O26  1  0.56627000  0.75922400  0.33682600  1
  O  O27  1  0.43373000  0.24077600  0.83682600  1
loop_
_geom_bond_atom_site_label_1
_geom_bond_atom_site_label_2
_geom_bond_distance
_geom_bond_site_symmetry_2
Nd0 O11 2.403022 1_455
Nd0 O12 2.430624 1_455
Nd0 O16 2.475656 1_555
Nd0 O4 2.479509 1_555
Nd0 O24 2.505681 1_555
Nd0 O0 2.605180 1_555
Nd0 O20 2.629481 1_555
Nd0 O3 2.691687 1_455
Nd0 O23 2.748067 1_555
Nd1 O10 2.403022 1_655
Nd1 O13 2.430624 1_655
Nd1 O17 2.475656 1_555
Nd1 O5 2.479509 1_555
Nd1 O25 2.505681 1_555
Nd1 O1 2.605180 1_555
Nd1 O21 2.629481 1_555
Nd1 O2 2.691687 1_655
Nd1 O22 2.748067 1_555
Nd2 O8 2.403022 1_565
Nd2 O14 2.430624 1_565
Nd2 O18 2.475656 1_555
Nd2 O6 2.479509 1_555
Nd2 O26 2.505681 1_555
Nd2 O2 2.605180 1_555
Nd2 O22 2.629481 1_555
Nd2 O0 2.691687 1_565
Nd2 O20 2.748067 1_555
Nd3 O9 2.403022 1_545
Nd3 O15 2.430624 1_546
Nd3 O19 2.475656 1_556
Nd3 O7 2.479509 1_556
Nd3 O27 2.505681 1_555
Nd3 O3 2.605180 1_556
Nd3 O23 2.629481 1_556
Nd3 O1 2.691687 1_545
Nd3 O21 2.748067 1_555
H4 O24 0.983824 1_555
H5 O25 0.983824 1_555
H6 O26 0.983824 1_555
H7 O27 0.983824 1_555
H8 O24 0.982687 1_555
H9 O25 0.982687 1_555
H10 O26 0.982687 1_555
H11 O27 0.982687 1_555
C0 H0 1.101543 1_555
C0 O20 1.266044 1_555
C0 O0 1.279984 1_565
C1 H1 1.101543 1_555
C1 O21 1.266044 1_555
C1 O1 1.279984 1_545
C2 H2 1.101543 1_555
C2 O22 1.266044 1_555
C2 O2 1.279984 1_655
C3 H3 1.101543 1_554
C3 O23 1.266044 1_555
C3 O3 1.279984 1_455
O4 S2 1.487449 1_555
O5 S3 1.487449 1_556
O6 S1 1.487449 1_555
O7 S0 1.487449 1_555
O8 S0 1.474395 1_555
O9 S1 1.474395 1_555
O10 S2 1.474395 1_555
O11 S3 1.474395 1_555
O12 S0 1.476835 1_555
O13 S1 1.476835 1_555
O14 S2 1.476835 1_555
O15 S3 1.476835 1_555
O16 S0 1.501817 1_555
O17 S1 1.501817 1_555
O18 S2 1.501817 1_555
O19 S3 1.501817 1_555
