# generated using pymatgen
data_Mg3Cd
_symmetry_space_group_name_H-M   'P 1'
_cell_length_a   6.98464200
_cell_length_b   6.98464200
_cell_length_c   6.98464200
_cell_angle_alpha   90.00000000
_cell_angle_beta   90.00000000
_cell_angle_gamma   90.00000000
_symmetry_Int_Tables_number   1
_chemical_formula_structural   Mg3Cd
_chemical_formula_sum   'Mg12 Cd4'
_cell_volume   340.74732361
_cell_formula_units_Z   4
loop_
 _symmetry_equiv_pos_site_id
 _symmetry_equiv_pos_as_xyz
  1  'x, y, z'
loop_
 _atom_site_type_symbol
 _atom_site_label
 _atom_site_symmetry_multiplicity
 _atom_site_fract_x
 _atom_site_fract_y
 _atom_site_fract_z
 _atom_site_occupancy
  Mg  Mg0  1  0.00000000  0.00000000  0.00000000  1
  Mg  Mg1  1  0.25000000  0.25000000  0.25000000  1
  Mg  Mg2  1  0.25000000  0.25000000  0.75000000  1
  Mg  Mg3  1  0.00000000  0.50000000  0.50000000  1
  Mg  Mg4  1  0.25000000  0.75000000  0.75000000  1
  Mg  Mg5  1  0.25000000  0.75000000  0.25000000  1
  Mg  Mg6  1  0.50000000  0.00000000  0.50000000  1
  Mg  Mg7  1  0.75000000  0.25000000  0.75000000  1
  Mg  Mg8  1  0.75000000  0.25000000  0.25000000  1
  Mg  Mg9  1  0.50000000  0.50000000  0.00000000  1
  Mg  Mg10  1  0.75000000  0.75000000  0.25000000  1
  Mg  Mg11  1  0.75000000  0.75000000  0.75000000  1
  Cd  Cd0  1  0.50000000  0.00000000  0.00000000  1
  Cd  Cd1  1  0.50000000  0.50000000  0.50000000  1
  Cd  Cd2  1  0.00000000  0.00000000  0.50000000  1
  Cd  Cd3  1  0.00000000  0.50000000  0.00000000  1
loop_
_geom_bond_atom_site_label_1
_geom_bond_atom_site_label_2
_geom_bond_distance
_geom_bond_site_symmetry_2
Mg0 Mg2 3.024439 1_554
Mg0 Mg10 3.024439 1_445
Mg0 Mg4 3.024439 1_544
Mg0 Mg7 3.024439 1_454
Mg0 Mg8 3.024439 1_455
Mg0 Mg11 3.024439 1_444
Mg0 Mg1 3.024439 1_555
Mg0 Mg5 3.024439 1_545
Mg1 Mg9 3.024439 1_555
Mg1 Mg6 3.024439 1_555
Mg1 Mg3 3.024439 1_555
Mg2 Mg9 3.024439 1_556
Mg2 Mg6 3.024439 1_555
Mg2 Mg3 3.024439 1_555
Mg3 Mg5 3.024439 1_555
Mg3 Mg7 3.024439 1_455
Mg3 Mg4 3.024439 1_555
Mg3 Mg8 3.024439 1_455
Mg4 Mg6 3.024439 1_565
Mg4 Mg9 3.024439 1_556
Mg5 Mg6 3.024439 1_565
Mg5 Mg9 3.024439 1_555
Mg6 Mg7 3.024439 1_555
Mg6 Mg8 3.024439 1_555
Mg7 Mg9 3.024439 1_556
Mg8 Mg9 3.024439 1_555
Mg10 Mg6 3.024439 1_565
Mg10 Mg9 3.024439 1_555
Mg10 Mg3 3.024439 1_655
Mg11 Mg6 3.024439 1_565
Mg11 Mg9 3.024439 1_556
Mg11 Mg3 3.024439 1_655
Cd0 Mg2 3.024439 1_554
Cd0 Mg4 3.024439 1_544
Cd0 Mg10 3.024439 1_545
Cd0 Mg8 3.024439 1_555
Cd0 Mg1 3.024439 1_555
Cd0 Mg11 3.024439 1_544
Cd0 Mg5 3.024439 1_545
Cd0 Mg7 3.024439 1_554
Cd0 Mg0 3.492321 1_555
Cd0 Mg9 3.492321 1_545
Cd0 Mg9 3.492321 1_555
Cd0 Mg6 3.492321 1_555
Cd0 Mg6 3.492321 1_554
Cd0 Mg0 3.492321 1_655
Cd1 Mg5 3.024439 1_555
Cd1 Mg10 3.024439 1_555
Cd1 Mg4 3.024439 1_555
Cd1 Mg7 3.024439 1_555
Cd1 Mg8 3.024439 1_555
Cd1 Mg1 3.024439 1_555
Cd1 Mg2 3.024439 1_555
Cd1 Mg11 3.024439 1_555
Cd1 Mg9 3.492321 1_555
Cd1 Mg6 3.492321 1_555
Cd1 Mg9 3.492321 1_556
Cd1 Mg3 3.492321 1_555
Cd1 Mg3 3.492321 1_655
Cd1 Mg6 3.492321 1_565
Cd2 Mg7 3.024439 1_455
Cd2 Mg10 3.024439 1_445
Cd2 Mg11 3.024439 1_445
Cd2 Mg8 3.024439 1_455
Cd2 Mg1 3.024439 1_555
Cd2 Mg2 3.024439 1_555
Cd2 Mg4 3.024439 1_545
Cd2 Mg5 3.024439 1_545
Cd2 Mg0 3.492321 1_555
Cd2 Mg0 3.492321 1_556
Cd2 Mg3 3.492321 1_545
Cd2 Mg6 3.492321 1_555
Cd2 Mg3 3.492321 1_555
Cd2 Mg6 3.492321 1_455
Cd3 Mg4 3.024439 1_554
Cd3 Mg5 3.024439 1_555
Cd3 Mg10 3.024439 1_455
Cd3 Mg2 3.024439 1_554
Cd3 Mg7 3.024439 1_454
Cd3 Mg11 3.024439 1_454
Cd3 Mg8 3.024439 1_455
Cd3 Mg1 3.024439 1_555
Cd3 Mg0 3.492321 1_555
Cd3 Mg9 3.492321 1_555
Cd3 Mg0 3.492321 1_565
Cd3 Mg3 3.492321 1_555
Cd3 Mg3 3.492321 1_554
Cd3 Mg9 3.492321 1_455
