# generated using pymatgen
data_Rb8Nb6H28O33
_symmetry_space_group_name_H-M   'P 1'
_cell_length_a   10.36453700
_cell_length_b   15.98243300
_cell_length_c   14.22017406
_cell_angle_alpha   90.00000000
_cell_angle_beta   126.07176671
_cell_angle_gamma   90.00000000
_symmetry_Int_Tables_number   1
_chemical_formula_structural   Rb8Nb6H28O33
_chemical_formula_sum   'Rb16 Nb12 H56 O66'
_cell_volume   1903.96784048
_cell_formula_units_Z   2
loop_
 _symmetry_equiv_pos_site_id
 _symmetry_equiv_pos_as_xyz
  1  'x, y, z'
loop_
 _atom_site_type_symbol
 _atom_site_label
 _atom_site_symmetry_multiplicity
 _atom_site_fract_x
 _atom_site_fract_y
 _atom_site_fract_z
 _atom_site_occupancy
  Rb  Rb0  1  0.51739800  0.64013300  0.89666700  1
  Rb  Rb1  1  0.51739800  0.85986700  0.39666700  1
  Rb  Rb2  1  0.48260200  0.35986700  0.10333300  1
  Rb  Rb3  1  0.48260200  0.14013300  0.60333300  1
  Rb  Rb4  1  0.46762800  0.88939200  0.85093200  1
  Rb  Rb5  1  0.46762800  0.61060800  0.35093200  1
  Rb  Rb6  1  0.53237200  0.11060800  0.14906800  1
  Rb  Rb7  1  0.53237200  0.38939200  0.64906800  1
  Rb  Rb8  1  0.90645400  0.79628400  0.87732300  1
  Rb  Rb9  1  0.90645400  0.70371600  0.37732300  1
  Rb  Rb10  1  0.09354600  0.20371600  0.12267700  1
  Rb  Rb11  1  0.09354600  0.29628400  0.62267700  1
  Rb  Rb12  1  0.99587600  0.92889400  0.16596300  1
  Rb  Rb13  1  0.99587600  0.57110600  0.66596300  1
  Rb  Rb14  1  0.00412400  0.07110600  0.83403700  1
  Rb  Rb15  1  0.00412400  0.42889400  0.33403700  1
  Nb  Nb0  1  0.98731400  0.60688000  0.11588800  1
  Nb  Nb1  1  0.98731400  0.89312000  0.61588800  1
  Nb  Nb2  1  0.01268600  0.39312000  0.88411200  1
  Nb  Nb3  1  0.01268600  0.10688000  0.38411200  1
  Nb  Nb4  1  0.80762100  0.57169300  0.82921800  1
  Nb  Nb5  1  0.80762100  0.92830700  0.32921800  1
  Nb  Nb6  1  0.19237900  0.42830700  0.17078200  1
  Nb  Nb7  1  0.19237900  0.07169300  0.67078200  1
  Nb  Nb8  1  0.20842400  0.57779500  0.01221400  1
  Nb  Nb9  1  0.20842400  0.92220500  0.51221400  1
  Nb  Nb10  1  0.79157600  0.42220500  0.98778600  1
  Nb  Nb11  1  0.79157600  0.07779500  0.48778600  1
  H  H0  1  0.69758700  0.81978200  0.10877600  1
  H  H1  1  0.69758700  0.68021800  0.60877600  1
  H  H2  1  0.30241300  0.18021800  0.89122400  1
  H  H3  1  0.30241300  0.31978200  0.39122400  1
  H  H4  1  0.81217800  0.75788900  0.10366300  1
  H  H5  1  0.81217800  0.74211100  0.60366300  1
  H  H6  1  0.18782200  0.24211100  0.89633700  1
  H  H7  1  0.18782200  0.25788900  0.39633700  1
  H  H8  1  0.46719300  0.89891300  0.10943200  1
  H  H9  1  0.46719300  0.60108700  0.60943200  1
  H  H10  1  0.53280700  0.10108700  0.89056800  1
  H  H11  1  0.53280700  0.39891300  0.39056800  1
  H  H12  1  0.31274400  0.86896800  0.98929700  1
  H  H13  1  0.31274400  0.63103200  0.48929700  1
  H  H14  1  0.68725600  0.13103200  0.01070300  1
  H  H15  1  0.68725600  0.36896800  0.51070300  1
  H  H16  1  0.19379900  0.75790400  0.13081100  1
  H  H17  1  0.19379900  0.74209600  0.63081100  1
  H  H18  1  0.80620100  0.24209600  0.86918900  1
  H  H19  1  0.80620100  0.25790400  0.36918900  1
  H  H20  1  0.25699600  0.84288800  0.11223700  1
  H  H21  1  0.25699600  0.65711200  0.61223700  1
  H  H22  1  0.74300400  0.15711200  0.88776300  1
  H  H23  1  0.74300400  0.34288800  0.38776300  1
  H  H24  1  0.75166200  0.01038300  0.92322700  1
  H  H25  1  0.75166200  0.48961700  0.42322700  1
  H  H26  1  0.24833800  0.98961700  0.07677300  1
  H  H27  1  0.24833800  0.51038300  0.57677300  1
  H  H28  1  0.74099900  0.96548300  0.82029500  1
  H  H29  1  0.74099900  0.53451700  0.32029500  1
  H  H30  1  0.25900100  0.03451700  0.17970500  1
  H  H31  1  0.25900100  0.46548300  0.67970500  1
  H  H32  1  0.58293200  0.72011400  0.71898500  1
  H  H33  1  0.58293200  0.77988600  0.21898500  1
  H  H34  1  0.41706800  0.27988600  0.28101500  1
  H  H35  1  0.41706800  0.22011400  0.78101500  1
  H  H36  1  0.48366200  0.80244100  0.66000400  1
  H  H37  1  0.48366200  0.69755900  0.16000400  1
  H  H38  1  0.51633800  0.19755900  0.33999600  1
  H  H39  1  0.51633800  0.30244100  0.83999600  1
  H  H40  1  0.16580400  0.78580300  0.82665000  1
  H  H41  1  0.16580400  0.71419700  0.32665000  1
  H  H42  1  0.83419600  0.21419700  0.17335000  1
  H  H43  1  0.83419600  0.28580300  0.67335000  1
  H  H44  1  0.29674900  0.73093100  0.94076000  1
  H  H45  1  0.29674900  0.76906900  0.44076000  1
  H  H46  1  0.70325100  0.26906900  0.05924000  1
  H  H47  1  0.70325100  0.23093100  0.55924000  1
  H  H48  1  0.56057900  0.93420200  0.62669800  1
  H  H49  1  0.56057900  0.56579800  0.12669800  1
  H  H50  1  0.43942100  0.06579800  0.37330200  1
  H  H51  1  0.43942100  0.43420200  0.87330200  1
  H  H52  1  0.71511300  0.96825200  0.63656600  1
  H  H53  1  0.71511300  0.53174800  0.13656600  1
  H  H54  1  0.28488700  0.03174800  0.36343400  1
  H  H55  1  0.28488700  0.46825200  0.86343400  1
  O  O0  1  0.00000000  0.50000000  0.00000000  1
  O  O1  1  0.00000000  0.00000000  0.50000000  1
  O  O2  1  0.14923500  0.52546100  0.23683300  1
  O  O3  1  0.14923500  0.97453900  0.73683300  1
  O  O4  1  0.85076500  0.47453900  0.76316700  1
  O  O5  1  0.85076500  0.02546100  0.26316700  1
  O  O6  1  0.83284600  0.64708700  0.95314000  1
  O  O7  1  0.83284600  0.85291300  0.45314000  1
  O  O8  1  0.16715400  0.35291300  0.04686000  1
  O  O9  1  0.16715400  0.14708700  0.54686000  1
  O  O10  1  0.65540700  0.63236400  0.69699700  1
  O  O11  1  0.65540700  0.86763600  0.19699700  1
  O  O12  1  0.34459300  0.36763600  0.30300300  1
  O  O13  1  0.34459300  0.13236400  0.80300300  1
  O  O14  1  0.37348600  0.63628100  0.02694500  1
  O  O15  1  0.37348600  0.86371900  0.52694500  1
  O  O16  1  0.62651400  0.36371900  0.97305500  1
  O  O17  1  0.62651400  0.13628100  0.47305500  1
  O  O18  1  0.16450400  0.64978000  0.10710500  1
  O  O19  1  0.16450400  0.85022000  0.60710500  1
  O  O20  1  0.83549600  0.35022000  0.89289500  1
  O  O21  1  0.83549600  0.14978000  0.39289500  1
  O  O22  1  0.81671100  0.52390900  0.08475000  1
  O  O23  1  0.81671100  0.97609100  0.58475000  1
  O  O24  1  0.18328900  0.47609100  0.91525000  1
  O  O25  1  0.18328900  0.02390900  0.41525000  1
  O  O26  1  0.97763400  0.68875900  0.20209700  1
  O  O27  1  0.97763400  0.81124100  0.70209700  1
  O  O28  1  0.02236600  0.31124100  0.79790300  1
  O  O29  1  0.02236600  0.18875900  0.29790300  1
  O  O30  1  0.01236200  0.62421500  0.86867500  1
  O  O31  1  0.01236200  0.87578500  0.36867500  1
  O  O32  1  0.98763800  0.37578500  0.13132500  1
  O  O33  1  0.98763800  0.12421500  0.63132500  1
  O  O34  1  0.66900400  0.49879300  0.84878400  1
  O  O35  1  0.66900400  0.00120700  0.34878400  1
  O  O36  1  0.33099600  0.50120700  0.15121600  1
  O  O37  1  0.33099600  0.99879300  0.65121600  1
  O  O38  1  0.72330800  0.79801900  0.05590200  1
  O  O39  1  0.72330800  0.70198100  0.55590200  1
  O  O40  1  0.27669200  0.20198100  0.94409800  1
  O  O41  1  0.27669200  0.29801900  0.44409800  1
  O  O42  1  0.34975500  0.91094800  0.05258400  1
  O  O43  1  0.34975500  0.58905200  0.55258400  1
  O  O44  1  0.65024500  0.08905200  0.94741600  1
  O  O45  1  0.65024500  0.41094800  0.44741600  1
  O  O46  1  0.19113800  0.82023100  0.13515300  1
  O  O47  1  0.19113800  0.67976900  0.63515300  1
  O  O48  1  0.80886200  0.17976900  0.86484700  1
  O  O49  1  0.80886200  0.32023100  0.36484700  1
  O  O50  1  0.79693000  0.96346500  0.90604700  1
  O  O51  1  0.79693000  0.53653500  0.40604700  1
  O  O52  1  0.20307000  0.03653500  0.09395300  1
  O  O53  1  0.20307000  0.46346500  0.59395300  1
  O  O54  1  0.54902100  0.77307300  0.73595400  1
  O  O55  1  0.54902100  0.72692700  0.23595400  1
  O  O56  1  0.45097900  0.22692700  0.26404600  1
  O  O57  1  0.45097900  0.27307300  0.76404600  1
  O  O58  1  0.27649200  0.78529100  0.90029800  1
  O  O59  1  0.27649200  0.71470900  0.40029800  1
  O  O60  1  0.72350800  0.21470900  0.09970200  1
  O  O61  1  0.72350800  0.28529100  0.59970200  1
  O  O62  1  0.65614800  0.96996400  0.67345900  1
  O  O63  1  0.65614800  0.53003600  0.17345900  1
  O  O64  1  0.34385200  0.03003600  0.32654100  1
  O  O65  1  0.34385200  0.46996400  0.82654100  1
loop_
_geom_bond_atom_site_label_1
_geom_bond_atom_site_label_2
_geom_bond_distance
_geom_bond_site_symmetry_2
Nb0 O26 1.835825 1_555
Nb0 O6 1.992213 1_554
Nb0 O2 2.017120 1_655
Nb0 O18 2.031876 1_655
Nb0 O22 2.039401 1_555
Nb0 O0 2.430254 1_655
Nb1 O27 1.835825 1_555
Nb1 O7 1.992213 1_555
Nb1 O3 2.017120 1_655
Nb1 O19 2.031876 1_655
Nb1 O23 2.039401 1_555
Nb1 O1 2.430254 1_665
Nb2 O28 1.835825 1_555
Nb2 O8 1.992213 1_556
Nb2 O4 2.017120 1_455
Nb2 O20 2.031876 1_455
Nb2 O24 2.039401 1_555
Nb2 O0 2.430254 1_556
Nb3 O29 1.835825 1_555
Nb3 O9 1.992213 1_555
Nb3 O5 2.017120 1_455
Nb3 O21 2.031876 1_455
Nb3 O25 2.039401 1_555
Nb3 O1 2.430254 1_555
Nb4 O10 1.863137 1_555
Nb4 O34 1.992424 1_555
Nb4 O4 1.996951 1_555
Nb4 O6 2.020671 1_555
Nb4 O30 2.029885 1_655
Nb4 O0 2.341832 1_656
Nb5 O11 1.863137 1_555
Nb5 O35 1.992424 1_565
Nb5 O5 1.996951 1_565
Nb5 O7 2.020671 1_555
Nb5 O31 2.029885 1_655
Nb5 O1 2.341832 1_665
Nb6 O12 1.863137 1_555
Nb6 O36 1.992424 1_555
Nb6 O2 1.996951 1_555
Nb6 O8 2.020671 1_555
Nb6 O32 2.029885 1_455
Nb6 O0 2.341832 1_555
Nb7 O13 1.863137 1_555
Nb7 O37 1.992424 1_545
Nb7 O3 1.996951 1_545
Nb7 O9 2.020671 1_555
Nb7 O33 2.029885 1_455
Nb7 O1 2.341832 1_555
Nb8 O14 1.849980 1_555
Nb8 O30 1.990395 1_554
Nb8 O36 2.015501 1_555
Nb8 O18 2.018658 1_555
Nb8 O24 2.046523 1_554
Nb8 O0 2.408486 1_555
Nb9 O15 1.849980 1_555
Nb9 O31 1.990395 1_555
Nb9 O37 2.015501 1_555
Nb9 O19 2.018658 1_555
Nb9 O25 2.046523 1_565
Nb9 O1 2.408486 1_565
Nb10 O16 1.849980 1_555
Nb10 O32 1.990395 1_556
Nb10 O34 2.015501 1_555
Nb10 O20 2.018658 1_555
Nb10 O22 2.046523 1_556
Nb10 O0 2.408486 1_656
Nb11 O17 1.849980 1_555
Nb11 O33 1.990395 1_555
Nb11 O35 2.015501 1_555
Nb11 O21 2.018658 1_555
Nb11 O23 2.046523 1_545
Nb11 O1 2.408486 1_655
H0 O38 0.996699 1_555
H0 O11 1.730821 1_555
H1 O39 0.996699 1_555
H1 O10 1.730821 1_555
H2 O40 0.996699 1_555
H2 O13 1.730821 1_555
H3 O41 0.996699 1_555
H3 O12 1.730821 1_555
H4 O38 0.992154 1_555
H5 O39 0.992154 1_555
H6 O40 0.992154 1_555
H7 O41 0.992154 1_555
H8 O42 1.006644 1_555
H8 O11 1.656914 1_555
H9 O43 1.006644 1_555
H9 O10 1.656914 1_555
H10 O44 1.006644 1_555
H10 O13 1.656914 1_555
H11 O45 1.006644 1_555
H11 O12 1.656914 1_555
H12 O42 1.000347 1_556
H13 O43 1.000347 1_555
H14 O44 1.000347 1_554
H15 O45 1.000347 1_555
H16 O46 0.999434 1_555
H16 Rb8 3.097981 1_454
H17 O47 0.999434 1_555
H17 Rb9 3.097981 1_455
H18 O48 0.999434 1_555
H18 Rb10 3.097981 1_656
H19 O49 0.999434 1_555
H19 Rb11 3.097981 1_655
H20 O46 0.982436 1_555
H21 O47 0.982436 1_555
H22 O48 0.982436 1_555
H23 O49 0.982436 1_555
H24 O50 0.988479 1_545
H25 O51 0.988479 1_555
H26 O52 0.988479 1_565
H27 O53 0.988479 1_555
H28 O50 0.995800 1_555
H28 Rb8 3.045245 1_555
H29 O51 0.995800 1_555
H29 Rb9 3.045245 1_555
H30 O52 0.995800 1_555
H30 Rb10 3.045245 1_555
H31 O53 0.995800 1_555
H31 Rb11 3.045245 1_555
H32 O54 0.999024 1_555
H32 O10 1.704551 1_555
H32 Rb8 2.984051 1_555
H33 O55 0.999024 1_555
H33 O11 1.704551 1_555
H33 Rb9 2.984051 1_555
H34 O56 0.999024 1_555
H34 O12 1.704551 1_555
H34 Rb10 2.984051 1_555
H35 O57 0.999024 1_555
H35 O13 1.704551 1_555
H35 Rb11 2.984051 1_555
H36 O54 0.992014 1_555
H37 O55 0.992014 1_555
H38 O56 0.992014 1_555
H39 O57 0.992014 1_555
H40 O58 0.999078 1_555
H40 Rb8 3.170774 1_455
H41 O59 0.999078 1_555
H41 Rb9 3.170774 1_455
H42 O60 0.999078 1_555
H42 Rb10 3.170774 1_655
H43 O61 0.999078 1_555
H43 Rb11 3.170774 1_655
H44 O58 0.993833 1_555
H44 Rb0 3.068820 1_555
H45 O59 0.993833 1_555
H45 Rb1 3.068820 1_555
H46 O60 0.993833 1_555
H46 Rb2 3.068820 1_555
H47 O61 0.993833 1_555
H47 Rb3 3.068820 1_555
H48 O62 0.987099 1_555
H49 O63 0.987099 1_555
H50 O64 0.987099 1_555
H51 O65 0.987099 1_555
H52 O62 1.013430 1_555
H52 O23 1.606597 1_555
H53 O63 1.013430 1_555
H53 O22 1.606597 1_555
H54 O64 1.013430 1_555
H54 O25 1.606597 1_555
H55 O65 1.013430 1_555
H55 O24 1.606597 1_555
O2 Rb15 3.000470 1_555
O2 Rb5 3.011522 1_555
O3 Rb14 3.000470 1_565
O3 Rb4 3.011522 1_555
O4 Rb13 3.000470 1_555
O4 Rb7 3.011522 1_555
O5 Rb12 3.000470 1_545
O5 Rb6 3.011522 1_555
O6 Rb0 2.873124 1_555
O6 Rb8 2.898101 1_555
O7 Rb1 2.873124 1_555
O7 Rb9 2.898101 1_555
O8 Rb2 2.873124 1_555
O8 Rb10 2.898101 1_555
O9 Rb3 2.873124 1_555
O9 Rb11 2.898101 1_555
O14 Rb0 2.985742 1_554
O15 Rb1 2.985742 1_555
O16 Rb2 2.985742 1_556
O17 Rb3 2.985742 1_555
O18 Rb5 3.075152 1_555
O19 Rb4 3.075152 1_555
O20 Rb7 3.075152 1_555
O21 Rb6 3.075152 1_555
O22 Rb0 3.233726 1_554
O23 Rb1 3.233726 1_555
O24 Rb2 3.233726 1_556
O25 Rb3 3.233726 1_555
O26 Rb9 2.995823 1_555
O27 Rb8 2.995823 1_555
O28 Rb11 2.995823 1_555
O29 Rb10 2.995823 1_555
O30 Rb13 2.911878 1_455
O30 Rb8 2.990309 1_455
O31 Rb12 2.911878 1_455
O31 Rb9 2.990309 1_455
O32 Rb15 2.911878 1_655
O32 Rb10 2.990309 1_655
O33 Rb14 2.911878 1_655
O33 Rb11 2.990309 1_655
O34 Rb7 2.896925 1_555
O34 Rb0 3.048856 1_555
O35 Rb6 2.896925 1_555
O35 Rb1 3.048856 1_545
O36 Rb5 2.896925 1_555
O36 Rb2 3.048856 1_555
O37 Rb4 2.896925 1_555
O37 Rb3 3.048856 1_565
O38 Rb4 2.924888 1_554
O38 Rb0 3.218503 1_554
O39 Rb5 2.924888 1_555
O39 Rb1 3.218503 1_555
O40 Rb6 2.924888 1_556
O40 Rb2 3.218503 1_556
O41 Rb7 2.924888 1_555
O41 Rb3 3.218503 1_555
O46 Rb12 2.889289 1_455
O46 Rb8 3.091223 1_454
O46 Rb1 3.294979 1_555
O47 Rb13 2.889289 1_455
O47 Rb9 3.091223 1_455
O47 Rb0 3.294979 1_555
O48 Rb14 2.889289 1_655
O48 Rb10 3.091223 1_656
O48 Rb3 3.294979 1_555
O49 Rb15 2.889289 1_655
O49 Rb11 3.091223 1_655
O49 Rb2 3.294979 1_555
O50 Rb8 3.023379 1_555
O50 Rb12 3.040257 1_556
O51 Rb9 3.023379 1_555
O51 Rb13 3.040257 1_555
O52 Rb10 3.023379 1_555
O52 Rb14 3.040257 1_554
O53 Rb11 3.023379 1_555
O53 Rb15 3.040257 1_555
O54 Rb4 2.909513 1_555
O54 Rb8 3.022110 1_555
O54 Rb0 3.275175 1_555
O55 Rb5 2.909513 1_555
O55 Rb9 3.022110 1_555
O55 Rb1 3.275175 1_555
O56 Rb6 2.909513 1_555
O56 Rb10 3.022110 1_555
O56 Rb2 3.275175 1_555
O57 Rb7 2.909513 1_555
O57 Rb11 3.022110 1_555
O57 Rb3 3.275175 1_555
O58 Rb4 2.970377 1_555
O59 Rb5 2.970377 1_555
O60 Rb6 2.970377 1_555
O61 Rb7 2.970377 1_555
O62 Rb3 3.084546 1_565
O63 Rb2 3.084546 1_555
O64 Rb1 3.084546 1_545
O65 Rb0 3.084546 1_555
