# generated using pymatgen
data_SrCa7Mn6Cr2O22
_symmetry_space_group_name_H-M   'P 1'
_cell_length_a   10.87265301
_cell_length_b   15.58566916
_cell_length_c   10.87577520
_cell_angle_alpha   89.96592564
_cell_angle_beta   90.47921966
_cell_angle_gamma   90.41379847
_symmetry_Int_Tables_number   1
_chemical_formula_structural   SrCa7Mn6Cr2O22
_chemical_formula_sum   'Sr4 Ca28 Mn24 Cr8 O88'
_cell_volume   1842.86967830
_cell_formula_units_Z   4
loop_
 _symmetry_equiv_pos_site_id
 _symmetry_equiv_pos_as_xyz
  1  'x, y, z'
loop_
 _atom_site_type_symbol
 _atom_site_label
 _atom_site_symmetry_multiplicity
 _atom_site_fract_x
 _atom_site_fract_y
 _atom_site_fract_z
 _atom_site_occupancy
  Sr  Sr0  1  0.99751062  0.11498114  0.50312465  1
  Sr  Sr1  1  0.50010155  0.38701988  0.99876790  1
  Sr  Sr2  1  0.24246083  0.39215497  0.25305179  1
  Sr  Sr3  1  0.22790717  0.11475467  0.23471974  1
  Ca  Ca0  1  0.99402556  0.10856480  0.00608035  1
  Ca  Ca1  1  0.01587584  0.62924485  0.49506931  1
  Ca  Ca2  1  0.01559093  0.62967558  0.99720517  1
  Ca  Ca3  1  0.54163643  0.12775015  0.48399665  1
  Ca  Ca4  1  0.54657402  0.12635919  0.98024860  1
  Ca  Ca5  1  0.52241580  0.62452723  0.49791157  1
  Ca  Ca6  1  0.52215437  0.62369825  0.99861907  1
  Ca  Ca7  1  0.49806297  0.39120931  0.50265094  1
  Ca  Ca8  1  0.49525297  0.85718422  0.00134161  1
  Ca  Ca9  1  0.49630490  0.85721867  0.50151865  1
  Ca  Ca10  1  0.96496973  0.38821532  0.00295742  1
  Ca  Ca11  1  0.96161573  0.38790362  0.50116833  1
  Ca  Ca12  1  0.96980073  0.87150219  0.00921568  1
  Ca  Ca13  1  0.96896287  0.87190733  0.50494272  1
  Ca  Ca14  1  0.23534178  0.39797167  0.74392273  1
  Ca  Ca15  1  0.22443522  0.87139851  0.25450163  1
  Ca  Ca16  1  0.22745850  0.86966025  0.75304784  1
  Ca  Ca17  1  0.73640550  0.38988083  0.25216286  1
  Ca  Ca18  1  0.73205176  0.38567498  0.74763433  1
  Ca  Ca19  1  0.74251944  0.86212929  0.25214939  1
  Ca  Ca20  1  0.73926064  0.86260234  0.74898175  1
  Ca  Ca21  1  0.22499808  0.11007385  0.74096078  1
  Ca  Ca22  1  0.26900759  0.63191141  0.25657397  1
  Ca  Ca23  1  0.27024591  0.63120241  0.75785439  1
  Ca  Ca24  1  0.77550600  0.11706979  0.24803472  1
  Ca  Ca25  1  0.78017808  0.11902514  0.75239400  1
  Ca  Ca26  1  0.77009612  0.62553052  0.25316586  1
  Ca  Ca27  1  0.76986523  0.62436359  0.75628529  1
  Mn  Mn0  1  0.00123142  0.50400337  0.25033019  1
  Mn  Mn1  1  0.00086298  0.50292107  0.75084867  1
  Mn  Mn2  1  0.50842912  0.98370194  0.23377817  1
  Mn  Mn3  1  0.50739460  0.98454525  0.73626430  1
  Mn  Mn4  1  0.49970430  0.50630442  0.25188014  1
  Mn  Mn5  1  0.49664403  0.50553199  0.74992292  1
  Mn  Mn6  1  0.24819930  0.51348001  0.00285689  1
  Mn  Mn7  1  0.24736994  0.51403800  0.50433883  1
  Mn  Mn8  1  0.74473036  0.99569278  0.99467246  1
  Mn  Mn9  1  0.74188023  0.99760570  0.49640253  1
  Mn  Mn10  1  0.75081813  0.50434699  0.00145401  1
  Mn  Mn11  1  0.74881659  0.50492296  0.50310367  1
  Mn  Mn12  1  0.25116254  0.75382500  0.00472089  1
  Mn  Mn13  1  0.25150183  0.75414617  0.50502194  1
  Mn  Mn14  1  0.75568040  0.24997716  0.00190545  1
  Mn  Mn15  1  0.74925993  0.25122152  0.50298221  1
  Mn  Mn16  1  0.75057021  0.74722346  0.00073185  1
  Mn  Mn17  1  0.75048298  0.74693250  0.50169257  1
  Mn  Mn18  1  0.00187034  0.74985642  0.25123609  1
  Mn  Mn19  1  0.00156531  0.74897101  0.74991574  1
  Mn  Mn20  1  0.51953306  0.25592787  0.25295738  1
  Mn  Mn21  1  0.51451188  0.25425671  0.74848787  1
  Mn  Mn22  1  0.50035588  0.74702931  0.25341834  1
  Mn  Mn23  1  0.50066089  0.74636291  0.75384207  1
  Cr  Cr0  1  0.99214433  0.99348516  0.25373390  1
  Cr  Cr1  1  0.99425133  0.99120560  0.75639346  1
  Cr  Cr2  1  0.23727792  0.99132439  0.00769757  1
  Cr  Cr3  1  0.23776135  0.99273395  0.51488807  1
  Cr  Cr4  1  0.26279231  0.23442335  0.93905682  1
  Cr  Cr5  1  0.26748816  0.23394494  0.45733409  1
  Cr  Cr6  1  0.97991188  0.25620298  0.26485576  1
  Cr  Cr7  1  0.98755901  0.25614862  0.76678385  1
  O  O0  1  0.10882985  0.77858441  0.10658244  1
  O  O1  1  0.10847397  0.77945805  0.60630931  1
  O  O2  1  0.58843326  0.24961421  0.08961510  1
  O  O3  1  0.58494998  0.25793694  0.58474757  1
  O  O4  1  0.61175773  0.76595292  0.11332265  1
  O  O5  1  0.61148422  0.76528377  0.61345809  1
  O  O6  1  0.39393657  0.19654809  0.35641810  1
  O  O7  1  0.39486004  0.18770259  0.85259602  1
  O  O8  1  0.39745091  0.72888164  0.39998589  1
  O  O9  1  0.39781078  0.72820082  0.89997795  1
  O  O10  1  0.90743485  0.24466633  0.41991172  1
  O  O11  1  0.92348149  0.23972216  0.92659334  1
  O  O12  1  0.89321451  0.73008728  0.39271753  1
  O  O13  1  0.89429586  0.73070708  0.89227700  1
  O  O14  1  0.15516891  0.24642060  0.33641820  1
  O  O15  1  0.17099717  0.25049331  0.80168815  1
  O  O16  1  0.14845191  0.73582995  0.35520186  1
  O  O17  1  0.14800714  0.73575138  0.85430406  1
  O  O18  1  0.66074940  0.22258967  0.35383126  1
  O  O19  1  0.66221741  0.22641563  0.85155705  1
  O  O20  1  0.64400280  0.72611995  0.35908547  1
  O  O21  1  0.64378451  0.72550630  0.85872376  1
  O  O22  1  0.35814646  0.77546035  0.14878568  1
  O  O23  1  0.35889379  0.77442741  0.64879973  1
  O  O24  1  0.84850362  0.27973209  0.15252297  1
  O  O25  1  0.85571530  0.27679968  0.65242052  1
  O  O26  1  0.86067730  0.76890108  0.14151164  1
  O  O27  1  0.86129151  0.77007122  0.64136673  1
  O  O28  1  0.36183600  0.49177793  0.13618690  1
  O  O29  1  0.35577834  0.49141256  0.63982763  1
  O  O30  1  0.35271108  0.99434981  0.15729510  1
  O  O31  1  0.34757436  0.99440421  0.66988801  1
  O  O32  1  0.85993992  0.48318434  0.14386116  1
  O  O33  1  0.85761479  0.48144885  0.64560934  1
  O  O34  1  0.84314367  0.97612825  0.14171812  1
  O  O35  1  0.84623268  0.97948215  0.64770077  1
  O  O36  1  0.14131527  0.01010931  0.36626714  1
  O  O37  1  0.14125717  0.00825262  0.85911615  1
  O  O38  1  0.14611262  0.52357893  0.35622012  1
  O  O39  1  0.14814573  0.52089024  0.85312658  1
  O  O40  1  0.62598409  0.02958393  0.34451521  1
  O  O41  1  0.63267709  0.02752355  0.84308342  1
  O  O42  1  0.64135552  0.52243776  0.36057227  1
  O  O43  1  0.63981379  0.51815396  0.85897917  1
  O  O44  1  0.39025598  0.51346409  0.39517553  1
  O  O45  1  0.38932895  0.51790168  0.89197948  1
  O  O46  1  0.87805002  0.01386213  0.39021910  1
  O  O47  1  0.88798401  0.01272820  0.89005375  1
  O  O48  1  0.89410811  0.51936239  0.39513026  1
  O  O49  1  0.89599429  0.52042628  0.89437129  1
  O  O50  1  0.10815761  0.47964738  0.10408770  1
  O  O51  1  0.10761931  0.47648969  0.60416665  1
  O  O52  1  0.09760299  0.98236894  0.10743738  1
  O  O53  1  0.09683321  0.97906070  0.61506141  1
  O  O54  1  0.61545946  0.48898536  0.11666804  1
  O  O55  1  0.60911671  0.48669240  0.61217044  1
  O  O56  1  0.58995777  0.99195782  0.07873866  1
  O  O57  1  0.58479959  0.99251504  0.57981535  1
  O  O58  1  0.01203828  0.38128176  0.28759975  1
  O  O59  1  0.01670847  0.38063836  0.79099238  1
  O  O60  1  0.00312835  0.87044315  0.29284846  1
  O  O61  1  0.00405443  0.87267298  0.79374359  1
  O  O62  1  0.49600364  0.37883652  0.27739997  1
  O  O63  1  0.48703859  0.37810180  0.76848026  1
  O  O64  1  0.51671618  0.87023378  0.29167130  1
  O  O65  1  0.51645322  0.86951722  0.79151455  1
  O  O66  1  0.48675562  0.62850746  0.21336617  1
  O  O67  1  0.48806685  0.62773135  0.71183025  1
  O  O68  1  0.99239683  0.13006904  0.22082650  1
  O  O69  1  0.99911635  0.12648381  0.73009944  1
  O  O70  1  0.99309536  0.62691894  0.21151364  1
  O  O71  1  0.99280986  0.62671952  0.70994622  1
  O  O72  1  0.21898842  0.13531930  0.01538054  1
  O  O73  1  0.24182251  0.13141254  0.53569257  1
  O  O74  1  0.23369609  0.63617110  0.04237999  1
  O  O75  1  0.23360003  0.63624032  0.54340073  1
  O  O76  1  0.75740920  0.12259373  0.03254378  1
  O  O77  1  0.74961277  0.12582651  0.54029303  1
  O  O78  1  0.74594774  0.62588766  0.03674653  1
  O  O79  1  0.74551238  0.62516469  0.54072482  1
  O  O80  1  0.29144820  0.33146446  0.53132173  1
  O  O81  1  0.27769174  0.32921883  0.02211491  1
  O  O82  1  0.28249186  0.88177220  0.46503924  1
  O  O83  1  0.28202998  0.88012155  0.96159199  1
  O  O84  1  0.74326394  0.37786657  0.46767170  1
  O  O85  1  0.74835048  0.37640493  0.96465685  1
  O  O86  1  0.74582989  0.87265035  0.46683417  1
  O  O87  1  0.74758596  0.87274075  0.96198663  1
loop_
_geom_bond_atom_site_label_1
_geom_bond_atom_site_label_2
_geom_bond_distance
_geom_bond_site_symmetry_2
Ca0 O47 2.259589 1_554
Ca0 O11 2.350261 1_554
Ca0 O68 2.359885 1_555
Ca0 O72 2.479501 1_655
Ca0 O52 2.522007 1_645
Ca0 O76 2.601873 1_555
Ca0 O37 2.764692 1_654
Ca0 O69 3.015238 1_554
Ca0 O34 3.019241 1_545
Ca1 O12 2.343361 1_455
Ca1 O71 2.352731 1_455
Ca1 O48 2.410925 1_455
Ca1 O75 2.422300 1_555
Ca1 O38 2.658965 1_555
Ca1 O16 2.674025 1_555
Ca1 O1 2.811997 1_555
Ca1 O51 2.842909 1_555
Ca2 O70 2.345938 1_456
Ca2 O13 2.350255 1_455
Ca2 O49 2.405598 1_455
Ca2 O74 2.419130 1_556
Ca2 O17 2.687278 1_555
Ca2 O39 2.735586 1_555
Ca2 O0 2.788943 1_556
Ca2 O50 2.800530 1_556
Ca3 O77 2.338127 1_555
Ca3 O3 2.349400 1_555
Ca3 O40 2.351466 1_555
Ca3 O6 2.374796 1_555
Ca3 O57 2.398382 1_545
Ca3 O18 2.422127 1_555
Ca4 O2 2.300703 1_556
Ca4 O41 2.349815 1_555
Ca4 O7 2.354862 1_555
Ca4 O76 2.358353 1_556
Ca4 O56 2.400196 1_546
Ca4 O19 2.443412 1_555
Ca5 O67 2.360013 1_555
Ca5 O8 2.373029 1_555
Ca5 O79 2.466061 1_555
Ca5 O44 2.499810 1_555
Ca5 O42 2.549501 1_555
Ca5 O20 2.556300 1_555
Ca5 O55 2.655986 1_555
Ca5 O5 2.698506 1_555
Ca6 O66 2.371532 1_556
Ca6 O9 2.374220 1_555
Ca6 O78 2.464883 1_556
Ca6 O45 2.467689 1_555
Ca6 O21 2.565534 1_555
Ca6 O43 2.591289 1_555
Ca6 O54 2.662995 1_556
Ca6 O4 2.715289 1_556
Ca7 O55 2.245755 1_555
Ca7 O80 2.447855 1_555
Ca7 O3 2.452791 1_555
Ca7 O62 2.457374 1_555
Ca7 O44 2.525378 1_555
Ca7 O29 2.671013 1_555
Ca7 O84 2.705645 1_555
Ca7 O63 2.901603 1_555
Ca7 O42 2.998105 1_555
Ca8 O4 2.260034 1_555
Ca8 O65 2.303342 1_554
Ca8 O83 2.384162 1_554
Ca8 O56 2.477384 1_555
Ca8 O9 2.516220 1_554
Ca8 O22 2.534985 1_555
Ca8 O87 2.789058 1_554
Ca9 O5 2.258727 1_555
Ca9 O64 2.303551 1_555
Ca9 O82 2.388596 1_555
Ca9 O57 2.461009 1_555
Ca9 O8 2.515385 1_555
Ca9 O23 2.544131 1_555
Ca9 O86 2.751016 1_555
Ca10 O50 2.367557 1_655
Ca10 O59 2.380694 1_654
Ca10 O85 2.394139 1_554
Ca10 O32 2.428923 1_555
Ca10 O49 2.491536 1_554
Ca10 O11 2.496090 1_554
Ca10 O24 2.666172 1_555
Ca11 O51 2.370970 1_655
Ca11 O58 2.393461 1_655
Ca11 O84 2.402832 1_555
Ca11 O33 2.434809 1_555
Ca11 O48 2.464010 1_555
Ca11 O10 2.467078 1_555
Ca11 O25 2.651372 1_555
Ca12 O0 2.346613 1_655
Ca12 O61 2.375949 1_654
Ca12 O52 2.449574 1_655
Ca12 O26 2.456309 1_555
Ca12 O87 2.466066 1_554
Ca12 O34 2.588547 1_555
Ca12 O13 2.658303 1_554
Ca12 O47 2.705797 1_564
Ca13 O60 2.339625 1_655
Ca13 O1 2.365181 1_655
Ca13 O86 2.457885 1_555
Ca13 O27 2.467886 1_555
Ca13 O53 2.469270 1_655
Ca13 O12 2.648357 1_555
Ca13 O35 2.659390 1_555
Ca13 O46 2.726993 1_565
Ca14 O29 2.261105 1_555
Ca14 O51 2.392344 1_555
Ca14 O59 2.448811 1_555
Ca14 O39 2.455061 1_555
Ca14 O15 2.479891 1_555
Ca14 O80 2.613128 1_555
Ca14 O63 2.766984 1_555
Ca14 O45 2.967003 1_555
Ca15 O82 2.375369 1_555
Ca15 O22 2.394293 1_555
Ca15 O60 2.445440 1_555
Ca15 O0 2.490616 1_555
Ca15 O16 2.516661 1_555
Ca15 O30 2.592031 1_555
Ca15 O36 2.649113 1_565
Ca15 O52 2.728636 1_555
Ca16 O83 2.345069 1_555
Ca16 O23 2.364409 1_555
Ca16 O61 2.473413 1_555
Ca16 O1 2.477659 1_555
Ca16 O31 2.506899 1_555
Ca16 O17 2.510362 1_555
Ca16 O37 2.631592 1_565
Ca16 O53 2.678208 1_555
Ca17 O32 2.302676 1_555
Ca17 O84 2.351786 1_555
Ca17 O24 2.379398 1_555
Ca17 O54 2.506153 1_555
Ca17 O42 2.603952 1_555
Ca17 O62 2.634842 1_555
Ca18 O33 2.305880 1_555
Ca18 O85 2.369853 1_555
Ca18 O25 2.412035 1_555
Ca18 O55 2.535868 1_555
Ca18 O43 2.605507 1_555
Ca18 O63 2.677210 1_555
Ca18 O19 2.828231 1_555
Ca19 O26 2.294443 1_555
Ca19 O86 2.340670 1_555
Ca19 O34 2.405747 1_555
Ca19 O64 2.500065 1_555
Ca19 O4 2.546345 1_555
Ca19 O20 2.641700 1_555
Ca19 O60 2.866231 1_655
Ca20 O27 2.294705 1_555
Ca20 O87 2.323034 1_555
Ca20 O35 2.423407 1_555
Ca20 O65 2.473199 1_555
Ca20 O5 2.518154 1_555
Ca20 O21 2.655824 1_555
Ca21 O37 2.234946 1_555
Ca21 O73 2.265607 1_555
Ca21 O15 2.365875 1_555
Ca21 O31 2.382707 1_545
Ca21 O69 2.472885 1_455
Ca21 O7 2.506143 1_555
Ca21 O53 2.813619 1_545
Ca22 O16 2.355454 1_555
Ca22 O74 2.358754 1_555
Ca22 O38 2.408351 1_555
Ca22 O66 2.418500 1_555
Ca22 O8 2.569636 1_555
Ca22 O22 2.702527 1_555
Ca22 O44 2.723373 1_555
Ca22 O28 2.749631 1_555
Ca23 O17 2.361889 1_555
Ca23 O75 2.364204 1_555
Ca23 O39 2.404142 1_555
Ca23 O67 2.425694 1_555
Ca23 O9 2.556366 1_555
Ca23 O45 2.630756 1_555
Ca23 O23 2.702513 1_555
Ca23 O29 2.704056 1_555
Ca24 O76 2.351813 1_555
Ca24 O40 2.365998 1_555
Ca24 O18 2.375144 1_555
Ca24 O68 2.386277 1_555
Ca24 O46 2.493166 1_555
Ca24 O34 2.596867 1_545
Ca24 O24 2.849174 1_555
Ca25 O77 2.330284 1_555
Ca25 O41 2.360151 1_555
Ca25 O19 2.380288 1_555
Ca25 O69 2.396753 1_555
Ca25 O47 2.521073 1_555
Ca25 O35 2.565443 1_545
Ca25 O25 2.808218 1_555
Ca26 O78 2.366151 1_555
Ca26 O20 2.392494 1_555
Ca26 O42 2.428615 1_555
Ca26 O70 2.470209 1_555
Ca26 O12 2.586199 1_555
Ca26 O48 2.633301 1_555
Ca26 O32 2.709848 1_555
Ca26 O26 2.724451 1_555
Ca27 O79 2.357126 1_555
Ca27 O21 2.379959 1_555
Ca27 O43 2.444873 1_555
Ca27 O71 2.479968 1_555
Ca27 O13 2.588812 1_555
Ca27 O49 2.599024 1_555
Ca27 O33 2.715440 1_555
Ca27 O27 2.773485 1_555
Mn0 O32 1.941530 1_455
Mn0 O58 1.959093 1_555
Mn0 O70 1.963898 1_455
Mn0 O38 1.965673 1_555
Mn0 O48 1.982185 1_455
Mn0 O50 2.015784 1_555
Mn1 O33 1.952150 1_455
Mn1 O39 1.960661 1_555
Mn1 O49 1.961055 1_455
Mn1 O59 1.963437 1_555
Mn1 O71 1.982226 1_455
Mn1 O51 2.024986 1_555
Mn2 O64 1.879387 1_555
Mn2 O40 1.886142 1_565
Mn2 O30 1.888457 1_555
Mn2 O56 1.915360 1_555
Mn3 O31 1.883343 1_555
Mn3 O65 1.893446 1_555
Mn3 O41 1.901334 1_565
Mn3 O57 1.908146 1_555
Mn4 O42 1.948564 1_555
Mn4 O66 1.955703 1_555
Mn4 O28 1.960952 1_555
Mn4 O54 1.963585 1_555
Mn4 O44 1.972421 1_555
Mn4 O62 2.005965 1_555
Mn5 O29 1.947471 1_555
Mn5 O67 1.951578 1_555
Mn5 O45 1.954302 1_555
Mn5 O43 1.957945 1_555
Mn5 O55 1.965324 1_555
Mn5 O63 1.998263 1_555
Mn6 O28 1.928504 1_555
Mn6 O39 1.954611 1_554
Mn6 O50 1.955584 1_555
Mn6 O45 1.960297 1_554
Mn6 O74 1.967916 1_555
Mn7 O29 1.913458 1_555
Mn7 O38 1.949770 1_555
Mn7 O75 1.958714 1_555
Mn7 O51 1.960609 1_555
Mn7 O44 1.963210 1_555
Mn8 O56 1.922327 1_556
Mn8 O34 1.941899 1_556
Mn8 O87 1.949706 1_555
Mn8 O47 1.953041 1_565
Mn8 O76 2.023997 1_566
Mn8 O41 2.103001 1_565
Mn9 O46 1.900688 1_565
Mn9 O57 1.941651 1_555
Mn9 O86 1.974904 1_555
Mn9 O35 2.011852 1_555
Mn9 O77 2.055868 1_565
Mn9 O40 2.130322 1_565
Mn10 O78 1.934200 1_555
Mn10 O54 1.954165 1_555
Mn10 O43 1.968766 1_554
Mn10 O32 1.972179 1_555
Mn10 O49 1.983761 1_554
Mn10 O85 2.034001 1_554
Mn11 O79 1.919085 1_555
Mn11 O42 1.953557 1_555
Mn11 O55 1.954061 1_555
Mn11 O33 1.977407 1_555
Mn11 O48 1.987627 1_555
Mn11 O84 2.018008 1_555
Mn12 O74 1.887247 1_555
Mn12 O0 1.951630 1_555
Mn12 O22 1.971326 1_555
Mn12 O17 1.994677 1_554
Mn12 O9 2.009874 1_554
Mn12 O83 2.049221 1_554
Mn13 O75 1.893228 1_555
Mn13 O1 1.955877 1_555
Mn13 O23 1.968031 1_555
Mn13 O16 1.989276 1_555
Mn13 O8 2.004495 1_555
Mn13 O82 2.061802 1_555
Mn14 O19 1.951604 1_554
Mn14 O24 1.970640 1_555
Mn14 O76 2.013125 1_555
Mn14 O85 2.013445 1_554
Mn14 O11 2.013552 1_554
Mn14 O2 2.060459 1_555
Mn15 O18 1.930052 1_555
Mn15 O10 1.952679 1_555
Mn15 O77 1.995835 1_555
Mn15 O3 2.005656 1_555
Mn15 O84 2.012049 1_555
Mn15 O25 2.025517 1_555
Mn16 O78 1.931393 1_555
Mn16 O21 1.952654 1_554
Mn16 O26 1.963588 1_555
Mn16 O4 1.974895 1_555
Mn16 O13 1.984068 1_554
Mn16 O87 2.001330 1_554
Mn17 O79 1.944952 1_555
Mn17 O20 1.953501 1_555
Mn17 O27 1.962875 1_555
Mn17 O5 1.969950 1_555
Mn17 O12 1.979627 1_555
Mn17 O86 1.996434 1_555
Mn18 O60 1.933334 1_555
Mn18 O16 1.959812 1_555
Mn18 O26 1.960699 1_455
Mn18 O70 1.965881 1_455
Mn18 O12 1.970491 1_455
Mn18 O0 2.012501 1_555
Mn19 O27 1.950539 1_455
Mn19 O71 1.956052 1_455
Mn19 O17 1.959777 1_555
Mn19 O13 1.965548 1_455
Mn19 O61 1.986243 1_555
Mn19 O1 2.009411 1_555
Mn20 O2 1.936561 1_555
Mn20 O18 1.952865 1_555
Mn20 O62 1.953077 1_555
Mn20 O6 1.998398 1_555
Mn21 O3 1.945027 1_555
Mn21 O63 1.967771 1_555
Mn21 O19 2.000821 1_555
Mn21 O7 2.013493 1_555
Mn22 O66 1.902590 1_555
Mn22 O20 1.960373 1_555
Mn22 O22 1.965169 1_555
Mn22 O64 1.971487 1_555
Mn22 O8 1.974209 1_555
Mn22 O4 1.975034 1_555
Mn23 O67 1.908519 1_555
Mn23 O21 1.950774 1_555
Mn23 O23 1.962649 1_555
Mn23 O65 1.968910 1_555
Mn23 O9 1.970088 1_555
Mn23 O5 1.973583 1_555
Cr0 O60 1.968314 1_655
Cr0 O46 1.969814 1_565
Cr0 O52 1.977377 1_655
Cr0 O34 2.035408 1_555
Cr0 O36 2.038784 1_665
Cr0 O68 2.158403 1_565
Cr1 O61 1.894867 1_655
Cr1 O47 1.896019 1_565
Cr1 O53 1.916910 1_655
Cr1 O37 1.959018 1_665
Cr1 O35 1.996246 1_555
Cr1 O69 2.127876 1_565
Cr2 O83 1.873330 1_554
Cr2 O52 1.877960 1_555
Cr2 O37 1.935473 1_564
Cr2 O30 2.046847 1_555
Cr2 O72 2.256139 1_565
Cr3 O82 1.881221 1_555
Cr3 O53 1.898184 1_555
Cr3 O36 1.939284 1_565
Cr3 O31 2.057641 1_555
Cr3 O73 2.173436 1_565
Cr4 O81 1.738038 1_556
Cr4 O15 1.808060 1_555
Cr4 O72 1.815522 1_556
Cr4 O7 1.874792 1_555
Cr5 O80 1.737156 1_555
Cr5 O14 1.798551 1_555
Cr5 O73 1.831330 1_555
Cr5 O6 1.863343 1_555
Cr6 O10 1.875343 1_555
Cr6 O24 1.909510 1_555
Cr6 O58 1.993186 1_655
Cr6 O68 2.029404 1_555
Cr6 O14 2.058932 1_655
Cr7 O11 1.894439 1_555
Cr7 O25 1.918819 1_555
Cr7 O59 1.981083 1_655
Cr7 O15 2.029674 1_655
Cr7 O69 2.065072 1_555
O2 Sr1 2.548759 1_554
O6 Sr3 2.562113 1_555
O10 Sr0 2.423871 1_555
O14 Sr3 2.469959 1_555
O14 Sr2 2.619687 1_555
O28 Sr2 2.388938 1_555
O28 Sr1 2.689856 1_554
O30 Sr3 2.475829 1_565
O36 Sr3 2.364502 1_555
O36 Sr0 2.722205 1_455
O38 Sr2 2.570096 1_555
O43 Sr1 2.964135 1_555
O44 Sr2 2.909320 1_555
O45 Sr1 2.640039 1_555
O46 Sr0 2.371645 1_555
O50 Sr2 2.569639 1_555
O52 Sr3 2.847651 1_565
O53 Sr0 2.672806 1_465
O54 Sr1 2.385288 1_554
O58 Sr2 2.540863 1_555
O62 Sr2 2.776419 1_555
O62 Sr1 3.033633 1_554
O63 Sr1 2.511269 1_555
O68 Sr3 2.576606 1_655
O69 Sr0 2.475041 1_555
O72 Sr3 2.407973 1_555
O73 Sr0 2.687306 1_455
O77 Sr0 2.735242 1_555
O80 Sr2 3.211609 1_555
O81 Sr1 2.588858 1_554
O81 Sr2 2.727925 1_555
O85 Sr1 2.733779 1_555
