# generated using pymatgen
data_Li4Mn3O7
_symmetry_space_group_name_H-M   'P 1'
_cell_length_a   3.00033200
_cell_length_b   5.10303999
_cell_length_c   17.50808836
_cell_angle_alpha   85.21298656
_cell_angle_beta   87.37511993
_cell_angle_gamma   76.91420970
_symmetry_Int_Tables_number   1
_chemical_formula_structural   Li4Mn3O7
_chemical_formula_sum   'Li8 Mn6 O14'
_cell_volume   260.09133049
_cell_formula_units_Z   2
loop_
 _symmetry_equiv_pos_site_id
 _symmetry_equiv_pos_as_xyz
  1  'x, y, z'
loop_
 _atom_site_type_symbol
 _atom_site_label
 _atom_site_symmetry_multiplicity
 _atom_site_fract_x
 _atom_site_fract_y
 _atom_site_fract_z
 _atom_site_occupancy
  Li  Li0  1  0.62807900  0.22701700  0.78561200  1
  Li  Li1  1  0.07251200  0.35600500  0.64319400  1
  Li  Li2  1  0.50000000  0.50000000  0.50000000  1
  Li  Li3  1  0.92748800  0.64399500  0.35680600  1
  Li  Li4  1  0.37192100  0.77298300  0.21438800  1
  Li  Li5  1  0.75704600  0.94036900  0.06214800  1
  Li  Li6  1  0.24295400  0.05963100  0.93785200  1
  Li  Li7  1  0.50000000  0.50000000  0.00000000  1
  Mn  Mn0  1  0.93251700  0.64243600  0.86266700  1
  Mn  Mn1  1  0.06748300  0.35756400  0.13733300  1
  Mn  Mn2  1  0.37061700  0.77787300  0.71579200  1
  Mn  Mn3  1  0.78681300  0.92782400  0.57206800  1
  Mn  Mn4  1  0.21318700  0.07217600  0.42793200  1
  Mn  Mn5  1  0.62938300  0.22212700  0.28420800  1
  O  O0  1  0.33610600  0.88983000  0.82177000  1
  O  O1  1  0.69206000  0.05622100  0.67640100  1
  O  O2  1  0.11441900  0.20175700  0.53190600  1
  O  O3  1  0.54282900  0.34610400  0.38868800  1
  O  O4  1  0.96977200  0.48788500  0.24542600  1
  O  O5  1  0.47908100  0.59801000  0.11213300  1
  O  O6  1  0.85053200  0.78819900  0.95502900  1
  O  O7  1  0.03022800  0.51211500  0.75457400  1
  O  O8  1  0.45717100  0.65389600  0.61131200  1
  O  O9  1  0.88558100  0.79824300  0.46809400  1
  O  O10  1  0.30794000  0.94377900  0.32359900  1
  O  O11  1  0.66389400  0.11017000  0.17823000  1
  O  O12  1  0.14946800  0.21180100  0.04497100  1
  O  O13  1  0.52091900  0.40199000  0.88786700  1
loop_
_geom_bond_atom_site_label_1
_geom_bond_atom_site_label_2
_geom_bond_distance
_geom_bond_site_symmetry_2
Li0 O13 2.046913 1_555
Li0 O7 2.098833 1_555
Li0 O7 2.114391 1_655
Li0 O0 2.139826 1_545
Li0 O1 2.149721 1_555
Li0 O0 2.482017 1_645
Li1 O8 2.132650 1_555
Li1 O1 2.136075 1_455
Li1 O2 2.149542 1_555
Li1 O7 2.155059 1_555
Li1 O8 2.170922 1_455
Li1 O1 2.190096 1_555
Li2 O9 2.136096 1_555
Li2 O2 2.136096 1_555
Li2 O8 2.148985 1_555
Li2 O3 2.148985 1_555
Li2 O2 2.169951 1_655
Li2 O9 2.169951 1_455
Li3 O3 2.132650 1_555
Li3 O10 2.136075 1_655
Li3 O9 2.149542 1_555
Li3 O4 2.155059 1_555
Li3 O3 2.170922 1_655
Li3 O10 2.190096 1_555
Li4 O5 2.046913 1_555
Li4 O4 2.098833 1_555
Li4 O4 2.114391 1_455
Li4 O11 2.139826 1_565
Li4 O10 2.149721 1_555
Li4 O11 2.482017 1_465
Li5 O12 2.007936 1_665
Li5 O12 2.041920 1_565
Li5 O6 2.072496 1_554
Li5 O5 2.202591 1_555
Li5 O11 2.256484 1_565
Li5 O5 2.591492 1_655
Li6 O6 2.007936 1_445
Li6 O6 2.041920 1_545
Li6 O12 2.072496 1_556
Li6 O13 2.202591 1_555
Li6 O0 2.256484 1_545
Li6 O13 2.591492 1_455
Li7 O5 2.060767 1_555
Li7 O13 2.060767 1_554
Li7 O12 2.078519 1_555
Li7 O6 2.078519 1_554
Li7 O12 2.286819 1_655
Li7 O6 2.286819 1_454
Mn0 O6 1.819402 1_555
Mn0 O13 1.941942 1_555
Mn0 O13 1.953703 1_655
Mn0 O0 2.008664 1_655
Mn0 O7 2.044685 1_655
Mn0 O0 2.062060 1_555
Mn1 O12 1.819402 1_555
Mn1 O5 1.941942 1_555
Mn1 O5 1.953703 1_455
Mn1 O11 2.008664 1_455
Mn1 O4 2.044685 1_455
Mn1 O11 2.062060 1_555
Mn2 O7 1.937323 1_555
Mn2 O1 1.954293 1_565
Mn2 O8 1.972076 1_555
Mn2 O0 1.977992 1_555
Mn2 O7 2.229561 1_655
Mn2 O1 2.300810 1_465
Mn3 O8 1.951359 1_555
Mn3 O2 1.951794 1_665
Mn3 O9 1.975259 1_555
Mn3 O1 1.978561 1_565
Mn3 O8 2.272574 1_655
Mn3 O2 2.281957 1_565
Mn4 O3 1.951359 1_555
Mn4 O9 1.951794 1_445
Mn4 O2 1.975259 1_555
Mn4 O10 1.978561 1_545
Mn4 O3 2.272574 1_455
Mn4 O9 2.281957 1_545
Mn5 O4 1.937323 1_555
Mn5 O10 1.954293 1_545
Mn5 O3 1.972076 1_555
Mn5 O11 1.977992 1_555
Mn5 O4 2.229561 1_455
Mn5 O10 2.300810 1_645
