# generated using pymatgen
data_YGa3Cu
_symmetry_space_group_name_H-M   'P 1'
_cell_length_a   6.05080934
_cell_length_b   6.05080934
_cell_length_c   6.05080934
_cell_angle_alpha   140.89166207
_cell_angle_beta   140.89166207
_cell_angle_gamma   56.50190632
_symmetry_Int_Tables_number   1
_chemical_formula_structural   YGa3Cu
_chemical_formula_sum   'Y1 Ga3 Cu1'
_cell_volume   87.44290060
_cell_formula_units_Z   1
loop_
 _symmetry_equiv_pos_site_id
 _symmetry_equiv_pos_as_xyz
  1  'x, y, z'
loop_
 _atom_site_type_symbol
 _atom_site_label
 _atom_site_symmetry_multiplicity
 _atom_site_fract_x
 _atom_site_fract_y
 _atom_site_fract_z
 _atom_site_occupancy
  Y  Y0  1  -0.00000000  -0.00000000  -0.00000000  1
  Ga  Ga0  1  0.61362981  0.61362981  0.00000000  1
  Ga  Ga1  1  0.38637019  0.38637019  -0.00000000  1
  Ga  Ga2  1  0.75000000  0.25000000  0.50000000  1
  Cu  Cu0  1  0.25000000  0.75000000  0.50000000  1
loop_
_geom_bond_atom_site_label_1
_geom_bond_atom_site_label_2
_geom_bond_distance
_geom_bond_site_symmetry_2
Ga0 Ga1 2.422612 1_555
Ga0 Ga2 2.492932 1_554
Ga0 Ga2 2.492932 1_565
Ga0 Y0 3.109675 1_655
Ga0 Y0 3.109675 1_554
Ga0 Y0 3.109675 1_666
Ga0 Y0 3.109675 1_565
Ga1 Ga2 2.492932 1_555
Ga1 Ga2 2.492932 1_454
Ga1 Y0 3.109675 1_666
Ga1 Y0 3.109675 1_565
Ga1 Y0 3.109675 1_655
Ga1 Y0 3.109675 1_554
Ga2 Y0 3.347204 1_666
Ga2 Y0 3.347204 1_555
Ga2 Y0 3.347204 1_656
Ga2 Y0 3.347204 1_655
Cu0 Ga0 2.492932 1_556
Cu0 Ga0 2.492932 1_455
Cu0 Ga1 2.492932 1_555
Cu0 Ga1 2.492932 1_566
Cu0 Y0 3.347204 1_666
Cu0 Y0 3.347204 1_555
Cu0 Y0 3.347204 1_565
Cu0 Y0 3.347204 1_566
