# generated using pymatgen
data_KBaNaCaTi4Fe8Si8(O19F)2
_symmetry_space_group_name_H-M   'P 1'
_cell_length_a   5.40697631
_cell_length_b   7.10473773
_cell_length_c   20.84814459
_cell_angle_alpha   90.00000000
_cell_angle_beta   94.25512916
_cell_angle_gamma   90.00000000
_symmetry_Int_Tables_number   1
_chemical_formula_structural   KBaNaCaTi4Fe8Si8(O19F)2
_chemical_formula_sum   'K1 Ba1 Na1 Ca1 Ti4 Fe8 Si8 O38 F2'
_cell_volume   798.67697179
_cell_formula_units_Z   1
loop_
 _symmetry_equiv_pos_site_id
 _symmetry_equiv_pos_as_xyz
  1  'x, y, z'
loop_
 _atom_site_type_symbol
 _atom_site_label
 _atom_site_symmetry_multiplicity
 _atom_site_fract_x
 _atom_site_fract_y
 _atom_site_fract_z
 _atom_site_occupancy
  K  K0  1  0.00000000  0.50000000  0.00000000  1
  Ba  Ba0  1  0.50000000  0.00000000  0.50000000  1
  Na  Na0  1  0.00000000  0.50000000  0.50000000  1
  Ca  Ca0  1  0.50000000  0.00000000  0.00000000  1
  Ti  Ti0  1  0.47705789  0.50000000  0.41005462  1
  Ti  Ti1  1  0.52294211  0.50000000  0.58994538  1
  Ti  Ti2  1  0.02165916  0.00000000  0.08896574  1
  Ti  Ti3  1  0.97834084  0.00000000  0.91103426  1
  Fe  Fe0  1  0.72093225  0.00000000  0.24973850  1
  Fe  Fe1  1  0.27906775  0.00000000  0.75026150  1
  Fe  Fe2  1  0.26606063  0.26068314  0.26226913  1
  Fe  Fe3  1  0.73393937  0.73931686  0.73773087  1
  Fe  Fe4  1  0.73393937  0.26068314  0.73773087  1
  Fe  Fe5  1  0.26606063  0.73931686  0.26226913  1
  Fe  Fe6  1  0.24682389  0.50000000  0.74774839  1
  Fe  Fe7  1  0.75317611  0.50000000  0.25225161  1
  Si  Si0  1  0.53901263  0.27472961  0.12471256  1
  Si  Si1  1  0.46098737  0.72527039  0.87528744  1
  Si  Si2  1  0.46098737  0.27472961  0.87528744  1
  Si  Si3  1  0.53901263  0.72527039  0.12471256  1
  Si  Si4  1  0.04267496  0.21832697  0.61916969  1
  Si  Si5  1  0.95732504  0.78167303  0.38083031  1
  Si  Si6  1  0.95732504  0.21832697  0.38083031  1
  Si  Si7  1  0.04267496  0.78167303  0.61916969  1
  O  O0  1  0.58227528  0.24572296  0.20394383  1
  O  O1  1  0.41772472  0.75427704  0.79605617  1
  O  O2  1  0.41772472  0.24572296  0.79605617  1
  O  O3  1  0.58227528  0.75427704  0.20394383  1
  O  O4  1  0.50000000  0.50000000  0.00000000  1
  O  O5  1  0.27462307  0.30265354  0.58515099  1
  O  O6  1  0.72537693  0.69734646  0.41484901  1
  O  O7  1  0.72537693  0.30265354  0.41484901  1
  O  O8  1  0.27462307  0.69734646  0.58515099  1
  O  O9  1  0.00000000  0.00000000  0.00000000  1
  O  O10  1  0.41957527  0.00000000  0.28526870  1
  O  O11  1  0.58042473  0.00000000  0.71473130  1
  O  O12  1  0.53909992  0.50000000  0.11658259  1
  O  O13  1  0.46090008  0.50000000  0.88341741  1
  O  O14  1  0.07816173  0.20794915  0.69849696  1
  O  O15  1  0.92183827  0.79205085  0.30150304  1
  O  O16  1  0.92183827  0.20794915  0.30150304  1
  O  O17  1  0.07816173  0.79205085  0.69849696  1
  O  O18  1  0.49799444  0.50000000  0.30931512  1
  O  O19  1  0.50200556  0.50000000  0.69068488  1
  O  O20  1  0.08313856  0.50000000  0.23067269  1
  O  O21  1  0.91686144  0.50000000  0.76932731  1
  O  O22  1  0.27984635  0.18723161  0.09388404  1
  O  O23  1  0.72015365  0.81276839  0.90611596  1
  O  O24  1  0.72015365  0.18723161  0.90611596  1
  O  O25  1  0.27984635  0.81276839  0.09388404  1
  O  O26  1  0.97811671  0.00000000  0.40950794  1
  O  O27  1  0.02188329  0.00000000  0.59049206  1
  O  O28  1  0.21916991  0.31027896  0.40484822  1
  O  O29  1  0.78083009  0.68972104  0.59515178  1
  O  O30  1  0.78083009  0.31027896  0.59515178  1
  O  O31  1  0.21916991  0.68972104  0.40484822  1
  O  O32  1  0.00000000  0.00000000  0.50000000  1
  O  O33  1  0.76014533  0.18744810  0.08556590  1
  O  O34  1  0.23985467  0.81255190  0.91443410  1
  O  O35  1  0.23985467  0.18744810  0.91443410  1
  O  O36  1  0.76014533  0.81255190  0.08556590  1
  O  O37  1  0.50000000  0.50000000  0.50000000  1
  F  F0  1  0.00331515  0.00000000  0.19020158  1
  F  F1  1  0.99668485  0.00000000  0.80979842  1
loop_
_geom_bond_atom_site_label_1
_geom_bond_atom_site_label_2
_geom_bond_distance
_geom_bond_site_symmetry_2
K0 O4 2.703488 1_555
K0 O4 2.703488 1_455
K0 O36 3.184110 1_455
K0 O33 3.184110 1_455
K0 O34 3.184110 1_554
K0 O35 3.184110 1_554
K0 O24 3.258680 1_454
K0 O23 3.258680 1_454
K0 O22 3.258680 1_555
K0 O25 3.258680 1_555
Ba0 O32 2.703488 1_555
Ba0 O32 2.703488 1_655
Na0 O7 2.632688 1_455
Na0 O6 2.632688 1_455
Na0 O8 2.632688 1_555
Na0 O5 2.632688 1_555
Na0 O37 2.703488 1_455
Na0 O37 2.703488 1_555
Na0 O31 2.739578 1_555
Na0 O28 2.739578 1_555
Na0 O29 2.739578 1_455
Na0 O30 2.739578 1_455
Ca0 O33 2.561648 1_555
Ca0 O36 2.561648 1_545
Ca0 O35 2.561648 1_554
Ca0 O34 2.561648 1_544
Ca0 O9 2.703488 1_655
Ca0 O9 2.703488 1_555
Ca0 O23 2.713538 1_544
Ca0 O24 2.713538 1_554
Ca0 O25 2.713538 1_545
Ca0 O22 2.713538 1_555
Fe0 O10 1.839252 1_555
Fe0 O16 2.086507 1_555
Fe0 O15 2.086507 1_545
Fe0 O3 2.101233 1_545
Fe0 O0 2.101233 1_555
Fe1 O11 1.839252 1_555
Fe1 O14 2.086507 1_555
Fe1 O17 2.086507 1_545
Fe1 O1 2.101233 1_545
Fe1 O2 2.101233 1_555
Fe2 O20 2.050959 1_555
Fe2 O10 2.071246 1_555
Fe2 O16 2.121181 1_455
Fe2 O0 2.172949 1_555
Fe2 O18 2.289785 1_555
Fe3 O21 2.050959 1_555
Fe3 O11 2.071246 1_565
Fe3 O17 2.121181 1_655
Fe3 O1 2.172949 1_555
Fe3 O19 2.289785 1_555
Fe4 O21 2.050959 1_555
Fe4 O11 2.071246 1_555
Fe4 O14 2.121181 1_655
Fe4 O2 2.172949 1_555
Fe4 O19 2.289785 1_555
Fe5 O20 2.050959 1_555
Fe5 O10 2.071246 1_565
Fe5 O15 2.121181 1_455
Fe5 O3 2.172949 1_555
Fe5 O18 2.289785 1_555
Fe6 O21 1.872033 1_455
Fe6 O19 1.887495 1_555
Fe6 O2 2.234678 1_555
Fe6 O1 2.234678 1_555
Fe6 O17 2.460166 1_555
Fe6 O14 2.460166 1_555
Fe7 O20 1.872033 1_655
Fe7 O18 1.887495 1_555
Fe7 O0 2.234678 1_555
Fe7 O3 2.234678 1_555
Fe7 O16 2.460166 1_555
Fe7 O15 2.460166 1_555
O0 Si0 1.663844 1_555
O1 Si1 1.663844 1_555
O2 Si2 1.663844 1_555
O3 Si3 1.663844 1_555
O5 Si4 1.602124 1_555
O5 Ti1 1.938729 1_555
O6 Si5 1.602124 1_555
O6 Ti0 1.938729 1_555
O7 Si6 1.602124 1_555
O7 Ti0 1.938729 1_555
O8 Si7 1.602124 1_555
O8 Ti1 1.938729 1_555
O9 Ti2 1.849772 1_555
O9 Ti3 1.849772 1_454
O12 Si0 1.609441 1_555
O12 Si3 1.609441 1_555
O13 Si2 1.609441 1_555
O13 Si1 1.609441 1_555
O14 Si4 1.652363 1_555
O15 Si5 1.652363 1_555
O16 Si6 1.652363 1_555
O17 Si7 1.652363 1_555
O18 Ti0 2.111651 1_555
O19 Ti1 2.111651 1_555
O22 Si0 1.621586 1_555
O22 Ti2 1.925523 1_555
O23 Si1 1.621586 1_555
O23 Ti3 1.925523 1_565
O24 Si2 1.621586 1_555
O24 Ti3 1.925523 1_555
O25 Si3 1.621586 1_555
O25 Ti2 1.925523 1_565
O26 Si5 1.663191 1_545
O26 Si6 1.663191 1_555
O26 O32 1.881516 1_655
O27 Si4 1.663191 1_555
O27 Si7 1.663191 1_545
O27 O32 1.881516 1_555
O28 Si6 1.605235 1_455
O28 Ti0 1.936631 1_555
O29 Si7 1.605235 1_655
O29 Ti1 1.936631 1_555
O30 Si4 1.605235 1_655
O30 Ti1 1.936631 1_555
O31 Si5 1.605235 1_455
O31 Ti0 1.936631 1_555
O33 Si0 1.620193 1_555
O33 Ti2 1.939885 1_655
O34 Si1 1.620193 1_555
O34 Ti3 1.939885 1_465
O35 Si2 1.620193 1_555
O35 Ti3 1.939885 1_455
O36 Si3 1.620193 1_555
O36 Ti2 1.939885 1_665
O37 Ti0 1.870086 1_555
O37 Ti1 1.870086 1_555
F0 Fe0 2.037923 1_455
F0 Ti2 2.120247 1_555
F1 Fe1 2.037923 1_655
F1 Ti3 2.120247 1_555
