# generated using pymatgen
data_V11Ge8
_symmetry_space_group_name_H-M   'P 1'
_cell_length_a   4.99317300
_cell_length_b   13.36817700
_cell_length_c   16.11812400
_cell_angle_alpha   90.00000000
_cell_angle_beta   90.00000000
_cell_angle_gamma   90.00000000
_symmetry_Int_Tables_number   1
_chemical_formula_structural   V11Ge8
_chemical_formula_sum   'V44 Ge32'
_cell_volume   1075.87865946
_cell_formula_units_Z   4
loop_
 _symmetry_equiv_pos_site_id
 _symmetry_equiv_pos_as_xyz
  1  'x, y, z'
loop_
 _atom_site_type_symbol
 _atom_site_label
 _atom_site_symmetry_multiplicity
 _atom_site_fract_x
 _atom_site_fract_y
 _atom_site_fract_z
 _atom_site_occupancy
  V  V0  1  0.00859600  0.13663900  0.82536000  1
  V  V1  1  0.49140400  0.63663900  0.67464000  1
  V  V2  1  0.50859600  0.86336100  0.17464000  1
  V  V3  1  0.99140400  0.36336100  0.32536000  1
  V  V4  1  0.99140400  0.86336100  0.17464000  1
  V  V5  1  0.50859600  0.36336100  0.32536000  1
  V  V6  1  0.49140400  0.13663900  0.82536000  1
  V  V7  1  0.00859600  0.63663900  0.67464000  1
  V  V8  1  0.00085200  0.44075200  0.87778300  1
  V  V9  1  0.49914800  0.94075200  0.62221700  1
  V  V10  1  0.50085200  0.55924800  0.12221700  1
  V  V11  1  0.99914800  0.05924800  0.37778300  1
  V  V12  1  0.99914800  0.55924800  0.12221700  1
  V  V13  1  0.50085200  0.05924800  0.37778300  1
  V  V14  1  0.49914800  0.44075200  0.87778300  1
  V  V15  1  0.00085200  0.94075200  0.62221700  1
  V  V16  1  0.75000000  0.43512600  0.69111900  1
  V  V17  1  0.75000000  0.93512600  0.80888100  1
  V  V18  1  0.25000000  0.56487400  0.30888100  1
  V  V19  1  0.25000000  0.06487400  0.19111900  1
  V  V20  1  0.75000000  0.12953800  0.54186700  1
  V  V21  1  0.75000000  0.62953800  0.95813300  1
  V  V22  1  0.25000000  0.87046200  0.45813300  1
  V  V23  1  0.25000000  0.37046200  0.04186700  1
  V  V24  1  0.75000000  0.36292900  0.15840800  1
  V  V25  1  0.75000000  0.86292900  0.34159200  1
  V  V26  1  0.25000000  0.63707100  0.84159200  1
  V  V27  1  0.25000000  0.13707100  0.65840800  1
  V  V28  1  0.75000000  0.24867300  0.97002700  1
  V  V29  1  0.75000000  0.74867300  0.52997300  1
  V  V30  1  0.25000000  0.75132700  0.02997300  1
  V  V31  1  0.25000000  0.25132700  0.47002700  1
  V  V32  1  0.75000000  0.03907300  0.09265900  1
  V  V33  1  0.75000000  0.53907300  0.40734100  1
  V  V34  1  0.25000000  0.96092700  0.90734100  1
  V  V35  1  0.25000000  0.46092700  0.59265900  1
  V  V36  1  0.75000000  0.38184400  0.49086200  1
  V  V37  1  0.75000000  0.88184400  0.00913800  1
  V  V38  1  0.25000000  0.61815600  0.50913800  1
  V  V39  1  0.25000000  0.11815600  0.99086200  1
  V  V40  1  0.75000000  0.19494000  0.24829100  1
  V  V41  1  0.75000000  0.69494000  0.25170900  1
  V  V42  1  0.25000000  0.80506000  0.75170900  1
  V  V43  1  0.25000000  0.30506000  0.74829100  1
  Ge  Ge0  1  0.99577800  0.28831900  0.61049100  1
  Ge  Ge1  1  0.50422200  0.78831900  0.88950900  1
  Ge  Ge2  1  0.49577800  0.71168100  0.38950900  1
  Ge  Ge3  1  0.00422200  0.21168100  0.11049100  1
  Ge  Ge4  1  0.00422200  0.71168100  0.38950900  1
  Ge  Ge5  1  0.49577800  0.21168100  0.11049100  1
  Ge  Ge6  1  0.50422200  0.28831900  0.61049100  1
  Ge  Ge7  1  0.99577800  0.78831900  0.88950900  1
  Ge  Ge8  1  0.75000000  0.29660500  0.80250100  1
  Ge  Ge9  1  0.75000000  0.79660500  0.69749900  1
  Ge  Ge10  1  0.25000000  0.70339500  0.19749900  1
  Ge  Ge11  1  0.25000000  0.20339500  0.30250100  1
  Ge  Ge12  1  0.75000000  0.08665900  0.69615400  1
  Ge  Ge13  1  0.75000000  0.58665900  0.80384600  1
  Ge  Ge14  1  0.25000000  0.91334100  0.30384600  1
  Ge  Ge15  1  0.25000000  0.41334100  0.19615400  1
  Ge  Ge16  1  0.75000000  0.44339000  0.01610800  1
  Ge  Ge17  1  0.75000000  0.94339000  0.48389200  1
  Ge  Ge18  1  0.25000000  0.55661000  0.98389200  1
  Ge  Ge19  1  0.25000000  0.05661000  0.51610800  1
  Ge  Ge20  1  0.75000000  0.05114700  0.93881600  1
  Ge  Ge21  1  0.75000000  0.55114700  0.56118400  1
  Ge  Ge22  1  0.25000000  0.94885300  0.06118400  1
  Ge  Ge23  1  0.25000000  0.44885300  0.43881600  1
  Ge  Ge24  1  0.75000000  0.22451900  0.40595300  1
  Ge  Ge25  1  0.75000000  0.72451900  0.09404700  1
  Ge  Ge26  1  0.25000000  0.77548100  0.59404700  1
  Ge  Ge27  1  0.25000000  0.27548100  0.90595300  1
  Ge  Ge28  1  0.75000000  0.00827700  0.24387300  1
  Ge  Ge29  1  0.75000000  0.50827700  0.25612700  1
  Ge  Ge30  1  0.25000000  0.99172300  0.75612700  1
  Ge  Ge31  1  0.25000000  0.49172300  0.74387300  1
loop_
_geom_bond_atom_site_label_1
_geom_bond_atom_site_label_2
_geom_bond_distance
_geom_bond_site_symmetry_2
V10 V12 2.488078 1_555
V10 V12 2.505095 1_455
V11 V13 2.488078 1_555
V11 V13 2.505095 1_655
V14 V8 2.488078 1_555
V14 V8 2.505095 1_655
V15 V9 2.488078 1_555
V15 V9 2.505095 1_455
V32 V37 2.496016 1_545
V33 V36 2.496016 1_555
V34 V39 2.496016 1_565
V35 V38 2.496016 1_555
Ge0 Ge6 2.454424 1_555
Ge0 V27 2.509169 1_655
Ge0 Ge6 2.538749 1_655
Ge0 V43 2.567992 1_655
Ge0 V36 2.605213 1_555
Ge0 V31 2.642277 1_655
Ge0 V35 2.649201 1_655
Ge0 V16 2.654526 1_555
Ge0 V20 2.689790 1_555
Ge1 Ge7 2.454424 1_555
Ge1 V26 2.509169 1_555
Ge1 Ge7 2.538749 1_455
Ge1 V42 2.567992 1_555
Ge1 V37 2.605213 1_556
Ge1 V30 2.642277 1_556
Ge1 V34 2.649201 1_555
Ge1 V17 2.654526 1_555
Ge1 V21 2.689790 1_555
Ge2 Ge4 2.454424 1_555
Ge2 V25 2.509169 1_555
Ge2 Ge4 2.538749 1_655
Ge2 V41 2.567992 1_555
Ge2 V38 2.605213 1_555
Ge2 V29 2.642277 1_555
Ge2 V33 2.649201 1_555
Ge2 V18 2.654526 1_555
Ge2 V22 2.689790 1_555
Ge3 Ge5 2.454424 1_555
Ge3 V24 2.509169 1_455
Ge3 Ge5 2.538749 1_455
Ge3 V40 2.567992 1_455
Ge3 V39 2.605213 1_554
Ge3 V28 2.642277 1_454
Ge3 V32 2.649201 1_455
Ge3 V19 2.654526 1_555
Ge3 V23 2.689790 1_555
Ge4 V25 2.509169 1_455
Ge4 V41 2.567992 1_455
Ge4 V38 2.605213 1_555
Ge4 V29 2.642277 1_455
Ge4 V33 2.649201 1_455
Ge4 V18 2.654526 1_555
Ge4 V22 2.689790 1_555
Ge5 V24 2.509169 1_555
Ge5 V40 2.567992 1_555
Ge5 V39 2.605213 1_554
Ge5 V28 2.642277 1_554
Ge5 V32 2.649201 1_555
Ge5 V19 2.654526 1_555
Ge5 V23 2.689790 1_555
Ge6 V27 2.509169 1_555
Ge6 V43 2.567992 1_555
Ge6 V36 2.605213 1_555
Ge6 V31 2.642277 1_555
Ge6 V35 2.649201 1_555
Ge6 V16 2.654526 1_555
Ge6 V20 2.689790 1_555
Ge7 V26 2.509169 1_655
Ge7 V42 2.567992 1_655
Ge7 V37 2.605213 1_556
Ge7 V30 2.642277 1_656
Ge7 V34 2.649201 1_655
Ge7 V17 2.654526 1_555
Ge7 V21 2.689790 1_555
Ge8 V0 2.525068 1_655
Ge8 V6 2.525068 1_555
Ge8 V16 2.579158 1_555
Ge8 V14 2.598940 1_555
Ge8 V8 2.598940 1_655
Ge8 V43 2.647486 1_655
Ge8 V43 2.647486 1_555
Ge8 V28 2.775191 1_555
Ge9 V1 2.525068 1_555
Ge9 V7 2.525068 1_655
Ge9 V17 2.579158 1_555
Ge9 V15 2.598940 1_655
Ge9 V9 2.598940 1_555
Ge9 V42 2.647486 1_655
Ge9 V42 2.647486 1_555
Ge9 V29 2.775191 1_555
Ge10 V4 2.525068 1_455
Ge10 V2 2.525068 1_555
Ge10 V18 2.579158 1_555
Ge10 V12 2.598940 1_455
Ge10 V10 2.598940 1_555
Ge10 V41 2.647486 1_555
Ge10 V41 2.647486 1_455
Ge10 V30 2.775191 1_555
Ge11 V3 2.525068 1_455
Ge11 V5 2.525068 1_555
Ge11 V19 2.579158 1_555
Ge11 V13 2.598940 1_555
Ge11 V11 2.598940 1_455
Ge11 V40 2.647486 1_455
Ge11 V40 2.647486 1_555
Ge11 V31 2.775191 1_555
Ge12 V0 2.539822 1_655
Ge12 V6 2.539822 1_555
Ge12 V20 2.552025 1_555
Ge12 V9 2.606449 1_545
Ge12 V15 2.606449 1_645
Ge12 V27 2.656549 1_655
Ge12 V27 2.656549 1_555
Ge12 V17 2.721184 1_545
Ge13 V1 2.539822 1_555
Ge13 V7 2.539822 1_655
Ge13 V21 2.552025 1_555
Ge13 V14 2.606449 1_555
Ge13 V8 2.606449 1_655
Ge13 V26 2.656549 1_555
Ge13 V26 2.656549 1_655
Ge13 V16 2.721184 1_555
Ge14 V2 2.539822 1_555
Ge14 V4 2.539822 1_455
Ge14 V22 2.552025 1_555
Ge14 V11 2.606449 1_465
Ge14 V13 2.606449 1_565
Ge14 V25 2.656549 1_455
Ge14 V25 2.656549 1_555
Ge14 V19 2.721184 1_565
Ge15 V3 2.539822 1_455
Ge15 V5 2.539822 1_555
Ge15 V23 2.552025 1_555
Ge15 V10 2.606449 1_555
Ge15 V12 2.606449 1_455
Ge15 V24 2.656549 1_455
Ge15 V24 2.656549 1_555
Ge15 V18 2.721184 1_555
Ge16 V24 2.533297 1_555
Ge16 V14 2.557531 1_554
Ge16 V8 2.557531 1_654
Ge16 V10 2.621354 1_555
Ge16 V12 2.621354 1_555
Ge16 V21 2.658124 1_554
Ge16 V28 2.706904 1_554
Ge16 V23 2.712155 1_655
Ge16 V23 2.712155 1_555
Ge17 V25 2.533297 1_555
Ge17 V15 2.557531 1_655
Ge17 V9 2.557531 1_555
Ge17 V13 2.621354 1_565
Ge17 V11 2.621354 1_565
Ge17 V20 2.658124 1_565
Ge17 V29 2.706904 1_555
Ge17 V22 2.712155 1_655
Ge17 V22 2.712155 1_555
Ge18 V26 2.533297 1_555
Ge18 V10 2.557531 1_556
Ge18 V12 2.557531 1_456
Ge18 V14 2.621354 1_555
Ge18 V8 2.621354 1_555
Ge18 V23 2.658124 1_556
Ge18 V30 2.706904 1_556
Ge18 V21 2.712155 1_455
Ge18 V21 2.712155 1_555
Ge19 V27 2.533297 1_555
Ge19 V13 2.557531 1_555
Ge19 V11 2.557531 1_455
Ge19 V15 2.621354 1_545
Ge19 V9 2.621354 1_545
Ge19 V22 2.658124 1_545
Ge19 V31 2.706904 1_555
Ge19 V20 2.712155 1_555
Ge19 V20 2.712155 1_455
Ge20 V32 2.484908 1_556
Ge20 V6 2.513469 1_555
Ge20 V0 2.513469 1_655
Ge20 V37 2.531231 1_546
Ge20 V17 2.606088 1_545
Ge20 V28 2.688056 1_555
Ge20 V39 2.781925 1_655
Ge20 V39 2.781925 1_555
Ge20 V34 2.818677 1_645
Ge20 V34 2.818677 1_545
Ge21 V33 2.484908 1_555
Ge21 V1 2.513469 1_555
Ge21 V7 2.513469 1_655
Ge21 V36 2.531231 1_555
Ge21 V16 2.606088 1_555
Ge21 V29 2.688056 1_555
Ge21 V38 2.781925 1_655
Ge21 V38 2.781925 1_555
Ge21 V35 2.818677 1_555
Ge21 V35 2.818677 1_655
Ge22 V34 2.484908 1_554
Ge22 V2 2.513469 1_555
Ge22 V4 2.513469 1_455
Ge22 V39 2.531231 1_564
Ge22 V19 2.606088 1_565
Ge22 V30 2.688056 1_555
Ge22 V37 2.781925 1_555
Ge22 V37 2.781925 1_455
Ge22 V32 2.818677 1_465
Ge22 V32 2.818677 1_565
Ge23 V35 2.484908 1_555
Ge23 V3 2.513469 1_455
Ge23 V5 2.513469 1_555
Ge23 V38 2.531231 1_555
Ge23 V18 2.606088 1_555
Ge23 V31 2.688056 1_555
Ge23 V36 2.781925 1_455
Ge23 V36 2.781925 1_555
Ge23 V33 2.818677 1_555
Ge23 V33 2.818677 1_455
Ge24 V36 2.509228 1_555
Ge24 V20 2.532048 1_555
Ge24 V5 2.566188 1_555
Ge24 V3 2.566188 1_555
Ge24 V40 2.571795 1_555
Ge24 V11 2.575872 1_555
Ge24 V13 2.575872 1_555
Ge24 V31 2.725427 1_555
Ge24 V31 2.725427 1_655
Ge25 V37 2.509228 1_555
Ge25 V21 2.532048 1_554
Ge25 V4 2.566188 1_555
Ge25 V2 2.566188 1_555
Ge25 V41 2.571795 1_555
Ge25 V12 2.575872 1_555
Ge25 V10 2.575872 1_555
Ge25 V30 2.725427 1_555
Ge25 V30 2.725427 1_655
Ge26 V38 2.509228 1_555
Ge26 V22 2.532048 1_555
Ge26 V1 2.566188 1_555
Ge26 V7 2.566188 1_555
Ge26 V42 2.571795 1_555
Ge26 V9 2.575872 1_555
Ge26 V15 2.575872 1_555
Ge26 V29 2.725427 1_555
Ge26 V29 2.725427 1_455
Ge27 V39 2.509228 1_555
Ge27 V23 2.532048 1_556
Ge27 V6 2.566188 1_555
Ge27 V0 2.566188 1_555
Ge27 V43 2.571795 1_555
Ge27 V14 2.575872 1_555
Ge27 V8 2.575872 1_555
Ge27 V28 2.725427 1_455
Ge27 V28 2.725427 1_555
Ge28 V32 2.471811 1_555
Ge28 V40 2.496360 1_555
Ge28 V25 2.501233 1_545
Ge28 V2 2.539912 1_545
Ge28 V4 2.539912 1_545
Ge28 V13 2.582735 1_555
Ge28 V11 2.582735 1_555
Ge28 V19 2.743791 1_555
Ge28 V19 2.743791 1_655
Ge29 V33 2.471811 1_555
Ge29 V41 2.496360 1_555
Ge29 V24 2.501233 1_555
Ge29 V5 2.539912 1_555
Ge29 V3 2.539912 1_555
Ge29 V10 2.582735 1_555
Ge29 V12 2.582735 1_555
Ge29 V18 2.743791 1_655
Ge29 V18 2.743791 1_555
Ge30 V34 2.471811 1_555
Ge30 V42 2.496360 1_555
Ge30 V27 2.501233 1_565
Ge30 V0 2.539912 1_565
Ge30 V6 2.539912 1_565
Ge30 V15 2.582735 1_555
Ge30 V9 2.582735 1_555
Ge30 V17 2.743791 1_455
Ge30 V17 2.743791 1_555
Ge31 V35 2.471811 1_555
Ge31 V43 2.496360 1_555
Ge31 V26 2.501233 1_555
Ge31 V1 2.539912 1_555
Ge31 V7 2.539912 1_555
Ge31 V14 2.582735 1_555
Ge31 V8 2.582735 1_555
Ge31 V16 2.743791 1_455
Ge31 V16 2.743791 1_555
