# generated using pymatgen
data_YbErSe2
_symmetry_space_group_name_H-M   'P 1'
_cell_length_a   6.98645833
_cell_length_b   6.98645833
_cell_length_c   6.98645805
_cell_angle_alpha   33.01232425
_cell_angle_beta   33.01232425
_cell_angle_gamma   33.01231621
_symmetry_Int_Tables_number   1
_chemical_formula_structural   YbErSe2
_chemical_formula_sum   'Yb1 Er1 Se2'
_cell_volume   90.08093713
_cell_formula_units_Z   1
loop_
 _symmetry_equiv_pos_site_id
 _symmetry_equiv_pos_as_xyz
  1  'x, y, z'
loop_
 _atom_site_type_symbol
 _atom_site_label
 _atom_site_symmetry_multiplicity
 _atom_site_fract_x
 _atom_site_fract_y
 _atom_site_fract_z
 _atom_site_occupancy
  Yb  Yb0  1  0.50000000  0.50000000  0.50000000  1
  Er  Er0  1  0.00000000  0.00000000  0.00000000  1
  Se  Se0  1  0.24886148  0.24886148  0.24886148  1
  Se  Se1  1  0.75113852  0.75113852  0.75113852  1
loop_
_geom_bond_atom_site_label_1
_geom_bond_atom_site_label_2
_geom_bond_distance
_geom_bond_site_symmetry_2
Er0 Se1 2.837384 1_454
Er0 Se1 2.837384 1_544
Er0 Se0 2.837384 1_455
Er0 Se0 2.837384 1_545
Er0 Se1 2.837384 1_445
Er0 Se0 2.837384 1_554
Se0 Yb0 2.811045 1_545
Se0 Yb0 2.811045 1_455
Se0 Yb0 2.811045 1_554
Se1 Yb0 2.811045 1_655
Se1 Yb0 2.811045 1_565
Se1 Yb0 2.811045 1_556
