# generated using pymatgen
data_Li9Mn2Co5O16
_symmetry_space_group_name_H-M   'P 1'
_cell_length_a   5.90966240
_cell_length_b   5.90966240
_cell_length_c   10.11996569
_cell_angle_alpha   73.79223609
_cell_angle_beta   73.79223609
_cell_angle_gamma   59.87301612
_symmetry_Int_Tables_number   1
_chemical_formula_structural   Li9Mn2Co5O16
_chemical_formula_sum   'Li9 Mn2 Co5 O16'
_cell_volume   289.39667887
_cell_formula_units_Z   1
loop_
 _symmetry_equiv_pos_site_id
 _symmetry_equiv_pos_as_xyz
  1  'x, y, z'
loop_
 _atom_site_type_symbol
 _atom_site_label
 _atom_site_symmetry_multiplicity
 _atom_site_fract_x
 _atom_site_fract_y
 _atom_site_fract_z
 _atom_site_occupancy
  Li  Li0  1  0.49459800  0.99724100  0.75570100  1
  Li  Li1  1  0.75857400  0.74455000  0.99812100  1
  Li  Li2  1  0.00275900  0.50540200  0.24429900  1
  Li  Li3  1  0.99779800  0.49837500  0.75269400  1
  Li  Li4  1  0.25545000  0.24142600  0.00187900  1
  Li  Li5  1  0.50162500  0.00220200  0.24730600  1
  Li  Li6  1  0.75436800  0.74699500  0.49927900  1
  Li  Li7  1  0.25300500  0.24563200  0.50072100  1
  Li  Li8  1  0.24870300  0.75129700  0.00000000  1
  Mn  Mn0  1  0.00143600  0.99852900  0.75279900  1
  Mn  Mn1  1  0.00147100  0.99856400  0.24720100  1
  Co  Co0  1  0.49364300  0.50349300  0.24163500  1
  Co  Co1  1  0.74636500  0.25363500  0.50000000  1
  Co  Co2  1  0.49650700  0.50635700  0.75836500  1
  Co  Co3  1  0.75498000  0.24502000  0.00000000  1
  Co  Co4  1  0.24974900  0.75025100  0.50000000  1
  O  O0  1  0.88240900  0.89181000  0.62687200  1
  O  O1  1  0.12475300  0.64515400  0.86314400  1
  O  O2  1  0.39275800  0.37915300  0.12939500  1
  O  O3  1  0.38071600  0.39809000  0.61978100  1
  O  O4  1  0.65142200  0.11841600  0.86714700  1
  O  O5  1  0.87328900  0.90396100  0.12826500  1
  O  O6  1  0.12379100  0.64839700  0.36765200  1
  O  O7  1  0.65783100  0.12413500  0.37024500  1
  O  O8  1  0.09603900  0.12671100  0.87173500  1
  O  O9  1  0.35484600  0.87524700  0.13685600  1
  O  O10  1  0.60191000  0.61928400  0.38021900  1
  O  O11  1  0.62084700  0.60724200  0.87060500  1
  O  O12  1  0.88158400  0.34857800  0.13285300  1
  O  O13  1  0.10819000  0.11759100  0.37312800  1
  O  O14  1  0.35160300  0.87620900  0.63234800  1
  O  O15  1  0.87586500  0.34216900  0.62975500  1
loop_
_geom_bond_atom_site_label_1
_geom_bond_atom_site_label_2
_geom_bond_distance
_geom_bond_site_symmetry_2
Li0 O4 2.084297 1_565
Li0 O14 2.116155 1_555
Li0 O11 2.117260 1_555
Li0 O8 2.158818 1_565
Li0 O0 2.166213 1_555
Li0 O3 2.248102 1_565
Li1 O1 2.101320 1_655
Li1 O4 2.113918 1_565
Li1 O11 2.195465 1_555
Li1 O5 2.216726 1_556
Li1 O12 2.219903 1_556
Li1 O9 2.268426 1_556
Li2 O12 2.084297 1_455
Li2 O6 2.116155 1_555
Li2 O2 2.117260 1_555
Li2 O5 2.158818 1_455
Li2 O13 2.166213 1_555
Li2 O10 2.248102 1_455
Li3 O1 2.056049 1_655
Li3 O8 2.060540 1_655
Li3 O11 2.075135 1_555
Li3 O3 2.163521 1_655
Li3 O15 2.174540 1_555
Li3 O0 2.175481 1_555
Li4 O9 2.101320 1_545
Li4 O12 2.113918 1_455
Li4 O2 2.195465 1_555
Li4 O8 2.216726 1_554
Li4 O4 2.219903 1_554
Li4 O1 2.268426 1_554
Li5 O9 2.056049 1_545
Li5 O5 2.060540 1_545
Li5 O2 2.075135 1_555
Li5 O10 2.163521 1_545
Li5 O7 2.174540 1_555
Li5 O13 2.175481 1_555
Li6 O6 2.100715 1_655
Li6 O7 2.124345 1_565
Li6 O10 2.151597 1_555
Li6 O0 2.187381 1_555
Li6 O14 2.241014 1_555
Li6 O15 2.241426 1_555
Li7 O14 2.100715 1_545
Li7 O15 2.124345 1_455
Li7 O3 2.151597 1_555
Li7 O13 2.187381 1_555
Li7 O6 2.241014 1_555
Li7 O7 2.241426 1_555
Li8 O1 2.088239 1_554
Li8 O9 2.088239 1_555
Li8 O2 2.100324 1_555
Li8 O11 2.100324 1_554
Li8 O5 2.111345 1_455
Li8 O8 2.111345 1_564
Mn0 O8 1.909154 1_565
Mn0 O1 1.940086 1_555
Mn0 O4 1.941639 1_465
Mn0 O15 1.953645 1_465
Mn0 O14 1.967945 1_555
Mn0 O0 1.977618 1_455
Mn1 O5 1.909154 1_455
Mn1 O9 1.940086 1_555
Mn1 O12 1.941639 1_465
Mn1 O7 1.953645 1_465
Mn1 O6 1.967945 1_555
Mn1 O13 1.977618 1_565
Co0 O2 1.862612 1_555
Co0 O9 1.999963 1_555
Co0 O6 2.076459 1_555
Co0 O10 2.078627 1_555
Co0 O12 2.086347 1_555
Co0 O7 2.133998 1_555
Co1 O15 1.982467 1_555
Co1 O7 1.982467 1_555
Co1 O3 2.032524 1_555
Co1 O10 2.032524 1_555
Co1 O0 2.045725 1_545
Co1 O13 2.045725 1_655
Co2 O11 1.862612 1_555
Co2 O1 1.999963 1_555
Co2 O14 2.076459 1_555
Co2 O3 2.078627 1_555
Co2 O4 2.086347 1_555
Co2 O15 2.133998 1_555
Co3 O8 1.966640 1_654
Co3 O5 1.966640 1_545
Co3 O12 2.054853 1_555
Co3 O4 2.054853 1_554
Co3 O2 2.058301 1_555
Co3 O11 2.058301 1_554
Co4 O10 1.974365 1_555
Co4 O3 1.974365 1_555
Co4 O14 2.041237 1_555
Co4 O6 2.041237 1_555
Co4 O13 2.069197 1_565
Co4 O0 2.069197 1_455
