# generated using pymatgen
data_TlGaO2
_symmetry_space_group_name_H-M   'P 1'
_cell_length_a   5.93916098
_cell_length_b   5.93916098
_cell_length_c   5.93916098
_cell_angle_alpha   60.00000000
_cell_angle_beta   60.00000000
_cell_angle_gamma   60.00000000
_symmetry_Int_Tables_number   1
_chemical_formula_structural   TlGaO2
_chemical_formula_sum   'Tl2 Ga2 O4'
_cell_volume   148.13589026
_cell_formula_units_Z   2
loop_
 _symmetry_equiv_pos_site_id
 _symmetry_equiv_pos_as_xyz
  1  'x, y, z'
loop_
 _atom_site_type_symbol
 _atom_site_label
 _atom_site_symmetry_multiplicity
 _atom_site_fract_x
 _atom_site_fract_y
 _atom_site_fract_z
 _atom_site_occupancy
  Tl  Tl0  1  0.25000000  0.25000000  0.25000000  1
  Tl  Tl1  1  0.00000000  0.00000000  0.00000000  1
  Ga  Ga0  1  0.75000000  0.75000000  0.75000000  1
  Ga  Ga1  1  0.50000000  0.50000000  0.50000000  1
  O  O0  1  0.62500000  0.62500000  0.62500000  1
  O  O1  1  0.12500000  0.62500000  0.62500000  1
  O  O2  1  0.62500000  0.12500000  0.62500000  1
  O  O3  1  0.62500000  0.62500000  0.12500000  1
loop_
_geom_bond_atom_site_label_1
_geom_bond_atom_site_label_2
_geom_bond_distance
_geom_bond_site_symmetry_2
Ga0 O1 1.818489 1_655
Ga0 O0 1.818489 1_555
Ga0 O2 1.818489 1_565
Ga0 O3 1.818489 1_556
Ga1 O1 1.818489 1_555
Ga1 O3 1.818489 1_555
Ga1 O2 1.818489 1_555
Ga1 O0 1.818489 1_555
