# generated using pymatgen
data_Mg6AlCrO8
_symmetry_space_group_name_H-M   'P 1'
_cell_length_a   8.76338109
_cell_length_b   4.27851970
_cell_length_c   4.27851970
_cell_angle_alpha   90.00000000
_cell_angle_beta   90.00000000
_cell_angle_gamma   90.00000000
_symmetry_Int_Tables_number   1
_chemical_formula_structural   Mg6AlCrO8
_chemical_formula_sum   'Mg6 Al1 Cr1 O8'
_cell_volume   160.42009534
_cell_formula_units_Z   1
loop_
 _symmetry_equiv_pos_site_id
 _symmetry_equiv_pos_as_xyz
  1  'x, y, z'
loop_
 _atom_site_type_symbol
 _atom_site_label
 _atom_site_symmetry_multiplicity
 _atom_site_fract_x
 _atom_site_fract_y
 _atom_site_fract_z
 _atom_site_occupancy
  Mg  Mg0  1  0.00000000  0.50000000  0.50000000  1
  Mg  Mg1  1  0.50000000  0.50000000  0.50000000  1
  Mg  Mg2  1  0.25189955  0.00000000  0.50000000  1
  Mg  Mg3  1  0.74810045  0.00000000  0.50000000  1
  Mg  Mg4  1  0.25189955  0.50000000  0.00000000  1
  Mg  Mg5  1  0.74810045  0.50000000  0.00000000  1
  Al  Al0  1  0.00000000  0.00000000  0.00000000  1
  Cr  Cr0  1  0.50000000  0.00000000  0.00000000  1
  O  O0  1  0.20927380  0.00000000  0.00000000  1
  O  O1  1  0.79072620  0.00000000  0.00000000  1
  O  O2  1  0.24792091  0.50000000  0.50000000  1
  O  O3  1  0.75207909  0.50000000  0.50000000  1
  O  O4  1  0.00000000  0.00000000  0.50000000  1
  O  O5  1  0.50000000  0.00000000  0.50000000  1
  O  O6  1  0.00000000  0.50000000  0.00000000  1
  O  O7  1  0.50000000  0.50000000  0.00000000  1
loop_
_geom_bond_atom_site_label_1
_geom_bond_atom_site_label_2
_geom_bond_distance
_geom_bond_site_symmetry_2
Mg0 O4 2.139260 1_555
Mg0 O4 2.139260 1_565
Mg0 O6 2.139260 1_556
Mg0 O6 2.139260 1_555
Mg0 O3 2.172625 1_455
Mg0 O2 2.172625 1_555
Mg1 O7 2.139260 1_555
Mg1 O7 2.139260 1_556
Mg1 O5 2.139260 1_555
Mg1 O5 2.139260 1_565
Mg1 O2 2.209065 1_555
Mg1 O3 2.209065 1_555
Mg2 O2 2.139544 1_555
Mg2 O2 2.139544 1_545
Mg2 O0 2.171628 1_555
Mg2 O0 2.171628 1_556
Mg2 O5 2.174199 1_555
Mg2 O4 2.207492 1_555
Mg3 O3 2.139544 1_545
Mg3 O3 2.139544 1_555
Mg3 O1 2.171628 1_555
Mg3 O1 2.171628 1_556
Mg3 O5 2.174199 1_555
Mg3 O4 2.207492 1_655
Mg4 O2 2.139544 1_554
Mg4 O2 2.139544 1_555
Mg4 O0 2.171628 1_555
Mg4 O0 2.171628 1_565
Mg4 O7 2.174199 1_555
Mg4 O6 2.207492 1_555
Mg5 O3 2.139544 1_555
Mg5 O3 2.139544 1_554
Mg5 O1 2.171628 1_555
Mg5 O1 2.171628 1_565
Mg5 O7 2.174199 1_555
Mg5 O6 2.207492 1_655
Al0 O0 1.833946 1_555
Al0 O1 1.833946 1_455
Al0 O4 2.139260 1_555
Al0 O4 2.139260 1_554
Al0 O6 2.139260 1_545
Al0 O6 2.139260 1_555
Cr0 O7 2.139260 1_555
Cr0 O5 2.139260 1_554
Cr0 O5 2.139260 1_555
Cr0 O7 2.139260 1_545
Cr0 O1 2.547744 1_555
Cr0 O0 2.547744 1_555
