# generated using pymatgen
data_Li9Mn2Co5O16
_symmetry_space_group_name_H-M   'P 1'
_cell_length_a   5.87825500
_cell_length_b   6.59755660
_cell_length_c   7.72908638
_cell_angle_alpha   86.25934727
_cell_angle_beta   81.45030048
_cell_angle_gamma   77.11591388
_symmetry_Int_Tables_number   1
_chemical_formula_structural   Li9Mn2Co5O16
_chemical_formula_sum   'Li9 Mn2 Co5 O16'
_cell_volume   288.79626100
_cell_formula_units_Z   1
loop_
 _symmetry_equiv_pos_site_id
 _symmetry_equiv_pos_as_xyz
  1  'x, y, z'
loop_
 _atom_site_type_symbol
 _atom_site_label
 _atom_site_symmetry_multiplicity
 _atom_site_fract_x
 _atom_site_fract_y
 _atom_site_fract_z
 _atom_site_occupancy
  Li  Li0  1  0.93156200  0.88650000  0.37318100  1
  Li  Li1  1  0.69047000  0.37817100  0.87010400  1
  Li  Li2  1  0.57349200  0.13085400  0.61419700  1
  Li  Li3  1  0.32140800  0.60581700  0.13216900  1
  Li  Li4  1  0.18225300  0.37435500  0.87704800  1
  Li  Li5  1  0.81105500  0.61901600  0.12968200  1
  Li  Li6  1  0.43309600  0.87779100  0.38118900  1
  Li  Li7  1  0.06378800  0.13123000  0.62278600  1
  Li  Li8  1  0.62685300  0.25237700  0.24945500  1
  Mn  Mn0  1  0.99298300  0.00267900  0.00460000  1
  Mn  Mn1  1  0.49755400  0.00167700  0.00401000  1
  Co  Co0  1  0.75135300  0.49548200  0.49043400  1
  Co  Co1  1  0.25883500  0.49137700  0.49648600  1
  Co  Co2  1  0.37127900  0.74630300  0.75026000  1
  Co  Co3  1  0.12354100  0.24597100  0.25103800  1
  Co  Co4  1  0.87141500  0.75217400  0.74361100  1
  O  O0  1  0.19127200  0.95426600  0.18968600  1
  O  O1  1  0.96459100  0.45422700  0.67707800  1
  O  O2  1  0.87042900  0.20224700  0.42129700  1
  O  O3  1  0.58132200  0.70047700  0.92988800  1
  O  O4  1  0.47110400  0.44261500  0.67942500  1
  O  O5  1  0.08009100  0.71026700  0.93099100  1
  O  O6  1  0.72987500  0.94220600  0.16445800  1
  O  O7  1  0.32644100  0.20233000  0.42568800  1
  O  O8  1  0.65959800  0.81402800  0.57477400  1
  O  O9  1  0.38270700  0.29000900  0.07845700  1
  O  O10  1  0.26893100  0.04841200  0.83559100  1
  O  O11  1  0.04482200  0.53529600  0.31216200  1
  O  O12  1  0.92469000  0.28924700  0.07060300  1
  O  O13  1  0.53844300  0.56622300  0.32680000  1
  O  O14  1  0.16626500  0.79604600  0.57282300  1
  O  O15  1  0.79847500  0.06033000  0.82002700  1
loop_
_geom_bond_atom_site_label_1
_geom_bond_atom_site_label_2
_geom_bond_distance
_geom_bond_site_symmetry_2
Li0 O0 2.029736 1_655
Li0 O2 2.081946 1_565
Li0 O6 2.107175 1_555
Li0 O8 2.171446 1_555
Li0 O14 2.187743 1_655
Li0 O11 2.322896 1_655
Li1 O4 2.062611 1_555
Li1 O15 2.095066 1_555
Li1 O3 2.139744 1_555
Li1 O1 2.149922 1_555
Li1 O12 2.190164 1_556
Li1 O9 2.384393 1_556
Li2 O8 2.069715 1_545
Li2 O4 2.083290 1_555
Li2 O7 2.165243 1_555
Li2 O15 2.179675 1_555
Li2 O2 2.234427 1_555
Li2 O10 2.414751 1_555
Li3 O13 2.080768 1_555
Li3 O11 2.091791 1_555
Li3 O9 2.092124 1_555
Li3 O3 2.180957 1_554
Li3 O5 2.232700 1_554
Li3 O0 2.305597 1_555
Li4 O9 2.064314 1_556
Li4 O12 2.107518 1_456
Li4 O1 2.117690 1_455
Li4 O10 2.130576 1_555
Li4 O5 2.213277 1_555
Li4 O4 2.213372 1_555
Li5 O11 2.078153 1_655
Li5 O6 2.104612 1_555
Li5 O13 2.112864 1_555
Li5 O3 2.164539 1_554
Li5 O12 2.186107 1_555
Li5 O5 2.191730 1_654
Li6 O13 2.062355 1_555
Li6 O8 2.109226 1_555
Li6 O14 2.127705 1_555
Li6 O7 2.128206 1_565
Li6 O0 2.162030 1_555
Li6 O6 2.323562 1_555
Li7 O2 2.032311 1_455
Li7 O7 2.110666 1_555
Li7 O15 2.121443 1_455
Li7 O1 2.132370 1_455
Li7 O10 2.153293 1_555
Li7 O14 2.202375 1_545
Li8 O2 2.054373 1_555
Li8 O9 2.056780 1_555
Li8 O12 2.112275 1_555
Li8 O6 2.119060 1_545
Li8 O13 2.122299 1_555
Li8 O7 2.137508 1_555
Mn0 O15 1.925444 1_554
Mn0 O6 1.928854 1_545
Mn0 O12 1.929361 1_555
Mn0 O0 1.943509 1_645
Mn0 O5 1.980849 1_644
Mn0 O10 1.991335 1_654
Mn1 O6 1.938536 1_545
Mn1 O9 1.964727 1_555
Mn1 O10 1.969423 1_554
Mn1 O3 2.036632 1_544
Mn1 O15 2.187785 1_554
Mn1 O0 2.196168 1_545
Co0 O13 1.875334 1_555
Co0 O2 1.984459 1_555
Co0 O1 2.015091 1_555
Co0 O11 2.095608 1_655
Co0 O4 2.107960 1_555
Co0 O8 2.168267 1_555
Co1 O7 1.956414 1_555
Co1 O4 1.986430 1_555
Co1 O11 2.003172 1_555
Co1 O14 2.063033 1_555
Co1 O13 2.074094 1_555
Co1 O1 2.103948 1_455
Co2 O14 1.922798 1_555
Co2 O3 1.957511 1_555
Co2 O4 2.044939 1_555
Co2 O10 2.070865 1_565
Co2 O5 2.089227 1_555
Co2 O8 2.118219 1_555
Co3 O2 1.894297 1_455
Co3 O7 1.898017 1_555
Co3 O12 1.917459 1_455
Co3 O9 1.930590 1_555
Co3 O11 1.933840 1_555
Co3 O0 1.951529 1_545
Co4 O8 1.899154 1_555
Co4 O1 1.999126 1_555
Co4 O5 2.000837 1_655
Co4 O14 2.079392 1_655
Co4 O15 2.087754 1_565
Co4 O3 2.135970 1_555
