# generated using pymatgen
data_Mg(BeP)2
_symmetry_space_group_name_H-M   'P 1'
_cell_length_a   3.64633360
_cell_length_b   3.64637472
_cell_length_c   6.20867788
_cell_angle_alpha   90.00107464
_cell_angle_beta   89.99724392
_cell_angle_gamma   119.99923059
_symmetry_Int_Tables_number   1
_chemical_formula_structural   Mg(BeP)2
_chemical_formula_sum   'Mg1 Be2 P2'
_cell_volume   71.49090960
_cell_formula_units_Z   1
loop_
 _symmetry_equiv_pos_site_id
 _symmetry_equiv_pos_as_xyz
  1  'x, y, z'
loop_
 _atom_site_type_symbol
 _atom_site_label
 _atom_site_symmetry_multiplicity
 _atom_site_fract_x
 _atom_site_fract_y
 _atom_site_fract_z
 _atom_site_occupancy
  Mg  Mg0  1  0.00000000  -0.00000000  -0.00000000  1
  Be  Be0  1  0.66660368  0.33330598  0.37410208  1
  Be  Be1  1  0.33339632  0.66669402  0.62589792  1
  P  P0  1  0.66670170  0.33334901  0.73283954  1
  P  P1  1  0.33329830  0.66665099  0.26716046  1
loop_
_geom_bond_atom_site_label_1
_geom_bond_atom_site_label_2
_geom_bond_distance
_geom_bond_site_symmetry_2
Mg0 P0 2.680158 1_444
Mg0 P1 2.680158 1_555
Mg0 P0 2.680163 1_454
Mg0 P1 2.680163 1_545
Mg0 P1 2.680199 1_445
Mg0 P0 2.680199 1_554
Be0 P1 2.207413 1_555
Be0 P1 2.207441 1_545
Be0 P1 2.207506 1_655
Be0 P0 2.227285 1_555
Be1 P0 2.207413 1_555
Be1 P0 2.207441 1_565
Be1 P0 2.207506 1_455
Be1 P1 2.227285 1_555
