# generated using pymatgen
data_V2OF5
_symmetry_space_group_name_H-M   'P 1'
_cell_length_a   5.09089528
_cell_length_b   13.25015191
_cell_length_c   5.09108959
_cell_angle_alpha   89.99910630
_cell_angle_beta   120.00477079
_cell_angle_gamma   89.99453940
_symmetry_Int_Tables_number   1
_chemical_formula_structural   V2OF5
_chemical_formula_sum   'V6 O3 F15'
_cell_volume   297.39626434
_cell_formula_units_Z   3
loop_
 _symmetry_equiv_pos_site_id
 _symmetry_equiv_pos_as_xyz
  1  'x, y, z'
loop_
 _atom_site_type_symbol
 _atom_site_label
 _atom_site_symmetry_multiplicity
 _atom_site_fract_x
 _atom_site_fract_y
 _atom_site_fract_z
 _atom_site_occupancy
  V  V0  1  0.00087570  0.49796483  0.02228848  1
  V  V1  1  0.97489830  0.00644919  0.96610791  1
  V  V2  1  0.64426701  0.83139270  0.31166566  1
  V  V3  1  0.32448092  0.67305310  0.69171515  1
  V  V4  1  0.70062627  0.33972040  0.34215152  1
  V  V5  1  0.35485664  0.16470385  0.66589354  1
  O  O0  1  0.39654967  0.74994646  0.98177030  1
  O  O1  1  0.91883979  0.41653320  0.27025509  1
  O  O2  1  0.68482755  0.08332703  0.74784865  1
  F  F0  1  0.98158404  0.74695150  0.38058496  1
  F  F1  1  0.33129146  0.41664058  0.07311859  1
  F  F2  1  0.07524774  0.08346841  0.33537655  1
  F  F3  1  0.32820225  0.91933850  0.26328393  1
  F  F4  1  0.26852015  0.58585985  0.33878455  1
  F  F5  1  0.61213361  0.24800427  0.00617704  1
  F  F6  1  0.00635701  0.24791097  0.61646456  1
  F  F7  1  0.72716523  0.91478745  0.05451849  1
  F  F8  1  0.05034174  0.58131197  0.72344390  1
  F  F9  1  0.40357502  0.25273308  0.39852425  1
  F  F10  1  0.59293657  0.75000929  0.59078988  1
  F  F11  1  0.28626873  0.08027440  0.93449271  1
  F  F12  1  0.73231906  0.41357715  0.68502662  1
  F  F13  1  0.94305980  0.91462874  0.66020530  1
  F  F14  1  0.66077675  0.58141209  0.93951138  1
loop_
_geom_bond_atom_site_label_1
_geom_bond_atom_site_label_2
_geom_bond_distance
_geom_bond_site_symmetry_2
O0 V3 1.676766 1_555
O0 V2 1.859506 1_556
O1 V4 1.676559 1_555
O1 V0 1.860021 1_655
O2 V1 1.676781 1_555
O2 V5 1.859368 1_555
F0 V2 1.928960 1_555
F0 V3 1.936291 1_655
F1 V0 1.903125 1_555
F1 V4 1.968248 1_555
F2 V5 1.902905 1_555
F2 V1 1.968848 1_454
F3 V2 1.900231 1_555
F3 V1 2.033288 1_464
F4 V0 1.900990 1_555
F4 V3 2.032878 1_555
F5 V5 1.914667 1_554
F5 V4 1.958316 1_555
F6 V4 1.917899 1_455
F6 V5 1.994902 1_555
F7 V2 1.914585 1_555
F7 V1 1.958645 1_564
F8 V3 1.917619 1_555
F8 V0 1.995250 1_556
F9 V5 1.900666 1_555
F9 V4 2.032773 1_555
F10 V2 1.903126 1_555
F10 V3 1.968286 1_555
F11 V5 1.928976 1_555
F11 V1 1.936738 1_455
F12 V0 1.928774 1_656
F12 V4 1.936301 1_555
F13 V1 1.918210 1_565
F13 V2 1.994914 1_555
F14 V0 1.915144 1_656
F14 V3 1.958685 1_555
