# generated using pymatgen
data_LiMg14BO15
_symmetry_space_group_name_H-M   'P 1'
_cell_length_a   4.28609200
_cell_length_b   8.40067200
_cell_length_c   8.58108000
_cell_angle_alpha   90.00000000
_cell_angle_beta   90.00000000
_cell_angle_gamma   90.00000000
_symmetry_Int_Tables_number   1
_chemical_formula_structural   LiMg14BO15
_chemical_formula_sum   'Li1 Mg14 B1 O15'
_cell_volume   308.97082174
_cell_formula_units_Z   1
loop_
 _symmetry_equiv_pos_site_id
 _symmetry_equiv_pos_as_xyz
  1  'x, y, z'
loop_
 _atom_site_type_symbol
 _atom_site_label
 _atom_site_symmetry_multiplicity
 _atom_site_fract_x
 _atom_site_fract_y
 _atom_site_fract_z
 _atom_site_occupancy
  Li  Li0  1  0.00000000  0.00000000  0.00850600  1
  Mg  Mg0  1  0.00000000  0.50000000  0.00153000  1
  Mg  Mg1  1  0.00000000  0.00000000  0.50873700  1
  Mg  Mg2  1  0.50000000  0.75609200  0.99994900  1
  Mg  Mg3  1  0.50000000  0.24390800  0.99994900  1
  Mg  Mg4  1  0.50000000  0.73509000  0.49923900  1
  Mg  Mg5  1  0.50000000  0.26491000  0.49923900  1
  Mg  Mg6  1  0.50000000  0.00000000  0.75308000  1
  Mg  Mg7  1  0.50000000  0.50000000  0.74515000  1
  Mg  Mg8  1  0.50000000  0.00000000  0.24732400  1
  Mg  Mg9  1  0.50000000  0.50000000  0.24915600  1
  Mg  Mg10  1  0.00000000  0.73523700  0.75691100  1
  Mg  Mg11  1  0.00000000  0.26476300  0.75691100  1
  Mg  Mg12  1  0.00000000  0.75746600  0.24236500  1
  Mg  Mg13  1  0.00000000  0.24253400  0.24236500  1
  B  B0  1  0.00000000  0.50000000  0.44074500  1
  O  O0  1  0.00000000  0.50000000  0.77229800  1
  O  O1  1  0.00000000  0.00000000  0.27309000  1
  O  O2  1  0.00000000  0.50000000  0.26756000  1
  O  O3  1  0.50000000  0.74836500  0.74584600  1
  O  O4  1  0.50000000  0.25163500  0.74584600  1
  O  O5  1  0.50000000  0.75121900  0.25271400  1
  O  O6  1  0.50000000  0.24878100  0.25271400  1
  O  O7  1  0.50000000  0.00000000  0.99789600  1
  O  O8  1  0.50000000  0.50000000  0.01076600  1
  O  O9  1  0.50000000  0.00000000  0.49979000  1
  O  O10  1  0.50000000  0.50000000  0.48756100  1
  O  O11  1  0.00000000  0.74645400  0.00500100  1
  O  O12  1  0.00000000  0.25354600  0.00500100  1
  O  O13  1  0.00000000  0.67084200  0.49138200  1
  O  O14  1  0.00000000  0.32915800  0.49138200  1
loop_
_geom_bond_atom_site_label_1
_geom_bond_atom_site_label_2
_geom_bond_distance
_geom_bond_site_symmetry_2
Li0 O12 2.130169 1_555
Li0 O11 2.130169 1_545
Li0 O7 2.144979 1_554
Li0 O7 2.144979 1_454
Li0 O1 2.270416 1_555
Mg0 O0 1.967058 1_554
Mg0 O11 2.070593 1_555
Mg0 O12 2.070593 1_555
Mg0 O8 2.144511 1_455
Mg0 O8 2.144511 1_555
Mg0 O2 2.282825 1_555
Mg1 O1 2.022106 1_555
Mg1 O9 2.144421 1_455
Mg1 O9 2.144421 1_555
Mg2 O7 2.049067 1_565
Mg2 O11 2.145013 1_656
Mg2 O11 2.145013 1_556
Mg2 O8 2.153346 1_556
Mg2 O5 2.169383 1_556
Mg2 O3 2.181444 1_555
Mg3 O7 2.049067 1_555
Mg3 O12 2.145013 1_656
Mg3 O12 2.145013 1_556
Mg3 O8 2.153346 1_556
Mg3 O6 2.169383 1_556
Mg3 O4 2.181444 1_555
Mg4 O10 1.977455 1_555
Mg4 O3 2.119091 1_555
Mg4 O5 2.119786 1_555
Mg4 O13 2.210994 1_555
Mg4 O13 2.210994 1_655
Mg4 O9 2.225427 1_565
Mg5 O10 1.977455 1_555
Mg5 O4 2.119091 1_555
Mg5 O6 2.119786 1_555
Mg5 O14 2.210994 1_555
Mg5 O14 2.210994 1_655
Mg5 O9 2.225427 1_555
Mg6 O7 2.100786 1_555
Mg6 O4 2.114814 1_555
Mg6 O3 2.114814 1_545
Mg6 O9 2.173502 1_555
Mg7 O3 2.086441 1_555
Mg7 O4 2.086441 1_555
Mg7 O0 2.155671 1_555
Mg7 O0 2.155671 1_655
Mg7 O10 2.210392 1_555
Mg7 O8 2.279272 1_556
Mg8 O5 2.090439 1_545
Mg8 O6 2.090439 1_555
Mg8 O7 2.140362 1_554
Mg8 O1 2.154421 1_555
Mg8 O1 2.154421 1_655
Mg8 O9 2.166431 1_555
Mg9 O8 2.045644 1_555
Mg9 O10 2.045772 1_555
Mg9 O5 2.110629 1_555
Mg9 O6 2.110629 1_555
Mg9 O2 2.148857 1_655
Mg9 O2 2.148857 1_555
Mg10 O0 1.980555 1_555
Mg10 O11 2.130965 1_556
Mg10 O3 2.147981 1_455
Mg10 O3 2.147981 1_555
Mg10 O13 2.341862 1_555
Mg11 O0 1.980555 1_555
Mg11 O12 2.130965 1_556
Mg11 O4 2.147981 1_455
Mg11 O4 2.147981 1_555
Mg11 O14 2.341862 1_555
Mg12 O11 2.038939 1_555
Mg12 O1 2.054437 1_565
Mg12 O5 2.145527 1_455
Mg12 O5 2.145527 1_555
Mg12 O2 2.173666 1_555
Mg12 O13 2.257346 1_555
Mg13 O12 2.038939 1_555
Mg13 O1 2.054437 1_555
Mg13 O6 2.145527 1_455
Mg13 O6 2.145527 1_555
Mg13 O2 2.173666 1_555
Mg13 O14 2.257346 1_555
B0 O2 1.486114 1_555
B0 O14 1.499524 1_555
B0 O13 1.499524 1_555
B0 O10 2.180375 1_555
B0 O10 2.180375 1_455
