# generated using pymatgen
data_YMg6Ga
_symmetry_space_group_name_H-M   'P 1'
_cell_length_a   5.08085600
_cell_length_b   6.13428700
_cell_length_c   11.89660300
_cell_angle_alpha   90.00000000
_cell_angle_beta   90.00000000
_cell_angle_gamma   90.00000000
_symmetry_Int_Tables_number   1
_chemical_formula_structural   YMg6Ga
_chemical_formula_sum   'Y2 Mg12 Ga2'
_cell_volume   370.78652827
_cell_formula_units_Z   2
loop_
 _symmetry_equiv_pos_site_id
 _symmetry_equiv_pos_as_xyz
  1  'x, y, z'
loop_
 _atom_site_type_symbol
 _atom_site_label
 _atom_site_symmetry_multiplicity
 _atom_site_fract_x
 _atom_site_fract_y
 _atom_site_fract_z
 _atom_site_occupancy
  Y  Y0  1  0.50000000  0.50000000  0.68228900  1
  Y  Y1  1  0.50000000  0.00000000  0.18228900  1
  Mg  Mg0  1  0.50000000  0.75251600  0.92947000  1
  Mg  Mg1  1  0.50000000  0.24748400  0.92947000  1
  Mg  Mg2  1  0.00000000  0.24947700  0.57493700  1
  Mg  Mg3  1  0.00000000  0.75052300  0.57493700  1
  Mg  Mg4  1  0.00000000  0.50000000  0.84161900  1
  Mg  Mg5  1  0.00000000  0.00000000  0.81107100  1
  Mg  Mg6  1  0.50000000  0.25251600  0.42947000  1
  Mg  Mg7  1  0.50000000  0.74748400  0.42947000  1
  Mg  Mg8  1  0.00000000  0.74947700  0.07493700  1
  Mg  Mg9  1  0.00000000  0.25052300  0.07493700  1
  Mg  Mg10  1  0.00000000  0.00000000  0.34161900  1
  Mg  Mg11  1  0.00000000  0.50000000  0.31107100  1
  Ga  Ga0  1  0.50000000  0.00000000  0.65620300  1
  Ga  Ga1  1  0.50000000  0.50000000  0.15620300  1
loop_
_geom_bond_atom_site_label_1
_geom_bond_atom_site_label_2
_geom_bond_distance
_geom_bond_site_symmetry_2
Mg0 Mg1 3.036276 1_565
Mg0 Mg8 3.073918 1_656
Mg0 Mg8 3.073918 1_556
Mg0 Mg1 3.098011 1_555
Mg0 Mg4 3.153647 1_655
Mg0 Mg4 3.153647 1_555
Mg0 Mg5 3.277578 1_665
Mg0 Mg5 3.277578 1_565
Mg0 Y0 3.323647 1_555
Mg0 Y1 3.369113 1_566
Mg1 Mg9 3.073918 1_556
Mg1 Mg9 3.073918 1_656
Mg1 Mg4 3.153647 1_655
Mg1 Mg4 3.153647 1_555
Mg1 Mg5 3.277578 1_555
Mg1 Mg5 3.277578 1_655
Mg1 Y0 3.323647 1_555
Mg1 Y1 3.369113 1_556
Mg2 Mg3 3.060727 1_545
Mg2 Mg3 3.073560 1_555
Mg2 Mg6 3.073918 1_455
Mg2 Mg6 3.073918 1_555
Mg2 Mg5 3.198996 1_555
Mg2 Y0 3.232107 1_455
Mg2 Y0 3.232107 1_555
Mg3 Mg7 3.073918 1_555
Mg3 Mg7 3.073918 1_455
Mg3 Mg5 3.198996 1_565
Mg3 Y0 3.232107 1_555
Mg3 Y0 3.232107 1_455
Mg4 Mg5 3.088599 1_565
Mg4 Mg5 3.088599 1_555
Mg4 Mg8 3.169618 1_556
Mg4 Mg9 3.169618 1_556
Mg4 Y0 3.169644 1_455
Mg4 Y0 3.169644 1_555
Mg5 Mg9 3.495096 1_556
Mg5 Mg8 3.495096 1_546
Mg6 Mg7 3.036276 1_555
Mg6 Mg7 3.098011 1_545
Mg6 Y1 3.323647 1_555
Mg6 Y0 3.369113 1_555
Mg7 Y1 3.323647 1_565
Mg7 Y0 3.369113 1_555
Mg8 Mg9 3.060727 1_555
Mg8 Mg9 3.073560 1_565
Mg8 Y1 3.232107 1_565
Mg8 Y1 3.232107 1_465
Mg9 Y1 3.232107 1_555
Mg9 Y1 3.232107 1_455
Mg10 Mg11 3.088599 1_545
Mg10 Mg11 3.088599 1_555
Mg10 Mg6 3.153647 1_455
Mg10 Mg6 3.153647 1_555
Mg10 Mg7 3.153647 1_545
Mg10 Mg7 3.153647 1_445
Mg10 Mg2 3.169618 1_555
Mg10 Mg3 3.169618 1_545
Mg10 Y1 3.169644 1_555
Mg10 Y1 3.169644 1_455
Mg11 Mg9 3.198996 1_555
Mg11 Mg8 3.198996 1_555
Mg11 Mg7 3.277578 1_455
Mg11 Mg7 3.277578 1_555
Mg11 Mg6 3.277578 1_455
Mg11 Mg6 3.277578 1_555
Mg11 Mg3 3.495096 1_555
Mg11 Mg2 3.495096 1_555
Ga0 Y0 3.082803 1_555
Ga0 Y0 3.082803 1_545
Ga0 Mg6 3.110487 1_555
Ga0 Mg7 3.110487 1_545
Ga0 Mg2 3.119370 1_655
Ga0 Mg2 3.119370 1_555
Ga0 Mg3 3.119370 1_645
Ga0 Mg3 3.119370 1_545
Ga0 Mg5 3.138188 1_655
Ga0 Mg5 3.138188 1_555
Ga1 Y1 3.082803 1_555
Ga1 Y1 3.082803 1_565
Ga1 Mg0 3.110487 1_554
Ga1 Mg1 3.110487 1_554
Ga1 Mg8 3.119370 1_655
Ga1 Mg9 3.119370 1_555
Ga1 Mg9 3.119370 1_655
Ga1 Mg8 3.119370 1_555
Ga1 Mg11 3.138188 1_555
Ga1 Mg11 3.138188 1_655
