# generated using pymatgen
data_V(FeSe2)2
_symmetry_space_group_name_H-M   'P 1'
_cell_length_a   6.68288745
_cell_length_b   6.68288745
_cell_length_c   6.13408349
_cell_angle_alpha   64.32995238
_cell_angle_beta   64.32995238
_cell_angle_gamma   29.41955746
_symmetry_Int_Tables_number   1
_chemical_formula_structural   V(FeSe2)2
_chemical_formula_sum   'V1 Fe2 Se4'
_cell_volume   120.31602734
_cell_formula_units_Z   1
loop_
 _symmetry_equiv_pos_site_id
 _symmetry_equiv_pos_as_xyz
  1  'x, y, z'
loop_
 _atom_site_type_symbol
 _atom_site_label
 _atom_site_symmetry_multiplicity
 _atom_site_fract_x
 _atom_site_fract_y
 _atom_site_fract_z
 _atom_site_occupancy
  V  V0  1  0.75402000  0.75402000  0.18303200  1
  Fe  Fe0  1  0.50102300  0.50102300  0.49672400  1
  Fe  Fe1  1  0.24333600  0.24333600  0.82092100  1
  Se  Se0  1  0.86269800  0.86269800  0.47907100  1
  Se  Se1  1  0.13989500  0.13989500  0.52463000  1
  Se  Se2  1  0.39449600  0.39449600  0.94103300  1
  Se  Se3  1  0.60453200  0.60453200  0.05459000  1
loop_
_geom_bond_atom_site_label_1
_geom_bond_atom_site_label_2
_geom_bond_distance
_geom_bond_site_symmetry_2
Fe0 Se3 2.428019 1_555
Fe0 Se2 2.441828 1_555
Fe0 Se0 2.502503 1_455
Fe0 Se0 2.502503 1_545
Fe0 Se1 2.531257 1_565
Fe0 Se1 2.531257 1_655
Fe1 Se2 2.377226 1_555
Fe1 Se3 2.418712 1_456
Fe1 Se3 2.418712 1_546
Fe1 Se0 2.599899 1_545
Fe1 Se0 2.599899 1_455
Fe1 Se1 2.696011 1_555
Se0 V0 2.748961 1_555
Se1 V0 2.584152 1_455
Se1 V0 2.584152 1_545
Se2 V0 2.442627 1_546
Se2 V0 2.442627 1_456
Se3 V0 2.391502 1_555
