# generated using pymatgen
data_Li3V3P8O29
_symmetry_space_group_name_H-M   'P 1'
_cell_length_a   9.74206100
_cell_length_b   9.77357996
_cell_length_c   14.25632094
_cell_angle_alpha   89.87196768
_cell_angle_beta   89.89752817
_cell_angle_gamma   60.18572936
_symmetry_Int_Tables_number   1
_chemical_formula_structural   Li3V3P8O29
_chemical_formula_sum   'Li6 V6 P16 O58'
_cell_volume   1177.74468047
_cell_formula_units_Z   2
loop_
 _symmetry_equiv_pos_site_id
 _symmetry_equiv_pos_as_xyz
  1  'x, y, z'
loop_
 _atom_site_type_symbol
 _atom_site_label
 _atom_site_symmetry_multiplicity
 _atom_site_fract_x
 _atom_site_fract_y
 _atom_site_fract_z
 _atom_site_occupancy
  Li  Li0  1  0.67725700  0.09158800  0.44515900  1
  Li  Li1  1  0.23429400  0.67200800  0.44384800  1
  Li  Li2  1  0.90699500  0.32668500  0.05621400  1
  Li  Li3  1  0.76840200  0.90775900  0.05509600  1
  Li  Li4  1  0.04932500  0.97165900  0.99478700  1
  Li  Li5  1  0.01980100  0.02821600  0.50576900  1
  V  V0  1  0.56392500  0.43449000  0.75239900  1
  V  V1  1  0.43596900  0.56603700  0.24407500  1
  V  V2  1  0.00219400  0.43330200  0.25486400  1
  V  V3  1  0.00196500  0.56270200  0.74832400  1
  V  V4  1  0.43021800  0.00649900  0.75157100  1
  V  V5  1  0.56011200  0.99982600  0.25155800  1
  P  P0  1  0.21933600  0.08630400  0.15775400  1
  P  P1  1  0.08422000  0.22098500  0.66041000  1
  P  P2  1  0.68798600  0.08962000  0.66015600  1
  P  P3  1  0.33194200  0.33453100  0.86921400  1
  P  P4  1  0.33572000  0.33692400  0.36780800  1
  P  P5  1  0.69058800  0.22319300  0.15854700  1
  P  P6  1  0.77334100  0.31000100  0.34123700  1
  P  P7  1  0.08314600  0.69049400  0.15878700  1
  P  P8  1  0.91223600  0.31258700  0.84237500  1
  P  P9  1  0.22594300  0.68676000  0.65735000  1
  P  P10  1  0.30635400  0.77809500  0.83884600  1
  P  P11  1  0.66469700  0.66770400  0.63526500  1
  P  P12  1  0.67305000  0.66355700  0.13174800  1
  P  P13  1  0.30379700  0.91439500  0.34111700  1
  P  P14  1  0.91480100  0.77610200  0.34220500  1
  P  P15  1  0.77689200  0.91025800  0.83940400  1
  O  O0  1  0.21448400  0.99002100  0.42754600  1
  O  O1  1  0.26023400  0.08736800  0.66906700  1
  O  O2  1  0.98330500  0.23269300  0.93280600  1
  O  O3  1  0.07979500  0.26128200  0.16665400  1
  O  O4  1  0.37643400  0.08603700  0.17196200  1
  O  O5  1  0.33606500  0.18347300  0.82494000  1
  O  O6  1  0.53078900  0.08810100  0.67483800  1
  O  O7  1  0.78737000  0.98140500  0.92943800  1
  O  O8  1  0.65796800  0.08280200  0.16258500  1
  O  O9  1  0.18770200  0.33487000  0.32225800  1
  O  O10  1  0.08098900  0.38072900  0.67178500  1
  O  O11  1  0.48717300  0.18747400  0.33005400  1
  O  O12  1  0.33084900  0.33381600  0.97308400  1
  O  O13  1  0.33037700  0.34486000  0.47190900  1
  O  O14  1  0.47907800  0.33551400  0.82445300  1
  O  O15  1  0.08226800  0.53372600  0.17346300  1
  O  O16  1  0.18418200  0.47668900  0.82183600  1
  O  O17  1  0.65330300  0.26188200  0.67053900  1
  O  O18  1  0.79447500  0.20257900  0.25060900  1
  O  O19  1  0.78353600  0.21595100  0.42588100  1
  O  O20  1  0.78220400  0.22091400  0.07461300  1
  O  O21  1  0.53097500  0.38058400  0.17338600  1
  O  O22  1  0.33005200  0.48795900  0.32438500  1
  O  O23  1  0.73899400  0.34709900  0.83177800  1
  O  O24  1  0.38256300  0.53048000  0.67371000  1
  O  O25  1  0.08720400  0.65195300  0.66845400  1
  O  O26  1  0.00534800  0.19959600  0.75584800  1
  O  O27  1  0.00431700  0.20382900  0.57729900  1
  O  O28  1  0.00620900  0.77661600  0.42539700  1
  O  O29  1  0.91224400  0.34532300  0.33387300  1
  O  O30  1  0.61602300  0.46642400  0.32605600  1
  O  O31  1  0.25754300  0.65512700  0.16637500  1
  O  O32  1  0.66226200  0.52193600  0.67787700  1
  O  O33  1  0.46176300  0.61775900  0.82837600  1
  O  O34  1  0.20875700  0.79700100  0.92227200  1
  O  O35  1  0.21642400  0.76698900  0.56688400  1
  O  O36  1  0.20566700  0.79979500  0.74393600  1
  O  O37  1  0.34260500  0.73892000  0.33349600  1
  O  O38  1  0.81722600  0.51228300  0.17524300  1
  O  O39  1  0.91280700  0.46911400  0.82597200  1
  O  O40  1  0.52235700  0.66492900  0.17714300  1
  O  O41  1  0.67610300  0.65425600  0.02756500  1
  O  O42  1  0.65946700  0.67105800  0.52870100  1
  O  O43  1  0.51851200  0.81751500  0.67344400  1
  O  O44  1  0.91195500  0.61898400  0.32647300  1
  O  O45  1  0.81692200  0.66217000  0.67362600  1
  O  O46  1  0.34973800  0.91088700  0.82973600  1
  O  O47  1  0.19989500  0.99969400  0.24983800  1
  O  O48  1  0.19963400  0.01188500  0.07256400  1
  O  O49  1  0.46360000  0.91552700  0.32609800  1
  O  O50  1  0.67447000  0.81197500  0.17015300  1
  O  O51  1  0.61769200  0.91321300  0.82525700  1
  O  O52  1  0.91341300  0.73784500  0.82864200  1
  O  O53  1  0.99955400  0.78474700  0.07425900  1
  O  O54  1  0.99714400  0.79756900  0.24937900  1
  O  O55  1  0.74318900  0.91726700  0.34007000  1
  O  O56  1  0.76963000  0.01738800  0.57037400  1
  O  O57  1  0.79769900  0.00005300  0.74985700  1
loop_
_geom_bond_atom_site_label_1
_geom_bond_atom_site_label_2
_geom_bond_distance
_geom_bond_site_symmetry_2
Li0 O56 1.968085 1_555
Li0 O19 1.968196 1_555
Li0 O55 2.116513 1_545
Li0 O11 2.297514 1_555
Li1 O28 1.947748 1_555
Li1 O35 1.952998 1_555
Li1 O37 2.166034 1_555
Li1 O22 2.312126 1_555
Li2 O2 1.953281 1_554
Li2 O20 1.965399 1_555
Li2 O3 2.157876 1_655
Li2 O38 2.316413 1_555
Li3 O7 1.971481 1_554
Li3 O53 1.974762 1_555
Li3 O8 2.146655 1_565
Li3 O50 2.289966 1_555
Li4 O34 1.939279 1_555
Li4 O48 2.026941 1_566
Li4 O53 2.392803 1_456
Li4 O2 2.462430 1_465
Li5 O27 1.938657 1_555
Li5 O0 2.066488 1_545
Li5 O19 2.400442 1_455
Li5 O35 2.465709 1_545
O0 P13 1.477272 1_555
O1 P1 1.560223 1_555
O1 V4 1.857896 1_555
O2 P8 1.487368 1_555
O3 P0 1.573963 1_555
O3 V2 1.929181 1_555
O4 P0 1.542878 1_555
O4 V5 1.924395 1_545
O5 P3 1.588963 1_555
O5 V4 1.831445 1_555
O6 P2 1.552654 1_555
O6 V4 1.887324 1_555
O7 P15 1.488790 1_555
O8 P5 1.555698 1_555
O8 V5 1.983747 1_545
O9 P4 1.591744 1_555
O9 V2 1.840636 1_555
O10 P1 1.554703 1_555
O10 V3 1.894896 1_555
O11 P4 1.567754 1_555
O11 V5 1.957348 1_545
O12 P3 1.480849 1_555
O13 P4 1.485764 1_555
O14 P3 1.572371 1_555
O14 V0 1.860598 1_555
O15 P7 1.550171 1_555
O15 V2 1.916146 1_555
O16 P3 1.571388 1_555
O16 V3 1.864149 1_555
O17 P2 1.551098 1_555
O17 V0 1.873652 1_555
O18 P5 1.608807 1_555
O18 P6 1.613741 1_555
O19 P6 1.488504 1_555
O20 P5 1.485080 1_555
O21 P5 1.565473 1_555
O21 V1 1.869276 1_555
O22 P4 1.574893 1_555
O22 V1 1.932031 1_555
O23 P8 1.555521 1_555
O23 V0 1.863610 1_555
O24 P9 1.548454 1_555
O24 V0 1.901174 1_555
O25 P9 1.556866 1_555
O25 V3 1.859968 1_555
O26 P8 1.603126 1_455
O26 P1 1.624818 1_555
O27 P1 1.473742 1_555
O28 P14 1.485899 1_455
O29 P6 1.557310 1_555
O29 V2 1.875476 1_655
O30 P6 1.550094 1_555
O30 V1 1.922180 1_555
O31 P7 1.560210 1_555
O31 V1 1.871956 1_555
O32 P11 1.558523 1_555
O32 V0 1.892987 1_555
O33 P10 1.552802 1_555
O33 V0 1.898491 1_555
O34 P10 1.474768 1_555
O35 P9 1.486745 1_555
O36 P9 1.603580 1_555
O36 P10 1.623125 1_555
O37 P13 1.565875 1_555
O37 V1 1.945439 1_555
O38 P12 1.573942 1_555
O38 V2 1.936918 1_655
O39 P8 1.549823 1_555
O39 V3 1.896982 1_655
O40 P12 1.597270 1_555
O40 V1 1.831620 1_555
O41 P12 1.487589 1_555
O42 P11 1.519890 1_555
O43 P11 1.547766 1_555
O43 V4 1.953961 1_565
O44 P14 1.566222 1_555
O44 V2 1.878057 1_655
O45 P11 1.557005 1_555
O45 V3 1.894321 1_655
O46 P10 1.557057 1_555
O46 V4 1.857550 1_565
O47 P13 1.604287 1_555
O47 P0 1.621533 1_565
O48 P0 1.477994 1_555
O49 P13 1.576563 1_555
O49 V5 1.858740 1_555
O50 P12 1.558096 1_555
O50 V5 1.982372 1_555
O51 P15 1.550311 1_555
O51 V4 1.901902 1_565
O52 P15 1.550426 1_555
O52 V3 1.876783 1_655
O53 P7 1.488799 1_655
O54 P7 1.611036 1_655
O54 P14 1.612801 1_555
O55 P14 1.551091 1_555
O55 V5 1.999213 1_555
O56 P2 1.487064 1_555
O57 P15 1.616169 1_545
O57 P2 1.616649 1_555
