# generated using pymatgen
data_PaZnRh2
_symmetry_space_group_name_H-M   'P 1'
_cell_length_a   4.60986367
_cell_length_b   4.60986367
_cell_length_c   4.60986367
_cell_angle_alpha   60.00000000
_cell_angle_beta   60.00000000
_cell_angle_gamma   60.00000000
_symmetry_Int_Tables_number   1
_chemical_formula_structural   PaZnRh2
_chemical_formula_sum   'Pa1 Zn1 Rh2'
_cell_volume   69.27064755
_cell_formula_units_Z   1
loop_
 _symmetry_equiv_pos_site_id
 _symmetry_equiv_pos_as_xyz
  1  'x, y, z'
loop_
 _atom_site_type_symbol
 _atom_site_label
 _atom_site_symmetry_multiplicity
 _atom_site_fract_x
 _atom_site_fract_y
 _atom_site_fract_z
 _atom_site_occupancy
  Pa  Pa0  1  0.25000100  0.25000100  0.25000100  1
  Zn  Zn0  1  0.75000000  0.75000000  0.75000000  1
  Rh  Rh0  1  0.00000000  -0.00000000  -0.00000000  1
  Rh  Rh1  1  0.49999900  0.49999900  0.49999900  1
loop_
_geom_bond_atom_site_label_1
_geom_bond_atom_site_label_2
_geom_bond_distance
_geom_bond_site_symmetry_2
Pa0 Rh1 2.822931 1_555
Pa0 Rh0 2.822950 1_556
Pa0 Rh0 2.822950 1_565
Pa0 Rh0 2.822950 1_655
Pa0 Rh1 2.822961 1_545
Pa0 Rh1 2.822961 1_554
Pa0 Rh1 2.822961 1_455
Pa0 Rh0 2.822965 1_555
Rh0 Zn0 2.822953 1_544
Rh0 Zn0 2.822953 1_445
Rh0 Zn0 2.822953 1_454
Rh0 Zn0 2.822953 1_444
Rh1 Zn0 2.822950 1_554
Rh1 Zn0 2.822950 1_455
Rh1 Zn0 2.822950 1_545
Rh1 Zn0 2.822965 1_555
