# generated using pymatgen
data_LiIn2CuTe4
_symmetry_space_group_name_H-M   'P 1'
_cell_length_a   7.80392216
_cell_length_b   7.80392216
_cell_length_c   7.80392216
_cell_angle_alpha   131.75638926
_cell_angle_beta   131.75638926
_cell_angle_gamma   70.61405676
_symmetry_Int_Tables_number   1
_chemical_formula_structural   LiIn2CuTe4
_chemical_formula_sum   'Li1 In2 Cu1 Te4'
_cell_volume   259.11144653
_cell_formula_units_Z   1
loop_
 _symmetry_equiv_pos_site_id
 _symmetry_equiv_pos_as_xyz
  1  'x, y, z'
loop_
 _atom_site_type_symbol
 _atom_site_label
 _atom_site_symmetry_multiplicity
 _atom_site_fract_x
 _atom_site_fract_y
 _atom_site_fract_z
 _atom_site_occupancy
  Li  Li0  1  0.00000000  0.00000000  0.00000000  1
  In  In0  1  0.75000000  0.25000000  0.50000000  1
  In  In1  1  0.50000000  0.50000000  0.00000000  1
  Cu  Cu0  1  0.25000000  0.75000000  0.50000000  1
  Te  Te0  1  0.13012900  0.09775400  0.48611000  1
  Te  Te1  1  0.61164400  0.64401900  0.51389000  1
  Te  Te2  1  0.35598100  0.86987100  0.96762500  1
  Te  Te3  1  0.90224600  0.38835600  0.03237500  1
loop_
_geom_bond_atom_site_label_1
_geom_bond_atom_site_label_2
_geom_bond_distance
_geom_bond_site_symmetry_2
Li0 Te0 2.744618 1_555
Li0 Te3 2.744618 1_455
Li0 Te2 2.744618 1_544
Li0 Te1 2.744618 1_444
In0 Te0 2.853144 1_655
In0 Te2 2.853144 1_544
In0 Te1 2.853144 1_555
In0 Te3 2.853144 1_556
In1 Te2 2.845709 1_554
In1 Te1 2.845709 1_555
In1 Te3 2.845709 1_555
In1 Te0 2.845709 1_554
Cu0 Te0 2.612128 1_565
Cu0 Te2 2.612128 1_555
Cu0 Te1 2.612128 1_555
Cu0 Te3 2.612128 1_455
