# generated using pymatgen
data_GaPd3
_symmetry_space_group_name_H-M   'P 1'
_cell_length_a   5.56125630
_cell_length_b   5.56125630
_cell_length_c   4.40541860
_cell_angle_alpha   90.00000000
_cell_angle_beta   90.00000000
_cell_angle_gamma   119.99999121
_symmetry_Int_Tables_number   1
_chemical_formula_structural   GaPd3
_chemical_formula_sum   'Ga2 Pd6'
_cell_volume   117.99501855
_cell_formula_units_Z   2
loop_
 _symmetry_equiv_pos_site_id
 _symmetry_equiv_pos_as_xyz
  1  'x, y, z'
loop_
 _atom_site_type_symbol
 _atom_site_label
 _atom_site_symmetry_multiplicity
 _atom_site_fract_x
 _atom_site_fract_y
 _atom_site_fract_z
 _atom_site_occupancy
  Ga  Ga0  1  0.33333300  0.66666700  0.75000000  1
  Ga  Ga1  1  0.66666700  0.33333300  0.25000000  1
  Pd  Pd0  1  0.16863787  0.33727574  0.25000000  1
  Pd  Pd1  1  0.66272426  0.83136213  0.25000000  1
  Pd  Pd2  1  0.16863787  0.83136213  0.25000000  1
  Pd  Pd3  1  0.83136213  0.66272426  0.75000000  1
  Pd  Pd4  1  0.33727574  0.16863787  0.75000000  1
  Pd  Pd5  1  0.83136213  0.16863787  0.75000000  1
loop_
_geom_bond_atom_site_label_1
_geom_bond_atom_site_label_2
_geom_bond_distance
_geom_bond_site_symmetry_2
Ga0 Pd2 2.714519 1_556
Ga0 Pd2 2.714519 1_555
Ga0 Pd0 2.714522 1_556
Ga0 Pd0 2.714522 1_555
Ga0 Pd1 2.714522 1_556
Ga0 Pd1 2.714522 1_555
Ga0 Pd4 2.780690 1_565
Ga0 Pd3 2.780690 1_455
Ga0 Pd5 2.780693 1_455
Ga0 Pd5 2.780693 1_565
Ga0 Pd3 2.780696 1_555
Ga0 Pd4 2.780696 1_555
Ga1 Pd5 2.714519 1_554
Ga1 Pd5 2.714519 1_555
Ga1 Pd4 2.714522 1_555
Ga1 Pd4 2.714522 1_554
Ga1 Pd3 2.714522 1_554
Ga1 Pd3 2.714522 1_555
Ga1 Pd0 2.780690 1_655
Ga1 Pd1 2.780690 1_545
Ga1 Pd2 2.780693 1_545
Ga1 Pd2 2.780693 1_655
Ga1 Pd0 2.780696 1_555
Ga1 Pd1 2.780696 1_555
Pd0 Pd4 2.736887 1_555
Pd0 Pd4 2.736887 1_554
Pd0 Pd5 2.736887 1_454
Pd0 Pd5 2.736887 1_455
Pd0 Pd2 2.747741 1_555
Pd0 Pd1 2.747741 1_555
Pd0 Pd2 2.813515 1_545
Pd0 Pd1 2.813516 1_445
Pd1 Pd3 2.736887 1_555
Pd1 Pd3 2.736887 1_554
Pd1 Pd5 2.736887 1_565
Pd1 Pd5 2.736887 1_564
Pd1 Pd2 2.747741 1_555
Pd1 Pd2 2.813515 1_655
Pd2 Pd4 2.736887 1_565
Pd2 Pd4 2.736887 1_564
Pd2 Pd3 2.736887 1_455
Pd2 Pd3 2.736887 1_454
Pd3 Pd5 2.747741 1_555
Pd3 Pd4 2.747741 1_555
Pd3 Pd5 2.813515 1_565
Pd3 Pd4 2.813516 1_665
Pd4 Pd5 2.747741 1_555
Pd4 Pd5 2.813515 1_455
