# generated using pymatgen
data_MoWSe3S
_symmetry_space_group_name_H-M   'P 1'
_cell_length_a   3.28858152
_cell_length_b   3.28858152
_cell_length_c   37.34337600
_cell_angle_alpha   90.00000000
_cell_angle_beta   90.00000000
_cell_angle_gamma   119.99999034
_symmetry_Int_Tables_number   1
_chemical_formula_structural   MoWSe3S
_chemical_formula_sum   'Mo2 W2 Se6 S2'
_cell_volume   349.75302174
_cell_formula_units_Z   2
loop_
 _symmetry_equiv_pos_site_id
 _symmetry_equiv_pos_as_xyz
  1  'x, y, z'
loop_
 _atom_site_type_symbol
 _atom_site_label
 _atom_site_symmetry_multiplicity
 _atom_site_fract_x
 _atom_site_fract_y
 _atom_site_fract_z
 _atom_site_occupancy
  Mo  Mo0  1  0.00000000  0.00000000  0.09392900  1
  Mo  Mo1  1  0.33333300  0.66666700  0.28179700  1
  W  W0  1  0.00000000  0.00000000  0.46964700  1
  W  W1  1  0.33333300  0.66666700  0.65755200  1
  Se  Se0  1  0.00000000  0.00000000  0.70295300  1
  Se  Se1  1  0.33333300  0.66666700  0.04878900  1
  Se  Se2  1  0.33333300  0.66666700  0.42425200  1
  Se  Se3  1  0.33333300  0.66666700  0.13906200  1
  Se  Se4  1  0.33333300  0.66666700  0.51505100  1
  Se  Se5  1  0.00000000  0.00000000  0.61211800  1
  S  S0  1  0.00000000  0.00000000  0.32287000  1
  S  S1  1  0.00000000  0.00000000  0.24072800  1
loop_
_geom_bond_atom_site_label_1
_geom_bond_atom_site_label_2
_geom_bond_distance
_geom_bond_site_symmetry_2
Mo0 Se3 2.538809 1_545
Mo0 Se3 2.538811 1_555
Mo0 Se3 2.538811 1_445
Mo0 Se1 2.538983 1_545
Mo0 Se1 2.538985 1_445
Mo0 Se1 2.538985 1_555
Mo1 S1 2.440699 1_565
Mo1 S1 2.440702 1_665
Mo1 S1 2.440702 1_555
Mo1 S0 2.440793 1_565
Mo1 S0 2.440796 1_665
Mo1 S0 2.440796 1_555
Se0 W1 2.545464 1_545
Se0 W1 2.545466 1_555
Se0 W1 2.545466 1_445
Se2 W0 2.545315 1_565
Se2 W0 2.545317 1_665
Se2 W0 2.545317 1_555
Se4 W0 2.545539 1_565
Se4 W0 2.545541 1_555
Se4 W0 2.545541 1_665
Se5 W1 2.546285 1_545
Se5 W1 2.546287 1_555
Se5 W1 2.546287 1_445
