# generated using pymatgen
data_Cs2Sb2C4O9F4
_symmetry_space_group_name_H-M   'P 1'
_cell_length_a   8.78397926
_cell_length_b   8.70548338
_cell_length_c   11.58415132
_cell_angle_alpha   102.30838497
_cell_angle_beta   102.48540690
_cell_angle_gamma   64.87997300
_symmetry_Int_Tables_number   1
_chemical_formula_structural   Cs2Sb2C4O9F4
_chemical_formula_sum   'Cs4 Sb4 C8 O18 F8'
_cell_volume   775.65860282
_cell_formula_units_Z   2
loop_
 _symmetry_equiv_pos_site_id
 _symmetry_equiv_pos_as_xyz
  1  'x, y, z'
loop_
 _atom_site_type_symbol
 _atom_site_label
 _atom_site_symmetry_multiplicity
 _atom_site_fract_x
 _atom_site_fract_y
 _atom_site_fract_z
 _atom_site_occupancy
  Cs  Cs0  1  0.33078600  0.89172900  0.12233900  1
  Cs  Cs1  1  0.66921400  0.10827100  0.87766100  1
  Cs  Cs2  1  0.90008700  0.89924100  0.30843200  1
  Cs  Cs3  1  0.09991300  0.10075900  0.69156800  1
  Sb  Sb0  1  0.84846700  0.40299000  0.19382200  1
  Sb  Sb1  1  0.15153300  0.59701000  0.80617800  1
  Sb  Sb2  1  0.60965100  0.66321100  0.69796800  1
  Sb  Sb3  1  0.39034900  0.33678900  0.30203200  1
  C  C0  1  0.77023900  0.43777100  0.45410100  1
  C  C1  1  0.22976200  0.56222900  0.54589900  1
  C  C2  1  0.65387100  0.62271200  0.42211300  1
  C  C3  1  0.34612900  0.37728800  0.57788700  1
  C  C4  1  0.71788300  0.65147300  0.97434500  1
  C  C5  1  0.28211700  0.34852700  0.02565500  1
  C  C6  1  0.81651600  0.46383500  0.92056000  1
  C  C7  1  0.18348400  0.53616500  0.07944000  1
  O  O0  1  0.65831100  0.65333000  0.32189500  1
  O  O1  1  0.34168900  0.34667000  0.67810500  1
  O  O2  1  0.56219200  0.72598000  0.49973100  1
  O  O3  1  0.43780800  0.27402000  0.50026900  1
  O  O4  1  0.83383800  0.32412000  0.36781600  1
  O  O5  1  0.16616200  0.67588000  0.63218400  1
  O  O6  1  0.79231400  0.41142000  0.55976700  1
  O  O7  1  0.20768600  0.58858000  0.44023300  1
  O  O8  1  0.63778300  0.75858700  0.89934200  1
  O  O9  1  0.36221700  0.24141400  0.10065800  1
  O  O10  1  0.72188900  0.68653600  0.08521200  1
  O  O11  1  0.27811100  0.31346400  0.91478800  1
  O  O12  1  0.81935500  0.43408700  0.80909400  1
  O  O13  1  0.18064500  0.56591300  0.19090600  1
  O  O14  1  0.88871800  0.35007900  0.98991900  1
  O  O15  1  0.11128200  0.64992100  0.01008100  1
  O  O16  1  0.74797100  0.02766500  0.57873000  1
  O  O17  1  0.25202900  0.97233500  0.42127000  1
  F  F0  1  0.92523700  0.14686000  0.15365400  1
  F  F1  1  0.07476300  0.85314000  0.84634600  1
  F  F2  1  0.62045000  0.40818300  0.12690500  1
  F  F3  1  0.37955000  0.59181700  0.87309500  1
  F  F4  1  0.46179400  0.91478500  0.71252300  1
  F  F5  1  0.53820600  0.08521500  0.28747700  1
  F  F6  1  0.80152900  0.72797900  0.70844700  1
  F  F7  1  0.19847100  0.27202100  0.29155300  1
loop_
_geom_bond_atom_site_label_1
_geom_bond_atom_site_label_2
_geom_bond_distance
_geom_bond_site_symmetry_2
Cs0 F5 3.088860 1_565
Cs0 O10 3.206108 1_555
Cs0 O9 3.236642 1_565
Cs0 O15 3.321865 1_555
Cs0 F7 3.332397 1_565
Cs0 F0 3.354469 1_465
Cs0 F3 3.421672 1_554
Cs0 O0 3.468211 1_555
Cs0 F1 3.530837 1_554
Cs0 O17 3.542607 1_555
Cs1 F4 3.088860 1_545
Cs1 O11 3.206108 1_555
Cs1 O8 3.236633 1_545
Cs1 O14 3.321865 1_555
Cs1 F6 3.332397 1_545
Cs1 F1 3.354469 1_645
Cs1 F2 3.421672 1_556
Cs1 O1 3.468211 1_555
Cs1 F0 3.530837 1_556
Cs1 O16 3.542607 1_555
Cs2 F5 2.872111 1_565
Cs2 O13 3.168909 1_655
Cs2 F0 3.183359 1_565
Cs2 O7 3.273884 1_655
Cs2 O10 3.351824 1_555
Cs2 O17 3.352446 1_655
Cs2 O4 3.428355 1_565
Cs2 O16 3.447861 1_565
Cs2 O0 3.641873 1_555
Cs3 F4 2.872111 1_545
Cs3 O12 3.168909 1_455
Cs3 F1 3.183359 1_545
Cs3 O6 3.273884 1_455
Cs3 O11 3.351824 1_555
Cs3 O16 3.352446 1_455
Cs3 O5 3.428355 1_545
Cs3 O17 3.447861 1_545
Cs3 O1 3.641873 1_555
C0 O6 1.252137 1_555
C0 O4 1.280855 1_555
C1 O7 1.252136 1_555
C1 O5 1.280857 1_555
C2 O0 1.257252 1_555
C2 O2 1.272379 1_555
C3 O1 1.257252 1_555
C3 O3 1.272379 1_555
C4 O10 1.251511 1_556
C4 O8 1.281996 1_555
C5 O11 1.251511 1_554
C5 O9 1.281991 1_555
C6 O12 1.265250 1_555
C6 O14 1.270488 1_555
C7 O13 1.265250 1_555
C7 O15 1.270488 1_555
O2 Sb2 2.381916 1_555
O3 Sb3 2.381916 1_555
O6 Sb2 2.563323 1_555
O7 Sb3 2.563323 1_555
O8 Sb2 2.300291 1_555
O9 Sb3 2.300289 1_555
O12 Sb2 2.445147 1_555
O13 Sb3 2.445147 1_555
F0 Sb0 2.014868 1_555
F1 Sb1 2.014868 1_555
F2 Sb0 1.970098 1_555
F3 Sb1 1.970098 1_555
F4 Sb2 2.008462 1_555
F5 Sb3 2.008462 1_555
F6 Sb2 1.965351 1_555
F7 Sb3 1.965351 1_555
