# generated using pymatgen
data_Li4TiCr2Ni3(PO4)6
_symmetry_space_group_name_H-M   'P 1'
_cell_length_a   8.52796400
_cell_length_b   8.55232856
_cell_length_c   8.73023463
_cell_angle_alpha   61.20762804
_cell_angle_beta   61.17218564
_cell_angle_gamma   61.75016964
_symmetry_Int_Tables_number   1
_chemical_formula_structural   Li4TiCr2Ni3(PO4)6
_chemical_formula_sum   'Li4 Ti1 Cr2 Ni3 P6 O24'
_cell_volume   464.13328176
_cell_formula_units_Z   1
loop_
 _symmetry_equiv_pos_site_id
 _symmetry_equiv_pos_as_xyz
  1  'x, y, z'
loop_
 _atom_site_type_symbol
 _atom_site_label
 _atom_site_symmetry_multiplicity
 _atom_site_fract_x
 _atom_site_fract_y
 _atom_site_fract_z
 _atom_site_occupancy
  Li  Li0  1  0.63909200  0.85011600  0.25484500  1
  Li  Li1  1  0.35672400  0.14361100  0.69750600  1
  Li  Li2  1  0.14981800  0.69999700  0.36097800  1
  Li  Li3  1  0.70395400  0.36526800  0.15354800  1
  Ti  Ti0  1  0.15030900  0.15288600  0.14979500  1
  Cr  Cr0  1  0.00821200  0.99533500  0.98795800  1
  Cr  Cr1  1  0.49926800  0.49246100  0.51263600  1
  Ni  Ni0  1  0.85316400  0.85177000  0.85663100  1
  Ni  Ni1  1  0.64625800  0.64673200  0.64385400  1
  Ni  Ni2  1  0.35097400  0.35224400  0.35144800  1
  P  P0  1  0.03970400  0.45411800  0.75636800  1
  P  P1  1  0.75079100  0.04294000  0.45238900  1
  P  P2  1  0.45417200  0.76021500  0.04556100  1
  P  P3  1  0.55979200  0.25554300  0.95506300  1
  P  P4  1  0.24969700  0.94962500  0.54763300  1
  P  P5  1  0.95462600  0.55272000  0.25183300  1
  O  O0  1  0.49130000  0.74055000  0.86657600  1
  O  O1  1  0.88886600  0.47689100  0.69652500  1
  O  O2  1  0.74759000  0.09096000  0.93720800  1
  O  O3  1  0.70674400  0.89273200  0.44454300  1
  O  O4  1  0.38811400  0.18624500  0.01717100  1
  O  O5  1  0.55388800  0.41587200  0.77237600  1
  O  O6  1  0.09882400  0.91219200  0.73563300  1
  O  O7  1  0.42074100  0.76923300  0.52350800  1
  O  O8  1  0.98861300  0.59076600  0.84660300  1
  O  O9  1  0.75655500  0.55426300  0.40049200  1
  O  O10  1  0.09289100  0.24027700  0.89692000  1
  O  O11  1  0.81616300  0.97839500  0.61056000  1
  O  O12  1  0.17999400  0.01471400  0.38114400  1
  O  O13  1  0.92731400  0.75045400  0.10088000  1
  O  O14  1  0.23478300  0.45640800  0.58901900  1
  O  O15  1  0.01908400  0.39017900  0.17881300  1
  O  O16  1  0.57877000  0.23345700  0.45741700  1
  O  O17  1  0.89759800  0.10984900  0.25296200  1
  O  O18  1  0.44193800  0.58369600  0.22551100  1
  O  O19  1  0.59510900  0.82678700  0.03947500  1
  O  O20  1  0.30989200  0.10576900  0.52182300  1
  O  O21  1  0.24066500  0.90350500  0.09488600  1
  O  O22  1  0.10255100  0.52375000  0.32061200  1
  O  O23  1  0.53245800  0.31047500  0.11129800  1
loop_
_geom_bond_atom_site_label_1
_geom_bond_atom_site_label_2
_geom_bond_distance
_geom_bond_site_symmetry_2
Li0 O13 2.123447 1_555
Li0 O9 2.179953 1_555
Li0 O19 2.197289 1_555
Li0 O7 2.211746 1_555
Li0 O3 2.215913 1_555
Li0 O2 2.572213 1_564
Li1 O20 1.951378 1_555
Li1 O16 2.137258 1_555
Li1 O10 2.150533 1_555
Li1 O14 2.238431 1_555
Li2 O22 1.944871 1_555
Li2 O18 2.130801 1_555
Li2 O21 2.161512 1_555
Li2 O14 2.189865 1_555
Li3 O23 1.957059 1_555
Li3 O17 2.095986 1_555
Li3 O18 2.168542 1_555
Li3 O16 2.230575 1_555
Cr0 O13 2.134709 1_456
Cr0 O2 2.164465 1_465
Cr0 O10 2.194586 1_565
Cr0 O21 2.241100 1_556
Cr0 O6 2.302708 1_555
Cr0 O17 2.530794 1_466
Cr1 O9 2.140066 1_555
Cr1 O14 2.153354 1_555
Cr1 O7 2.171391 1_555
Cr1 O16 2.211435 1_555
Cr1 O5 2.255437 1_555
Cr1 O18 2.463315 1_555
Ni0 O8 1.993620 1_555
Ni0 O11 1.994135 1_555
Ni0 O6 2.033883 1_655
Ni0 O19 2.040988 1_556
Ni0 O2 2.126497 1_565
Ni0 O13 2.167818 1_556
Ni1 O1 2.007756 1_555
Ni1 O0 2.047444 1_555
Ni1 O5 2.064861 1_555
Ni1 O3 2.086974 1_555
Ni1 O7 2.209323 1_555
Ni1 O9 2.238579 1_555
Ni2 O22 1.984984 1_555
Ni2 O20 1.988685 1_555
Ni2 O23 1.996854 1_555
Ni2 O18 2.064828 1_555
Ni2 O16 2.149737 1_555
Ni2 O14 2.244870 1_555
O0 P2 1.515194 1_556
O1 P0 1.509458 1_655
O2 P3 1.551482 1_555
O3 P1 1.537020 1_565
O4 P3 1.592174 1_554
O4 Ti0 1.870788 1_555
O5 P3 1.527053 1_555
O6 P4 1.516262 1_555
O7 P4 1.561613 1_555
O8 P0 1.499999 1_655
O9 P5 1.555329 1_555
O10 P0 1.626607 1_555
O10 Ti0 2.186036 1_556
O11 P1 1.496368 1_565
O12 P4 1.586321 1_545
O12 Ti0 1.857590 1_555
O13 P5 1.557932 1_555
O14 P0 1.600595 1_555
O15 P5 1.559895 1_455
O15 Ti0 1.872694 1_555
O16 P1 1.597781 1_555
O17 P1 1.594538 1_555
O17 Ti0 2.037371 1_655
O18 P2 1.569858 1_555
O19 P2 1.525979 1_555
O20 P4 1.531373 1_545
O21 P2 1.625552 1_555
O21 Ti0 2.108373 1_565
O22 P5 1.518096 1_455
O23 P3 1.530500 1_554
