# generated using pymatgen
data_TaPd
_symmetry_space_group_name_H-M   'P 1'
_cell_length_a   9.90809264
_cell_length_b   9.90809264
_cell_length_c   9.90809413
_cell_angle_alpha   33.74758936
_cell_angle_beta   33.74758936
_cell_angle_gamma   33.74758921
_symmetry_Int_Tables_number   1
_chemical_formula_structural   TaPd
_chemical_formula_sum   'Ta8 Pd8'
_cell_volume   267.46851138
_cell_formula_units_Z   8
loop_
 _symmetry_equiv_pos_site_id
 _symmetry_equiv_pos_as_xyz
  1  'x, y, z'
loop_
 _atom_site_type_symbol
 _atom_site_label
 _atom_site_symmetry_multiplicity
 _atom_site_fract_x
 _atom_site_fract_y
 _atom_site_fract_z
 _atom_site_occupancy
  Ta  Ta0_0  1  0.25000000  0.25000000  0.25000000  1
  Ta  Ta0_1  1  0.25000000  0.25000000  0.75000000  1
  Ta  Ta0_2  1  0.25000000  0.75000000  0.25000000  1
  Ta  Ta0_3  1  0.25000000  0.75000000  0.75000000  1
  Ta  Ta0_4  1  0.75000000  0.25000000  0.25000000  1
  Ta  Ta0_5  1  0.75000000  0.25000000  0.75000000  1
  Ta  Ta0_6  1  0.75000000  0.75000000  0.25000000  1
  Ta  Ta0_7  1  0.75000000  0.75000000  0.75000000  1
  Pd  Pd0_0  1  0.00000000  0.00000000  0.00000000  1
  Pd  Pd0_1  1  0.00000000  0.00000000  0.50000000  1
  Pd  Pd0_2  1  0.00000000  0.50000000  0.00000000  1
  Pd  Pd0_3  1  0.00000000  0.50000000  0.50000000  1
  Pd  Pd0_4  1  0.50000000  0.00000000  0.00000000  1
  Pd  Pd0_5  1  0.50000000  0.00000000  0.50000000  1
  Pd  Pd0_6  1  0.50000000  0.50000000  0.00000000  1
  Pd  Pd0_7  1  0.50000000  0.50000000  0.50000000  1
loop_
_geom_bond_atom_site_label_1
_geom_bond_atom_site_label_2
_geom_bond_distance
_geom_bond_site_symmetry_2
Ta0_0 Ta0_6 2.875968 1_455
Ta0_0 Ta0_6 2.875968 1_545
Ta0_0 Ta0_3 2.875968 1_554
Ta0_0 Ta0_5 2.875968 1_554
Ta0_0 Ta0_5 2.875968 1_455
Ta0_0 Ta0_3 2.875968 1_545
Ta0_1 Ta0_7 2.875968 1_545
Ta0_1 Ta0_7 2.875968 1_455
Ta0_1 Ta0_2 2.875968 1_555
Ta0_1 Ta0_4 2.875968 1_456
Ta0_1 Ta0_2 2.875968 1_546
Ta0_1 Ta0_4 2.875968 1_555
Ta0_2 Ta0_4 2.875968 1_555
Ta0_2 Ta0_4 2.875968 1_465
Ta0_2 Ta0_7 2.875968 1_455
Ta0_2 Ta0_7 2.875968 1_554
Ta0_3 Ta0_5 2.875968 1_465
Ta0_3 Ta0_5 2.875968 1_555
Ta0_3 Ta0_6 2.875968 1_456
Ta0_3 Ta0_6 2.875968 1_555
Ta0_4 Ta0_7 2.875968 1_545
Ta0_4 Ta0_7 2.875968 1_554
Ta0_5 Ta0_6 2.875968 1_546
Ta0_5 Ta0_6 2.875968 1_555
Pd0_0 Ta0_6 2.864165 1_445
Pd0_0 Ta0_1 2.864165 1_554
Pd0_0 Ta0_5 2.864165 1_454
Pd0_0 Ta0_4 2.864165 1_455
Pd0_0 Ta0_3 2.864165 1_544
Pd0_0 Ta0_2 2.864165 1_545
Pd0_0 Pd0_6 2.875968 1_545
Pd0_0 Pd0_6 2.875968 1_455
Pd0_0 Pd0_5 2.875968 1_554
Pd0_0 Pd0_3 2.875968 1_545
Pd0_0 Pd0_3 2.875968 1_554
Pd0_0 Pd0_5 2.875968 1_455
Pd0_1 Ta0_7 2.864165 1_445
Pd0_1 Ta0_0 2.864165 1_555
Pd0_1 Ta0_3 2.864165 1_545
Pd0_1 Ta0_5 2.864165 1_455
Pd0_1 Ta0_2 2.864165 1_545
Pd0_1 Ta0_4 2.864165 1_455
Pd0_1 Pd0_7 2.875968 1_545
Pd0_1 Pd0_7 2.875968 1_455
Pd0_1 Pd0_2 2.875968 1_546
Pd0_1 Pd0_4 2.875968 1_456
Pd0_1 Pd0_2 2.875968 1_555
Pd0_1 Pd0_4 2.875968 1_555
Pd0_2 Ta0_4 2.864165 1_455
Pd0_2 Ta0_3 2.864165 1_554
Pd0_2 Ta0_7 2.864165 1_454
Pd0_2 Ta0_0 2.864165 1_555
Pd0_2 Ta0_1 2.864165 1_554
Pd0_2 Ta0_6 2.864165 1_455
Pd0_2 Pd0_4 2.875968 1_465
Pd0_2 Pd0_4 2.875968 1_555
Pd0_2 Pd0_7 2.875968 1_455
Pd0_2 Pd0_7 2.875968 1_554
Pd0_3 Ta0_5 2.864165 1_455
Pd0_3 Ta0_2 2.864165 1_555
Pd0_3 Ta0_6 2.864165 1_455
Pd0_3 Ta0_0 2.864165 1_555
Pd0_3 Ta0_1 2.864165 1_555
Pd0_3 Ta0_7 2.864165 1_455
Pd0_3 Pd0_5 2.875968 1_555
Pd0_3 Pd0_5 2.875968 1_465
Pd0_3 Pd0_6 2.875968 1_456
Pd0_3 Pd0_6 2.875968 1_555
Pd0_4 Ta0_5 2.864165 1_554
Pd0_4 Ta0_2 2.864165 1_545
Pd0_4 Ta0_7 2.864165 1_544
Pd0_4 Ta0_1 2.864165 1_554
Pd0_4 Ta0_0 2.864165 1_555
Pd0_4 Ta0_6 2.864165 1_545
Pd0_4 Pd0_7 2.875968 1_545
Pd0_4 Pd0_7 2.875968 1_554
Pd0_5 Ta0_3 2.864165 1_545
Pd0_5 Ta0_4 2.864165 1_555
Pd0_5 Ta0_6 2.864165 1_545
Pd0_5 Ta0_0 2.864165 1_555
Pd0_5 Ta0_1 2.864165 1_555
Pd0_5 Ta0_7 2.864165 1_545
Pd0_5 Pd0_6 2.875968 1_555
Pd0_5 Pd0_6 2.875968 1_546
Pd0_6 Ta0_0 2.864165 1_555
Pd0_6 Ta0_7 2.864165 1_554
Pd0_6 Ta0_3 2.864165 1_554
Pd0_6 Ta0_5 2.864165 1_554
Pd0_6 Ta0_4 2.864165 1_555
Pd0_6 Ta0_2 2.864165 1_555
Pd0_7 Ta0_6 2.864165 1_555
Pd0_7 Ta0_1 2.864165 1_555
Pd0_7 Ta0_3 2.864165 1_555
Pd0_7 Ta0_5 2.864165 1_555
Pd0_7 Ta0_2 2.864165 1_555
Pd0_7 Ta0_4 2.864165 1_555
