# generated using pymatgen
data_Mn4Cr(Co2Ge)5
_symmetry_space_group_name_H-M   'P 1'
_cell_length_a   16.60038451
_cell_length_b   16.60038451
_cell_length_c   16.60038443
_cell_angle_alpha   14.06976591
_cell_angle_beta   14.06976591
_cell_angle_gamma   14.06976635
_symmetry_Int_Tables_number   1
_chemical_formula_structural   Mn4Cr(Co2Ge)5
_chemical_formula_sum   'Mn4 Cr1 Co10 Ge5'
_cell_volume   235.31151391
_cell_formula_units_Z   1
loop_
 _symmetry_equiv_pos_site_id
 _symmetry_equiv_pos_as_xyz
  1  'x, y, z'
loop_
 _atom_site_type_symbol
 _atom_site_label
 _atom_site_symmetry_multiplicity
 _atom_site_fract_x
 _atom_site_fract_y
 _atom_site_fract_z
 _atom_site_occupancy
  Mn  Mn0  1  0.59982300  0.59982300  0.59982300  1
  Mn  Mn1  1  0.19994800  0.19994800  0.19994800  1
  Mn  Mn2  1  0.80005200  0.80005200  0.80005200  1
  Mn  Mn3  1  0.40017700  0.40017700  0.40017700  1
  Cr  Cr0  1  0.00000000  0.00000000  0.00000000  1
  Co  Co0  1  0.05009500  0.05009500  0.05009500  1
  Co  Co1  1  0.85005300  0.85005300  0.85005300  1
  Co  Co2  1  0.45006400  0.45006400  0.45006400  1
  Co  Co3  1  0.65029700  0.65029700  0.65029700  1
  Co  Co4  1  0.25002000  0.25002000  0.25002000  1
  Co  Co5  1  0.34970300  0.34970300  0.34970300  1
  Co  Co6  1  0.14994700  0.14994700  0.14994700  1
  Co  Co7  1  0.74998000  0.74998000  0.74998000  1
  Co  Co8  1  0.94990500  0.94990500  0.94990500  1
  Co  Co9  1  0.54993600  0.54993600  0.54993600  1
  Ge  Ge0  1  0.69975300  0.69975300  0.69975300  1
  Ge  Ge1  1  0.50000000  0.50000000  0.50000000  1
  Ge  Ge2  1  0.10008300  0.10008300  0.10008300  1
  Ge  Ge3  1  0.30024700  0.30024700  0.30024700  1
  Ge  Ge4  1  0.89991700  0.89991700  0.89991700  1
loop_
_geom_bond_atom_site_label_1
_geom_bond_atom_site_label_2
_geom_bond_distance
_geom_bond_site_symmetry_2
Cr0 Ge0 2.858691 1_445
Cr0 Ge3 2.858691 1_554
Cr0 Ge0 2.858691 1_544
Cr0 Ge0 2.858691 1_454
Cr0 Ge3 2.858691 1_545
Cr0 Ge3 2.858691 1_455
Co0 Ge2 2.464440 1_555
Co0 Cr0 2.469715 1_555
Co0 Mn3 2.488612 1_554
Co0 Mn3 2.488612 1_455
Co0 Mn3 2.488612 1_545
Co0 Ge0 2.492894 1_445
Co0 Ge0 2.492894 1_454
Co0 Ge0 2.492894 1_544
Co1 Ge4 2.458327 1_555
Co1 Mn2 2.465081 1_555
Co1 Mn1 2.485568 1_665
Co1 Mn1 2.485568 1_566
Co1 Mn1 2.485568 1_656
Co1 Ge1 2.488138 1_556
Co1 Ge1 2.488138 1_565
Co1 Ge1 2.488138 1_655
Co2 Mn3 2.459461 1_555
Co2 Ge1 2.461876 1_555
Co2 Ge2 2.486964 1_556
Co2 Ge2 2.486964 1_565
Co2 Ge2 2.486964 1_655
Co2 Mn2 2.487078 1_554
Co2 Mn2 2.487078 1_545
Co2 Mn2 2.487078 1_455
Co3 Ge0 2.438212 1_555
Co3 Cr0 2.482475 1_665
Co3 Cr0 2.482475 1_566
Co3 Cr0 2.482475 1_656
Co3 Ge3 2.488089 1_556
Co3 Ge3 2.488089 1_655
Co3 Ge3 2.488089 1_565
Co3 Mn0 2.488400 1_555
Co4 Mn1 2.468581 1_555
Co4 Ge3 2.476223 1_555
Co4 Mn0 2.484082 1_554
Co4 Mn0 2.484082 1_545
Co4 Mn0 2.484082 1_455
Co4 Ge4 2.488956 1_445
Co4 Ge4 2.488956 1_544
Co4 Ge4 2.488956 1_454
Co5 Ge3 2.438212 1_555
Co5 Cr0 2.482475 1_556
Co5 Cr0 2.482475 1_565
Co5 Cr0 2.482475 1_655
Co5 Ge0 2.488089 1_554
Co5 Ge0 2.488089 1_455
Co5 Ge0 2.488089 1_545
Co5 Mn3 2.488400 1_555
Co6 Ge2 2.458327 1_555
Co6 Mn1 2.465081 1_555
Co6 Mn2 2.485568 1_445
Co6 Mn2 2.485568 1_544
Co6 Mn2 2.485568 1_454
Co6 Ge1 2.488138 1_554
Co6 Ge1 2.488138 1_455
Co6 Ge1 2.488138 1_545
Co7 Mn2 2.468581 1_555
Co7 Ge0 2.476223 1_555
Co7 Mn3 2.484082 1_556
Co7 Mn3 2.484082 1_565
Co7 Mn3 2.484082 1_655
Co7 Ge2 2.488956 1_665
Co7 Ge2 2.488956 1_566
Co7 Ge2 2.488956 1_656
Co8 Ge4 2.464440 1_555
Co8 Cr0 2.469715 1_666
Co8 Mn0 2.488612 1_556
Co8 Mn0 2.488612 1_655
Co8 Mn0 2.488612 1_565
Co8 Ge3 2.492894 1_665
Co8 Ge3 2.492894 1_566
Co8 Ge3 2.492894 1_656
Co9 Mn0 2.459461 1_555
Co9 Ge1 2.461876 1_555
Co9 Ge4 2.486964 1_554
Co9 Ge4 2.486964 1_455
Co9 Ge4 2.486964 1_545
Co9 Mn1 2.487078 1_556
Co9 Mn1 2.487078 1_565
Co9 Mn1 2.487078 1_655
Ge0 Mn3 2.877695 1_556
Ge0 Mn3 2.877695 1_565
Ge0 Mn3 2.877695 1_655
Ge1 Mn2 2.864188 1_554
Ge1 Mn1 2.864188 1_556
Ge1 Mn1 2.864188 1_655
Ge1 Mn2 2.864188 1_455
Ge1 Mn1 2.864188 1_565
Ge1 Mn2 2.864188 1_545
Ge2 Mn3 2.863002 1_554
Ge2 Mn3 2.863002 1_545
Ge2 Mn3 2.863002 1_455
Ge2 Mn2 2.864781 1_445
Ge2 Mn2 2.864781 1_454
Ge2 Mn2 2.864781 1_544
Ge3 Mn0 2.877695 1_554
Ge3 Mn0 2.877695 1_455
Ge3 Mn0 2.877695 1_545
Ge4 Mn0 2.863002 1_556
Ge4 Mn0 2.863002 1_655
Ge4 Mn0 2.863002 1_565
Ge4 Mn1 2.864781 1_665
Ge4 Mn1 2.864781 1_566
Ge4 Mn1 2.864781 1_656
