# generated using pymatgen
data_Na3Mn2P2(CO7)2
_symmetry_space_group_name_H-M   'P 1'
_cell_length_a   6.57979400
_cell_length_b   10.25605500
_cell_length_c   10.39814296
_cell_angle_alpha   61.14871885
_cell_angle_beta   90.00000000
_cell_angle_gamma   90.00000000
_symmetry_Int_Tables_number   1
_chemical_formula_structural   Na3Mn2P2(CO7)2
_chemical_formula_sum   'Na6 Mn4 P4 C4 O28'
_cell_volume   614.59726869
_cell_formula_units_Z   2
loop_
 _symmetry_equiv_pos_site_id
 _symmetry_equiv_pos_as_xyz
  1  'x, y, z'
loop_
 _atom_site_type_symbol
 _atom_site_label
 _atom_site_symmetry_multiplicity
 _atom_site_fract_x
 _atom_site_fract_y
 _atom_site_fract_z
 _atom_site_occupancy
  Na  Na0  1  0.22209300  0.75650100  0.24501300  1
  Na  Na1  1  0.77790700  0.75650100  0.74501300  1
  Na  Na2  1  0.74017400  0.23930500  0.25729200  1
  Na  Na3  1  0.25915300  0.23857300  0.25963400  1
  Na  Na4  1  0.74084700  0.23857300  0.75963400  1
  Na  Na5  1  0.25982600  0.23930500  0.75729200  1
  Mn  Mn0  1  0.50240000  0.65523700  0.06664000  1
  Mn  Mn1  1  0.49760000  0.65523700  0.56664000  1
  Mn  Mn2  1  0.99842200  0.35166700  0.43271000  1
  Mn  Mn3  1  0.00157800  0.35166700  0.93271000  1
  P  P0  1  0.99994900  0.57574200  0.06826700  1
  P  P1  1  0.00005100  0.57574200  0.56826700  1
  P  P2  1  0.49793300  0.42758400  0.42904600  1
  P  P3  1  0.50206700  0.42758400  0.92904600  1
  C  C0  1  0.49836000  0.92359600  0.90302100  1
  C  C1  1  0.50164000  0.92359600  0.40302100  1
  C  C2  1  0.00018200  0.07858500  0.59533900  1
  C  C3  1  0.99981800  0.07858500  0.09533900  1
  O  O0  1  0.00028800  0.94255900  0.67347800  1
  O  O1  1  0.99971200  0.94255900  0.17347800  1
  O  O2  1  0.48766300  0.85922900  0.04687400  1
  O  O3  1  0.51233700  0.85922900  0.54687400  1
  O  O4  1  0.50872900  0.82517100  0.85670000  1
  O  O5  1  0.49127100  0.82517100  0.35670000  1
  O  O6  1  0.18762400  0.66840500  0.06230800  1
  O  O7  1  0.81187700  0.67204800  0.05137300  1
  O  O8  1  0.18812300  0.67204800  0.55137300  1
  O  O9  1  0.81237600  0.66840500  0.56230800  1
  O  O10  1  0.00040100  0.53679600  0.43963000  1
  O  O11  1  0.49060600  0.57579800  0.28384500  1
  O  O12  1  0.99959900  0.53679600  0.93963000  1
  O  O13  1  0.50939400  0.57579800  0.78384500  1
  O  O14  1  0.99704600  0.42413000  0.21410300  1
  O  O15  1  0.50137700  0.46096200  0.06207000  1
  O  O16  1  0.00295400  0.42413000  0.71410300  1
  O  O17  1  0.49862300  0.46096200  0.56207000  1
  O  O18  1  0.68592900  0.33180200  0.44015600  1
  O  O19  1  0.31189000  0.32817700  0.44392000  1
  O  O20  1  0.68811000  0.32817700  0.94392000  1
  O  O21  1  0.31407100  0.33180200  0.94015600  1
  O  O22  1  0.99955500  0.17652400  0.64462300  1
  O  O23  1  0.00044500  0.17652400  0.14462300  1
  O  O24  1  0.99977100  0.14892600  0.44925500  1
  O  O25  1  0.00022900  0.14892600  0.94925500  1
  O  O26  1  0.49968600  0.06182600  0.82084200  1
  O  O27  1  0.50031400  0.06182600  0.32084200  1
loop_
_geom_bond_atom_site_label_1
_geom_bond_atom_site_label_2
_geom_bond_distance
_geom_bond_site_symmetry_2
Na0 O1 2.228404 1_455
Na0 O5 2.402288 1_555
Na0 O11 2.448879 1_555
Na0 O6 2.476599 1_555
Na0 O2 2.512630 1_555
Na0 O10 2.626724 1_555
Na0 O8 2.878408 1_555
Na1 O0 2.228404 1_655
Na1 O4 2.402288 1_555
Na1 O13 2.448879 1_555
Na1 O9 2.476599 1_555
Na1 O3 2.512630 1_555
Na1 O12 2.626724 1_555
Na1 O7 2.878408 1_556
Na2 O27 2.253866 1_555
Na2 O23 2.334067 1_655
Na2 O14 2.414538 1_555
Na2 O24 2.444473 1_555
Na2 O18 2.526589 1_555
Na2 O15 2.702575 1_555
Na3 O27 2.257328 1_555
Na3 O23 2.338217 1_555
Na3 O24 2.428209 1_455
Na3 O14 2.439390 1_455
Na3 O19 2.517215 1_555
Na3 O15 2.727750 1_555
Na4 O26 2.257328 1_555
Na4 O22 2.338217 1_555
Na4 O25 2.428209 1_655
Na4 O16 2.439390 1_655
Na4 O20 2.517215 1_555
Na4 O17 2.727750 1_555
Na5 O26 2.253866 1_555
Na5 O22 2.334067 1_455
Na5 O16 2.414538 1_555
Na5 O25 2.444473 1_555
Na5 O21 2.526589 1_555
Na5 O17 2.702575 1_555
Mn0 O11 1.998732 1_555
Mn0 O2 2.003439 1_555
Mn0 O15 2.015866 1_555
Mn0 O4 2.032966 1_554
Mn0 O7 2.043284 1_555
Mn0 O6 2.074634 1_555
Mn1 O13 1.998732 1_555
Mn1 O3 2.003439 1_555
Mn1 O17 2.015866 1_555
Mn1 O5 2.032966 1_555
Mn1 O8 2.043284 1_555
Mn1 O9 2.074634 1_555
Mn2 O10 1.934485 1_655
Mn2 O24 2.002007 1_555
Mn2 O14 2.022148 1_555
Mn2 O18 2.063974 1_555
Mn2 O22 2.064514 1_555
Mn2 O19 2.073321 1_655
Mn3 O12 1.934485 1_455
Mn3 O25 2.002007 1_555
Mn3 O16 2.022148 1_555
Mn3 O21 2.063974 1_555
Mn3 O23 2.064514 1_556
Mn3 O20 2.073321 1_455
C0 O26 1.253394 1_565
C0 O4 1.313340 1_555
C0 O2 1.313474 1_556
C1 O27 1.253394 1_565
C1 O5 1.313340 1_555
C1 O3 1.313474 1_555
C2 O0 1.229841 1_545
C2 O22 1.329799 1_455
C2 O24 1.330509 1_455
C3 O1 1.229841 1_545
C3 O23 1.329799 1_655
C3 O25 1.330509 1_654
O6 P0 1.541127 1_455
O7 P0 1.539592 1_555
O8 P1 1.539592 1_555
O9 P1 1.541127 1_655
O10 P1 1.569810 1_555
O11 P2 1.541962 1_555
O12 P0 1.569810 1_556
O13 P3 1.541962 1_555
O14 P0 1.562737 1_555
O15 P3 1.577158 1_554
O16 P1 1.562737 1_555
O17 P2 1.577158 1_555
O18 P2 1.548850 1_555
O19 P2 1.552306 1_555
O20 P3 1.552306 1_555
O21 P3 1.548850 1_555
