# generated using pymatgen
data_AgSO4
_symmetry_space_group_name_H-M   'P 1'
_cell_length_a   7.87921000
_cell_length_b   10.67746700
_cell_length_c   15.20665156
_cell_angle_alpha   88.62847647
_cell_angle_beta   90.00000000
_cell_angle_gamma   90.00000000
_symmetry_Int_Tables_number   1
_chemical_formula_structural   AgSO4
_chemical_formula_sum   'Ag16 S16 O64'
_cell_volume   1278.96915073
_cell_formula_units_Z   16
loop_
 _symmetry_equiv_pos_site_id
 _symmetry_equiv_pos_as_xyz
  1  'x, y, z'
loop_
 _atom_site_type_symbol
 _atom_site_label
 _atom_site_symmetry_multiplicity
 _atom_site_fract_x
 _atom_site_fract_y
 _atom_site_fract_z
 _atom_site_occupancy
  Ag  Ag0  1  0.49019400  0.34555500  0.88960200  1
  Ag  Ag1  1  0.99019400  0.15444500  0.11039800  1
  Ag  Ag2  1  0.50980600  0.65444500  0.11039800  1
  Ag  Ag3  1  0.00980600  0.84555500  0.88960200  1
  Ag  Ag4  1  0.01066800  0.34705700  0.89389400  1
  Ag  Ag5  1  0.51066800  0.15294300  0.10610600  1
  Ag  Ag6  1  0.98933200  0.65294300  0.10610600  1
  Ag  Ag7  1  0.48933200  0.84705700  0.89389400  1
  Ag  Ag8  1  0.51089800  0.59485200  0.60882800  1
  Ag  Ag9  1  0.01089800  0.90514800  0.39117200  1
  Ag  Ag10  1  0.48910200  0.40514800  0.39117200  1
  Ag  Ag11  1  0.98910200  0.09485200  0.60882800  1
  Ag  Ag12  1  0.99668600  0.59778800  0.61354200  1
  Ag  Ag13  1  0.49668600  0.90221200  0.38645800  1
  Ag  Ag14  1  0.00331400  0.40221200  0.38645800  1
  Ag  Ag15  1  0.50331400  0.09778800  0.61354200  1
  S  S0  1  0.76729400  0.35912900  0.70458600  1
  S  S1  1  0.26729400  0.14087100  0.29541400  1
  S  S2  1  0.23270600  0.64087100  0.29541400  1
  S  S3  1  0.73270600  0.85912900  0.70458600  1
  S  S4  1  0.26156500  0.59951600  0.79762600  1
  S  S5  1  0.76156500  0.90048400  0.20237400  1
  S  S6  1  0.73843500  0.40048400  0.20237400  1
  S  S7  1  0.23843500  0.09951600  0.79762600  1
  S  S8  1  0.75741400  0.59262600  0.92736100  1
  S  S9  1  0.25741400  0.90737400  0.07263900  1
  S  S10  1  0.24258600  0.40737400  0.07263900  1
  S  S11  1  0.74258600  0.09262600  0.92736100  1
  S  S12  1  0.25696800  0.33625600  0.57185700  1
  S  S13  1  0.75696800  0.16374400  0.42814300  1
  S  S14  1  0.74303200  0.66374400  0.42814300  1
  S  S15  1  0.24303200  0.83625600  0.57185700  1
  O  O0  1  0.77200300  0.48293800  0.65150800  1
  O  O1  1  0.27200300  0.01706200  0.34849200  1
  O  O2  1  0.22799700  0.51706200  0.34849200  1
  O  O3  1  0.72799700  0.98293800  0.65150800  1
  O  O4  1  0.76532400  0.25343300  0.64360400  1
  O  O5  1  0.26532400  0.24656700  0.35639600  1
  O  O6  1  0.23467600  0.74656700  0.35639600  1
  O  O7  1  0.73467600  0.75343300  0.64360400  1
  O  O8  1  0.60773200  0.36432600  0.75555300  1
  O  O9  1  0.10773200  0.13567400  0.24444700  1
  O  O10  1  0.39226800  0.63567400  0.24444700  1
  O  O11  1  0.89226800  0.86432600  0.75555300  1
  O  O12  1  0.92452400  0.35136600  0.75814200  1
  O  O13  1  0.42452400  0.14863400  0.24185800  1
  O  O14  1  0.07547600  0.64863400  0.24185800  1
  O  O15  1  0.57547600  0.85136600  0.75814200  1
  O  O16  1  0.26051800  0.71084400  0.85653400  1
  O  O17  1  0.76051800  0.78915600  0.14346600  1
  O  O18  1  0.73948200  0.28915600  0.14346600  1
  O  O19  1  0.23948200  0.21084400  0.85653400  1
  O  O20  1  0.09785800  0.59957000  0.74906100  1
  O  O21  1  0.59785800  0.90043000  0.25093900  1
  O  O22  1  0.90214200  0.40043000  0.25093900  1
  O  O23  1  0.40214200  0.09957000  0.74906100  1
  O  O24  1  0.26795400  0.48088900  0.85231800  1
  O  O25  1  0.76795400  0.01911100  0.14768200  1
  O  O26  1  0.73204600  0.51911100  0.14768200  1
  O  O27  1  0.23204600  0.98088900  0.85231800  1
  O  O28  1  0.41512100  0.61040100  0.74226400  1
  O  O29  1  0.91512100  0.88959900  0.25773600  1
  O  O30  1  0.58487900  0.38959900  0.25773600  1
  O  O31  1  0.08487900  0.11040100  0.74226400  1
  O  O32  1  0.75529200  0.62264700  0.83415400  1
  O  O33  1  0.25529200  0.87735300  0.16584600  1
  O  O34  1  0.24470800  0.37735300  0.16584600  1
  O  O35  1  0.74470800  0.12264700  0.83415400  1
  O  O36  1  0.77586900  0.45508300  0.94777500  1
  O  O37  1  0.27586900  0.04491700  0.05222500  1
  O  O38  1  0.22413100  0.54491700  0.05222500  1
  O  O39  1  0.72413100  0.95508300  0.94777500  1
  O  O40  1  0.90860100  0.66146100  0.96693000  1
  O  O41  1  0.40860100  0.83853900  0.03307000  1
  O  O42  1  0.09139900  0.33853900  0.03307000  1
  O  O43  1  0.59139900  0.16146100  0.96693000  1
  O  O44  1  0.59700600  0.63780100  0.96924900  1
  O  O45  1  0.09700600  0.86219900  0.03075100  1
  O  O46  1  0.40299400  0.36219900  0.03075100  1
  O  O47  1  0.90299400  0.13780100  0.96924900  1
  O  O48  1  0.25371400  0.37203600  0.66300300  1
  O  O49  1  0.75371400  0.12796400  0.33699700  1
  O  O50  1  0.74628600  0.62796400  0.33699700  1
  O  O51  1  0.24628600  0.87203600  0.66300300  1
  O  O52  1  0.09814700  0.37869400  0.52638800  1
  O  O53  1  0.59814700  0.12130600  0.47361200  1
  O  O54  1  0.90185300  0.62130600  0.47361200  1
  O  O55  1  0.40185300  0.87869400  0.52638800  1
  O  O56  1  0.41193300  0.39552500  0.52936400  1
  O  O57  1  0.91193300  0.10447500  0.47063600  1
  O  O58  1  0.58806700  0.60447500  0.47063600  1
  O  O59  1  0.08806700  0.89552500  0.52936400  1
  O  O60  1  0.26844200  0.19467700  0.56260300  1
  O  O61  1  0.76844200  0.30532300  0.43739700  1
  O  O62  1  0.73155800  0.80532300  0.43739700  1
  O  O63  1  0.23155800  0.69467700  0.56260300  1
loop_
_geom_bond_atom_site_label_1
_geom_bond_atom_site_label_2
_geom_bond_distance
_geom_bond_site_symmetry_2
Ag0 O8 2.243548 1_555
Ag0 O46 2.264719 1_556
Ag0 O24 2.331650 1_555
Ag0 O43 2.402451 1_555
Ag0 O19 2.501730 1_555
Ag0 O36 2.695604 1_555
Ag1 O9 2.243548 1_655
Ag1 O47 2.264719 1_554
Ag1 O25 2.331650 1_555
Ag1 O42 2.402451 1_655
Ag1 O18 2.501730 1_555
Ag1 O37 2.695604 1_655
Ag2 O10 2.243548 1_555
Ag2 O44 2.264719 1_554
Ag2 O26 2.331650 1_555
Ag2 O41 2.402451 1_555
Ag2 O17 2.501730 1_555
Ag2 O38 2.695604 1_555
Ag3 O11 2.243548 1_455
Ag3 O45 2.264719 1_556
Ag3 O27 2.331650 1_555
Ag3 O40 2.402451 1_455
Ag3 O16 2.501730 1_555
Ag3 O39 2.695604 1_455
Ag4 O12 2.172496 1_455
Ag4 O42 2.209712 1_556
Ag4 O36 2.338722 1_455
Ag4 O19 2.393319 1_555
Ag4 O24 2.551089 1_555
Ag4 O47 2.627257 1_455
Ag5 O13 2.172496 1_555
Ag5 O43 2.209712 1_554
Ag5 O37 2.338722 1_555
Ag5 O18 2.393319 1_555
Ag5 O25 2.551089 1_555
Ag5 O46 2.627257 1_555
Ag6 O14 2.172496 1_655
Ag6 O40 2.209712 1_554
Ag6 O38 2.338722 1_655
Ag6 O17 2.393319 1_555
Ag6 O26 2.551089 1_555
Ag6 O45 2.627257 1_655
Ag7 O15 2.172496 1_555
Ag7 O41 2.209712 1_556
Ag7 O39 2.338722 1_555
Ag7 O16 2.393319 1_555
Ag7 O27 2.551089 1_555
Ag7 O44 2.627257 1_555
Ag8 O28 2.174969 1_555
Ag8 O58 2.187684 1_555
Ag8 O0 2.458559 1_555
Ag8 O7 2.509671 1_555
Ag8 O63 2.537448 1_555
Ag8 O56 2.592494 1_555
Ag9 O29 2.174969 1_455
Ag9 O59 2.187684 1_555
Ag9 O1 2.458559 1_565
Ag9 O6 2.509671 1_555
Ag9 O62 2.537448 1_455
Ag9 O57 2.592494 1_465
Ag10 O30 2.174969 1_555
Ag10 O56 2.187684 1_555
Ag10 O2 2.458559 1_555
Ag10 O5 2.509671 1_555
Ag10 O61 2.537448 1_555
Ag10 O58 2.592494 1_555
Ag11 O31 2.174969 1_655
Ag11 O57 2.187684 1_555
Ag11 O3 2.458559 1_545
Ag11 O4 2.509671 1_555
Ag11 O60 2.537448 1_655
Ag11 O59 2.592494 1_645
Ag12 O20 2.210102 1_655
Ag12 O0 2.222004 1_555
Ag12 O63 2.248701 1_655
Ag12 O54 2.263541 1_555
Ag13 O21 2.210102 1_555
Ag13 O1 2.222004 1_565
Ag13 O62 2.248701 1_555
Ag13 O55 2.263541 1_555
Ag14 O22 2.210102 1_455
Ag14 O2 2.222004 1_555
Ag14 O61 2.248701 1_455
Ag14 O52 2.263541 1_555
Ag15 O23 2.210102 1_555
Ag15 O3 2.222004 1_545
Ag15 O60 2.248701 1_555
Ag15 O53 2.263541 1_555
O0 S0 1.532764 1_555
O1 S1 1.532764 1_555
O2 S2 1.532764 1_555
O3 S3 1.532764 1_555
O4 S0 1.477818 1_555
O5 S1 1.477818 1_555
O6 S2 1.477818 1_555
O7 S3 1.477818 1_555
O8 S0 1.478658 1_555
O9 S1 1.478658 1_555
O10 S2 1.478658 1_555
O11 S3 1.478658 1_555
O12 S0 1.483794 1_555
O13 S1 1.483794 1_555
O14 S2 1.483794 1_555
O15 S3 1.483794 1_555
O16 S4 1.505489 1_555
O17 S5 1.505489 1_555
O18 S6 1.505489 1_555
O19 S7 1.505489 1_555
O20 S4 1.486329 1_555
O21 S5 1.486329 1_555
O22 S6 1.486329 1_555
O23 S7 1.486329 1_555
O24 S4 1.499389 1_555
O25 S5 1.499389 1_545
O26 S6 1.499389 1_555
O27 S7 1.499389 1_565
O28 S4 1.476966 1_555
O29 S5 1.476966 1_555
O30 S6 1.476966 1_555
O31 S7 1.476966 1_555
O32 S8 1.445755 1_555
O33 S9 1.445755 1_555
O34 S10 1.445755 1_555
O35 S11 1.445755 1_555
O36 S8 1.500834 1_555
O37 S9 1.500834 1_545
O38 S10 1.500834 1_555
O39 S11 1.500834 1_565
O40 S8 1.530512 1_555
O41 S9 1.530512 1_555
O42 S10 1.530512 1_555
O43 S11 1.530512 1_555
O44 S8 1.500175 1_555
O45 S9 1.500175 1_555
O46 S10 1.500175 1_555
O47 S11 1.500175 1_555
O48 S12 1.446730 1_555
O49 S13 1.446730 1_555
O50 S14 1.446730 1_555
O51 S15 1.446730 1_555
O52 S12 1.494780 1_555
O53 S13 1.494780 1_555
O54 S14 1.494780 1_555
O55 S15 1.494780 1_555
O56 S12 1.513044 1_555
O57 S13 1.513044 1_555
O58 S14 1.513044 1_555
O59 S15 1.513044 1_555
O60 S12 1.524274 1_555
O61 S13 1.524274 1_555
O62 S14 1.524274 1_555
O63 S15 1.524274 1_555
