# generated using pymatgen
data_Ba3Dy2WO9
_symmetry_space_group_name_H-M   'P 1'
_cell_length_a   6.10430576
_cell_length_b   8.65448800
_cell_length_c   10.58426483
_cell_angle_alpha   65.86817294
_cell_angle_beta   73.23978302
_cell_angle_gamma   90.00000000
_symmetry_Int_Tables_number   1
_chemical_formula_structural   Ba3Dy2WO9
_chemical_formula_sum   'Ba6 Dy4 W2 O18'
_cell_volume   484.15126059
_cell_formula_units_Z   2
loop_
 _symmetry_equiv_pos_site_id
 _symmetry_equiv_pos_as_xyz
  1  'x, y, z'
loop_
 _atom_site_type_symbol
 _atom_site_label
 _atom_site_symmetry_multiplicity
 _atom_site_fract_x
 _atom_site_fract_y
 _atom_site_fract_z
 _atom_site_occupancy
  Ba  Ba0  1  0.50000000  0.26639400  0.00000000  1
  Ba  Ba1  1  0.83977500  0.57984600  0.32044900  1
  Ba  Ba2  1  0.16022500  0.90029600  0.67955100  1
  Ba  Ba3  1  0.50000000  0.73360600  0.00000000  1
  Ba  Ba4  1  0.83977500  0.09970400  0.32044900  1
  Ba  Ba5  1  0.16022500  0.42015400  0.67955100  1
  Dy  Dy0  1  0.00000000  0.00000000  0.00000000  1
  Dy  Dy1  1  0.32799000  0.32799000  0.34402000  1
  Dy  Dy2  1  0.67201000  0.67201000  0.65598000  1
  Dy  Dy3  1  0.00000000  0.50000000  0.00000000  1
  W  W0  1  0.33418900  0.83418900  0.33162000  1
  W  W1  1  0.66581100  0.16581100  0.66838000  1
  O  O0  1  0.00000000  0.24683700  0.00000000  1
  O  O1  1  0.33042800  0.60178300  0.33914200  1
  O  O2  1  0.66957200  0.94092600  0.66085800  1
  O  O3  1  0.16148700  0.41054400  0.17891200  1
  O  O4  1  0.48929200  0.75969700  0.48060500  1
  O  O5  1  0.81832500  0.08974300  0.82051500  1
  O  O6  1  0.34039800  0.58945600  0.82108800  1
  O  O7  1  0.63883900  0.91025700  0.17948500  1
  O  O8  1  0.96989800  0.24030300  0.51939500  1
  O  O9  1  0.00000000  0.75316300  0.00000000  1
  O  O10  1  0.33042800  0.05907400  0.33914200  1
  O  O11  1  0.66957200  0.39821700  0.66085800  1
  O  O12  1  0.83851300  0.58945600  0.82108800  1
  O  O13  1  0.18167500  0.91025700  0.17948500  1
  O  O14  1  0.51070800  0.24030300  0.51939500  1
  O  O15  1  0.65960200  0.41054400  0.17891200  1
  O  O16  1  0.03010200  0.75969700  0.48060500  1
  O  O17  1  0.36116100  0.08974300  0.82051500  1
loop_
_geom_bond_atom_site_label_1
_geom_bond_atom_site_label_2
_geom_bond_distance
_geom_bond_site_symmetry_2
Ba0 O3 3.014491 1_555
Ba0 O12 3.014491 1_554
Ba0 O15 3.014494 1_555
Ba0 O6 3.014494 1_554
Ba0 O0 3.056842 1_555
Ba0 O0 3.056842 1_655
Ba0 O11 3.125151 1_554
Ba0 O10 3.125152 1_555
Ba0 O17 3.157194 1_554
Ba0 O5 3.157197 1_554
Ba0 O7 3.157200 1_545
Ba0 O13 3.157203 1_545
Ba1 O15 2.888899 1_555
Ba1 O3 2.888905 1_655
Ba1 O9 2.938904 1_655
Ba1 O1 3.068920 1_655
Ba1 O1 3.068926 1_555
Ba1 O7 3.078052 1_555
Ba1 O13 3.078052 1_655
Ba1 O14 3.099214 1_555
Ba1 O8 3.099219 1_555
Ba1 O11 3.121206 1_555
Ba1 O4 3.152668 1_555
Ba1 O16 3.152668 1_655
Ba2 O6 2.888905 1_555
Ba2 O12 2.888911 1_455
Ba2 O9 2.938903 1_556
Ba2 O2 3.068920 1_455
Ba2 O2 3.068926 1_555
Ba2 O5 3.078052 1_465
Ba2 O17 3.078052 1_565
Ba2 O4 3.099225 1_555
Ba2 O16 3.099231 1_555
Ba2 O10 3.121207 1_565
Ba2 O14 3.152668 1_565
Ba2 O8 3.152668 1_465
Ba3 O3 3.014491 1_555
Ba3 O12 3.014491 1_554
Ba3 O15 3.014494 1_555
Ba3 O6 3.014494 1_554
Ba3 O9 3.056842 1_555
Ba3 O9 3.056842 1_655
Ba3 O1 3.125151 1_555
Ba3 O2 3.125152 1_554
Ba3 O7 3.157194 1_555
Ba3 O13 3.157197 1_555
Ba3 O17 3.157200 1_564
Ba3 O5 3.157203 1_564
Ba4 O15 2.888905 1_555
Ba4 O3 2.888911 1_655
Ba4 O0 2.938903 1_655
Ba4 O10 3.068920 1_655
Ba4 O10 3.068926 1_555
Ba4 O7 3.078052 1_545
Ba4 O13 3.078052 1_645
Ba4 O14 3.099225 1_555
Ba4 O8 3.099231 1_555
Ba4 O2 3.121207 1_545
Ba4 O4 3.152668 1_545
Ba4 O16 3.152668 1_645
Ba5 O6 2.888899 1_555
Ba5 O12 2.888905 1_455
Ba5 O0 2.938904 1_556
Ba5 O11 3.068920 1_455
Ba5 O11 3.068926 1_555
Ba5 O17 3.078052 1_555
Ba5 O5 3.078052 1_455
Ba5 O4 3.099214 1_555
Ba5 O16 3.099219 1_555
Ba5 O1 3.121206 1_555
Ba5 O14 3.152668 1_555
Ba5 O8 3.152668 1_455
Dy0 O0 2.136248 1_555
Dy0 O9 2.136248 1_545
Dy0 O13 2.334659 1_545
Dy0 O5 2.334659 1_454
Dy0 O17 2.334664 1_554
Dy0 O7 2.334664 1_445
Dy1 O3 2.144968 1_555
Dy1 O15 2.144972 1_555
Dy1 O8 2.303843 1_455
Dy1 O14 2.303847 1_555
Dy1 O1 2.348855 1_555
Dy1 O10 2.348864 1_555
Dy2 O12 2.144968 1_555
Dy2 O6 2.144972 1_555
Dy2 O16 2.303843 1_655
Dy2 O4 2.303847 1_555
Dy2 O11 2.348855 1_555
Dy2 O2 2.348864 1_555
Dy3 O9 2.190996 1_555
Dy3 O0 2.190996 1_555
Dy3 O15 2.243846 1_455
Dy3 O6 2.243846 1_554
Dy3 O3 2.243850 1_555
Dy3 O12 2.243850 1_454
O1 W0 1.980006 1_555
O2 W1 1.980014 1_565
O4 W0 1.956645 1_555
O5 W1 1.972514 1_555
O7 W0 1.972518 1_555
O8 W1 1.956640 1_555
O10 W0 1.980014 1_545
O11 W1 1.980006 1_555
O13 W0 1.972514 1_555
O14 W1 1.956645 1_555
O16 W0 1.956640 1_555
O17 W1 1.972518 1_555
