# generated using pymatgen
data_BaSrNiWO6
_symmetry_space_group_name_H-M   'P 1'
_cell_length_a   5.73439911
_cell_length_b   5.73435315
_cell_length_c   9.93214120
_cell_angle_alpha   73.22091339
_cell_angle_beta   90.00004487
_cell_angle_gamma   59.99966144
_symmetry_Int_Tables_number   1
_chemical_formula_structural   BaSrNiWO6
_chemical_formula_sum   'Ba2 Sr2 Ni2 W2 O12'
_cell_volume   266.66530259
_cell_formula_units_Z   2
loop_
 _symmetry_equiv_pos_site_id
 _symmetry_equiv_pos_as_xyz
  1  'x, y, z'
loop_
 _atom_site_type_symbol
 _atom_site_label
 _atom_site_symmetry_multiplicity
 _atom_site_fract_x
 _atom_site_fract_y
 _atom_site_fract_z
 _atom_site_occupancy
  Ba  Ba0  1  0.12500000  0.75000000  0.37500100  1
  Ba  Ba1  1  0.62500000  0.75000200  0.87499900  1
  Sr  Sr0  1  0.37499900  0.25000100  0.12500000  1
  Sr  Sr1  1  0.87500100  0.25000000  0.62500100  1
  Ni  Ni0  1  0.25000300  0.50000400  0.74999900  1
  Ni  Ni1  1  0.74999800  0.49999600  0.25000300  1
  W  W0  1  0.50000100  0.99999800  0.50000300  1
  W  W1  1  0.99999900  0.00000300  0.99999600  1
  O  O0  1  0.13849400  0.24100500  0.37949600  1
  O  O1  1  0.63849300  0.24100400  0.87949800  1
  O  O2  1  0.62050100  0.24100400  0.37949700  1
  O  O3  1  0.12050200  0.24100600  0.87949700  1
  O  O4  1  0.62050100  0.75899900  0.37950000  1
  O  O5  1  0.12050100  0.75899700  0.87949900  1
  O  O6  1  0.87949900  0.75899400  0.12050000  1
  O  O7  1  0.37949900  0.75899500  0.62050300  1
  O  O8  1  0.87950000  0.24100200  0.12050000  1
  O  O9  1  0.37949800  0.24100300  0.62050300  1
  O  O10  1  0.36150600  0.75899500  0.12050000  1
  O  O11  1  0.86150800  0.75899300  0.62050400  1
loop_
_geom_bond_atom_site_label_1
_geom_bond_atom_site_label_2
_geom_bond_distance
_geom_bond_site_symmetry_2
Ba0 O9 2.868074 1_555
Ba0 O8 2.868083 1_465
Ba0 O2 2.868099 1_465
Ba0 O7 2.868100 1_555
Ba0 O0 2.868102 1_565
Ba0 O2 2.868103 1_555
Ba0 O11 2.868104 1_455
Ba0 O0 2.868106 1_555
Ba0 O4 2.868125 1_455
Ba0 O10 2.868126 1_555
Ba0 O6 2.868126 1_455
Ba0 O4 2.868131 1_555
Ba1 O9 2.868051 1_565
Ba1 O8 2.868078 1_556
Ba1 O11 2.868079 1_555
Ba1 O6 2.868082 1_556
Ba1 O7 2.868086 1_555
Ba1 O10 2.868093 1_556
Ba1 O1 2.868094 1_565
Ba1 O3 2.868100 1_655
Ba1 O3 2.868102 1_565
Ba1 O1 2.868115 1_555
Ba1 O5 2.868119 1_655
Ba1 O5 2.868136 1_555
Ni0 O7 2.100316 1_555
Ni0 O1 2.100336 1_555
Ni0 O11 2.100340 1_455
Ni0 O5 2.100357 1_555
Ni0 O9 2.100357 1_555
Ni0 O3 2.100372 1_555
Ni1 O2 2.100316 1_555
Ni1 O0 2.100336 1_655
Ni1 O10 2.100360 1_555
Ni1 O4 2.100373 1_555
Ni1 O8 2.100385 1_555
Ni1 O6 2.100393 1_555
O0 W0 1.954465 1_545
O0 Sr0 2.868079 1_555
O0 Sr1 2.868124 1_455
O1 W1 1.954425 1_555
O1 Sr1 2.868096 1_555
O1 Sr0 2.868102 1_556
O2 W0 1.954460 1_545
O2 Sr0 2.868086 1_555
O2 Sr1 2.868123 1_555
O3 W1 1.954432 1_455
O3 Sr1 2.868083 1_455
O3 Sr0 2.868102 1_556
O4 W0 1.954433 1_555
O4 Sr1 2.868075 1_555
O4 Sr0 2.868077 1_565
O5 W1 1.954413 1_465
O5 Sr0 2.868066 1_556
O5 Sr1 2.868068 1_465
O6 W1 1.954465 1_564
O6 Sr0 2.868080 1_655
O6 Sr0 2.868122 1_565
O7 W0 1.954432 1_555
O7 Sr1 2.868097 1_555
O7 Sr1 2.868105 1_465
O8 W1 1.954441 1_554
O8 Sr0 2.868120 1_655
O8 Sr0 2.868137 1_555
O9 W0 1.954433 1_545
O9 Sr1 2.868119 1_455
O9 Sr1 2.868136 1_555
O10 W1 1.954453 1_464
O10 Sr0 2.868089 1_555
O10 Sr0 2.868120 1_565
O11 W0 1.954441 1_555
O11 Sr1 2.868092 1_555
O11 Sr1 2.868117 1_565
