# generated using pymatgen
data_LiFePCO7
_symmetry_space_group_name_H-M   'P 1'
_cell_length_a   5.12281025
_cell_length_b   6.31467068
_cell_length_c   8.69266298
_cell_angle_alpha   94.67444337
_cell_angle_beta   88.47375163
_cell_angle_gamma   92.33578919
_symmetry_Int_Tables_number   1
_chemical_formula_structural   LiFePCO7
_chemical_formula_sum   'Li2 Fe2 P2 C2 O14'
_cell_volume   279.95281645
_cell_formula_units_Z   2
loop_
 _symmetry_equiv_pos_site_id
 _symmetry_equiv_pos_as_xyz
  1  'x, y, z'
loop_
 _atom_site_type_symbol
 _atom_site_label
 _atom_site_symmetry_multiplicity
 _atom_site_fract_x
 _atom_site_fract_y
 _atom_site_fract_z
 _atom_site_occupancy
  Li  Li0  1  0.70404100  0.11746700  0.27125400  1
  Li  Li1  1  0.18306400  0.60104000  0.81781900  1
  Fe  Fe0  1  0.10839900  0.84998800  0.38309900  1
  Fe  Fe1  1  0.69454900  0.37097300  0.67613500  1
  P  P0  1  0.20102400  0.36609500  0.45525000  1
  P  P1  1  0.58588200  0.86964700  0.61056200  1
  C  C0  1  0.61965400  0.38221900  0.98316000  1
  C  C1  1  0.20828700  0.87412600  0.09748900  1
  O  O0  1  0.97683700  0.84717300  0.16076900  1
  O  O1  1  0.39718400  0.89763700  0.19425700  1
  O  O2  1  0.62924600  0.32750000  0.11901800  1
  O  O3  1  0.06373000  0.16895200  0.37176100  1
  O  O4  1  0.18460000  0.55137500  0.35290300  1
  O  O5  1  0.49156800  0.31934300  0.48561300  1
  O  O6  1  0.74687800  0.83739700  0.45778600  1
  O  O7  1  0.05971100  0.42245800  0.61536600  1
  O  O8  1  0.29430900  0.89500900  0.57054000  1
  O  O9  1  0.68238200  0.06981500  0.70935900  1
  O  O10  1  0.59468800  0.67279200  0.70566600  1
  O  O11  1  0.23442800  0.87130500  0.95336300  1
  O  O12  1  0.40302500  0.39177100  0.91317500  1
  O  O13  1  0.83055900  0.42444400  0.90382000  1
loop_
_geom_bond_atom_site_label_1
_geom_bond_atom_site_label_2
_geom_bond_distance
_geom_bond_site_symmetry_2
Li0 O2 2.002891 1_555
Li0 O3 2.062735 1_655
Li0 O1 2.138406 1_545
Li0 O0 2.375778 1_545
Li0 O5 2.428948 1_555
Li0 O6 2.514565 1_545
Li1 O11 2.005556 1_555
Li1 O12 2.013137 1_555
Li1 O7 2.108502 1_555
Li1 O13 2.227827 1_455
Li1 O10 2.342401 1_555
Fe0 O8 1.904670 1_555
Fe0 O4 1.936698 1_555
Fe0 O6 1.946817 1_455
Fe0 O3 2.046952 1_565
Fe0 O0 2.062148 1_455
Fe0 O1 2.211027 1_555
Fe1 O9 1.944918 1_555
Fe1 O7 1.951889 1_655
Fe1 O5 1.976476 1_555
Fe1 O10 1.988151 1_555
Fe1 O13 2.112351 1_555
Fe1 O12 2.510222 1_555
C0 O2 1.259951 1_556
C0 O12 1.285566 1_555
C0 O13 1.296482 1_555
C1 O11 1.255179 1_554
C1 O1 1.295113 1_555
C1 O0 1.304392 1_455
O3 P0 1.542628 1_555
O4 P0 1.532681 1_555
O5 P0 1.562563 1_555
O6 P1 1.548101 1_555
O7 P0 1.573063 1_555
O8 P1 1.560129 1_555
O9 P1 1.540900 1_545
O10 P1 1.550731 1_555
