# generated using pymatgen
data_Ba10Ca5Cu10Hg5O31
_symmetry_space_group_name_H-M   'P 1'
_cell_length_a   8.62503600
_cell_length_b   8.62686707
_cell_length_c   13.41503570
_cell_angle_alpha   97.36160204
_cell_angle_beta   104.86798402
_cell_angle_gamma   90.00714631
_symmetry_Int_Tables_number   1
_chemical_formula_structural   Ba10Ca5Cu10Hg5O31
_chemical_formula_sum   'Ba10 Ca5 Cu10 Hg5 O31'
_cell_volume   956.23439062
_cell_formula_units_Z   1
loop_
 _symmetry_equiv_pos_site_id
 _symmetry_equiv_pos_as_xyz
  1  'x, y, z'
loop_
 _atom_site_type_symbol
 _atom_site_label
 _atom_site_symmetry_multiplicity
 _atom_site_fract_x
 _atom_site_fract_y
 _atom_site_fract_z
 _atom_site_occupancy
  Ba  Ba0  1  0.41628600  0.45819100  0.79089400  1
  Ba  Ba1  1  0.60983900  0.05614400  0.77856900  1
  Ba  Ba2  1  0.01179100  0.25730400  0.77849100  1
  Ba  Ba3  1  0.21300300  0.85536100  0.77849000  1
  Ba  Ba4  1  0.81107500  0.65404200  0.77842100  1
  Ba  Ba5  1  0.18892500  0.34595800  0.22157900  1
  Ba  Ba6  1  0.39016100  0.94385600  0.22143100  1
  Ba  Ba7  1  0.78699700  0.14463900  0.22151000  1
  Ba  Ba8  1  0.98820900  0.74269600  0.22150900  1
  Ba  Ba9  1  0.58371400  0.54180900  0.20910600  1
  Ca  Ca0  1  0.30034000  0.40051000  0.50155200  1
  Ca  Ca1  1  0.50000000  0.00000000  0.50000000  1
  Ca  Ca2  1  0.89965900  0.19990600  0.50001600  1
  Ca  Ca3  1  0.10034100  0.80009400  0.49998400  1
  Ca  Ca4  1  0.69966000  0.59949000  0.49844800  1
  Cu  Cu0  1  0.44858700  0.72306200  0.62145900  1
  Cu  Cu1  1  0.64760900  0.32457200  0.62137000  1
  Cu  Cu2  1  0.04949600  0.52412000  0.62129600  1
  Cu  Cu3  1  0.24880700  0.12549900  0.62147000  1
  Cu  Cu4  1  0.84826000  0.92417700  0.62069400  1
  Cu  Cu5  1  0.35239100  0.67542800  0.37863000  1
  Cu  Cu6  1  0.55141300  0.27693800  0.37854100  1
  Cu  Cu7  1  0.95050400  0.47588000  0.37870400  1
  Cu  Cu8  1  0.15174000  0.07582300  0.37930600  1
  Cu  Cu9  1  0.75119300  0.87450100  0.37853000  1
  Hg  Hg0  1  0.21001000  0.59680000  0.00002400  1
  Hg  Hg1  1  0.40317600  0.21001700  0.00002600  1
  Hg  Hg2  1  0.78999000  0.40320000  0.99997600  1
  Hg  Hg3  1  0.00000000  0.00000000  0.00000000  1
  Hg  Hg4  1  0.59682400  0.78998300  0.99997400  1
  O  O0  1  0.53901800  0.77373100  0.84174900  1
  O  O1  1  0.74207500  0.36620800  0.84175200  1
  O  O2  1  0.13134400  0.57064000  0.84176800  1
  O  O3  1  0.33451300  0.16305000  0.84177000  1
  O  O4  1  0.93785800  0.96898500  0.84454300  1
  O  O5  1  0.25792500  0.63379200  0.15824800  1
  O  O6  1  0.46098200  0.22626900  0.15825100  1
  O  O7  1  0.86865600  0.42936000  0.15823200  1
  O  O8  1  0.06214200  0.03101500  0.15545700  1
  O  O9  1  0.66548700  0.83695000  0.15823000  1
  O  O10  1  0.24792800  0.62610900  0.62152300  1
  O  O11  1  0.44964400  0.22297400  0.62146500  1
  O  O12  1  0.84900200  0.42421400  0.62221000  1
  O  O13  1  0.04884800  0.02418800  0.62238900  1
  O  O14  1  0.64876800  0.82480700  0.62244800  1
  O  O15  1  0.54996900  0.52538300  0.62145100  1
  O  O16  1  0.74922000  0.12454300  0.62235300  1
  O  O17  1  0.14697500  0.32333800  0.62148200  1
  O  O18  1  0.34885500  0.92411900  0.62202300  1
  O  O19  1  0.94863100  0.72476900  0.62231800  1
  O  O20  1  0.15099800  0.57578600  0.37779000  1
  O  O21  1  0.35123200  0.17519300  0.37755200  1
  O  O22  1  0.75207200  0.37389100  0.37847700  1
  O  O23  1  0.95115200  0.97581200  0.37761100  1
  O  O24  1  0.55035600  0.77702600  0.37853500  1
  O  O25  1  0.45003100  0.47461700  0.37854900  1
  O  O26  1  0.65114500  0.07588100  0.37797700  1
  O  O27  1  0.05136900  0.27523100  0.37768200  1
  O  O28  1  0.25078000  0.87545700  0.37764700  1
  O  O29  1  0.85302500  0.67666200  0.37851800  1
  O  O30  1  0.50000000  0.50000000  0.00000000  1
loop_
_geom_bond_atom_site_label_1
_geom_bond_atom_site_label_2
_geom_bond_distance
_geom_bond_site_symmetry_2
Ba0 O30 2.687305 1_556
Ba0 O3 2.852717 1_555
Ba0 O2 2.852804 1_555
Ba0 O1 2.854189 1_555
Ba0 O0 2.854594 1_555
Ba0 O15 2.918025 1_555
Ba0 O11 2.918948 1_555
Ba0 O10 2.918968 1_555
Ba0 O17 2.920032 1_555
Ba1 O11 2.775900 1_555
Ba1 O18 2.781181 1_545
Ba1 O14 2.787817 1_545
Ba1 O16 2.791897 1_555
Ba1 O0 2.796732 1_545
Ba1 O3 2.835841 1_555
Ba1 O1 2.845413 1_555
Ba1 O4 2.870363 1_545
Ba2 O17 2.772733 1_555
Ba2 O12 2.775532 1_455
Ba2 O16 2.788927 1_455
Ba2 O13 2.792178 1_555
Ba2 O1 2.797133 1_455
Ba2 O2 2.837733 1_555
Ba2 O3 2.845073 1_555
Ba2 O4 2.869279 1_445
Ba3 O10 2.773922 1_555
Ba3 O18 2.776993 1_555
Ba3 O13 2.787769 1_565
Ba3 O19 2.792991 1_455
Ba3 O3 2.798231 1_565
Ba3 O0 2.837580 1_555
Ba3 O2 2.844384 1_555
Ba3 O4 2.869656 1_455
Ba4 O15 2.775723 1_555
Ba4 O12 2.777903 1_555
Ba4 O19 2.787030 1_555
Ba4 O14 2.791998 1_555
Ba4 O2 2.796932 1_655
Ba4 O1 2.835755 1_555
Ba4 O0 2.844780 1_555
Ba4 O4 2.872002 1_555
Ba5 O25 2.775723 1_555
Ba5 O20 2.777903 1_555
Ba5 O27 2.787030 1_555
Ba5 O21 2.791998 1_555
Ba5 O7 2.796932 1_455
Ba5 O5 2.835755 1_555
Ba5 O6 2.844780 1_555
Ba5 O8 2.872002 1_555
Ba6 O24 2.775900 1_555
Ba6 O26 2.781181 1_565
Ba6 O21 2.787817 1_565
Ba6 O28 2.791897 1_555
Ba6 O6 2.796732 1_565
Ba6 O9 2.835841 1_555
Ba6 O5 2.845413 1_555
Ba6 O8 2.870363 1_565
Ba7 O22 2.773922 1_555
Ba7 O26 2.776993 1_555
Ba7 O23 2.787769 1_545
Ba7 O27 2.792991 1_655
Ba7 O9 2.798231 1_545
Ba7 O6 2.837580 1_555
Ba7 O7 2.844384 1_555
Ba7 O8 2.869656 1_655
Ba8 O29 2.772733 1_555
Ba8 O20 2.775532 1_655
Ba8 O28 2.788927 1_655
Ba8 O23 2.792178 1_555
Ba8 O5 2.797133 1_655
Ba8 O7 2.837733 1_555
Ba8 O9 2.845073 1_555
Ba8 O8 2.869279 1_665
Ba9 O30 2.687305 1_555
Ba9 O9 2.852717 1_555
Ba9 O7 2.852804 1_555
Ba9 O5 2.854189 1_555
Ba9 O6 2.854594 1_555
Ba9 O25 2.918025 1_555
Ba9 O24 2.918948 1_555
Ba9 O22 2.918968 1_555
Ba9 O29 2.920032 1_555
Ca0 O17 2.479482 1_555
Ca0 O10 2.480568 1_555
Ca0 O11 2.482043 1_555
Ca0 O15 2.482227 1_555
Ca0 O25 2.482309 1_555
Ca0 O20 2.499678 1_555
Ca0 O27 2.499718 1_555
Ca0 O21 2.506869 1_555
Ca1 O24 2.470638 1_545
Ca1 O11 2.470638 1_555
Ca1 O18 2.485371 1_545
Ca1 O26 2.485371 1_555
Ca1 O21 2.486758 1_555
Ca1 O14 2.486758 1_545
Ca1 O28 2.491153 1_545
Ca1 O16 2.491153 1_555
Ca2 O22 2.468622 1_555
Ca2 O17 2.471889 1_655
Ca2 O16 2.483088 1_555
Ca2 O26 2.483770 1_555
Ca2 O12 2.485437 1_555
Ca2 O23 2.488370 1_545
Ca2 O27 2.490541 1_655
Ca2 O13 2.490547 1_655
Ca3 O10 2.468622 1_555
Ca3 O29 2.471889 1_455
Ca3 O28 2.483088 1_555
Ca3 O18 2.483770 1_555
Ca3 O20 2.485437 1_555
Ca3 O13 2.488370 1_565
Ca3 O19 2.490541 1_455
Ca3 O23 2.490547 1_455
Ca4 O29 2.479482 1_555
Ca4 O22 2.480568 1_555
Ca4 O24 2.482043 1_555
Ca4 O25 2.482227 1_555
Ca4 O15 2.482309 1_555
Ca4 O12 2.499678 1_555
Ca4 O19 2.499718 1_555
Ca4 O14 2.506869 1_555
Cu0 O15 1.916562 1_555
Cu0 O10 1.922354 1_555
Cu0 O14 1.933009 1_555
Cu0 O18 1.936182 1_555
Cu1 O11 1.919541 1_555
Cu1 O15 1.926310 1_555
Cu1 O12 1.934782 1_555
Cu1 O16 1.935537 1_555
Cu2 O10 1.923428 1_555
Cu2 O17 1.925491 1_555
Cu2 O12 1.935605 1_455
Cu2 O19 1.937448 1_455
Cu3 O17 1.919564 1_555
Cu3 O11 1.925471 1_555
Cu3 O13 1.936943 1_555
Cu3 O18 1.939899 1_545
Cu4 O19 1.926014 1_555
Cu4 O13 1.926783 1_665
Cu4 O16 1.928284 1_565
Cu4 O14 1.929136 1_555
Cu5 O24 1.919541 1_555
Cu5 O25 1.926310 1_555
Cu5 O20 1.934782 1_555
Cu5 O28 1.935537 1_555
Cu6 O25 1.916562 1_555
Cu6 O22 1.922354 1_555
Cu6 O21 1.933009 1_555
Cu6 O26 1.936182 1_555
Cu7 O22 1.923428 1_555
Cu7 O29 1.925491 1_555
Cu7 O20 1.935605 1_655
Cu7 O27 1.937448 1_655
Cu8 O27 1.926014 1_555
Cu8 O23 1.926783 1_445
Cu8 O28 1.928284 1_545
Cu8 O21 1.929136 1_555
Cu9 O29 1.919564 1_555
Cu9 O24 1.925471 1_555
Cu9 O23 1.936943 1_555
Cu9 O26 1.939899 1_565
Hg0 O5 2.038185 1_555
Hg0 O2 2.038730 1_554
Hg0 O30 2.637062 1_555
Hg1 O6 2.038202 1_555
Hg1 O3 2.038712 1_554
Hg1 O30 2.637326 1_555
Hg2 O1 2.038185 1_555
Hg2 O7 2.038730 1_556
Hg2 O30 2.637062 1_556
Hg3 O4 1.997840 1_444
Hg3 O8 1.997840 1_555
Hg4 O0 2.038202 1_555
Hg4 O9 2.038712 1_556
Hg4 O30 2.637326 1_556
