# generated using pymatgen
data_Zr4(B5Ir4)3
_symmetry_space_group_name_H-M   'P 1'
_cell_length_a   3.53841148
_cell_length_b   7.54848907
_cell_length_c   13.08780015
_cell_angle_alpha   90.06011745
_cell_angle_beta   90.02878940
_cell_angle_gamma   90.01452888
_symmetry_Int_Tables_number   1
_chemical_formula_structural   Zr4(B5Ir4)3
_chemical_formula_sum   'Zr4 B15 Ir12'
_cell_volume   349.57044930
_cell_formula_units_Z   1
loop_
 _symmetry_equiv_pos_site_id
 _symmetry_equiv_pos_as_xyz
  1  'x, y, z'
loop_
 _atom_site_type_symbol
 _atom_site_label
 _atom_site_symmetry_multiplicity
 _atom_site_fract_x
 _atom_site_fract_y
 _atom_site_fract_z
 _atom_site_occupancy
  Zr  Zr0  1  0.25135581  0.49962716  0.83096779  1
  Zr  Zr1  1  0.25339435  0.00091540  0.33563960  1
  Zr  Zr2  1  0.74660565  0.99908460  0.66436040  1
  Zr  Zr3  1  0.74864419  0.50037284  0.16903221  1
  B  B0  1  0.50000000  -0.00000000  0.00000000  1
  B  B1  1  0.50000000  0.50000000  0.50000000  1
  B  B2  1  0.00000000  -0.00000000  0.00000000  1
  B  B3  1  0.76323037  0.32648416  0.72210204  1
  B  B4  1  0.75650732  0.82596843  0.22508619  1
  B  B5  1  0.75500088  0.75066037  0.79926726  1
  B  B6  1  0.76467422  0.25237783  0.30368333  1
  B  B7  1  0.74967522  0.42359549  0.97496830  1
  B  B8  1  0.77360716  0.92050950  0.47552324  1
  B  B9  1  0.24349268  0.17403157  0.77491381  1
  B  B10  1  0.23676963  0.67351584  0.27789796  1
  B  B11  1  0.23532578  0.74762217  0.69631667  1
  B  B12  1  0.24499912  0.24933963  0.20073274  1
  B  B13  1  0.22639284  0.07949050  0.52447676  1
  B  B14  1  0.25032478  0.57640451  0.02503170  1
  Ir  Ir0  1  0.73710265  0.59038941  0.66325558  1
  Ir  Ir1  1  0.74825927  0.09042051  0.16483769  1
  Ir  Ir2  1  0.75123226  0.70789324  0.96198344  1
  Ir  Ir3  1  0.73043831  0.20991515  0.46453557  1
  Ir  Ir4  1  0.74715378  0.20106997  0.87278999  1
  Ir  Ir5  1  0.73902060  0.70051281  0.37210484  1
  Ir  Ir6  1  0.25174073  0.90957949  0.83516231  1
  Ir  Ir7  1  0.26289735  0.40961059  0.33674442  1
  Ir  Ir8  1  0.26956169  0.79008485  0.53546443  1
  Ir  Ir9  1  0.24876774  0.29210676  0.03801656  1
  Ir  Ir10  1  0.26097940  0.29948719  0.62789516  1
  Ir  Ir11  1  0.25284622  0.79893003  0.12721001  1
loop_
_geom_bond_atom_site_label_1
_geom_bond_atom_site_label_2
_geom_bond_distance
_geom_bond_site_symmetry_2
B0 B2 1.769206 1_555
B0 B2 1.769206 1_655
B0 Ir11 2.417939 1_545
B0 Ir4 2.417939 1_554
B0 Ir1 2.426198 1_555
B0 Ir6 2.426198 1_544
B0 Ir2 2.428749 1_544
B0 Ir9 2.428749 1_555
B1 Ir3 2.382066 1_555
B1 Ir8 2.382066 1_555
B1 Ir7 2.393648 1_555
B1 Ir0 2.393648 1_555
B1 Ir5 2.411246 1_555
B1 Ir10 2.411246 1_555
B2 Ir11 2.424967 1_545
B2 Ir4 2.424967 1_454
B2 Ir2 2.424980 1_444
B2 Ir9 2.424980 1_555
B2 Ir1 2.431600 1_455
B2 Ir6 2.431600 1_544
B3 Ir0 2.138541 1_555
B3 Ir10 2.159983 1_655
B3 B9 2.165959 1_655
B3 Ir10 2.171899 1_555
B3 Ir4 2.189275 1_555
B3 B9 2.277283 1_555
B3 Zr2 2.584222 1_545
B3 Zr0 2.591122 1_655
B3 Zr0 2.649278 1_555
B4 Ir5 2.146371 1_555
B4 Ir1 2.147276 1_565
B4 Ir11 2.183779 1_655
B4 Ir11 2.203553 1_555
B4 Zr3 2.564312 1_555
B4 Zr1 2.630772 1_665
B4 Zr1 2.646965 1_565
B5 Ir0 2.152138 1_555
B5 Ir2 2.154309 1_555
B5 Ir6 2.178545 1_655
B5 Ir6 2.198072 1_555
B5 Zr2 2.577159 1_555
B5 Zr0 2.617267 1_655
B5 Zr0 2.634281 1_555
B6 Ir3 2.133294 1_555
B6 Ir7 2.168147 1_655
B6 Ir7 2.179226 1_555
B6 Ir1 2.189821 1_555
B6 Zr3 2.572953 1_555
B6 Zr1 2.602114 1_655
B6 Zr1 2.655472 1_555
B7 Ir4 2.145970 1_555
B7 Ir2 2.152920 1_555
B7 Ir9 2.187673 1_656
B7 Ir9 2.193123 1_556
B7 Zr3 2.604564 1_556
B7 Zr0 2.643827 1_555
B7 Zr0 2.652843 1_655
B8 Ir5 2.144700 1_555
B8 Ir8 2.159966 1_655
B8 Ir8 2.183524 1_555
B8 Ir3 2.194809 1_565
B8 Zr2 2.542881 1_555
B8 Zr1 2.570440 1_665
B8 Zr1 2.666061 1_565
B9 Ir10 2.146371 1_555
B9 Ir6 2.147276 1_545
B9 Ir4 2.183779 1_455
B9 Ir4 2.203553 1_555
B9 Zr0 2.564312 1_555
B9 Zr2 2.630772 1_445
B9 Zr2 2.646965 1_545
B10 Ir7 2.138541 1_555
B10 Ir5 2.159983 1_455
B10 B4 2.165959 1_455
B10 Ir5 2.171899 1_555
B10 Ir11 2.189275 1_555
B10 B4 2.277283 1_555
B10 Zr1 2.584222 1_565
B10 Zr3 2.591122 1_455
B10 Zr3 2.649278 1_555
B11 Ir8 2.133294 1_555
B11 Ir0 2.168147 1_455
B11 B5 2.169529 1_455
B11 Ir0 2.179226 1_555
B11 Ir6 2.189821 1_555
B11 B5 2.279189 1_555
B11 Zr0 2.572953 1_555
B11 Zr2 2.602114 1_455
B11 Zr2 2.655472 1_555
B12 Ir7 2.152138 1_555
B12 Ir9 2.154309 1_555
B12 B6 2.169529 1_455
B12 Ir1 2.178545 1_455
B12 Ir1 2.198072 1_555
B12 B6 2.279189 1_555
B12 Zr1 2.577159 1_555
B12 Zr3 2.617267 1_455
B12 Zr3 2.634281 1_555
B13 B8 2.100925 1_445
B13 Ir10 2.144700 1_555
B13 Ir3 2.159966 1_455
B13 Ir3 2.183524 1_555
B13 Ir8 2.194809 1_545
B13 Zr1 2.542881 1_555
B13 Zr2 2.570440 1_445
B13 Zr2 2.666061 1_545
B14 Ir11 2.145970 1_555
B14 Ir9 2.152920 1_555
B14 Ir2 2.187673 1_454
B14 Ir2 2.193123 1_554
B14 B7 2.209614 1_554
B14 B7 2.212298 1_454
B14 Zr0 2.604564 1_554
B14 Zr3 2.643827 1_555
B14 Zr3 2.652843 1_455
