# generated using pymatgen
data_Rb3GaP6(HO3)6
_symmetry_space_group_name_H-M   'P 1'
_cell_length_a   9.67579611
_cell_length_b   9.67579611
_cell_length_c   9.67579628
_cell_angle_alpha   112.23379971
_cell_angle_beta   112.23379971
_cell_angle_gamma   112.23379831
_symmetry_Int_Tables_number   1
_chemical_formula_structural   Rb3GaP6(HO3)6
_chemical_formula_sum   'Rb3 Ga1 P6 H6 O18'
_cell_volume   615.79540931
_cell_formula_units_Z   1
loop_
 _symmetry_equiv_pos_site_id
 _symmetry_equiv_pos_as_xyz
  1  'x, y, z'
loop_
 _atom_site_type_symbol
 _atom_site_label
 _atom_site_symmetry_multiplicity
 _atom_site_fract_x
 _atom_site_fract_y
 _atom_site_fract_z
 _atom_site_occupancy
  Rb  Rb0  1  0.00000000  0.50000000  0.00000000  1
  Rb  Rb1  1  0.00000000  0.00000000  0.50000000  1
  Rb  Rb2  1  0.50000000  0.00000000  0.00000000  1
  Ga  Ga0  1  0.00000000  0.00000000  0.00000000  1
  P  P0  1  0.92360100  0.64269600  0.66723300  1
  P  P1  1  0.66723300  0.92360100  0.64269600  1
  P  P2  1  0.64269600  0.66723300  0.92360100  1
  P  P3  1  0.07639900  0.35730400  0.33276700  1
  P  P4  1  0.33276700  0.07639900  0.35730400  1
  P  P5  1  0.35730400  0.33276700  0.07639900  1
  H  H0  1  0.75100900  0.58943100  0.52661400  1
  H  H1  1  0.52661400  0.75100900  0.58943100  1
  H  H2  1  0.58943100  0.52661400  0.75100900  1
  H  H3  1  0.24899100  0.41056900  0.47338600  1
  H  H4  1  0.47338600  0.24899100  0.41056900  1
  H  H5  1  0.41056900  0.47338600  0.24899100  1
  O  O0  1  0.97077900  0.76695200  0.85987300  1
  O  O1  1  0.85987300  0.97077900  0.76695200  1
  O  O2  1  0.76695200  0.85987300  0.97077900  1
  O  O3  1  0.02922100  0.23304800  0.14012700  1
  O  O4  1  0.14012700  0.02922100  0.23304800  1
  O  O5  1  0.23304800  0.14012700  0.02922100  1
  O  O6  1  0.07666600  0.75048100  0.65504200  1
  O  O7  1  0.65504200  0.07666600  0.75048100  1
  O  O8  1  0.75048100  0.65504200  0.07666600  1
  O  O9  1  0.92333400  0.24951900  0.34495800  1
  O  O10  1  0.34495800  0.92333400  0.24951900  1
  O  O11  1  0.24951900  0.34495800  0.92333400  1
  O  O12  1  0.90062700  0.46654900  0.63833400  1
  O  O13  1  0.63833400  0.90062700  0.46654900  1
  O  O14  1  0.46654900  0.63833400  0.90062700  1
  O  O15  1  0.09937300  0.53345100  0.36166600  1
  O  O16  1  0.36166600  0.09937300  0.53345100  1
  O  O17  1  0.53345100  0.36166600  0.09937300  1
loop_
_geom_bond_atom_site_label_1
_geom_bond_atom_site_label_2
_geom_bond_distance
_geom_bond_site_symmetry_2
Ga0 O3 1.979051 1_555
Ga0 O0 1.979051 1_444
Ga0 O5 1.979051 1_555
Ga0 O2 1.979051 1_444
Ga0 O4 1.979051 1_555
Ga0 O1 1.979051 1_444
H0 P0 1.415671 1_555
H1 P1 1.415671 1_555
H2 P2 1.415671 1_555
H3 P3 1.415671 1_555
H4 P4 1.415671 1_555
H5 P5 1.415671 1_555
O0 P0 1.540449 1_555
O0 Rb0 3.391586 1_656
O1 P1 1.540449 1_555
O1 Rb1 3.391586 1_665
O2 P2 1.540449 1_555
O2 Rb2 3.391586 1_566
O3 P3 1.540449 1_555
O3 Rb0 3.391586 1_555
O4 P4 1.540449 1_555
O4 Rb1 3.391586 1_555
O5 P5 1.540449 1_555
O5 Rb2 3.391586 1_555
O6 P0 1.533433 1_455
O6 Rb2 3.133491 1_566
O6 Rb1 3.447265 1_565
O7 P1 1.533433 1_545
O7 Rb0 3.133491 1_656
O7 Rb2 3.447265 1_556
O8 P2 1.533433 1_554
O8 Rb1 3.133491 1_665
O8 Rb0 3.447264 1_655
O9 P3 1.533433 1_655
O9 Rb2 3.133491 1_555
O9 Rb1 3.447265 1_655
O10 P4 1.533433 1_565
O10 Rb0 3.133491 1_555
O10 Rb2 3.447265 1_565
O11 P5 1.533433 1_556
O11 Rb1 3.133491 1_555
O11 Rb0 3.447264 1_556
O12 P0 1.529065 1_555
O12 Rb0 3.104209 1_656
O13 P1 1.529065 1_555
O13 Rb1 3.104209 1_665
O14 P2 1.529065 1_555
O14 Rb2 3.104209 1_566
O15 P3 1.529065 1_555
O15 Rb0 3.104209 1_555
O16 P4 1.529065 1_555
O16 Rb1 3.104209 1_555
O17 P5 1.529065 1_555
O17 Rb2 3.104209 1_555
