# generated using pymatgen
data_LiNiO2
_symmetry_space_group_name_H-M   'P 1'
_cell_length_a   2.75464428
_cell_length_b   5.09476641
_cell_length_c   9.97612264
_cell_angle_alpha   75.08193513
_cell_angle_beta   82.04395300
_cell_angle_gamma   89.97693671
_symmetry_Int_Tables_number   1
_chemical_formula_structural   LiNiO2
_chemical_formula_sum   'Li4 Ni4 O8'
_cell_volume   133.89559133
_cell_formula_units_Z   4
loop_
 _symmetry_equiv_pos_site_id
 _symmetry_equiv_pos_as_xyz
  1  'x, y, z'
loop_
 _atom_site_type_symbol
 _atom_site_label
 _atom_site_symmetry_multiplicity
 _atom_site_fract_x
 _atom_site_fract_y
 _atom_site_fract_z
 _atom_site_occupancy
  Li  Li0  1  0.37860900  0.02982651  0.24253298  1
  Li  Li1  1  0.87861942  0.52982721  0.24253090  1
  Li  Li2  1  0.62763625  0.97540397  0.74268330  1
  Li  Li3  1  0.12760292  0.47538606  0.74268194  1
  Ni  Ni0  1  0.99990795  0.33455722  0.00101512  1
  Ni  Ni1  1  0.74960164  0.41536788  0.50079447  1
  Ni  Ni2  1  0.49990834  0.83456384  0.00101669  1
  Ni  Ni3  1  0.24960772  0.91535439  0.50079952  1
  O  O0  1  0.44354579  0.41976913  0.11346226  1
  O  O1  1  0.94353319  0.91976665  0.11346024  1
  O  O2  1  0.69320010  0.71686937  0.61337217  1
  O  O3  1  0.19320789  0.21688221  0.61336376  1
  O  O4  1  0.80557385  0.11436389  0.38890824  1
  O  O5  1  0.30557392  0.61436817  0.38890215  1
  O  O6  1  0.05581025  0.74773179  0.88926266  1
  O  O7  1  0.55580578  0.24771069  0.88925759  1
loop_
_geom_bond_atom_site_label_1
_geom_bond_atom_site_label_2
_geom_bond_distance
_geom_bond_site_symmetry_2
Li0 O1 2.051413 1_445
Li0 O1 2.051937 1_545
Li0 O0 2.063069 1_555
Li0 O4 2.120075 1_455
Li0 O4 2.121513 1_555
Li0 O5 2.231723 1_545
Li1 O0 2.051373 1_555
Li1 O0 2.051912 1_655
Li1 O1 2.063056 1_555
Li1 O5 2.120075 1_555
Li1 O5 2.121469 1_655
Li1 O4 2.231775 1_555
Li2 O3 2.054028 1_565
Li2 O3 2.057450 1_665
Li2 O2 2.059589 1_555
Li2 O6 2.110796 1_555
Li2 O6 2.116113 1_655
Li2 O7 2.250820 1_565
Li3 O2 2.053938 1_455
Li3 O2 2.057472 1_555
Li3 O3 2.059518 1_555
Li3 O7 2.110734 1_455
Li3 O7 2.116147 1_555
Li3 O6 2.251027 1_555
Ni0 O7 1.887989 1_654
Ni0 O7 1.888744 1_554
Ni0 O0 1.889434 1_555
Ni0 O0 1.889708 1_655
Ni0 O6 2.107649 1_654
Ni0 O1 2.116562 1_545
Ni1 O5 1.887926 1_555
Ni1 O5 1.888053 1_655
Ni1 O3 1.889751 1_655
Ni1 O3 1.890207 1_555
Ni1 O4 2.110666 1_555
Ni1 O2 2.117723 1_555
Ni2 O6 1.887950 1_654
Ni2 O6 1.888681 1_554
Ni2 O1 1.889423 1_455
Ni2 O1 1.889637 1_555
Ni2 O7 2.107545 1_564
Ni2 O0 2.116581 1_555
Ni3 O4 1.887950 1_465
Ni3 O4 1.888056 1_565
Ni3 O2 1.889740 1_555
Ni3 O2 1.890245 1_455
Ni3 O5 2.110666 1_555
Ni3 O3 2.117744 1_565
