# generated using pymatgen
data_LiVBi
_symmetry_space_group_name_H-M   'P 1'
_cell_length_a   4.43562003
_cell_length_b   4.43562003
_cell_length_c   4.43562003
_cell_angle_alpha   60.00000000
_cell_angle_beta   60.00000000
_cell_angle_gamma   60.00000000
_symmetry_Int_Tables_number   1
_chemical_formula_structural   LiVBi
_chemical_formula_sum   'Li1 V1 Bi1'
_cell_volume   61.70892903
_cell_formula_units_Z   1
loop_
 _symmetry_equiv_pos_site_id
 _symmetry_equiv_pos_as_xyz
  1  'x, y, z'
loop_
 _atom_site_type_symbol
 _atom_site_label
 _atom_site_symmetry_multiplicity
 _atom_site_fract_x
 _atom_site_fract_y
 _atom_site_fract_z
 _atom_site_occupancy
  Li  Li0  1  0.75000000  0.75000000  0.75000000  1
  V  V0  1  0.50000000  0.50000000  0.50000000  1
  Bi  Bi0  1  0.00000000  0.00000000  0.00000000  1
loop_
_geom_bond_atom_site_label_1
_geom_bond_atom_site_label_2
_geom_bond_distance
_geom_bond_site_symmetry_2
Li0 V0 2.716251 1_555
Li0 V0 2.716251 1_556
Li0 V0 2.716251 1_655
Li0 V0 2.716251 1_565
Bi0 Li0 2.716251 1_544
Bi0 Li0 2.716251 1_444
Bi0 Li0 2.716251 1_445
Bi0 Li0 2.716251 1_454
Bi0 V0 3.136457 1_554
Bi0 V0 3.136457 1_445
Bi0 V0 3.136457 1_454
Bi0 V0 3.136457 1_544
Bi0 V0 3.136457 1_545
Bi0 V0 3.136457 1_455
