# generated using pymatgen
data_CaCrO2
_symmetry_space_group_name_H-M   'P 1'
_cell_length_a   3.10891700
_cell_length_b   8.96532448
_cell_length_c   9.33476586
_cell_angle_alpha   85.60064009
_cell_angle_beta   80.52424959
_cell_angle_gamma   80.38103387
_symmetry_Int_Tables_number   1
_chemical_formula_structural   CaCrO2
_chemical_formula_sum   'Ca4 Cr4 O8'
_cell_volume   252.70063002
_cell_formula_units_Z   4
loop_
 _symmetry_equiv_pos_site_id
 _symmetry_equiv_pos_as_xyz
  1  'x, y, z'
loop_
 _atom_site_type_symbol
 _atom_site_label
 _atom_site_symmetry_multiplicity
 _atom_site_fract_x
 _atom_site_fract_y
 _atom_site_fract_z
 _atom_site_occupancy
  Ca  Ca0  1  0.84030700  0.23912600  0.56929300  1
  Ca  Ca1  1  0.15969300  0.76087400  0.43070700  1
  Ca  Ca2  1  0.58907700  0.12712400  0.19134100  1
  Ca  Ca3  1  0.41092300  0.87287600  0.80865900  1
  Cr  Cr0  1  0.12519900  0.55458800  0.69970800  1
  Cr  Cr1  1  0.71183400  0.19435800  0.87676300  1
  Cr  Cr2  1  0.28816600  0.80564200  0.12323700  1
  Cr  Cr3  1  0.87480100  0.44541200  0.30029200  1
  O  O0  1  0.32470700  0.58542700  0.26527900  1
  O  O1  1  0.86075900  0.80918300  0.97245200  1
  O  O2  1  0.13924100  0.19081700  0.02754800  1
  O  O3  1  0.67529300  0.41457300  0.73472100  1
  O  O4  1  0.58879600  0.71038700  0.62289700  1
  O  O5  1  0.31989300  0.12050400  0.72706700  1
  O  O6  1  0.41120400  0.28961300  0.37710300  1
  O  O7  1  0.68010700  0.87949600  0.27293300  1
loop_
_geom_bond_atom_site_label_1
_geom_bond_atom_site_label_2
_geom_bond_distance
_geom_bond_site_symmetry_2
Ca0 O3 2.228026 1_555
Ca0 O5 2.338358 1_555
Ca0 O5 2.340080 1_655
Ca0 O6 2.380089 1_555
Ca0 O6 2.380991 1_655
Ca1 O0 2.228026 1_555
Ca1 O7 2.338358 1_555
Ca1 O7 2.340080 1_455
Ca1 O4 2.380089 1_555
Ca1 O4 2.380991 1_455
Ca2 O2 2.218270 1_655
Ca2 O2 2.218750 1_555
Ca2 O7 2.278261 1_545
Ca2 O6 2.288553 1_555
Ca3 O1 2.218270 1_455
Ca3 O1 2.218750 1_555
Ca3 O5 2.278261 1_565
Ca3 O4 2.288553 1_555
Cr0 O3 2.002746 1_555
Cr0 O3 2.003065 1_455
Cr0 O4 2.169732 1_455
Cr0 O4 2.172854 1_555
Cr1 O2 2.082816 1_556
Cr1 O2 2.083911 1_656
Cr1 O5 2.195125 1_655
Cr1 O5 2.201830 1_555
Cr1 O3 2.289516 1_555
Cr2 O1 2.082816 1_554
Cr2 O1 2.083911 1_454
Cr2 O7 2.195125 1_455
Cr2 O7 2.201830 1_555
Cr2 O0 2.289516 1_555
Cr3 O0 2.002746 1_555
Cr3 O0 2.003065 1_655
Cr3 O6 2.169732 1_655
Cr3 O6 2.172854 1_555
