# generated using pymatgen
data_Te2MoWSeS
_symmetry_space_group_name_H-M   'P 1'
_cell_length_a   3.40126174
_cell_length_b   3.40126174
_cell_length_c   38.85568600
_cell_angle_alpha   90.00000000
_cell_angle_beta   90.00000000
_cell_angle_gamma   119.99999500
_symmetry_Int_Tables_number   1
_chemical_formula_structural   Te2MoWSeS
_chemical_formula_sum   'Te4 Mo2 W2 Se2 S2'
_cell_volume   389.28291427
_cell_formula_units_Z   2
loop_
 _symmetry_equiv_pos_site_id
 _symmetry_equiv_pos_as_xyz
  1  'x, y, z'
loop_
 _atom_site_type_symbol
 _atom_site_label
 _atom_site_symmetry_multiplicity
 _atom_site_fract_x
 _atom_site_fract_y
 _atom_site_fract_z
 _atom_site_occupancy
  Te  Te0  1  0.00000000  0.00000000  0.33020400  1
  Te  Te1  1  0.00000000  0.00000000  0.70593800  1
  Te  Te2  1  0.00000000  0.00000000  0.23333000  1
  Te  Te3  1  0.00000000  0.00000000  0.60911800  1
  Mo  Mo0  1  0.00000000  0.00000000  0.09395300  1
  Mo  Mo1  1  0.00000000  0.00000000  0.46967800  1
  W  W0  1  0.33333300  0.66666700  0.28180400  1
  W  W1  1  0.33333300  0.66666700  0.65754800  1
  Se  Se0  1  0.33333300  0.66666700  0.42728500  1
  Se  Se1  1  0.33333300  0.66666700  0.51202000  1
  S  S0  1  0.33333300  0.66666700  0.05530500  1
  S  S1  1  0.33333300  0.66666700  0.13256600  1
loop_
_geom_bond_atom_site_label_1
_geom_bond_atom_site_label_2
_geom_bond_distance
_geom_bond_site_symmetry_2
Te0 W0 2.718989 1_545
Te0 W0 2.718991 1_555
Te0 W0 2.718991 1_445
Te1 W1 2.718720 1_545
Te1 W1 2.718722 1_555
Te1 W1 2.718722 1_445
Te2 W0 2.720978 1_545
Te2 W0 2.720980 1_555
Te2 W0 2.720980 1_445
Te3 W1 2.719795 1_545
Te3 W1 2.719797 1_445
Te3 W1 2.719797 1_555
Mo0 S1 2.471273 1_545
Mo0 S1 2.471275 1_445
Mo0 S1 2.471275 1_555
Mo0 S0 2.472099 1_545
Mo0 S0 2.472101 1_555
Mo0 S0 2.472101 1_445
Mo1 Se1 2.561827 1_545
Mo1 Se1 2.561830 1_555
Mo1 Se1 2.561830 1_445
Mo1 Se0 2.563100 1_545
Mo1 Se0 2.563103 1_555
Mo1 Se0 2.563103 1_445
