# generated using pymatgen
data_LiNiP2O7
_symmetry_space_group_name_H-M   'P 1'
_cell_length_a   6.43490300
_cell_length_b   6.49696199
_cell_length_c   6.55952815
_cell_angle_alpha   66.64679553
_cell_angle_beta   84.72491679
_cell_angle_gamma   81.62147338
_symmetry_Int_Tables_number   1
_chemical_formula_structural   LiNiP2O7
_chemical_formula_sum   'Li2 Ni2 P4 O14'
_cell_volume   248.90694849
_cell_formula_units_Z   2
loop_
 _symmetry_equiv_pos_site_id
 _symmetry_equiv_pos_as_xyz
  1  'x, y, z'
loop_
 _atom_site_type_symbol
 _atom_site_label
 _atom_site_symmetry_multiplicity
 _atom_site_fract_x
 _atom_site_fract_y
 _atom_site_fract_z
 _atom_site_occupancy
  Li  Li0  1  0.87628800  0.29720300  0.16985000  1
  Li  Li1  1  0.12371200  0.70279700  0.83015000  1
  Ni  Ni0  1  0.34682600  0.89934700  0.21592000  1
  Ni  Ni1  1  0.65317400  0.10065300  0.78408000  1
  P  P0  1  0.38483800  0.36160500  0.32790800  1
  P  P1  1  0.61516200  0.63839500  0.67209200  1
  P  P2  1  0.85982700  0.78094700  0.23905300  1
  P  P3  1  0.14017300  0.21905300  0.76094700  1
  O  O0  1  0.33557600  0.05658900  0.87049900  1
  O  O1  1  0.66442400  0.94341100  0.12950100  1
  O  O2  1  0.93840500  0.62262400  0.11946100  1
  O  O3  1  0.69806300  0.79081600  0.76524100  1
  O  O4  1  0.40006200  0.74716500  0.56817700  1
  O  O5  1  0.59993800  0.25283500  0.43182300  1
  O  O6  1  0.02572900  0.91241800  0.26632500  1
  O  O7  1  0.06159500  0.37737600  0.88053900  1
  O  O8  1  0.38872200  0.60390500  0.16274500  1
  O  O9  1  0.30193700  0.20918400  0.23475900  1
  O  O10  1  0.78077900  0.61623800  0.48000800  1
  O  O11  1  0.61127800  0.39609500  0.83725500  1
  O  O12  1  0.21922100  0.38376200  0.51999200  1
  O  O13  1  0.97427100  0.08758200  0.73367500  1
loop_
_geom_bond_atom_site_label_1
_geom_bond_atom_site_label_2
_geom_bond_distance
_geom_bond_site_symmetry_2
Li0 O7 2.067819 1_654
Li0 O2 2.099294 1_555
Li0 O5 2.322313 1_555
Li0 O6 2.394152 1_645
Li1 O2 2.067819 1_456
Li1 O7 2.099294 1_555
Li1 O4 2.322313 1_555
Li1 O13 2.394152 1_465
Ni0 O9 2.042565 1_565
Ni0 O6 2.057021 1_555
Ni0 O8 2.059472 1_555
Ni0 O0 2.087161 1_564
Ni0 O1 2.099734 1_555
Ni0 O4 2.160929 1_555
Ni1 O3 2.042565 1_545
Ni1 O13 2.057021 1_555
Ni1 O11 2.059472 1_555
Ni1 O1 2.087161 1_546
Ni1 O0 2.099734 1_555
Ni1 O5 2.160929 1_555
O0 P3 1.545833 1_555
O1 P2 1.545833 1_555
O2 P2 1.531121 1_555
O3 P1 1.527135 1_555
O4 P1 1.544805 1_555
O5 P0 1.544805 1_555
O6 P2 1.524233 1_455
O7 P3 1.531121 1_555
O8 P0 1.518846 1_555
O9 P0 1.527135 1_555
O10 P2 1.603717 1_555
O10 P1 1.611283 1_555
O11 P1 1.518846 1_555
O12 P3 1.603717 1_555
O12 P0 1.611283 1_555
O13 P3 1.524233 1_655
