# generated using pymatgen
data_Th14Cu51
_symmetry_space_group_name_H-M   'P 1'
_cell_length_a   11.85124145
_cell_length_b   11.85124145
_cell_length_c   8.86243500
_cell_angle_alpha   90.00000000
_cell_angle_beta   90.00000000
_cell_angle_gamma   119.99999691
_symmetry_Int_Tables_number   1
_chemical_formula_structural   Th14Cu51
_chemical_formula_sum   'Th14 Cu51'
_cell_volume   1077.98173031
_cell_formula_units_Z   1
loop_
 _symmetry_equiv_pos_site_id
 _symmetry_equiv_pos_as_xyz
  1  'x, y, z'
loop_
 _atom_site_type_symbol
 _atom_site_label
 _atom_site_symmetry_multiplicity
 _atom_site_fract_x
 _atom_site_fract_y
 _atom_site_fract_z
 _atom_site_occupancy
  Th  Th0  1  0.00000000  0.00000000  0.69629600  1
  Th  Th1  1  0.00000000  0.00000000  0.30370400  1
  Th  Th2  1  0.73286300  0.62376200  0.00000000  1
  Th  Th3  1  0.89090000  0.26713700  0.00000000  1
  Th  Th4  1  0.37623800  0.10910000  0.00000000  1
  Th  Th5  1  0.28510300  0.39851000  0.00000000  1
  Th  Th6  1  0.11340700  0.71489700  0.00000000  1
  Th  Th7  1  0.60149000  0.88659300  0.00000000  1
  Th  Th8  1  0.32577100  0.85307800  0.50000000  1
  Th  Th9  1  0.52730700  0.67422900  0.50000000  1
  Th  Th10  1  0.14692200  0.47269300  0.50000000  1
  Th  Th11  1  0.67253400  0.14749300  0.50000000  1
  Th  Th12  1  0.47495900  0.32746600  0.50000000  1
  Th  Th13  1  0.85250700  0.52504100  0.50000000  1
  Cu  Cu0  1  0.37883100  0.88311800  0.84325400  1
  Cu  Cu1  1  0.50428700  0.62116900  0.84325400  1
  Cu  Cu2  1  0.11688200  0.49571300  0.84325400  1
  Cu  Cu3  1  0.61802000  0.11981200  0.84626900  1
  Cu  Cu4  1  0.50179200  0.38198000  0.84626900  1
  Cu  Cu5  1  0.88018800  0.49820800  0.84626900  1
  Cu  Cu6  1  0.61802000  0.11981200  0.15373100  1
  Cu  Cu7  1  0.50179200  0.38198000  0.15373100  1
  Cu  Cu8  1  0.88018800  0.49820800  0.15373100  1
  Cu  Cu9  1  0.37883100  0.88311800  0.15674600  1
  Cu  Cu10  1  0.50428700  0.62116900  0.15674600  1
  Cu  Cu11  1  0.11688200  0.49571300  0.15674600  1
  Cu  Cu12  1  0.66730200  0.56671700  0.67658600  1
  Cu  Cu13  1  0.89941500  0.33269800  0.67658600  1
  Cu  Cu14  1  0.43328300  0.10058500  0.67658600  1
  Cu  Cu15  1  0.33583300  0.43619100  0.67393000  1
  Cu  Cu16  1  0.10035700  0.66416700  0.67393000  1
  Cu  Cu17  1  0.56380900  0.89964300  0.67393000  1
  Cu  Cu18  1  0.33583300  0.43619100  0.32607000  1
  Cu  Cu19  1  0.10035700  0.66416700  0.32607000  1
  Cu  Cu20  1  0.56380900  0.89964300  0.32607000  1
  Cu  Cu21  1  0.66730200  0.56671700  0.32341400  1
  Cu  Cu22  1  0.89941500  0.33269800  0.32341400  1
  Cu  Cu23  1  0.43328300  0.10058500  0.32341400  1
  Cu  Cu24  1  0.33333300  0.66666700  0.00000000  1
  Cu  Cu25  1  0.66666700  0.33333300  0.00000000  1
  Cu  Cu26  1  0.33333300  0.66666700  0.72501100  1
  Cu  Cu27  1  0.66666700  0.33333300  0.72553500  1
  Cu  Cu28  1  0.66666700  0.33333300  0.27446500  1
  Cu  Cu29  1  0.33333300  0.66666700  0.27498900  1
  Cu  Cu30  1  0.19353300  0.92467000  0.75573100  1
  Cu  Cu31  1  0.73113700  0.80646700  0.75573100  1
  Cu  Cu32  1  0.07533000  0.26886300  0.75573100  1
  Cu  Cu33  1  0.80021100  0.06950800  0.75424800  1
  Cu  Cu34  1  0.26929700  0.19978900  0.75424800  1
  Cu  Cu35  1  0.93049200  0.73070300  0.75424800  1
  Cu  Cu36  1  0.80021100  0.06950800  0.24575200  1
  Cu  Cu37  1  0.26929700  0.19978900  0.24575200  1
  Cu  Cu38  1  0.93049200  0.73070300  0.24575200  1
  Cu  Cu39  1  0.19353300  0.92467000  0.24426900  1
  Cu  Cu40  1  0.73113700  0.80646700  0.24426900  1
  Cu  Cu41  1  0.07533000  0.26886300  0.24426900  1
  Cu  Cu42  1  0.81627700  0.75778400  0.50000000  1
  Cu  Cu43  1  0.94150700  0.18372300  0.50000000  1
  Cu  Cu44  1  0.24221600  0.05849300  0.50000000  1
  Cu  Cu45  1  0.18445000  0.24278600  0.50000000  1
  Cu  Cu46  1  0.05833600  0.81555000  0.50000000  1
  Cu  Cu47  1  0.75721400  0.94166400  0.50000000  1
  Cu  Cu48  1  0.02791500  0.89439400  0.00000000  1
  Cu  Cu49  1  0.86647900  0.97208500  0.00000000  1
  Cu  Cu50  1  0.10560600  0.13352100  0.00000000  1
loop_
_geom_bond_atom_site_label_1
_geom_bond_atom_site_label_2
_geom_bond_distance
_geom_bond_site_symmetry_2
Th0 Th1 3.479321 1_555
Cu0 Cu26 2.566324 1_555
Cu0 Cu17 2.581999 1_555
Cu0 Cu30 2.597698 1_555
Cu0 Cu24 2.723531 1_556
Cu0 Cu14 2.752689 1_565
Cu0 Cu9 2.778302 1_556
Cu0 Cu3 2.820145 1_565
Cu0 Th7 2.964111 1_556
Cu0 Th4 3.030770 1_566
Cu0 Th6 3.086738 1_556
Cu0 Th8 3.090706 1_555
Cu1 Cu26 2.566335 1_555
Cu1 Cu15 2.582003 1_555
Cu1 Cu31 2.597698 1_555
Cu1 Cu24 2.723541 1_556
Cu1 Cu12 2.752689 1_555
Cu1 Cu10 2.778302 1_556
Cu1 Cu4 2.820145 1_555
Cu1 Th5 2.964111 1_556
Cu1 Th2 3.030780 1_556
Cu1 Th7 3.086738 1_556
Cu1 Th9 3.090706 1_555
Cu2 Cu26 2.566327 1_555
Cu2 Cu32 2.597698 1_555
Cu2 Cu24 2.723534 1_556
Cu2 Cu5 2.820145 1_455
Cu2 Th6 2.964111 1_556
Cu2 Th3 3.030775 1_456
Cu2 Th5 3.086738 1_556
Cu2 Th10 3.090706 1_555
Cu3 Cu33 2.640044 1_555
Cu3 Cu6 2.724862 1_556
Cu3 Th7 2.998745 1_546
Cu3 Th3 3.117173 1_556
Cu3 Th4 3.117560 1_556
Cu3 Th11 3.119378 1_555
Cu4 Cu7 2.724862 1_556
Cu4 Th5 2.998745 1_556
Cu4 Th4 3.117173 1_556
Cu4 Th2 3.117565 1_556
Cu4 Th12 3.119378 1_555
Cu5 Cu8 2.724862 1_556
Cu5 Th6 2.998745 1_656
Cu5 Th2 3.117164 1_556
Cu5 Th3 3.117571 1_556
Cu5 Th13 3.119378 1_555
Cu6 Cu9 2.820145 1_545
Cu6 Th7 2.998745 1_545
Cu6 Th3 3.117173 1_555
Cu6 Th4 3.117560 1_555
Cu6 Th11 3.119378 1_555
Cu7 Th5 2.998745 1_555
Cu7 Th4 3.117173 1_555
Cu7 Th2 3.117565 1_555
Cu7 Th12 3.119378 1_555
Cu8 Th6 2.998745 1_655
Cu8 Th2 3.117164 1_555
Cu8 Th3 3.117571 1_555
Cu8 Th13 3.119378 1_555
Cu9 Th7 2.964111 1_555
Cu9 Th4 3.030770 1_565
Cu9 Th6 3.086738 1_555
Cu9 Th8 3.090706 1_555
Cu10 Cu29 2.566335 1_555
Cu10 Cu18 2.582003 1_555
Cu10 Cu40 2.597698 1_555
Cu10 Cu24 2.723541 1_555
Cu10 Cu21 2.752689 1_555
Cu10 Cu7 2.820145 1_555
Cu10 Th5 2.964111 1_555
Cu10 Th2 3.030780 1_555
Cu10 Th7 3.086738 1_555
Cu10 Th9 3.090706 1_555
Cu11 Cu29 2.566327 1_555
Cu11 Cu19 2.582009 1_555
Cu11 Cu41 2.597698 1_555
Cu11 Cu24 2.723534 1_555
Cu11 Cu22 2.752689 1_455
Cu11 Cu2 2.778302 1_554
Cu11 Cu8 2.820145 1_455
Cu11 Th6 2.964111 1_555
Cu11 Th3 3.030775 1_455
Cu11 Th5 3.086738 1_555
Cu11 Th10 3.090706 1_555
Cu12 Cu4 2.570561 1_555
Cu12 Cu42 2.587637 1_555
Cu12 Cu31 2.643475 1_555
Cu12 Cu27 2.795993 1_555
Cu12 Cu35 2.813859 1_555
Cu12 Th13 2.931695 1_555
Cu12 Th2 2.958170 1_556
Cu12 Th9 2.989858 1_555
Cu12 Th12 3.036703 1_555
Cu12 Cu21 3.129964 1_555
Cu13 Cu5 2.570561 1_555
Cu13 Cu43 2.587637 1_555
Cu13 Cu32 2.643475 1_655
Cu13 Cu2 2.752689 1_655
Cu13 Cu27 2.795982 1_555
Cu13 Cu33 2.813859 1_555
Cu13 Th11 2.931695 1_555
Cu13 Th3 2.958172 1_556
Cu13 Th10 2.989858 1_655
Cu13 Th13 3.036703 1_555
Cu13 Cu22 3.129964 1_555
Cu14 Cu3 2.570561 1_555
Cu14 Cu44 2.587637 1_555
Cu14 Cu30 2.643475 1_545
Cu14 Cu27 2.795988 1_555
Cu14 Cu34 2.813859 1_555
Cu14 Th12 2.931695 1_555
Cu14 Th4 2.958169 1_556
Cu14 Th8 2.989858 1_545
Cu14 Th11 3.036703 1_555
Cu14 Cu23 3.129964 1_555
Cu15 Cu45 2.595428 1_555
Cu15 Cu34 2.601643 1_555
Cu15 Cu26 2.783422 1_555
Cu15 Cu32 2.804840 1_555
Cu15 Cu4 2.806696 1_555
Cu15 Th10 2.923020 1_555
Cu15 Th5 2.939931 1_556
Cu15 Th12 2.979846 1_555
Cu15 Th9 3.013653 1_555
Cu15 Cu18 3.082887 1_555
Cu16 Cu2 2.582009 1_555
Cu16 Cu46 2.595422 1_555
Cu16 Cu35 2.601632 1_455
Cu16 Cu26 2.783422 1_555
Cu16 Cu30 2.804838 1_555
Cu16 Cu5 2.806689 1_455
Cu16 Th8 2.923027 1_555
Cu16 Th6 2.939930 1_556
Cu16 Th13 2.979838 1_455
Cu16 Th10 3.013660 1_555
Cu16 Cu19 3.082887 1_555
Cu17 Cu47 2.595431 1_555
Cu17 Cu33 2.601640 1_565
Cu17 Cu26 2.783422 1_555
Cu17 Cu31 2.804849 1_555
Cu17 Cu3 2.806686 1_565
Cu17 Th9 2.923030 1_555
Cu17 Th7 2.939932 1_556
Cu17 Th11 2.979837 1_565
Cu17 Th8 3.013650 1_555
Cu17 Cu20 3.082887 1_555
Cu18 Cu45 2.595428 1_555
Cu18 Cu37 2.601643 1_555
Cu18 Cu29 2.783422 1_555
Cu18 Cu41 2.804840 1_555
Cu18 Cu7 2.806696 1_555
Cu18 Th10 2.923020 1_555
Cu18 Th5 2.939931 1_555
Cu18 Th12 2.979846 1_555
Cu18 Th9 3.013653 1_555
Cu19 Cu46 2.595422 1_555
Cu19 Cu38 2.601632 1_455
Cu19 Cu29 2.783422 1_555
Cu19 Cu39 2.804838 1_555
Cu19 Cu8 2.806689 1_455
Cu19 Th8 2.923027 1_555
Cu19 Th6 2.939930 1_555
Cu19 Th13 2.979838 1_455
Cu19 Th10 3.013660 1_555
Cu20 Cu9 2.581999 1_555
Cu20 Cu47 2.595431 1_555
Cu20 Cu36 2.601640 1_565
Cu20 Cu29 2.783422 1_555
Cu20 Cu40 2.804849 1_555
Cu20 Cu6 2.806686 1_565
Cu20 Th9 2.923030 1_555
Cu20 Th7 2.939932 1_555
Cu20 Th11 2.979837 1_565
Cu20 Th8 3.013650 1_555
Cu21 Cu7 2.570561 1_555
Cu21 Cu42 2.587637 1_555
Cu21 Cu40 2.643475 1_555
Cu21 Cu28 2.795993 1_555
Cu21 Cu38 2.813859 1_555
Cu21 Th13 2.931695 1_555
Cu21 Th2 2.958170 1_555
Cu21 Th9 2.989858 1_555
Cu21 Th12 3.036703 1_555
Cu22 Cu8 2.570561 1_555
Cu22 Cu43 2.587637 1_555
Cu22 Cu41 2.643475 1_655
Cu22 Cu28 2.795982 1_555
Cu22 Cu36 2.813859 1_555
Cu22 Th11 2.931695 1_555
Cu22 Th3 2.958172 1_555
Cu22 Th10 2.989858 1_655
Cu22 Th13 3.036703 1_555
Cu23 Cu6 2.570561 1_555
Cu23 Cu44 2.587637 1_555
Cu23 Cu39 2.643475 1_545
Cu23 Cu9 2.752689 1_545
Cu23 Cu28 2.795988 1_555
Cu23 Cu37 2.813859 1_555
Cu23 Th12 2.931695 1_555
Cu23 Th4 2.958169 1_555
Cu23 Th8 2.989858 1_545
Cu23 Th11 3.036703 1_555
Cu24 Cu29 2.437072 1_555
Cu24 Cu26 2.437072 1_554
Cu24 Cu9 2.723531 1_555
Cu24 Th6 2.934244 1_555
Cu24 Th7 2.934252 1_555
Cu24 Th5 2.934256 1_555
Cu25 Cu28 2.432428 1_555
Cu25 Cu27 2.432428 1_554
Cu25 Cu6 2.670783 1_555
Cu25 Cu3 2.670783 1_554
Cu25 Cu8 2.670786 1_555
Cu25 Cu5 2.670786 1_554
Cu25 Cu7 2.670793 1_555
Cu25 Cu4 2.670793 1_554
Cu25 Th3 3.124453 1_555
Cu25 Th2 3.124453 1_555
Cu25 Th4 3.124453 1_555
Cu26 Th8 3.010516 1_555
Cu26 Th10 3.010521 1_555
Cu26 Th9 3.010525 1_555
Cu27 Cu3 2.534118 1_555
Cu27 Cu5 2.534122 1_555
Cu27 Cu4 2.534129 1_555
Cu27 Th11 3.000642 1_555
Cu27 Th13 3.000646 1_555
Cu27 Th12 3.000650 1_555
Cu28 Cu6 2.534118 1_555
Cu28 Cu8 2.534122 1_555
Cu28 Cu7 2.534129 1_555
Cu28 Th11 3.000642 1_555
Cu28 Th13 3.000646 1_555
Cu28 Th12 3.000650 1_555
Cu29 Cu9 2.566324 1_555
Cu29 Th8 3.010516 1_555
Cu29 Th10 3.010521 1_555
Cu29 Th9 3.010525 1_555
Cu30 Cu44 2.658892 1_565
Cu30 Cu46 2.702613 1_555
Cu30 Cu35 2.799346 1_455
Cu30 Cu48 2.821953 1_556
Cu30 Th0 2.895293 1_565
Cu30 Cu34 2.917134 1_565
Cu30 Th6 3.067239 1_556
Cu30 Th4 3.069131 1_566
Cu30 Th8 3.105188 1_555
Cu31 Cu42 2.658892 1_555
Cu31 Cu47 2.702613 1_555
Cu31 Cu33 2.799346 1_565
Cu31 Cu49 2.821953 1_556
Cu31 Th0 2.895293 1_665
Cu31 Cu35 2.917133 1_555
Cu31 Th7 3.067239 1_556
Cu31 Th2 3.069135 1_556
Cu31 Th9 3.105188 1_555
Cu32 Cu43 2.658892 1_455
Cu32 Cu45 2.702613 1_555
Cu32 Cu34 2.799346 1_555
Cu32 Cu50 2.821953 1_556
Cu32 Th0 2.895293 1_555
Cu32 Cu33 2.917134 1_455
Cu32 Th5 3.067239 1_556
Cu32 Th3 3.069127 1_456
Cu32 Th10 3.105188 1_555
Cu33 Cu47 2.619223 1_545
Cu33 Cu43 2.728882 1_555
Cu33 Cu49 2.756833 1_546
Cu33 Th0 2.915310 1_655
Cu33 Th3 2.977757 1_556
Cu33 Th11 3.101512 1_555
Cu33 Th7 3.143867 1_546
Cu34 Cu45 2.619223 1_555
Cu34 Cu4 2.640044 1_555
Cu34 Cu44 2.728882 1_555
Cu34 Cu50 2.756833 1_556
Cu34 Th0 2.915310 1_555
Cu34 Th4 2.977764 1_556
Cu34 Th12 3.101512 1_555
Cu34 Th5 3.143867 1_556
Cu35 Cu46 2.619223 1_655
Cu35 Cu5 2.640044 1_555
Cu35 Cu42 2.728882 1_555
Cu35 Cu48 2.756833 1_656
Cu35 Th0 2.915310 1_665
Cu35 Th2 2.977757 1_556
Cu35 Th13 3.101512 1_555
Cu35 Th6 3.143867 1_656
Cu36 Cu47 2.619223 1_545
Cu36 Cu6 2.640044 1_555
Cu36 Cu43 2.728882 1_555
Cu36 Cu49 2.756833 1_545
Cu36 Cu40 2.799346 1_545
Cu36 Th1 2.915310 1_655
Cu36 Cu41 2.917134 1_655
Cu36 Th3 2.977757 1_555
Cu36 Th11 3.101512 1_555
Cu36 Th7 3.143867 1_545
Cu37 Cu45 2.619223 1_555
Cu37 Cu7 2.640044 1_555
Cu37 Cu44 2.728882 1_555
Cu37 Cu50 2.756833 1_555
Cu37 Cu41 2.799346 1_555
Cu37 Th1 2.915310 1_555
Cu37 Cu39 2.917134 1_545
Cu37 Th4 2.977764 1_555
Cu37 Th12 3.101512 1_555
Cu37 Th5 3.143867 1_555
Cu38 Cu46 2.619223 1_655
Cu38 Cu8 2.640044 1_555
Cu38 Cu42 2.728882 1_555
Cu38 Cu48 2.756833 1_655
Cu38 Cu39 2.799346 1_655
Cu38 Th1 2.915310 1_665
Cu38 Cu40 2.917133 1_555
Cu38 Th2 2.977757 1_555
Cu38 Th13 3.101512 1_555
Cu38 Th6 3.143867 1_655
Cu39 Cu9 2.597698 1_555
Cu39 Cu44 2.658892 1_565
Cu39 Cu46 2.702613 1_555
Cu39 Cu48 2.821953 1_555
Cu39 Th1 2.895293 1_565
Cu39 Th6 3.067239 1_555
Cu39 Th4 3.069131 1_565
Cu39 Th8 3.105188 1_555
Cu40 Cu42 2.658892 1_555
Cu40 Cu47 2.702613 1_555
Cu40 Cu49 2.821953 1_555
Cu40 Th1 2.895293 1_665
Cu40 Th7 3.067239 1_555
Cu40 Th2 3.069135 1_555
Cu40 Th9 3.105188 1_555
Cu41 Cu43 2.658892 1_455
Cu41 Cu45 2.702613 1_555
Cu41 Cu50 2.821953 1_555
Cu41 Th1 2.895293 1_555
Cu41 Th5 3.067239 1_555
Cu41 Th3 3.069127 1_455
Cu41 Th10 3.105188 1_555
Cu42 Cu46 2.595035 1_655
Cu42 Cu47 2.600822 1_555
Cu42 Th13 2.996143 1_555
Cu42 Th9 3.052476 1_555
Cu42 Th0 3.123647 1_665
Cu42 Th1 3.123647 1_665
Cu43 Cu47 2.595035 1_545
Cu43 Cu45 2.600822 1_655
Cu43 Th11 2.996143 1_555
Cu43 Th10 3.052476 1_655
Cu43 Th0 3.123646 1_655
Cu43 Th1 3.123646 1_655
Cu44 Cu45 2.595035 1_555
Cu44 Cu46 2.600822 1_545
Cu44 Th12 2.996143 1_555
Cu44 Th8 3.052476 1_545
Cu44 Th0 3.123647 1_555
Cu44 Th1 3.123647 1_555
Cu45 Th10 2.972123 1_555
Cu45 Th12 3.066837 1_555
Cu45 Th0 3.129551 1_555
Cu45 Th1 3.129551 1_555
Cu46 Th8 2.972123 1_555
Cu46 Th13 3.066837 1_455
Cu46 Th0 3.129551 1_565
Cu46 Th1 3.129551 1_565
Cu47 Th9 2.972123 1_555
Cu47 Th11 3.066837 1_565
Cu47 Th0 3.129551 1_665
Cu47 Th1 3.129551 1_665
Cu48 Cu49 2.503940 1_455
Cu48 Cu50 2.503940 1_565
Cu48 Th6 2.776167 1_555
Cu48 Th1 3.055223 1_565
Cu48 Th0 3.055223 1_564
Cu48 Th2 3.361386 1_455
Cu48 Th4 3.607152 1_565
Cu49 Cu50 2.503940 1_665
Cu49 Th7 2.776167 1_555
Cu49 Th1 3.055223 1_665
Cu49 Th0 3.055223 1_664
Cu49 Th3 3.361381 1_565
Cu49 Th2 3.607153 1_555
Cu50 Th5 2.776167 1_555
Cu50 Th1 3.055223 1_555
Cu50 Th0 3.055223 1_554
Cu50 Th4 3.361392 1_555
Cu50 Th3 3.607142 1_455
