# generated using pymatgen
data_KMoPO6
_symmetry_space_group_name_H-M   'P 1'
_cell_length_a   10.05813303
_cell_length_b   9.67728879
_cell_length_c   8.49597491
_cell_angle_alpha   66.84274205
_cell_angle_beta   62.20423180
_cell_angle_gamma   50.95302615
_symmetry_Int_Tables_number   1
_chemical_formula_structural   KMoPO6
_chemical_formula_sum   'K4 Mo4 P4 O24'
_cell_volume   562.14744284
_cell_formula_units_Z   4
loop_
 _symmetry_equiv_pos_site_id
 _symmetry_equiv_pos_as_xyz
  1  'x, y, z'
loop_
 _atom_site_type_symbol
 _atom_site_label
 _atom_site_symmetry_multiplicity
 _atom_site_fract_x
 _atom_site_fract_y
 _atom_site_fract_z
 _atom_site_occupancy
  K  K0  1  0.27989100  0.72010900  0.72010900  1
  K  K1  1  0.72010900  0.27989100  0.27989100  1
  K  K2  1  0.97010900  0.52989100  0.52989100  1
  K  K3  1  0.52989100  0.97010900  0.97010900  1
  Mo  Mo0  1  0.22077100  0.77922900  0.22077100  1
  Mo  Mo1  1  0.77922900  0.22077100  0.77922900  1
  Mo  Mo2  1  0.02922900  0.47077100  0.02922900  1
  Mo  Mo3  1  0.47077100  0.02922900  0.47077100  1
  P  P0  1  0.11514400  0.11514400  0.38485600  1
  P  P1  1  0.38485600  0.38485600  0.11514400  1
  P  P2  1  0.13485600  0.13485600  0.86514400  1
  P  P3  1  0.86514400  0.86514400  0.13485600  1
  O  O0  1  0.18260600  0.66110200  0.43354500  1
  O  O1  1  0.72274700  0.43354500  0.66110200  1
  O  O2  1  0.43354500  0.72274700  0.18260600  1
  O  O3  1  0.66110200  0.18260600  0.72274700  1
  O  O4  1  0.06739400  0.58889800  0.81645500  1
  O  O5  1  0.52725300  0.81645500  0.58889800  1
  O  O6  1  0.81645500  0.52725300  0.06739400  1
  O  O7  1  0.58889800  0.06739400  0.52725300  1
  O  O8  1  0.29958000  0.59222700  0.09001800  1
  O  O9  1  0.01817500  0.09001800  0.59222700  1
  O  O10  1  0.09001800  0.01817500  0.29958000  1
  O  O11  1  0.59222700  0.29958000  0.01817500  1
  O  O12  1  0.35786500  0.30592500  0.31452300  1
  O  O13  1  0.02168800  0.31452300  0.30592500  1
  O  O14  1  0.31452300  0.02168800  0.35786500  1
  O  O15  1  0.30592500  0.35786500  0.02168800  1
  O  O16  1  0.89213500  0.94407500  0.93547700  1
  O  O17  1  0.22831200  0.93547700  0.94407500  1
  O  O18  1  0.93547700  0.22831200  0.89213500  1
  O  O19  1  0.94407500  0.89213500  0.22831200  1
  O  O20  1  0.65777300  0.95042000  0.23182500  1
  O  O21  1  0.15998200  0.23182500  0.95042000  1
  O  O22  1  0.23182500  0.15998200  0.65777300  1
  O  O23  1  0.95042000  0.65777300  0.15998200  1
loop_
_geom_bond_atom_site_label_1
_geom_bond_atom_site_label_2
_geom_bond_distance
_geom_bond_site_symmetry_2
K0 O5 2.796538 1_555
K0 O4 2.796538 1_555
K0 O8 2.942829 1_556
K0 O9 2.942829 1_565
K0 O17 3.011615 1_555
K0 O16 3.011621 1_455
K1 O6 2.796538 1_555
K1 O7 2.796538 1_555
K1 O10 2.942829 1_655
K1 O11 2.942829 1_555
K1 O18 3.011622 1_554
K1 O19 3.011624 1_545
K2 O0 2.796538 1_655
K2 O1 2.796538 1_555
K2 O22 2.942829 1_655
K2 O23 2.942829 1_555
K2 O13 3.011615 1_655
K2 O12 3.011621 1_655
K3 O3 2.796538 1_565
K3 O2 2.796538 1_556
K3 O20 2.942829 1_556
K3 O21 2.942829 1_565
K3 O14 3.011622 1_566
K3 O15 3.011624 1_566
Mo0 O2 1.732734 1_555
Mo0 O0 1.732734 1_555
Mo0 O8 2.022340 1_555
Mo0 O10 2.022340 1_565
Mo0 O17 2.236257 1_554
Mo0 O19 2.236260 1_455
Mo1 O1 1.732734 1_555
Mo1 O3 1.732734 1_555
Mo1 O9 2.022340 1_655
Mo1 O11 2.022340 1_556
Mo1 O18 2.236251 1_555
Mo1 O16 2.236257 1_545
Mo2 O4 1.732734 1_554
Mo2 O6 1.732734 1_455
Mo2 O21 2.022340 1_554
Mo2 O23 2.022340 1_455
Mo2 O13 2.236257 1_555
Mo2 O15 2.236260 1_555
Mo3 O5 1.732734 1_545
Mo3 O7 1.732734 1_555
Mo3 O20 2.022340 1_545
Mo3 O22 2.022340 1_555
Mo3 O14 2.236251 1_555
Mo3 O12 2.236257 1_555
O8 P1 1.572782 1_555
O9 P0 1.572782 1_555
O10 P0 1.572782 1_555
O11 P1 1.572782 1_555
O12 P1 1.530109 1_555
O13 P0 1.530109 1_555
O14 P0 1.530111 1_555
O15 P1 1.530102 1_555
O16 P3 1.530109 1_556
O17 P2 1.530109 1_565
O18 P2 1.530111 1_655
O19 P3 1.530102 1_555
O20 P3 1.572782 1_555
O21 P2 1.572782 1_555
O22 P2 1.572782 1_555
O23 P3 1.572782 1_555
