# generated using pymatgen
data_CrCu3PbSe4
_symmetry_space_group_name_H-M   'P 1'
_cell_length_a   6.01476600
_cell_length_b   6.01476600
_cell_length_c   6.01476600
_cell_angle_alpha   90.00000000
_cell_angle_beta   90.00000000
_cell_angle_gamma   90.00000000
_symmetry_Int_Tables_number   1
_chemical_formula_structural   CrCu3PbSe4
_chemical_formula_sum   'Cr1 Cu3 Pb1 Se4'
_cell_volume   217.59865585
_cell_formula_units_Z   1
loop_
 _symmetry_equiv_pos_site_id
 _symmetry_equiv_pos_as_xyz
  1  'x, y, z'
loop_
 _atom_site_type_symbol
 _atom_site_label
 _atom_site_symmetry_multiplicity
 _atom_site_fract_x
 _atom_site_fract_y
 _atom_site_fract_z
 _atom_site_occupancy
  Cr  Cr0  1  0.00000000  0.00000000  0.00000000  1
  Cu  Cu0  1  0.00000000  0.50000000  0.00000000  1
  Cu  Cu1  1  0.00000000  0.00000000  0.50000000  1
  Cu  Cu2  1  0.50000000  0.00000000  0.00000000  1
  Pb  Pb0  1  0.50000000  0.50000000  0.50000000  1
  Se  Se0  1  0.22783700  0.22783700  0.22783700  1
  Se  Se1  1  0.77216300  0.77216300  0.22783700  1
  Se  Se2  1  0.22783700  0.77216300  0.77216300  1
  Se  Se3  1  0.77216300  0.22783700  0.77216300  1
loop_
_geom_bond_atom_site_label_1
_geom_bond_atom_site_label_2
_geom_bond_distance
_geom_bond_site_symmetry_2
Cr0 Se0 2.373579 1_555
Cr0 Se2 2.373579 1_544
Cr0 Se3 2.373579 1_454
Cr0 Se1 2.373579 1_445
Cu0 Se1 2.536863 1_455
Cu0 Se2 2.536863 1_554
Cu0 Se0 2.536863 1_555
Cu0 Se3 2.536863 1_454
Cu1 Se2 2.536863 1_545
Cu1 Se3 2.536863 1_455
Cu1 Se0 2.536863 1_555
Cu1 Se1 2.536863 1_445
Cu2 Se1 2.536863 1_545
Cu2 Se3 2.536863 1_554
Cu2 Se0 2.536863 1_555
Cu2 Se2 2.536863 1_544
Pb0 Se3 2.835362 1_555
Pb0 Se2 2.835362 1_555
Pb0 Se1 2.835362 1_555
Pb0 Se0 2.835362 1_555
