# generated using pymatgen
data_Yb3DySb3
_symmetry_space_group_name_H-M   'P 1'
_cell_length_a   7.83969692
_cell_length_b   7.83969692
_cell_length_c   7.82524853
_cell_angle_alpha   70.53408855
_cell_angle_beta   70.53408855
_cell_angle_gamma   109.51836616
_symmetry_Int_Tables_number   1
_chemical_formula_structural   Yb3DySb3
_chemical_formula_sum   'Yb6 Dy2 Sb6'
_cell_volume   370.06564758
_cell_formula_units_Z   2
loop_
 _symmetry_equiv_pos_site_id
 _symmetry_equiv_pos_as_xyz
  1  'x, y, z'
loop_
 _atom_site_type_symbol
 _atom_site_label
 _atom_site_symmetry_multiplicity
 _atom_site_fract_x
 _atom_site_fract_y
 _atom_site_fract_z
 _atom_site_occupancy
  Yb  Yb0  1  0.00019020  0.35270034  0.50068707  1
  Yb  Yb1  1  0.50182958  0.50028101  0.14485617  1
  Yb  Yb2  1  0.64585284  0.14416798  0.35346282  1
  Yb  Yb3  1  0.35270034  0.00019020  0.00068707  1
  Yb  Yb4  1  0.50028101  0.50182958  0.64485617  1
  Yb  Yb5  1  0.14416798  0.64585284  0.85346282  1
  Dy  Dy0  1  0.85494883  0.99845598  0.00080799  1
  Dy  Dy1  1  0.99845598  0.85494883  0.50080799  1
  Sb  Sb0  1  0.62031346  0.87487231  0.75167133  1
  Sb  Sb1  1  0.87487231  0.62031346  0.25167133  1
  Sb  Sb2  1  0.25572773  0.12849443  0.62293220  1
  Sb  Sb3  1  0.74844571  0.37371958  0.87558143  1
  Sb  Sb4  1  0.37371958  0.74844571  0.37558143  1
  Sb  Sb5  1  0.12849443  0.25572773  0.12293220  1
loop_
_geom_bond_atom_site_label_1
_geom_bond_atom_site_label_2
_geom_bond_distance
_geom_bond_site_symmetry_2
Dy0 Sb1 3.049838 1_555
Dy0 Sb2 3.051769 1_664
Dy0 Sb5 3.056228 1_665
Dy0 Sb4 3.244866 1_555
Dy0 Sb3 3.252350 1_564
Dy0 Sb0 3.252885 1_554
Dy1 Sb0 3.049838 1_555
Dy1 Sb5 3.051769 1_665
Dy1 Sb2 3.056228 1_665
Dy1 Sb3 3.244866 1_555
Dy1 Sb4 3.252350 1_655
Dy1 Sb1 3.252885 1_555
Sb0 Yb3 3.015369 1_566
Sb0 Yb2 3.020643 1_565
Sb0 Yb1 3.033771 1_556
Sb0 Yb5 3.221614 1_555
Sb0 Yb4 3.232896 1_555
Sb0 Yb0 3.240778 1_665
Sb1 Yb0 3.015369 1_655
Sb1 Yb5 3.020643 1_654
Sb1 Yb4 3.033771 1_555
Sb1 Yb2 3.221614 1_555
Sb1 Yb1 3.232896 1_555
Sb1 Yb3 3.240778 1_665
Sb2 Yb4 3.012605 1_555
Sb2 Yb2 3.015552 1_555
Sb2 Yb3 3.217897 1_556
Sb2 Yb1 3.221428 1_555
Sb2 Yb5 3.244054 1_545
Sb2 Yb0 3.244620 1_555
Sb3 Yb1 3.020362 1_556
Sb3 Yb3 3.025446 1_556
Sb3 Yb5 3.029745 1_655
Sb3 Yb0 3.034656 1_655
Sb3 Yb2 3.226849 1_556
Sb3 Yb4 3.239112 1_555
Sb4 Yb4 3.020362 1_555
Sb4 Yb0 3.025446 1_555
Sb4 Yb2 3.029745 1_565
Sb4 Yb3 3.034656 1_565
Sb4 Yb5 3.226849 1_555
Sb4 Yb1 3.239112 1_555
Sb5 Yb1 3.012605 1_555
Sb5 Yb5 3.015552 1_554
Sb5 Yb0 3.217897 1_555
Sb5 Yb4 3.221428 1_554
Sb5 Yb2 3.244054 1_455
Sb5 Yb3 3.244620 1_555
