# generated using pymatgen
data_Rb2Zn2(MoO4)3
_symmetry_space_group_name_H-M   'P 1'
_cell_length_a   9.37723000
_cell_length_b   7.19193700
_cell_length_c   20.95777848
_cell_angle_alpha   70.89464542
_cell_angle_beta   90.00000000
_cell_angle_gamma   90.00000000
_symmetry_Int_Tables_number   1
_chemical_formula_structural   Rb2Zn2(MoO4)3
_chemical_formula_sum   'Rb8 Zn8 Mo12 O48'
_cell_volume   1335.54941409
_cell_formula_units_Z   4
loop_
 _symmetry_equiv_pos_site_id
 _symmetry_equiv_pos_as_xyz
  1  'x, y, z'
loop_
 _atom_site_type_symbol
 _atom_site_label
 _atom_site_symmetry_multiplicity
 _atom_site_fract_x
 _atom_site_fract_y
 _atom_site_fract_z
 _atom_site_occupancy
  Rb  Rb0  1  0.03076600  0.79668400  0.90816500  1
  Rb  Rb1  1  0.96923400  0.20331600  0.09183500  1
  Rb  Rb2  1  0.53076600  0.20331600  0.59183500  1
  Rb  Rb3  1  0.46923400  0.79668400  0.40816500  1
  Rb  Rb4  1  0.11663200  0.40343900  0.78726400  1
  Rb  Rb5  1  0.88336800  0.59656100  0.21273600  1
  Rb  Rb6  1  0.61663200  0.59656100  0.71273600  1
  Rb  Rb7  1  0.38336800  0.40343900  0.28726400  1
  Zn  Zn0  1  0.40936600  0.93864300  0.93680100  1
  Zn  Zn1  1  0.59063400  0.06135700  0.06319900  1
  Zn  Zn2  1  0.90936600  0.06135700  0.56319900  1
  Zn  Zn3  1  0.09063400  0.93864300  0.43680100  1
  Zn  Zn4  1  0.14445800  0.27038600  0.63538200  1
  Zn  Zn5  1  0.85554200  0.72961400  0.36461800  1
  Zn  Zn6  1  0.64445800  0.72961400  0.86461800  1
  Zn  Zn7  1  0.35554200  0.27038600  0.13538200  1
  Mo  Mo0  1  0.22292200  0.80210800  0.59824600  1
  Mo  Mo1  1  0.77707800  0.19789200  0.40175400  1
  Mo  Mo2  1  0.72292200  0.19789200  0.90175400  1
  Mo  Mo3  1  0.27707800  0.80210800  0.09824600  1
  Mo  Mo4  1  0.32825600  0.95079500  0.77427200  1
  Mo  Mo5  1  0.67174400  0.04920500  0.22572800  1
  Mo  Mo6  1  0.82825600  0.04920500  0.72572800  1
  Mo  Mo7  1  0.17174400  0.95079500  0.27427200  1
  Mo  Mo8  1  0.34318800  0.41547500  0.96468600  1
  Mo  Mo9  1  0.65681200  0.58452500  0.03531400  1
  Mo  Mo10  1  0.84318800  0.58452500  0.53531400  1
  Mo  Mo11  1  0.15681200  0.41547500  0.46468600  1
  O  O0  1  0.78971000  0.98339300  0.65038500  1
  O  O1  1  0.21029000  0.01660700  0.34961500  1
  O  O2  1  0.28971000  0.01660700  0.84961500  1
  O  O3  1  0.71029000  0.98339300  0.15038500  1
  O  O4  1  0.49910600  0.82649600  0.78593800  1
  O  O5  1  0.50089400  0.17350400  0.21406200  1
  O  O6  1  0.99910600  0.17350400  0.71406200  1
  O  O7  1  0.00089400  0.82649600  0.28593800  1
  O  O8  1  0.81914400  0.83084900  0.80082700  1
  O  O9  1  0.18085600  0.16915100  0.19917300  1
  O  O10  1  0.31914400  0.16915100  0.69917300  1
  O  O11  1  0.68085600  0.83084900  0.30082700  1
  O  O12  1  0.19360200  0.78931700  0.76695300  1
  O  O13  1  0.80639800  0.21068300  0.23304700  1
  O  O14  1  0.69360200  0.21068300  0.73304700  1
  O  O15  1  0.30639800  0.78931700  0.26695300  1
  O  O16  1  0.15986700  0.55549000  0.64172400  1
  O  O17  1  0.84013300  0.44451000  0.35827600  1
  O  O18  1  0.65986700  0.44451000  0.85827600  1
  O  O19  1  0.34013300  0.55549000  0.14172400  1
  O  O20  1  0.25215400  0.36751600  0.54325900  1
  O  O21  1  0.74784600  0.63248400  0.45674100  1
  O  O22  1  0.75215400  0.63248400  0.95674100  1
  O  O23  1  0.24784600  0.36751600  0.04325900  1
  O  O24  1  0.20554700  0.46332300  0.90523400  1
  O  O25  1  0.79445300  0.53667700  0.09476600  1
  O  O26  1  0.70554700  0.53667700  0.59476600  1
  O  O27  1  0.29445300  0.46332300  0.40523400  1
  O  O28  1  0.39289600  0.82558000  0.63085400  1
  O  O29  1  0.60710400  0.17442000  0.36914600  1
  O  O30  1  0.89289600  0.17442000  0.86914600  1
  O  O31  1  0.10710400  0.82558000  0.13085400  1
  O  O32  1  0.93630600  0.80194000  0.54040700  1
  O  O33  1  0.06369400  0.19806000  0.45959300  1
  O  O34  1  0.43630600  0.19806000  0.95959300  1
  O  O35  1  0.56369400  0.80194000  0.04040700  1
  O  O36  1  0.10850000  0.99578600  0.61099900  1
  O  O37  1  0.89150000  0.00421400  0.38900100  1
  O  O38  1  0.60850000  0.00421400  0.88900100  1
  O  O39  1  0.39150000  0.99578600  0.11099900  1
  O  O40  1  0.24792000  0.84449000  0.50870700  1
  O  O41  1  0.75208000  0.15551000  0.49129300  1
  O  O42  1  0.74792000  0.15551000  0.99129300  1
  O  O43  1  0.25208000  0.84449000  0.00870700  1
  O  O44  1  0.45459400  0.64297500  0.93955800  1
  O  O45  1  0.54540600  0.35702500  0.06044200  1
  O  O46  1  0.95459400  0.35702500  0.56044200  1
  O  O47  1  0.04540600  0.64297500  0.43955800  1
loop_
_geom_bond_atom_site_label_1
_geom_bond_atom_site_label_2
_geom_bond_distance
_geom_bond_site_symmetry_2
Mo0 O28 1.763947 1_555
Mo0 O16 1.807710 1_555
Mo0 O40 1.815165 1_555
Mo0 O36 1.845702 1_555
Mo1 O29 1.763947 1_555
Mo1 O17 1.807710 1_555
Mo1 O41 1.815165 1_555
Mo1 O37 1.845702 1_555
Mo2 O30 1.763947 1_555
Mo2 O18 1.807710 1_555
Mo2 O42 1.815165 1_555
Mo2 O38 1.845702 1_555
Mo3 O31 1.763947 1_555
Mo3 O19 1.807710 1_555
Mo3 O43 1.815165 1_555
Mo3 O39 1.845702 1_555
Mo4 O12 1.755908 1_555
Mo4 O4 1.811787 1_555
Mo4 O10 1.825559 1_565
Mo4 O2 1.826808 1_565
Mo5 O13 1.755908 1_555
Mo5 O5 1.811787 1_555
Mo5 O11 1.825559 1_545
Mo5 O3 1.826808 1_545
Mo6 O14 1.755908 1_555
Mo6 O6 1.811787 1_555
Mo6 O8 1.825559 1_545
Mo6 O0 1.826808 1_545
Mo7 O15 1.755908 1_555
Mo7 O7 1.811787 1_555
Mo7 O9 1.825559 1_565
Mo7 O1 1.826808 1_565
Mo8 O24 1.748170 1_555
Mo8 O23 1.805034 1_556
Mo8 O34 1.824297 1_555
Mo8 O44 1.865927 1_555
Mo9 O25 1.748170 1_555
Mo9 O22 1.805034 1_554
Mo9 O35 1.824297 1_555
Mo9 O45 1.865927 1_555
Mo10 O26 1.748170 1_555
Mo10 O21 1.805034 1_555
Mo10 O32 1.824297 1_555
Mo10 O46 1.865927 1_555
Mo11 O27 1.748170 1_555
Mo11 O20 1.805034 1_555
Mo11 O33 1.824297 1_555
Mo11 O47 1.865927 1_555
O0 Zn2 2.059477 1_565
O0 Rb2 2.938190 1_565
O0 Rb6 3.114769 1_555
O1 Zn3 2.059477 1_545
O1 Rb3 2.938190 1_545
O1 Rb7 3.114769 1_555
O2 Zn0 2.059477 1_545
O2 Rb0 2.938190 1_545
O2 Rb4 3.114769 1_555
O3 Zn1 2.059477 1_565
O3 Rb1 2.938190 1_565
O3 Rb5 3.114769 1_555
O4 Zn6 2.076103 1_555
O4 Rb6 2.821980 1_555
O5 Zn7 2.076103 1_555
O5 Rb7 2.821980 1_555
O6 Zn4 2.076103 1_655
O6 Rb4 2.821980 1_655
O7 Zn5 2.076103 1_455
O7 Rb5 2.821980 1_455
O8 Zn6 2.088907 1_555
O8 Rb0 2.949075 1_655
O9 Zn7 2.088907 1_555
O9 Rb1 2.949075 1_455
O10 Zn4 2.088907 1_555
O10 Rb2 2.949075 1_555
O11 Zn5 2.088907 1_555
O11 Rb3 2.949075 1_555
O12 Rb4 2.762358 1_555
O12 Rb0 3.345984 1_555
O13 Rb5 2.762358 1_555
O13 Rb1 3.345984 1_555
O14 Rb6 2.762358 1_555
O14 Rb2 3.345984 1_555
O15 Rb7 2.762358 1_555
O15 Rb3 3.345984 1_555
O16 Zn4 2.102687 1_555
O16 Rb4 2.912117 1_555
O17 Zn5 2.102687 1_555
O17 Rb5 2.912117 1_555
O18 Zn6 2.102687 1_555
O18 Rb6 2.912117 1_555
O19 Zn7 2.102687 1_555
O19 Rb7 2.912117 1_555
O20 Zn4 2.086279 1_555
O20 Rb2 2.910277 1_555
O21 Zn5 2.086279 1_555
O21 Rb3 2.910277 1_555
O22 Zn6 2.086279 1_555
O22 Rb0 2.910277 1_655
O23 Zn7 2.086279 1_555
O23 Rb1 2.910277 1_455
O24 Rb4 2.773160 1_555
O24 Rb0 2.921376 1_555
O25 Rb5 2.773160 1_555
O25 Rb1 2.921376 1_555
O26 Rb6 2.773160 1_555
O26 Rb2 2.921376 1_555
O27 Rb7 2.773160 1_555
O27 Rb3 2.921376 1_555
O28 Rb6 2.865173 1_555
O28 Rb2 2.875083 1_565
O29 Rb7 2.865173 1_555
O29 Rb3 2.875083 1_545
O30 Rb4 2.865173 1_655
O30 Rb0 2.875083 1_645
O31 Rb5 2.865173 1_455
O31 Rb1 2.875083 1_465
O32 Zn2 2.087163 1_565
O32 Zn3 2.525512 1_655
O33 Zn3 2.087163 1_545
O33 Zn2 2.525512 1_455
O34 Zn0 2.087163 1_545
O34 Zn1 2.525512 1_556
O35 Zn1 2.087163 1_565
O35 Zn0 2.525512 1_554
O36 Zn2 2.098477 1_465
O36 Zn4 2.221648 1_565
O37 Zn3 2.098477 1_645
O37 Zn5 2.221648 1_545
O38 Zn0 2.098477 1_545
O38 Zn6 2.221648 1_545
O39 Zn1 2.098477 1_565
O39 Zn7 2.221648 1_565
O40 Zn3 2.058372 1_555
O40 Rb3 3.056044 1_555
O41 Zn2 2.058372 1_555
O41 Rb2 3.056044 1_555
O42 Zn1 2.058372 1_556
O42 Rb1 3.056044 1_556
O43 Zn0 2.058372 1_554
O43 Rb0 3.056044 1_554
O44 Zn0 2.150457 1_555
O44 Zn6 2.320379 1_555
O45 Zn1 2.150457 1_555
O45 Zn7 2.320379 1_555
O46 Zn2 2.150457 1_555
O46 Zn4 2.320379 1_655
O47 Zn3 2.150457 1_555
O47 Zn5 2.320379 1_455
