# generated using pymatgen
data_BaTi2Fe4O11
_symmetry_space_group_name_H-M   'P 1'
_cell_length_a   5.97889581
_cell_length_b   5.97889581
_cell_length_c   13.33402491
_cell_angle_alpha   89.87212558
_cell_angle_beta   89.87212558
_cell_angle_gamma   120.01945014
_symmetry_Int_Tables_number   1
_chemical_formula_structural   BaTi2Fe4O11
_chemical_formula_sum   'Ba2 Ti4 Fe8 O22'
_cell_volume   412.70942257
_cell_formula_units_Z   2
loop_
 _symmetry_equiv_pos_site_id
 _symmetry_equiv_pos_as_xyz
  1  'x, y, z'
loop_
 _atom_site_type_symbol
 _atom_site_label
 _atom_site_symmetry_multiplicity
 _atom_site_fract_x
 _atom_site_fract_y
 _atom_site_fract_z
 _atom_site_occupancy
  Ba  Ba0  1  0.66621700  0.33378300  0.75000000  1
  Ba  Ba1  1  0.33378300  0.66621700  0.25000000  1
  Ti  Ti0  1  0.00000000  0.50000000  0.00000000  1
  Ti  Ti1  1  0.50000000  0.00000000  0.50000000  1
  Ti  Ti2  1  0.66712100  0.33287900  0.25000000  1
  Ti  Ti3  1  0.33287900  0.66712100  0.75000000  1
  Fe  Fe0  1  0.00336900  0.00173200  0.85916300  1
  Fe  Fe1  1  0.99663100  0.99826800  0.14083700  1
  Fe  Fe2  1  0.00173200  0.00336900  0.35916300  1
  Fe  Fe3  1  0.99826800  0.99663100  0.64083700  1
  Fe  Fe4  1  0.50000000  0.00000000  0.00000000  1
  Fe  Fe5  1  0.50000000  0.50000000  0.00000000  1
  Fe  Fe6  1  0.00000000  0.50000000  0.50000000  1
  Fe  Fe7  1  0.50000000  0.50000000  0.50000000  1
  O  O0  1  0.66187000  0.32381000  0.41173600  1
  O  O1  1  0.33813000  0.67619000  0.58826400  1
  O  O2  1  0.32381000  0.66187000  0.91173600  1
  O  O3  1  0.67619000  0.33813000  0.08826400  1
  O  O4  1  0.34834300  0.17440900  0.91996000  1
  O  O5  1  0.83411800  0.65132800  0.92009200  1
  O  O6  1  0.83442200  0.18302000  0.92005200  1
  O  O7  1  0.65165700  0.82559100  0.08004000  1
  O  O8  1  0.16588200  0.34867200  0.07990800  1
  O  O9  1  0.16557800  0.81698000  0.07994800  1
  O  O10  1  0.65132800  0.83411800  0.42009200  1
  O  O11  1  0.17440900  0.34834300  0.41996000  1
  O  O12  1  0.18302000  0.83442200  0.42005200  1
  O  O13  1  0.34867200  0.16588200  0.57990800  1
  O  O14  1  0.82559100  0.65165700  0.58004000  1
  O  O15  1  0.81698000  0.16557800  0.57994800  1
  O  O16  1  0.68938500  0.84501700  0.75163300  1
  O  O17  1  0.15498300  0.31061500  0.74836700  1
  O  O18  1  0.15453300  0.84546700  0.75000000  1
  O  O19  1  0.31061500  0.15498300  0.24836700  1
  O  O20  1  0.84501700  0.68938500  0.25163300  1
  O  O21  1  0.84546700  0.15453300  0.25000000  1
loop_
_geom_bond_atom_site_label_1
_geom_bond_atom_site_label_2
_geom_bond_distance
_geom_bond_site_symmetry_2
Ba0 O4 2.795532 1_555
Ba0 O14 2.795532 1_555
Ba0 O6 2.805970 1_555
Ba0 O15 2.805970 1_555
Ba0 O13 2.806873 1_555
Ba0 O5 2.806873 1_555
Ba0 O16 2.989853 1_555
Ba0 O17 2.989853 1_555
Ba0 O18 2.991018 1_545
Ba0 O18 2.991018 1_655
Ba0 O16 2.994019 1_545
Ba0 O17 2.994019 1_655
Ba1 O11 2.795532 1_555
Ba1 O7 2.795532 1_555
Ba1 O9 2.805970 1_555
Ba1 O12 2.805970 1_555
Ba1 O8 2.806873 1_555
Ba1 O10 2.806873 1_555
Ba1 O20 2.989853 1_555
Ba1 O19 2.989853 1_555
Ba1 O21 2.991018 1_565
Ba1 O21 2.991018 1_455
Ba1 O20 2.994019 1_455
Ba1 O19 2.994019 1_565
Fe0 O4 1.964118 1_555
Fe0 O5 1.985108 1_445
Fe0 O6 1.987494 1_455
Fe0 O18 2.157213 1_545
Fe0 O16 2.171615 1_445
Fe0 O17 2.172941 1_555
Fe1 O7 1.964118 1_555
Fe1 O8 1.985108 1_665
Fe1 O9 1.987494 1_655
Fe1 O21 2.157213 1_565
Fe1 O19 2.171615 1_665
Fe1 O20 2.172941 1_555
Fe2 O11 1.964118 1_555
Fe2 O10 1.985108 1_445
Fe2 O12 1.987494 1_545
Fe2 O21 2.157213 1_455
Fe2 O20 2.171615 1_445
Fe2 O19 2.172941 1_555
Fe3 O14 1.964118 1_555
Fe3 O13 1.985108 1_665
Fe3 O15 1.987494 1_565
Fe3 O18 2.157213 1_655
Fe3 O17 2.171615 1_665
Fe3 O16 2.172941 1_555
Fe4 O4 1.998505 1_554
Fe4 O7 1.998505 1_545
Fe4 O9 2.031691 1_545
Fe4 O6 2.031691 1_554
Fe4 O3 2.113558 1_555
Fe4 O2 2.113558 1_544
Fe5 O7 1.999545 1_555
Fe5 O4 1.999545 1_554
Fe5 O5 2.030329 1_554
Fe5 O8 2.030329 1_555
Fe5 O2 2.109982 1_554
Fe5 O3 2.109982 1_555
Fe6 O11 1.998505 1_555
Fe6 O14 1.998505 1_455
Fe6 O15 2.031691 1_455
Fe6 O12 2.031691 1_555
Fe6 O1 2.113558 1_555
Fe6 O0 2.113558 1_455
Fe7 O14 1.999545 1_555
Fe7 O11 1.999545 1_555
Fe7 O13 2.030329 1_555
Fe7 O10 2.030329 1_555
Fe7 O0 2.109982 1_555
Fe7 O1 2.109982 1_555
O0 Ti1 2.044485 1_555
O0 Ti2 2.156916 1_555
O1 Ti1 2.044485 1_565
O1 Ti3 2.156916 1_555
O2 Ti0 2.044485 1_556
O2 Ti3 2.156916 1_555
O3 Ti0 2.044485 1_655
O3 Ti2 2.156916 1_555
O5 Ti0 1.958529 1_656
O6 Ti0 1.960778 1_656
O8 Ti0 1.958529 1_555
O9 Ti0 1.960778 1_555
O10 Ti1 1.958529 1_565
O12 Ti1 1.960778 1_565
O13 Ti1 1.958529 1_555
O15 Ti1 1.960778 1_555
O16 Ti3 1.845796 1_555
O17 Ti3 1.845796 1_555
O18 Ti3 1.847088 1_555
O19 Ti2 1.845796 1_555
O20 Ti2 1.845796 1_555
O21 Ti2 1.847088 1_555
