# generated using pymatgen
data_LiFe2F5
_symmetry_space_group_name_H-M   'P 1'
_cell_length_a   6.07365039
_cell_length_b   6.07365039
_cell_length_c   7.57117812
_cell_angle_alpha   70.27488889
_cell_angle_beta   70.27488889
_cell_angle_gamma   50.87655827
_symmetry_Int_Tables_number   1
_chemical_formula_structural   LiFe2F5
_chemical_formula_sum   'Li2 Fe4 F10'
_cell_volume   200.97191090
_cell_formula_units_Z   2
loop_
 _symmetry_equiv_pos_site_id
 _symmetry_equiv_pos_as_xyz
  1  'x, y, z'
loop_
 _atom_site_type_symbol
 _atom_site_label
 _atom_site_symmetry_multiplicity
 _atom_site_fract_x
 _atom_site_fract_y
 _atom_site_fract_z
 _atom_site_occupancy
  Li  Li0  1  0.50000000  0.50000000  0.00000000  1
  Li  Li1  1  0.50000000  0.50000000  0.50000000  1
  Fe  Fe0  1  0.81297500  0.82495200  0.87004000  1
  Fe  Fe1  1  0.82495200  0.81297500  0.37004000  1
  Fe  Fe2  1  0.17504800  0.18702500  0.62996000  1
  Fe  Fe3  1  0.18702500  0.17504800  0.12996000  1
  F  F0  1  0.19132900  0.80867100  0.25000000  1
  F  F1  1  0.56165100  0.17957000  0.47309900  1
  F  F2  1  0.01837400  0.60279800  0.63213300  1
  F  F3  1  0.17957000  0.56165100  0.97309900  1
  F  F4  1  0.60279800  0.01837400  0.13213300  1
  F  F5  1  0.39720200  0.98162600  0.86786700  1
  F  F6  1  0.82043000  0.43834900  0.02690100  1
  F  F7  1  0.98162600  0.39720200  0.36786700  1
  F  F8  1  0.43834900  0.82043000  0.52690100  1
  F  F9  1  0.80867100  0.19132900  0.75000000  1
loop_
_geom_bond_atom_site_label_1
_geom_bond_atom_site_label_2
_geom_bond_distance
_geom_bond_site_symmetry_2
F0 Fe1 2.087073 1_455
F0 Fe3 2.087073 1_565
F0 Li0 2.485274 1_555
F0 Li1 2.485274 1_555
F1 Li1 1.807134 1_555
F1 Fe1 1.990158 1_545
F1 Fe2 2.223910 1_555
F2 Fe2 2.065829 1_555
F2 Fe0 2.149607 1_455
F2 Fe1 2.217761 1_455
F2 Li1 2.467581 1_555
F3 Li0 1.807134 1_556
F3 Fe0 1.990158 1_455
F3 Fe3 2.223910 1_556
F4 Fe3 2.065829 1_555
F4 Fe1 2.149607 1_545
F4 Fe0 2.217761 1_544
F4 Li0 2.467581 1_555
F5 Fe0 2.065829 1_555
F5 Fe2 2.149607 1_565
F5 Fe3 2.217761 1_566
F5 Li0 2.467581 1_556
F6 Li0 1.807134 1_555
F6 Fe3 1.990158 1_655
F6 Fe0 2.223910 1_554
F7 Fe1 2.065829 1_555
F7 Fe3 2.149607 1_655
F7 Fe2 2.217761 1_655
F7 Li1 2.467581 1_555
F8 Li1 1.807134 1_555
F8 Fe2 1.990158 1_565
F8 Fe1 2.223910 1_555
F9 Fe0 2.087073 1_545
F9 Fe2 2.087073 1_655
F9 Li0 2.485274 1_556
F9 Li1 2.485274 1_555
