# generated using pymatgen
data_SrCr2O10
_symmetry_space_group_name_H-M   'P 1'
_cell_length_a   14.99764500
_cell_length_b   7.27632700
_cell_length_c   8.94150334
_cell_angle_alpha   73.87981661
_cell_angle_beta   90.00000000
_cell_angle_gamma   90.00000000
_symmetry_Int_Tables_number   1
_chemical_formula_structural   SrCr2O10
_chemical_formula_sum   'Sr4 Cr8 O40'
_cell_volume   937.40055368
_cell_formula_units_Z   4
loop_
 _symmetry_equiv_pos_site_id
 _symmetry_equiv_pos_as_xyz
  1  'x, y, z'
loop_
 _atom_site_type_symbol
 _atom_site_label
 _atom_site_symmetry_multiplicity
 _atom_site_fract_x
 _atom_site_fract_y
 _atom_site_fract_z
 _atom_site_occupancy
  Sr  Sr0  1  0.38278400  0.31334100  0.80676200  1
  Sr  Sr1  1  0.88278400  0.18665900  0.19323800  1
  Sr  Sr2  1  0.61721600  0.68665900  0.19323800  1
  Sr  Sr3  1  0.11721600  0.81334100  0.80676200  1
  Cr  Cr0  1  0.62982800  0.09668200  0.78778500  1
  Cr  Cr1  1  0.12982800  0.40331800  0.21221500  1
  Cr  Cr2  1  0.37017200  0.90331800  0.21221500  1
  Cr  Cr3  1  0.87017200  0.59668200  0.78778500  1
  Cr  Cr4  1  0.35800000  0.90349800  0.59824300  1
  Cr  Cr5  1  0.85800000  0.59650200  0.40175700  1
  Cr  Cr6  1  0.64200000  0.09650200  0.40175700  1
  Cr  Cr7  1  0.14200000  0.40349800  0.59824300  1
  O  O0  1  0.26822000  0.84348700  0.17074900  1
  O  O1  1  0.76822000  0.65651300  0.82925100  1
  O  O2  1  0.73178000  0.15651300  0.82925100  1
  O  O3  1  0.23178000  0.34348700  0.17074900  1
  O  O4  1  0.43949900  0.72900700  0.21687000  1
  O  O5  1  0.93949900  0.77099300  0.78313000  1
  O  O6  1  0.56050100  0.27099300  0.78313000  1
  O  O7  1  0.06050100  0.22900700  0.21687000  1
  O  O8  1  0.40049900  0.09023800  0.07306500  1
  O  O9  1  0.90049900  0.40976200  0.92693500  1
  O  O10  1  0.59950100  0.90976200  0.92693500  1
  O  O11  1  0.09950100  0.59023800  0.07306500  1
  O  O12  1  0.37120400  0.95725500  0.39368900  1
  O  O13  1  0.87120400  0.54274500  0.60631100  1
  O  O14  1  0.62879600  0.04274500  0.60631100  1
  O  O15  1  0.12879600  0.45725500  0.39368900  1
  O  O16  1  0.25171300  0.90433900  0.63918700  1
  O  O17  1  0.75171300  0.59566100  0.36081300  1
  O  O18  1  0.74828700  0.09566100  0.36081300  1
  O  O19  1  0.24828700  0.40433900  0.63918700  1
  O  O20  1  0.40772400  0.07067500  0.65855600  1
  O  O21  1  0.90772400  0.42932500  0.34144400  1
  O  O22  1  0.59227600  0.92932500  0.34144400  1
  O  O23  1  0.09227600  0.57067500  0.65855600  1
  O  O24  1  0.39940800  0.69385300  0.68764100  1
  O  O25  1  0.89940800  0.80614700  0.31235900  1
  O  O26  1  0.60059200  0.30614700  0.31235900  1
  O  O27  1  0.10059200  0.19385300  0.68764100  1
  O  O28  1  0.46267500  0.46362900  0.50207100  1
  O  O29  1  0.96267500  0.03637100  0.49792900  1
  O  O30  1  0.53732500  0.53637100  0.49792900  1
  O  O31  1  0.03732500  0.96362900  0.50207100  1
  O  O32  1  0.22554000  0.99686700  0.95533000  1
  O  O33  1  0.72554000  0.50313300  0.04467000  1
  O  O34  1  0.77446000  0.00313300  0.04467000  1
  O  O35  1  0.27446000  0.49686700  0.95533000  1
  O  O36  1  0.47892100  0.45330000  0.05796300  1
  O  O37  1  0.97892100  0.04670000  0.94203700  1
  O  O38  1  0.52107900  0.54670000  0.94203700  1
  O  O39  1  0.02107900  0.95330000  0.05796300  1
loop_
_geom_bond_atom_site_label_1
_geom_bond_atom_site_label_2
_geom_bond_distance
_geom_bond_site_symmetry_2
Cr0 O6 1.631618 1_555
Cr0 O10 1.632504 1_545
Cr0 O2 1.659698 1_555
Cr0 O14 1.772258 1_555
Cr1 O7 1.631618 1_555
Cr1 O11 1.632504 1_555
Cr1 O3 1.659698 1_555
Cr1 O15 1.772258 1_555
Cr2 O4 1.631618 1_555
Cr2 O8 1.632504 1_565
Cr2 O0 1.659698 1_555
Cr2 O12 1.772258 1_555
Cr3 O5 1.631618 1_555
Cr3 O9 1.632504 1_555
Cr3 O1 1.659698 1_555
Cr3 O13 1.772258 1_555
Cr4 O24 1.635388 1_555
Cr4 O16 1.635947 1_555
Cr4 O20 1.640416 1_565
Cr4 O12 1.772075 1_555
Cr5 O25 1.635388 1_555
Cr5 O17 1.635947 1_555
Cr5 O21 1.640416 1_555
Cr5 O13 1.772075 1_555
Cr6 O26 1.635388 1_555
Cr6 O18 1.635947 1_555
Cr6 O22 1.640416 1_545
Cr6 O14 1.772075 1_555
Cr7 O27 1.635388 1_555
Cr7 O19 1.635947 1_555
Cr7 O23 1.640416 1_555
Cr7 O15 1.772075 1_555
O4 Sr2 2.698106 1_555
O5 Sr3 2.698106 1_655
O6 Sr0 2.698106 1_555
O7 Sr1 2.698106 1_455
O8 Sr0 2.495849 1_554
O9 Sr1 2.495849 1_556
O10 Sr2 2.495849 1_556
O11 Sr3 2.495849 1_554
O16 Sr3 2.490272 1_555
O17 Sr2 2.490272 1_555
O18 Sr1 2.490272 1_555
O19 Sr0 2.490272 1_555
O20 Sr0 2.512596 1_555
O21 Sr1 2.512596 1_555
O22 Sr2 2.512596 1_555
O23 Sr3 2.512596 1_555
O24 Sr0 2.687916 1_555
O25 Sr1 2.687916 1_565
O26 Sr2 2.687916 1_555
O27 Sr3 2.687916 1_545
O28 O30 1.234538 1_555
O28 Sr0 2.898173 1_555
O29 O31 1.234538 1_645
O29 Sr1 2.898173 1_555
O30 Sr2 2.898173 1_555
O31 Sr3 2.898173 1_555
O32 Sr3 2.678137 1_555
O32 Sr0 3.306096 1_565
O33 Sr2 2.678137 1_555
O33 Sr1 3.306096 1_555
O34 Sr1 2.678137 1_555
O34 Sr2 3.306096 1_545
O35 Sr0 2.678137 1_555
O35 Sr3 3.306096 1_555
O36 O38 1.242936 1_554
O36 Sr0 3.071031 1_554
O36 Sr2 3.128678 1_555
O37 O39 1.242936 1_646
O37 Sr1 3.071031 1_556
O37 Sr3 3.128678 1_645
O38 Sr2 3.071031 1_556
O38 Sr0 3.128678 1_555
O39 Sr3 3.071031 1_554
O39 Sr1 3.128678 1_465
