# generated using pymatgen
data_Na4Sn2Ge5HO16
_symmetry_space_group_name_H-M   'P 1'
_cell_length_a   5.45086600
_cell_length_b   7.05531500
_cell_length_c   21.25897824
_cell_angle_alpha   73.94298203
_cell_angle_beta   90.00000000
_cell_angle_gamma   90.00000000
_symmetry_Int_Tables_number   1
_chemical_formula_structural   Na4Sn2Ge5HO16
_chemical_formula_sum   'Na8 Sn4 Ge10 H2 O32'
_cell_volume   785.67290799
_cell_formula_units_Z   2
loop_
 _symmetry_equiv_pos_site_id
 _symmetry_equiv_pos_as_xyz
  1  'x, y, z'
loop_
 _atom_site_type_symbol
 _atom_site_label
 _atom_site_symmetry_multiplicity
 _atom_site_fract_x
 _atom_site_fract_y
 _atom_site_fract_z
 _atom_site_occupancy
  Na  Na0  1  0.25592100  0.89209000  0.97177200  1
  Na  Na1  1  0.25592100  0.10791000  0.52822800  1
  Na  Na2  1  0.48921400  0.74990600  0.29185800  1
  Na  Na3  1  0.48921400  0.25009400  0.20814200  1
  Na  Na4  1  0.51078600  0.74990600  0.79185800  1
  Na  Na5  1  0.51078600  0.25009400  0.70814200  1
  Na  Na6  1  0.74407900  0.10791000  0.02822800  1
  Na  Na7  1  0.74407900  0.89209000  0.47177200  1
  Sn  Sn0  1  0.25974600  0.38615900  0.91085800  1
  Sn  Sn1  1  0.25974600  0.61384100  0.58914200  1
  Sn  Sn2  1  0.74025400  0.38615900  0.41085800  1
  Sn  Sn3  1  0.74025400  0.61384100  0.08914200  1
  Ge  Ge0  1  0.00295200  0.50000000  0.25000000  1
  Ge  Ge1  1  0.25490000  0.84681200  0.13473300  1
  Ge  Ge2  1  0.25490000  0.15318800  0.36526700  1
  Ge  Ge3  1  0.78303700  0.31514700  0.57525400  1
  Ge  Ge4  1  0.78303700  0.68485300  0.92474600  1
  Ge  Ge5  1  0.74510000  0.15318800  0.86526700  1
  Ge  Ge6  1  0.74510000  0.84681200  0.63473300  1
  Ge  Ge7  1  0.21696300  0.31514700  0.07525400  1
  Ge  Ge8  1  0.21696300  0.68485300  0.42474600  1
  Ge  Ge9  1  0.99704800  0.50000000  0.75000000  1
  H  H0  1  0.16524900  0.00000000  0.75000000  1
  H  H1  1  0.83475100  0.00000000  0.25000000  1
  O  O0  1  0.20708300  0.70356500  0.21812800  1
  O  O1  1  0.20708300  0.29643500  0.28187200  1
  O  O2  1  0.18002400  0.54038100  0.81307400  1
  O  O3  1  0.18002400  0.45961900  0.68692600  1
  O  O4  1  0.43919200  0.15620000  0.88702400  1
  O  O5  1  0.43919200  0.84380000  0.61297600  1
  O  O6  1  0.34149200  0.24320700  0.00906900  1
  O  O7  1  0.34149200  0.75679300  0.49093100  1
  O  O8  1  0.22147400  0.08958700  0.14576800  1
  O  O9  1  0.22147400  0.91041300  0.35423200  1
  O  O10  1  0.09540100  0.61800200  0.93674400  1
  O  O11  1  0.09540100  0.38199800  0.56325600  1
  O  O12  1  0.04455400  0.80859700  0.07671600  1
  O  O13  1  0.04455400  0.19140300  0.42328400  1
  O  O14  1  0.65850800  0.24320700  0.50906900  1
  O  O15  1  0.65850800  0.75679300  0.99093100  1
  O  O16  1  0.81997600  0.54038100  0.31307400  1
  O  O17  1  0.81997600  0.45961900  0.18692600  1
  O  O18  1  0.79291700  0.29643500  0.78187200  1
  O  O19  1  0.79291700  0.70356500  0.71812800  1
  O  O20  1  0.95544600  0.19140300  0.92328400  1
  O  O21  1  0.95544600  0.80859700  0.57671600  1
  O  O22  1  0.40379000  0.53322500  0.39127000  1
  O  O23  1  0.40379000  0.46677500  0.10873000  1
  O  O24  1  0.90459900  0.61800200  0.43674400  1
  O  O25  1  0.90459900  0.38199800  0.06325600  1
  O  O26  1  0.59621000  0.53322500  0.89127000  1
  O  O27  1  0.59621000  0.46677500  0.60873000  1
  O  O28  1  0.77852600  0.91041300  0.85423200  1
  O  O29  1  0.77852600  0.08958700  0.64576800  1
  O  O30  1  0.56080800  0.84380000  0.11297600  1
  O  O31  1  0.56080800  0.15620000  0.38702400  1
loop_
_geom_bond_atom_site_label_1
_geom_bond_atom_site_label_2
_geom_bond_distance
_geom_bond_site_symmetry_2
Na0 O15 2.382773 1_555
Na0 O10 2.419955 1_555
Na0 O4 2.420532 1_565
Na0 O12 2.434086 1_556
Na0 O20 2.645828 1_465
Na0 O6 2.840693 1_566
Na1 O14 2.382773 1_555
Na1 O11 2.419955 1_555
Na1 O5 2.420532 1_545
Na1 O13 2.434086 1_555
Na1 O21 2.645828 1_445
Na1 O7 2.840693 1_545
Na2 O0 2.283028 1_555
Na2 O22 2.287592 1_555
Na2 O16 2.295747 1_555
Na2 O9 2.449745 1_555
Na3 O1 2.283028 1_555
Na3 O23 2.287592 1_555
Na3 O17 2.295747 1_555
Na3 O8 2.449745 1_555
Na4 O19 2.283028 1_555
Na4 O26 2.287592 1_555
Na4 O2 2.295747 1_555
Na4 O28 2.449745 1_555
Na5 O18 2.283028 1_555
Na5 O27 2.287592 1_555
Na5 O3 2.295747 1_555
Na5 O29 2.449745 1_555
Na6 O6 2.382773 1_555
Na6 O25 2.419955 1_555
Na6 O30 2.420532 1_545
Na6 O20 2.434086 1_554
Na6 O12 2.645828 1_645
Na6 O15 2.840693 1_544
Na7 O7 2.382773 1_555
Na7 O24 2.419955 1_555
Na7 O31 2.420532 1_565
Na7 O21 2.434086 1_555
Na7 O13 2.645828 1_665
Na7 O14 2.840693 1_565
Ge0 O17 1.756486 1_455
Ge0 O16 1.756486 1_455
Ge0 O0 1.794872 1_555
Ge0 O1 1.794872 1_555
Ge1 O30 1.732126 1_555
Ge1 O12 1.758551 1_555
Ge1 O0 1.800364 1_555
Ge1 O8 1.801217 1_565
Ge2 O31 1.732126 1_555
Ge2 O13 1.758551 1_555
Ge2 O1 1.800364 1_555
Ge2 O9 1.801217 1_545
Ge3 O14 1.758736 1_555
Ge3 O27 1.763274 1_555
Ge3 O11 1.766352 1_655
Ge3 O29 1.860278 1_555
Ge4 O15 1.758736 1_555
Ge4 O26 1.763274 1_555
Ge4 O10 1.766352 1_655
Ge4 O28 1.860278 1_555
Ge5 O4 1.732126 1_555
Ge5 O20 1.758551 1_555
Ge5 O18 1.800364 1_555
Ge5 O28 1.801217 1_545
Ge6 O5 1.732126 1_555
Ge6 O21 1.758551 1_555
Ge6 O19 1.800364 1_555
Ge6 O29 1.801217 1_565
Ge7 O6 1.758736 1_555
Ge7 O23 1.763274 1_555
Ge7 O25 1.766352 1_455
Ge7 O8 1.860278 1_555
Ge8 O7 1.758736 1_555
Ge8 O22 1.763274 1_555
Ge8 O24 1.766352 1_455
Ge8 O9 1.860278 1_555
Ge9 O3 1.756486 1_655
Ge9 O2 1.756486 1_655
Ge9 O18 1.794872 1_555
Ge9 O19 1.794872 1_555
H0 Na5 2.565965 1_555
H0 Na4 2.565965 1_545
H1 Na3 2.565965 1_555
H1 Na2 2.565965 1_545
O2 Sn0 2.107812 1_555
O3 Sn1 2.107812 1_555
O4 Sn0 2.073771 1_555
O5 Sn1 2.073771 1_555
O6 Sn0 2.100015 1_554
O7 Sn1 2.100015 1_555
O10 Sn0 2.068548 1_555
O11 Sn1 2.068548 1_555
O12 Sn3 2.123281 1_455
O13 Sn2 2.123281 1_455
O14 Sn2 2.100015 1_555
O15 Sn3 2.100015 1_556
O16 Sn2 2.107812 1_555
O17 Sn3 2.107812 1_555
O20 Sn0 2.123281 1_655
O21 Sn1 2.123281 1_655
O22 Sn2 2.091560 1_555
O23 Sn3 2.091560 1_555
O24 Sn2 2.068548 1_555
O25 Sn3 2.068548 1_555
O26 Sn0 2.091560 1_555
O27 Sn1 2.091560 1_555
O30 Sn3 2.073771 1_555
O31 Sn2 2.073771 1_555
