# generated using pymatgen
data_CsTmI3
_symmetry_space_group_name_H-M   'P 1'
_cell_length_a   8.32717100
_cell_length_b   8.70221100
_cell_length_c   12.14529800
_cell_angle_alpha   90.00000000
_cell_angle_beta   90.00000000
_cell_angle_gamma   90.00000000
_symmetry_Int_Tables_number   1
_chemical_formula_structural   CsTmI3
_chemical_formula_sum   'Cs4 Tm4 I12'
_cell_volume   880.10657928
_cell_formula_units_Z   4
loop_
 _symmetry_equiv_pos_site_id
 _symmetry_equiv_pos_as_xyz
  1  'x, y, z'
loop_
 _atom_site_type_symbol
 _atom_site_label
 _atom_site_symmetry_multiplicity
 _atom_site_fract_x
 _atom_site_fract_y
 _atom_site_fract_z
 _atom_site_occupancy
  Cs  Cs0  1  0.02948400  0.43395000  0.25000000  1
  Cs  Cs1  1  0.97051600  0.56605000  0.75000000  1
  Cs  Cs2  1  0.52948400  0.06605000  0.75000000  1
  Cs  Cs3  1  0.47051600  0.93395000  0.25000000  1
  Tm  Tm0  1  0.00000000  0.00000000  0.00000000  1
  Tm  Tm1  1  0.50000000  0.50000000  0.00000000  1
  Tm  Tm2  1  0.00000000  0.00000000  0.50000000  1
  Tm  Tm3  1  0.50000000  0.50000000  0.50000000  1
  I  I0  1  0.28563400  0.21729500  0.02535200  1
  I  I1  1  0.71436600  0.78270500  0.97464800  1
  I  I2  1  0.78563400  0.28270500  0.97464800  1
  I  I3  1  0.71436600  0.78270500  0.52535200  1
  I  I4  1  0.21436600  0.71729500  0.02535200  1
  I  I5  1  0.28563400  0.21729500  0.47464800  1
  I  I6  1  0.21436600  0.71729500  0.47464800  1
  I  I7  1  0.78563400  0.28270500  0.52535200  1
  I  I8  1  0.55997700  0.49812900  0.25000000  1
  I  I9  1  0.44002300  0.50187100  0.75000000  1
  I  I10  1  0.05997700  0.00187100  0.75000000  1
  I  I11  1  0.94002300  0.99812900  0.25000000  1
loop_
_geom_bond_atom_site_label_1
_geom_bond_atom_site_label_2
_geom_bond_distance
_geom_bond_site_symmetry_2
Cs0 I11 3.865077 1_445
Cs0 I0 3.943173 1_555
Cs0 I5 3.943173 1_555
Cs0 I8 3.949355 1_455
Cs0 I6 3.986762 1_555
Cs0 I4 3.986762 1_555
Cs0 I2 4.127886 1_454
Cs0 I7 4.127886 1_455
Cs0 I8 4.452671 1_555
Cs1 I10 3.865077 1_665
Cs1 I1 3.943173 1_555
Cs1 I3 3.943173 1_555
Cs1 I9 3.949355 1_655
Cs1 I7 3.986762 1_555
Cs1 I2 3.986762 1_555
Cs1 I6 4.127886 1_655
Cs1 I4 4.127886 1_656
Cs1 I9 4.452671 1_555
Cs2 I9 3.865077 1_555
Cs2 I2 3.943173 1_555
Cs2 I7 3.943173 1_555
Cs2 I10 3.949355 1_555
Cs2 I3 3.986762 1_545
Cs2 I1 3.986762 1_545
Cs2 I5 4.127886 1_555
Cs2 I0 4.127886 1_556
Cs2 I10 4.452671 1_655
Cs3 I8 3.865077 1_555
Cs3 I4 3.943173 1_555
Cs3 I6 3.943173 1_555
Cs3 I11 3.949355 1_555
Cs3 I5 3.986762 1_565
Cs3 I0 3.986762 1_565
Cs3 I1 4.127886 1_554
Cs3 I3 4.127886 1_555
Cs3 I11 4.452671 1_455
I0 Tm0 3.054155 1_555
I0 Tm1 3.055100 1_555
I1 Tm0 3.054155 1_666
I1 Tm1 3.055100 1_556
I2 Tm1 3.054155 1_556
I2 Tm0 3.055100 1_656
I3 Tm2 3.054155 1_665
I3 Tm3 3.055100 1_555
I4 Tm1 3.054155 1_555
I4 Tm0 3.055100 1_565
I5 Tm2 3.054155 1_555
I5 Tm3 3.055100 1_555
I6 Tm3 3.054155 1_555
I6 Tm2 3.055100 1_565
I7 Tm3 3.054155 1_555
I7 Tm2 3.055100 1_655
I8 Tm1 3.077169 1_555
I8 Tm3 3.077169 1_555
I9 Tm3 3.077169 1_555
I9 Tm1 3.077169 1_556
I10 Tm0 3.077169 1_556
I10 Tm2 3.077169 1_555
I11 Tm2 3.077169 1_665
I11 Tm0 3.077169 1_665
