# generated using pymatgen
data_Mg2Sb3O8
_symmetry_space_group_name_H-M   'P 1'
_cell_length_a   6.53498969
_cell_length_b   6.53498969
_cell_length_c   9.62532200
_cell_angle_alpha   90.00000000
_cell_angle_beta   90.00000000
_cell_angle_gamma   119.99999690
_symmetry_Int_Tables_number   1
_chemical_formula_structural   Mg2Sb3O8
_chemical_formula_sum   'Mg4 Sb6 O16'
_cell_volume   355.98830144
_cell_formula_units_Z   2
loop_
 _symmetry_equiv_pos_site_id
 _symmetry_equiv_pos_as_xyz
  1  'x, y, z'
loop_
 _atom_site_type_symbol
 _atom_site_label
 _atom_site_symmetry_multiplicity
 _atom_site_fract_x
 _atom_site_fract_y
 _atom_site_fract_z
 _atom_site_occupancy
  Mg  Mg0  1  0.66666700  0.33333300  0.02942400  1
  Mg  Mg1  1  0.33333300  0.66666700  0.52942400  1
  Mg  Mg2  1  0.66666700  0.33333300  0.40468300  1
  Mg  Mg3  1  0.33333300  0.66666700  0.90468300  1
  Sb  Sb0  1  0.66964600  0.83482300  0.24223500  1
  Sb  Sb1  1  0.83482300  0.16517700  0.74223500  1
  Sb  Sb2  1  0.16517700  0.33035400  0.24223500  1
  Sb  Sb3  1  0.83482300  0.66964600  0.74223500  1
  Sb  Sb4  1  0.33035400  0.16517700  0.74223500  1
  Sb  Sb5  1  0.16517700  0.83482300  0.24223500  1
  O  O0  1  0.83025200  0.16974800  0.14608400  1
  O  O1  1  0.66050400  0.83025200  0.64608400  1
  O  O2  1  0.16974800  0.33949600  0.64608400  1
  O  O3  1  0.83025200  0.66050400  0.14608400  1
  O  O4  1  0.33949600  0.16974800  0.14608400  1
  O  O5  1  0.16974800  0.83025200  0.64608400  1
  O  O6  1  0.51772500  0.48227500  0.87646400  1
  O  O7  1  0.03545000  0.51772500  0.37646400  1
  O  O8  1  0.48227500  0.96455000  0.37646400  1
  O  O9  1  0.51772500  0.03545000  0.87646400  1
  O  O10  1  0.00000000  0.00000000  0.34820100  1
  O  O11  1  0.00000000  0.00000000  0.84820100  1
  O  O12  1  0.33333300  0.66666700  0.11684800  1
  O  O13  1  0.96455000  0.48227500  0.87646400  1
  O  O14  1  0.48227500  0.51772500  0.37646400  1
  O  O15  1  0.66666700  0.33333300  0.61684800  1
loop_
_geom_bond_atom_site_label_1
_geom_bond_atom_site_label_2
_geom_bond_distance
_geom_bond_site_symmetry_2
Mg0 O0 2.165487 1_555
Mg0 O3 2.165492 1_555
Mg0 O4 2.165492 1_555
Mg0 O9 2.238249 1_554
Mg0 O13 2.238249 1_554
Mg0 O6 2.238253 1_554
Mg1 O5 2.165487 1_555
Mg1 O1 2.165492 1_555
Mg1 O2 2.165492 1_555
Mg1 O7 2.238249 1_555
Mg1 O8 2.238249 1_555
Mg1 O14 2.238253 1_555
Mg2 O15 2.042156 1_555
Mg2 O8 2.104715 1_545
Mg2 O7 2.104715 1_655
Mg2 O14 2.104721 1_555
Mg3 O12 2.042156 1_556
Mg3 O13 2.104715 1_455
Mg3 O9 2.104715 1_565
Mg3 O6 2.104721 1_555
O0 Sb0 2.109843 1_545
O0 Sb2 2.109843 1_655
O1 Sb3 2.109843 1_555
O1 Sb1 2.109843 1_565
O2 Sb4 2.109843 1_555
O2 Sb1 2.109843 1_455
O3 Sb0 2.109843 1_555
O3 Sb5 2.109843 1_655
O4 Sb2 2.109843 1_555
O4 Sb5 2.109843 1_545
O5 Sb3 2.109843 1_455
O5 Sb4 2.109843 1_565
O6 Sb4 2.219311 1_555
O6 Sb3 2.219311 1_555
O7 Sb2 2.219311 1_555
O7 Sb5 2.219311 1_555
O8 Sb0 2.219311 1_555
O8 Sb5 2.219311 1_555
O9 Sb4 2.219311 1_555
O9 Sb1 2.219311 1_555
O10 Sb5 2.129746 1_545
O10 Sb0 2.129746 1_445
O10 Sb2 2.129746 1_555
O11 Sb1 2.129746 1_455
O11 Sb4 2.129746 1_555
O11 Sb3 2.129746 1_445
O12 Sb5 2.253733 1_555
O12 Sb2 2.253738 1_555
O12 Sb0 2.253738 1_555
O13 Sb3 2.219311 1_555
O13 Sb1 2.219311 1_555
O14 Sb2 2.219311 1_555
O14 Sb0 2.219311 1_555
O15 Sb1 2.253733 1_555
O15 Sb3 2.253738 1_555
O15 Sb4 2.253738 1_555
