# generated using pymatgen
data_Rb2PtC4(IN2)2
_symmetry_space_group_name_H-M   'P 1'
_cell_length_a   9.73311100
_cell_length_b   7.63294600
_cell_length_c   9.40274171
_cell_angle_alpha   72.76494789
_cell_angle_beta   90.00000000
_cell_angle_gamma   90.00000000
_symmetry_Int_Tables_number   1
_chemical_formula_structural   Rb2PtC4(IN2)2
_chemical_formula_sum   'Rb4 Pt2 C8 I4 N8'
_cell_volume   667.18454766
_cell_formula_units_Z   2
loop_
 _symmetry_equiv_pos_site_id
 _symmetry_equiv_pos_as_xyz
  1  'x, y, z'
loop_
 _atom_site_type_symbol
 _atom_site_label
 _atom_site_symmetry_multiplicity
 _atom_site_fract_x
 _atom_site_fract_y
 _atom_site_fract_z
 _atom_site_occupancy
  Rb  Rb0  1  0.78290700  0.52368600  0.61738900  1
  Rb  Rb1  1  0.28290700  0.47631400  0.88261100  1
  Rb  Rb2  1  0.21709300  0.47631400  0.38261100  1
  Rb  Rb3  1  0.71709300  0.52368600  0.11738900  1
  Pt  Pt0  1  0.00000000  0.00000000  0.00000000  1
  Pt  Pt1  1  0.50000000  0.00000000  0.50000000  1
  C  C0  1  0.03213600  0.19508400  0.10180500  1
  C  C1  1  0.53213600  0.80491600  0.39819500  1
  C  C2  1  0.96786400  0.80491600  0.89819500  1
  C  C3  1  0.46786400  0.19508400  0.60180500  1
  C  C4  1  0.96114800  0.81133300  0.19678200  1
  C  C5  1  0.46114800  0.18866700  0.30321800  1
  C  C6  1  0.03885200  0.18866700  0.80321800  1
  C  C7  1  0.53885200  0.81133300  0.69678200  1
  I  I0  1  0.27263800  0.91117300  0.02882500  1
  I  I1  1  0.77263800  0.08882700  0.47117500  1
  I  I2  1  0.72736200  0.08882700  0.97117500  1
  I  I3  1  0.22736200  0.91117300  0.52882500  1
  N  N0  1  0.05264600  0.31231000  0.15626000  1
  N  N1  1  0.55264600  0.68769000  0.34374000  1
  N  N2  1  0.94735400  0.68769000  0.84374000  1
  N  N3  1  0.44735400  0.31231000  0.65626000  1
  N  N4  1  0.93729600  0.69665900  0.30813200  1
  N  N5  1  0.43729600  0.30334100  0.19186800  1
  N  N6  1  0.06270400  0.30334100  0.69186800  1
  N  N7  1  0.56270400  0.69665900  0.80813200  1
loop_
_geom_bond_atom_site_label_1
_geom_bond_atom_site_label_2
_geom_bond_distance
_geom_bond_site_symmetry_2
C0 N0 1.172240 1_555
C0 Pt0 2.018946 1_555
C1 N1 1.172240 1_555
C1 Pt1 2.018946 1_565
C2 N2 1.172240 1_555
C2 Pt0 2.018946 1_666
C3 N3 1.172240 1_555
C3 Pt1 2.018946 1_555
C4 N4 1.171828 1_555
C4 Pt0 2.015299 1_665
C5 N5 1.171828 1_555
C5 Pt1 2.015299 1_555
C6 N6 1.171828 1_555
C6 Pt0 2.015299 1_556
C7 N7 1.171828 1_555
C7 Pt1 2.015299 1_565
I0 Pt0 2.732387 1_565
I0 Rb1 3.952433 1_554
I0 Rb2 3.979018 1_555
I0 Rb1 4.122341 1_564
I1 Pt1 2.732387 1_555
I1 Rb0 3.952433 1_555
I1 Rb3 3.979018 1_555
I1 Rb0 4.122341 1_545
I2 Pt0 2.732387 1_656
I2 Rb3 3.952433 1_556
I2 Rb0 3.979018 1_555
I2 Rb3 4.122341 1_546
I3 Pt1 2.732387 1_565
I3 Rb2 3.952433 1_555
I3 Rb1 3.979018 1_555
I3 Rb2 4.122341 1_565
N0 Rb2 3.199612 1_555
N1 Rb3 3.199612 1_555
N2 Rb0 3.199612 1_555
N3 Rb1 3.199612 1_555
N4 Rb2 3.168205 1_655
N4 Rb0 3.190899 1_555
N5 Rb3 3.168205 1_555
N5 Rb1 3.190899 1_554
N6 Rb0 3.168205 1_455
N6 Rb2 3.190899 1_555
N7 Rb1 3.168205 1_555
N7 Rb3 3.190899 1_556
