# generated using pymatgen
data_TeS3N2
_symmetry_space_group_name_H-M   'P 1'
_cell_length_a   11.11480500
_cell_length_b   10.27833000
_cell_length_c   5.79914700
_cell_angle_alpha   90.00000000
_cell_angle_beta   90.00000000
_cell_angle_gamma   90.00000000
_symmetry_Int_Tables_number   1
_chemical_formula_structural   TeS3N2
_chemical_formula_sum   'Te4 S12 N8'
_cell_volume   662.50402721
_cell_formula_units_Z   4
loop_
 _symmetry_equiv_pos_site_id
 _symmetry_equiv_pos_as_xyz
  1  'x, y, z'
loop_
 _atom_site_type_symbol
 _atom_site_label
 _atom_site_symmetry_multiplicity
 _atom_site_fract_x
 _atom_site_fract_y
 _atom_site_fract_z
 _atom_site_occupancy
  Te  Te0  1  0.29661700  0.75000000  0.79546400  1
  Te  Te1  1  0.79661700  0.75000000  0.70453600  1
  Te  Te2  1  0.70338300  0.25000000  0.20453600  1
  Te  Te3  1  0.20338300  0.25000000  0.29546400  1
  S  S0  1  0.55946200  0.75000000  0.24279300  1
  S  S1  1  0.05946200  0.75000000  0.25720700  1
  S  S2  1  0.44053800  0.25000000  0.75720700  1
  S  S3  1  0.94053800  0.25000000  0.74279300  1
  S  S4  1  0.15554300  0.57646200  0.89604300  1
  S  S5  1  0.65554300  0.92353800  0.60395700  1
  S  S6  1  0.84445700  0.07646200  0.10395700  1
  S  S7  1  0.34445700  0.42353800  0.39604300  1
  S  S8  1  0.84445700  0.42353800  0.10395700  1
  S  S9  1  0.34445700  0.07646200  0.39604300  1
  S  S10  1  0.15554300  0.92353800  0.89604300  1
  S  S11  1  0.65554300  0.57646200  0.60395700  1
  N  N0  1  0.09461600  0.61467400  0.14767400  1
  N  N1  1  0.59461600  0.88532600  0.35232600  1
  N  N2  1  0.90538400  0.11467400  0.85232600  1
  N  N3  1  0.40538400  0.38532600  0.64767400  1
  N  N4  1  0.90538400  0.38532600  0.85232600  1
  N  N5  1  0.40538400  0.11467400  0.64767400  1
  N  N6  1  0.09461600  0.88532600  0.14767400  1
  N  N7  1  0.59461600  0.61467400  0.35232600  1
loop_
_geom_bond_atom_site_label_1
_geom_bond_atom_site_label_2
_geom_bond_distance
_geom_bond_site_symmetry_2
S4 Te0 2.445481 1_555
S5 Te1 2.445481 1_555
S6 Te2 2.445481 1_555
S7 Te3 2.445481 1_555
S8 Te2 2.445481 1_555
S9 Te3 2.445481 1_555
S10 Te0 2.445481 1_555
S11 Te1 2.445481 1_555
N0 S1 1.578233 1_555
N0 S4 1.655972 1_554
N1 S0 1.578233 1_555
N1 S5 1.655972 1_555
N2 S3 1.578233 1_555
N2 S6 1.655972 1_556
N3 S2 1.578233 1_555
N3 S7 1.655972 1_555
N4 S3 1.578233 1_555
N4 S8 1.655972 1_556
N5 S2 1.578233 1_555
N5 S9 1.655972 1_555
N6 S1 1.578233 1_555
N6 S10 1.655972 1_554
N7 S0 1.578233 1_555
N7 S11 1.655972 1_555
