# generated using pymatgen
data_Pr3Ta(ClO2)3
_symmetry_space_group_name_H-M   'P 1'
_cell_length_a   9.55740566
_cell_length_b   9.55740566
_cell_length_c   5.35571900
_cell_angle_alpha   90.00000000
_cell_angle_beta   90.00000000
_cell_angle_gamma   119.99999766
_symmetry_Int_Tables_number   1
_chemical_formula_structural   Pr3Ta(ClO2)3
_chemical_formula_sum   'Pr6 Ta2 Cl6 O12'
_cell_volume   423.67073333
_cell_formula_units_Z   2
loop_
 _symmetry_equiv_pos_site_id
 _symmetry_equiv_pos_as_xyz
  1  'x, y, z'
loop_
 _atom_site_type_symbol
 _atom_site_label
 _atom_site_symmetry_multiplicity
 _atom_site_fract_x
 _atom_site_fract_y
 _atom_site_fract_z
 _atom_site_occupancy
  Pr  Pr0  1  0.90983000  0.59678200  0.75000000  1
  Pr  Pr1  1  0.09017000  0.40321800  0.25000000  1
  Pr  Pr2  1  0.68695200  0.09017000  0.75000000  1
  Pr  Pr3  1  0.31304800  0.90983000  0.25000000  1
  Pr  Pr4  1  0.40321800  0.31304800  0.75000000  1
  Pr  Pr5  1  0.59678200  0.68695200  0.25000000  1
  Ta  Ta0  1  0.33333300  0.66666700  0.75000000  1
  Ta  Ta1  1  0.66666700  0.33333300  0.25000000  1
  Cl  Cl0  1  0.75993700  0.81003900  0.75000000  1
  Cl  Cl1  1  0.24006300  0.18996100  0.25000000  1
  Cl  Cl2  1  0.05010200  0.24006300  0.75000000  1
  Cl  Cl3  1  0.94989800  0.75993700  0.25000000  1
  Cl  Cl4  1  0.18996100  0.94989800  0.75000000  1
  Cl  Cl5  1  0.81003900  0.05010200  0.25000000  1
  O  O0  1  0.47782300  0.84196200  0.98642000  1
  O  O1  1  0.52217700  0.15803800  0.01358000  1
  O  O2  1  0.36413800  0.52217700  0.98642000  1
  O  O3  1  0.52217700  0.15803800  0.48642000  1
  O  O4  1  0.63586200  0.47782300  0.01358000  1
  O  O5  1  0.47782300  0.84196200  0.51358000  1
  O  O6  1  0.15803800  0.63586200  0.98642000  1
  O  O7  1  0.63586200  0.47782300  0.48642000  1
  O  O8  1  0.84196200  0.36413800  0.01358000  1
  O  O9  1  0.36413800  0.52217700  0.51358000  1
  O  O10  1  0.84196200  0.36413800  0.48642000  1
  O  O11  1  0.15803800  0.63586200  0.51358000  1
loop_
_geom_bond_atom_site_label_1
_geom_bond_atom_site_label_2
_geom_bond_distance
_geom_bond_site_symmetry_2
Cl0 Pr0 3.020990 1_555
Cl0 Pr5 3.025223 1_556
Cl0 Pr5 3.025223 1_555
Cl0 Pr2 3.085807 1_565
Cl1 Pr1 3.020990 1_555
Cl1 Pr4 3.025223 1_555
Cl1 Pr4 3.025223 1_554
Cl1 Pr3 3.085807 1_545
Cl2 Pr2 3.020990 1_455
Cl2 Pr1 3.025223 1_556
Cl2 Pr1 3.025223 1_555
Cl2 Pr4 3.085807 1_555
Cl3 Pr3 3.020990 1_655
Cl3 Pr0 3.025223 1_555
Cl3 Pr0 3.025223 1_554
Cl3 Pr5 3.085807 1_555
Cl4 Pr4 3.020990 1_565
Cl4 Pr3 3.025223 1_555
Cl4 Pr3 3.025223 1_556
Cl4 Pr0 3.085807 1_455
Cl5 Pr5 3.020990 1_545
Cl5 Pr2 3.025223 1_554
Cl5 Pr2 3.025223 1_555
Cl5 Pr1 3.085807 1_655
O0 Ta0 2.000884 1_555
O0 Pr3 2.432094 1_556
O0 Pr2 2.546408 1_565
O0 Pr5 2.676678 1_556
O1 Ta1 2.000884 1_555
O1 Pr2 2.432094 1_554
O1 Pr3 2.546408 1_545
O1 Pr4 2.676678 1_554
O2 Ta0 2.000884 1_555
O2 Pr5 2.432099 1_556
O2 Pr4 2.546414 1_555
O2 Pr1 2.676671 1_556
O3 Ta1 2.000884 1_555
O3 Pr2 2.432094 1_555
O3 Pr3 2.546408 1_545
O3 Pr4 2.676678 1_555
O4 Ta1 2.000884 1_555
O4 Pr4 2.432099 1_554
O4 Pr5 2.546414 1_555
O4 Pr0 2.676671 1_554
O5 Ta0 2.000884 1_555
O5 Pr3 2.432094 1_555
O5 Pr2 2.546408 1_565
O5 Pr5 2.676678 1_555
O6 Ta0 2.000884 1_555
O6 Pr1 2.432101 1_556
O6 Pr0 2.546405 1_455
O6 Pr3 2.676672 1_556
O7 Ta1 2.000884 1_555
O7 Pr4 2.432099 1_555
O7 Pr5 2.546414 1_555
O7 Pr0 2.676671 1_555
O8 Ta1 2.000884 1_555
O8 Pr0 2.432101 1_554
O8 Pr1 2.546405 1_655
O8 Pr2 2.676672 1_554
O9 Ta0 2.000884 1_555
O9 Pr5 2.432099 1_555
O9 Pr4 2.546414 1_555
O9 Pr1 2.676671 1_555
O10 Ta1 2.000884 1_555
O10 Pr0 2.432101 1_555
O10 Pr1 2.546405 1_655
O10 Pr2 2.676672 1_555
O11 Ta0 2.000884 1_555
O11 Pr1 2.432101 1_555
O11 Pr0 2.546405 1_455
O11 Pr3 2.676672 1_555
