# generated using pymatgen
data_LaMg
_symmetry_space_group_name_H-M   'P 1'
_cell_length_a   13.42347667
_cell_length_b   13.42347667
_cell_length_c   16.24336750
_cell_angle_alpha   73.63952102
_cell_angle_beta   73.63952102
_cell_angle_gamma   30.80495551
_symmetry_Int_Tables_number   1
_chemical_formula_structural   LaMg
_chemical_formula_sum   'La24 Mg24'
_cell_volume   1433.50514394
_cell_formula_units_Z   24
loop_
 _symmetry_equiv_pos_site_id
 _symmetry_equiv_pos_as_xyz
  1  'x, y, z'
loop_
 _atom_site_type_symbol
 _atom_site_label
 _atom_site_symmetry_multiplicity
 _atom_site_fract_x
 _atom_site_fract_y
 _atom_site_fract_z
 _atom_site_occupancy
  La  La0_0  1  0.49983250  0.49983250  0.00738150  1
  La  La0_1  1  0.49983250  0.49983250  0.50738150  1
  La  La0_2  1  0.49983250  0.99983250  0.00738150  1
  La  La0_3  1  0.49983250  0.99983250  0.50738150  1
  La  La0_4  1  0.99983250  0.49983250  0.00738150  1
  La  La0_5  1  0.99983250  0.49983250  0.50738150  1
  La  La0_6  1  0.99983250  0.99983250  0.00738150  1
  La  La0_7  1  0.99983250  0.99983250  0.50738150  1
  La  La1_0  1  0.31361450  0.31361450  0.12900600  1
  La  La1_1  1  0.31361450  0.31361450  0.62900600  1
  La  La1_2  1  0.31361450  0.81361450  0.12900600  1
  La  La1_3  1  0.31361450  0.81361450  0.62900600  1
  La  La1_4  1  0.81361450  0.31361450  0.12900600  1
  La  La1_5  1  0.81361450  0.31361450  0.62900600  1
  La  La1_6  1  0.81361450  0.81361450  0.12900600  1
  La  La1_7  1  0.81361450  0.81361450  0.62900600  1
  La  La2_0  1  0.32280200  0.32280200  0.34222200  1
  La  La2_1  1  0.32280200  0.32280200  0.84222200  1
  La  La2_2  1  0.32280200  0.82280200  0.34222200  1
  La  La2_3  1  0.32280200  0.82280200  0.84222200  1
  La  La2_4  1  0.82280200  0.32280200  0.34222200  1
  La  La2_5  1  0.82280200  0.32280200  0.84222200  1
  La  La2_6  1  0.82280200  0.82280200  0.34222200  1
  La  La2_7  1  0.82280200  0.82280200  0.84222200  1
  Mg  Mg0_0  1  0.16786400  0.16786400  0.17614800  1
  Mg  Mg0_1  1  0.16786400  0.16786400  0.67614800  1
  Mg  Mg0_2  1  0.16786400  0.66786400  0.17614800  1
  Mg  Mg0_3  1  0.16786400  0.66786400  0.67614800  1
  Mg  Mg0_4  1  0.66786400  0.16786400  0.17614800  1
  Mg  Mg0_5  1  0.66786400  0.16786400  0.67614800  1
  Mg  Mg0_6  1  0.66786400  0.66786400  0.17614800  1
  Mg  Mg0_7  1  0.66786400  0.66786400  0.67614800  1
  Mg  Mg1_0  1  0.46523650  0.46523650  0.30301300  1
  Mg  Mg1_1  1  0.46523650  0.46523650  0.80301300  1
  Mg  Mg1_2  1  0.46523650  0.96523650  0.30301300  1
  Mg  Mg1_3  1  0.46523650  0.96523650  0.80301300  1
  Mg  Mg1_4  1  0.96523650  0.46523650  0.30301300  1
  Mg  Mg1_5  1  0.96523650  0.46523650  0.80301300  1
  Mg  Mg1_6  1  0.96523650  0.96523650  0.30301300  1
  Mg  Mg1_7  1  0.96523650  0.96523650  0.80301300  1
  Mg  Mg2_0  1  0.14731650  0.14731650  0.45889600  1
  Mg  Mg2_1  1  0.14731650  0.14731650  0.95889600  1
  Mg  Mg2_2  1  0.14731650  0.64731650  0.45889600  1
  Mg  Mg2_3  1  0.14731650  0.64731650  0.95889600  1
  Mg  Mg2_4  1  0.64731650  0.14731650  0.45889600  1
  Mg  Mg2_5  1  0.64731650  0.14731650  0.95889600  1
  Mg  Mg2_6  1  0.64731650  0.64731650  0.45889600  1
  Mg  Mg2_7  1  0.64731650  0.64731650  0.95889600  1
loop_
_geom_bond_atom_site_label_1
_geom_bond_atom_site_label_2
_geom_bond_distance
_geom_bond_site_symmetry_2
La0_0 La2_5 3.313777 1_554
La0_0 La2_3 3.313777 1_554
La0_0 La1_4 3.422252 1_555
La0_0 La1_2 3.422252 1_555
La0_0 Mg0_4 3.434414 1_555
La0_0 Mg0_2 3.434414 1_555
La0_0 Mg2_5 3.472697 1_554
La0_0 Mg2_3 3.472697 1_554
La0_0 La0_6 3.565246 1_545
La0_0 La0_6 3.565246 1_455
La0_0 Mg2_7 3.665402 1_554
La0_0 Mg1_1 3.682222 1_554
La0_1 La2_4 3.313777 1_555
La0_1 La2_2 3.313777 1_555
La0_1 La1_3 3.422252 1_555
La0_1 La1_5 3.422252 1_555
La0_1 Mg0_5 3.434414 1_555
La0_1 Mg0_3 3.434414 1_555
La0_1 Mg2_2 3.472697 1_555
La0_1 Mg2_4 3.472697 1_555
La0_1 La0_7 3.565246 1_545
La0_1 La0_7 3.565246 1_455
La0_1 Mg2_6 3.665402 1_555
La0_1 Mg1_0 3.682222 1_555
La0_2 La2_1 3.313777 1_564
La0_2 La2_7 3.313777 1_554
La0_2 La1_0 3.422252 1_565
La0_2 La1_6 3.422252 1_555
La0_2 Mg0_6 3.434414 1_555
La0_2 Mg0_0 3.434414 1_565
La0_2 Mg2_7 3.472697 1_554
La0_2 Mg2_1 3.472697 1_564
La0_2 La0_4 3.565246 1_465
La0_2 La0_4 3.565246 1_555
La0_2 Mg2_5 3.665402 1_564
La0_2 Mg1_3 3.682222 1_554
La0_3 La2_6 3.313777 1_555
La0_3 La2_0 3.313777 1_565
La0_3 La1_1 3.422252 1_565
La0_3 La1_7 3.422252 1_555
La0_3 Mg0_7 3.434414 1_555
La0_3 Mg0_1 3.434414 1_565
La0_3 Mg2_0 3.472697 1_565
La0_3 Mg2_6 3.472697 1_555
La0_3 La0_5 3.565246 1_555
La0_3 La0_5 3.565246 1_465
La0_3 Mg2_4 3.665402 1_565
La0_3 Mg1_2 3.682222 1_555
La0_4 La2_1 3.313777 1_654
La0_4 La2_7 3.313777 1_554
La0_4 La1_0 3.422252 1_655
La0_4 La1_6 3.422252 1_555
La0_4 Mg0_6 3.434414 1_555
La0_4 Mg0_0 3.434414 1_655
La0_4 Mg2_7 3.472697 1_554
La0_4 Mg2_1 3.472697 1_654
La0_4 Mg2_3 3.665402 1_654
La0_4 Mg1_5 3.682222 1_554
La0_5 La2_6 3.313777 1_555
La0_5 La2_0 3.313777 1_655
La0_5 La1_1 3.422252 1_655
La0_5 La1_7 3.422252 1_555
La0_5 Mg0_7 3.434414 1_555
La0_5 Mg0_1 3.434414 1_655
La0_5 Mg2_6 3.472697 1_555
La0_5 Mg2_0 3.472697 1_655
La0_5 Mg2_2 3.665402 1_655
La0_5 Mg1_4 3.682222 1_555
La0_6 La2_3 3.313777 1_654
La0_6 La2_5 3.313777 1_564
La0_6 La1_4 3.422252 1_565
La0_6 La1_2 3.422252 1_655
La0_6 Mg0_4 3.434414 1_565
La0_6 Mg0_2 3.434414 1_655
La0_6 Mg2_5 3.472697 1_564
La0_6 Mg2_3 3.472697 1_654
La0_6 Mg2_1 3.665402 1_664
La0_6 Mg1_7 3.682222 1_554
La0_7 La2_4 3.313777 1_565
La0_7 La2_2 3.313777 1_655
La0_7 La1_3 3.422252 1_655
La0_7 La1_5 3.422252 1_565
La0_7 Mg0_3 3.434414 1_655
La0_7 Mg0_5 3.434414 1_565
La0_7 Mg2_2 3.472697 1_655
La0_7 Mg2_4 3.472697 1_565
La0_7 Mg2_0 3.665402 1_665
La0_7 Mg1_6 3.682222 1_555
La1_0 Mg2_5 3.465287 1_554
La1_0 Mg2_3 3.465287 1_554
La1_0 Mg0_4 3.500298 1_555
La1_0 Mg0_2 3.500298 1_555
La1_0 La2_0 3.540136 1_555
La1_0 La1_6 3.565246 1_545
La1_0 La1_6 3.565246 1_455
La1_0 Mg0_0 3.623465 1_555
La1_0 Mg1_2 3.666698 1_545
La1_0 Mg1_4 3.666698 1_455
La1_1 Mg2_4 3.465287 1_555
La1_1 Mg2_2 3.465287 1_555
La1_1 Mg0_5 3.500298 1_555
La1_1 Mg0_3 3.500298 1_555
La1_1 La2_1 3.540136 1_555
La1_1 La1_7 3.565246 1_545
La1_1 La1_7 3.565246 1_455
La1_1 Mg0_1 3.623465 1_555
La1_1 Mg1_5 3.666698 1_455
La1_1 Mg1_3 3.666698 1_545
La1_2 Mg2_1 3.465287 1_564
La1_2 Mg2_7 3.465287 1_554
La1_2 Mg0_0 3.500298 1_565
La1_2 Mg0_6 3.500298 1_555
La1_2 La2_2 3.540136 1_555
La1_2 La1_4 3.565246 1_555
La1_2 La1_4 3.565246 1_465
La1_2 Mg0_2 3.623465 1_555
La1_2 Mg1_6 3.666698 1_455
La1_2 Mg1_0 3.666698 1_555
La1_3 Mg2_6 3.465287 1_555
La1_3 Mg2_0 3.465287 1_565
La1_3 Mg0_1 3.500298 1_565
La1_3 Mg0_7 3.500298 1_555
La1_3 La2_3 3.540136 1_555
La1_3 La1_5 3.565246 1_465
La1_3 La1_5 3.565246 1_555
La1_3 Mg0_3 3.623465 1_555
La1_3 Mg1_7 3.666698 1_455
La1_3 Mg1_1 3.666698 1_555
La1_4 Mg2_1 3.465287 1_654
La1_4 Mg2_7 3.465287 1_554
La1_4 Mg0_0 3.500298 1_655
La1_4 Mg0_6 3.500298 1_555
La1_4 La2_4 3.540136 1_555
La1_4 Mg0_4 3.623465 1_555
La1_4 Mg1_6 3.666698 1_545
La1_4 Mg1_0 3.666698 1_555
La1_5 Mg2_6 3.465287 1_555
La1_5 Mg2_0 3.465287 1_655
La1_5 Mg0_1 3.500298 1_655
La1_5 Mg0_7 3.500298 1_555
La1_5 La2_5 3.540136 1_555
La1_5 Mg0_5 3.623465 1_555
La1_5 Mg1_7 3.666698 1_545
La1_5 Mg1_1 3.666698 1_555
La1_6 Mg2_3 3.465287 1_654
La1_6 Mg2_5 3.465287 1_564
La1_6 Mg0_4 3.500298 1_565
La1_6 Mg0_2 3.500298 1_655
La1_6 La2_6 3.540136 1_555
La1_6 Mg0_6 3.623465 1_555
La1_6 Mg1_2 3.666698 1_555
La1_6 Mg1_4 3.666698 1_555
La1_7 Mg2_4 3.465287 1_565
La1_7 Mg2_2 3.465287 1_655
La1_7 Mg0_3 3.500298 1_655
La1_7 Mg0_5 3.500298 1_565
La1_7 La2_7 3.540136 1_555
La1_7 Mg0_7 3.623465 1_555
La1_7 Mg1_5 3.666698 1_555
La1_7 Mg1_3 3.666698 1_555
La2_0 Mg1_4 3.517193 1_455
La2_0 Mg1_2 3.517193 1_545
La2_0 Mg1_0 3.553107 1_555
La2_0 Mg2_4 3.553160 1_555
La2_0 Mg2_2 3.553160 1_555
La2_0 Mg0_4 3.553894 1_555
La2_0 Mg0_2 3.553894 1_555
La2_0 La2_6 3.565246 1_455
La2_0 La2_6 3.565246 1_545
La2_1 Mg1_3 3.517193 1_545
La2_1 Mg1_5 3.517193 1_455
La2_1 Mg1_1 3.553107 1_555
La2_1 Mg2_5 3.553160 1_555
La2_1 Mg2_3 3.553160 1_555
La2_1 Mg0_5 3.553894 1_555
La2_1 Mg0_3 3.553894 1_555
La2_1 La2_7 3.565246 1_455
La2_1 La2_7 3.565246 1_545
La2_2 Mg1_6 3.517193 1_455
La2_2 Mg1_0 3.517193 1_555
La2_2 Mg1_2 3.553107 1_555
La2_2 Mg2_0 3.553160 1_565
La2_2 Mg2_6 3.553160 1_555
La2_2 Mg0_6 3.553894 1_555
La2_2 Mg0_0 3.553894 1_565
La2_2 La2_4 3.565246 1_465
La2_2 La2_4 3.565246 1_555
La2_3 Mg1_7 3.517193 1_455
La2_3 Mg1_1 3.517193 1_555
La2_3 Mg1_3 3.553107 1_555
La2_3 Mg2_1 3.553160 1_565
La2_3 Mg2_7 3.553160 1_555
La2_3 Mg0_1 3.553894 1_565
La2_3 Mg0_7 3.553894 1_555
La2_3 La2_5 3.565246 1_465
La2_3 La2_5 3.565246 1_555
La2_4 Mg1_6 3.517193 1_545
La2_4 Mg1_0 3.517193 1_555
La2_4 Mg1_4 3.553107 1_555
La2_4 Mg2_6 3.553160 1_555
La2_4 Mg2_0 3.553160 1_655
La2_4 Mg0_0 3.553894 1_655
La2_4 Mg0_6 3.553894 1_555
La2_5 Mg1_7 3.517193 1_545
La2_5 Mg1_1 3.517193 1_555
La2_5 Mg1_5 3.553107 1_555
La2_5 Mg2_1 3.553160 1_655
La2_5 Mg2_7 3.553160 1_555
La2_5 Mg0_1 3.553894 1_655
La2_5 Mg0_7 3.553894 1_555
La2_6 Mg1_4 3.517193 1_555
La2_6 Mg1_2 3.517193 1_555
La2_6 Mg1_6 3.553107 1_555
La2_6 Mg2_4 3.553160 1_565
La2_6 Mg2_2 3.553160 1_655
La2_6 Mg0_2 3.553894 1_655
La2_6 Mg0_4 3.553894 1_565
La2_7 Mg1_5 3.517193 1_555
La2_7 Mg1_3 3.517193 1_555
La2_7 Mg1_7 3.553107 1_555
La2_7 Mg2_3 3.553160 1_655
La2_7 Mg2_5 3.553160 1_565
La2_7 Mg0_3 3.553894 1_655
La2_7 Mg0_5 3.553894 1_565
Mg0_0 Mg1_2 3.225547 1_545
Mg0_0 Mg1_4 3.225547 1_455
Mg0_0 Mg0_6 3.565246 1_545
Mg0_0 Mg0_6 3.565246 1_455
Mg0_1 Mg1_5 3.225547 1_455
Mg0_1 Mg1_3 3.225547 1_545
Mg0_1 Mg0_7 3.565246 1_455
Mg0_1 Mg0_7 3.565246 1_545
Mg0_2 Mg1_0 3.225547 1_555
Mg0_2 Mg1_6 3.225547 1_455
Mg0_2 Mg0_4 3.565246 1_555
Mg0_2 Mg0_4 3.565246 1_465
Mg0_3 Mg1_1 3.225547 1_555
Mg0_3 Mg1_7 3.225547 1_455
Mg0_3 Mg0_5 3.565246 1_465
Mg0_3 Mg0_5 3.565246 1_555
Mg0_4 Mg1_0 3.225547 1_555
Mg0_4 Mg1_6 3.225547 1_545
Mg0_5 Mg1_1 3.225547 1_555
Mg0_5 Mg1_7 3.225547 1_545
Mg0_6 Mg1_2 3.225547 1_555
Mg0_6 Mg1_4 3.225547 1_555
Mg0_7 Mg1_3 3.225547 1_555
Mg0_7 Mg1_5 3.225547 1_555
Mg1_0 Mg2_4 3.174653 1_555
Mg1_0 Mg2_2 3.174653 1_555
Mg1_0 Mg1_6 3.565246 1_455
Mg1_0 Mg1_6 3.565246 1_545
Mg1_1 Mg2_3 3.174653 1_555
Mg1_1 Mg2_5 3.174653 1_555
Mg1_1 Mg1_7 3.565246 1_545
Mg1_1 Mg1_7 3.565246 1_455
Mg1_2 Mg2_0 3.174653 1_565
Mg1_2 Mg2_6 3.174653 1_555
Mg1_2 Mg1_4 3.565246 1_465
Mg1_2 Mg1_4 3.565246 1_555
Mg1_3 Mg2_7 3.174653 1_555
Mg1_3 Mg2_1 3.174653 1_565
Mg1_3 Mg1_5 3.565246 1_555
Mg1_3 Mg1_5 3.565246 1_465
Mg1_4 Mg2_6 3.174653 1_555
Mg1_4 Mg2_0 3.174653 1_655
Mg1_5 Mg2_7 3.174653 1_555
Mg1_5 Mg2_1 3.174653 1_655
Mg1_6 Mg2_2 3.174653 1_655
Mg1_6 Mg2_4 3.174653 1_565
Mg1_7 Mg2_3 3.174653 1_655
Mg1_7 Mg2_5 3.174653 1_565
Mg2_0 Mg2_6 3.565246 1_455
Mg2_0 Mg2_6 3.565246 1_545
Mg2_1 Mg2_7 3.565246 1_455
Mg2_1 Mg2_7 3.565246 1_545
Mg2_2 Mg2_4 3.565246 1_555
Mg2_2 Mg2_4 3.565246 1_465
Mg2_3 Mg2_5 3.565246 1_555
Mg2_3 Mg2_5 3.565246 1_465
