# generated using pymatgen
data_FeAs2Pb2O9
_symmetry_space_group_name_H-M   'P 1'
_cell_length_a   6.01419800
_cell_length_b   8.10518200
_cell_length_c   9.03406157
_cell_angle_alpha   66.67624640
_cell_angle_beta   90.00000000
_cell_angle_gamma   90.00000000
_symmetry_Int_Tables_number   1
_chemical_formula_structural   FeAs2Pb2O9
_chemical_formula_sum   'Fe2 As4 Pb4 O18'
_cell_volume   404.38939807
_cell_formula_units_Z   2
loop_
 _symmetry_equiv_pos_site_id
 _symmetry_equiv_pos_as_xyz
  1  'x, y, z'
loop_
 _atom_site_type_symbol
 _atom_site_label
 _atom_site_symmetry_multiplicity
 _atom_site_fract_x
 _atom_site_fract_y
 _atom_site_fract_z
 _atom_site_occupancy
  Fe  Fe0  1  0.50000000  0.00000000  0.00000000  1
  Fe  Fe1  1  0.00000000  0.00000000  0.00000000  1
  As  As0  1  0.25000000  0.97265300  0.33745000  1
  As  As1  1  0.75000000  0.02734700  0.66255000  1
  As  As2  1  0.25000000  0.56767000  0.17199900  1
  As  As3  1  0.75000000  0.43233000  0.82800100  1
  Pb  Pb0  1  0.25000000  0.69505400  0.75362600  1
  Pb  Pb1  1  0.75000000  0.30494600  0.24637400  1
  Pb  Pb2  1  0.25000000  0.29510900  0.61377200  1
  Pb  Pb3  1  0.75000000  0.70489100  0.38622800  1
  O  O0  1  0.25000000  0.74852600  0.46011900  1
  O  O1  1  0.75000000  0.25147400  0.53988100  1
  O  O2  1  0.25000000  0.47282300  0.03459800  1
  O  O3  1  0.75000000  0.52717700  0.96540200  1
  O  O4  1  0.25000000  0.80403300  0.06874600  1
  O  O5  1  0.75000000  0.19596700  0.93125400  1
  O  O6  1  0.25000000  0.15131900  0.92570200  1
  O  O7  1  0.75000000  0.84868100  0.07429800  1
  O  O8  1  0.25000000  0.11249900  0.43457700  1
  O  O9  1  0.75000000  0.88750100  0.56542300  1
  O  O10  1  0.48259100  0.50729100  0.29394400  1
  O  O11  1  0.51740900  0.49270900  0.70605600  1
  O  O12  1  0.98259100  0.49270900  0.70605600  1
  O  O13  1  0.01740900  0.50729100  0.29394400  1
  O  O14  1  0.99041100  0.99001600  0.78181700  1
  O  O15  1  0.00958900  0.00998400  0.21818300  1
  O  O16  1  0.49041100  0.00998400  0.21818300  1
  O  O17  1  0.50958900  0.99001600  0.78181700  1
loop_
_geom_bond_atom_site_label_1
_geom_bond_atom_site_label_2
_geom_bond_distance
_geom_bond_site_symmetry_2
Fe0 O7 1.887735 1_545
Fe0 O6 1.887735 1_554
Fe0 O17 2.005325 1_544
Fe0 O16 2.005325 1_555
Fe0 O4 2.094778 1_545
Fe0 O5 2.094778 1_554
Fe1 O7 1.887735 1_445
Fe1 O6 1.887735 1_554
Fe1 O15 2.005325 1_555
Fe1 O14 2.005325 1_444
Fe1 O4 2.094778 1_545
Fe1 O5 2.094778 1_454
As0 O8 1.685896 1_565
As0 O0 1.712890 1_555
As0 O16 1.756387 1_565
As0 O15 1.756387 1_565
As1 O9 1.685896 1_545
As1 O1 1.712890 1_555
As1 O17 1.756387 1_545
As1 O14 1.756387 1_545
As2 O2 1.699235 1_555
As2 O10 1.727139 1_555
As2 O13 1.727139 1_555
As2 O4 1.767826 1_555
As3 O3 1.699235 1_555
As3 O11 1.727139 1_555
As3 O12 1.727139 1_555
As3 O5 1.767826 1_555
O0 Pb0 2.511697 1_555
O1 Pb1 2.511697 1_555
O2 Pb0 2.463139 1_554
O3 Pb1 2.463139 1_556
O6 Pb2 2.588193 1_555
O7 Pb3 2.588193 1_555
O8 Pb2 2.590112 1_555
O9 Pb3 2.590112 1_555
O10 Pb1 2.453365 1_555
O10 Pb3 2.627529 1_555
O11 Pb0 2.453365 1_555
O11 Pb2 2.627529 1_555
O12 Pb0 2.453365 1_655
O12 Pb2 2.627529 1_655
O13 Pb1 2.453365 1_455
O13 Pb3 2.627529 1_455
O14 Pb2 2.807909 1_665
O15 Pb3 2.807909 1_445
O16 Pb3 2.807909 1_545
O17 Pb2 2.807909 1_565
