# generated using pymatgen
data_AlF3
_symmetry_space_group_name_H-M   'P 1'
_cell_length_a   10.55189005
_cell_length_b   10.58359626
_cell_length_c   11.26419103
_cell_angle_alpha   91.42010776
_cell_angle_beta   93.22500516
_cell_angle_gamma   94.84345152
_symmetry_Int_Tables_number   1
_chemical_formula_structural   AlF3
_chemical_formula_sum   'Al25 F75'
_cell_volume   1250.92178829
_cell_formula_units_Z   25
loop_
 _symmetry_equiv_pos_site_id
 _symmetry_equiv_pos_as_xyz
  1  'x, y, z'
loop_
 _atom_site_type_symbol
 _atom_site_label
 _atom_site_symmetry_multiplicity
 _atom_site_fract_x
 _atom_site_fract_y
 _atom_site_fract_z
 _atom_site_occupancy
  Al  Al0  1  0.55634700  0.91076300  0.97556500  1
  Al  Al1  1  0.47557000  0.20583400  0.02184500  1
  Al  Al2  1  0.93234400  0.97617100  0.03969500  1
  Al  Al3  1  0.71844700  0.68011200  0.33025000  1
  Al  Al4  1  0.82294300  0.35305100  0.74034400  1
  Al  Al5  1  0.15921600  0.23996400  0.07164400  1
  Al  Al6  1  0.50474600  0.28044000  0.63723300  1
  Al  Al7  1  0.45892900  0.50822200  0.88800100  1
  Al  Al8  1  0.08648300  0.55350300  0.66519200  1
  Al  Al9  1  0.02951500  0.86207900  0.30760200  1
  Al  Al10  1  0.91282400  0.06604800  0.60783600  1
  Al  Al11  1  0.66742100  0.87732700  0.71264100  1
  Al  Al12  1  0.82341300  0.29533500  0.04949300  1
  Al  Al13  1  0.48528900  0.74785500  0.50376000  1
  Al  Al14  1  0.74231200  0.64973700  0.01974100  1
  Al  Al15  1  0.27646100  0.55026400  0.14281800  1
  Al  Al16  1  0.53294800  0.15241500  0.33769300  1
  Al  Al17  1  0.11944600  0.40999600  0.39190800  1
  Al  Al18  1  0.06518300  0.70628900  0.94645400  1
  Al  Al19  1  0.17235100  0.26468800  0.66791600  1
  Al  Al20  1  0.85677800  0.28416000  0.36505600  1
  Al  Al21  1  0.31795100  0.78200500  0.76635100  1
  Al  Al22  1  0.45420700  0.45808700  0.38474600  1
  Al  Al23  1  0.90988900  0.79329700  0.56391100  1
  Al  Al24  1  0.30476400  0.86842800  0.27030700  1
  F  F0  1  0.03722200  0.81663000  0.45907200  1
  F  F1  1  0.05733700  0.58339200  0.83167100  1
  F  F2  1  0.58897700  0.74866000  0.77167800  1
  F  F3  1  0.36366800  0.61657700  0.81699700  1
  F  F4  1  0.64756600  0.25650300  0.02866800  1
  F  F5  1  0.62047400  0.54551000  0.93603500  1
  F  F6  1  0.32677600  0.24849100  0.62394300  1
  F  F7  1  0.08330700  0.11782000  0.61690100  1
  F  F8  1  0.69264500  0.13872600  0.32621000  1
  F  F9  1  0.88344900  0.16483300  0.48038800  1
  F  F10  1  0.71070400  0.63704100  0.17304800  1
  F  F11  1  0.43509600  0.01245000  0.32340000  1
  F  F12  1  0.65535000  0.95684000  0.85646900  1
  F  F13  1  0.18180900  0.96115200  0.33424300  1
  F  F14  1  0.61652300  0.75475500  0.99748000  1
  F  F15  1  0.80839600  0.46984600  0.04975600  1
  F  F16  1  0.48718100  0.17317100  0.17238200  1
  F  F17  1  0.13295600  0.54124100  0.50832900  1
  F  F18  1  0.39488400  0.73523700  0.62976000  1
  F  F19  1  0.61421500  0.53922100  0.34529000  1
  F  F20  1  0.83863000  0.11767900  0.06066800  1
  F  F21  1  0.97196300  0.97616100  0.21203500  1
  F  F22  1  0.96610600  0.65689500  0.62721700  1
  F  F23  1  0.30215000  0.18644400  0.00953800  1
  F  F24  1  0.28856300  0.38637300  0.40490300  1
  F  F25  1  0.74526800  0.35248000  0.43956600  1
  F  F26  1  0.50684800  0.31405700  0.33229100  1
  F  F27  1  0.89049000  0.66781700  0.95028500  1
  F  F28  1  0.85318900  0.93334800  0.49003600  1
  F  F29  1  0.96074700  0.42367600  0.66609200  1
  F  F30  1  0.47772800  0.42335900  0.75419800  1
  F  F31  1  0.59275100  0.95279600  0.11913600  1
  F  F32  1  0.95349200  0.44701300  0.38184100  1
  F  F33  1  0.39871900  0.47833600  0.22818200  1
  F  F34  1  0.07649400  0.08952500  0.03900400  1
  F  F35  1  0.48597100  0.06220900  0.95007300  1
  F  F36  1  0.21291400  0.23362100  0.21460900  1
  F  F37  1  0.78997800  0.78504900  0.67118000  1
  F  F38  1  0.15917400  0.50135000  0.25781400  1
  F  F39  1  0.30807800  0.92230600  0.13121300  1
  F  F40  1  0.60535700  0.78548500  0.35747500  1
  F  F41  1  0.91146500  0.96591700  0.88788900  1
  F  F42  1  0.51032500  0.17938900  0.75169200  1
  F  F43  1  0.22167100  0.40416200  0.05416700  1
  F  F44  1  0.14824800  0.62172300  0.05471000  1
  F  F45  1  0.04711300  0.84178000  0.03665200  1
  F  F46  1  0.49621500  0.40985100  0.53418800  1
  F  F47  1  0.68080100  0.30727200  0.65591000  1
  F  F48  1  0.51712300  0.17001300  0.50076800  1
  F  F49  1  0.81550000  0.67838600  0.46170800  1
  F  F50  1  0.78422000  0.49772100  0.78267000  1
  F  F51  1  0.81479400  0.30696900  0.20983200  1
  F  F52  1  0.39280500  0.56996200  0.02369400  1
  F  F53  1  0.76057100  0.01822600  0.67044700  1
  F  F54  1  0.45396300  0.35727600  0.96160900  1
  F  F55  1  0.41959500  0.83401700  0.90253300  1
  F  F56  1  0.34091800  0.70350300  0.20922100  1
  F  F57  1  0.36516400  0.82311500  0.41452300  1
  F  F58  1  0.89609600  0.20697300  0.70188000  1
  F  F59  1  0.13177100  0.75754900  0.25437500  1
  F  F60  1  0.82817200  0.29151300  0.88817000  1
  F  F61  1  0.98498800  0.92030000  0.66188000  1
  F  F62  1  0.56936800  0.89265300  0.57839100  1
  F  F63  1  0.87467800  0.77006700  0.28418100  1
  F  F64  1  0.00138700  0.30923300  0.06008500  1
  F  F65  1  0.30988700  0.93141100  0.71993300  1
  F  F66  1  0.15044700  0.24155500  0.81454900  1
  F  F67  1  0.19742300  0.43870900  0.70449200  1
  F  F68  1  0.60346600  0.65765000  0.54781600  1
  F  F69  1  0.18886500  0.78927800  0.87738200  1
  F  F70  1  0.02039700  0.25844400  0.32525100  1
  F  F71  1  0.81751400  0.84519900  0.06671400  1
  F  F72  1  0.40225600  0.60518600  0.42812100  1
  F  F73  1  0.11008600  0.31355900  0.52567200  1
  F  F74  1  0.18753400  0.69418100  0.68079100  1
loop_
_geom_bond_atom_site_label_1
_geom_bond_atom_site_label_2
_geom_bond_distance
_geom_bond_site_symmetry_2
Al0 F31 1.681195 1_556
Al0 F55 1.747603 1_555
Al0 F12 1.798027 1_555
Al0 F14 1.835742 1_555
Al0 F35 1.844677 1_565
Al1 F35 1.718574 1_554
Al1 F16 1.738582 1_555
Al1 F54 1.783125 1_554
Al1 F23 1.821135 1_555
Al1 F4 1.845317 1_555
Al2 F41 1.711343 1_554
Al2 F71 1.805819 1_555
Al2 F34 1.856496 1_665
Al2 F20 1.880289 1_565
Al2 F45 1.945237 1_655
Al2 F21 1.962653 1_555
Al3 F40 1.735143 1_555
Al3 F49 1.753753 1_555
Al3 F19 1.793984 1_555
Al3 F10 1.813136 1_555
Al3 F63 1.936246 1_555
Al4 F50 1.682261 1_555
Al4 F47 1.755803 1_555
Al4 F60 1.802611 1_555
Al4 F29 1.832191 1_555
Al4 F58 1.838400 1_555
Al5 F36 1.681670 1_555
Al5 F34 1.769838 1_555
Al5 F23 1.824371 1_555
Al5 F43 1.825154 1_555
Al5 F64 1.874688 1_555
Al6 F42 1.697045 1_555
Al6 F46 1.821848 1_555
Al6 F47 1.854719 1_555
Al6 F6 1.876689 1_555
Al6 F48 1.924877 1_555
Al6 F30 2.030118 1_555
Al7 F30 1.764726 1_555
Al7 F3 1.764897 1_555
Al7 F5 1.768111 1_555
Al7 F54 1.816256 1_555
Al7 F52 1.843233 1_556
Al8 F74 1.755691 1_555
Al8 F22 1.786220 1_455
Al8 F67 1.803030 1_555
Al8 F29 1.828308 1_455
Al8 F17 1.864468 1_555
Al8 F1 1.939880 1_555
Al9 F59 1.728899 1_555
Al9 F21 1.760713 1_455
Al9 F0 1.783461 1_555
Al9 F63 1.832319 1_455
Al9 F13 1.848655 1_555
Al10 F9 1.824594 1_555
Al10 F53 1.828238 1_555
Al10 F7 1.832177 1_655
Al10 F58 1.834413 1_555
Al10 F61 1.876855 1_545
Al10 F28 1.947716 1_545
Al11 F2 1.702421 1_555
Al11 F37 1.761515 1_555
Al11 F62 1.802237 1_555
Al11 F53 1.804414 1_565
Al11 F12 1.822879 1_555
Al12 F51 1.815142 1_555
Al12 F60 1.820232 1_554
Al12 F4 1.866642 1_555
Al12 F15 1.866965 1_555
Al12 F64 1.868124 1_655
Al12 F20 1.907188 1_555
Al13 F68 1.693395 1_555
Al13 F18 1.755688 1_555
Al13 F57 1.821629 1_555
Al13 F72 1.844550 1_555
Al13 F62 1.861440 1_555
Al13 F40 2.158972 1_555
Al14 F10 1.783295 1_555
Al14 F27 1.785485 1_554
Al14 F14 1.812591 1_554
Al14 F5 1.825170 1_554
Al14 F15 2.110671 1_555
Al14 F71 2.193268 1_555
Al15 F33 1.797468 1_555
Al15 F56 1.829952 1_555
Al15 F43 1.852013 1_555
Al15 F44 1.856392 1_555
Al15 F52 1.872725 1_555
Al15 F38 1.892873 1_555
Al16 F8 1.715261 1_555
Al16 F11 1.731347 1_555
Al16 F26 1.757573 1_555
Al16 F48 1.860003 1_555
Al16 F16 1.919865 1_555
Al17 F24 1.821031 1_555
Al17 F32 1.824419 1_455
Al17 F73 1.843286 1_555
Al17 F38 1.862046 1_555
Al17 F17 1.877430 1_555
Al17 F70 1.948777 1_555
Al18 F69 1.742004 1_555
Al18 F45 1.766546 1_556
Al18 F44 1.767081 1_556
Al18 F1 1.804649 1_555
Al18 F27 1.857050 1_455
Al19 F66 1.701447 1_555
Al19 F6 1.750340 1_555
Al19 F73 1.801794 1_555
Al19 F7 1.810390 1_555
Al19 F67 1.870745 1_555
Al20 F25 1.684173 1_555
Al20 F51 1.806521 1_555
Al20 F70 1.848318 1_655
Al20 F9 1.860662 1_555
Al20 F32 1.926916 1_555
Al20 F8 2.234135 1_555
Al21 F65 1.685135 1_555
Al21 F74 1.810234 1_555
Al21 F18 1.855232 1_555
Al21 F55 1.865417 1_555
Al21 F69 1.905266 1_555
Al21 F3 1.945434 1_555
Al22 F72 1.760541 1_555
Al22 F26 1.765385 1_555
Al22 F46 1.813175 1_555
Al22 F33 1.850041 1_555
Al22 F24 1.873980 1_555
Al22 F19 1.908939 1_555
Al23 F22 1.758542 1_555
Al23 F37 1.796428 1_555
Al23 F61 1.816786 1_555
Al23 F49 1.842129 1_555
Al23 F0 1.843310 1_655
Al23 F28 1.844541 1_555
Al24 F39 1.681744 1_555
Al24 F57 1.802456 1_555
Al24 F13 1.857443 1_555
Al24 F56 1.936031 1_555
Al24 F11 2.020065 1_565
Al24 F59 2.081435 1_555
