# generated using pymatgen
data_Nd(BIr)2
_symmetry_space_group_name_H-M   'P 1'
_cell_length_a   6.53899715
_cell_length_b   6.53899715
_cell_length_c   8.41871731
_cell_angle_alpha   112.90495942
_cell_angle_beta   112.90495942
_cell_angle_gamma   89.87562575
_symmetry_Int_Tables_number   1
_chemical_formula_structural   Nd(BIr)2
_chemical_formula_sum   'Nd4 B8 Ir8'
_cell_volume   300.67733354
_cell_formula_units_Z   4
loop_
 _symmetry_equiv_pos_site_id
 _symmetry_equiv_pos_as_xyz
  1  'x, y, z'
loop_
 _atom_site_type_symbol
 _atom_site_label
 _atom_site_symmetry_multiplicity
 _atom_site_fract_x
 _atom_site_fract_y
 _atom_site_fract_z
 _atom_site_occupancy
  Nd  Nd0  1  0.62500000  0.87500000  0.75000000  1
  Nd  Nd1  1  0.12500000  0.87500000  0.75000000  1
  Nd  Nd2  1  0.12500000  0.37500000  0.25000000  1
  Nd  Nd3  1  0.12500000  0.87500000  0.25000000  1
  B  B0  1  0.39284000  0.25345000  0.78482200  1
  B  B1  1  0.39198200  0.53137300  0.78482200  1
  B  B2  1  0.74655000  0.60716000  0.21517800  1
  B  B3  1  0.85716000  0.49655000  0.71517800  1
  B  B4  1  0.46862700  0.60801800  0.21517800  1
  B  B5  1  0.85801800  0.21862700  0.71517800  1
  B  B6  1  0.50345000  0.14284000  0.28482200  1
  B  B7  1  0.78137300  0.14198200  0.28482200  1
  Ir  Ir0  1  0.18136200  0.46924700  0.93741300  1
  Ir  Ir1  1  0.75605000  0.46816600  0.93741300  1
  Ir  Ir2  1  0.53075300  0.81863800  0.06258700  1
  Ir  Ir3  1  0.06863800  0.28075300  0.56258700  1
  Ir  Ir4  1  0.53183400  0.24395000  0.06258700  1
  Ir  Ir5  1  0.49395000  0.28183400  0.56258700  1
  Ir  Ir6  1  0.71924700  0.93136200  0.43741300  1
  Ir  Ir7  1  0.71816600  0.50605000  0.43741300  1
loop_
_geom_bond_atom_site_label_1
_geom_bond_atom_site_label_2
_geom_bond_distance
_geom_bond_site_symmetry_2
B0 B1 1.817334 1_555
B0 Ir4 2.180962 1_556
B0 Ir3 2.279792 1_555
B0 Ir5 2.281597 1_555
B0 Ir1 2.344757 1_555
B0 Ir0 2.348833 1_555
B0 Nd0 2.877500 1_545
B0 Nd1 2.886496 1_545
B1 Ir2 2.180962 1_556
B1 Ir5 2.279798 1_555
B1 Ir3 2.281595 1_555
B1 Ir0 2.344765 1_555
B1 Ir1 2.348830 1_555
B1 Nd1 2.877495 1_555
B1 Nd0 2.886491 1_555
B2 B4 1.817334 1_555
B2 Ir1 2.180962 1_554
B2 Ir6 2.279792 1_555
B2 Ir7 2.281597 1_555
B2 Ir4 2.344757 1_555
B2 Ir2 2.348833 1_555
B2 Nd2 2.877500 1_655
B2 Nd3 2.886496 1_655
B3 B5 1.817334 1_555
B3 Ir7 2.180962 1_555
B3 Ir0 2.279792 1_655
B3 Ir1 2.281597 1_555
B3 Ir5 2.344757 1_555
B3 Ir3 2.348833 1_655
B3 Nd0 2.877500 1_555
B3 Nd1 2.886496 1_655
B4 Ir0 2.180962 1_554
B4 Ir7 2.279798 1_555
B4 Ir6 2.281595 1_555
B4 Ir2 2.344765 1_555
B4 Ir4 2.348830 1_555
B4 Nd3 2.877495 1_555
B4 Nd2 2.886491 1_555
B5 Ir6 2.180962 1_545
B5 Ir1 2.279798 1_555
B5 Ir0 2.281595 1_655
B5 Ir3 2.344765 1_655
B5 Ir5 2.348830 1_555
B5 Nd1 2.877495 1_645
B5 Nd0 2.886491 1_545
B6 B7 1.817334 1_555
B6 Ir5 2.180962 1_555
B6 Ir2 2.279792 1_545
B6 Ir4 2.281597 1_555
B6 Ir7 2.344757 1_555
B6 Ir6 2.348833 1_545
B6 Nd2 2.877500 1_555
B6 Nd3 2.886496 1_545
B7 Ir3 2.180962 1_655
B7 Ir4 2.279798 1_555
B7 Ir2 2.281595 1_545
B7 Ir6 2.344765 1_545
B7 Ir7 2.348830 1_555
B7 Nd3 2.877495 1_645
B7 Nd2 2.886491 1_655
Ir0 Nd3 3.068609 1_556
Ir0 Nd2 3.075583 1_556
Ir1 Nd2 3.068612 1_656
Ir1 Nd3 3.075586 1_656
Ir2 Nd1 3.068609 1_554
Ir2 Nd0 3.075583 1_554
Ir3 Nd3 3.068609 1_545
Ir3 Nd2 3.075583 1_555
Ir4 Nd0 3.068612 1_544
Ir4 Nd1 3.075586 1_544
Ir5 Nd2 3.068612 1_555
Ir5 Nd3 3.075586 1_545
Ir6 Nd1 3.068609 1_655
Ir6 Nd0 3.075583 1_555
Ir7 Nd0 3.068612 1_555
Ir7 Nd1 3.075586 1_655
