# generated using pymatgen
data_PuWC2
_symmetry_space_group_name_H-M   'P 1'
_cell_length_a   3.29175500
_cell_length_b   5.69825400
_cell_length_c   10.93596200
_cell_angle_alpha   90.00000000
_cell_angle_beta   90.00000000
_cell_angle_gamma   90.00000000
_symmetry_Int_Tables_number   1
_chemical_formula_structural   PuWC2
_chemical_formula_sum   'Pu4 W4 C8'
_cell_volume   205.12863989
_cell_formula_units_Z   4
loop_
 _symmetry_equiv_pos_site_id
 _symmetry_equiv_pos_as_xyz
  1  'x, y, z'
loop_
 _atom_site_type_symbol
 _atom_site_label
 _atom_site_symmetry_multiplicity
 _atom_site_fract_x
 _atom_site_fract_y
 _atom_site_fract_z
 _atom_site_occupancy
  Pu  Pu0  1  0.25000000  0.08501400  0.86028000  1
  Pu  Pu1  1  0.25000000  0.58501400  0.63972000  1
  Pu  Pu2  1  0.75000000  0.91498600  0.13972000  1
  Pu  Pu3  1  0.75000000  0.41498600  0.36028000  1
  W  W0  1  0.25000000  0.41309600  0.10693500  1
  W  W1  1  0.25000000  0.91309600  0.39306500  1
  W  W2  1  0.75000000  0.58690400  0.89306500  1
  W  W3  1  0.75000000  0.08690400  0.60693500  1
  C  C0  1  0.25000000  0.16166300  0.24539400  1
  C  C1  1  0.25000000  0.66166300  0.25460600  1
  C  C2  1  0.75000000  0.83833700  0.75460600  1
  C  C3  1  0.75000000  0.33833700  0.74539400  1
  C  C4  1  0.25000000  0.73606000  0.98931200  1
  C  C5  1  0.25000000  0.23606000  0.51068800  1
  C  C6  1  0.75000000  0.26394000  0.01068800  1
  C  C7  1  0.75000000  0.76394000  0.48931200  1
loop_
_geom_bond_atom_site_label_1
_geom_bond_atom_site_label_2
_geom_bond_distance
_geom_bond_site_symmetry_2
C0 W0 2.084577 1_555
C0 W1 2.148061 1_545
C0 Pu2 2.453614 1_445
C0 Pu2 2.453614 1_545
C0 Pu3 2.524107 1_455
C0 Pu3 2.524107 1_555
C1 W1 2.084577 1_555
C1 W0 2.148061 1_555
C1 Pu3 2.453614 1_455
C1 Pu3 2.453614 1_555
C1 Pu2 2.524107 1_455
C1 Pu2 2.524107 1_555
C2 W2 2.084577 1_555
C2 W3 2.148061 1_565
C2 Pu0 2.453614 1_565
C2 Pu0 2.453614 1_665
C2 Pu1 2.524107 1_555
C2 Pu1 2.524107 1_655
C3 W3 2.084577 1_555
C3 W2 2.148061 1_555
C3 Pu1 2.453614 1_555
C3 Pu1 2.453614 1_655
C3 Pu0 2.524107 1_555
C3 Pu0 2.524107 1_655
C4 W2 2.130531 1_555
C4 W2 2.130531 1_455
C4 W0 2.245315 1_556
C4 Pu0 2.438241 1_565
C4 Pu2 2.540468 1_456
C4 Pu2 2.540468 1_556
C5 W3 2.130531 1_455
C5 W3 2.130531 1_555
C5 W1 2.245315 1_545
C5 Pu1 2.438241 1_555
C5 Pu3 2.540468 1_555
C5 Pu3 2.540468 1_455
C6 W0 2.130531 1_555
C6 W0 2.130531 1_655
C6 W2 2.245315 1_554
C6 Pu2 2.438241 1_545
C6 Pu0 2.540468 1_554
C6 Pu0 2.540468 1_654
C7 W1 2.130531 1_555
C7 W1 2.130531 1_655
C7 W3 2.245315 1_565
C7 Pu3 2.438241 1_555
C7 Pu1 2.540468 1_555
C7 Pu1 2.540468 1_655
