# generated using pymatgen
data_Pr(MnCo2)4
_symmetry_space_group_name_H-M   'P 1'
_cell_length_a   4.54241300
_cell_length_b   6.42491684
_cell_length_c   6.42491684
_cell_angle_alpha   82.82143123
_cell_angle_beta   69.29846968
_cell_angle_gamma   69.29846968
_symmetry_Int_Tables_number   1
_chemical_formula_structural   Pr(MnCo2)4
_chemical_formula_sum   'Pr1 Mn4 Co8'
_cell_volume   164.07729536
_cell_formula_units_Z   1
loop_
 _symmetry_equiv_pos_site_id
 _symmetry_equiv_pos_as_xyz
  1  'x, y, z'
loop_
 _atom_site_type_symbol
 _atom_site_label
 _atom_site_symmetry_multiplicity
 _atom_site_fract_x
 _atom_site_fract_y
 _atom_site_fract_z
 _atom_site_occupancy
  Pr  Pr0  1  0.00000000  0.00000000  0.00000000  1
  Mn  Mn0  1  0.00000000  0.00000000  0.50000000  1
  Mn  Mn1  1  0.50000000  0.00000000  0.50000000  1
  Mn  Mn2  1  0.50000000  0.50000000  0.00000000  1
  Mn  Mn3  1  0.00000000  0.50000000  0.00000000  1
  Co  Co0  1  0.00000000  0.36096300  0.63903700  1
  Co  Co1  1  0.00000000  0.63903700  0.36096300  1
  Co  Co2  1  0.63903700  0.36096300  0.36096300  1
  Co  Co3  1  0.36096300  0.63903700  0.63903700  1
  Co  Co4  1  0.50000000  0.76659900  0.23340100  1
  Co  Co5  1  0.50000000  0.23340100  0.76659900  1
  Co  Co6  1  0.73340100  0.76659900  0.76659900  1
  Co  Co7  1  0.26659900  0.23340100  0.23340100  1
loop_
_geom_bond_atom_site_label_1
_geom_bond_atom_site_label_2
_geom_bond_distance
_geom_bond_site_symmetry_2
Mn0 Mn1 2.271206 1_455
Mn0 Mn1 2.271206 1_555
Mn0 Pr0 3.212458 1_556
Mn0 Pr0 3.212458 1_555
Mn1 Pr0 3.212458 1_655
Mn1 Pr0 3.212458 1_556
Mn2 Mn3 2.271206 1_655
Mn2 Mn3 2.271206 1_555
Mn2 Pr0 3.212458 1_655
Mn2 Pr0 3.212458 1_565
Mn3 Pr0 3.212458 1_565
Mn3 Pr0 3.212458 1_555
Co0 Co1 2.363504 1_555
Co0 Co5 2.516726 1_455
Co0 Co5 2.516726 1_555
Co0 Co7 2.555614 1_555
Co0 Co6 2.555614 1_455
Co0 Mn1 2.587324 1_555
Co0 Mn2 2.587324 1_456
Co0 Mn0 2.587324 1_555
Co0 Mn3 2.587324 1_556
Co0 Co2 2.819832 1_555
Co0 Co3 2.819832 1_455
Co0 Co3 2.819832 1_555
Co0 Co2 2.819832 1_455
Co0 Pr0 3.068023 1_556
Co1 Co4 2.516726 1_555
Co1 Co4 2.516726 1_455
Co1 Co7 2.555614 1_555
Co1 Co6 2.555614 1_455
Co1 Mn2 2.587324 1_555
Co1 Mn1 2.587324 1_465
Co1 Mn3 2.587324 1_555
Co1 Mn0 2.587324 1_565
Co1 Co2 2.819832 1_555
Co1 Co3 2.819832 1_455
Co1 Co3 2.819832 1_555
Co1 Co2 2.819832 1_455
Co1 Pr0 3.068023 1_565
Co2 Co3 2.363504 1_555
Co2 Co7 2.516726 1_655
Co2 Co7 2.516726 1_555
Co2 Co4 2.555614 1_555
Co2 Co5 2.555614 1_555
Co2 Mn0 2.587324 1_655
Co2 Mn3 2.587324 1_655
Co2 Mn2 2.587324 1_555
Co2 Mn1 2.587324 1_555
Co2 Pr0 3.068023 1_655
Co3 Co6 2.516726 1_455
Co3 Co6 2.516726 1_555
Co3 Co5 2.555614 1_555
Co3 Co4 2.555614 1_555
Co3 Mn0 2.587324 1_565
Co3 Mn3 2.587324 1_556
Co3 Mn1 2.587324 1_565
Co3 Mn2 2.587324 1_556
Co3 Pr0 3.068023 1_566
Co4 Mn3 2.413430 1_655
Co4 Mn0 2.413430 1_565
Co4 Mn2 2.413431 1_555
Co4 Mn1 2.413431 1_565
Co4 Co7 2.805522 1_565
Co4 Co6 2.805522 1_554
Co4 Pr0 3.015602 1_665
Co4 Pr0 3.015602 1_565
Co5 Mn3 2.413430 1_556
Co5 Mn0 2.413430 1_655
Co5 Mn1 2.413431 1_555
Co5 Mn2 2.413431 1_556
Co5 Co6 2.805522 1_545
Co5 Co7 2.805522 1_556
Co5 Pr0 3.015602 1_656
Co5 Pr0 3.015602 1_556
Co6 Mn3 2.413430 1_656
Co6 Mn0 2.413430 1_665
Co6 Mn1 2.413430 1_565
Co6 Mn2 2.413430 1_556
Co6 Pr0 3.015602 1_566
Co6 Pr0 3.015602 1_666
Co7 Mn0 2.413430 1_555
Co7 Mn3 2.413430 1_555
Co7 Mn2 2.413430 1_555
Co7 Mn1 2.413430 1_555
Co7 Pr0 3.015602 1_655
Co7 Pr0 3.015602 1_555
