# generated using pymatgen
data_NaCd4(PO4)3
_symmetry_space_group_name_H-M   'P 1'
_cell_length_a   6.78568400
_cell_length_b   10.30602900
_cell_length_c   15.29403700
_cell_angle_alpha   90.00000000
_cell_angle_beta   90.00000000
_cell_angle_gamma   90.00000000
_symmetry_Int_Tables_number   1
_chemical_formula_structural   NaCd4(PO4)3
_chemical_formula_sum   'Na4 Cd16 P12 O48'
_cell_volume   1069.56486496
_cell_formula_units_Z   4
loop_
 _symmetry_equiv_pos_site_id
 _symmetry_equiv_pos_as_xyz
  1  'x, y, z'
loop_
 _atom_site_type_symbol
 _atom_site_label
 _atom_site_symmetry_multiplicity
 _atom_site_fract_x
 _atom_site_fract_y
 _atom_site_fract_z
 _atom_site_occupancy
  Na  Na0  1  0.54911600  0.72383300  0.75000000  1
  Na  Na1  1  0.04911600  0.77616700  0.75000000  1
  Na  Na2  1  0.95088400  0.22383300  0.25000000  1
  Na  Na3  1  0.45088400  0.27616700  0.25000000  1
  Cd  Cd0  1  0.85288600  0.55951800  0.90524700  1
  Cd  Cd1  1  0.35288600  0.94048200  0.59475300  1
  Cd  Cd2  1  0.64711400  0.05951800  0.09475300  1
  Cd  Cd3  1  0.14711400  0.44048200  0.40524700  1
  Cd  Cd4  1  0.14711400  0.44048200  0.09475300  1
  Cd  Cd5  1  0.64711400  0.05951800  0.40524700  1
  Cd  Cd6  1  0.35288600  0.94048200  0.90524700  1
  Cd  Cd7  1  0.85288600  0.55951800  0.59475300  1
  Cd  Cd8  1  0.66081600  0.65955700  0.10915300  1
  Cd  Cd9  1  0.16081600  0.84044300  0.39084700  1
  Cd  Cd10  1  0.83918400  0.15955700  0.89084700  1
  Cd  Cd11  1  0.33918400  0.34044300  0.60915300  1
  Cd  Cd12  1  0.33918400  0.34044300  0.89084700  1
  Cd  Cd13  1  0.83918400  0.15955700  0.60915300  1
  Cd  Cd14  1  0.16081600  0.84044300  0.10915300  1
  Cd  Cd15  1  0.66081600  0.65955700  0.39084700  1
  P  P0  1  0.15207600  0.13362700  0.06716400  1
  P  P1  1  0.65207600  0.36637300  0.43283600  1
  P  P2  1  0.34792400  0.63362700  0.93283600  1
  P  P3  1  0.84792400  0.86637300  0.56716400  1
  P  P4  1  0.00341700  0.41204600  0.75000000  1
  P  P5  1  0.50341700  0.08795400  0.75000000  1
  P  P6  1  0.49658300  0.91204600  0.25000000  1
  P  P7  1  0.99658300  0.58795400  0.25000000  1
  P  P8  1  0.15207600  0.13362700  0.43283600  1
  P  P9  1  0.65207600  0.36637300  0.06716400  1
  P  P10  1  0.34792400  0.63362700  0.56716400  1
  P  P11  1  0.84792400  0.86637300  0.93283600  1
  O  O0  1  0.23165300  0.39094200  0.75000000  1
  O  O1  1  0.73165300  0.10905800  0.75000000  1
  O  O2  1  0.26834700  0.89094200  0.25000000  1
  O  O3  1  0.76834700  0.60905800  0.25000000  1
  O  O4  1  0.94480800  0.55777000  0.75000000  1
  O  O5  1  0.44480800  0.94223000  0.75000000  1
  O  O6  1  0.55519200  0.05777000  0.25000000  1
  O  O7  1  0.05519200  0.44223000  0.25000000  1
  O  O8  1  0.08249800  0.64582300  0.33609600  1
  O  O9  1  0.58249800  0.85417700  0.16390400  1
  O  O10  1  0.41750200  0.14582300  0.66390400  1
  O  O11  1  0.91750200  0.35417700  0.83609600  1
  O  O12  1  0.91750200  0.35417700  0.66390400  1
  O  O13  1  0.41750200  0.14582300  0.83609600  1
  O  O14  1  0.58249800  0.85417700  0.33609600  1
  O  O15  1  0.08249800  0.64582300  0.16390400  1
  O  O16  1  0.89978800  0.78704100  0.01691100  1
  O  O17  1  0.39978800  0.71295900  0.48308900  1
  O  O18  1  0.60021200  0.28704100  0.98308900  1
  O  O19  1  0.67555000  0.96674600  0.95239000  1
  O  O20  1  0.10021200  0.21295900  0.51691100  1
  O  O21  1  0.60021200  0.28704100  0.51691100  1
  O  O22  1  0.39978800  0.71295900  0.01691100  1
  O  O23  1  0.89978800  0.78704100  0.48308900  1
  O  O24  1  0.78572700  0.76932700  0.86119300  1
  O  O25  1  0.28572700  0.73067300  0.63880700  1
  O  O26  1  0.71427300  0.26932700  0.13880700  1
  O  O27  1  0.21427300  0.23067300  0.36119300  1
  O  O28  1  0.21427300  0.23067300  0.13880700  1
  O  O29  1  0.71427300  0.26932700  0.36119300  1
  O  O30  1  0.28572700  0.73067300  0.86119300  1
  O  O31  1  0.78572700  0.76932700  0.63880700  1
  O  O32  1  0.01878500  0.95477400  0.60014200  1
  O  O33  1  0.51878500  0.54522600  0.89985800  1
  O  O34  1  0.48121500  0.45477400  0.39985800  1
  O  O35  1  0.98121500  0.04522600  0.10014200  1
  O  O36  1  0.98121500  0.04522600  0.39985800  1
  O  O37  1  0.48121500  0.45477400  0.10014200  1
  O  O38  1  0.51878500  0.54522600  0.60014200  1
  O  O39  1  0.01878500  0.95477400  0.89985800  1
  O  O40  1  0.67555000  0.96674600  0.54761000  1
  O  O41  1  0.17555000  0.53325400  0.95239000  1
  O  O42  1  0.82445000  0.46674600  0.45239000  1
  O  O43  1  0.32445000  0.03325400  0.04761000  1
  O  O44  1  0.32445000  0.03325400  0.45239000  1
  O  O45  1  0.82445000  0.46674600  0.04761000  1
  O  O46  1  0.17555000  0.53325400  0.54761000  1
  O  O47  1  0.10021200  0.21295900  0.98308900  1
loop_
_geom_bond_atom_site_label_1
_geom_bond_atom_site_label_2
_geom_bond_distance
_geom_bond_site_symmetry_2
Na0 O5 2.359472 1_555
Na0 O31 2.385306 1_555
Na0 O24 2.385306 1_555
Na0 O30 2.468061 1_555
Na0 O25 2.468061 1_555
Na1 O4 2.359472 1_455
Na1 O25 2.385306 1_555
Na1 O30 2.385306 1_555
Na1 O24 2.468061 1_455
Na1 O31 2.468061 1_455
Na2 O7 2.359472 1_655
Na2 O29 2.385306 1_555
Na2 O26 2.385306 1_555
Na2 O27 2.468061 1_655
Na2 O28 2.468061 1_655
Na3 O6 2.359472 1_555
Na3 O27 2.385306 1_555
Na3 O28 2.385306 1_555
Na3 O29 2.468061 1_555
Na3 O26 2.468061 1_555
Cd0 O33 2.273378 1_555
Cd0 O24 2.310231 1_555
Cd0 O41 2.320993 1_655
Cd0 O45 2.385799 1_556
Cd0 O11 2.406092 1_555
Cd0 O4 2.454984 1_555
Cd1 O32 2.273378 1_555
Cd1 O25 2.310231 1_555
Cd1 O40 2.320993 1_555
Cd1 O44 2.385799 1_565
Cd1 O10 2.406092 1_565
Cd1 O5 2.454984 1_555
Cd2 O35 2.273378 1_555
Cd2 O26 2.310231 1_555
Cd2 O43 2.320993 1_555
Cd2 O19 2.385799 1_544
Cd2 O9 2.406092 1_545
Cd2 O6 2.454984 1_555
Cd3 O34 2.273378 1_555
Cd3 O27 2.310231 1_555
Cd3 O42 2.320993 1_455
Cd3 O46 2.385799 1_555
Cd3 O8 2.406092 1_555
Cd3 O7 2.454984 1_555
Cd4 O37 2.273378 1_555
Cd4 O28 2.310231 1_555
Cd4 O45 2.320993 1_455
Cd4 O41 2.385799 1_554
Cd4 O15 2.406092 1_555
Cd4 O7 2.454984 1_555
Cd5 O36 2.273378 1_555
Cd5 O29 2.310231 1_555
Cd5 O44 2.320993 1_555
Cd5 O40 2.385799 1_545
Cd5 O14 2.406092 1_545
Cd5 O6 2.454984 1_555
Cd6 O39 2.273378 1_555
Cd6 O30 2.310231 1_555
Cd6 O19 2.320993 1_555
Cd6 O43 2.385799 1_566
Cd6 O13 2.406092 1_565
Cd6 O5 2.454984 1_555
Cd7 O38 2.273378 1_555
Cd7 O31 2.310231 1_555
Cd7 O46 2.320993 1_655
Cd7 O42 2.385799 1_555
Cd7 O12 2.406092 1_555
Cd7 O4 2.454984 1_555
Cd8 O9 2.237561 1_555
Cd8 O22 2.330335 1_555
Cd8 O3 2.333134 1_555
Cd8 O37 2.440998 1_555
Cd8 O45 2.463226 1_555
Cd8 O16 2.519124 1_555
Cd9 O8 2.237561 1_555
Cd9 O23 2.330335 1_455
Cd9 O2 2.333134 1_555
Cd9 O36 2.440998 1_465
Cd9 O44 2.463226 1_565
Cd9 O17 2.519124 1_555
Cd10 O11 2.237561 1_555
Cd10 O47 2.330335 1_655
Cd10 O1 2.333134 1_555
Cd10 O39 2.440998 1_645
Cd10 O19 2.463226 1_545
Cd10 O18 2.519124 1_555
Cd11 O10 2.237561 1_555
Cd11 O21 2.330335 1_555
Cd11 O0 2.333134 1_555
Cd11 O38 2.440998 1_555
Cd11 O46 2.463226 1_555
Cd11 O20 2.519124 1_555
Cd12 O13 2.237561 1_555
Cd12 O18 2.330335 1_555
Cd12 O0 2.333134 1_555
Cd12 O33 2.440998 1_555
Cd12 O41 2.463226 1_555
Cd12 O47 2.519124 1_555
Cd13 O12 2.237561 1_555
Cd13 O20 2.330335 1_655
Cd13 O1 2.333134 1_555
Cd13 O32 2.440998 1_645
Cd13 O40 2.463226 1_545
Cd13 O21 2.519124 1_555
Cd14 O15 2.237561 1_555
Cd14 O16 2.330335 1_455
Cd14 O2 2.333134 1_555
Cd14 O35 2.440998 1_465
Cd14 O43 2.463226 1_565
Cd14 O22 2.519124 1_555
Cd15 O14 2.237561 1_555
Cd15 O17 2.330335 1_555
Cd15 O3 2.333134 1_555
Cd15 O34 2.440998 1_555
Cd15 O42 2.463226 1_555
Cd15 O23 2.519124 1_555
O0 P4 1.563935 1_555
O1 P5 1.563935 1_555
O2 P6 1.563935 1_555
O3 P7 1.563935 1_555
O4 P4 1.553602 1_655
O5 P5 1.553602 1_565
O6 P6 1.553602 1_545
O7 P7 1.553602 1_455
O8 P7 1.558659 1_455
O9 P6 1.558659 1_555
O10 P5 1.558659 1_555
O11 P4 1.558659 1_655
O12 P4 1.558659 1_655
O13 P5 1.558659 1_555
O14 P6 1.558659 1_555
O15 P7 1.558659 1_455
O16 P11 1.563881 1_554
O17 P10 1.563881 1_555
O18 P9 1.563881 1_556
O19 P11 1.589861 1_555
O20 P8 1.563881 1_555
O21 P1 1.563881 1_555
O22 P2 1.563881 1_554
O23 P3 1.563881 1_555
O24 P11 1.542409 1_555
O25 P10 1.542409 1_555
O26 P9 1.542409 1_555
O27 P8 1.542409 1_555
O28 P0 1.542409 1_555
O29 P1 1.542409 1_555
O30 P2 1.542409 1_555
O31 P3 1.542409 1_555
O32 P3 1.558413 1_455
O33 P2 1.558413 1_555
O34 P1 1.558413 1_555
O35 P0 1.558413 1_655
O36 P8 1.558413 1_655
O37 P9 1.558413 1_555
O38 P10 1.558413 1_555
O39 P11 1.558413 1_455
O40 P3 1.589861 1_555
O41 P2 1.589861 1_555
O42 P1 1.589861 1_555
O43 P0 1.589861 1_555
O44 P8 1.589861 1_555
O45 P9 1.589861 1_555
O46 P10 1.589861 1_555
O47 P0 1.563881 1_556
