# generated using pymatgen
data_Mg16Al12W
_symmetry_space_group_name_H-M   'P 1'
_cell_length_a   9.31869191
_cell_length_b   8.86428481
_cell_length_c   8.86428571
_cell_angle_alpha   108.40958495
_cell_angle_beta   110.51305750
_cell_angle_gamma   110.51306167
_symmetry_Int_Tables_number   1
_chemical_formula_structural   Mg16Al12W
_chemical_formula_sum   'Mg16 Al12 W1'
_cell_volume   556.25541688
_cell_formula_units_Z   1
loop_
 _symmetry_equiv_pos_site_id
 _symmetry_equiv_pos_as_xyz
  1  'x, y, z'
loop_
 _atom_site_type_symbol
 _atom_site_label
 _atom_site_symmetry_multiplicity
 _atom_site_fract_x
 _atom_site_fract_y
 _atom_site_fract_z
 _atom_site_occupancy
  Mg  Mg0  1  0.99399385  0.99999900  0.99999900  1
  Mg  Mg1  1  0.00672682  0.35755334  -0.00000000  1
  Mg  Mg2  1  0.58428772  0.28129192  0.00000000  1
  Mg  Mg3  1  0.31842961  0.60620819  -0.00000000  1
  Mg  Mg4  1  0.68075662  0.67755258  0.27628500  1
  Mg  Mg5  1  0.58428872  0.00000000  0.28129192  1
  Mg  Mg6  1  0.00320404  0.59873142  0.32244742  1
  Mg  Mg7  1  0.00672682  0.99999900  0.35755334  1
  Mg  Mg8  1  0.71222242  0.39379281  0.39379281  1
  Mg  Mg9  1  0.40447262  0.72371700  0.40127058  1
  Mg  Mg10  1  0.00320304  0.32244742  0.59873142  1
  Mg  Mg11  1  0.31842961  0.00000000  0.60620719  1
  Mg  Mg12  1  0.64917148  0.64244466  0.64244466  1
  Mg  Mg13  1  0.68075662  0.27628500  0.67755258  1
  Mg  Mg14  1  0.30299580  0.71870708  0.71870808  1
  Mg  Mg15  1  0.40447262  0.40126958  0.72371800  1
  Al  Al0  1  0.64878540  0.81051889  0.99999900  1
  Al  Al1  1  0.81261245  0.61806943  0.00000000  1
  Al  Al2  1  0.36451627  0.36257047  0.18019266  1
  Al  Al3  1  0.18432261  0.81980734  0.18237881  1
  Al  Al4  1  0.83826652  0.18948011  0.18948111  1
  Al  Al5  1  0.36451627  0.18019266  0.36257047  1
  Al  Al6  1  0.19454201  0.38193157  0.38193057  1
  Al  Al7  1  0.81261145  0.00000100  0.61806943  1
  Al  Al8  1  0.00194579  0.81762219  0.63743053  1
  Al  Al9  1  0.64878540  0.00000000  0.81051889  1
  Al  Al10  1  0.00194679  0.63743053  0.81762219  1
  Al  Al11  1  0.18432361  0.18237881  0.81980734  1
  W  W0  1  0.28869100  0.00000100  1.00000000  1
loop_
_geom_bond_atom_site_label_1
_geom_bond_atom_site_label_2
_geom_bond_distance
_geom_bond_site_symmetry_2
Mg0 W0 2.746183 1_665
Mg0 Mg1 3.129855 1_666
Mg0 Mg7 3.129858 1_656
Mg0 Mg12 3.129861 1_555
Mg1 Mg3 2.967882 1_555
Mg1 Mg6 2.999441 1_555
Mg1 Mg13 2.999445 1_454
Mg1 Mg10 3.458573 1_554
Mg1 Mg9 3.458585 1_555
Mg2 Mg8 2.941465 1_555
Mg2 W0 2.998549 1_554
Mg2 Mg4 3.155107 1_555
Mg2 Mg6 3.275426 1_655
Mg3 Mg5 2.941461 1_565
Mg3 Mg9 3.075006 1_555
Mg3 Mg4 3.086742 1_555
Mg3 W0 3.597178 1_564
Mg4 Mg7 2.999440 1_655
Mg4 Mg8 3.074983 1_555
Mg4 Mg5 3.275422 1_565
Mg5 Mg8 2.941466 1_555
Mg5 W0 2.998565 1_554
Mg5 Mg9 3.155115 1_545
Mg6 Mg8 3.086735 1_455
Mg6 Mg7 3.458568 1_555
Mg8 W0 3.597176 1_554
Mg10 Mg7 2.999453 1_545
Mg10 Mg3 3.074992 1_556
Mg10 Mg8 3.086728 1_455
Mg10 Mg14 3.155101 1_555
Mg10 Mg5 3.275415 1_455
Mg11 Mg2 2.941465 1_556
Mg11 Mg14 2.941473 1_545
Mg11 Mg7 2.967874 1_545
Mg11 Mg6 3.074989 1_545
Mg11 Mg15 3.074995 1_555
Mg11 Mg9 3.086721 1_545
Mg11 Mg13 3.086738 1_555
Mg11 W0 3.597176 1_555
Mg12 Mg8 2.967872 1_555
Mg12 Mg9 2.999431 1_555
Mg12 Mg15 2.999442 1_555
Mg12 Mg13 3.458564 1_555
Mg12 Mg4 3.458564 1_555
Mg13 Mg8 3.074984 1_555
Mg13 Mg5 3.155111 1_555
Mg13 Mg2 3.275428 1_556
Mg14 Mg3 2.941454 1_556
Mg14 W0 2.998564 1_565
Mg14 Mg6 3.155107 1_555
Mg14 Mg15 3.275412 1_555
Mg14 Mg9 3.275412 1_555
Mg15 Mg3 3.086723 1_556
Mg15 Mg2 3.155099 1_556
Mg15 Mg7 3.458588 1_545
Al0 Al1 2.658214 1_556
Al0 Al4 2.724706 1_566
Al0 Al9 2.724706 1_565
Al0 Mg14 2.917568 1_555
Al0 Mg5 2.917574 1_566
Al0 Mg3 2.974832 1_556
Al0 Mg15 3.005622 1_555
Al0 Mg4 3.005649 1_556
Al0 Mg12 3.048675 1_555
Al0 Mg7 3.048680 1_656
Al0 Mg0 3.063126 1_555
Al1 Al3 2.778112 1_655
Al1 Al10 2.778128 1_654
Al1 Mg13 2.884178 1_554
Al1 Mg6 2.884183 1_655
Al1 Mg2 2.997905 1_555
Al1 Mg15 3.087569 1_554
Al1 Mg4 3.087579 1_555
Al1 Mg7 3.113178 1_655
Al1 Mg12 3.113192 1_554
Al1 Mg0 3.210654 1_554
Al1 Mg1 3.395953 1_655
Al2 Al5 2.622569 1_555
Al2 Al6 2.778128 1_555
Al2 W0 2.784759 1_554
Al2 Mg4 2.859684 1_555
Al2 Mg8 2.983483 1_555
Al2 Mg9 2.986325 1_555
Al2 Mg3 3.122184 1_555
Al2 Mg1 3.128666 1_555
Al2 Mg2 3.140773 1_555
Al2 Mg0 3.149209 1_444
Al2 Mg12 3.366088 1_555
Al3 Al5 2.591147 1_565
Al3 W0 2.784784 1_564
Al3 Mg9 2.859691 1_555
Al3 Mg3 2.983490 1_555
Al3 Mg6 2.986301 1_555
Al3 Mg11 3.122166 1_565
Al3 Mg7 3.128649 1_555
Al3 Mg5 3.140793 1_565
Al3 Mg0 3.149202 1_454
Al3 Mg1 3.366104 1_555
Al4 Al6 2.658207 1_655
Al4 Al9 2.724714 1_554
Al4 Mg5 2.917564 1_555
Al4 Mg2 2.917581 1_555
Al4 Mg8 2.974834 1_555
Al4 Mg10 3.005632 1_655
Al4 Mg6 3.005640 1_655
Al4 Mg7 3.048674 1_645
Al4 Mg1 3.048678 1_655
Al4 Mg0 3.063132 1_544
Al5 Al6 2.778135 1_555
Al5 W0 2.784766 1_554
Al5 Mg13 2.859684 1_555
Al5 Mg8 2.983483 1_555
Al5 Mg15 2.986330 1_555
Al5 Mg11 3.122176 1_555
Al5 Mg7 3.128667 1_545
Al5 Mg5 3.140782 1_555
Al5 Mg0 3.149210 1_444
Al5 Mg12 3.366088 1_555
Al6 Mg9 2.884176 1_555
Al6 Mg15 2.884200 1_555
Al6 Mg14 2.997892 1_555
Al6 Mg6 3.087557 1_555
Al6 Mg10 3.087573 1_555
Al6 Mg1 3.113178 1_555
Al6 Mg7 3.113197 1_545
Al6 Mg0 3.210672 1_444
Al6 Mg12 3.395945 1_555
Al7 Al9 2.658207 1_555
Al7 Al8 2.778135 1_645
Al7 Mg10 2.884175 1_655
Al7 Mg4 2.884185 1_545
Al7 Mg5 2.997894 1_555
Al7 Mg13 3.087565 1_555
Al7 Mg9 3.087566 1_545
Al7 Mg1 3.113178 1_656
Al7 Mg12 3.113198 1_545
Al7 Mg0 3.210660 1_545
Al7 Mg7 3.395960 1_645
Al8 W0 2.784761 1_565
Al8 Mg6 2.859694 1_555
Al8 Mg11 2.983489 1_565
Al8 Mg4 2.986313 1_455
Al8 Mg8 3.122176 1_455
Al8 Mg12 3.128671 1_455
Al8 Mg14 3.140779 1_555
Al8 Mg0 3.149190 1_455
Al8 Mg7 3.366105 1_555
Al9 Mg2 2.917574 1_556
Al9 Mg14 2.917577 1_545
Al9 Mg11 2.974829 1_555
Al9 Mg9 3.005619 1_545
Al9 Mg13 3.005641 1_555
Al9 Mg1 3.048674 1_656
Al9 Mg12 3.048682 1_545
Al9 Mg0 3.063131 1_545
Al10 Al8 2.591133 1_555
Al10 Al3 2.622577 1_556
Al10 W0 2.784764 1_565
Al10 Mg10 2.859683 1_555
Al10 Mg3 2.983476 1_556
Al10 Mg13 2.986318 1_455
Al10 Mg8 3.122178 1_455
Al10 Mg12 3.128679 1_455
Al10 Mg14 3.140765 1_555
Al10 Mg0 3.149195 1_455
Al10 Mg1 3.366110 1_556
Al11 Al2 2.591147 1_556
Al11 Al8 2.622576 1_545
Al11 Al7 2.778128 1_455
Al11 W0 2.784767 1_555
Al11 Mg15 2.859674 1_555
Al11 Mg11 2.983488 1_555
Al11 Mg10 2.986310 1_555
Al11 Mg3 3.122176 1_556
Al11 Mg1 3.128662 1_556
Al11 Mg2 3.140776 1_556
Al11 Mg0 3.149208 1_445
Al11 Mg7 3.366102 1_545
