# generated using pymatgen
data_CeBPt2
_symmetry_space_group_name_H-M   'P 1'
_cell_length_a   5.48452837
_cell_length_b   5.48452837
_cell_length_c   7.96061100
_cell_angle_alpha   90.00000000
_cell_angle_beta   90.00000000
_cell_angle_gamma   120.00000443
_symmetry_Int_Tables_number   1
_chemical_formula_structural   CeBPt2
_chemical_formula_sum   'Ce3 B3 Pt6'
_cell_volume   207.37461316
_cell_formula_units_Z   3
loop_
 _symmetry_equiv_pos_site_id
 _symmetry_equiv_pos_as_xyz
  1  'x, y, z'
loop_
 _atom_site_type_symbol
 _atom_site_label
 _atom_site_symmetry_multiplicity
 _atom_site_fract_x
 _atom_site_fract_y
 _atom_site_fract_z
 _atom_site_occupancy
  Ce  Ce0  1  0.50000000  0.50000000  0.66666700  1
  Ce  Ce1  1  0.50000000  0.00000000  0.33333300  1
  Ce  Ce2  1  0.00000000  0.50000000  0.00000000  1
  B  B0  1  0.50000000  0.00000000  0.83333300  1
  B  B1  1  0.50000000  0.50000000  0.16666700  1
  B  B2  1  0.00000000  0.50000000  0.50000000  1
  Pt  Pt0  1  0.84821500  0.69643000  0.33333300  1
  Pt  Pt1  1  0.15178500  0.84821500  0.66666700  1
  Pt  Pt2  1  0.30357000  0.15178500  0.00000000  1
  Pt  Pt3  1  0.84821500  0.15178500  0.66666700  1
  Pt  Pt4  1  0.69643000  0.84821500  0.00000000  1
  Pt  Pt5  1  0.15178500  0.30357000  0.33333300  1
loop_
_geom_bond_atom_site_label_1
_geom_bond_atom_site_label_2
_geom_bond_distance
_geom_bond_site_symmetry_2
Ce0 Pt1 3.098230 1_655
Ce0 Pt3 3.098230 1_565
Ce0 Pt3 3.098230 1_455
Ce0 Pt1 3.098230 1_545
Ce0 Pt4 3.129173 1_556
Ce0 Pt2 3.129173 1_556
Ce0 Pt0 3.129179 1_555
Ce0 Pt5 3.129179 1_555
Ce0 Pt1 3.307862 1_555
Ce0 Pt3 3.307862 1_555
Ce1 Pt5 3.098230 1_655
Ce1 Pt0 3.098230 1_445
Ce1 Pt0 3.098230 1_545
Ce1 Pt5 3.098230 1_555
Ce1 Pt2 3.129173 1_555
Ce1 Pt4 3.129173 1_545
Ce1 Pt3 3.129179 1_555
Ce1 Pt1 3.129179 1_545
Ce1 Pt5 3.307862 1_545
Ce1 Pt0 3.307862 1_555
Ce2 Pt2 3.098230 1_565
Ce2 Pt4 3.098230 1_445
Ce2 Pt4 3.098230 1_455
Ce2 Pt2 3.098230 1_555
Ce2 Pt1 3.129173 1_554
Ce2 Pt3 3.129173 1_454
Ce2 Pt5 3.129173 1_555
Ce2 Pt0 3.129173 1_455
Ce2 Pt2 3.307862 1_455
Ce2 Pt4 3.307862 1_555
B0 Pt3 2.123859 1_555
B0 Pt1 2.123859 1_545
B0 Pt2 2.123864 1_556
B0 Pt4 2.123864 1_546
B0 Ce0 3.046361 1_555
B0 Ce0 3.046361 1_545
B0 Ce2 3.046364 1_656
B0 Ce2 3.046364 1_546
B1 Pt0 2.123859 1_555
B1 Pt5 2.123859 1_555
B1 Pt4 2.123864 1_555
B1 Pt2 2.123864 1_555
B1 Ce1 3.046361 1_565
B1 Ce1 3.046361 1_555
B1 Ce2 3.046364 1_555
B1 Ce2 3.046364 1_655
B2 Pt1 2.123864 1_555
B2 Pt3 2.123864 1_455
B2 Pt5 2.123864 1_555
B2 Pt0 2.123864 1_455
B2 Ce1 3.046364 1_565
B2 Ce1 3.046364 1_455
B2 Ce0 3.046364 1_455
B2 Ce0 3.046364 1_555
