# generated using pymatgen
data_NaCu2H3O10
_symmetry_space_group_name_H-M   'P 1'
_cell_length_a   6.21355848
_cell_length_b   6.21355848
_cell_length_c   6.87066560
_cell_angle_alpha   67.01535992
_cell_angle_beta   67.01535992
_cell_angle_gamma   57.02092625
_symmetry_Int_Tables_number   1
_chemical_formula_structural   NaCu2H3O10
_chemical_formula_sum   'Na1 Cu2 H3 O10'
_cell_volume   199.34492415
_cell_formula_units_Z   1
loop_
 _symmetry_equiv_pos_site_id
 _symmetry_equiv_pos_as_xyz
  1  'x, y, z'
loop_
 _atom_site_type_symbol
 _atom_site_label
 _atom_site_symmetry_multiplicity
 _atom_site_fract_x
 _atom_site_fract_y
 _atom_site_fract_z
 _atom_site_occupancy
  Na  Na0  1  0.00000000  0.00000000  0.00000000  1
  Cu  Cu0  1  0.50000000  0.00000000  0.50000000  1
  Cu  Cu1  1  0.00000000  0.50000000  0.50000000  1
  H  H0  1  0.49453500  0.49453500  0.25185300  1
  H  H1  1  0.50546500  0.50546500  0.74814700  1
  H  H2  1  0.50000000  0.50000000  0.50000000  1
  O  O0  1  0.27905000  0.27905000  0.83157000  1
  O  O1  1  0.72095000  0.72095000  0.16843000  1
  O  O2  1  0.42841000  0.42841000  0.40454600  1
  O  O3  1  0.57159000  0.57159000  0.59545400  1
  O  O4  1  0.40863600  0.01971100  0.81786600  1
  O  O5  1  0.59136400  0.98028900  0.18213400  1
  O  O6  1  0.98028900  0.59136400  0.18213400  1
  O  O7  1  0.01971100  0.40863600  0.81786600  1
  O  O8  1  0.14809200  0.14809200  0.52910500  1
  O  O9  1  0.85190800  0.85190800  0.47089500  1
loop_
_geom_bond_atom_site_label_1
_geom_bond_atom_site_label_2
_geom_bond_distance
_geom_bond_site_symmetry_2
Na0 O6 2.401111 1_445
Na0 O5 2.401111 1_445
Na0 O4 2.401111 1_554
Na0 O7 2.401111 1_554
Na0 O8 2.903923 1_554
Na0 O9 2.903923 1_445
Cu0 O9 1.810994 1_545
Cu0 O8 1.810994 1_555
Cu0 O5 2.066848 1_545
Cu0 O4 2.066848 1_555
Cu0 O3 2.299846 1_545
Cu0 O2 2.299846 1_555
Cu1 O8 1.810994 1_555
Cu1 O9 1.810994 1_455
Cu1 O7 2.066848 1_555
Cu1 O6 2.066848 1_455
Cu1 O3 2.299846 1_455
Cu1 O2 2.299846 1_555
H0 O2 0.974045 1_555
H1 O3 0.974045 1_555
H2 O2 1.223498 1_555
H2 O3 1.223498 1_555
O0 O4 1.378625 1_555
O0 O7 1.378625 1_555
O1 O5 1.378625 1_555
O1 O6 1.378625 1_555
