# generated using pymatgen
data_Li5Ti2Fe3O10
_symmetry_space_group_name_H-M   'P 1'
_cell_length_a   5.19425100
_cell_length_b   5.21593041
_cell_length_c   7.91681169
_cell_angle_alpha   70.94871254
_cell_angle_beta   71.29648280
_cell_angle_gamma   80.23419747
_symmetry_Int_Tables_number   1
_chemical_formula_structural   Li5Ti2Fe3O10
_chemical_formula_sum   'Li5 Ti2 Fe3 O10'
_cell_volume   191.52815783
_cell_formula_units_Z   1
loop_
 _symmetry_equiv_pos_site_id
 _symmetry_equiv_pos_as_xyz
  1  'x, y, z'
loop_
 _atom_site_type_symbol
 _atom_site_label
 _atom_site_symmetry_multiplicity
 _atom_site_fract_x
 _atom_site_fract_y
 _atom_site_fract_z
 _atom_site_occupancy
  Li  Li0  1  0.49121300  0.77486900  0.40749900  1
  Li  Li1  1  0.50921700  0.60161700  0.79389300  1
  Li  Li2  1  0.99883300  0.50560300  0.49694000  1
  Li  Li3  1  0.50198100  0.21580700  0.59632100  1
  Li  Li4  1  0.48808700  0.40386100  0.20999900  1
  Ti  Ti0  1  0.01639200  0.90258000  0.69077700  1
  Ti  Ti1  1  0.97573800  0.11034900  0.31082800  1
  Fe  Fe0  1  0.49554900  0.99455200  0.00557800  1
  Fe  Fe1  1  0.99747100  0.69824800  0.10765500  1
  Fe  Fe2  1  0.00105900  0.30769100  0.89559100  1
  O  O0  1  0.23355300  0.96941400  0.83622900  1
  O  O1  1  0.77883400  0.86896000  0.54405200  1
  O  O2  1  0.77024800  0.65241400  0.93089900  1
  O  O3  1  0.23823400  0.77698800  0.24890400  1
  O  O4  1  0.23042300  0.56798700  0.66619100  1
  O  O5  1  0.75630400  0.42343800  0.35172500  1
  O  O6  1  0.76485200  0.22191900  0.76255600  1
  O  O7  1  0.22476300  0.33742000  0.06196600  1
  O  O8  1  0.21812000  0.13259500  0.45873900  1
  O  O9  1  0.76929200  0.06361000  0.15232600  1
loop_
_geom_bond_atom_site_label_1
_geom_bond_atom_site_label_2
_geom_bond_distance
_geom_bond_site_symmetry_2
Li0 O3 2.085042 1_555
Li0 O4 2.113681 1_555
Li0 O5 2.175591 1_555
Li0 O8 2.210296 1_565
Li0 O1 2.296179 1_555
Li0 O9 2.305629 1_565
Li1 O4 2.071435 1_555
Li1 O2 2.082711 1_555
Li1 O1 2.214359 1_555
Li1 O6 2.228081 1_555
Li1 O0 2.241196 1_555
Li1 O7 2.314421 1_556
Li2 O1 2.119034 1_555
Li2 O5 2.127431 1_555
Li2 O8 2.141393 1_655
Li2 O3 2.149990 1_655
Li2 O4 2.190779 1_655
Li2 O6 2.242354 1_555
Li3 O5 2.035527 1_555
Li3 O0 2.125803 1_545
Li3 O1 2.176387 1_545
Li3 O6 2.189063 1_555
Li3 O4 2.225737 1_555
Li3 O8 2.259304 1_555
Li4 O5 2.082285 1_555
Li4 O9 2.171058 1_555
Li4 O7 2.195074 1_555
Li4 O3 2.201131 1_555
Li4 O8 2.220207 1_555
Li4 O2 2.325642 1_554
Fe0 O3 2.054558 1_555
Fe0 O6 2.100466 1_564
Fe0 O7 2.154312 1_565
Fe0 O2 2.203196 1_554
Fe0 O9 2.237772 1_565
Fe0 O0 2.238771 1_554
Fe1 O3 2.086636 1_655
Fe1 O7 2.117441 1_655
Fe1 O9 2.136922 1_565
Fe1 O5 2.146177 1_555
Fe1 O2 2.186700 1_554
Fe1 O0 2.244099 1_654
Fe2 O4 2.027892 1_555
Fe2 O2 2.032327 1_455
Fe2 O6 2.034035 1_455
Fe2 O0 2.060811 1_545
Fe2 O7 2.070068 1_556
Fe2 O9 2.112489 1_456
O0 Ti0 1.987049 1_555
O1 Ti1 1.936115 1_565
O1 Ti0 2.007061 1_655
O2 Ti0 2.083004 1_655
O3 Ti1 2.108624 1_465
O4 Ti0 1.935041 1_555
O5 Ti1 1.883578 1_555
O6 Ti0 2.051310 1_645
O7 Ti1 2.078344 1_455
O8 Ti0 1.914441 1_545
O8 Ti1 2.013329 1_455
O9 Ti1 1.983761 1_555
