# generated using pymatgen
data_Nd5Pb3
_symmetry_space_group_name_H-M   'P 1'
_cell_length_a   6.92763083
_cell_length_b   9.36511158
_cell_length_c   9.36525964
_cell_angle_alpha   119.99964324
_cell_angle_beta   90.00000000
_cell_angle_gamma   90.00000000
_symmetry_Int_Tables_number   1
_chemical_formula_structural   Nd5Pb3
_chemical_formula_sum   'Nd10 Pb6'
_cell_volume   526.19862317
_cell_formula_units_Z   2
loop_
 _symmetry_equiv_pos_site_id
 _symmetry_equiv_pos_as_xyz
  1  'x, y, z'
loop_
 _atom_site_type_symbol
 _atom_site_label
 _atom_site_symmetry_multiplicity
 _atom_site_fract_x
 _atom_site_fract_y
 _atom_site_fract_z
 _atom_site_occupancy
  Nd  Nd0  1  0.49989121  0.33335440  0.66660565  1
  Nd  Nd1  1  0.49989121  0.66674875  0.33339435  1
  Nd  Nd2  1  0.99989121  0.66664560  0.33339435  1
  Nd  Nd3  1  0.99989121  0.33325125  0.66660565  1
  Nd  Nd4  1  0.75035870  0.24017187  0.00000000  1
  Nd  Nd5  1  0.75035440  0.75990158  0.75993309  1
  Nd  Nd6  1  0.75035440  0.99996849  0.24006691  1
  Nd  Nd7  1  0.25035870  0.75982813  -0.00000000  1
  Nd  Nd8  1  0.25035440  0.24009842  0.24006691  1
  Nd  Nd9  1  0.25035440  0.00003151  0.75993309  1
  Pb  Pb0  1  0.74979295  0.60675382  -0.00000000  1
  Pb  Pb1  1  0.74967756  0.39317327  0.39316363  1
  Pb  Pb2  1  0.74967756  0.00000864  0.60683637  1
  Pb  Pb3  1  0.24979295  0.39324618  0.00000000  1
  Pb  Pb4  1  0.24967756  0.60682673  0.60683637  1
  Pb  Pb5  1  0.24967756  0.99999136  0.39316363  1
loop_
_geom_bond_atom_site_label_1
_geom_bond_atom_site_label_2
_geom_bond_distance
_geom_bond_site_symmetry_2
Nd0 Pb1 3.361666 1_555
Nd0 Pb2 3.362444 1_555
Nd0 Pb0 3.362651 1_556
Nd0 Pb4 3.363147 1_555
Nd0 Pb3 3.363644 1_556
Nd0 Pb5 3.363707 1_545
Nd0 Nd3 3.463816 1_455
Nd0 Nd3 3.463816 1_555
Nd0 Nd7 4.027243 1_556
Nd0 Nd8 4.027362 1_555
Nd0 Nd9 4.028043 1_555
Nd0 Nd5 4.029944 1_555
Nd0 Nd6 4.030385 1_545
Nd0 Nd4 4.030620 1_556
Nd1 Pb2 3.361654 1_565
Nd1 Pb1 3.362439 1_555
Nd1 Pb0 3.362656 1_555
Nd1 Pb5 3.363153 1_555
Nd1 Pb3 3.363640 1_555
Nd1 Pb4 3.363720 1_555
Nd1 Nd2 3.463816 1_555
Nd1 Nd2 3.463816 1_455
Nd1 Nd7 4.027253 1_555
Nd1 Nd9 4.027356 1_565
Nd1 Nd8 4.028039 1_555
Nd1 Nd6 4.029948 1_555
Nd1 Nd5 4.030390 1_555
Nd1 Nd4 4.030611 1_555
Nd2 Pb4 3.361666 1_655
Nd2 Pb5 3.362444 1_655
Nd2 Pb3 3.362651 1_655
Nd2 Pb1 3.363147 1_555
Nd2 Pb0 3.363644 1_555
Nd2 Pb2 3.363707 1_565
Nd2 Nd4 4.027243 1_555
Nd2 Nd5 4.027362 1_555
Nd2 Nd6 4.028043 1_555
Nd2 Nd8 4.029944 1_655
Nd2 Nd9 4.030385 1_665
Nd2 Nd7 4.030620 1_655
Nd3 Pb5 3.361654 1_645
Nd3 Pb4 3.362439 1_655
Nd3 Pb3 3.362656 1_656
Nd3 Pb2 3.363153 1_555
Nd3 Pb0 3.363640 1_556
Nd3 Pb1 3.363720 1_555
Nd3 Nd4 4.027253 1_556
Nd3 Nd6 4.027356 1_545
Nd3 Nd5 4.028039 1_555
Nd3 Nd9 4.029948 1_655
Nd3 Nd8 4.030390 1_655
Nd3 Nd7 4.030611 1_656
Nd4 Pb2 3.214802 1_554
Nd4 Pb1 3.214803 1_555
Nd4 Pb0 3.433083 1_555
Nd4 Pb3 3.745126 1_655
Nd4 Pb3 3.752369 1_555
Nd4 Nd5 3.895210 1_544
Nd4 Nd6 3.895220 1_545
Nd4 Nd9 4.129665 1_654
Nd4 Nd8 4.129668 1_655
Nd4 Nd9 4.129715 1_554
Nd4 Nd8 4.129718 1_555
Nd5 Pb2 3.214987 1_565
Nd5 Pb0 3.215034 1_556
Nd5 Pb1 3.434693 1_555
Nd5 Pb4 3.744464 1_655
Nd5 Pb4 3.753128 1_555
Nd5 Nd6 3.894165 1_556
Nd5 Nd7 4.129668 1_556
Nd5 Nd7 4.129718 1_656
Nd5 Nd9 4.129808 1_665
Nd5 Nd9 4.129808 1_565
Nd6 Pb1 3.214989 1_565
Nd6 Pb0 3.215025 1_555
Nd6 Pb2 3.434706 1_565
Nd6 Pb5 3.744463 1_655
Nd6 Pb5 3.753128 1_555
Nd6 Nd7 4.129665 1_555
Nd6 Nd7 4.129715 1_655
Nd6 Nd8 4.129808 1_665
Nd6 Nd8 4.129808 1_565
Nd7 Pb5 3.214802 1_555
Nd7 Pb4 3.214803 1_554
Nd7 Pb3 3.433083 1_555
Nd7 Pb0 3.745126 1_555
Nd7 Pb0 3.752369 1_455
Nd7 Nd8 3.895210 1_565
Nd7 Nd9 3.895220 1_564
Nd8 Pb5 3.214987 1_545
Nd8 Pb3 3.215034 1_555
Nd8 Pb4 3.434693 1_555
Nd8 Pb1 3.744464 1_555
Nd8 Pb1 3.753128 1_455
Nd8 Nd9 3.894165 1_554
Nd9 Pb4 3.214989 1_545
Nd9 Pb3 3.215025 1_556
Nd9 Pb5 3.434706 1_545
Nd9 Pb2 3.744463 1_555
Nd9 Pb2 3.753128 1_455
