# generated using pymatgen
data_Cs2CaAl4(SiO4)4
_symmetry_space_group_name_H-M   'P 1'
_cell_length_a   12.49763635
_cell_length_b   12.36339550
_cell_length_c   12.27325940
_cell_angle_alpha   90.53118712
_cell_angle_beta   90.14135040
_cell_angle_gamma   89.31316550
_symmetry_Int_Tables_number   1
_chemical_formula_structural   Cs2CaAl4(SiO4)4
_chemical_formula_sum   'Cs6 Ca3 Al12 Si12 O48'
_cell_volume   1896.15783465
_cell_formula_units_Z   3
loop_
 _symmetry_equiv_pos_site_id
 _symmetry_equiv_pos_as_xyz
  1  'x, y, z'
loop_
 _atom_site_type_symbol
 _atom_site_label
 _atom_site_symmetry_multiplicity
 _atom_site_fract_x
 _atom_site_fract_y
 _atom_site_fract_z
 _atom_site_occupancy
  Cs  Cs0  1  0.02113732  0.51846096  0.50904573  1
  Cs  Cs1  1  0.45841177  0.44906082  0.08744955  1
  Cs  Cs2  1  0.53104832  0.02215738  0.48641149  1
  Cs  Cs3  1  0.29481919  0.73845753  0.26193726  1
  Cs  Cs4  1  0.60725275  0.58845994  0.84049720  1
  Cs  Cs5  1  0.89643501  0.10021437  0.10105826  1
  Ca  Ca0  1  0.77923460  0.18917056  0.80983311  1
  Ca  Ca1  1  0.77431261  0.81052858  0.19729859  1
  Ca  Ca2  1  0.83270487  0.83798447  0.81447563  1
  Al  Al0  1  0.01393360  0.81352341  0.36920454  1
  Al  Al1  1  0.00536677  0.63208991  0.81840653  1
  Al  Al2  1  0.18777619  0.37211592  0.99567511  1
  Al  Al3  1  0.37220838  0.81640920  0.98753223  1
  Al  Al4  1  0.62310244  0.01600826  0.18916279  1
  Al  Al5  1  0.62947884  0.18701264  0.00924021  1
  Al  Al6  1  0.62951506  0.98556270  0.81532796  1
  Al  Al7  1  0.62285485  0.81144972  0.99877290  1
  Al  Al8  1  0.82361320  0.99044749  0.37014602  1
  Al  Al9  1  0.84172347  0.01116898  0.63092402  1
  Al  Al10  1  0.82887191  0.37160331  0.98284358  1
  Al  Al11  1  0.83261684  0.63488057  0.00902475  1
  Si  Si0  1  0.00670168  0.36534772  0.17767807  1
  Si  Si1  1  0.01319293  0.19466840  0.62065294  1
  Si  Si2  1  0.01390810  0.61823554  0.19583401  1
  Si  Si3  1  0.02735263  0.82522344  0.63128046  1
  Si  Si4  1  0.19798898  0.00916512  0.61697085  1
  Si  Si5  1  0.19110610  0.62110229  0.00868223  1
  Si  Si6  1  0.18853027  0.00661520  0.36351068  1
  Si  Si7  1  0.37349387  0.01126337  0.17583781  1
  Si  Si8  1  0.37727148  0.18429109  0.98877365  1
  Si  Si9  1  0.38165962  0.99875147  0.80200808  1
  Si  Si10  1  0.00031553  0.18220279  0.36529176  1
  Si  Si11  1  0.00604256  0.37848921  0.80082392  1
  O  O0  1  0.00263772  0.22854016  0.49186896  1
  O  O1  1  0.99657441  0.49022879  0.22805558  1
  O  O2  1  0.02911271  0.30812646  0.68615358  1
  O  O3  1  0.03029186  0.68358720  0.31009518  1
  O  O4  1  0.98422992  0.50246461  0.76028373  1
  O  O5  1  0.02507380  0.72209211  0.71059089  1
  O  O6  1  0.11039774  0.11165605  0.34423357  1
  O  O7  1  0.11872258  0.34505846  0.11699613  1
  O  O8  1  0.10502687  0.36528462  0.88194298  1
  O  O9  1  0.12828047  0.89265428  0.34599273  1
  O  O10  1  0.11408308  0.11082433  0.63755058  1
  O  O11  1  0.12406512  0.63300470  0.12664886  1
  O  O12  1  0.10929333  0.63480508  0.90932156  1
  O  O13  1  0.13900389  0.89445799  0.63961116  1
  O  O14  1  0.23897996  0.01348882  0.48906206  1
  O  O15  1  0.24752862  0.50133653  0.00994705  1
  O  O16  1  0.29733990  0.28626236  0.98125620  1
  O  O17  1  0.30270925  0.01876316  0.69408746  1
  O  O18  1  0.28081474  0.71347165  0.01485500  1
  O  O19  1  0.28816679  0.01150340  0.27948774  1
  O  O20  1  0.34970283  0.11729807  0.10077518  1
  O  O21  1  0.36691053  0.10546334  0.88121983  1
  O  O22  1  0.35770592  0.90153371  0.10509199  1
  O  O23  1  0.35216008  0.89003361  0.86637564  1
  O  O24  1  0.48949528  0.01583824  0.23624314  1
  O  O25  1  0.49713751  0.23486469  0.99847343  1
  O  O26  1  0.49838903  0.75156939  0.98906507  1
  O  O27  1  0.50374213  0.99476871  0.75121867  1
  O  O28  1  0.66318347  0.13888868  0.13688594  1
  O  O29  1  0.65599851  0.09266649  0.90381338  1
  O  O30  1  0.65087190  0.90848111  0.09796177  1
  O  O31  1  0.66236187  0.85478360  0.86565174  1
  O  O32  1  0.74587351  0.00694010  0.73417376  1
  O  O33  1  0.72089252  0.28478764  0.96287489  1
  O  O34  1  0.72116483  0.71606558  0.03984427  1
  O  O35  1  0.70676284  0.96933800  0.29502762  1
  O  O36  1  0.78771018  0.99362106  0.50551626  1
  O  O37  1  0.79025570  0.50529911  0.98222844  1
  O  O38  1  0.89724433  0.10896673  0.33966854  1
  O  O39  1  0.90576528  0.33716009  0.09868282  1
  O  O40  1  0.89663135  0.32813119  0.85660979  1
  O  O41  1  0.89838290  0.87659068  0.31823663  1
  O  O42  1  0.90197687  0.13919375  0.66279271  1
  O  O43  1  0.90857213  0.66488747  0.13031541  1
  O  O44  1  0.88930237  0.68545815  0.88632481  1
  O  O45  1  0.92981387  0.90637329  0.67516484  1
  O  O46  1  0.99996861  0.28802233  0.28715815  1
  O  O47  1  0.00610616  0.78444508  0.50815238  1
loop_
_geom_bond_atom_site_label_1
_geom_bond_atom_site_label_2
_geom_bond_distance
_geom_bond_site_symmetry_2
Cs0 O4 3.127365 1_455
Cs0 O3 3.200399 1_555
Cs0 O47 3.291697 1_555
Cs0 O2 3.405103 1_555
Cs0 O1 3.476260 1_455
Cs0 O5 3.513726 1_555
Cs0 O0 3.598816 1_555
Cs1 O15 2.868236 1_555
Cs1 O25 2.891010 1_554
Cs1 O16 3.136497 1_554
Cs2 O24 3.113148 1_555
Cs2 O36 3.230986 1_545
Cs2 O35 3.275501 1_545
Cs2 O27 3.289769 1_545
Cs2 O14 3.653255 1_555
Cs3 O22 2.916455 1_555
Cs3 O9 2.984894 1_555
Cs3 O11 3.003321 1_555
Cs3 O18 3.050156 1_555
Cs3 O19 3.380686 1_565
Cs3 O3 3.436540 1_555
Cs4 O26 3.020067 1_555
Cs4 O37 3.044827 1_555
Cs4 O34 3.235244 1_556
Cs4 O31 3.383161 1_555
Cs5 O38 2.929519 1_555
Cs5 O39 2.933587 1_555
Cs5 O28 2.981402 1_555
Ca0 O29 2.281314 1_555
Ca0 O33 2.324250 1_555
Ca0 O40 2.339191 1_555
Ca0 O42 2.441716 1_555
Ca0 O32 2.468578 1_555
Ca1 O41 2.295884 1_555
Ca1 O30 2.303537 1_555
Ca1 O34 2.347345 1_555
Ca1 O35 2.434750 1_555
Ca1 O43 2.576905 1_555
Ca2 O44 2.197667 1_555
Ca2 O31 2.227863 1_555
Ca2 O45 2.274392 1_555
Ca2 O32 2.547720 1_565
Al0 O47 1.749298 1_555
Al0 O41 1.749949 1_455
Al0 O3 1.766362 1_555
Al0 O9 1.766693 1_555
Al1 O12 1.710662 1_555
Al1 O5 1.756503 1_555
Al1 O4 1.770603 1_455
Al1 O44 1.790829 1_455
Al2 O16 1.730835 1_555
Al2 O8 1.737200 1_555
Al2 O7 1.759636 1_556
Al2 O15 1.778609 1_556
Al3 O18 1.755390 1_556
Al3 O26 1.760571 1_555
Al3 O23 1.766422 1_555
Al3 O22 1.786283 1_556
Al4 O28 1.734506 1_555
Al4 O30 1.761796 1_545
Al4 O35 1.762684 1_545
Al4 O24 1.768305 1_555
Al5 O28 1.730253 1_555
Al5 O25 1.754977 1_554
Al5 O29 1.763391 1_554
Al5 O33 1.771827 1_554
Al6 O29 1.739092 1_565
Al6 O27 1.759000 1_555
Al6 O31 1.779220 1_555
Al6 O32 1.788261 1_565
Al7 O26 1.734071 1_555
Al7 O30 1.739142 1_556
Al7 O34 1.768494 1_556
Al7 O31 1.796321 1_555
Al8 O36 1.722000 1_555
Al8 O35 1.746071 1_555
Al8 O38 1.782697 1_565
Al8 O41 1.793140 1_555
Al9 O36 1.692323 1_545
Al9 O32 1.747494 1_555
Al9 O45 1.778036 1_545
Al9 O42 1.800277 1_555
Al10 O37 1.716464 1_555
Al10 O33 1.749699 1_555
Al10 O39 1.766580 1_556
Al10 O40 1.840230 1_555
Al11 O37 1.721849 1_554
Al11 O34 1.747201 1_555
Al11 O44 1.787193 1_554
Al11 O43 1.801662 1_555
O0 Si1 1.643467 1_555
O0 Si10 1.651098 1_555
O1 Si2 1.651721 1_655
O1 Si0 1.661356 1_655
O2 Si1 1.624342 1_555
O2 Si11 1.671496 1_555
O3 Si2 1.625695 1_555
O4 Si11 1.635444 1_655
O5 Si3 1.611861 1_555
O6 Si6 1.634060 1_555
O6 Si10 1.639838 1_555
O7 Si0 1.603387 1_555
O8 Si11 1.593831 1_555
O9 Si6 1.617822 1_565
O10 Si1 1.636687 1_555
O10 Si4 1.645270 1_555
O11 Si2 1.632280 1_555
O11 Si5 1.678976 1_555
O12 Si5 1.598372 1_556
O13 Si4 1.632551 1_565
O13 Si3 1.648190 1_555
O14 Si4 1.654066 1_555
O14 Si6 1.665313 1_555
O15 Si5 1.632581 1_555
O16 Si8 1.602288 1_555
O17 Si4 1.618104 1_555
O17 Si9 1.668218 1_545
O18 Si5 1.611069 1_555
O19 Si6 1.620793 1_555
O19 Si7 1.661936 1_555
O20 Si7 1.633223 1_555
O20 Si8 1.650638 1_554
O21 Si8 1.639327 1_555
O21 Si9 1.640428 1_545
O22 Si7 1.617722 1_565
O23 Si9 1.612355 1_555
O24 Si7 1.628027 1_555
O25 Si8 1.633845 1_555
O27 Si9 1.649608 1_555
O38 Si10 1.612060 1_655
O39 Si0 1.628181 1_655
O40 Si11 1.661045 1_655
O42 Si1 1.644017 1_655
O43 Si2 1.642409 1_655
O45 Si3 1.657272 1_655
O46 Si10 1.629214 1_655
O46 Si0 1.659156 1_655
O47 Si3 1.611043 1_555
