# generated using pymatgen
data_MgGa5
_symmetry_space_group_name_H-M   'P 1'
_cell_length_a   6.12607922
_cell_length_b   6.12607922
_cell_length_c   28.27244400
_cell_angle_alpha   90.00000000
_cell_angle_beta   90.00000000
_cell_angle_gamma   119.99999153
_symmetry_Int_Tables_number   1
_chemical_formula_structural   MgGa5
_chemical_formula_sum   'Mg8 Ga40'
_cell_volume   918.88092883
_cell_formula_units_Z   8
loop_
 _symmetry_equiv_pos_site_id
 _symmetry_equiv_pos_as_xyz
  1  'x, y, z'
loop_
 _atom_site_type_symbol
 _atom_site_label
 _atom_site_symmetry_multiplicity
 _atom_site_fract_x
 _atom_site_fract_y
 _atom_site_fract_z
 _atom_site_occupancy
  Mg  Mg0_0  1  0.00000000  0.00000000  0.00000000  1
  Mg  Mg0_1  1  0.00000000  0.00000000  0.50000000  1
  Mg  Mg0_2  1  0.00000000  0.50000000  0.00000000  1
  Mg  Mg0_3  1  0.00000000  0.50000000  0.50000000  1
  Mg  Mg0_4  1  0.50000000  0.00000000  0.00000000  1
  Mg  Mg0_5  1  0.50000000  0.00000000  0.50000000  1
  Mg  Mg0_6  1  0.50000000  0.50000000  0.00000000  1
  Mg  Mg0_7  1  0.50000000  0.50000000  0.50000000  1
  Ga  Ga0_0  1  0.33333350  0.16666650  0.41644900  1
  Ga  Ga0_1  1  0.33333350  0.16666650  0.91644900  1
  Ga  Ga0_2  1  0.33333350  0.66666650  0.41644900  1
  Ga  Ga0_3  1  0.33333350  0.66666650  0.91644900  1
  Ga  Ga0_4  1  0.83333350  0.16666650  0.41644900  1
  Ga  Ga0_5  1  0.83333350  0.16666650  0.91644900  1
  Ga  Ga0_6  1  0.83333350  0.66666650  0.41644900  1
  Ga  Ga0_7  1  0.83333350  0.66666650  0.91644900  1
  Ga  Ga1_0  1  0.00000000  0.00000000  0.33349850  1
  Ga  Ga1_1  1  0.00000000  0.00000000  0.83349850  1
  Ga  Ga1_2  1  0.00000000  0.50000000  0.33349850  1
  Ga  Ga1_3  1  0.00000000  0.50000000  0.83349850  1
  Ga  Ga1_4  1  0.50000000  0.00000000  0.33349850  1
  Ga  Ga1_5  1  0.50000000  0.00000000  0.83349850  1
  Ga  Ga1_6  1  0.50000000  0.50000000  0.33349850  1
  Ga  Ga1_7  1  0.50000000  0.50000000  0.83349850  1
  Ga  Ga2_0  1  0.33333350  0.16666650  0.25000000  1
  Ga  Ga2_1  1  0.33333350  0.16666650  0.75000000  1
  Ga  Ga2_2  1  0.33333350  0.66666650  0.25000000  1
  Ga  Ga2_3  1  0.33333350  0.66666650  0.75000000  1
  Ga  Ga2_4  1  0.83333350  0.16666650  0.25000000  1
  Ga  Ga2_5  1  0.83333350  0.16666650  0.75000000  1
  Ga  Ga2_6  1  0.83333350  0.66666650  0.25000000  1
  Ga  Ga2_7  1  0.83333350  0.66666650  0.75000000  1
  Ga  Ga3_0  1  0.00000000  0.00000000  0.16650150  1
  Ga  Ga3_1  1  0.00000000  0.00000000  0.66650150  1
  Ga  Ga3_2  1  0.00000000  0.50000000  0.16650150  1
  Ga  Ga3_3  1  0.00000000  0.50000000  0.66650150  1
  Ga  Ga3_4  1  0.50000000  0.00000000  0.16650150  1
  Ga  Ga3_5  1  0.50000000  0.00000000  0.66650150  1
  Ga  Ga3_6  1  0.50000000  0.50000000  0.16650150  1
  Ga  Ga3_7  1  0.50000000  0.50000000  0.66650150  1
  Ga  Ga4_0  1  0.33333350  0.16666650  0.08355100  1
  Ga  Ga4_1  1  0.33333350  0.16666650  0.58355100  1
  Ga  Ga4_2  1  0.33333350  0.66666650  0.08355100  1
  Ga  Ga4_3  1  0.33333350  0.66666650  0.58355100  1
  Ga  Ga4_4  1  0.83333350  0.16666650  0.08355100  1
  Ga  Ga4_5  1  0.83333350  0.16666650  0.58355100  1
  Ga  Ga4_6  1  0.83333350  0.66666650  0.08355100  1
  Ga  Ga4_7  1  0.83333350  0.66666650  0.58355100  1
loop_
_geom_bond_atom_site_label_1
_geom_bond_atom_site_label_2
_geom_bond_distance
_geom_bond_site_symmetry_2
Ga0_0 Ga1_4 2.937248 1_555
Ga0_0 Ga1_0 2.937249 1_555
Ga0_0 Ga1_6 2.937249 1_555
Ga0_0 Mg0_5 2.950821 1_555
Ga0_0 Mg0_7 2.950823 1_555
Ga0_0 Mg0_1 2.950823 1_555
Ga0_1 Ga1_5 2.937248 1_555
Ga0_1 Ga1_1 2.937249 1_555
Ga0_1 Ga1_7 2.937249 1_555
Ga0_1 Mg0_4 2.950821 1_556
Ga0_1 Mg0_0 2.950823 1_556
Ga0_1 Mg0_6 2.950823 1_556
Ga0_2 Ga1_6 2.937248 1_555
Ga0_2 Ga1_4 2.937249 1_565
Ga0_2 Ga1_2 2.937249 1_555
Ga0_2 Mg0_7 2.950821 1_555
Ga0_2 Mg0_3 2.950823 1_555
Ga0_2 Mg0_5 2.950823 1_565
Ga0_3 Ga1_7 2.937248 1_555
Ga0_3 Ga1_3 2.937249 1_555
Ga0_3 Ga1_5 2.937249 1_565
Ga0_3 Mg0_6 2.950821 1_556
Ga0_3 Mg0_4 2.950823 1_566
Ga0_3 Mg0_2 2.950823 1_556
Ga0_4 Ga1_0 2.937248 1_655
Ga0_4 Ga1_4 2.937249 1_555
Ga0_4 Ga1_2 2.937249 1_655
Ga0_4 Mg0_1 2.950821 1_655
Ga0_4 Mg0_3 2.950823 1_655
Ga0_4 Mg0_5 2.950823 1_555
Ga0_5 Ga1_1 2.937248 1_655
Ga0_5 Ga1_5 2.937249 1_555
Ga0_5 Ga1_3 2.937249 1_655
Ga0_5 Mg0_0 2.950821 1_656
Ga0_5 Mg0_2 2.950823 1_656
Ga0_5 Mg0_4 2.950823 1_556
Ga0_6 Ga1_2 2.937248 1_655
Ga0_6 Ga1_0 2.937249 1_665
Ga0_6 Ga1_6 2.937249 1_555
Ga0_6 Mg0_3 2.950821 1_655
Ga0_6 Mg0_7 2.950823 1_555
Ga0_6 Mg0_1 2.950823 1_665
Ga0_7 Ga1_3 2.937248 1_655
Ga0_7 Ga1_7 2.937249 1_555
Ga0_7 Ga1_1 2.937249 1_665
Ga0_7 Mg0_2 2.950821 1_656
Ga0_7 Mg0_0 2.950823 1_666
Ga0_7 Mg0_6 2.950823 1_556
Ga1_0 Ga2_4 2.949633 1_455
Ga1_0 Ga2_0 2.949634 1_555
Ga1_0 Ga2_6 2.949634 1_445
Ga1_0 Ga1_4 3.063040 1_555
Ga1_0 Ga1_2 3.063040 1_555
Ga1_0 Ga1_4 3.063040 1_455
Ga1_0 Ga1_2 3.063040 1_545
Ga1_0 Ga1_6 3.063040 1_445
Ga1_0 Ga1_6 3.063040 1_555
Ga1_1 Ga2_5 2.949633 1_455
Ga1_1 Ga2_7 2.949634 1_445
Ga1_1 Ga2_1 2.949634 1_555
Ga1_1 Ga1_5 3.063040 1_555
Ga1_1 Ga1_3 3.063040 1_555
Ga1_1 Ga1_5 3.063040 1_455
Ga1_1 Ga1_3 3.063040 1_545
Ga1_1 Ga1_7 3.063040 1_445
Ga1_1 Ga1_7 3.063040 1_555
Ga1_2 Ga2_6 2.949633 1_455
Ga1_2 Ga2_4 2.949634 1_455
Ga1_2 Ga2_2 2.949634 1_555
Ga1_2 Ga1_6 3.063040 1_455
Ga1_2 Ga1_6 3.063040 1_555
Ga1_2 Ga1_4 3.063040 1_455
Ga1_2 Ga1_4 3.063040 1_565
Ga1_3 Ga2_7 2.949633 1_455
Ga1_3 Ga2_3 2.949634 1_555
Ga1_3 Ga2_5 2.949634 1_455
Ga1_3 Ga1_7 3.063040 1_455
Ga1_3 Ga1_7 3.063040 1_555
Ga1_3 Ga1_5 3.063040 1_565
Ga1_3 Ga1_5 3.063040 1_455
Ga1_4 Ga2_0 2.949633 1_555
Ga1_4 Ga2_4 2.949634 1_555
Ga1_4 Ga2_2 2.949634 1_545
Ga1_4 Ga1_6 3.063040 1_545
Ga1_4 Ga1_6 3.063040 1_555
Ga1_5 Ga2_1 2.949633 1_555
Ga1_5 Ga2_3 2.949634 1_545
Ga1_5 Ga2_5 2.949634 1_555
Ga1_5 Ga1_7 3.063040 1_545
Ga1_5 Ga1_7 3.063040 1_555
Ga1_6 Ga2_2 2.949633 1_555
Ga1_6 Ga2_0 2.949634 1_555
Ga1_6 Ga2_6 2.949634 1_555
Ga1_7 Ga2_3 2.949633 1_555
Ga1_7 Ga2_1 2.949634 1_555
Ga1_7 Ga2_7 2.949634 1_555
Ga2_0 Ga3_4 2.949633 1_555
Ga2_0 Ga3_6 2.949634 1_555
Ga2_0 Ga3_0 2.949634 1_555
Ga2_0 Ga2_4 3.063040 1_455
Ga2_0 Ga2_2 3.063040 1_555
Ga2_0 Ga2_2 3.063040 1_545
Ga2_0 Ga2_4 3.063040 1_555
Ga2_0 Ga2_6 3.063040 1_555
Ga2_0 Ga2_6 3.063040 1_445
Ga2_1 Ga3_5 2.949633 1_555
Ga2_1 Ga3_7 2.949634 1_555
Ga2_1 Ga3_1 2.949634 1_555
Ga2_1 Ga2_3 3.063040 1_555
Ga2_1 Ga2_5 3.063040 1_455
Ga2_1 Ga2_5 3.063040 1_555
Ga2_1 Ga2_3 3.063040 1_545
Ga2_1 Ga2_7 3.063040 1_445
Ga2_1 Ga2_7 3.063040 1_555
Ga2_2 Ga3_6 2.949633 1_555
Ga2_2 Ga3_2 2.949634 1_555
Ga2_2 Ga3_4 2.949634 1_565
Ga2_2 Ga2_6 3.063040 1_455
Ga2_2 Ga2_6 3.063040 1_555
Ga2_2 Ga2_4 3.063040 1_455
Ga2_2 Ga2_4 3.063040 1_565
Ga2_3 Ga3_7 2.949633 1_555
Ga2_3 Ga3_3 2.949634 1_555
Ga2_3 Ga3_5 2.949634 1_565
Ga2_3 Ga2_7 3.063040 1_455
Ga2_3 Ga2_7 3.063040 1_555
Ga2_3 Ga2_5 3.063040 1_455
Ga2_3 Ga2_5 3.063040 1_565
Ga2_4 Ga3_0 2.949633 1_655
Ga2_4 Ga3_4 2.949634 1_555
Ga2_4 Ga3_2 2.949634 1_655
Ga2_4 Ga2_6 3.063040 1_555
Ga2_4 Ga2_6 3.063040 1_545
Ga2_5 Ga3_1 2.949633 1_655
Ga2_5 Ga3_3 2.949634 1_655
Ga2_5 Ga3_5 2.949634 1_555
Ga2_5 Ga2_7 3.063040 1_545
Ga2_5 Ga2_7 3.063040 1_555
Ga2_6 Ga3_2 2.949633 1_655
Ga2_6 Ga3_6 2.949634 1_555
Ga2_6 Ga3_0 2.949634 1_665
Ga2_7 Ga3_3 2.949633 1_655
Ga2_7 Ga3_7 2.949634 1_555
Ga2_7 Ga3_1 2.949634 1_665
Ga3_0 Ga4_4 2.937248 1_455
Ga3_0 Ga4_0 2.937249 1_555
Ga3_0 Ga4_6 2.937249 1_445
Ga3_0 Ga3_2 3.063040 1_555
Ga3_0 Ga3_4 3.063040 1_455
Ga3_0 Ga3_4 3.063040 1_555
Ga3_0 Ga3_2 3.063040 1_545
Ga3_0 Ga3_6 3.063040 1_445
Ga3_0 Ga3_6 3.063040 1_555
Ga3_1 Ga4_5 2.937248 1_455
Ga3_1 Ga4_1 2.937249 1_555
Ga3_1 Ga4_7 2.937249 1_445
Ga3_1 Ga3_3 3.063040 1_555
Ga3_1 Ga3_5 3.063040 1_555
Ga3_1 Ga3_5 3.063040 1_455
Ga3_1 Ga3_3 3.063040 1_545
Ga3_1 Ga3_7 3.063040 1_445
Ga3_1 Ga3_7 3.063040 1_555
Ga3_2 Ga4_6 2.937248 1_455
Ga3_2 Ga4_2 2.937249 1_555
Ga3_2 Ga4_4 2.937249 1_455
Ga3_2 Ga3_6 3.063040 1_455
Ga3_2 Ga3_6 3.063040 1_555
Ga3_2 Ga3_4 3.063040 1_565
Ga3_2 Ga3_4 3.063040 1_455
Ga3_3 Ga4_7 2.937248 1_455
Ga3_3 Ga4_3 2.937249 1_555
Ga3_3 Ga4_5 2.937249 1_455
Ga3_3 Ga3_7 3.063040 1_455
Ga3_3 Ga3_7 3.063040 1_555
Ga3_3 Ga3_5 3.063040 1_565
Ga3_3 Ga3_5 3.063040 1_455
Ga3_4 Ga4_0 2.937248 1_555
Ga3_4 Ga4_2 2.937249 1_545
Ga3_4 Ga4_4 2.937249 1_555
Ga3_4 Ga3_6 3.063040 1_545
Ga3_4 Ga3_6 3.063040 1_555
Ga3_5 Ga4_1 2.937248 1_555
Ga3_5 Ga4_5 2.937249 1_555
Ga3_5 Ga4_3 2.937249 1_545
Ga3_5 Ga3_7 3.063040 1_545
Ga3_5 Ga3_7 3.063040 1_555
Ga3_6 Ga4_2 2.937248 1_555
Ga3_6 Ga4_0 2.937249 1_555
Ga3_6 Ga4_6 2.937249 1_555
Ga3_7 Ga4_3 2.937248 1_555
Ga3_7 Ga4_1 2.937249 1_555
Ga3_7 Ga4_7 2.937249 1_555
Ga4_0 Mg0_4 2.950821 1_555
Ga4_0 Mg0_6 2.950823 1_555
Ga4_0 Mg0_0 2.950823 1_555
Ga4_1 Mg0_5 2.950821 1_555
Ga4_1 Mg0_1 2.950823 1_555
Ga4_1 Mg0_7 2.950823 1_555
Ga4_2 Mg0_6 2.950821 1_555
Ga4_2 Mg0_4 2.950823 1_565
Ga4_2 Mg0_2 2.950823 1_555
Ga4_3 Mg0_7 2.950821 1_555
Ga4_3 Mg0_3 2.950823 1_555
Ga4_3 Mg0_5 2.950823 1_565
Ga4_4 Mg0_0 2.950821 1_655
Ga4_4 Mg0_2 2.950823 1_655
Ga4_4 Mg0_4 2.950823 1_555
Ga4_5 Mg0_1 2.950821 1_655
Ga4_5 Mg0_5 2.950823 1_555
Ga4_5 Mg0_3 2.950823 1_655
Ga4_6 Mg0_2 2.950821 1_655
Ga4_6 Mg0_6 2.950823 1_555
Ga4_6 Mg0_0 2.950823 1_665
Ga4_7 Mg0_3 2.950821 1_655
Ga4_7 Mg0_1 2.950823 1_665
Ga4_7 Mg0_7 2.950823 1_555
