# generated using pymatgen
data_Ce(CO2)3
_symmetry_space_group_name_H-M   'P 1'
_cell_length_a   6.72818100
_cell_length_b   7.25446000
_cell_length_c   10.89890400
_cell_angle_alpha   90.00000000
_cell_angle_beta   90.00000000
_cell_angle_gamma   90.00000000
_symmetry_Int_Tables_number   1
_chemical_formula_structural   Ce(CO2)3
_chemical_formula_sum   'Ce4 C12 O24'
_cell_volume   531.96809230
_cell_formula_units_Z   4
loop_
 _symmetry_equiv_pos_site_id
 _symmetry_equiv_pos_as_xyz
  1  'x, y, z'
loop_
 _atom_site_type_symbol
 _atom_site_label
 _atom_site_symmetry_multiplicity
 _atom_site_fract_x
 _atom_site_fract_y
 _atom_site_fract_z
 _atom_site_occupancy
  Ce  Ce0  1  0.37294800  0.70980300  0.25000000  1
  Ce  Ce1  1  0.12705200  0.20980300  0.25000000  1
  Ce  Ce2  1  0.62705200  0.29019700  0.75000000  1
  Ce  Ce3  1  0.87294800  0.79019700  0.75000000  1
  C  C0  1  0.86602600  0.62696300  0.25000000  1
  C  C1  1  0.63397400  0.12696300  0.25000000  1
  C  C2  1  0.13397400  0.37303700  0.75000000  1
  C  C3  1  0.36602600  0.87303700  0.75000000  1
  C  C4  1  0.04795900  0.90897400  0.47823500  1
  C  C5  1  0.45204100  0.40897400  0.02176500  1
  C  C6  1  0.95204100  0.09102600  0.97823500  1
  C  C7  1  0.54795900  0.59102600  0.52176500  1
  C  C8  1  0.95204100  0.09102600  0.52176500  1
  C  C9  1  0.54795900  0.59102600  0.97823500  1
  C  C10  1  0.04795900  0.90897400  0.02176500  1
  C  C11  1  0.45204100  0.40897400  0.47823500  1
  O  O0  1  0.03644100  0.55047800  0.25000000  1
  O  O1  1  0.46355900  0.05047800  0.25000000  1
  O  O2  1  0.96355900  0.44952200  0.75000000  1
  O  O3  1  0.53644100  0.94952200  0.75000000  1
  O  O4  1  0.70174000  0.54922500  0.25000000  1
  O  O5  1  0.79826000  0.04922500  0.25000000  1
  O  O6  1  0.29826000  0.45077500  0.75000000  1
  O  O7  1  0.20174000  0.95077500  0.75000000  1
  O  O8  1  0.14803700  0.91963400  0.37862400  1
  O  O9  1  0.35196300  0.41963400  0.12137600  1
  O  O10  1  0.85196300  0.08036600  0.87862400  1
  O  O11  1  0.64803700  0.58036600  0.62137600  1
  O  O12  1  0.85196300  0.08036600  0.62137600  1
  O  O13  1  0.64803700  0.58036600  0.87862400  1
  O  O14  1  0.14803700  0.91963400  0.12137600  1
  O  O15  1  0.35196300  0.41963400  0.37862400  1
  O  O16  1  0.02207800  0.76685600  0.54179200  1
  O  O17  1  0.47792200  0.26685600  0.95820800  1
  O  O18  1  0.97792200  0.23314400  0.04179200  1
  O  O19  1  0.52207800  0.73314400  0.45820800  1
  O  O20  1  0.97792200  0.23314400  0.45820800  1
  O  O21  1  0.52207800  0.73314400  0.04179200  1
  O  O22  1  0.02207800  0.76685600  0.95820800  1
  O  O23  1  0.47792200  0.26685600  0.54179200  1
loop_
_geom_bond_atom_site_label_1
_geom_bond_atom_site_label_2
_geom_bond_distance
_geom_bond_site_symmetry_2
Ce0 O19 2.486941 1_555
Ce0 O21 2.486941 1_555
Ce0 O4 2.500143 1_555
Ce0 O9 2.533033 1_555
Ce0 O15 2.533033 1_555
Ce0 O0 2.542041 1_555
Ce0 O1 2.545497 1_565
Ce0 O14 2.563638 1_555
Ce0 O8 2.563638 1_555
Ce1 O18 2.486941 1_455
Ce1 O20 2.486941 1_455
Ce1 O5 2.500143 1_455
Ce1 O14 2.533033 1_545
Ce1 O8 2.533033 1_545
Ce1 O1 2.542041 1_555
Ce1 O0 2.545497 1_555
Ce1 O15 2.563638 1_555
Ce1 O9 2.563638 1_555
Ce2 O17 2.486941 1_555
Ce2 O23 2.486941 1_555
Ce2 O6 2.500143 1_555
Ce2 O13 2.533033 1_555
Ce2 O11 2.533033 1_555
Ce2 O2 2.542041 1_555
Ce2 O3 2.545497 1_545
Ce2 O10 2.563638 1_555
Ce2 O12 2.563638 1_555
Ce3 O22 2.486941 1_655
Ce3 O16 2.486941 1_655
Ce3 O7 2.500143 1_655
Ce3 O12 2.533033 1_565
Ce3 O10 2.533033 1_565
Ce3 O3 2.542041 1_555
Ce3 O2 2.545497 1_555
Ce3 O13 2.563638 1_555
Ce3 O11 2.563638 1_555
C0 O4 1.240897 1_555
C0 O0 1.273781 1_655
C1 O5 1.240897 1_555
C1 O1 1.273781 1_555
C2 O6 1.240897 1_555
C2 O2 1.273781 1_455
C3 O7 1.240897 1_555
C3 O3 1.273781 1_555
C4 O16 1.254231 1_555
C4 O8 1.279847 1_555
C5 O17 1.254231 1_554
C5 O9 1.279847 1_555
C6 O18 1.254231 1_556
C6 O10 1.279847 1_555
C7 O19 1.254231 1_555
C7 O11 1.279847 1_555
C8 O20 1.254231 1_555
C8 O12 1.279847 1_555
C9 O21 1.254231 1_556
C9 O13 1.279847 1_555
C10 O22 1.254231 1_554
C10 O14 1.279847 1_555
C11 O23 1.254231 1_555
C11 O15 1.279847 1_555
