# generated using pymatgen
data_Dy3Tl5
_symmetry_space_group_name_H-M   'P 1'
_cell_length_a   6.52464027
_cell_length_b   6.52464027
_cell_length_c   10.57268600
_cell_angle_alpha   90.00000000
_cell_angle_beta   90.00000000
_cell_angle_gamma   104.46991107
_symmetry_Int_Tables_number   1
_chemical_formula_structural   Dy3Tl5
_chemical_formula_sum   'Dy6 Tl10'
_cell_volume   435.81180427
_cell_formula_units_Z   2
loop_
 _symmetry_equiv_pos_site_id
 _symmetry_equiv_pos_as_xyz
  1  'x, y, z'
loop_
 _atom_site_type_symbol
 _atom_site_label
 _atom_site_symmetry_multiplicity
 _atom_site_fract_x
 _atom_site_fract_y
 _atom_site_fract_z
 _atom_site_occupancy
  Dy  Dy0  1  0.61621400  0.61621400  0.25000000  1
  Dy  Dy1  1  0.38378600  0.38378600  0.75000000  1
  Dy  Dy2  1  0.79399700  0.20600300  0.50000000  1
  Dy  Dy3  1  0.79399700  0.20600300  0.00000000  1
  Dy  Dy4  1  0.20600300  0.79399700  0.50000000  1
  Dy  Dy5  1  0.20600300  0.79399700  0.00000000  1
  Tl  Tl0  1  0.99958500  0.99958500  0.25000000  1
  Tl  Tl1  1  0.00041500  0.00041500  0.75000000  1
  Tl  Tl2  1  0.30116900  0.30116900  0.04403200  1
  Tl  Tl3  1  0.69883100  0.69883100  0.95596800  1
  Tl  Tl4  1  0.30116900  0.30116900  0.45596800  1
  Tl  Tl5  1  0.69883100  0.69883100  0.54403200  1
  Tl  Tl6  1  0.05830700  0.51339100  0.25000000  1
  Tl  Tl7  1  0.48660900  0.94169300  0.75000000  1
  Tl  Tl8  1  0.94169300  0.48660900  0.75000000  1
  Tl  Tl9  1  0.51339100  0.05830700  0.25000000  1
loop_
_geom_bond_atom_site_label_1
_geom_bond_atom_site_label_2
_geom_bond_distance
_geom_bond_site_symmetry_2
Dy0 Tl0 3.063788 1_555
Dy0 Tl9 3.120496 1_565
Dy0 Tl6 3.120496 1_655
Dy0 Tl5 3.178049 1_555
Dy0 Tl3 3.178049 1_554
Dy0 Tl4 3.328835 1_555
Dy0 Tl2 3.328835 1_555
Dy0 Tl9 3.532746 1_555
Dy0 Tl6 3.532746 1_555
Dy1 Tl1 3.063788 1_555
Dy1 Tl7 3.120496 1_545
Dy1 Tl8 3.120496 1_455
Dy1 Tl2 3.178049 1_556
Dy1 Tl4 3.178049 1_555
Dy1 Tl3 3.328835 1_555
Dy1 Tl5 3.328835 1_555
Dy1 Tl7 3.532746 1_555
Dy1 Tl8 3.532746 1_555
Dy2 Tl8 3.222626 1_555
Dy2 Tl9 3.222626 1_555
Dy2 Tl4 3.244331 1_655
Dy2 Tl5 3.244331 1_545
Dy2 Tl0 3.391516 1_545
Dy2 Tl1 3.391516 1_655
Dy2 Tl5 3.455381 1_555
Dy2 Tl4 3.455381 1_555
Dy2 Tl6 3.500615 1_655
Dy2 Tl7 3.500615 1_545
Dy3 Tl8 3.222626 1_554
Dy3 Tl9 3.222626 1_555
Dy3 Tl2 3.244331 1_655
Dy3 Tl3 3.244331 1_544
Dy3 Tl0 3.391516 1_545
Dy3 Tl1 3.391516 1_654
Dy3 Tl2 3.455381 1_555
Dy3 Tl3 3.455381 1_554
Dy3 Tl6 3.500615 1_655
Dy3 Tl7 3.500615 1_544
Dy4 Tl7 3.222626 1_555
Dy4 Tl6 3.222626 1_555
Dy4 Tl4 3.244331 1_565
Dy4 Tl5 3.244331 1_455
Dy4 Tl0 3.391516 1_455
Dy4 Tl1 3.391516 1_565
Dy4 Tl5 3.455381 1_555
Dy4 Tl4 3.455381 1_555
Dy4 Tl9 3.500615 1_565
Dy4 Tl8 3.500615 1_455
Dy5 Tl7 3.222626 1_554
Dy5 Tl6 3.222626 1_555
Dy5 Tl2 3.244331 1_565
Dy5 Tl3 3.244331 1_454
Dy5 Tl0 3.391516 1_455
Dy5 Tl1 3.391516 1_564
Dy5 Tl3 3.455381 1_554
Dy5 Tl2 3.455381 1_555
Dy5 Tl9 3.500615 1_565
Dy5 Tl8 3.500615 1_454
Tl0 Tl4 3.248232 1_665
Tl0 Tl2 3.248232 1_665
Tl0 Tl6 3.277726 1_665
Tl0 Tl9 3.277726 1_665
Tl0 Tl6 3.288967 1_655
Tl0 Tl9 3.288967 1_565
Tl1 Tl3 3.248232 1_445
Tl1 Tl5 3.248232 1_445
Tl1 Tl7 3.277726 1_445
Tl1 Tl8 3.277726 1_445
Tl1 Tl7 3.288967 1_545
Tl1 Tl8 3.288967 1_455
Tl2 Tl6 3.204190 1_555
Tl2 Tl9 3.204190 1_555
Tl2 Tl3 3.311580 1_554
Tl3 Tl7 3.204190 1_555
Tl3 Tl8 3.204190 1_555
Tl4 Tl9 3.204190 1_555
Tl4 Tl6 3.204190 1_555
Tl4 Tl5 3.311580 1_555
Tl5 Tl7 3.204190 1_555
Tl5 Tl8 3.204190 1_555
