# generated using pymatgen
data_Ge2BiO6
_symmetry_space_group_name_H-M   'P 1'
_cell_length_a   9.63533700
_cell_length_b   5.70597600
_cell_length_c   10.70369791
_cell_angle_alpha   76.62489597
_cell_angle_beta   90.00000000
_cell_angle_gamma   90.00000000
_symmetry_Int_Tables_number   1
_chemical_formula_structural   Ge2BiO6
_chemical_formula_sum   'Ge8 Bi4 O24'
_cell_volume   572.51701654
_cell_formula_units_Z   4
loop_
 _symmetry_equiv_pos_site_id
 _symmetry_equiv_pos_as_xyz
  1  'x, y, z'
loop_
 _atom_site_type_symbol
 _atom_site_label
 _atom_site_symmetry_multiplicity
 _atom_site_fract_x
 _atom_site_fract_y
 _atom_site_fract_z
 _atom_site_occupancy
  Ge  Ge0  1  0.67772800  0.76946000  0.04775100  1
  Ge  Ge1  1  0.17772800  0.73054000  0.95224900  1
  Ge  Ge2  1  0.32227200  0.23054000  0.95224900  1
  Ge  Ge3  1  0.82227200  0.26946000  0.04775100  1
  Ge  Ge4  1  0.66775000  0.65634500  0.47494700  1
  Ge  Ge5  1  0.16775000  0.84365500  0.52505300  1
  Ge  Ge6  1  0.33225000  0.34365500  0.52505300  1
  Ge  Ge7  1  0.83225000  0.15634500  0.47494700  1
  Bi  Bi0  1  0.37615100  0.76295000  0.23958900  1
  Bi  Bi1  1  0.87615100  0.73705000  0.76041100  1
  Bi  Bi2  1  0.62384900  0.23705000  0.76041100  1
  Bi  Bi3  1  0.12384900  0.26295000  0.23958900  1
  O  O0  1  0.74913200  0.93714900  0.40913200  1
  O  O1  1  0.24913200  0.56285100  0.59086800  1
  O  O2  1  0.25086800  0.06285100  0.59086800  1
  O  O3  1  0.75086800  0.43714900  0.40913200  1
  O  O4  1  0.69405300  0.04349700  0.10028500  1
  O  O5  1  0.19405300  0.45650300  0.89971500  1
  O  O6  1  0.30594700  0.95650300  0.89971500  1
  O  O7  1  0.80594700  0.54349700  0.10028500  1
  O  O8  1  0.00625600  0.20504900  0.42072900  1
  O  O9  1  0.50625600  0.29495100  0.57927100  1
  O  O10  1  0.99374400  0.79495100  0.57927100  1
  O  O11  1  0.49374400  0.70504900  0.42072900  1
  O  O12  1  0.98221600  0.14829500  0.10779500  1
  O  O13  1  0.48221600  0.35170500  0.89220500  1
  O  O14  1  0.01778400  0.85170500  0.89220500  1
  O  O15  1  0.51778400  0.64829500  0.10779500  1
  O  O16  1  0.69476000  0.85622100  0.87459200  1
  O  O17  1  0.19476000  0.64377900  0.12540800  1
  O  O18  1  0.30524000  0.14377900  0.12540800  1
  O  O19  1  0.80524000  0.35622100  0.87459200  1
  O  O20  1  0.69499900  0.59661300  0.64837500  1
  O  O21  1  0.19499900  0.90338700  0.35162500  1
  O  O22  1  0.30500100  0.40338700  0.35162500  1
  O  O23  1  0.80500100  0.09661300  0.64837500  1
loop_
_geom_bond_atom_site_label_1
_geom_bond_atom_site_label_2
_geom_bond_distance
_geom_bond_site_symmetry_2
Ge0 O15 1.749429 1_555
Ge0 O7 1.780297 1_555
Ge0 O4 1.786817 1_565
Ge0 O16 1.811836 1_554
Ge1 O14 1.749429 1_555
Ge1 O6 1.780297 1_555
Ge1 O5 1.786817 1_555
Ge1 O17 1.811836 1_556
Ge2 O13 1.749429 1_555
Ge2 O5 1.780297 1_555
Ge2 O6 1.786817 1_545
Ge2 O18 1.811836 1_556
Ge3 O12 1.749429 1_555
Ge3 O4 1.780297 1_555
Ge3 O7 1.786817 1_555
Ge3 O19 1.811836 1_554
Ge4 O3 1.763411 1_555
Ge4 O11 1.774940 1_555
Ge4 O0 1.776564 1_555
Ge4 O20 1.827105 1_555
Ge5 O2 1.763411 1_565
Ge5 O10 1.774940 1_455
Ge5 O1 1.776564 1_555
Ge5 O21 1.827105 1_555
Ge6 O1 1.763411 1_555
Ge6 O9 1.774940 1_555
Ge6 O2 1.776564 1_555
Ge6 O22 1.827105 1_555
Ge7 O0 1.763411 1_545
Ge7 O8 1.774940 1_655
Ge7 O3 1.776564 1_555
Ge7 O23 1.827105 1_555
Bi0 O15 2.169646 1_555
Bi0 O11 2.203588 1_555
Bi0 O22 2.231386 1_555
Bi0 O17 2.322761 1_555
Bi0 O18 2.335327 1_565
Bi0 O21 2.360387 1_555
Bi1 O14 2.169646 1_655
Bi1 O10 2.203588 1_555
Bi1 O23 2.231386 1_565
Bi1 O16 2.322761 1_555
Bi1 O19 2.335327 1_555
Bi1 O20 2.360387 1_555
Bi2 O13 2.169646 1_555
Bi2 O9 2.203588 1_555
Bi2 O20 2.231386 1_555
Bi2 O19 2.322761 1_555
Bi2 O16 2.335327 1_545
Bi2 O23 2.360387 1_555
Bi3 O12 2.169646 1_455
Bi3 O8 2.203588 1_555
Bi3 O21 2.231386 1_545
Bi3 O18 2.322761 1_555
Bi3 O17 2.335327 1_555
Bi3 O22 2.360387 1_555
