# generated using pymatgen
data_K5Na3Ta3Nb5O20
_symmetry_space_group_name_H-M   'P 1'
_cell_length_a   11.49884377
_cell_length_b   11.51270888
_cell_length_c   17.80944152
_cell_angle_alpha   108.99397145
_cell_angle_beta   108.70007160
_cell_angle_gamma   90.27117420
_symmetry_Int_Tables_number   1
_chemical_formula_structural   K5Na3Ta3Nb5O20
_chemical_formula_sum   'K20 Na12 Ta12 Nb20 O80'
_cell_volume   2095.89150320
_cell_formula_units_Z   4
loop_
 _symmetry_equiv_pos_site_id
 _symmetry_equiv_pos_as_xyz
  1  'x, y, z'
loop_
 _atom_site_type_symbol
 _atom_site_label
 _atom_site_symmetry_multiplicity
 _atom_site_fract_x
 _atom_site_fract_y
 _atom_site_fract_z
 _atom_site_occupancy
  K  K0  1  0.30647100  0.05765400  0.12295700  1
  K  K1  1  0.30850600  0.55700300  0.12066700  1
  K  K2  1  0.79779200  0.06093500  0.11192200  1
  K  K3  1  0.80998200  0.56041000  0.12304700  1
  K  K4  1  0.81327500  0.57084200  0.62576000  1
  K  K5  1  0.20034200  0.93874700  0.38697700  1
  K  K6  1  0.19016100  0.92712000  0.87670900  1
  K  K7  1  0.69367600  0.44526100  0.38446300  1
  K  K8  1  0.68346600  0.42710600  0.87783500  1
  K  K9  1  0.69394800  0.93885600  0.37843700  1
  K  K10  1  0.68748500  0.92058900  0.87390000  1
  K  K11  1  0.05587500  0.30655900  0.12246100  1
  K  K12  1  0.06247500  0.80034700  0.11686100  1
  K  K13  1  0.55663800  0.31209900  0.12080400  1
  K  K14  1  0.56171300  0.81040900  0.12315700  1
  K  K15  1  0.43666600  0.18648600  0.38002500  1
  K  K16  1  0.44494200  0.68938400  0.38390600  1
  K  K17  1  0.44393500  0.70367400  0.88963000  1
  K  K18  1  0.94299400  0.69093300  0.38134600  1
  K  K19  1  0.93335100  0.69066600  0.87292700  1
  Na  Na0  1  0.29700800  0.07762100  0.60514300  1
  Na  Na1  1  0.30236900  0.56647200  0.60227400  1
  Na  Na2  1  0.80106000  0.06381900  0.59888600  1
  Na  Na3  1  0.20035600  0.44185900  0.39126800  1
  Na  Na4  1  0.19610100  0.42761600  0.89429000  1
  Na  Na5  1  0.05011300  0.28133500  0.60599500  1
  Na  Na6  1  0.05765600  0.79373900  0.60969100  1
  Na  Na7  1  0.54993500  0.29286500  0.60554300  1
  Na  Na8  1  0.55770400  0.79213400  0.61001900  1
  Na  Na9  1  0.44086400  0.21116700  0.89526300  1
  Na  Na10  1  0.95156200  0.21114200  0.40135000  1
  Na  Na11  1  0.94598900  0.21115400  0.89870600  1
  Ta  Ta0  1  0.99848800  0.99711100  0.99969400  1
  Ta  Ta1  1  0.99820500  0.49618600  0.99865400  1
  Ta  Ta2  1  0.49799400  0.00008100  0.99951900  1
  Ta  Ta3  1  0.50509700  0.00187400  0.50486400  1
  Ta  Ta4  1  0.49719100  0.49920100  0.99847600  1
  Ta  Ta5  1  0.50539900  0.50118700  0.50409600  1
  Ta  Ta6  1  0.24723600  0.24658300  0.99886800  1
  Ta  Ta7  1  0.24801600  0.74524100  0.99752100  1
  Ta  Ta8  1  0.25588400  0.75284400  0.50449500  1
  Ta  Ta9  1  0.74582300  0.24635900  0.99781600  1
  Ta  Ta10  1  0.75480700  0.25026500  0.50166600  1
  Ta  Ta11  1  0.74988100  0.74721900  0.00049700  1
  Nb  Nb0  1  0.00365000  0.00060900  0.50191300  1
  Nb  Nb1  1  0.00694700  0.50276900  0.50553200  1
  Nb  Nb2  1  0.25232600  0.25462400  0.50343000  1
  Nb  Nb3  1  0.75849700  0.75301500  0.50441800  1
  Nb  Nb4  1  0.10754100  0.09812700  0.25426000  1
  Nb  Nb5  1  0.08506700  0.08910300  0.74721500  1
  Nb  Nb6  1  0.12441600  0.61067400  0.25316500  1
  Nb  Nb7  1  0.14319400  0.56407400  0.74964500  1
  Nb  Nb8  1  0.62264500  0.11346000  0.25160000  1
  Nb  Nb9  1  0.58204000  0.08554000  0.74646300  1
  Nb  Nb10  1  0.62156800  0.61471500  0.25245400  1
  Nb  Nb11  1  0.58993100  0.57961900  0.74660200  1
  Nb  Nb12  1  0.37231000  0.38556700  0.25317700  1
  Nb  Nb13  1  0.34640400  0.42392000  0.74760400  1
  Nb  Nb14  1  0.37145600  0.88128700  0.25117300  1
  Nb  Nb15  1  0.37161200  0.92777700  0.74574100  1
  Nb  Nb16  1  0.86917900  0.38430700  0.25386800  1
  Nb  Nb17  1  0.86757900  0.38634000  0.74753800  1
  Nb  Nb18  1  0.89570900  0.92105400  0.25339800  1
  Nb  Nb19  1  0.87506600  0.93814100  0.74845400  1
  O  O0  1  0.12727000  0.12967700  0.50313100  1
  O  O1  1  0.11728700  0.11832600  0.99263200  1
  O  O2  1  0.13368400  0.62899600  0.50410400  1
  O  O3  1  0.11822100  0.61256600  0.98603100  1
  O  O4  1  0.62775300  0.12570500  0.50249200  1
  O  O5  1  0.61485800  0.11897600  0.98827400  1
  O  O6  1  0.62750700  0.62763600  0.50647100  1
  O  O7  1  0.62473800  0.62314700  0.99923100  1
  O  O8  1  0.12209500  0.36884800  0.99670900  1
  O  O9  1  0.13315200  0.38012800  0.50861700  1
  O  O10  1  0.12006700  0.86946400  0.99493300  1
  O  O11  1  0.14175600  0.88212900  0.51797000  1
  O  O12  1  0.61805300  0.36927500  0.99473800  1
  O  O13  1  0.63323700  0.37932800  0.51420800  1
  O  O14  1  0.62366500  0.87412400  0.99905700  1
  O  O15  1  0.63706400  0.88919100  0.52087200  1
  O  O16  1  0.38014500  0.12441900  0.50373200  1
  O  O17  1  0.36833600  0.11934100  0.98781700  1
  O  O18  1  0.37727700  0.62210700  0.50079700  1
  O  O19  1  0.36818800  0.61804500  0.99255700  1
  O  O20  1  0.87403300  0.12465100  0.49435300  1
  O  O21  1  0.86801400  0.11736700  0.98754500  1
  O  O22  1  0.88128100  0.62866900  0.50414000  1
  O  O23  1  0.87104700  0.61789900  0.99220500  1
  O  O24  1  0.36869800  0.36966500  0.99353300  1
  O  O25  1  0.38150900  0.38053200  0.50928300  1
  O  O26  1  0.37212600  0.87460300  0.99816800  1
  O  O27  1  0.38842700  0.88132100  0.51637800  1
  O  O28  1  0.87119400  0.36942800  0.99718900  1
  O  O29  1  0.88544300  0.37756500  0.51538900  1
  O  O30  1  0.86946700  0.86843900  0.99024900  1
  O  O31  1  0.88366400  0.88080700  0.50813000  1
  O  O32  1  0.05176500  0.05682900  0.12153200  1
  O  O33  1  0.06140800  0.09338800  0.63715700  1
  O  O34  1  0.06231300  0.56148600  0.12177900  1
  O  O35  1  0.09119200  0.59002500  0.64368400  1
  O  O36  1  0.55708700  0.06816800  0.12037100  1
  O  O37  1  0.56399600  0.09980800  0.63958200  1
  O  O38  1  0.55635400  0.56326000  0.12147300  1
  O  O39  1  0.56270700  0.57978500  0.63413000  1
  O  O40  1  0.44329000  0.42899400  0.37886000  1
  O  O41  1  0.43051700  0.43396900  0.86480400  1
  O  O42  1  0.44274300  0.92906100  0.38140900  1
  O  O43  1  0.43417800  0.91955800  0.85651700  1
  O  O44  1  0.93791900  0.42609900  0.37796900  1
  O  O45  1  0.93293500  0.40337200  0.86593900  1
  O  O46  1  0.94914400  0.93289100  0.37214500  1
  O  O47  1  0.93701100  0.91993500  0.85636100  1
  O  O48  1  0.30790400  0.30382200  0.12131400  1
  O  O49  1  0.31940600  0.30652800  0.63702800  1
  O  O50  1  0.30698400  0.80099800  0.11990400  1
  O  O51  1  0.34022100  0.79720100  0.64118700  1
  O  O52  1  0.80472000  0.30117900  0.11980100  1
  O  O53  1  0.82608100  0.28090700  0.63190000  1
  O  O54  1  0.82225700  0.81649200  0.12461500  1
  O  O55  1  0.84902200  0.80925500  0.64596300  1
  O  O56  1  0.18896700  0.19245600  0.37444600  1
  O  O57  1  0.17484200  0.18814700  0.86299600  1
  O  O58  1  0.19257200  0.69797600  0.38116500  1
  O  O59  1  0.19419300  0.68709100  0.86184700  1
  O  O60  1  0.68926900  0.19951100  0.37763000  1
  O  O61  1  0.67324600  0.18492800  0.86136100  1
  O  O62  1  0.68693800  0.69575000  0.37829000  1
  O  O63  1  0.67197900  0.67644400  0.86624700  1
  O  O64  1  0.49175200  0.00266300  0.25091500  1
  O  O65  1  0.40894100  0.09972100  0.74788600  1
  O  O66  1  0.49437500  0.49744000  0.25010200  1
  O  O67  1  0.41574300  0.57749700  0.73781500  1
  O  O68  1  0.94454000  0.09931200  0.26425500  1
  O  O69  1  0.91119500  0.11010200  0.74799900  1
  O  O70  1  0.99306300  0.49916900  0.25176700  1
  O  O71  1  0.97442600  0.51419700  0.74818000  1
  O  O72  1  0.23431000  0.47772700  0.25605600  1
  O  O73  1  0.17203500  0.39088800  0.74941100  1
  O  O74  1  0.23818700  0.98566200  0.24939400  1
  O  O75  1  0.19713600  0.95465400  0.73580100  1
  O  O76  1  0.74437400  0.49559300  0.25084300  1
  O  O77  1  0.71854200  0.46334200  0.74035200  1
  O  O78  1  0.73691800  0.99184100  0.24656000  1
  O  O79  1  0.69848000  0.95762800  0.73628900  1
loop_
_geom_bond_atom_site_label_1
_geom_bond_atom_site_label_2
_geom_bond_distance
_geom_bond_site_symmetry_2
K0 O64 2.823430 1_555
K0 O26 2.827108 1_544
K0 O48 2.843743 1_555
K0 O10 2.844936 1_544
K0 O36 2.899473 1_555
K0 O1 2.905068 1_554
K0 O32 2.920730 1_555
K0 O50 2.937628 1_545
K0 O74 2.952351 1_545
K0 O17 3.001440 1_554
K1 O50 2.813605 1_555
K1 O8 2.823016 1_554
K1 O34 2.837942 1_555
K1 O24 2.845614 1_554
K1 O38 2.845848 1_555
K1 O19 2.865930 1_554
K1 O66 2.869775 1_555
K1 O48 2.918554 1_555
K1 O3 2.931494 1_554
K1 O72 3.181039 1_555
K2 O68 2.584571 1_555
K2 O14 2.690610 1_544
K2 O52 2.722889 1_555
K2 O5 2.778748 1_554
K2 O36 2.819847 1_555
K2 O21 2.838912 1_554
K2 O32 2.871639 1_655
K2 O30 2.884909 1_544
K2 O54 2.903582 1_545
K2 O78 3.030656 1_545
K3 O7 2.821493 1_554
K3 O70 2.855839 1_555
K3 O28 2.858708 1_554
K3 O12 2.895102 1_554
K3 O23 2.899958 1_554
K3 O38 2.908006 1_555
K3 O34 2.908833 1_655
K3 O76 2.916722 1_555
K3 O54 2.941516 1_555
K3 O52 2.966091 1_555
K4 O71 2.637958 1_555
K4 O55 2.661553 1_555
K4 O6 2.740686 1_555
K4 O13 2.749958 1_555
K4 O29 2.778492 1_555
K4 O22 2.786760 1_555
K4 O39 2.933019 1_555
K4 O35 3.107510 1_655
K4 O77 3.152795 1_555
K5 O16 2.734192 1_565
K5 O58 2.739933 1_555
K5 O46 2.813359 1_455
K5 O42 2.822138 1_555
K5 O0 2.826510 1_565
K5 O74 2.833364 1_555
K5 O27 2.869653 1_555
K5 O11 2.883513 1_555
K5 O56 3.001276 1_565
K6 O75 2.655391 1_555
K6 O59 2.690998 1_555
K6 O26 2.717309 1_555
K6 O10 2.741577 1_555
K6 O17 2.741799 1_565
K6 O47 2.813091 1_455
K6 O1 2.824656 1_565
K6 O43 2.939217 1_555
K6 O57 3.094612 1_565
K7 O22 2.781018 1_555
K7 O60 2.791522 1_555
K7 O6 2.795413 1_555
K7 O76 2.850010 1_555
K7 O40 2.851848 1_555
K7 O44 2.854351 1_555
K7 O62 2.921893 1_555
K7 O13 2.926587 1_555
K7 O66 2.961614 1_555
K7 O29 2.967994 1_555
K8 O12 2.691729 1_555
K8 O61 2.704781 1_555
K8 O28 2.758460 1_555
K8 O77 2.761956 1_555
K8 O23 2.802095 1_555
K8 O7 2.828160 1_555
K8 O41 2.846304 1_555
K8 O63 2.944803 1_555
K8 O45 2.950912 1_555
K9 O20 2.732705 1_565
K9 O78 2.793974 1_555
K9 O62 2.798713 1_555
K9 O4 2.843973 1_565
K9 O31 2.885865 1_555
K9 O42 2.908295 1_555
K9 O64 2.969757 1_565
K9 O46 2.972553 1_555
K9 O60 3.006207 1_565
K9 O15 3.032180 1_555
K10 O30 2.659757 1_555
K10 O79 2.661308 1_555
K10 O14 2.759414 1_555
K10 O63 2.771480 1_555
K10 O21 2.795465 1_565
K10 O43 2.828266 1_555
K10 O5 2.853693 1_565
K10 O47 2.983898 1_555
K10 O61 3.124379 1_565
K11 O72 2.744714 1_555
K11 O28 2.835267 1_454
K11 O32 2.869804 1_555
K11 O8 2.871152 1_554
K11 O52 2.873195 1_455
K11 O1 2.888062 1_554
K11 O21 2.899038 1_454
K11 O48 2.904903 1_555
K11 O70 2.915422 1_455
K11 O34 2.939556 1_555
K12 O34 2.779689 1_555
K12 O50 2.794594 1_555
K12 O74 2.797946 1_555
K12 O10 2.798015 1_554
K12 O54 2.813588 1_455
K12 O23 2.823680 1_454
K12 O3 2.864519 1_554
K12 O30 2.929638 1_454
K12 O32 2.931083 1_565
K13 O36 2.805840 1_555
K13 O12 2.819057 1_554
K13 O76 2.837738 1_555
K13 O24 2.845617 1_554
K13 O52 2.861534 1_555
K13 O48 2.864312 1_555
K13 O66 2.870779 1_555
K13 O38 2.887709 1_555
K13 O17 2.909867 1_554
K13 O5 2.928110 1_554
K14 O78 2.717480 1_555
K14 O7 2.826185 1_554
K14 O14 2.826707 1_554
K14 O38 2.835903 1_555
K14 O26 2.868475 1_554
K14 O50 2.911830 1_555
K14 O19 2.923680 1_554
K14 O64 2.938629 1_565
K14 O36 2.984463 1_565
K14 O54 2.988021 1_555
K15 O16 2.779462 1_555
K15 O40 2.799603 1_555
K15 O64 2.818891 1_555
K15 O56 2.819923 1_555
K15 O4 2.830149 1_555
K15 O25 2.879986 1_555
K15 O60 2.922454 1_555
K15 O13 2.963816 1_555
K15 O42 2.972738 1_545
K15 O74 3.001795 1_545
K16 O18 2.760716 1_555
K16 O42 2.774228 1_555
K16 O6 2.786201 1_555
K16 O62 2.817793 1_555
K16 O66 2.887484 1_555
K16 O58 2.889391 1_555
K16 O27 2.911086 1_555
K16 O40 2.969547 1_555
K16 O15 2.994328 1_555
K16 O72 3.128044 1_555
K17 O67 2.530293 1_555
K17 O14 2.609511 1_555
K17 O26 2.617927 1_555
K17 O19 2.698631 1_555
K17 O43 2.729820 1_555
K17 O59 2.747793 1_555
K17 O7 2.754247 1_555
K17 O63 2.787629 1_555
K17 O41 2.986405 1_555
K18 O22 2.794751 1_555
K18 O2 2.837566 1_655
K18 O70 2.842307 1_555
K18 O46 2.845008 1_555
K18 O31 2.851527 1_555
K18 O58 2.871685 1_655
K18 O62 2.928477 1_555
K18 O76 2.969986 1_555
K18 O11 2.981504 1_655
K18 O44 3.029829 1_555
K19 O71 2.651474 1_555
K19 O30 2.703509 1_555
K19 O47 2.751297 1_555
K19 O10 2.761066 1_655
K19 O3 2.799325 1_655
K19 O23 2.802896 1_555
K19 O63 2.971066 1_555
K19 O59 3.067951 1_655
K19 O45 3.269068 1_555
K19 O77 3.271400 1_555
Na0 O65 2.379444 1_555
Na0 O0 2.432154 1_555
Na0 O16 2.490326 1_555
Na0 O49 2.501895 1_555
Na0 O11 2.563780 1_545
Na0 O27 2.733866 1_545
Na0 O37 2.924010 1_555
Na0 O33 2.936857 1_555
Na1 O67 2.307316 1_555
Na1 O2 2.448490 1_555
Na1 O18 2.482901 1_555
Na1 O51 2.514573 1_555
Na1 O9 2.592444 1_555
Na1 O25 2.613516 1_555
Na1 O35 2.745617 1_555
Na1 O39 2.856034 1_555
Na2 O53 2.367069 1_555
Na2 O69 2.419926 1_555
Na2 O15 2.448303 1_545
Na2 O4 2.458052 1_555
Na2 O20 2.550535 1_555
Na2 O31 2.596267 1_545
Na2 O33 2.841409 1_655
Na3 O18 2.651504 1_555
Na3 O72 2.714826 1_555
Na3 O25 2.725358 1_555
Na3 O2 2.730020 1_555
Na3 O9 2.732627 1_555
Na3 O56 2.786149 1_555
Na3 O40 2.872739 1_555
Na3 O44 2.950287 1_455
Na4 O73 2.396609 1_555
Na4 O24 2.457386 1_555
Na4 O8 2.510417 1_555
Na4 O3 2.587853 1_555
Na4 O57 2.622433 1_555
Na4 O19 2.650596 1_555
Na4 O45 2.900116 1_455
Na4 O41 2.911647 1_555
Na5 O73 2.381209 1_555
Na5 O33 2.396858 1_555
Na5 O0 2.483243 1_555
Na5 O20 2.521118 1_455
Na5 O29 2.576995 1_455
Na5 O9 2.747455 1_555
Na5 O53 2.759106 1_455
Na5 O49 2.961081 1_555
Na6 O75 2.449960 1_555
Na6 O22 2.540057 1_455
Na6 O2 2.577956 1_555
Na6 O11 2.593201 1_555
Na6 O35 2.607437 1_555
Na6 O55 2.669706 1_455
Na6 O31 2.675423 1_455
Na7 O37 2.480170 1_555
Na7 O16 2.503111 1_555
Na7 O13 2.568729 1_555
Na7 O4 2.577363 1_555
Na7 O25 2.593113 1_555
Na7 O77 2.699448 1_555
Na7 O49 2.875003 1_555
Na8 O79 2.480957 1_555
Na8 O6 2.514317 1_555
Na8 O15 2.583818 1_555
Na8 O27 2.583863 1_555
Na8 O18 2.610566 1_555
Na8 O39 2.614027 1_555
Na8 O51 2.726897 1_555
Na9 O65 2.419844 1_555
Na9 O24 2.438864 1_555
Na9 O12 2.480800 1_555
Na9 O17 2.556871 1_555
Na9 O5 2.629207 1_555
Na9 O41 2.784809 1_555
Na9 O61 2.918818 1_555
Na9 O57 2.919525 1_555
Na10 O68 2.334916 1_555
Na10 O20 2.557680 1_555
Na10 O9 2.603632 1_655
Na10 O29 2.616257 1_555
Na10 O44 2.637214 1_555
Na10 O0 2.650226 1_655
Na10 O60 2.904377 1_555
Na10 O56 2.916388 1_655
Na11 O69 2.447830 1_555
Na11 O28 2.457232 1_555
Na11 O45 2.459231 1_555
Na11 O8 2.465607 1_655
Na11 O21 2.546676 1_555
Na11 O1 2.625058 1_655
Na11 O57 2.893053 1_655
Na11 O61 2.981985 1_555
Nb0 O31 1.999375 1_445
Nb0 O0 2.041645 1_555
Nb0 O46 2.058035 1_445
Nb0 O20 2.072568 1_455
Nb0 O11 2.108906 1_545
Nb0 O33 2.162474 1_555
Nb1 O44 2.025364 1_455
Nb1 O9 2.030110 1_555
Nb1 O22 2.051787 1_455
Nb1 O2 2.064961 1_555
Nb1 O29 2.088905 1_455
Nb1 O35 2.203350 1_555
Nb2 O9 1.996790 1_555
Nb2 O25 2.024991 1_555
Nb2 O0 2.026725 1_555
Nb2 O56 2.042442 1_555
Nb2 O16 2.104359 1_555
Nb2 O49 2.122845 1_555
Nb3 O62 2.000781 1_555
Nb3 O22 2.015385 1_555
Nb3 O31 2.023868 1_555
Nb3 O6 2.098265 1_555
Nb3 O15 2.116020 1_555
Nb3 O55 2.259638 1_555
Nb4 O68 1.938442 1_455
Nb4 O56 1.956967 1_555
Nb4 O74 1.992398 1_545
Nb4 O32 2.125654 1_555
Nb5 O33 1.907739 1_555
Nb5 O57 1.926427 1_555
Nb5 O69 2.018967 1_455
Nb5 O75 2.019882 1_545
Nb6 O70 1.966374 1_455
Nb6 O72 1.992494 1_555
Nb6 O58 2.043658 1_555
Nb6 O34 2.089975 1_555
Nb7 O35 1.911311 1_555
Nb7 O59 1.934232 1_555
Nb7 O71 2.010898 1_455
Nb7 O73 2.021667 1_555
Nb8 O78 1.925193 1_545
Nb8 O64 1.962789 1_555
Nb8 O60 2.012218 1_555
Nb8 O36 2.091785 1_555
Nb9 O37 1.908904 1_555
Nb9 O61 1.919585 1_555
Nb9 O79 1.998670 1_545
Nb9 O65 2.005460 1_555
Nb10 O66 1.966976 1_555
Nb10 O76 1.973426 1_555
Nb10 O62 2.002495 1_555
Nb10 O38 2.080709 1_555
Nb11 O39 1.926313 1_555
Nb11 O63 1.956498 1_555
Nb11 O67 1.957804 1_555
Nb11 O77 2.004692 1_555
Nb12 O72 1.918107 1_555
Nb12 O66 1.926148 1_555
Nb12 O40 2.005623 1_555
Nb12 O48 2.094924 1_555
Nb13 O49 1.916401 1_555
Nb13 O41 1.962851 1_555
Nb13 O67 2.017096 1_555
Nb13 O73 2.051334 1_555
Nb14 O74 1.950485 1_555
Nb14 O64 1.963679 1_565
Nb14 O42 2.073735 1_555
Nb14 O50 2.084459 1_555
Nb15 O51 1.897145 1_555
Nb15 O43 1.905452 1_555
Nb15 O75 1.991483 1_555
Nb15 O65 2.009106 1_565
Nb16 O76 1.927872 1_555
Nb16 O70 1.956500 1_555
Nb16 O44 1.981187 1_555
Nb16 O52 2.130082 1_555
Nb17 O71 1.907688 1_555
Nb17 O53 1.918212 1_555
Nb17 O77 1.920106 1_555
Nb17 O45 1.939837 1_555
Nb18 O46 1.961362 1_555
Nb18 O78 1.987218 1_555
Nb18 O68 2.055602 1_565
Nb18 O54 2.091380 1_555
Nb19 O55 1.872278 1_555
Nb19 O47 1.905343 1_555
Nb19 O79 1.993541 1_555
Nb19 O69 2.024063 1_565
O1 Ta0 2.008916 1_445
O1 Ta6 2.047295 1_555
O2 Ta8 1.993940 1_555
O3 Ta1 2.031690 1_455
O3 Ta7 2.044904 1_555
O4 Ta3 2.020350 1_555
O4 Ta10 2.049089 1_555
O5 Ta2 2.013238 1_555
O5 Ta9 2.024898 1_555
O6 Ta5 1.998760 1_555
O7 Ta11 2.012547 1_556
O7 Ta4 2.035307 1_555
O8 Ta6 2.018019 1_555
O8 Ta1 2.048948 1_455
O10 Ta0 2.033619 1_455
O10 Ta7 2.057036 1_555
O11 Ta8 1.995783 1_555
O12 Ta9 2.045141 1_555
O12 Ta4 2.046339 1_555
O13 Ta5 2.043461 1_555
O13 Ta10 2.053215 1_555
O14 Ta2 2.052023 1_565
O14 Ta11 2.064513 1_556
O15 Ta3 2.012191 1_565
O16 Ta3 2.018506 1_555
O17 Ta6 2.032517 1_555
O17 Ta2 2.039071 1_555
O18 Ta5 2.032012 1_555
O18 Ta8 2.057320 1_555
O19 Ta7 2.018637 1_555
O19 Ta4 2.023953 1_555
O20 Ta10 1.999632 1_555
O21 Ta9 2.054443 1_555
O21 Ta0 2.054502 1_545
O23 Ta1 2.032509 1_555
O23 Ta11 2.046474 1_556
O24 Ta6 2.030180 1_555
O24 Ta4 2.055506 1_555
O25 Ta5 2.028961 1_555
O26 Ta2 2.029153 1_565
O26 Ta7 2.052562 1_555
O27 Ta3 2.027840 1_565
O27 Ta8 2.030643 1_555
O28 Ta9 2.021675 1_555
O28 Ta1 2.047908 1_555
O29 Ta10 1.993667 1_555
O30 Ta0 2.020087 1_555
O30 Ta11 2.044601 1_556
O32 Ta0 1.931023 1_444
O34 Ta1 1.949892 1_454
O36 Ta2 1.915084 1_554
O37 Ta3 2.162470 1_555
O38 Ta4 1.947599 1_554
O39 Ta5 2.065879 1_555
O40 Ta5 1.985383 1_555
O41 Ta4 2.116503 1_555
O42 Ta3 1.958223 1_565
O43 Ta2 2.267675 1_565
O45 Ta1 2.121909 1_555
O47 Ta0 2.272865 1_555
O48 Ta6 1.939353 1_554
O50 Ta7 1.939034 1_554
O51 Ta8 2.190854 1_555
O52 Ta9 1.933048 1_554
O53 Ta10 2.102730 1_555
O54 Ta11 1.970127 1_555
O57 Ta6 2.155080 1_555
O58 Ta8 1.954616 1_555
O59 Ta7 2.157271 1_555
O60 Ta10 1.969071 1_555
O61 Ta9 2.162781 1_555
O63 Ta11 2.129426 1_556
