# generated using pymatgen
data_TmRu3
_symmetry_space_group_name_H-M   'P 1'
_cell_length_a   4.96275105
_cell_length_b   4.96275105
_cell_length_c   4.96275105
_cell_angle_alpha   132.67142391
_cell_angle_beta   132.67142391
_cell_angle_gamma   69.17063073
_symmetry_Int_Tables_number   1
_chemical_formula_structural   TmRu3
_chemical_formula_sum   'Tm1 Ru3'
_cell_volume   64.84566163
_cell_formula_units_Z   1
loop_
 _symmetry_equiv_pos_site_id
 _symmetry_equiv_pos_as_xyz
  1  'x, y, z'
loop_
 _atom_site_type_symbol
 _atom_site_label
 _atom_site_symmetry_multiplicity
 _atom_site_fract_x
 _atom_site_fract_y
 _atom_site_fract_z
 _atom_site_occupancy
  Tm  Tm0  1  0.00000000  0.00000000  0.00000000  1
  Ru  Ru0  1  0.75000000  0.25000000  0.50000000  1
  Ru  Ru1  1  0.25000000  0.75000000  0.50000000  1
  Ru  Ru2  1  0.50000000  0.50000000  0.00000000  1
loop_
_geom_bond_atom_site_label_1
_geom_bond_atom_site_label_2
_geom_bond_distance
_geom_bond_site_symmetry_2
Ru0 Tm0 2.853266 1_555
Ru0 Tm0 2.853266 1_655
Ru0 Tm0 2.853266 1_666
Ru0 Tm0 2.853266 1_656
Ru1 Tm0 2.853266 1_565
Ru1 Tm0 2.853266 1_555
Ru1 Tm0 2.853266 1_566
Ru1 Tm0 2.853266 1_666
Ru2 Tm0 2.817020 1_666
Ru2 Tm0 2.817020 1_565
Ru2 Tm0 2.817020 1_655
Ru2 Tm0 2.817020 1_554
