# generated using pymatgen
data_LaY3Sc4O12
_symmetry_space_group_name_H-M   'P 1'
_cell_length_a   8.02972100
_cell_length_b   5.52989600
_cell_length_c   5.79023427
_cell_angle_alpha   89.98259427
_cell_angle_beta   90.00000000
_cell_angle_gamma   90.00000000
_symmetry_Int_Tables_number   1
_chemical_formula_structural   LaY3Sc4O12
_chemical_formula_sum   'La1 Y3 Sc4 O12'
_cell_volume   257.10678303
_cell_formula_units_Z   1
loop_
 _symmetry_equiv_pos_site_id
 _symmetry_equiv_pos_as_xyz
  1  'x, y, z'
loop_
 _atom_site_type_symbol
 _atom_site_label
 _atom_site_symmetry_multiplicity
 _atom_site_fract_x
 _atom_site_fract_y
 _atom_site_fract_z
 _atom_site_occupancy
  La  La0  1  0.50000000  0.51448700  0.44687400  1
  Y  Y0  1  0.50000000  0.97895400  0.94013400  1
  Y  Y1  1  0.00000000  0.48137000  0.56294900  1
  Y  Y2  1  0.00000000  0.01554300  0.05928200  1
  Sc  Sc0  1  0.24656800  0.50077900  0.00111300  1
  Sc  Sc1  1  0.75422700  0.99935100  0.50090700  1
  Sc  Sc2  1  0.75343200  0.50077900  0.00111300  1
  Sc  Sc3  1  0.24577300  0.99935100  0.50090700  1
  O  O0  1  0.50000000  0.37254700  0.03876400  1
  O  O1  1  0.50000000  0.10305600  0.55415200  1
  O  O2  1  0.00000000  0.62851300  0.94425700  1
  O  O3  1  0.00000000  0.86882200  0.44100200  1
  O  O4  1  0.18002800  0.19678600  0.80337800  1
  O  O5  1  0.81809200  0.30898300  0.30769200  1
  O  O6  1  0.68831900  0.81319500  0.19055100  1
  O  O7  1  0.30770200  0.69926200  0.70265200  1
  O  O8  1  0.31168100  0.81319500  0.19055100  1
  O  O9  1  0.69229800  0.69926200  0.70265200  1
  O  O10  1  0.81997200  0.19678600  0.80337800  1
  O  O11  1  0.18190800  0.30898300  0.30769200  1
loop_
_geom_bond_atom_site_label_1
_geom_bond_atom_site_label_2
_geom_bond_distance
_geom_bond_site_symmetry_2
La0 O1 2.358260 1_555
La0 O9 2.371205 1_555
La0 O7 2.371205 1_555
La0 O0 2.490228 1_555
La0 O6 2.686334 1_555
La0 O8 2.686334 1_555
La0 O5 2.909528 1_555
La0 O11 2.909528 1_555
O0 Sc0 2.165975 1_555
O0 Sc2 2.165975 1_555
O0 Y0 2.250372 1_544
O1 Sc1 2.142716 1_545
O1 Sc3 2.142716 1_545
O1 Y0 2.337719 1_545
O2 Sc0 2.127691 1_556
O2 Sc2 2.127691 1_456
O2 Y2 2.241664 1_566
O2 Y1 2.353260 1_555
O3 Sc3 2.129821 1_555
O3 Sc1 2.129821 1_455
O3 Y1 2.255718 1_555
O3 Y2 2.354230 1_565
O4 Sc0 2.103198 1_556
O4 Sc3 2.130539 1_545
O4 Y2 2.299753 1_556
O4 Y1 2.550099 1_555
O4 Y0 2.945965 1_545
O5 Sc1 2.108360 1_545
O5 Sc2 2.131791 1_555
O5 Y1 2.286403 1_655
O5 Y2 2.614759 1_655
O6 Sc2 2.112434 1_555
O6 Sc1 2.137813 1_555
O6 Y0 2.286574 1_554
O6 Y2 2.844793 1_665
O7 Sc3 2.089136 1_555
O7 Sc0 2.105008 1_556
O7 Y0 2.582354 1_555
O7 Y1 2.865559 1_555
O8 Sc0 2.112434 1_555
O8 Sc3 2.137813 1_555
O8 Y0 2.286574 1_554
O8 Y2 2.844793 1_565
O9 Sc1 2.089136 1_555
O9 Sc2 2.105008 1_556
O9 Y0 2.582354 1_555
O9 Y1 2.865559 1_655
O10 Sc2 2.103198 1_556
O10 Sc1 2.130539 1_545
O10 Y2 2.299753 1_656
O10 Y1 2.550099 1_655
O10 Y0 2.945965 1_545
O11 Sc3 2.108360 1_545
O11 Sc0 2.131791 1_555
O11 Y1 2.286403 1_555
O11 Y2 2.614759 1_555
