# generated using pymatgen
data_RbCd6C12ClO26
_symmetry_space_group_name_H-M   'P 1'
_cell_length_a   9.80290379
_cell_length_b   9.80290379
_cell_length_c   9.80290427
_cell_angle_alpha   58.37704440
_cell_angle_beta   58.37704440
_cell_angle_gamma   58.37704460
_symmetry_Int_Tables_number   1
_chemical_formula_structural   RbCd6C12ClO26
_chemical_formula_sum   'Rb1 Cd6 C12 Cl1 O26'
_cell_volume   641.36753795
_cell_formula_units_Z   1
loop_
 _symmetry_equiv_pos_site_id
 _symmetry_equiv_pos_as_xyz
  1  'x, y, z'
loop_
 _atom_site_type_symbol
 _atom_site_label
 _atom_site_symmetry_multiplicity
 _atom_site_fract_x
 _atom_site_fract_y
 _atom_site_fract_z
 _atom_site_occupancy
  Rb  Rb0  1  0.00000000  0.00000000  0.00000000  1
  Cd  Cd0  1  0.71049700  0.35414000  0.22503100  1
  Cd  Cd1  1  0.35414000  0.22503100  0.71049700  1
  Cd  Cd2  1  0.22503100  0.71049700  0.35414000  1
  Cd  Cd3  1  0.28950300  0.64586000  0.77496900  1
  Cd  Cd4  1  0.64586000  0.77496900  0.28950300  1
  Cd  Cd5  1  0.77496900  0.28950300  0.64586000  1
  C  C0  1  0.56710300  0.04433700  0.42872500  1
  C  C1  1  0.04433700  0.42872500  0.56710300  1
  C  C2  1  0.42872500  0.56710300  0.04433700  1
  C  C3  1  0.43289700  0.95566300  0.57127500  1
  C  C4  1  0.95566300  0.57127500  0.43289700  1
  C  C5  1  0.57127500  0.43289700  0.95566300  1
  C  C6  1  0.05378100  0.42422300  0.96553900  1
  C  C7  1  0.42422300  0.96553900  0.05378100  1
  C  C8  1  0.96553900  0.05378100  0.42422300  1
  C  C9  1  0.94621900  0.57577700  0.03446100  1
  C  C10  1  0.57577700  0.03446100  0.94621900  1
  C  C11  1  0.03446100  0.94621900  0.57577700  1
  Cl  Cl0  1  0.50000000  0.50000000  0.50000000  1
  O  O0  1  0.55733700  0.16995200  0.44674500  1
  O  O1  1  0.16995200  0.44674500  0.55733700  1
  O  O2  1  0.44674500  0.55733700  0.16995200  1
  O  O3  1  0.44266300  0.83004800  0.55325500  1
  O  O4  1  0.83004800  0.55325500  0.44266300  1
  O  O5  1  0.55325500  0.44266300  0.83004800  1
  O  O6  1  0.67437800  0.98870000  0.30849500  1
  O  O7  1  0.98870000  0.30849500  0.67437800  1
  O  O8  1  0.30849500  0.67437800  0.98870000  1
  O  O9  1  0.32562200  0.01130000  0.69150500  1
  O  O10  1  0.01130000  0.69150500  0.32562200  1
  O  O11  1  0.69150500  0.32562200  0.01130000  1
  O  O12  1  0.98454200  0.32484300  0.00687400  1
  O  O13  1  0.32484300  0.00687400  0.98454200  1
  O  O14  1  0.00687400  0.98454200  0.32484300  1
  O  O15  1  0.01545800  0.67515700  0.99312600  1
  O  O16  1  0.67515700  0.99312600  0.01545800  1
  O  O17  1  0.99312600  0.01545800  0.67515700  1
  O  O18  1  0.20900600  0.41244100  0.86854500  1
  O  O19  1  0.41244100  0.86854500  0.20900600  1
  O  O20  1  0.86854500  0.20900600  0.41244100  1
  O  O21  1  0.79099400  0.58755900  0.13145500  1
  O  O22  1  0.58755900  0.13145500  0.79099400  1
  O  O23  1  0.13145500  0.79099400  0.58755900  1
  O  O24  1  0.74288100  0.74288100  0.74288100  1
  O  O25  1  0.25711900  0.25711900  0.25711900  1
loop_
_geom_bond_atom_site_label_1
_geom_bond_atom_site_label_2
_geom_bond_distance
_geom_bond_site_symmetry_2
Cd0 O0 2.354518 1_555
Cd0 O11 2.362302 1_555
Cd0 O21 2.373440 1_555
Cd0 O12 2.383957 1_555
Cd0 O20 2.394184 1_555
Cd0 O2 2.424792 1_555
Cd0 Cl0 2.946702 1_555
Cd1 O1 2.354519 1_555
Cd1 O9 2.362302 1_555
Cd1 O22 2.373440 1_555
Cd1 O13 2.383957 1_555
Cd1 O18 2.394184 1_555
Cd1 O0 2.424792 1_555
Cd1 Cl0 2.946702 1_555
Cd2 O2 2.354519 1_555
Cd2 O10 2.362302 1_555
Cd2 O23 2.373440 1_555
Cd2 O14 2.383957 1_555
Cd2 O19 2.394184 1_555
Cd2 O1 2.424792 1_555
Cd2 Cl0 2.946702 1_555
Cd3 O3 2.354518 1_555
Cd3 O8 2.362302 1_555
Cd3 O18 2.373440 1_555
Cd3 O15 2.383957 1_555
Cd3 O23 2.394184 1_555
Cd3 O5 2.424792 1_555
Cd3 Cl0 2.946702 1_555
Cd4 O4 2.354519 1_555
Cd4 O6 2.362302 1_555
Cd4 O19 2.373440 1_555
Cd4 O16 2.383957 1_555
Cd4 O21 2.394184 1_555
Cd4 O3 2.424792 1_555
Cd4 Cl0 2.946702 1_555
Cd5 O5 2.354519 1_555
Cd5 O7 2.362302 1_555
Cd5 O20 2.373440 1_555
Cd5 O17 2.383957 1_555
Cd5 O22 2.394184 1_555
Cd5 O4 2.424792 1_555
Cd5 Cl0 2.946702 1_555
C0 O6 1.251140 1_545
C0 O0 1.281969 1_555
C1 O7 1.251140 1_455
C1 O1 1.281969 1_555
C2 O8 1.251140 1_554
C2 O2 1.281969 1_555
C3 O9 1.251140 1_565
C3 O3 1.281969 1_555
C4 O10 1.251140 1_655
C4 O4 1.281969 1_555
C5 O11 1.251140 1_556
C5 O5 1.281969 1_555
C6 O12 1.251005 1_456
C6 O18 1.283154 1_555
C7 O13 1.251005 1_564
C7 O19 1.283154 1_555
C8 O14 1.251005 1_645
C8 O20 1.283154 1_555
C9 O15 1.251005 1_654
C9 O21 1.283154 1_555
C10 O16 1.251005 1_546
C10 O22 1.283154 1_555
C11 O17 1.251005 1_465
C11 O23 1.283154 1_555
O6 Rb0 3.040312 1_665
O7 Rb0 3.040312 1_656
O8 Rb0 3.040312 1_566
O9 Rb0 3.040312 1_556
O10 Rb0 3.040312 1_565
O11 Rb0 3.040312 1_655
O12 Rb0 3.142647 1_655
O13 Rb0 3.142647 1_556
O14 Rb0 3.142647 1_565
O15 Rb0 3.142647 1_566
O16 Rb0 3.142647 1_665
O17 Rb0 3.142647 1_656
