# generated using pymatgen
data_Li5Mn4O8
_symmetry_space_group_name_H-M   'P 1'
_cell_length_a   5.81153933
_cell_length_b   10.40063808
_cell_length_c   6.35141527
_cell_angle_alpha   98.90893038
_cell_angle_beta   117.35537179
_cell_angle_gamma   73.72862331
_symmetry_Int_Tables_number   1
_chemical_formula_structural   Li5Mn4O8
_chemical_formula_sum   'Li10 Mn8 O16'
_cell_volume   327.16151196
_cell_formula_units_Z   2
loop_
 _symmetry_equiv_pos_site_id
 _symmetry_equiv_pos_as_xyz
  1  'x, y, z'
loop_
 _atom_site_type_symbol
 _atom_site_label
 _atom_site_symmetry_multiplicity
 _atom_site_fract_x
 _atom_site_fract_y
 _atom_site_fract_z
 _atom_site_occupancy
  Li  Li0  1  0.75043500  0.25025900  0.75083200  1
  Li  Li1  1  0.24810000  0.74989800  0.24944900  1
  Li  Li2  1  0.53384700  0.51123300  0.58007700  1
  Li  Li3  1  0.18472400  0.95781500  0.29977000  1
  Li  Li4  1  0.96633100  0.98879100  0.91977100  1
  Li  Li5  1  0.31626300  0.54195700  0.20023800  1
  Li  Li6  1  0.97729200  0.01538900  0.54124800  1
  Li  Li7  1  0.52311000  0.48474700  0.95847100  1
  Li  Li8  1  0.54199800  0.02309900  0.56442000  1
  Li  Li9  1  0.95818500  0.47721800  0.93596900  1
  Mn  Mn0  1  0.74951400  0.75008000  0.25014200  1
  Mn  Mn1  1  0.24991200  0.25008100  0.75002400  1
  Mn  Mn2  1  0.50221100  0.00190200  0.00535500  1
  Mn  Mn3  1  0.99787400  0.49809000  0.49452700  1
  Mn  Mn4  1  0.75032400  0.24996700  0.25026200  1
  Mn  Mn5  1  0.25005700  0.74995300  0.74998800  1
  Mn  Mn6  1  0.24992100  0.25000800  0.25001600  1
  Mn  Mn7  1  0.74970100  0.74985800  0.74990200  1
  O  O0  1  0.89134000  0.36574700  0.12979100  1
  O  O1  1  0.38513800  0.86820800  0.61224600  1
  O  O2  1  0.60878000  0.13411000  0.37028300  1
  O  O3  1  0.11470900  0.63170400  0.88756200  1
  O  O4  1  0.13700800  0.13851500  0.38893600  1
  O  O5  1  0.63161900  0.63195900  0.87152100  1
  O  O6  1  0.36340300  0.36140500  0.11136000  1
  O  O7  1  0.86803600  0.86794900  0.62805300  1
  O  O8  1  0.89261400  0.37279900  0.62298700  1
  O  O9  1  0.36003800  0.88398700  0.09780400  1
  O  O10  1  0.36028700  0.37672600  0.63567600  1
  O  O11  1  0.86273300  0.88919800  0.11711300  1
  O  O12  1  0.13985500  0.12340200  0.86435300  1
  O  O13  1  0.63728700  0.61065500  0.38298800  1
  O  O14  1  0.60761200  0.12728600  0.87719500  1
  O  O15  1  0.13974100  0.61600500  0.40167000  1
loop_
_geom_bond_atom_site_label_1
_geom_bond_atom_site_label_2
_geom_bond_distance
_geom_bond_site_symmetry_2
Li0 O8 2.119827 1_555
Li0 O14 2.119895 1_555
Li0 O12 2.122311 1_655
Li0 O10 2.123364 1_555
Li0 O0 2.398121 1_556
Li0 O2 2.409012 1_555
Li1 O11 2.156426 1_455
Li1 O13 2.171234 1_555
Li1 O15 2.176814 1_555
Li1 O9 2.189992 1_555
Li1 O3 2.327346 1_554
Li1 O1 2.332916 1_555
Li2 O5 2.009790 1_555
Li2 O15 2.077485 1_555
Li2 O10 2.090512 1_555
Li2 O8 2.100374 1_555
Li2 O13 2.106764 1_555
Li3 O4 1.858056 1_565
Li3 O9 1.931521 1_555
Li3 O11 1.963072 1_455
Li3 O1 2.001067 1_555
Li4 O7 2.011782 1_555
Li4 O9 2.075666 1_656
Li4 O12 2.090686 1_665
Li4 O14 2.100907 1_565
Li4 O11 2.109869 1_556
Li5 O6 1.856224 1_555
Li5 O15 1.934063 1_555
Li5 O13 1.959185 1_555
Li5 O3 2.002723 1_554
Li6 O2 2.021522 1_555
Li6 O7 2.046425 1_545
Li6 O12 2.113034 1_655
Li6 O4 2.304846 1_655
Li6 O1 2.315790 1_645
Li7 O0 2.021956 1_556
Li7 O5 2.042035 1_555
Li7 O10 2.111959 1_555
Li7 O6 2.308986 1_556
Li7 O3 2.317365 1_555
Li8 O14 2.033394 1_555
Li8 O2 2.033701 1_555
Li8 O7 2.035264 1_545
Li8 O4 2.154782 1_555
Li8 O1 2.178872 1_545
Li9 O5 2.034224 1_555
Li9 O8 2.035533 1_555
Li9 O0 2.035793 1_556
Li9 O6 2.157018 1_656
Li9 O3 2.175476 1_655
Mn0 O9 2.153431 1_555
Mn0 O15 2.156734 1_655
Mn0 O13 2.157505 1_555
Mn0 O11 2.159505 1_555
Mn0 O7 2.404369 1_555
Mn0 O5 2.409174 1_554
Mn1 O12 1.966645 1_555
Mn1 O10 1.967693 1_555
Mn1 O8 1.971251 1_455
Mn1 O14 1.973204 1_555
Mn1 O4 2.292637 1_555
Mn1 O6 2.292690 1_556
Mn2 O9 1.941193 1_545
Mn2 O11 1.944833 1_545
Mn2 O12 1.989878 1_554
Mn2 O14 1.993250 1_554
Mn2 O2 2.411931 1_555
Mn2 O1 2.554223 1_544
Mn3 O15 1.941420 1_655
Mn3 O13 1.944649 1_555
Mn3 O10 1.989583 1_655
Mn3 O8 1.993158 1_555
Mn3 O0 2.411709 1_555
Mn3 O3 2.553514 1_655
Mn4 O0 2.030227 1_555
Mn4 O2 2.031252 1_555
Mn4 O4 2.051088 1_655
Mn4 O6 2.052080 1_555
Mn4 O8 2.403403 1_555
Mn4 O14 2.404374 1_554
Mn5 O5 2.052909 1_555
Mn5 O7 2.054820 1_455
Mn5 O1 2.097585 1_555
Mn5 O3 2.097946 1_555
Mn5 O9 2.340923 1_556
Mn5 O15 2.342781 1_555
Mn6 O0 1.947145 1_455
Mn6 O2 1.948930 1_555
Mn6 O4 1.956832 1_555
Mn6 O6 1.957254 1_555
Mn6 O12 2.485192 1_554
Mn6 O10 2.485620 1_555
Mn7 O5 1.955329 1_555
Mn7 O7 1.958896 1_555
Mn7 O1 1.984416 1_555
Mn7 O3 1.985414 1_655
Mn7 O13 2.457567 1_555
Mn7 O11 2.459674 1_556
