# generated using pymatgen
data_NbTlO14
_symmetry_space_group_name_H-M   'P 1'
_cell_length_a   7.70340088
_cell_length_b   7.70340088
_cell_length_c   7.70340088
_cell_angle_alpha   60.00000000
_cell_angle_beta   60.00000000
_cell_angle_gamma   60.00000000
_symmetry_Int_Tables_number   1
_chemical_formula_structural   NbTlO14
_chemical_formula_sum   'Nb2 Tl2 O28'
_cell_volume   323.24550817
_cell_formula_units_Z   2
loop_
 _symmetry_equiv_pos_site_id
 _symmetry_equiv_pos_as_xyz
  1  'x, y, z'
loop_
 _atom_site_type_symbol
 _atom_site_label
 _atom_site_symmetry_multiplicity
 _atom_site_fract_x
 _atom_site_fract_y
 _atom_site_fract_z
 _atom_site_occupancy
  Nb  Nb0  1  0.50000000  0.50000000  0.50000000  1
  Nb  Nb1  1  0.75000000  0.75000000  0.75000000  1
  Tl  Tl0  1  0.00000000  0.00000000  0.00000000  1
  Tl  Tl1  1  0.25000000  0.25000000  0.25000000  1
  O  O0  1  0.80833800  0.47588200  0.47588200  1
  O  O1  1  0.47588200  0.80833800  0.23989800  1
  O  O2  1  0.47588200  0.23989800  0.80833800  1
  O  O3  1  0.47588200  0.80833800  0.47588200  1
  O  O4  1  0.44166200  0.77411800  0.01010200  1
  O  O5  1  0.44166200  0.77411800  0.77411800  1
  O  O6  1  0.23989800  0.47588200  0.47588200  1
  O  O7  1  0.23989800  0.47588200  0.80833800  1
  O  O8  1  0.77411800  0.44166200  0.77411800  1
  O  O9  1  0.77411800  0.44166200  0.01010200  1
  O  O10  1  0.80833800  0.47588200  0.23989800  1
  O  O11  1  0.77411800  0.01010200  0.77411800  1
  O  O12  1  0.77411800  0.01010200  0.44166200  1
  O  O13  1  0.47588200  0.23989800  0.47588200  1
  O  O14  1  0.01010200  0.77411800  0.44166200  1
  O  O15  1  0.01010200  0.77411800  0.77411800  1
  O  O16  1  0.47588200  0.47588200  0.80833800  1
  O  O17  1  0.23989800  0.80833800  0.47588200  1
  O  O18  1  0.47588200  0.47588200  0.23989800  1
  O  O19  1  0.80833800  0.23989800  0.47588200  1
  O  O20  1  0.01010200  0.44166200  0.77411800  1
  O  O21  1  0.77411800  0.77411800  0.44166200  1
  O  O22  1  0.44166200  0.01010200  0.77411800  1
  O  O23  1  0.77411800  0.77411800  0.01010200  1
  O  O24  1  0.12500000  0.12500000  0.12500000  1
  O  O25  1  0.12500000  0.12500000  0.62500000  1
  O  O26  1  0.12500000  0.62500000  0.12500000  1
  O  O27  1  0.62500000  0.12500000  0.12500000  1
loop_
_geom_bond_atom_site_label_1
_geom_bond_atom_site_label_2
_geom_bond_distance
_geom_bond_site_symmetry_2
Nb0 O3 2.205170 1_555
Nb0 O0 2.205170 1_555
Nb0 O16 2.205170 1_555
Nb0 O1 2.205170 1_555
Nb0 O17 2.205170 1_555
Nb0 O19 2.205170 1_555
Nb0 O2 2.205170 1_555
Nb0 O7 2.205170 1_555
Nb0 O10 2.205170 1_555
Nb0 O6 2.205170 1_555
Nb0 O13 2.205170 1_555
Nb0 O18 2.205170 1_555
Nb1 O22 2.205170 1_565
Nb1 O8 2.205170 1_555
Nb1 O5 2.205170 1_555
Nb1 O20 2.205170 1_655
Nb1 O15 2.205170 1_655
Nb1 O11 2.205170 1_565
Nb1 O12 2.205170 1_565
Nb1 O23 2.205170 1_556
Nb1 O4 2.205170 1_556
Nb1 O14 2.205170 1_655
Nb1 O9 2.205170 1_556
Nb1 O21 2.205170 1_555
O0 O10 1.817879 1_555
O0 O19 1.817879 1_555
O1 O3 1.817879 1_555
O1 O17 1.817879 1_555
O2 O7 1.817879 1_555
O4 O5 1.817879 1_554
O8 O9 1.817879 1_556
O10 O19 1.817879 1_555
O11 O23 1.817879 1_546
O11 O15 1.817879 1_645
O12 O21 1.817879 1_545
O12 O14 1.817879 1_645
O13 O6 1.817879 1_555
O13 O18 1.817879 1_555
O14 O21 1.817879 1_455
O15 O23 1.817879 1_456
O16 O2 1.817879 1_555
O16 O7 1.817879 1_555
O17 O3 1.817879 1_555
O18 O6 1.817879 1_555
O20 O8 1.817879 1_455
O20 O9 1.817879 1_456
O22 O4 1.817879 1_546
O22 O5 1.817879 1_545
O24 Tl0 2.358675 1_555
O24 Tl1 2.358675 1_555
O25 Tl0 2.358675 1_556
O25 Tl1 2.358675 1_555
O26 Tl1 2.358675 1_555
O26 Tl0 2.358675 1_565
O27 Tl0 2.358675 1_655
O27 Tl1 2.358675 1_555
