# generated using pymatgen
data_NdBeCu4
_symmetry_space_group_name_H-M   'P 1'
_cell_length_a   5.16045601
_cell_length_b   5.16045601
_cell_length_c   3.85436300
_cell_angle_alpha   90.00000000
_cell_angle_beta   90.00000000
_cell_angle_gamma   120.00000010
_symmetry_Int_Tables_number   1
_chemical_formula_structural   NdBeCu4
_chemical_formula_sum   'Nd1 Be1 Cu4'
_cell_volume   88.89133019
_cell_formula_units_Z   1
loop_
 _symmetry_equiv_pos_site_id
 _symmetry_equiv_pos_as_xyz
  1  'x, y, z'
loop_
 _atom_site_type_symbol
 _atom_site_label
 _atom_site_symmetry_multiplicity
 _atom_site_fract_x
 _atom_site_fract_y
 _atom_site_fract_z
 _atom_site_occupancy
  Nd  Nd0  1  0.00000000  0.00000000  0.00000000  1
  Be  Be0  1  0.33333300  0.66666700  0.00000000  1
  Cu  Cu0  1  0.66666700  0.33333300  0.00000000  1
  Cu  Cu1  1  0.01001900  0.50500900  0.50000000  1
  Cu  Cu2  1  0.49499100  0.50500900  0.50000000  1
  Cu  Cu3  1  0.49499100  0.98998100  0.50000000  1
loop_
_geom_bond_atom_site_label_1
_geom_bond_atom_site_label_2
_geom_bond_distance
_geom_bond_site_symmetry_2
Be0 Cu3 2.408696 1_554
Be0 Cu1 2.408696 1_554
Be0 Cu3 2.408696 1_555
Be0 Cu1 2.408696 1_555
Be0 Cu2 2.408701 1_554
Be0 Cu2 2.408701 1_555
Be0 Nd0 2.979388 1_565
Be0 Nd0 2.979392 1_665
Be0 Nd0 2.979392 1_555
Cu0 Cu1 2.463458 1_654
Cu0 Cu3 2.463458 1_544
Cu0 Cu3 2.463458 1_545
Cu0 Cu1 2.463458 1_655
Cu0 Cu2 2.463458 1_554
Cu0 Cu2 2.463458 1_555
Cu0 Nd0 2.979388 1_655
Cu0 Nd0 2.979392 1_665
Cu0 Nd0 2.979392 1_555
Cu1 Cu3 2.502677 1_555
Cu1 Cu2 2.502677 1_555
Cu1 Cu3 2.657779 1_445
Cu1 Cu2 2.657779 1_455
Cu1 Nd0 3.220807 1_555
Cu1 Nd0 3.220807 1_556
Cu1 Nd0 3.220811 1_565
Cu1 Nd0 3.220811 1_566
Cu2 Cu3 2.502677 1_555
Cu2 Cu3 2.657779 1_545
Cu2 Nd0 3.220809 1_665
Cu2 Nd0 3.220809 1_666
Cu2 Nd0 3.220809 1_555
Cu2 Nd0 3.220809 1_556
Cu3 Nd0 3.220807 1_665
Cu3 Nd0 3.220807 1_666
Cu3 Nd0 3.220811 1_565
Cu3 Nd0 3.220811 1_566
