# generated using pymatgen
data_Ge6C4NO13
_symmetry_space_group_name_H-M   'P 1'
_cell_length_a   9.23179383
_cell_length_b   9.76244603
_cell_length_c   17.96013994
_cell_angle_alpha   98.68183272
_cell_angle_beta   90.00000000
_cell_angle_gamma   90.00000000
_symmetry_Int_Tables_number   1
_chemical_formula_structural   Ge6C4NO13
_chemical_formula_sum   'Ge24 C16 N4 O52'
_cell_volume   1600.10873732
_cell_formula_units_Z   4
loop_
 _symmetry_equiv_pos_site_id
 _symmetry_equiv_pos_as_xyz
  1  'x, y, z'
loop_
 _atom_site_type_symbol
 _atom_site_label
 _atom_site_symmetry_multiplicity
 _atom_site_fract_x
 _atom_site_fract_y
 _atom_site_fract_z
 _atom_site_occupancy
  Ge  Ge0  1  0.61097175  0.78523813  0.70058680  1
  Ge  Ge1  1  0.88902825  0.28523813  0.20058680  1
  Ge  Ge2  1  0.38902825  0.21476187  0.29941320  1
  Ge  Ge3  1  0.11097175  0.71476187  0.79941320  1
  Ge  Ge4  1  0.41109108  0.95036160  0.60253940  1
  Ge  Ge5  1  0.08890892  0.45036160  0.10253940  1
  Ge  Ge6  1  0.58890892  0.04963840  0.39746060  1
  Ge  Ge7  1  0.91109108  0.54963840  0.89746060  1
  Ge  Ge8  1  0.58499448  0.76006501  0.46691169  1
  Ge  Ge9  1  0.91500552  0.26006501  0.96691169  1
  Ge  Ge10  1  0.41500552  0.23993499  0.53308831  1
  Ge  Ge11  1  0.08499448  0.73993499  0.03308831  1
  Ge  Ge12  1  0.66976860  0.77297996  0.87629316  1
  Ge  Ge13  1  0.83023140  0.27297996  0.37629316  1
  Ge  Ge14  1  0.33023140  0.22702004  0.12370684  1
  Ge  Ge15  1  0.16976860  0.72702004  0.62370684  1
  Ge  Ge16  1  0.83573589  0.69390283  0.56969548  1
  Ge  Ge17  1  0.66426411  0.19390283  0.06969548  1
  Ge  Ge18  1  0.16426411  0.30609717  0.43030452  1
  Ge  Ge19  1  0.33573589  0.80609717  0.93030452  1
  Ge  Ge20  1  0.45409818  0.55251813  0.59482993  1
  Ge  Ge21  1  0.04590182  0.05251813  0.09482993  1
  Ge  Ge22  1  0.54590182  0.44748187  0.40517007  1
  Ge  Ge23  1  0.95409818  0.94748187  0.90517007  1
  C  C0  1  0.65314281  0.79266330  0.17259209  1
  C  C1  1  0.84685719  0.29266330  0.67259209  1
  C  C2  1  0.34685719  0.20733670  0.82740791  1
  C  C3  1  0.15314281  0.70733670  0.32740791  1
  C  C4  1  0.49300826  0.77127253  0.16107667  1
  C  C5  1  0.00699174  0.27127253  0.66107667  1
  C  C6  1  0.50699174  0.22872747  0.83892333  1
  C  C7  1  0.99300826  0.72872747  0.33892333  1
  C  C8  1  0.53798392  0.65628171  0.20230331  1
  C  C9  1  0.96201608  0.15628171  0.70230331  1
  C  C10  1  0.46201608  0.34371829  0.79769669  1
  C  C11  1  0.03798392  0.84371829  0.29769669  1
  C  C12  1  0.56196209  0.66817510  0.10287971  1
  C  C13  1  0.93803791  0.16817510  0.60287971  1
  C  C14  1  0.43803791  0.33182490  0.89712029  1
  C  C15  1  0.06196209  0.83182490  0.39712029  1
  N  N0  1  0.67344677  0.63944628  0.15683595  1
  N  N1  1  0.82655323  0.13944628  0.65683595  1
  N  N2  1  0.32655323  0.36055372  0.84316405  1
  N  N3  1  0.17344677  0.86055372  0.34316405  1
  O  O0  1  0.56699099  0.93092636  0.65746462  1
  O  O1  1  0.93300901  0.43092636  0.15746462  1
  O  O2  1  0.43300901  0.06907364  0.34253538  1
  O  O3  1  0.06699099  0.56907364  0.84253538  1
  O  O4  1  0.61937504  0.84831747  0.79691345  1
  O  O5  1  0.88062496  0.34831747  0.29691345  1
  O  O6  1  0.38062496  0.15168253  0.20308655  1
  O  O7  1  0.11937504  0.65168253  0.70308655  1
  O  O8  1  0.78400887  0.72722908  0.66605538  1
  O  O9  1  0.71599113  0.22722908  0.16605538  1
  O  O10  1  0.21599113  0.27277092  0.33394462  1
  O  O11  1  0.28400887  0.77277092  0.83394462  1
  O  O12  1  0.47986016  0.65082250  0.68634518  1
  O  O13  1  0.02013984  0.15082250  0.18634518  1
  O  O14  1  0.52013984  0.34917750  0.31365482  1
  O  O15  1  0.97986016  0.84917750  0.81365482  1
  O  O16  1  0.43267046  0.85303607  0.51152660  1
  O  O17  1  0.06732954  0.35303607  0.01152660  1
  O  O18  1  0.56732954  0.14696393  0.48847340  1
  O  O19  1  0.93267046  0.64696393  0.98847340  1
  O  O20  1  0.37915305  0.12680477  0.60511096  1
  O  O21  1  0.12084695  0.62680477  0.10511096  1
  O  O22  1  0.62084695  0.87319523  0.39488904  1
  O  O23  1  0.87915305  0.37319523  0.89488904  1
  O  O24  1  0.25843809  0.88729677  0.64765134  1
  O  O25  1  0.24156191  0.38729677  0.14765134  1
  O  O26  1  0.74156191  0.11270323  0.35234866  1
  O  O27  1  0.75843809  0.61270323  0.85234866  1
  O  O28  1  0.76736250  0.78973838  0.50178570  1
  O  O29  1  0.73263750  0.28973838  0.00178570  1
  O  O30  1  0.23263750  0.21026162  0.49821430  1
  O  O31  1  0.26736250  0.71026162  0.99821430  1
  O  O32  1  0.46546055  0.37758759  0.60611695  1
  O  O33  1  0.03453945  0.87758759  0.10611695  1
  O  O34  1  0.53453945  0.62241241  0.39388305  1
  O  O35  1  0.96546055  0.12241241  0.89388305  1
  O  O36  1  0.59097452  0.61446895  0.53848196  1
  O  O37  1  0.90902548  0.11446895  0.03848196  1
  O  O38  1  0.40902548  0.38553105  0.46151804  1
  O  O39  1  0.09097452  0.88553105  0.96151804  1
  O  O40  1  0.77604401  0.90119560  0.93228764  1
  O  O41  1  0.72395599  0.40119560  0.43228764  1
  O  O42  1  0.22395599  0.09880440  0.06771236  1
  O  O43  1  0.27604401  0.59880440  0.56771236  1
  O  O44  1  0.51756325  0.74129425  0.92937284  1
  O  O45  1  0.98243675  0.24129425  0.42937284  1
  O  O46  1  0.48243675  0.25870575  0.07062716  1
  O  O47  1  0.01756325  0.75870575  0.57062716  1
  O  O48  1  0.88214859  0.50953924  0.54690446  1
  O  O49  1  0.61785141  0.00953924  0.04690446  1
  O  O50  1  0.11785141  0.49046076  0.45309554  1
  O  O51  1  0.38214859  0.99046076  0.95309554  1
loop_
_geom_bond_atom_site_label_1
_geom_bond_atom_site_label_2
_geom_bond_distance
_geom_bond_site_symmetry_2
Ge0 O4 1.748327 1_555
Ge0 O0 1.766375 1_555
Ge0 O12 1.775130 1_555
Ge0 O8 1.775144 1_555
Ge1 O5 1.748327 1_555
Ge1 O1 1.766375 1_555
Ge1 O13 1.775130 1_655
Ge1 O9 1.775144 1_555
Ge2 O6 1.748327 1_555
Ge2 O2 1.766375 1_555
Ge2 O14 1.775130 1_555
Ge2 O10 1.775144 1_555
Ge3 O7 1.748327 1_555
Ge3 O3 1.766375 1_555
Ge3 O15 1.775130 1_455
Ge3 O11 1.775144 1_555
Ge4 O20 1.741297 1_565
Ge4 O0 1.771163 1_555
Ge4 O16 1.773555 1_555
Ge4 O24 1.781041 1_555
Ge5 O21 1.741297 1_555
Ge5 O1 1.771163 1_455
Ge5 O17 1.773555 1_555
Ge5 O25 1.781041 1_555
Ge6 O22 1.741297 1_545
Ge6 O2 1.771163 1_555
Ge6 O18 1.773555 1_555
Ge6 O26 1.781041 1_555
Ge7 O23 1.741297 1_555
Ge7 O3 1.771163 1_655
Ge7 O19 1.773555 1_555
Ge7 O27 1.781041 1_555
Ge8 O34 1.791934 1_555
Ge8 O16 1.795482 1_555
Ge8 O28 1.804411 1_555
Ge8 O22 1.853062 1_555
Ge8 O36 2.056019 1_555
Ge9 O35 1.791934 1_555
Ge9 O17 1.795482 1_656
Ge9 O29 1.804411 1_556
Ge9 O23 1.853062 1_555
Ge9 O37 2.056019 1_556
Ge10 O32 1.791934 1_555
Ge10 O18 1.795482 1_555
Ge10 O30 1.804411 1_555
Ge10 O20 1.853062 1_555
Ge10 O38 2.056019 1_555
Ge11 O33 1.791934 1_555
Ge11 O19 1.795482 1_454
Ge11 O31 1.804411 1_554
Ge11 O21 1.853062 1_555
Ge11 O39 2.056019 1_554
Ge12 O44 1.751546 1_555
Ge12 O27 1.760719 1_555
Ge12 O4 1.762512 1_555
Ge12 O40 1.777829 1_555
Ge13 O45 1.751546 1_555
Ge13 O26 1.760719 1_555
Ge13 O5 1.762512 1_555
Ge13 O41 1.777829 1_555
Ge14 O46 1.751546 1_555
Ge14 O25 1.760719 1_555
Ge14 O6 1.762512 1_555
Ge14 O42 1.777829 1_555
Ge15 O47 1.751546 1_555
Ge15 O24 1.760719 1_555
Ge15 O7 1.762512 1_555
Ge15 O43 1.777829 1_555
Ge16 O28 1.762339 1_555
Ge16 O8 1.777360 1_555
Ge16 O47 1.793038 1_655
Ge16 O48 1.835251 1_555
Ge16 O36 2.426955 1_555
Ge17 O29 1.762339 1_555
Ge17 O9 1.777360 1_555
Ge17 O46 1.793038 1_555
Ge17 O49 1.835251 1_555
Ge17 O37 2.426955 1_555
Ge18 O30 1.762339 1_555
Ge18 O10 1.777360 1_555
Ge18 O45 1.793038 1_455
Ge18 O50 1.835251 1_555
Ge18 O38 2.426955 1_555
Ge19 O31 1.762339 1_555
Ge19 O11 1.777360 1_555
Ge19 O44 1.793038 1_555
Ge19 O51 1.835251 1_555
Ge19 O39 2.426955 1_555
Ge20 O32 1.753003 1_555
Ge20 O36 1.780857 1_555
Ge20 O12 1.789659 1_555
Ge20 O43 1.791584 1_555
Ge21 O33 1.753003 1_545
Ge21 O37 1.780857 1_455
Ge21 O13 1.789659 1_555
Ge21 O42 1.791584 1_555
Ge22 O34 1.753003 1_555
Ge22 O38 1.780857 1_555
Ge22 O14 1.789659 1_555
Ge22 O41 1.791584 1_555
Ge23 O35 1.753003 1_565
Ge23 O39 1.780857 1_655
Ge23 O15 1.789659 1_555
Ge23 O40 1.791584 1_555
C0 N0 1.491565 1_555
C0 C4 1.502931 1_555
C1 N1 1.491565 1_555
C1 C5 1.502931 1_655
C2 N2 1.491565 1_555
C2 C6 1.502931 1_555
C3 N3 1.491565 1_555
C3 C7 1.502931 1_455
C4 C8 1.493918 1_555
C5 C9 1.493918 1_455
C8 N0 1.489041 1_555
C9 N1 1.489041 1_555
C10 N2 1.489041 1_555
C10 C6 1.493918 1_555
C11 N3 1.489041 1_555
C11 C7 1.493918 1_455
C12 N0 1.469371 1_555
C12 C4 1.480922 1_555
C13 N1 1.469371 1_555
C13 C5 1.480922 1_655
C14 N2 1.469371 1_555
C14 C6 1.480922 1_555
C15 N3 1.469371 1_555
C15 C7 1.480922 1_455
