# generated using pymatgen
data_Tm(Fe5Re)2
_symmetry_space_group_name_H-M   'P 1'
_cell_length_a   4.69215700
_cell_length_b   6.46311657
_cell_length_c   6.46311657
_cell_angle_alpha   96.84405708
_cell_angle_beta   111.28424358
_cell_angle_gamma   68.71575642
_symmetry_Int_Tables_number   1
_chemical_formula_structural   Tm(Fe5Re)2
_chemical_formula_sum   'Tm1 Fe10 Re2'
_cell_volume   170.15624576
_cell_formula_units_Z   1
loop_
 _symmetry_equiv_pos_site_id
 _symmetry_equiv_pos_as_xyz
  1  'x, y, z'
loop_
 _atom_site_type_symbol
 _atom_site_label
 _atom_site_symmetry_multiplicity
 _atom_site_fract_x
 _atom_site_fract_y
 _atom_site_fract_z
 _atom_site_occupancy
  Tm  Tm0  1  0.00000000  0.00000000  0.00000000  1
  Fe  Fe0  1  0.71857000  0.78143000  0.21857000  1
  Fe  Fe1  1  0.28143000  0.21857000  0.78143000  1
  Fe  Fe2  1  0.50000000  0.77237400  0.77237400  1
  Fe  Fe3  1  0.50000000  0.22762600  0.22762600  1
  Fe  Fe4  1  0.50000000  0.00000000  0.50000000  1
  Fe  Fe5  1  0.00000000  0.00000000  0.50000000  1
  Fe  Fe6  1  0.50000000  0.50000000  0.00000000  1
  Fe  Fe7  1  0.00000000  0.50000000  0.00000000  1
  Fe  Fe8  1  0.64200700  0.35799300  0.64200700  1
  Fe  Fe9  1  0.35799300  0.64200700  0.35799300  1
  Re  Re0  1  0.00000000  0.35733100  0.35733100  1
  Re  Re1  1  0.00000000  0.64266900  0.64266900  1
loop_
_geom_bond_atom_site_label_1
_geom_bond_atom_site_label_2
_geom_bond_distance
_geom_bond_site_symmetry_2
Fe0 Fe7 2.458839 1_655
Fe0 Fe5 2.458839 1_665
Fe0 Fe6 2.458839 1_555
Fe0 Fe4 2.458839 1_565
Fe0 Fe9 2.625572 1_655
Fe0 Fe9 2.625572 1_555
Fe0 Re0 2.675726 1_655
Fe0 Re1 2.675726 1_655
Fe0 Fe3 2.688459 1_565
Fe0 Fe2 2.688459 1_554
Fe0 Tm0 2.986475 1_565
Fe0 Tm0 2.986476 1_665
Fe1 Fe5 2.458839 1_555
Fe1 Fe7 2.458839 1_556
Fe1 Fe4 2.458839 1_555
Fe1 Fe6 2.458839 1_556
Fe1 Fe8 2.625572 1_455
Fe1 Fe8 2.625572 1_555
Fe1 Re0 2.675726 1_555
Fe1 Re1 2.675726 1_555
Fe1 Fe2 2.688459 1_545
Fe1 Fe3 2.688459 1_556
Fe1 Tm0 2.986475 1_656
Fe1 Tm0 2.986476 1_556
Fe2 Fe7 2.424985 1_656
Fe2 Fe5 2.424985 1_565
Fe2 Fe4 2.424985 1_565
Fe2 Fe6 2.424985 1_556
Fe2 Re1 2.596552 1_655
Fe2 Re1 2.596552 1_555
Fe2 Fe9 2.626947 1_555
Fe2 Fe8 2.626947 1_555
Fe2 Tm0 3.052367 1_566
Fe2 Tm0 3.052367 1_666
Fe3 Fe5 2.424985 1_655
Fe3 Fe7 2.424985 1_555
Fe3 Fe6 2.424985 1_555
Fe3 Fe4 2.424985 1_555
Fe3 Re0 2.596552 1_555
Fe3 Re0 2.596552 1_655
Fe3 Fe9 2.626947 1_555
Fe3 Fe8 2.626947 1_555
Fe3 Tm0 3.052367 1_555
Fe3 Tm0 3.052367 1_655
Fe4 Fe5 2.346078 1_655
Fe4 Fe5 2.346078 1_555
Fe4 Re0 2.586783 1_555
Fe4 Re1 2.586783 1_645
Fe4 Fe9 2.609396 1_545
Fe4 Fe8 2.609396 1_555
Fe4 Tm0 3.231558 1_555
Fe4 Tm0 3.231558 1_656
Fe5 Re1 2.586783 1_545
Fe5 Re0 2.586783 1_555
Fe5 Fe8 2.609396 1_455
Fe5 Fe9 2.609396 1_545
Fe5 Tm0 3.231558 1_556
Fe5 Tm0 3.231558 1_555
Fe6 Fe7 2.346078 1_555
Fe6 Fe7 2.346078 1_655
Fe6 Re1 2.586783 1_554
Fe6 Re0 2.586783 1_655
Fe6 Fe8 2.609396 1_554
Fe6 Fe9 2.609396 1_555
Fe6 Tm0 3.231558 1_655
Fe6 Tm0 3.231558 1_565
Fe7 Re0 2.586783 1_555
Fe7 Re1 2.586783 1_554
Fe7 Fe8 2.609396 1_454
Fe7 Fe9 2.609396 1_555
Fe7 Tm0 3.231558 1_565
Fe7 Tm0 3.231558 1_555
Fe8 Fe9 2.401272 1_555
Fe8 Re0 2.905762 1_555
Fe8 Re1 2.905762 1_555
Fe8 Re0 2.905763 1_655
Fe8 Re1 2.905763 1_655
Fe8 Tm0 3.026748 1_656
Fe9 Re1 2.905762 1_655
Fe9 Re0 2.905762 1_655
Fe9 Re0 2.905763 1_555
Fe9 Re1 2.905763 1_555
Fe9 Tm0 3.026748 1_565
Re0 Re1 2.447729 1_555
Re0 Tm0 3.065310 1_555
Re1 Tm0 3.065310 1_566
