# generated using pymatgen
data_U4(BRu4)3
_symmetry_space_group_name_H-M   'P 1'
_cell_length_a   4.15595100
_cell_length_b   4.15595100
_cell_length_c   16.38214700
_cell_angle_alpha   90.00000000
_cell_angle_beta   90.00000000
_cell_angle_gamma   90.00000000
_symmetry_Int_Tables_number   1
_chemical_formula_structural   U4(BRu4)3
_chemical_formula_sum   'U4 B3 Ru12'
_cell_volume   282.95127517
_cell_formula_units_Z   1
loop_
 _symmetry_equiv_pos_site_id
 _symmetry_equiv_pos_as_xyz
  1  'x, y, z'
loop_
 _atom_site_type_symbol
 _atom_site_label
 _atom_site_symmetry_multiplicity
 _atom_site_fract_x
 _atom_site_fract_y
 _atom_site_fract_z
 _atom_site_occupancy
  U  U0  1  0.00000000  0.00000000  0.88365400  1
  U  U1  1  0.00000000  0.00000000  0.11634600  1
  U  U2  1  0.00000000  0.00000000  0.37235300  1
  U  U3  1  0.00000000  0.00000000  0.62764700  1
  B  B0  1  0.50000000  0.50000000  0.23991600  1
  B  B1  1  0.50000000  0.50000000  0.50000000  1
  B  B2  1  0.50000000  0.50000000  0.76008400  1
  Ru  Ru0  1  0.50000000  0.50000000  0.88348900  1
  Ru  Ru1  1  0.50000000  0.50000000  0.11651100  1
  Ru  Ru2  1  0.50000000  0.50000000  0.37208500  1
  Ru  Ru3  1  0.50000000  0.50000000  0.62791500  1
  Ru  Ru4  1  0.50000000  0.00000000  0.00000000  1
  Ru  Ru5  1  0.50000000  0.00000000  0.24835600  1
  Ru  Ru6  1  0.50000000  0.00000000  0.50000000  1
  Ru  Ru7  1  0.50000000  0.00000000  0.75164400  1
  Ru  Ru8  1  0.00000000  0.50000000  0.00000000  1
  Ru  Ru9  1  0.00000000  0.50000000  0.24835600  1
  Ru  Ru10  1  0.00000000  0.50000000  0.50000000  1
  Ru  Ru11  1  0.00000000  0.50000000  0.75164400  1
loop_
_geom_bond_atom_site_label_1
_geom_bond_atom_site_label_2
_geom_bond_distance
_geom_bond_site_symmetry_2
B0 Ru1 2.021639 1_555
B0 Ru9 2.082570 1_555
B0 Ru9 2.082570 1_655
B0 Ru5 2.082570 1_565
B0 Ru5 2.082570 1_555
B0 Ru2 2.165212 1_555
B1 Ru10 2.077975 1_555
B1 Ru6 2.077975 1_565
B1 Ru10 2.077975 1_655
B1 Ru6 2.077975 1_555
B1 Ru2 2.095522 1_555
B1 Ru3 2.095522 1_555
B2 Ru0 2.021639 1_555
B2 Ru7 2.082570 1_565
B2 Ru7 2.082570 1_555
B2 Ru11 2.082570 1_655
B2 Ru11 2.082570 1_555
B2 Ru3 2.165212 1_555
Ru0 U0 2.938702 1_555
Ru0 U0 2.938702 1_655
Ru0 U0 2.938702 1_565
Ru0 U0 2.938702 1_665
Ru1 U1 2.938702 1_555
Ru1 U1 2.938702 1_565
Ru1 U1 2.938702 1_655
Ru1 U1 2.938702 1_665
Ru2 U2 2.938704 1_555
Ru2 U2 2.938704 1_655
Ru2 U2 2.938704 1_565
Ru2 U2 2.938704 1_665
Ru3 U3 2.938704 1_655
Ru3 U3 2.938704 1_565
Ru3 U3 2.938704 1_665
Ru3 U3 2.938704 1_555
Ru4 U0 2.819718 1_554
Ru4 U0 2.819718 1_654
Ru4 U1 2.819718 1_655
Ru4 U1 2.819718 1_555
Ru5 U2 2.905910 1_555
Ru5 U2 2.905910 1_655
Ru5 U1 2.999142 1_555
Ru5 U1 2.999142 1_655
Ru6 U3 2.948019 1_555
Ru6 U3 2.948019 1_655
Ru6 U2 2.948019 1_555
Ru6 U2 2.948019 1_655
Ru7 U3 2.905910 1_655
Ru7 U3 2.905910 1_555
Ru7 U0 2.999142 1_655
Ru7 U0 2.999142 1_555
Ru8 U0 2.819718 1_564
Ru8 U0 2.819718 1_554
Ru8 U1 2.819718 1_555
Ru8 U1 2.819718 1_565
Ru9 U2 2.905910 1_565
Ru9 U2 2.905910 1_555
Ru9 U1 2.999142 1_555
Ru9 U1 2.999142 1_565
Ru10 U3 2.948019 1_555
Ru10 U3 2.948019 1_565
Ru10 U2 2.948019 1_555
Ru10 U2 2.948019 1_565
Ru11 U3 2.905910 1_565
Ru11 U3 2.905910 1_555
Ru11 U0 2.999142 1_565
Ru11 U0 2.999142 1_555
