# generated using pymatgen
data_MnPO4
_symmetry_space_group_name_H-M   'P 1'
_cell_length_a   9.45954719
_cell_length_b   9.45954719
_cell_length_c   15.67820204
_cell_angle_alpha   64.79607681
_cell_angle_beta   64.79607681
_cell_angle_gamma   30.44331123
_symmetry_Int_Tables_number   1
_chemical_formula_structural   MnPO4
_chemical_formula_sum   'Mn8 P8 O32'
_cell_volume   637.87609333
_cell_formula_units_Z   8
loop_
 _symmetry_equiv_pos_site_id
 _symmetry_equiv_pos_as_xyz
  1  'x, y, z'
loop_
 _atom_site_type_symbol
 _atom_site_label
 _atom_site_symmetry_multiplicity
 _atom_site_fract_x
 _atom_site_fract_y
 _atom_site_fract_z
 _atom_site_occupancy
  Mn  Mn0  1  0.37984700  0.82882800  0.02641300  1
  Mn  Mn1  1  0.17117200  0.62015300  0.47358700  1
  Mn  Mn2  1  0.62015300  0.17117200  0.97358700  1
  Mn  Mn3  1  0.00000000  0.50000000  0.00000000  1
  Mn  Mn4  1  0.82882800  0.37984700  0.52641300  1
  Mn  Mn5  1  0.65735300  0.34264700  0.75000000  1
  Mn  Mn6  1  0.34264700  0.65735300  0.25000000  1
  Mn  Mn7  1  0.50000000  0.00000000  0.50000000  1
  P  P0  1  0.47873000  0.95835200  0.13634300  1
  P  P1  1  0.80527400  0.22458800  0.38105400  1
  P  P2  1  0.52127000  0.04164800  0.86365700  1
  P  P3  1  0.22458800  0.80527400  0.88105400  1
  P  P4  1  0.95835200  0.47873000  0.63634300  1
  P  P5  1  0.04164800  0.52127000  0.36365700  1
  P  P6  1  0.19472600  0.77541200  0.61894600  1
  P  P7  1  0.77541200  0.19472600  0.11894600  1
  O  O0  1  0.19478100  0.29934500  0.90061700  1
  O  O1  1  0.72223000  0.13725500  0.07128000  1
  O  O2  1  0.29934500  0.19478100  0.40061700  1
  O  O3  1  0.60991200  0.24800900  0.44641700  1
  O  O4  1  0.64691600  0.79815400  0.94569400  1
  O  O5  1  0.67665800  0.42999400  0.28829500  1
  O  O6  1  0.75199100  0.39008800  0.05358300  1
  O  O7  1  0.90037900  0.10600800  0.86039800  1
  O  O8  1  0.39008800  0.75199100  0.55358300  1
  O  O9  1  0.86274500  0.27777000  0.42872000  1
  O  O10  1  0.62551600  0.11293100  0.86889200  1
  O  O11  1  0.01293000  0.39693700  0.73376700  1
  O  O12  1  0.27777000  0.86274500  0.92872000  1
  O  O13  1  0.10600800  0.90037900  0.36039800  1
  O  O14  1  0.80521900  0.70065500  0.09938300  1
  O  O15  1  0.37448400  0.88706900  0.13110800  1
  O  O16  1  0.39693700  0.01293000  0.23376700  1
  O  O17  1  0.24800900  0.60991200  0.94641700  1
  O  O18  1  0.11293100  0.62551600  0.36889200  1
  O  O19  1  0.98707000  0.60306300  0.26623300  1
  O  O20  1  0.89399200  0.09962100  0.63960200  1
  O  O21  1  0.79815400  0.64691600  0.44569400  1
  O  O22  1  0.09962100  0.89399200  0.13960200  1
  O  O23  1  0.42999400  0.67665800  0.78829500  1
  O  O24  1  0.13725500  0.72223000  0.57128000  1
  O  O25  1  0.70065500  0.80521900  0.59938300  1
  O  O26  1  0.60306300  0.98707000  0.76623300  1
  O  O27  1  0.20184600  0.35308400  0.55430600  1
  O  O28  1  0.35308400  0.20184600  0.05430600  1
  O  O29  1  0.57000600  0.32334200  0.21170500  1
  O  O30  1  0.32334200  0.57000600  0.71170500  1
  O  O31  1  0.88706900  0.37448400  0.63110800  1
loop_
_geom_bond_atom_site_label_1
_geom_bond_atom_site_label_2
_geom_bond_distance
_geom_bond_site_symmetry_2
Mn0 O15 1.910882 1_555
Mn0 O12 1.920463 1_554
Mn0 O6 2.092458 1_555
Mn0 O4 2.096189 1_554
Mn0 O22 2.159569 1_555
Mn1 O18 1.910882 1_555
Mn1 O24 1.920463 1_555
Mn1 O3 2.092458 1_555
Mn1 O27 2.096189 1_555
Mn1 O13 2.159569 1_555
Mn2 O10 1.910882 1_555
Mn2 O1 1.920463 1_556
Mn2 O17 2.092458 1_555
Mn2 O28 2.096189 1_556
Mn2 O7 2.159569 1_555
Mn3 O14 1.862524 1_455
Mn3 O0 1.862524 1_554
Mn3 O28 1.992288 1_555
Mn3 O4 1.992288 1_454
Mn4 O31 1.910882 1_555
Mn4 O9 1.920463 1_555
Mn4 O8 2.092458 1_555
Mn4 O21 2.096189 1_555
Mn4 O20 2.159569 1_555
Mn5 O23 1.941120 1_555
Mn5 O30 1.941120 1_555
Mn5 O7 2.123090 1_555
Mn5 O20 2.123090 1_555
Mn5 O31 2.342596 1_555
Mn5 O10 2.342596 1_555
Mn6 O5 1.941120 1_555
Mn6 O29 1.941120 1_555
Mn6 O13 2.123090 1_555
Mn6 O22 2.123090 1_555
Mn6 O15 2.342596 1_555
Mn6 O18 2.342596 1_555
Mn7 O25 1.862524 1_545
Mn7 O2 1.862524 1_555
Mn7 O27 1.992288 1_555
Mn7 O21 1.992288 1_545
O0 P2 1.585571 1_555
O1 P7 1.498307 1_555
O2 P5 1.585571 1_555
O3 P1 1.545621 1_555
O4 P2 1.559086 1_565
O5 P1 1.547501 1_555
O6 P7 1.545621 1_555
O7 P3 1.619000 1_645
O8 P6 1.545621 1_555
O9 P1 1.498307 1_555
O10 P2 1.642091 1_555
O11 P4 1.474643 1_455
O12 P3 1.498307 1_555
O13 P1 1.619000 1_465
O14 P0 1.585571 1_555
O15 P0 1.642091 1_555
O16 P0 1.474643 1_545
O17 P3 1.545621 1_555
O18 P5 1.642091 1_555
O19 P5 1.474643 1_655
O20 P6 1.619000 1_645
O21 P5 1.559086 1_655
O22 P7 1.619000 1_465
O23 P3 1.547501 1_555
O24 P6 1.498307 1_555
O25 P4 1.585571 1_555
O26 P2 1.474643 1_565
O27 P4 1.559086 1_455
O28 P0 1.559086 1_545
O29 P7 1.547501 1_555
O30 P6 1.547501 1_555
O31 P4 1.642091 1_555
