# generated using pymatgen
data_MgSb3P3O13
_symmetry_space_group_name_H-M   'P 1'
_cell_length_a   6.98829600
_cell_length_b   8.22179100
_cell_length_c   11.07477822
_cell_angle_alpha   77.74632410
_cell_angle_beta   90.00000000
_cell_angle_gamma   90.00000000
_symmetry_Int_Tables_number   1
_chemical_formula_structural   MgSb3P3O13
_chemical_formula_sum   'Mg2 Sb6 P6 O26'
_cell_volume   621.81900981
_cell_formula_units_Z   2
loop_
 _symmetry_equiv_pos_site_id
 _symmetry_equiv_pos_as_xyz
  1  'x, y, z'
loop_
 _atom_site_type_symbol
 _atom_site_label
 _atom_site_symmetry_multiplicity
 _atom_site_fract_x
 _atom_site_fract_y
 _atom_site_fract_z
 _atom_site_occupancy
  Mg  Mg0  1  0.75000000  0.42804200  0.16096600  1
  Mg  Mg1  1  0.25000000  0.57195800  0.83903400  1
  Sb  Sb0  1  0.25000000  0.65146600  0.23664000  1
  Sb  Sb1  1  0.75000000  0.34853400  0.76336000  1
  Sb  Sb2  1  0.25000000  0.23360500  0.43291500  1
  Sb  Sb3  1  0.50000000  0.00000000  0.00000000  1
  Sb  Sb4  1  0.75000000  0.76639500  0.56708500  1
  Sb  Sb5  1  0.00000000  0.00000000  0.00000000  1
  P  P0  1  0.25000000  0.80348000  0.51993700  1
  P  P1  1  0.75000000  0.19652000  0.48006300  1
  P  P2  1  0.25000000  0.27180900  0.76246200  1
  P  P3  1  0.75000000  0.72819100  0.23753800  1
  P  P4  1  0.75000000  0.68224400  0.89987800  1
  P  P5  1  0.25000000  0.31775600  0.10012200  1
  O  O0  1  0.75000000  0.66408200  0.76232500  1
  O  O1  1  0.57317100  0.23033000  0.39396200  1
  O  O2  1  0.25000000  0.21566900  0.64140200  1
  O  O3  1  0.56029100  0.77259300  0.91920300  1
  O  O4  1  0.75000000  0.31115000  0.57631100  1
  O  O5  1  0.75000000  0.12700600  0.88412700  1
  O  O6  1  0.25000000  0.68885000  0.42368900  1
  O  O7  1  0.06029100  0.22740700  0.08079700  1
  O  O8  1  0.25000000  0.98553100  0.43834000  1
  O  O9  1  0.75000000  0.01446900  0.56166000  1
  O  O10  1  0.07916100  0.38775900  0.78221600  1
  O  O11  1  0.25000000  0.87299400  0.11587300  1
  O  O12  1  0.57916100  0.61224100  0.21778400  1
  O  O13  1  0.75000000  0.50273200  0.97993200  1
  O  O14  1  0.75000000  0.78433100  0.35859800  1
  O  O15  1  0.43970900  0.22740700  0.08079700  1
  O  O16  1  0.92682900  0.23033000  0.39396200  1
  O  O17  1  0.42682900  0.76967000  0.60603800  1
  O  O18  1  0.42083900  0.38775900  0.78221600  1
  O  O19  1  0.25000000  0.33591800  0.23767500  1
  O  O20  1  0.75000000  0.89000600  0.13200500  1
  O  O21  1  0.25000000  0.10999400  0.86799500  1
  O  O22  1  0.92083900  0.61224100  0.21778400  1
  O  O23  1  0.93970900  0.77259300  0.91920300  1
  O  O24  1  0.07317100  0.76967000  0.60603800  1
  O  O25  1  0.25000000  0.49726800  0.02006800  1
loop_
_geom_bond_atom_site_label_1
_geom_bond_atom_site_label_2
_geom_bond_distance
_geom_bond_site_symmetry_2
Mg0 O13 1.968287 1_554
Mg0 O22 2.125875 1_555
Mg0 O12 2.125875 1_555
Mg1 O25 1.968287 1_556
Mg1 O18 2.125875 1_555
Mg1 O10 2.125875 1_555
O0 P4 1.561893 1_555
O0 Sb4 2.147281 1_555
O0 Sb1 2.591961 1_555
O1 P1 1.549532 1_555
O1 Sb2 2.300477 1_555
O2 P2 1.507727 1_555
O2 Sb2 2.282203 1_555
O3 P4 1.556496 1_555
O3 Sb3 2.276866 1_566
O4 P1 1.565524 1_555
O4 Sb1 2.157768 1_555
O5 Sb1 2.017950 1_555
O5 Sb3 2.284869 1_556
O5 Sb5 2.284869 1_656
O6 P0 1.565524 1_555
O6 Sb0 2.157768 1_555
O7 P5 1.556496 1_555
O7 Sb5 2.276866 1_555
O8 P0 1.575700 1_555
O8 Sb2 2.027711 1_565
O9 P1 1.575700 1_555
O9 Sb4 2.027711 1_545
O10 P2 1.571794 1_555
O10 Sb1 2.338261 1_455
O11 Sb0 2.017950 1_555
O11 Sb3 2.284869 1_565
O11 Sb5 2.284869 1_565
O12 P3 1.571794 1_555
O12 Sb0 2.338261 1_555
O13 P4 1.552062 1_555
O14 P3 1.507727 1_555
O14 Sb4 2.282203 1_555
O15 P5 1.556496 1_555
O15 Sb3 2.276866 1_555
O16 P1 1.549532 1_555
O16 Sb2 2.300477 1_655
O17 P0 1.549532 1_555
O17 Sb4 2.300477 1_555
O18 P2 1.571794 1_555
O18 Sb1 2.338261 1_555
O19 P5 1.561893 1_555
O19 Sb2 2.147281 1_555
O19 Sb0 2.591961 1_555
O20 P3 1.573512 1_555
O20 Sb5 2.333696 1_665
O20 Sb3 2.333696 1_565
O21 P2 1.573512 1_555
O21 Sb3 2.333696 1_556
O21 Sb5 2.333696 1_556
O22 P3 1.571794 1_555
O22 Sb0 2.338261 1_655
O23 P4 1.556496 1_555
O23 Sb5 2.276866 1_666
O24 P0 1.549532 1_555
O24 Sb4 2.300477 1_455
O25 P5 1.552062 1_555
