# generated using pymatgen
data_Ba4Ca4Cu6Hg2O17
_symmetry_space_group_name_H-M   'P 1'
_cell_length_a   16.48218800
_cell_length_b   16.48218800
_cell_length_c   16.48218800
_cell_angle_alpha   160.92587917
_cell_angle_beta   160.92587917
_cell_angle_gamma   27.10246251
_symmetry_Int_Tables_number   1
_chemical_formula_structural   Ba4Ca4Cu6Hg2O17
_chemical_formula_sum   'Ba4 Ca4 Cu6 Hg2 O17'
_cell_volume   477.98231744
_cell_formula_units_Z   1
loop_
 _symmetry_equiv_pos_site_id
 _symmetry_equiv_pos_as_xyz
  1  'x, y, z'
loop_
 _atom_site_type_symbol
 _atom_site_label
 _atom_site_symmetry_multiplicity
 _atom_site_fract_x
 _atom_site_fract_y
 _atom_site_fract_z
 _atom_site_occupancy
  Ba  Ba0  1  0.08755300  0.08755300  0.00000000  1
  Ba  Ba1  1  0.58202800  0.58202800  0.00000000  1
  Ba  Ba2  1  0.91244700  0.91244700  0.00000000  1
  Ba  Ba3  1  0.41797200  0.41797200  0.00000000  1
  Ca  Ca0  1  0.19940100  0.19940100  0.00000000  1
  Ca  Ca1  1  0.69828200  0.69828200  0.00000000  1
  Ca  Ca2  1  0.80059900  0.80059900  0.00000000  1
  Ca  Ca3  1  0.30171800  0.30171800  0.00000000  1
  Cu  Cu0  1  0.65044800  0.15044800  0.50000000  1
  Cu  Cu1  1  0.15044800  0.65044800  0.50000000  1
  Cu  Cu2  1  0.34955200  0.84955200  0.50000000  1
  Cu  Cu3  1  0.84955200  0.34955200  0.50000000  1
  Cu  Cu4  1  0.25000000  0.75000000  0.50000000  1
  Cu  Cu5  1  0.75000000  0.25000000  0.50000000  1
  Hg  Hg0  1  0.50000000  0.00000000  0.50000000  1
  Hg  Hg1  1  0.00000000  0.50000000  0.50000000  1
  O  O0  1  0.56436700  0.06436700  0.50000000  1
  O  O1  1  0.06436700  0.56436700  0.50000000  1
  O  O2  1  0.43563300  0.93563300  0.50000000  1
  O  O3  1  0.93563300  0.43563300  0.50000000  1
  O  O4  1  0.90394700  0.90394700  0.50321800  1
  O  O5  1  0.40072900  0.40072900  0.49678200  1
  O  O6  1  0.90394700  0.40072900  0.00000000  1
  O  O7  1  0.40072900  0.90394700  0.00000000  1
  O  O8  1  0.59927100  0.59927100  0.50321800  1
  O  O9  1  0.09605300  0.09605300  0.49678200  1
  O  O10  1  0.59927100  0.09605300  0.00000000  1
  O  O11  1  0.09605300  0.59927100  0.00000000  1
  O  O12  1  0.50000000  0.50000000  0.50000000  1
  O  O13  1  0.00000000  0.00000000  0.50000000  1
  O  O14  1  0.50000000  0.00000000  0.00000000  1
  O  O15  1  0.00000000  0.50000000  0.00000000  1
  O  O16  1  0.50000000  0.50000000  0.00000000  1
loop_
_geom_bond_atom_site_label_1
_geom_bond_atom_site_label_2
_geom_bond_distance
_geom_bond_site_symmetry_2
Ba0 O4 2.826894 1_444
Ba0 O6 2.826894 1_455
Ba0 O5 2.826894 1_555
Ba0 O7 2.826894 1_545
Ba0 O0 2.830141 1_555
Ba0 O0 2.830141 1_454
Ba0 O1 2.830141 1_555
Ba0 O1 2.830141 1_544
Ba1 O16 2.628725 1_555
Ba1 O0 2.788893 1_565
Ba1 O1 2.788893 1_655
Ba1 O0 2.788893 1_554
Ba1 O1 2.788893 1_554
Ba1 O4 2.975545 1_555
Ba1 O7 2.975545 1_555
Ba1 O5 2.975545 1_554
Ba1 O6 2.975545 1_555
Ba2 O10 2.826894 1_565
Ba2 O8 2.826894 1_554
Ba2 O11 2.826894 1_655
Ba2 O9 2.826894 1_665
Ba2 O3 2.830141 1_565
Ba2 O2 2.830141 1_554
Ba2 O3 2.830141 1_554
Ba2 O2 2.830141 1_655
Ba3 O16 2.628725 1_555
Ba3 O2 2.788893 1_544
Ba3 O3 2.788893 1_454
Ba3 O2 2.788893 1_555
Ba3 O3 2.788893 1_555
Ba3 O10 2.975545 1_555
Ba3 O11 2.975545 1_555
Ba3 O9 2.975545 1_554
Ba3 O8 2.975545 1_555
Ca0 O5 2.440422 1_555
Ca0 O7 2.440422 1_545
Ca0 O6 2.440422 1_455
Ca0 O4 2.440422 1_444
Ca0 O14 2.521539 1_555
Ca0 O15 2.521539 1_555
Ca0 O12 2.521539 1_555
Ca0 O13 2.521539 1_554
Ca1 O5 2.438190 1_554
Ca1 O7 2.438190 1_555
Ca1 O6 2.438190 1_555
Ca1 O4 2.438190 1_555
Ca1 O13 2.544747 1_665
Ca1 O12 2.544747 1_554
Ca1 O14 2.544747 1_565
Ca1 O15 2.544747 1_655
Ca2 O8 2.440422 1_554
Ca2 O9 2.440422 1_665
Ca2 O10 2.440422 1_565
Ca2 O11 2.440422 1_655
Ca2 O15 2.521539 1_655
Ca2 O14 2.521539 1_565
Ca2 O13 2.521539 1_665
Ca2 O12 2.521539 1_554
Ca3 O9 2.438190 1_554
Ca3 O8 2.438190 1_555
Ca3 O11 2.438190 1_555
Ca3 O10 2.438190 1_555
Ca3 O14 2.544747 1_555
Ca3 O15 2.544747 1_555
Ca3 O12 2.544747 1_555
Ca3 O13 2.544747 1_554
Cu0 O4 1.931999 1_545
Cu0 O6 1.931999 1_556
Cu0 O7 1.931999 1_545
Cu0 O5 1.931999 1_555
Cu1 O4 1.931999 1_455
Cu1 O6 1.931999 1_455
Cu1 O5 1.931999 1_555
Cu1 O7 1.931999 1_556
Cu2 O8 1.931999 1_555
Cu2 O11 1.931999 1_555
Cu2 O10 1.931999 1_566
Cu2 O9 1.931999 1_565
Cu3 O9 1.931999 1_655
Cu3 O8 1.931999 1_555
Cu3 O10 1.931999 1_555
Cu3 O11 1.931999 1_656
Cu4 O14 1.931010 1_566
Cu4 O13 1.931010 1_565
Cu4 O12 1.931010 1_555
Cu4 O15 1.931010 1_555
Cu5 O15 1.931010 1_656
Cu5 O13 1.931010 1_655
Cu5 O12 1.931010 1_555
Cu5 O14 1.931010 1_555
Hg0 O0 2.062748 1_555
Hg0 O2 2.062748 1_545
Hg1 O1 2.062748 1_555
Hg1 O3 2.062748 1_455
