# generated using pymatgen
data_HfTi4(PbO3)5
_symmetry_space_group_name_H-M   'P 1'
_cell_length_a   3.97143100
_cell_length_b   19.70525400
_cell_length_c   4.33295600
_cell_angle_alpha   90.00000000
_cell_angle_beta   90.00000000
_cell_angle_gamma   90.00000000
_symmetry_Int_Tables_number   1
_chemical_formula_structural   HfTi4(PbO3)5
_chemical_formula_sum   'Hf1 Ti4 Pb5 O15'
_cell_volume   339.08871589
_cell_formula_units_Z   1
loop_
 _symmetry_equiv_pos_site_id
 _symmetry_equiv_pos_as_xyz
  1  'x, y, z'
loop_
 _atom_site_type_symbol
 _atom_site_label
 _atom_site_symmetry_multiplicity
 _atom_site_fract_x
 _atom_site_fract_y
 _atom_site_fract_z
 _atom_site_occupancy
  Hf  Hf0  1  0.50000000  0.10000000  0.53615700  1
  Ti  Ti0  1  0.50000000  0.30199500  0.52461300  1
  Ti  Ti1  1  0.50000000  0.50029800  0.52446400  1
  Ti  Ti2  1  0.50000000  0.69970200  0.52446400  1
  Ti  Ti3  1  0.50000000  0.89800500  0.52461300  1
  Pb  Pb0  1  0.00000000  0.99650800  0.98618700  1
  Pb  Pb1  1  0.00000000  0.20349200  0.98618700  1
  Pb  Pb2  1  0.00000000  0.40055000  0.97678800  1
  Pb  Pb3  1  0.00000000  0.60000000  0.97559600  1
  Pb  Pb4  1  0.00000000  0.79945000  0.97678800  1
  O  O0  1  0.50000000  0.10000000  0.07933200  1
  O  O1  1  0.50000000  0.30093900  0.11637300  1
  O  O2  1  0.50000000  0.50006900  0.11843000  1
  O  O3  1  0.50000000  0.69993100  0.11843000  1
  O  O4  1  0.50000000  0.89906100  0.11637300  1
  O  O5  1  0.00000000  0.10000000  0.62149400  1
  O  O6  1  0.00000000  0.30147600  0.61288000  1
  O  O7  1  0.00000000  0.50007400  0.61301900  1
  O  O8  1  0.00000000  0.69992600  0.61301900  1
  O  O9  1  0.00000000  0.89852400  0.61288000  1
  O  O10  1  0.50000000  0.99525700  0.61381000  1
  O  O11  1  0.50000000  0.20474300  0.61381000  1
  O  O12  1  0.50000000  0.40107600  0.61518900  1
  O  O13  1  0.50000000  0.60000000  0.61391400  1
  O  O14  1  0.50000000  0.79892400  0.61518900  1
loop_
_geom_bond_atom_site_label_1
_geom_bond_atom_site_label_2
_geom_bond_distance
_geom_bond_site_symmetry_2
Hf0 O0 1.979403 1_555
Hf0 O5 2.019849 1_555
Hf0 O5 2.019849 1_655
Hf0 O11 2.091233 1_555
Hf0 O10 2.091233 1_545
Hf0 O0 2.353553 1_556
O1 Ti0 1.769008 1_555
O2 Ti1 1.759333 1_555
O3 Ti2 1.759333 1_555
O4 Ti3 1.769008 1_555
O5 Pb1 2.579907 1_555
O5 Pb0 2.579907 1_545
O6 Ti0 2.022237 1_555
O6 Ti0 2.022237 1_455
O6 Pb2 2.509518 1_555
O6 Pb1 2.518803 1_555
O7 Ti1 2.022453 1_555
O7 Ti1 2.022453 1_455
O7 Pb2 2.516045 1_555
O7 Pb3 2.519000 1_555
O8 Ti2 2.022453 1_555
O8 Ti2 2.022453 1_455
O8 Pb4 2.516045 1_555
O8 Pb3 2.519000 1_555
O9 Ti3 2.022237 1_455
O9 Ti3 2.022237 1_555
O9 Pb4 2.509518 1_555
O9 Pb0 2.518803 1_555
O10 Ti3 1.954959 1_555
O10 Pb0 2.558717 1_655
O10 Pb0 2.558717 1_555
O11 Ti0 1.954959 1_555
O11 Pb1 2.558717 1_655
O11 Pb1 2.558717 1_555
O12 Ti0 1.991471 1_555
O12 Ti1 1.994322 1_555
O12 Pb2 2.529429 1_655
O12 Pb2 2.529429 1_555
O13 Ti2 2.002519 1_555
O13 Ti1 2.002519 1_555
O13 Pb3 2.529631 1_555
O13 Pb3 2.529631 1_655
O14 Ti3 1.991471 1_555
O14 Ti2 1.994322 1_555
O14 Pb4 2.529429 1_655
O14 Pb4 2.529429 1_555
