# generated using pymatgen
data_GaAg3
_symmetry_space_group_name_H-M   'P 1'
_cell_length_a   5.78638356
_cell_length_b   5.78638356
_cell_length_c   4.67428026
_cell_angle_alpha   90.00000000
_cell_angle_beta   90.00000000
_cell_angle_gamma   119.99999247
_symmetry_Int_Tables_number   1
_chemical_formula_structural   GaAg3
_chemical_formula_sum   'Ga2 Ag6'
_cell_volume   135.53761818
_cell_formula_units_Z   2
loop_
 _symmetry_equiv_pos_site_id
 _symmetry_equiv_pos_as_xyz
  1  'x, y, z'
loop_
 _atom_site_type_symbol
 _atom_site_label
 _atom_site_symmetry_multiplicity
 _atom_site_fract_x
 _atom_site_fract_y
 _atom_site_fract_z
 _atom_site_occupancy
  Ga  Ga0  1  0.33333300  0.66666700  0.75000000  1
  Ga  Ga1  1  0.66666700  0.33333300  0.25000000  1
  Ag  Ag0  1  0.16789237  0.33578573  0.25000000  1
  Ag  Ag1  1  0.66421427  0.83210763  0.25000000  1
  Ag  Ag2  1  0.16789237  0.83210763  0.25000000  1
  Ag  Ag3  1  0.83210763  0.66421427  0.75000000  1
  Ag  Ag4  1  0.33578573  0.16789237  0.75000000  1
  Ag  Ag5  1  0.83210763  0.16789237  0.75000000  1
loop_
_geom_bond_atom_site_label_1
_geom_bond_atom_site_label_2
_geom_bond_distance
_geom_bond_site_symmetry_2
Ag0 Ga0 2.865573 1_555
Ag0 Ga0 2.865573 1_554
Ag0 Ag2 2.871909 1_555
Ag0 Ag1 2.871909 1_555
Ag0 Ag5 2.879861 1_454
Ag0 Ag5 2.879861 1_455
Ag0 Ag4 2.879867 1_555
Ag0 Ag4 2.879867 1_554
Ag0 Ga1 2.893212 1_455
Ag0 Ga1 2.893224 1_555
Ag0 Ag2 2.914475 1_545
Ag0 Ag1 2.914475 1_445
Ag1 Ga0 2.865573 1_555
Ag1 Ga0 2.865573 1_554
Ag1 Ag2 2.871909 1_555
Ag1 Ag5 2.879861 1_564
Ag1 Ag5 2.879861 1_565
Ag1 Ag3 2.879867 1_554
Ag1 Ag3 2.879867 1_555
Ag1 Ga1 2.893212 1_565
Ag1 Ga1 2.893224 1_555
Ag1 Ag2 2.914475 1_655
Ag2 Ga0 2.865573 1_555
Ag2 Ga0 2.865573 1_554
Ag2 Ag3 2.879861 1_455
Ag2 Ag3 2.879861 1_454
Ag2 Ag4 2.879861 1_565
Ag2 Ag4 2.879861 1_564
Ag2 Ga1 2.893218 1_455
Ag2 Ga1 2.893218 1_565
Ag3 Ga1 2.865573 1_556
Ag3 Ga1 2.865573 1_555
Ag3 Ag5 2.871909 1_555
Ag3 Ag4 2.871909 1_555
Ag3 Ga0 2.893212 1_655
Ag3 Ga0 2.893224 1_555
Ag3 Ag5 2.914475 1_565
Ag3 Ag4 2.914475 1_665
Ag4 Ga1 2.865573 1_556
Ag4 Ga1 2.865573 1_555
Ag4 Ag5 2.871909 1_555
Ag4 Ga0 2.893212 1_545
Ag4 Ga0 2.893224 1_555
Ag4 Ag5 2.914475 1_455
Ag5 Ga1 2.865573 1_556
Ag5 Ga1 2.865573 1_555
Ag5 Ga0 2.893218 1_545
Ag5 Ga0 2.893218 1_655
