# generated using pymatgen
data_Ba10Pr5Ir(Ru2O15)2
_symmetry_space_group_name_H-M   'P 1'
_cell_length_a   6.10021287
_cell_length_b   25.24076746
_cell_length_c   6.10021287
_cell_angle_alpha   83.23092966
_cell_angle_beta   120.34890467
_cell_angle_gamma   96.76907034
_symmetry_Int_Tables_number   1
_chemical_formula_structural   Ba10Pr5Ir(Ru2O15)2
_chemical_formula_sum   'Ba10 Pr5 Ir1 Ru4 O30'
_cell_volume   803.04472902
_cell_formula_units_Z   1
loop_
 _symmetry_equiv_pos_site_id
 _symmetry_equiv_pos_as_xyz
  1  'x, y, z'
loop_
 _atom_site_type_symbol
 _atom_site_label
 _atom_site_symmetry_multiplicity
 _atom_site_fract_x
 _atom_site_fract_y
 _atom_site_fract_z
 _atom_site_occupancy
  Ba  Ba0  1  0.24807800  0.25194000  0.75192200  1
  Ba  Ba1  1  0.64765900  0.45092000  0.35234100  1
  Ba  Ba2  1  0.04768200  0.65093600  0.95231800  1
  Ba  Ba3  1  0.44753600  0.85062000  0.55246400  1
  Ba  Ba4  1  0.84759800  0.05013700  0.15240200  1
  Ba  Ba5  1  0.95246400  0.34938000  0.04753600  1
  Ba  Ba6  1  0.35231800  0.54906400  0.64768200  1
  Ba  Ba7  1  0.75234100  0.74908000  0.24765900  1
  Ba  Ba8  1  0.15192200  0.94806000  0.84807800  1
  Ba  Ba9  1  0.55240200  0.14986300  0.44759800  1
  Pr  Pr0  1  0.29998100  0.40008900  0.70001900  1
  Pr  Pr1  1  0.70000000  0.60000000  0.30000000  1
  Pr  Pr2  1  0.10001900  0.79991100  0.89998100  1
  Pr  Pr3  1  0.50014100  0.00007300  0.49985900  1
  Pr  Pr4  1  0.89985900  0.19992700  0.10014100  1
  Ir  Ir0  1  0.20000000  0.10000000  0.80000000  1
  Ru  Ru0  1  0.59991500  0.29975100  0.40008500  1
  Ru  Ru1  1  0.00002400  0.49993500  0.99997600  1
  Ru  Ru2  1  0.39997600  0.70006500  0.60002400  1
  Ru  Ru3  1  0.80008500  0.90024900  0.19991500  1
  O  O0  1  0.45932500  0.34545000  0.07783300  1
  O  O1  1  0.85947200  0.54562300  0.67798200  1
  O  O2  1  0.25962100  0.74561200  0.27827900  1
  O  O3  1  0.65966100  0.94588000  0.87808200  1
  O  O4  1  0.05973600  0.14543400  0.47774200  1
  O  O5  1  0.92216700  0.34545000  0.54067500  1
  O  O6  1  0.32201800  0.54562300  0.14052800  1
  O  O7  1  0.72172100  0.74561200  0.74037900  1
  O  O8  1  0.12191800  0.94588000  0.34033900  1
  O  O9  1  0.52225800  0.14543400  0.94026400  1
  O  O10  1  0.74033900  0.25412000  0.72191800  1
  O  O11  1  0.14037900  0.45438800  0.32172100  1
  O  O12  1  0.54052800  0.65437700  0.92201800  1
  O  O13  1  0.94067500  0.85455000  0.52216700  1
  O  O14  1  0.34026400  0.05456600  0.12225800  1
  O  O15  1  0.27808200  0.25412000  0.25966100  1
  O  O16  1  0.67827900  0.45438800  0.85962100  1
  O  O17  1  0.07798200  0.65437700  0.45947200  1
  O  O18  1  0.47783300  0.85455000  0.05932500  1
  O  O19  1  0.87774200  0.05456600  0.65973600  1
  O  O20  1  0.13806800  0.45442600  0.86193200  1
  O  O21  1  0.53825200  0.65441200  0.46174800  1
  O  O22  1  0.93836200  0.85457800  0.06163800  1
  O  O23  1  0.33849100  0.05462900  0.66150900  1
  O  O24  1  0.73805600  0.25415800  0.26194400  1
  O  O25  1  0.06150900  0.14537100  0.93849100  1
  O  O26  1  0.46163800  0.34542200  0.53836200  1
  O  O27  1  0.86174800  0.54558800  0.13825200  1
  O  O28  1  0.26193200  0.74557400  0.73806800  1
  O  O29  1  0.66194400  0.94584200  0.33805600  1
loop_
_geom_bond_atom_site_label_1
_geom_bond_atom_site_label_2
_geom_bond_distance
_geom_bond_site_symmetry_2
Ba0 O5 2.997387 1_455
Ba0 O0 2.997387 1_556
Ba0 O15 3.015763 1_556
Ba0 O10 3.015763 1_455
Ba0 O24 3.036643 1_455
Ba0 O24 3.036643 1_556
Ba0 O26 3.037708 1_555
Ba0 O10 3.093219 1_555
Ba0 O15 3.093219 1_555
Ba0 O25 3.113140 1_555
Ba0 O4 3.119993 1_555
Ba0 O9 3.119993 1_555
Ba1 O11 3.015705 1_555
Ba1 O16 3.015705 1_555
Ba1 O1 3.021101 1_555
Ba1 O6 3.021101 1_555
Ba1 O20 3.037396 1_554
Ba1 O20 3.037396 1_655
Ba1 O27 3.061561 1_555
Ba1 O26 3.089137 1_555
Ba1 O16 3.094871 1_554
Ba1 O11 3.094871 1_655
Ba1 O0 3.097878 1_555
Ba1 O5 3.097878 1_555
Ba2 O17 3.015739 1_556
Ba2 O12 3.015739 1_455
Ba2 O7 3.021589 1_455
Ba2 O2 3.021589 1_556
Ba2 O21 3.037308 1_556
Ba2 O21 3.037308 1_455
Ba2 O28 3.062127 1_555
Ba2 O27 3.085723 1_456
Ba2 O1 3.093920 1_455
Ba2 O6 3.093920 1_556
Ba2 O17 3.094634 1_555
Ba2 O12 3.094634 1_555
Ba3 O18 3.015747 1_556
Ba3 O13 3.015747 1_455
Ba3 O3 3.032545 1_555
Ba3 O8 3.032545 1_555
Ba3 O22 3.037638 1_455
Ba3 O22 3.037638 1_556
Ba3 O29 3.073219 1_555
Ba3 O28 3.077997 1_555
Ba3 O7 3.086740 1_555
Ba3 O2 3.086740 1_555
Ba3 O18 3.095279 1_555
Ba3 O13 3.095279 1_555
Ba4 O19 3.020928 1_555
Ba4 O14 3.020928 1_555
Ba4 O9 3.032408 1_554
Ba4 O4 3.032408 1_655
Ba4 O23 3.038143 1_554
Ba4 O23 3.038143 1_655
Ba4 O29 3.063613 1_545
Ba4 O25 3.070103 1_654
Ba4 O8 3.070472 1_645
Ba4 O3 3.070472 1_544
Ba4 O14 3.090786 1_655
Ba4 O19 3.090786 1_554
Ba5 O5 3.015747 1_554
Ba5 O0 3.015747 1_655
Ba5 O15 3.032545 1_655
Ba5 O10 3.032545 1_554
Ba5 O26 3.037638 1_554
Ba5 O26 3.037638 1_655
Ba5 O24 3.073219 1_555
Ba5 O20 3.077997 1_654
Ba5 O11 3.086740 1_655
Ba5 O16 3.086740 1_554
Ba5 O0 3.095279 1_555
Ba5 O5 3.095279 1_555
Ba6 O1 3.015739 1_555
Ba6 O6 3.015739 1_555
Ba6 O16 3.021589 1_555
Ba6 O11 3.021589 1_555
Ba6 O27 3.037308 1_556
Ba6 O27 3.037308 1_455
Ba6 O20 3.062127 1_555
Ba6 O21 3.085723 1_555
Ba6 O17 3.093920 1_555
Ba6 O12 3.093920 1_555
Ba6 O1 3.094634 1_455
Ba6 O6 3.094634 1_556
Ba7 O7 3.015705 1_554
Ba7 O2 3.015705 1_655
Ba7 O17 3.021101 1_655
Ba7 O12 3.021101 1_554
Ba7 O28 3.037396 1_655
Ba7 O28 3.037396 1_554
Ba7 O21 3.061561 1_555
Ba7 O22 3.089137 1_555
Ba7 O2 3.094871 1_555
Ba7 O7 3.094871 1_555
Ba7 O18 3.097878 1_555
Ba7 O13 3.097878 1_555
Ba8 O18 2.997387 1_556
Ba8 O13 2.997387 1_455
Ba8 O8 3.015763 1_555
Ba8 O3 3.015763 1_555
Ba8 O29 3.036643 1_455
Ba8 O29 3.036643 1_556
Ba8 O22 3.037708 1_456
Ba8 O8 3.093219 1_556
Ba8 O3 3.093219 1_455
Ba8 O23 3.113140 1_565
Ba8 O19 3.119993 1_465
Ba8 O14 3.119993 1_566
Ba9 O9 3.020928 1_554
Ba9 O4 3.020928 1_655
Ba9 O14 3.032408 1_555
Ba9 O19 3.032408 1_555
Ba9 O25 3.038143 1_554
Ba9 O25 3.038143 1_655
Ba9 O24 3.063613 1_555
Ba9 O23 3.070103 1_555
Ba9 O10 3.070472 1_555
Ba9 O15 3.070472 1_555
Ba9 O4 3.090786 1_555
Ba9 O9 3.090786 1_555
Ir0 O14 1.977849 1_556
Ir0 O9 1.977849 1_555
Ir0 O19 1.977849 1_455
Ir0 O4 1.977849 1_555
Ir0 O25 1.978971 1_555
Ir0 O23 1.978971 1_555
O0 Ru0 1.981267 1_555
O0 Pr0 2.336995 1_554
O1 Ru1 1.980014 1_655
O1 Pr1 2.334259 1_555
O2 Ru2 1.977106 1_555
O2 Pr2 2.334590 1_554
O3 Ru3 1.978579 1_556
O3 Pr3 2.332883 1_565
O4 Pr4 2.334112 1_455
O5 Ru0 1.981267 1_555
O5 Pr0 2.336995 1_655
O6 Ru1 1.980014 1_554
O6 Pr1 2.334259 1_555
O7 Ru2 1.977106 1_555
O7 Pr2 2.334590 1_655
O8 Ru3 1.978579 1_455
O8 Pr3 2.332883 1_565
O9 Pr4 2.334112 1_556
O10 Ru0 1.978579 1_555
O10 Pr4 2.332883 1_556
O11 Ru1 1.977106 1_554
O11 Pr0 2.334590 1_555
O12 Ru2 1.980014 1_555
O12 Pr1 2.334259 1_556
O13 Ru3 1.981267 1_555
O13 Pr2 2.336995 1_655
O14 Pr3 2.334112 1_555
O15 Ru0 1.978579 1_555
O15 Pr4 2.332883 1_455
O16 Ru1 1.977106 1_655
O16 Pr0 2.334590 1_555
O17 Ru2 1.980014 1_555
O17 Pr1 2.334259 1_455
O18 Ru3 1.981267 1_555
O18 Pr2 2.336995 1_554
O19 Pr3 2.334112 1_555
O20 Ru1 1.977468 1_555
O20 Pr0 2.335949 1_555
O21 Ru2 1.981953 1_555
O21 Pr1 2.335830 1_555
O22 Ru3 1.982271 1_555
O22 Pr2 2.339478 1_654
O23 Pr3 2.337488 1_555
O24 Ru0 1.979752 1_555
O24 Pr4 2.333164 1_555
O25 Pr4 2.337488 1_456
O26 Ru0 1.982271 1_555
O26 Pr0 2.339478 1_555
O27 Ru1 1.981953 1_654
O27 Pr1 2.335830 1_555
O28 Ru2 1.977468 1_555
O28 Pr2 2.335949 1_555
O29 Ru3 1.979752 1_555
O29 Pr3 2.333164 1_565
