# generated using pymatgen
data_CsLu(MoO4)2
_symmetry_space_group_name_H-M   'P 1'
_cell_length_a   7.53138317
_cell_length_b   7.53138317
_cell_length_c   7.70694782
_cell_angle_alpha   62.15586492
_cell_angle_beta   62.15586492
_cell_angle_gamma   88.39154237
_symmetry_Int_Tables_number   1
_chemical_formula_structural   CsLu(MoO4)2
_chemical_formula_sum   'Cs2 Lu2 Mo4 O16'
_cell_volume   331.53087504
_cell_formula_units_Z   2
loop_
 _symmetry_equiv_pos_site_id
 _symmetry_equiv_pos_as_xyz
  1  'x, y, z'
loop_
 _atom_site_type_symbol
 _atom_site_label
 _atom_site_symmetry_multiplicity
 _atom_site_fract_x
 _atom_site_fract_y
 _atom_site_fract_z
 _atom_site_occupancy
  Cs  Cs0  1  0.19616500  0.80383500  0.75000000  1
  Cs  Cs1  1  0.80383500  0.19616500  0.25000000  1
  Lu  Lu0  1  0.77137800  0.22862200  0.75000000  1
  Lu  Lu1  1  0.22862200  0.77137800  0.25000000  1
  Mo  Mo0  1  0.69787600  0.69288500  0.76805700  1
  Mo  Mo1  1  0.30212400  0.30711500  0.23194300  1
  Mo  Mo2  1  0.30711500  0.30212400  0.73194300  1
  Mo  Mo3  1  0.69288500  0.69787600  0.26805700  1
  O  O0  1  0.61629700  0.75830500  0.56683400  1
  O  O1  1  0.38370300  0.24169500  0.43316600  1
  O  O2  1  0.24169500  0.38370300  0.93316600  1
  O  O3  1  0.75830500  0.61629700  0.06683400  1
  O  O4  1  0.37776300  0.06337700  0.88081500  1
  O  O5  1  0.62223700  0.93662300  0.11918500  1
  O  O6  1  0.93662300  0.62223700  0.61918500  1
  O  O7  1  0.06337700  0.37776300  0.38081500  1
  O  O8  1  0.58806800  0.36891300  0.96333700  1
  O  O9  1  0.41193200  0.63108700  0.03666300  1
  O  O10  1  0.63108700  0.41193200  0.53666300  1
  O  O11  1  0.36891300  0.58806800  0.46333700  1
  O  O12  1  0.78584400  0.95117100  0.70150300  1
  O  O13  1  0.21415600  0.04882900  0.29849700  1
  O  O14  1  0.04882900  0.21415600  0.79849700  1
  O  O15  1  0.95117100  0.78584400  0.20150300  1
loop_
_geom_bond_atom_site_label_1
_geom_bond_atom_site_label_2
_geom_bond_distance
_geom_bond_site_symmetry_2
Cs0 O2 2.888096 1_555
Cs0 O0 2.888096 1_555
Cs0 O3 2.889626 1_456
Cs0 O1 2.889626 1_565
Cs0 O13 3.017816 1_565
Cs0 O15 3.017816 1_456
Cs0 O11 3.124794 1_555
Cs0 O9 3.124794 1_556
Cs0 O4 3.160212 1_565
Cs0 O6 3.160212 1_455
Cs0 O12 3.379334 1_455
Cs0 O14 3.379334 1_565
Cs1 O1 2.888096 1_555
Cs1 O3 2.888096 1_555
Cs1 O0 2.889626 1_545
Cs1 O2 2.889626 1_654
Cs1 O12 3.017816 1_545
Cs1 O14 3.017816 1_654
Cs1 O8 3.124794 1_554
Cs1 O10 3.124794 1_555
Cs1 O5 3.160212 1_545
Cs1 O7 3.160212 1_655
Cs1 O13 3.379334 1_655
Cs1 O15 3.379334 1_545
Lu0 O8 2.268520 1_555
Lu0 O10 2.268520 1_555
Lu0 O14 2.279629 1_655
Lu0 O12 2.279629 1_545
Lu0 O7 2.345581 1_655
Lu0 O5 2.345581 1_546
Lu0 O4 2.756174 1_555
Lu0 O6 2.756174 1_555
Lu1 O11 2.268520 1_555
Lu1 O9 2.268520 1_555
Lu1 O13 2.279629 1_565
Lu1 O15 2.279629 1_455
Lu1 O6 2.345581 1_455
Lu1 O4 2.345581 1_564
Lu1 O7 2.756174 1_555
Lu1 O5 2.756174 1_555
Mo0 O0 1.784540 1_555
Mo0 O12 1.819033 1_555
Mo0 O6 1.849881 1_555
Mo0 O9 2.032631 1_556
Mo0 O8 2.103020 1_555
Mo0 O3 2.359145 1_556
Mo1 O1 1.784540 1_555
Mo1 O13 1.819033 1_555
Mo1 O7 1.849881 1_555
Mo1 O8 2.032631 1_554
Mo1 O9 2.103020 1_555
Mo1 O2 2.359145 1_554
Mo2 O2 1.784540 1_555
Mo2 O14 1.819033 1_555
Mo2 O4 1.849881 1_555
Mo2 O11 2.032631 1_555
Mo2 O10 2.103020 1_555
Mo2 O1 2.359145 1_555
Mo3 O3 1.784540 1_555
Mo3 O15 1.819033 1_555
Mo3 O5 1.849881 1_555
Mo3 O10 2.032631 1_555
Mo3 O11 2.103020 1_555
Mo3 O0 2.359145 1_555
