# generated using pymatgen
data_Cu2HgI4
_symmetry_space_group_name_H-M   'P 1'
_cell_length_a   6.09086591
_cell_length_b   6.09086591
_cell_length_c   7.61672809
_cell_angle_alpha   113.47897178
_cell_angle_beta   113.47897178
_cell_angle_gamma   89.93336115
_symmetry_Int_Tables_number   1
_chemical_formula_structural   Cu2HgI4
_chemical_formula_sum   'Cu2 Hg1 I4'
_cell_volume   233.51027976
_cell_formula_units_Z   1
loop_
 _symmetry_equiv_pos_site_id
 _symmetry_equiv_pos_as_xyz
  1  'x, y, z'
loop_
 _atom_site_type_symbol
 _atom_site_label
 _atom_site_symmetry_multiplicity
 _atom_site_fract_x
 _atom_site_fract_y
 _atom_site_fract_z
 _atom_site_occupancy
  Cu  Cu0  1  0.24739297  0.74719259  0.49999569  1
  Cu  Cu1  1  0.74719259  0.24739297  0.49999569  1
  Hg  Hg0  1  0.50399174  0.50399174  -0.00017336  1
  I  I0  1  0.09691401  0.63317009  0.73341774  1
  I  I1  1  0.36749613  0.36749613  0.26617345  1
  I  I2  1  0.63317009  0.09691401  0.73341774  1
  I  I3  1  0.90384047  0.90384047  0.26717406  1
loop_
_geom_bond_atom_site_label_1
_geom_bond_atom_site_label_2
_geom_bond_distance
_geom_bond_site_symmetry_2
Cu0 I0 2.601380 1_555
Cu0 I1 2.609154 1_555
Cu0 I3 2.611610 1_455
Cu0 I2 2.623860 1_565
Cu1 I2 2.601380 1_555
Cu1 I1 2.609154 1_555
Cu1 I3 2.611610 1_545
Cu1 I0 2.623860 1_655
Hg0 I3 2.849489 1_555
Hg0 I2 2.853579 1_554
Hg0 I0 2.853579 1_554
Hg0 I1 2.861368 1_555
