# generated using pymatgen
data_NiSeS
_symmetry_space_group_name_H-M   'P 1'
_cell_length_a   5.78935600
_cell_length_b   5.78935600
_cell_length_c   5.78935600
_cell_angle_alpha   90.00000000
_cell_angle_beta   90.00000000
_cell_angle_gamma   90.00000000
_symmetry_Int_Tables_number   1
_chemical_formula_structural   NiSeS
_chemical_formula_sum   'Ni4 Se4 S4'
_cell_volume   194.03977764
_cell_formula_units_Z   4
loop_
 _symmetry_equiv_pos_site_id
 _symmetry_equiv_pos_as_xyz
  1  'x, y, z'
loop_
 _atom_site_type_symbol
 _atom_site_label
 _atom_site_symmetry_multiplicity
 _atom_site_fract_x
 _atom_site_fract_y
 _atom_site_fract_z
 _atom_site_occupancy
  Ni  Ni0  1  0.51049700  0.48950300  0.98950300  1
  Ni  Ni1  1  0.48950300  0.98950300  0.51049700  1
  Ni  Ni2  1  0.98950300  0.51049700  0.48950300  1
  Ni  Ni3  1  0.01049700  0.01049700  0.01049700  1
  Se  Se0  1  0.88201200  0.11798800  0.61798800  1
  Se  Se1  1  0.11798800  0.61798800  0.88201200  1
  Se  Se2  1  0.61798800  0.88201200  0.11798800  1
  Se  Se3  1  0.38201200  0.38201200  0.38201200  1
  S  S0  1  0.11317200  0.88682800  0.38682800  1
  S  S1  1  0.88682800  0.38682800  0.11317200  1
  S  S2  1  0.38682800  0.11317200  0.88682800  1
  S  S3  1  0.61317200  0.61317200  0.61317200  1
loop_
_geom_bond_atom_site_label_1
_geom_bond_atom_site_label_2
_geom_bond_distance
_geom_bond_site_symmetry_2
Ni0 S2 2.369122 1_555
Ni0 S3 2.369122 1_555
Ni0 S1 2.369122 1_556
Ni0 Se1 2.470679 1_555
Ni0 Se2 2.470679 1_556
Ni0 Se3 2.470679 1_556
Ni1 S0 2.369122 1_555
Ni1 S3 2.369122 1_555
Ni1 S2 2.369122 1_565
Ni1 Se2 2.470679 1_555
Ni1 Se0 2.470679 1_565
Ni1 Se3 2.470679 1_565
Ni2 S1 2.369122 1_555
Ni2 S3 2.369122 1_555
Ni2 S0 2.369122 1_655
Ni2 Se0 2.470679 1_555
Ni2 Se1 2.470679 1_655
Ni2 Se3 2.470679 1_655
Ni3 S2 2.369122 1_554
Ni3 S1 2.369122 1_455
Ni3 S0 2.369122 1_545
Ni3 Se1 2.470679 1_544
Ni3 Se0 2.470679 1_454
Ni3 Se2 2.470679 1_445
S0 Se0 2.317947 1_465
S1 Se1 2.317947 1_654
S2 Se2 2.317947 1_546
S3 Se3 2.317947 1_555
