# generated using pymatgen
data_MgBi2O5
_symmetry_space_group_name_H-M   'P 1'
_cell_length_a   5.51390558
_cell_length_b   8.35081829
_cell_length_c   11.87970400
_cell_angle_alpha   90.00000000
_cell_angle_beta   90.00000000
_cell_angle_gamma   105.51257255
_symmetry_Int_Tables_number   1
_chemical_formula_structural   MgBi2O5
_chemical_formula_sum   'Mg4 Bi8 O20'
_cell_volume   527.08184227
_cell_formula_units_Z   4
loop_
 _symmetry_equiv_pos_site_id
 _symmetry_equiv_pos_as_xyz
  1  'x, y, z'
loop_
 _atom_site_type_symbol
 _atom_site_label
 _atom_site_symmetry_multiplicity
 _atom_site_fract_x
 _atom_site_fract_y
 _atom_site_fract_z
 _atom_site_occupancy
  Mg  Mg0  1  0.61086200  0.16256700  0.91800700  1
  Mg  Mg1  1  0.38913800  0.83743300  0.08199300  1
  Mg  Mg2  1  0.88913800  0.33743300  0.41800700  1
  Mg  Mg3  1  0.11086200  0.66256700  0.58199300  1
  Bi  Bi0  1  0.79014600  0.95696100  0.62476600  1
  Bi  Bi1  1  0.20985400  0.04303900  0.37523400  1
  Bi  Bi2  1  0.70985400  0.54303900  0.12476600  1
  Bi  Bi3  1  0.29014600  0.45696100  0.87523400  1
  Bi  Bi4  1  0.09437800  0.14954000  0.10277900  1
  Bi  Bi5  1  0.90562200  0.85046000  0.89722100  1
  Bi  Bi6  1  0.59437800  0.64954000  0.39722100  1
  Bi  Bi7  1  0.40562200  0.35046000  0.60277900  1
  O  O0  1  0.49393400  0.33276200  0.04411400  1
  O  O1  1  0.97780700  0.31800200  0.95775200  1
  O  O2  1  0.50129200  0.68581900  0.19298100  1
  O  O3  1  0.76087300  0.51203000  0.52324500  1
  O  O4  1  0.77922000  0.47628400  0.28886400  1
  O  O5  1  0.27922000  0.97628400  0.21113600  1
  O  O6  1  0.47780700  0.81800200  0.54224800  1
  O  O7  1  0.52219300  0.18199800  0.45775200  1
  O  O8  1  0.23912700  0.48797000  0.47675500  1
  O  O9  1  0.00606600  0.16723800  0.54411400  1
  O  O10  1  0.22078000  0.52371600  0.71113600  1
  O  O11  1  0.50606600  0.66723800  0.95588600  1
  O  O12  1  0.99393400  0.83276200  0.45588600  1
  O  O13  1  0.72078000  0.02371600  0.78886400  1
  O  O14  1  0.73912700  0.98797000  0.02324500  1
  O  O15  1  0.26087300  0.01203000  0.97675500  1
  O  O16  1  0.49870800  0.31418100  0.80701900  1
  O  O17  1  0.02219300  0.68199800  0.04224800  1
  O  O18  1  0.99870800  0.81418100  0.69298100  1
  O  O19  1  0.00129200  0.18581900  0.30701900  1
loop_
_geom_bond_atom_site_label_1
_geom_bond_atom_site_label_2
_geom_bond_distance
_geom_bond_site_symmetry_2
Mg0 O16 2.035362 1_555
Mg0 O13 2.107470 1_555
Mg0 O15 2.119881 1_555
Mg0 O1 2.143996 1_555
Mg0 O14 2.177292 1_546
Mg0 O0 2.273801 1_556
Mg1 O2 2.035362 1_555
Mg1 O5 2.107470 1_555
Mg1 O14 2.119881 1_555
Mg1 O17 2.143996 1_555
Mg1 O15 2.177292 1_564
Mg1 O11 2.273801 1_554
Mg2 O19 2.035362 1_655
Mg2 O4 2.107470 1_555
Mg2 O8 2.119881 1_655
Mg2 O7 2.143996 1_555
Mg2 O3 2.177292 1_555
Mg2 O9 2.273801 1_655
Mg3 O18 2.035362 1_455
Mg3 O10 2.107470 1_555
Mg3 O3 2.119881 1_455
Mg3 O6 2.143996 1_555
Mg3 O8 2.177292 1_555
Mg3 O12 2.273801 1_455
Bi0 O18 2.033291 1_555
Bi0 O6 2.050501 1_555
Bi0 O9 2.073802 1_665
Bi0 O13 2.090789 1_565
Bi0 O12 2.643244 1_555
Bi1 O19 2.033291 1_555
Bi1 O7 2.050501 1_555
Bi1 O12 2.073802 1_445
Bi1 O5 2.090789 1_545
Bi1 O9 2.643244 1_555
Bi2 O2 2.033291 1_555
Bi2 O17 2.050501 1_655
Bi2 O0 2.073802 1_555
Bi2 O4 2.090789 1_555
Bi2 O11 2.643244 1_554
Bi3 O16 2.033291 1_555
Bi3 O1 2.050501 1_455
Bi3 O11 2.073802 1_555
Bi3 O10 2.090789 1_555
Bi3 O0 2.643244 1_556
Bi4 O15 2.228614 1_554
Bi4 O14 2.266375 1_445
Bi4 O5 2.361750 1_545
Bi4 O1 2.417478 1_454
Bi4 O0 2.424334 1_555
Bi4 O19 2.515032 1_555
Bi5 O14 2.228614 1_556
Bi5 O15 2.266375 1_665
Bi5 O13 2.361750 1_565
Bi5 O17 2.417478 1_656
Bi5 O11 2.424334 1_555
Bi5 O18 2.515032 1_555
Bi6 O3 2.228614 1_555
Bi6 O8 2.266375 1_555
Bi6 O4 2.361750 1_555
Bi6 O6 2.417478 1_555
Bi6 O12 2.424334 1_555
Bi6 O2 2.515032 1_555
Bi7 O8 2.228614 1_555
Bi7 O3 2.266375 1_555
Bi7 O10 2.361750 1_555
Bi7 O7 2.417478 1_555
Bi7 O9 2.424334 1_555
Bi7 O16 2.515032 1_555
