# generated using pymatgen
data_YNi3Sn2
_symmetry_space_group_name_H-M   'P 1'
_cell_length_a   4.05638700
_cell_length_b   9.49006716
_cell_length_c   9.49006716
_cell_angle_alpha   119.99999413
_cell_angle_beta   90.00000000
_cell_angle_gamma   90.00000000
_symmetry_Int_Tables_number   1
_chemical_formula_structural   YNi3Sn2
_chemical_formula_sum   'Y3 Ni9 Sn6'
_cell_volume   316.37970095
_cell_formula_units_Z   3
loop_
 _symmetry_equiv_pos_site_id
 _symmetry_equiv_pos_as_xyz
  1  'x, y, z'
loop_
 _atom_site_type_symbol
 _atom_site_label
 _atom_site_symmetry_multiplicity
 _atom_site_fract_x
 _atom_site_fract_y
 _atom_site_fract_z
 _atom_site_occupancy
  Y  Y0  1  0.00000000  0.00000000  0.00000000  1
  Y  Y1  1  0.50000000  0.66666700  0.33333300  1
  Y  Y2  1  0.50000000  0.33333300  0.66666700  1
  Ni  Ni0  1  0.00000000  0.81660300  0.18339700  1
  Ni  Ni1  1  0.00000000  0.18339700  0.81660300  1
  Ni  Ni2  1  0.00000000  0.36679400  0.18339700  1
  Ni  Ni3  1  0.00000000  0.63320600  0.81660300  1
  Ni  Ni4  1  0.00000000  0.81660300  0.63320600  1
  Ni  Ni5  1  0.00000000  0.18339700  0.36679400  1
  Ni  Ni6  1  0.00000000  0.50000000  0.50000000  1
  Ni  Ni7  1  0.00000000  0.00000000  0.50000000  1
  Ni  Ni8  1  0.00000000  0.50000000  0.00000000  1
  Sn  Sn0  1  0.50000000  0.67696700  0.67696700  1
  Sn  Sn1  1  0.50000000  0.32303300  0.32303300  1
  Sn  Sn2  1  0.50000000  0.00000000  0.32303300  1
  Sn  Sn3  1  0.50000000  0.00000000  0.67696700  1
  Sn  Sn4  1  0.50000000  0.32303300  0.00000000  1
  Sn  Sn5  1  0.50000000  0.67696700  0.00000000  1
loop_
_geom_bond_atom_site_label_1
_geom_bond_atom_site_label_2
_geom_bond_distance
_geom_bond_site_symmetry_2
Ni0 Sn2 2.567568 1_465
Ni0 Sn2 2.567568 1_565
Ni0 Sn5 2.567568 1_555
Ni0 Sn5 2.567568 1_455
Ni0 Ni8 2.612922 1_555
Ni0 Ni7 2.612922 1_565
Ni0 Y0 3.014547 1_565
Ni0 Y1 3.191790 1_555
Ni0 Y1 3.191790 1_455
Ni1 Sn4 2.567568 1_556
Ni1 Sn4 2.567568 1_456
Ni1 Sn3 2.567568 1_555
Ni1 Sn3 2.567568 1_455
Ni1 Ni8 2.612922 1_556
Ni1 Ni7 2.612922 1_555
Ni1 Y0 3.014547 1_556
Ni1 Y2 3.191790 1_455
Ni1 Y2 3.191790 1_555
Ni2 Sn1 2.567568 1_555
Ni2 Sn1 2.567568 1_455
Ni2 Sn4 2.567568 1_455
Ni2 Sn4 2.567568 1_555
Ni2 Ni8 2.612922 1_555
Ni2 Ni6 2.612922 1_555
Ni2 Y0 3.014548 1_555
Ni2 Y1 3.191797 1_555
Ni2 Y1 3.191797 1_455
Ni3 Sn0 2.567568 1_455
Ni3 Sn0 2.567568 1_555
Ni3 Sn5 2.567568 1_456
Ni3 Sn5 2.567568 1_556
Ni3 Ni8 2.612922 1_556
Ni3 Ni6 2.612922 1_555
Ni3 Y0 3.014548 1_566
Ni3 Y2 3.191797 1_455
Ni3 Y2 3.191797 1_555
Ni4 Sn0 2.567568 1_455
Ni4 Sn0 2.567568 1_555
Ni4 Sn3 2.567568 1_465
Ni4 Sn3 2.567568 1_565
Ni4 Ni7 2.612922 1_565
Ni4 Ni6 2.612922 1_555
Ni4 Y0 3.014548 1_566
Ni4 Y1 3.191797 1_455
Ni4 Y1 3.191797 1_555
Ni5 Sn1 2.567568 1_555
Ni5 Sn1 2.567568 1_455
Ni5 Sn2 2.567568 1_555
Ni5 Sn2 2.567568 1_455
Ni5 Ni7 2.612922 1_555
Ni5 Ni6 2.612922 1_555
Ni5 Y0 3.014548 1_555
Ni5 Y2 3.191797 1_455
Ni5 Y2 3.191797 1_555
Ni6 Sn0 2.633258 1_555
Ni6 Sn0 2.633258 1_455
Ni6 Sn1 2.633258 1_555
Ni6 Sn1 2.633258 1_455
Ni6 Y1 3.408623 1_455
Ni6 Y2 3.408623 1_455
Ni6 Y1 3.408623 1_555
Ni6 Y2 3.408623 1_555
Ni7 Sn3 2.633258 1_555
Ni7 Sn3 2.633258 1_455
Ni7 Sn2 2.633258 1_455
Ni7 Sn2 2.633258 1_555
Ni7 Y2 3.408617 1_555
Ni7 Y2 3.408617 1_455
Ni7 Y1 3.408617 1_445
Ni7 Y1 3.408617 1_545
Ni8 Sn5 2.633258 1_455
Ni8 Sn5 2.633258 1_555
Ni8 Sn4 2.633258 1_455
Ni8 Sn4 2.633258 1_555
Ni8 Y2 3.408617 1_454
Ni8 Y1 3.408617 1_555
Ni8 Y1 3.408617 1_455
Ni8 Y2 3.408617 1_554
Sn0 Y2 3.213351 1_555
Sn0 Y1 3.213351 1_555
Sn1 Y1 3.213351 1_555
Sn1 Y2 3.213351 1_555
Sn2 Y1 3.213342 1_545
Sn2 Y2 3.213347 1_555
Sn3 Y2 3.213342 1_555
Sn3 Y1 3.213347 1_545
Sn4 Y2 3.213342 1_554
Sn4 Y1 3.213347 1_555
Sn5 Y1 3.213342 1_555
Sn5 Y2 3.213347 1_554
