# generated using pymatgen
data_Dy4B4O11F2
_symmetry_space_group_name_H-M   'P 1'
_cell_length_a   7.14732407
_cell_length_b   7.14732407
_cell_length_c   13.67043022
_cell_angle_alpha   88.75481013
_cell_angle_beta   88.75481013
_cell_angle_gamma   37.77899110
_symmetry_Int_Tables_number   1
_chemical_formula_structural   Dy4B4O11F2
_chemical_formula_sum   'Dy8 B8 O22 F4'
_cell_volume   427.70447586
_cell_formula_units_Z   2
loop_
 _symmetry_equiv_pos_site_id
 _symmetry_equiv_pos_as_xyz
  1  'x, y, z'
loop_
 _atom_site_type_symbol
 _atom_site_label
 _atom_site_symmetry_multiplicity
 _atom_site_fract_x
 _atom_site_fract_y
 _atom_site_fract_z
 _atom_site_occupancy
  Dy  Dy0  1  0.45866300  0.42349700  0.37017900  1
  Dy  Dy1  1  0.57650300  0.54133700  0.12982100  1
  Dy  Dy2  1  0.54133700  0.57650300  0.62982100  1
  Dy  Dy3  1  0.42349700  0.45866300  0.87017900  1
  Dy  Dy4  1  0.73433100  0.70463500  0.36962200  1
  Dy  Dy5  1  0.29536500  0.26566900  0.13037800  1
  Dy  Dy6  1  0.26566900  0.29536500  0.63037800  1
  Dy  Dy7  1  0.70463500  0.73433100  0.86962200  1
  B  B0  1  0.06807700  0.11926700  0.28632400  1
  B  B1  1  0.88073300  0.93192300  0.21367600  1
  B  B2  1  0.93192300  0.88073300  0.71367600  1
  B  B3  1  0.11926700  0.06807700  0.78632400  1
  B  B4  1  0.86142500  0.94641700  0.52283900  1
  B  B5  1  0.05358300  0.13857500  0.97716100  1
  B  B6  1  0.13857500  0.05358300  0.47716100  1
  B  B7  1  0.94641700  0.86142500  0.02283900  1
  O  O0  1  0.95004100  0.22583900  0.39514200  1
  O  O1  1  0.77416100  0.04995900  0.10485800  1
  O  O2  1  0.04995900  0.77416100  0.60485800  1
  O  O3  1  0.22583900  0.95004100  0.89514200  1
  O  O4  1  0.63735600  0.01033400  0.25709200  1
  O  O5  1  0.98966600  0.36264400  0.24290800  1
  O  O6  1  0.36264400  0.98966600  0.74290800  1
  O  O7  1  0.01033400  0.63735600  0.75709200  1
  O  O8  1  0.58743400  0.25504700  0.53354200  1
  O  O9  1  0.74495300  0.41256600  0.96645800  1
  O  O10  1  0.41256600  0.74495300  0.46645800  1
  O  O11  1  0.25504700  0.58743400  0.03354200  1
  O  O12  1  0.83988000  0.16012000  0.25000000  1
  O  O13  1  0.16012000  0.83988000  0.75000000  1
  O  O14  1  0.94805600  0.82046500  0.43186300  1
  O  O15  1  0.17953500  0.05194400  0.06813700  1
  O  O16  1  0.05194400  0.17953500  0.56813700  1
  O  O17  1  0.82046500  0.94805600  0.93186300  1
  O  O18  1  0.37912200  0.81761000  0.27635100  1
  O  O19  1  0.18239000  0.62087800  0.22364900  1
  O  O20  1  0.62087800  0.18239000  0.72364900  1
  O  O21  1  0.81761000  0.37912200  0.77635100  1
  F  F0  1  0.29623800  0.24176500  0.42421200  1
  F  F1  1  0.75823500  0.70376200  0.07578800  1
  F  F2  1  0.70376200  0.75823500  0.57578800  1
  F  F3  1  0.24176500  0.29623800  0.92421200  1
loop_
_geom_bond_atom_site_label_1
_geom_bond_atom_site_label_2
_geom_bond_distance
_geom_bond_site_symmetry_2
Dy0 O12 2.344921 1_555
Dy0 O8 2.346238 1_555
Dy0 O19 2.355298 1_555
Dy0 O14 2.383699 1_455
Dy0 F0 2.425922 1_555
Dy0 O10 2.456744 1_555
Dy0 O0 2.575807 1_555
Dy0 O4 2.625289 1_555
Dy0 O18 2.691903 1_555
Dy0 O14 2.767932 1_545
Dy1 O12 2.344921 1_555
Dy1 O9 2.346238 1_554
Dy1 O18 2.355298 1_555
Dy1 O15 2.383699 1_565
Dy1 F1 2.425922 1_555
Dy1 O11 2.456744 1_555
Dy1 O1 2.575807 1_555
Dy1 O5 2.625289 1_555
Dy1 O19 2.691903 1_555
Dy1 O15 2.767932 1_655
Dy2 O13 2.344921 1_555
Dy2 O10 2.346238 1_555
Dy2 O21 2.355298 1_555
Dy2 O16 2.383699 1_655
Dy2 F2 2.425922 1_555
Dy2 O8 2.456744 1_555
Dy2 O2 2.575807 1_555
Dy2 O6 2.625289 1_555
Dy2 O20 2.691903 1_555
Dy2 O16 2.767932 1_565
Dy3 O13 2.344921 1_555
Dy3 O11 2.346238 1_556
Dy3 O20 2.355298 1_555
Dy3 O17 2.383699 1_545
Dy3 F3 2.425922 1_555
Dy3 O9 2.456744 1_555
Dy3 O3 2.575807 1_555
Dy3 O7 2.625289 1_555
Dy3 O21 2.691903 1_555
Dy3 O17 2.767932 1_455
Dy4 O4 2.264321 1_565
Dy4 O5 2.302394 1_555
Dy4 O18 2.361914 1_555
Dy4 O14 2.414325 1_555
Dy4 O0 2.416792 1_555
Dy4 O10 2.441521 1_555
Dy4 F0 2.473970 1_565
Dy4 F0 2.578985 1_655
Dy4 F2 2.832950 1_555
Dy5 O5 2.264321 1_455
Dy5 O4 2.302394 1_555
Dy5 O19 2.361914 1_555
Dy5 O15 2.414325 1_555
Dy5 O1 2.416792 1_555
Dy5 O11 2.441521 1_555
Dy5 F1 2.473970 1_455
Dy5 F1 2.578985 1_545
Dy5 F3 2.832950 1_554
Dy6 O6 2.264321 1_545
Dy6 O7 2.302394 1_555
Dy6 O20 2.361914 1_555
Dy6 O16 2.414325 1_555
Dy6 O2 2.416792 1_555
Dy6 O8 2.441521 1_555
Dy6 F2 2.473970 1_545
Dy6 F2 2.578985 1_455
Dy6 F0 2.832950 1_555
Dy7 O7 2.264321 1_655
Dy7 O6 2.302394 1_555
Dy7 O21 2.361914 1_555
Dy7 O17 2.414325 1_555
Dy7 O3 2.416792 1_555
Dy7 O9 2.441521 1_555
Dy7 F3 2.473970 1_655
Dy7 F3 2.578985 1_565
Dy7 F1 2.832950 1_556
B0 O18 1.425548 1_545
B0 O5 1.456277 1_455
B0 O12 1.506013 1_455
B0 O0 1.575990 1_455
B1 O19 1.425548 1_655
B1 O4 1.456277 1_565
B1 O12 1.506013 1_565
B1 O1 1.575990 1_565
B2 O20 1.425548 1_565
B2 O7 1.456277 1_655
B2 O13 1.506013 1_655
B2 O2 1.575990 1_655
B3 O21 1.425548 1_455
B3 O6 1.456277 1_545
B3 O13 1.506013 1_545
B3 O3 1.575990 1_545
B4 O14 1.369161 1_555
B4 O8 1.376700 1_565
B4 O2 1.404244 1_655
B5 O15 1.369161 1_556
B5 O9 1.376700 1_455
B5 O3 1.404244 1_545
B6 O16 1.369161 1_555
B6 O10 1.376700 1_545
B6 O0 1.404244 1_455
B7 O17 1.369161 1_554
B7 O11 1.376700 1_655
B7 O1 1.404244 1_565
