# generated using pymatgen
data_HoOF
_symmetry_space_group_name_H-M   'P 1'
_cell_length_a   6.62474373
_cell_length_b   6.62474373
_cell_length_c   6.62474383
_cell_angle_alpha   33.03723886
_cell_angle_beta   33.03723886
_cell_angle_gamma   33.03724544
_symmetry_Int_Tables_number   1
_chemical_formula_structural   HoOF
_chemical_formula_sum   'Ho2 O2 F2'
_cell_volume   76.90731626
_cell_formula_units_Z   2
loop_
 _symmetry_equiv_pos_site_id
 _symmetry_equiv_pos_as_xyz
  1  'x, y, z'
loop_
 _atom_site_type_symbol
 _atom_site_label
 _atom_site_symmetry_multiplicity
 _atom_site_fract_x
 _atom_site_fract_y
 _atom_site_fract_z
 _atom_site_occupancy
  Ho  Ho0  1  0.25862753  0.25862753  0.25862753  1
  Ho  Ho1  1  0.74137247  0.74137247  0.74137247  1
  O  O0  1  0.37865685  0.37865685  0.37865685  1
  O  O1  1  0.62134315  0.62134315  0.62134315  1
  F  F0  1  0.13040439  0.13040439  0.13040439  1
  F  F1  1  0.86959561  0.86959561  0.86959561  1
loop_
_geom_bond_atom_site_label_1
_geom_bond_atom_site_label_2
_geom_bond_distance
_geom_bond_site_symmetry_2
Ho0 O1 2.243837 1_554
Ho0 O1 2.243838 1_545
Ho0 O1 2.243838 1_455
Ho0 O0 2.253261 1_555
Ho1 O0 2.243837 1_556
Ho1 O0 2.243838 1_565
Ho1 O0 2.243838 1_655
Ho1 O1 2.253261 1_555
F0 Ho0 2.407080 1_555
F0 Ho1 2.413267 1_445
F0 Ho1 2.413267 1_544
F0 Ho1 2.413267 1_454
F1 Ho1 2.407080 1_555
F1 Ho0 2.413267 1_665
F1 Ho0 2.413267 1_566
F1 Ho0 2.413267 1_656
