# generated using pymatgen
data_Tb3(Si3Ru)4
_symmetry_space_group_name_H-M   'P 1'
_cell_length_a   10.12178068
_cell_length_b   10.12178068
_cell_length_c   8.14524300
_cell_angle_alpha   90.00000000
_cell_angle_beta   90.00000000
_cell_angle_gamma   132.55475903
_symmetry_Int_Tables_number   1
_chemical_formula_structural   Tb3(Si3Ru)4
_chemical_formula_sum   'Tb6 Si24 Ru8'
_cell_volume   614.70687680
_cell_formula_units_Z   2
loop_
 _symmetry_equiv_pos_site_id
 _symmetry_equiv_pos_as_xyz
  1  'x, y, z'
loop_
 _atom_site_type_symbol
 _atom_site_label
 _atom_site_symmetry_multiplicity
 _atom_site_fract_x
 _atom_site_fract_y
 _atom_site_fract_z
 _atom_site_occupancy
  Tb  Tb0  1  0.50000000  0.50000000  0.50000000  1
  Tb  Tb1  1  0.00000000  0.00000000  0.00000000  1
  Tb  Tb2  1  0.50362400  0.00362400  0.75000000  1
  Tb  Tb3  1  0.99637600  0.49637600  0.25000000  1
  Tb  Tb4  1  0.49637600  0.99637600  0.25000000  1
  Tb  Tb5  1  0.00362400  0.50362400  0.75000000  1
  Si  Si0  1  0.79535900  0.20464100  0.50000000  1
  Si  Si1  1  0.29535900  0.70464100  0.00000000  1
  Si  Si2  1  0.20464100  0.79535900  0.50000000  1
  Si  Si3  1  0.70464100  0.29535900  0.00000000  1
  Si  Si4  1  0.33330600  0.33330600  0.83335500  1
  Si  Si5  1  0.66669400  0.66669400  0.16664500  1
  Si  Si6  1  0.16669400  0.16669400  0.33335500  1
  Si  Si7  1  0.83330600  0.83330600  0.66664500  1
  Si  Si8  1  0.12322400  0.88892100  0.72852200  1
  Si  Si9  1  0.11107900  0.87677600  0.27147800  1
  Si  Si10  1  0.61107900  0.37677600  0.22852200  1
  Si  Si11  1  0.62322400  0.38892100  0.77147800  1
  Si  Si12  1  0.87677600  0.11107900  0.27147800  1
  Si  Si13  1  0.88892100  0.12322400  0.72852200  1
  Si  Si14  1  0.38892100  0.62322400  0.77147800  1
  Si  Si15  1  0.37677600  0.61107900  0.22852200  1
  Si  Si16  1  0.34617500  0.11192800  0.50697200  1
  Si  Si17  1  0.88807200  0.65382500  0.49302800  1
  Si  Si18  1  0.38807200  0.15382500  0.00697200  1
  Si  Si19  1  0.84617500  0.61192800  0.99302800  1
  Si  Si20  1  0.65382500  0.88807200  0.49302800  1
  Si  Si21  1  0.11192800  0.34617500  0.50697200  1
  Si  Si22  1  0.61192800  0.84617500  0.99302800  1
  Si  Si23  1  0.15382500  0.38807200  0.00697200  1
  Ru  Ru0  1  0.66911700  0.33088300  0.50000000  1
  Ru  Ru1  1  0.16911700  0.83088300  0.00000000  1
  Ru  Ru2  1  0.33088300  0.66911700  0.50000000  1
  Ru  Ru3  1  0.83088300  0.16911700  0.00000000  1
  Ru  Ru4  1  0.12723400  0.12723400  0.62714400  1
  Ru  Ru5  1  0.87276600  0.87276600  0.37285600  1
  Ru  Ru6  1  0.37276600  0.37276600  0.12714400  1
  Ru  Ru7  1  0.62723400  0.62723400  0.87285600  1
loop_
_geom_bond_atom_site_label_1
_geom_bond_atom_site_label_2
_geom_bond_distance
_geom_bond_site_symmetry_2
Si0 Si12 2.469054 1_555
Si0 Si13 2.469054 1_555
Si0 Si20 2.472620 1_545
Si0 Si21 2.472620 1_655
Si0 Tb2 2.979831 1_555
Si0 Tb3 2.979831 1_555
Si0 Tb4 3.019895 1_545
Si0 Tb5 3.019895 1_655
Si1 Si14 2.469054 1_554
Si1 Si15 2.469054 1_555
Si1 Si23 2.472620 1_555
Si1 Si22 2.472620 1_554
Si1 Tb4 2.979831 1_555
Si1 Tb5 2.979831 1_554
Si1 Tb2 3.019895 1_564
Si1 Tb3 3.019895 1_455
Si2 Si9 2.469054 1_555
Si2 Si8 2.469054 1_555
Si2 Tb5 2.979831 1_555
Si2 Tb4 2.979831 1_555
Si2 Tb3 3.019895 1_455
Si2 Tb2 3.019895 1_565
Si3 Tb3 2.979831 1_555
Si3 Tb2 2.979831 1_554
Si3 Tb5 3.019895 1_654
Si3 Tb4 3.019895 1_545
Si4 Tb1 3.034956 1_556
Si4 Tb0 3.035730 1_555
Si5 Tb1 3.034956 1_665
Si5 Tb0 3.035730 1_555
Si6 Si9 2.635865 1_545
Si6 Tb0 3.034956 1_555
Si6 Tb1 3.035730 1_555
Si7 Si8 2.635865 1_655
Si7 Tb0 3.034956 1_555
Si7 Tb1 3.035730 1_666
Si8 Tb1 3.099370 1_566
Si8 Tb2 3.187029 1_565
Si8 Tb5 3.212407 1_555
Si9 Tb1 3.099370 1_565
Si9 Tb3 3.187029 1_455
Si9 Tb4 3.212407 1_555
Si10 Si3 2.469054 1_555
Si10 Si18 2.560134 1_555
Si10 Si5 2.635865 1_555
Si10 Si19 2.710374 1_554
Si10 Tb0 3.099370 1_555
Si10 Tb4 3.187029 1_545
Si10 Tb3 3.212407 1_555
Si11 Si3 2.469054 1_556
Si11 Si19 2.560134 1_555
Si11 Si4 2.635865 1_555
Si11 Si18 2.710374 1_556
Si11 Tb0 3.099370 1_555
Si11 Tb5 3.187029 1_655
Si11 Tb2 3.212407 1_555
Si12 Si20 2.560134 1_545
Si12 Si6 2.635865 1_655
Si12 Si21 2.710374 1_655
Si12 Tb1 3.099370 1_655
Si12 Tb4 3.187029 1_545
Si12 Tb3 3.212407 1_555
Si13 Si21 2.560134 1_655
Si13 Si7 2.635865 1_545
Si13 Si20 2.710374 1_545
Si13 Tb1 3.099370 1_656
Si13 Tb5 3.187029 1_655
Si13 Tb2 3.212407 1_555
Si14 Si22 2.560134 1_555
Si14 Si4 2.635865 1_555
Si14 Si23 2.710374 1_556
Si14 Tb0 3.099370 1_555
Si14 Tb2 3.187029 1_565
Si14 Tb5 3.212407 1_555
Si15 Si23 2.560134 1_555
Si15 Si5 2.635865 1_555
Si15 Si22 2.710374 1_554
Si15 Tb0 3.099370 1_555
Si15 Tb3 3.187029 1_455
Si15 Tb4 3.212407 1_555
Si16 Si2 2.472620 1_545
Si16 Si8 2.560134 1_545
Si16 Si6 2.639979 1_555
Si16 Si9 2.710374 1_545
Si16 Tb0 3.095850 1_555
Si16 Tb2 3.165911 1_555
Si16 Tb4 3.235029 1_545
Si17 Si2 2.472620 1_655
Si17 Si9 2.560134 1_655
Si17 Si7 2.639979 1_555
Si17 Si8 2.710374 1_655
Si17 Tb0 3.095850 1_555
Si17 Tb3 3.165911 1_555
Si17 Tb5 3.235029 1_655
Si18 Si3 2.472620 1_555
Si18 Si4 2.639979 1_554
Si18 Tb1 3.095850 1_555
Si18 Tb4 3.165911 1_545
Si18 Tb2 3.235029 1_554
Si19 Si3 2.472620 1_556
Si19 Si5 2.639979 1_556
Si19 Tb1 3.095850 1_666
Si19 Tb5 3.165911 1_655
Si19 Tb3 3.235029 1_556
Si20 Si7 2.639979 1_555
Si20 Tb0 3.095850 1_555
Si20 Tb4 3.165911 1_555
Si20 Tb2 3.235029 1_565
Si21 Si6 2.639979 1_555
Si21 Tb0 3.095850 1_555
Si21 Tb5 3.165911 1_555
Si21 Tb3 3.235029 1_455
Si22 Si5 2.639979 1_556
Si22 Tb1 3.095850 1_666
Si22 Tb2 3.165911 1_565
Si22 Tb4 3.235029 1_556
Si23 Si4 2.639979 1_554
Si23 Tb1 3.095850 1_555
Si23 Tb3 3.165911 1_455
Si23 Tb5 3.235029 1_554
Ru0 Si0 2.339650 1_555
Ru0 Si16 2.408538 1_555
Ru0 Si17 2.408538 1_555
Ru0 Si11 2.412388 1_555
Ru0 Si10 2.412388 1_555
Ru0 Tb0 3.134255 1_555
Ru0 Tb3 3.227963 1_555
Ru0 Tb2 3.227963 1_555
Ru0 Tb5 3.264984 1_655
Ru0 Tb4 3.264984 1_545
Ru1 Si1 2.339650 1_555
Ru1 Si19 2.408538 1_454
Ru1 Si18 2.408538 1_565
Ru1 Si9 2.412388 1_555
Ru1 Si8 2.412388 1_554
Ru1 Tb1 3.134255 1_565
Ru1 Tb5 3.227963 1_554
Ru1 Tb4 3.227963 1_555
Ru1 Tb3 3.264984 1_455
Ru1 Tb2 3.264984 1_564
Ru2 Si2 2.339650 1_555
Ru2 Si21 2.408538 1_555
Ru2 Si20 2.408538 1_555
Ru2 Si14 2.412388 1_555
Ru2 Si15 2.412388 1_555
Ru2 Tb0 3.134255 1_555
Ru2 Tb4 3.227963 1_555
Ru2 Tb5 3.227963 1_555
Ru2 Tb2 3.264984 1_565
Ru2 Tb3 3.264984 1_455
Ru3 Si3 2.339650 1_555
Ru3 Si22 2.408538 1_544
Ru3 Si23 2.408538 1_655
Ru3 Si12 2.412388 1_555
Ru3 Si13 2.412388 1_554
Ru3 Tb1 3.134255 1_655
Ru3 Tb2 3.227963 1_554
Ru3 Tb3 3.227963 1_555
Ru3 Tb4 3.264984 1_545
Ru3 Tb5 3.264984 1_654
Ru4 Si4 2.374411 1_555
Ru4 Si6 2.414466 1_555
Ru4 Si7 2.415326 1_445
Ru4 Si21 2.521401 1_555
Ru4 Si16 2.521401 1_555
Ru4 Si8 2.523799 1_545
Ru4 Si13 2.523799 1_455
Ru4 Tb0 3.207650 1_555
Ru4 Tb1 3.208914 1_556
Ru5 Si5 2.374411 1_555
Ru5 Si7 2.414466 1_555
Ru5 Si6 2.415326 1_665
Ru5 Si20 2.521401 1_555
Ru5 Si17 2.521401 1_555
Ru5 Si12 2.523799 1_565
Ru5 Si9 2.523799 1_655
Ru5 Tb0 3.207650 1_555
Ru5 Tb1 3.208914 1_665
Ru6 Si6 2.374411 1_555
Ru6 Si4 2.414466 1_554
Ru6 Si5 2.415326 1_555
Ru6 Si23 2.521401 1_555
Ru6 Si18 2.521401 1_555
Ru6 Si10 2.523799 1_555
Ru6 Si15 2.523799 1_555
Ru6 Tb1 3.207650 1_555
Ru6 Tb0 3.208914 1_555
Ru7 Si7 2.374411 1_555
Ru7 Si5 2.414466 1_556
Ru7 Si4 2.415326 1_555
Ru7 Si19 2.521401 1_555
Ru7 Si22 2.521401 1_555
Ru7 Si14 2.523799 1_555
Ru7 Si11 2.523799 1_555
Ru7 Tb1 3.207650 1_666
Ru7 Tb0 3.208914 1_555
