# generated using pymatgen
data_IrN3
_symmetry_space_group_name_H-M   'P 1'
_cell_length_a   5.94678687
_cell_length_b   5.94678687
_cell_length_c   5.94678687
_cell_angle_alpha   109.47122063
_cell_angle_beta   109.47122063
_cell_angle_gamma   109.47122063
_symmetry_Int_Tables_number   1
_chemical_formula_structural   IrN3
_chemical_formula_sum   'Ir4 N12'
_cell_volume   161.89194127
_cell_formula_units_Z   4
loop_
 _symmetry_equiv_pos_site_id
 _symmetry_equiv_pos_as_xyz
  1  'x, y, z'
loop_
 _atom_site_type_symbol
 _atom_site_label
 _atom_site_symmetry_multiplicity
 _atom_site_fract_x
 _atom_site_fract_y
 _atom_site_fract_z
 _atom_site_occupancy
  Ir  Ir0  1  0.50000000  0.50000000  0.50000000  1
  Ir  Ir1  1  0.50000000  0.00000000  0.00000000  1
  Ir  Ir2  1  0.00000000  0.50000000  0.00000000  1
  Ir  Ir3  1  0.00000000  0.00000000  0.50000000  1
  N  N0  1  0.90859900  0.69265500  0.60125400  1
  N  N1  1  0.09140100  0.30734500  0.39874600  1
  N  N2  1  0.09140100  0.69265500  0.78405600  1
  N  N3  1  0.90859900  0.30734500  0.21594400  1
  N  N4  1  0.69265500  0.60125400  0.90859900  1
  N  N5  1  0.30734500  0.39874600  0.09140100  1
  N  N6  1  0.69265500  0.78405600  0.09140100  1
  N  N7  1  0.30734500  0.21594400  0.90859900  1
  N  N8  1  0.60125400  0.90859900  0.69265500  1
  N  N9  1  0.39874600  0.09140100  0.30734500  1
  N  N10  1  0.21594400  0.90859900  0.30734500  1
  N  N11  1  0.78405600  0.09140100  0.69265500  1
loop_
_geom_bond_atom_site_label_1
_geom_bond_atom_site_label_2
_geom_bond_distance
_geom_bond_site_symmetry_2
Ir0 N9 2.070781 1_555
Ir0 N5 2.070781 1_555
Ir0 N4 2.070781 1_555
Ir0 N1 2.070781 1_555
Ir0 N8 2.070781 1_555
Ir0 N0 2.070781 1_555
Ir1 N8 2.070781 1_544
Ir1 N9 2.070781 1_555
Ir1 N6 2.070781 1_545
Ir1 N7 2.070781 1_554
Ir1 N2 2.070781 1_544
Ir1 N3 2.070781 1_555
Ir2 N4 2.070781 1_454
Ir2 N3 2.070781 1_455
Ir2 N5 2.070781 1_555
Ir2 N11 2.070781 1_454
Ir2 N10 2.070781 1_555
Ir2 N2 2.070781 1_554
Ir3 N10 2.070781 1_545
Ir3 N6 2.070781 1_445
Ir3 N0 2.070781 1_445
Ir3 N1 2.070781 1_555
Ir3 N11 2.070781 1_455
Ir3 N7 2.070781 1_555
N0 N2 1.255257 1_655
N1 N3 1.255257 1_455
N4 N6 1.255257 1_556
N5 N7 1.255257 1_554
N10 N9 1.255257 1_565
N11 N8 1.255257 1_545
