# generated using pymatgen
data_Pr3Ni13B2
_symmetry_space_group_name_H-M   'P 1'
_cell_length_a   5.04814355
_cell_length_b   5.04627845
_cell_length_c   10.95981500
_cell_angle_alpha   89.99972793
_cell_angle_beta   90.00054409
_cell_angle_gamma   120.01224449
_symmetry_Int_Tables_number   1
_chemical_formula_structural   Pr3Ni13B2
_chemical_formula_sum   'Pr3 Ni13 B2'
_cell_volume   241.75928578
_cell_formula_units_Z   1
loop_
 _symmetry_equiv_pos_site_id
 _symmetry_equiv_pos_as_xyz
  1  'x, y, z'
loop_
 _atom_site_type_symbol
 _atom_site_label
 _atom_site_symmetry_multiplicity
 _atom_site_fract_x
 _atom_site_fract_y
 _atom_site_fract_z
 _atom_site_occupancy
  Pr  Pr0  1  0.99998500  0.00000000  0.99994200  1
  Pr  Pr1  1  0.99997400  0.00000000  0.32957100  1
  Pr  Pr2  1  0.00000900  0.00000000  0.67048900  1
  Ni  Ni0  1  0.50000200  0.00000000  0.50001000  1
  Ni  Ni1  1  0.50000200  0.50000100  0.50000300  1
  Ni  Ni2  1  0.00000100  0.49999900  0.50000300  1
  Ni  Ni3  1  0.33331900  0.66666300  0.31900500  1
  Ni  Ni4  1  0.66665600  0.33333700  0.31900500  1
  Ni  Ni5  1  0.66668900  0.33335700  0.68099500  1
  Ni  Ni6  1  0.33333300  0.66664300  0.68099500  1
  Ni  Ni7  1  0.49998800  0.00000000  0.13314000  1
  Ni  Ni8  1  0.49998900  0.49999900  0.13312900  1
  Ni  Ni9  1  0.99999000  0.50000100  0.13312900  1
  Ni  Ni10  1  0.49999200  0.00000000  0.86685700  1
  Ni  Ni11  1  0.49999200  0.49999900  0.86685600  1
  Ni  Ni12  1  0.99999300  0.50000100  0.86685600  1
  B  B0  1  0.33330500  0.66662500  0.00000700  1
  B  B1  1  0.66668000  0.33337500  0.00000700  1
loop_
_geom_bond_atom_site_label_1
_geom_bond_atom_site_label_2
_geom_bond_distance
_geom_bond_site_symmetry_2
Ni0 Ni5 2.460970 1_555
Ni0 Ni6 2.460970 1_545
Ni0 Ni3 2.461095 1_545
Ni0 Ni4 2.461095 1_555
Ni0 Ni2 2.523134 1_655
Ni0 Ni1 2.523134 1_545
Ni0 Ni2 2.523144 1_545
Ni0 Ni1 2.523144 1_555
Ni0 Pr1 3.140010 1_555
Ni0 Pr1 3.140209 1_455
Ni0 Pr2 3.140356 1_555
Ni0 Pr2 3.140384 1_655
Ni1 Ni6 2.461241 1_555
Ni1 Ni5 2.461274 1_555
Ni1 Ni4 2.461313 1_555
Ni1 Ni3 2.461363 1_555
Ni1 Ni2 2.524072 1_555
Ni1 Ni2 2.524072 1_655
Ni1 Pr1 3.139262 1_565
Ni1 Pr1 3.139365 1_455
Ni1 Pr2 3.139661 1_555
Ni1 Pr2 3.139671 1_665
Ni2 Ni5 2.461244 1_455
Ni2 Ni6 2.461276 1_555
Ni2 Ni3 2.461312 1_555
Ni2 Ni4 2.461363 1_455
Ni2 Pr1 3.139263 1_455
Ni2 Pr1 3.139366 1_465
Ni2 Pr2 3.139661 1_565
Ni2 Pr2 3.139671 1_555
Ni3 Ni7 2.504228 1_565
Ni3 Ni9 2.504609 1_455
Ni3 Ni8 2.504641 1_555
Ni3 Pr1 2.915395 1_455
Ni3 Pr1 2.916436 1_565
Ni3 Pr1 2.916556 1_465
Ni4 Ni7 2.504228 1_555
Ni4 Ni8 2.504609 1_555
Ni4 Ni9 2.504641 1_555
Ni4 Pr1 2.915395 1_565
Ni4 Pr1 2.916436 1_555
Ni4 Pr1 2.916555 1_455
Ni5 Pr2 2.915282 1_665
Ni5 Pr2 2.916508 1_655
Ni5 Pr2 2.916519 1_555
Ni6 Pr2 2.915282 1_555
Ni6 Pr2 2.916503 1_665
Ni6 Pr2 2.916524 1_565
Ni7 Pr0 2.915823 1_554
Ni7 Pr0 2.915825 1_454
Ni7 Pr1 3.317413 1_555
Ni7 Pr1 3.317552 1_455
Ni8 Pr0 2.914955 1_564
Ni8 Pr0 2.914956 1_454
Ni8 Pr1 3.316816 1_565
Ni8 Pr1 3.316885 1_455
Ni9 Pr0 2.914956 1_554
Ni9 Pr0 2.914957 1_564
Ni9 Pr1 3.316817 1_555
Ni9 Pr1 3.316886 1_565
Ni10 Ni6 2.504252 1_545
Ni10 Ni5 2.504252 1_555
Ni10 Pr0 2.915161 1_555
Ni10 Pr0 2.915247 1_455
Ni10 Pr2 3.316954 1_555
Ni10 Pr2 3.317115 1_655
Ni11 Ni6 2.504409 1_555
Ni11 Ni5 2.504520 1_555
Ni11 Pr0 2.914382 1_565
Ni11 Pr0 2.914421 1_455
Ni11 Pr2 3.316275 1_555
Ni11 Pr2 3.316360 1_665
Ni12 Ni5 2.504412 1_555
Ni12 Ni6 2.504523 1_655
Ni12 Pr0 2.914383 1_555
Ni12 Pr0 2.914421 1_565
Ni12 Pr2 3.316275 1_665
Ni12 Pr2 3.316360 1_655
B0 Ni7 2.061818 1_565
B0 Ni8 2.061905 1_555
B0 Ni9 2.061937 1_455
B0 Ni10 2.061950 1_564
B0 Ni12 2.062135 1_454
B0 Ni11 2.062156 1_554
B0 Pr0 2.912929 1_454
B0 Pr0 2.914246 1_564
B0 Pr0 2.914312 1_464
B1 Ni7 2.061818 1_555
B1 Ni9 2.061904 1_555
B1 Ni8 2.061937 1_555
B1 Ni10 2.061950 1_554
B1 Ni11 2.062136 1_554
B1 Ni12 2.062155 1_554
B1 Pr0 2.912929 1_564
B1 Pr0 2.914247 1_554
B1 Pr0 2.914312 1_454
