# generated using pymatgen
data_Sr2TcO4
_symmetry_space_group_name_H-M   'P 1'
_cell_length_a   7.02917600
_cell_length_b   7.02917600
_cell_length_c   7.02917600
_cell_angle_alpha   148.25322950
_cell_angle_beta   148.25322950
_cell_angle_gamma   45.51168664
_symmetry_Int_Tables_number   1
_chemical_formula_structural   Sr2TcO4
_chemical_formula_sum   'Sr2 Tc1 O4'
_cell_volume   95.83726910
_cell_formula_units_Z   1
loop_
 _symmetry_equiv_pos_site_id
 _symmetry_equiv_pos_as_xyz
  1  'x, y, z'
loop_
 _atom_site_type_symbol
 _atom_site_label
 _atom_site_symmetry_multiplicity
 _atom_site_fract_x
 _atom_site_fract_y
 _atom_site_fract_z
 _atom_site_occupancy
  Sr  Sr0  1  0.64900838  0.64900838  -0.00000000  1
  Sr  Sr1  1  0.35099162  0.35099162  0.00000000  1
  Tc  Tc0  1  -0.00000000  0.00000000  -0.00000000  1
  O  O0  1  -0.00000000  0.50000000  0.50000000  1
  O  O1  1  0.50000000  0.00000000  0.50000000  1
  O  O2  1  0.83738874  0.83738874  0.00000000  1
  O  O3  1  0.16261126  0.16261126  -0.00000000  1
loop_
_geom_bond_atom_site_label_1
_geom_bond_atom_site_label_2
_geom_bond_distance
_geom_bond_site_symmetry_2
O0 Tc0 1.922567 1_555
O0 Tc0 1.922567 1_566
O0 Sr1 2.725425 1_455
O0 Sr1 2.725425 1_556
O0 Sr0 2.725425 1_455
O0 Sr0 2.725425 1_556
O1 Tc0 1.922567 1_656
O1 Tc0 1.922567 1_555
O1 Sr1 2.725425 1_556
O1 Sr1 2.725425 1_545
O1 Sr0 2.725425 1_545
O1 Sr0 2.725425 1_556
O2 Tc0 2.108104 1_665
O2 Sr0 2.442176 1_555
O2 Sr1 2.724633 1_554
O2 Sr1 2.724633 1_655
O2 Sr1 2.724633 1_666
O2 Sr1 2.724633 1_565
O3 Tc0 2.108104 1_555
O3 Sr1 2.442176 1_555
O3 Sr0 2.724633 1_556
O3 Sr0 2.724633 1_444
O3 Sr0 2.724633 1_545
O3 Sr0 2.724633 1_455
