# generated using pymatgen
data_Tb2AlNi2
_symmetry_space_group_name_H-M   'P 1'
_cell_length_a   5.36346756
_cell_length_b   5.36346756
_cell_length_c   5.36346756
_cell_angle_alpha   134.18710319
_cell_angle_beta   119.90277917
_cell_angle_gamma   78.72410897
_symmetry_Int_Tables_number   1
_chemical_formula_structural   Tb2AlNi2
_chemical_formula_sum   'Tb2 Al1 Ni2'
_cell_volume   92.99809865
_cell_formula_units_Z   1
loop_
 _symmetry_equiv_pos_site_id
 _symmetry_equiv_pos_as_xyz
  1  'x, y, z'
loop_
 _atom_site_type_symbol
 _atom_site_label
 _atom_site_symmetry_multiplicity
 _atom_site_fract_x
 _atom_site_fract_y
 _atom_site_fract_z
 _atom_site_occupancy
  Tb  Tb0  1  0.70278944  0.20278944  0.50000000  1
  Tb  Tb1  1  0.29721056  0.79721056  0.50000000  1
  Al  Al0  1  0.00000000  -0.00000000  0.00000000  1
  Ni  Ni0  1  0.26630588  0.50000000  0.76630588  1
  Ni  Ni1  1  0.73369412  0.50000000  0.23369412  1
loop_
_geom_bond_atom_site_label_1
_geom_bond_atom_site_label_2
_geom_bond_distance
_geom_bond_site_symmetry_2
Al0 Ni0 2.530656 1_544
Al0 Ni1 2.530656 1_455
Al0 Ni1 2.530656 1_444
Al0 Ni0 2.530656 1_555
Al0 Tb1 3.168826 1_444
Al0 Tb1 3.168826 1_545
Al0 Tb0 3.168826 1_454
Al0 Tb0 3.168826 1_555
Al0 Tb0 3.230174 1_455
Al0 Tb1 3.230174 1_555
Al0 Tb0 3.230174 1_444
Al0 Tb1 3.230174 1_544
Ni0 Ni1 2.510505 1_556
Ni0 Tb0 2.849915 1_455
Ni0 Tb1 2.849915 1_555
Ni0 Tb1 2.960133 1_545
Ni0 Tb0 2.960133 1_555
Ni0 Tb1 2.960133 1_556
Ni0 Tb0 2.960133 1_566
Ni1 Tb1 2.849915 1_655
Ni1 Tb0 2.849915 1_555
Ni1 Tb1 2.960133 1_544
Ni1 Tb0 2.960133 1_554
Ni1 Tb1 2.960133 1_555
Ni1 Tb0 2.960133 1_565
