# generated using pymatgen
data_TbSi4B18C
_symmetry_space_group_name_H-M   'P 1'
_cell_length_a   7.93586887
_cell_length_b   7.93586887
_cell_length_c   7.91072294
_cell_angle_alpha   78.42520935
_cell_angle_beta   78.42520935
_cell_angle_gamma   78.28983393
_symmetry_Int_Tables_number   1
_chemical_formula_structural   TbSi4B18C
_chemical_formula_sum   'Tb2 Si8 B36 C2'
_cell_volume   471.22356699
_cell_formula_units_Z   2
loop_
 _symmetry_equiv_pos_site_id
 _symmetry_equiv_pos_as_xyz
  1  'x, y, z'
loop_
 _atom_site_type_symbol
 _atom_site_label
 _atom_site_symmetry_multiplicity
 _atom_site_fract_x
 _atom_site_fract_y
 _atom_site_fract_z
 _atom_site_occupancy
  Tb  Tb0  1  0.00000000  0.50000000  0.50000000  1
  Tb  Tb1  1  0.50000000  0.00000000  0.50000000  1
  Si  Si0  1  0.57128400  0.57128400  0.57205700  1
  Si  Si1  1  0.42871600  0.42871600  0.42794300  1
  Si  Si2  1  0.73141500  0.34555700  0.74523200  1
  Si  Si3  1  0.73588300  0.73588300  0.33823400  1
  Si  Si4  1  0.34555700  0.73141500  0.74523200  1
  Si  Si5  1  0.26858500  0.65444300  0.25476800  1
  Si  Si6  1  0.26411700  0.26411700  0.66176600  1
  Si  Si7  1  0.65444300  0.26858500  0.25476800  1
  B  B0  1  0.72835800  0.98779400  0.98797000  1
  B  B1  1  0.98779400  0.72835800  0.98797000  1
  B  B2  1  0.98804200  0.98804200  0.73024600  1
  B  B3  1  0.27164200  0.01220600  0.01203000  1
  B  B4  1  0.01220600  0.27164200  0.01203000  1
  B  B5  1  0.01195800  0.01195800  0.26975400  1
  B  B6  1  0.56034100  0.12388200  0.12441900  1
  B  B7  1  0.12388200  0.56034100  0.12441900  1
  B  B8  1  0.12379900  0.12379900  0.56203500  1
  B  B9  1  0.43965900  0.87611800  0.87558100  1
  B  B10  1  0.87611800  0.43965900  0.87558100  1
  B  B11  1  0.87620100  0.87620100  0.43796500  1
  B  B12  1  0.58533800  0.17712400  0.89467000  1
  B  B13  1  0.89303600  0.58494500  0.17291300  1
  B  B14  1  0.17799700  0.89076900  0.58714500  1
  B  B15  1  0.89076900  0.17799700  0.58714500  1
  B  B16  1  0.58494500  0.89303600  0.17291300  1
  B  B17  1  0.17712400  0.58533800  0.89467000  1
  B  B18  1  0.41466200  0.82287600  0.10533000  1
  B  B19  1  0.10696400  0.41505500  0.82708700  1
  B  B20  1  0.82200300  0.10923100  0.41285500  1
  B  B21  1  0.10923100  0.82200300  0.41285500  1
  B  B22  1  0.41505500  0.10696400  0.82708700  1
  B  B23  1  0.82287600  0.41466200  0.10533000  1
  B  B24  1  0.20164400  0.37202500  0.02145400  1
  B  B25  1  0.01917700  0.19829800  0.37182100  1
  B  B26  1  0.37190800  0.02029700  0.19724100  1
  B  B27  1  0.02029700  0.37190800  0.19724100  1
  B  B28  1  0.19829800  0.01917700  0.37182100  1
  B  B29  1  0.37202500  0.20164400  0.02145400  1
  B  B30  1  0.79835600  0.62797500  0.97854600  1
  B  B31  1  0.98082300  0.80170200  0.62817900  1
  B  B32  1  0.62809200  0.97970300  0.80275900  1
  B  B33  1  0.97970300  0.62809200  0.80275900  1
  B  B34  1  0.80170200  0.98082300  0.62817900  1
  B  B35  1  0.62797500  0.79835600  0.97854600  1
  C  C0  1  0.94866100  0.94866100  0.94935500  1
  C  C1  1  0.05133900  0.05133900  0.05064500  1
loop_
_geom_bond_atom_site_label_1
_geom_bond_atom_site_label_2
_geom_bond_distance
_geom_bond_site_symmetry_2
Si0 Si1 2.326943 1_555
Si0 Si4 2.343138 1_555
Si0 Si2 2.343138 1_555
Si0 Si3 2.363759 1_555
Si0 Tb1 3.284819 1_565
Si0 Tb0 3.284819 1_655
Si1 Si7 2.343138 1_555
Si1 Si5 2.343138 1_555
Si1 Si6 2.363759 1_555
Si1 Tb1 3.284819 1_555
Si1 Tb0 3.284819 1_555
Si2 Tb0 2.873273 1_655
Si3 Tb1 2.838547 1_565
Si3 Tb0 2.838547 1_655
Si4 Tb1 2.873273 1_565
Si5 Tb0 2.873273 1_555
Si6 Tb1 2.838547 1_555
Si6 Tb0 2.838547 1_555
Si7 Tb1 2.873273 1_555
B0 C0 1.688093 1_555
B0 B16 1.799710 1_556
B0 B12 1.813662 1_565
B0 B32 1.819411 1_555
B0 B6 1.847984 1_566
B0 B35 1.858815 1_555
B1 C0 1.688093 1_555
B1 B13 1.799710 1_556
B1 B17 1.813662 1_655
B1 B33 1.819411 1_555
B1 B7 1.847984 1_656
B1 B30 1.858815 1_555
B2 C0 1.674692 1_555
B2 B34 1.836864 1_555
B2 B31 1.836864 1_555
B2 B8 1.847325 1_665
B3 C1 1.688093 1_555
B3 B9 1.847984 1_544
B4 C1 1.688093 1_555
B5 C1 1.674692 1_555
B6 Si7 2.017909 1_555
B6 Tb1 2.910559 1_555
B7 Si5 2.017909 1_555
B7 Tb0 2.910559 1_555
B8 Si6 2.076254 1_555
B8 Tb0 2.921314 1_555
B8 Tb1 2.921314 1_555
B9 Si4 2.017909 1_555
B9 Tb1 2.910559 1_565
B10 B23 1.761332 1_556
B10 B19 1.773195 1_655
B10 B30 1.786079 1_555
B10 B33 1.790816 1_555
B10 B4 1.847984 1_656
B10 Si2 2.017909 1_555
B10 Tb0 2.910559 1_655
B11 B20 1.791186 1_565
B11 B21 1.791186 1_655
B11 B34 1.802272 1_555
B11 B31 1.802272 1_555
B11 B5 1.847325 1_665
B11 Si3 2.076254 1_555
B11 Tb1 2.921314 1_565
B11 Tb0 2.921314 1_655
B12 B6 1.761332 1_556
B12 B22 1.771089 1_555
B12 B29 1.781211 1_556
B12 B32 1.800192 1_545
B12 Si2 1.993231 1_555
B13 B23 1.771089 1_555
B13 B7 1.773195 1_655
B13 B27 1.780332 1_655
B13 B30 1.787200 1_554
B13 Si3 2.016988 1_555
B13 Tb0 2.796296 1_655
B14 B31 1.790657 1_455
B14 B8 1.791186 1_565
B14 B21 1.794815 1_555
B14 B28 1.796051 1_565
B14 B2 1.828480 1_455
B14 Si4 2.069173 1_555
B14 Tb1 2.776512 1_565
B15 B34 1.790657 1_545
B15 B8 1.791186 1_655
B15 B20 1.794815 1_555
B15 B25 1.796051 1_655
B15 B2 1.828480 1_545
B15 Si2 2.069173 1_555
B15 Tb0 2.776512 1_655
B16 B18 1.771089 1_555
B16 B6 1.773195 1_565
B16 B26 1.780332 1_565
B16 B35 1.787200 1_554
B16 Si3 2.016988 1_555
B16 Tb1 2.796296 1_565
B17 B7 1.761332 1_556
B17 B19 1.771089 1_555
B17 B24 1.781211 1_556
B17 B33 1.800192 1_455
B17 Si4 1.993231 1_555
B18 B9 1.761332 1_554
B18 B35 1.781211 1_554
B18 B26 1.800192 1_565
B18 B3 1.813662 1_565
B18 Si5 1.993231 1_555
B19 B33 1.780332 1_455
B19 B24 1.787200 1_556
B19 B4 1.799710 1_556
B19 Si6 2.016988 1_555
B19 Tb0 2.796296 1_555
B20 B25 1.790657 1_655
B20 B34 1.796051 1_545
B20 B5 1.828480 1_655
B20 Si7 2.069173 1_555
B20 Tb1 2.776512 1_555
B21 B28 1.790657 1_565
B21 B31 1.796051 1_455
B21 B5 1.828480 1_565
B21 Si5 2.069173 1_555
B21 Tb0 2.776512 1_555
B22 B9 1.773195 1_545
B22 B32 1.780332 1_545
B22 B29 1.787200 1_556
B22 B3 1.799710 1_556
B22 Si6 2.016988 1_555
B22 Tb1 2.796296 1_555
B23 B30 1.781211 1_554
B23 B27 1.800192 1_655
B23 B4 1.813662 1_655
B23 Si7 1.993231 1_555
B24 B29 1.707145 1_555
B24 B7 1.786079 1_555
B24 B27 1.789369 1_555
B24 B4 1.858815 1_555
B25 B27 1.744150 1_555
B25 B28 1.794716 1_555
B25 B8 1.802272 1_555
B25 B5 1.836864 1_555
B25 Tb0 2.747410 1_555
B26 B28 1.744150 1_555
B26 B29 1.789369 1_555
B26 B6 1.790816 1_555
B26 B3 1.819411 1_555
B26 Tb1 2.747946 1_555
B27 B7 1.790816 1_555
B27 B4 1.819411 1_555
B27 Tb0 2.747946 1_555
B28 B8 1.802272 1_555
B28 B5 1.836864 1_555
B28 Tb1 2.747410 1_555
B29 B6 1.786079 1_555
B29 B3 1.858815 1_555
B30 B35 1.707145 1_555
B30 B33 1.789369 1_555
B31 B33 1.744150 1_555
B31 B34 1.794716 1_555
B31 Tb0 2.747410 1_655
B32 B34 1.744150 1_555
B32 B35 1.789369 1_555
B32 B9 1.790816 1_555
B32 Tb1 2.747946 1_565
B33 Tb0 2.747946 1_655
B34 Tb1 2.747410 1_565
B35 B9 1.786079 1_555
C0 C1 1.662380 1_666
