# generated using pymatgen
data_Hf9Mo4O3
_symmetry_space_group_name_H-M   'P 1'
_cell_length_a   8.63511839
_cell_length_b   8.63511839
_cell_length_c   8.44542600
_cell_angle_alpha   90.00000000
_cell_angle_beta   90.00000000
_cell_angle_gamma   120.00000297
_symmetry_Int_Tables_number   1
_chemical_formula_structural   Hf9Mo4O3
_chemical_formula_sum   'Hf18 Mo8 O6'
_cell_volume   545.36689515
_cell_formula_units_Z   2
loop_
 _symmetry_equiv_pos_site_id
 _symmetry_equiv_pos_as_xyz
  1  'x, y, z'
loop_
 _atom_site_type_symbol
 _atom_site_label
 _atom_site_symmetry_multiplicity
 _atom_site_fract_x
 _atom_site_fract_y
 _atom_site_fract_z
 _atom_site_occupancy
  Hf  Hf0  1  0.45346900  0.90693700  0.25000000  1
  Hf  Hf1  1  0.54653100  0.09306300  0.75000000  1
  Hf  Hf2  1  0.09306300  0.54653100  0.25000000  1
  Hf  Hf3  1  0.90693700  0.45346900  0.75000000  1
  Hf  Hf4  1  0.45346900  0.54653100  0.25000000  1
  Hf  Hf5  1  0.54653100  0.45346900  0.75000000  1
  Hf  Hf6  1  0.20616800  0.41233700  0.56314100  1
  Hf  Hf7  1  0.79383200  0.58766300  0.43685900  1
  Hf  Hf8  1  0.58766300  0.79383200  0.56314100  1
  Hf  Hf9  1  0.79383200  0.58766300  0.06314100  1
  Hf  Hf10  1  0.41233700  0.20616800  0.43685900  1
  Hf  Hf11  1  0.20616800  0.41233700  0.93685900  1
  Hf  Hf12  1  0.20616800  0.79383200  0.56314100  1
  Hf  Hf13  1  0.41233700  0.20616800  0.06314100  1
  Hf  Hf14  1  0.79383200  0.20616800  0.43685900  1
  Hf  Hf15  1  0.58766300  0.79383200  0.93685900  1
  Hf  Hf16  1  0.79383200  0.20616800  0.06314100  1
  Hf  Hf17  1  0.20616800  0.79383200  0.93685900  1
  Mo  Mo0  1  0.11092800  0.22185500  0.25000000  1
  Mo  Mo1  1  0.88907200  0.77814500  0.75000000  1
  Mo  Mo2  1  0.77814500  0.88907200  0.25000000  1
  Mo  Mo3  1  0.22185500  0.11092800  0.75000000  1
  Mo  Mo4  1  0.11092800  0.88907200  0.25000000  1
  Mo  Mo5  1  0.88907200  0.11092800  0.75000000  1
  Mo  Mo6  1  0.00000000  0.00000000  0.00000000  1
  Mo  Mo7  1  0.00000000  0.00000000  0.50000000  1
  O  O0  1  0.50000000  0.00000000  0.00000000  1
  O  O1  1  0.00000000  0.50000000  0.00000000  1
  O  O2  1  0.50000000  0.00000000  0.50000000  1
  O  O3  1  0.50000000  0.50000000  0.00000000  1
  O  O4  1  0.00000000  0.50000000  0.50000000  1
  O  O5  1  0.50000000  0.50000000  0.50000000  1
loop_
_geom_bond_atom_site_label_1
_geom_bond_atom_site_label_2
_geom_bond_distance
_geom_bond_site_symmetry_2
Hf0 O2 2.223099 1_565
Hf0 O0 2.223099 1_565
Hf0 Mo4 2.883845 1_555
Hf0 Mo2 2.883845 1_555
Hf1 O0 2.223099 1_556
Hf1 O2 2.223099 1_555
Hf1 Mo5 2.883845 1_555
Hf1 Mo3 2.883845 1_555
Hf2 O4 2.223099 1_555
Hf2 O1 2.223099 1_555
Hf2 Mo4 2.883845 1_555
Hf2 Mo0 2.883845 1_555
Hf3 O1 2.223099 1_656
Hf3 O4 2.223099 1_655
Hf3 Mo5 2.883845 1_555
Hf3 Mo1 2.883845 1_555
Hf4 O3 2.223096 1_555
Hf4 O5 2.223096 1_555
Hf4 Mo0 2.883845 1_555
Hf4 Mo2 2.883845 1_555
Hf5 O3 2.223096 1_556
Hf5 O5 2.223096 1_555
Hf5 Mo3 2.883845 1_555
Hf5 Mo1 2.883845 1_555
Hf6 O4 2.318282 1_555
Hf6 O5 2.318290 1_555
Hf6 Mo0 3.003842 1_555
Hf6 Mo5 3.104091 1_455
Hf6 Mo3 3.104091 1_555
Hf6 Mo7 3.129321 1_555
Hf7 O4 2.318282 1_655
Hf7 O5 2.318290 1_555
Hf7 Mo1 3.003842 1_555
Hf7 Mo4 3.104091 1_655
Hf7 Mo2 3.104091 1_555
Hf7 Mo7 3.129321 1_665
Hf8 O2 2.318282 1_565
Hf8 O5 2.318290 1_555
Hf8 Mo2 3.003842 1_555
Hf8 Mo5 3.104091 1_565
Hf8 Mo1 3.104091 1_555
Hf8 Mo7 3.129321 1_665
Hf9 O1 2.318282 1_655
Hf9 O3 2.318290 1_555
Hf9 Mo1 3.003842 1_554
Hf9 Mo4 3.104091 1_655
Hf9 Mo2 3.104091 1_555
Hf9 Mo6 3.129321 1_665
Hf10 O2 2.318282 1_555
Hf10 O5 2.318290 1_555
Hf10 Mo3 3.003842 1_555
Hf10 Mo4 3.104091 1_545
Hf10 Mo0 3.104091 1_555
Hf10 Mo7 3.129321 1_555
Hf11 O1 2.318282 1_556
Hf11 O3 2.318290 1_556
Hf11 Mo0 3.003842 1_556
Hf11 Mo5 3.104091 1_455
Hf11 Mo3 3.104091 1_555
Hf11 Mo6 3.129321 1_556
Hf12 O2 2.318289 1_565
Hf12 O4 2.318289 1_555
Hf12 Mo4 3.003835 1_555
Hf12 Mo3 3.104091 1_565
Hf12 Mo1 3.104091 1_455
Hf12 Mo7 3.129314 1_565
Hf13 O0 2.318282 1_555
Hf13 O3 2.318290 1_555
Hf13 Mo3 3.003842 1_554
Hf13 Mo4 3.104091 1_545
Hf13 Mo0 3.104091 1_555
Hf13 Mo6 3.129321 1_555
Hf14 O4 2.318289 1_655
Hf14 O2 2.318289 1_555
Hf14 Mo5 3.003835 1_555
Hf14 Mo0 3.104091 1_655
Hf14 Mo2 3.104091 1_545
Hf14 Mo7 3.129314 1_655
Hf15 O0 2.318282 1_566
Hf15 O3 2.318290 1_556
Hf15 Mo2 3.003842 1_556
Hf15 Mo5 3.104091 1_565
Hf15 Mo1 3.104091 1_555
Hf15 Mo6 3.129321 1_666
Hf16 O1 2.318289 1_655
Hf16 O0 2.318289 1_555
Hf16 Mo5 3.003835 1_554
Hf16 Mo0 3.104091 1_655
Hf16 Mo2 3.104091 1_545
Hf16 Mo6 3.129314 1_655
Hf17 O0 2.318289 1_566
Hf17 O1 2.318289 1_556
Hf17 Mo4 3.003835 1_556
Hf17 Mo3 3.104091 1_565
Hf17 Mo1 3.104091 1_455
Hf17 Mo6 3.129314 1_566
Mo0 Mo7 2.685216 1_555
Mo0 Mo6 2.685216 1_555
Mo0 Mo2 2.873620 1_445
Mo0 Mo4 2.873621 1_545
Mo1 Mo6 2.685216 1_666
Mo1 Mo7 2.685216 1_665
Mo1 Mo3 2.873620 1_665
Mo1 Mo5 2.873621 1_565
Mo2 Mo7 2.685216 1_665
Mo2 Mo6 2.685216 1_665
Mo2 Mo4 2.873621 1_655
Mo3 Mo7 2.685216 1_555
Mo3 Mo6 2.685216 1_556
Mo3 Mo5 2.873621 1_455
Mo4 Mo6 2.685220 1_565
Mo4 Mo7 2.685220 1_565
Mo5 Mo6 2.685220 1_656
Mo5 Mo7 2.685220 1_655
