# generated using pymatgen
data_CsV2P3O14
_symmetry_space_group_name_H-M   'P 1'
_cell_length_a   6.25274700
_cell_length_b   18.38138200
_cell_length_c   10.07809780
_cell_angle_alpha   90.00000000
_cell_angle_beta   94.89142900
_cell_angle_gamma   90.00000000
_symmetry_Int_Tables_number   1
_chemical_formula_structural   CsV2P3O14
_chemical_formula_sum   'Cs4 V8 P12 O56'
_cell_volume   1154.09889499
_cell_formula_units_Z   4
loop_
 _symmetry_equiv_pos_site_id
 _symmetry_equiv_pos_as_xyz
  1  'x, y, z'
loop_
 _atom_site_type_symbol
 _atom_site_label
 _atom_site_symmetry_multiplicity
 _atom_site_fract_x
 _atom_site_fract_y
 _atom_site_fract_z
 _atom_site_occupancy
  Cs  Cs0  1  0.19768400  0.69803100  0.99390000  1
  Cs  Cs1  1  0.80231600  0.19803100  0.50610000  1
  Cs  Cs2  1  0.80231600  0.30196900  0.00610000  1
  Cs  Cs3  1  0.19768400  0.80196900  0.49390000  1
  V  V0  1  0.70090500  0.87288900  0.15978800  1
  V  V1  1  0.29909500  0.37288900  0.34021200  1
  V  V2  1  0.29909500  0.12711100  0.84021200  1
  V  V3  1  0.70090500  0.62711100  0.65978800  1
  V  V4  1  0.23755700  0.06460600  0.33240100  1
  V  V5  1  0.76244300  0.56460600  0.16759900  1
  V  V6  1  0.76244300  0.93539400  0.66759900  1
  V  V7  1  0.23755700  0.43539400  0.83240100  1
  P  P0  1  0.65926200  0.80420800  0.86292200  1
  P  P1  1  0.34073800  0.30420800  0.63707800  1
  P  P2  1  0.34073800  0.19579200  0.13707800  1
  P  P3  1  0.65926200  0.69579200  0.36292200  1
  P  P4  1  0.74435200  0.00709200  0.37157400  1
  P  P5  1  0.25564800  0.50709200  0.12842600  1
  P  P6  1  0.25564800  0.99290800  0.62842600  1
  P  P7  1  0.74435200  0.49290800  0.87157400  1
  P  P8  1  0.20387100  0.89983700  0.12906700  1
  P  P9  1  0.79612900  0.39983700  0.37093300  1
  P  P10  1  0.79612900  0.10016300  0.87093300  1
  P  P11  1  0.20387100  0.60016300  0.62906700  1
  O  O0  1  0.42147000  0.80139000  0.80715500  1
  O  O1  1  0.57853000  0.30139000  0.69284500  1
  O  O2  1  0.57853000  0.19861000  0.19284500  1
  O  O3  1  0.42147000  0.69861000  0.30715500  1
  O  O4  1  0.75024100  0.73521000  0.80368100  1
  O  O5  1  0.24975900  0.23521000  0.69631900  1
  O  O6  1  0.24975900  0.26479000  0.19631900  1
  O  O7  1  0.75024100  0.76479000  0.30368100  1
  O  O8  1  0.77260800  0.87551400  0.82550200  1
  O  O9  1  0.22739200  0.37551400  0.67449800  1
  O  O10  1  0.22739200  0.12448600  0.17449800  1
  O  O11  1  0.77260800  0.62448600  0.32550200  1
  O  O12  1  0.67818500  0.80005400  0.01876300  1
  O  O13  1  0.32181500  0.30005400  0.48123700  1
  O  O14  1  0.32181500  0.19994600  0.98123700  1
  O  O15  1  0.67818500  0.69994600  0.51876300  1
  O  O16  1  0.67875000  0.94199900  0.06497800  1
  O  O17  1  0.32125000  0.44199900  0.43502200  1
  O  O18  1  0.32125000  0.05800100  0.93502200  1
  O  O19  1  0.67875000  0.55800100  0.56497800  1
  O  O20  1  0.76435200  0.92716800  0.32505000  1
  O  O21  1  0.23564800  0.42716800  0.17495000  1
  O  O22  1  0.23564800  0.07283200  0.67495000  1
  O  O23  1  0.76435200  0.57283200  0.82505000  1
  O  O24  1  0.92870700  0.05581800  0.32760400  1
  O  O25  1  0.07129300  0.55581800  0.17239600  1
  O  O26  1  0.07129300  0.94418200  0.67239600  1
  O  O27  1  0.92870700  0.44418200  0.82760400  1
  O  O28  1  0.75191200  0.00981800  0.52592600  1
  O  O29  1  0.24808800  0.50981800  0.97407400  1
  O  O30  1  0.24808800  0.99018200  0.47407400  1
  O  O31  1  0.75191200  0.49018200  0.02592600  1
  O  O32  1  0.53375000  0.04211700  0.31210000  1
  O  O33  1  0.46625000  0.54211700  0.18790000  1
  O  O34  1  0.46625000  0.95788300  0.68790000  1
  O  O35  1  0.53375000  0.45788300  0.81210000  1
  O  O36  1  0.27155300  0.13292200  0.43271100  1
  O  O37  1  0.72844700  0.63292200  0.06728900  1
  O  O38  1  0.72844700  0.86707800  0.56728900  1
  O  O39  1  0.27155300  0.36707800  0.93271100  1
  O  O40  1  0.18834500  0.97647000  0.18172000  1
  O  O41  1  0.81165500  0.47647000  0.31828000  1
  O  O42  1  0.81165500  0.02353000  0.81828000  1
  O  O43  1  0.18834500  0.52353000  0.68172000  1
  O  O44  1  0.01451700  0.85208400  0.17163700  1
  O  O45  1  0.98548300  0.35208400  0.32836300  1
  O  O46  1  0.98548300  0.14791600  0.82836300  1
  O  O47  1  0.01451700  0.64791600  0.67163700  1
  O  O48  1  0.19542700  0.89634300  0.97632200  1
  O  O49  1  0.80457300  0.39634300  0.52367800  1
  O  O50  1  0.80457300  0.10365700  0.02367800  1
  O  O51  1  0.19542700  0.60365700  0.47632200  1
  O  O52  1  0.41060600  0.85941400  0.19384900  1
  O  O53  1  0.58939400  0.35941400  0.30615100  1
  O  O54  1  0.58939400  0.14058600  0.80615100  1
  O  O55  1  0.41060600  0.64058600  0.69384900  1
loop_
_geom_bond_atom_site_label_1
_geom_bond_atom_site_label_2
_geom_bond_distance
_geom_bond_site_symmetry_2
Cs0 O0 3.091712 1_555
Cs0 O25 3.307025 1_556
Cs0 O37 3.310272 1_456
Cs0 O4 3.324882 1_455
Cs0 O3 3.342377 1_556
Cs0 O47 3.474786 1_555
Cs0 O29 3.481225 1_555
Cs0 O12 3.532417 1_556
Cs0 O37 3.546083 1_556
Cs0 O55 3.566265 1_555
Cs0 O44 3.590084 1_556
Cs0 O48 3.649520 1_555
Cs1 O1 3.091712 1_555
Cs1 O24 3.307025 1_555
Cs1 O36 3.310272 1_655
Cs1 O5 3.324882 1_655
Cs1 O2 3.342377 1_555
Cs1 O46 3.474786 1_555
Cs1 O28 3.481225 1_555
Cs1 O13 3.532417 1_555
Cs1 O36 3.546083 1_555
Cs1 O54 3.566265 1_555
Cs1 O45 3.590084 1_555
Cs1 O49 3.649520 1_555
Cs2 O2 3.091712 1_555
Cs2 O27 3.307025 1_554
Cs2 O39 3.310272 1_654
Cs2 O6 3.324882 1_655
Cs2 O1 3.342377 1_554
Cs2 O45 3.474786 1_555
Cs2 O31 3.481225 1_555
Cs2 O14 3.532417 1_554
Cs2 O39 3.546083 1_554
Cs2 O53 3.566265 1_555
Cs2 O46 3.590084 1_554
Cs2 O50 3.649520 1_555
Cs3 O3 3.091712 1_555
Cs3 O26 3.307025 1_555
Cs3 O38 3.310272 1_455
Cs3 O7 3.324882 1_455
Cs3 O0 3.342377 1_555
Cs3 O44 3.474786 1_555
Cs3 O30 3.481225 1_555
Cs3 O15 3.532417 1_555
Cs3 O38 3.546083 1_555
Cs3 O52 3.566265 1_555
Cs3 O47 3.590084 1_555
Cs3 O51 3.649520 1_555
O0 P0 1.544921 1_555
O1 P1 1.544921 1_555
O2 P2 1.544921 1_555
O3 P3 1.544921 1_555
O4 P0 1.531834 1_555
O4 V3 2.463750 1_555
O5 P1 1.531834 1_555
O5 V2 2.463750 1_555
O6 P2 1.531834 1_555
O6 V1 2.463750 1_555
O7 P3 1.531834 1_555
O7 V0 2.463750 1_555
O8 P0 1.551784 1_555
O8 V6 1.931506 1_555
O9 P1 1.551784 1_555
O9 V7 1.931506 1_555
O10 P2 1.551784 1_555
O10 V4 1.931506 1_555
O11 P3 1.551784 1_555
O11 V5 1.931506 1_555
O12 P0 1.566800 1_554
O12 V0 1.948883 1_555
O13 P1 1.566800 1_555
O13 V1 1.948883 1_555
O14 P2 1.566800 1_556
O14 V2 1.948883 1_555
O15 P3 1.566800 1_555
O15 V3 1.948883 1_555
O16 V0 1.588510 1_555
O17 V1 1.588510 1_555
O18 V2 1.588510 1_555
O19 V3 1.588510 1_555
O20 P4 1.550411 1_565
O20 V0 1.952981 1_555
O21 P5 1.550411 1_555
O21 V1 1.952981 1_555
O22 P6 1.550411 1_545
O22 V2 1.952981 1_555
O23 P7 1.550411 1_555
O23 V3 1.952981 1_555
O24 P4 1.553849 1_555
O24 V4 1.934397 1_655
O25 P5 1.553849 1_555
O25 V5 1.934397 1_455
O26 P6 1.553849 1_555
O26 V6 1.934397 1_455
O27 P7 1.553849 1_555
O27 V7 1.934397 1_655
O28 P4 1.553067 1_555
O28 V6 1.974428 1_545
O29 P5 1.553067 1_556
O29 V7 1.974428 1_555
O30 P6 1.553067 1_555
O30 V4 1.974428 1_565
O31 P7 1.553067 1_554
O31 V5 1.974428 1_555
O32 P4 1.540525 1_555
O32 V4 1.925445 1_555
O33 P5 1.540525 1_555
O33 V5 1.925445 1_555
O34 P6 1.540525 1_555
O34 V6 1.925445 1_555
O35 P7 1.540525 1_555
O35 V7 1.925445 1_555
O36 V4 1.614749 1_555
O37 V5 1.614749 1_555
O38 V6 1.614749 1_555
O39 V7 1.614749 1_555
O40 P8 1.511292 1_555
O40 V4 2.223887 1_565
O41 P9 1.511292 1_555
O41 V5 2.223887 1_555
O42 P10 1.511292 1_555
O42 V6 2.223887 1_545
O43 P11 1.511292 1_555
O43 V7 2.223887 1_555
O44 P8 1.563002 1_555
O44 V0 1.991443 1_455
O45 P9 1.563002 1_555
O45 V1 1.991443 1_655
O46 P10 1.563002 1_555
O46 V2 1.991443 1_655
O47 P11 1.563002 1_555
O47 V3 1.991443 1_455
O48 P8 1.537121 1_556
O49 P9 1.537121 1_555
O50 P10 1.537121 1_554
O51 P11 1.537121 1_555
O52 P8 1.582844 1_555
O52 V0 1.892161 1_555
O53 P9 1.582844 1_555
O53 V1 1.892161 1_555
O54 P10 1.582844 1_555
O54 V2 1.892161 1_555
O55 P11 1.582844 1_555
O55 V3 1.892161 1_555
