# generated using pymatgen
data_YbMoBrO4
_symmetry_space_group_name_H-M   'P 1'
_cell_length_a   6.75861500
_cell_length_b   7.05570581
_cell_length_c   11.92175245
_cell_angle_alpha   105.56912655
_cell_angle_beta   103.56694714
_cell_angle_gamma   88.65851887
_symmetry_Int_Tables_number   1
_chemical_formula_structural   YbMoBrO4
_chemical_formula_sum   'Yb4 Mo4 Br4 O16'
_cell_volume   531.89365188
_cell_formula_units_Z   4
loop_
 _symmetry_equiv_pos_site_id
 _symmetry_equiv_pos_as_xyz
  1  'x, y, z'
loop_
 _atom_site_type_symbol
 _atom_site_label
 _atom_site_symmetry_multiplicity
 _atom_site_fract_x
 _atom_site_fract_y
 _atom_site_fract_z
 _atom_site_occupancy
  Yb  Yb0  1  0.90316600  0.86569100  0.24100400  1
  Yb  Yb1  1  0.09683400  0.13430900  0.75899600  1
  Yb  Yb2  1  0.65883300  0.36814300  0.25671800  1
  Yb  Yb3  1  0.34116700  0.63185700  0.74328200  1
  Mo  Mo0  1  0.57705300  0.18627200  0.87117800  1
  Mo  Mo1  1  0.42294700  0.81372800  0.12882200  1
  Mo  Mo2  1  0.14576700  0.41839700  0.37756600  1
  Mo  Mo3  1  0.85423300  0.58160300  0.62243400  1
  Br  Br0  1  0.66644500  0.03445000  0.50040200  1
  Br  Br1  1  0.33355500  0.96555000  0.49959800  1
  Br  Br2  1  0.22507000  0.29256400  0.02284700  1
  Br  Br3  1  0.77493000  0.70743600  0.97715300  1
  O  O0  1  0.61529200  0.27727700  0.03424600  1
  O  O1  1  0.38470800  0.72272300  0.96575400  1
  O  O2  1  0.81273800  0.14620300  0.82874100  1
  O  O3  1  0.18726200  0.85379700  0.17125900  1
  O  O4  1  0.41741900  0.34016300  0.79278100  1
  O  O5  1  0.58258100  0.65983700  0.20721900  1
  O  O6  1  0.58776900  0.03093900  0.18655500  1
  O  O7  1  0.41223100  0.96906100  0.81344500  1
  O  O8  1  0.37020900  0.36737200  0.32504600  1
  O  O9  1  0.62979100  0.63262800  0.67495400  1
  O  O10  1  0.00602600  0.59962200  0.31065800  1
  O  O11  1  0.99397400  0.40037800  0.68934200  1
  O  O12  1  0.21771500  0.49626300  0.53711600  1
  O  O13  1  0.78228500  0.50373700  0.46288400  1
  O  O14  1  0.97402600  0.19758700  0.31988500  1
  O  O15  1  0.02597400  0.80241300  0.68011500  1
loop_
_geom_bond_atom_site_label_1
_geom_bond_atom_site_label_2
_geom_bond_distance
_geom_bond_site_symmetry_2
Mo0 O2 1.775797 1_555
Mo0 O7 1.793718 1_545
Mo0 O4 1.798157 1_555
Mo0 O0 1.833143 1_556
Mo1 O3 1.775797 1_555
Mo1 O6 1.793718 1_565
Mo1 O5 1.798157 1_555
Mo1 O1 1.833143 1_554
Mo2 O8 1.766839 1_555
Mo2 O12 1.781554 1_555
Mo2 O10 1.816803 1_555
Mo2 O14 1.839166 1_455
Mo3 O9 1.766839 1_555
Mo3 O13 1.781554 1_555
Mo3 O11 1.816803 1_555
Mo3 O15 1.839166 1_655
Br0 Br1 2.310185 1_545
Br0 Yb1 3.631068 1_655
Br0 Yb0 3.714344 1_545
Br1 Yb0 3.631068 1_455
Br1 Yb1 3.714344 1_565
Br2 Yb1 2.961988 1_554
Br3 Yb0 2.961988 1_556
O0 Yb2 2.502392 1_555
O1 Yb3 2.502392 1_555
O2 Yb1 2.255926 1_655
O3 Yb0 2.255926 1_455
O4 Yb3 2.304180 1_555
O4 Yb1 2.527912 1_555
O5 Yb2 2.304180 1_555
O5 Yb0 2.527912 1_555
O6 Yb2 2.321147 1_555
O6 Yb0 2.442422 1_545
O7 Yb3 2.321147 1_555
O7 Yb1 2.442422 1_565
O8 Yb2 2.284118 1_555
O9 Yb3 2.284118 1_555
O10 Yb0 2.280790 1_455
O10 Yb2 2.737699 1_455
O11 Yb1 2.280790 1_655
O11 Yb3 2.737699 1_655
O12 Yb3 2.337842 1_555
O13 Yb2 2.337842 1_555
O14 Yb0 2.292734 1_545
O14 Yb2 2.483363 1_555
O15 Yb1 2.292734 1_565
O15 Yb3 2.483363 1_555
