# generated using pymatgen
data_Cu7Hg6
_symmetry_space_group_name_H-M   'P 1'
_cell_length_a   8.18956100
_cell_length_b   8.30738625
_cell_length_c   8.30738618
_cell_angle_alpha   109.75674418
_cell_angle_beta   109.18416571
_cell_angle_gamma   109.18416554
_symmetry_Int_Tables_number   1
_chemical_formula_structural   Cu7Hg6
_chemical_formula_sum   'Cu14 Hg12'
_cell_volume   436.61015646
_cell_formula_units_Z   2
loop_
 _symmetry_equiv_pos_site_id
 _symmetry_equiv_pos_as_xyz
  1  'x, y, z'
loop_
 _atom_site_type_symbol
 _atom_site_label
 _atom_site_symmetry_multiplicity
 _atom_site_fract_x
 _atom_site_fract_y
 _atom_site_fract_z
 _atom_site_occupancy
  Cu  Cu0  1  0.00449200  0.00000000  0.00000000  1
  Cu  Cu1  1  0.50348100  0.00000000  0.00000000  1
  Cu  Cu2  1  0.15251800  0.32053500  0.32053500  1
  Cu  Cu3  1  0.83198300  0.67946500  0.00000000  1
  Cu  Cu4  1  0.83198300  0.00000000  0.67946500  1
  Cu  Cu5  1  0.85394900  0.67973500  0.67973500  1
  Cu  Cu6  1  0.17421400  0.32026500  0.00000000  1
  Cu  Cu7  1  0.17421400  0.00000000  0.32026500  1
  Cu  Cu8  1  0.63078600  0.80443500  0.80443500  1
  Cu  Cu9  1  0.82635100  0.19556500  0.00000000  1
  Cu  Cu10  1  0.82635100  0.00000000  0.19556500  1
  Cu  Cu11  1  0.37702500  0.19625000  0.19625000  1
  Cu  Cu12  1  0.18077500  0.80375000  0.00000000  1
  Cu  Cu13  1  0.18077500  0.00000000  0.80375000  1
  Hg  Hg0  1  0.11512400  0.22472800  0.61140700  1
  Hg  Hg1  1  0.50371700  0.38859300  0.61332200  1
  Hg  Hg2  1  0.89039500  0.38667800  0.77527200  1
  Hg  Hg3  1  0.11512400  0.61140700  0.22472800  1
  Hg  Hg4  1  0.89039500  0.77527200  0.38667800  1
  Hg  Hg5  1  0.50371700  0.61332200  0.38859300  1
  Hg  Hg6  1  0.20209300  0.64692300  0.64692300  1
  Hg  Hg7  1  0.55517000  0.35307700  0.00000000  1
  Hg  Hg8  1  0.55517000  0.00000000  0.35307700  1
  Hg  Hg9  1  0.80305800  0.35288900  0.35288900  1
  Hg  Hg10  1  0.45016900  0.64711100  0.00000000  1
  Hg  Hg11  1  0.45016900  0.00000000  0.64711100  1
loop_
_geom_bond_atom_site_label_1
_geom_bond_atom_site_label_2
_geom_bond_distance
_geom_bond_site_symmetry_2
Cu0 Cu11 2.507793 1_555
Cu0 Cu13 2.507793 1_554
Cu0 Cu12 2.507793 1_545
Cu0 Cu8 2.515058 1_444
Cu0 Cu10 2.515058 1_455
Cu0 Cu9 2.515059 1_455
Cu0 Cu7 2.565183 1_555
Cu0 Cu6 2.565183 1_555
Cu0 Cu5 2.565183 1_444
Cu0 Cu4 2.571786 1_454
Cu0 Cu3 2.571786 1_445
Cu0 Cu2 2.571786 1_555
Cu1 Cu10 2.609174 1_555
Cu1 Cu9 2.609174 1_555
Cu1 Cu8 2.609174 1_544
Cu1 Cu13 2.609744 1_554
Cu1 Cu12 2.609744 1_545
Cu1 Cu11 2.609744 1_555
Cu1 Hg9 2.818444 1_555
Cu1 Hg11 2.818444 1_554
Cu1 Hg10 2.818444 1_545
Cu1 Hg6 2.822504 1_544
Cu1 Hg8 2.822504 1_555
Cu1 Hg7 2.822504 1_555
Cu2 Cu9 2.633894 1_455
Cu2 Cu6 2.725673 1_555
Cu2 Cu7 2.725673 1_555
Cu2 Hg1 2.812826 1_555
Cu2 Hg5 2.812826 1_555
Cu2 Hg0 2.862257 1_555
Cu2 Hg3 2.862257 1_555
Cu2 Hg6 2.907117 1_555
Cu2 Hg9 3.049153 1_455
Cu3 Cu8 2.633895 1_554
Cu3 Cu7 2.725673 1_665
Cu3 Cu5 2.725673 1_554
Cu3 Hg3 2.812822 1_655
Cu3 Hg2 2.812823 1_554
Cu3 Hg4 2.862251 1_555
Cu3 Hg1 2.862253 1_554
Cu3 Hg7 2.907117 1_555
Cu3 Hg10 3.049153 1_555
Cu4 Cu8 2.633895 1_545
Cu4 Cu9 2.633895 1_556
Cu4 Cu6 2.725673 1_656
Cu4 Cu5 2.725673 1_545
Cu4 Hg0 2.812822 1_655
Cu4 Hg4 2.812823 1_545
Cu4 Hg2 2.862251 1_555
Cu4 Hg5 2.862253 1_545
Cu4 Hg8 2.907117 1_555
Cu4 Hg11 3.049153 1_555
Cu5 Cu8 2.692491 1_555
Cu5 Hg5 2.807068 1_555
Cu5 Hg1 2.807068 1_555
Cu5 Hg4 2.876476 1_555
Cu5 Hg2 2.876476 1_555
Cu5 Hg9 2.906379 1_555
Cu5 Hg6 3.041207 1_655
Cu6 Cu9 2.692491 1_455
Cu6 Hg2 2.807064 1_454
Cu6 Hg3 2.807065 1_555
Cu6 Hg0 2.876470 1_554
Cu6 Hg5 2.876472 1_555
Cu6 Hg10 2.906379 1_555
Cu6 Hg7 3.041207 1_555
Cu7 Hg4 2.807064 1_445
Cu7 Hg0 2.807065 1_555
Cu7 Hg3 2.876471 1_545
Cu7 Hg1 2.876472 1_555
Cu7 Hg11 2.906379 1_555
Cu7 Hg8 3.041207 1_555
Cu8 Cu9 2.657682 1_566
Cu8 Hg10 2.877468 1_556
Cu8 Hg11 2.877468 1_565
Cu8 Hg5 2.895025 1_555
Cu8 Hg1 2.895025 1_555
Cu8 Hg6 2.924767 1_555
Cu9 Hg11 2.877468 1_554
Cu9 Hg9 2.877468 1_555
Cu9 Hg2 2.895017 1_554
Cu9 Hg3 2.895025 1_655
Cu9 Hg7 2.924767 1_555
Cu10 Cu2 2.633894 1_655
Cu10 Cu3 2.633895 1_545
Cu10 Cu8 2.657682 1_544
Cu10 Cu9 2.657682 1_555
Cu10 Cu7 2.692491 1_655
Cu10 Hg10 2.877468 1_545
Cu10 Hg9 2.877468 1_555
Cu10 Hg4 2.895017 1_545
Cu10 Hg0 2.895025 1_655
Cu10 Hg8 2.924767 1_555
Cu11 Cu6 2.637903 1_555
Cu11 Cu7 2.637903 1_555
Cu11 Cu13 2.666991 1_554
Cu11 Cu12 2.666991 1_545
Cu11 Cu2 2.699458 1_555
Cu11 Hg7 2.869452 1_555
Cu11 Hg8 2.869452 1_555
Cu11 Hg1 2.905064 1_555
Cu11 Hg5 2.905064 1_555
Cu11 Hg9 2.906449 1_555
Cu12 Cu5 2.637902 1_454
Cu12 Cu7 2.637903 1_565
Cu12 Cu13 2.666991 1_564
Cu12 Cu3 2.699458 1_455
Cu12 Hg8 2.869452 1_565
Cu12 Hg6 2.869452 1_554
Cu12 Hg3 2.905057 1_555
Cu12 Hg2 2.905064 1_454
Cu12 Hg10 2.906449 1_555
Cu13 Cu5 2.637902 1_445
Cu13 Cu6 2.637903 1_556
Cu13 Cu4 2.699458 1_455
Cu13 Hg7 2.869452 1_556
Cu13 Hg6 2.869452 1_545
Cu13 Hg0 2.905057 1_555
Cu13 Hg4 2.905064 1_445
Cu13 Hg11 2.906449 1_555
Hg0 Hg1 3.014300 1_555
Hg0 Hg2 3.014307 1_455
Hg0 Hg4 3.054001 1_445
Hg0 Hg6 3.227428 1_555
Hg0 Hg10 3.233491 1_556
Hg1 Hg2 3.014300 1_555
Hg1 Hg5 3.054014 1_555
Hg1 Hg7 3.227420 1_556
Hg1 Hg11 3.233487 1_555
Hg2 Hg3 3.054000 1_656
Hg2 Hg8 3.227423 1_555
Hg2 Hg9 3.233495 1_555
Hg3 Hg5 3.014300 1_555
Hg3 Hg4 3.014307 1_455
Hg3 Hg6 3.227428 1_555
Hg4 Hg5 3.014300 1_555
Hg4 Hg7 3.227423 1_555
Hg4 Hg9 3.233495 1_555
Hg5 Hg8 3.227420 1_565
Hg6 Hg9 2.843670 1_455
Hg7 Hg9 2.968052 1_555
Hg8 Hg9 2.968052 1_555
Hg10 Hg7 2.843670 1_555
Hg10 Hg6 2.968052 1_554
Hg10 Hg8 2.968052 1_565
Hg10 Hg5 3.233487 1_555
Hg11 Hg8 2.843670 1_555
Hg11 Hg6 2.968052 1_545
Hg11 Hg7 2.968052 1_556
Hg11 Hg3 3.233491 1_545
