# generated using pymatgen
data_Al2Fe(PO8)2
_symmetry_space_group_name_H-M   'P 1'
_cell_length_a   6.12694400
_cell_length_b   9.00158131
_cell_length_c   11.08869066
_cell_angle_alpha   103.32244022
_cell_angle_beta   97.08644363
_cell_angle_gamma   92.63592619
_symmetry_Int_Tables_number   1
_chemical_formula_structural   Al2Fe(PO8)2
_chemical_formula_sum   'Al4 Fe2 P4 O32'
_cell_volume   588.80533276
_cell_formula_units_Z   2
loop_
 _symmetry_equiv_pos_site_id
 _symmetry_equiv_pos_as_xyz
  1  'x, y, z'
loop_
 _atom_site_type_symbol
 _atom_site_label
 _atom_site_symmetry_multiplicity
 _atom_site_fract_x
 _atom_site_fract_y
 _atom_site_fract_z
 _atom_site_occupancy
  Al  Al0  1  0.81387600  0.30411200  0.68862600  1
  Al  Al1  1  0.18612400  0.69588800  0.31137400  1
  Al  Al2  1  0.50000000  0.00000000  0.50000000  1
  Al  Al3  1  0.00000000  0.50000000  0.50000000  1
  Fe  Fe0  1  0.00000000  0.00000000  0.00000000  1
  Fe  Fe1  1  0.00000000  0.00000000  0.50000000  1
  P  P0  1  0.79270200  0.00309500  0.74013000  1
  P  P1  1  0.20729800  0.99690500  0.25987000  1
  P  P2  1  0.69437900  0.68621000  0.36495400  1
  P  P3  1  0.30562100  0.31379000  0.63504600  1
  O  O0  1  0.82096500  0.17876100  0.80005200  1
  O  O1  1  0.17903500  0.82123900  0.19994800  1
  O  O2  1  0.98945100  0.95574200  0.66647300  1
  O  O3  1  0.01054900  0.04425800  0.33352700  1
  O  O4  1  0.57102100  0.95810900  0.65634200  1
  O  O5  1  0.42897900  0.04189100  0.34365800  1
  O  O6  1  0.80676100  0.92313400  0.85191600  1
  O  O7  1  0.19323900  0.07686600  0.14808400  1
  O  O8  1  0.70947200  0.86077800  0.43305300  1
  O  O9  1  0.29052800  0.13922200  0.56694700  1
  O  O10  1  0.53494700  0.35946900  0.70866800  1
  O  O11  1  0.46505300  0.64053100  0.29133200  1
  O  O12  1  0.87286800  0.66770900  0.27504500  1
  O  O13  1  0.12713200  0.33229100  0.72495500  1
  O  O14  1  0.74779900  0.59478100  0.46481100  1
  O  O15  1  0.25220100  0.40521900  0.53518900  1
  O  O16  1  0.89388800  0.48187200  0.64790200  1
  O  O17  1  0.10611200  0.51812800  0.35209800  1
  O  O18  1  0.76493200  0.15011500  0.54283700  1
  O  O19  1  0.23506800  0.84988500  0.45716300  1
  O  O20  1  0.75038000  0.22733800  0.14678100  1
  O  O21  1  0.24962000  0.77266200  0.85321900  1
  O  O22  1  0.73231300  0.07006600  0.08977300  1
  O  O23  1  0.26768700  0.92993400  0.91022700  1
  O  O24  1  0.84826200  0.59200300  0.93278500  1
  O  O25  1  0.15173800  0.40799700  0.06721500  1
  O  O26  1  0.81757600  0.30332600  0.41379400  1
  O  O27  1  0.18242400  0.69667400  0.58620600  1
  O  O28  1  0.68296100  0.61411900  0.98551300  1
  O  O29  1  0.31703900  0.38588100  0.01448700  1
  O  O30  1  0.63410900  0.26682500  0.23224200  1
  O  O31  1  0.36589100  0.73317500  0.76775800  1
loop_
_geom_bond_atom_site_label_1
_geom_bond_atom_site_label_2
_geom_bond_distance
_geom_bond_site_symmetry_2
Al0 O16 1.822117 1_555
Al0 O10 1.827379 1_555
Al0 O18 1.853193 1_555
Al0 O0 1.853507 1_555
Al0 O13 1.904653 1_655
Al1 O17 1.822117 1_555
Al1 O11 1.827379 1_555
Al1 O19 1.853193 1_555
Al1 O1 1.853507 1_555
Al1 O12 1.904653 1_455
Al2 O4 1.862055 1_545
Al2 O5 1.862055 1_555
Al2 O8 1.929529 1_545
Al2 O9 1.929529 1_555
Al2 O18 1.999656 1_555
Al2 O19 1.999656 1_545
Al3 O15 1.842226 1_555
Al3 O14 1.842226 1_455
Al3 O16 1.875021 1_455
Al3 O17 1.875021 1_555
Al3 O26 2.017848 1_455
Al3 O27 2.017848 1_555
Fe0 O7 1.870354 1_555
Fe0 O6 1.870354 1_444
Fe0 O22 2.070581 1_455
Fe0 O23 2.070581 1_544
Fe1 O3 1.984058 1_555
Fe1 O2 1.984058 1_445
Fe1 O19 2.043985 1_545
Fe1 O18 2.043985 1_455
Fe1 O8 2.080923 1_445
Fe1 O9 2.080923 1_555
O0 P0 1.560164 1_555
O1 P1 1.560164 1_555
O2 P0 1.559387 1_565
O3 P1 1.559387 1_545
O4 P0 1.528609 1_565
O5 P1 1.528609 1_545
O6 P0 1.566061 1_565
O7 P1 1.566061 1_545
O8 P2 1.571807 1_555
O9 P3 1.571807 1_555
O10 P3 1.522790 1_555
O11 P2 1.522790 1_555
O12 P2 1.557843 1_555
O13 P3 1.557843 1_555
O14 P2 1.538142 1_555
O15 P3 1.538142 1_555
O20 O30 1.251599 1_555
O20 O22 1.404258 1_555
O21 O31 1.251599 1_555
O21 O23 1.404258 1_555
O24 O28 1.232169 1_555
O25 O29 1.232169 1_555
