# generated using pymatgen
data_NaEr(SO4)2
_symmetry_space_group_name_H-M   'P 1'
_cell_length_a   6.89431800
_cell_length_b   4.74491300
_cell_length_c   9.87401853
_cell_angle_alpha   82.76250571
_cell_angle_beta   90.00000000
_cell_angle_gamma   90.00000000
_symmetry_Int_Tables_number   1
_chemical_formula_structural   NaEr(SO4)2
_chemical_formula_sum   'Na2 Er2 S4 O16'
_cell_volume   320.43458992
_cell_formula_units_Z   2
loop_
 _symmetry_equiv_pos_site_id
 _symmetry_equiv_pos_as_xyz
  1  'x, y, z'
loop_
 _atom_site_type_symbol
 _atom_site_label
 _atom_site_symmetry_multiplicity
 _atom_site_fract_x
 _atom_site_fract_y
 _atom_site_fract_z
 _atom_site_occupancy
  Na  Na0  1  0.25000000  0.37820500  0.35940500  1
  Na  Na1  1  0.75000000  0.62179500  0.64059500  1
  Er  Er0  1  0.75000000  0.65086600  0.17588700  1
  Er  Er1  1  0.25000000  0.34913400  0.82411300  1
  S  S0  1  0.25000000  0.85319500  0.07053800  1
  S  S1  1  0.75000000  0.14680500  0.92946200  1
  S  S2  1  0.75000000  0.16837500  0.39915700  1
  S  S3  1  0.25000000  0.83162500  0.60084300  1
  O  O0  1  0.25000000  0.83520600  0.45289900  1
  O  O1  1  0.75000000  0.16479400  0.54710100  1
  O  O2  1  0.75000000  0.87002900  0.36546300  1
  O  O3  1  0.25000000  0.12997100  0.63453700  1
  O  O4  1  0.57634200  0.26250700  0.85383200  1
  O  O5  1  0.07634200  0.73749300  0.14616800  1
  O  O6  1  0.42365800  0.73749300  0.14616800  1
  O  O7  1  0.92365800  0.26250700  0.85383200  1
  O  O8  1  0.75000000  0.83086300  0.94479700  1
  O  O9  1  0.25000000  0.16913700  0.05520300  1
  O  O10  1  0.25000000  0.77445000  0.92733600  1
  O  O11  1  0.75000000  0.22555000  0.07266400  1
  O  O12  1  0.07940400  0.67405900  0.66852000  1
  O  O13  1  0.57940400  0.32594100  0.33148000  1
  O  O14  1  0.92059600  0.32594100  0.33148000  1
  O  O15  1  0.42059600  0.67405900  0.66852000  1
loop_
_geom_bond_atom_site_label_1
_geom_bond_atom_site_label_2
_geom_bond_distance
_geom_bond_site_symmetry_2
Na0 O13 2.304836 1_555
Na0 O14 2.304836 1_455
Na0 O0 2.461443 1_555
Na0 O0 2.625108 1_545
Na0 O5 2.805079 1_555
Na0 O6 2.805079 1_555
Na0 O3 2.821581 1_555
Na1 O12 2.304836 1_655
Na1 O15 2.304836 1_555
Na1 O1 2.461443 1_555
Na1 O1 2.625108 1_565
Na1 O7 2.805079 1_555
Na1 O4 2.805079 1_555
Na1 O2 2.821581 1_555
Er0 O2 2.252955 1_555
Er0 O5 2.299292 1_655
Er0 O6 2.299292 1_555
Er0 O8 2.333443 1_554
Er0 O14 2.350271 1_555
Er0 O13 2.350271 1_555
Er0 O11 2.372712 1_555
Er0 O11 2.788212 1_565
Er1 O3 2.252955 1_555
Er1 O7 2.299292 1_455
Er1 O4 2.299292 1_555
Er1 O9 2.333443 1_556
Er1 O15 2.350271 1_555
Er1 O12 2.350271 1_555
Er1 O10 2.372712 1_555
Er1 O10 2.788212 1_545
O0 S3 1.458759 1_555
O1 S2 1.458759 1_555
O2 S2 1.494440 1_565
O3 S3 1.494440 1_545
O4 S1 1.479588 1_555
O5 S0 1.479588 1_555
O6 S0 1.479588 1_555
O7 S1 1.479588 1_555
O8 S1 1.487644 1_565
O9 S0 1.487644 1_545
O10 S0 1.507335 1_556
O11 S1 1.507335 1_554
O12 S3 1.504307 1_555
O13 S2 1.504307 1_555
O14 S2 1.504307 1_555
O15 S3 1.504307 1_555
