# generated using pymatgen
data_CsRu2C8(ClO4)2
_symmetry_space_group_name_H-M   'P 1'
_cell_length_a   12.13134300
_cell_length_b   12.13134300
_cell_length_c   11.31194600
_cell_angle_alpha   90.00000000
_cell_angle_beta   90.00000000
_cell_angle_gamma   90.00000000
_symmetry_Int_Tables_number   1
_chemical_formula_structural   CsRu2C8(ClO4)2
_chemical_formula_sum   'Cs4 Ru8 C32 Cl8 O32'
_cell_volume   1664.77324436
_cell_formula_units_Z   4
loop_
 _symmetry_equiv_pos_site_id
 _symmetry_equiv_pos_as_xyz
  1  'x, y, z'
loop_
 _atom_site_type_symbol
 _atom_site_label
 _atom_site_symmetry_multiplicity
 _atom_site_fract_x
 _atom_site_fract_y
 _atom_site_fract_z
 _atom_site_occupancy
  Cs  Cs0  1  0.50000000  0.00000000  0.94416100  1
  Cs  Cs1  1  0.50000000  0.00000000  0.44416100  1
  Cs  Cs2  1  0.00000000  0.50000000  0.55583900  1
  Cs  Cs3  1  0.00000000  0.50000000  0.05583900  1
  Ru  Ru0  1  0.28144100  0.15995600  0.72740300  1
  Ru  Ru1  1  0.71855900  0.84004400  0.72740300  1
  Ru  Ru2  1  0.34004400  0.78144100  0.22740300  1
  Ru  Ru3  1  0.65995600  0.21855900  0.22740300  1
  Ru  Ru4  1  0.21855900  0.34004400  0.77259700  1
  Ru  Ru5  1  0.78144100  0.65995600  0.77259700  1
  Ru  Ru6  1  0.15995600  0.71855900  0.27259700  1
  Ru  Ru7  1  0.84004400  0.28144100  0.27259700  1
  C  C0  1  0.05133500  0.19690600  0.66949900  1
  C  C1  1  0.94866500  0.80309400  0.66949900  1
  C  C2  1  0.30309400  0.55133500  0.16949900  1
  C  C3  1  0.69690600  0.44866500  0.16949900  1
  C  C4  1  0.44866500  0.30309400  0.83050100  1
  C  C5  1  0.55133500  0.69690600  0.83050100  1
  C  C6  1  0.19690600  0.94866500  0.33050100  1
  C  C7  1  0.80309400  0.05133500  0.33050100  1
  C  C8  1  0.30562400  0.31514100  0.53410900  1
  C  C9  1  0.69437600  0.68485900  0.53410900  1
  C  C10  1  0.18485900  0.80562400  0.03410900  1
  C  C11  1  0.81514100  0.19437600  0.03410900  1
  C  C12  1  0.19437600  0.18485900  0.96589100  1
  C  C13  1  0.80562400  0.81514100  0.96589100  1
  C  C14  1  0.31514100  0.69437600  0.46589100  1
  C  C15  1  0.68485900  0.30562400  0.46589100  1
  C  C16  1  0.94500400  0.16975700  0.62147800  1
  C  C17  1  0.05499600  0.83024300  0.62147800  1
  C  C18  1  0.33024300  0.44500400  0.12147800  1
  C  C19  1  0.66975700  0.55499600  0.12147800  1
  C  C20  1  0.55499600  0.33024300  0.87852200  1
  C  C21  1  0.44500400  0.66975700  0.87852200  1
  C  C22  1  0.16975700  0.05499600  0.37852200  1
  C  C23  1  0.83024300  0.94500400  0.37852200  1
  C  C24  1  0.33387700  0.35236300  0.41706700  1
  C  C25  1  0.66612300  0.64763700  0.41706700  1
  C  C26  1  0.14763700  0.83387700  0.91706700  1
  C  C27  1  0.85236300  0.16612300  0.91706700  1
  C  C28  1  0.16612300  0.14763700  0.08293300  1
  C  C29  1  0.83387700  0.85236300  0.08293300  1
  C  C30  1  0.35236300  0.66612300  0.58293300  1
  C  C31  1  0.64763700  0.33387700  0.58293300  1
  Cl  Cl0  1  0.33384600  0.96720500  0.68472800  1
  Cl  Cl1  1  0.66615400  0.03279500  0.68472800  1
  Cl  Cl2  1  0.53279500  0.83384600  0.18472800  1
  Cl  Cl3  1  0.46720500  0.16615400  0.18472800  1
  Cl  Cl4  1  0.16615400  0.53279500  0.81527200  1
  Cl  Cl5  1  0.83384600  0.46720500  0.81527200  1
  Cl  Cl6  1  0.96720500  0.66615400  0.31527200  1
  Cl  Cl7  1  0.03279500  0.33384600  0.31527200  1
  O  O0  1  0.12655100  0.12192000  0.66885800  1
  O  O1  1  0.87344900  0.87808000  0.66885800  1
  O  O2  1  0.37808000  0.62655100  0.16885800  1
  O  O3  1  0.62192000  0.37344900  0.16885800  1
  O  O4  1  0.37344900  0.37808000  0.83114200  1
  O  O5  1  0.62655100  0.62192000  0.83114200  1
  O  O6  1  0.12192000  0.87344900  0.33114200  1
  O  O7  1  0.87808000  0.12655100  0.33114200  1
  O  O8  1  0.43360600  0.20321400  0.79137700  1
  O  O9  1  0.56639400  0.79678600  0.79137700  1
  O  O10  1  0.29678600  0.93360600  0.29137700  1
  O  O11  1  0.70321400  0.06639400  0.29137700  1
  O  O12  1  0.06639400  0.29678600  0.70862300  1
  O  O13  1  0.93360600  0.70321400  0.70862300  1
  O  O14  1  0.20321400  0.56639400  0.20862300  1
  O  O15  1  0.79678600  0.43360600  0.20862300  1
  O  O16  1  0.32611700  0.21406900  0.56296500  1
  O  O17  1  0.67388300  0.78593100  0.56296500  1
  O  O18  1  0.28593100  0.82611700  0.06296500  1
  O  O19  1  0.71406900  0.17388300  0.06296500  1
  O  O20  1  0.17388300  0.28593100  0.93703500  1
  O  O21  1  0.82611700  0.71406900  0.93703500  1
  O  O22  1  0.21406900  0.67388300  0.43703500  1
  O  O23  1  0.78593100  0.32611700  0.43703500  1
  O  O24  1  0.23879900  0.11245000  0.89643200  1
  O  O25  1  0.76120100  0.88755000  0.89643200  1
  O  O26  1  0.38755000  0.73879900  0.39643200  1
  O  O27  1  0.61245000  0.26120100  0.39643200  1
  O  O28  1  0.26120100  0.38755000  0.60356800  1
  O  O29  1  0.73879900  0.61245000  0.60356800  1
  O  O30  1  0.11245000  0.76120100  0.10356800  1
  O  O31  1  0.88755000  0.23879900  0.10356800  1
loop_
_geom_bond_atom_site_label_1
_geom_bond_atom_site_label_2
_geom_bond_distance
_geom_bond_site_symmetry_2
Cs0 O8 3.116603 1_555
Cs0 O9 3.116603 1_545
Cs0 O25 3.491882 1_545
Cs0 O24 3.491882 1_555
Cs0 O19 3.605539 1_556
Cs0 O18 3.605539 1_546
Cs1 O11 3.116603 1_555
Cs1 O10 3.116603 1_545
Cs1 O27 3.491882 1_555
Cs1 O26 3.491882 1_545
Cs1 O16 3.605539 1_555
Cs1 O17 3.605539 1_545
Cs2 O12 3.116603 1_555
Cs2 O13 3.116603 1_455
Cs2 O28 3.491882 1_555
Cs2 O29 3.491882 1_455
Cs2 O22 3.605539 1_555
Cs2 O23 3.605539 1_455
Cs3 O14 3.116603 1_555
Cs3 O15 3.116603 1_455
Cs3 O30 3.491882 1_555
Cs3 O31 3.491882 1_455
Cs3 O20 3.605539 1_554
Cs3 O21 3.605539 1_454
C0 O0 1.288478 1_555
C0 O12 1.302845 1_555
C0 C16 1.437877 1_455
C1 O1 1.288478 1_555
C1 O13 1.302845 1_555
C1 C17 1.437877 1_655
C2 O2 1.288478 1_555
C2 O14 1.302845 1_555
C3 O3 1.288478 1_555
C3 O15 1.302845 1_555
C4 O4 1.288478 1_555
C4 O8 1.302845 1_555
C5 O5 1.288478 1_555
C5 O9 1.302845 1_555
C6 O6 1.288478 1_555
C6 O10 1.302845 1_555
C7 O7 1.288478 1_555
C7 O11 1.302845 1_555
C8 O16 1.292970 1_555
C8 O28 1.295914 1_555
C9 O17 1.292970 1_555
C9 O29 1.295914 1_555
C10 O18 1.292970 1_555
C10 O30 1.295914 1_555
C10 C26 1.440236 1_554
C11 O19 1.292970 1_555
C11 O31 1.295914 1_555
C11 C27 1.440236 1_554
C12 O20 1.292970 1_555
C12 O24 1.295914 1_555
C12 C28 1.440236 1_556
C13 O21 1.292970 1_555
C13 O25 1.295914 1_555
C13 C29 1.440236 1_556
C14 O22 1.292970 1_555
C14 O26 1.295914 1_555
C14 C30 1.440236 1_555
C15 O23 1.292970 1_555
C15 O27 1.295914 1_555
C15 C31 1.440236 1_555
C18 C2 1.437877 1_555
C19 C3 1.437877 1_555
C20 C4 1.437877 1_555
C21 C5 1.437877 1_555
C22 C6 1.437877 1_545
C23 C7 1.437877 1_565
C24 C8 1.440236 1_555
C25 C9 1.440236 1_555
Cl0 Ru0 2.470827 1_565
Cl0 Cs1 3.409778 1_565
Cl0 Cs0 3.582406 1_565
Cl1 Ru1 2.470827 1_545
Cl1 Cs1 3.409778 1_555
Cl1 Cs0 3.582406 1_555
Cl2 Ru2 2.470827 1_555
Cl2 Cs0 3.409778 1_564
Cl2 Cs1 3.582406 1_565
Cl3 Ru3 2.470827 1_555
Cl3 Cs0 3.409778 1_554
Cl3 Cs1 3.582406 1_555
Cl4 Ru4 2.470827 1_555
Cl4 Cs3 3.409778 1_556
Cl4 Cs2 3.582406 1_555
Cl5 Ru5 2.470827 1_555
Cl5 Cs3 3.409778 1_656
Cl5 Cs2 3.582406 1_655
Cl6 Ru6 2.470827 1_655
Cl6 Cs2 3.409778 1_655
Cl6 Cs3 3.582406 1_655
Cl7 Ru7 2.470827 1_455
Cl7 Cs2 3.409778 1_555
Cl7 Cs3 3.582406 1_555
O0 Ru0 2.045050 1_555
O1 Ru1 2.045050 1_555
O2 Ru2 2.045050 1_555
O3 Ru3 2.045050 1_555
O4 Ru4 2.045050 1_555
O5 Ru5 2.045050 1_555
O6 Ru6 2.045050 1_555
O7 Ru7 2.045050 1_555
O8 Ru0 2.051019 1_555
O9 Ru1 2.051019 1_555
O10 Ru2 2.051019 1_555
O11 Ru3 2.051019 1_555
O12 Ru4 2.051019 1_555
O13 Ru5 2.051019 1_555
O14 Ru6 2.051019 1_555
O15 Ru7 2.051019 1_555
O16 Ru0 2.045656 1_555
O17 Ru1 2.045656 1_555
O18 Ru2 2.045656 1_555
O19 Ru3 2.045656 1_555
O20 Ru4 2.045656 1_555
O21 Ru5 2.045656 1_555
O22 Ru6 2.045656 1_555
O23 Ru7 2.045656 1_555
O24 Ru0 2.062926 1_555
O25 Ru1 2.062926 1_555
O26 Ru2 2.062926 1_555
O27 Ru3 2.062926 1_555
O28 Ru4 2.062926 1_555
O29 Ru5 2.062926 1_555
O30 Ru6 2.062926 1_555
O31 Ru7 2.062926 1_555
