# generated using pymatgen
data_Tb6Ga19Pd3
_symmetry_space_group_name_H-M   'P 1'
_cell_length_a   4.26390800
_cell_length_b   8.19182697
_cell_length_c   16.19419061
_cell_angle_alpha   106.79701899
_cell_angle_beta   82.43509360
_cell_angle_gamma   105.08511432
_symmetry_Int_Tables_number   1
_chemical_formula_structural   Tb6Ga19Pd3
_chemical_formula_sum   'Tb6 Ga19 Pd3'
_cell_volume   521.88023840
_cell_formula_units_Z   1
loop_
 _symmetry_equiv_pos_site_id
 _symmetry_equiv_pos_as_xyz
  1  'x, y, z'
loop_
 _atom_site_type_symbol
 _atom_site_label
 _atom_site_symmetry_multiplicity
 _atom_site_fract_x
 _atom_site_fract_y
 _atom_site_fract_z
 _atom_site_occupancy
  Tb  Tb0  1  0.25099500  0.75025000  0.24826000  1
  Tb  Tb1  1  0.74930500  0.24954400  0.75093400  1
  Tb  Tb2  1  0.39918600  0.20464000  0.40626800  1
  Tb  Tb3  1  0.90827000  0.72140700  0.90486700  1
  Tb  Tb4  1  0.09236800  0.27925800  0.09452200  1
  Tb  Tb5  1  0.59849800  0.79270300  0.59570800  1
  Ga  Ga0  1  0.17618000  0.81174100  0.45938000  1
  Ga  Ga1  1  0.68103300  0.31742500  0.95536000  1
  Ga  Ga2  1  0.31839300  0.67736200  0.04057600  1
  Ga  Ga3  1  0.82257200  0.18791800  0.54277500  1
  Ga  Ga4  1  0.45830900  0.09933900  0.18272000  1
  Ga  Ga5  1  0.95955100  0.59596500  0.67686200  1
  Ga  Ga6  1  0.03996500  0.40475700  0.32482700  1
  Ga  Ga7  1  0.54466800  0.90786800  0.81853300  1
  Ga  Ga8  1  0.73117900  0.57070300  0.10834600  1
  Ga  Ga9  1  0.23828000  0.08211100  0.60555000  1
  Ga  Ga10  1  0.75962000  0.91674300  0.39750300  1
  Ga  Ga11  1  0.26665600  0.42384700  0.89053500  1
  Ga  Ga12  1  0.60474500  0.44922800  0.23973800  1
  Ga  Ga13  1  0.10747800  0.94816400  0.73320700  1
  Ga  Ga14  1  0.89017500  0.04882800  0.26847800  1
  Ga  Ga15  1  0.39511600  0.55239000  0.76215900  1
  Ga  Ga16  1  0.50648300  0.00668500  0.99371800  1
  Ga  Ga17  1  0.99950600  0.49966100  0.50064800  1
  Ga  Ga18  1  0.89820400  0.89737300  0.10096500  1
  Pd  Pd0  1  0.40406500  0.40512700  0.59699600  1
  Pd  Pd1  1  0.59572900  0.59495300  0.40349600  1
  Pd  Pd2  1  0.10347100  0.10401200  0.89707100  1
loop_
_geom_bond_atom_site_label_1
_geom_bond_atom_site_label_2
_geom_bond_distance
_geom_bond_site_symmetry_2
Ga0 Ga10 2.580847 1_455
Ga0 Ga10 2.580851 1_555
Ga0 Ga17 2.720720 1_455
Ga0 Ga9 2.721840 1_565
Ga0 Pd1 2.733395 1_455
Ga0 Pd1 2.733401 1_555
Ga0 Tb5 3.087531 1_455
Ga0 Tb5 3.087537 1_555
Ga0 Tb0 3.293267 1_555
Ga0 Tb2 3.434346 1_565
Ga1 Ga11 2.608247 1_655
Ga1 Ga11 2.608250 1_555
Ga1 Ga16 2.688037 1_555
Ga1 Ga8 2.725093 1_556
Ga1 Pd2 2.725702 1_655
Ga1 Pd2 2.725703 1_555
Ga1 Tb4 3.160074 1_656
Ga1 Tb4 3.160077 1_556
Ga1 Tb1 3.181196 1_555
Ga1 Tb3 3.499373 1_555
Ga2 Ga8 2.632302 1_455
Ga2 Ga8 2.632305 1_555
Ga2 Tb3 3.133164 1_454
Ga2 Tb3 3.133164 1_554
Ga2 Tb0 3.228760 1_555
Ga2 Tb4 3.480867 1_555
Ga3 Ga9 2.590369 1_655
Ga3 Ga9 2.590377 1_555
Ga3 Pd0 2.731028 1_655
Ga3 Pd0 2.731034 1_555
Ga3 Tb2 3.085308 1_655
Ga3 Tb2 3.085311 1_555
Ga3 Tb1 3.246092 1_555
Ga3 Tb5 3.450734 1_545
Ga4 Tb4 3.106037 1_555
Ga4 Tb4 3.106040 1_655
Ga4 Tb0 3.205786 1_545
Ga4 Tb2 3.461412 1_555
Ga5 Pd0 2.727157 1_655
Ga5 Pd0 2.727157 1_555
Ga5 Tb5 3.121370 1_555
Ga5 Tb5 3.121376 1_655
Ga5 Tb1 3.264335 1_555
Ga5 Tb3 3.528271 1_555
Ga6 Pd1 2.718827 1_455
Ga6 Pd1 2.718831 1_555
Ga6 Tb2 3.140271 1_555
Ga6 Tb2 3.140271 1_455
Ga6 Tb0 3.281186 1_555
Ga6 Tb4 3.563826 1_555
Ga7 Pd2 2.738722 1_565
Ga7 Pd2 2.738722 1_665
Ga7 Tb3 3.119147 1_555
Ga7 Tb3 3.119150 1_455
Ga7 Tb1 3.168923 1_565
Ga7 Tb5 3.448312 1_555
Ga8 Tb4 3.104208 1_655
Ga8 Tb4 3.104211 1_555
Ga8 Tb0 3.147873 1_655
Ga8 Tb0 3.147875 1_555
Ga9 Pd0 2.594830 1_555
Ga9 Tb5 3.101222 1_445
Ga9 Tb5 3.101228 1_545
Ga9 Tb1 3.178201 1_455
Ga9 Tb1 3.178204 1_555
Ga10 Ga14 2.556047 1_565
Ga10 Pd1 2.572486 1_555
Ga10 Ga3 2.716017 1_565
Ga10 Tb2 3.095128 1_565
Ga10 Tb2 3.095129 1_665
Ga10 Tb0 3.215610 1_655
Ga10 Tb0 3.215611 1_555
Ga11 Ga15 2.529041 1_555
Ga11 Pd2 2.559669 1_555
Ga11 Ga2 2.692893 1_556
Ga11 Tb1 3.134286 1_555
Ga11 Tb1 3.134286 1_455
Ga11 Tb3 3.138344 1_455
Ga11 Tb3 3.138345 1_555
Ga12 Ga8 2.539850 1_555
Ga12 Pd1 2.574219 1_555
Ga12 Ga6 2.605861 1_655
Ga12 Ga6 2.605862 1_555
Ga12 Ga4 2.673648 1_555
Ga12 Tb0 3.171667 1_555
Ga12 Tb0 3.171668 1_655
Ga12 Tb4 3.181029 1_655
Ga12 Tb4 3.181029 1_555
Ga13 Ga9 2.545138 1_565
Ga13 Pd2 2.591021 1_565
Ga13 Ga7 2.599116 1_455
Ga13 Ga7 2.599122 1_555
Ga13 Ga5 2.690225 1_455
Ga13 Tb5 3.079734 1_455
Ga13 Tb5 3.079740 1_555
Ga13 Tb1 3.153971 1_465
Ga13 Tb1 3.153974 1_565
Ga14 Ga4 2.625427 1_655
Ga14 Ga4 2.625431 1_555
Ga14 Ga18 2.636637 1_545
Ga14 Ga6 2.718156 1_655
Ga14 Tb2 3.083169 1_555
Ga14 Tb2 3.083169 1_655
Ga14 Tb0 3.133659 1_645
Ga14 Tb0 3.133660 1_545
Ga15 Pd0 2.596707 1_555
Ga15 Ga5 2.605793 1_555
Ga15 Ga5 2.605799 1_455
Ga15 Ga7 2.714800 1_555
Ga15 Tb3 3.154462 1_555
Ga15 Tb3 3.154465 1_455
Ga15 Tb1 3.175808 1_555
Ga15 Tb1 3.175811 1_455
Ga16 Ga7 2.711073 1_545
Ga16 Pd2 2.860187 1_555
Ga16 Pd2 2.860193 1_655
Ga16 Ga2 2.897184 1_546
Ga16 Ga4 2.925631 1_556
Ga16 Ga18 3.008185 1_446
Ga16 Ga18 3.008188 1_546
Ga16 Tb4 3.155153 1_556
Ga16 Tb4 3.155156 1_656
Ga16 Tb3 3.155643 1_445
Ga16 Tb3 3.155645 1_545
Ga17 Ga6 2.720712 1_655
Ga17 Ga3 2.724845 1_555
Ga17 Ga5 2.726808 1_555
Ga17 Pd0 2.848181 1_655
Ga17 Pd0 2.848182 1_555
Ga17 Pd1 2.858553 1_555
Ga17 Pd1 2.858560 1_655
Ga17 Tb5 3.219264 1_555
Ga17 Tb5 3.219270 1_655
Ga17 Tb2 3.225543 1_555
Ga17 Tb2 3.225545 1_655
Ga18 Ga8 2.617835 1_555
Ga18 Ga2 2.759596 1_655
Ga18 Ga2 2.759596 1_555
Ga18 Ga4 2.775549 1_665
Ga18 Ga4 2.775552 1_565
Ga18 Tb4 3.049690 1_665
Ga18 Tb3 3.084649 1_554
Ga18 Tb0 3.599314 1_655
Ga18 Tb0 3.599314 1_555
Pd0 Tb2 3.050414 1_555
Pd0 Tb5 3.071115 1_555
Pd1 Tb5 3.065736 1_555
Pd1 Tb2 3.099335 1_555
Pd2 Tb3 3.061913 1_445
Pd2 Tb4 3.103221 1_556
