# generated using pymatgen
data_Si3Os2
_symmetry_space_group_name_H-M   'P 1'
_cell_length_a   5.62219928
_cell_length_b   5.62219928
_cell_length_c   8.88666177
_cell_angle_alpha   90.00000000
_cell_angle_beta   90.00000000
_cell_angle_gamma   90.00000000
_symmetry_Int_Tables_number   1
_chemical_formula_structural   Si3Os2
_chemical_formula_sum   'Si12 Os8'
_cell_volume   280.89960045
_cell_formula_units_Z   4
loop_
 _symmetry_equiv_pos_site_id
 _symmetry_equiv_pos_as_xyz
  1  'x, y, z'
loop_
 _atom_site_type_symbol
 _atom_site_label
 _atom_site_symmetry_multiplicity
 _atom_site_fract_x
 _atom_site_fract_y
 _atom_site_fract_z
 _atom_site_occupancy
  Si  Si0  1  0.83059708  0.83059708  0.75000000  1
  Si  Si1  1  0.83059708  0.16940292  0.25000000  1
  Si  Si2  1  0.16940292  0.83059708  0.25000000  1
  Si  Si3  1  0.16940292  0.16940292  0.75000000  1
  Si  Si4  1  0.20378737  0.64440287  0.59258807  1
  Si  Si5  1  0.79621263  0.35559713  0.59258807  1
  Si  Si6  1  0.64440287  0.79621263  0.40741193  1
  Si  Si7  1  0.35559713  0.20378737  0.40741193  1
  Si  Si8  1  0.20378737  0.35559713  0.09258807  1
  Si  Si9  1  0.35559713  0.79621263  0.90741193  1
  Si  Si10  1  0.64440287  0.20378737  0.90741193  1
  Si  Si11  1  0.79621263  0.64440287  0.09258807  1
  Os  Os0  1  -0.00000000  -0.00000000  0.50000000  1
  Os  Os1  1  -0.00000000  -0.00000000  -0.00000000  1
  Os  Os2  1  0.50000000  0.50000000  0.75000000  1
  Os  Os3  1  0.50000000  0.50000000  0.25000000  1
  Os  Os4  1  -0.00000000  0.50000000  0.87229423  1
  Os  Os5  1  0.50000000  -0.00000000  0.12770577  1
  Os  Os6  1  0.50000000  -0.00000000  0.62770577  1
  Os  Os7  1  -0.00000000  0.50000000  0.37229423  1
loop_
_geom_bond_atom_site_label_1
_geom_bond_atom_site_label_2
_geom_bond_distance
_geom_bond_site_symmetry_2
Os0 Si7 2.446764 1_555
Os0 Si4 2.446764 1_545
Os0 Si5 2.446764 1_455
Os0 Si6 2.446764 1_445
Os0 Si1 2.598075 1_455
Os0 Si0 2.598075 1_445
Os0 Si2 2.598075 1_545
Os0 Si3 2.598075 1_555
Os1 Si10 2.446764 1_454
Os1 Si11 2.446764 1_445
Os1 Si8 2.446764 1_555
Os1 Si9 2.446764 1_544
Os1 Si1 2.598075 1_455
Os1 Si3 2.598075 1_554
Os1 Si0 2.598075 1_444
Os1 Si2 2.598075 1_545
Os2 Si9 2.321507 1_555
Os2 Si10 2.321507 1_555
Os2 Si4 2.321507 1_555
Os2 Si5 2.321507 1_555
Os2 Si3 2.628574 1_555
Os2 Si0 2.628574 1_555
Os3 Si6 2.321507 1_555
Os3 Si7 2.321507 1_555
Os3 Si11 2.321507 1_555
Os3 Si8 2.321507 1_555
Os3 Si1 2.628574 1_555
Os3 Si2 2.628574 1_555
Os4 Si0 2.354338 1_455
Os4 Si3 2.354338 1_555
Os4 Si8 2.409216 1_556
Os4 Si11 2.409216 1_456
Os4 Si9 2.620647 1_555
Os4 Si10 2.620647 1_455
Os4 Si4 2.854873 1_555
Os4 Si5 2.854873 1_455
Os5 Si1 2.354338 1_555
Os5 Si2 2.354338 1_545
Os5 Si10 2.409216 1_554
Os5 Si9 2.409216 1_544
Os5 Si11 2.620647 1_545
Os5 Si8 2.620647 1_555
Os5 Si7 2.854873 1_555
Os5 Si6 2.854873 1_545
Os6 Si3 2.354338 1_555
Os6 Si0 2.354338 1_545
Os6 Si6 2.409216 1_545
Os6 Si7 2.409216 1_555
Os6 Si4 2.620647 1_545
Os6 Si5 2.620647 1_555
Os6 Si9 2.854873 1_545
Os6 Si10 2.854873 1_555
Os7 Si2 2.354338 1_555
Os7 Si1 2.354338 1_455
Os7 Si4 2.409216 1_555
Os7 Si5 2.409216 1_455
Os7 Si7 2.620647 1_555
Os7 Si6 2.620647 1_455
Os7 Si11 2.854873 1_455
Os7 Si8 2.854873 1_555
