# generated using pymatgen
data_HoMoBrO4
_symmetry_space_group_name_H-M   'P 1'
_cell_length_a   6.92380100
_cell_length_b   7.25998768
_cell_length_c   10.99570628
_cell_angle_alpha   105.02469238
_cell_angle_beta   107.43433022
_cell_angle_gamma   93.38303769
_symmetry_Int_Tables_number   1
_chemical_formula_structural   HoMoBrO4
_chemical_formula_sum   'Ho4 Mo4 Br4 O16'
_cell_volume   503.66541264
_cell_formula_units_Z   4
loop_
 _symmetry_equiv_pos_site_id
 _symmetry_equiv_pos_as_xyz
  1  'x, y, z'
loop_
 _atom_site_type_symbol
 _atom_site_label
 _atom_site_symmetry_multiplicity
 _atom_site_fract_x
 _atom_site_fract_y
 _atom_site_fract_z
 _atom_site_occupancy
  Ho  Ho0  1  0.64743000  0.11904300  0.73079800  1
  Ho  Ho1  1  0.35257000  0.88095700  0.26920200  1
  Ho  Ho2  1  0.38902000  0.65524200  0.76843800  1
  Ho  Ho3  1  0.61098000  0.34475800  0.23156200  1
  Mo  Mo0  1  0.73253000  0.81323200  0.13383900  1
  Mo  Mo1  1  0.26747000  0.18676800  0.86616100  1
  Mo  Mo2  1  0.77466100  0.59282900  0.62865200  1
  Mo  Mo3  1  0.22533900  0.40717100  0.37134800  1
  Br  Br0  1  0.26024900  0.99214300  0.51764500  1
  Br  Br1  1  0.73975100  0.00785700  0.48235500  1
  Br  Br2  1  0.19292400  0.71636500  0.98118700  1
  Br  Br3  1  0.80707600  0.28363500  0.01881300  1
  O  O0  1  0.66631800  0.72774400  0.95785400  1
  O  O1  1  0.33368200  0.27225600  0.04214600  1
  O  O2  1  0.00316300  0.86933800  0.20689200  1
  O  O3  1  0.99683700  0.13066200  0.79310800  1
  O  O4  1  0.62658400  0.64497600  0.20197300  1
  O  O5  1  0.37341600  0.35502400  0.79802700  1
  O  O6  1  0.39682000  0.98114700  0.81813000  1
  O  O7  1  0.60318000  0.01885300  0.18187000  1
  O  O8  1  0.04418300  0.64936000  0.67369100  1
  O  O9  1  0.95581700  0.35064000  0.32630900  1
  O  O10  1  0.71589600  0.41233500  0.70128700  1
  O  O11  1  0.28410400  0.58766500  0.29871300  1
  O  O12  1  0.67333600  0.50586500  0.45085500  1
  O  O13  1  0.32666400  0.49413500  0.54914500  1
  O  O14  1  0.65535100  0.79492900  0.70234500  1
  O  O15  1  0.34464900  0.20507100  0.29765500  1
loop_
_geom_bond_atom_site_label_1
_geom_bond_atom_site_label_2
_geom_bond_distance
_geom_bond_site_symmetry_2
Ho0 O10 2.279298 1_555
Ho0 O14 2.298178 1_545
Ho0 O3 2.298241 1_555
Ho0 O6 2.495412 1_545
Ho0 O5 2.765576 1_555
Ho1 O11 2.279298 1_555
Ho1 O15 2.298178 1_565
Ho1 O2 2.298241 1_555
Ho1 O7 2.495412 1_565
Ho1 O4 2.765576 1_555
Ho2 O6 2.279624 1_555
Ho2 O0 2.284149 1_555
Ho2 O13 2.285399 1_555
Ho2 O5 2.286706 1_555
Ho2 O8 2.293933 1_555
Ho2 O14 2.433406 1_555
Ho3 O7 2.279624 1_555
Ho3 O1 2.284149 1_555
Ho3 O12 2.285399 1_555
Ho3 O4 2.286706 1_555
Ho3 O9 2.293933 1_555
Ho3 O15 2.433406 1_555
Mo0 O0 1.775402 1_554
Mo0 O2 1.777824 1_655
Mo0 O4 1.813713 1_555
Mo0 O7 1.828097 1_565
Mo1 O1 1.775402 1_556
Mo1 O3 1.777824 1_455
Mo1 O5 1.813713 1_555
Mo1 O6 1.828097 1_545
Mo2 O8 1.773847 1_655
Mo2 O10 1.787442 1_555
Mo2 O12 1.788502 1_555
Mo2 O14 1.849201 1_555
Mo3 O9 1.773847 1_455
Mo3 O11 1.787442 1_555
Mo3 O13 1.788502 1_555
Mo3 O15 1.849201 1_555
Br0 Ho0 2.890073 1_565
Br0 Ho1 2.913230 1_555
Br1 Ho1 2.890073 1_545
Br1 Ho0 2.913230 1_555
Br2 Ho1 2.909220 1_556
Br2 Ho2 2.991475 1_555
Br3 Ho0 2.909220 1_554
Br3 Ho3 2.991475 1_555
