# generated using pymatgen
data_BaV2(NiO4)2
_symmetry_space_group_name_H-M   'P 1'
_cell_length_a   5.08775614
_cell_length_b   5.08776561
_cell_length_c   8.25124519
_cell_angle_alpha   107.95700204
_cell_angle_beta   72.04335486
_cell_angle_gamma   120.00029637
_symmetry_Int_Tables_number   1
_chemical_formula_structural   BaV2(NiO4)2
_chemical_formula_sum   'Ba1 V2 Ni2 O8'
_cell_volume   172.85266078
_cell_formula_units_Z   1
loop_
 _symmetry_equiv_pos_site_id
 _symmetry_equiv_pos_as_xyz
  1  'x, y, z'
loop_
 _atom_site_type_symbol
 _atom_site_label
 _atom_site_symmetry_multiplicity
 _atom_site_fract_x
 _atom_site_fract_y
 _atom_site_fract_z
 _atom_site_occupancy
  Ba  Ba0  1  0.00000100  0.99999900  0.99999800  1
  V  V0  1  0.57417500  0.42582400  0.27747400  1
  V  V1  1  0.42581900  0.57417800  0.72252900  1
  Ni  Ni0  1  0.16943000  0.83057200  0.49172300  1
  Ni  Ni1  1  0.83056800  0.16943300  0.50828200  1
  O  O0  1  0.64754200  0.35245800  0.05738200  1
  O  O1  1  0.35246200  0.64753800  0.94261100  1
  O  O2  1  0.56330500  0.12214600  0.34456400  1
  O  O3  1  0.21427100  0.43669500  0.34456500  1
  O  O4  1  0.87785300  0.78572200  0.34456700  1
  O  O5  1  0.43669600  0.87784200  0.65543600  1
  O  O6  1  0.78571500  0.56330400  0.65543600  1
  O  O7  1  0.12216300  0.21429000  0.65543200  1
loop_
_geom_bond_atom_site_label_1
_geom_bond_atom_site_label_2
_geom_bond_distance
_geom_bond_site_symmetry_2
Ba0 O0 2.970544 1_466
Ba0 O1 2.970553 1_455
Ba0 O0 2.970554 1_566
Ba0 O1 2.970556 1_555
Ba0 O1 2.970563 1_565
Ba0 O0 2.970564 1_456
Ba0 O6 3.130814 1_455
Ba0 O3 3.130826 1_566
Ba0 O5 3.130841 1_555
Ba0 O2 3.130850 1_466
Ba0 O7 3.130860 1_565
Ba0 O4 3.130864 1_456
Ni0 O3 2.080446 1_555
Ni0 O2 2.080473 1_565
Ni0 O4 2.080477 1_455
Ni0 O5 2.082511 1_555
Ni0 O6 2.082535 1_455
Ni0 O7 2.082540 1_565
Ni1 O6 2.080438 1_555
Ni1 O5 2.080481 1_545
Ni1 O7 2.080501 1_655
Ni1 O2 2.082497 1_555
Ni1 O3 2.082517 1_655
Ni1 O4 2.082563 1_545
O0 V0 1.697062 1_555
O1 V1 1.696985 1_555
O2 V0 1.766273 1_555
O3 V0 1.766304 1_555
O4 V0 1.766268 1_555
O5 V1 1.766201 1_555
O6 V1 1.766272 1_555
O7 V1 1.766200 1_555
