# generated using pymatgen
data_CuBr4(NO)2
_symmetry_space_group_name_H-M   'P 1'
_cell_length_a   9.19153900
_cell_length_b   9.19153900
_cell_length_c   6.16004500
_cell_angle_alpha   90.00000000
_cell_angle_beta   90.00000000
_cell_angle_gamma   90.00000000
_symmetry_Int_Tables_number   1
_chemical_formula_structural   CuBr4(NO)2
_chemical_formula_sum   'Cu2 Br8 N4 O4'
_cell_volume   520.42763920
_cell_formula_units_Z   2
loop_
 _symmetry_equiv_pos_site_id
 _symmetry_equiv_pos_as_xyz
  1  'x, y, z'
loop_
 _atom_site_type_symbol
 _atom_site_label
 _atom_site_symmetry_multiplicity
 _atom_site_fract_x
 _atom_site_fract_y
 _atom_site_fract_z
 _atom_site_occupancy
  Cu  Cu0  1  0.00000000  0.00000000  0.00000000  1
  Cu  Cu1  1  0.50000000  0.50000000  0.50000000  1
  Br  Br0  1  0.18088800  0.18088800  0.00000000  1
  Br  Br1  1  0.81911200  0.81911200  0.00000000  1
  Br  Br2  1  0.68088800  0.31911200  0.50000000  1
  Br  Br3  1  0.31911200  0.68088800  0.50000000  1
  Br  Br4  1  0.63049800  0.36950200  0.00000000  1
  Br  Br5  1  0.36950200  0.63049800  0.00000000  1
  Br  Br6  1  0.86950200  0.86950200  0.50000000  1
  Br  Br7  1  0.13049800  0.13049800  0.50000000  1
  N  N0  1  0.50000000  0.00000000  0.25000000  1
  N  N1  1  0.50000000  0.00000000  0.75000000  1
  N  N2  1  0.00000000  0.50000000  0.25000000  1
  N  N3  1  0.00000000  0.50000000  0.75000000  1
  O  O0  1  0.00000000  0.00000000  0.30139700  1
  O  O1  1  0.00000000  0.00000000  0.69860300  1
  O  O2  1  0.50000000  0.50000000  0.80139700  1
  O  O3  1  0.50000000  0.50000000  0.19860300  1
loop_
_geom_bond_atom_site_label_1
_geom_bond_atom_site_label_2
_geom_bond_distance
_geom_bond_site_symmetry_2
Cu0 O0 1.856619 1_555
Cu0 O1 1.856619 1_554
Cu1 O2 1.856619 1_555
Cu1 O3 1.856619 1_555
Br0 Cu0 2.351327 1_555
Br1 Cu0 2.351327 1_665
Br2 Cu1 2.351327 1_555
Br3 Cu1 2.351327 1_555
Br4 O3 2.091461 1_555
Br4 O2 2.091461 1_554
Br5 O3 2.091461 1_555
Br5 O2 2.091461 1_554
Br6 O1 2.091461 1_665
Br6 O0 2.091461 1_665
Br7 O1 2.091461 1_555
Br7 O0 2.091461 1_555
