# generated using pymatgen
data_Nb4B20Mo11
_symmetry_space_group_name_H-M   'P 1'
_cell_length_a   3.10222374
_cell_length_b   3.20556237
_cell_length_c   35.07391058
_cell_angle_alpha   92.61917236
_cell_angle_beta   92.53468053
_cell_angle_gamma   90.00000000
_symmetry_Int_Tables_number   1
_chemical_formula_structural   Nb4B20Mo11
_chemical_formula_sum   'Nb4 B20 Mo11'
_cell_volume   348.08203766
_cell_formula_units_Z   1
loop_
 _symmetry_equiv_pos_site_id
 _symmetry_equiv_pos_as_xyz
  1  'x, y, z'
loop_
 _atom_site_type_symbol
 _atom_site_label
 _atom_site_symmetry_multiplicity
 _atom_site_fract_x
 _atom_site_fract_y
 _atom_site_fract_z
 _atom_site_occupancy
  Nb  Nb0  1  0.09967838  0.59967838  0.19935677  1
  Nb  Nb1  1  0.69989882  0.19989882  0.39979863  1
  Nb  Nb2  1  0.30010118  0.80010118  0.60020137  1
  Nb  Nb3  1  0.90032162  0.40032162  0.80064323  1
  B  B0  1  0.07265092  0.07265092  0.14530184  1
  B  B1  1  0.67292792  0.67292792  0.34585585  1
  B  B2  1  0.27316197  0.27316197  0.54632394  1
  B  B3  1  0.87335710  0.87335710  0.74671319  1
  B  B4  1  0.47320052  0.47320052  0.94640205  1
  B  B5  1  0.52679948  0.52679948  0.05359795  1
  B  B6  1  0.12664290  0.12664290  0.25328681  1
  B  B7  1  0.72683803  0.72683803  0.45367706  1
  B  B8  1  0.32707208  0.32707208  0.65414415  1
  B  B9  1  0.92734908  0.92734908  0.85469816  1
  B  B10  1  0.58645571  0.08645571  0.17291142  1
  B  B11  1  0.18666799  0.68666799  0.37333597  1
  B  B12  1  0.78688585  0.28688585  0.57377070  1
  B  B13  1  0.38708306  0.88708306  0.77416712  1
  B  B14  1  0.98715258  0.48715258  0.97430515  1
  B  B15  1  0.01284742  0.51284742  0.02569485  1
  B  B16  1  0.61291694  0.11291694  0.22583288  1
  B  B17  1  0.21311415  0.71311415  0.42622930  1
  B  B18  1  0.81333201  0.31333201  0.62666403  1
  B  B19  1  0.41354429  0.91354429  0.82708858  1
  Mo  Mo0  1  0.03645627  0.03645627  0.07291153  1
  Mo  Mo1  1  0.63686808  0.63686808  0.27373717  1
  Mo  Mo2  1  0.23710870  0.23710870  0.47421641  1
  Mo  Mo3  1  0.83730806  0.83730806  0.67461611  1
  Mo  Mo4  1  0.43742868  0.43742868  0.87485735  1
  Mo  Mo5  1  0.56257132  0.56257132  0.12514265  1
  Mo  Mo6  1  0.16269194  0.16269194  0.32538389  1
  Mo  Mo7  1  0.76289130  0.76289130  0.52578359  1
  Mo  Mo8  1  0.36313192  0.36313192  0.72626283  1
  Mo  Mo9  1  0.96354373  0.96354373  0.92708847  1
  Mo  Mo10  1  0.50000000  0.00000000  0.00000000  1
loop_
_geom_bond_atom_site_label_1
_geom_bond_atom_site_label_2
_geom_bond_distance
_geom_bond_site_symmetry_2
B0 B10 1.827541 1_555
B0 B10 1.827541 1_455
B0 Mo5 2.339395 1_555
B0 Mo5 2.339395 1_545
B0 Mo5 2.339395 1_455
B0 Mo5 2.339395 1_445
B0 Nb0 2.479693 1_555
B0 Nb0 2.479693 1_545
B0 Mo0 2.533872 1_555
B1 B11 1.825149 1_555
B1 B11 1.825149 1_655
B1 Mo6 2.342721 1_655
B1 Mo6 2.342721 1_555
B1 Mo6 2.342721 1_565
B1 Mo6 2.342721 1_665
B1 Nb1 2.476698 1_565
B1 Nb1 2.476700 1_555
B1 Mo1 2.524364 1_555
B2 Mo7 2.343452 1_555
B2 Mo7 2.343454 1_455
B2 Mo7 2.343454 1_545
B2 Mo7 2.343456 1_445
B2 Nb2 2.474954 1_545
B2 Nb2 2.474956 1_555
B2 Mo2 2.523974 1_555
B3 Mo8 2.342490 1_555
B3 Mo8 2.342490 1_655
B3 Mo8 2.342490 1_565
B3 Mo8 2.342490 1_665
B3 Nb3 2.476358 1_565
B3 Nb3 2.476360 1_555
B3 Mo3 2.523608 1_555
B4 Mo9 2.330638 1_545
B4 Mo9 2.330638 1_445
B4 Mo9 2.330638 1_555
B4 Mo9 2.330638 1_455
B4 Mo10 2.467508 1_556
B4 Mo10 2.467510 1_566
B4 Mo4 2.504273 1_555
B5 Mo0 2.330638 1_665
B5 Mo0 2.330638 1_565
B5 Mo0 2.330638 1_555
B5 Mo0 2.330638 1_655
B5 Mo10 2.467508 1_565
B5 Mo10 2.467510 1_555
B5 Mo5 2.504273 1_555
B6 Mo1 2.342490 1_455
B6 Mo1 2.342490 1_555
B6 Mo1 2.342490 1_445
B6 Mo1 2.342490 1_545
B6 Nb0 2.476358 1_545
B6 Nb0 2.476360 1_555
B6 Mo6 2.523608 1_555
B7 Mo2 2.343439 1_555
B7 Mo2 2.343443 1_655
B7 Mo2 2.343443 1_565
B7 Mo2 2.343447 1_665
B7 Nb1 2.474982 1_555
B7 Nb1 2.474982 1_565
B7 Mo7 2.523939 1_555
B8 Mo3 2.342721 1_455
B8 Mo3 2.342721 1_555
B8 Mo3 2.342721 1_445
B8 Mo3 2.342721 1_545
B8 Nb2 2.476698 1_545
B8 Nb2 2.476700 1_555
B8 Mo8 2.524364 1_555
B9 Mo4 2.339395 1_555
B9 Mo4 2.339395 1_565
B9 Mo4 2.339395 1_655
B9 Mo4 2.339395 1_665
B9 Nb3 2.479693 1_555
B9 Nb3 2.479693 1_565
B9 Mo9 2.533872 1_555
B10 B16 1.852406 1_555
B10 Mo5 2.316171 1_545
B10 Mo5 2.316171 1_555
B10 Nb0 2.414893 1_655
B10 Nb0 2.414893 1_555
B10 Nb0 2.414893 1_645
B10 Nb0 2.414893 1_545
B11 B17 1.851421 1_555
B11 Mo6 2.320807 1_565
B11 Mo6 2.320807 1_555
B11 Nb1 2.415124 1_565
B11 Nb1 2.415126 1_465
B11 Nb1 2.415126 1_555
B11 Nb1 2.415128 1_455
B12 B2 1.824533 1_655
B12 B2 1.824535 1_555
B12 B18 1.851421 1_555
B12 Mo7 2.321692 1_555
B12 Mo7 2.321696 1_545
B12 Nb2 2.414696 1_655
B12 Nb2 2.414696 1_555
B12 Nb2 2.414697 1_645
B12 Nb2 2.414697 1_545
B13 B3 1.824664 1_455
B13 B3 1.824669 1_555
B13 B19 1.852406 1_555
B13 Mo8 2.319595 1_555
B13 Mo8 2.319600 1_565
B13 Nb3 2.415304 1_455
B13 Nb3 2.415306 1_555
B13 Nb3 2.415306 1_465
B13 Nb3 2.415308 1_565
B14 B15 1.798790 1_656
B14 B4 1.832994 1_655
B14 B4 1.832997 1_555
B14 Mo9 2.302258 1_555
B14 Mo9 2.302260 1_545
B14 Mo10 2.404946 1_666
B14 Mo10 2.404946 1_566
B14 Mo10 2.404946 1_656
B14 Mo10 2.404946 1_556
B15 B5 1.832994 1_455
B15 B5 1.832997 1_555
B15 Mo0 2.302258 1_555
B15 Mo0 2.302260 1_565
B15 Mo10 2.404946 1_455
B15 Mo10 2.404946 1_555
B15 Mo10 2.404946 1_465
B15 Mo10 2.404946 1_565
B16 B6 1.824664 1_655
B16 B6 1.824669 1_555
B16 Mo1 2.319595 1_555
B16 Mo1 2.319600 1_545
B16 Nb0 2.415304 1_655
B16 Nb0 2.415306 1_555
B16 Nb0 2.415306 1_645
B16 Nb0 2.415308 1_545
B17 B7 1.824553 1_455
B17 B7 1.824553 1_555
B17 Mo2 2.321692 1_555
B17 Mo2 2.321696 1_565
B17 Nb1 2.414696 1_455
B17 Nb1 2.414696 1_555
B17 Nb1 2.414697 1_465
B17 Nb1 2.414697 1_565
B18 B8 1.825149 1_555
B18 B8 1.825149 1_655
B18 Mo3 2.320807 1_545
B18 Mo3 2.320807 1_555
B18 Nb2 2.415124 1_545
B18 Nb2 2.415126 1_645
B18 Nb2 2.415126 1_555
B18 Nb2 2.415128 1_655
B19 B9 1.827541 1_455
B19 B9 1.827541 1_555
B19 Mo4 2.316171 1_565
B19 Mo4 2.316171 1_555
B19 Nb3 2.414893 1_455
B19 Nb3 2.414893 1_555
B19 Nb3 2.414893 1_465
B19 Nb3 2.414893 1_565
