# generated using pymatgen
data_K4Li5Cr2O8
_symmetry_space_group_name_H-M   'P 1'
_cell_length_a   5.62244100
_cell_length_b   8.77442316
_cell_length_c   10.88108389
_cell_angle_alpha   90.38119407
_cell_angle_beta   100.27510992
_cell_angle_gamma   90.41046416
_symmetry_Int_Tables_number   1
_chemical_formula_structural   K4Li5Cr2O8
_chemical_formula_sum   'K8 Li10 Cr4 O16'
_cell_volume   528.16423276
_cell_formula_units_Z   2
loop_
 _symmetry_equiv_pos_site_id
 _symmetry_equiv_pos_as_xyz
  1  'x, y, z'
loop_
 _atom_site_type_symbol
 _atom_site_label
 _atom_site_symmetry_multiplicity
 _atom_site_fract_x
 _atom_site_fract_y
 _atom_site_fract_z
 _atom_site_occupancy
  K  K0  1  0.15551600  0.01038100  0.86970700  1
  K  K1  1  0.16979700  0.76800000  0.36226300  1
  K  K2  1  0.34233100  0.50743900  0.63526300  1
  K  K3  1  0.36543700  0.21908500  0.13633700  1
  K  K4  1  0.61438600  0.78024800  0.89680000  1
  K  K5  1  0.70448600  0.46440400  0.34597800  1
  K  K6  1  0.86554600  0.26951400  0.61472200  1
  K  K7  1  0.83839000  0.02258900  0.16541700  1
  Li  Li0  1  0.09738600  0.75797600  0.70740300  1
  Li  Li1  1  0.09287700  0.47052800  0.20121500  1
  Li  Li2  1  0.30361300  0.48740600  0.92636500  1
  Li  Li3  1  0.18550200  0.99147300  0.57191200  1
  Li  Li4  1  0.40819900  0.26100100  0.79537600  1
  Li  Li5  1  0.60185100  0.02723600  0.69569400  1
  Li  Li6  1  0.58634500  0.73848800  0.19652100  1
  Li  Li7  1  0.68411800  0.51016600  0.06937200  1
  Li  Li8  1  0.76673500  0.01213400  0.42569000  1
  Li  Li9  1  0.90208400  0.53161400  0.80605800  1
  Cr  Cr0  1  0.16017700  0.70996400  0.05787900  1
  Cr  Cr1  1  0.68571800  0.77659200  0.56259100  1
  Cr  Cr2  1  0.82872400  0.28905900  0.93582400  1
  Cr  Cr3  1  0.29776800  0.21514900  0.43888900  1
  O  O0  1  0.09899700  0.32075400  0.84715200  1
  O  O1  1  0.13871500  0.69304200  0.87619400  1
  O  O2  1  0.08441700  0.05918100  0.40112900  1
  O  O3  1  0.19702600  0.40378100  0.39363100  1
  O  O4  1  0.36464500  0.19223200  0.61343300  1
  O  O5  1  0.35492500  0.88705600  0.09475300  1
  O  O6  1  0.41075900  0.82014700  0.62616300  1
  O  O7  1  0.36810600  0.54511000  0.12468000  1
  O  O8  1  0.61793400  0.45967300  0.88009600  1
  O  O9  1  0.57156600  0.18164500  0.38285900  1
  O  O10  1  0.67149300  0.10700400  0.86179400  1
  O  O11  1  0.66210600  0.78936200  0.39721200  1
  O  O12  1  0.83813200  0.60693900  0.62643200  1
  O  O13  1  0.88492000  0.93528500  0.63003600  1
  O  O14  1  0.85837400  0.32116800  0.10961900  1
  O  O15  1  0.89747300  0.67483000  0.14838500  1
loop_
_geom_bond_atom_site_label_1
_geom_bond_atom_site_label_2
_geom_bond_distance
_geom_bond_site_symmetry_2
K0 O5 2.738160 1_546
K0 O0 2.751597 1_555
K0 O1 2.787182 1_545
K0 O10 2.842992 1_455
K0 O13 2.845562 1_445
K0 O10 3.032677 1_555
K1 O2 2.648142 1_565
K1 O15 2.667246 1_455
K1 O11 2.730852 1_555
K1 O11 2.953248 1_455
K1 O6 2.979297 1_555
K1 O3 3.218079 1_555
K2 O3 2.756579 1_555
K2 O6 2.772818 1_555
K2 O4 2.780009 1_555
K2 O8 2.867999 1_555
K2 O12 2.933265 1_555
K2 O12 2.957552 1_455
K3 O9 2.748566 1_555
K3 O7 2.864385 1_555
K3 O5 2.943869 1_545
K3 O14 2.959563 1_455
K3 O14 2.970427 1_555
K4 O1 2.746422 1_555
K4 O8 2.817963 1_555
K4 O10 2.917771 1_565
K4 O5 2.959660 1_556
K4 O6 2.986971 1_555
K4 O15 3.063216 1_556
K4 O1 3.097156 1_655
K5 O9 2.639853 1_555
K5 O3 2.780867 1_655
K5 O7 2.879910 1_555
K5 O11 2.921225 1_555
K5 O3 3.033490 1_555
K5 O14 3.115925 1_555
K5 O12 3.249464 1_555
K6 O0 2.667099 1_655
K6 O9 2.856532 1_555
K6 O4 2.889621 1_555
K6 O4 2.894081 1_655
K6 O13 2.940199 1_545
K6 O12 2.968892 1_555
K7 O14 2.699294 1_555
K7 O2 2.704022 1_655
Li0 O1 1.901419 1_555
Li0 O12 2.038607 1_455
Li0 O13 2.059481 1_455
Li0 O6 2.175237 1_555
Li1 O14 1.984522 1_455
Li1 O7 1.992210 1_555
Li1 O15 2.137201 1_455
Li1 O3 2.157153 1_555
Li2 O8 1.938506 1_555
Li2 O0 1.951935 1_555
Li2 O1 2.066334 1_555
Li2 O7 2.178988 1_556
Li3 O2 1.942166 1_565
Li3 O13 1.967917 1_455
Li3 O6 1.996175 1_555
Li3 O4 2.030591 1_565
Li4 O0 1.993263 1_555
Li4 O4 2.037759 1_555
Li4 O10 2.049284 1_555
Li4 O8 2.200132 1_555
Li5 O10 1.906957 1_555
Li5 O13 2.027493 1_545
Li5 O4 2.072408 1_555
Li5 O6 2.166171 1_545
Li6 O15 1.995833 1_555
Li6 O5 2.036679 1_555
Li6 O7 2.146178 1_555
Li6 O11 2.191317 1_555
Li7 O14 1.944653 1_555
Li7 O15 1.963771 1_555
Li7 O7 1.999968 1_555
Li7 O8 2.070871 1_554
Li8 O9 1.866476 1_555
Li8 O2 1.895616 1_655
Li8 O11 2.042878 1_545
Li8 O13 2.310733 1_545
Li9 O1 1.988763 1_655
Li9 O8 2.012792 1_555
Li9 O12 2.038668 1_555
Li9 O0 2.170847 1_655
Cr0 O5 1.893425 1_555
Cr0 O7 1.929374 1_555
Cr0 O15 1.939834 1_455
Cr0 O1 1.963566 1_554
Cr1 O11 1.784954 1_555
Cr1 O12 1.803474 1_555
Cr1 O6 1.844160 1_555
Cr1 O13 1.844639 1_555
Cr2 O14 1.887621 1_556
Cr2 O10 1.921131 1_555
Cr2 O8 1.947957 1_555
Cr2 O0 1.959085 1_655
Cr3 O9 1.779559 1_555
Cr3 O3 1.796548 1_555
Cr3 O2 1.809360 1_555
Cr3 O4 1.881564 1_555
