# generated using pymatgen
data_YV3O9
_symmetry_space_group_name_H-M   'P 1'
_cell_length_a   5.13746500
_cell_length_b   8.16321900
_cell_length_c   15.65654782
_cell_angle_alpha   89.80918752
_cell_angle_beta   90.00000000
_cell_angle_gamma   90.00000000
_symmetry_Int_Tables_number   1
_chemical_formula_structural   YV3O9
_chemical_formula_sum   'Y4 V12 O36'
_cell_volume   656.60460528
_cell_formula_units_Z   4
loop_
 _symmetry_equiv_pos_site_id
 _symmetry_equiv_pos_as_xyz
  1  'x, y, z'
loop_
 _atom_site_type_symbol
 _atom_site_label
 _atom_site_symmetry_multiplicity
 _atom_site_fract_x
 _atom_site_fract_y
 _atom_site_fract_z
 _atom_site_occupancy
  Y  Y0  1  0.75731600  0.75798100  0.16135700  1
  Y  Y1  1  0.25703300  0.24071000  0.33649900  1
  Y  Y2  1  0.74296700  0.24071000  0.83649900  1
  Y  Y3  1  0.24268400  0.75798100  0.66135700  1
  V  V0  1  0.24381900  0.48517900  0.83780100  1
  V  V1  1  0.23547700  0.46031000  0.50163200  1
  V  V2  1  0.25572900  0.51775100  0.16312700  1
  V  V3  1  0.76452300  0.46031000  0.00163200  1
  V  V4  1  0.74427100  0.51775100  0.66312700  1
  V  V5  1  0.75618100  0.48517900  0.33780100  1
  V  V6  1  0.27975400  0.95291100  0.83666700  1
  V  V7  1  0.25034100  0.96355100  0.49422800  1
  V  V8  1  0.23433000  0.05150300  0.15924400  1
  V  V9  1  0.74965900  0.96355100  0.99422800  1
  V  V10  1  0.76567000  0.05150300  0.65924400  1
  V  V11  1  0.72024600  0.95291100  0.33666700  1
  O  O0  1  0.52947000  0.46193700  0.91561100  1
  O  O1  1  0.51116100  0.46799600  0.58543700  1
  O  O2  1  0.41998400  0.45111700  0.25777700  1
  O  O3  1  0.01277900  0.53304700  0.91484400  1
  O  O4  1  0.03103200  0.55010300  0.58434700  1
  O  O5  1  0.91971700  0.55297200  0.24249500  1
  O  O6  1  0.08028300  0.55297200  0.74249500  1
  O  O7  1  0.98722100  0.53304700  0.41484400  1
  O  O8  1  0.96896800  0.55010300  0.08434700  1
  O  O9  1  0.58001600  0.45111700  0.75777700  1
  O  O10  1  0.47053000  0.46193700  0.41561100  1
  O  O11  1  0.48883900  0.46799600  0.08543700  1
  O  O12  1  0.07594400  0.96543600  0.74497500  1
  O  O13  1  0.99265500  0.96718500  0.41315800  1
  O  O14  1  0.97712600  0.95818500  0.08572000  1
  O  O15  1  0.57627100  0.03431900  0.75867600  1
  O  O16  1  0.48573200  0.05413100  0.41760500  1
  O  O17  1  0.48681700  0.03493300  0.08760000  1
  O  O18  1  0.51426800  0.05413100  0.91760500  1
  O  O19  1  0.51318300  0.03493300  0.58760000  1
  O  O20  1  0.42372900  0.03431900  0.25867600  1
  O  O21  1  0.00734500  0.96718500  0.91315800  1
  O  O22  1  0.02287400  0.95818500  0.58572000  1
  O  O23  1  0.92405600  0.96543600  0.24497500  1
  O  O24  1  0.36342200  0.75584200  0.83177300  1
  O  O25  1  0.34357200  0.76862900  0.50498600  1
  O  O26  1  0.31394300  0.72734400  0.16975400  1
  O  O27  1  0.84738300  0.26183600  0.99332300  1
  O  O28  1  0.85560500  0.25041900  0.66934000  1
  O  O29  1  0.81479800  0.27612100  0.33154200  1
  O  O30  1  0.18520200  0.27612100  0.83154200  1
  O  O31  1  0.15261700  0.26183600  0.49332300  1
  O  O32  1  0.14439500  0.25041900  0.16934000  1
  O  O33  1  0.68605700  0.72734400  0.66975400  1
  O  O34  1  0.63657800  0.75584200  0.33177300  1
  O  O35  1  0.65642800  0.76862900  0.00498600  1
loop_
_geom_bond_atom_site_label_1
_geom_bond_atom_site_label_2
_geom_bond_distance
_geom_bond_site_symmetry_2
O0 V3 1.808908 1_556
O0 V0 1.916293 1_555
O0 Y2 2.452241 1_555
O1 V4 1.755567 1_555
O1 V1 1.931848 1_555
O2 V2 1.788464 1_555
O2 V5 2.152351 1_555
O2 Y1 2.270675 1_555
O3 V0 1.737725 1_555
O3 V3 1.954530 1_456
O4 V1 1.823159 1_555
O4 V4 1.938891 1_455
O4 Y3 2.351459 1_555
O5 V5 1.798105 1_555
O5 V2 2.146884 1_655
O5 Y0 2.257526 1_555
O6 V0 1.798105 1_555
O6 V4 2.146884 1_455
O6 Y3 2.257526 1_555
O7 V5 1.737725 1_555
O7 V1 1.954530 1_655
O8 V3 1.823159 1_555
O8 V2 1.938891 1_655
O8 Y0 2.351459 1_555
O9 V4 1.788464 1_555
O9 V0 2.152351 1_555
O9 Y2 2.270675 1_555
O10 V1 1.808908 1_555
O10 V5 1.916293 1_555
O10 Y1 2.452241 1_555
O11 V2 1.755567 1_555
O11 V3 1.931848 1_555
O12 V6 1.779527 1_555
O12 V10 2.197700 1_465
O12 Y3 2.308773 1_555
O13 V7 1.834197 1_655
O13 V11 1.845886 1_555
O14 V9 1.849066 1_554
O14 V8 1.912402 1_665
O14 Y0 2.309909 1_555
O15 V10 1.840793 1_555
O15 V6 2.061023 1_545
O15 Y2 2.251729 1_555
O16 V7 1.855382 1_545
O16 V11 1.935742 1_545
O16 Y1 2.302144 1_555
O17 V8 1.720492 1_555
O17 V9 2.075029 1_544
O18 V9 1.855382 1_545
O18 V6 1.935742 1_545
O18 Y2 2.302144 1_555
O19 V10 1.720492 1_555
O19 V7 2.075029 1_545
O20 V8 1.840793 1_555
O20 V11 2.061023 1_545
O20 Y1 2.251729 1_555
O21 V9 1.834197 1_455
O21 V6 1.845886 1_555
O22 V7 1.849066 1_555
O22 V10 1.912402 1_465
O22 Y3 2.309909 1_555
O23 V11 1.779527 1_555
O23 V8 2.197700 1_665
O23 Y0 2.308773 1_555
O24 V6 1.667161 1_555
O24 V0 2.294969 1_555
O25 V7 1.669697 1_555
O25 Y3 2.503720 1_555
O26 V2 1.740332 1_555
O26 Y0 2.295223 1_555
O27 V3 1.680638 1_556
O27 V9 2.486179 1_545
O27 Y2 2.519708 1_555
O28 V10 1.696138 1_555
O28 V4 2.257785 1_555
O29 V5 1.736042 1_555
O29 Y1 2.291564 1_655
O30 V0 1.736042 1_555
O30 Y2 2.291564 1_455
O31 V1 1.680638 1_555
O31 V7 2.486179 1_545
O31 Y1 2.519708 1_555
O32 V8 1.696138 1_555
O32 V2 2.257785 1_555
O33 V4 1.740332 1_555
O33 Y3 2.295223 1_555
O34 V11 1.667161 1_555
O34 V5 2.294969 1_555
O35 V9 1.669697 1_554
O35 Y0 2.503720 1_555
