# generated using pymatgen
data_ZnSnO2
_symmetry_space_group_name_H-M   'P 1'
_cell_length_a   3.33734400
_cell_length_b   8.43447867
_cell_length_c   9.92685805
_cell_angle_alpha   80.30490346
_cell_angle_beta   87.97880071
_cell_angle_gamma   81.27575550
_symmetry_Int_Tables_number   1
_chemical_formula_structural   ZnSnO2
_chemical_formula_sum   'Zn4 Sn4 O8'
_cell_volume   272.23744202
_cell_formula_units_Z   4
loop_
 _symmetry_equiv_pos_site_id
 _symmetry_equiv_pos_as_xyz
  1  'x, y, z'
loop_
 _atom_site_type_symbol
 _atom_site_label
 _atom_site_symmetry_multiplicity
 _atom_site_fract_x
 _atom_site_fract_y
 _atom_site_fract_z
 _atom_site_occupancy
  Zn  Zn0  1  0.21924500  0.19974000  0.92260700  1
  Zn  Zn1  1  0.79679300  0.89623800  0.05524100  1
  Zn  Zn2  1  0.74431200  0.13536400  0.23747400  1
  Zn  Zn3  1  0.23760600  0.89063900  0.76739900  1
  Sn  Sn0  1  0.77462200  0.56738700  0.86053400  1
  Sn  Sn1  1  0.55765200  0.27808300  0.61981000  1
  Sn  Sn2  1  0.40484600  0.77308600  0.39746700  1
  Sn  Sn3  1  0.13038600  0.47354500  0.19978700  1
  O  O0  1  0.57674400  0.55729700  0.31276400  1
  O  O1  1  0.78638100  0.78215600  0.71873300  1
  O  O2  1  0.20157600  0.22749800  0.29620900  1
  O  O3  1  0.35231300  0.42289200  0.77598900  1
  O  O4  1  0.32419000  0.84637800  0.97338400  1
  O  O5  1  0.12272600  0.13592400  0.73114600  1
  O  O6  1  0.72491000  0.15414300  0.02611100  1
  O  O7  1  0.85330900  0.88524700  0.26601000  1
loop_
_geom_bond_atom_site_label_1
_geom_bond_atom_site_label_2
_geom_bond_distance
_geom_bond_site_symmetry_2
O0 Sn2 2.124484 1_555
O0 Sn3 2.163271 1_555
O0 Sn3 2.212571 1_655
O1 Zn3 1.989099 1_655
O1 Zn3 2.000733 1_555
O1 Sn0 2.103148 1_555
O2 Zn2 1.961576 1_455
O2 Zn2 1.968693 1_555
O2 Sn3 2.115852 1_555
O3 Sn1 2.161938 1_555
O3 Sn0 2.263866 1_555
O3 Zn0 2.267917 1_555
O3 Sn0 2.329008 1_455
O4 Zn1 1.929970 1_456
O4 Zn1 1.931721 1_556
O4 Zn3 2.038591 1_555
O5 Zn3 2.018662 1_545
O5 Zn0 2.108583 1_555
O5 Sn1 2.175892 1_555
O5 Sn1 2.286993 1_455
O6 Zn0 1.960575 1_554
O6 Zn0 1.965997 1_654
O6 Zn2 2.079937 1_555
O6 Zn1 2.123158 1_545
O7 Zn2 2.058204 1_565
O7 Zn1 2.092602 1_555
O7 Sn2 2.171141 1_555
O7 Sn2 2.282831 1_655
