# generated using pymatgen
data_ZnFe8Ni3O16
_symmetry_space_group_name_H-M   'P 1'
_cell_length_a   8.36406630
_cell_length_b   8.36406630
_cell_length_c   8.36183732
_cell_angle_alpha   89.95430572
_cell_angle_beta   89.95430572
_cell_angle_gamma   90.00050376
_symmetry_Int_Tables_number   1
_chemical_formula_structural   ZnFe8Ni3O16
_chemical_formula_sum   'Zn2 Fe16 Ni6 O32'
_cell_volume   584.97374091
_cell_formula_units_Z   2
loop_
 _symmetry_equiv_pos_site_id
 _symmetry_equiv_pos_as_xyz
  1  'x, y, z'
loop_
 _atom_site_type_symbol
 _atom_site_label
 _atom_site_symmetry_multiplicity
 _atom_site_fract_x
 _atom_site_fract_y
 _atom_site_fract_z
 _atom_site_occupancy
  Zn  Zn0  1  0.99607500  0.99607500  0.00118500  1
  Zn  Zn1  1  0.75148200  0.75148200  0.74404600  1
  Fe  Fe0  1  0.50183700  0.99683700  0.50961300  1
  Fe  Fe1  1  0.99683700  0.50183700  0.50961300  1
  Fe  Fe2  1  0.50064600  0.50064600  0.00251600  1
  Fe  Fe3  1  0.24755000  0.24755000  0.74477800  1
  Fe  Fe4  1  0.75326900  0.24806900  0.24555000  1
  Fe  Fe5  1  0.24806900  0.75326900  0.24555000  1
  Fe  Fe6  1  0.12492700  0.12492700  0.37336600  1
  Fe  Fe7  1  0.87536000  0.37307000  0.87558600  1
  Fe  Fe8  1  0.37556300  0.12067500  0.12509800  1
  Fe  Fe9  1  0.12067500  0.37556300  0.12509800  1
  Fe  Fe10  1  0.62430900  0.62430900  0.37697000  1
  Fe  Fe11  1  0.62532600  0.12354800  0.87499400  1
  Fe  Fe12  1  0.12354800  0.62532600  0.87499400  1
  Fe  Fe13  1  0.37307000  0.87536000  0.87558600  1
  Fe  Fe14  1  0.37275400  0.37275400  0.37431700  1
  Fe  Fe15  1  0.87546500  0.87546500  0.37487800  1
  Ni  Ni0  1  0.37449800  0.62327500  0.62403500  1
  Ni  Ni1  1  0.62701100  0.87331600  0.12395400  1
  Ni  Ni2  1  0.87494300  0.12277300  0.62603300  1
  Ni  Ni3  1  0.87331600  0.62701100  0.12395400  1
  Ni  Ni4  1  0.12277300  0.87494300  0.62603300  1
  Ni  Ni5  1  0.62327600  0.37449800  0.62403500  1
  O  O0  1  0.60920300  0.37793000  0.37378500  1
  O  O1  1  0.38143600  0.11522100  0.88227900  1
  O  O2  1  0.88490600  0.88490600  0.60373500  1
  O  O3  1  0.12273400  0.60782600  0.11227900  1
  O  O4  1  0.87547000  0.63266700  0.37213900  1
  O  O5  1  0.14153100  0.85751400  0.87175000  1
  O  O6  1  0.36439100  0.36439100  0.13484100  1
  O  O7  1  0.62969200  0.12750400  0.64139600  1
  O  O8  1  0.11759700  0.88975300  0.37286400  1
  O  O9  1  0.11522100  0.38143600  0.88227900  1
  O  O10  1  0.60832400  0.89014600  0.87987900  1
  O  O11  1  0.89014600  0.60832400  0.87987900  1
  O  O12  1  0.88975300  0.11759700  0.37286400  1
  O  O13  1  0.37793000  0.60920300  0.37378500  1
  O  O14  1  0.37598400  0.37598400  0.60859500  1
  O  O15  1  0.37772000  0.88226300  0.11480300  1
  O  O16  1  0.88226300  0.37772000  0.11480300  1
  O  O17  1  0.60782600  0.12273400  0.11227900  1
  O  O18  1  0.61479700  0.61479700  0.60537400  1
  O  O19  1  0.12149700  0.12149700  0.60928800  1
  O  O20  1  0.36578500  0.13345900  0.36950200  1
  O  O21  1  0.36597400  0.63364700  0.87383000  1
  O  O22  1  0.85751400  0.14153100  0.87175000  1
  O  O23  1  0.63364700  0.36597400  0.87383000  1
  O  O24  1  0.63266700  0.87547000  0.37213900  1
  O  O25  1  0.13345900  0.36578500  0.36950200  1
  O  O26  1  0.86581100  0.86581100  0.14535100  1
  O  O27  1  0.87197900  0.36796400  0.64067100  1
  O  O28  1  0.36796400  0.87197900  0.64067100  1
  O  O29  1  0.12750400  0.62969200  0.64139600  1
  O  O30  1  0.13936500  0.13936500  0.13829900  1
  O  O31  1  0.62697800  0.62697800  0.13955600  1
loop_
_geom_bond_atom_site_label_1
_geom_bond_atom_site_label_2
_geom_bond_distance
_geom_bond_site_symmetry_2
Fe0 O28 1.881900 1_555
Fe0 O24 1.883934 1_555
Fe0 O7 1.885764 1_565
Fe0 O20 1.993326 1_565
Fe1 O27 1.881900 1_555
Fe1 O4 1.883934 1_555
Fe1 O29 1.885764 1_655
Fe1 O25 1.993326 1_655
Fe2 O31 1.884134 1_555
Fe2 O21 1.914215 1_554
Fe2 O23 1.914215 1_554
Fe2 O6 1.953929 1_555
Fe3 O19 1.873638 1_555
Fe3 O14 1.897564 1_555
Fe3 O9 1.949626 1_555
Fe3 O1 1.949626 1_555
Fe4 O16 1.879223 1_555
Fe4 O12 1.904595 1_555
Fe4 O0 1.944565 1_555
Fe4 O17 1.955680 1_555
Fe5 O15 1.879223 1_555
Fe5 O8 1.904595 1_555
Fe5 O13 1.944565 1_555
Fe5 O3 1.955680 1_555
Fe6 O12 1.967974 1_455
Fe6 O8 1.967974 1_545
Fe6 O30 1.972805 1_555
Fe6 O19 1.973113 1_555
Fe6 O20 2.016047 1_555
Fe6 O25 2.016047 1_555
Fe7 O22 1.942642 1_555
Fe7 O27 1.965045 1_555
Fe7 O11 1.971919 1_555
Fe7 O16 2.001582 1_556
Fe7 O9 2.008259 1_655
Fe7 O23 2.022639 1_555
Fe8 O17 1.945608 1_555
Fe8 O30 1.984743 1_555
Fe8 O15 1.996101 1_545
Fe8 O1 2.031517 1_554
Fe8 O6 2.042286 1_555
Fe8 O20 2.048115 1_555
Fe9 O3 1.945608 1_555
Fe9 O30 1.984743 1_555
Fe9 O16 1.996101 1_455
Fe9 O9 2.031517 1_554
Fe9 O6 2.042286 1_555
Fe9 O25 2.048115 1_555
Fe10 O18 1.913062 1_555
Fe10 O31 1.985433 1_555
Fe10 O13 2.064793 1_555
Fe10 O0 2.064793 1_555
Fe10 O4 2.102244 1_555
Fe10 O24 2.102244 1_555
Fe11 O22 1.948016 1_555
Fe11 O7 1.953874 1_555
Fe11 O10 1.957752 1_545
Fe11 O17 1.989420 1_556
Fe11 O23 2.028876 1_555
Fe11 O1 2.041959 1_555
Fe12 O5 1.948016 1_555
Fe12 O29 1.953874 1_555
Fe12 O11 1.957752 1_455
Fe12 O3 1.989420 1_556
Fe12 O21 2.028876 1_555
Fe12 O9 2.041959 1_555
Fe13 O5 1.942642 1_555
Fe13 O28 1.965045 1_555
Fe13 O10 1.971919 1_555
Fe13 O15 2.001582 1_556
Fe13 O1 2.008259 1_565
Fe13 O21 2.022639 1_555
Fe14 O14 1.959410 1_555
Fe14 O13 1.978150 1_555
Fe14 O0 1.978150 1_555
Fe14 O20 2.002765 1_555
Fe14 O25 2.002765 1_555
Fe14 O6 2.005013 1_555
Fe15 O2 1.917046 1_555
Fe15 O26 1.922790 1_555
Fe15 O8 2.028786 1_655
Fe15 O12 2.028786 1_565
Fe15 O24 2.030926 1_555
Fe15 O4 2.030926 1_555
Ni0 O18 2.017053 1_555
Ni0 O29 2.071552 1_555
Ni0 O14 2.072523 1_555
Ni0 O28 2.085647 1_555
Ni0 O21 2.091774 1_555
Ni0 O13 2.096125 1_555
Ni1 O26 2.006457 1_555
Ni1 O10 2.051739 1_554
Ni1 O31 2.064410 1_555
Ni1 O24 2.075952 1_555
Ni1 O15 2.087891 1_555
Ni1 O17 2.094517 1_565
Ni2 O2 2.000132 1_545
Ni2 O27 2.054689 1_555
Ni2 O7 2.055595 1_555
Ni2 O22 2.065786 1_555
Ni2 O19 2.066859 1_655
Ni2 O12 2.120957 1_555
Ni3 O26 2.006457 1_555
Ni3 O11 2.051739 1_554
Ni3 O31 2.064410 1_555
Ni3 O4 2.075952 1_555
Ni3 O16 2.087891 1_555
Ni3 O3 2.094517 1_655
Ni4 O2 2.000132 1_455
Ni4 O28 2.054689 1_555
Ni4 O29 2.055595 1_555
Ni4 O5 2.065786 1_555
Ni4 O19 2.066859 1_565
Ni4 O8 2.120957 1_555
Ni5 O18 2.017053 1_555
Ni5 O7 2.071552 1_555
Ni5 O14 2.072532 1_555
Ni5 O27 2.085639 1_555
Ni5 O23 2.091773 1_555
Ni5 O0 2.096125 1_555
O2 Zn1 1.965477 1_555
O5 Zn0 1.998645 1_456
O10 Zn1 2.017146 1_555
O11 Zn1 2.017146 1_555
O18 Zn1 1.990672 1_555
O22 Zn0 1.998645 1_546
O26 Zn0 1.955296 1_555
O30 Zn0 2.047345 1_445
