# generated using pymatgen
data_Eu2TiCuO6
_symmetry_space_group_name_H-M   'P 1'
_cell_length_a   5.44761388
_cell_length_b   5.61968600
_cell_length_c   7.75242676
_cell_angle_alpha   90.00000000
_cell_angle_beta   89.73130144
_cell_angle_gamma   90.00000000
_symmetry_Int_Tables_number   1
_chemical_formula_structural   Eu2TiCuO6
_chemical_formula_sum   'Eu4 Ti2 Cu2 O12'
_cell_volume   237.32924867
_cell_formula_units_Z   2
loop_
 _symmetry_equiv_pos_site_id
 _symmetry_equiv_pos_as_xyz
  1  'x, y, z'
loop_
 _atom_site_type_symbol
 _atom_site_label
 _atom_site_symmetry_multiplicity
 _atom_site_fract_x
 _atom_site_fract_y
 _atom_site_fract_z
 _atom_site_occupancy
  Eu  Eu0  1  0.48839800  0.05223700  0.24793600  1
  Eu  Eu1  1  0.01160200  0.55223700  0.25206400  1
  Eu  Eu2  1  0.51160200  0.94776300  0.75206400  1
  Eu  Eu3  1  0.98839800  0.44776300  0.74793600  1
  Ti  Ti0  1  0.50000000  0.50000000  0.50000000  1
  Ti  Ti1  1  0.00000000  0.00000000  0.00000000  1
  Cu  Cu0  1  0.50000000  0.50000000  0.00000000  1
  Cu  Cu1  1  0.00000000  0.00000000  0.50000000  1
  O  O0  1  0.29232600  0.80351100  0.04252400  1
  O  O1  1  0.20767400  0.30351100  0.45747500  1
  O  O2  1  0.69598600  0.20923100  0.54515600  1
  O  O3  1  0.80401400  0.70923100  0.95484400  1
  O  O4  1  0.70767400  0.19648900  0.95747600  1
  O  O5  1  0.79232600  0.69648900  0.54252400  1
  O  O6  1  0.30401400  0.79076900  0.45484400  1
  O  O7  1  0.19598600  0.29076900  0.04515600  1
  O  O8  1  0.58645600  0.47608200  0.25364100  1
  O  O9  1  0.91354400  0.97608200  0.24635900  1
  O  O10  1  0.41354400  0.52391800  0.74635900  1
  O  O11  1  0.08645600  0.02391800  0.75364100  1
loop_
_geom_bond_atom_site_label_1
_geom_bond_atom_site_label_2
_geom_bond_distance
_geom_bond_site_symmetry_2
Eu0 O9 2.355216 1_545
Eu0 O0 2.376226 1_545
Eu0 O6 2.392864 1_545
Eu0 O8 2.441487 1_555
Eu0 O7 2.613263 1_555
Eu0 O1 2.635934 1_555
Eu0 O4 2.670075 1_554
Eu0 O2 2.718619 1_555
Eu1 O8 2.355216 1_455
Eu1 O1 2.376221 1_555
Eu1 O7 2.392864 1_555
Eu1 O9 2.441487 1_455
Eu1 O6 2.613263 1_555
Eu1 O0 2.635939 1_555
Eu1 O5 2.670075 1_455
Eu1 O3 2.718619 1_454
Eu2 O11 2.355216 1_565
Eu2 O4 2.376226 1_565
Eu2 O2 2.392864 1_565
Eu2 O10 2.441487 1_555
Eu2 O3 2.613263 1_555
Eu2 O5 2.635939 1_555
Eu2 O0 2.670075 1_556
Eu2 O6 2.718619 1_555
Eu3 O10 2.355216 1_655
Eu3 O5 2.376226 1_555
Eu3 O3 2.392864 1_555
Eu3 O11 2.441487 1_655
Eu3 O2 2.613263 1_555
Eu3 O4 2.635939 1_555
Eu3 O1 2.670081 1_655
Eu3 O7 2.718619 1_656
Cu0 O10 2.028556 1_554
Cu0 O8 2.028556 1_555
Cu0 O3 2.059728 1_554
Cu0 O7 2.059728 1_555
Cu0 O0 2.072264 1_555
Cu0 O4 2.072264 1_554
Cu1 O9 2.028556 1_445
Cu1 O11 2.028556 1_555
Cu1 O6 2.059728 1_545
Cu1 O2 2.059728 1_455
Cu1 O5 2.072264 1_445
Cu1 O1 2.072265 1_555
O0 Ti1 1.966943 1_565
O1 Ti0 1.966944 1_555
O2 Ti0 1.983935 1_555
O3 Ti1 1.983935 1_666
O4 Ti1 1.966943 1_656
O5 Ti0 1.966943 1_555
O6 Ti0 1.983935 1_555
O7 Ti1 1.983935 1_555
O8 Ti0 1.969541 1_555
O9 Ti1 1.969541 1_665
O10 Ti0 1.969541 1_555
O11 Ti1 1.969541 1_556
