# generated using pymatgen
data_KCuPdSe5
_symmetry_space_group_name_H-M   'P 1'
_cell_length_a   7.40717300
_cell_length_b   6.27905300
_cell_length_c   9.10410730
_cell_angle_alpha   76.67054490
_cell_angle_beta   90.00000000
_cell_angle_gamma   90.00000000
_symmetry_Int_Tables_number   1
_chemical_formula_structural   KCuPdSe5
_chemical_formula_sum   'K2 Cu2 Pd2 Se10'
_cell_volume   412.02525610
_cell_formula_units_Z   2
loop_
 _symmetry_equiv_pos_site_id
 _symmetry_equiv_pos_as_xyz
  1  'x, y, z'
loop_
 _atom_site_type_symbol
 _atom_site_label
 _atom_site_symmetry_multiplicity
 _atom_site_fract_x
 _atom_site_fract_y
 _atom_site_fract_z
 _atom_site_occupancy
  K  K0  1  0.25000000  0.25791200  0.95370800  1
  K  K1  1  0.75000000  0.74208800  0.04629200  1
  Cu  Cu0  1  0.75000000  0.88168300  0.60832800  1
  Cu  Cu1  1  0.25000000  0.11831700  0.39167200  1
  Pd  Pd0  1  0.50000000  0.50000000  0.50000000  1
  Pd  Pd1  1  0.00000000  0.50000000  0.50000000  1
  Se  Se0  1  0.75000000  0.26865100  0.63522400  1
  Se  Se1  1  0.25000000  0.73134900  0.36477600  1
  Se  Se2  1  0.75000000  0.28770000  0.89413700  1
  Se  Se3  1  0.25000000  0.71230000  0.10586300  1
  Se  Se4  1  0.25000000  0.95908800  0.65808400  1
  Se  Se5  1  0.75000000  0.04091200  0.34191600  1
  Se  Se6  1  0.01046800  0.68189100  0.71639200  1
  Se  Se7  1  0.51046800  0.31810900  0.28360800  1
  Se  Se8  1  0.98953200  0.31810900  0.28360800  1
  Se  Se9  1  0.48953200  0.68189100  0.71639200  1
loop_
_geom_bond_atom_site_label_1
_geom_bond_atom_site_label_2
_geom_bond_distance
_geom_bond_site_symmetry_2
K0 Se3 3.386385 1_546
K0 Se3 3.446968 1_556
K0 Se9 3.500149 1_555
K0 Se6 3.500149 1_555
K0 Se4 3.618390 1_545
K0 Se8 3.661875 1_456
K0 Se7 3.661875 1_556
K0 Se2 3.741510 1_555
K0 Se2 3.741510 1_455
K1 Se2 3.386385 1_564
K1 Se2 3.446968 1_554
K1 Se7 3.500149 1_555
K1 Se8 3.500149 1_555
K1 Se5 3.618390 1_565
K1 Se6 3.661875 1_654
K1 Se9 3.661875 1_554
K1 Se3 3.741510 1_555
K1 Se3 3.741510 1_655
Cu0 Se6 2.386403 1_655
Cu0 Se9 2.386403 1_555
Cu0 Se5 2.400882 1_565
Cu0 Se0 2.497637 1_565
Cu1 Se7 2.386403 1_555
Cu1 Se8 2.386403 1_455
Cu1 Se4 2.400882 1_545
Cu1 Se1 2.497637 1_545
Pd0 Se7 2.495799 1_555
Pd0 Se9 2.495799 1_555
Pd0 Se1 2.496061 1_555
Pd0 Se0 2.496061 1_555
Pd1 Se8 2.495799 1_455
Pd1 Se6 2.495799 1_555
Pd1 Se0 2.496061 1_455
Pd1 Se1 2.496061 1_555
Se0 Se2 2.387586 1_555
Se1 Se3 2.387586 1_555
Se4 Se6 2.456258 1_555
Se4 Se9 2.456258 1_555
Se5 Se8 2.456258 1_555
Se5 Se7 2.456258 1_555
