# generated using pymatgen
data_Rb3AsBr6
_symmetry_space_group_name_H-M   'P 1'
_cell_length_a   8.36078108
_cell_length_b   8.36078108
_cell_length_c   8.36078108
_cell_angle_alpha   60.00000000
_cell_angle_beta   60.00000000
_cell_angle_gamma   60.00000000
_symmetry_Int_Tables_number   1
_chemical_formula_structural   Rb3AsBr6
_chemical_formula_sum   'Rb3 As1 Br6'
_cell_volume   413.26208123
_cell_formula_units_Z   1
loop_
 _symmetry_equiv_pos_site_id
 _symmetry_equiv_pos_as_xyz
  1  'x, y, z'
loop_
 _atom_site_type_symbol
 _atom_site_label
 _atom_site_symmetry_multiplicity
 _atom_site_fract_x
 _atom_site_fract_y
 _atom_site_fract_z
 _atom_site_occupancy
  Rb  Rb0  1  0.75000000  0.75000000  0.75000000  1
  Rb  Rb1  1  0.25000000  0.25000000  0.25000000  1
  Rb  Rb2  1  0.50000000  0.50000000  0.50000000  1
  As  As0  1  0.00000000  0.00000000  0.00000000  1
  Br  Br0  1  0.77462500  0.22537500  0.22537500  1
  Br  Br1  1  0.22537500  0.22537500  0.77462500  1
  Br  Br2  1  0.22537500  0.77462500  0.77462500  1
  Br  Br3  1  0.22537500  0.77462500  0.22537500  1
  Br  Br4  1  0.77462500  0.22537500  0.77462500  1
  Br  Br5  1  0.77462500  0.77462500  0.22537500  1
loop_
_geom_bond_atom_site_label_1
_geom_bond_atom_site_label_2
_geom_bond_distance
_geom_bond_site_symmetry_2
As0 Br0 2.664818 1_455
As0 Br5 2.664818 1_445
As0 Br3 2.664818 1_545
As0 Br2 2.664818 1_544
As0 Br4 2.664818 1_454
As0 Br1 2.664818 1_554
Br0 Rb2 3.247147 1_555
Br1 Rb2 3.247147 1_555
Br2 Rb2 3.247147 1_555
Br3 Rb2 3.247147 1_555
Br4 Rb2 3.247147 1_555
Br5 Rb2 3.247147 1_555
