# generated using pymatgen
data_Yb3Al3Cr2O12
_symmetry_space_group_name_H-M   'P 1'
_cell_length_a   10.52249098
_cell_length_b   10.52249098
_cell_length_c   10.52249098
_cell_angle_alpha   109.47122063
_cell_angle_beta   109.47122063
_cell_angle_gamma   109.47122063
_symmetry_Int_Tables_number   1
_chemical_formula_structural   Yb3Al3Cr2O12
_chemical_formula_sum   'Yb12 Al12 Cr8 O48'
_cell_volume   896.87887684
_cell_formula_units_Z   4
loop_
 _symmetry_equiv_pos_site_id
 _symmetry_equiv_pos_as_xyz
  1  'x, y, z'
loop_
 _atom_site_type_symbol
 _atom_site_label
 _atom_site_symmetry_multiplicity
 _atom_site_fract_x
 _atom_site_fract_y
 _atom_site_fract_z
 _atom_site_occupancy
  Yb  Yb0  1  0.25000000  0.37500000  0.12500000  1
  Yb  Yb1  1  0.75000000  0.62500000  0.87500000  1
  Yb  Yb2  1  0.75000000  0.12500000  0.37500000  1
  Yb  Yb3  1  0.12500000  0.25000000  0.37500000  1
  Yb  Yb4  1  0.37500000  0.75000000  0.12500000  1
  Yb  Yb5  1  0.25000000  0.87500000  0.62500000  1
  Yb  Yb6  1  0.87500000  0.75000000  0.62500000  1
  Yb  Yb7  1  0.62500000  0.25000000  0.87500000  1
  Yb  Yb8  1  0.37500000  0.12500000  0.25000000  1
  Yb  Yb9  1  0.62500000  0.87500000  0.75000000  1
  Yb  Yb10  1  0.12500000  0.37500000  0.75000000  1
  Yb  Yb11  1  0.87500000  0.62500000  0.25000000  1
  Al  Al0  1  0.25000000  0.62500000  0.37500000  1
  Al  Al1  1  0.75000000  0.37500000  0.62500000  1
  Al  Al2  1  0.75000000  0.87500000  0.12500000  1
  Al  Al3  1  0.37500000  0.25000000  0.62500000  1
  Al  Al4  1  0.62500000  0.75000000  0.37500000  1
  Al  Al5  1  0.25000000  0.12500000  0.87500000  1
  Al  Al6  1  0.12500000  0.75000000  0.87500000  1
  Al  Al7  1  0.87500000  0.25000000  0.12500000  1
  Al  Al8  1  0.62500000  0.37500000  0.25000000  1
  Al  Al9  1  0.37500000  0.62500000  0.75000000  1
  Al  Al10  1  0.87500000  0.12500000  0.75000000  1
  Al  Al11  1  0.12500000  0.87500000  0.25000000  1
  Cr  Cr0  1  0.00000000  0.00000000  0.00000000  1
  Cr  Cr1  1  0.50000000  0.00000000  0.50000000  1
  Cr  Cr2  1  0.00000000  0.50000000  0.50000000  1
  Cr  Cr3  1  0.50000000  0.00000000  0.00000000  1
  Cr  Cr4  1  0.50000000  0.50000000  0.00000000  1
  Cr  Cr5  1  0.50000000  0.50000000  0.50000000  1
  Cr  Cr6  1  0.00000000  0.00000000  0.50000000  1
  Cr  Cr7  1  0.00000000  0.50000000  0.00000000  1
  O  O0  1  0.48305900  0.38432700  0.30293200  1
  O  O1  1  0.51694100  0.61567300  0.69706800  1
  O  O2  1  0.58139500  0.18012700  0.19706800  1
  O  O3  1  0.91860500  0.11567300  0.59873200  1
  O  O4  1  0.30293200  0.48305900  0.38432700  1
  O  O5  1  0.31987300  0.91860500  0.30293200  1
  O  O6  1  0.41860500  0.81987300  0.80293200  1
  O  O7  1  0.08139500  0.88432700  0.40126800  1
  O  O8  1  0.69706800  0.51694100  0.61567300  1
  O  O9  1  0.68012700  0.08139500  0.69706800  1
  O  O10  1  0.01694100  0.31987300  0.90126800  1
  O  O11  1  0.19706800  0.58139500  0.18012700  1
  O  O12  1  0.11567300  0.01694100  0.19706800  1
  O  O13  1  0.98305900  0.68012700  0.09873200  1
  O  O14  1  0.80293200  0.41860500  0.81987300  1
  O  O15  1  0.88432700  0.98305900  0.80293200  1
  O  O16  1  0.59873200  0.91860500  0.11567300  1
  O  O17  1  0.18012700  0.48305900  0.59873200  1
  O  O18  1  0.40126800  0.08139500  0.88432700  1
  O  O19  1  0.81987300  0.51694100  0.40126800  1
  O  O20  1  0.90126800  0.01694100  0.31987300  1
  O  O21  1  0.38432700  0.58139500  0.90126800  1
  O  O22  1  0.09873200  0.98305900  0.68012700  1
  O  O23  1  0.61567300  0.41860500  0.09873200  1
  O  O24  1  0.38432700  0.30293200  0.48305900  1
  O  O25  1  0.58139500  0.90126800  0.38432700  1
  O  O26  1  0.61567300  0.69706800  0.51694100  1
  O  O27  1  0.41860500  0.09873200  0.61567300  1
  O  O28  1  0.11567300  0.59873200  0.91860500  1
  O  O29  1  0.01694100  0.19706800  0.11567300  1
  O  O30  1  0.88432700  0.40126800  0.08139500  1
  O  O31  1  0.98305900  0.80293200  0.88432700  1
  O  O32  1  0.31987300  0.90126800  0.01694100  1
  O  O33  1  0.91860500  0.30293200  0.31987300  1
  O  O34  1  0.68012700  0.09873200  0.98305900  1
  O  O35  1  0.08139500  0.69706800  0.68012700  1
  O  O36  1  0.18012700  0.19706800  0.58139500  1
  O  O37  1  0.48305900  0.59873200  0.18012700  1
  O  O38  1  0.81987300  0.80293200  0.41860500  1
  O  O39  1  0.51694100  0.40126800  0.81987300  1
  O  O40  1  0.30293200  0.31987300  0.91860500  1
  O  O41  1  0.69706800  0.68012700  0.08139500  1
  O  O42  1  0.19706800  0.11567300  0.01694100  1
  O  O43  1  0.80293200  0.88432700  0.98305900  1
  O  O44  1  0.90126800  0.38432700  0.58139500  1
  O  O45  1  0.09873200  0.61567300  0.41860500  1
  O  O46  1  0.59873200  0.18012700  0.48305900  1
  O  O47  1  0.40126800  0.81987300  0.51694100  1
loop_
_geom_bond_atom_site_label_1
_geom_bond_atom_site_label_2
_geom_bond_distance
_geom_bond_site_symmetry_2
Al0 O47 1.779462 1_555
Al0 O4 1.779462 1_555
Al0 O11 1.779462 1_555
Al0 O45 1.779462 1_555
Al1 O44 1.779462 1_555
Al1 O14 1.779462 1_555
Al1 O46 1.779462 1_555
Al1 O8 1.779462 1_555
Al2 O43 1.779462 1_554
Al2 O41 1.779462 1_555
Al2 O16 1.779462 1_555
Al2 O20 1.779462 1_565
Al3 O24 1.779462 1_555
Al3 O39 1.779462 1_555
Al3 O36 1.779462 1_555
Al3 O27 1.779462 1_555
Al4 O26 1.779462 1_555
Al4 O25 1.779462 1_555
Al4 O37 1.779462 1_555
Al4 O38 1.779462 1_555
Al5 O22 1.779462 1_545
Al5 O18 1.779462 1_555
Al5 O40 1.779462 1_555
Al5 O42 1.779462 1_556
Al6 O35 1.779462 1_555
Al6 O31 1.779462 1_455
Al6 O28 1.779462 1_555
Al6 O32 1.779462 1_556
Al7 O34 1.779462 1_554
Al7 O30 1.779462 1_555
Al7 O33 1.779462 1_555
Al7 O29 1.779462 1_655
Al8 O0 1.779462 1_555
Al8 O2 1.779462 1_555
Al8 O19 1.779462 1_555
Al8 O23 1.779462 1_555
Al9 O6 1.779462 1_555
Al9 O1 1.779462 1_555
Al9 O21 1.779462 1_555
Al9 O17 1.779462 1_555
Al10 O9 1.779462 1_555
Al10 O15 1.779462 1_545
Al10 O3 1.779462 1_555
Al10 O10 1.779462 1_655
Al11 O13 1.779462 1_455
Al11 O5 1.779462 1_555
Al11 O7 1.779462 1_555
Al11 O12 1.779462 1_565
Cr0 O12 1.933792 1_555
Cr0 O29 1.933792 1_555
Cr0 O42 1.933792 1_555
Cr0 O31 1.933792 1_444
Cr0 O43 1.933792 1_444
Cr0 O15 1.933792 1_444
Cr1 O46 1.933792 1_555
Cr1 O5 1.933792 1_545
Cr1 O27 1.933792 1_555
Cr1 O47 1.933792 1_545
Cr1 O25 1.933792 1_545
Cr1 O9 1.933792 1_555
Cr2 O17 1.933792 1_555
Cr2 O19 1.933792 1_455
Cr2 O45 1.933792 1_555
Cr2 O33 1.933792 1_455
Cr2 O44 1.933792 1_455
Cr2 O35 1.933792 1_555
Cr3 O2 1.933792 1_555
Cr3 O18 1.933792 1_554
Cr3 O16 1.933792 1_545
Cr3 O34 1.933792 1_554
Cr3 O32 1.933792 1_545
Cr3 O6 1.933792 1_544
Cr4 O23 1.933792 1_555
Cr4 O40 1.933792 1_554
Cr4 O37 1.933792 1_555
Cr4 O39 1.933792 1_554
Cr4 O21 1.933792 1_554
Cr4 O41 1.933792 1_555
Cr5 O1 1.933792 1_555
Cr5 O26 1.933792 1_555
Cr5 O8 1.933792 1_555
Cr5 O24 1.933792 1_555
Cr5 O0 1.933792 1_555
Cr5 O4 1.933792 1_555
Cr6 O20 1.933792 1_455
Cr6 O7 1.933792 1_545
Cr6 O3 1.933792 1_455
Cr6 O36 1.933792 1_555
Cr6 O22 1.933792 1_545
Cr6 O38 1.933792 1_445
Cr7 O10 1.933792 1_554
Cr7 O28 1.933792 1_554
Cr7 O13 1.933792 1_455
Cr7 O30 1.933792 1_455
Cr7 O11 1.933792 1_555
Cr7 O14 1.933792 1_454
O0 Yb8 2.354852 1_555
O0 Yb0 2.487005 1_555
O1 Yb9 2.354852 1_555
O1 Yb1 2.487005 1_555
O2 Yb8 2.354852 1_555
O2 Yb2 2.487005 1_555
O3 Yb10 2.354852 1_655
O3 Yb2 2.487005 1_555
O4 Yb0 2.354852 1_555
O4 Yb3 2.487005 1_555
O5 Yb8 2.354852 1_565
O5 Yb4 2.487005 1_555
O6 Yb9 2.354852 1_555
O6 Yb5 2.487005 1_555
O7 Yb11 2.354852 1_455
O7 Yb5 2.487005 1_555
O8 Yb1 2.354852 1_555
O8 Yb6 2.487005 1_555
O9 Yb9 2.354852 1_545
O9 Yb7 2.487005 1_555
O10 Yb10 2.354852 1_555
O10 Yb0 2.487005 1_556
O11 Yb0 2.354852 1_555
O11 Yb4 2.487005 1_555
O12 Yb8 2.354852 1_555
O12 Yb3 2.487005 1_555
O13 Yb11 2.354852 1_555
O13 Yb1 2.487005 1_554
O14 Yb1 2.354852 1_555
O14 Yb7 2.487005 1_555
O15 Yb9 2.354852 1_555
O15 Yb6 2.487005 1_555
O16 Yb2 2.354852 1_565
O16 Yb4 2.487005 1_555
O17 Yb10 2.354852 1_555
O17 Yb3 2.487005 1_555
O18 Yb5 2.354852 1_545
O18 Yb7 2.487005 1_555
O19 Yb11 2.354852 1_555
O19 Yb6 2.487005 1_555
O20 Yb2 2.354852 1_555
O20 Yb3 2.487005 1_655
O21 Yb10 2.354852 1_555
O21 Yb4 2.487005 1_556
O22 Yb5 2.354852 1_555
O22 Yb6 2.487005 1_455
O23 Yb11 2.354852 1_555
O23 Yb7 2.487005 1_554
O24 Yb3 2.354852 1_555
O24 Yb8 2.487005 1_555
O25 Yb4 2.354852 1_555
O25 Yb2 2.487005 1_565
O26 Yb6 2.354852 1_555
O26 Yb9 2.487005 1_555
O27 Yb7 2.354852 1_555
O27 Yb5 2.487005 1_545
O28 Yb4 2.354852 1_556
O28 Yb10 2.487005 1_555
O29 Yb3 2.354852 1_555
O29 Yb0 2.487005 1_555
O30 Yb7 2.354852 1_554
O30 Yb11 2.487005 1_555
O31 Yb6 2.354852 1_555
O31 Yb1 2.487005 1_555
O32 Yb4 2.354852 1_555
O32 Yb8 2.487005 1_565
O33 Yb3 2.354852 1_655
O33 Yb2 2.487005 1_555
O34 Yb7 2.354852 1_555
O34 Yb9 2.487005 1_545
O35 Yb6 2.354852 1_455
O35 Yb5 2.487005 1_555
O36 Yb3 2.354852 1_555
O36 Yb10 2.487005 1_555
O37 Yb4 2.354852 1_555
O37 Yb0 2.487005 1_555
O38 Yb6 2.354852 1_555
O38 Yb11 2.487005 1_555
O39 Yb7 2.354852 1_555
O39 Yb1 2.487005 1_555
O40 Yb0 2.354852 1_556
O40 Yb10 2.487005 1_555
O41 Yb1 2.354852 1_554
O41 Yb11 2.487005 1_555
O42 Yb0 2.354852 1_555
O42 Yb8 2.487005 1_555
O43 Yb1 2.354852 1_555
O43 Yb9 2.487005 1_555
O44 Yb2 2.354852 1_555
O44 Yb10 2.487005 1_655
O45 Yb5 2.354852 1_555
O45 Yb11 2.487005 1_455
O46 Yb2 2.354852 1_555
O46 Yb8 2.487005 1_555
O47 Yb5 2.354852 1_555
O47 Yb9 2.487005 1_555
