# generated using pymatgen
data_Ca2Ni3Ge2
_symmetry_space_group_name_H-M   'P 1'
_cell_length_a   3.99253500
_cell_length_b   7.02860100
_cell_length_c   9.04309200
_cell_angle_alpha   90.00000000
_cell_angle_beta   90.00000000
_cell_angle_gamma   90.00000000
_symmetry_Int_Tables_number   1
_chemical_formula_structural   Ca2Ni3Ge2
_chemical_formula_sum   'Ca4 Ni6 Ge4'
_cell_volume   253.76666437
_cell_formula_units_Z   2
loop_
 _symmetry_equiv_pos_site_id
 _symmetry_equiv_pos_as_xyz
  1  'x, y, z'
loop_
 _atom_site_type_symbol
 _atom_site_label
 _atom_site_symmetry_multiplicity
 _atom_site_fract_x
 _atom_site_fract_y
 _atom_site_fract_z
 _atom_site_occupancy
  Ca  Ca0  1  0.00000000  0.83050200  0.25000000  1
  Ca  Ca1  1  0.00000000  0.16949800  0.75000000  1
  Ca  Ca2  1  0.50000000  0.50000000  0.00000000  1
  Ca  Ca3  1  0.50000000  0.50000000  0.50000000  1
  Ni  Ni0  1  0.50000000  0.18473800  0.25000000  1
  Ni  Ni1  1  0.50000000  0.81526200  0.75000000  1
  Ni  Ni2  1  0.00000000  0.15335800  0.07317400  1
  Ni  Ni3  1  0.00000000  0.84664200  0.92682600  1
  Ni  Ni4  1  0.00000000  0.15335800  0.42682600  1
  Ni  Ni5  1  0.00000000  0.84664200  0.57317400  1
  Ge  Ge0  1  0.00000000  0.39960200  0.25000000  1
  Ge  Ge1  1  0.00000000  0.60039800  0.75000000  1
  Ge  Ge2  1  0.50000000  0.00000000  0.00000000  1
  Ge  Ge3  1  0.50000000  0.00000000  0.50000000  1
loop_
_geom_bond_atom_site_label_1
_geom_bond_atom_site_label_2
_geom_bond_distance
_geom_bond_site_symmetry_2
Ca0 Ni2 2.776033 1_565
Ca0 Ni4 2.776033 1_565
Ca0 Ni5 2.924693 1_555
Ca0 Ni3 2.924693 1_554
Ca0 Ge0 3.028624 1_555
Ca0 Ni0 3.191255 1_565
Ca0 Ni0 3.191255 1_465
Ca0 Ge2 3.242754 1_465
Ca0 Ge3 3.242754 1_565
Ca0 Ge3 3.242754 1_465
Ca0 Ge2 3.242754 1_565
Ca1 Ni3 2.776033 1_545
Ca1 Ni5 2.776033 1_545
Ca1 Ni4 2.924693 1_555
Ca1 Ni2 2.924693 1_556
Ca1 Ge1 3.028624 1_555
Ca1 Ni1 3.191255 1_545
Ca1 Ni1 3.191255 1_445
Ca1 Ge3 3.242754 1_555
Ca1 Ge3 3.242754 1_455
Ca1 Ge2 3.242754 1_556
Ca1 Ge2 3.242754 1_456
Ca2 Ge1 3.097439 1_654
Ca2 Ge1 3.097439 1_554
Ca2 Ge0 3.097439 1_555
Ca2 Ge0 3.097439 1_655
Ca2 Ni1 3.165610 1_554
Ca2 Ni0 3.165610 1_555
Ca2 Ni2 3.218547 1_655
Ca2 Ni2 3.218547 1_555
Ca2 Ni3 3.218547 1_654
Ca2 Ni3 3.218547 1_554
Ca2 Ge2 3.514301 1_565
Ca2 Ge2 3.514301 1_555
Ca3 Ge1 3.097439 1_655
Ca3 Ge1 3.097439 1_555
Ca3 Ge0 3.097439 1_555
Ca3 Ge0 3.097439 1_655
Ca3 Ni1 3.165610 1_555
Ca3 Ni0 3.165610 1_555
Ca3 Ni4 3.218547 1_555
Ca3 Ni5 3.218547 1_555
Ca3 Ni4 3.218547 1_655
Ca3 Ni5 3.218547 1_655
Ca3 Ge3 3.514301 1_555
Ca3 Ge3 3.514301 1_565
Ni0 Ni4 2.567236 1_555
Ni0 Ni2 2.567236 1_555
Ni0 Ni4 2.567236 1_655
Ni0 Ni2 2.567236 1_655
Ni1 Ni3 2.567236 1_655
Ni1 Ni3 2.567236 1_555
Ni1 Ni5 2.567236 1_555
Ni1 Ni5 2.567236 1_655
Ni2 Ni3 2.529604 1_544
Ni4 Ni5 2.529604 1_545
Ge0 Ni4 2.356368 1_555
Ge0 Ni2 2.356368 1_555
Ge0 Ni0 2.503152 1_455
Ge0 Ni0 2.503152 1_555
Ge1 Ni3 2.356368 1_555
Ge1 Ni5 2.356368 1_555
Ge1 Ni1 2.503152 1_555
Ge1 Ni1 2.503152 1_455
Ge2 Ni2 2.363220 1_555
Ge2 Ni2 2.363220 1_655
Ge2 Ni3 2.363220 1_544
Ge2 Ni3 2.363220 1_644
Ge2 Ni0 2.607118 1_555
Ge2 Ni1 2.607118 1_544
Ge3 Ni5 2.363220 1_645
Ge3 Ni5 2.363220 1_545
Ge3 Ni4 2.363220 1_555
Ge3 Ni4 2.363220 1_655
Ge3 Ni0 2.607118 1_555
Ge3 Ni1 2.607118 1_545
