# generated using pymatgen
data_Li2Mn2FeO6
_symmetry_space_group_name_H-M   'P 1'
_cell_length_a   5.12689047
_cell_length_b   5.12686127
_cell_length_c   10.29594401
_cell_angle_alpha   89.99769753
_cell_angle_beta   89.99839145
_cell_angle_gamma   118.54311846
_symmetry_Int_Tables_number   1
_chemical_formula_structural   Li2Mn2FeO6
_chemical_formula_sum   'Li4 Mn4 Fe2 O12'
_cell_volume   237.73474952
_cell_formula_units_Z   2
loop_
 _symmetry_equiv_pos_site_id
 _symmetry_equiv_pos_as_xyz
  1  'x, y, z'
loop_
 _atom_site_type_symbol
 _atom_site_label
 _atom_site_symmetry_multiplicity
 _atom_site_fract_x
 _atom_site_fract_y
 _atom_site_fract_z
 _atom_site_occupancy
  Li  Li0  1  0.12480300  0.62170500  0.74836700  1
  Li  Li1  1  0.37828500  0.87519800  0.25163700  1
  Li  Li2  1  0.62477600  0.12166700  0.75163300  1
  Li  Li3  1  0.87832900  0.37519800  0.24836600  1
  Mn  Mn0  1  0.16563500  0.83443200  0.49999700  1
  Mn  Mn1  1  0.33895400  0.66105600  0.99999400  1
  Mn  Mn2  1  0.66544500  0.33454100  0.99998800  1
  Mn  Mn3  1  0.83892100  0.16109400  0.50001300  1
  Fe  Fe0  1  0.99616400  0.00383400  0.99998900  1
  Fe  Fe1  1  0.49599600  0.50400300  0.50001300  1
  O  O0  1  0.16296000  0.15712700  0.59617400  1
  O  O1  1  0.34277000  0.33709800  0.09614300  1
  O  O2  1  0.66289700  0.65722000  0.90383600  1
  O  O3  1  0.84287300  0.83705500  0.40384900  1
  O  O4  1  0.00279900  0.65337400  0.09886400  1
  O  O5  1  0.95421400  0.31303300  0.88745600  1
  O  O6  1  0.18697800  0.54578100  0.38747200  1
  O  O7  1  0.45422000  0.81302200  0.61254000  1
  O  O8  1  0.34661900  0.99719300  0.90112200  1
  O  O9  1  0.50274500  0.15333700  0.40111300  1
  O  O10  1  0.84666600  0.49725700  0.59890300  1
  O  O11  1  0.68694900  0.04577600  0.11253000  1
loop_
_geom_bond_atom_site_label_1
_geom_bond_atom_site_label_2
_geom_bond_distance
_geom_bond_site_symmetry_2
Li0 O10 1.984785 1_455
Li0 O5 1.999284 1_455
Li0 O7 2.046170 1_555
Li0 O8 2.319693 1_555
Li1 O9 1.984888 1_565
Li1 O11 1.999401 1_565
Li1 O6 2.046210 1_555
Li1 O4 2.319816 1_555
Li2 O8 1.984937 1_545
Li2 O7 1.999349 1_545
Li2 O5 2.046346 1_555
Li2 O10 2.319717 1_555
Li3 O4 1.985085 1_655
Li3 O6 1.999464 1_655
Li3 O11 2.046395 1_555
Li3 O9 2.319816 1_555
Mn0 O7 1.923292 1_555
Mn0 O6 1.923310 1_555
Mn0 O0 1.933816 1_565
Mn0 O3 1.933845 1_455
Mn0 O9 1.999037 1_565
Mn0 O10 1.999442 1_455
Mn1 O1 1.941608 1_556
Mn1 O2 1.941651 1_555
Mn1 O8 1.985655 1_555
Mn1 O4 1.985708 1_556
Mn1 O11 2.247974 1_566
Mn1 O5 2.248090 1_455
Mn2 O5 1.924144 1_555
Mn2 O11 1.924163 1_556
Mn2 O2 1.933275 1_555
Mn2 O1 1.933311 1_556
Mn2 O8 1.999474 1_545
Mn2 O4 1.999555 1_656
Mn3 O3 1.942404 1_545
Mn3 O0 1.942418 1_655
Mn3 O10 1.985775 1_555
Mn3 O9 1.985858 1_555
Mn3 O7 2.247895 1_545
Mn3 O6 2.247902 1_655
Fe0 O1 2.038600 1_656
Fe0 O2 2.038621 1_545
Fe0 O5 2.056038 1_555
Fe0 O11 2.056151 1_556
Fe0 O8 2.079421 1_645
Fe0 O4 2.079450 1_646
Fe1 O0 2.038680 1_555
Fe1 O3 2.038733 1_555
Fe1 O7 2.054889 1_555
Fe1 O6 2.054965 1_555
Fe1 O10 2.080777 1_555
Fe1 O9 2.080818 1_555
