# generated using pymatgen
data_CdPPt5
_symmetry_space_group_name_H-M   'P 1'
_cell_length_a   3.94158966
_cell_length_b   3.94158966
_cell_length_c   7.10509448
_cell_angle_alpha   90.00000000
_cell_angle_beta   90.00000000
_cell_angle_gamma   90.00000000
_symmetry_Int_Tables_number   1
_chemical_formula_structural   CdPPt5
_chemical_formula_sum   'Cd1 P1 Pt5'
_cell_volume   110.38566474
_cell_formula_units_Z   1
loop_
 _symmetry_equiv_pos_site_id
 _symmetry_equiv_pos_as_xyz
  1  'x, y, z'
loop_
 _atom_site_type_symbol
 _atom_site_label
 _atom_site_symmetry_multiplicity
 _atom_site_fract_x
 _atom_site_fract_y
 _atom_site_fract_z
 _atom_site_occupancy
  Cd  Cd0  1  0.50000000  0.50000000  0.00000000  1
  P  P0  1  -0.00000000  -0.00000000  0.50000000  1
  Pt  Pt0  1  -0.00000000  0.50000000  0.29894955  1
  Pt  Pt1  1  0.00000000  0.50000000  0.70105045  1
  Pt  Pt2  1  0.50000000  -0.00000000  0.29894955  1
  Pt  Pt3  1  0.50000000  0.00000000  0.70105045  1
  Pt  Pt4  1  -0.00000000  -0.00000000  0.00000000  1
loop_
_geom_bond_atom_site_label_1
_geom_bond_atom_site_label_2
_geom_bond_distance
_geom_bond_site_symmetry_2
Cd0 Pt4 2.787125 1_665
Cd0 Pt4 2.787125 1_555
Cd0 Pt4 2.787125 1_655
Cd0 Pt4 2.787125 1_565
Cd0 Pt2 2.897531 1_565
Cd0 Pt1 2.897531 1_554
Cd0 Pt0 2.897531 1_555
Cd0 Pt1 2.897531 1_654
Cd0 Pt3 2.897531 1_564
Cd0 Pt0 2.897531 1_655
Cd0 Pt2 2.897531 1_555
Cd0 Pt3 2.897531 1_554
P0 Pt3 2.434049 1_455
P0 Pt1 2.434049 1_545
P0 Pt0 2.434049 1_555
P0 Pt3 2.434049 1_555
P0 Pt2 2.434049 1_455
P0 Pt1 2.434049 1_555
P0 Pt2 2.434049 1_555
P0 Pt0 2.434049 1_545
