# generated using pymatgen
data_MnAsRu
_symmetry_space_group_name_H-M   'P 1'
_cell_length_a   6.54934959
_cell_length_b   6.54934959
_cell_length_c   3.61019600
_cell_angle_alpha   90.00000000
_cell_angle_beta   90.00000000
_cell_angle_gamma   119.99999582
_symmetry_Int_Tables_number   1
_chemical_formula_structural   MnAsRu
_chemical_formula_sum   'Mn3 As3 Ru3'
_cell_volume   134.10895413
_cell_formula_units_Z   3
loop_
 _symmetry_equiv_pos_site_id
 _symmetry_equiv_pos_as_xyz
  1  'x, y, z'
loop_
 _atom_site_type_symbol
 _atom_site_label
 _atom_site_symmetry_multiplicity
 _atom_site_fract_x
 _atom_site_fract_y
 _atom_site_fract_z
 _atom_site_occupancy
  Mn  Mn0  1  0.59584300  0.00000000  0.50000000  1
  Mn  Mn1  1  0.40415700  0.40415700  0.50000000  1
  Mn  Mn2  1  0.00000000  0.59584300  0.50000000  1
  As  As0  1  0.33333300  0.66666700  0.00000000  1
  As  As1  1  0.66666700  0.33333300  0.00000000  1
  As  As2  1  0.00000000  0.00000000  0.50000000  1
  Ru  Ru0  1  0.00000000  0.25765900  0.00000000  1
  Ru  Ru1  1  0.25765900  0.00000000  0.00000000  1
  Ru  Ru2  1  0.74234100  0.74234100  0.00000000  1
loop_
_geom_bond_atom_site_label_1
_geom_bond_atom_site_label_2
_geom_bond_distance
_geom_bond_site_symmetry_2
Mn0 Ru1 2.857288 1_555
Mn0 Ru1 2.857288 1_556
Mn0 Ru2 2.940358 1_545
Mn0 Ru2 2.940358 1_546
Mn0 Ru0 2.940358 1_656
Mn0 Ru0 2.940358 1_655
Mn1 Ru2 2.857288 1_555
Mn1 Ru2 2.857288 1_556
Mn1 Ru0 2.940358 1_556
Mn1 Ru1 2.940358 1_555
Mn1 Ru1 2.940358 1_556
Mn1 Ru0 2.940358 1_555
Mn2 Ru0 2.857288 1_556
Mn2 Ru0 2.857288 1_555
Mn2 Ru2 2.940358 1_455
Mn2 Ru2 2.940358 1_456
Mn2 Ru1 2.940358 1_566
Mn2 Ru1 2.940358 1_565
As0 Ru1 2.468523 1_565
As0 Ru0 2.468528 1_555
As0 Ru2 2.468530 1_555
As0 Mn2 2.688287 1_554
As0 Mn2 2.688287 1_555
As0 Mn0 2.688288 1_564
As0 Mn0 2.688288 1_565
As0 Mn1 2.688291 1_555
As0 Mn1 2.688291 1_554
As1 Ru0 2.468523 1_655
As1 Ru1 2.468528 1_555
As1 Ru2 2.468530 1_555
As1 Mn0 2.688287 1_555
As1 Mn0 2.688287 1_554
As1 Mn2 2.688288 1_654
As1 Mn2 2.688288 1_655
As1 Mn1 2.688291 1_555
As1 Mn1 2.688291 1_554
As2 Ru0 2.471038 1_556
As2 Ru1 2.471038 1_555
As2 Ru0 2.471038 1_555
As2 Ru1 2.471038 1_556
As2 Ru2 2.471039 1_446
As2 Ru2 2.471039 1_445
As2 Mn2 2.646965 1_545
As2 Mn0 2.646965 1_455
As2 Mn1 2.646966 1_555
