# generated using pymatgen
data_Sr3Ca3(Ru2O7)2
_symmetry_space_group_name_H-M   'P 1'
_cell_length_a   5.57483600
_cell_length_b   5.59300028
_cell_length_c   10.45299266
_cell_angle_alpha   105.47295460
_cell_angle_beta   90.28028089
_cell_angle_gamma   90.03874354
_symmetry_Int_Tables_number   1
_chemical_formula_structural   Sr3Ca3(Ru2O7)2
_chemical_formula_sum   'Sr3 Ca3 Ru4 O14'
_cell_volume   314.10784559
_cell_formula_units_Z   1
loop_
 _symmetry_equiv_pos_site_id
 _symmetry_equiv_pos_as_xyz
  1  'x, y, z'
loop_
 _atom_site_type_symbol
 _atom_site_label
 _atom_site_symmetry_multiplicity
 _atom_site_fract_x
 _atom_site_fract_y
 _atom_site_fract_z
 _atom_site_occupancy
  Sr  Sr0  1  0.27065200  0.25610500  0.00127100  1
  Sr  Sr1  1  0.76635300  0.74568700  0.99711400  1
  Sr  Sr2  1  0.21958400  0.07065500  0.62278300  1
  Ca  Ca0  1  0.20187100  0.45589800  0.37535800  1
  Ca  Ca1  1  0.70231500  0.91551300  0.37440500  1
  Ca  Ca2  1  0.70193200  0.54152500  0.62267700  1
  Ru  Ru0  1  0.73946900  0.14848900  0.80011500  1
  Ru  Ru1  1  0.74026800  0.34874100  0.20148300  1
  Ru  Ru2  1  0.23834700  0.85040200  0.19907900  1
  Ru  Ru3  1  0.23720400  0.65188300  0.79967100  1
  O  O0  1  0.26270600  0.88299200  0.39160300  1
  O  O1  1  0.26097200  0.51432700  0.59962100  1
  O  O2  1  0.73581400  0.10581200  0.60047700  1
  O  O3  1  0.75912200  0.50852700  0.39952300  1
  O  O4  1  0.73989200  0.19651000  0.00167300  1
  O  O5  1  0.22662200  0.80428500  0.00008700  1
  O  O6  1  0.53778200  0.63491000  0.17446200  1
  O  O7  1  0.52685700  0.44876000  0.82229700  1
  O  O8  1  0.02635800  0.37383300  0.82345700  1
  O  O9  1  0.03472700  0.54315400  0.17766500  1
  O  O10  1  0.44284900  0.16321700  0.22898800  1
  O  O11  1  0.45456900  0.92658300  0.78560000  1
  O  O12  1  0.94555100  0.84139900  0.76802900  1
  O  O13  1  0.94458500  0.07079300  0.23256200  1
loop_
_geom_bond_atom_site_label_1
_geom_bond_atom_site_label_2
_geom_bond_distance
_geom_bond_site_symmetry_2
Ca0 O1 2.300926 1_555
Ca0 O10 2.347777 1_555
Ca0 O0 2.373148 1_555
Ca0 O9 2.428301 1_555
Ca0 O3 2.492014 1_455
Ca0 O13 2.680298 1_455
Ca1 O2 2.324968 1_565
Ca1 O13 2.341334 1_565
Ca1 O3 2.381113 1_555
Ca1 O6 2.429334 1_555
Ca1 O0 2.468344 1_555
Ca1 O10 2.725256 1_565
Ca2 O3 2.313982 1_555
Ca2 O12 2.362846 1_555
Ca2 O2 2.393227 1_555
Ca2 O1 2.469514 1_555
Ca2 O7 2.484490 1_555
Ca2 O11 2.740462 1_555
O0 Ru2 1.975651 1_555
O0 Sr2 2.377336 1_565
O1 Ru3 2.031425 1_555
O1 Sr2 2.567065 1_555
O1 Sr2 3.064818 1_565
O2 Ru0 2.036170 1_555
O2 Sr2 2.717634 1_655
O2 Sr2 2.899239 1_555
O3 Ru1 2.026255 1_555
O4 Ru1 2.034293 1_555
O4 Ru0 2.051615 1_554
O4 Sr1 2.513606 1_544
O4 Sr0 2.637434 1_555
O4 Sr0 2.977539 1_655
O4 Sr1 3.088040 1_554
O5 Ru2 2.027274 1_555
O5 Ru3 2.041404 1_554
O5 Sr0 2.535493 1_565
O5 Sr1 2.585535 1_454
O5 Sr1 3.026341 1_554
O5 Sr0 3.079256 1_555
O6 Ru2 2.036380 1_555
O6 Ru1 2.038701 1_555
O6 Sr1 2.465584 1_554
O6 Sr0 2.811885 1_555
O7 Ru0 2.019081 1_555
O7 Ru3 2.023900 1_555
O7 Sr1 2.496747 1_555
O7 Sr0 2.792970 1_556
O7 Sr2 3.059872 1_555
O8 Ru0 2.008815 1_455
O8 Ru3 2.017076 1_555
O8 Sr0 2.524383 1_556
O8 Sr2 2.561740 1_555
O8 Sr1 2.781550 1_455
O9 Ru2 2.020231 1_555
O9 Ru1 2.021156 1_455
O9 Sr0 2.480776 1_555
O9 Sr1 2.863365 1_454
O10 Ru1 2.017433 1_555
O10 Ru2 2.039722 1_545
O10 Sr0 2.737797 1_555
O11 Ru3 1.992573 1_555
O11 Ru0 1.995120 1_565
O11 Sr2 2.444036 1_565
O11 Sr0 2.708979 1_566
O11 Sr1 3.176703 1_555
O12 Ru3 2.015108 1_655
O12 Ru0 2.020264 1_565
O12 Sr2 2.709577 1_665
O12 Sr1 2.779468 1_555
O13 Ru1 2.021842 1_555
O13 Ru2 2.025350 1_645
O13 Sr1 2.817196 1_544
