# generated using pymatgen
data_Mg16PaAl12
_symmetry_space_group_name_H-M   'P 1'
_cell_length_a   9.12285643
_cell_length_b   9.12285683
_cell_length_c   9.12285643
_cell_angle_alpha   109.47122337
_cell_angle_beta   109.47121890
_cell_angle_gamma   109.47122337
_symmetry_Int_Tables_number   1
_chemical_formula_structural   Mg16PaAl12
_chemical_formula_sum   'Mg16 Pa1 Al12'
_cell_volume   584.48131039
_cell_formula_units_Z   1
loop_
 _symmetry_equiv_pos_site_id
 _symmetry_equiv_pos_as_xyz
  1  'x, y, z'
loop_
 _atom_site_type_symbol
 _atom_site_label
 _atom_site_symmetry_multiplicity
 _atom_site_fract_x
 _atom_site_fract_y
 _atom_site_fract_z
 _atom_site_occupancy
  Mg  Mg0  1  0.32087800  0.60445000  0.99999900  1
  Mg  Mg1  1  0.36206300  0.00000000  0.00000000  1
  Mg  Mg2  1  0.00000000  0.36206300  0.00000000  1
  Mg  Mg3  1  0.60444900  0.32087800  0.00000000  1
  Mg  Mg4  1  0.67912200  0.67912200  0.28357100  1
  Mg  Mg5  1  0.60445000  0.00000000  0.32087800  1
  Mg  Mg6  1  0.99999900  0.60445000  0.32087800  1
  Mg  Mg7  1  0.00000000  0.00000000  0.36206300  1
  Mg  Mg8  1  0.71643000  0.39555100  0.39555000  1
  Mg  Mg9  1  0.39555100  0.71643000  0.39555100  1
  Mg  Mg10  1  0.00000000  0.32087800  0.60444900  1
  Mg  Mg11  1  0.32087800  0.00000000  0.60445000  1
  Mg  Mg12  1  0.63793600  0.63793600  0.63793600  1
  Mg  Mg13  1  0.67912200  0.28357100  0.67912200  1
  Mg  Mg14  1  0.28357100  0.67912200  0.67912200  1
  Mg  Mg15  1  0.39555000  0.39555100  0.71643000  1
  Pa  Pa0  1  0.00000000  0.00000000  0.00000000  1
  Al  Al0  1  0.81451500  0.63338800  0.00000000  1
  Al  Al1  1  0.63338800  0.81451400  0.00000000  1
  Al  Al2  1  0.36661300  0.36661300  0.18112700  1
  Al  Al3  1  0.81887200  0.18548500  0.18548500  1
  Al  Al4  1  0.18548500  0.81887200  0.18548500  1
  Al  Al5  1  0.36661300  0.18112700  0.36661300  1
  Al  Al6  1  0.18112700  0.36661300  0.36661300  1
  Al  Al7  1  0.81451500  0.00000000  0.63338800  1
  Al  Al8  1  0.00000000  0.81451400  0.63338800  1
  Al  Al9  1  0.00000000  0.63338800  0.81451500  1
  Al  Al10  1  0.63338800  0.00000000  0.81451500  1
  Al  Al11  1  0.18548500  0.18548500  0.81887200  1
loop_
_geom_bond_atom_site_label_1
_geom_bond_atom_site_label_2
_geom_bond_distance
_geom_bond_site_symmetry_2
Mg0 Mg2 3.023830 1_556
Mg0 Mg15 3.089003 1_555
Mg0 Mg4 3.089026 1_556
Mg0 Mg14 3.157352 1_555
Mg0 Mg10 3.157362 1_555
Mg0 Mg5 3.157364 1_566
Mg0 Mg9 3.157375 1_556
Mg1 Mg14 3.023821 1_544
Mg1 Mg3 3.023821 1_555
Mg1 Mg5 3.023825 1_555
Mg1 Pa0 3.303049 1_555
Mg2 Mg6 3.023830 1_455
Mg2 Pa0 3.303049 1_555
Mg3 Mg4 3.089019 1_555
Mg3 Mg8 3.157356 1_555
Mg3 Mg6 3.157362 1_555
Mg4 Mg7 3.023821 1_665
Mg4 Mg6 3.157352 1_555
Mg4 Mg5 3.157361 1_565
Mg4 Mg8 3.157363 1_555
Mg4 Mg9 3.157368 1_555
Mg5 Mg9 3.089016 1_545
Mg5 Mg8 3.157369 1_555
Mg6 Mg8 3.089003 1_555
Mg6 Mg9 3.157375 1_655
Mg7 Pa0 3.303049 1_555
Mg10 Mg7 3.023821 1_555
Mg10 Mg8 3.089016 1_455
Mg10 Mg14 3.089019 1_555
Mg10 Mg15 3.157356 1_555
Mg10 Mg5 3.157361 1_455
Mg10 Mg13 3.157366 1_455
Mg11 Mg7 3.023825 1_555
Mg11 Mg9 3.089016 1_545
Mg11 Mg13 3.089023 1_555
Mg11 Mg3 3.157361 1_556
Mg11 Mg14 3.157361 1_545
Mg11 Mg6 3.157364 1_445
Mg11 Mg15 3.157369 1_555
Mg12 Mg9 3.023824 1_555
Mg12 Mg8 3.023829 1_555
Mg12 Mg15 3.023829 1_555
Mg12 Pa0 3.303058 1_666
Mg13 Mg2 3.023821 1_656
Mg13 Mg5 3.089023 1_555
Mg13 Mg3 3.157366 1_556
Mg13 Mg8 3.157377 1_555
Mg13 Mg15 3.157377 1_555
Mg14 Mg6 3.089026 1_455
Mg14 Mg15 3.157363 1_555
Mg14 Mg9 3.157368 1_555
Mg15 Mg3 3.089016 1_556
Al0 Al1 2.698343 1_555
Al0 Al4 2.763274 1_655
Al0 Al9 2.763274 1_654
Al0 Mg3 2.856271 1_555
Al0 Mg6 3.002164 1_555
Al0 Mg13 3.002171 1_554
Al0 Mg7 3.177349 1_665
Al0 Mg12 3.177354 1_554
Al0 Mg4 3.185343 1_555
Al0 Mg15 3.185348 1_554
Al0 Pa0 3.205682 1_665
Al1 Al3 2.763282 1_565
Al1 Al10 2.763282 1_564
Al1 Mg0 2.856260 1_554
Al1 Mg5 3.002168 1_565
Al1 Mg14 3.002174 1_554
Al1 Mg7 3.177347 1_665
Al1 Mg12 3.177352 1_554
Al1 Mg15 3.185335 1_554
Al1 Mg4 3.185337 1_555
Al1 Pa0 3.205683 1_665
Al2 Al6 2.763289 1_555
Al2 Al5 2.763289 1_555
Al2 Mg4 2.856261 1_555
Al2 Mg8 3.002174 1_555
Al2 Mg9 3.002176 1_555
Al2 Mg2 3.177352 1_555
Al2 Mg1 3.177352 1_555
Al2 Mg3 3.185337 1_555
Al2 Mg0 3.185351 1_554
Al2 Pa0 3.205691 1_555
Al3 Al6 2.698358 1_655
Al3 Mg8 2.856252 1_555
Al3 Mg5 3.002161 1_555
Al3 Mg3 3.002166 1_555
Al3 Mg2 3.177354 1_655
Al3 Mg7 3.177354 1_655
Al3 Mg10 3.185343 1_655
Al3 Mg6 3.185351 1_555
Al3 Pa0 3.205690 1_655
Al4 Al5 2.698358 1_565
Al4 Al9 2.763274 1_554
Al4 Mg9 2.856257 1_555
Al4 Mg6 3.002165 1_455
Al4 Mg0 3.002165 1_554
Al4 Mg1 3.177354 1_565
Al4 Mg7 3.177354 1_565
Al4 Mg5 3.185351 1_565
Al4 Mg11 3.185351 1_565
Al4 Pa0 3.205690 1_565
Al5 Al6 2.763289 1_555
Al5 Mg13 2.856261 1_555
Al5 Mg8 3.002180 1_555
Al5 Mg15 3.002180 1_555
Al5 Mg1 3.177352 1_555
Al5 Mg7 3.177352 1_555
Al5 Mg11 3.185345 1_555
Al5 Mg5 3.185345 1_555
Al5 Pa0 3.205691 1_555
Al6 Mg14 2.856261 1_555
Al6 Mg15 3.002174 1_555
Al6 Mg9 3.002176 1_555
Al6 Mg2 3.177352 1_555
Al6 Mg7 3.177352 1_555
Al6 Mg10 3.185337 1_555
Al6 Mg6 3.185351 1_455
Al6 Pa0 3.205691 1_555
Al7 Al8 2.763282 1_645
Al7 Mg5 2.856268 1_555
Al7 Mg4 3.002171 1_545
Al7 Mg10 3.002172 1_655
Al7 Mg2 3.177349 1_656
Al7 Mg12 3.177354 1_545
Al7 Mg9 3.185341 1_545
Al7 Mg13 3.185343 1_555
Al7 Pa0 3.205682 1_656
Al8 Al9 2.698343 1_555
Al8 Mg6 2.856260 1_455
Al8 Mg11 3.002168 1_565
Al8 Mg4 3.002174 1_455
Al8 Mg1 3.177347 1_566
Al8 Mg12 3.177352 1_455
Al8 Mg8 3.185335 1_455
Al8 Mg14 3.185337 1_555
Al8 Pa0 3.205683 1_566
Al9 Mg10 2.856271 1_555
Al9 Mg0 3.002164 1_555
Al9 Mg13 3.002171 1_455
Al9 Mg1 3.177349 1_566
Al9 Mg12 3.177354 1_455
Al9 Mg14 3.185343 1_555
Al9 Mg8 3.185348 1_455
Al9 Pa0 3.205682 1_566
Al10 Al7 2.698351 1_555
Al10 Al3 2.763274 1_556
Al10 Mg11 2.856268 1_555
Al10 Mg14 3.002171 1_545
Al10 Mg3 3.002172 1_556
Al10 Mg2 3.177349 1_656
Al10 Mg12 3.177354 1_545
Al10 Mg9 3.185341 1_545
Al10 Mg13 3.185343 1_555
Al10 Pa0 3.205682 1_656
Al11 Al2 2.698358 1_556
Al11 Al7 2.763274 1_455
Al11 Al8 2.763282 1_545
Al11 Mg15 2.856252 1_555
Al11 Mg11 3.002161 1_555
Al11 Mg10 3.002166 1_555
Al11 Mg2 3.177354 1_556
Al11 Mg1 3.177354 1_556
Al11 Mg3 3.185343 1_556
Al11 Mg0 3.185351 1_555
Al11 Pa0 3.205690 1_556
