# generated using pymatgen
data_Mg4Si3
_symmetry_space_group_name_H-M   'P 1'
_cell_length_a   8.18628909
_cell_length_b   11.31736058
_cell_length_c   7.07971921
_cell_angle_alpha   116.45208142
_cell_angle_beta   64.70903697
_cell_angle_gamma   104.39182510
_symmetry_Int_Tables_number   1
_chemical_formula_structural   Mg4Si3
_chemical_formula_sum   'Mg16 Si12'
_cell_volume   529.58238054
_cell_formula_units_Z   4
loop_
 _symmetry_equiv_pos_site_id
 _symmetry_equiv_pos_as_xyz
  1  'x, y, z'
loop_
 _atom_site_type_symbol
 _atom_site_label
 _atom_site_symmetry_multiplicity
 _atom_site_fract_x
 _atom_site_fract_y
 _atom_site_fract_z
 _atom_site_occupancy
  Mg  Mg0  1  0.02539600  0.10916300  0.73925800  1
  Mg  Mg1  1  0.32794800  0.07176800  0.90223900  1
  Mg  Mg2  1  0.21653100  0.64756400  0.77031800  1
  Mg  Mg3  1  0.49577100  0.78387700  0.10574600  1
  Mg  Mg4  1  0.96223800  0.19324800  0.32736800  1
  Mg  Mg5  1  0.63115000  0.07486400  0.06267400  1
  Mg  Mg6  1  0.00880700  0.61332400  0.21716100  1
  Mg  Mg7  1  0.71364600  0.48842100  0.93032600  1
  Mg  Mg8  1  0.08717000  0.37177100  0.72699500  1
  Mg  Mg9  1  0.56225100  0.28119000  0.57023400  1
  Mg  Mg10  1  0.19123800  0.82705700  0.58210000  1
  Mg  Mg11  1  0.71949500  0.61288400  0.63882600  1
  Mg  Mg12  1  0.47927400  0.41071300  0.33793200  1
  Mg  Mg13  1  0.22891100  0.33229600  0.03817900  1
  Mg  Mg14  1  0.69459700  0.97868900  0.47469400  1
  Mg  Mg15  1  0.12866700  0.90794500  0.22829800  1
  Si  Si0  1  0.84391100  0.34156600  0.14342100  1
  Si  Si1  1  0.38401500  0.51513900  0.86737900  1
  Si  Si2  1  0.93463300  0.94751600  0.99689300  1
  Si  Si3  1  0.49260900  0.84663200  0.76527500  1
  Si  Si4  1  0.28604400  0.16737100  0.35370300  1
  Si  Si5  1  0.70854400  0.23157100  0.81211800  1
  Si  Si6  1  0.60977500  0.69090100  0.38101400  1
  Si  Si7  1  0.84965600  0.74515500  0.07108100  1
  Si  Si8  1  0.31527400  0.58408800  0.29443000  1
  Si  Si9  1  0.01259000  0.47224500  0.47680200  1
  Si  Si10  1  0.39011300  0.02712000  0.45563600  1
  Si  Si11  1  0.84290900  0.86179200  0.64672100  1
loop_
_geom_bond_atom_site_label_1
_geom_bond_atom_site_label_2
_geom_bond_distance
_geom_bond_site_symmetry_2
Mg0 Si11 2.760761 1_445
Mg0 Si4 2.892132 1_555
Mg0 Si2 2.892207 1_445
Mg0 Si10 2.898790 1_555
Mg0 Si0 2.986295 1_456
Mg0 Si5 2.986582 1_455
Mg1 Si3 2.763818 1_545
Mg1 Si4 2.769660 1_556
Mg1 Si10 2.800194 1_555
Mg1 Si2 3.088487 1_445
Mg1 Si5 3.148607 1_555
Mg2 Si1 2.709631 1_555
Mg2 Si3 2.767018 1_555
Mg2 Si8 2.885498 1_555
Mg2 Si9 2.947302 1_555
Mg2 Si7 2.977170 1_456
Mg3 Si10 2.782141 1_565
Mg3 Si3 2.811213 1_554
Mg3 Si1 2.880692 1_554
Mg3 Si8 2.902384 1_555
Mg3 Si7 2.927920 1_555
Mg3 Si6 3.105672 1_555
Mg4 Si2 2.757140 1_544
Mg4 Si4 2.829122 1_655
Mg4 Si9 2.829949 1_655
Mg4 Si0 3.047207 1_555
Mg4 Si5 3.051390 1_555
Mg5 Si4 2.810284 1_555
Mg5 Si5 2.824403 1_554
Mg5 Si10 2.836217 1_555
Mg5 Si3 2.851342 1_544
Mg5 Si2 2.942735 1_544
Mg5 Si11 2.980233 1_544
Mg5 Si0 3.028377 1_555
Mg6 Si8 2.906803 1_555
Mg6 Si7 2.912945 1_455
Mg6 Si9 2.935488 1_555
Mg6 Si0 2.943095 1_455
Mg6 Si1 3.089938 1_554
Mg6 Si11 3.122685 1_455
Mg6 Si6 3.172964 1_455
Mg7 Si5 2.637081 1_555
Mg7 Si7 2.726771 1_556
Mg7 Si6 2.879492 1_556
Mg7 Si1 3.020738 1_555
Mg7 Si9 3.052393 1_655
Mg8 Si4 2.781275 1_555
Mg8 Si9 2.804773 1_555
Mg8 Si1 2.862263 1_555
Mg8 Si0 2.883984 1_456
Mg8 Si5 3.049434 1_455
Mg9 Si5 2.761429 1_555
Mg9 Si10 2.792171 1_555
Mg9 Si1 2.810737 1_555
Mg9 Si4 2.979342 1_555
Mg9 Si0 3.165016 1_555
Mg10 Si10 2.703116 1_565
Mg10 Si8 2.715116 1_555
Mg10 Si2 2.735158 1_455
Mg10 Si11 2.788792 1_455
Mg10 Si3 3.165992 1_555
Mg11 Si11 2.729915 1_555
Mg11 Si9 2.743419 1_655
Mg11 Si1 2.769803 1_555
Mg11 Si6 2.854578 1_555
Mg11 Si3 3.187684 1_555
Mg12 Si8 2.819308 1_555
Mg12 Si4 2.838416 1_555
Mg12 Si0 2.847459 1_555
Mg12 Si6 3.003708 1_555
Mg12 Si1 3.173152 1_555
Mg13 Si1 2.639633 1_554
Mg13 Si8 2.720320 1_555
Mg13 Si9 2.757081 1_555
Mg13 Si0 2.930491 1_455
Mg14 Si10 2.750282 1_565
Mg14 Si3 2.793597 1_555
Mg14 Si5 2.808950 1_565
Mg14 Si11 2.864434 1_555
Mg14 Si7 2.932929 1_555
Mg14 Si6 2.979072 1_555
Mg14 Si2 3.005054 1_554
Mg15 Si4 2.800525 1_565
Mg15 Si7 2.846675 1_455
Mg15 Si10 2.926551 1_565
Mg15 Si2 2.939103 1_454
Mg15 Si11 3.061139 1_455
Mg15 Si3 3.280263 1_554
Si0 Si5 2.685702 1_554
Si0 Si9 2.885219 1_655
Si1 Si8 2.594085 1_556
Si2 Si7 2.443821 1_556
Si3 Si6 2.401332 1_555
Si6 Si7 2.442786 1_555
Si6 Si8 2.608287 1_555
Si8 Si9 2.563653 1_555
Si10 Si4 2.446229 1_555
Si11 Si2 2.595522 1_555
Si11 Si3 2.604716 1_555
