# generated using pymatgen
data_Mg2GaPd
_symmetry_space_group_name_H-M   'P 1'
_cell_length_a   4.56454057
_cell_length_b   4.56454057
_cell_length_c   4.56454057
_cell_angle_alpha   60.00000000
_cell_angle_beta   60.00000000
_cell_angle_gamma   60.00000000
_symmetry_Int_Tables_number   1
_chemical_formula_structural   Mg2GaPd
_chemical_formula_sum   'Mg2 Ga1 Pd1'
_cell_volume   67.24751130
_cell_formula_units_Z   1
loop_
 _symmetry_equiv_pos_site_id
 _symmetry_equiv_pos_as_xyz
  1  'x, y, z'
loop_
 _atom_site_type_symbol
 _atom_site_label
 _atom_site_symmetry_multiplicity
 _atom_site_fract_x
 _atom_site_fract_y
 _atom_site_fract_z
 _atom_site_occupancy
  Mg  Mg0  1  0.75000000  0.75000000  0.75000000  1
  Mg  Mg1  1  0.25000000  0.25000000  0.25000000  1
  Ga  Ga0  1  0.50000000  0.50000000  0.50000000  1
  Pd  Pd0  1  -0.00000000  -0.00000000  -0.00000000  1
loop_
_geom_bond_atom_site_label_1
_geom_bond_atom_site_label_2
_geom_bond_distance
_geom_bond_site_symmetry_2
Mg0 Pd0 2.795199 1_656
Mg0 Pd0 2.795199 1_566
Mg0 Pd0 2.795199 1_666
Mg0 Pd0 2.795199 1_665
Mg1 Pd0 2.795199 1_555
Mg1 Pd0 2.795199 1_556
Mg1 Pd0 2.795199 1_565
Mg1 Pd0 2.795199 1_655
Ga0 Mg1 2.795199 1_655
Ga0 Mg1 2.795199 1_565
Ga0 Mg0 2.795199 1_554
Ga0 Mg0 2.795199 1_455
Ga0 Mg0 2.795199 1_555
Ga0 Mg1 2.795199 1_556
Ga0 Mg0 2.795199 1_545
Ga0 Mg1 2.795199 1_555
