# generated using pymatgen
data_CaH6W3(CO2)2
_symmetry_space_group_name_H-M   'P 1'
_cell_length_a   5.57633266
_cell_length_b   11.36007159
_cell_length_c   8.39148947
_cell_angle_alpha   81.22830408
_cell_angle_beta   80.89570859
_cell_angle_gamma   77.88250233
_symmetry_Int_Tables_number   1
_chemical_formula_structural   CaH6W3(CO2)2
_chemical_formula_sum   'Ca2 H12 W6 C4 O8'
_cell_volume   509.25618727
_cell_formula_units_Z   2
loop_
 _symmetry_equiv_pos_site_id
 _symmetry_equiv_pos_as_xyz
  1  'x, y, z'
loop_
 _atom_site_type_symbol
 _atom_site_label
 _atom_site_symmetry_multiplicity
 _atom_site_fract_x
 _atom_site_fract_y
 _atom_site_fract_z
 _atom_site_occupancy
  Ca  Ca0  1  0.65425400  0.24597700  0.17977600  1
  Ca  Ca1  1  0.34574600  0.75402300  0.82022400  1
  H  H0  1  0.39048800  0.89768800  0.28931600  1
  H  H1  1  0.60951200  0.10231200  0.71068400  1
  H  H2  1  0.14744700  0.28274900  0.28102000  1
  H  H3  1  0.85255300  0.71725100  0.71898000  1
  H  H4  1  0.37189200  0.08835000  0.96334500  1
  H  H5  1  0.62810800  0.91165000  0.03665500  1
  H  H6  1  0.96331900  0.16213900  0.81480000  1
  H  H7  1  0.03668100  0.83786100  0.18520000  1
  H  H8  1  0.37354000  0.80351600  0.06261300  1
  H  H9  1  0.62646000  0.19648400  0.93738800  1
  H  H10  1  0.20105200  0.15786500  0.56862900  1
  H  H11  1  0.79894800  0.84213500  0.43137100  1
  W  W0  1  0.26705100  0.06214000  0.76633600  1
  W  W1  1  0.73294900  0.93786000  0.23366400  1
  W  W2  1  0.22928800  0.95444200  0.08685300  1
  W  W3  1  0.77071200  0.04555800  0.91314700  1
  W  W4  1  0.25668500  0.02544500  0.43291000  1
  W  W5  1  0.74331500  0.97455500  0.56709000  1
  C  C0  1  0.39951000  0.63578200  0.42596000  1
  C  C1  1  0.60049000  0.36421800  0.57404000  1
  C  C2  1  0.13524000  0.34544400  0.16254700  1
  C  C3  1  0.86476000  0.65455600  0.83745300  1
  O  O0  1  0.32834000  0.38507600  0.10067800  1
  O  O1  1  0.67166000  0.61492400  0.89932200  1
  O  O2  1  0.93129700  0.36453300  0.10732300  1
  O  O3  1  0.06870300  0.63546700  0.89267700  1
  O  O4  1  0.44642500  0.57192000  0.32374400  1
  O  O5  1  0.55357500  0.42808000  0.67625600  1
  O  O6  1  0.64740200  0.30137400  0.46924400  1
  O  O7  1  0.35259800  0.69862600  0.53075600  1
loop_
_geom_bond_atom_site_label_1
_geom_bond_atom_site_label_2
_geom_bond_distance
_geom_bond_site_symmetry_2
Ca0 O2 2.212858 1_555
Ca0 H9 2.227650 1_554
Ca0 O0 2.257576 1_555
Ca0 O6 2.593189 1_555
Ca1 O3 2.212858 1_555
Ca1 H8 2.227658 1_556
Ca1 O1 2.257576 1_555
Ca1 O7 2.593189 1_555
H0 W4 1.977179 1_565
H0 W2 2.004021 1_555
H0 W1 2.022837 1_555
H1 W5 1.977179 1_545
H1 W3 2.004021 1_555
H1 W0 2.022837 1_555
H4 W0 1.921610 1_555
H4 W2 1.945961 1_546
H4 W3 2.161440 1_555
H5 W1 1.921610 1_555
H5 W3 1.945961 1_564
H5 W2 2.161440 1_555
H6 W0 1.854637 1_655
H6 W3 1.889953 1_555
H7 W1 1.854637 1_455
H7 W2 1.889953 1_555
H8 W2 1.761707 1_555
H9 W3 1.761708 1_555
H10 W0 1.882924 1_555
H10 W4 1.967488 1_555
H11 W1 1.882924 1_555
H11 W5 1.967488 1_555
C0 O4 1.170290 1_555
C0 O7 1.179707 1_555
C1 O5 1.170290 1_555
C1 O6 1.179707 1_555
C2 H2 1.133737 1_555
C2 O0 1.259779 1_555
C2 O2 1.260046 1_455
C3 H3 1.133737 1_555
C3 O1 1.259779 1_555
C3 O3 1.260046 1_655
