# generated using pymatgen
data_UAl4B3O14
_symmetry_space_group_name_H-M   'P 1'
_cell_length_a   5.65054900
_cell_length_b   9.65414900
_cell_length_c   10.68481030
_cell_angle_alpha   67.18471549
_cell_angle_beta   90.00000000
_cell_angle_gamma   90.00000000
_symmetry_Int_Tables_number   1
_chemical_formula_structural   UAl4B3O14
_chemical_formula_sum   'U2 Al8 B6 O28'
_cell_volume   537.26579943
_cell_formula_units_Z   2
loop_
 _symmetry_equiv_pos_site_id
 _symmetry_equiv_pos_as_xyz
  1  'x, y, z'
loop_
 _atom_site_type_symbol
 _atom_site_label
 _atom_site_symmetry_multiplicity
 _atom_site_fract_x
 _atom_site_fract_y
 _atom_site_fract_z
 _atom_site_occupancy
  U  U0  1  0.25000000  0.10555300  0.22592900  1
  U  U1  1  0.75000000  0.89444700  0.77407100  1
  Al  Al0  1  0.25000000  0.41384700  0.76801000  1
  Al  Al1  1  0.75000000  0.58615300  0.23199000  1
  Al  Al2  1  0.00000000  0.50000000  0.50000000  1
  Al  Al3  1  0.50000000  0.50000000  0.50000000  1
  Al  Al4  1  0.75000000  0.86027700  0.32764200  1
  Al  Al5  1  0.25000000  0.13972300  0.67235800  1
  Al  Al6  1  0.00000000  0.50000000  0.00000000  1
  Al  Al7  1  0.50000000  0.50000000  0.00000000  1
  B  B0  1  0.25000000  0.79237300  0.41727600  1
  B  B1  1  0.75000000  0.20762700  0.58272400  1
  B  B2  1  0.75000000  0.49205400  0.75090500  1
  B  B3  1  0.25000000  0.50794600  0.24909500  1
  B  B4  1  0.25000000  0.78639300  0.85653200  1
  B  B5  1  0.75000000  0.21360700  0.14346800  1
  O  O0  1  0.75000000  0.64031900  0.42958500  1
  O  O1  1  0.25000000  0.35968100  0.57041500  1
  O  O2  1  0.25000000  0.02171100  0.10171500  1
  O  O3  1  0.75000000  0.97828900  0.89828500  1
  O  O4  1  0.25000000  0.63804500  0.47492600  1
  O  O5  1  0.75000000  0.36195500  0.52507400  1
  O  O6  1  0.04750800  0.87707300  0.38183900  1
  O  O7  1  0.54750800  0.12292700  0.61816100  1
  O  O8  1  0.95249200  0.12292700  0.61816100  1
  O  O9  1  0.45249200  0.87707300  0.38183900  1
  O  O10  1  0.25000000  0.51122400  0.12062600  1
  O  O11  1  0.75000000  0.48877600  0.87937400  1
  O  O12  1  0.25000000  0.46005300  0.90862300  1
  O  O13  1  0.75000000  0.53994700  0.09137700  1
  O  O14  1  0.03586400  0.71429400  0.89474600  1
  O  O15  1  0.53586400  0.28570600  0.10525400  1
  O  O16  1  0.96413600  0.28570600  0.10525400  1
  O  O17  1  0.46413600  0.71429400  0.89474600  1
  O  O18  1  0.25000000  0.22066100  0.79817100  1
  O  O19  1  0.75000000  0.77933900  0.20182900  1
  O  O20  1  0.96294400  0.48889800  0.68479700  1
  O  O21  1  0.46294400  0.51110200  0.31520300  1
  O  O22  1  0.03705600  0.51110200  0.31520300  1
  O  O23  1  0.53705600  0.48889800  0.68479700  1
  O  O24  1  0.25000000  0.18311400  0.35518700  1
  O  O25  1  0.75000000  0.81688600  0.64481300  1
  O  O26  1  0.75000000  0.06436100  0.22918600  1
  O  O27  1  0.25000000  0.93563900  0.77081400  1
loop_
_geom_bond_atom_site_label_1
_geom_bond_atom_site_label_2
_geom_bond_distance
_geom_bond_site_symmetry_2
Al0 O12 1.725114 1_555
Al0 O18 1.765257 1_555
Al0 O23 1.856573 1_555
Al0 O20 1.856573 1_455
Al0 O1 2.363704 1_555
Al1 O13 1.725114 1_555
Al1 O19 1.765257 1_555
Al1 O22 1.856573 1_655
Al1 O21 1.856573 1_555
Al1 O0 2.363704 1_555
Al2 O4 1.888526 1_555
Al2 O5 1.888526 1_455
Al2 O0 1.899024 1_455
Al2 O1 1.899024 1_555
Al2 O22 1.946777 1_555
Al2 O20 1.946777 1_455
Al3 O4 1.888526 1_555
Al3 O5 1.888526 1_555
Al3 O0 1.899024 1_555
Al3 O1 1.899024 1_555
Al3 O23 1.946777 1_555
Al3 O21 1.946777 1_555
Al4 O19 1.797858 1_555
Al4 O6 1.805684 1_655
Al4 O9 1.805684 1_555
Al4 O26 1.838797 1_565
Al4 O0 1.975332 1_555
Al5 O18 1.797858 1_555
Al5 O7 1.805684 1_555
Al5 O8 1.805684 1_455
Al5 O27 1.838797 1_545
Al5 O1 1.975332 1_555
Al6 O13 1.841069 1_455
Al6 O12 1.841069 1_554
Al6 O11 1.943391 1_454
Al6 O10 1.943391 1_555
Al6 O14 1.944611 1_554
Al6 O16 1.944611 1_455
Al7 O13 1.841069 1_555
Al7 O12 1.841069 1_554
Al7 O11 1.943391 1_554
Al7 O10 1.943391 1_555
Al7 O17 1.944611 1_554
Al7 O15 1.944611 1_555
B0 O9 1.371521 1_555
B0 O6 1.371521 1_555
B0 O4 1.373868 1_555
B1 O8 1.371521 1_555
B1 O7 1.371521 1_555
B1 O5 1.373868 1_555
B2 O11 1.360708 1_555
B2 O20 1.401557 1_555
B2 O23 1.401557 1_555
B3 O10 1.360708 1_555
B3 O21 1.401557 1_555
B3 O22 1.401557 1_555
B4 O27 1.375302 1_555
B4 O17 1.376541 1_555
B4 O14 1.376541 1_555
B5 O26 1.375302 1_555
B5 O16 1.376541 1_555
B5 O15 1.376541 1_555
O2 U0 1.802707 1_555
O3 U1 1.802707 1_555
O6 U0 2.469831 1_565
O7 U1 2.469831 1_545
O8 U1 2.469831 1_545
O9 U0 2.469831 1_565
O14 U1 2.357423 1_455
O15 U0 2.357423 1_555
O16 U0 2.357423 1_655
O17 U1 2.357423 1_555
O24 U0 1.808345 1_555
O25 U1 1.808345 1_555
