# generated using pymatgen
data_CaTiCo(PO4)3
_symmetry_space_group_name_H-M   'P 1'
_cell_length_a   8.80535170
_cell_length_b   8.80535114
_cell_length_c   8.80535181
_cell_angle_alpha   58.67560981
_cell_angle_beta   58.67561430
_cell_angle_gamma   58.67561332
_symmetry_Int_Tables_number   1
_chemical_formula_structural   CaTiCo(PO4)3
_chemical_formula_sum   'Ca2 Ti2 Co2 P6 O24'
_cell_volume   468.14191134
_cell_formula_units_Z   2
loop_
 _symmetry_equiv_pos_site_id
 _symmetry_equiv_pos_as_xyz
  1  'x, y, z'
loop_
 _atom_site_type_symbol
 _atom_site_label
 _atom_site_symmetry_multiplicity
 _atom_site_fract_x
 _atom_site_fract_y
 _atom_site_fract_z
 _atom_site_occupancy
  Ca  Ca0  1  0.99703600  0.99703600  0.99703600  1
  Ca  Ca1  1  0.49703600  0.49703600  0.49703600  1
  Ti  Ti0  1  0.14646700  0.14646700  0.14646700  1
  Ti  Ti1  1  0.64646700  0.64646700  0.64646700  1
  Co  Co0  1  0.35229500  0.35229500  0.35229500  1
  Co  Co1  1  0.85229500  0.85229500  0.85229500  1
  P  P0  1  0.04017900  0.46207400  0.74992200  1
  P  P1  1  0.46207400  0.74992200  0.04017900  1
  P  P2  1  0.74992200  0.04017900  0.46207400  1
  P  P3  1  0.24992200  0.96207400  0.54017900  1
  P  P4  1  0.54017900  0.24992200  0.96207400  1
  P  P5  1  0.96207400  0.54017900  0.24992200  1
  O  O0  1  0.12298700  0.51099200  0.29502000  1
  O  O1  1  0.29502000  0.12298700  0.51099200  1
  O  O2  1  0.05547300  0.27356500  0.92140400  1
  O  O3  1  0.51099200  0.29502000  0.12298700  1
  O  O4  1  0.01099200  0.62298700  0.79502000  1
  O  O5  1  0.22611000  0.43849100  0.58164700  1
  O  O6  1  0.27356500  0.92140400  0.05547300  1
  O  O7  1  0.43849100  0.58164700  0.22611000  1
  O  O8  1  0.20591800  0.99920100  0.37122000  1
  O  O9  1  0.58164700  0.22611000  0.43849100  1
  O  O10  1  0.08164700  0.93849100  0.72611000  1
  O  O11  1  0.37122000  0.20591800  0.99920100  1
  O  O12  1  0.62298700  0.79502000  0.01099200  1
  O  O13  1  0.92140400  0.05547300  0.27356500  1
  O  O14  1  0.42140400  0.77356500  0.55547300  1
  O  O15  1  0.79502000  0.01099200  0.62298700  1
  O  O16  1  0.55547300  0.42140400  0.77356500  1
  O  O17  1  0.72611000  0.08164700  0.93849100  1
  O  O18  1  0.77356500  0.55547300  0.42140400  1
  O  O19  1  0.99920100  0.37122000  0.20591800  1
  O  O20  1  0.49920100  0.70591800  0.87122000  1
  O  O21  1  0.93849100  0.72611000  0.08164700  1
  O  O22  1  0.70591800  0.87122000  0.49920100  1
  O  O23  1  0.87122000  0.49920100  0.70591800  1
loop_
_geom_bond_atom_site_label_1
_geom_bond_atom_site_label_2
_geom_bond_distance
_geom_bond_site_symmetry_2
Ca0 O21 2.354409 1_556
Ca0 O17 2.354409 1_565
Ca0 O10 2.354409 1_655
Ca0 O2 2.428488 1_665
Ca0 O6 2.428488 1_656
Ca0 O13 2.428488 1_566
Ca1 O9 2.354409 1_555
Ca1 O5 2.354409 1_555
Ca1 O7 2.354409 1_555
Ca1 O14 2.428488 1_555
Ca1 O18 2.428488 1_555
Ca1 O16 2.428488 1_555
Co0 O1 1.917360 1_555
Co0 O0 1.917360 1_555
Co0 O3 1.917360 1_555
Co0 O7 2.067089 1_555
Co0 O9 2.067089 1_555
Co0 O5 2.067089 1_555
Co1 O15 1.917360 1_565
Co1 O4 1.917360 1_655
Co1 O12 1.917360 1_556
Co1 O17 2.067089 1_565
Co1 O10 2.067089 1_655
Co1 O21 2.067089 1_556
O0 P5 1.526965 1_455
O1 P3 1.526965 1_545
O2 P0 1.557664 1_555
O2 Ti0 2.057766 1_556
O3 P4 1.526965 1_554
O4 P0 1.526965 1_555
O5 P0 1.537242 1_555
O6 P1 1.557664 1_555
O6 Ti0 2.057766 1_565
O7 P1 1.537242 1_555
O8 P3 1.559600 1_555
O8 Ti0 1.890811 1_565
O9 P2 1.537242 1_555
O10 P3 1.537242 1_555
O11 P4 1.559600 1_555
O11 Ti0 1.890811 1_556
O12 P1 1.526965 1_555
O13 P2 1.557664 1_555
O13 Ti0 2.057766 1_655
O14 P3 1.557664 1_555
O14 Ti1 2.057766 1_555
O15 P2 1.526965 1_555
O16 P4 1.557664 1_555
O16 Ti1 2.057766 1_555
O17 P4 1.537242 1_555
O18 P5 1.557664 1_555
O18 Ti1 2.057766 1_555
O19 P5 1.559600 1_555
O19 Ti0 1.890811 1_655
O20 P1 1.559600 1_556
O20 Ti1 1.890811 1_555
O21 P5 1.537242 1_555
O22 P2 1.559600 1_565
O22 Ti1 1.890811 1_555
O23 P0 1.559600 1_655
O23 Ti1 1.890811 1_555
