# generated using pymatgen
data_Li9Mn2Co5O16
_symmetry_space_group_name_H-M   'P 1'
_cell_length_a   5.90990100
_cell_length_b   5.92848290
_cell_length_c   8.08556033
_cell_angle_alpha   90.84583980
_cell_angle_beta   90.89151353
_cell_angle_gamma   93.43481715
_symmetry_Int_Tables_number   1
_chemical_formula_structural   Li9Mn2Co5O16
_chemical_formula_sum   'Li9 Mn2 Co5 O16'
_cell_volume   282.71363807
_cell_formula_units_Z   1
loop_
 _symmetry_equiv_pos_site_id
 _symmetry_equiv_pos_as_xyz
  1  'x, y, z'
loop_
 _atom_site_type_symbol
 _atom_site_label
 _atom_site_symmetry_multiplicity
 _atom_site_fract_x
 _atom_site_fract_y
 _atom_site_fract_z
 _atom_site_occupancy
  Li  Li0  1  0.50000000  0.00000000  0.00000000  1
  Li  Li1  1  0.24450100  0.74108800  0.75866000  1
  Li  Li2  1  0.75611900  0.74261200  0.24481400  1
  Li  Li3  1  0.50000000  0.50000000  0.00000000  1
  Li  Li4  1  0.00000000  0.50000000  0.50000000  1
  Li  Li5  1  0.75549900  0.25891200  0.24134000  1
  Li  Li6  1  0.24388100  0.25738800  0.75518600  1
  Li  Li7  1  0.00000000  0.00000000  0.50000000  1
  Li  Li8  1  0.00000000  0.50000000  0.00000000  1
  Mn  Mn0  1  0.00000000  0.00000000  0.00000000  1
  Mn  Mn1  1  0.50000000  0.50000000  0.50000000  1
  Co  Co0  1  0.75807000  0.74033400  0.75259400  1
  Co  Co1  1  0.24193000  0.25966600  0.24740600  1
  Co  Co2  1  0.75301900  0.25255700  0.75154500  1
  Co  Co3  1  0.50000000  0.00000000  0.50000000  1
  Co  Co4  1  0.24698100  0.74744300  0.24845500  1
  O  O0  1  0.24348300  0.23774300  0.01373800  1
  O  O1  1  0.99831000  0.97886500  0.76016200  1
  O  O2  1  0.48044300  0.98660600  0.26745900  1
  O  O3  1  0.22813000  0.77477300  0.01408100  1
  O  O4  1  0.73983500  0.73825300  0.51123400  1
  O  O5  1  0.49605900  0.48483800  0.26071900  1
  O  O6  1  0.98079900  0.48211900  0.74909000  1
  O  O7  1  0.71837900  0.26429700  0.50814800  1
  O  O8  1  0.75651700  0.76225700  0.98626200  1
  O  O9  1  0.50394100  0.51516200  0.73928100  1
  O  O10  1  0.01920100  0.51788100  0.25091000  1
  O  O11  1  0.77187000  0.22522700  0.98591900  1
  O  O12  1  0.26016500  0.26174700  0.48876600  1
  O  O13  1  0.00169000  0.02113500  0.23983800  1
  O  O14  1  0.51955700  0.01339400  0.73254100  1
  O  O15  1  0.28162100  0.73570300  0.49185200  1
loop_
_geom_bond_atom_site_label_1
_geom_bond_atom_site_label_2
_geom_bond_distance
_geom_bond_site_symmetry_2
Li0 O11 2.032373 1_554
Li0 O3 2.032373 1_545
Li0 O8 2.133959 1_544
Li0 O0 2.133959 1_555
Li0 O14 2.169806 1_554
Li0 O2 2.169806 1_545
Li1 O3 2.076232 1_556
Li1 O1 2.085668 1_455
Li1 O9 2.101619 1_555
Li1 O6 2.120831 1_455
Li1 O15 2.171771 1_555
Li1 O14 2.235953 1_565
Li2 O8 2.095525 1_554
Li2 O10 2.107754 1_655
Li2 O5 2.108227 1_555
Li2 O13 2.133317 1_665
Li2 O4 2.158265 1_555
Li2 O2 2.250363 1_555
Li3 O8 2.110883 1_554
Li3 O0 2.110883 1_555
Li3 O5 2.111731 1_555
Li3 O9 2.111731 1_554
Li3 O3 2.358382 1_555
Li3 O11 2.358382 1_554
Li4 O10 2.022972 1_555
Li4 O6 2.022972 1_455
Li4 O7 2.110563 1_455
Li4 O15 2.110563 1_555
Li4 O4 2.151324 1_455
Li4 O12 2.151324 1_555
Li5 O11 2.076232 1_554
Li5 O13 2.085668 1_655
Li5 O5 2.101619 1_555
Li5 O10 2.120831 1_655
Li5 O7 2.171771 1_555
Li5 O2 2.235953 1_545
Li6 O0 2.095525 1_556
Li6 O6 2.107754 1_455
Li6 O9 2.108227 1_555
Li6 O1 2.133317 1_445
Li6 O12 2.158265 1_555
Li6 O14 2.250363 1_555
Li7 O13 2.109273 1_555
Li7 O1 2.109273 1_445
Li7 O12 2.122001 1_555
Li7 O4 2.122001 1_445
Li7 O7 2.354225 1_455
Li7 O15 2.354225 1_545
Li8 O10 2.031004 1_555
Li8 O6 2.031004 1_454
Li8 O3 2.052037 1_555
Li8 O11 2.052037 1_454
Li8 O0 2.183693 1_555
Li8 O8 2.183693 1_454
Mn0 O13 1.941253 1_555
Mn0 O1 1.941253 1_444
Mn0 O0 1.953686 1_555
Mn0 O8 1.953686 1_444
Mn0 O11 1.956784 1_454
Mn0 O3 1.956784 1_545
Mn1 O9 1.935195 1_555
Mn1 O5 1.935195 1_555
Mn1 O4 1.940279 1_555
Mn1 O12 1.940279 1_555
Mn1 O7 1.959279 1_555
Mn1 O15 1.959279 1_555
Co0 O8 1.892089 1_555
Co0 O1 1.942543 1_555
Co0 O9 1.949293 1_555
Co0 O4 1.952645 1_555
Co0 O6 2.078032 1_555
Co0 O14 2.215380 1_565
Co1 O0 1.892089 1_555
Co1 O13 1.942543 1_555
Co1 O5 1.949293 1_555
Co1 O12 1.952645 1_555
Co1 O10 2.078032 1_555
Co1 O2 2.215380 1_545
Co2 O6 1.856564 1_555
Co2 O11 1.906441 1_555
Co2 O14 1.920991 1_555
Co2 O7 1.978130 1_555
Co2 O9 2.207962 1_555
Co2 O1 2.240788 1_545
Co3 O14 1.882189 1_555
Co3 O2 1.882189 1_545
Co3 O7 1.969033 1_555
Co3 O15 1.969033 1_545
Co3 O12 2.165399 1_555
Co3 O4 2.165399 1_545
Co4 O10 1.856564 1_555
Co4 O3 1.906441 1_555
Co4 O2 1.920991 1_555
Co4 O15 1.978130 1_555
Co4 O5 2.207962 1_555
Co4 O13 2.240788 1_565
