# generated using pymatgen
data_NdTi4SnO12
_symmetry_space_group_name_H-M   'P 1'
_cell_length_a   5.35653674
_cell_length_b   5.35653674
_cell_length_c   7.81272995
_cell_angle_alpha   90.00000000
_cell_angle_beta   90.00000000
_cell_angle_gamma   89.84114999
_symmetry_Int_Tables_number   1
_chemical_formula_structural   NdTi4SnO12
_chemical_formula_sum   'Nd1 Ti4 Sn1 O12'
_cell_volume   224.16578219
_cell_formula_units_Z   1
loop_
 _symmetry_equiv_pos_site_id
 _symmetry_equiv_pos_as_xyz
  1  'x, y, z'
loop_
 _atom_site_type_symbol
 _atom_site_label
 _atom_site_symmetry_multiplicity
 _atom_site_fract_x
 _atom_site_fract_y
 _atom_site_fract_z
 _atom_site_occupancy
  Nd  Nd0  1  0.52635027  0.47364973  0.50000000  1
  Ti  Ti0  1  0.50295804  0.99460612  0.25277098  1
  Ti  Ti1  1  0.50295804  0.99460612  0.74722902  1
  Ti  Ti2  1  0.00539388  0.49704196  0.74722902  1
  Ti  Ti3  1  0.00539388  0.49704196  0.25277098  1
  Sn  Sn0  1  0.97889092  0.02110908  0.00000000  1
  O  O0  1  0.29970991  0.30447110  0.25866427  1
  O  O1  1  0.69552890  0.70029009  0.25866427  1
  O  O2  1  0.69552890  0.70029009  0.74133573  1
  O  O3  1  0.29970991  0.30447110  0.74133573  1
  O  O4  1  0.17216391  0.82783609  0.18104388  1
  O  O5  1  0.78217215  0.21782785  0.29226169  1
  O  O6  1  0.78217215  0.21782785  0.70773831  1
  O  O7  1  0.17216391  0.82783609  0.81895612  1
  O  O8  1  0.60153696  0.00985353  0.00000000  1
  O  O9  1  0.45286927  0.95344746  0.50000000  1
  O  O10  1  0.99014647  0.39846304  0.00000000  1
  O  O11  1  0.04655254  0.54713073  0.50000000  1
loop_
_geom_bond_atom_site_label_1
_geom_bond_atom_site_label_2
_geom_bond_distance
_geom_bond_site_symmetry_2
Nd0 O2 2.419961 1_555
Nd0 O3 2.419961 1_555
Nd0 O1 2.419961 1_555
Nd0 O0 2.419961 1_555
Nd0 O5 2.525723 1_555
Nd0 O6 2.525723 1_555
Nd0 O11 2.598941 1_555
Nd0 O9 2.598941 1_555
Nd0 O9 2.815225 1_545
Nd0 O11 2.815225 1_655
O0 Ti3 1.882158 1_555
O0 Ti0 1.983010 1_545
O1 Ti0 1.882158 1_555
O1 Ti3 1.983010 1_655
O2 Ti1 1.882158 1_555
O2 Ti2 1.983010 1_655
O3 Ti2 1.882158 1_555
O3 Ti1 1.983010 1_545
O4 Sn0 2.034281 1_465
O4 Ti3 2.064093 1_555
O4 Ti0 2.064093 1_555
O5 Ti0 1.942080 1_545
O5 Ti3 1.942080 1_655
O6 Ti1 1.942080 1_545
O6 Ti2 1.942080 1_655
O7 Sn0 2.034281 1_466
O7 Ti1 2.064093 1_555
O7 Ti2 2.064093 1_555
O8 Sn0 2.022376 1_555
O8 Ti1 2.045898 1_544
O8 Ti0 2.045898 1_545
O9 Ti0 1.962586 1_555
O9 Ti1 1.962586 1_555
O10 Sn0 2.022376 1_555
O10 Ti2 2.045898 1_654
O10 Ti3 2.045898 1_655
O11 Ti2 1.962586 1_555
O11 Ti3 1.962586 1_555
