# generated using pymatgen
data_DyInPt2
_symmetry_space_group_name_H-M   'P 1'
_cell_length_a   4.54660945
_cell_length_b   4.54660945
_cell_length_c   8.99484752
_cell_angle_alpha   90.00000000
_cell_angle_beta   90.00000000
_cell_angle_gamma   120.00001202
_symmetry_Int_Tables_number   1
_chemical_formula_structural   DyInPt2
_chemical_formula_sum   'Dy2 In2 Pt4'
_cell_volume   161.02736432
_cell_formula_units_Z   2
loop_
 _symmetry_equiv_pos_site_id
 _symmetry_equiv_pos_as_xyz
  1  'x, y, z'
loop_
 _atom_site_type_symbol
 _atom_site_label
 _atom_site_symmetry_multiplicity
 _atom_site_fract_x
 _atom_site_fract_y
 _atom_site_fract_z
 _atom_site_occupancy
  Dy  Dy0  1  0.33333300  0.66666700  0.25000000  1
  Dy  Dy1  1  0.66666700  0.33333300  0.75000000  1
  In  In0  1  0.00000000  -0.00000000  0.50000000  1
  In  In1  1  0.00000000  -0.00000000  -0.00000000  1
  Pt  Pt0  1  0.33333300  0.66666700  0.90824448  1
  Pt  Pt1  1  0.66666700  0.33333300  0.09175552  1
  Pt  Pt2  1  0.66666700  0.33333300  0.40824448  1
  Pt  Pt3  1  0.33333300  0.66666700  0.59175552  1
loop_
_geom_bond_atom_site_label_1
_geom_bond_atom_site_label_2
_geom_bond_distance
_geom_bond_site_symmetry_2
Dy0 Pt2 2.986061 1_455
Dy0 Pt1 2.986061 1_455
Dy0 Pt1 2.986061 1_565
Dy0 Pt2 2.986061 1_565
Dy0 Pt1 2.986069 1_555
Dy0 Pt2 2.986069 1_555
Dy0 Pt3 3.074039 1_555
Dy0 Pt0 3.074039 1_554
Dy1 Pt0 2.986061 1_545
Dy1 Pt3 2.986061 1_545
Dy1 Pt3 2.986061 1_655
Dy1 Pt0 2.986061 1_655
Dy1 Pt0 2.986069 1_555
Dy1 Pt3 2.986069 1_555
Dy1 Pt1 3.074039 1_556
Dy1 Pt2 3.074039 1_555
In0 Pt3 2.751673 1_545
In0 Pt2 2.751673 1_455
In0 Pt3 2.751676 1_555
In0 Pt3 2.751676 1_445
In0 Pt2 2.751676 1_555
In0 Pt2 2.751676 1_445
In1 Pt1 2.751673 1_455
In1 Pt0 2.751673 1_544
In1 Pt0 2.751676 1_554
In1 Pt1 2.751676 1_555
In1 Pt1 2.751676 1_445
In1 Pt0 2.751676 1_444
