# generated using pymatgen
data_Pr(SiP3)2
_symmetry_space_group_name_H-M   'P 1'
_cell_length_a   14.97794618
_cell_length_b   14.97794618
_cell_length_c   10.41025200
_cell_angle_alpha   90.00000000
_cell_angle_beta   90.00000000
_cell_angle_gamma   140.23575465
_symmetry_Int_Tables_number   1
_chemical_formula_structural   Pr(SiP3)2
_chemical_formula_sum   'Pr8 Si16 P48'
_cell_volume   1493.80769556
_cell_formula_units_Z   8
loop_
 _symmetry_equiv_pos_site_id
 _symmetry_equiv_pos_as_xyz
  1  'x, y, z'
loop_
 _atom_site_type_symbol
 _atom_site_label
 _atom_site_symmetry_multiplicity
 _atom_site_fract_x
 _atom_site_fract_y
 _atom_site_fract_z
 _atom_site_occupancy
  Pr  Pr0  1  0.31080800  0.68919200  0.25913100  1
  Pr  Pr1  1  0.68919200  0.31080800  0.75913100  1
  Pr  Pr2  1  0.58065300  0.41934700  0.35249200  1
  Pr  Pr3  1  0.41934700  0.58065300  0.85249200  1
  Pr  Pr4  1  0.76593600  0.23406400  0.23852900  1
  Pr  Pr5  1  0.23406400  0.76593600  0.73852900  1
  Pr  Pr6  1  0.95947900  0.04052100  0.77695200  1
  Pr  Pr7  1  0.04052100  0.95947900  0.27695200  1
  Si  Si0  1  0.34252600  0.01216100  0.13556100  1
  Si  Si1  1  0.65747400  0.98783900  0.63556100  1
  Si  Si2  1  0.01216100  0.34252600  0.63556100  1
  Si  Si3  1  0.98783900  0.65747400  0.13556100  1
  Si  Si4  1  0.34999700  0.99329500  0.46843400  1
  Si  Si5  1  0.65000300  0.00670500  0.96843400  1
  Si  Si6  1  0.99329500  0.34999700  0.96843400  1
  Si  Si7  1  0.00670500  0.65000300  0.46843400  1
  Si  Si8  1  0.75881700  0.92013000  0.17653800  1
  Si  Si9  1  0.24118300  0.07987000  0.67653800  1
  Si  Si10  1  0.92013000  0.75881700  0.67653800  1
  Si  Si11  1  0.07987000  0.24118300  0.17653800  1
  Si  Si12  1  0.60392800  0.73685900  0.49528800  1
  Si  Si13  1  0.39607200  0.26314100  0.99528800  1
  Si  Si14  1  0.73685900  0.60392800  0.99528800  1
  Si  Si15  1  0.26314100  0.39607200  0.49528800  1
  P  P0  1  0.45010300  0.96461000  0.16595300  1
  P  P1  1  0.54989700  0.03539000  0.66595300  1
  P  P2  1  0.96461000  0.45010300  0.66595300  1
  P  P3  1  0.03539000  0.54989700  0.16595300  1
  P  P4  1  0.49255300  0.19983400  0.99950200  1
  P  P5  1  0.50744700  0.80016600  0.49950200  1
  P  P6  1  0.19983400  0.49255300  0.49950200  1
  P  P7  1  0.80016600  0.50744700  0.99950200  1
  P  P8  1  0.84354900  0.15645100  0.50043200  1
  P  P9  1  0.15645100  0.84354900  0.00043200  1
  P  P10  1  0.95825700  0.04174300  0.07493300  1
  P  P11  1  0.04174300  0.95825700  0.57493300  1
  P  P12  1  0.56886100  0.10222800  0.46630800  1
  P  P13  1  0.43113900  0.89777200  0.96630800  1
  P  P14  1  0.10222800  0.56886100  0.96630800  1
  P  P15  1  0.89777200  0.43113900  0.46630800  1
  P  P16  1  0.80073200  0.89374100  0.37549500  1
  P  P17  1  0.19926800  0.10625900  0.87549500  1
  P  P18  1  0.89374100  0.80073200  0.87549500  1
  P  P19  1  0.10625900  0.19926800  0.37549500  1
  P  P20  1  0.42456600  0.57543400  0.21555800  1
  P  P21  1  0.57543400  0.42456600  0.71555800  1
  P  P22  1  0.77249600  0.22750400  0.95261200  1
  P  P23  1  0.22750400  0.77249600  0.45261200  1
  P  P24  1  0.46936500  0.53063500  0.39123100  1
  P  P25  1  0.53063500  0.46936500  0.89123100  1
  P  P26  1  0.32794000  0.08478300  0.31681300  1
  P  P27  1  0.67206000  0.91521700  0.81681300  1
  P  P28  1  0.08478300  0.32794000  0.81681300  1
  P  P29  1  0.91521700  0.67206000  0.31681300  1
  P  P30  1  0.61693500  0.70152200  0.10020400  1
  P  P31  1  0.38306500  0.29847800  0.60020400  1
  P  P32  1  0.70152200  0.61693500  0.60020400  1
  P  P33  1  0.29847800  0.38306500  0.10020400  1
  P  P34  1  0.65480000  0.34520000  0.14785000  1
  P  P35  1  0.34520000  0.65480000  0.64785000  1
  P  P36  1  0.92255900  0.07744100  0.49977700  1
  P  P37  1  0.07744100  0.92255900  0.99977700  1
  P  P38  1  0.68156300  0.31843700  0.47751900  1
  P  P39  1  0.31843700  0.68156300  0.97751900  1
  P  P40  1  0.32915700  0.27009500  0.18346200  1
  P  P41  1  0.67084300  0.72990500  0.68346200  1
  P  P42  1  0.27009500  0.32915700  0.68346200  1
  P  P43  1  0.72990500  0.67084300  0.18346200  1
  P  P44  1  0.63874700  0.95311500  0.17724900  1
  P  P45  1  0.36125300  0.04688500  0.67724900  1
  P  P46  1  0.95311500  0.63874700  0.67724900  1
  P  P47  1  0.04688500  0.36125300  0.17724900  1
loop_
_geom_bond_atom_site_label_1
_geom_bond_atom_site_label_2
_geom_bond_distance
_geom_bond_site_symmetry_2
P0 P13 2.228290 1_554
P0 Si0 2.228865 1_565
P0 Pr0 3.013222 1_555
P0 Pr4 3.144186 1_565
P1 P12 2.228290 1_555
P1 Si1 2.228865 1_545
P1 Pr1 3.013222 1_555
P1 Pr5 3.144186 1_545
P2 Si2 2.228865 1_655
P2 Pr1 3.013222 1_555
P2 Pr5 3.144186 1_655
P3 Si3 2.228865 1_455
P3 Pr0 3.013222 1_555
P3 Pr4 3.144186 1_455
P4 Si13 2.257403 1_555
P4 Si0 2.290497 1_556
P4 Pr1 3.189474 1_555
P5 Si12 2.257403 1_555
P5 Si1 2.290497 1_555
P5 Pr0 3.189474 1_555
P6 Si15 2.257403 1_555
P6 Si2 2.290497 1_555
P6 Pr0 3.189474 1_555
P7 Si14 2.257403 1_555
P7 Si3 2.290497 1_556
P7 Pr1 3.189474 1_555
P8 Si1 2.302944 1_545
P8 Si2 2.302944 1_655
P8 Pr4 3.494847 1_555
P9 Si0 2.302944 1_565
P9 Si3 2.302944 1_455
P9 Pr5 3.494847 1_554
P10 Si11 2.234934 1_655
P10 Si8 2.234934 1_545
P10 Pr6 3.102248 1_554
P10 Pr7 3.129420 1_645
P11 Si9 2.234934 1_565
P11 Si10 2.234934 1_455
P11 Pr7 3.102248 1_555
P11 Pr6 3.129420 1_465
P12 P38 2.223986 1_555
P12 Si4 2.277284 1_545
P12 Pr4 3.045345 1_555
P13 P39 2.223986 1_555
P13 Si5 2.277284 1_565
P13 Pr5 3.045345 1_555
P14 P39 2.223986 1_555
P14 P3 2.228290 1_556
P14 Si6 2.277284 1_455
P14 Pr5 3.045345 1_555
P15 P38 2.223986 1_555
P15 P2 2.228290 1_555
P15 Si7 2.277284 1_655
P15 Pr4 3.045345 1_555
P16 P36 2.203515 1_565
P16 Si12 2.262114 1_555
P16 Si8 2.285099 1_555
P16 Pr7 3.079686 1_655
P17 P37 2.203515 1_545
P17 Si13 2.262114 1_555
P17 Si9 2.285099 1_555
P17 Pr6 3.079686 1_455
P18 P37 2.203515 1_655
P18 Si14 2.262114 1_555
P18 Si10 2.285099 1_555
P18 Pr6 3.079686 1_565
P19 P36 2.203515 1_455
P19 Si15 2.262114 1_555
P19 Si11 2.285099 1_555
P19 Pr7 3.079686 1_545
P20 P24 2.221973 1_555
P20 P30 2.223742 1_555
P20 P33 2.223742 1_555
P20 Pr0 3.236547 1_555
P21 P25 2.221973 1_555
P21 P31 2.223742 1_555
P21 P32 2.223742 1_555
P21 Pr1 3.236547 1_555
P22 Si5 2.236562 1_555
P22 Si6 2.236562 1_555
P22 Pr4 2.982199 1_556
P22 Pr1 3.092565 1_555
P23 Si7 2.236562 1_555
P23 Si4 2.236562 1_555
P23 Pr5 2.982199 1_555
P23 Pr0 3.092565 1_555
P24 Si15 2.281578 1_555
P24 Si12 2.281578 1_555
P24 Pr2 3.160854 1_555
P25 Si13 2.281578 1_555
P25 Si14 2.281578 1_555
P25 Pr3 3.160854 1_555
P26 Si0 2.270798 1_555
P26 Si4 2.274694 1_545
P26 Pr7 3.131448 1_545
P26 Pr2 3.227379 1_555
P27 Si1 2.270798 1_555
P27 Si5 2.274694 1_565
P27 Pr6 3.131448 1_565
P27 Pr3 3.227379 1_555
P28 Si2 2.270798 1_555
P28 Si6 2.274694 1_455
P28 Pr6 3.131448 1_455
P28 Pr3 3.227379 1_555
P29 Si3 2.270798 1_555
P29 Si7 2.274694 1_655
P29 Pr7 3.131448 1_655
P29 Pr2 3.227379 1_555
P30 P43 2.240707 1_555
P30 Si8 2.274037 1_555
P30 Pr3 3.232492 1_554
P31 P42 2.240707 1_555
P31 Si9 2.274037 1_555
P31 Pr2 3.232492 1_555
P32 P41 2.240707 1_555
P32 Si10 2.274037 1_555
P32 Pr2 3.232492 1_555
P33 P40 2.240707 1_555
P33 Si11 2.274037 1_555
P33 Pr3 3.232492 1_554
P34 P7 2.212860 1_554
P34 P4 2.212860 1_554
P34 Pr2 2.983515 1_555
P34 Pr4 3.269962 1_555
P35 P6 2.212860 1_555
P35 P5 2.212860 1_555
P35 Pr3 2.983515 1_555
P35 Pr5 3.269962 1_555
P36 P8 2.225750 1_555
P36 Pr6 3.067180 1_555
P37 P9 2.225750 1_556
P37 Pr7 3.067180 1_556
P38 Pr1 2.939519 1_555
P38 Pr2 3.126474 1_555
P39 Pr0 2.939519 1_556
P39 Pr3 3.126474 1_555
P40 Si13 2.239036 1_554
P40 Pr2 3.055704 1_555
P40 Pr7 3.218791 1_545
P41 Si12 2.239036 1_555
P41 Pr3 3.055704 1_555
P41 Pr6 3.218791 1_565
P42 Si15 2.239036 1_555
P42 Pr3 3.055704 1_555
P42 Pr6 3.218791 1_455
P43 Si14 2.239036 1_554
P43 Pr2 3.055704 1_555
P43 Pr7 3.218791 1_655
P44 Si8 2.200984 1_555
P44 Si5 2.278187 1_564
P44 Pr4 3.069120 1_565
P44 Pr0 3.260181 1_555
P45 Si9 2.200984 1_555
P45 Si4 2.278187 1_545
P45 Pr5 3.069120 1_545
P45 Pr1 3.260181 1_555
P46 Si10 2.200984 1_555
P46 Si7 2.278187 1_655
P46 Pr5 3.069120 1_655
P46 Pr1 3.260181 1_555
P47 Si11 2.200984 1_555
P47 Si6 2.278187 1_454
P47 Pr4 3.069120 1_455
P47 Pr0 3.260181 1_555
