# generated using pymatgen
data_Ba2CaCeGd2Ti2(CuO7)2
_symmetry_space_group_name_H-M   'P 1'
_cell_length_a   3.90459300
_cell_length_b   3.90459300
_cell_length_c   20.75238700
_cell_angle_alpha   90.00000000
_cell_angle_beta   90.00000000
_cell_angle_gamma   90.00000000
_symmetry_Int_Tables_number   1
_chemical_formula_structural   Ba2CaCeGd2Ti2(CuO7)2
_chemical_formula_sum   'Ba2 Ca1 Ce1 Gd2 Ti2 Cu2 O14'
_cell_volume   316.38770662
_cell_formula_units_Z   1
loop_
 _symmetry_equiv_pos_site_id
 _symmetry_equiv_pos_as_xyz
  1  'x, y, z'
loop_
 _atom_site_type_symbol
 _atom_site_label
 _atom_site_symmetry_multiplicity
 _atom_site_fract_x
 _atom_site_fract_y
 _atom_site_fract_z
 _atom_site_occupancy
  Ba  Ba0  1  0.75000000  0.75000000  0.75540800  1
  Ba  Ba1  1  0.25000000  0.25000000  0.24150000  1
  Ca  Ca0  1  0.75000000  0.75000000  0.56559200  1
  Ce  Ce0  1  0.25000000  0.25000000  0.05965200  1
  Gd  Gd0  1  0.25000000  0.25000000  0.43975500  1
  Gd  Gd1  1  0.75000000  0.75000000  0.93651900  1
  Ti  Ti0  1  0.25000000  0.25000000  0.64785200  1
  Ti  Ti1  1  0.75000000  0.75000000  0.35264900  1
  Cu  Cu0  1  0.25000000  0.25000000  0.85305400  1
  Cu  Cu1  1  0.75000000  0.75000000  0.14473600  1
  O  O0  1  0.25000000  0.25000000  0.73766300  1
  O  O1  1  0.75000000  0.75000000  0.26283900  1
  O  O2  1  0.75000000  0.25000000  0.63972900  1
  O  O3  1  0.25000000  0.75000000  0.63972900  1
  O  O4  1  0.25000000  0.75000000  0.36153900  1
  O  O5  1  0.75000000  0.25000000  0.36153900  1
  O  O6  1  0.25000000  0.25000000  0.54178200  1
  O  O7  1  0.75000000  0.75000000  0.45341400  1
  O  O8  1  0.75000000  0.25000000  0.00229600  1
  O  O9  1  0.25000000  0.75000000  0.00229600  1
  O  O10  1  0.75000000  0.25000000  0.86358900  1
  O  O11  1  0.25000000  0.75000000  0.86358900  1
  O  O12  1  0.25000000  0.75000000  0.13664200  1
  O  O13  1  0.75000000  0.25000000  0.13664200  1
loop_
_geom_bond_atom_site_label_1
_geom_bond_atom_site_label_2
_geom_bond_distance
_geom_bond_site_symmetry_2
Ba0 O0 2.785414 1_565
Ba0 O0 2.785414 1_665
Ba0 O0 2.785414 1_555
Ba0 O0 2.785414 1_655
Ba0 O10 2.975155 1_555
Ba0 O10 2.975155 1_565
Ba0 O11 2.975155 1_555
Ba0 O11 2.975155 1_655
Ba0 O2 3.094255 1_555
Ba0 O2 3.094255 1_565
Ba0 O3 3.094255 1_555
Ba0 O3 3.094255 1_655
Ba1 O1 2.796252 1_455
Ba1 O1 2.796252 1_555
Ba1 O1 2.796252 1_445
Ba1 O1 2.796252 1_545
Ba1 O13 2.923469 1_455
Ba1 O12 2.923469 1_545
Ba1 O12 2.923469 1_555
Ba1 O13 2.923469 1_555
Ba1 O4 3.164968 1_555
Ba1 O5 3.164968 1_455
Ba1 O5 3.164968 1_555
Ba1 O4 3.164968 1_545
Ca0 O7 2.327961 1_555
Ca0 O2 2.485660 1_565
Ca0 O3 2.485660 1_655
Ca0 O3 2.485660 1_555
Ca0 O2 2.485660 1_555
Ca0 O6 2.804830 1_565
Ca0 O6 2.804830 1_655
Ca0 O6 2.804830 1_665
Ca0 O6 2.804830 1_555
Ce0 O8 2.286529 1_555
Ce0 O8 2.286529 1_455
Ce0 O9 2.286529 1_555
Ce0 O9 2.286529 1_545
Ce0 O12 2.522735 1_545
Ce0 O12 2.522735 1_555
Ce0 O13 2.522735 1_555
Ce0 O13 2.522735 1_455
Gd0 O6 2.117304 1_555
Gd0 O4 2.538925 1_555
Gd0 O5 2.538925 1_455
Gd0 O5 2.538925 1_555
Gd0 O4 2.538925 1_545
Gd0 O7 2.775477 1_445
Gd0 O7 2.775477 1_455
Gd0 O7 2.775477 1_545
Gd0 O7 2.775477 1_555
Gd1 O8 2.382177 1_556
Gd1 O8 2.382177 1_566
Gd1 O9 2.382177 1_556
Gd1 O9 2.382177 1_656
Gd1 O10 2.470234 1_555
Gd1 O10 2.470234 1_565
Gd1 O11 2.470234 1_555
Gd1 O11 2.470234 1_655
Cu0 O10 1.964500 1_555
Cu0 O11 1.964500 1_555
Cu0 O11 1.964500 1_545
Cu0 O10 1.964500 1_455
Cu0 O0 2.394639 1_555
Cu1 O12 1.959509 1_555
Cu1 O13 1.959509 1_555
Cu1 O12 1.959509 1_655
Cu1 O13 1.959509 1_565
Cu1 O1 2.450919 1_555
O0 Ti0 1.863793 1_555
O1 Ti1 1.863772 1_555
O2 Ti0 1.959561 1_555
O2 Ti0 1.959561 1_655
O3 Ti0 1.959561 1_555
O3 Ti0 1.959561 1_565
O4 Ti1 1.960994 1_455
O4 Ti1 1.960994 1_555
O5 Ti1 1.960994 1_545
O5 Ti1 1.960994 1_555
O6 Ti0 2.201206 1_555
O7 Ti1 2.091114 1_555
