# generated using pymatgen
data_Sc7P3
_symmetry_space_group_name_H-M   'P 1'
_cell_length_a   8.98797556
_cell_length_b   8.98793182
_cell_length_c   5.67891916
_cell_angle_alpha   90.00000140
_cell_angle_beta   89.99997332
_cell_angle_gamma   119.99984584
_symmetry_Int_Tables_number   1
_chemical_formula_structural   Sc7P3
_chemical_formula_sum   'Sc14 P6'
_cell_volume   397.30007283
_cell_formula_units_Z   2
loop_
 _symmetry_equiv_pos_site_id
 _symmetry_equiv_pos_as_xyz
  1  'x, y, z'
loop_
 _atom_site_type_symbol
 _atom_site_label
 _atom_site_symmetry_multiplicity
 _atom_site_fract_x
 _atom_site_fract_y
 _atom_site_fract_z
 _atom_site_occupancy
  Sc  Sc0  1  0.33332732  0.66666366  0.40801671  1
  Sc  Sc1  1  0.66667272  0.33333586  0.90800339  1
  Sc  Sc2  1  0.12390114  0.87610731  0.23592110  1
  Sc  Sc3  1  0.75224729  0.87612364  0.23592059  1
  Sc  Sc4  1  0.12390114  0.24779583  0.23592110  1
  Sc  Sc5  1  0.87610021  0.12389330  0.73591256  1
  Sc  Sc6  1  0.24775176  0.12387488  0.73591255  1
  Sc  Sc7  1  0.87610021  0.75220591  0.73591256  1
  Sc  Sc8  1  0.53486668  0.46513895  0.47314066  1
  Sc  Sc9  1  0.93030868  0.46515384  0.47317510  1
  Sc  Sc10  1  0.53486668  0.06972773  0.47314066  1
  Sc  Sc11  1  0.46512465  0.53486644  0.97315044  1
  Sc  Sc12  1  0.06970394  0.53485247  0.97318576  1
  Sc  Sc13  1  0.46512465  0.93025821  0.97315044  1
  P  P0  1  0.80850623  0.19152428  0.18119029  1
  P  P1  1  0.38303265  0.19151632  0.18115027  1
  P  P2  1  0.80850623  0.61698095  0.18119029  1
  P  P3  1  0.19149260  0.80847746  0.68120358  1
  P  P4  1  0.61697261  0.80848681  0.68116635  1
  P  P5  1  0.19149260  0.38301713  0.68120358  1
loop_
_geom_bond_atom_site_label_1
_geom_bond_atom_site_label_2
_geom_bond_distance
_geom_bond_site_symmetry_2
P0 Sc4 2.637150 1_655
P0 Sc3 2.637225 1_545
P0 Sc1 2.698406 1_554
P0 Sc10 2.702556 1_555
P0 Sc9 2.702602 1_555
P0 Sc5 2.739013 1_554
P0 Sc12 3.030615 1_654
P0 Sc13 3.031166 1_544
P0 Sc5 3.321415 1_555
P1 Sc2 2.637277 1_545
P1 Sc4 2.637289 1_555
P1 Sc1 2.698251 1_554
P1 Sc8 2.702585 1_555
P1 Sc10 2.702585 1_555
P1 Sc6 2.738973 1_554
P1 Sc11 3.030866 1_554
P1 Sc13 3.030866 1_544
P1 Sc6 3.321769 1_555
P2 Sc2 2.637159 1_655
P2 Sc3 2.637234 1_555
P2 Sc1 2.698406 1_554
P2 Sc8 2.702556 1_555
P2 Sc9 2.702603 1_555
P2 Sc7 2.739013 1_554
P2 Sc12 3.030604 1_654
P2 Sc11 3.031169 1_554
P2 Sc7 3.321414 1_555
P3 Sc7 2.637113 1_455
P3 Sc6 2.637182 1_565
P3 Sc0 2.698427 1_555
P3 Sc13 2.702505 1_555
P3 Sc12 2.702570 1_555
P3 Sc2 2.739027 1_555
P3 Sc9 3.030610 1_455
P3 Sc10 3.031136 1_565
P3 Sc2 3.321379 1_556
P4 Sc5 2.637234 1_565
P4 Sc7 2.637246 1_555
P4 Sc0 2.698294 1_555
P4 Sc13 2.702550 1_555
P4 Sc11 2.702556 1_555
P4 Sc3 2.738996 1_555
P4 Sc10 3.030864 1_565
P4 Sc8 3.030871 1_555
P4 Sc3 3.321711 1_556
P5 Sc5 2.637122 1_455
P5 Sc6 2.637217 1_555
P5 Sc0 2.698414 1_555
P5 Sc11 2.702504 1_555
P5 Sc12 2.702564 1_555
P5 Sc4 2.739027 1_555
P5 Sc9 3.030593 1_455
P5 Sc8 3.031141 1_555
P5 Sc4 3.321379 1_556
