# generated using pymatgen
data_B2Pb6WO12
_symmetry_space_group_name_H-M   'P 1'
_cell_length_a   9.97812280
_cell_length_b   9.97812280
_cell_length_c   12.03745600
_cell_angle_alpha   90.00000000
_cell_angle_beta   90.00000000
_cell_angle_gamma   142.03615700
_symmetry_Int_Tables_number   1
_chemical_formula_structural   B2Pb6WO12
_chemical_formula_sum   'B4 Pb12 W2 O24'
_cell_volume   737.26457028
_cell_formula_units_Z   2
loop_
 _symmetry_equiv_pos_site_id
 _symmetry_equiv_pos_as_xyz
  1  'x, y, z'
loop_
 _atom_site_type_symbol
 _atom_site_label
 _atom_site_symmetry_multiplicity
 _atom_site_fract_x
 _atom_site_fract_y
 _atom_site_fract_z
 _atom_site_occupancy
  B  B0  1  0.74669300  0.25330700  0.50000000  1
  B  B1  1  0.74669300  0.25330700  0.00000000  1
  B  B2  1  0.25330700  0.74669300  0.50000000  1
  B  B3  1  0.25330700  0.74669300  0.00000000  1
  Pb  Pb0  1  0.51446800  0.09828100  0.25000000  1
  Pb  Pb1  1  0.90171900  0.48553200  0.75000000  1
  Pb  Pb2  1  0.48553200  0.90171900  0.75000000  1
  Pb  Pb3  1  0.09828100  0.51446800  0.25000000  1
  Pb  Pb4  1  0.64990800  0.86613800  0.40711400  1
  Pb  Pb5  1  0.13386200  0.35009200  0.59288600  1
  Pb  Pb6  1  0.64990800  0.86613800  0.09288600  1
  Pb  Pb7  1  0.13386200  0.35009200  0.90711400  1
  Pb  Pb8  1  0.35009200  0.13386200  0.59288600  1
  Pb  Pb9  1  0.86613800  0.64990800  0.40711400  1
  Pb  Pb10  1  0.35009200  0.13386200  0.90711400  1
  Pb  Pb11  1  0.86613800  0.64990800  0.09288600  1
  W  W0  1  0.26795300  0.26795300  0.25000000  1
  W  W1  1  0.73204700  0.73204700  0.75000000  1
  O  O0  1  0.47869500  0.77914000  0.25000000  1
  O  O1  1  0.22086000  0.52130500  0.75000000  1
  O  O2  1  0.52130500  0.22086000  0.75000000  1
  O  O3  1  0.77914000  0.47869500  0.25000000  1
  O  O4  1  0.72448300  0.15943600  0.40456700  1
  O  O5  1  0.84056400  0.27551700  0.59543300  1
  O  O6  1  0.72448300  0.15943600  0.09543300  1
  O  O7  1  0.84056400  0.27551700  0.90456700  1
  O  O8  1  0.27551700  0.84056400  0.59543300  1
  O  O9  1  0.15943600  0.72448300  0.40456700  1
  O  O10  1  0.27551700  0.84056400  0.90456700  1
  O  O11  1  0.15943600  0.72448300  0.09543300  1
  O  O12  1  0.17876100  0.02259600  0.25000000  1
  O  O13  1  0.97740400  0.82123900  0.75000000  1
  O  O14  1  0.82123900  0.97740400  0.75000000  1
  O  O15  1  0.02259600  0.17876100  0.25000000  1
  O  O16  1  0.42993800  0.42993800  0.12696000  1
  O  O17  1  0.57006200  0.57006200  0.87304000  1
  O  O18  1  0.42993800  0.42993800  0.37304000  1
  O  O19  1  0.57006200  0.57006200  0.62696000  1
  O  O20  1  0.67214500  0.32785500  0.50000000  1
  O  O21  1  0.67214500  0.32785500  0.00000000  1
  O  O22  1  0.32785500  0.67214500  0.50000000  1
  O  O23  1  0.32785500  0.67214500  0.00000000  1
loop_
_geom_bond_atom_site_label_1
_geom_bond_atom_site_label_2
_geom_bond_distance
_geom_bond_site_symmetry_2
B0 O5 1.385210 1_555
B0 O4 1.385210 1_555
B0 O20 1.406799 1_555
B1 O7 1.385210 1_554
B1 O6 1.385210 1_555
B1 O21 1.406799 1_555
B2 O8 1.385210 1_555
B2 O9 1.385210 1_555
B2 O22 1.406799 1_555
B3 O10 1.385210 1_554
B3 O11 1.385210 1_555
B3 O23 1.406799 1_555
O0 Pb6 2.215980 1_555
O0 Pb4 2.215980 1_555
O0 Pb3 2.361387 1_555
O1 Pb7 2.215980 1_555
O1 Pb5 2.215980 1_555
O1 Pb2 2.361387 1_555
O2 Pb10 2.215980 1_555
O2 Pb8 2.215980 1_555
O2 Pb1 2.361387 1_555
O3 Pb11 2.215980 1_555
O3 Pb9 2.215980 1_555
O3 Pb0 2.361387 1_555
O4 Pb4 2.384453 1_545
O4 Pb0 2.491830 1_555
O5 Pb5 2.384453 1_655
O5 Pb1 2.491830 1_555
O6 Pb6 2.384453 1_545
O6 Pb0 2.491830 1_555
O7 Pb7 2.384453 1_655
O7 Pb1 2.491830 1_555
O8 Pb8 2.384453 1_565
O8 Pb2 2.491830 1_555
O9 Pb9 2.384453 1_455
O9 Pb3 2.491830 1_555
O10 Pb10 2.384453 1_565
O10 Pb2 2.491830 1_555
O11 Pb11 2.384453 1_455
O11 Pb3 2.491830 1_555
O12 W0 1.830348 1_555
O12 Pb0 2.793235 1_555
O13 W1 1.830348 1_555
O13 Pb1 2.793235 1_555
O14 W1 1.830348 1_555
O14 Pb2 2.793235 1_555
O15 W0 1.830348 1_555
O15 Pb3 2.793235 1_555
O16 W0 1.816374 1_555
O17 W1 1.816374 1_555
O18 W0 1.816374 1_555
O19 W1 1.816374 1_555
O20 Pb8 2.348485 1_555
O20 Pb9 2.348485 1_555
O21 Pb10 2.348485 1_554
O21 Pb11 2.348485 1_555
O22 Pb5 2.348485 1_555
O22 Pb4 2.348485 1_555
O23 Pb7 2.348485 1_554
O23 Pb6 2.348485 1_555
