# generated using pymatgen
data_NaCeMg14
_symmetry_space_group_name_H-M   'P 1'
_cell_length_a   6.60459556
_cell_length_b   6.49915550
_cell_length_c   10.45461077
_cell_angle_alpha   90.00000000
_cell_angle_beta   90.00000000
_cell_angle_gamma   119.47328955
_symmetry_Int_Tables_number   1
_chemical_formula_structural   NaCeMg14
_chemical_formula_sum   'Na1 Ce1 Mg14'
_cell_volume   390.68099541
_cell_formula_units_Z   1
loop_
 _symmetry_equiv_pos_site_id
 _symmetry_equiv_pos_as_xyz
  1  'x, y, z'
loop_
 _atom_site_type_symbol
 _atom_site_label
 _atom_site_symmetry_multiplicity
 _atom_site_fract_x
 _atom_site_fract_y
 _atom_site_fract_z
 _atom_site_occupancy
  Na  Na0  1  0.16814838  0.83407369  0.12500000  1
  Ce  Ce0  1  0.16556139  0.33278020  0.12500000  1
  Mg  Mg0  1  0.16359888  0.33179894  0.62500000  1
  Mg  Mg1  1  0.16425141  0.83212521  0.62500000  1
  Mg  Mg2  1  0.65760796  0.31951663  0.12500000  1
  Mg  Mg3  1  0.66857339  0.33451616  0.62500000  1
  Mg  Mg4  1  0.65760796  0.83809032  0.12500000  1
  Mg  Mg5  1  0.66857339  0.83405623  0.62500000  1
  Mg  Mg6  1  0.33915942  0.17008362  0.38559689  1
  Mg  Mg7  1  0.33915942  0.17008362  0.86440311  1
  Mg  Mg8  1  0.33915942  0.66907680  0.38559689  1
  Mg  Mg9  1  0.33915942  0.66907680  0.86440311  1
  Mg  Mg10  1  0.83341959  0.16671030  0.38118647  1
  Mg  Mg11  1  0.83341959  0.16671030  0.86881353  1
  Mg  Mg12  1  0.83130019  0.66565060  0.37246703  1
  Mg  Mg13  1  0.83130019  0.66565060  0.87753297  1
loop_
_geom_bond_atom_site_label_1
_geom_bond_atom_site_label_2
_geom_bond_distance
_geom_bond_site_symmetry_2
Ce0 Na0 3.249612 1_555
Ce0 Na0 3.249612 1_545
Ce0 Mg11 3.289479 1_454
Ce0 Mg10 3.289479 1_455
Ce0 Mg4 3.293036 1_555
Ce0 Mg2 3.293037 1_555
Ce0 Mg4 3.313264 1_445
Ce0 Mg2 3.313264 1_455
Ce0 Mg7 3.323883 1_554
Ce0 Mg6 3.323883 1_555
Ce0 Mg9 3.323889 1_554
Ce0 Mg8 3.323889 1_555
Mg0 Mg6 3.148432 1_555
Mg0 Mg7 3.148432 1_555
Mg0 Mg8 3.148439 1_555
Mg0 Mg9 3.148439 1_555
Mg0 Mg10 3.178290 1_455
Mg0 Mg11 3.178290 1_455
Mg0 Mg1 3.249580 1_545
Mg0 Mg1 3.249580 1_555
Mg0 Mg5 3.278168 1_445
Mg0 Mg3 3.278168 1_455
Mg0 Mg5 3.326499 1_555
Mg0 Mg3 3.326499 1_555
Mg1 Mg8 3.150607 1_555
Mg1 Mg9 3.150607 1_555
Mg1 Mg6 3.150614 1_565
Mg1 Mg7 3.150614 1_565
Mg1 Mg12 3.261185 1_455
Mg1 Mg13 3.261185 1_455
Mg1 Mg3 3.279946 1_455
Mg1 Mg5 3.279946 1_455
Mg1 Mg3 3.324686 1_565
Mg1 Mg5 3.324686 1_555
Mg2 Mg4 3.128864 1_545
Mg2 Na0 3.219918 1_545
Mg2 Mg7 3.283186 1_554
Mg2 Mg6 3.283186 1_555
Mg2 Mg4 3.370291 1_555
Mg2 Na0 3.384833 1_655
Mg3 Mg6 3.138774 1_555
Mg3 Mg7 3.138774 1_555
Mg3 Mg5 3.246589 1_555
Mg3 Mg5 3.252567 1_545
Mg4 Na0 3.219919 1_555
Mg4 Mg9 3.283185 1_554
Mg4 Mg8 3.283185 1_555
Mg4 Na0 3.384833 1_655
Mg5 Mg8 3.138774 1_555
Mg5 Mg9 3.138774 1_555
Mg6 Mg8 3.243034 1_555
Mg6 Mg8 3.256121 1_545
Mg6 Na0 3.322654 1_545
Mg7 Mg9 3.243034 1_555
Mg7 Mg9 3.256121 1_545
Mg7 Na0 3.322654 1_546
Mg8 Na0 3.322648 1_555
Mg9 Na0 3.322648 1_556
Mg10 Mg3 3.168668 1_555
Mg10 Mg5 3.168675 1_545
Mg10 Mg12 3.250879 1_545
Mg10 Mg12 3.250879 1_555
Mg10 Mg2 3.262328 1_555
Mg10 Mg4 3.262334 1_545
Mg10 Mg8 3.275555 1_545
Mg10 Mg6 3.275556 1_555
Mg10 Mg8 3.329794 1_655
Mg10 Mg6 3.329794 1_655
Mg11 Mg3 3.168668 1_555
Mg11 Mg5 3.168675 1_545
Mg11 Mg13 3.250879 1_545
Mg11 Mg13 3.250879 1_555
Mg11 Mg2 3.262328 1_556
Mg11 Mg4 3.262334 1_546
Mg11 Mg9 3.275555 1_545
Mg11 Mg7 3.275556 1_555
Mg11 Mg9 3.329794 1_655
Mg11 Mg7 3.329794 1_655
Mg12 Na0 3.231837 1_655
Mg12 Mg5 3.237410 1_555
Mg12 Mg3 3.237417 1_555
Mg12 Mg4 3.245083 1_555
Mg12 Mg2 3.245090 1_555
Mg12 Mg6 3.264291 1_555
Mg12 Mg8 3.264292 1_555
Mg12 Mg6 3.346121 1_665
Mg12 Mg8 3.346122 1_655
Mg13 Na0 3.231837 1_656
Mg13 Mg5 3.237410 1_555
Mg13 Mg3 3.237417 1_555
Mg13 Mg4 3.245083 1_556
Mg13 Mg2 3.245090 1_556
Mg13 Mg7 3.264291 1_555
Mg13 Mg9 3.264292 1_555
Mg13 Mg7 3.346121 1_665
Mg13 Mg9 3.346122 1_655
