# generated using pymatgen
data_NaPF6
_symmetry_space_group_name_H-M   'P 1'
_cell_length_a   5.45108393
_cell_length_b   5.45108401
_cell_length_c   5.45108266
_cell_angle_alpha   60.00000226
_cell_angle_beta   60.00000189
_cell_angle_gamma   59.99999833
_symmetry_Int_Tables_number   1
_chemical_formula_structural   NaPF6
_chemical_formula_sum   'Na1 P1 F6'
_cell_volume   114.53376106
_cell_formula_units_Z   1
loop_
 _symmetry_equiv_pos_site_id
 _symmetry_equiv_pos_as_xyz
  1  'x, y, z'
loop_
 _atom_site_type_symbol
 _atom_site_label
 _atom_site_symmetry_multiplicity
 _atom_site_fract_x
 _atom_site_fract_y
 _atom_site_fract_z
 _atom_site_occupancy
  Na  Na0  1  0.50000000  0.50000000  0.50000000  1
  P  P0  1  -0.00000000  0.00000000  0.00000000  1
  F  F0  1  0.20943230  0.79056770  0.79056770  1
  F  F1  1  0.20943230  0.79056770  0.20943230  1
  F  F2  1  0.79056770  0.20943230  0.20943230  1
  F  F3  1  0.79056770  0.79056770  0.20943230  1
  F  F4  1  0.20943230  0.20943230  0.79056770  1
  F  F5  1  0.79056770  0.20943230  0.79056770  1
loop_
_geom_bond_atom_site_label_1
_geom_bond_atom_site_label_2
_geom_bond_distance
_geom_bond_site_symmetry_2
F0 P0 1.614513 1_566
F0 Na0 2.239985 1_555
F1 P0 1.614513 1_565
F1 Na0 2.239985 1_555
F2 P0 1.614513 1_655
F2 Na0 2.239985 1_555
F3 P0 1.614513 1_665
F3 Na0 2.239986 1_555
F4 P0 1.614513 1_556
F4 Na0 2.239986 1_555
F5 P0 1.614513 1_656
F5 Na0 2.239985 1_555
