# generated using pymatgen
data_Li2TiFeO4
_symmetry_space_group_name_H-M   'P 1'
_cell_length_a   5.34908141
_cell_length_b   5.87102424
_cell_length_c   9.90744095
_cell_angle_alpha   92.13690977
_cell_angle_beta   96.83492712
_cell_angle_gamma   88.63013202
_symmetry_Int_Tables_number   1
_chemical_formula_structural   Li2TiFeO4
_chemical_formula_sum   'Li8 Ti4 Fe4 O16'
_cell_volume   308.65359715
_cell_formula_units_Z   4
loop_
 _symmetry_equiv_pos_site_id
 _symmetry_equiv_pos_as_xyz
  1  'x, y, z'
loop_
 _atom_site_type_symbol
 _atom_site_label
 _atom_site_symmetry_multiplicity
 _atom_site_fract_x
 _atom_site_fract_y
 _atom_site_fract_z
 _atom_site_occupancy
  Li  Li0  1  0.25421400  0.75617300  0.24849300  1
  Li  Li1  1  0.00076800  0.25245300  0.49828700  1
  Li  Li2  1  0.75292400  0.74704700  0.74962000  1
  Li  Li3  1  0.50430900  0.24790700  0.99858300  1
  Li  Li4  1  0.70897000  0.49595600  0.24321400  1
  Li  Li5  1  0.43993600  0.99503200  0.48612600  1
  Li  Li6  1  0.19600700  0.49381300  0.73914300  1
  Li  Li7  1  0.97976200  0.99835900  0.99651100  1
  Ti  Ti0  1  0.49473800  0.48998200  0.52152700  1
  Ti  Ti1  1  0.24450700  0.98797700  0.77020600  1
  Ti  Ti2  1  0.99165900  0.49273600  0.01771100  1
  Ti  Ti3  1  0.74317100  0.99430100  0.27038300  1
  Fe  Fe0  1  0.74636600  0.24283500  0.74450800  1
  Fe  Fe1  1  0.50992700  0.74684400  0.00072900  1
  Fe  Fe2  1  0.99535600  0.75329700  0.49551200  1
  Fe  Fe3  1  0.24986400  0.25929700  0.24602100  1
  O  O0  1  0.08846600  0.00517100  0.35750500  1
  O  O1  1  0.83917600  0.50074200  0.60776600  1
  O  O2  1  0.58801400  0.99105900  0.86038000  1
  O  O3  1  0.34291800  0.51003300  0.10434600  1
  O  O4  1  0.19026100  0.50695400  0.38990300  1
  O  O5  1  0.93774800  0.99998400  0.64014900  1
  O  O6  1  0.69822900  0.49412100  0.88636200  1
  O  O7  1  0.43769300  0.01261200  0.14260200  1
  O  O8  1  0.63223400  0.76219700  0.37044000  1
  O  O9  1  0.38158000  0.25847400  0.62173200  1
  O  O10  1  0.13474600  0.75889300  0.87156100  1
  O  O11  1  0.88600100  0.26335300  0.12207300  1
  O  O12  1  0.63256800  0.24856800  0.37566400  1
  O  O13  1  0.37996000  0.74404600  0.62429200  1
  O  O14  1  0.13557800  0.24122000  0.87497400  1
  O  O15  1  0.88235100  0.74857000  0.12367600  1
loop_
_geom_bond_atom_site_label_1
_geom_bond_atom_site_label_2
_geom_bond_distance
_geom_bond_site_symmetry_2
Li0 O0 2.034158 1_565
Li0 O3 2.080283 1_555
Li0 O4 2.124054 1_555
Li0 O7 2.182679 1_565
Li0 O15 2.214156 1_455
Li0 O8 2.228998 1_555
Li1 O1 2.023248 1_455
Li1 O0 2.060431 1_555
Li1 O5 2.139656 1_445
Li1 O12 2.187710 1_455
Li1 O4 2.205490 1_555
Li1 O9 2.248028 1_555
Li2 O2 2.021729 1_555
Li2 O1 2.061556 1_555
Li2 O6 2.095507 1_555
Li2 O5 2.191908 1_555
Li2 O13 2.220946 1_555
Li2 O10 2.247000 1_655
Li3 O3 2.059888 1_556
Li3 O2 2.075788 1_545
Li3 O7 2.088727 1_556
Li3 O14 2.194710 1_555
Li3 O6 2.206294 1_555
Li3 O11 2.253811 1_556
Li4 O8 2.036209 1_555
Li4 O11 2.070884 1_555
Li4 O12 2.072844 1_555
Li4 O15 2.218222 1_555
Li4 O3 2.256811 1_555
Li5 O9 2.053394 1_565
Li5 O8 2.082521 1_555
Li5 O13 2.103716 1_555
Li5 O0 2.142902 1_565
Li5 O12 2.222238 1_565
Li6 O10 2.043586 1_555
Li6 O9 2.082528 1_555
Li6 O14 2.095235 1_555
Li6 O1 2.178979 1_455
Li6 O13 2.209432 1_555
Li7 O11 2.046070 1_566
Li7 O10 2.062789 1_655
Li7 O15 2.083278 1_556
Li7 O14 2.145074 1_665
Li7 O2 2.353558 1_555
Fe0 O6 2.032573 1_555
Fe0 O5 2.054770 1_545
Fe0 O2 2.153660 1_545
Fe0 O1 2.173381 1_555
Fe0 O9 2.174931 1_555
Fe0 O14 2.316189 1_655
Fe1 O3 2.041822 1_555
Fe1 O2 2.116429 1_554
Fe1 O7 2.120499 1_565
Fe1 O6 2.138861 1_554
Fe1 O15 2.207914 1_555
Fe1 O10 2.249203 1_554
Fe2 O5 2.043276 1_555
Fe2 O4 2.085222 1_655
Fe2 O1 2.129958 1_555
Fe2 O0 2.156935 1_665
Fe2 O8 2.176718 1_555
Fe2 O13 2.288729 1_655
Fe3 O4 2.044324 1_555
Fe3 O7 2.054661 1_555
Fe3 O0 2.145404 1_555
Fe3 O11 2.174363 1_455
Fe3 O3 2.177243 1_555
Fe3 O12 2.284390 1_555
O0 Ti3 1.944897 1_445
O1 Ti0 1.937884 1_555
O2 Ti1 1.945341 1_555
O3 Ti2 1.973860 1_455
O4 Ti0 1.964555 1_555
O5 Ti1 1.963610 1_655
O6 Ti2 1.916020 1_556
O7 Ti3 1.947739 1_545
O8 Ti3 1.863107 1_555
O8 Ti0 2.415041 1_555
O9 Ti0 1.866111 1_555
O9 Ti1 2.389578 1_545
O10 Ti1 1.854934 1_555
O10 Ti2 2.369368 1_456
O11 Ti2 1.865866 1_555
O11 Ti3 2.394981 1_545
O12 Ti3 1.911809 1_545
O12 Ti0 2.166036 1_555
O13 Ti0 1.905311 1_555
O13 Ti1 2.170510 1_555
O14 Ti1 1.901294 1_545
O14 Ti2 2.195915 1_456
O15 Ti2 1.920048 1_555
O15 Ti3 2.190453 1_555
