# generated using pymatgen
data_Ca2Al3O6F
_symmetry_space_group_name_H-M   'P 1'
_cell_length_a   7.09846900
_cell_length_b   10.32852569
_cell_length_c   10.36540294
_cell_angle_alpha   114.92563053
_cell_angle_beta   103.19873514
_cell_angle_gamma   102.94247211
_symmetry_Int_Tables_number   1
_chemical_formula_structural   Ca2Al3O6F
_chemical_formula_sum   'Ca8 Al12 O24 F4'
_cell_volume   625.28574850
_cell_formula_units_Z   4
loop_
 _symmetry_equiv_pos_site_id
 _symmetry_equiv_pos_as_xyz
  1  'x, y, z'
loop_
 _atom_site_type_symbol
 _atom_site_label
 _atom_site_symmetry_multiplicity
 _atom_site_fract_x
 _atom_site_fract_y
 _atom_site_fract_z
 _atom_site_occupancy
  Ca  Ca0  1  0.71864400  0.00337800  0.99879400  1
  Ca  Ca1  1  0.28135600  0.99662200  0.00120600  1
  Ca  Ca2  1  0.73959500  0.40216700  0.03006700  1
  Ca  Ca3  1  0.33453600  0.63121100  0.59570700  1
  Ca  Ca4  1  0.69262300  0.96975500  0.35112000  1
  Ca  Ca5  1  0.26040500  0.59783300  0.96993300  1
  Ca  Ca6  1  0.66546400  0.36878900  0.40429300  1
  Ca  Ca7  1  0.30737700  0.03024500  0.64888000  1
  Al  Al0  1  0.83726100  0.68103500  0.72716400  1
  Al  Al1  1  0.15636700  0.04755700  0.32072200  1
  Al  Al2  1  0.10863200  0.27061900  0.95319400  1
  Al  Al3  1  0.16273900  0.31896500  0.27283600  1
  Al  Al4  1  0.84363300  0.95244300  0.67927800  1
  Al  Al5  1  0.89136800  0.72938100  0.04680600  1
  Al  Al6  1  0.49234500  0.54343000  0.23819300  1
  Al  Al7  1  0.94495500  0.69146000  0.45338000  1
  Al  Al8  1  0.25513700  0.76284700  0.30667900  1
  Al  Al9  1  0.50765500  0.45657000  0.76180700  1
  Al  Al10  1  0.05504500  0.30854000  0.54662000  1
  Al  Al11  1  0.74486300  0.23715300  0.69332100  1
  O  O0  1  0.90707200  0.91668000  0.17153500  1
  O  O1  1  0.99293800  0.25644000  0.08607700  1
  O  O2  1  0.73904700  0.83103100  0.74638800  1
  O  O3  1  0.09292800  0.08332000  0.82846500  1
  O  O4  1  0.00706200  0.74356000  0.91392300  1
  O  O5  1  0.26095300  0.16896900  0.25361200  1
  O  O6  1  0.46554200  0.71612900  0.26044500  1
  O  O7  1  0.74637600  0.53757200  0.28159700  1
  O  O8  1  0.20230500  0.74042500  0.45531100  1
  O  O9  1  0.53445800  0.28387100  0.73955500  1
  O  O10  1  0.25362400  0.46242800  0.71840300  1
  O  O11  1  0.79769500  0.25957500  0.54468900  1
  O  O12  1  0.61026900  0.51723900  0.64891500  1
  O  O13  1  0.09512200  0.13395200  0.48486300  1
  O  O14  1  0.96055900  0.35000900  0.86713800  1
  O  O15  1  0.38973100  0.48276100  0.35108500  1
  O  O16  1  0.90487800  0.86604800  0.51513700  1
  O  O17  1  0.03944100  0.64999100  0.13286200  1
  O  O18  1  0.36201900  0.40731800  0.04216800  1
  O  O19  1  0.94955800  0.62848700  0.58781000  1
  O  O20  1  0.32685800  0.95880600  0.36310900  1
  O  O21  1  0.63798100  0.59268200  0.95783200  1
  O  O22  1  0.05044200  0.37151300  0.41219000  1
  O  O23  1  0.67314200  0.04119400  0.63689100  1
  F  F0  1  0.36421900  0.86681100  0.79132200  1
  F  F1  1  0.45381700  0.84673100  0.04877000  1
  F  F2  1  0.63578100  0.13318900  0.20867800  1
  F  F3  1  0.54618300  0.15326900  0.95123000  1
loop_
_geom_bond_atom_site_label_1
_geom_bond_atom_site_label_2
_geom_bond_distance
_geom_bond_site_symmetry_2
Ca0 F3 2.314138 1_555
Ca0 F2 2.314218 1_556
Ca0 F1 2.491719 1_546
Ca0 F0 2.515322 1_545
Ca0 O1 2.522705 1_556
Ca0 O2 2.529365 1_545
Ca0 O0 2.567330 1_546
Ca1 F1 2.314138 1_555
Ca1 F0 2.314218 1_554
Ca1 F3 2.491719 1_564
Ca1 F2 2.515322 1_565
Ca1 O4 2.522705 1_554
Ca1 O5 2.529365 1_565
Ca1 O3 2.567330 1_564
Ca2 F3 2.301615 1_554
Ca2 O7 2.365357 1_555
Ca2 O14 2.534534 1_554
Ca2 O17 2.538211 1_655
Ca2 O21 2.565911 1_554
Ca2 O9 2.603935 1_554
Ca2 O1 2.703483 1_555
Ca2 O18 2.722842 1_555
Ca3 F0 2.343828 1_555
Ca3 O8 2.346360 1_555
Ca3 O15 2.525777 1_555
Ca3 O22 2.530712 1_555
Ca3 O12 2.570447 1_555
Ca3 O10 2.596184 1_555
Ca3 O19 2.708672 1_455
Ca3 O2 2.743044 1_555
Ca4 O6 2.384388 1_555
Ca4 O11 2.607041 1_565
Ca4 O20 2.607114 1_555
Ca4 O0 2.624988 1_555
Ca4 O13 2.645794 1_665
Ca4 F2 2.706659 1_565
Ca4 O16 2.719542 1_555
Ca4 F1 2.750003 1_555
Ca4 O23 2.779984 1_565
Ca5 F1 2.301615 1_556
Ca5 O10 2.365357 1_555
Ca5 O17 2.534534 1_556
Ca5 O14 2.538211 1_455
Ca5 O18 2.565911 1_556
Ca5 O6 2.603935 1_556
Ca5 O4 2.703483 1_555
Ca5 O21 2.722842 1_555
Ca6 F2 2.343828 1_555
Ca6 O11 2.346360 1_555
Ca6 O12 2.525777 1_555
Ca6 O19 2.530712 1_555
Ca6 O15 2.570447 1_555
Ca6 O7 2.596184 1_555
Ca6 O22 2.708672 1_655
Ca6 O5 2.743044 1_555
Ca7 O9 2.384388 1_555
Ca7 O8 2.607041 1_545
Ca7 O23 2.607114 1_555
Ca7 O3 2.624988 1_555
Ca7 O16 2.645794 1_445
Ca7 F0 2.706659 1_545
Ca7 O13 2.719542 1_555
Ca7 F3 2.750003 1_555
Ca7 O20 2.779984 1_545
Al0 O19 1.753647 1_555
Al0 O12 1.772502 1_555
Al0 O4 1.774649 1_655
Al0 O2 1.792467 1_555
Al1 O20 1.758280 1_545
Al1 O13 1.764048 1_555
Al1 O5 1.778102 1_555
Al1 O0 1.807486 1_445
Al2 O18 1.756861 1_556
Al2 O14 1.774053 1_455
Al2 O3 1.776451 1_555
Al2 O1 1.796052 1_456
Al3 O22 1.753647 1_555
Al3 O15 1.772502 1_555
Al3 O1 1.774649 1_455
Al3 O5 1.792467 1_555
Al4 O23 1.758280 1_565
Al4 O16 1.764048 1_555
Al4 O2 1.778102 1_555
Al4 O3 1.807486 1_665
Al5 O21 1.756861 1_554
Al5 O17 1.774053 1_655
Al5 O0 1.776451 1_555
Al5 O4 1.796052 1_654
Al6 O15 1.759361 1_555
Al6 O6 1.759648 1_555
Al6 O18 1.764111 1_555
Al6 O7 1.777373 1_555
Al7 O16 1.755668 1_555
Al7 O19 1.765892 1_555
Al7 O7 1.774415 1_555
Al7 O8 1.776024 1_655
Al8 O8 1.758833 1_555
Al8 O20 1.761350 1_555
Al8 O17 1.766279 1_555
Al8 O6 1.774253 1_555
Al9 O12 1.759361 1_555
Al9 O9 1.759648 1_555
Al9 O21 1.764111 1_555
Al9 O10 1.777373 1_555
Al10 O13 1.755668 1_555
Al10 O22 1.765892 1_555
Al10 O10 1.774415 1_555
Al10 O11 1.776024 1_455
Al11 O11 1.758833 1_555
Al11 O23 1.761350 1_555
Al11 O14 1.766279 1_555
Al11 O9 1.774253 1_555
