# generated using pymatgen
data_Er10NiSb5
_symmetry_space_group_name_H-M   'P 1'
_cell_length_a   7.89008867
_cell_length_b   9.07010552
_cell_length_c   11.81172405
_cell_angle_alpha   90.00019736
_cell_angle_beta   90.00047254
_cell_angle_gamma   89.99989062
_symmetry_Int_Tables_number   1
_chemical_formula_structural   Er10NiSb5
_chemical_formula_sum   'Er20 Ni2 Sb10'
_cell_volume   845.29347338
_cell_formula_units_Z   2
loop_
 _symmetry_equiv_pos_site_id
 _symmetry_equiv_pos_as_xyz
  1  'x, y, z'
loop_
 _atom_site_type_symbol
 _atom_site_label
 _atom_site_symmetry_multiplicity
 _atom_site_fract_x
 _atom_site_fract_y
 _atom_site_fract_z
 _atom_site_occupancy
  Er  Er0  1  0.43480557  0.18304948  0.56634115  1
  Er  Er1  1  0.56519214  0.81693873  0.06633758  1
  Er  Er2  1  0.06871458  0.72242386  0.43328981  1
  Er  Er3  1  0.93128663  0.27756757  0.93328454  1
  Er  Er4  1  0.06871498  0.27757673  0.43329052  1
  Er  Er5  1  0.93128481  0.72243181  0.93328417  1
  Er  Er6  1  0.43480372  0.81695015  0.56633966  1
  Er  Er7  1  0.56519175  0.18305988  0.06633860  1
  Er  Er8  1  0.57712907  0.50000123  0.77449913  1
  Er  Er9  1  0.42285135  0.49999995  0.27451535  1
  Er  Er10  1  0.90755675  -0.00000126  0.20392298  1
  Er  Er11  1  0.09243694  0.00000063  0.70391352  1
  Er  Er12  1  0.26825503  0.50000098  0.99511594  1
  Er  Er13  1  0.73175113  0.49999990  0.49510727  1
  Er  Er14  1  0.20115799  -0.00000081  0.99908754  1
  Er  Er15  1  0.79883556  -0.00000052  0.49906805  1
  Er  Er16  1  0.09366013  0.49999855  0.71386807  1
  Er  Er17  1  0.90634462  0.50000131  0.21385974  1
  Er  Er18  1  0.37727457  0.00000110  0.30497079  1
  Er  Er19  1  0.62272753  -0.00000260  0.80496413  1
  Ni  Ni0  1  0.17350460  0.00000168  0.48763214  1
  Ni  Ni1  1  0.82646783  -0.00000085  0.98764111  1
  Sb  Sb0  1  0.81538970  0.74126827  0.67204972  1
  Sb  Sb1  1  0.18463258  0.25874721  0.17208122  1
  Sb  Sb2  1  0.68316494  0.24183052  0.32632393  1
  Sb  Sb3  1  0.31683007  0.75817563  0.82634436  1
  Sb  Sb4  1  0.68315881  0.75816959  0.32632353  1
  Sb  Sb5  1  0.31684776  0.24182797  0.82634749  1
  Sb  Sb6  1  0.81538249  0.25873023  0.67205201  1
  Sb  Sb7  1  0.18463708  0.74125589  0.17208144  1
  Sb  Sb8  1  0.34276110  0.49999857  0.52487604  1
  Sb  Sb9  1  0.65724721  0.49999962  0.02484847  1
loop_
_geom_bond_atom_site_label_1
_geom_bond_atom_site_label_2
_geom_bond_distance
_geom_bond_site_symmetry_2
Er0 Ni0 2.805588 1_555
Er0 Sb8 3.005254 1_555
Er0 Sb5 3.253038 1_555
Er0 Sb6 3.323691 1_555
Er0 Sb2 3.487352 1_555
Er1 Ni1 2.805475 1_564
Er1 Sb9 3.005233 1_555
Er1 Sb4 3.252805 1_555
Er1 Sb7 3.323706 1_555
Er1 Sb3 3.487079 1_554
Er2 Ni0 2.726575 1_565
Er2 Sb8 3.148897 1_555
Er2 Sb7 3.222576 1_555
Er2 Sb4 3.309918 1_455
Er2 Sb0 3.460876 1_455
Er3 Ni1 2.726612 1_555
Er3 Sb9 3.148814 1_556
Er3 Sb6 3.222795 1_555
Er3 Sb5 3.309838 1_655
Er3 Sb1 3.461289 1_656
Er4 Ni0 2.726550 1_555
Er4 Sb8 3.148872 1_555
Er4 Sb1 3.222573 1_555
Er4 Sb2 3.309879 1_455
Er4 Sb6 3.460928 1_455
Er5 Ni1 2.726592 1_565
Er5 Sb9 3.148817 1_556
Er5 Sb0 3.222797 1_555
Er5 Sb3 3.309741 1_655
Er5 Sb7 3.461325 1_656
Er6 Ni0 2.805590 1_565
Er6 Sb8 3.005269 1_555
Er6 Sb3 3.253053 1_555
Er6 Sb0 3.323754 1_555
Er6 Sb4 3.487317 1_555
Er7 Ni1 2.805474 1_554
Er7 Sb9 3.005247 1_555
Er7 Sb2 3.252812 1_555
Er7 Sb1 3.323734 1_555
Er7 Sb5 3.486987 1_554
Er8 Sb9 3.023865 1_556
Er8 Sb6 3.128415 1_555
Er8 Sb0 3.128446 1_555
Er8 Sb5 3.174259 1_555
Er8 Sb3 3.174341 1_555
Er8 Sb8 3.480362 1_555
Er9 Sb8 3.023960 1_555
Er9 Sb7 3.128068 1_555
Er9 Sb1 3.128069 1_555
Er9 Sb4 3.174267 1_555
Er9 Sb2 3.174295 1_555
Er9 Sb9 3.480943 1_555
Er10 Ni1 2.633555 1_554
Er10 Sb2 3.167963 1_555
Er10 Sb4 3.167983 1_545
Er10 Sb7 3.229311 1_645
Er10 Sb1 3.229332 1_655
Er11 Ni0 2.633519 1_555
Er11 Sb3 3.168081 1_545
Er11 Sb5 3.168189 1_555
Er11 Sb0 3.229097 1_445
Er11 Sb6 3.229110 1_455
Er12 Sb9 3.089207 1_556
Er12 Sb7 3.097213 1_556
Er12 Sb1 3.097224 1_556
Er12 Sb5 3.099057 1_555
Er12 Sb3 3.099087 1_555
Er13 Sb8 3.089245 1_555
Er13 Sb0 3.097145 1_555
Er13 Sb6 3.097168 1_555
Er13 Sb2 3.099136 1_555
Er13 Sb4 3.099157 1_555
Er14 Ni1 2.959427 1_455
Er14 Sb7 3.114473 1_546
Er14 Sb1 3.114494 1_556
Er14 Sb3 3.131614 1_545
Er14 Sb5 3.131676 1_555
Er15 Ni0 2.959258 1_655
Er15 Sb0 3.114305 1_545
Er15 Sb6 3.114307 1_555
Er15 Sb2 3.131666 1_555
Er15 Sb4 3.131668 1_545
Er16 Sb8 2.974263 1_555
Er16 Sb0 3.139006 1_455
Er16 Sb6 3.139036 1_455
Er16 Sb3 3.216990 1_555
Er16 Sb5 3.217040 1_555
Er17 Sb9 2.974391 1_555
Er17 Sb1 3.138933 1_655
Er17 Sb7 3.138969 1_655
Er17 Sb4 3.216946 1_555
Er17 Sb2 3.216950 1_555
Er18 Ni0 2.690718 1_555
Er18 Sb7 3.206497 1_545
Er18 Sb1 3.206525 1_555
Er18 Sb4 3.271011 1_545
Er18 Sb2 3.271039 1_555
Er19 Ni1 2.690705 1_555
Er19 Sb6 3.206632 1_555
Er19 Sb0 3.206635 1_545
Er19 Sb5 3.271009 1_555
Er19 Sb3 3.271063 1_545
