# generated using pymatgen
data_AlV2Fe
_symmetry_space_group_name_H-M   'P 1'
_cell_length_a   5.21844969
_cell_length_b   5.21844969
_cell_length_c   16.16799655
_cell_angle_alpha   90.00000000
_cell_angle_beta   90.00000000
_cell_angle_gamma   106.27123351
_symmetry_Int_Tables_number   1
_chemical_formula_structural   AlV2Fe
_chemical_formula_sum   'Al8 V16 Fe8'
_cell_volume   422.65503884
_cell_formula_units_Z   8
loop_
 _symmetry_equiv_pos_site_id
 _symmetry_equiv_pos_as_xyz
  1  'x, y, z'
loop_
 _atom_site_type_symbol
 _atom_site_label
 _atom_site_symmetry_multiplicity
 _atom_site_fract_x
 _atom_site_fract_y
 _atom_site_fract_z
 _atom_site_occupancy
  Al  Al0_0  1  0.00000000  0.00000000  0.00681150  1
  Al  Al0_1  1  0.00000000  0.00000000  0.50681150  1
  Al  Al0_2  1  0.00000000  0.50000000  0.00681150  1
  Al  Al0_3  1  0.00000000  0.50000000  0.50681150  1
  Al  Al0_4  1  0.50000000  0.00000000  0.00681150  1
  Al  Al0_5  1  0.50000000  0.00000000  0.50681150  1
  Al  Al0_6  1  0.50000000  0.50000000  0.00681150  1
  Al  Al0_7  1  0.50000000  0.50000000  0.50681150  1
  V  V0_0  1  0.00000000  0.00000000  0.24585800  1
  V  V0_1  1  0.00000000  0.00000000  0.74585800  1
  V  V0_2  1  0.00000000  0.50000000  0.24585800  1
  V  V0_3  1  0.00000000  0.50000000  0.74585800  1
  V  V0_4  1  0.50000000  0.00000000  0.24585800  1
  V  V0_5  1  0.50000000  0.00000000  0.74585800  1
  V  V0_6  1  0.50000000  0.50000000  0.24585800  1
  V  V0_7  1  0.50000000  0.50000000  0.74585800  1
  V  V1_0  1  0.25000000  0.25000000  0.37123200  1
  V  V1_1  1  0.25000000  0.25000000  0.87123200  1
  V  V1_2  1  0.25000000  0.75000000  0.37123200  1
  V  V1_3  1  0.25000000  0.75000000  0.87123200  1
  V  V1_4  1  0.75000000  0.25000000  0.37123200  1
  V  V1_5  1  0.75000000  0.25000000  0.87123200  1
  V  V1_6  1  0.75000000  0.75000000  0.37123200  1
  V  V1_7  1  0.75000000  0.75000000  0.87123200  1
  Fe  Fe0_0  1  0.25000000  0.25000000  0.12609850  1
  Fe  Fe0_1  1  0.25000000  0.25000000  0.62609850  1
  Fe  Fe0_2  1  0.25000000  0.75000000  0.12609850  1
  Fe  Fe0_3  1  0.25000000  0.75000000  0.62609850  1
  Fe  Fe0_4  1  0.75000000  0.25000000  0.12609850  1
  Fe  Fe0_5  1  0.75000000  0.25000000  0.62609850  1
  Fe  Fe0_6  1  0.75000000  0.75000000  0.12609850  1
  Fe  Fe0_7  1  0.75000000  0.75000000  0.62609850  1
loop_
_geom_bond_atom_site_label_1
_geom_bond_atom_site_label_2
_geom_bond_distance
_geom_bond_site_symmetry_2
Al0_0 Fe0_0 2.483927 1_555
Al0_0 Fe0_6 2.483927 1_445
Al0_0 Al0_2 2.609225 1_555
Al0_0 Al0_4 2.609225 1_555
Al0_0 Al0_4 2.609225 1_455
Al0_0 Al0_2 2.609225 1_545
Al0_0 V1_1 2.693575 1_554
Al0_0 V1_7 2.693575 1_444
Al0_1 Fe0_7 2.483927 1_445
Al0_1 Fe0_1 2.483927 1_555
Al0_1 Al0_3 2.609225 1_555
Al0_1 Al0_5 2.609225 1_555
Al0_1 Al0_5 2.609225 1_455
Al0_1 Al0_3 2.609225 1_545
Al0_1 V1_6 2.693575 1_445
Al0_1 V1_0 2.693575 1_555
Al0_2 Fe0_2 2.483927 1_555
Al0_2 Fe0_4 2.483927 1_455
Al0_2 Al0_6 2.609225 1_555
Al0_2 Al0_6 2.609225 1_455
Al0_2 V1_5 2.693575 1_454
Al0_2 V1_3 2.693575 1_554
Al0_3 Fe0_3 2.483927 1_555
Al0_3 Fe0_5 2.483927 1_455
Al0_3 Al0_7 2.609225 1_555
Al0_3 Al0_7 2.609225 1_455
Al0_3 V1_2 2.693575 1_555
Al0_3 V1_4 2.693575 1_455
Al0_4 Fe0_2 2.483927 1_545
Al0_4 Fe0_4 2.483927 1_555
Al0_4 Al0_6 2.609225 1_555
Al0_4 Al0_6 2.609225 1_545
Al0_4 V1_5 2.693575 1_554
Al0_4 V1_3 2.693575 1_544
Al0_5 Fe0_5 2.483927 1_555
Al0_5 Fe0_3 2.483927 1_545
Al0_5 Al0_7 2.609225 1_555
Al0_5 Al0_7 2.609225 1_545
Al0_5 V1_4 2.693575 1_555
Al0_5 V1_2 2.693575 1_545
Al0_6 Fe0_0 2.483927 1_555
Al0_6 Fe0_6 2.483927 1_555
Al0_6 V1_1 2.693575 1_554
Al0_6 V1_7 2.693575 1_554
Al0_7 Fe0_7 2.483927 1_555
Al0_7 Fe0_1 2.483927 1_555
Al0_7 V1_6 2.693575 1_555
Al0_7 V1_0 2.693575 1_555
V0_0 V1_6 2.561091 1_445
V0_0 V1_0 2.561091 1_555
V0_0 V0_2 2.609225 1_555
V0_0 V0_4 2.609225 1_555
V0_0 V0_4 2.609225 1_455
V0_0 V0_2 2.609225 1_545
V0_1 V1_1 2.561091 1_555
V0_1 V1_7 2.561091 1_445
V0_1 V0_5 2.609225 1_555
V0_1 V0_3 2.609225 1_555
V0_1 V0_5 2.609225 1_455
V0_1 V0_3 2.609225 1_545
V0_2 V1_2 2.561091 1_555
V0_2 V1_4 2.561091 1_455
V0_2 V0_6 2.609225 1_555
V0_2 V0_6 2.609225 1_455
V0_3 V1_3 2.561091 1_555
V0_3 V1_5 2.561091 1_455
V0_3 V0_7 2.609225 1_555
V0_3 V0_7 2.609225 1_455
V0_4 V1_4 2.561091 1_555
V0_4 V1_2 2.561091 1_545
V0_4 V0_6 2.609225 1_555
V0_4 V0_6 2.609225 1_545
V0_5 V1_5 2.561091 1_555
V0_5 V1_3 2.561091 1_545
V0_5 V0_7 2.609225 1_555
V0_5 V0_7 2.609225 1_545
V0_6 V1_0 2.561091 1_555
V0_6 V1_6 2.561091 1_555
V0_7 V1_7 2.561091 1_555
V0_7 V1_1 2.561091 1_555
V1_0 V1_2 2.609225 1_555
V1_0 V1_4 2.609225 1_555
V1_0 V1_4 2.609225 1_455
V1_0 V1_2 2.609225 1_545
V1_1 V1_5 2.609225 1_455
V1_1 V1_3 2.609225 1_545
V1_1 V1_3 2.609225 1_555
V1_1 V1_5 2.609225 1_555
V1_2 V1_6 2.609225 1_455
V1_2 V1_6 2.609225 1_555
V1_3 V1_7 2.609225 1_455
V1_3 V1_7 2.609225 1_555
V1_4 V1_6 2.609225 1_555
V1_4 V1_6 2.609225 1_545
V1_5 V1_7 2.609225 1_545
V1_5 V1_7 2.609225 1_555
Fe0_0 V0_6 2.489863 1_555
Fe0_0 V0_0 2.489863 1_555
Fe0_0 Fe0_4 2.609225 1_555
Fe0_0 Fe0_2 2.609225 1_555
Fe0_0 Fe0_2 2.609225 1_545
Fe0_0 Fe0_4 2.609225 1_455
Fe0_1 V0_1 2.489863 1_555
Fe0_1 V0_7 2.489863 1_555
Fe0_1 Fe0_5 2.609225 1_455
Fe0_1 Fe0_3 2.609225 1_555
Fe0_1 Fe0_3 2.609225 1_545
Fe0_1 Fe0_5 2.609225 1_555
Fe0_2 V0_4 2.489863 1_565
Fe0_2 V0_2 2.489863 1_555
Fe0_2 Fe0_6 2.609225 1_455
Fe0_2 Fe0_6 2.609225 1_555
Fe0_3 V0_3 2.489863 1_555
Fe0_3 V0_5 2.489863 1_565
Fe0_3 Fe0_7 2.609225 1_455
Fe0_3 Fe0_7 2.609225 1_555
Fe0_4 V0_4 2.489863 1_555
Fe0_4 V0_2 2.489863 1_655
Fe0_4 Fe0_6 2.609225 1_555
Fe0_4 Fe0_6 2.609225 1_545
Fe0_5 V0_5 2.489863 1_555
Fe0_5 V0_3 2.489863 1_655
Fe0_5 Fe0_7 2.609225 1_555
Fe0_5 Fe0_7 2.609225 1_545
Fe0_6 V0_6 2.489863 1_555
Fe0_6 V0_0 2.489863 1_665
Fe0_7 V0_7 2.489863 1_555
Fe0_7 V0_1 2.489863 1_665
