# generated using pymatgen
data_DyInCu4
_symmetry_space_group_name_H-M   'P 1'
_cell_length_a   5.06547914
_cell_length_b   5.06547914
_cell_length_c   5.06547914
_cell_angle_alpha   60.00000000
_cell_angle_beta   60.00000000
_cell_angle_gamma   60.00000000
_symmetry_Int_Tables_number   1
_chemical_formula_structural   DyInCu4
_chemical_formula_sum   'Dy1 In1 Cu4'
_cell_volume   91.90657796
_cell_formula_units_Z   1
loop_
 _symmetry_equiv_pos_site_id
 _symmetry_equiv_pos_as_xyz
  1  'x, y, z'
loop_
 _atom_site_type_symbol
 _atom_site_label
 _atom_site_symmetry_multiplicity
 _atom_site_fract_x
 _atom_site_fract_y
 _atom_site_fract_z
 _atom_site_occupancy
  Dy  Dy0  1  0.00000000  -0.00000000  0.00000000  1
  In  In0  1  0.25000000  0.25000000  0.25000000  1
  Cu  Cu0  1  0.62471203  0.62471203  0.12586391  1
  Cu  Cu1  1  0.62471203  0.12586391  0.62471203  1
  Cu  Cu2  1  0.12586391  0.62471203  0.62471203  1
  Cu  Cu3  1  0.62471203  0.62471203  0.62471203  1
loop_
_geom_bond_atom_site_label_1
_geom_bond_atom_site_label_2
_geom_bond_distance
_geom_bond_site_symmetry_2
Dy0 In0 3.101960 1_455
Dy0 In0 3.101960 1_555
Dy0 In0 3.101960 1_545
Dy0 In0 3.101960 1_554
Cu0 Cu2 2.526905 1_555
Cu0 Cu3 2.526905 1_555
Cu0 Cu1 2.526905 1_555
Cu0 Cu3 2.538574 1_554
Cu0 Cu1 2.538574 1_564
Cu0 Cu2 2.538574 1_654
Cu0 In0 2.969280 1_565
Cu0 In0 2.969280 1_655
Cu0 In0 2.969280 1_555
Cu0 Dy0 2.970524 1_655
Cu0 Dy0 2.970524 1_565
Cu0 Dy0 2.970524 1_665
Cu1 Cu2 2.526905 1_555
Cu1 Cu3 2.526905 1_555
Cu1 Cu3 2.538574 1_545
Cu1 Cu2 2.538574 1_645
Cu1 In0 2.969280 1_655
Cu1 In0 2.969280 1_556
Cu1 In0 2.969280 1_555
Cu1 Dy0 2.970524 1_556
Cu1 Dy0 2.970524 1_655
Cu1 Dy0 2.970524 1_656
Cu2 Cu3 2.526905 1_555
Cu2 Cu3 2.538574 1_455
Cu2 In0 2.969280 1_565
Cu2 In0 2.969280 1_556
Cu2 In0 2.969280 1_555
Cu2 Dy0 2.970524 1_556
Cu2 Dy0 2.970524 1_565
Cu2 Dy0 2.970524 1_566
Cu3 In0 2.969280 1_565
Cu3 In0 2.969280 1_655
Cu3 In0 2.969280 1_556
Cu3 Dy0 2.970524 1_566
Cu3 Dy0 2.970524 1_665
Cu3 Dy0 2.970524 1_656
