# generated using pymatgen
data_Li2CoSn(PO4)2
_symmetry_space_group_name_H-M   'P 1'
_cell_length_a   4.83822077
_cell_length_b   22.62931236
_cell_length_c   6.27073946
_cell_angle_alpha   90.00206530
_cell_angle_beta   89.94620617
_cell_angle_gamma   90.41493994
_symmetry_Int_Tables_number   1
_chemical_formula_structural   Li2CoSn(PO4)2
_chemical_formula_sum   'Li8 Co4 Sn4 P8 O32'
_cell_volume   686.53742295
_cell_formula_units_Z   4
loop_
 _symmetry_equiv_pos_site_id
 _symmetry_equiv_pos_as_xyz
  1  'x, y, z'
loop_
 _atom_site_type_symbol
 _atom_site_label
 _atom_site_symmetry_multiplicity
 _atom_site_fract_x
 _atom_site_fract_y
 _atom_site_fract_z
 _atom_site_occupancy
  Li  Li0  1  0.99445000  0.00159500  0.00323800  1
  Li  Li1  1  0.00584700  0.49827400  0.99650200  1
  Li  Li2  1  0.00640500  0.99836300  0.50344800  1
  Li  Li3  1  0.99247500  0.50187500  0.49599300  1
  Li  Li4  1  0.49998800  0.25000200  0.00001200  1
  Li  Li5  1  0.49997900  0.74998400  0.99999000  1
  Li  Li6  1  0.50002900  0.25001200  0.50001800  1
  Li  Li7  1  0.49996900  0.74998100  0.49999700  1
  Co  Co0  1  0.93580100  0.64680600  0.24991600  1
  Co  Co1  1  0.06435300  0.85320000  0.75004400  1
  Co  Co2  1  0.93564300  0.14679400  0.25005800  1
  Co  Co3  1  0.06436200  0.35320600  0.74999600  1
  Sn  Sn0  1  0.48496100  0.11258800  0.74979500  1
  Sn  Sn1  1  0.48500200  0.61260500  0.74993400  1
  Sn  Sn2  1  0.51500500  0.38741000  0.25028200  1
  Sn  Sn3  1  0.51518600  0.88739600  0.25003900  1
  P  P0  1  0.34777500  0.06070200  0.24972800  1
  P  P1  1  0.34763600  0.56070200  0.25056600  1
  P  P2  1  0.65218900  0.43927900  0.75037300  1
  P  P3  1  0.65240100  0.93928900  0.74942800  1
  P  P4  1  0.92041700  0.21263800  0.74998700  1
  P  P5  1  0.92045600  0.71265200  0.74997800  1
  P  P6  1  0.07956600  0.28736300  0.25004400  1
  P  P7  1  0.07964400  0.78735900  0.25000400  1
  O  O0  1  0.74480500  0.00505400  0.75130400  1
  O  O1  1  0.74424700  0.50507000  0.75001900  1
  O  O2  1  0.25501500  0.49495500  0.24871500  1
  O  O3  1  0.25561900  0.99492000  0.24981600  1
  O  O4  1  0.66216500  0.07020400  0.24819700  1
  O  O5  1  0.66220600  0.57007600  0.25298700  1
  O  O6  1  0.33782200  0.42975900  0.75216400  1
  O  O7  1  0.33789700  0.92986800  0.74717300  1
  O  O8  1  0.23872700  0.20771900  0.74976700  1
  O  O9  1  0.23880000  0.70773900  0.74988100  1
  O  O10  1  0.76125200  0.29228500  0.25027700  1
  O  O11  1  0.76131600  0.79225800  0.25010800  1
  O  O12  1  0.19176700  0.22328000  0.24997600  1
  O  O13  1  0.19193100  0.72328300  0.24941200  1
  O  O14  1  0.80819800  0.27671900  0.75006800  1
  O  O15  1  0.80819000  0.77671900  0.75058600  1
  O  O16  1  0.20014700  0.09049000  0.05296200  1
  O  O17  1  0.20362900  0.59114300  0.05375300  1
  O  O18  1  0.20217100  0.09064500  0.44705300  1
  O  O19  1  0.19900700  0.59012400  0.44774800  1
  O  O20  1  0.79758500  0.40927800  0.55308800  1
  O  O21  1  0.80101700  0.90989900  0.55219000  1
  O  O22  1  0.80005900  0.40957300  0.94719100  1
  O  O23  1  0.79665300  0.90887500  0.94620700  1
  O  O24  1  0.78597000  0.18119200  0.54942700  1
  O  O25  1  0.78640800  0.68133300  0.54913300  1
  O  O26  1  0.78596900  0.18120100  0.95062300  1
  O  O27  1  0.78578300  0.68105800  0.95035200  1
  O  O28  1  0.21398900  0.31879400  0.04939900  1
  O  O29  1  0.21434800  0.81893300  0.04962500  1
  O  O30  1  0.21404800  0.31881200  0.45058500  1
  O  O31  1  0.21372600  0.81866800  0.45084700  1
loop_
_geom_bond_atom_site_label_1
_geom_bond_atom_site_label_2
_geom_bond_distance
_geom_bond_site_symmetry_2
Li0 O0 1.991423 1_554
Li0 O3 2.004183 1_645
Li0 O16 2.259617 1_655
Li0 O23 2.327579 1_544
Li1 O2 1.991276 1_556
Li1 O1 2.005262 1_455
Li1 O22 2.255557 1_455
Li1 O17 2.330792 1_556
Li2 O3 1.996803 1_555
Li2 O0 2.009875 1_465
Li2 O21 2.249237 1_455
Li2 O18 2.313839 1_565
Li3 O1 1.995663 1_555
Li3 O2 2.010366 1_655
Li3 O19 2.246922 1_655
Li3 O20 2.319227 1_555
Li4 O28 2.112897 1_555
Li4 O26 2.112992 1_554
Li4 O8 2.227528 1_554
Li4 O10 2.227624 1_555
Li4 O14 2.242392 1_554
Li4 O12 2.242545 1_555
Li5 O29 2.114586 1_556
Li5 O27 2.114754 1_555
Li5 O9 2.226337 1_555
Li5 O11 2.227088 1_556
Li5 O13 2.239492 1_556
Li5 O15 2.240140 1_555
Li6 O30 2.113413 1_555
Li6 O24 2.113599 1_555
Li6 O10 2.223478 1_555
Li6 O8 2.223922 1_555
Li6 O14 2.244592 1_555
Li6 O12 2.245005 1_555
Li7 O25 2.112056 1_555
Li7 O31 2.112095 1_555
Li7 O9 2.223663 1_555
Li7 O11 2.224509 1_555
Li7 O13 2.246465 1_555
Li7 O15 2.247308 1_555
Co0 O13 2.121236 1_655
Co0 O25 2.158465 1_555
Co0 O27 2.160353 1_554
Co0 O5 2.175811 1_555
Co0 O17 2.190755 1_655
Co0 O19 2.198326 1_655
Co1 O15 2.121402 1_455
Co1 O31 2.158365 1_555
Co1 O29 2.160530 1_556
Co1 O7 2.174539 1_555
Co1 O23 2.190544 1_455
Co1 O21 2.198997 1_455
Co2 O12 2.121384 1_655
Co2 O24 2.158689 1_555
Co2 O26 2.160355 1_554
Co2 O4 2.172919 1_555
Co2 O16 2.192981 1_655
Co2 O18 2.197757 1_655
Co3 O14 2.121514 1_455
Co3 O30 2.158906 1_555
Co3 O28 2.160145 1_556
Co3 O6 2.172214 1_555
Co3 O22 2.193594 1_455
Co3 O20 2.197149 1_455
O0 P3 1.550862 1_545
O0 Sn0 2.747083 1_555
O1 P2 1.550909 1_555
O1 Sn1 2.745739 1_555
O2 P1 1.550766 1_555
O2 Sn2 2.747634 1_555
O3 P0 1.550845 1_565
O3 Sn3 2.746241 1_555
O4 P0 1.534690 1_555
O5 P1 1.535238 1_555
O6 P2 1.534643 1_555
O7 P3 1.535050 1_555
O8 P4 1.544875 1_455
O8 Sn0 2.467945 1_555
O9 P5 1.545028 1_455
O9 Sn1 2.467929 1_555
O10 P6 1.544899 1_655
O10 Sn2 2.467857 1_555
O11 P7 1.544926 1_655
O11 Sn3 2.467838 1_555
O12 P6 1.552108 1_555
O13 P7 1.552111 1_555
O14 P4 1.552096 1_555
O15 P5 1.551884 1_555
O16 P0 1.579769 1_555
O16 Sn0 2.397542 1_554
O17 P1 1.578530 1_555
O17 Sn1 2.388394 1_554
O18 P0 1.578514 1_555
O18 Sn0 2.391128 1_555
O19 P1 1.579391 1_555
O19 Sn1 2.399764 1_555
O20 P2 1.578435 1_555
O20 Sn2 2.390522 1_555
O21 P3 1.579329 1_555
O21 Sn3 2.399237 1_555
O22 P2 1.579761 1_555
O22 Sn2 2.398130 1_556
O23 P3 1.578623 1_555
O23 Sn3 2.388794 1_556
O24 P4 1.583029 1_555
O24 Sn0 2.464493 1_555
O25 P5 1.582383 1_555
O25 Sn1 2.468757 1_555
O26 P4 1.582389 1_555
O26 Sn0 2.467426 1_555
O27 P5 1.583118 1_555
O27 Sn1 2.463207 1_555
O28 P6 1.582324 1_555
O28 Sn2 2.467668 1_555
O29 P7 1.583001 1_555
O29 Sn3 2.463497 1_555
O30 P6 1.583034 1_555
O30 Sn2 2.464053 1_555
O31 P7 1.582339 1_555
O31 Sn3 2.468932 1_555
