# generated using pymatgen
data_Yb5Mg
_symmetry_space_group_name_H-M   'P 1'
_cell_length_a   6.48966736
_cell_length_b   6.48966736
_cell_length_c   6.48966776
_cell_angle_alpha   54.93870820
_cell_angle_beta   54.93870820
_cell_angle_gamma   54.93870758
_symmetry_Int_Tables_number   1
_chemical_formula_structural   Yb5Mg
_chemical_formula_sum   'Yb5 Mg1'
_cell_volume   170.49987938
_cell_formula_units_Z   1
loop_
 _symmetry_equiv_pos_site_id
 _symmetry_equiv_pos_as_xyz
  1  'x, y, z'
loop_
 _atom_site_type_symbol
 _atom_site_label
 _atom_site_symmetry_multiplicity
 _atom_site_fract_x
 _atom_site_fract_y
 _atom_site_fract_z
 _atom_site_occupancy
  Yb  Yb0  1  0.83765698  0.50000000  0.16234302  1
  Yb  Yb1  1  0.50000000  0.16234302  0.83765698  1
  Yb  Yb2  1  0.16234302  0.83765698  0.50000000  1
  Yb  Yb3  1  0.66687431  0.66687431  0.66687431  1
  Yb  Yb4  1  0.33312569  0.33312569  0.33312569  1
  Mg  Mg0  1  0.00000000  0.00000000  0.00000000  1
loop_
_geom_bond_atom_site_label_1
_geom_bond_atom_site_label_2
_geom_bond_distance
_geom_bond_site_symmetry_2
Yb0 Yb4 3.384503 1_655
Yb0 Yb3 3.384503 1_554
Yb0 Yb4 3.412832 1_555
Yb0 Yb3 3.412832 1_555
Yb0 Yb1 3.434416 1_564
Yb0 Yb1 3.434416 1_654
Yb0 Yb2 3.434416 1_645
Yb0 Yb2 3.434416 1_654
Yb0 Yb2 3.501450 1_555
Yb0 Yb1 3.501450 1_555
Yb1 Yb3 3.384503 1_545
Yb1 Yb4 3.384503 1_556
Yb1 Yb3 3.412832 1_555
Yb1 Yb4 3.412832 1_555
Yb1 Yb2 3.434416 1_645
Yb1 Yb2 3.434416 1_546
Yb1 Yb2 3.501450 1_555
Yb2 Yb3 3.384503 1_455
Yb2 Yb4 3.384503 1_565
Yb2 Yb4 3.412832 1_555
Yb2 Yb3 3.412832 1_555
Yb3 Yb4 3.456621 1_565
Yb3 Yb4 3.456621 1_655
Yb3 Yb4 3.456621 1_556
Mg0 Yb1 3.387276 1_554
Mg0 Yb0 3.387276 1_445
Mg0 Yb0 3.387276 1_455
Mg0 Yb1 3.387276 1_454
Mg0 Yb2 3.387276 1_545
Mg0 Yb2 3.387276 1_544
Mg0 Yb3 3.456616 1_544
Mg0 Yb3 3.456616 1_454
Mg0 Yb4 3.456616 1_455
Mg0 Yb4 3.456616 1_545
Mg0 Yb4 3.456616 1_554
Mg0 Yb3 3.456616 1_445
