# generated using pymatgen
data_LuRh2
_symmetry_space_group_name_H-M   'P 1'
_cell_length_a   5.24132637
_cell_length_b   5.24132493
_cell_length_c   5.24132518
_cell_angle_alpha   59.99999842
_cell_angle_beta   60.00000751
_cell_angle_gamma   60.00000345
_symmetry_Int_Tables_number   1
_chemical_formula_structural   LuRh2
_chemical_formula_sum   'Lu2 Rh4'
_cell_volume   101.81421692
_cell_formula_units_Z   2
loop_
 _symmetry_equiv_pos_site_id
 _symmetry_equiv_pos_as_xyz
  1  'x, y, z'
loop_
 _atom_site_type_symbol
 _atom_site_label
 _atom_site_symmetry_multiplicity
 _atom_site_fract_x
 _atom_site_fract_y
 _atom_site_fract_z
 _atom_site_occupancy
  Lu  Lu0  1  0.12500000  0.12500000  0.12500000  1
  Lu  Lu1  1  0.87500000  0.87500000  0.87500000  1
  Rh  Rh0  1  0.50000000  -0.00000000  0.50000000  1
  Rh  Rh1  1  0.00000000  0.50000000  0.50000000  1
  Rh  Rh2  1  0.50000000  0.50000000  0.50000000  1
  Rh  Rh3  1  0.50000000  0.50000000  0.00000000  1
loop_
_geom_bond_atom_site_label_1
_geom_bond_atom_site_label_2
_geom_bond_distance
_geom_bond_site_symmetry_2
Lu0 Rh1 3.072999 1_545
Lu0 Rh1 3.072999 1_554
Lu0 Rh1 3.072999 1_555
Lu0 Rh2 3.072999 1_545
Lu0 Rh3 3.072999 1_545
Lu0 Rh0 3.073000 1_555
Lu0 Rh0 3.073000 1_554
Lu0 Rh2 3.073000 1_554
Lu0 Rh3 3.073000 1_555
Lu0 Rh2 3.073000 1_455
Lu0 Rh3 3.073000 1_455
Lu0 Rh0 3.073000 1_455
Lu0 Lu1 3.209643 1_454
Lu0 Lu1 3.209643 1_445
Lu0 Lu1 3.209643 1_444
Lu0 Lu1 3.209644 1_544
Lu1 Rh1 3.072999 1_665
Lu1 Rh1 3.072999 1_655
Lu1 Rh1 3.072999 1_656
Lu1 Rh3 3.072999 1_566
Lu1 Rh2 3.072999 1_565
Lu1 Rh0 3.073000 1_565
Lu1 Rh0 3.073000 1_566
Lu1 Rh2 3.073000 1_556
Lu1 Rh3 3.073000 1_556
Lu1 Rh2 3.073000 1_655
Lu1 Rh3 3.073000 1_656
Lu1 Rh0 3.073000 1_665
Rh0 Rh3 2.620662 1_546
Rh0 Rh3 2.620662 1_555
Rh0 Rh2 2.620662 1_555
Rh0 Rh2 2.620662 1_545
Rh0 Rh1 2.620663 1_555
Rh0 Rh1 2.620663 1_645
Rh1 Rh2 2.620663 1_555
Rh1 Rh3 2.620663 1_555
Rh1 Rh2 2.620663 1_455
Rh1 Rh3 2.620663 1_456
Rh2 Rh3 2.620663 1_555
Rh2 Rh3 2.620663 1_556
