# generated using pymatgen
data_CaPb3Se4
_symmetry_space_group_name_H-M   'P 1'
_cell_length_a   7.51242752
_cell_length_b   7.51242752
_cell_length_c   4.33012822
_cell_angle_alpha   90.00000000
_cell_angle_beta   90.00000000
_cell_angle_gamma   109.39583150
_symmetry_Int_Tables_number   1
_chemical_formula_structural   CaPb3Se4
_chemical_formula_sum   'Ca1 Pb3 Se4'
_cell_volume   230.50836838
_cell_formula_units_Z   1
loop_
 _symmetry_equiv_pos_site_id
 _symmetry_equiv_pos_as_xyz
  1  'x, y, z'
loop_
 _atom_site_type_symbol
 _atom_site_label
 _atom_site_symmetry_multiplicity
 _atom_site_fract_x
 _atom_site_fract_y
 _atom_site_fract_z
 _atom_site_occupancy
  Ca  Ca0  1  0.50000000  0.50000000  -0.00000000  1
  Pb  Pb0  1  0.50000000  0.00000000  0.50000000  1
  Pb  Pb1  1  0.00000000  0.50000000  0.50000000  1
  Pb  Pb2  1  0.00000000  0.00000000  -0.00000000  1
  Se  Se0  1  0.25475803  0.74524197  -0.00000000  1
  Se  Se1  1  0.74524197  0.25475803  -0.00000000  1
  Se  Se2  1  0.74084761  0.74084761  0.50000000  1
  Se  Se3  1  0.25915239  0.25915239  0.50000000  1
loop_
_geom_bond_atom_site_label_1
_geom_bond_atom_site_label_2
_geom_bond_distance
_geom_bond_site_symmetry_2
Ca0 Se1 3.007165 1_555
Ca0 Se0 3.007165 1_555
Ca0 Se2 3.010087 1_554
Ca0 Se2 3.010087 1_555
Ca0 Se3 3.010087 1_555
Ca0 Se3 3.010087 1_554
Pb0 Se0 3.066383 1_546
Pb0 Se0 3.066383 1_545
Pb0 Se1 3.066383 1_556
Pb0 Se1 3.066383 1_555
Pb0 Se2 3.066538 1_545
Pb0 Se3 3.066538 1_555
Pb1 Se0 3.066383 1_555
Pb1 Se1 3.066383 1_455
Pb1 Se0 3.066383 1_556
Pb1 Se1 3.066383 1_456
Pb1 Se2 3.066538 1_455
Pb1 Se3 3.066538 1_555
Pb2 Se2 3.122597 1_445
Pb2 Se2 3.122597 1_444
Pb2 Se3 3.122597 1_554
Pb2 Se3 3.122597 1_555
Pb2 Se0 3.123851 1_545
Pb2 Se1 3.123851 1_455
