# generated using pymatgen
data_Fe3(PO4)4
_symmetry_space_group_name_H-M   'P 1'
_cell_length_a   6.40320786
_cell_length_b   10.36890205
_cell_length_c   11.03503952
_cell_angle_alpha   92.27924657
_cell_angle_beta   89.80231523
_cell_angle_gamma   71.89077288
_symmetry_Int_Tables_number   1
_chemical_formula_structural   Fe3(PO4)4
_chemical_formula_sum   'Fe6 P8 O32'
_cell_volume   695.72368210
_cell_formula_units_Z   2
loop_
 _symmetry_equiv_pos_site_id
 _symmetry_equiv_pos_as_xyz
  1  'x, y, z'
loop_
 _atom_site_type_symbol
 _atom_site_label
 _atom_site_symmetry_multiplicity
 _atom_site_fract_x
 _atom_site_fract_y
 _atom_site_fract_z
 _atom_site_occupancy
  Fe  Fe0  1  0.00000000  0.50000000  0.50000000  1
  Fe  Fe1  1  0.32814700  0.31139500  0.74733200  1
  Fe  Fe2  1  0.36332800  0.30769700  0.24699900  1
  Fe  Fe3  1  0.50000000  0.50000000  0.00000000  1
  Fe  Fe4  1  0.63667200  0.69230300  0.75300100  1
  Fe  Fe5  1  0.67185300  0.68860500  0.25266800  1
  P  P0  1  0.81356900  0.40499300  0.24488100  1
  P  P1  1  0.78173100  0.40615000  0.74508500  1
  P  P2  1  0.43408500  0.81832200  0.01214800  1
  P  P3  1  0.56591500  0.18167800  0.98785200  1
  P  P4  1  0.21826900  0.59385000  0.25491500  1
  P  P5  1  0.18643100  0.59500700  0.75511900  1
  P  P6  1  0.74564100  0.81821500  0.50893800  1
  P  P7  1  0.25435900  0.18178500  0.49106200  1
  O  O0  1  0.24264200  0.95175200  0.03348500  1
  O  O1  1  0.01603700  0.31777800  0.76576100  1
  O  O2  1  0.04546000  0.30693900  0.49146100  1
  O  O3  1  0.19679600  0.04803000  0.47609600  1
  O  O4  1  0.05051800  0.31846100  0.22149100  1
  O  O5  1  0.20902400  0.48714200  0.64391600  1
  O  O6  1  0.98396300  0.68222200  0.23423900  1
  O  O7  1  0.95454000  0.69306100  0.50853900  1
  O  O8  1  0.80320400  0.95197000  0.52390400  1
  O  O9  1  0.94948200  0.68153900  0.77850900  1
  O  O10  1  0.79097600  0.51285800  0.35608400  1
  O  O11  1  0.62623100  0.82454900  0.38774700  1
  O  O12  1  0.76550000  0.51098300  0.64084000  1
  O  O13  1  0.58791900  0.81453500  0.11978400  1
  O  O14  1  0.59418600  0.81548700  0.61705400  1
  O  O15  1  0.72577600  0.50977200  0.14049500  1
  O  O16  1  0.54846300  0.82571800  0.89102700  1
  O  O17  1  0.69412700  0.51414500  0.85604100  1
  O  O18  1  0.66586400  0.31756300  0.26519500  1
  O  O19  1  0.23449900  0.48901700  0.35916000  1
  O  O20  1  0.75735800  0.04824800  0.96651500  1
  O  O21  1  0.63311700  0.31864300  0.72151200  1
  O  O22  1  0.36688300  0.68135700  0.27848800  1
  O  O23  1  0.64877100  0.30692900  0.99025300  1
  O  O24  1  0.35122900  0.69307100  0.00974700  1
  O  O25  1  0.33413600  0.68243700  0.73480500  1
  O  O26  1  0.30587300  0.48585500  0.14395900  1
  O  O27  1  0.45153700  0.17428200  0.10897300  1
  O  O28  1  0.27422400  0.49022800  0.85950400  1
  O  O29  1  0.40581300  0.18451300  0.38294600  1
  O  O30  1  0.41208100  0.18546500  0.88021600  1
  O  O31  1  0.37376900  0.17545100  0.61225300  1
loop_
_geom_bond_atom_site_label_1
_geom_bond_atom_site_label_2
_geom_bond_distance
_geom_bond_site_symmetry_2
Fe0 O7 1.929636 1_455
Fe0 O2 1.929636 1_555
Fe0 O5 2.062002 1_555
Fe0 O10 2.062002 1_455
Fe0 O19 2.132272 1_555
Fe0 O12 2.132277 1_455
Fe1 O30 1.966110 1_555
Fe1 O31 1.966739 1_555
Fe1 O1 1.988381 1_555
Fe1 O21 1.997324 1_555
Fe1 O28 2.122810 1_555
Fe1 O5 2.124208 1_555
Fe2 O27 1.973161 1_555
Fe2 O29 1.973630 1_555
Fe2 O18 1.981862 1_555
Fe2 O4 1.992752 1_555
Fe2 O26 2.142015 1_555
Fe2 O19 2.142628 1_555
Fe3 O23 1.929611 1_554
Fe3 O24 1.929611 1_555
Fe3 O26 2.051468 1_555
Fe3 O17 2.051468 1_554
Fe3 O15 2.144286 1_555
Fe3 O28 2.144294 1_554
Fe4 O16 1.973161 1_555
Fe4 O14 1.973630 1_555
Fe4 O25 1.981862 1_555
Fe4 O9 1.992752 1_555
Fe4 O17 2.142015 1_555
Fe4 O12 2.142627 1_555
Fe5 O13 1.966110 1_555
Fe5 O11 1.966739 1_555
Fe5 O6 1.988381 1_555
Fe5 O22 1.997324 1_555
Fe5 O15 2.122816 1_555
Fe5 O10 2.124208 1_555
O0 P2 1.545979 1_555
O1 P1 1.518877 1_455
O2 P7 1.547161 1_555
O3 P7 1.544860 1_555
O4 P0 1.518637 1_455
O5 P5 1.602096 1_555
O6 P4 1.518877 1_655
O7 P6 1.547161 1_555
O8 P6 1.544860 1_555
O9 P5 1.518637 1_655
O10 P0 1.602096 1_555
O11 P6 1.536314 1_555
O12 P1 1.595535 1_555
O13 P2 1.539597 1_555
O14 P6 1.541578 1_555
O15 P0 1.596118 1_555
O16 P2 1.537861 1_556
O17 P1 1.601084 1_555
O18 P0 1.521287 1_555
O19 P4 1.595535 1_555
O20 P3 1.545979 1_555
O21 P1 1.521910 1_555
O22 P4 1.521910 1_555
O23 P3 1.547430 1_555
O24 P2 1.547430 1_555
O25 P5 1.521287 1_555
O26 P4 1.601084 1_555
O27 P3 1.537861 1_554
O28 P5 1.596110 1_555
O29 P7 1.541574 1_555
O30 P3 1.539597 1_555
O31 P7 1.536314 1_555
