# generated using pymatgen
data_Zn(CuO2)2
_symmetry_space_group_name_H-M   'P 1'
_cell_length_a   5.94503253
_cell_length_b   5.94503253
_cell_length_c   5.94503165
_cell_angle_alpha   59.89761390
_cell_angle_beta   59.89761390
_cell_angle_gamma   59.89761576
_symmetry_Int_Tables_number   1
_chemical_formula_structural   Zn(CuO2)2
_chemical_formula_sum   'Zn2 Cu4 O8'
_cell_volume   148.23053651
_cell_formula_units_Z   2
loop_
 _symmetry_equiv_pos_site_id
 _symmetry_equiv_pos_as_xyz
  1  'x, y, z'
loop_
 _atom_site_type_symbol
 _atom_site_label
 _atom_site_symmetry_multiplicity
 _atom_site_fract_x
 _atom_site_fract_y
 _atom_site_fract_z
 _atom_site_occupancy
  Zn  Zn0  1  0.00764200  0.00764200  0.00764200  1
  Zn  Zn1  1  0.62481300  0.62481300  0.62481300  1
  Cu  Cu0  1  0.24649000  0.24649000  0.24649000  1
  Cu  Cu1  1  0.62505600  0.62505600  0.12559000  1
  Cu  Cu2  1  0.12559000  0.62505600  0.62505600  1
  Cu  Cu3  1  0.62505600  0.12559000  0.62505600  1
  O  O0  1  0.37512900  0.83868200  0.37512900  1
  O  O1  1  0.83868200  0.37512900  0.37512900  1
  O  O2  1  0.37512900  0.37512900  0.83868200  1
  O  O3  1  0.37554300  0.37554300  0.37554300  1
  O  O4  1  0.87275200  0.87275200  0.87275200  1
  O  O5  1  0.87117500  0.87117500  0.41576700  1
  O  O6  1  0.41576700  0.87117500  0.87117500  1
  O  O7  1  0.87117500  0.41576700  0.87117500  1
loop_
_geom_bond_atom_site_label_1
_geom_bond_atom_site_label_2
_geom_bond_distance
_geom_bond_site_symmetry_2
Cu0 O3 1.880761 1_555
Cu0 O2 1.978525 1_554
Cu0 O0 1.978526 1_545
Cu0 O1 1.978526 1_455
Cu1 O1 1.951263 1_555
Cu1 O0 1.951263 1_555
Cu1 O6 1.954053 1_554
Cu1 O7 1.954053 1_554
Cu1 O4 2.081062 1_554
Cu1 O3 2.096165 1_555
Cu2 O2 1.951263 1_555
Cu2 O0 1.951263 1_555
Cu2 O5 1.954054 1_455
Cu2 O7 1.954054 1_455
Cu2 O4 2.081062 1_455
Cu2 O3 2.096165 1_555
Cu3 O2 1.951263 1_555
Cu3 O1 1.951263 1_555
Cu3 O5 1.954054 1_545
Cu3 O6 1.954054 1_545
Cu3 O4 2.081062 1_545
Cu3 O3 2.096165 1_555
O0 Zn1 2.108848 1_555
O1 Zn1 2.108848 1_555
O2 Zn1 2.108848 1_555
O4 Zn0 1.965827 1_666
O5 Zn0 1.978522 1_665
O5 Zn1 2.082036 1_555
O6 Zn0 1.978522 1_566
O6 Zn1 2.082035 1_555
O7 Zn0 1.978522 1_656
O7 Zn1 2.082035 1_555
