# generated using pymatgen
data_ScCrC2
_symmetry_space_group_name_H-M   'P 1'
_cell_length_a   3.24632000
_cell_length_b   5.66094800
_cell_length_c   9.03725200
_cell_angle_alpha   90.00000000
_cell_angle_beta   90.00000000
_cell_angle_gamma   90.00000000
_symmetry_Int_Tables_number   1
_chemical_formula_structural   ScCrC2
_chemical_formula_sum   'Sc4 Cr4 C8'
_cell_volume   166.07982767
_cell_formula_units_Z   4
loop_
 _symmetry_equiv_pos_site_id
 _symmetry_equiv_pos_as_xyz
  1  'x, y, z'
loop_
 _atom_site_type_symbol
 _atom_site_label
 _atom_site_symmetry_multiplicity
 _atom_site_fract_x
 _atom_site_fract_y
 _atom_site_fract_z
 _atom_site_occupancy
  Sc  Sc0  1  0.00000000  0.25212600  0.75094000  1
  Sc  Sc1  1  0.00000000  0.25212600  0.24906000  1
  Sc  Sc2  1  0.50000000  0.74787400  0.74906000  1
  Sc  Sc3  1  0.50000000  0.74787400  0.25094000  1
  Cr  Cr0  1  0.00000000  0.92188800  0.50000000  1
  Cr  Cr1  1  0.50000000  0.07811200  0.00000000  1
  Cr  Cr2  1  0.00000000  0.59156000  0.00000000  1
  Cr  Cr3  1  0.50000000  0.40844000  0.50000000  1
  C  C0  1  0.00000000  0.58507900  0.41666900  1
  C  C1  1  0.00000000  0.58507900  0.58333100  1
  C  C2  1  0.50000000  0.41492100  0.08333100  1
  C  C3  1  0.50000000  0.41492100  0.91666900  1
  C  C4  1  0.00000000  0.91805300  0.91447300  1
  C  C5  1  0.00000000  0.91805300  0.08552700  1
  C  C6  1  0.50000000  0.08194700  0.58552700  1
  C  C7  1  0.50000000  0.08194700  0.41447300  1
loop_
_geom_bond_atom_site_label_1
_geom_bond_atom_site_label_2
_geom_bond_distance
_geom_bond_site_symmetry_2
C0 C1 1.506166 1_555
C0 Cr3 2.049798 1_455
C0 Cr3 2.049798 1_555
C0 Cr0 2.049995 1_555
C0 Sc3 2.393148 1_455
C0 Sc3 2.393148 1_555
C0 Sc1 2.418052 1_555
C1 Cr3 2.049798 1_555
C1 Cr3 2.049798 1_455
C1 Cr0 2.049995 1_555
C1 Sc2 2.393148 1_555
C1 Sc2 2.393148 1_455
C1 Sc0 2.418052 1_555
C2 C3 1.506166 1_554
C2 Cr2 2.049798 1_555
C2 Cr2 2.049798 1_655
C2 Cr1 2.049995 1_555
C2 Sc1 2.393148 1_655
C2 Sc1 2.393148 1_555
C2 Sc3 2.418052 1_555
C3 Cr2 2.049798 1_556
C3 Cr2 2.049798 1_656
C3 Cr1 2.049995 1_556
C3 Sc0 2.393148 1_655
C3 Sc0 2.393148 1_555
C3 Sc2 2.418052 1_555
C4 C5 1.545858 1_556
C4 Cr2 2.003368 1_556
C4 Cr1 2.013221 1_466
C4 Cr1 2.013221 1_566
C4 Sc0 2.400141 1_565
C4 Sc2 2.407779 1_455
C4 Sc2 2.407779 1_555
C5 Cr2 2.003368 1_555
C5 Cr1 2.013221 1_465
C5 Cr1 2.013221 1_565
C5 Sc1 2.400141 1_565
C5 Sc3 2.407779 1_555
C5 Sc3 2.407779 1_455
C6 C7 1.545858 1_555
C6 Cr3 2.003368 1_555
C6 Cr0 2.013221 1_545
C6 Cr0 2.013221 1_645
C6 Sc2 2.400141 1_545
C6 Sc0 2.407779 1_655
C6 Sc0 2.407779 1_555
C7 Cr3 2.003368 1_555
C7 Cr0 2.013221 1_545
C7 Cr0 2.013221 1_645
C7 Sc3 2.400141 1_545
C7 Sc1 2.407779 1_655
C7 Sc1 2.407779 1_555
