# generated using pymatgen
data_K3TiFeH4S4O19
_symmetry_space_group_name_H-M   'P 1'
_cell_length_a   9.72503442
_cell_length_b   9.72503442
_cell_length_c   12.84722648
_cell_angle_alpha   88.47851688
_cell_angle_beta   88.47851688
_cell_angle_gamma   132.10857862
_symmetry_Int_Tables_number   1
_chemical_formula_structural   K3TiFeH4S4O19
_chemical_formula_sum   'K6 Ti2 Fe2 H8 S8 O38'
_cell_volume   899.47968883
_cell_formula_units_Z   2
loop_
 _symmetry_equiv_pos_site_id
 _symmetry_equiv_pos_as_xyz
  1  'x, y, z'
loop_
 _atom_site_type_symbol
 _atom_site_label
 _atom_site_symmetry_multiplicity
 _atom_site_fract_x
 _atom_site_fract_y
 _atom_site_fract_z
 _atom_site_occupancy
  K  K0  1  0.86883600  0.12905500  0.75114900  1
  K  K1  1  0.12905500  0.86883600  0.25114900  1
  K  K2  1  0.00063900  0.49989200  0.00004000  1
  K  K3  1  0.49989200  0.00063900  0.50004000  1
  K  K4  1  0.48303900  0.51474000  0.75113800  1
  K  K5  1  0.51474000  0.48303900  0.25113800  1
  Ti  Ti0  1  0.98919200  0.76026600  0.64264600  1
  Ti  Ti1  1  0.76026600  0.98919200  0.14264600  1
  Fe  Fe0  1  0.24933200  0.01094300  0.85873000  1
  Fe  Fe1  1  0.01094300  0.24933200  0.35873000  1
  H  H0  1  0.52830500  0.14460700  0.94557700  1
  H  H1  1  0.86798000  0.47409200  0.55023600  1
  H  H2  1  0.47409200  0.86798000  0.05023600  1
  H  H3  1  0.14460700  0.52830500  0.44557700  1
  H  H4  1  0.39082400  0.15939300  0.07415600  1
  H  H5  1  0.84119600  0.61144300  0.42901400  1
  H  H6  1  0.61144300  0.84119600  0.92901400  1
  H  H7  1  0.15939300  0.39082400  0.57415600  1
  S  S0  1  0.68171700  0.32081100  0.74785800  1
  S  S1  1  0.32081100  0.68171700  0.24785800  1
  S  S2  1  0.27263800  0.72616000  0.75049900  1
  S  S3  1  0.72616000  0.27263800  0.25049900  1
  S  S4  1  0.83713900  0.70344000  0.04012300  1
  S  S5  1  0.29277100  0.15760200  0.46044900  1
  S  S6  1  0.15760200  0.29277100  0.96044900  1
  S  S7  1  0.70344000  0.83713900  0.54012300  1
  O  O0  1  0.68800600  0.53657500  0.98817000  1
  O  O1  1  0.46094800  0.30207400  0.51346300  1
  O  O2  1  0.30207400  0.46094800  0.01346300  1
  O  O3  1  0.53657500  0.68800600  0.48817000  1
  O  O4  1  0.01304200  0.84179500  0.97511400  1
  O  O5  1  0.15076200  0.98037800  0.52642800  1
  O  O6  1  0.98037800  0.15076200  0.02642800  1
  O  O7  1  0.84179500  0.01304200  0.47511400  1
  O  O8  1  0.47894900  0.22350600  0.75957300  1
  O  O9  1  0.78771300  0.52899500  0.73457200  1
  O  O10  1  0.52899500  0.78771300  0.23457200  1
  O  O11  1  0.22350600  0.47894900  0.25957300  1
  O  O12  1  0.25135300  0.80094300  0.84475100  1
  O  O13  1  0.18803800  0.74502100  0.65904900  1
  O  O14  1  0.74502100  0.18803800  0.15904900  1
  O  O15  1  0.80094300  0.25135300  0.34475100  1
  O  O16  1  0.46959500  0.83495900  0.71958900  1
  O  O17  1  0.16981400  0.52874100  0.77619500  1
  O  O18  1  0.52874100  0.16981400  0.27619500  1
  O  O19  1  0.83495900  0.46959500  0.21958900  1
  O  O20  1  0.73923800  0.28794600  0.84278900  1
  O  O21  1  0.71806700  0.26308100  0.65417200  1
  O  O22  1  0.26308100  0.71806700  0.15417200  1
  O  O23  1  0.28794600  0.73923800  0.34278900  1
  O  O24  1  0.07920700  0.91033300  0.74834700  1
  O  O25  1  0.91033300  0.07920700  0.24834700  1
  O  O26  1  0.64591500  0.80772200  0.86391600  1
  O  O27  1  0.19030500  0.35391500  0.63935800  1
  O  O28  1  0.35391500  0.19030500  0.13935800  1
  O  O29  1  0.80772200  0.64591500  0.36391600  1
  O  O30  1  0.22112200  0.21141300  0.90293800  1
  O  O31  1  0.79008700  0.77731000  0.59846700  1
  O  O32  1  0.77731000  0.79008700  0.09846700  1
  O  O33  1  0.21141300  0.22112200  0.40293800  1
  O  O34  1  0.40205500  0.08446800  0.97168800  1
  O  O35  1  0.92044200  0.60011400  0.52980800  1
  O  O36  1  0.60011400  0.92044200  0.02980800  1
  O  O37  1  0.08446800  0.40205500  0.47168800  1
loop_
_geom_bond_atom_site_label_1
_geom_bond_atom_site_label_2
_geom_bond_distance
_geom_bond_site_symmetry_2
K0 O27 2.654225 1_655
K0 O26 2.659252 1_545
K0 O21 2.823941 1_555
K0 O20 2.826982 1_555
K0 O17 2.939078 1_655
K0 O16 2.944880 1_545
K1 O28 2.654225 1_565
K1 O29 2.659252 1_455
K1 O22 2.823941 1_555
K1 O23 2.826982 1_555
K1 O18 2.939078 1_565
K1 O19 2.944880 1_455
K2 O22 2.857647 1_555
K2 O20 2.873877 1_454
K2 O12 2.890498 1_554
K2 O14 2.973435 1_455
K2 O19 3.117138 1_455
K2 O17 3.184736 1_554
K2 O2 3.206082 1_555
K2 O4 3.252137 1_554
K2 O6 3.274136 1_455
K2 S6 3.283694 1_554
K2 O0 3.297068 1_454
K2 S4 3.308108 1_455
K3 O21 2.857647 1_555
K3 O23 2.873877 1_545
K3 O15 2.890498 1_555
K3 O13 2.973435 1_545
K3 O16 3.117138 1_545
K3 O18 3.184736 1_555
K3 O1 3.206082 1_555
K3 O7 3.252137 1_555
K3 O5 3.274136 1_545
K3 S5 3.283694 1_555
K3 O3 3.297068 1_545
K3 S7 3.308108 1_545
K4 O27 2.641623 1_555
K4 O26 2.648611 1_555
K4 O8 2.804892 1_555
K4 O9 2.873633 1_555
K4 O30 2.889153 1_555
K4 O31 2.912289 1_555
K4 O17 3.147621 1_555
K4 O16 3.218860 1_555
K5 O28 2.641623 1_555
K5 O29 2.648611 1_555
K5 O11 2.804892 1_555
K5 O10 2.873633 1_555
K5 O33 2.889153 1_555
K5 O32 2.912289 1_555
K5 O18 3.147621 1_555
K5 O19 3.218860 1_555
Fe0 O34 1.889053 1_555
Fe0 O24 1.932101 1_545
Fe0 O12 2.067988 1_545
Fe0 O8 2.097870 1_555
Fe0 O4 2.199930 1_545
Fe0 O30 2.228562 1_555
Fe1 O37 1.889053 1_555
Fe1 O25 1.932101 1_455
Fe1 O15 2.067988 1_455
Fe1 O11 2.097870 1_555
Fe1 O7 2.199930 1_455
Fe1 O33 2.228562 1_555
H0 O34 0.983239 1_555
H1 O35 0.984102 1_555
H2 O36 0.984102 1_555
H3 O37 0.983239 1_555
H4 O28 1.031023 1_555
H4 O34 1.557522 1_554
H5 O29 1.031373 1_555
H5 O35 1.562749 1_555
H6 O26 1.031373 1_555
H6 O36 1.562749 1_556
H7 O27 1.031023 1_555
H7 O37 1.557522 1_555
O0 S4 1.461149 1_556
O1 S5 1.463262 1_555
O2 S6 1.463262 1_554
O3 S7 1.461149 1_555
O4 S4 1.487273 1_456
O5 S5 1.504806 1_565
O5 Ti0 2.115509 1_455
O6 S6 1.504806 1_654
O6 Ti1 2.115509 1_545
O7 S7 1.487273 1_545
O8 S0 1.510237 1_555
O9 S0 1.537598 1_555
O9 Ti0 2.029426 1_555
O10 S1 1.537598 1_555
O10 Ti1 2.029426 1_555
O11 S1 1.510237 1_555
O12 S2 1.507757 1_555
O13 S2 1.527465 1_555
O13 Ti0 2.051920 1_455
O14 S3 1.527465 1_555
O14 Ti1 2.051920 1_545
O15 S3 1.507757 1_555
O16 S2 1.471540 1_555
O17 S2 1.472791 1_555
O18 S3 1.472791 1_555
O19 S3 1.471540 1_555
O20 S0 1.468945 1_555
O21 S0 1.472508 1_555
O22 S1 1.472508 1_555
O23 S1 1.468945 1_555
O24 Ti0 1.787546 1_455
O25 Ti1 1.787546 1_545
O30 S6 1.488551 1_555
O31 S7 1.509409 1_555
O31 Ti0 2.140717 1_555
O32 S4 1.509409 1_555
O32 Ti1 2.140717 1_555
O33 S5 1.488551 1_555
O35 Ti0 1.936271 1_555
O36 Ti1 1.936271 1_555
