# generated using pymatgen
data_Zr2P2SO12
_symmetry_space_group_name_H-M   'P 1'
_cell_length_a   9.11330500
_cell_length_b   9.02754700
_cell_length_c   15.50100745
_cell_angle_alpha   54.44501205
_cell_angle_beta   90.00000000
_cell_angle_gamma   90.00000000
_symmetry_Int_Tables_number   1
_chemical_formula_structural   Zr2P2SO12
_chemical_formula_sum   'Zr8 P8 S4 O48'
_cell_volume   1037.51412556
_cell_formula_units_Z   4
loop_
 _symmetry_equiv_pos_site_id
 _symmetry_equiv_pos_as_xyz
  1  'x, y, z'
loop_
 _atom_site_type_symbol
 _atom_site_label
 _atom_site_symmetry_multiplicity
 _atom_site_fract_x
 _atom_site_fract_y
 _atom_site_fract_z
 _atom_site_occupancy
  Zr  Zr0  1  0.28659400  0.13502700  0.61739200  1
  Zr  Zr1  1  0.78254700  0.87149800  0.88647000  1
  Zr  Zr2  1  0.21463300  0.63358100  0.11607700  1
  Zr  Zr3  1  0.70923300  0.37395300  0.37593800  1
  Zr  Zr4  1  0.21745300  0.87149800  0.38647000  1
  Zr  Zr5  1  0.71340600  0.13502700  0.11739200  1
  Zr  Zr6  1  0.29076700  0.37395300  0.87593800  1
  Zr  Zr7  1  0.78536700  0.63358100  0.61607700  1
  P  P0  1  0.13949900  0.03795200  0.85482500  1
  P  P1  1  0.86188200  0.74895100  0.14540900  1
  P  P2  1  0.35889500  0.25410100  0.35464800  1
  P  P3  1  0.86050100  0.03795200  0.35482500  1
  P  P4  1  0.64110500  0.25410100  0.85464800  1
  P  P5  1  0.13811800  0.74895100  0.64540900  1
  P  P6  1  0.49998900  0.53391900  0.99979000  1
  P  P7  1  0.50001100  0.53391900  0.49979000  1
  S  S0  1  0.64066900  0.96252500  0.64538700  1
  S  S1  1  0.35933100  0.96252500  0.14538700  1
  S  S2  1  0.99969000  0.46611600  0.49914600  1
  S  S3  1  0.00031000  0.46611600  0.99914600  1
  O  O0  1  0.60656700  0.69578900  0.93665400  1
  O  O1  1  0.10007600  0.30867000  0.56122000  1
  O  O2  1  0.89862400  0.42915900  0.43969100  1
  O  O3  1  0.39396900  0.57076800  0.06287800  1
  O  O4  1  0.89992400  0.30867000  0.06122000  1
  O  O5  1  0.39343300  0.69578900  0.43665400  1
  O  O6  1  0.60603100  0.57076800  0.56287800  1
  O  O7  1  0.10137600  0.42915900  0.93969100  1
  O  O8  1  0.73812600  0.94751400  0.72612000  1
  O  O9  1  0.23942800  0.05538000  0.76852400  1
  O  O10  1  0.76042300  0.59437200  0.23015200  1
  O  O11  1  0.26013600  0.40858200  0.26881100  1
  O  O12  1  0.76057200  0.05538000  0.26852400  1
  O  O13  1  0.26187400  0.94751400  0.22612000  1
  O  O14  1  0.73986400  0.40858200  0.76881100  1
  O  O15  1  0.23957700  0.59437200  0.73015200  1
  O  O16  1  0.41315000  0.35696200  0.57844300  1
  O  O17  1  0.91792700  0.63406400  0.92366500  1
  O  O18  1  0.08184300  0.48109100  0.07662300  1
  O  O19  1  0.58792100  0.51258300  0.42237100  1
  O  O20  1  0.08207300  0.63406400  0.42366500  1
  O  O21  1  0.58685000  0.35696200  0.07844300  1
  O  O22  1  0.41207900  0.51258300  0.92237100  1
  O  O23  1  0.91815700  0.48109100  0.57662300  1
  O  O24  1  0.48481100  0.97254800  0.66996700  1
  O  O25  1  0.97758800  0.02073300  0.83175700  1
  O  O26  1  0.02276100  0.68508300  0.16839400  1
  O  O27  1  0.52198100  0.31267000  0.33185800  1
  O  O28  1  0.02241200  0.02073300  0.33175700  1
  O  O29  1  0.51518900  0.97254800  0.16996700  1
  O  O30  1  0.47801900  0.31267000  0.83185800  1
  O  O31  1  0.97723900  0.68508300  0.66839400  1
  O  O32  1  0.65918600  0.08646400  0.85212500  1
  O  O33  1  0.16128500  0.91590000  0.64690100  1
  O  O34  1  0.83920900  0.20806900  0.35440600  1
  O  O35  1  0.34405200  0.79649100  0.14788400  1
  O  O36  1  0.83871500  0.91590000  0.14690100  1
  O  O37  1  0.34081400  0.08646400  0.35212500  1
  O  O38  1  0.65594800  0.79649100  0.64788400  1
  O  O39  1  0.16079100  0.20806900  0.85440600  1
  O  O40  1  0.68051300  0.12580700  0.54041500  1
  O  O41  1  0.18146700  0.86599000  0.96481200  1
  O  O42  1  0.81892900  0.79378900  0.03635200  1
  O  O43  1  0.31863500  0.20390000  0.46489400  1
  O  O44  1  0.81853300  0.86599000  0.46481200  1
  O  O45  1  0.31948700  0.12580700  0.04041500  1
  O  O46  1  0.68136500  0.20390000  0.96489400  1
  O  O47  1  0.18107100  0.79378900  0.53635200  1
loop_
_geom_bond_atom_site_label_1
_geom_bond_atom_site_label_2
_geom_bond_distance
_geom_bond_site_symmetry_2
O0 P6 1.540571 1_555
O0 Zr1 2.063555 1_555
O1 S2 1.480714 1_455
O1 Zr0 2.125413 1_555
O2 S2 1.471935 1_555
O2 Zr3 2.185581 1_555
O3 P6 1.542355 1_554
O3 Zr2 2.053403 1_555
O4 S3 1.480714 1_654
O4 Zr5 2.125413 1_555
O5 P7 1.540571 1_555
O5 Zr4 2.063555 1_555
O6 P7 1.542355 1_555
O6 Zr7 2.053403 1_555
O7 S3 1.471935 1_555
O7 Zr6 2.185581 1_555
O8 S0 1.475151 1_555
O8 Zr1 2.197559 1_555
O9 P0 1.548841 1_555
O9 Zr0 2.056947 1_555
O10 P1 1.547899 1_555
O10 Zr3 2.013557 1_555
O11 P2 1.538608 1_555
O11 Zr2 2.076125 1_555
O12 P3 1.548841 1_555
O12 Zr5 2.056947 1_555
O13 S1 1.475151 1_555
O13 Zr4 2.197559 1_555
O14 P4 1.538608 1_555
O14 Zr7 2.076125 1_555
O15 P5 1.547899 1_555
O15 Zr6 2.013557 1_555
O16 P7 1.549183 1_555
O16 Zr0 2.074146 1_555
O17 S3 1.472526 1_655
O17 Zr1 2.238687 1_555
O18 S3 1.483754 1_554
O18 Zr2 2.170868 1_555
O19 P7 1.545294 1_555
O19 Zr3 2.086646 1_555
O20 S2 1.472526 1_455
O20 Zr4 2.238687 1_555
O21 P6 1.549183 1_554
O21 Zr5 2.074146 1_555
O22 P6 1.545294 1_555
O22 Zr6 2.086646 1_555
O23 S2 1.483754 1_555
O23 Zr7 2.170868 1_555
O24 S0 1.486922 1_555
O24 Zr0 2.165310 1_565
O25 P0 1.547223 1_655
O25 Zr1 2.089234 1_545
O26 P1 1.539493 1_455
O26 Zr2 2.090428 1_555
O27 P2 1.547928 1_555
O27 Zr3 2.030925 1_555
O28 P3 1.547223 1_455
O28 Zr4 2.089234 1_545
O29 S1 1.486922 1_555
O29 Zr5 2.165310 1_565
O30 P4 1.547928 1_555
O30 Zr6 2.030925 1_555
O31 P5 1.539493 1_655
O31 Zr7 2.090428 1_555
O32 P4 1.545232 1_555
O32 Zr1 2.027754 1_545
O33 P5 1.535291 1_555
O33 Zr0 2.091464 1_565
O34 P3 1.544211 1_555
O34 Zr3 2.082866 1_555
O35 S1 1.483259 1_555
O35 Zr2 2.154140 1_555
O36 P1 1.535291 1_555
O36 Zr5 2.091464 1_565
O37 P2 1.545232 1_555
O37 Zr4 2.027754 1_545
O38 S0 1.483259 1_555
O38 Zr7 2.154140 1_555
O39 P0 1.544211 1_555
O39 Zr6 2.082866 1_555
O40 S0 1.470690 1_545
O40 Zr3 2.223704 1_555
O41 P0 1.544315 1_565
O41 Zr2 2.066394 1_556
O42 P1 1.542418 1_555
O42 Zr1 2.025935 1_554
O43 P2 1.536143 1_555
O43 Zr0 2.085777 1_555
O44 P3 1.544315 1_565
O44 Zr7 2.066394 1_555
O45 S1 1.470690 1_545
O45 Zr6 2.223704 1_554
O46 P4 1.536143 1_555
O46 Zr5 2.085777 1_556
O47 P5 1.542418 1_555
O47 Zr4 2.025935 1_555
