# generated using pymatgen
data_Ba2YCo2F11
_symmetry_space_group_name_H-M   'P 1'
_cell_length_a   7.92267851
_cell_length_b   7.92267851
_cell_length_c   13.60974600
_cell_angle_alpha   90.00000000
_cell_angle_beta   90.00000000
_cell_angle_gamma   120.00000424
_symmetry_Int_Tables_number   1
_chemical_formula_structural   Ba2YCo2F11
_chemical_formula_sum   'Ba6 Y3 Co6 F33'
_cell_volume   739.81766922
_cell_formula_units_Z   3
loop_
 _symmetry_equiv_pos_site_id
 _symmetry_equiv_pos_as_xyz
  1  'x, y, z'
loop_
 _atom_site_type_symbol
 _atom_site_label
 _atom_site_symmetry_multiplicity
 _atom_site_fract_x
 _atom_site_fract_y
 _atom_site_fract_z
 _atom_site_occupancy
  Ba  Ba0  1  0.88637000  0.85228700  0.66358700  1
  Ba  Ba1  1  0.50082600  0.19130700  0.82128100  1
  Ba  Ba2  1  0.96591700  0.11363000  0.99692000  1
  Ba  Ba3  1  0.80869300  0.30952000  0.48794800  1
  Ba  Ba4  1  0.69048000  0.49917400  0.15461500  1
  Ba  Ba5  1  0.14771300  0.03408300  0.33025300  1
  Y  Y0  1  0.46389100  0.67374300  0.89409900  1
  Y  Y1  1  0.20985100  0.53610900  0.22743300  1
  Y  Y2  1  0.32625700  0.79014900  0.56076600  1
  Co  Co0  1  0.96081000  0.66004500  0.88324600  1
  Co  Co1  1  0.11533500  0.40389500  0.72165800  1
  Co  Co2  1  0.59610500  0.71143900  0.38832500  1
  Co  Co3  1  0.69923500  0.03919000  0.21658000  1
  Co  Co4  1  0.28856100  0.88466500  0.05499200  1
  Co  Co5  1  0.33995500  0.30076500  0.54991300  1
  F  F0  1  0.00055500  0.76424400  0.02519100  1
  F  F1  1  0.83635400  0.38666300  0.93094600  1
  F  F2  1  0.76368900  0.99944500  0.35852500  1
  F  F3  1  0.41566000  0.08260300  0.49010300  1
  F  F4  1  0.90212700  0.97010900  0.17768700  1
  F  F5  1  0.29698000  0.32299800  0.19282400  1
  F  F6  1  0.91739700  0.33305700  0.15676900  1
  F  F7  1  0.67700200  0.97398200  0.85949000  1
  F  F8  1  0.06798200  0.09787300  0.51102000  1
  F  F9  1  0.57819200  0.99845700  0.07895100  1
  F  F10  1  0.66694300  0.58434000  0.82343600  1
  F  F11  1  0.23575600  0.23631100  0.69185800  1
  F  F12  1  0.64291800  0.68248600  0.01131900  1
  F  F13  1  0.34712900  0.15144700  0.00862700  1
  F  F14  1  0.03956800  0.35708200  0.34465200  1
  F  F15  1  0.61333700  0.44969100  0.59761300  1
  F  F16  1  0.28289700  0.81456500  0.90205300  1
  F  F17  1  0.42026500  0.42180800  0.41228400  1
  F  F18  1  0.33213500  0.72589400  0.39108700  1
  F  F19  1  0.31751400  0.96043200  0.67798600  1
  F  F20  1  0.39375900  0.66786500  0.72442100  1
  F  F21  1  0.84855300  0.19568100  0.67529300  1
  F  F22  1  0.80431900  0.65287100  0.34196000  1
  F  F23  1  0.53166800  0.71710300  0.23538600  1
  F  F24  1  0.00154300  0.57973500  0.74561700  1
  F  F25  1  0.02989100  0.93201800  0.84435300  1
  F  F26  1  0.55030900  0.16364600  0.26428000  1
  F  F27  1  0.21115400  0.38113100  0.86530900  1
  F  F28  1  0.16997700  0.78884600  0.19864300  1
  F  F29  1  0.27410600  0.60624100  0.05775400  1
  F  F30  1  0.02601800  0.70302000  0.52615700  1
  F  F31  1  0.18543500  0.46833200  0.56872000  1
  F  F32  1  0.61886900  0.83002300  0.53197600  1
loop_
_geom_bond_atom_site_label_1
_geom_bond_atom_site_label_2
_geom_bond_distance
_geom_bond_site_symmetry_2
Ba0 F25 2.650692 1_655
Ba0 F32 2.712414 1_555
Ba0 F8 2.714387 1_665
Ba0 F30 2.725688 1_655
Ba0 F21 2.886510 1_565
Ba0 F10 2.927639 1_555
Ba0 F11 2.940273 1_665
Ba0 F24 2.951626 1_655
Ba0 F15 2.959654 1_555
Ba0 F19 3.084418 1_655
Ba1 F19 2.569401 1_545
Ba1 F10 2.707587 1_555
Ba1 F1 2.752312 1_555
Ba1 F7 2.754355 1_545
Ba1 F13 2.774723 1_556
Ba1 F16 2.818700 1_545
Ba1 F11 2.896336 1_555
Ba2 F4 2.650704 1_546
Ba2 F27 2.712414 1_655
Ba2 F25 2.714387 1_645
Ba2 F7 2.725688 1_545
Ba2 F13 2.886518 1_656
Ba2 F6 2.927639 1_556
Ba2 F0 2.940274 1_646
Ba2 F9 2.951631 1_546
Ba2 F1 2.959654 1_555
Ba2 F12 3.084418 1_546
Ba3 F14 2.569413 1_655
Ba3 F3 2.707587 1_555
Ba3 F15 2.752307 1_555
Ba3 F30 2.754349 1_655
Ba3 F21 2.774717 1_555
Ba3 F31 2.818700 1_655
Ba3 F2 2.896342 1_545
Ba4 F12 2.569408 1_555
Ba4 F6 2.707594 1_555
Ba4 F26 2.752313 1_555
Ba4 F5 2.754348 1_555
Ba4 F22 2.774712 1_555
Ba4 F23 2.818689 1_555
Ba4 F0 2.896348 1_655
Ba5 F8 2.650705 1_555
Ba5 F28 2.712405 1_545
Ba5 F4 2.714377 1_445
Ba5 F5 2.725679 1_555
Ba5 F22 2.886515 1_445
Ba5 F3 2.927649 1_555
Ba5 F2 2.940275 1_445
Ba5 F17 2.951631 1_555
Ba5 F26 2.959650 1_555
Ba5 F14 3.084418 1_555
Co0 F1 1.987269 1_555
Co0 F25 2.010817 1_655
Co0 F24 2.054947 1_655
Co0 F0 2.062208 1_656
Co0 F16 2.225290 1_655
Co0 F10 2.246439 1_555
Co1 F21 2.024885 1_455
Co1 F11 2.025895 1_555
Co1 F24 2.028754 1_555
Co1 F27 2.137282 1_555
Co1 F31 2.148945 1_555
Co1 F20 2.151223 1_555
Co2 F22 2.024885 1_555
Co2 F2 2.025901 1_555
Co2 F17 2.028748 1_555
Co2 F32 2.137285 1_555
Co2 F23 2.148959 1_555
Co2 F18 2.151227 1_555
Co3 F26 1.987269 1_555
Co3 F4 2.010817 1_545
Co3 F9 2.054947 1_545
Co3 F2 2.062208 1_545
Co3 F23 2.225289 1_545
Co3 F6 2.246443 1_555
Co4 F13 2.024885 1_565
Co4 F0 2.025905 1_555
Co4 F9 2.028747 1_555
Co4 F28 2.137284 1_555
Co4 F16 2.148957 1_554
Co4 F29 2.151219 1_555
Co5 F15 1.987269 1_555
Co5 F8 2.010817 1_555
Co5 F17 2.054947 1_555
Co5 F11 2.062208 1_555
Co5 F31 2.225290 1_555
Co5 F3 2.246439 1_555
F3 Y2 2.270240 1_545
F5 Y1 2.171312 1_555
F6 Y1 2.270247 1_655
F7 Y0 2.171306 1_555
F10 Y0 2.270247 1_555
F12 Y0 2.112682 1_554
F14 Y1 2.112669 1_555
F16 Y0 2.216429 1_555
F18 Y2 2.370199 1_555
F18 Y1 2.589119 1_555
F19 Y2 2.112677 1_555
F20 Y0 2.370184 1_555
F20 Y2 2.589133 1_555
F23 Y1 2.216435 1_555
F27 Y0 2.212539 1_555
F28 Y1 2.212534 1_555
F29 Y1 2.370198 1_555
F29 Y0 2.589130 1_554
F30 Y2 2.171305 1_555
F31 Y2 2.216436 1_555
F32 Y2 2.212542 1_555
