# generated using pymatgen
data_UP2H15C5NO13
_symmetry_space_group_name_H-M   'P 1'
_cell_length_a   18.15352900
_cell_length_b   9.20763200
_cell_length_c   13.07418562
_cell_angle_alpha   57.91387184
_cell_angle_beta   90.00000000
_cell_angle_gamma   90.00000000
_symmetry_Int_Tables_number   1
_chemical_formula_structural   UP2H15C5NO13
_chemical_formula_sum   'U4 P8 H60 C20 N4 O52'
_cell_volume   1851.55034175
_cell_formula_units_Z   4
loop_
 _symmetry_equiv_pos_site_id
 _symmetry_equiv_pos_as_xyz
  1  'x, y, z'
loop_
 _atom_site_type_symbol
 _atom_site_label
 _atom_site_symmetry_multiplicity
 _atom_site_fract_x
 _atom_site_fract_y
 _atom_site_fract_z
 _atom_site_occupancy
  U  U0  1  0.08111400  0.26538000  0.73581300  1
  U  U1  1  0.41888600  0.26538000  0.23581300  1
  U  U2  1  0.91888600  0.73462000  0.26418700  1
  U  U3  1  0.58111400  0.73462000  0.76418700  1
  P  P0  1  0.20388300  0.86996000  0.84461800  1
  P  P1  1  0.29611700  0.86996000  0.34461800  1
  P  P2  1  0.79611700  0.13004000  0.15538200  1
  P  P3  1  0.70388300  0.13004000  0.65538200  1
  P  P4  1  0.05110800  0.35614400  0.42142800  1
  P  P5  1  0.44889200  0.35614400  0.92142800  1
  P  P6  1  0.94889200  0.64385600  0.57857200  1
  P  P7  1  0.55110800  0.64385600  0.07857200  1
  H  H0  1  0.21047600  0.71563600  0.64886300  1
  H  H1  1  0.28952400  0.71563600  0.14886300  1
  H  H2  1  0.78952400  0.28436400  0.35113700  1
  H  H3  1  0.71047600  0.28436400  0.85113700  1
  H  H4  1  0.16312200  0.90858100  0.61340100  1
  H  H5  1  0.33687800  0.90858100  0.11340100  1
  H  H6  1  0.83687800  0.09141900  0.38659900  1
  H  H7  1  0.66312200  0.09141900  0.88659900  1
  H  H8  1  0.26211600  0.89622700  0.62671700  1
  H  H9  1  0.23788400  0.89622700  0.12671700  1
  H  H10  1  0.73788400  0.10377300  0.37328300  1
  H  H11  1  0.76211600  0.10377300  0.87328300  1
  H  H12  1  0.39510400  0.88913000  0.87876700  1
  H  H13  1  0.10489600  0.88913000  0.37876700  1
  H  H14  1  0.60489600  0.11087000  0.12123300  1
  H  H15  1  0.89510400  0.11087000  0.62123300  1
  H  H16  1  0.34045700  0.70050300  0.97169800  1
  H  H17  1  0.15954300  0.70050300  0.47169800  1
  H  H18  1  0.65954300  0.29949700  0.02830200  1
  H  H19  1  0.84045700  0.29949700  0.52830200  1
  H  H20  1  0.35568600  0.77697300  0.81470500  1
  H  H21  1  0.14431400  0.77697300  0.31470500  1
  H  H22  1  0.64431400  0.22302700  0.18529500  1
  H  H23  1  0.85568600  0.22302700  0.68529500  1
  H  H24  1  0.11065900  0.59268100  0.11451900  1
  H  H25  1  0.38934100  0.59268100  0.61451900  1
  H  H26  1  0.88934100  0.40731900  0.88548100  1
  H  H27  1  0.61065900  0.40731900  0.38548100  1
  H  H28  1  0.07209800  0.78582300  0.99033700  1
  H  H29  1  0.42790200  0.78582300  0.49033700  1
  H  H30  1  0.92790200  0.21417700  0.00966300  1
  H  H31  1  0.57209800  0.21417700  0.50966300  1
  H  H32  1  0.09235900  0.60737500  0.97369000  1
  H  H33  1  0.40764100  0.60737500  0.47369000  1
  H  H34  1  0.90764100  0.39262500  0.02631000  1
  H  H35  1  0.59235900  0.39262500  0.52631000  1
  H  H36  1  0.23761800  0.42338100  0.33172600  1
  H  H37  1  0.26238200  0.42338100  0.83172600  1
  H  H38  1  0.76238200  0.57661900  0.66827400  1
  H  H39  1  0.73761800  0.57661900  0.16827400  1
  H  H40  1  0.20687700  0.30625600  0.48599800  1
  H  H41  1  0.29312300  0.30625600  0.98599800  1
  H  H42  1  0.79312300  0.69374400  0.51400200  1
  H  H43  1  0.70687700  0.69374400  0.01400200  1
  H  H44  1  0.19160100  0.22328200  0.38978000  1
  H  H45  1  0.30839900  0.22328200  0.88978000  1
  H  H46  1  0.80839900  0.77671800  0.61022000  1
  H  H47  1  0.69160100  0.77671800  0.11022000  1
  H  H48  1  0.00677600  0.07895400  0.32134100  1
  H  H49  1  0.49322400  0.07895400  0.82134100  1
  H  H50  1  0.99322400  0.92104600  0.67865900  1
  H  H51  1  0.50677600  0.92104600  0.17865900  1
  H  H52  1  0.96318300  0.28280600  0.26536900  1
  H  H53  1  0.53681700  0.28280600  0.76536900  1
  H  H54  1  0.03681700  0.71719400  0.73463100  1
  H  H55  1  0.46318300  0.71719400  0.23463100  1
  H  H56  1  0.05877200  0.27241700  0.23406400  1
  H  H57  1  0.44122800  0.27241700  0.73406400  1
  H  H58  1  0.94122800  0.72758300  0.76593600  1
  H  H59  1  0.55877200  0.72758300  0.26593600  1
  C  C0  1  0.21029900  0.82483800  0.66049000  1
  C  C1  1  0.28970100  0.82483800  0.16049000  1
  C  C2  1  0.78970100  0.17516200  0.33951000  1
  C  C3  1  0.71029900  0.17516200  0.83951000  1
  C  C4  1  0.34787100  0.81423800  0.88081400  1
  C  C5  1  0.15212900  0.81423800  0.38081400  1
  C  C6  1  0.65212900  0.18576200  0.11918600  1
  C  C7  1  0.84787100  0.18576200  0.61918600  1
  C  C8  1  0.10911600  0.67764100  0.01631300  1
  C  C9  1  0.39088400  0.67764100  0.51631300  1
  C  C10  1  0.89088400  0.32235900  0.98368700  1
  C  C11  1  0.60911600  0.32235900  0.48368700  1
  C  C12  1  0.19477400  0.33922900  0.39377500  1
  C  C13  1  0.30522600  0.33922900  0.89377500  1
  C  C14  1  0.80522600  0.66077100  0.60622500  1
  C  C15  1  0.69477400  0.66077100  0.10622500  1
  C  C16  1  0.01446900  0.20963900  0.30075000  1
  C  C17  1  0.48553100  0.20963900  0.80075000  1
  C  C18  1  0.98553100  0.79036100  0.69925000  1
  C  C19  1  0.51446900  0.79036100  0.19925000  1
  N  N0  1  0.11115200  0.23554200  0.96873800  1
  N  N1  1  0.38884800  0.23554200  0.46873800  1
  N  N2  1  0.88884800  0.76445800  0.03126200  1
  N  N3  1  0.61115200  0.76445800  0.53126200  1
  O  O0  1  0.16116200  0.40300300  0.67332300  1
  O  O1  1  0.33883800  0.40300300  0.17332300  1
  O  O2  1  0.83883800  0.59699700  0.32667700  1
  O  O3  1  0.66116200  0.59699700  0.82667700  1
  O  O4  1  0.00248100  0.12696500  0.80456000  1
  O  O5  1  0.49751900  0.12696500  0.30456000  1
  O  O6  1  0.99751900  0.87303500  0.19544000  1
  O  O7  1  0.50248100  0.87303500  0.69544000  1
  O  O8  1  0.15420500  0.02248900  0.77831100  1
  O  O9  1  0.34579500  0.02248900  0.27831100  1
  O  O10  1  0.84579500  0.97751100  0.22168900  1
  O  O11  1  0.65420500  0.97751100  0.72168900  1
  O  O12  1  0.20317200  0.75244400  0.78996600  1
  O  O13  1  0.29682800  0.75244400  0.28996600  1
  O  O14  1  0.79682800  0.24755600  0.21003400  1
  O  O15  1  0.70317200  0.24755600  0.71003400  1
  O  O16  1  0.28460600  0.92942600  0.84669300  1
  O  O17  1  0.21539400  0.92942600  0.34669300  1
  O  O18  1  0.71539400  0.07057400  0.15330700  1
  O  O19  1  0.78460600  0.07057400  0.65330700  1
  O  O20  1  0.18436100  0.74112400  0.98098500  1
  O  O21  1  0.31563900  0.74112400  0.48098500  1
  O  O22  1  0.81563900  0.25887600  0.01901500  1
  O  O23  1  0.68436100  0.25887600  0.51901500  1
  O  O24  1  0.05895500  0.28509800  0.55536400  1
  O  O25  1  0.44104500  0.28509800  0.05536400  1
  O  O26  1  0.94104500  0.71490200  0.44463600  1
  O  O27  1  0.55895500  0.71490200  0.94463600  1
  O  O28  1  0.99379600  0.49446800  0.35483900  1
  O  O29  1  0.50620400  0.49446800  0.85483900  1
  O  O30  1  0.00620400  0.50553200  0.64516100  1
  O  O31  1  0.49379600  0.50553200  0.14516100  1
  O  O32  1  0.12648600  0.43647200  0.35114700  1
  O  O33  1  0.37351400  0.43647200  0.85114700  1
  O  O34  1  0.87351400  0.56352800  0.64885300  1
  O  O35  1  0.62648600  0.56352800  0.14885300  1
  O  O36  1  0.03356600  0.19242300  0.41455700  1
  O  O37  1  0.46643400  0.19242300  0.91455700  1
  O  O38  1  0.96643400  0.80757700  0.58544300  1
  O  O39  1  0.53356600  0.80757700  0.08544300  1
  O  O40  1  0.06858500  0.35242700  0.88681800  1
  O  O41  1  0.43141500  0.35242700  0.38681800  1
  O  O42  1  0.93141500  0.64757300  0.11318200  1
  O  O43  1  0.56858500  0.64757300  0.61318200  1
  O  O44  1  0.13936300  0.13251100  0.94061500  1
  O  O45  1  0.36063700  0.13251100  0.44061500  1
  O  O46  1  0.86063700  0.86748900  0.05938500  1
  O  O47  1  0.63936300  0.86748900  0.55938500  1
  O  O48  1  0.12399700  0.22439000  0.06457400  1
  O  O49  1  0.37600300  0.22439000  0.56457400  1
  O  O50  1  0.87600300  0.77561000  0.93542600  1
  O  O51  1  0.62399700  0.77561000  0.43542600  1
loop_
_geom_bond_atom_site_label_1
_geom_bond_atom_site_label_2
_geom_bond_distance
_geom_bond_site_symmetry_2
C0 H0 1.093854 1_555
C0 H4 1.096688 1_555
C0 H8 1.097058 1_555
C0 O12 1.458712 1_555
C1 H1 1.093854 1_555
C1 H5 1.096688 1_555
C1 H9 1.097058 1_555
C1 O13 1.458712 1_555
C2 H2 1.093854 1_555
C2 H6 1.096688 1_555
C2 H10 1.097058 1_555
C2 O14 1.458712 1_555
C3 H3 1.093854 1_555
C3 H7 1.096688 1_555
C3 H11 1.097058 1_555
C3 O15 1.458712 1_555
C4 H12 1.091715 1_555
C4 H20 1.095437 1_555
C4 H16 1.097597 1_555
C4 O16 1.462960 1_555
C5 H13 1.091715 1_555
C5 H21 1.095437 1_555
C5 H17 1.097597 1_555
C5 O17 1.462960 1_555
C6 H14 1.091715 1_555
C6 H22 1.095437 1_555
C6 H18 1.097597 1_555
C6 O18 1.462960 1_555
C7 H15 1.091715 1_555
C7 H23 1.095437 1_555
C7 H19 1.097597 1_555
C7 O19 1.462960 1_555
C8 H24 1.092807 1_555
C8 H28 1.095332 1_554
C8 H32 1.097586 1_554
C8 O20 1.460834 1_554
C9 H25 1.092807 1_555
C9 H29 1.095332 1_555
C9 H33 1.097586 1_555
C9 O21 1.460834 1_555
C10 H26 1.092807 1_555
C10 H30 1.095332 1_556
C10 H34 1.097586 1_556
C10 O22 1.460834 1_556
C11 H27 1.092807 1_555
C11 H31 1.095332 1_555
C11 H35 1.097586 1_555
C11 O23 1.460834 1_555
C12 H36 1.093443 1_555
C12 H44 1.097748 1_555
C12 H40 1.097886 1_555
C12 O32 1.455658 1_555
C13 H37 1.093443 1_555
C13 H45 1.097748 1_555
C13 H41 1.097886 1_555
C13 O33 1.455658 1_555
C14 H38 1.093443 1_555
C14 H46 1.097748 1_555
C14 H42 1.097886 1_555
C14 O34 1.455658 1_555
C15 H39 1.093443 1_555
C15 H47 1.097748 1_555
C15 H43 1.097886 1_555
C15 O35 1.455658 1_555
C16 H48 1.093507 1_555
C16 H52 1.097072 1_455
C16 H56 1.098040 1_555
C16 O36 1.452130 1_555
C17 H49 1.093507 1_555
C17 H53 1.097072 1_555
C17 H57 1.098040 1_555
C17 O37 1.452130 1_555
C18 H50 1.093507 1_555
C18 H54 1.097072 1_655
C18 H58 1.098040 1_555
C18 O38 1.452130 1_555
C19 H51 1.093507 1_555
C19 H55 1.097072 1_555
C19 H59 1.098040 1_555
C19 O39 1.452130 1_555
N0 O48 1.224003 1_556
N0 O44 1.291519 1_555
N0 O40 1.295349 1_555
N1 O49 1.224003 1_555
N1 O45 1.291519 1_555
N1 O41 1.295349 1_555
N2 O50 1.224003 1_554
N2 O46 1.291519 1_555
N2 O42 1.295349 1_555
N3 O51 1.224003 1_555
N3 O47 1.291519 1_555
N3 O43 1.295349 1_555
O0 U0 1.812463 1_555
O1 U1 1.812463 1_555
O2 U2 1.812463 1_555
O3 U3 1.812463 1_555
O4 U0 1.803560 1_555
O5 U1 1.803560 1_555
O6 U2 1.803560 1_555
O7 U3 1.803560 1_555
O8 P0 1.497927 1_545
O8 U0 2.398090 1_555
O9 P1 1.497927 1_545
O9 U1 2.398090 1_555
O10 P2 1.497927 1_565
O10 U2 2.398090 1_555
O11 P3 1.497927 1_565
O11 U3 2.398090 1_555
O12 P0 1.582064 1_555
O13 P1 1.582064 1_555
O14 P2 1.582064 1_555
O15 P3 1.582064 1_555
O16 P0 1.569629 1_555
O17 P1 1.569629 1_555
O18 P2 1.569629 1_555
O19 P3 1.569629 1_555
O20 P0 1.569900 1_555
O21 P1 1.569900 1_555
O22 P2 1.569900 1_555
O23 P3 1.569900 1_555
O24 P4 1.515788 1_555
O24 U0 2.303402 1_555
O25 P5 1.515788 1_554
O25 U1 2.303402 1_555
O26 P6 1.515788 1_555
O26 U2 2.303402 1_555
O27 P7 1.515788 1_556
O27 U3 2.303402 1_555
O28 P4 1.511474 1_655
O28 U2 2.315009 1_555
O29 P5 1.511474 1_555
O29 U3 2.315009 1_555
O30 P6 1.511474 1_455
O30 U0 2.315009 1_555
O31 P7 1.511474 1_555
O31 U1 2.315009 1_555
O32 P4 1.594303 1_555
O33 P5 1.594303 1_555
O34 P6 1.594303 1_555
O35 P7 1.594303 1_555
O36 P4 1.589293 1_555
O37 P5 1.589293 1_555
O38 P6 1.589293 1_555
O39 P7 1.589293 1_555
O40 U0 2.504585 1_555
O41 U1 2.504585 1_555
O42 U2 2.504585 1_555
O43 U3 2.504585 1_555
O44 U0 2.510843 1_555
O45 U1 2.510843 1_555
O46 U2 2.510843 1_555
O47 U3 2.510843 1_555
