# generated using pymatgen
data_InRh3PbS2
_symmetry_space_group_name_H-M   'P 1'
_cell_length_a   5.72801019
_cell_length_b   5.72801019
_cell_length_c   5.72801027
_cell_angle_alpha   60.18852155
_cell_angle_beta   60.18852155
_cell_angle_gamma   60.18851678
_symmetry_Int_Tables_number   1
_chemical_formula_structural   InRh3PbS2
_chemical_formula_sum   'In1 Rh3 Pb1 S2'
_cell_volume   133.45856746
_cell_formula_units_Z   1
loop_
 _symmetry_equiv_pos_site_id
 _symmetry_equiv_pos_as_xyz
  1  'x, y, z'
loop_
 _atom_site_type_symbol
 _atom_site_label
 _atom_site_symmetry_multiplicity
 _atom_site_fract_x
 _atom_site_fract_y
 _atom_site_fract_z
 _atom_site_occupancy
  In  In0  1  0.00000000  0.00000000  0.00000000  1
  Rh  Rh0  1  0.50000000  0.50000000  0.00000000  1
  Rh  Rh1  1  0.00000000  0.50000000  0.50000000  1
  Rh  Rh2  1  0.50000000  0.00000000  0.50000000  1
  Pb  Pb0  1  0.50000000  0.50000000  0.50000000  1
  S  S0  1  0.78172600  0.78172600  0.78172600  1
  S  S1  1  0.21827400  0.21827400  0.21827400  1
loop_
_geom_bond_atom_site_label_1
_geom_bond_atom_site_label_2
_geom_bond_distance
_geom_bond_site_symmetry_2
In0 Rh0 2.872162 1_455
In0 Rh0 2.872162 1_545
In0 Rh2 2.872162 1_554
In0 Rh1 2.872162 1_545
In0 Rh1 2.872162 1_554
In0 Rh2 2.872162 1_455
In0 S0 3.058167 1_444
In0 S1 3.058167 1_555
Rh0 S0 2.312684 1_554
Rh0 S1 2.312684 1_555
Rh1 S0 2.312684 1_455
Rh1 S1 2.312684 1_555
Rh2 S0 2.312684 1_545
Rh2 S1 2.312684 1_555
Pb0 Rh1 2.864005 1_655
Pb0 Rh2 2.864005 1_555
Pb0 Rh2 2.864005 1_565
Pb0 Rh1 2.864005 1_555
Pb0 Rh0 2.864005 1_555
Pb0 Rh0 2.864005 1_556
