# generated using pymatgen
data_Sr2VO4
_symmetry_space_group_name_H-M   'P 1'
_cell_length_a   3.79817389
_cell_length_b   3.79817404
_cell_length_c   6.89343829
_cell_angle_alpha   105.99134684
_cell_angle_beta   105.99135098
_cell_angle_gamma   89.99999265
_symmetry_Int_Tables_number   1
_chemical_formula_structural   Sr2VO4
_chemical_formula_sum   'Sr2 V1 O4'
_cell_volume   91.58762680
_cell_formula_units_Z   1
loop_
 _symmetry_equiv_pos_site_id
 _symmetry_equiv_pos_as_xyz
  1  'x, y, z'
loop_
 _atom_site_type_symbol
 _atom_site_label
 _atom_site_symmetry_multiplicity
 _atom_site_fract_x
 _atom_site_fract_y
 _atom_site_fract_z
 _atom_site_occupancy
  Sr  Sr0  1  0.64641963  0.64642063  0.29283926  1
  Sr  Sr1  1  0.35358137  0.35357937  0.70715974  1
  V  V0  1  -0.00000000  -0.00000000  0.00000000  1
  O  O0  1  0.84239573  0.84239773  0.68479346  1
  O  O1  1  0.15760327  0.15760327  0.31520654  1
  O  O2  1  0.50000100  -0.00000000  0.00000000  1
  O  O3  1  0.00000100  0.50000000  0.00000000  1
loop_
_geom_bond_atom_site_label_1
_geom_bond_atom_site_label_2
_geom_bond_distance
_geom_bond_site_symmetry_2
O0 V0 2.001162 1_666
O0 Sr0 2.488413 1_555
O0 Sr1 2.689455 1_565
O0 Sr1 2.689463 1_555
O0 Sr1 2.689469 1_665
O0 Sr1 2.689476 1_655
O1 V0 2.001162 1_555
O1 Sr1 2.488406 1_555
O1 Sr0 2.689463 1_545
O1 Sr0 2.689464 1_445
O1 Sr0 2.689469 1_455
O1 Sr0 2.689469 1_555
O2 V0 1.899083 1_655
O2 V0 1.899091 1_555
O2 Sr0 2.657628 1_545
O2 Sr0 2.657633 1_555
O2 Sr1 2.657634 1_554
O2 Sr1 2.657636 1_544
O3 V0 1.899087 1_565
O3 V0 1.899087 1_555
O3 Sr0 2.657628 1_555
O3 Sr1 2.657634 1_454
O3 Sr0 2.657634 1_455
O3 Sr1 2.657637 1_554
