# generated using pymatgen
data_ThMn3Al2
_symmetry_space_group_name_H-M   'P 1'
_cell_length_a   5.14216110
_cell_length_b   5.14216110
_cell_length_c   4.19511600
_cell_angle_alpha   90.00000000
_cell_angle_beta   90.00000000
_cell_angle_gamma   115.86883354
_symmetry_Int_Tables_number   1
_chemical_formula_structural   ThMn3Al2
_chemical_formula_sum   'Th1 Mn3 Al2'
_cell_volume   99.81114231
_cell_formula_units_Z   1
loop_
 _symmetry_equiv_pos_site_id
 _symmetry_equiv_pos_as_xyz
  1  'x, y, z'
loop_
 _atom_site_type_symbol
 _atom_site_label
 _atom_site_symmetry_multiplicity
 _atom_site_fract_x
 _atom_site_fract_y
 _atom_site_fract_z
 _atom_site_occupancy
  Th  Th0  1  0.50000000  0.50000000  0.00000000  1
  Mn  Mn0  1  0.15340800  0.84659200  0.00000000  1
  Mn  Mn1  1  0.84659200  0.15340800  0.00000000  1
  Mn  Mn2  1  0.00000000  0.00000000  0.50000000  1
  Al  Al0  1  0.00000000  0.50000000  0.50000000  1
  Al  Al1  1  0.50000000  0.00000000  0.50000000  1
loop_
_geom_bond_atom_site_label_1
_geom_bond_atom_site_label_2
_geom_bond_distance
_geom_bond_site_symmetry_2
Mn0 Mn2 2.487435 1_564
Mn0 Mn2 2.487435 1_565
Mn0 Mn1 2.674011 1_465
Mn0 Th0 3.020673 1_555
Mn0 Th0 3.039744 1_565
Mn0 Th0 3.039744 1_455
Mn1 Mn2 2.487435 1_654
Mn1 Mn2 2.487435 1_655
Mn1 Th0 3.020673 1_555
Mn1 Th0 3.039744 1_545
Mn1 Th0 3.039744 1_655
Mn2 Th0 3.442704 1_556
Mn2 Th0 3.442704 1_555
Mn2 Th0 3.442704 1_445
Mn2 Th0 3.442704 1_446
Al0 Mn2 2.571081 1_565
Al0 Mn2 2.571081 1_555
Al0 Mn1 2.640369 1_455
Al0 Mn1 2.640369 1_456
Al0 Mn0 2.640369 1_556
Al0 Mn0 2.640369 1_555
Al0 Al1 2.729920 1_565
Al0 Al1 2.729920 1_455
Al0 Th0 3.318163 1_555
Al0 Th0 3.318163 1_556
Al0 Th0 3.318163 1_455
Al0 Th0 3.318163 1_456
Al1 Mn2 2.571081 1_655
Al1 Mn2 2.571081 1_555
Al1 Mn1 2.640369 1_555
Al1 Mn1 2.640369 1_556
Al1 Mn0 2.640369 1_546
Al1 Mn0 2.640369 1_545
Al1 Th0 3.318163 1_555
Al1 Th0 3.318163 1_545
Al1 Th0 3.318163 1_546
Al1 Th0 3.318163 1_556
