# generated using pymatgen
data_Li2TiFeO4
_symmetry_space_group_name_H-M   'P 1'
_cell_length_a   5.80985339
_cell_length_b   7.88145366
_cell_length_c   7.88014696
_cell_angle_alpha   69.73988820
_cell_angle_beta   68.50376996
_cell_angle_gamma   68.51432781
_symmetry_Int_Tables_number   1
_chemical_formula_structural   Li2TiFeO4
_chemical_formula_sum   'Li8 Ti4 Fe4 O16'
_cell_volume   302.88678994
_cell_formula_units_Z   4
loop_
 _symmetry_equiv_pos_site_id
 _symmetry_equiv_pos_as_xyz
  1  'x, y, z'
loop_
 _atom_site_type_symbol
 _atom_site_label
 _atom_site_symmetry_multiplicity
 _atom_site_fract_x
 _atom_site_fract_y
 _atom_site_fract_z
 _atom_site_occupancy
  Li  Li0  1  0.12335300  0.87520600  0.37566500  1
  Li  Li1  1  0.37718800  0.12490000  0.62540200  1
  Li  Li2  1  0.62634600  0.37616000  0.87357900  1
  Li  Li3  1  0.87314600  0.62512500  0.12385600  1
  Li  Li4  1  0.49977700  0.50068500  0.50144700  1
  Li  Li5  1  0.74955600  0.74934000  0.75022600  1
  Li  Li6  1  0.00207900  0.99826700  0.99926300  1
  Li  Li7  1  0.24882400  0.25005200  0.25080300  1
  Ti  Ti0  1  0.49988600  0.00105700  0.00006300  1
  Ti  Ti1  1  0.75119000  0.25046500  0.24907100  1
  Ti  Ti2  1  0.00070500  0.50060300  0.49883400  1
  Ti  Ti3  1  0.25074800  0.75069100  0.74942900  1
  Fe  Fe0  1  0.12734300  0.37196700  0.87702200  1
  Fe  Fe1  1  0.37106900  0.62222100  0.12852700  1
  Fe  Fe2  1  0.62326200  0.87847600  0.37095600  1
  Fe  Fe3  1  0.87821600  0.12556200  0.62514600  1
  O  O0  1  0.25556300  0.96638200  0.53196100  1
  O  O1  1  0.50566300  0.21282800  0.78235400  1
  O  O2  1  0.75029800  0.46352000  0.03587100  1
  O  O3  1  0.98791700  0.71998300  0.28672700  1
  O  O4  1  0.49666000  0.78018400  0.21206500  1
  O  O5  1  0.74899400  0.03841200  0.46683700  1
  O  O6  1  0.00300700  0.28524800  0.71790800  1
  O  O7  1  0.25034800  0.53268200  0.96699900  1
  O  O8  1  0.12634100  0.12450100  0.12513800  1
  O  O9  1  0.37187100  0.37650500  0.37464100  1
  O  O10  1  0.62401900  0.62423000  0.62614000  1
  O  O11  1  0.87702000  0.87491100  0.87463600  1
  O  O12  1  0.37346000  0.87491600  0.87422700  1
  O  O13  1  0.62365400  0.12391400  0.12529100  1
  O  O14  1  0.87679300  0.37526400  0.37543200  1
  O  O15  1  0.12570500  0.62574800  0.62448300  1
loop_
_geom_bond_atom_site_label_1
_geom_bond_atom_site_label_2
_geom_bond_distance
_geom_bond_site_symmetry_2
Li0 O3 2.076087 1_455
Li0 O0 2.081815 1_555
Li0 O5 2.084866 1_465
Li0 O4 2.087214 1_555
Li0 O15 2.245057 1_555
Li0 O8 2.252037 1_565
Li1 O1 2.053334 1_555
Li1 O5 2.055541 1_555
Li1 O0 2.065796 1_545
Li1 O6 2.078119 1_555
Li1 O12 2.247570 1_545
Li1 O9 2.263636 1_555
Li2 O2 2.067906 1_556
Li2 O6 2.073598 1_655
Li2 O7 2.076553 1_555
Li2 O1 2.082540 1_555
Li2 O10 2.232589 1_555
Li2 O13 2.270687 1_556
Li3 O2 2.062177 1_555
Li3 O4 2.068081 1_555
Li3 O3 2.075504 1_555
Li3 O7 2.080898 1_654
Li3 O11 2.248440 1_554
Li3 O14 2.259436 1_555
Li4 O10 2.032721 1_555
Li4 O15 2.045285 1_555
Li4 O14 2.064152 1_555
Li4 O9 2.064682 1_555
Li4 O1 2.562975 1_555
Li4 O4 2.564189 1_555
Li5 O10 2.043922 1_555
Li5 O15 2.056356 1_655
Li5 O12 2.056615 1_555
Li5 O11 2.056679 1_555
Li5 O2 2.574783 1_556
Li5 O5 2.579517 1_565
Li6 O11 2.034522 1_455
Li6 O12 2.034755 1_555
Li6 O8 2.056546 1_566
Li6 O13 2.070448 1_466
Li6 O3 2.550166 1_456
Li6 O6 2.560985 1_565
Li7 O14 2.040397 1_455
Li7 O9 2.040444 1_555
Li7 O8 2.043784 1_555
Li7 O13 2.055602 1_555
Li7 O0 2.545124 1_545
Li7 O7 2.552124 1_554
Fe0 O6 2.044517 1_555
Fe0 O7 2.067447 1_555
Fe0 O2 2.084281 1_456
Fe0 O1 2.094666 1_555
Fe0 O8 2.232888 1_556
Fe0 O15 2.281285 1_555
Fe1 O4 2.025044 1_555
Fe1 O7 2.061327 1_554
Fe1 O2 2.094453 1_555
Fe1 O3 2.116154 1_455
Fe1 O9 2.215986 1_555
Fe1 O12 2.284339 1_554
Fe2 O3 2.023460 1_555
Fe2 O0 2.047335 1_555
Fe2 O5 2.105235 1_565
Fe2 O4 2.114945 1_555
Fe2 O13 2.212703 1_565
Fe2 O10 2.295292 1_555
Fe3 O1 2.055995 1_555
Fe3 O5 2.061374 1_555
Fe3 O6 2.082768 1_655
Fe3 O0 2.088749 1_645
Fe3 O14 2.250173 1_555
Fe3 O11 2.253458 1_545
O0 Ti3 1.951787 1_555
O1 Ti0 1.935419 1_556
O2 Ti1 1.920533 1_555
O3 Ti2 1.945299 1_655
O4 Ti0 1.951539 1_565
O5 Ti1 1.936860 1_555
O6 Ti2 1.957617 1_555
O7 Ti3 1.962540 1_555
O8 Ti0 2.043940 1_555
O8 Ti1 2.053364 1_455
O9 Ti2 2.033662 1_555
O9 Ti1 2.074015 1_555
O10 Ti3 2.045353 1_555
O10 Ti2 2.061833 1_655
O11 Ti3 2.046526 1_655
O11 Ti0 2.064918 1_566
O12 Ti3 2.031254 1_555
O12 Ti0 2.064619 1_566
O13 Ti0 2.029856 1_555
O13 Ti1 2.059150 1_555
O14 Ti2 2.034463 1_655
O14 Ti1 2.056237 1_555
O15 Ti3 2.046131 1_555
O15 Ti2 2.051504 1_555
