# generated using pymatgen
data_NaMg6Fe
_symmetry_space_group_name_H-M   'P 1'
_cell_length_a   4.96862700
_cell_length_b   6.31922600
_cell_length_c   10.70188900
_cell_angle_alpha   90.00000000
_cell_angle_beta   90.00000000
_cell_angle_gamma   90.00000000
_symmetry_Int_Tables_number   1
_chemical_formula_structural   NaMg6Fe
_chemical_formula_sum   'Na2 Mg12 Fe2'
_cell_volume   336.01659366
_cell_formula_units_Z   2
loop_
 _symmetry_equiv_pos_site_id
 _symmetry_equiv_pos_as_xyz
  1  'x, y, z'
loop_
 _atom_site_type_symbol
 _atom_site_label
 _atom_site_symmetry_multiplicity
 _atom_site_fract_x
 _atom_site_fract_y
 _atom_site_fract_z
 _atom_site_occupancy
  Na  Na0  1  0.50000000  0.50000000  0.16598200  1
  Na  Na1  1  0.50000000  0.00000000  0.66598200  1
  Mg  Mg0  1  0.00000000  0.24508100  0.08159700  1
  Mg  Mg1  1  0.00000000  0.75491900  0.08159700  1
  Mg  Mg2  1  0.00000000  0.50000000  0.83670100  1
  Mg  Mg3  1  0.50000000  0.22956700  0.90553100  1
  Mg  Mg4  1  0.50000000  0.77043300  0.90553100  1
  Mg  Mg5  1  0.50000000  0.50000000  0.66418100  1
  Mg  Mg6  1  0.00000000  0.74508100  0.58159700  1
  Mg  Mg7  1  0.00000000  0.25491900  0.58159700  1
  Mg  Mg8  1  0.00000000  0.00000000  0.33670100  1
  Mg  Mg9  1  0.50000000  0.72956700  0.40553100  1
  Mg  Mg10  1  0.50000000  0.27043300  0.40553100  1
  Mg  Mg11  1  0.50000000  0.00000000  0.16418100  1
  Fe  Fe0  1  0.00000000  0.50000000  0.35888000  1
  Fe  Fe1  1  0.00000000  0.00000000  0.85888000  1
loop_
_geom_bond_atom_site_label_1
_geom_bond_atom_site_label_2
_geom_bond_distance
_geom_bond_site_symmetry_2
Mg0 Mg11 3.058017 1_455
Mg0 Mg11 3.058017 1_555
Mg0 Mg2 3.076333 1_554
Mg0 Na0 3.095535 1_555
Mg0 Na0 3.095535 1_455
Mg0 Mg1 3.097444 1_545
Mg0 Mg3 3.119580 1_454
Mg0 Mg3 3.119580 1_554
Mg0 Mg8 3.138783 1_555
Mg0 Mg1 3.221782 1_555
Mg1 Mg11 3.058017 1_565
Mg1 Mg11 3.058017 1_465
Mg1 Mg2 3.076333 1_554
Mg1 Na0 3.095535 1_555
Mg1 Na0 3.095535 1_455
Mg1 Mg4 3.119580 1_554
Mg1 Mg4 3.119580 1_454
Mg1 Mg8 3.138783 1_565
Mg2 Mg5 3.095254 1_555
Mg2 Mg5 3.095254 1_455
Mg2 Mg3 3.104004 1_455
Mg2 Mg4 3.104004 1_455
Mg2 Mg3 3.104004 1_555
Mg2 Mg4 3.104004 1_555
Mg2 Mg6 3.138783 1_555
Mg2 Mg7 3.138783 1_555
Mg3 Mg4 2.901372 1_545
Mg3 Na1 2.945619 1_555
Mg3 Mg5 3.097065 1_555
Mg3 Na0 3.269491 1_556
Mg3 Mg4 3.417854 1_555
Mg4 Na1 2.945619 1_565
Mg4 Mg5 3.097065 1_555
Mg4 Na0 3.269491 1_556
Mg5 Mg7 3.058017 1_555
Mg5 Mg6 3.058017 1_655
Mg5 Mg7 3.058017 1_655
Mg5 Mg6 3.058017 1_555
Mg5 Mg9 3.125149 1_555
Mg5 Na1 3.159672 1_555
Mg5 Na1 3.159672 1_565
Mg6 Mg8 3.076333 1_565
Mg6 Na1 3.095535 1_465
Mg6 Na1 3.095535 1_565
Mg6 Mg7 3.097444 1_555
Mg6 Mg9 3.119580 1_455
Mg6 Mg9 3.119580 1_555
Mg6 Mg7 3.221782 1_565
Mg7 Mg8 3.076333 1_555
Mg7 Na1 3.095535 1_455
Mg7 Na1 3.095535 1_555
Mg8 Mg9 3.104004 1_445
Mg8 Mg9 3.104004 1_545
Mg9 Na0 2.945619 1_555
Mg9 Na1 3.269491 1_565
Mg10 Mg9 2.901372 1_555
Mg10 Na0 2.945619 1_555
Mg10 Mg11 3.097065 1_555
Mg10 Mg8 3.104004 1_555
Mg10 Mg8 3.104004 1_655
Mg10 Mg7 3.119580 1_555
Mg10 Mg7 3.119580 1_655
Mg10 Mg5 3.125149 1_555
Mg10 Na1 3.269491 1_555
Mg10 Mg9 3.417854 1_545
Mg11 Mg8 3.095254 1_655
Mg11 Mg8 3.095254 1_555
Mg11 Mg9 3.097065 1_545
Mg11 Mg4 3.125149 1_544
Mg11 Mg3 3.125149 1_554
Mg11 Na0 3.159672 1_545
Mg11 Na0 3.159672 1_555
Fe0 Mg7 2.842460 1_555
Fe0 Mg6 2.842460 1_555
Fe0 Mg9 2.919856 1_455
Fe0 Mg9 2.919856 1_555
Fe0 Mg10 2.919856 1_455
Fe0 Mg10 2.919856 1_555
Fe0 Mg8 3.168516 1_555
Fe0 Mg8 3.168516 1_565
Fe0 Na0 3.230085 1_555
Fe0 Na0 3.230085 1_455
Fe0 Mg1 3.376498 1_555
Fe0 Mg0 3.376498 1_555
Fe1 Mg1 2.842460 1_546
Fe1 Mg0 2.842460 1_556
Fe1 Mg4 2.919856 1_545
Fe1 Mg4 2.919856 1_445
Fe1 Mg3 2.919856 1_455
Fe1 Mg3 2.919856 1_555
Fe1 Mg2 3.168516 1_555
Fe1 Mg2 3.168516 1_545
Fe1 Na1 3.230085 1_455
Fe1 Na1 3.230085 1_555
Fe1 Mg6 3.376498 1_545
Fe1 Mg7 3.376498 1_555
