# generated using pymatgen
data_Na2ZrSi6O19
_symmetry_space_group_name_H-M   'P 1'
_cell_length_a   7.57185240
_cell_length_b   7.57185240
_cell_length_c   7.50405546
_cell_angle_alpha   86.74163476
_cell_angle_beta   86.74163476
_cell_angle_gamma   88.27279176
_symmetry_Int_Tables_number   1
_chemical_formula_structural   Na2ZrSi6O19
_chemical_formula_sum   'Na2 Zr1 Si6 O19'
_cell_volume   428.68340709
_cell_formula_units_Z   1
loop_
 _symmetry_equiv_pos_site_id
 _symmetry_equiv_pos_as_xyz
  1  'x, y, z'
loop_
 _atom_site_type_symbol
 _atom_site_label
 _atom_site_symmetry_multiplicity
 _atom_site_fract_x
 _atom_site_fract_y
 _atom_site_fract_z
 _atom_site_occupancy
  Na  Na0  1  0.49431600  0.00957800  0.00180200  1
  Na  Na1  1  0.99042200  0.50568400  0.99819800  1
  Zr  Zr0  1  0.00166400  0.99833600  0.00000000  1
  Si  Si0  1  0.29530000  0.73978300  0.28478100  1
  Si  Si1  1  0.26021700  0.70470000  0.71521900  1
  Si  Si2  1  0.71553900  0.70549300  0.27949100  1
  Si  Si3  1  0.29450700  0.28446100  0.72050900  1
  Si  Si4  1  0.73968500  0.27821500  0.28954700  1
  Si  Si5  1  0.72178500  0.26031500  0.71045300  1
  O  O0  1  0.83775400  0.80954600  0.12777900  1
  O  O1  1  0.19045400  0.16224600  0.87222100  1
  O  O2  1  0.01505500  0.98494500  0.50000000  1
  O  O3  1  0.90034800  0.19343300  0.16693100  1
  O  O4  1  0.80656700  0.09965200  0.83306900  1
  O  O5  1  0.19896600  0.90562000  0.17908100  1
  O  O6  1  0.09438000  0.80103400  0.82091900  1
  O  O7  1  0.77005500  0.22994500  0.50000000  1
  O  O8  1  0.55461100  0.20171100  0.22843400  1
  O  O9  1  0.79828900  0.44538900  0.77156600  1
  O  O10  1  0.26012600  0.73987400  0.50000000  1
  O  O11  1  0.74817200  0.49345600  0.25411900  1
  O  O12  1  0.50654400  0.25182800  0.74588100  1
  O  O13  1  0.42837200  0.78809700  0.80405000  1
  O  O14  1  0.21190300  0.57162800  0.19595000  1
  O  O15  1  0.50849500  0.75650400  0.24072400  1
  O  O16  1  0.24349600  0.49150500  0.75927600  1
  O  O17  1  0.75182100  0.75384000  0.48560100  1
  O  O18  1  0.24616000  0.24817900  0.51439900  1
loop_
_geom_bond_atom_site_label_1
_geom_bond_atom_site_label_2
_geom_bond_distance
_geom_bond_site_symmetry_2
Na0 O8 2.372062 1_555
Na0 O13 2.383571 1_544
Na0 O15 2.552815 1_545
Na0 O12 2.578925 1_554
Na0 O5 2.653200 1_545
Na0 O4 2.705015 1_554
Na0 O1 2.746217 1_554
Na1 O9 2.372062 1_555
Na1 O14 2.383571 1_656
Na1 O16 2.552815 1_655
Na1 O11 2.578925 1_556
Na1 O6 2.653200 1_655
Na1 O3 2.705015 1_556
Na1 O0 2.746217 1_556
O0 Si2 1.611026 1_555
O0 Zr0 2.078231 1_655
O1 Si3 1.611026 1_555
O1 Zr0 2.078231 1_546
O3 Si4 1.622178 1_555
O3 Zr0 2.091108 1_645
O4 Si5 1.622178 1_555
O4 Zr0 2.091108 1_646
O5 Si0 1.623359 1_555
O5 Zr0 2.142044 1_555
O6 Si1 1.623359 1_555
O6 Zr0 2.142044 1_556
O7 Si4 1.628220 1_555
O7 Si5 1.628220 1_555
O8 Si4 1.631518 1_555
O9 Si5 1.631518 1_555
O10 Si0 1.621859 1_555
O10 Si1 1.621859 1_555
O11 Si2 1.637212 1_555
O11 Si4 1.638928 1_555
O12 Si3 1.637212 1_555
O12 Si5 1.638928 1_555
O13 Si1 1.630047 1_555
O14 Si0 1.630047 1_555
O15 Si0 1.636499 1_555
O15 Si2 1.641368 1_555
O16 Si1 1.636499 1_555
O16 Si3 1.641368 1_555
O17 Si2 1.649355 1_555
O18 Si3 1.649355 1_555
