# generated using pymatgen
data_KMg6Cu
_symmetry_space_group_name_H-M   'P 1'
_cell_length_a   4.95282200
_cell_length_b   6.35393700
_cell_length_c   12.82753300
_cell_angle_alpha   90.00000000
_cell_angle_beta   90.00000000
_cell_angle_gamma   90.00000000
_symmetry_Int_Tables_number   1
_chemical_formula_structural   KMg6Cu
_chemical_formula_sum   'K2 Mg12 Cu2'
_cell_volume   403.68142397
_cell_formula_units_Z   2
loop_
 _symmetry_equiv_pos_site_id
 _symmetry_equiv_pos_as_xyz
  1  'x, y, z'
loop_
 _atom_site_type_symbol
 _atom_site_label
 _atom_site_symmetry_multiplicity
 _atom_site_fract_x
 _atom_site_fract_y
 _atom_site_fract_z
 _atom_site_occupancy
  K  K0  1  0.50000000  0.50000000  0.19820400  1
  K  K1  1  0.50000000  0.00000000  0.69820400  1
  Mg  Mg0  1  0.00000000  0.75716000  0.05444700  1
  Mg  Mg1  1  0.00000000  0.24284000  0.05444700  1
  Mg  Mg2  1  0.00000000  0.00000000  0.31554400  1
  Mg  Mg3  1  0.50000000  0.25249100  0.42163400  1
  Mg  Mg4  1  0.50000000  0.74750900  0.42163400  1
  Mg  Mg5  1  0.50000000  0.00000000  0.14967800  1
  Mg  Mg6  1  0.00000000  0.25716000  0.55444700  1
  Mg  Mg7  1  0.00000000  0.74284000  0.55444700  1
  Mg  Mg8  1  0.00000000  0.50000000  0.81554400  1
  Mg  Mg9  1  0.50000000  0.75249100  0.92163400  1
  Mg  Mg10  1  0.50000000  0.24750900  0.92163400  1
  Mg  Mg11  1  0.50000000  0.50000000  0.64967800  1
  Cu  Cu0  1  0.00000000  0.50000000  0.38441200  1
  Cu  Cu1  1  0.00000000  0.00000000  0.88441200  1
loop_
_geom_bond_atom_site_label_1
_geom_bond_atom_site_label_2
_geom_bond_distance
_geom_bond_site_symmetry_2
K0 Mg5 3.237375 1_555
K0 Mg5 3.237375 1_565
K0 Mg3 3.269178 1_555
K0 Mg4 3.269178 1_555
K0 Mg0 3.493281 1_655
K0 Mg1 3.493281 1_555
K0 Mg1 3.493281 1_655
K0 Mg0 3.493281 1_555
K0 Mg9 3.893593 1_554
K0 Mg10 3.893593 1_554
K1 Mg11 3.237375 1_555
K1 Mg11 3.237375 1_545
K1 Mg9 3.269178 1_545
K1 Mg10 3.269178 1_555
K1 Mg6 3.493281 1_655
K1 Mg6 3.493281 1_555
K1 Mg7 3.493281 1_545
K1 Mg7 3.493281 1_645
K1 Mg4 3.893593 1_545
K1 Mg3 3.893593 1_555
Mg0 Mg9 3.005987 1_554
Mg0 Mg9 3.005987 1_454
Mg1 Mg10 3.005987 1_454
Mg1 Mg10 3.005987 1_554
Mg2 Mg4 3.249370 1_445
Mg2 Mg3 3.249370 1_555
Mg2 Mg4 3.249370 1_545
Mg2 Mg3 3.249370 1_455
Mg3 Mg6 3.005987 1_655
Mg3 Mg6 3.005987 1_555
Mg3 Mg4 3.145313 1_555
Mg3 Mg4 3.208624 1_545
Mg4 Mg7 3.005987 1_655
Mg4 Mg7 3.005987 1_555
Mg5 Mg9 3.321188 1_544
Mg8 Mg9 3.249370 1_555
Mg8 Mg9 3.249370 1_455
Mg10 Mg9 3.145313 1_545
Mg10 Mg9 3.208624 1_555
Mg10 Mg8 3.249370 1_555
Mg10 Mg8 3.249370 1_655
Mg10 Mg5 3.321188 1_556
Mg11 Mg3 3.321188 1_555
Mg11 Mg4 3.321188 1_555
Cu0 Mg7 2.671731 1_555
Cu0 Mg6 2.671731 1_555
Cu0 Mg4 2.972177 1_555
Cu0 Mg3 2.972177 1_555
Cu0 Mg3 2.972177 1_455
Cu0 Mg4 2.972177 1_455
Cu0 Mg2 3.297505 1_555
Cu0 Mg2 3.297505 1_565
Cu0 K0 3.440635 1_455
Cu0 K0 3.440635 1_555
Cu1 Mg0 2.671731 1_546
Cu1 Mg1 2.671731 1_556
Cu1 Mg9 2.972177 1_445
Cu1 Mg9 2.972177 1_545
Cu1 Mg10 2.972177 1_555
Cu1 Mg10 2.972177 1_455
Cu1 Mg8 3.297505 1_545
Cu1 Mg8 3.297505 1_555
Cu1 K1 3.440635 1_455
Cu1 K1 3.440635 1_555
