# generated using pymatgen
data_TlHgCl3
_symmetry_space_group_name_H-M   'P 1'
_cell_length_a   4.36965245
_cell_length_b   9.24800615
_cell_length_c   14.07342645
_cell_angle_alpha   90.00000000
_cell_angle_beta   90.00000000
_cell_angle_gamma   90.00000000
_symmetry_Int_Tables_number   1
_chemical_formula_structural   TlHgCl3
_chemical_formula_sum   'Tl4 Hg4 Cl12'
_cell_volume   568.71522313
_cell_formula_units_Z   4
loop_
 _symmetry_equiv_pos_site_id
 _symmetry_equiv_pos_as_xyz
  1  'x, y, z'
loop_
 _atom_site_type_symbol
 _atom_site_label
 _atom_site_symmetry_multiplicity
 _atom_site_fract_x
 _atom_site_fract_y
 _atom_site_fract_z
 _atom_site_occupancy
  Tl  Tl0  1  0.25000000  0.45204646  0.33377097  1
  Tl  Tl1  1  0.25000000  0.95204646  0.16622903  1
  Tl  Tl2  1  0.75000000  0.54795354  0.66622903  1
  Tl  Tl3  1  0.75000000  0.04795354  0.83377097  1
  Hg  Hg0  1  0.25000000  0.17270550  0.54661752  1
  Hg  Hg1  1  0.25000000  0.67270550  0.95338248  1
  Hg  Hg2  1  0.75000000  0.82729450  0.45338248  1
  Hg  Hg3  1  0.75000000  0.32729450  0.04661752  1
  Cl  Cl0  1  0.25000000  0.27227956  0.70466512  1
  Cl  Cl1  1  0.25000000  0.77227956  0.79533488  1
  Cl  Cl2  1  0.75000000  0.72772044  0.29533488  1
  Cl  Cl3  1  0.75000000  0.22772044  0.20466512  1
  Cl  Cl4  1  0.25000000  0.15546852  0.98376795  1
  Cl  Cl5  1  0.25000000  0.65546852  0.51623205  1
  Cl  Cl6  1  0.75000000  0.84453148  0.01623205  1
  Cl  Cl7  1  0.75000000  0.34453148  0.48376795  1
  Cl  Cl8  1  0.25000000  0.04292339  0.39656416  1
  Cl  Cl9  1  0.25000000  0.54292339  0.10343584  1
  Cl  Cl10  1  0.75000000  0.95707661  0.60343584  1
  Cl  Cl11  1  0.75000000  0.45707661  0.89656416  1
loop_
_geom_bond_atom_site_label_1
_geom_bond_atom_site_label_2
_geom_bond_distance
_geom_bond_site_symmetry_2
Cl0 Hg0 2.407357 1_555
Cl1 Hg1 2.407357 1_555
Cl2 Hg2 2.407357 1_555
Cl3 Hg3 2.407357 1_555
Cl4 Hg3 2.842691 1_456
Cl4 Hg3 2.842691 1_556
Cl4 Tl1 3.183231 1_546
Cl4 Tl3 3.196607 1_555
Cl4 Tl3 3.196607 1_455
Cl5 Hg2 2.842691 1_455
Cl5 Hg2 2.842691 1_555
Cl5 Tl0 3.183231 1_555
Cl5 Tl2 3.196607 1_455
Cl5 Tl2 3.196607 1_555
Cl6 Hg1 2.842691 1_554
Cl6 Hg1 2.842691 1_654
Cl6 Tl3 3.183231 1_564
Cl6 Tl1 3.196607 1_555
Cl6 Tl1 3.196607 1_655
Cl7 Hg0 2.842691 1_655
Cl7 Hg0 2.842691 1_555
Cl7 Tl2 3.183231 1_555
Cl7 Tl0 3.196607 1_555
Cl7 Tl0 3.196607 1_655
Cl8 Hg0 2.429011 1_555
Cl8 Hg2 3.064222 1_445
Cl8 Hg2 3.064222 1_545
Cl9 Hg1 2.429011 1_554
Cl9 Hg3 3.064222 1_555
Cl9 Hg3 3.064222 1_455
Cl10 Hg2 2.429011 1_555
Cl10 Hg0 3.064222 1_665
Cl10 Hg0 3.064222 1_565
Cl11 Hg3 2.429011 1_556
Cl11 Hg1 3.064222 1_655
Cl11 Hg1 3.064222 1_555
