# generated using pymatgen
data_Nd(MnFe5)2
_symmetry_space_group_name_H-M   'P 1'
_cell_length_a   4.66715100
_cell_length_b   6.43804335
_cell_length_c   6.43804335
_cell_angle_alpha   96.91003145
_cell_angle_beta   111.25175886
_cell_angle_gamma   68.74824114
_symmetry_Int_Tables_number   1
_chemical_formula_structural   Nd(MnFe5)2
_chemical_formula_sum   'Nd1 Mn2 Fe10'
_cell_volume   168.01697229
_cell_formula_units_Z   1
loop_
 _symmetry_equiv_pos_site_id
 _symmetry_equiv_pos_as_xyz
  1  'x, y, z'
loop_
 _atom_site_type_symbol
 _atom_site_label
 _atom_site_symmetry_multiplicity
 _atom_site_fract_x
 _atom_site_fract_y
 _atom_site_fract_z
 _atom_site_occupancy
  Nd  Nd0  1  0.00000000  0.00000000  0.00000000  1
  Mn  Mn0  1  0.00000000  0.37370400  0.37370400  1
  Mn  Mn1  1  0.00000000  0.62629600  0.62629600  1
  Fe  Fe0  1  0.50000000  0.00000000  0.50000000  1
  Fe  Fe1  1  0.00000000  0.00000000  0.50000000  1
  Fe  Fe2  1  0.50000000  0.50000000  0.00000000  1
  Fe  Fe3  1  0.00000000  0.50000000  0.00000000  1
  Fe  Fe4  1  0.72873900  0.77126100  0.22873900  1
  Fe  Fe5  1  0.27126100  0.22873900  0.77126100  1
  Fe  Fe6  1  0.50000000  0.76521900  0.76521900  1
  Fe  Fe7  1  0.50000000  0.23478100  0.23478100  1
  Fe  Fe8  1  0.63994000  0.36006000  0.63994000  1
  Fe  Fe9  1  0.36006000  0.63994000  0.36006000  1
loop_
_geom_bond_atom_site_label_1
_geom_bond_atom_site_label_2
_geom_bond_distance
_geom_bond_site_symmetry_2
Mn0 Mn1 2.157015 1_555
Mn0 Nd0 3.191254 1_555
Mn1 Nd0 3.191254 1_566
Fe0 Fe1 2.333575 1_655
Fe0 Fe1 2.333575 1_555
Fe0 Fe6 2.412732 1_545
Fe0 Fe7 2.412732 1_555
Fe0 Fe4 2.439517 1_545
Fe0 Fe5 2.439517 1_555
Fe0 Fe8 2.603884 1_555
Fe0 Fe9 2.603884 1_545
Fe0 Mn0 2.630648 1_555
Fe0 Mn1 2.630648 1_645
Fe0 Nd0 3.219021 1_656
Fe0 Nd0 3.219021 1_555
Fe1 Fe7 2.412732 1_455
Fe1 Fe6 2.412732 1_545
Fe1 Fe5 2.439517 1_555
Fe1 Fe4 2.439517 1_445
Fe1 Fe8 2.603884 1_455
Fe1 Fe9 2.603884 1_545
Fe1 Mn0 2.630648 1_555
Fe1 Mn1 2.630648 1_545
Fe1 Nd0 3.219022 1_555
Fe1 Nd0 3.219022 1_556
Fe2 Fe3 2.333575 1_555
Fe2 Fe3 2.333575 1_655
Fe2 Fe6 2.412732 1_554
Fe2 Fe7 2.412732 1_555
Fe2 Fe4 2.439517 1_555
Fe2 Fe5 2.439517 1_554
Fe2 Fe8 2.603884 1_554
Fe2 Fe9 2.603884 1_555
Fe2 Mn0 2.630648 1_655
Fe2 Mn1 2.630648 1_554
Fe2 Nd0 3.219021 1_655
Fe2 Nd0 3.219021 1_565
Fe3 Fe6 2.412732 1_454
Fe3 Fe7 2.412732 1_555
Fe3 Fe5 2.439517 1_554
Fe3 Fe4 2.439517 1_455
Fe3 Fe9 2.603884 1_555
Fe3 Fe8 2.603884 1_454
Fe3 Mn0 2.630648 1_555
Fe3 Mn1 2.630648 1_554
Fe3 Nd0 3.219022 1_565
Fe3 Nd0 3.219022 1_555
Fe4 Mn1 2.528637 1_655
Fe4 Mn0 2.528637 1_655
Fe4 Fe9 2.582924 1_655
Fe4 Fe9 2.582925 1_555
Fe4 Fe7 2.781927 1_565
Fe4 Fe6 2.781927 1_554
Fe4 Nd0 3.027375 1_565
Fe4 Nd0 3.027375 1_665
Fe5 Mn1 2.528637 1_555
Fe5 Mn0 2.528637 1_555
Fe5 Fe8 2.582924 1_455
Fe5 Fe8 2.582925 1_555
Fe5 Fe7 2.781927 1_556
Fe5 Fe6 2.781927 1_545
Fe5 Nd0 3.027375 1_656
Fe5 Nd0 3.027375 1_556
Fe6 Fe9 2.553751 1_555
Fe6 Fe8 2.553751 1_555
Fe6 Mn1 2.617817 1_555
Fe6 Mn1 2.617817 1_655
Fe6 Nd0 3.076568 1_666
Fe6 Nd0 3.076568 1_566
Fe7 Fe8 2.553751 1_555
Fe7 Fe9 2.553751 1_555
Fe7 Mn0 2.617817 1_655
Fe7 Mn0 2.617817 1_555
Fe7 Nd0 3.076568 1_555
Fe7 Nd0 3.076568 1_655
Fe8 Fe9 2.359770 1_555
Fe8 Mn0 2.828583 1_555
Fe8 Mn1 2.828583 1_555
Fe8 Mn1 2.828583 1_655
Fe8 Mn0 2.828583 1_655
Fe8 Nd0 3.035796 1_656
Fe9 Mn0 2.828583 1_655
Fe9 Mn1 2.828583 1_655
Fe9 Mn0 2.828583 1_555
Fe9 Mn1 2.828583 1_555
Fe9 Nd0 3.035796 1_565
