# generated using pymatgen
data_MnB4
_symmetry_space_group_name_H-M   'P 1'
_cell_length_a   2.93741811
_cell_length_b   4.59284299
_cell_length_c   5.33173609
_cell_angle_alpha   90.00008846
_cell_angle_beta   90.00000000
_cell_angle_gamma   89.99999988
_symmetry_Int_Tables_number   1
_chemical_formula_structural   MnB4
_chemical_formula_sum   'Mn2 B8'
_cell_volume   71.93098570
_cell_formula_units_Z   2
loop_
 _symmetry_equiv_pos_site_id
 _symmetry_equiv_pos_as_xyz
  1  'x, y, z'
loop_
 _atom_site_type_symbol
 _atom_site_label
 _atom_site_symmetry_multiplicity
 _atom_site_fract_x
 _atom_site_fract_y
 _atom_site_fract_z
 _atom_site_occupancy
  Mn  Mn0  1  0.50000000  0.50000000  0.50000000  1
  Mn  Mn1  1  -0.00000000  0.00000000  0.00000000  1
  B  B0  1  0.50000000  0.66484153  0.86986816  1
  B  B1  1  0.50000000  0.33515847  0.13013184  1
  B  B2  1  -0.00000000  0.16484293  0.63013228  1
  B  B3  1  0.00000000  0.83515707  0.36986772  1
  B  B4  1  0.50000000  0.73633585  0.18442202  1
  B  B5  1  0.50000000  0.26366415  0.81557798  1
  B  B6  1  -0.00000000  0.23633792  0.31557731  1
  B  B7  1  0.00000000  0.76366208  0.68442269  1
loop_
_geom_bond_atom_site_label_1
_geom_bond_atom_site_label_2
_geom_bond_distance
_geom_bond_site_symmetry_2
B0 B4 1.708960 1_556
B0 B7 1.827764 1_555
B0 B7 1.827764 1_655
B0 B5 1.865143 1_555
B0 B1 2.053862 1_556
B0 Mn0 2.112374 1_555
B0 Mn1 2.237865 1_566
B0 Mn1 2.237865 1_666
B1 B5 1.708960 1_554
B1 B6 1.827764 1_655
B1 B6 1.827764 1_555
B1 B4 1.865143 1_555
B1 Mn0 2.112374 1_555
B1 Mn1 2.237865 1_655
B1 Mn1 2.237865 1_555
B2 B6 1.708968 1_555
B2 B5 1.827765 1_455
B2 B5 1.827765 1_555
B2 B7 1.865159 1_545
B2 B3 2.053871 1_545
B2 Mn1 2.112376 1_556
B2 Mn0 2.237863 1_455
B2 Mn0 2.237863 1_555
B3 B7 1.708968 1_555
B3 B4 1.827765 1_555
B3 B4 1.827765 1_455
B3 B6 1.865159 1_565
B3 Mn1 2.112376 1_565
B3 Mn0 2.237863 1_555
B3 Mn0 2.237863 1_455
B4 Mn0 2.002320 1_555
B4 Mn1 2.142525 1_565
B4 Mn1 2.142525 1_665
B5 Mn0 2.002320 1_555
B5 Mn1 2.142525 1_656
B5 Mn1 2.142525 1_556
B6 Mn1 2.002319 1_555
B6 Mn0 2.142519 1_455
B6 Mn0 2.142519 1_555
B7 Mn1 2.002319 1_566
B7 Mn0 2.142519 1_555
B7 Mn0 2.142519 1_455
