# generated using pymatgen
data_LiMg14CrO16
_symmetry_space_group_name_H-M   'P 1'
_cell_length_a   8.49546175
_cell_length_b   8.53714399
_cell_length_c   4.22936451
_cell_angle_alpha   90.00000000
_cell_angle_beta   90.00000000
_cell_angle_gamma   90.00000000
_symmetry_Int_Tables_number   1
_chemical_formula_structural   LiMg14CrO16
_chemical_formula_sum   'Li1 Mg14 Cr1 O16'
_cell_volume   306.74303617
_cell_formula_units_Z   1
loop_
 _symmetry_equiv_pos_site_id
 _symmetry_equiv_pos_as_xyz
  1  'x, y, z'
loop_
 _atom_site_type_symbol
 _atom_site_label
 _atom_site_symmetry_multiplicity
 _atom_site_fract_x
 _atom_site_fract_y
 _atom_site_fract_z
 _atom_site_occupancy
  Li  Li0  1  0.00000000  0.00000000  0.00000000  1
  Mg  Mg0  1  0.50000000  0.00000000  0.00000000  1
  Mg  Mg1  1  0.50000000  0.50000000  0.00000000  1
  Mg  Mg2  1  0.00000000  0.23952585  0.50000000  1
  Mg  Mg3  1  0.00000000  0.76047415  0.50000000  1
  Mg  Mg4  1  0.50000000  0.24741480  0.50000000  1
  Mg  Mg5  1  0.50000000  0.75258520  0.50000000  1
  Mg  Mg6  1  0.24426868  0.00000000  0.50000000  1
  Mg  Mg7  1  0.25173181  0.50000000  0.50000000  1
  Mg  Mg8  1  0.75573132  0.00000000  0.50000000  1
  Mg  Mg9  1  0.74826819  0.50000000  0.50000000  1
  Mg  Mg10  1  0.24846920  0.24302317  0.00000000  1
  Mg  Mg11  1  0.24846920  0.75697683  0.00000000  1
  Mg  Mg12  1  0.75153080  0.24302317  0.00000000  1
  Mg  Mg13  1  0.75153080  0.75697683  0.00000000  1
  Cr  Cr0  1  0.00000000  0.50000000  0.00000000  1
  O  O0  1  0.25569403  0.00000000  0.00000000  1
  O  O1  1  0.24185825  0.50000000  0.00000000  1
  O  O2  1  0.74430597  0.00000000  0.00000000  1
  O  O3  1  0.75814175  0.50000000  0.00000000  1
  O  O4  1  0.24915265  0.25196081  0.50000000  1
  O  O5  1  0.24915265  0.74803919  0.50000000  1
  O  O6  1  0.75084735  0.25196081  0.50000000  1
  O  O7  1  0.75084735  0.74803919  0.50000000  1
  O  O8  1  0.00000000  0.00000000  0.50000000  1
  O  O9  1  0.00000000  0.50000000  0.50000000  1
  O  O10  1  0.50000000  0.00000000  0.50000000  1
  O  O11  1  0.50000000  0.50000000  0.50000000  1
  O  O12  1  0.00000000  0.26533448  0.00000000  1
  O  O13  1  0.00000000  0.73466552  0.00000000  1
  O  O14  1  0.50000000  0.25467122  0.00000000  1
  O  O15  1  0.50000000  0.74532878  0.00000000  1
loop_
_geom_bond_atom_site_label_1
_geom_bond_atom_site_label_2
_geom_bond_distance
_geom_bond_site_symmetry_2
Li0 O8 2.114682 1_554
Li0 O8 2.114682 1_555
Li0 O0 2.172239 1_555
Li0 O2 2.172239 1_455
Li0 O12 2.265199 1_555
Li0 O13 2.265199 1_545
Mg0 O2 2.075492 1_555
Mg0 O0 2.075492 1_555
Mg0 O10 2.114682 1_555
Mg0 O10 2.114682 1_554
Mg0 O15 2.174165 1_545
Mg0 O14 2.174165 1_555
Mg1 O15 2.094407 1_555
Mg1 O14 2.094407 1_555
Mg1 O11 2.114682 1_554
Mg1 O11 2.114682 1_555
Mg1 O3 2.193033 1_555
Mg1 O1 2.193033 1_555
Mg2 O8 2.044867 1_555
Mg2 O4 2.119327 1_555
Mg2 O6 2.119327 1_455
Mg2 O12 2.126130 1_556
Mg2 O12 2.126130 1_555
Mg2 O9 2.223705 1_555
Mg3 O8 2.044867 1_565
Mg3 O5 2.119327 1_555
Mg3 O7 2.119327 1_455
Mg3 O13 2.126130 1_555
Mg3 O13 2.126130 1_556
Mg3 O9 2.223705 1_555
Mg4 O10 2.112216 1_555
Mg4 O14 2.115589 1_555
Mg4 O14 2.115589 1_556
Mg4 O6 2.131417 1_555
Mg4 O4 2.131417 1_555
Mg4 O11 2.156356 1_555
Mg5 O10 2.112216 1_565
Mg5 O15 2.115589 1_556
Mg5 O15 2.115589 1_555
Mg5 O5 2.131417 1_555
Mg5 O7 2.131417 1_555
Mg5 O11 2.156356 1_555
Mg6 O8 2.075175 1_555
Mg6 O0 2.116909 1_555
Mg6 O0 2.116909 1_556
Mg6 O4 2.151426 1_555
Mg6 O5 2.151426 1_545
Mg6 O10 2.172556 1_555
Mg7 O11 2.109153 1_555
Mg7 O1 2.116345 1_555
Mg7 O1 2.116345 1_556
Mg7 O5 2.117660 1_555
Mg7 O4 2.117660 1_555
Mg7 O9 2.138578 1_555
Mg8 O8 2.075175 1_655
Mg8 O2 2.116909 1_556
Mg8 O2 2.116909 1_555
Mg8 O6 2.151426 1_555
Mg8 O7 2.151426 1_545
Mg8 O10 2.172556 1_555
Mg9 O11 2.109153 1_555
Mg9 O3 2.116345 1_556
Mg9 O3 2.116345 1_555
Mg9 O7 2.117660 1_555
Mg9 O6 2.117660 1_555
Mg9 O9 2.138578 1_655
Mg10 O0 2.075631 1_555
Mg10 O4 2.116066 1_554
Mg10 O4 2.116066 1_555
Mg10 O12 2.119437 1_555
Mg10 O14 2.139183 1_555
Mg10 O1 2.194567 1_555
Mg11 O0 2.075631 1_565
Mg11 O5 2.116066 1_554
Mg11 O5 2.116066 1_555
Mg11 O13 2.119437 1_555
Mg11 O15 2.139183 1_555
Mg11 O1 2.194567 1_555
Mg12 O2 2.075631 1_555
Mg12 O6 2.116066 1_555
Mg12 O6 2.116066 1_554
Mg12 O12 2.119437 1_655
Mg12 O14 2.139183 1_555
Mg12 O3 2.194567 1_555
Mg13 O2 2.075631 1_565
Mg13 O7 2.116066 1_555
Mg13 O7 2.116066 1_554
Mg13 O13 2.119437 1_655
Mg13 O15 2.139183 1_555
Mg13 O3 2.194567 1_555
Cr0 O13 2.003373 1_555
Cr0 O12 2.003373 1_555
Cr0 O1 2.054698 1_555
Cr0 O3 2.054698 1_455
Cr0 O9 2.114682 1_555
Cr0 O9 2.114682 1_554
