# generated using pymatgen
data_Ca3ReN3
_symmetry_space_group_name_H-M   'P 1'
_cell_length_a   7.45011687
_cell_length_b   7.45309248
_cell_length_c   5.04941200
_cell_angle_alpha   90.00000000
_cell_angle_beta   90.00000000
_cell_angle_gamma   119.93160527
_symmetry_Int_Tables_number   1
_chemical_formula_structural   Ca3ReN3
_chemical_formula_sum   'Ca6 Re2 N6'
_cell_volume   242.97966797
_cell_formula_units_Z   2
loop_
 _symmetry_equiv_pos_site_id
 _symmetry_equiv_pos_as_xyz
  1  'x, y, z'
loop_
 _atom_site_type_symbol
 _atom_site_label
 _atom_site_symmetry_multiplicity
 _atom_site_fract_x
 _atom_site_fract_y
 _atom_site_fract_z
 _atom_site_occupancy
  Ca  Ca0  1  0.89876000  0.64277100  0.25000000  1
  Ca  Ca1  1  0.74366500  0.10108000  0.25000000  1
  Ca  Ca2  1  0.35744700  0.25592200  0.25000000  1
  Ca  Ca3  1  0.10124000  0.35722900  0.75000000  1
  Ca  Ca4  1  0.25633500  0.89892000  0.75000000  1
  Ca  Ca5  1  0.64255300  0.74407800  0.75000000  1
  Re  Re0  1  0.66653100  0.33315500  0.75000000  1
  Re  Re1  1  0.33346900  0.66684500  0.25000000  1
  N  N0  1  0.89177900  0.60433000  0.75000000  1
  N  N1  1  0.71221400  0.10748800  0.75000000  1
  N  N2  1  0.39476200  0.28724200  0.75000000  1
  N  N3  1  0.10822100  0.39567000  0.25000000  1
  N  N4  1  0.28778600  0.89251200  0.25000000  1
  N  N5  1  0.60523800  0.71275800  0.25000000  1
loop_
_geom_bond_atom_site_label_1
_geom_bond_atom_site_label_2
_geom_bond_distance
_geom_bond_site_symmetry_2
Ca0 N5 2.488447 1_555
Ca0 N0 2.538515 1_555
Ca0 N0 2.538515 1_554
Ca0 N4 2.545805 1_655
Ca0 N3 2.948714 1_655
Ca1 N3 2.499272 1_655
Ca1 N1 2.538206 1_554
Ca1 N1 2.538206 1_555
Ca1 N5 2.541920 1_545
Ca1 N4 2.946689 1_545
Ca2 N4 2.490521 1_545
Ca2 N2 2.537943 1_555
Ca2 N2 2.537943 1_554
Ca2 N3 2.542110 1_555
Ca2 N5 2.954377 1_555
Ca3 N2 2.488447 1_555
Ca3 N3 2.538515 1_556
Ca3 N3 2.538515 1_555
Ca3 N1 2.545805 1_455
Ca3 N0 2.948714 1_455
Ca4 N0 2.499272 1_455
Ca4 N4 2.538206 1_556
Ca4 N4 2.538206 1_555
Ca4 N2 2.541920 1_565
Ca4 N1 2.946689 1_565
Ca5 N1 2.490521 1_565
Ca5 N5 2.537943 1_556
Ca5 N5 2.537943 1_555
Ca5 N0 2.542110 1_555
Ca5 N2 2.954377 1_555
N0 Re0 1.875176 1_555
N1 Re0 1.875080 1_555
N2 Re0 1.877536 1_555
N3 Re1 1.875176 1_555
N4 Re1 1.875080 1_555
N5 Re1 1.877536 1_555
