# generated using pymatgen
data_YSiBRh3
_symmetry_space_group_name_H-M   'P 1'
_cell_length_a   5.49937572
_cell_length_b   5.49937572
_cell_length_c   3.42976800
_cell_angle_alpha   90.00000000
_cell_angle_beta   90.00000000
_cell_angle_gamma   119.99999666
_symmetry_Int_Tables_number   1
_chemical_formula_structural   YSiBRh3
_chemical_formula_sum   'Y1 Si1 B1 Rh3'
_cell_volume   89.83016026
_cell_formula_units_Z   1
loop_
 _symmetry_equiv_pos_site_id
 _symmetry_equiv_pos_as_xyz
  1  'x, y, z'
loop_
 _atom_site_type_symbol
 _atom_site_label
 _atom_site_symmetry_multiplicity
 _atom_site_fract_x
 _atom_site_fract_y
 _atom_site_fract_z
 _atom_site_occupancy
  Y  Y0  1  0.33333300  0.66666700  0.00000000  1
  Si  Si0  1  0.00000000  0.00000000  0.00000000  1
  B  B0  1  0.66666700  0.33333300  0.00000000  1
  Rh  Rh0  1  0.34629800  0.17314900  0.50000000  1
  Rh  Rh1  1  0.82685100  0.17314900  0.50000000  1
  Rh  Rh2  1  0.82685100  0.65370200  0.50000000  1
loop_
_geom_bond_atom_site_label_1
_geom_bond_atom_site_label_2
_geom_bond_distance
_geom_bond_site_symmetry_2
Si0 Y0 3.175063 1_545
Si0 Y0 3.175068 1_555
Si0 Y0 3.175068 1_445
B0 Rh1 2.295396 1_554
B0 Rh1 2.295396 1_555
B0 Rh0 2.295400 1_554
B0 Rh0 2.295400 1_555
B0 Rh2 2.295400 1_555
B0 Rh2 2.295400 1_554
B0 Y0 3.175063 1_545
B0 Y0 3.175063 1_655
B0 Y0 3.175072 1_555
Rh0 Si0 2.379274 1_556
Rh0 Si0 2.379274 1_555
Rh0 Y0 3.241205 1_545
Rh0 Y0 3.241205 1_546
Rh0 Y0 3.241209 1_555
Rh0 Y0 3.241209 1_556
Rh1 Si0 2.379274 1_655
Rh1 Si0 2.379274 1_656
Rh1 Y0 3.241207 1_545
Rh1 Y0 3.241207 1_546
Rh1 Y0 3.241207 1_656
Rh1 Y0 3.241207 1_655
Rh2 Si0 2.379274 1_665
Rh2 Si0 2.379274 1_666
Rh2 Y0 3.241205 1_656
Rh2 Y0 3.241205 1_655
Rh2 Y0 3.241209 1_555
Rh2 Y0 3.241209 1_556
