# generated using pymatgen
data_Li3Mn3TeO8
_symmetry_space_group_name_H-M   'P 1'
_cell_length_a   6.13022960
_cell_length_b   10.86287392
_cell_length_c   6.12845571
_cell_angle_alpha   90.93034753
_cell_angle_beta   62.41977985
_cell_angle_gamma   73.28440379
_symmetry_Int_Tables_number   1
_chemical_formula_structural   Li3Mn3TeO8
_chemical_formula_sum   'Li6 Mn6 Te2 O16'
_cell_volume   341.03715318
_cell_formula_units_Z   2
loop_
 _symmetry_equiv_pos_site_id
 _symmetry_equiv_pos_as_xyz
  1  'x, y, z'
loop_
 _atom_site_type_symbol
 _atom_site_label
 _atom_site_symmetry_multiplicity
 _atom_site_fract_x
 _atom_site_fract_y
 _atom_site_fract_z
 _atom_site_occupancy
  Li  Li0  1  0.46901000  0.01686700  0.03294500  1
  Li  Li1  1  0.53100900  0.48293200  0.46718100  1
  Li  Li2  1  0.98085000  0.98409600  0.51479400  1
  Li  Li3  1  0.01959200  0.51592700  0.98491500  1
  Li  Li4  1  0.00018400  0.74995800  0.74995800  1
  Li  Li5  1  0.99991800  0.24989500  0.25009700  1
  Mn  Mn0  1  0.50005100  0.24987000  0.24997000  1
  Mn  Mn1  1  0.49610400  0.99837200  0.50227000  1
  Mn  Mn2  1  0.50395700  0.50175600  0.99791300  1
  Mn  Mn3  1  0.99985700  0.24994200  0.75006400  1
  Mn  Mn4  1  0.00005800  0.75013300  0.25003600  1
  Mn  Mn5  1  0.50005100  0.75017200  0.74997400  1
  Te  Te0  1  0.99862700  0.99993900  0.00097500  1
  Te  Te1  1  0.00127500  0.50005500  0.49894900  1
  O  O0  1  0.22828700  0.64300300  0.92403100  1
  O  O1  1  0.28145600  0.14287900  0.37037000  1
  O  O2  1  0.77203600  0.85701600  0.57584700  1
  O  O3  1  0.71811500  0.35711200  0.12986300  1
  O  O4  1  0.22558200  0.38472000  0.17064400  1
  O  O5  1  0.21366800  0.89104500  0.66843800  1
  O  O6  1  0.78687100  0.88397500  0.10836100  1
  O  O7  1  0.77797800  0.39131400  0.60546700  1
  O  O8  1  0.77920700  0.60752900  0.37803500  1
  O  O9  1  0.77054900  0.10714200  0.88588500  1
  O  O10  1  0.77416300  0.11530300  0.32932000  1
  O  O11  1  0.78644800  0.60896700  0.83149400  1
  O  O12  1  0.21317000  0.61598900  0.39165400  1
  O  O13  1  0.22180500  0.10875300  0.89463100  1
  O  O14  1  0.22083000  0.89251400  0.12183700  1
  O  O15  1  0.22929200  0.39282000  0.61407400  1
loop_
_geom_bond_atom_site_label_1
_geom_bond_atom_site_label_2
_geom_bond_distance
_geom_bond_site_symmetry_2
Li0 O1 2.067132 1_555
Li0 O13 2.087616 1_554
Li0 O9 2.172485 1_554
Li0 O14 2.207900 1_545
Li0 O6 2.309099 1_545
Li1 O3 2.065907 1_555
Li1 O7 2.085562 1_555
Li1 O15 2.172073 1_555
Li1 O8 2.210044 1_555
Li1 O12 2.310098 1_555
Li2 O2 2.067371 1_555
Li2 O5 2.095412 1_655
Li2 O14 2.180183 1_655
Li2 O9 2.194497 1_565
Li2 O10 2.297004 1_565
Li3 O0 2.066902 1_555
Li3 O11 2.095822 1_455
Li3 O8 2.181101 1_456
Li3 O15 2.193873 1_555
Li3 O4 2.295621 1_556
Li4 O12 2.189237 1_555
Li4 O6 2.189802 1_456
Li4 O5 2.210073 1_555
Li4 O11 2.210227 1_455
Li4 O0 2.220416 1_555
Li4 O2 2.221183 1_455
Li5 O10 2.203043 1_555
Li5 O4 2.204706 1_655
Li5 O13 2.212380 1_654
Li5 O7 2.213468 1_555
Li5 O1 2.219250 1_655
Li5 O3 2.221019 1_555
Mn0 O3 1.923134 1_555
Mn0 O1 1.923303 1_555
Mn0 O10 2.136281 1_555
Mn0 O4 2.139134 1_555
Mn0 O9 2.261592 1_554
Mn0 O15 2.262900 1_555
Mn1 O2 2.158025 1_555
Mn1 O1 2.164934 1_565
Mn1 O5 2.227360 1_555
Mn1 O13 2.247151 1_565
Mn1 O6 2.278823 1_555
Mn1 O10 2.293171 1_565
Mn2 O0 2.157451 1_555
Mn2 O3 2.164250 1_556
Mn2 O11 2.226814 1_555
Mn2 O7 2.247555 1_555
Mn2 O12 2.277591 1_556
Mn2 O4 2.295220 1_556
Mn3 O1 2.187435 1_655
Mn3 O3 2.188339 1_556
Mn3 O13 2.224500 1_655
Mn3 O7 2.225409 1_555
Mn3 O9 2.299557 1_555
Mn3 O15 2.300872 1_655
Mn4 O2 1.922370 1_455
Mn4 O0 1.924300 1_554
Mn4 O6 2.138772 1_455
Mn4 O12 2.139928 1_555
Mn4 O14 2.258333 1_555
Mn4 O8 2.260632 1_455
Mn5 O2 2.184416 1_555
Mn5 O0 2.186101 1_555
Mn5 O5 2.228295 1_555
Mn5 O11 2.229971 1_555
Mn5 O14 2.294628 1_556
Mn5 O8 2.296339 1_555
O4 Te1 1.968227 1_555
O5 Te0 1.956344 1_456
O6 Te0 1.970170 1_555
O7 Te1 1.955247 1_655
O8 Te1 1.952759 1_655
O9 Te0 1.952363 1_546
O10 Te0 1.968568 1_545
O11 Te1 1.956433 1_655
O12 Te1 1.970463 1_555
O13 Te0 1.955345 1_446
O14 Te0 1.952897 1_455
O15 Te1 1.952385 1_555
