# generated using pymatgen
data_Dy5(In2Pd)2
_symmetry_space_group_name_H-M   'P 1'
_cell_length_a   7.26456500
_cell_length_b   16.07649364
_cell_length_c   36.36663932
_cell_angle_alpha   90.00000000
_cell_angle_beta   90.00000000
_cell_angle_gamma   90.00000000
_symmetry_Int_Tables_number   1
_chemical_formula_structural   Dy5(In2Pd)2
_chemical_formula_sum   'Dy80 In64 Pd32'
_cell_volume   4247.21373037
_cell_formula_units_Z   16
loop_
 _symmetry_equiv_pos_site_id
 _symmetry_equiv_pos_as_xyz
  1  'x, y, z'
loop_
 _atom_site_type_symbol
 _atom_site_label
 _atom_site_symmetry_multiplicity
 _atom_site_fract_x
 _atom_site_fract_y
 _atom_site_fract_z
 _atom_site_occupancy
  Dy  Dy0_0  1  0.00000000  0.25000000  0.25000000  1
  Dy  Dy0_1  1  0.00000000  0.25000000  0.75000000  1
  Dy  Dy0_2  1  0.00000000  0.75000000  0.25000000  1
  Dy  Dy0_3  1  0.00000000  0.75000000  0.75000000  1
  Dy  Dy0_4  1  0.50000000  0.25000000  0.25000000  1
  Dy  Dy0_5  1  0.50000000  0.25000000  0.75000000  1
  Dy  Dy0_6  1  0.50000000  0.75000000  0.25000000  1
  Dy  Dy0_7  1  0.50000000  0.75000000  0.75000000  1
  Dy  Dy1_0  1  0.00000000  0.00000000  0.00000000  1
  Dy  Dy1_1  1  0.00000000  0.00000000  0.50000000  1
  Dy  Dy1_2  1  0.00000000  0.50000000  0.00000000  1
  Dy  Dy1_3  1  0.00000000  0.50000000  0.50000000  1
  Dy  Dy1_4  1  0.50000000  0.00000000  0.00000000  1
  Dy  Dy1_5  1  0.50000000  0.00000000  0.50000000  1
  Dy  Dy1_6  1  0.50000000  0.50000000  0.00000000  1
  Dy  Dy1_7  1  0.50000000  0.50000000  0.50000000  1
  Dy  Dy2_0  1  0.00000000  0.37133833  0.14014315  1
  Dy  Dy2_1  1  0.00000000  0.37133833  0.64014315  1
  Dy  Dy2_2  1  0.00000000  0.87133833  0.14014315  1
  Dy  Dy2_3  1  0.00000000  0.87133833  0.64014315  1
  Dy  Dy2_4  1  0.50000000  0.37133833  0.14014315  1
  Dy  Dy2_5  1  0.50000000  0.37133833  0.64014315  1
  Dy  Dy2_6  1  0.50000000  0.87133833  0.14014315  1
  Dy  Dy2_7  1  0.50000000  0.87133833  0.64014315  1
  Dy  Dy3_0  1  0.00000000  0.12866167  0.35985685  1
  Dy  Dy3_1  1  0.00000000  0.12866167  0.85985685  1
  Dy  Dy3_2  1  0.00000000  0.62866167  0.35985685  1
  Dy  Dy3_3  1  0.00000000  0.62866167  0.85985685  1
  Dy  Dy3_4  1  0.50000000  0.12866167  0.35985685  1
  Dy  Dy3_5  1  0.50000000  0.12866167  0.85985685  1
  Dy  Dy3_6  1  0.50000000  0.62866167  0.35985685  1
  Dy  Dy3_7  1  0.50000000  0.62866167  0.85985685  1
  Dy  Dy4_0  1  0.00000000  0.37866167  0.39014315  1
  Dy  Dy4_1  1  0.00000000  0.37866167  0.89014315  1
  Dy  Dy4_2  1  0.00000000  0.87866167  0.39014315  1
  Dy  Dy4_3  1  0.00000000  0.87866167  0.89014315  1
  Dy  Dy4_4  1  0.50000000  0.37866167  0.39014315  1
  Dy  Dy4_5  1  0.50000000  0.37866167  0.89014315  1
  Dy  Dy4_6  1  0.50000000  0.87866167  0.39014315  1
  Dy  Dy4_7  1  0.50000000  0.87866167  0.89014315  1
  Dy  Dy5_0  1  0.00000000  0.12133833  0.10985685  1
  Dy  Dy5_1  1  0.00000000  0.12133833  0.60985685  1
  Dy  Dy5_2  1  0.00000000  0.62133833  0.10985685  1
  Dy  Dy5_3  1  0.00000000  0.62133833  0.60985685  1
  Dy  Dy5_4  1  0.50000000  0.12133833  0.10985685  1
  Dy  Dy5_5  1  0.50000000  0.12133833  0.60985685  1
  Dy  Dy5_6  1  0.50000000  0.62133833  0.10985685  1
  Dy  Dy5_7  1  0.50000000  0.62133833  0.60985685  1
  Dy  Dy6_0  1  0.00000000  0.30834120  0.04153075  1
  Dy  Dy6_1  1  0.00000000  0.30834120  0.54153075  1
  Dy  Dy6_2  1  0.00000000  0.80834120  0.04153075  1
  Dy  Dy6_3  1  0.00000000  0.80834120  0.54153075  1
  Dy  Dy6_4  1  0.50000000  0.30834120  0.04153075  1
  Dy  Dy6_5  1  0.50000000  0.30834120  0.54153075  1
  Dy  Dy6_6  1  0.50000000  0.80834120  0.04153075  1
  Dy  Dy6_7  1  0.50000000  0.80834120  0.54153075  1
  Dy  Dy7_0  1  0.00000000  0.19165880  0.45846925  1
  Dy  Dy7_1  1  0.00000000  0.19165880  0.95846925  1
  Dy  Dy7_2  1  0.00000000  0.69165880  0.45846925  1
  Dy  Dy7_3  1  0.00000000  0.69165880  0.95846925  1
  Dy  Dy7_4  1  0.50000000  0.19165880  0.45846925  1
  Dy  Dy7_5  1  0.50000000  0.19165880  0.95846925  1
  Dy  Dy7_6  1  0.50000000  0.69165880  0.45846925  1
  Dy  Dy7_7  1  0.50000000  0.69165880  0.95846925  1
  Dy  Dy8_0  1  0.00000000  0.44165880  0.29153075  1
  Dy  Dy8_1  1  0.00000000  0.44165880  0.79153075  1
  Dy  Dy8_2  1  0.00000000  0.94165880  0.29153075  1
  Dy  Dy8_3  1  0.00000000  0.94165880  0.79153075  1
  Dy  Dy8_4  1  0.50000000  0.44165880  0.29153075  1
  Dy  Dy8_5  1  0.50000000  0.44165880  0.79153075  1
  Dy  Dy8_6  1  0.50000000  0.94165880  0.29153075  1
  Dy  Dy8_7  1  0.50000000  0.94165880  0.79153075  1
  Dy  Dy9_0  1  0.00000000  0.05834120  0.20846925  1
  Dy  Dy9_1  1  0.00000000  0.05834120  0.70846925  1
  Dy  Dy9_2  1  0.00000000  0.55834120  0.20846925  1
  Dy  Dy9_3  1  0.00000000  0.55834120  0.70846925  1
  Dy  Dy9_4  1  0.50000000  0.05834120  0.20846925  1
  Dy  Dy9_5  1  0.50000000  0.05834120  0.70846925  1
  Dy  Dy9_6  1  0.50000000  0.55834120  0.20846925  1
  Dy  Dy9_7  1  0.50000000  0.55834120  0.70846925  1
  In  In0_0  1  0.25000000  0.35508357  0.46560113  1
  In  In0_1  1  0.25000000  0.35508357  0.96560113  1
  In  In0_2  1  0.25000000  0.85508357  0.46560113  1
  In  In0_3  1  0.25000000  0.85508357  0.96560113  1
  In  In0_4  1  0.75000000  0.35508357  0.46560113  1
  In  In0_5  1  0.75000000  0.35508357  0.96560113  1
  In  In0_6  1  0.75000000  0.85508357  0.46560113  1
  In  In0_7  1  0.75000000  0.85508357  0.96560113  1
  In  In1_0  1  0.25000000  0.14491643  0.03439887  1
  In  In1_1  1  0.25000000  0.14491643  0.53439887  1
  In  In1_2  1  0.25000000  0.64491643  0.03439887  1
  In  In1_3  1  0.25000000  0.64491643  0.53439887  1
  In  In1_4  1  0.75000000  0.14491643  0.03439887  1
  In  In1_5  1  0.75000000  0.14491643  0.53439887  1
  In  In1_6  1  0.75000000  0.64491643  0.03439887  1
  In  In1_7  1  0.75000000  0.64491643  0.53439887  1
  In  In2_0  1  0.25000000  0.39491643  0.21560113  1
  In  In2_1  1  0.25000000  0.39491643  0.71560113  1
  In  In2_2  1  0.25000000  0.89491643  0.21560113  1
  In  In2_3  1  0.25000000  0.89491643  0.71560113  1
  In  In2_4  1  0.75000000  0.39491643  0.21560113  1
  In  In2_5  1  0.75000000  0.39491643  0.71560113  1
  In  In2_6  1  0.75000000  0.89491643  0.21560113  1
  In  In2_7  1  0.75000000  0.89491643  0.71560113  1
  In  In3_0  1  0.25000000  0.10508357  0.28439886  1
  In  In3_1  1  0.25000000  0.10508357  0.78439887  1
  In  In3_2  1  0.25000000  0.60508358  0.28439886  1
  In  In3_3  1  0.25000000  0.60508358  0.78439887  1
  In  In3_4  1  0.75000000  0.10508357  0.28439886  1
  In  In3_5  1  0.75000000  0.10508357  0.78439887  1
  In  In3_6  1  0.75000000  0.60508358  0.28439886  1
  In  In3_7  1  0.75000000  0.60508358  0.78439887  1
  In  In4_0  1  0.25000000  0.28869088  0.32493959  1
  In  In4_1  1  0.25000000  0.28869088  0.82493959  1
  In  In4_2  1  0.25000000  0.78869088  0.32493959  1
  In  In4_3  1  0.25000000  0.78869088  0.82493959  1
  In  In4_4  1  0.75000000  0.28869088  0.32493959  1
  In  In4_5  1  0.75000000  0.28869088  0.82493959  1
  In  In4_6  1  0.75000000  0.78869088  0.32493959  1
  In  In4_7  1  0.75000000  0.78869088  0.82493959  1
  In  In5_0  1  0.25000000  0.21130912  0.17506041  1
  In  In5_1  1  0.25000000  0.21130912  0.67506041  1
  In  In5_2  1  0.25000000  0.71130912  0.17506041  1
  In  In5_3  1  0.25000000  0.71130912  0.67506041  1
  In  In5_4  1  0.75000000  0.21130912  0.17506041  1
  In  In5_5  1  0.75000000  0.21130912  0.67506041  1
  In  In5_6  1  0.75000000  0.71130912  0.17506041  1
  In  In5_7  1  0.75000000  0.71130912  0.67506041  1
  In  In6_0  1  0.25000000  0.46130912  0.07493959  1
  In  In6_1  1  0.25000000  0.46130912  0.57493959  1
  In  In6_2  1  0.25000000  0.96130912  0.07493959  1
  In  In6_3  1  0.25000000  0.96130912  0.57493959  1
  In  In6_4  1  0.75000000  0.46130912  0.07493959  1
  In  In6_5  1  0.75000000  0.46130912  0.57493959  1
  In  In6_6  1  0.75000000  0.96130912  0.07493959  1
  In  In6_7  1  0.75000000  0.96130912  0.57493959  1
  In  In7_0  1  0.25000000  0.03869088  0.42506041  1
  In  In7_1  1  0.25000000  0.03869088  0.92506041  1
  In  In7_2  1  0.25000000  0.53869088  0.42506041  1
  In  In7_3  1  0.25000000  0.53869088  0.92506041  1
  In  In7_4  1  0.75000000  0.03869088  0.42506041  1
  In  In7_5  1  0.75000000  0.03869088  0.92506041  1
  In  In7_6  1  0.75000000  0.53869088  0.42506041  1
  In  In7_7  1  0.75000000  0.53869088  0.92506041  1
  Pd  Pd0_0  1  0.25000000  0.26351531  0.09776785  1
  Pd  Pd0_1  1  0.25000000  0.26351531  0.59776785  1
  Pd  Pd0_2  1  0.25000000  0.76351531  0.09776785  1
  Pd  Pd0_3  1  0.25000000  0.76351531  0.59776785  1
  Pd  Pd0_4  1  0.75000000  0.26351531  0.09776785  1
  Pd  Pd0_5  1  0.75000000  0.26351531  0.59776785  1
  Pd  Pd0_6  1  0.75000000  0.76351531  0.09776785  1
  Pd  Pd0_7  1  0.75000000  0.76351531  0.59776785  1
  Pd  Pd1_0  1  0.25000000  0.23648469  0.40223216  1
  Pd  Pd1_1  1  0.25000000  0.23648469  0.90223215  1
  Pd  Pd1_2  1  0.25000000  0.73648470  0.40223216  1
  Pd  Pd1_3  1  0.25000000  0.73648470  0.90223215  1
  Pd  Pd1_4  1  0.75000000  0.23648469  0.40223216  1
  Pd  Pd1_5  1  0.75000000  0.23648469  0.90223215  1
  Pd  Pd1_6  1  0.75000000  0.73648470  0.40223216  1
  Pd  Pd1_7  1  0.75000000  0.73648470  0.90223215  1
  Pd  Pd2_0  1  0.25000000  0.48648469  0.34776784  1
  Pd  Pd2_1  1  0.25000000  0.48648469  0.84776785  1
  Pd  Pd2_2  1  0.25000000  0.98648470  0.34776784  1
  Pd  Pd2_3  1  0.25000000  0.98648470  0.84776785  1
  Pd  Pd2_4  1  0.75000000  0.48648469  0.34776784  1
  Pd  Pd2_5  1  0.75000000  0.48648469  0.84776785  1
  Pd  Pd2_6  1  0.75000000  0.98648470  0.34776784  1
  Pd  Pd2_7  1  0.75000000  0.98648470  0.84776785  1
  Pd  Pd3_0  1  0.25000000  0.01351531  0.15223216  1
  Pd  Pd3_1  1  0.25000000  0.01351531  0.65223215  1
  Pd  Pd3_2  1  0.25000000  0.51351530  0.15223216  1
  Pd  Pd3_3  1  0.25000000  0.51351530  0.65223215  1
  Pd  Pd3_4  1  0.75000000  0.01351531  0.15223216  1
  Pd  Pd3_5  1  0.75000000  0.01351531  0.65223215  1
  Pd  Pd3_6  1  0.75000000  0.51351530  0.15223216  1
  Pd  Pd3_7  1  0.75000000  0.51351530  0.65223215  1
loop_
_geom_bond_atom_site_label_1
_geom_bond_atom_site_label_2
_geom_bond_distance
_geom_bond_site_symmetry_2
Dy0_0 In3_0 3.207963 1_555
Dy0_0 In3_4 3.207963 1_455
Dy0_0 In2_0 3.207963 1_555
Dy0_0 In2_4 3.207963 1_455
Dy0_0 In4_0 3.333547 1_555
Dy0_0 In4_4 3.333547 1_455
Dy0_0 In5_0 3.333547 1_555
Dy0_0 In5_4 3.333547 1_455
Dy0_0 Dy8_0 3.431459 1_555
Dy0_0 Dy9_0 3.431459 1_555
Dy0_0 Dy0_4 3.632283 1_455
Dy0_0 Dy0_4 3.632283 1_555
Dy0_1 In3_1 3.207963 1_555
Dy0_1 In3_5 3.207963 1_455
Dy0_1 In2_5 3.207963 1_455
Dy0_1 In2_1 3.207963 1_555
Dy0_1 In4_5 3.333547 1_455
Dy0_1 In4_1 3.333547 1_555
Dy0_1 In5_5 3.333547 1_455
Dy0_1 In5_1 3.333547 1_555
Dy0_1 Dy8_1 3.431459 1_555
Dy0_1 Dy9_1 3.431459 1_555
Dy0_1 Dy0_5 3.632283 1_455
Dy0_1 Dy0_5 3.632283 1_555
Dy0_2 In3_6 3.207963 1_455
Dy0_2 In3_2 3.207963 1_555
Dy0_2 In2_6 3.207963 1_455
Dy0_2 In2_2 3.207963 1_555
Dy0_2 In4_6 3.333547 1_455
Dy0_2 In4_2 3.333547 1_555
Dy0_2 In5_2 3.333547 1_555
Dy0_2 In5_6 3.333547 1_455
Dy0_2 Dy8_2 3.431459 1_555
Dy0_2 Dy9_2 3.431459 1_555
Dy0_2 Dy0_6 3.632283 1_455
Dy0_2 Dy0_6 3.632283 1_555
Dy0_3 In3_3 3.207963 1_555
Dy0_3 In3_7 3.207963 1_455
Dy0_3 In2_7 3.207963 1_455
Dy0_3 In2_3 3.207963 1_555
Dy0_3 In4_3 3.333547 1_555
Dy0_3 In4_7 3.333547 1_455
Dy0_3 In5_3 3.333547 1_555
Dy0_3 In5_7 3.333547 1_455
Dy0_3 Dy8_3 3.431459 1_555
Dy0_3 Dy9_3 3.431459 1_555
Dy0_3 Dy0_7 3.632283 1_555
Dy0_3 Dy0_7 3.632283 1_455
Dy0_4 In3_0 3.207963 1_555
Dy0_4 In3_4 3.207963 1_555
Dy0_4 In2_0 3.207963 1_555
Dy0_4 In2_4 3.207963 1_555
Dy0_4 In4_0 3.333547 1_555
Dy0_4 In4_4 3.333547 1_555
Dy0_4 In5_0 3.333547 1_555
Dy0_4 In5_4 3.333547 1_555
Dy0_4 Dy8_4 3.431459 1_555
Dy0_4 Dy9_4 3.431459 1_555
Dy0_5 In3_1 3.207963 1_555
Dy0_5 In3_5 3.207963 1_555
Dy0_5 In2_5 3.207963 1_555
Dy0_5 In2_1 3.207963 1_555
Dy0_5 In4_5 3.333547 1_555
Dy0_5 In4_1 3.333547 1_555
Dy0_5 In5_1 3.333547 1_555
Dy0_5 In5_5 3.333547 1_555
Dy0_5 Dy8_5 3.431459 1_555
Dy0_5 Dy9_5 3.431459 1_555
Dy0_6 In3_2 3.207963 1_555
Dy0_6 In3_6 3.207963 1_555
Dy0_6 In2_6 3.207963 1_555
Dy0_6 In2_2 3.207963 1_555
Dy0_6 In4_6 3.333547 1_555
Dy0_6 In4_2 3.333547 1_555
Dy0_6 In5_2 3.333547 1_555
Dy0_6 In5_6 3.333547 1_555
Dy0_6 Dy8_6 3.431459 1_555
Dy0_6 Dy9_6 3.431459 1_555
Dy0_7 In3_7 3.207963 1_555
Dy0_7 In3_3 3.207963 1_555
Dy0_7 In2_3 3.207963 1_555
Dy0_7 In2_7 3.207963 1_555
Dy0_7 In4_7 3.333547 1_555
Dy0_7 In4_3 3.333547 1_555
Dy0_7 In5_3 3.333547 1_555
Dy0_7 In5_7 3.333547 1_555
Dy0_7 Dy8_7 3.431459 1_555
Dy0_7 Dy9_7 3.431459 1_555
Dy1_0 In0_7 3.207963 1_444
Dy1_0 In0_3 3.207963 1_544
Dy1_0 In1_4 3.207963 1_455
Dy1_0 In1_0 3.207963 1_555
Dy1_0 In7_1 3.333547 1_554
Dy1_0 In7_5 3.333547 1_454
Dy1_0 In6_2 3.333547 1_545
Dy1_0 In6_6 3.333547 1_445
Dy1_0 Dy6_2 3.431459 1_545
Dy1_0 Dy7_1 3.431459 1_554
Dy1_0 Dy1_4 3.632283 1_555
Dy1_0 Dy1_4 3.632283 1_455
Dy1_1 In0_2 3.207963 1_545
Dy1_1 In0_6 3.207963 1_445
Dy1_1 In1_5 3.207963 1_455
Dy1_1 In1_1 3.207963 1_555
Dy1_1 In7_4 3.333547 1_455
Dy1_1 In7_0 3.333547 1_555
Dy1_1 In6_3 3.333547 1_545
Dy1_1 In6_7 3.333547 1_445
Dy1_1 Dy7_0 3.431459 1_555
Dy1_1 Dy6_3 3.431459 1_545
Dy1_1 Dy1_5 3.632283 1_555
Dy1_1 Dy1_5 3.632283 1_455
Dy1_2 In1_2 3.207963 1_555
Dy1_2 In0_5 3.207963 1_454
Dy1_2 In0_1 3.207963 1_554
Dy1_2 In1_6 3.207963 1_455
Dy1_2 In7_3 3.333547 1_554
Dy1_2 In7_7 3.333547 1_454
Dy1_2 In6_0 3.333547 1_555
Dy1_2 In6_4 3.333547 1_455
Dy1_2 Dy6_0 3.431459 1_555
Dy1_2 Dy7_3 3.431459 1_554
Dy1_2 Dy1_6 3.632283 1_555
Dy1_2 Dy1_6 3.632283 1_455
Dy1_3 In0_0 3.207963 1_555
Dy1_3 In0_4 3.207963 1_455
Dy1_3 In1_3 3.207963 1_555
Dy1_3 In1_7 3.207963 1_455
Dy1_3 In7_2 3.333547 1_555
Dy1_3 In7_6 3.333547 1_455
Dy1_3 In6_5 3.333547 1_455
Dy1_3 In6_1 3.333547 1_555
Dy1_3 Dy6_1 3.431459 1_555
Dy1_3 Dy7_2 3.431459 1_555
Dy1_3 Dy1_7 3.632283 1_555
Dy1_3 Dy1_7 3.632283 1_455
Dy1_4 In0_3 3.207963 1_544
Dy1_4 In0_7 3.207963 1_544
Dy1_4 In1_0 3.207963 1_555
Dy1_4 In1_4 3.207963 1_555
Dy1_4 In7_1 3.333547 1_554
Dy1_4 In7_5 3.333547 1_554
Dy1_4 In6_6 3.333547 1_545
Dy1_4 In6_2 3.333547 1_545
Dy1_4 Dy6_6 3.431459 1_545
Dy1_4 Dy7_5 3.431459 1_554
Dy1_5 In0_6 3.207963 1_545
Dy1_5 In0_2 3.207963 1_545
Dy1_5 In1_1 3.207963 1_555
Dy1_5 In1_5 3.207963 1_555
Dy1_5 In7_0 3.333547 1_555
Dy1_5 In7_4 3.333547 1_555
Dy1_5 In6_3 3.333547 1_545
Dy1_5 In6_7 3.333547 1_545
Dy1_5 Dy7_4 3.431459 1_555
Dy1_5 Dy6_7 3.431459 1_545
Dy1_6 In1_6 3.207963 1_555
Dy1_6 In0_5 3.207963 1_554
Dy1_6 In1_2 3.207963 1_555
Dy1_6 In0_1 3.207963 1_554
Dy1_6 In7_7 3.333547 1_554
Dy1_6 In7_3 3.333547 1_554
Dy1_6 In6_4 3.333547 1_555
Dy1_6 In6_0 3.333547 1_555
Dy1_6 Dy6_4 3.431459 1_555
Dy1_6 Dy7_7 3.431459 1_554
Dy1_7 In0_0 3.207963 1_555
Dy1_7 In0_4 3.207963 1_555
Dy1_7 In1_3 3.207963 1_555
Dy1_7 In1_7 3.207963 1_555
Dy1_7 In7_2 3.333547 1_555
Dy1_7 In7_6 3.333547 1_555
Dy1_7 In6_1 3.333547 1_555
Dy1_7 In6_5 3.333547 1_555
Dy1_7 Dy6_5 3.431459 1_555
Dy1_7 Dy7_6 3.431459 1_555
Dy2_0 Pd0_4 2.945832 1_455
Dy2_0 Pd0_0 2.945832 1_555
Dy2_0 Pd3_2 2.952305 1_555
Dy2_0 Pd3_6 2.952305 1_455
Dy2_0 In2_0 3.312466 1_555
Dy2_0 In2_4 3.312466 1_455
Dy2_0 In6_0 3.318620 1_555
Dy2_0 In6_4 3.318620 1_455
Dy2_0 In5_0 3.395534 1_555
Dy2_0 In5_4 3.395534 1_455
Dy2_1 Pd0_5 2.945832 1_455
Dy2_1 Pd0_1 2.945832 1_555
Dy2_1 Pd3_7 2.952305 1_455
Dy2_1 Pd3_3 2.952305 1_555
Dy2_1 In2_5 3.312466 1_455
Dy2_1 In2_1 3.312466 1_555
Dy2_1 In6_5 3.318620 1_455
Dy2_1 In6_1 3.318620 1_555
Dy2_1 In5_1 3.395534 1_555
Dy2_1 In5_5 3.395534 1_455
Dy2_2 Pd0_6 2.945832 1_455
Dy2_2 Pd0_2 2.945832 1_555
Dy2_2 Pd3_4 2.952305 1_465
Dy2_2 Pd3_0 2.952305 1_565
Dy2_2 In2_2 3.312466 1_555
Dy2_2 In2_6 3.312466 1_455
Dy2_2 In6_6 3.318620 1_455
Dy2_2 In6_2 3.318620 1_555
Dy2_2 In5_2 3.395534 1_555
Dy2_2 In5_6 3.395534 1_455
Dy2_3 Pd0_3 2.945832 1_555
Dy2_3 Pd0_7 2.945832 1_455
Dy2_3 Pd3_1 2.952305 1_565
Dy2_3 Pd3_5 2.952305 1_465
Dy2_3 In2_3 3.312466 1_555
Dy2_3 In2_7 3.312466 1_455
Dy2_3 In6_3 3.318620 1_555
Dy2_3 In6_7 3.318620 1_455
Dy2_3 In5_7 3.395534 1_455
Dy2_3 In5_3 3.395534 1_555
Dy2_4 Pd0_0 2.945832 1_555
Dy2_4 Pd0_4 2.945832 1_555
Dy2_4 Pd3_2 2.952305 1_555
Dy2_4 Pd3_6 2.952305 1_555
Dy2_4 In2_4 3.312466 1_555
Dy2_4 In2_0 3.312466 1_555
Dy2_4 In6_4 3.318620 1_555
Dy2_4 In6_0 3.318620 1_555
Dy2_4 In5_4 3.395534 1_555
Dy2_4 In5_0 3.395534 1_555
Dy2_5 Pd0_5 2.945832 1_555
Dy2_5 Pd0_1 2.945832 1_555
Dy2_5 Pd3_3 2.952305 1_555
Dy2_5 Pd3_7 2.952305 1_555
Dy2_5 In2_1 3.312466 1_555
Dy2_5 In2_5 3.312466 1_555
Dy2_5 In6_5 3.318620 1_555
Dy2_5 In6_1 3.318620 1_555
Dy2_5 In5_1 3.395534 1_555
Dy2_5 In5_5 3.395534 1_555
Dy2_6 Pd0_2 2.945832 1_555
Dy2_6 Pd0_6 2.945832 1_555
Dy2_6 Pd3_4 2.952305 1_565
Dy2_6 Pd3_0 2.952305 1_565
Dy2_6 In2_2 3.312466 1_555
Dy2_6 In2_6 3.312466 1_555
Dy2_6 In6_2 3.318620 1_555
Dy2_6 In6_6 3.318620 1_555
Dy2_6 In5_2 3.395534 1_555
Dy2_6 In5_6 3.395534 1_555
Dy2_7 Pd0_3 2.945832 1_555
Dy2_7 Pd0_7 2.945832 1_555
Dy2_7 Pd3_1 2.952305 1_565
Dy2_7 Pd3_5 2.952305 1_565
Dy2_7 In2_3 3.312466 1_555
Dy2_7 In2_7 3.312466 1_555
Dy2_7 In6_3 3.318620 1_555
Dy2_7 In6_7 3.318620 1_555
Dy2_7 In5_3 3.395534 1_555
Dy2_7 In5_7 3.395534 1_555
Dy3_0 Pd1_0 2.945832 1_555
Dy3_0 Pd1_4 2.945832 1_455
Dy3_0 Pd2_6 2.952305 1_445
Dy3_0 Pd2_2 2.952305 1_545
Dy3_0 In3_0 3.312466 1_555
Dy3_0 In3_4 3.312466 1_455
Dy3_0 In7_0 3.318620 1_555
Dy3_0 In7_4 3.318620 1_455
Dy3_0 In4_4 3.395534 1_455
Dy3_0 In4_0 3.395534 1_555
Dy3_1 Pd1_5 2.945832 1_455
Dy3_1 Pd1_1 2.945832 1_555
Dy3_1 Pd2_3 2.952305 1_545
Dy3_1 Pd2_7 2.952305 1_445
Dy3_1 In3_1 3.312466 1_555
Dy3_1 In3_5 3.312466 1_455
Dy3_1 In7_1 3.318620 1_555
Dy3_1 In7_5 3.318620 1_455
Dy3_1 In4_5 3.395534 1_455
Dy3_1 In4_1 3.395534 1_555
Dy3_2 Pd1_2 2.945832 1_555
Dy3_2 Pd1_6 2.945832 1_455
Dy3_2 Pd2_0 2.952305 1_555
Dy3_2 Pd2_4 2.952305 1_455
Dy3_2 In3_2 3.312466 1_555
Dy3_2 In3_6 3.312466 1_455
Dy3_2 In7_6 3.318620 1_455
Dy3_2 In7_2 3.318620 1_555
Dy3_2 In4_2 3.395534 1_555
Dy3_2 In4_6 3.395534 1_455
Dy3_3 Pd1_7 2.945832 1_455
Dy3_3 Pd1_3 2.945832 1_555
Dy3_3 Pd2_5 2.952305 1_455
Dy3_3 Pd2_1 2.952305 1_555
Dy3_3 In3_7 3.312466 1_455
Dy3_3 In3_3 3.312466 1_555
Dy3_3 In7_7 3.318620 1_455
Dy3_3 In7_3 3.318620 1_555
Dy3_3 In4_3 3.395534 1_555
Dy3_3 In4_7 3.395534 1_455
Dy3_4 Pd1_0 2.945832 1_555
Dy3_4 Pd1_4 2.945832 1_555
Dy3_4 Pd2_6 2.952305 1_545
Dy3_4 Pd2_2 2.952305 1_545
Dy3_4 In3_0 3.312466 1_555
Dy3_4 In3_4 3.312466 1_555
Dy3_4 In7_0 3.318620 1_555
Dy3_4 In7_4 3.318620 1_555
Dy3_4 In4_0 3.395534 1_555
Dy3_4 In4_4 3.395534 1_555
Dy3_5 Pd1_1 2.945832 1_555
Dy3_5 Pd1_5 2.945832 1_555
Dy3_5 Pd2_3 2.952305 1_545
Dy3_5 Pd2_7 2.952305 1_545
Dy3_5 In3_1 3.312466 1_555
Dy3_5 In3_5 3.312466 1_555
Dy3_5 In7_1 3.318620 1_555
Dy3_5 In7_5 3.318620 1_555
Dy3_5 In4_5 3.395534 1_555
Dy3_5 In4_1 3.395534 1_555
Dy3_6 Pd1_2 2.945832 1_555
Dy3_6 Pd1_6 2.945832 1_555
Dy3_6 Pd2_0 2.952305 1_555
Dy3_6 Pd2_4 2.952305 1_555
Dy3_6 In3_2 3.312466 1_555
Dy3_6 In3_6 3.312466 1_555
Dy3_6 In7_2 3.318620 1_555
Dy3_6 In7_6 3.318620 1_555
Dy3_6 In4_2 3.395534 1_555
Dy3_6 In4_6 3.395534 1_555
Dy3_7 Pd1_3 2.945832 1_555
Dy3_7 Pd1_7 2.945832 1_555
Dy3_7 Pd2_5 2.952305 1_555
Dy3_7 Pd2_1 2.952305 1_555
Dy3_7 In3_7 3.312466 1_555
Dy3_7 In3_3 3.312466 1_555
Dy3_7 In7_3 3.318620 1_555
Dy3_7 In7_7 3.318620 1_555
Dy3_7 In4_7 3.395534 1_555
Dy3_7 In4_3 3.395534 1_555
Dy4_0 Pd2_0 2.945832 1_555
Dy4_0 Pd2_4 2.945832 1_455
Dy4_0 Pd1_0 2.952305 1_555
Dy4_0 Pd1_4 2.952305 1_455
Dy4_0 In0_0 3.312466 1_555
Dy4_0 In0_4 3.312466 1_455
Dy4_0 In4_4 3.318620 1_455
Dy4_0 In4_0 3.318620 1_555
Dy4_0 In7_6 3.395534 1_455
Dy4_0 In7_2 3.395534 1_555
Dy4_1 Pd2_1 2.945832 1_555
Dy4_1 Pd2_5 2.945832 1_455
Dy4_1 Pd1_5 2.952305 1_455
Dy4_1 Pd1_1 2.952305 1_555
Dy4_1 In0_1 3.312466 1_555
Dy4_1 In0_5 3.312466 1_455
Dy4_1 In4_5 3.318620 1_455
Dy4_1 In4_1 3.318620 1_555
Dy4_1 In7_3 3.395534 1_555
Dy4_1 In7_7 3.395534 1_455
Dy4_2 Pd2_6 2.945832 1_455
Dy4_2 Pd2_2 2.945832 1_555
Dy4_2 Pd1_6 2.952305 1_455
Dy4_2 Pd1_2 2.952305 1_555
Dy4_2 In0_2 3.312466 1_555
Dy4_2 In0_6 3.312466 1_455
Dy4_2 In4_6 3.318620 1_455
Dy4_2 In4_2 3.318620 1_555
Dy4_2 In7_4 3.395534 1_465
Dy4_2 In7_0 3.395534 1_565
Dy4_3 Pd2_7 2.945832 1_455
Dy4_3 Pd2_3 2.945832 1_555
Dy4_3 Pd1_3 2.952305 1_555
Dy4_3 Pd1_7 2.952305 1_455
Dy4_3 In0_7 3.312466 1_455
Dy4_3 In0_3 3.312466 1_555
Dy4_3 In4_7 3.318620 1_455
Dy4_3 In4_3 3.318620 1_555
Dy4_3 In7_5 3.395534 1_465
Dy4_3 In7_1 3.395534 1_565
Dy4_4 Pd2_0 2.945832 1_555
Dy4_4 Pd2_4 2.945832 1_555
Dy4_4 Pd1_0 2.952305 1_555
Dy4_4 Pd1_4 2.952305 1_555
Dy4_4 In0_0 3.312466 1_555
Dy4_4 In0_4 3.312466 1_555
Dy4_4 In4_0 3.318620 1_555
Dy4_4 In4_4 3.318620 1_555
Dy4_4 In7_6 3.395534 1_555
Dy4_4 In7_2 3.395534 1_555
Dy4_5 Pd2_1 2.945832 1_555
Dy4_5 Pd2_5 2.945832 1_555
Dy4_5 Pd1_1 2.952305 1_555
Dy4_5 Pd1_5 2.952305 1_555
Dy4_5 In0_5 3.312466 1_555
Dy4_5 In0_1 3.312466 1_555
Dy4_5 In4_5 3.318620 1_555
Dy4_5 In4_1 3.318620 1_555
Dy4_5 In7_3 3.395534 1_555
Dy4_5 In7_7 3.395534 1_555
Dy4_6 Pd2_6 2.945832 1_555
Dy4_6 Pd2_2 2.945832 1_555
Dy4_6 Pd1_6 2.952305 1_555
Dy4_6 Pd1_2 2.952305 1_555
Dy4_6 In0_6 3.312466 1_555
Dy4_6 In0_2 3.312466 1_555
Dy4_6 In4_2 3.318620 1_555
Dy4_6 In4_6 3.318620 1_555
Dy4_6 In7_0 3.395534 1_565
Dy4_6 In7_4 3.395534 1_565
Dy4_7 Pd2_3 2.945832 1_555
Dy4_7 Pd2_7 2.945832 1_555
Dy4_7 Pd1_3 2.952305 1_555
Dy4_7 Pd1_7 2.952305 1_555
Dy4_7 In0_3 3.312466 1_555
Dy4_7 In0_7 3.312466 1_555
Dy4_7 In4_7 3.318620 1_555
Dy4_7 In4_3 3.318620 1_555
Dy4_7 In7_5 3.395534 1_565
Dy4_7 In7_1 3.395534 1_565
Dy5_0 Pd3_4 2.945832 1_455
Dy5_0 Pd3_0 2.945832 1_555
Dy5_0 Pd0_0 2.952305 1_555
Dy5_0 Pd0_4 2.952305 1_455
Dy5_0 In1_4 3.312466 1_455
Dy5_0 In1_0 3.312466 1_555
Dy5_0 In5_4 3.318620 1_455
Dy5_0 In5_0 3.318620 1_555
Dy5_0 In6_6 3.395534 1_445
Dy5_0 In6_2 3.395534 1_545
Dy5_1 Pd3_5 2.945832 1_455
Dy5_1 Pd3_1 2.945832 1_555
Dy5_1 Pd0_5 2.952305 1_455
Dy5_1 Pd0_1 2.952305 1_555
Dy5_1 In1_5 3.312466 1_455
Dy5_1 In1_1 3.312466 1_555
Dy5_1 In5_1 3.318620 1_555
Dy5_1 In5_5 3.318620 1_455
Dy5_1 In6_3 3.395534 1_545
Dy5_1 In6_7 3.395534 1_445
Dy5_2 Pd3_2 2.945832 1_555
Dy5_2 Pd3_6 2.945832 1_455
Dy5_2 Pd0_2 2.952305 1_555
Dy5_2 Pd0_6 2.952305 1_455
Dy5_2 In1_2 3.312466 1_555
Dy5_2 In1_6 3.312466 1_455
Dy5_2 In5_2 3.318620 1_555
Dy5_2 In5_6 3.318620 1_455
Dy5_2 In6_4 3.395534 1_455
Dy5_2 In6_0 3.395534 1_555
Dy5_3 Pd3_7 2.945832 1_455
Dy5_3 Pd3_3 2.945832 1_555
Dy5_3 Pd0_3 2.952305 1_555
Dy5_3 Pd0_7 2.952305 1_455
Dy5_3 In1_3 3.312466 1_555
Dy5_3 In1_7 3.312466 1_455
Dy5_3 In5_3 3.318620 1_555
Dy5_3 In5_7 3.318620 1_455
Dy5_3 In6_5 3.395534 1_455
Dy5_3 In6_1 3.395534 1_555
Dy5_4 Pd3_0 2.945832 1_555
Dy5_4 Pd3_4 2.945832 1_555
Dy5_4 Pd0_0 2.952305 1_555
Dy5_4 Pd0_4 2.952305 1_555
Dy5_4 In1_4 3.312466 1_555
Dy5_4 In1_0 3.312466 1_555
Dy5_4 In5_4 3.318620 1_555
Dy5_4 In5_0 3.318620 1_555
Dy5_4 In6_2 3.395534 1_545
Dy5_4 In6_6 3.395534 1_545
Dy5_5 Pd3_5 2.945832 1_555
Dy5_5 Pd3_1 2.945832 1_555
Dy5_5 Pd0_1 2.952305 1_555
Dy5_5 Pd0_5 2.952305 1_555
Dy5_5 In1_5 3.312466 1_555
Dy5_5 In1_1 3.312466 1_555
Dy5_5 In5_5 3.318620 1_555
Dy5_5 In5_1 3.318620 1_555
Dy5_5 In6_3 3.395534 1_545
Dy5_5 In6_7 3.395534 1_545
Dy5_6 Pd3_2 2.945832 1_555
Dy5_6 Pd3_6 2.945832 1_555
Dy5_6 Pd0_2 2.952305 1_555
Dy5_6 Pd0_6 2.952305 1_555
Dy5_6 In1_6 3.312466 1_555
Dy5_6 In1_2 3.312466 1_555
Dy5_6 In5_2 3.318620 1_555
Dy5_6 In5_6 3.318620 1_555
Dy5_6 In6_4 3.395534 1_555
Dy5_6 In6_0 3.395534 1_555
Dy5_7 Pd3_3 2.945832 1_555
Dy5_7 Pd3_7 2.945832 1_555
Dy5_7 Pd0_3 2.952305 1_555
Dy5_7 Pd0_7 2.952305 1_555
Dy5_7 In1_3 3.312466 1_555
Dy5_7 In1_7 3.312466 1_555
Dy5_7 In5_3 3.318620 1_555
Dy5_7 In5_7 3.318620 1_555
Dy5_7 In6_1 3.395534 1_555
Dy5_7 In6_5 3.395534 1_555
Dy6_0 Pd0_0 2.828489 1_555
Dy6_0 Pd0_4 2.828489 1_455
Dy6_0 In1_0 3.204423 1_555
Dy6_0 In1_4 3.204423 1_455
Dy6_0 In6_0 3.289699 1_555
Dy6_0 In6_4 3.289699 1_455
Dy6_0 In0_5 3.389374 1_454
Dy6_0 In0_1 3.389374 1_554
Dy6_1 Pd0_5 2.828489 1_455
Dy6_1 Pd0_1 2.828489 1_555
Dy6_1 In1_1 3.204423 1_555
Dy6_1 In1_5 3.204423 1_455
Dy6_1 In6_1 3.289699 1_555
Dy6_1 In6_5 3.289699 1_455
Dy6_1 In0_0 3.389374 1_555
Dy6_1 In0_4 3.389374 1_455
Dy6_2 Pd0_6 2.828489 1_455
Dy6_2 Pd0_2 2.828489 1_555
Dy6_2 In1_6 3.204423 1_455
Dy6_2 In1_2 3.204423 1_555
Dy6_2 In6_2 3.289699 1_555
Dy6_2 In6_6 3.289699 1_455
Dy6_2 In0_7 3.389374 1_454
Dy6_2 In0_3 3.389374 1_554
Dy6_3 Pd0_3 2.828489 1_555
Dy6_3 Pd0_7 2.828489 1_455
Dy6_3 In1_3 3.204423 1_555
Dy6_3 In1_7 3.204423 1_455
Dy6_3 In6_3 3.289699 1_555
Dy6_3 In6_7 3.289699 1_455
Dy6_3 In0_2 3.389374 1_555
Dy6_3 In0_6 3.389374 1_455
Dy6_4 Pd0_0 2.828489 1_555
Dy6_4 Pd0_4 2.828489 1_555
Dy6_4 In1_4 3.204423 1_555
Dy6_4 In1_0 3.204423 1_555
Dy6_4 In6_0 3.289699 1_555
Dy6_4 In6_4 3.289699 1_555
Dy6_4 In0_1 3.389374 1_554
Dy6_4 In0_5 3.389374 1_554
Dy6_5 Pd0_1 2.828489 1_555
Dy6_5 Pd0_5 2.828489 1_555
Dy6_5 In1_1 3.204423 1_555
Dy6_5 In1_5 3.204423 1_555
Dy6_5 In6_5 3.289699 1_555
Dy6_5 In6_1 3.289699 1_555
Dy6_5 In0_0 3.389374 1_555
Dy6_5 In0_4 3.389374 1_555
Dy6_6 Pd0_6 2.828489 1_555
Dy6_6 Pd0_2 2.828489 1_555
Dy6_6 In1_6 3.204423 1_555
Dy6_6 In1_2 3.204423 1_555
Dy6_6 In6_2 3.289699 1_555
Dy6_6 In6_6 3.289699 1_555
Dy6_6 In0_7 3.389374 1_554
Dy6_6 In0_3 3.389374 1_554
Dy6_7 Pd0_3 2.828489 1_555
Dy6_7 Pd0_7 2.828489 1_555
Dy6_7 In1_7 3.204423 1_555
Dy6_7 In1_3 3.204423 1_555
Dy6_7 In6_3 3.289699 1_555
Dy6_7 In6_7 3.289699 1_555
Dy6_7 In0_2 3.389374 1_555
Dy6_7 In0_6 3.389374 1_555
Dy7_0 Pd1_0 2.828489 1_555
Dy7_0 Pd1_4 2.828489 1_455
Dy7_0 In0_4 3.204423 1_455
Dy7_0 In0_0 3.204423 1_555
Dy7_0 In7_4 3.289699 1_455
Dy7_0 In7_0 3.289699 1_555
Dy7_0 In1_5 3.389374 1_455
Dy7_0 In1_1 3.389374 1_555
Dy7_1 Pd1_5 2.828489 1_455
Dy7_1 Pd1_1 2.828489 1_555
Dy7_1 In0_5 3.204423 1_455
Dy7_1 In0_1 3.204423 1_555
Dy7_1 In7_1 3.289699 1_555
Dy7_1 In7_5 3.289699 1_455
Dy7_1 In1_4 3.389374 1_456
Dy7_1 In1_0 3.389374 1_556
Dy7_2 Pd1_2 2.828489 1_555
Dy7_2 Pd1_6 2.828489 1_455
Dy7_2 In0_2 3.204423 1_555
Dy7_2 In0_6 3.204423 1_455
Dy7_2 In7_6 3.289699 1_455
Dy7_2 In7_2 3.289699 1_555
Dy7_2 In1_3 3.389374 1_555
Dy7_2 In1_7 3.389374 1_455
Dy7_3 Pd1_7 2.828489 1_455
Dy7_3 Pd1_3 2.828489 1_555
Dy7_3 In0_7 3.204423 1_455
Dy7_3 In0_3 3.204423 1_555
Dy7_3 In7_7 3.289699 1_455
Dy7_3 In7_3 3.289699 1_555
Dy7_3 In1_2 3.389374 1_556
Dy7_3 In1_6 3.389374 1_456
Dy7_4 Pd1_0 2.828489 1_555
Dy7_4 Pd1_4 2.828489 1_555
Dy7_4 In0_4 3.204423 1_555
Dy7_4 In0_0 3.204423 1_555
Dy7_4 In7_4 3.289699 1_555
Dy7_4 In7_0 3.289699 1_555
Dy7_4 In1_1 3.389374 1_555
Dy7_4 In1_5 3.389374 1_555
Dy7_5 Pd1_5 2.828489 1_555
Dy7_5 Pd1_1 2.828489 1_555
Dy7_5 In0_1 3.204423 1_555
Dy7_5 In0_5 3.204423 1_555
Dy7_5 In7_1 3.289699 1_555
Dy7_5 In7_5 3.289699 1_555
Dy7_5 In1_4 3.389374 1_556
Dy7_5 In1_0 3.389374 1_556
Dy7_6 Pd1_2 2.828489 1_555
Dy7_6 Pd1_6 2.828489 1_555
Dy7_6 In0_6 3.204423 1_555
Dy7_6 In0_2 3.204423 1_555
Dy7_6 In7_2 3.289699 1_555
Dy7_6 In7_6 3.289699 1_555
Dy7_6 In1_3 3.389374 1_555
Dy7_6 In1_7 3.389374 1_555
Dy7_7 Pd1_3 2.828489 1_555
Dy7_7 Pd1_7 2.828489 1_555
Dy7_7 In0_3 3.204423 1_555
Dy7_7 In0_7 3.204423 1_555
Dy7_7 In7_7 3.289699 1_555
Dy7_7 In7_3 3.289699 1_555
Dy7_7 In1_2 3.389374 1_556
Dy7_7 In1_6 3.389374 1_556
Dy8_0 Pd2_4 2.828489 1_455
Dy8_0 Pd2_0 2.828489 1_555
Dy8_0 In3_6 3.204423 1_455
Dy8_0 In3_2 3.204423 1_555
Dy8_0 In4_0 3.289699 1_555
Dy8_0 In4_4 3.289699 1_455
Dy8_0 In2_0 3.389374 1_555
Dy8_0 In2_4 3.389374 1_455
Dy8_1 Pd2_1 2.828489 1_555
Dy8_1 Pd2_5 2.828489 1_455
Dy8_1 In3_7 3.204423 1_455
Dy8_1 In3_3 3.204423 1_555
Dy8_1 In4_5 3.289699 1_455
Dy8_1 In4_1 3.289699 1_555
Dy8_1 In2_5 3.389374 1_455
Dy8_1 In2_1 3.389374 1_555
Dy8_2 Pd2_6 2.828489 1_455
Dy8_2 Pd2_2 2.828489 1_555
Dy8_2 In3_0 3.204423 1_565
Dy8_2 In3_4 3.204423 1_465
Dy8_2 In4_6 3.289699 1_455
Dy8_2 In4_2 3.289699 1_555
Dy8_2 In2_6 3.389374 1_455
Dy8_2 In2_2 3.389374 1_555
Dy8_3 Pd2_3 2.828489 1_555
Dy8_3 Pd2_7 2.828489 1_455
Dy8_3 In3_5 3.204423 1_465
Dy8_3 In3_1 3.204423 1_565
Dy8_3 In4_3 3.289699 1_555
Dy8_3 In4_7 3.289699 1_455
Dy8_3 In2_7 3.389374 1_455
Dy8_3 In2_3 3.389374 1_555
Dy8_4 Pd2_4 2.828489 1_555
Dy8_4 Pd2_0 2.828489 1_555
Dy8_4 In3_6 3.204423 1_555
Dy8_4 In3_2 3.204423 1_555
Dy8_4 In4_0 3.289699 1_555
Dy8_4 In4_4 3.289699 1_555
Dy8_4 In2_0 3.389374 1_555
Dy8_4 In2_4 3.389374 1_555
Dy8_5 Pd2_1 2.828489 1_555
Dy8_5 Pd2_5 2.828489 1_555
Dy8_5 In3_7 3.204423 1_555
Dy8_5 In3_3 3.204423 1_555
Dy8_5 In4_1 3.289699 1_555
Dy8_5 In4_5 3.289699 1_555
Dy8_5 In2_5 3.389374 1_555
Dy8_5 In2_1 3.389374 1_555
Dy8_6 Pd2_6 2.828489 1_555
Dy8_6 Pd2_2 2.828489 1_555
Dy8_6 In3_0 3.204423 1_565
Dy8_6 In3_4 3.204423 1_565
Dy8_6 In4_2 3.289699 1_555
Dy8_6 In4_6 3.289699 1_555
Dy8_6 In2_6 3.389374 1_555
Dy8_6 In2_2 3.389374 1_555
Dy8_7 Pd2_3 2.828489 1_555
Dy8_7 Pd2_7 2.828489 1_555
Dy8_7 In3_1 3.204423 1_565
Dy8_7 In3_5 3.204423 1_565
Dy8_7 In4_7 3.289699 1_555
Dy8_7 In4_3 3.289699 1_555
Dy8_7 In2_3 3.389374 1_555
Dy8_7 In2_7 3.389374 1_555
Dy9_0 Pd3_4 2.828489 1_455
Dy9_0 Pd3_0 2.828489 1_555
Dy9_0 In2_6 3.204423 1_445
Dy9_0 In2_2 3.204423 1_545
Dy9_0 In5_0 3.289699 1_555
Dy9_0 In5_4 3.289699 1_455
Dy9_0 In3_4 3.389374 1_455
Dy9_0 In3_0 3.389374 1_555
Dy9_1 Pd3_5 2.828489 1_455
Dy9_1 Pd3_1 2.828489 1_555
Dy9_1 In2_3 3.204423 1_545
Dy9_1 In2_7 3.204423 1_445
Dy9_1 In5_1 3.289699 1_555
Dy9_1 In5_5 3.289699 1_455
Dy9_1 In3_1 3.389374 1_555
Dy9_1 In3_5 3.389374 1_455
Dy9_2 Pd3_2 2.828489 1_555
Dy9_2 Pd3_6 2.828489 1_455
Dy9_2 In2_0 3.204423 1_555
Dy9_2 In2_4 3.204423 1_455
Dy9_2 In5_6 3.289699 1_455
Dy9_2 In5_2 3.289699 1_555
Dy9_2 In3_6 3.389374 1_455
Dy9_2 In3_2 3.389374 1_555
Dy9_3 Pd3_3 2.828489 1_555
Dy9_3 Pd3_7 2.828489 1_455
Dy9_3 In2_5 3.204423 1_455
Dy9_3 In2_1 3.204423 1_555
Dy9_3 In5_3 3.289699 1_555
Dy9_3 In5_7 3.289699 1_455
Dy9_3 In3_7 3.389374 1_455
Dy9_3 In3_3 3.389374 1_555
Dy9_4 Pd3_0 2.828489 1_555
Dy9_4 Pd3_4 2.828489 1_555
Dy9_4 In2_2 3.204423 1_545
Dy9_4 In2_6 3.204423 1_545
Dy9_4 In5_0 3.289699 1_555
Dy9_4 In5_4 3.289699 1_555
Dy9_4 In3_4 3.389374 1_555
Dy9_4 In3_0 3.389374 1_555
Dy9_5 Pd3_5 2.828489 1_555
Dy9_5 Pd3_1 2.828489 1_555
Dy9_5 In2_3 3.204423 1_545
Dy9_5 In2_7 3.204423 1_545
Dy9_5 In5_1 3.289699 1_555
Dy9_5 In5_5 3.289699 1_555
Dy9_5 In3_1 3.389374 1_555
Dy9_5 In3_5 3.389374 1_555
Dy9_6 Pd3_2 2.828489 1_555
Dy9_6 Pd3_6 2.828489 1_555
Dy9_6 In2_0 3.204423 1_555
Dy9_6 In2_4 3.204423 1_555
Dy9_6 In5_2 3.289699 1_555
Dy9_6 In5_6 3.289699 1_555
Dy9_6 In3_2 3.389374 1_555
Dy9_6 In3_6 3.389374 1_555
Dy9_7 Pd3_3 2.828489 1_555
Dy9_7 Pd3_7 2.828489 1_555
Dy9_7 In2_5 3.204423 1_555
Dy9_7 In2_1 3.204423 1_555
Dy9_7 In5_3 3.289699 1_555
Dy9_7 In5_7 3.289699 1_555
Dy9_7 In3_7 3.389374 1_555
Dy9_7 In3_3 3.389374 1_555
In0_0 Pd1_0 2.991008 1_555
In0_0 In7_2 3.299477 1_555
In0_1 Pd1_1 2.991008 1_555
In0_1 In7_3 3.299477 1_555
In0_2 Pd1_2 2.991008 1_555
In0_2 In7_0 3.299477 1_565
In0_3 Pd1_3 2.991008 1_555
In0_3 In7_1 3.299477 1_565
In0_4 Pd1_4 2.991008 1_555
In0_4 In7_6 3.299477 1_555
In0_5 Pd1_5 2.991008 1_555
In0_5 In7_7 3.299477 1_555
In0_6 Pd1_6 2.991008 1_555
In0_6 In7_4 3.299477 1_565
In0_7 Pd1_7 2.991008 1_555
In0_7 In7_5 3.299477 1_565
In1_0 Pd0_0 2.991008 1_555
In1_0 In6_2 3.299477 1_545
In1_1 Pd0_1 2.991008 1_555
In1_1 In6_3 3.299477 1_545
In1_2 Pd0_2 2.991008 1_555
In1_2 In6_0 3.299477 1_555
In1_3 Pd0_3 2.991008 1_555
In1_3 In6_1 3.299477 1_555
In1_4 Pd0_4 2.991008 1_555
In1_4 In6_6 3.299477 1_545
In1_5 Pd0_5 2.991008 1_555
In1_5 In6_7 3.299477 1_545
In1_6 Pd0_6 2.991008 1_555
In1_6 In6_4 3.299477 1_555
In1_7 Pd0_7 2.991008 1_555
In1_7 In6_5 3.299477 1_555
In2_0 Pd3_2 2.991008 1_555
In2_0 In5_0 3.299477 1_555
In2_1 Pd3_3 2.991008 1_555
In2_1 In5_1 3.299477 1_555
In2_2 Pd3_0 2.991008 1_565
In2_2 In5_2 3.299477 1_555
In2_3 Pd3_1 2.991008 1_565
In2_3 In5_3 3.299477 1_555
In2_4 Pd3_6 2.991008 1_555
In2_4 In5_4 3.299477 1_555
In2_5 Pd3_7 2.991008 1_555
In2_5 In5_5 3.299477 1_555
In2_6 Pd3_4 2.991008 1_565
In2_6 In5_6 3.299477 1_555
In2_7 Pd3_5 2.991008 1_565
In2_7 In5_7 3.299477 1_555
In3_0 Pd2_2 2.991008 1_545
In3_0 In4_0 3.299477 1_555
In3_1 Pd2_3 2.991008 1_545
In3_1 In4_1 3.299477 1_555
In3_2 Pd2_0 2.991008 1_555
In3_2 In4_2 3.299477 1_555
In3_3 Pd2_1 2.991008 1_555
In3_3 In4_3 3.299477 1_555
In3_4 Pd2_6 2.991008 1_545
In3_4 In4_4 3.299477 1_555
In3_5 Pd2_7 2.991008 1_545
In3_5 In4_5 3.299477 1_555
In3_6 Pd2_4 2.991008 1_555
In3_6 In4_6 3.299477 1_555
In3_7 Pd2_5 2.991008 1_555
In3_7 In4_7 3.299477 1_555
In4_0 Pd1_0 2.933497 1_555
In4_0 Pd2_0 3.286417 1_555
In4_1 Pd1_1 2.933497 1_555
In4_1 Pd2_1 3.286417 1_555
In4_2 Pd1_2 2.933497 1_555
In4_2 Pd2_2 3.286417 1_555
In4_3 Pd1_3 2.933497 1_555
In4_3 Pd2_3 3.286417 1_555
In4_4 Pd1_4 2.933497 1_555
In4_4 Pd2_4 3.286417 1_555
In4_5 Pd1_5 2.933497 1_555
In4_5 Pd2_5 3.286417 1_555
In4_6 Pd1_6 2.933497 1_555
In4_6 Pd2_6 3.286417 1_555
In4_7 Pd1_7 2.933497 1_555
In4_7 Pd2_7 3.286417 1_555
In5_0 Pd0_0 2.933497 1_555
In5_0 Pd3_0 3.286417 1_555
In5_1 Pd0_1 2.933497 1_555
In5_1 Pd3_1 3.286417 1_555
In5_2 Pd0_2 2.933497 1_555
In5_2 Pd3_2 3.286417 1_555
In5_3 Pd0_3 2.933497 1_555
In5_3 Pd3_3 3.286417 1_555
In5_4 Pd0_4 2.933497 1_555
In5_4 Pd3_4 3.286417 1_555
In5_5 Pd0_5 2.933497 1_555
In5_5 Pd3_5 3.286417 1_555
In5_6 Pd0_6 2.933497 1_555
In5_6 Pd3_6 3.286417 1_555
In5_7 Pd0_7 2.933497 1_555
In5_7 Pd3_7 3.286417 1_555
In6_0 Pd3_2 2.933497 1_555
In6_0 Pd0_0 3.286417 1_555
In6_1 Pd3_3 2.933497 1_555
In6_1 Pd0_1 3.286417 1_555
In6_2 Pd3_0 2.933497 1_565
In6_2 Pd0_2 3.286417 1_555
In6_3 Pd3_1 2.933497 1_565
In6_3 Pd0_3 3.286417 1_555
In6_4 Pd3_6 2.933497 1_555
In6_4 Pd0_4 3.286417 1_555
In6_5 Pd3_7 2.933497 1_555
In6_5 Pd0_5 3.286417 1_555
In6_6 Pd3_4 2.933497 1_565
In6_6 Pd0_6 3.286417 1_555
In6_7 Pd3_5 2.933497 1_565
In6_7 Pd0_7 3.286417 1_555
In7_0 Pd2_2 2.933497 1_545
In7_0 Pd1_0 3.286417 1_555
In7_1 Pd2_3 2.933497 1_545
In7_1 Pd1_1 3.286417 1_555
In7_2 Pd2_0 2.933497 1_555
In7_2 Pd1_2 3.286417 1_555
In7_3 Pd2_1 2.933497 1_555
In7_3 Pd1_3 3.286417 1_555
In7_4 Pd2_6 2.933497 1_545
In7_4 Pd1_4 3.286417 1_555
In7_5 Pd2_7 2.933497 1_545
In7_5 Pd1_5 3.286417 1_555
In7_6 Pd2_4 2.933497 1_555
In7_6 Pd1_6 3.286417 1_555
In7_7 Pd2_5 2.933497 1_555
In7_7 Pd1_7 3.286417 1_555
