# generated using pymatgen
data_BaCu2(PO4)2
_symmetry_space_group_name_H-M   'P 1'
_cell_length_a   9.35422000
_cell_length_b   9.38852601
_cell_length_c   10.70157778
_cell_angle_alpha   106.92935890
_cell_angle_beta   101.71213816
_cell_angle_gamma   115.37064521
_symmetry_Int_Tables_number   1
_chemical_formula_structural   BaCu2(PO4)2
_chemical_formula_sum   'Ba4 Cu8 P8 O32'
_cell_volume   751.72741275
_cell_formula_units_Z   4
loop_
 _symmetry_equiv_pos_site_id
 _symmetry_equiv_pos_as_xyz
  1  'x, y, z'
loop_
 _atom_site_type_symbol
 _atom_site_label
 _atom_site_symmetry_multiplicity
 _atom_site_fract_x
 _atom_site_fract_y
 _atom_site_fract_z
 _atom_site_occupancy
  Ba  Ba0  1  0.75677500  0.75385300  0.00250900  1
  Ba  Ba1  1  0.24322500  0.24614700  0.99749100  1
  Ba  Ba2  1  0.22236000  0.23755400  0.51362500  1
  Ba  Ba3  1  0.77764000  0.76244600  0.48637500  1
  Cu  Cu0  1  0.80632300  0.47036300  0.29288100  1
  Cu  Cu1  1  0.22868900  0.88594100  0.80108100  1
  Cu  Cu2  1  0.67429600  0.01989700  0.68888300  1
  Cu  Cu3  1  0.28833300  0.63634100  0.19592200  1
  Cu  Cu4  1  0.19367700  0.52963700  0.70711900  1
  Cu  Cu5  1  0.77131100  0.11405900  0.19891900  1
  Cu  Cu6  1  0.71166700  0.36365900  0.80407800  1
  Cu  Cu7  1  0.32570400  0.98010300  0.31111700  1
  P  P0  1  0.07832700  0.80907200  0.13468400  1
  P  P1  1  0.42147400  0.70279500  0.86725200  1
  P  P2  1  0.56679700  0.29137400  0.62840200  1
  P  P3  1  0.93755400  0.21718700  0.35951300  1
  P  P4  1  0.43320300  0.70862600  0.37159800  1
  P  P5  1  0.06244600  0.78281300  0.64048700  1
  P  P6  1  0.57852600  0.29720500  0.13274800  1
  P  P7  1  0.92167300  0.19092800  0.86531600  1
  O  O0  1  0.52963100  0.36620200  0.74328900  1
  O  O1  1  0.81969400  0.05417500  0.81812700  1
  O  O2  1  0.20722800  0.74812000  0.65799000  1
  O  O3  1  0.11271100  0.65932300  0.14929700  1
  O  O4  1  0.58538100  0.12762300  0.16165300  1
  O  O5  1  0.29910400  0.75589900  0.34293800  1
  O  O6  1  0.70089600  0.24410100  0.65706200  1
  O  O7  1  0.12595600  0.28475800  0.77066400  1
  O  O8  1  0.87404400  0.71524200  0.22933600  1
  O  O9  1  0.88728900  0.34067700  0.85070300  1
  O  O10  1  0.88976800  0.09990200  0.01888100  1
  O  O11  1  0.03666000  0.87074400  0.74764300  1
  O  O12  1  0.79277200  0.25188000  0.34201000  1
  O  O13  1  0.40228000  0.13985800  0.64149200  1
  O  O14  1  0.11023200  0.90009800  0.98111900  1
  O  O15  1  0.34509300  0.56119000  0.51715100  1
  O  O16  1  0.13295700  0.91900100  0.49103800  1
  O  O17  1  0.96334000  0.12925600  0.25235700  1
  O  O18  1  0.89188300  0.62782900  0.66782700  1
  O  O19  1  0.10811700  0.37217100  0.33217300  1
  O  O20  1  0.59772000  0.86014200  0.35850800  1
  O  O21  1  0.65490700  0.43881000  0.48284900  1
  O  O22  1  0.60481100  0.77176900  0.74528500  1
  O  O23  1  0.86704300  0.08099900  0.50896200  1
  O  O24  1  0.41461900  0.87237700  0.83834700  1
  O  O25  1  0.73227800  0.44670300  0.13464400  1
  O  O26  1  0.39518900  0.22823100  0.25471500  1
  O  O27  1  0.26772200  0.55329700  0.86535600  1
  O  O28  1  0.57240600  0.35774400  0.98998800  1
  O  O29  1  0.47036900  0.63379800  0.25671100  1
  O  O30  1  0.42759400  0.64225600  0.01001200  1
  O  O31  1  0.18030600  0.94582500  0.18187300  1
loop_
_geom_bond_atom_site_label_1
_geom_bond_atom_site_label_2
_geom_bond_distance
_geom_bond_site_symmetry_2
Ba0 O8 2.645600 1_555
Ba0 P0 2.797523 1_655
Ba0 O30 2.823216 1_555
Ba0 O10 2.872292 1_565
Ba0 O22 2.917579 1_554
Ba0 P1 2.937135 1_554
Ba0 O14 3.077237 1_654
Ba0 O17 3.143717 1_565
Ba0 O0 3.249032 1_554
Ba0 O28 3.307894 1_554
Ba0 Cu5 3.350113 1_565
Ba0 Cu6 3.447987 1_554
Ba1 O7 2.645600 1_555
Ba1 P7 2.797523 1_455
Ba1 O28 2.823216 1_555
Ba1 O14 2.872292 1_545
Ba1 O26 2.917579 1_556
Ba1 P6 2.937135 1_556
Ba1 O10 3.077237 1_456
Ba1 O11 3.143717 1_545
Ba1 O29 3.249032 1_556
Ba1 O30 3.307894 1_556
Ba1 Cu1 3.350113 1_545
Ba1 Cu3 3.447987 1_556
Ba2 O13 2.581686 1_555
Ba2 O16 2.656301 1_545
Ba2 O15 2.734604 1_555
Ba2 O23 2.985546 1_455
Ba2 O7 3.035736 1_555
Ba3 O20 2.581686 1_555
Ba3 O23 2.656301 1_565
Ba3 O21 2.734604 1_555
Ba3 O16 2.985546 1_655
Ba3 O8 3.035736 1_555
Cu0 O25 1.602979 1_555
Cu0 P6 2.011614 1_555
Cu0 O12 2.220892 1_555
Cu0 O8 2.446782 1_555
Cu0 O21 2.717903 1_555
Cu1 O2 1.599408 1_555
Cu1 O11 1.699949 1_555
Cu1 O24 1.771429 1_555
Cu1 O14 2.408620 1_555
Cu2 O1 1.571102 1_555
Cu2 O6 2.147486 1_555
Cu2 O22 2.427806 1_545
Cu3 O5 1.598632 1_555
Cu3 O29 1.708060 1_555
Cu3 O3 1.740115 1_555
Cu3 O30 2.590916 1_555
Cu4 O27 1.602979 1_555
Cu4 P1 2.011614 1_555
Cu4 O2 2.220892 1_555
Cu4 O7 2.446782 1_555
Cu4 O15 2.717903 1_555
Cu5 O12 1.599408 1_555
Cu5 O17 1.699949 1_555
Cu5 O4 1.771429 1_555
Cu5 O10 2.408620 1_555
Cu6 O6 1.598632 1_555
Cu6 O0 1.708060 1_555
Cu6 O9 1.740115 1_555
Cu6 O28 2.590916 1_555
Cu7 O31 1.571102 1_555
Cu7 O5 2.147486 1_555
Cu7 O26 2.427806 1_565
O0 P2 1.416269 1_555
O1 P7 1.091192 1_555
O1 O10 1.969645 1_556
O2 P5 1.511928 1_555
O3 P0 1.612343 1_555
O4 P6 1.732314 1_555
O5 P4 1.504896 1_555
O6 P2 1.504896 1_555
O7 P7 2.305769 1_455
O8 P0 2.305769 1_655
O9 P7 1.612343 1_555
O10 P7 2.078128 1_554
O11 P5 1.336531 1_555
O12 P3 1.511928 1_555
O13 P2 1.655012 1_555
O14 O31 1.969645 1_556
O14 P0 2.078128 1_556
O15 P4 2.412641 1_555
O16 P5 2.350377 1_555
O17 P3 1.336531 1_555
O18 P5 1.787856 1_655
O19 P3 1.787856 1_455
O20 P4 1.655012 1_555
O21 P2 2.412641 1_555
O22 P1 2.348079 1_555
O23 P3 2.350377 1_555
O24 P1 1.732314 1_555
O25 P6 1.510169 1_555
O25 O28 1.602263 1_554
O26 P6 2.348079 1_555
O27 P1 1.510169 1_555
O27 O30 1.602263 1_556
O28 P6 1.777202 1_556
O29 P4 1.416269 1_555
O30 P1 1.777202 1_554
O31 P0 1.091192 1_555
