# generated using pymatgen
data_HfMn2
_symmetry_space_group_name_H-M   'P 1'
_cell_length_a   4.88131737
_cell_length_b   4.88059039
_cell_length_c   8.25000619
_cell_angle_alpha   89.99997586
_cell_angle_beta   89.99997319
_cell_angle_gamma   120.00629045
_symmetry_Int_Tables_number   1
_chemical_formula_structural   HfMn2
_chemical_formula_sum   'Hf4 Mn8'
_cell_volume   170.20283109
_cell_formula_units_Z   4
loop_
 _symmetry_equiv_pos_site_id
 _symmetry_equiv_pos_as_xyz
  1  'x, y, z'
loop_
 _atom_site_type_symbol
 _atom_site_label
 _atom_site_symmetry_multiplicity
 _atom_site_fract_x
 _atom_site_fract_y
 _atom_site_fract_z
 _atom_site_occupancy
  Hf  Hf0  1  0.33332590  0.66665258  0.43347510  1
  Hf  Hf1  1  0.66667090  0.33334515  0.93346923  1
  Hf  Hf2  1  0.66667097  0.33334524  0.56652928  1
  Hf  Hf3  1  0.33332597  0.66665264  0.06652550  1
  Mn  Mn0  1  0.17075213  0.34150085  0.75000427  1
  Mn  Mn1  1  0.82923973  0.17078575  0.24999620  1
  Mn  Mn2  1  0.34155062  0.17079047  0.24999576  1
  Mn  Mn3  1  0.65851211  0.82924306  0.75000454  1
  Mn  Mn4  1  0.00000232  0.00000287  0.00003461  1
  Mn  Mn5  1  0.00000234  0.00000288  0.49996482  1
  Mn  Mn6  1  0.82921468  0.65843368  0.24999615  1
  Mn  Mn7  1  0.17073233  0.82924483  0.75000455  1
loop_
_geom_bond_atom_site_label_1
_geom_bond_atom_site_label_2
_geom_bond_distance
_geom_bond_site_symmetry_2
Hf0 Mn5 2.870460 1_555
Hf0 Mn5 2.870983 1_665
Hf0 Mn5 2.871029 1_565
Hf0 Mn1 2.871719 1_455
Hf0 Mn2 2.871756 1_555
Hf0 Mn1 2.871902 1_565
Hf0 Mn2 2.871955 1_565
Hf0 Mn6 2.872155 1_555
Hf0 Mn6 2.872170 1_455
Hf0 Mn0 2.950892 1_555
Hf0 Mn3 2.951059 1_555
Hf0 Mn7 2.951070 1_555
Hf0 Hf2 3.024006 1_565
Hf0 Hf2 3.024247 1_455
Hf0 Hf2 3.024292 1_555
Hf0 Hf3 3.027336 1_555
Hf1 Mn4 2.870613 1_666
Hf1 Mn4 2.871069 1_556
Hf1 Mn4 2.871148 1_656
Hf1 Mn7 2.871669 1_655
Hf1 Mn3 2.871700 1_555
Hf1 Mn7 2.871823 1_545
Hf1 Mn3 2.871877 1_545
Hf1 Mn0 2.872086 1_555
Hf1 Mn0 2.872111 1_655
Hf1 Mn6 2.950753 1_556
Hf1 Mn2 2.950906 1_556
Hf1 Mn1 2.950939 1_556
Hf1 Hf3 3.024010 1_546
Hf1 Hf3 3.024255 1_656
Hf1 Hf3 3.024298 1_556
Hf1 Hf2 3.027257 1_555
Hf2 Mn5 2.870610 1_665
Hf2 Mn5 2.871069 1_555
Hf2 Mn5 2.871146 1_655
Hf2 Mn7 2.871717 1_655
Hf2 Mn3 2.871746 1_555
Hf2 Mn7 2.871867 1_545
Hf2 Mn3 2.871923 1_545
Hf2 Mn0 2.872128 1_555
Hf2 Mn0 2.872156 1_655
Hf2 Mn6 2.950796 1_555
Hf2 Mn2 2.950959 1_555
Hf2 Mn1 2.950983 1_555
Hf3 Mn4 2.870462 1_555
Hf3 Mn4 2.870984 1_665
Hf3 Mn4 2.871031 1_565
Hf3 Mn1 2.871682 1_455
Hf3 Mn2 2.871716 1_555
Hf3 Mn1 2.871868 1_565
Hf3 Mn2 2.871917 1_565
Hf3 Mn6 2.872120 1_555
Hf3 Mn6 2.872132 1_455
Hf3 Mn0 2.950836 1_554
Hf3 Mn3 2.950995 1_554
Hf3 Mn7 2.951008 1_554
Mn0 Mn3 2.380464 1_555
Mn0 Mn7 2.380527 1_555
Mn0 Mn3 2.500026 1_445
Mn0 Mn7 2.500063 1_545
Mn0 Mn4 2.517563 1_556
Mn0 Mn5 2.517626 1_555
Mn1 Mn6 2.380071 1_555
Mn1 Mn2 2.380577 1_555
Mn1 Mn6 2.500519 1_545
Mn1 Mn2 2.500741 1_655
Mn1 Mn4 2.517354 1_655
Mn1 Mn5 2.517402 1_655
Mn2 Mn6 2.379989 1_555
Mn2 Mn6 2.500501 1_445
Mn2 Mn4 2.517342 1_555
Mn2 Mn5 2.517394 1_555
Mn3 Mn7 2.381012 1_555
Mn3 Mn7 2.500305 1_655
Mn3 Mn4 2.517667 1_666
Mn3 Mn5 2.517731 1_665
Mn4 Mn6 2.517270 1_445
Mn4 Mn7 2.517678 1_544
Mn5 Mn6 2.517320 1_445
Mn5 Mn7 2.517743 1_545
