# generated using pymatgen
data_Li2TiV3O8
_symmetry_space_group_name_H-M   'P 1'
_cell_length_a   5.98382411
_cell_length_b   8.50770357
_cell_length_c   5.98305318
_cell_angle_alpha   89.99229977
_cell_angle_beta   90.01179523
_cell_angle_gamma   90.49798796
_symmetry_Int_Tables_number   1
_chemical_formula_structural   Li2TiV3O8
_chemical_formula_sum   'Li4 Ti2 V6 O16'
_cell_volume   304.57735815
_cell_formula_units_Z   2
loop_
 _symmetry_equiv_pos_site_id
 _symmetry_equiv_pos_as_xyz
  1  'x, y, z'
loop_
 _atom_site_type_symbol
 _atom_site_label
 _atom_site_symmetry_multiplicity
 _atom_site_fract_x
 _atom_site_fract_y
 _atom_site_fract_z
 _atom_site_occupancy
  Li  Li0  1  0.25120400  0.12286600  0.00174600  1
  Li  Li1  1  0.75153800  0.62523200  0.49784000  1
  Li  Li2  1  0.74873000  0.87714300  0.00176800  1
  Li  Li3  1  0.24850700  0.37475500  0.49786900  1
  Ti  Ti0  1  0.99998900  0.50009600  0.99515900  1
  Ti  Ti1  1  0.50005300  0.99988100  0.50368200  1
  V  V0  1  0.00002000  0.00001900  0.49576800  1
  V  V1  1  0.25011700  0.75106400  0.75017800  1
  V  V2  1  0.74984100  0.24898900  0.75023000  1
  V  V3  1  0.50002900  0.49996300  0.00735800  1
  V  V4  1  0.74768400  0.24837300  0.24783300  1
  V  V5  1  0.25233400  0.75162200  0.24783000  1
  O  O0  1  0.53346800  0.25481200  0.01599600  1
  O  O1  1  0.03122100  0.76031600  0.48351300  1
  O  O2  1  0.46641900  0.74519500  0.01581400  1
  O  O3  1  0.96888200  0.23964400  0.48340400  1
  O  O4  1  0.75467300  0.48517000  0.22735600  1
  O  O5  1  0.25655000  0.99024900  0.72262300  1
  O  O6  1  0.75424400  0.49126900  0.78057200  1
  O  O7  1  0.25810200  0.98497600  0.27125700  1
  O  O8  1  0.97992800  0.26576300  0.00427700  1
  O  O9  1  0.47950500  0.76543500  0.49572900  1
  O  O10  1  0.01991300  0.73423100  0.00445600  1
  O  O11  1  0.52065900  0.23459900  0.49590000  1
  O  O12  1  0.24543600  0.51485700  0.22735600  1
  O  O13  1  0.74348200  0.00973300  0.72264500  1
  O  O14  1  0.24573800  0.50877200  0.78058700  1
  O  O15  1  0.74173200  0.01497500  0.27125300  1
loop_
_geom_bond_atom_site_label_1
_geom_bond_atom_site_label_2
_geom_bond_distance
_geom_bond_site_symmetry_2
Li0 O7 1.994590 1_545
Li0 O5 2.015959 1_544
Li0 O0 2.021681 1_555
Li0 O8 2.036550 1_455
Li1 O4 2.010014 1_555
Li1 O1 2.023755 1_655
Li1 O9 2.026428 1_555
Li1 O6 2.039736 1_555
Li2 O15 1.994458 1_565
Li2 O13 2.015556 1_564
Li2 O2 2.021889 1_555
Li2 O10 2.036180 1_655
Li3 O12 2.010086 1_555
Li3 O3 2.023617 1_455
Li3 O11 2.026766 1_555
Li3 O14 2.040188 1_555
O0 V4 1.889600 1_555
O0 V2 2.051628 1_554
O0 V3 2.097607 1_555
O1 V5 1.935706 1_555
O1 V0 2.050788 1_565
O1 V1 2.065984 1_555
O2 V5 1.890249 1_555
O2 V1 2.050345 1_554
O2 V3 2.098389 1_555
O3 V4 1.935168 1_555
O3 V0 2.050091 1_655
O3 V2 2.067746 1_555
O4 V3 2.018078 1_555
O4 V4 2.018375 1_555
O4 Ti0 2.024474 1_554
O5 Ti1 1.960716 1_555
O5 V1 2.041591 1_555
O5 V0 2.051044 1_565
O6 Ti0 1.952866 1_555
O6 V3 2.040438 1_556
O6 V2 2.069189 1_555
O7 V5 1.990267 1_555
O7 Ti1 2.010475 1_555
O7 V0 2.051824 1_565
O8 Ti0 1.996943 1_554
O8 V4 2.018374 1_555
O8 V2 2.054764 1_554
O9 Ti1 1.997889 1_555
O9 V5 2.014435 1_555
O9 V1 2.052941 1_555
O10 Ti0 1.995263 1_454
O10 V5 2.017933 1_555
O10 V1 2.056678 1_554
O11 Ti1 2.000181 1_545
O11 V4 2.014958 1_555
O11 V2 2.051204 1_555
O12 V5 2.018128 1_555
O12 V3 2.018339 1_555
O12 Ti0 2.024572 1_454
O13 Ti1 1.960156 1_545
O13 V2 2.042245 1_555
O13 V0 2.051577 1_655
O14 Ti0 1.953169 1_455
O14 V3 2.040330 1_556
O14 V1 2.069277 1_555
O15 V4 1.990610 1_555
O15 Ti1 2.009801 1_545
O15 V0 2.052279 1_655
