# generated using pymatgen
data_NaMg14W
_symmetry_space_group_name_H-M   'P 1'
_cell_length_a   6.36223445
_cell_length_b   6.36223393
_cell_length_c   10.04563937
_cell_angle_alpha   90.00000000
_cell_angle_beta   90.00000000
_cell_angle_gamma   120.00000266
_symmetry_Int_Tables_number   1
_chemical_formula_structural   NaMg14W
_chemical_formula_sum   'Na1 Mg14 W1'
_cell_volume   352.14984833
_cell_formula_units_Z   1
loop_
 _symmetry_equiv_pos_site_id
 _symmetry_equiv_pos_as_xyz
  1  'x, y, z'
loop_
 _atom_site_type_symbol
 _atom_site_label
 _atom_site_symmetry_multiplicity
 _atom_site_fract_x
 _atom_site_fract_y
 _atom_site_fract_z
 _atom_site_occupancy
  Na  Na0  1  0.16666700  0.33333300  0.12500000  1
  Mg  Mg0  1  0.17119196  0.83559548  0.12500000  1
  Mg  Mg1  1  0.16578337  0.83289119  0.62500000  1
  Mg  Mg2  1  0.66440452  0.32880804  0.12500000  1
  Mg  Mg3  1  0.66710881  0.33421663  0.62500000  1
  Mg  Mg4  1  0.66440452  0.83559548  0.12500000  1
  Mg  Mg5  1  0.66710881  0.83289119  0.62500000  1
  Mg  Mg6  1  0.32873119  0.17126881  0.38822707  1
  Mg  Mg7  1  0.32873119  0.17126881  0.86177293  1
  Mg  Mg8  1  0.32873119  0.65746338  0.38822707  1
  Mg  Mg9  1  0.32873119  0.65746338  0.86177293  1
  Mg  Mg10  1  0.84253662  0.17126881  0.38822707  1
  Mg  Mg11  1  0.84253662  0.17126881  0.86177293  1
  Mg  Mg12  1  0.83333300  0.66666700  0.37318621  1
  Mg  Mg13  1  0.83333300  0.66666700  0.87681379  1
  W  W0  1  0.16666700  0.33333300  0.62500000  1
loop_
_geom_bond_atom_site_label_1
_geom_bond_atom_site_label_2
_geom_bond_distance
_geom_bond_site_symmetry_2
Mg0 Mg13 3.111491 1_454
Mg0 Mg12 3.111491 1_455
Mg0 Mg2 3.137934 1_565
Mg0 Mg4 3.137934 1_555
Mg0 Na0 3.181215 1_555
Mg0 Na0 3.181215 1_565
Mg0 Mg2 3.224300 1_455
Mg0 Mg4 3.224301 1_455
Mg0 Mg9 3.227566 1_554
Mg0 Mg8 3.227566 1_555
Mg0 Mg6 3.227573 1_565
Mg0 Mg7 3.227573 1_564
Mg1 Mg8 3.022416 1_555
Mg1 Mg9 3.022416 1_555
Mg1 Mg7 3.022423 1_565
Mg1 Mg6 3.022423 1_565
Mg1 Mg12 3.123196 1_455
Mg1 Mg13 3.123196 1_455
Mg1 Mg3 3.172684 1_455
Mg1 Mg5 3.172684 1_455
Mg1 W0 3.181121 1_565
Mg1 W0 3.181121 1_555
Mg1 Mg3 3.189550 1_565
Mg1 Mg5 3.189550 1_555
Mg2 Mg4 3.137934 1_545
Mg2 Na0 3.181215 1_555
Mg2 Na0 3.181215 1_655
Mg2 Mg4 3.224300 1_555
Mg2 Mg7 3.227573 1_554
Mg2 Mg6 3.227573 1_555
Mg3 Mg6 3.022423 1_555
Mg3 Mg7 3.022423 1_555
Mg3 Mg5 3.172684 1_555
Mg3 W0 3.181121 1_555
Mg3 W0 3.181121 1_655
Mg3 Mg5 3.189550 1_545
Mg4 Na0 3.181215 1_555
Mg4 Na0 3.181215 1_665
Mg4 Mg9 3.227572 1_554
Mg4 Mg8 3.227572 1_555
Mg5 Mg8 3.022423 1_555
Mg5 Mg9 3.022423 1_555
Mg5 W0 3.181121 1_665
Mg5 W0 3.181121 1_555
Mg6 W0 2.974369 1_555
Mg6 Mg8 3.093284 1_555
Mg6 Na0 3.190875 1_555
Mg6 Mg8 3.268950 1_545
Mg7 W0 2.974369 1_555
Mg7 Mg9 3.093284 1_555
Mg7 Na0 3.190875 1_556
Mg7 Mg9 3.268950 1_545
Mg8 W0 2.974376 1_555
Mg8 Na0 3.190881 1_555
Mg9 W0 2.974376 1_555
Mg9 Na0 3.190881 1_556
Mg10 W0 2.974376 1_655
Mg10 Mg3 3.022416 1_555
Mg10 Mg5 3.022423 1_545
Mg10 Mg8 3.093284 1_655
Mg10 Mg6 3.093284 1_655
Mg10 Mg12 3.185107 1_545
Mg10 Mg12 3.185107 1_555
Mg10 Na0 3.190881 1_655
Mg10 Mg2 3.227566 1_555
Mg10 Mg4 3.227572 1_545
Mg10 Mg8 3.268950 1_545
Mg10 Mg6 3.268951 1_555
Mg11 W0 2.974376 1_655
Mg11 Mg3 3.022416 1_555
Mg11 Mg5 3.022423 1_545
Mg11 Mg9 3.093284 1_655
Mg11 Mg7 3.093284 1_655
Mg11 Mg13 3.185107 1_545
Mg11 Mg13 3.185107 1_555
Mg11 Na0 3.190881 1_656
Mg11 Mg2 3.227566 1_556
Mg11 Mg4 3.227572 1_546
Mg11 Mg9 3.268950 1_545
Mg11 Mg7 3.268951 1_555
Mg12 Mg4 3.111485 1_555
Mg12 Mg2 3.111491 1_555
Mg12 Mg5 3.123189 1_555
Mg12 Mg3 3.123196 1_555
Mg12 Mg6 3.185107 1_665
Mg12 Mg6 3.185107 1_555
Mg12 Mg8 3.185107 1_655
Mg12 Mg8 3.185107 1_555
Mg13 Mg4 3.111485 1_556
Mg13 Mg2 3.111491 1_556
Mg13 Mg5 3.123189 1_555
Mg13 Mg3 3.123196 1_555
Mg13 Mg7 3.185107 1_665
Mg13 Mg7 3.185107 1_555
Mg13 Mg9 3.185107 1_655
Mg13 Mg9 3.185107 1_555
