# generated using pymatgen
data_Ca5MgN4
_symmetry_space_group_name_H-M   'P 1'
_cell_length_a   7.93676800
_cell_length_b   7.58977000
_cell_length_c   5.86616400
_cell_angle_alpha   90.00000000
_cell_angle_beta   90.00000000
_cell_angle_gamma   90.00000000
_symmetry_Int_Tables_number   1
_chemical_formula_structural   Ca5MgN4
_chemical_formula_sum   'Ca10 Mg2 N8'
_cell_volume   353.36741640
_cell_formula_units_Z   2
loop_
 _symmetry_equiv_pos_site_id
 _symmetry_equiv_pos_as_xyz
  1  'x, y, z'
loop_
 _atom_site_type_symbol
 _atom_site_label
 _atom_site_symmetry_multiplicity
 _atom_site_fract_x
 _atom_site_fract_y
 _atom_site_fract_z
 _atom_site_occupancy
  Ca  Ca0  1  0.55072900  0.50198900  0.24505700  1
  Ca  Ca1  1  0.94927100  0.50198900  0.24505700  1
  Ca  Ca2  1  0.55072900  0.99801100  0.24505700  1
  Ca  Ca3  1  0.94927100  0.99801100  0.24505700  1
  Ca  Ca4  1  0.44927100  0.49801100  0.75494300  1
  Ca  Ca5  1  0.05072900  0.49801100  0.75494300  1
  Ca  Ca6  1  0.44927100  0.00198900  0.75494300  1
  Ca  Ca7  1  0.05072900  0.00198900  0.75494300  1
  Ca  Ca8  1  0.75000000  0.75000000  0.70277100  1
  Ca  Ca9  1  0.25000000  0.25000000  0.29722900  1
  Mg  Mg0  1  0.75000000  0.25000000  0.71861900  1
  Mg  Mg1  1  0.25000000  0.75000000  0.28138100  1
  N  N0  1  0.75000000  0.00938700  0.92268700  1
  N  N1  1  0.75000000  0.49061300  0.92268700  1
  N  N2  1  0.25000000  0.99061300  0.07731300  1
  N  N3  1  0.25000000  0.50938700  0.07731300  1
  N  N4  1  0.49087600  0.75000000  0.48785600  1
  N  N5  1  0.00912400  0.75000000  0.48785600  1
  N  N6  1  0.50912400  0.25000000  0.51214400  1
  N  N7  1  0.99087600  0.25000000  0.51214400  1
loop_
_geom_bond_atom_site_label_1
_geom_bond_atom_site_label_2
_geom_bond_distance
_geom_bond_site_symmetry_2
Ca0 N4 2.407803 1_555
Ca0 N1 2.466775 1_554
Ca0 N6 2.494319 1_555
Ca0 N3 2.582311 1_555
Ca1 N5 2.407803 1_655
Ca1 N1 2.466775 1_554
Ca1 N7 2.494319 1_555
Ca1 N3 2.582311 1_655
Ca2 N4 2.407803 1_555
Ca2 N0 2.466775 1_564
Ca2 N6 2.494319 1_565
Ca2 N2 2.582311 1_555
Ca3 N5 2.407803 1_655
Ca3 N0 2.466775 1_564
Ca3 N7 2.494319 1_565
Ca3 N2 2.582311 1_655
Ca4 N6 2.407803 1_555
Ca4 N3 2.466775 1_556
Ca4 N4 2.494319 1_555
Ca4 N1 2.582311 1_555
Ca5 N7 2.407803 1_455
Ca5 N3 2.466775 1_556
Ca5 N5 2.494319 1_555
Ca5 N1 2.582311 1_455
Ca6 N6 2.407803 1_555
Ca6 N2 2.466775 1_546
Ca6 N4 2.494319 1_545
Ca6 N0 2.582311 1_555
Ca7 N7 2.407803 1_455
Ca7 N2 2.466775 1_546
Ca7 N5 2.494319 1_545
Ca7 N0 2.582311 1_455
Ca8 N1 2.353719 1_555
Ca8 N0 2.353719 1_565
Ca8 N5 2.412274 1_655
Ca8 N4 2.412274 1_555
Ca9 N3 2.353719 1_555
Ca9 N2 2.353719 1_545
Ca9 N6 2.412274 1_555
Ca9 N7 2.412274 1_455
Mg0 N1 2.183583 1_555
Mg0 N0 2.183583 1_555
Mg0 N7 2.263169 1_555
Mg0 N6 2.263169 1_555
Mg1 N3 2.183583 1_555
Mg1 N2 2.183583 1_555
Mg1 N5 2.263169 1_555
Mg1 N4 2.263169 1_555
