# generated using pymatgen
data_Li3MnCoO5
_symmetry_space_group_name_H-M   'P 1'
_cell_length_a   2.96331398
_cell_length_b   2.96331474
_cell_length_c   24.73368809
_cell_angle_alpha   93.43433209
_cell_angle_beta   90.00000000
_cell_angle_gamma   119.99999149
_symmetry_Int_Tables_number   1
_chemical_formula_structural   Li3MnCoO5
_chemical_formula_sum   'Li6 Mn2 Co2 O10'
_cell_volume   187.64349559
_cell_formula_units_Z   2
loop_
 _symmetry_equiv_pos_site_id
 _symmetry_equiv_pos_as_xyz
  1  'x, y, z'
loop_
 _atom_site_type_symbol
 _atom_site_label
 _atom_site_symmetry_multiplicity
 _atom_site_fract_x
 _atom_site_fract_y
 _atom_site_fract_z
 _atom_site_occupancy
  Li  Li0  1  0.10240056  0.20480111  0.30720167  1
  Li  Li1  1  0.50075075  0.00150149  0.50225224  1
  Li  Li2  1  0.89924925  0.79849851  0.69774776  1
  Li  Li3  1  0.29759944  0.59519889  0.89279833  1
  Li  Li4  1  0.70000000  0.40000000  0.10000000  1
  Li  Li5  1  0.20000000  0.40000000  0.60000000  1
  Mn  Mn0  1  0.99949697  0.99899395  0.99849092  1
  Mn  Mn1  1  0.40050303  0.80100605  0.20150908  1
  Co  Co0  1  0.80017350  0.60034700  0.40052050  1
  Co  Co1  1  0.59982650  0.19965300  0.79947950  1
  O  O0  1  0.14759021  0.29518042  0.44277064  1
  O  O1  1  0.55062731  0.10125461  0.65188192  1
  O  O2  1  0.94868661  0.89737323  0.84605984  1
  O  O3  1  0.34831672  0.69663344  0.04495016  1
  O  O4  1  0.74839967  0.49679935  0.24519902  1
  O  O5  1  0.05168328  0.10336656  0.15504984  1
  O  O6  1  0.45131339  0.90262677  0.35394016  1
  O  O7  1  0.84937269  0.69874539  0.54811808  1
  O  O8  1  0.25240979  0.50481958  0.75722936  1
  O  O9  1  0.65160033  0.30320065  0.95480098  1
loop_
_geom_bond_atom_site_label_1
_geom_bond_atom_site_label_2
_geom_bond_distance
_geom_bond_site_symmetry_2
Li0 O6 2.063263 1_445
Li0 O6 2.063263 1_545
Li0 O6 2.063263 1_555
Li0 O4 2.295128 1_555
Li0 O4 2.295128 1_455
Li0 O4 2.295128 1_445
Li1 O7 2.051305 1_545
Li1 O7 2.051305 1_445
Li1 O7 2.051306 1_555
Li1 O0 2.254140 1_655
Li1 O0 2.254140 1_555
Li1 O0 2.254141 1_545
Li2 O1 2.051305 1_565
Li2 O1 2.051305 1_665
Li2 O1 2.051306 1_555
Li2 O8 2.254140 1_555
Li2 O8 2.254140 1_655
Li2 O8 2.254141 1_665
Li3 O2 2.063263 1_455
Li3 O2 2.063263 1_555
Li3 O2 2.063263 1_445
Li3 O9 2.295128 1_455
Li3 O9 2.295128 1_555
Li3 O9 2.295128 1_565
Li4 O5 2.184519 1_555
Li4 O5 2.184519 1_655
Li4 O3 2.184519 1_655
Li4 O3 2.184519 1_555
Li4 O3 2.184519 1_545
Li4 O5 2.184519 1_665
Li5 O1 2.136792 1_455
Li5 O7 2.136792 1_555
Li5 O1 2.136792 1_555
Li5 O7 2.136792 1_455
Li5 O1 2.136792 1_565
Li5 O7 2.136792 1_445
Mn0 O9 2.022181 1_565
Mn0 O9 2.022181 1_665
Mn0 O9 2.022181 1_555
Mn0 O3 2.059420 1_556
Mn0 O3 2.059420 1_656
Mn0 O3 2.059420 1_666
Mn1 O4 2.022181 1_555
Mn1 O4 2.022181 1_455
Mn1 O4 2.022181 1_565
Mn1 O5 2.059420 1_665
Mn1 O5 2.059420 1_565
Mn1 O5 2.059420 1_555
Co0 O0 2.003467 1_555
Co0 O0 2.003467 1_655
Co0 O0 2.003467 1_665
Co0 O6 2.061084 1_555
Co0 O6 2.061084 1_655
Co0 O6 2.061085 1_545
Co1 O8 2.003467 1_555
Co1 O8 2.003467 1_655
Co1 O8 2.003467 1_545
Co1 O2 2.061084 1_545
Co1 O2 2.061084 1_445
Co1 O2 2.061085 1_555
