# generated using pymatgen
data_Ba3(InN2)2
_symmetry_space_group_name_H-M   'P 1'
_cell_length_a   6.51006129
_cell_length_b   11.39122428
_cell_length_c   10.32409987
_cell_angle_alpha   90.00000000
_cell_angle_beta   90.00000000
_cell_angle_gamma   90.00000000
_symmetry_Int_Tables_number   1
_chemical_formula_structural   Ba3(InN2)2
_chemical_formula_sum   'Ba12 In8 N16'
_cell_volume   765.61014053
_cell_formula_units_Z   4
loop_
 _symmetry_equiv_pos_site_id
 _symmetry_equiv_pos_as_xyz
  1  'x, y, z'
loop_
 _atom_site_type_symbol
 _atom_site_label
 _atom_site_symmetry_multiplicity
 _atom_site_fract_x
 _atom_site_fract_y
 _atom_site_fract_z
 _atom_site_occupancy
  Ba  Ba0  1  0.61144549  0.15602946  0.41370604  1
  Ba  Ba1  1  0.88855451  0.84397054  0.41370604  1
  Ba  Ba2  1  0.61144549  0.34397054  0.08629396  1
  Ba  Ba3  1  0.88855451  0.65602946  0.08629396  1
  Ba  Ba4  1  0.38855451  0.84397054  0.58629396  1
  Ba  Ba5  1  0.11144549  0.15602946  0.58629396  1
  Ba  Ba6  1  0.38855451  0.65602946  0.91370604  1
  Ba  Ba7  1  0.11144549  0.34397054  0.91370604  1
  Ba  Ba8  1  0.75000000  0.50000000  0.40422266  1
  Ba  Ba9  1  0.75000000  0.00000000  0.09577734  1
  Ba  Ba10  1  0.25000000  0.50000000  0.59577734  1
  Ba  Ba11  1  0.25000000  -0.00000000  0.90422266  1
  In  In0  1  0.75000000  0.50000000  0.73380025  1
  In  In1  1  0.75000000  -0.00000000  0.76619975  1
  In  In2  1  0.25000000  0.50000000  0.26619975  1
  In  In3  1  0.25000000  0.00000000  0.23380025  1
  In  In4  1  0.65059830  0.25000000  0.75000000  1
  In  In5  1  0.84940170  0.75000000  0.75000000  1
  In  In6  1  0.34940170  0.75000000  0.25000000  1
  In  In7  1  0.15059830  0.25000000  0.25000000  1
  N  N0  1  0.87789852  0.35183505  0.62070123  1
  N  N1  1  0.62210148  0.64816495  0.62070123  1
  N  N2  1  0.87789852  0.14816495  0.87929877  1
  N  N3  1  0.62210148  0.85183505  0.87929877  1
  N  N4  1  0.12210148  0.64816495  0.37929877  1
  N  N5  1  0.37789852  0.35183505  0.37929877  1
  N  N6  1  0.12210148  0.85183505  0.12070123  1
  N  N7  1  0.37789852  0.14816495  0.12070123  1
  N  N8  1  0.49666078  0.40674674  0.83670027  1
  N  N9  1  0.00333922  0.59325326  0.83670027  1
  N  N10  1  0.49666078  0.09325326  0.66329973  1
  N  N11  1  0.00333922  0.90674674  0.66329973  1
  N  N12  1  0.50333922  0.59325326  0.16329973  1
  N  N13  1  0.99666078  0.40674674  0.16329973  1
  N  N14  1  0.50333922  0.90674674  0.33670027  1
  N  N15  1  0.99666078  0.09325326  0.33670027  1
loop_
_geom_bond_atom_site_label_1
_geom_bond_atom_site_label_2
_geom_bond_distance
_geom_bond_site_symmetry_2
Ba0 N5 2.722644 1_555
Ba0 N15 2.726234 1_555
Ba0 N10 2.776654 1_555
Ba0 N14 3.031647 1_545
Ba1 N4 2.722644 1_655
Ba1 N14 2.726234 1_555
Ba1 N11 2.776654 1_655
Ba1 N15 3.031647 1_565
Ba2 N7 2.722644 1_555
Ba2 N13 2.726234 1_555
Ba2 N8 2.776654 1_554
Ba2 N12 3.031647 1_555
Ba3 N6 2.722644 1_655
Ba3 N12 2.726234 1_555
Ba3 N9 2.776654 1_654
Ba3 N13 3.031647 1_555
Ba4 N1 2.722644 1_555
Ba4 N11 2.726234 1_555
Ba4 N14 2.776654 1_555
Ba4 N10 3.031647 1_565
Ba5 N0 2.722644 1_455
Ba5 N10 2.726234 1_555
Ba5 N15 2.776654 1_455
Ba5 N11 3.031647 1_545
Ba6 N3 2.722644 1_555
Ba6 N9 2.726234 1_555
Ba6 N12 2.776654 1_556
Ba6 N8 3.031647 1_555
Ba7 N2 2.722644 1_455
Ba7 N8 2.726234 1_555
Ba7 N13 2.776654 1_456
Ba7 N9 3.031647 1_555
Ba8 N1 2.921790 1_555
Ba8 N0 2.921790 1_555
Ba8 N4 2.963588 1_655
Ba8 N5 2.963588 1_555
Ba8 N12 3.145418 1_555
Ba8 N13 3.145418 1_555
Ba9 N3 2.921790 1_544
Ba9 N2 2.921790 1_554
Ba9 N6 2.963588 1_645
Ba9 N7 2.963588 1_555
Ba9 N15 3.145418 1_555
Ba9 N14 3.145418 1_545
Ba10 N4 2.921790 1_555
Ba10 N5 2.921790 1_555
Ba10 N1 2.963588 1_555
Ba10 N0 2.963588 1_455
Ba10 N8 3.145418 1_555
Ba10 N9 3.145418 1_555
Ba11 N7 2.921790 1_556
Ba11 N6 2.921790 1_546
Ba11 N2 2.963588 1_455
Ba11 N3 2.963588 1_545
Ba11 N11 3.145418 1_545
Ba11 N10 3.145418 1_555
In0 N1 2.214784 1_555
In0 N0 2.214784 1_555
In0 N9 2.230928 1_655
In0 N8 2.230928 1_555
In1 N3 2.214784 1_545
In1 N2 2.214784 1_555
In1 N10 2.230928 1_555
In1 N11 2.230928 1_645
In2 N4 2.214784 1_555
In2 N5 2.214784 1_555
In2 N13 2.230928 1_455
In2 N12 2.230928 1_555
In3 N6 2.214784 1_545
In3 N7 2.214784 1_555
In3 N14 2.230928 1_545
In3 N15 2.230928 1_455
In4 N8 2.234646 1_555
In4 N10 2.234646 1_555
In4 N0 2.305911 1_555
In4 N2 2.305911 1_555
In5 N11 2.234646 1_655
In5 N9 2.234646 1_655
In5 N1 2.305911 1_555
In5 N3 2.305911 1_555
In6 N14 2.234646 1_555
In6 N12 2.234646 1_555
In6 N4 2.305911 1_555
In6 N6 2.305911 1_555
In7 N15 2.234646 1_455
In7 N13 2.234646 1_455
In7 N5 2.305911 1_555
In7 N7 2.305911 1_555
