# generated using pymatgen
data_Dy3Cu3Sb4
_symmetry_space_group_name_H-M   'P 1'
_cell_length_a   8.26057995
_cell_length_b   8.26057995
_cell_length_c   8.26057995
_cell_angle_alpha   109.47122063
_cell_angle_beta   109.47122063
_cell_angle_gamma   109.47122063
_symmetry_Int_Tables_number   1
_chemical_formula_structural   Dy3Cu3Sb4
_chemical_formula_sum   'Dy6 Cu6 Sb8'
_cell_volume   433.92005858
_cell_formula_units_Z   2
loop_
 _symmetry_equiv_pos_site_id
 _symmetry_equiv_pos_as_xyz
  1  'x, y, z'
loop_
 _atom_site_type_symbol
 _atom_site_label
 _atom_site_symmetry_multiplicity
 _atom_site_fract_x
 _atom_site_fract_y
 _atom_site_fract_z
 _atom_site_occupancy
  Dy  Dy0  1  0.87500000  0.25000000  0.12500000  1
  Dy  Dy1  1  0.62500000  0.75000000  0.37500000  1
  Dy  Dy2  1  0.25000000  0.12500000  0.87500000  1
  Dy  Dy3  1  0.75000000  0.37500000  0.62500000  1
  Dy  Dy4  1  0.12500000  0.87500000  0.25000000  1
  Dy  Dy5  1  0.37500000  0.62500000  0.75000000  1
  Cu  Cu0  1  0.37500000  0.25000000  0.62500000  1
  Cu  Cu1  1  0.12500000  0.75000000  0.87500000  1
  Cu  Cu2  1  0.25000000  0.62500000  0.37500000  1
  Cu  Cu3  1  0.75000000  0.87500000  0.12500000  1
  Cu  Cu4  1  0.62500000  0.37500000  0.25000000  1
  Cu  Cu5  1  0.87500000  0.12500000  0.75000000  1
  Sb  Sb0  1  0.65754276  0.50000000  -0.00000000  1
  Sb  Sb1  1  0.50000000  0.00000000  0.65754276  1
  Sb  Sb2  1  -0.00000000  0.65754276  0.50000000  1
  Sb  Sb3  1  0.84245724  0.84245724  0.84245724  1
  Sb  Sb4  1  0.50000000  -0.00000000  0.15754276  1
  Sb  Sb5  1  0.15754276  0.50000000  0.00000000  1
  Sb  Sb6  1  -0.00000000  0.15754276  0.50000000  1
  Sb  Sb7  1  0.34245724  0.34245724  0.34245724  1
loop_
_geom_bond_atom_site_label_1
_geom_bond_atom_site_label_2
_geom_bond_distance
_geom_bond_site_symmetry_2
Dy0 Sb4 3.254747 1_555
Dy0 Sb3 3.254747 1_544
Dy0 Sb2 3.254747 1_655
Dy0 Sb5 3.254747 1_655
Dy0 Sb7 3.349025 1_655
Dy0 Sb0 3.349025 1_555
Dy0 Sb1 3.349025 1_554
Dy0 Sb6 3.349025 1_655
Dy1 Sb7 3.254747 1_555
Dy1 Sb1 3.254747 1_565
Dy1 Sb0 3.254747 1_555
Dy1 Sb6 3.254747 1_665
Dy1 Sb5 3.349025 1_555
Dy1 Sb2 3.349025 1_655
Dy1 Sb3 3.349025 1_555
Dy1 Sb4 3.349025 1_565
Dy2 Sb0 3.254747 1_556
Dy2 Sb6 3.254747 1_555
Dy2 Sb3 3.254747 1_445
Dy2 Sb4 3.254747 1_556
Dy2 Sb7 3.349025 1_556
Dy2 Sb2 3.349025 1_545
Dy2 Sb5 3.349025 1_556
Dy2 Sb1 3.349025 1_555
Dy3 Sb7 3.254747 1_555
Dy3 Sb1 3.254747 1_555
Dy3 Sb2 3.254747 1_655
Dy3 Sb5 3.254747 1_656
Dy3 Sb6 3.349025 1_655
Dy3 Sb3 3.349025 1_555
Dy3 Sb0 3.349025 1_556
Dy3 Sb4 3.349025 1_555
Dy4 Sb1 3.254747 1_565
Dy4 Sb5 3.254747 1_555
Dy4 Sb3 3.254747 1_454
Dy4 Sb6 3.254747 1_565
Dy4 Sb7 3.349025 1_565
Dy4 Sb2 3.349025 1_555
Dy4 Sb4 3.349025 1_565
Dy4 Sb0 3.349025 1_455
Dy5 Sb0 3.254747 1_556
Dy5 Sb2 3.254747 1_555
Dy5 Sb7 3.254747 1_555
Dy5 Sb4 3.254747 1_566
Dy5 Sb5 3.349025 1_556
Dy5 Sb1 3.349025 1_565
Dy5 Sb3 3.349025 1_555
Dy5 Sb6 3.349025 1_555
Cu0 Sb0 2.647632 1_556
Cu0 Sb7 2.647632 1_555
Cu0 Sb6 2.647632 1_555
Cu0 Sb1 2.647632 1_555
Cu0 Dy2 2.920556 1_555
Cu0 Dy4 2.920556 1_545
Cu0 Dy5 2.920556 1_555
Cu0 Dy3 2.920556 1_555
Cu1 Sb2 2.647632 1_555
Cu1 Sb5 2.647632 1_556
Cu1 Sb4 2.647632 1_566
Cu1 Sb3 2.647632 1_455
Cu1 Dy4 2.920556 1_556
Cu1 Dy5 2.920556 1_555
Cu1 Dy2 2.920556 1_565
Cu1 Dy3 2.920556 1_455
Cu2 Sb7 2.647632 1_555
Cu2 Sb5 2.647632 1_555
Cu2 Sb2 2.647632 1_555
Cu2 Sb1 2.647632 1_565
Cu2 Dy5 2.920556 1_555
Cu2 Dy4 2.920556 1_555
Cu2 Dy1 2.920556 1_555
Cu2 Dy0 2.920556 1_455
Cu3 Sb3 2.647632 1_554
Cu3 Sb0 2.647632 1_555
Cu3 Sb6 2.647632 1_665
Cu3 Sb4 2.647632 1_565
Cu3 Dy1 2.920556 1_555
Cu3 Dy0 2.920556 1_565
Cu3 Dy5 2.920556 1_554
Cu3 Dy4 2.920556 1_655
Cu4 Sb4 2.647632 1_555
Cu4 Sb0 2.647632 1_555
Cu4 Sb2 2.647632 1_655
Cu4 Sb7 2.647632 1_555
Cu4 Dy3 2.920556 1_555
Cu4 Dy0 2.920556 1_555
Cu4 Dy2 2.920556 1_554
Cu4 Dy1 2.920556 1_555
Cu5 Sb3 2.647632 1_545
Cu5 Sb6 2.647632 1_655
Cu5 Sb5 2.647632 1_656
Cu5 Sb1 2.647632 1_555
Cu5 Dy0 2.920556 1_556
Cu5 Dy3 2.920556 1_555
Cu5 Dy1 2.920556 1_545
Cu5 Dy2 2.920556 1_655
