# generated using pymatgen
data_K5Nb16(O5F2)4
_symmetry_space_group_name_H-M   'P 1'
_cell_length_a   22.55406076
_cell_length_b   22.55406076
_cell_length_c   22.55406076
_cell_angle_alpha   164.93383731
_cell_angle_beta   164.93383731
_cell_angle_gamma   21.36907522
_symmetry_Int_Tables_number   1
_chemical_formula_structural   K5Nb16(O5F2)4
_chemical_formula_sum   'K5 Nb16 O20 F8'
_cell_volume   775.05932192
_cell_formula_units_Z   1
loop_
 _symmetry_equiv_pos_site_id
 _symmetry_equiv_pos_as_xyz
  1  'x, y, z'
loop_
 _atom_site_type_symbol
 _atom_site_label
 _atom_site_symmetry_multiplicity
 _atom_site_fract_x
 _atom_site_fract_y
 _atom_site_fract_z
 _atom_site_occupancy
  K  K0  1  0.34616000  0.84616000  0.50000000  1
  K  K1  1  0.84616000  0.34616000  0.50000000  1
  K  K2  1  0.15177300  0.65177300  0.50000000  1
  K  K3  1  0.65177300  0.15177300  0.50000000  1
  K  K4  1  0.40657400  0.40657400  0.00000000  1
  Nb  Nb0  1  0.79634200  0.79634200  0.00000000  1
  Nb  Nb1  1  0.29627200  0.29627200  0.00000000  1
  Nb  Nb2  1  0.70343800  0.70343800  0.00000000  1
  Nb  Nb3  1  0.20342900  0.20342900  0.00000000  1
  Nb  Nb4  1  0.75016300  0.24972500  0.00000000  1
  Nb  Nb5  1  0.24972500  0.75016300  0.00000000  1
  Nb  Nb6  1  0.75016300  0.75016300  0.50043700  1
  Nb  Nb7  1  0.24972500  0.24972500  0.49956300  1
  Nb  Nb8  1  0.45264200  0.95264200  0.50000000  1
  Nb  Nb9  1  0.95264200  0.45264200  0.50000000  1
  Nb  Nb10  1  0.04984000  0.54984000  0.50000000  1
  Nb  Nb11  1  0.54984000  0.04984000  0.50000000  1
  Nb  Nb12  1  0.00021500  0.49988700  0.00000000  1
  Nb  Nb13  1  0.49988700  0.00021500  0.00000000  1
  Nb  Nb14  1  0.00021500  0.00021500  0.50032800  1
  Nb  Nb15  1  0.49988700  0.49988700  0.49967200  1
  O  O0  1  0.04824000  0.54799000  0.00000000  1
  O  O1  1  0.54799000  0.04824000  0.00000000  1
  O  O2  1  0.04824000  0.04824000  0.50024900  1
  O  O3  1  0.54799000  0.54799000  0.49975100  1
  O  O4  1  0.95214800  0.45216000  0.00000000  1
  O  O5  1  0.45216000  0.95214800  0.00000000  1
  O  O6  1  0.95214800  0.95214800  0.49998700  1
  O  O7  1  0.45216000  0.45216000  0.50001300  1
  O  O8  1  0.20506900  0.20506900  0.50616400  1
  O  O9  1  0.69890400  0.69890400  0.49383600  1
  O  O10  1  0.20506900  0.69890400  0.00000000  1
  O  O11  1  0.69890400  0.20506900  0.00000000  1
  O  O12  1  0.79746200  0.79746200  0.49976800  1
  O  O13  1  0.29769400  0.29769400  0.50023200  1
  O  O14  1  0.79746200  0.29769400  0.00000000  1
  O  O15  1  0.29769400  0.79746200  0.00000000  1
  O  O16  1  0.50046800  0.50046800  0.00000000  1
  O  O17  1  0.00019900  0.00019900  0.00000000  1
  O  O18  1  0.25006400  0.75006400  0.50000000  1
  O  O19  1  0.75006400  0.25006400  0.50000000  1
  F  F0  1  0.40477700  0.90477700  0.50000000  1
  F  F1  1  0.90477700  0.40477700  0.50000000  1
  F  F2  1  0.09506300  0.59506300  0.50000000  1
  F  F3  1  0.59506300  0.09506300  0.50000000  1
  F  F4  1  0.84422700  0.84422700  0.00000000  1
  F  F5  1  0.34579600  0.34579600  0.00000000  1
  F  F6  1  0.65599900  0.65599900  0.00000000  1
  F  F7  1  0.15600500  0.15600500  0.00000000  1
loop_
_geom_bond_atom_site_label_1
_geom_bond_atom_site_label_2
_geom_bond_distance
_geom_bond_site_symmetry_2
K0 O2 2.984401 1_565
K0 O1 2.984417 1_566
K0 O0 2.984417 1_555
K0 O3 2.984433 1_555
K1 O2 2.984401 1_655
K1 O0 2.984417 1_656
K1 O1 2.984417 1_555
K1 O3 2.984433 1_555
K2 O7 3.059150 1_555
K2 O5 3.059166 1_556
K2 O4 3.059166 1_455
K2 O6 3.059182 1_455
K3 O7 3.059150 1_555
K3 O5 3.059166 1_545
K3 O4 3.059166 1_556
K3 O6 3.059182 1_545
K4 O9 2.883773 1_555
K4 O11 2.883785 1_555
K4 O10 2.883785 1_555
K4 O8 2.883804 1_554
Nb0 O3 2.093294 1_554
Nb0 O2 2.093295 1_665
Nb0 O0 2.093299 1_655
Nb0 O1 2.093299 1_565
Nb1 O1 2.091328 1_555
Nb1 O0 2.091328 1_555
Nb1 O3 2.091332 1_555
Nb1 O2 2.091333 1_554
Nb2 O6 2.091497 1_555
Nb2 O7 2.091498 1_554
Nb2 O4 2.091502 1_555
Nb2 O5 2.091502 1_555
Nb3 O4 2.091591 1_455
Nb3 O5 2.091591 1_545
Nb3 O6 2.091595 1_444
Nb3 O7 2.091596 1_555
Nb4 O17 2.088977 1_655
Nb4 O16 2.092738 1_555
Nb4 O14 2.111430 1_555
Nb4 O11 2.125947 1_555
Nb5 O17 2.088977 1_565
Nb5 O16 2.092738 1_555
Nb5 O15 2.111430 1_555
Nb5 O10 2.125947 1_555
Nb6 O17 2.088981 1_666
Nb6 O16 2.092734 1_555
Nb6 O12 2.111408 1_555
Nb6 O9 2.125991 1_555
Nb7 O17 2.088981 1_555
Nb7 O16 2.092734 1_556
Nb7 O13 2.111452 1_555
Nb7 O8 2.125903 1_555
Nb8 O8 2.091138 1_565
Nb8 O11 2.091138 1_566
Nb8 O10 2.091138 1_555
Nb8 O9 2.091139 1_555
Nb9 O8 2.091138 1_655
Nb9 O11 2.091138 1_555
Nb9 O10 2.091138 1_656
Nb9 O9 2.091139 1_555
Nb10 O15 2.093181 1_556
Nb10 O13 2.093181 1_555
Nb10 O14 2.093181 1_455
Nb10 O12 2.093181 1_455
Nb11 O13 2.093181 1_555
Nb11 O15 2.093181 1_545
Nb11 O14 2.093181 1_556
Nb11 O12 2.093181 1_545
Nb12 O19 2.090778 1_454
Nb12 O18 2.090778 1_555
Nb12 O4 2.123087 1_455
Nb12 O0 2.130489 1_555
Nb13 O18 2.090778 1_544
Nb13 O19 2.090778 1_555
Nb13 O5 2.123087 1_545
Nb13 O1 2.130489 1_555
Nb14 O18 2.090778 1_545
Nb14 O19 2.090778 1_455
Nb14 O6 2.123064 1_445
Nb14 O2 2.130511 1_555
Nb15 O19 2.090778 1_555
Nb15 O18 2.090778 1_555
Nb15 O7 2.123109 1_555
Nb15 O3 2.130466 1_555
F0 Nb8 2.121668 1_555
F0 K0 2.598262 1_555
F0 K4 2.957879 1_555
F0 K4 2.957879 1_566
F1 Nb9 2.121668 1_555
F1 K1 2.598262 1_555
F1 K4 2.957879 1_555
F1 K4 2.957879 1_656
F2 Nb10 2.004558 1_555
F2 K2 2.513732 1_555
F3 Nb11 2.004558 1_555
F3 K3 2.513732 1_555
F4 Nb0 2.122554 1_555
F4 K1 2.958047 1_565
F4 K0 2.958047 1_554
F4 K0 2.958047 1_655
F4 K1 2.958047 1_554
F5 Nb1 2.195205 1_555
F5 K4 2.694050 1_555
F5 K1 2.956850 1_454
F5 K1 2.956850 1_555
F5 K0 2.956850 1_555
F5 K0 2.956850 1_544
F6 Nb2 2.102785 1_555
F6 K3 2.962734 1_554
F6 K2 2.962734 1_554
F6 K2 2.962734 1_655
F6 K3 2.962734 1_565
F7 Nb3 2.102120 1_555
F7 K2 2.962751 1_555
F7 K3 2.962751 1_555
F7 K2 2.962751 1_544
F7 K3 2.962751 1_454
