# generated using pymatgen
data_Er17(TeRu2)3
_symmetry_space_group_name_H-M   'P 1'
_cell_length_a   20.31496445
_cell_length_b   20.31496445
_cell_length_c   16.19625064
_cell_angle_alpha   84.79701119
_cell_angle_beta   84.79701119
_cell_angle_gamma   11.28461114
_symmetry_Int_Tables_number   1
_chemical_formula_structural   Er17(TeRu2)3
_chemical_formula_sum   'Er34 Te6 Ru12'
_cell_volume   1302.53221472
_cell_formula_units_Z   2
loop_
 _symmetry_equiv_pos_site_id
 _symmetry_equiv_pos_as_xyz
  1  'x, y, z'
loop_
 _atom_site_type_symbol
 _atom_site_label
 _atom_site_symmetry_multiplicity
 _atom_site_fract_x
 _atom_site_fract_y
 _atom_site_fract_z
 _atom_site_occupancy
  Er  Er0  1  0.73023100  0.73023100  0.07032200  1
  Er  Er1  1  0.35586200  0.35586200  0.92170100  1
  Er  Er2  1  0.73155300  0.73155300  0.58451900  1
  Er  Er3  1  0.86626100  0.86626100  0.09663200  1
  Er  Er4  1  0.81541900  0.81541900  0.78078100  1
  Er  Er5  1  0.86915300  0.86915300  0.59738300  1
  Er  Er6  1  0.18458100  0.18458100  0.21921900  1
  Er  Er7  1  0.47258100  0.47258100  0.83608300  1
  Er  Er8  1  0.55846700  0.55846700  0.88943000  1
  Er  Er9  1  0.13084700  0.13084700  0.40261700  1
  Er  Er10  1  0.55866000  0.55866000  0.38809500  1
  Er  Er11  1  0.90659100  0.90659100  0.77111000  1
  Er  Er12  1  0.52741900  0.52741900  0.16391700  1
  Er  Er13  1  0.09004700  0.09004700  0.73247300  1
  Er  Er14  1  0.36126700  0.36126700  0.42235200  1
  Er  Er15  1  0.63873300  0.63873300  0.57764800  1
  Er  Er16  1  0.64413800  0.64413800  0.07829900  1
  Er  Er17  1  0.47465500  0.47465500  0.33355900  1
  Er  Er18  1  0.69589000  0.69589000  0.39986300  1
  Er  Er19  1  0.44153300  0.44153300  0.11057000  1
  Er  Er20  1  0.70188100  0.70188100  0.87600200  1
  Er  Er21  1  0.29811900  0.29811900  0.12399800  1
  Er  Er22  1  0.17635600  0.17635600  0.70832100  1
  Er  Er23  1  0.52534500  0.52534500  0.66644100  1
  Er  Er24  1  0.00000000  0.00000000  0.00000000  1
  Er  Er25  1  0.09340900  0.09340900  0.22889000  1
  Er  Er26  1  0.82364400  0.82364400  0.29167900  1
  Er  Er27  1  0.13373900  0.13373900  0.90336800  1
  Er  Er28  1  0.90995300  0.90995300  0.26752700  1
  Er  Er29  1  0.44134000  0.44134000  0.61190500  1
  Er  Er30  1  0.26976900  0.26976900  0.92967800  1
  Er  Er31  1  0.30411000  0.30411000  0.60013700  1
  Er  Er32  1  0.00000000  0.00000000  0.50000000  1
  Er  Er33  1  0.26844700  0.26844700  0.41548100  1
  Te  Te0  1  0.75007100  0.75007100  0.25267100  1
  Te  Te1  1  0.07402400  0.07402400  0.54613400  1
  Te  Te2  1  0.24992900  0.24992900  0.74732900  1
  Te  Te3  1  0.07609700  0.07609700  0.04483100  1
  Te  Te4  1  0.92597600  0.92597600  0.45386600  1
  Te  Te5  1  0.92390300  0.92390300  0.95516900  1
  Ru  Ru0  1  0.97650200  0.97650200  0.18852300  1
  Ru  Ru1  1  0.36156000  0.36156000  0.72298600  1
  Ru  Ru2  1  0.02549200  0.02549200  0.30819500  1
  Ru  Ru3  1  0.63844000  0.63844000  0.27701400  1
  Ru  Ru4  1  0.19132600  0.19132600  0.00643900  1
  Ru  Ru5  1  0.80867400  0.80867400  0.99356100  1
  Ru  Ru6  1  0.63488000  0.63488000  0.77898400  1
  Ru  Ru7  1  0.18824500  0.18824500  0.52174700  1
  Ru  Ru8  1  0.02349800  0.02349800  0.81147700  1
  Ru  Ru9  1  0.81175500  0.81175500  0.47825300  1
  Ru  Ru10  1  0.36512000  0.36512000  0.22101600  1
  Ru  Ru11  1  0.97450800  0.97450800  0.69180500  1
loop_
_geom_bond_atom_site_label_1
_geom_bond_atom_site_label_2
_geom_bond_distance
_geom_bond_site_symmetry_2
Er0 Ru4 2.798381 1_565
Er0 Ru4 2.798381 1_655
Er0 Te0 3.130127 1_555
Er0 Ru5 3.299489 1_554
Er1 Ru5 2.929071 1_545
Er1 Ru5 2.929071 1_455
Er1 Ru1 3.205664 1_555
Er1 Te5 3.481880 1_455
Er1 Te5 3.481880 1_545
Er2 Ru7 2.900627 1_565
Er2 Ru7 2.900627 1_655
Er2 Te2 3.442632 1_655
Er2 Te2 3.442632 1_565
Er2 Ru9 3.529996 1_555
Er3 Ru10 2.834239 1_565
Er3 Ru10 2.834239 1_655
Er3 Ru5 2.986088 1_554
Er3 Te5 3.115791 1_554
Er4 Ru1 2.833333 1_565
Er4 Ru1 2.833333 1_655
Er4 Te2 3.399413 1_565
Er4 Te2 3.399413 1_655
Er4 Ru5 3.432148 1_555
Er5 Ru1 2.847470 1_655
Er5 Ru1 2.847470 1_565
Er5 Te4 3.115821 1_555
Er5 Ru9 3.150384 1_555
Er6 Ru3 2.833333 1_545
Er6 Ru3 2.833333 1_455
Er6 Te0 3.399413 1_545
Er6 Te0 3.399413 1_455
Er6 Ru4 3.432148 1_555
Er7 Ru8 2.870010 1_565
Er7 Ru8 2.870010 1_655
Er7 Ru11 3.069632 1_455
Er7 Ru11 3.069632 1_545
Er7 Te5 3.300199 1_545
Er7 Te5 3.300199 1_455
Er8 Ru8 2.812078 1_655
Er8 Ru8 2.812078 1_565
Er8 Te3 3.340549 1_566
Er8 Te3 3.340549 1_656
Er8 Ru6 3.426119 1_555
Er9 Ru3 2.847470 1_455
Er9 Ru3 2.847470 1_545
Er9 Te1 3.115821 1_555
Er9 Ru7 3.150384 1_555
Er10 Ru2 2.789039 1_565
Er10 Ru2 2.789039 1_655
Er10 Te1 3.349141 1_565
Er10 Te1 3.349141 1_655
Er10 Ru3 3.547468 1_555
Er11 Ru1 2.858416 1_565
Er11 Ru1 2.858416 1_655
Er11 Ru11 2.923694 1_555
Er11 Te5 3.123623 1_555
Er12 Ru0 2.870010 1_545
Er12 Ru0 2.870010 1_455
Er12 Ru2 3.069632 1_565
Er12 Ru2 3.069632 1_655
Er12 Te3 3.300199 1_655
Er12 Te3 3.300199 1_565
Er13 Ru6 2.844581 1_455
Er13 Ru6 2.844581 1_545
Er13 Ru8 2.872298 1_555
Er13 Te1 3.143939 1_555
Er14 Ru9 2.913139 1_545
Er14 Ru9 2.913139 1_455
Er14 Ru10 3.250396 1_555
Er14 Te4 3.367292 1_455
Er14 Te4 3.367292 1_545
Er15 Ru7 2.913139 1_565
Er15 Ru7 2.913139 1_655
Er15 Ru6 3.250396 1_555
Er15 Te1 3.367292 1_565
Er15 Te1 3.367292 1_655
Er16 Ru4 2.929071 1_565
Er16 Ru4 2.929071 1_655
Er16 Ru3 3.205664 1_555
Er16 Te3 3.481880 1_655
Er16 Te3 3.481880 1_565
Er17 Ru2 2.868662 1_655
Er17 Ru2 2.868662 1_565
Er17 Ru0 3.079104 1_545
Er17 Ru0 3.079104 1_455
Er17 Te4 3.310746 1_455
Er17 Te4 3.310746 1_545
Er18 Ru7 2.805451 1_565
Er18 Ru7 2.805451 1_655
Er18 Te0 3.087171 1_555
Er18 Ru3 3.193272 1_555
Er19 Ru0 2.812078 1_455
Er19 Ru0 2.812078 1_545
Er19 Te5 3.340549 1_454
Er19 Te5 3.340549 1_544
Er19 Ru10 3.426119 1_555
Er20 Ru4 2.910351 1_566
Er20 Ru4 2.910351 1_656
Er20 Ru6 3.253287 1_555
Er20 Te2 3.371757 1_655
Er20 Te2 3.371757 1_565
Er21 Ru5 2.910351 1_454
Er21 Ru5 2.910351 1_544
Er21 Ru10 3.253287 1_555
Er21 Te0 3.371757 1_545
Er21 Te0 3.371757 1_455
Er22 Ru6 2.785975 1_455
Er22 Ru6 2.785975 1_545
Er22 Ru7 3.016225 1_555
Er22 Te2 3.096936 1_555
Er23 Ru11 2.868662 1_455
Er23 Ru11 2.868662 1_545
Er23 Ru8 3.079104 1_655
Er23 Ru8 3.079104 1_565
Er23 Te1 3.310746 1_655
Er23 Te1 3.310746 1_565
Er24 Ru8 3.114003 1_554
Er24 Ru0 3.114003 1_445
Er24 Te5 3.225104 1_444
Er24 Te3 3.225104 1_555
Er25 Ru3 2.858416 1_455
Er25 Ru3 2.858416 1_545
Er25 Ru2 2.923694 1_555
Er25 Te3 3.123623 1_555
Er26 Ru10 2.785975 1_655
Er26 Ru10 2.785975 1_565
Er26 Ru9 3.016225 1_555
Er26 Te0 3.096936 1_555
Er27 Ru6 2.834239 1_455
Er27 Ru6 2.834239 1_545
Er27 Ru4 2.986088 1_556
Er27 Te3 3.115791 1_556
Er28 Ru10 2.844581 1_565
Er28 Ru10 2.844581 1_655
Er28 Ru0 2.872298 1_555
Er28 Te4 3.143939 1_555
Er29 Ru11 2.789039 1_455
Er29 Ru11 2.789039 1_545
Er29 Te4 3.349141 1_455
Er29 Te4 3.349141 1_545
Er29 Ru1 3.547468 1_555
Er30 Ru5 2.798381 1_455
Er30 Ru5 2.798381 1_545
Er30 Te2 3.130127 1_555
Er30 Ru4 3.299489 1_556
Er31 Ru9 2.805451 1_455
Er31 Ru9 2.805451 1_545
Er31 Te2 3.087171 1_555
Er31 Ru1 3.193272 1_555
Er32 Te4 3.150246 1_445
Er32 Te1 3.150246 1_555
Er32 Ru11 3.182656 1_445
Er32 Ru2 3.182656 1_555
Er33 Ru9 2.900627 1_545
Er33 Ru9 2.900627 1_455
Er33 Te0 3.442632 1_455
Er33 Te0 3.442632 1_545
Er33 Ru7 3.529996 1_555
Ru0 Ru2 2.894843 1_665
Ru11 Ru8 2.894843 1_665
