# generated using pymatgen
data_LaMnFe3(BiO4)3
_symmetry_space_group_name_H-M   'P 1'
_cell_length_a   5.67140825
_cell_length_b   5.67140825
_cell_length_c   9.79516655
_cell_angle_alpha   71.92698299
_cell_angle_beta   71.92698299
_cell_angle_gamma   58.56092493
_symmetry_Int_Tables_number   1
_chemical_formula_structural   LaMnFe3(BiO4)3
_chemical_formula_sum   'La1 Mn1 Fe3 Bi3 O12'
_cell_volume   251.23095331
_cell_formula_units_Z   1
loop_
 _symmetry_equiv_pos_site_id
 _symmetry_equiv_pos_as_xyz
  1  'x, y, z'
loop_
 _atom_site_type_symbol
 _atom_site_label
 _atom_site_symmetry_multiplicity
 _atom_site_fract_x
 _atom_site_fract_y
 _atom_site_fract_z
 _atom_site_occupancy
  La  La0  1  0.37303800  0.37303800  0.37885500  1
  Mn  Mn0  1  0.74928900  0.74928900  0.24949300  1
  Fe  Fe0  1  0.49776000  0.49776000  0.99872300  1
  Fe  Fe1  1  0.00283200  0.00283200  0.50053800  1
  Fe  Fe2  1  0.24997700  0.24997700  0.74970100  1
  Bi  Bi0  1  0.64412100  0.64412100  0.61107000  1
  Bi  Bi1  1  0.13775600  0.13775600  0.11102100  1
  Bi  Bi2  1  0.85864800  0.85864800  0.88394500  1
  O  O0  1  0.07870500  0.07870500  0.67095300  1
  O  O1  1  0.56671000  0.56671000  0.16889300  1
  O  O2  1  0.42252500  0.42252500  0.82969300  1
  O  O3  1  0.93305500  0.93305500  0.33020000  1
  O  O4  1  0.09010300  0.59888500  0.60010800  1
  O  O5  1  0.59154600  0.08975200  0.09975700  1
  O  O6  1  0.90270200  0.40537300  0.90538900  1
  O  O7  1  0.41249500  0.89473000  0.40320400  1
  O  O8  1  0.59888500  0.09010300  0.60010800  1
  O  O9  1  0.08975200  0.59154600  0.09975700  1
  O  O10  1  0.40537300  0.90270200  0.90538900  1
  O  O11  1  0.89473000  0.41249500  0.40320400  1
loop_
_geom_bond_atom_site_label_1
_geom_bond_atom_site_label_2
_geom_bond_distance
_geom_bond_site_symmetry_2
La0 O1 2.257868 1_555
La0 O4 2.516515 1_555
La0 O8 2.516515 1_555
La0 O7 2.542446 1_545
La0 O11 2.542446 1_455
La0 O3 2.841194 1_545
La0 O3 2.841194 1_455
Mn0 O9 1.983648 1_655
Mn0 O5 1.983648 1_565
Mn0 O7 1.984531 1_555
Mn0 O11 1.984531 1_555
Mn0 O1 2.213753 1_555
Mn0 O3 2.225506 1_555
Fe0 O1 2.013096 1_556
Fe0 O10 2.030734 1_555
Fe0 O6 2.030734 1_555
Fe0 O2 2.042541 1_555
Fe0 O9 2.058788 1_556
Fe0 O5 2.058788 1_556
Fe1 O3 2.019847 1_445
Fe1 O4 2.043269 1_545
Fe1 O8 2.043269 1_455
Fe1 O7 2.045785 1_545
Fe1 O11 2.045785 1_455
Fe1 O0 2.059416 1_555
Fe2 O4 2.009596 1_555
Fe2 O8 2.009596 1_555
Fe2 O6 2.034941 1_455
Fe2 O10 2.034941 1_545
Fe2 O0 2.096680 1_555
Fe2 O2 2.116526 1_555
Bi0 O8 2.376256 1_565
Bi0 O4 2.376256 1_655
Bi0 O7 2.409913 1_555
Bi0 O11 2.409913 1_555
Bi0 O2 2.460222 1_555
Bi1 O3 2.370198 1_445
Bi1 O6 2.407540 1_454
Bi1 O10 2.407540 1_544
Bi1 O5 2.412754 1_555
Bi1 O9 2.412754 1_555
Bi2 O6 2.396370 1_555
Bi2 O10 2.396370 1_555
Bi2 O0 2.421072 1_665
Bi2 O5 2.478364 1_566
Bi2 O9 2.478364 1_656
