# generated using pymatgen
data_Ca2Mg
_symmetry_space_group_name_H-M   'P 1'
_cell_length_a   14.62432721
_cell_length_b   14.62432721
_cell_length_c   16.27916058
_cell_angle_alpha   74.19022980
_cell_angle_beta   74.19022980
_cell_angle_gamma   30.24195174
_symmetry_Int_Tables_number   1
_chemical_formula_structural   Ca2Mg
_chemical_formula_sum   'Ca32 Mg16'
_cell_volume   1682.25747163
_cell_formula_units_Z   16
loop_
 _symmetry_equiv_pos_site_id
 _symmetry_equiv_pos_as_xyz
  1  'x, y, z'
loop_
 _atom_site_type_symbol
 _atom_site_label
 _atom_site_symmetry_multiplicity
 _atom_site_fract_x
 _atom_site_fract_y
 _atom_site_fract_z
 _atom_site_occupancy
  Ca  Ca0_0  1  0.42031200  0.42031200  0.04868450  1
  Ca  Ca0_1  1  0.42031200  0.42031200  0.54868450  1
  Ca  Ca0_2  1  0.42031200  0.92031200  0.04868450  1
  Ca  Ca0_3  1  0.42031200  0.92031200  0.54868450  1
  Ca  Ca0_4  1  0.92031200  0.42031200  0.04868450  1
  Ca  Ca0_5  1  0.92031200  0.42031200  0.54868450  1
  Ca  Ca0_6  1  0.92031200  0.92031200  0.04868450  1
  Ca  Ca0_7  1  0.92031200  0.92031200  0.54868450  1
  Ca  Ca1_0  1  0.06924300  0.06924300  0.22271400  1
  Ca  Ca1_1  1  0.06924300  0.06924300  0.72271400  1
  Ca  Ca1_2  1  0.06924300  0.56924300  0.22271400  1
  Ca  Ca1_3  1  0.06924300  0.56924300  0.72271400  1
  Ca  Ca1_4  1  0.56924300  0.06924300  0.22271400  1
  Ca  Ca1_5  1  0.56924300  0.06924300  0.72271400  1
  Ca  Ca1_6  1  0.56924300  0.56924300  0.22271400  1
  Ca  Ca1_7  1  0.56924300  0.56924300  0.72271400  1
  Ca  Ca2_0  1  0.43075700  0.43075700  0.27728600  1
  Ca  Ca2_1  1  0.43075700  0.43075700  0.77728600  1
  Ca  Ca2_2  1  0.43075700  0.93075700  0.27728600  1
  Ca  Ca2_3  1  0.43075700  0.93075700  0.77728600  1
  Ca  Ca2_4  1  0.93075700  0.43075700  0.27728600  1
  Ca  Ca2_5  1  0.93075700  0.43075700  0.77728600  1
  Ca  Ca2_6  1  0.93075700  0.93075700  0.27728600  1
  Ca  Ca2_7  1  0.93075700  0.93075700  0.77728600  1
  Ca  Ca3_0  1  0.07968800  0.07968800  0.45131550  1
  Ca  Ca3_1  1  0.07968800  0.07968800  0.95131550  1
  Ca  Ca3_2  1  0.07968800  0.57968800  0.45131550  1
  Ca  Ca3_3  1  0.07968800  0.57968800  0.95131550  1
  Ca  Ca3_4  1  0.57968800  0.07968800  0.45131550  1
  Ca  Ca3_5  1  0.57968800  0.07968800  0.95131550  1
  Ca  Ca3_6  1  0.57968800  0.57968800  0.45131550  1
  Ca  Ca3_7  1  0.57968800  0.57968800  0.95131550  1
  Mg  Mg0_0  1  0.25677050  0.25677050  0.11023750  1
  Mg  Mg0_1  1  0.25677050  0.25677050  0.61023750  1
  Mg  Mg0_2  1  0.25677050  0.75677050  0.11023750  1
  Mg  Mg0_3  1  0.25677050  0.75677050  0.61023750  1
  Mg  Mg0_4  1  0.75677050  0.25677050  0.11023750  1
  Mg  Mg0_5  1  0.75677050  0.25677050  0.61023750  1
  Mg  Mg0_6  1  0.75677050  0.75677050  0.11023750  1
  Mg  Mg0_7  1  0.75677050  0.75677050  0.61023750  1
  Mg  Mg1_0  1  0.24322950  0.24322950  0.38976250  1
  Mg  Mg1_1  1  0.24322950  0.24322950  0.88976250  1
  Mg  Mg1_2  1  0.24322950  0.74322950  0.38976250  1
  Mg  Mg1_3  1  0.24322950  0.74322950  0.88976250  1
  Mg  Mg1_4  1  0.74322950  0.24322950  0.38976250  1
  Mg  Mg1_5  1  0.74322950  0.24322950  0.88976250  1
  Mg  Mg1_6  1  0.74322950  0.74322950  0.38976250  1
  Mg  Mg1_7  1  0.74322950  0.74322950  0.88976250  1
loop_
_geom_bond_atom_site_label_1
_geom_bond_atom_site_label_2
_geom_bond_distance
_geom_bond_site_symmetry_2
Ca0_0 Mg1_3 3.400594 1_554
Ca0_0 Mg1_5 3.400594 1_554
Ca0_0 Mg0_4 3.461610 1_555
Ca0_0 Mg0_2 3.461610 1_555
Ca0_0 Ca0_6 3.814872 1_545
Ca0_0 Ca0_6 3.814872 1_455
Ca0_0 Ca2_0 3.815179 1_555
Ca0_0 Ca3_3 3.871421 1_554
Ca0_0 Ca3_5 3.871421 1_554
Ca0_0 Ca1_2 3.904511 1_555
Ca0_0 Ca1_4 3.904511 1_555
Ca0_1 Mg1_2 3.400594 1_555
Ca0_1 Mg1_4 3.400594 1_555
Ca0_1 Mg0_5 3.461610 1_555
Ca0_1 Mg0_3 3.461610 1_555
Ca0_1 Ca0_7 3.814872 1_455
Ca0_1 Ca0_7 3.814872 1_545
Ca0_1 Ca2_1 3.815179 1_555
Ca0_1 Ca3_2 3.871421 1_555
Ca0_1 Ca3_4 3.871421 1_555
Ca0_1 Ca1_3 3.904511 1_555
Ca0_1 Ca1_5 3.904511 1_555
Ca0_2 Mg1_1 3.400594 1_564
Ca0_2 Mg1_7 3.400594 1_554
Ca0_2 Mg0_0 3.461610 1_565
Ca0_2 Mg0_6 3.461610 1_555
Ca0_2 Ca0_4 3.814872 1_555
Ca0_2 Ca0_4 3.814872 1_465
Ca0_2 Ca2_2 3.815179 1_555
Ca0_2 Ca3_1 3.871421 1_564
Ca0_2 Ca3_7 3.871421 1_554
Ca0_2 Ca1_6 3.904511 1_555
Ca0_2 Ca1_0 3.904511 1_565
Ca0_3 Mg1_0 3.400594 1_565
Ca0_3 Mg1_6 3.400594 1_555
Ca0_3 Mg0_1 3.461610 1_565
Ca0_3 Mg0_7 3.461610 1_555
Ca0_3 Ca0_5 3.814872 1_555
Ca0_3 Ca0_5 3.814872 1_465
Ca0_3 Ca2_3 3.815179 1_555
Ca0_3 Ca3_6 3.871421 1_555
Ca0_3 Ca3_0 3.871421 1_565
Ca0_3 Ca1_1 3.904511 1_565
Ca0_3 Ca1_7 3.904511 1_555
Ca0_4 Mg1_1 3.400594 1_654
Ca0_4 Mg1_7 3.400594 1_554
Ca0_4 Mg0_0 3.461610 1_655
Ca0_4 Mg0_6 3.461610 1_555
Ca0_4 Ca2_4 3.815179 1_555
Ca0_4 Ca3_7 3.871421 1_554
Ca0_4 Ca3_1 3.871421 1_654
Ca0_4 Ca1_6 3.904511 1_555
Ca0_4 Ca1_0 3.904511 1_655
Ca0_5 Mg1_0 3.400594 1_655
Ca0_5 Mg1_6 3.400594 1_555
Ca0_5 Mg0_1 3.461610 1_655
Ca0_5 Mg0_7 3.461610 1_555
Ca0_5 Ca2_5 3.815179 1_555
Ca0_5 Ca3_0 3.871421 1_655
Ca0_5 Ca3_6 3.871421 1_555
Ca0_5 Ca1_1 3.904511 1_655
Ca0_5 Ca1_7 3.904511 1_555
Ca0_6 Mg1_3 3.400594 1_654
Ca0_6 Mg1_5 3.400594 1_564
Ca0_6 Mg0_2 3.461610 1_655
Ca0_6 Mg0_4 3.461610 1_565
Ca0_6 Ca2_6 3.815179 1_555
Ca0_6 Ca3_3 3.871421 1_654
Ca0_6 Ca3_5 3.871421 1_564
Ca0_6 Ca1_2 3.904511 1_655
Ca0_6 Ca1_4 3.904511 1_565
Ca0_7 Mg1_4 3.400594 1_565
Ca0_7 Mg1_2 3.400594 1_655
Ca0_7 Mg0_5 3.461610 1_565
Ca0_7 Mg0_3 3.461610 1_655
Ca0_7 Ca2_7 3.815179 1_555
Ca0_7 Ca3_2 3.871421 1_655
Ca0_7 Ca3_4 3.871421 1_565
Ca0_7 Ca1_3 3.904511 1_655
Ca0_7 Ca1_5 3.904511 1_565
Ca1_0 Mg0_2 3.453346 1_545
Ca1_0 Mg0_4 3.453346 1_455
Ca1_0 Mg1_4 3.513652 1_455
Ca1_0 Mg1_2 3.513652 1_545
Ca1_0 Ca2_6 3.757504 1_445
Ca1_0 Ca1_6 3.814872 1_455
Ca1_0 Ca1_6 3.814872 1_545
Ca1_0 Ca3_0 3.815179 1_555
Ca1_0 Ca2_4 3.990083 1_455
Ca1_0 Ca2_2 3.990083 1_545
Ca1_1 Mg0_3 3.453346 1_545
Ca1_1 Mg0_5 3.453346 1_455
Ca1_1 Mg1_3 3.513652 1_545
Ca1_1 Mg1_5 3.513652 1_455
Ca1_1 Ca2_7 3.757504 1_445
Ca1_1 Ca1_7 3.814872 1_545
Ca1_1 Ca1_7 3.814872 1_455
Ca1_1 Ca3_1 3.815179 1_555
Ca1_1 Ca2_5 3.990083 1_455
Ca1_1 Ca2_3 3.990083 1_545
Ca1_2 Mg0_6 3.453346 1_455
Ca1_2 Mg0_0 3.453346 1_555
Ca1_2 Mg1_6 3.513652 1_455
Ca1_2 Mg1_0 3.513652 1_555
Ca1_2 Ca2_4 3.757504 1_455
Ca1_2 Ca1_4 3.814872 1_555
Ca1_2 Ca1_4 3.814872 1_465
Ca1_2 Ca3_2 3.815179 1_555
Ca1_2 Ca2_0 3.990083 1_555
Ca1_2 Ca2_6 3.990083 1_455
Ca1_3 Mg0_7 3.453346 1_455
Ca1_3 Mg0_1 3.453346 1_555
Ca1_3 Mg1_1 3.513652 1_555
Ca1_3 Mg1_7 3.513652 1_455
Ca1_3 Ca2_5 3.757504 1_455
Ca1_3 Ca1_5 3.814872 1_555
Ca1_3 Ca1_5 3.814872 1_465
Ca1_3 Ca3_3 3.815179 1_555
Ca1_3 Ca2_1 3.990083 1_555
Ca1_3 Ca2_7 3.990083 1_455
Ca1_4 Mg0_6 3.453346 1_545
Ca1_4 Mg0_0 3.453346 1_555
Ca1_4 Mg1_6 3.513652 1_545
Ca1_4 Mg1_0 3.513652 1_555
Ca1_4 Ca2_2 3.757504 1_545
Ca1_4 Ca3_4 3.815179 1_555
Ca1_4 Ca2_0 3.990083 1_555
Ca1_4 Ca2_6 3.990083 1_545
Ca1_5 Mg0_7 3.453346 1_545
Ca1_5 Mg0_1 3.453346 1_555
Ca1_5 Mg1_7 3.513652 1_545
Ca1_5 Mg1_1 3.513652 1_555
Ca1_5 Ca2_3 3.757504 1_545
Ca1_5 Ca3_5 3.815179 1_555
Ca1_5 Ca2_1 3.990083 1_555
Ca1_5 Ca2_7 3.990083 1_545
Ca1_6 Mg0_2 3.453346 1_555
Ca1_6 Mg0_4 3.453346 1_555
Ca1_6 Mg1_4 3.513652 1_555
Ca1_6 Mg1_2 3.513652 1_555
Ca1_6 Ca2_0 3.757504 1_555
Ca1_6 Ca3_6 3.815179 1_555
Ca1_6 Ca2_4 3.990083 1_555
Ca1_6 Ca2_2 3.990083 1_555
Ca1_7 Mg0_3 3.453346 1_555
Ca1_7 Mg0_5 3.453346 1_555
Ca1_7 Mg1_3 3.513652 1_555
Ca1_7 Mg1_5 3.513652 1_555
Ca1_7 Ca2_1 3.757504 1_555
Ca1_7 Ca3_7 3.815179 1_555
Ca1_7 Ca2_5 3.990083 1_555
Ca1_7 Ca2_3 3.990083 1_555
Ca2_0 Mg1_4 3.453346 1_555
Ca2_0 Mg1_2 3.453346 1_555
Ca2_0 Mg0_4 3.513652 1_555
Ca2_0 Mg0_2 3.513652 1_555
Ca2_0 Ca2_6 3.814872 1_545
Ca2_0 Ca2_6 3.814872 1_455
Ca2_0 Ca3_2 3.904511 1_555
Ca2_0 Ca3_4 3.904511 1_555
Ca2_1 Mg1_5 3.453346 1_555
Ca2_1 Mg1_3 3.453346 1_555
Ca2_1 Mg0_5 3.513652 1_555
Ca2_1 Mg0_3 3.513652 1_555
Ca2_1 Ca2_7 3.814872 1_455
Ca2_1 Ca2_7 3.814872 1_545
Ca2_1 Ca3_3 3.904511 1_555
Ca2_1 Ca3_5 3.904511 1_555
Ca2_2 Mg1_0 3.453346 1_565
Ca2_2 Mg1_6 3.453346 1_555
Ca2_2 Mg0_0 3.513652 1_565
Ca2_2 Mg0_6 3.513652 1_555
Ca2_2 Ca2_4 3.814872 1_555
Ca2_2 Ca2_4 3.814872 1_465
Ca2_2 Ca3_0 3.904511 1_565
Ca2_2 Ca3_6 3.904511 1_555
Ca2_3 Mg1_1 3.453346 1_565
Ca2_3 Mg1_7 3.453346 1_555
Ca2_3 Mg0_1 3.513652 1_565
Ca2_3 Mg0_7 3.513652 1_555
Ca2_3 Ca2_5 3.814872 1_465
Ca2_3 Ca2_5 3.814872 1_555
Ca2_3 Ca3_1 3.904511 1_565
Ca2_3 Ca3_7 3.904511 1_555
Ca2_4 Mg1_0 3.453346 1_655
Ca2_4 Mg1_6 3.453346 1_555
Ca2_4 Mg0_0 3.513652 1_655
Ca2_4 Mg0_6 3.513652 1_555
Ca2_4 Ca3_0 3.904511 1_655
Ca2_4 Ca3_6 3.904511 1_555
Ca2_5 Mg1_1 3.453346 1_655
Ca2_5 Mg1_7 3.453346 1_555
Ca2_5 Mg0_1 3.513652 1_655
Ca2_5 Mg0_7 3.513652 1_555
Ca2_5 Ca3_7 3.904511 1_555
Ca2_5 Ca3_1 3.904511 1_655
Ca2_6 Mg1_4 3.453346 1_565
Ca2_6 Mg1_2 3.453346 1_655
Ca2_6 Mg0_2 3.513652 1_655
Ca2_6 Mg0_4 3.513652 1_565
Ca2_6 Ca3_2 3.904511 1_655
Ca2_6 Ca3_4 3.904511 1_565
Ca2_7 Mg1_5 3.453346 1_565
Ca2_7 Mg1_3 3.453346 1_655
Ca2_7 Mg0_3 3.513652 1_655
Ca2_7 Mg0_5 3.513652 1_565
Ca2_7 Ca3_3 3.904511 1_655
Ca2_7 Ca3_5 3.904511 1_565
Ca3_0 Mg0_3 3.400594 1_545
Ca3_0 Mg0_5 3.400594 1_455
Ca3_0 Mg1_4 3.461610 1_455
Ca3_0 Mg1_2 3.461610 1_545
Ca3_0 Ca3_6 3.814872 1_545
Ca3_0 Ca3_6 3.814872 1_455
Ca3_1 Mg0_2 3.400594 1_546
Ca3_1 Mg0_4 3.400594 1_456
Ca3_1 Mg1_3 3.461610 1_545
Ca3_1 Mg1_5 3.461610 1_455
Ca3_1 Ca3_7 3.814872 1_455
Ca3_1 Ca3_7 3.814872 1_545
Ca3_2 Mg0_7 3.400594 1_455
Ca3_2 Mg0_1 3.400594 1_555
Ca3_2 Mg1_0 3.461610 1_555
Ca3_2 Mg1_6 3.461610 1_455
Ca3_2 Ca3_4 3.814872 1_465
Ca3_2 Ca3_4 3.814872 1_555
Ca3_3 Mg0_6 3.400594 1_456
Ca3_3 Mg0_0 3.400594 1_556
Ca3_3 Mg1_7 3.461610 1_455
Ca3_3 Mg1_1 3.461610 1_555
Ca3_3 Ca3_5 3.814872 1_555
Ca3_3 Ca3_5 3.814872 1_465
Ca3_4 Mg0_7 3.400594 1_545
Ca3_4 Mg0_1 3.400594 1_555
Ca3_4 Mg1_6 3.461610 1_545
Ca3_4 Mg1_0 3.461610 1_555
Ca3_5 Mg0_6 3.400594 1_546
Ca3_5 Mg0_0 3.400594 1_556
Ca3_5 Mg1_7 3.461610 1_545
Ca3_5 Mg1_1 3.461610 1_555
Ca3_6 Mg0_3 3.400594 1_555
Ca3_6 Mg0_5 3.400594 1_555
Ca3_6 Mg1_4 3.461610 1_555
Ca3_6 Mg1_2 3.461610 1_555
Ca3_7 Mg0_2 3.400594 1_556
Ca3_7 Mg0_4 3.400594 1_556
Ca3_7 Mg1_3 3.461610 1_555
Ca3_7 Mg1_5 3.461610 1_555
