# generated using pymatgen
data_NaMnCrF6
_symmetry_space_group_name_H-M   'P 1'
_cell_length_a   9.16243434
_cell_length_b   9.16243434
_cell_length_c   5.09068600
_cell_angle_alpha   90.00000000
_cell_angle_beta   90.00000000
_cell_angle_gamma   120.00000247
_symmetry_Int_Tables_number   1
_chemical_formula_structural   NaMnCrF6
_chemical_formula_sum   'Na3 Mn3 Cr3 F18'
_cell_volume   370.10817841
_cell_formula_units_Z   3
loop_
 _symmetry_equiv_pos_site_id
 _symmetry_equiv_pos_as_xyz
  1  'x, y, z'
loop_
 _atom_site_type_symbol
 _atom_site_label
 _atom_site_symmetry_multiplicity
 _atom_site_fract_x
 _atom_site_fract_y
 _atom_site_fract_z
 _atom_site_occupancy
  Na  Na0  1  0.37018000  0.00000000  0.00000000  1
  Na  Na1  1  0.00000000  0.37018000  0.00000000  1
  Na  Na2  1  0.62982000  0.62982000  0.00000000  1
  Mn  Mn0  1  0.70080300  0.00000000  0.50000000  1
  Mn  Mn1  1  0.29919700  0.29919700  0.50000000  1
  Mn  Mn2  1  0.00000000  0.70080300  0.50000000  1
  Cr  Cr0  1  0.33333300  0.66666700  0.49617800  1
  Cr  Cr1  1  0.66666700  0.33333300  0.50382200  1
  Cr  Cr2  1  0.00000000  0.00000000  0.00000000  1
  F  F0  1  0.77478400  0.23370000  0.29522400  1
  F  F1  1  0.76630000  0.54108400  0.29522400  1
  F  F2  1  0.45891600  0.22521600  0.29522400  1
  F  F3  1  0.54108400  0.76630000  0.70477600  1
  F  F4  1  0.22521600  0.45891600  0.70477600  1
  F  F5  1  0.23370000  0.77478400  0.70477600  1
  F  F6  1  0.40817200  0.53824700  0.28601900  1
  F  F7  1  0.46175300  0.86992600  0.28601900  1
  F  F8  1  0.13007400  0.59182800  0.28601900  1
  F  F9  1  0.90012400  0.10110300  0.77874700  1
  F  F10  1  0.89889700  0.79902100  0.77874700  1
  F  F11  1  0.20097900  0.09987600  0.77874700  1
  F  F12  1  0.79902100  0.89889700  0.22125300  1
  F  F13  1  0.09987600  0.20097900  0.22125300  1
  F  F14  1  0.10110300  0.90012400  0.22125300  1
  F  F15  1  0.53824700  0.40817200  0.71398100  1
  F  F16  1  0.59182800  0.13007400  0.71398100  1
  F  F17  1  0.86992600  0.46175300  0.71398100  1
loop_
_geom_bond_atom_site_label_1
_geom_bond_atom_site_label_2
_geom_bond_distance
_geom_bond_site_symmetry_2
Cr0 F7 1.950921 1_555
Cr0 F8 1.950921 1_555
Cr0 F6 1.950921 1_555
Cr0 F5 1.961282 1_555
Cr0 F4 1.961289 1_555
Cr0 F3 1.961289 1_555
Cr1 F17 1.950921 1_555
Cr1 F16 1.950921 1_555
Cr1 F15 1.950921 1_555
Cr1 F0 1.961282 1_555
Cr1 F2 1.961289 1_555
Cr1 F1 1.961289 1_555
Cr2 F12 1.952402 1_445
Cr2 F10 1.952402 1_444
Cr2 F13 1.952402 1_555
Cr2 F11 1.952402 1_554
Cr2 F14 1.952402 1_545
Cr2 F9 1.952402 1_454
F0 Mn0 2.163269 1_555
F0 Na1 2.345237 1_655
F1 Mn2 2.163269 1_655
F1 Na2 2.345237 1_555
F2 Mn1 2.163269 1_555
F2 Na0 2.345237 1_555
F3 Mn0 2.163269 1_565
F3 Na2 2.345237 1_556
F4 Mn1 2.163269 1_555
F4 Na1 2.345237 1_556
F5 Mn2 2.163269 1_555
F5 Na0 2.345237 1_566
F6 Mn1 2.189506 1_555
F6 Na2 2.290057 1_555
F7 Mn0 2.189505 1_565
F7 Na0 2.290051 1_565
F8 Mn2 2.189499 1_555
F8 Na1 2.290057 1_555
F9 Mn0 2.124902 1_555
F9 Na1 2.434776 1_656
F10 Mn2 2.124902 1_655
F10 Na2 2.434776 1_556
F11 Mn1 2.124902 1_555
F11 Na0 2.434776 1_556
F12 Mn0 2.124902 1_565
F12 Na2 2.434776 1_555
F13 Mn1 2.124902 1_555
F13 Na1 2.434776 1_555
F14 Mn2 2.124902 1_555
F14 Na0 2.434776 1_565
F15 Mn1 2.189506 1_555
F15 Na2 2.290057 1_556
F16 Mn0 2.189499 1_555
F16 Na0 2.290057 1_556
F17 Mn2 2.189505 1_655
F17 Na1 2.290051 1_656
