# generated using pymatgen
data_BaDy
_symmetry_space_group_name_H-M   'P 1'
_cell_length_a   7.76110401
_cell_length_b   7.76108618
_cell_length_c   12.96101400
_cell_angle_alpha   89.99996992
_cell_angle_beta   90.00000000
_cell_angle_gamma   120.00439685
_symmetry_Int_Tables_number   1
_chemical_formula_structural   BaDy
_chemical_formula_sum   'Ba8 Dy8'
_cell_volume   676.07733628
_cell_formula_units_Z   8
loop_
 _symmetry_equiv_pos_site_id
 _symmetry_equiv_pos_as_xyz
  1  'x, y, z'
loop_
 _atom_site_type_symbol
 _atom_site_label
 _atom_site_symmetry_multiplicity
 _atom_site_fract_x
 _atom_site_fract_y
 _atom_site_fract_z
 _atom_site_occupancy
  Ba  Ba0_0  1  0.33333800  0.16666300  0.37500000  1
  Ba  Ba0_1  1  0.33333800  0.16666300  0.87500000  1
  Ba  Ba0_2  1  0.33333800  0.66666300  0.37500000  1
  Ba  Ba0_3  1  0.33333800  0.66666300  0.87500000  1
  Ba  Ba0_4  1  0.83333800  0.16666300  0.37500000  1
  Ba  Ba0_5  1  0.83333800  0.16666300  0.87500000  1
  Ba  Ba0_6  1  0.83333800  0.66666300  0.37500000  1
  Ba  Ba0_7  1  0.83333800  0.66666300  0.87500000  1
  Dy  Dy0_0  1  0.16666200  0.33333600  0.12500000  1
  Dy  Dy0_1  1  0.16666200  0.33333600  0.62500000  1
  Dy  Dy0_2  1  0.16666200  0.83333600  0.12500000  1
  Dy  Dy0_3  1  0.16666200  0.83333600  0.62500000  1
  Dy  Dy0_4  1  0.66666200  0.33333600  0.12500000  1
  Dy  Dy0_5  1  0.66666200  0.33333600  0.62500000  1
  Dy  Dy0_6  1  0.66666200  0.83333600  0.12500000  1
  Dy  Dy0_7  1  0.66666200  0.83333600  0.62500000  1
loop_
_geom_bond_atom_site_label_1
_geom_bond_atom_site_label_2
_geom_bond_distance
_geom_bond_site_symmetry_2
Ba0_0 Ba0_6 3.880290 1_445
Ba0_0 Ba0_6 3.880290 1_555
Ba0_0 Ba0_2 3.880543 1_545
Ba0_0 Ba0_2 3.880543 1_555
Ba0_0 Ba0_4 3.880552 1_555
Ba0_0 Ba0_4 3.880552 1_455
Ba0_0 Dy0_4 3.939299 1_555
Ba0_0 Dy0_5 3.939300 1_555
Ba0_0 Dy0_3 3.939307 1_545
Ba0_0 Dy0_2 3.939309 1_545
Ba0_0 Dy0_0 3.939477 1_555
Ba0_0 Dy0_1 3.939479 1_555
Ba0_1 Ba0_7 3.880290 1_555
Ba0_1 Ba0_7 3.880290 1_445
Ba0_1 Ba0_3 3.880543 1_545
Ba0_1 Ba0_3 3.880543 1_555
Ba0_1 Ba0_5 3.880552 1_555
Ba0_1 Ba0_5 3.880552 1_455
Ba0_1 Dy0_5 3.939299 1_555
Ba0_1 Dy0_4 3.939300 1_556
Ba0_1 Dy0_2 3.939307 1_546
Ba0_1 Dy0_3 3.939309 1_545
Ba0_1 Dy0_1 3.939477 1_555
Ba0_1 Dy0_0 3.939479 1_556
Ba0_2 Ba0_4 3.880290 1_565
Ba0_2 Ba0_4 3.880290 1_455
Ba0_2 Ba0_6 3.880552 1_455
Ba0_2 Ba0_6 3.880552 1_555
Ba0_2 Dy0_6 3.939299 1_555
Ba0_2 Dy0_7 3.939300 1_555
Ba0_2 Dy0_1 3.939307 1_555
Ba0_2 Dy0_0 3.939309 1_555
Ba0_2 Dy0_2 3.939477 1_555
Ba0_2 Dy0_3 3.939479 1_555
Ba0_3 Ba0_5 3.880290 1_565
Ba0_3 Ba0_5 3.880290 1_455
Ba0_3 Ba0_7 3.880552 1_555
Ba0_3 Ba0_7 3.880552 1_455
Ba0_3 Dy0_7 3.939299 1_555
Ba0_3 Dy0_6 3.939300 1_556
Ba0_3 Dy0_0 3.939307 1_556
Ba0_3 Dy0_1 3.939309 1_555
Ba0_3 Dy0_3 3.939477 1_555
Ba0_3 Dy0_2 3.939479 1_556
Ba0_4 Ba0_6 3.880543 1_545
Ba0_4 Ba0_6 3.880543 1_555
Ba0_4 Dy0_0 3.939299 1_655
Ba0_4 Dy0_1 3.939300 1_655
Ba0_4 Dy0_7 3.939307 1_545
Ba0_4 Dy0_6 3.939309 1_545
Ba0_4 Dy0_4 3.939477 1_555
Ba0_4 Dy0_5 3.939479 1_555
Ba0_5 Ba0_7 3.880543 1_545
Ba0_5 Ba0_7 3.880543 1_555
Ba0_5 Dy0_1 3.939299 1_655
Ba0_5 Dy0_0 3.939300 1_656
Ba0_5 Dy0_6 3.939307 1_546
Ba0_5 Dy0_7 3.939309 1_545
Ba0_5 Dy0_5 3.939477 1_555
Ba0_5 Dy0_4 3.939479 1_556
Ba0_6 Dy0_2 3.939299 1_655
Ba0_6 Dy0_3 3.939300 1_655
Ba0_6 Dy0_5 3.939307 1_555
Ba0_6 Dy0_4 3.939309 1_555
Ba0_6 Dy0_6 3.939477 1_555
Ba0_6 Dy0_7 3.939479 1_555
Ba0_7 Dy0_3 3.939299 1_655
Ba0_7 Dy0_2 3.939300 1_656
Ba0_7 Dy0_4 3.939307 1_556
Ba0_7 Dy0_5 3.939309 1_555
Ba0_7 Dy0_7 3.939477 1_555
Ba0_7 Dy0_6 3.939479 1_556
Dy0_0 Dy0_6 3.880290 1_555
Dy0_0 Dy0_6 3.880290 1_445
Dy0_0 Dy0_2 3.880543 1_545
Dy0_0 Dy0_2 3.880543 1_555
Dy0_0 Dy0_4 3.880552 1_555
Dy0_0 Dy0_4 3.880552 1_455
Dy0_1 Dy0_7 3.880290 1_445
Dy0_1 Dy0_7 3.880290 1_555
Dy0_1 Dy0_3 3.880543 1_545
Dy0_1 Dy0_3 3.880543 1_555
Dy0_1 Dy0_5 3.880552 1_555
Dy0_1 Dy0_5 3.880552 1_455
Dy0_2 Dy0_4 3.880290 1_565
Dy0_2 Dy0_4 3.880290 1_455
Dy0_2 Dy0_6 3.880552 1_455
Dy0_2 Dy0_6 3.880552 1_555
Dy0_3 Dy0_5 3.880290 1_565
Dy0_3 Dy0_5 3.880290 1_455
Dy0_3 Dy0_7 3.880552 1_455
Dy0_3 Dy0_7 3.880552 1_555
Dy0_4 Dy0_6 3.880543 1_545
Dy0_4 Dy0_6 3.880543 1_555
Dy0_5 Dy0_7 3.880543 1_545
Dy0_5 Dy0_7 3.880543 1_555
