# generated using pymatgen
data_Th2C3
_symmetry_space_group_name_H-M   'P 1'
_cell_length_a   7.41810504
_cell_length_b   7.41810504
_cell_length_c   7.41810504
_cell_angle_alpha   109.47122063
_cell_angle_beta   109.47122063
_cell_angle_gamma   109.47122063
_symmetry_Int_Tables_number   1
_chemical_formula_structural   Th2C3
_chemical_formula_sum   'Th8 C12'
_cell_volume   314.23680077
_cell_formula_units_Z   4
loop_
 _symmetry_equiv_pos_site_id
 _symmetry_equiv_pos_as_xyz
  1  'x, y, z'
loop_
 _atom_site_type_symbol
 _atom_site_label
 _atom_site_symmetry_multiplicity
 _atom_site_fract_x
 _atom_site_fract_y
 _atom_site_fract_z
 _atom_site_occupancy
  Th  Th0  1  0.09408633  -0.00000000  0.50000000  1
  Th  Th1  1  0.00000000  0.50000000  0.09408633  1
  Th  Th2  1  0.50000000  0.09408633  -0.00000000  1
  Th  Th3  1  0.40591367  0.40591367  0.40591367  1
  Th  Th4  1  0.00000000  0.50000000  0.59408633  1
  Th  Th5  1  0.59408633  -0.00000000  0.50000000  1
  Th  Th6  1  0.50000000  0.59408633  -0.00000000  1
  Th  Th7  1  0.90591367  0.90591367  0.90591367  1
  C  C0  1  0.29243960  0.75000000  0.54243960  1
  C  C1  1  0.20756040  0.25000000  0.95756040  1
  C  C2  1  0.04243960  0.25000000  0.79243960  1
  C  C3  1  0.45756040  0.75000000  0.70756040  1
  C  C4  1  0.75000000  0.54243960  0.29243960  1
  C  C5  1  0.25000000  0.95756040  0.20756040  1
  C  C6  1  0.25000000  0.79243960  0.04243960  1
  C  C7  1  0.75000000  0.70756040  0.45756040  1
  C  C8  1  0.54243960  0.29243960  0.75000000  1
  C  C9  1  0.95756040  0.20756040  0.25000000  1
  C  C10  1  0.79243960  0.04243960  0.25000000  1
  C  C11  1  0.70756040  0.45756040  0.75000000  1
loop_
_geom_bond_atom_site_label_1
_geom_bond_atom_site_label_2
_geom_bond_distance
_geom_bond_site_symmetry_2
C0 C3 1.414374 1_555
C0 Th4 2.576392 1_555
C0 Th5 2.576392 1_565
C0 Th0 2.757353 1_565
C0 Th1 2.757353 1_555
C1 C2 1.414374 1_555
C1 Th7 2.576392 1_445
C1 Th6 2.576392 1_556
C1 Th3 2.757353 1_556
C1 Th2 2.757353 1_556
C2 Th0 2.576392 1_555
C2 Th1 2.576392 1_556
C2 Th4 2.757353 1_555
C2 Th5 2.757353 1_455
C3 Th3 2.576392 1_555
C3 Th2 2.576392 1_566
C3 Th6 2.757353 1_556
C3 Th7 2.757353 1_555
C4 C7 1.414374 1_555
C4 Th6 2.576392 1_555
C4 Th4 2.576392 1_655
C4 Th1 2.757353 1_655
C4 Th2 2.757353 1_555
C5 C6 1.414374 1_555
C5 Th7 2.576392 1_454
C5 Th5 2.576392 1_565
C5 Th3 2.757353 1_565
C5 Th0 2.757353 1_565
C6 Th1 2.576392 1_555
C6 Th2 2.576392 1_565
C6 Th6 2.757353 1_555
C6 Th4 2.757353 1_554
C7 Th3 2.576392 1_555
C7 Th0 2.576392 1_665
C7 Th5 2.757353 1_565
C7 Th7 2.757353 1_555
C8 Th5 2.576392 1_555
C8 Th6 2.576392 1_556
C8 Th2 2.757353 1_556
C8 Th0 2.757353 1_555
C9 Th7 2.576392 1_544
C9 Th4 2.576392 1_655
C9 Th3 2.757353 1_655
C9 Th1 2.757353 1_655
C10 C9 1.414374 1_555
C10 Th2 2.576392 1_555
C10 Th0 2.576392 1_655
C10 Th5 2.757353 1_555
C10 Th6 2.757353 1_545
C11 C8 1.414374 1_555
C11 Th3 2.576392 1_555
C11 Th1 2.576392 1_656
C11 Th7 2.757353 1_555
C11 Th4 2.757353 1_655
