# generated using pymatgen
data_NaLi2N
_symmetry_space_group_name_H-M   'P 1'
_cell_length_a   3.82998448
_cell_length_b   3.82998448
_cell_length_c   3.82998448
_cell_angle_alpha   60.00000000
_cell_angle_beta   60.00000000
_cell_angle_gamma   60.00000000
_symmetry_Int_Tables_number   1
_chemical_formula_structural   NaLi2N
_chemical_formula_sum   'Na1 Li2 N1'
_cell_volume   39.72611044
_cell_formula_units_Z   1
loop_
 _symmetry_equiv_pos_site_id
 _symmetry_equiv_pos_as_xyz
  1  'x, y, z'
loop_
 _atom_site_type_symbol
 _atom_site_label
 _atom_site_symmetry_multiplicity
 _atom_site_fract_x
 _atom_site_fract_y
 _atom_site_fract_z
 _atom_site_occupancy
  Na  Na0  1  0.00000000  0.00000000  0.00000000  1
  Li  Li0  1  0.25000000  0.25000000  0.25000000  1
  Li  Li1  1  0.75000000  0.75000000  0.75000000  1
  N  N0  1  0.50000000  0.50000000  0.50000000  1
loop_
_geom_bond_atom_site_label_1
_geom_bond_atom_site_label_2
_geom_bond_distance
_geom_bond_site_symmetry_2
Li0 N0 2.345377 1_555
Li0 Na0 2.345377 1_555
Li0 N0 2.345377 1_554
Li0 Na0 2.345377 1_556
Li0 N0 2.345377 1_545
Li0 Na0 2.345377 1_565
Li0 Na0 2.345377 1_655
Li0 N0 2.345377 1_455
Li1 N0 2.345377 1_556
Li1 N0 2.345377 1_555
Li1 Na0 2.345377 1_666
Li1 Na0 2.345377 1_665
Li1 Na0 2.345377 1_566
Li1 Na0 2.345377 1_656
Li1 N0 2.345377 1_565
Li1 N0 2.345377 1_655
N0 Na0 2.708208 1_656
N0 Na0 2.708208 1_556
N0 Na0 2.708208 1_565
N0 Na0 2.708208 1_665
N0 Na0 2.708208 1_566
N0 Na0 2.708208 1_655
