# generated using pymatgen
data_BaYb3
_symmetry_space_group_name_H-M   'P 1'
_cell_length_a   8.01230553
_cell_length_b   8.01230553
_cell_length_c   6.67037000
_cell_angle_alpha   90.00000000
_cell_angle_beta   90.00000000
_cell_angle_gamma   119.99999615
_symmetry_Int_Tables_number   1
_chemical_formula_structural   BaYb3
_chemical_formula_sum   'Ba2 Yb6'
_cell_volume   370.84768893
_cell_formula_units_Z   2
loop_
 _symmetry_equiv_pos_site_id
 _symmetry_equiv_pos_as_xyz
  1  'x, y, z'
loop_
 _atom_site_type_symbol
 _atom_site_label
 _atom_site_symmetry_multiplicity
 _atom_site_fract_x
 _atom_site_fract_y
 _atom_site_fract_z
 _atom_site_occupancy
  Ba  Ba0  1  0.33333300  0.66666700  0.75000000  1
  Ba  Ba1  1  0.66666700  0.33333300  0.25000000  1
  Yb  Yb0  1  0.16430300  0.32860600  0.25000000  1
  Yb  Yb1  1  0.67139400  0.83569700  0.25000000  1
  Yb  Yb2  1  0.16430300  0.83569700  0.25000000  1
  Yb  Yb3  1  0.83569700  0.67139400  0.75000000  1
  Yb  Yb4  1  0.32860600  0.16430300  0.75000000  1
  Yb  Yb5  1  0.83569700  0.16430300  0.75000000  1
loop_
_geom_bond_atom_site_label_1
_geom_bond_atom_site_label_2
_geom_bond_distance
_geom_bond_site_symmetry_2
Ba0 Yb3 4.006283 1_455
Ba0 Yb4 4.006283 1_565
Ba0 Yb5 4.006287 1_455
Ba0 Yb5 4.006287 1_565
Ba0 Yb4 4.006291 1_555
Ba0 Yb3 4.006291 1_555
Ba0 Yb2 4.077500 1_555
Ba0 Yb2 4.077500 1_556
Ba0 Yb0 4.077504 1_555
Ba0 Yb0 4.077504 1_556
Ba0 Yb1 4.077504 1_555
Ba0 Yb1 4.077504 1_556
Ba1 Yb1 4.006283 1_545
Ba1 Yb0 4.006283 1_655
Ba1 Yb2 4.006287 1_545
Ba1 Yb2 4.006287 1_655
Ba1 Yb1 4.006291 1_555
Ba1 Yb0 4.006291 1_555
Ba1 Yb5 4.077500 1_555
Ba1 Yb5 4.077500 1_554
Ba1 Yb4 4.077504 1_555
Ba1 Yb4 4.077504 1_554
Ba1 Yb3 4.077504 1_554
Ba1 Yb3 4.077504 1_555
Yb0 Yb2 3.949338 1_545
Yb0 Yb1 3.949338 1_445
Yb0 Yb4 4.040117 1_555
Yb0 Yb4 4.040117 1_554
Yb0 Yb5 4.040117 1_454
Yb0 Yb5 4.040117 1_455
Yb0 Yb2 4.062968 1_555
Yb0 Yb1 4.062968 1_555
Yb1 Yb2 3.949338 1_655
Yb1 Yb3 4.040117 1_554
Yb1 Yb3 4.040117 1_555
Yb1 Yb5 4.040117 1_564
Yb1 Yb5 4.040117 1_565
Yb1 Yb2 4.062968 1_555
Yb2 Yb4 4.040117 1_565
Yb2 Yb3 4.040117 1_454
Yb2 Yb3 4.040117 1_455
Yb2 Yb4 4.040117 1_564
Yb3 Yb5 3.949338 1_565
Yb3 Yb4 3.949338 1_665
Yb3 Yb5 4.062968 1_555
Yb3 Yb4 4.062968 1_555
Yb4 Yb5 3.949338 1_455
Yb4 Yb5 4.062968 1_555
