# generated using pymatgen
data_Er4CdIr
_symmetry_space_group_name_H-M   'P 1'
_cell_length_a   9.48973012
_cell_length_b   9.48975642
_cell_length_c   9.48963607
_cell_angle_alpha   59.99974878
_cell_angle_beta   59.99977567
_cell_angle_gamma   60.00020914
_symmetry_Int_Tables_number   1
_chemical_formula_structural   Er4CdIr
_chemical_formula_sum   'Er16 Cd4 Ir4'
_cell_volume   604.28611026
_cell_formula_units_Z   4
loop_
 _symmetry_equiv_pos_site_id
 _symmetry_equiv_pos_as_xyz
  1  'x, y, z'
loop_
 _atom_site_type_symbol
 _atom_site_label
 _atom_site_symmetry_multiplicity
 _atom_site_fract_x
 _atom_site_fract_y
 _atom_site_fract_z
 _atom_site_occupancy
  Er  Er0  1  0.59878612  0.59878156  0.59878619  1
  Er  Er1  1  0.59878989  0.59877814  0.20364684  1
  Er  Er2  1  0.59878377  0.20364477  0.59878734  1
  Er  Er3  1  0.20364271  0.59878507  0.59878957  1
  Er  Er4  1  0.05947297  0.44052108  0.44052691  1
  Er  Er5  1  0.44052563  0.05947962  0.05947007  1
  Er  Er6  1  0.44052361  0.05947831  0.44052471  1
  Er  Er7  1  0.05947442  0.44052209  0.05948007  1
  Er  Er8  1  0.44052557  0.44052038  0.05947676  1
  Er  Er9  1  0.05947293  0.05947975  0.44052527  1
  Er  Er10  1  0.18819668  0.81180050  0.81180241  1
  Er  Er11  1  0.81180269  0.18819970  0.18819804  1
  Er  Er12  1  0.81179809  0.18820231  0.81179909  1
  Er  Er13  1  0.18820102  0.81179626  0.18820246  1
  Er  Er14  1  0.81179927  0.81180022  0.18819848  1
  Er  Er15  1  0.18819526  0.18820362  0.81180147  1
  Cd  Cd0  1  0.83066118  0.83066315  0.83066105  1
  Cd  Cd1  1  0.83066145  0.83066627  0.50801027  1
  Cd  Cd2  1  0.83066101  0.50801324  0.83066437  1
  Cd  Cd3  1  0.50800563  0.83066564  0.83066452  1
  Ir  Ir0  1  0.39132827  0.39132681  0.39131474  1
  Ir  Ir1  1  0.39132792  0.39132553  0.82602270  1
  Ir  Ir2  1  0.39132923  0.82601841  0.39132362  1
  Ir  Ir3  1  0.82603069  0.39132456  0.39132104  1
loop_
_geom_bond_atom_site_label_1
_geom_bond_atom_site_label_2
_geom_bond_distance
_geom_bond_site_symmetry_2
Er0 Ir1 2.790486 1_555
Er0 Ir2 2.790524 1_555
Er0 Ir3 2.790550 1_555
Er1 Ir0 2.790488 1_555
Er1 Ir3 2.790500 1_555
Er1 Ir2 2.790518 1_555
Er2 Ir1 2.790502 1_555
Er2 Ir3 2.790574 1_555
Er2 Ir0 2.790583 1_555
Er3 Ir1 2.790510 1_555
Er3 Ir2 2.790523 1_555
Er3 Ir0 2.790621 1_555
Er4 Ir3 2.762290 1_455
Er4 Ir0 2.762379 1_555
Er5 Ir1 2.762307 1_554
Er5 Ir2 2.762372 1_545
Er6 Ir0 2.762328 1_555
Er6 Ir2 2.762414 1_545
Er7 Ir3 2.762241 1_455
Er7 Ir1 2.762379 1_554
Er8 Ir0 2.762230 1_555
Er8 Ir1 2.762321 1_554
Er9 Ir3 2.762305 1_455
Er9 Ir2 2.762431 1_545
Er10 Ir2 3.418424 1_555
Er10 Ir1 3.418446 1_555
Er11 Ir0 3.418400 1_555
Er11 Ir3 3.418410 1_555
Er12 Ir3 3.418381 1_555
Er12 Ir1 3.418389 1_555
Er13 Ir0 3.418364 1_555
Er13 Ir2 3.418384 1_555
Er14 Ir2 3.418388 1_555
Er14 Ir3 3.418410 1_555
Er15 Ir1 3.418435 1_555
Er15 Ir0 3.418459 1_555
Cd0 Cd1 3.061822 1_555
Cd0 Cd2 3.061854 1_555
Cd0 Cd3 3.061886 1_555
Cd0 Er14 3.223853 1_556
Cd0 Er10 3.223886 1_655
Cd0 Er12 3.223914 1_565
Cd0 Er3 3.387751 1_655
Cd0 Er2 3.387758 1_565
Cd0 Er1 3.387766 1_556
Cd0 Er9 3.431215 1_665
Cd0 Er5 3.431236 1_566
Cd0 Er7 3.431286 1_656
Cd1 Cd2 3.061873 1_555
Cd1 Cd3 3.061884 1_555
Cd1 Er11 3.223847 1_565
Cd1 Er13 3.223857 1_655
Cd1 Er14 3.223870 1_555
Cd1 Er2 3.387781 1_565
Cd1 Er3 3.387804 1_655
Cd1 Er0 3.387808 1_555
Cd1 Er6 3.431245 1_565
Cd1 Er9 3.431255 1_665
Cd1 Er4 3.431305 1_655
Cd2 Cd3 3.061912 1_555
Cd2 Er11 3.223844 1_556
Cd2 Er15 3.223873 1_655
Cd2 Er12 3.223898 1_555
Cd2 Er1 3.387716 1_556
Cd2 Er3 3.387759 1_655
Cd2 Er0 3.387765 1_555
Cd2 Er4 3.431227 1_655
Cd2 Er8 3.431237 1_556
Cd2 Er7 3.431247 1_656
Cd3 Er13 3.223827 1_556
Cd3 Er10 3.223866 1_555
Cd3 Er15 3.223897 1_565
Cd3 Er2 3.387772 1_565
Cd3 Er1 3.387795 1_556
Cd3 Er0 3.387802 1_555
Cd3 Er6 3.431205 1_565
Cd3 Er5 3.431223 1_566
Cd3 Er8 3.431274 1_556
