# generated using pymatgen
data_Mg16Al12Pb
_symmetry_space_group_name_H-M   'P 1'
_cell_length_a   9.11535186
_cell_length_b   9.11535186
_cell_length_c   9.08575177
_cell_angle_alpha   71.40819711
_cell_angle_beta   71.40819711
_cell_angle_gamma   109.23554036
_symmetry_Int_Tables_number   1
_chemical_formula_structural   Mg16Al12Pb
_chemical_formula_sum   'Mg16 Al12 Pb1'
_cell_volume   595.00281981
_cell_formula_units_Z   1
loop_
 _symmetry_equiv_pos_site_id
 _symmetry_equiv_pos_as_xyz
  1  'x, y, z'
loop_
 _atom_site_type_symbol
 _atom_site_label
 _atom_site_symmetry_multiplicity
 _atom_site_fract_x
 _atom_site_fract_y
 _atom_site_fract_z
 _atom_site_occupancy
  Mg  Mg0  1  0.99969400  0.99969400  0.00133800  1
  Mg  Mg1  1  0.31336900  0.31336900  0.28925500  1
  Mg  Mg2  1  0.33313600  0.33313600  0.66787400  1
  Mg  Mg3  1  0.00014000  0.00014000  0.34494700  1
  Mg  Mg4  1  0.39373800  0.67958700  0.00607400  1
  Mg  Mg5  1  0.28698000  0.59777900  0.40017700  1
  Mg  Mg6  1  0.68649900  0.00518300  0.60025900  1
  Mg  Mg7  1  0.65389800  0.00371800  0.99325600  1
  Mg  Mg8  1  0.31897200  0.71463000  0.68093700  1
  Mg  Mg9  1  0.99847400  0.40080700  0.31669800  1
  Mg  Mg10  1  0.40080700  0.99847400  0.31669800  1
  Mg  Mg11  1  0.71463000  0.31897200  0.68093700  1
  Mg  Mg12  1  0.00371800  0.65389800  0.99325600  1
  Mg  Mg13  1  0.00518300  0.68649900  0.60025900  1
  Mg  Mg14  1  0.59777900  0.28698000  0.40017700  1
  Mg  Mg15  1  0.67958700  0.39373800  0.00607400  1
  Al  Al0  1  0.82806400  0.82806400  0.82181900  1
  Al  Al1  1  0.63231800  0.63231800  0.17415000  1
  Al  Al2  1  0.17432700  0.35746600  0.00982200  1
  Al  Al3  1  0.00347300  0.18759000  0.63303500  1
  Al  Al4  1  0.63534200  0.82577400  0.35136200  1
  Al  Al5  1  0.81202600  0.18016700  0.18726400  1
  Al  Al6  1  0.99830900  0.36652600  0.81778000  1
  Al  Al7  1  0.36652600  0.99830900  0.81778000  1
  Al  Al8  1  0.18016700  0.81202600  0.18726400  1
  Al  Al9  1  0.82577400  0.63534200  0.35136200  1
  Al  Al10  1  0.18759000  0.00347300  0.63303500  1
  Al  Al11  1  0.35746600  0.17432700  0.00982200  1
  Pb  Pb0  1  0.60928100  0.60928100  0.70669600  1
loop_
_geom_bond_atom_site_label_1
_geom_bond_atom_site_label_2
_geom_bond_distance
_geom_bond_site_symmetry_2
Mg0 Mg3 3.124541 1_665
Mg0 Mg2 3.134465 1_664
Mg0 Mg12 3.188138 1_654
Mg0 Mg7 3.188138 1_564
Mg1 Mg3 3.057180 1_555
Mg1 Mg14 3.117197 1_555
Mg1 Mg5 3.117197 1_555
Mg1 Mg15 3.163892 1_555
Mg1 Mg4 3.163892 1_555
Mg1 Mg9 3.180295 1_455
Mg1 Mg10 3.180295 1_545
Mg2 Mg5 3.080907 1_555
Mg2 Pb0 3.123141 1_555
Mg3 Mg6 3.079364 1_455
Mg4 Mg7 3.058530 1_564
Mg4 Mg5 3.149915 1_555
Mg4 Mg8 3.181005 1_554
Mg4 Pb0 3.194244 1_554
Mg4 Mg9 3.211585 1_455
Mg4 Mg6 3.324805 1_564
Mg5 Mg8 3.119126 1_555
Mg5 Mg9 3.121544 1_455
Mg6 Pb0 3.181338 1_545
Mg6 Mg8 3.181997 1_545
Mg6 Mg9 3.221218 1_555
Mg6 Mg7 3.482610 1_555
Mg8 Pb0 3.147330 1_555
Mg10 Mg7 3.078209 1_564
Mg10 Mg14 3.121544 1_565
Mg10 Mg8 3.145966 1_555
Mg10 Mg5 3.197980 1_555
Mg10 Mg15 3.211585 1_565
Mg10 Mg13 3.221218 1_555
Mg11 Mg7 3.060567 1_555
Mg11 Mg14 3.119126 1_555
Mg11 Mg6 3.123761 1_555
Mg11 Mg9 3.145966 1_555
Mg11 Pb0 3.147330 1_555
Mg11 Mg15 3.181005 1_556
Mg11 Mg13 3.181997 1_655
Mg12 Mg15 3.058530 1_456
Mg12 Mg8 3.060567 1_555
Mg12 Mg9 3.078209 1_456
Mg12 Mg13 3.482610 1_555
Mg12 Mg4 3.527108 1_556
Mg13 Mg3 3.079364 1_565
Mg13 Mg8 3.123761 1_555
Mg13 Mg5 3.144125 1_555
Mg13 Pb0 3.181338 1_455
Mg13 Mg15 3.324805 1_456
Mg14 Mg2 3.080907 1_555
Mg14 Mg6 3.144125 1_555
Mg14 Mg15 3.149915 1_555
Mg14 Mg9 3.197980 1_555
Mg15 Pb0 3.194244 1_554
Mg15 Mg7 3.527108 1_554
Al0 Al1 2.689417 1_556
Al0 Al3 2.730002 1_665
Al0 Al10 2.730002 1_665
Al0 Pb0 3.014643 1_555
Al0 Mg0 3.032658 1_556
Al0 Mg12 3.032936 1_655
Al0 Mg7 3.032936 1_565
Al0 Mg13 3.046450 1_655
Al0 Mg6 3.046450 1_565
Al0 Mg15 3.332683 1_556
Al0 Mg4 3.332683 1_556
Al1 Al4 2.740362 1_555
Al1 Al9 2.740362 1_555
Al1 Mg1 2.924358 1_555
Al1 Mg14 3.006365 1_555
Al1 Mg5 3.006365 1_555
Al1 Mg4 3.092359 1_555
Al1 Mg15 3.092359 1_555
Al1 Mg12 3.163584 1_654
Al1 Mg7 3.163584 1_564
Al1 Mg0 3.286204 1_555
Al2 Al6 2.721427 1_454
Al2 Al5 2.746707 1_455
Al2 Mg4 2.940429 1_555
Al2 Mg9 2.961316 1_455
Al2 Mg2 3.095216 1_554
Al2 Mg3 3.096286 1_555
Al2 Mg8 3.118170 1_554
Al2 Mg1 3.154439 1_555
Al2 Mg0 3.161231 1_445
Al3 Al6 2.688137 1_455
Al3 Mg9 2.936013 1_455
Al3 Mg6 2.983358 1_455
Al3 Mg1 3.001109 1_555
Al3 Mg2 3.022873 1_555
Al3 Mg7 3.163503 1_455
Al3 Mg11 3.199240 1_455
Al3 Mg5 3.199620 1_555
Al3 Mg0 3.219548 1_446
Al4 Al5 2.687372 1_565
Al4 Al9 2.830510 1_555
Al4 Mg5 2.960596 1_555
Al4 Mg8 2.990587 1_555
Al4 Mg7 3.057613 1_564
Al4 Mg10 3.078729 1_555
Al4 Pb0 3.084379 1_555
Al4 Mg3 3.149902 1_665
Al4 Mg0 3.199756 1_555
Al4 Mg6 3.245618 1_565
Al5 Al6 2.804812 1_554
Al5 Mg14 2.923872 1_555
Al5 Mg15 2.954607 1_555
Al5 Mg9 2.974353 1_555
Al5 Mg3 3.099541 1_655
Al5 Mg7 3.109992 1_554
Al5 Mg10 3.167521 1_545
Al5 Mg6 3.190129 1_555
Al5 Mg0 3.204670 1_545
Al6 Mg13 2.922637 1_655
Al6 Mg15 3.000836 1_556
Al6 Mg8 3.035434 1_655
Al6 Mg2 3.080350 1_655
Al6 Mg7 3.152808 1_555
Al6 Mg11 3.174182 1_555
Al6 Mg0 3.232321 1_546
Al6 Mg5 3.262315 1_655
Al7 Al8 2.804812 1_556
Al7 Mg6 2.922637 1_565
Al7 Mg4 3.000836 1_556
Al7 Mg11 3.035434 1_565
Al7 Mg2 3.080350 1_565
Al7 Mg12 3.152808 1_555
Al7 Mg8 3.174182 1_555
Al7 Mg0 3.232321 1_456
Al7 Mg14 3.262315 1_565
Al8 Al9 2.687372 1_455
Al8 Mg5 2.923872 1_555
Al8 Mg4 2.954607 1_555
Al8 Mg10 2.974353 1_555
Al8 Mg3 3.099541 1_565
Al8 Mg12 3.109992 1_554
Al8 Mg9 3.167521 1_455
Al8 Mg13 3.190129 1_555
Al8 Mg0 3.204670 1_455
Al9 Mg14 2.960596 1_555
Al9 Mg11 2.990587 1_555
Al9 Mg12 3.057613 1_654
Al9 Mg9 3.078729 1_555
Al9 Pb0 3.084379 1_555
Al9 Mg3 3.149902 1_665
Al9 Mg0 3.199756 1_555
Al9 Mg13 3.245618 1_655
Al10 Al7 2.688137 1_545
Al10 Al3 2.736647 1_555
Al10 Mg10 2.936013 1_545
Al10 Mg13 2.983358 1_545
Al10 Mg1 3.001109 1_555
Al10 Mg2 3.022873 1_555
Al10 Mg12 3.163503 1_545
Al10 Mg8 3.199240 1_545
Al10 Mg14 3.199620 1_555
Al10 Mg0 3.219548 1_446
Al11 Al7 2.721427 1_544
Al11 Al2 2.722110 1_555
Al11 Al8 2.746707 1_545
Al11 Mg15 2.940429 1_555
Al11 Mg10 2.961316 1_545
Al11 Mg2 3.095216 1_554
Al11 Mg3 3.096286 1_555
Al11 Mg11 3.118170 1_554
Al11 Mg1 3.154439 1_555
Al11 Mg0 3.161231 1_445
