# generated using pymatgen
data_RbMg14Mn
_symmetry_space_group_name_H-M   'P 1'
_cell_length_a   6.51429455
_cell_length_b   6.52308918
_cell_length_c   10.51061361
_cell_angle_alpha   90.00000000
_cell_angle_beta   90.00000000
_cell_angle_gamma   120.04467508
_symmetry_Int_Tables_number   1
_chemical_formula_structural   RbMg14Mn
_chemical_formula_sum   'Rb1 Mg14 Mn1'
_cell_volume   386.61947380
_cell_formula_units_Z   1
loop_
 _symmetry_equiv_pos_site_id
 _symmetry_equiv_pos_as_xyz
  1  'x, y, z'
loop_
 _atom_site_type_symbol
 _atom_site_label
 _atom_site_symmetry_multiplicity
 _atom_site_fract_x
 _atom_site_fract_y
 _atom_site_fract_z
 _atom_site_occupancy
  Rb  Rb0  1  0.16368947  0.83184424  0.12500000  1
  Mg  Mg0  1  0.16439870  0.33219885  0.62500000  1
  Mg  Mg1  1  0.16855885  0.83427892  0.62500000  1
  Mg  Mg2  1  0.65937215  0.33560407  0.12500000  1
  Mg  Mg3  1  0.66603255  0.33061528  0.62500000  1
  Mg  Mg4  1  0.65937215  0.82376709  0.12500000  1
  Mg  Mg5  1  0.66603255  0.83541627  0.62500000  1
  Mg  Mg6  1  0.33752753  0.18175343  0.38514241  1
  Mg  Mg7  1  0.33752753  0.18175343  0.86485759  1
  Mg  Mg8  1  0.33752753  0.65577510  0.38514241  1
  Mg  Mg9  1  0.33752753  0.65577510  0.86485759  1
  Mg  Mg10  1  0.83969887  0.16984994  0.36497172  1
  Mg  Mg11  1  0.83969887  0.16984994  0.88502828  1
  Mg  Mg12  1  0.82113410  0.66056755  0.39244595  1
  Mg  Mg13  1  0.82113410  0.66056755  0.85755405  1
  Mn  Mn0  1  0.18076751  0.34038326  0.12500000  1
loop_
_geom_bond_atom_site_label_1
_geom_bond_atom_site_label_2
_geom_bond_distance
_geom_bond_site_symmetry_2
Mg0 Mg7 3.114327 1_555
Mg0 Mg6 3.114327 1_555
Mg0 Mg8 3.114334 1_555
Mg0 Mg9 3.114334 1_555
Mg0 Mg5 3.241344 1_445
Mg0 Mg3 3.241344 1_455
Mg0 Mg1 3.261629 1_555
Mg0 Mg1 3.261629 1_545
Mg0 Mg5 3.272974 1_555
Mg0 Mg3 3.272975 1_555
Mg0 Mg10 3.289696 1_455
Mg0 Mg11 3.289696 1_455
Mg1 Mg12 3.132526 1_455
Mg1 Mg13 3.132526 1_455
Mg1 Mg8 3.194758 1_555
Mg1 Mg9 3.194758 1_555
Mg1 Mg6 3.194764 1_565
Mg1 Mg7 3.194764 1_565
Mg1 Mg3 3.236982 1_565
Mg1 Mg5 3.236982 1_555
Mg1 Mg3 3.277325 1_455
Mg1 Mg5 3.277325 1_455
Mg2 Mn0 3.133496 1_555
Mg2 Mg4 3.184331 1_555
Mg2 Rb0 3.255722 1_545
Mg2 Rb0 3.259211 1_655
Mg2 Mg7 3.282086 1_554
Mg2 Mg6 3.282086 1_555
Mg2 Mg4 3.338758 1_545
Mg2 Mn0 3.381022 1_655
Mg3 Mg6 3.130066 1_555
Mg3 Mg7 3.130066 1_555
Mg3 Mg5 3.230227 1_545
Mg3 Mg5 3.292862 1_555
Mg4 Mn0 3.133496 1_555
Mg4 Rb0 3.255722 1_555
Mg4 Rb0 3.259211 1_655
Mg4 Mg9 3.282085 1_554
Mg4 Mg8 3.282085 1_555
Mg4 Mn0 3.381022 1_665
Mg5 Mg8 3.130065 1_555
Mg5 Mg9 3.130065 1_555
Mg6 Mg8 3.092086 1_555
Mg6 Mn0 3.263095 1_555
Mg6 Rb0 3.373435 1_545
Mg6 Mg8 3.431004 1_545
Mg7 Mg9 3.092086 1_555
Mg7 Mn0 3.263095 1_556
Mg7 Rb0 3.373435 1_546
Mg7 Mg9 3.431004 1_545
Mg8 Mn0 3.263101 1_555
Mg8 Rb0 3.373428 1_555
Mg9 Mn0 3.263101 1_556
Mg9 Rb0 3.373428 1_556
Mg10 Mn0 3.171873 1_655
Mg10 Mg2 3.191012 1_555
Mg10 Mg4 3.191019 1_545
Mg10 Mg8 3.211836 1_655
Mg10 Mg6 3.211836 1_655
Mg10 Mg12 3.275976 1_555
Mg10 Mg12 3.275976 1_545
Mg10 Mg8 3.317631 1_545
Mg10 Mg6 3.317631 1_555
Mg10 Mg3 3.322229 1_555
Mg10 Mg5 3.322236 1_545
Mg11 Mn0 3.171873 1_656
Mg11 Mg2 3.191012 1_556
Mg11 Mg4 3.191019 1_546
Mg11 Mg9 3.211836 1_655
Mg11 Mg7 3.211836 1_655
Mg11 Mg13 3.275976 1_555
Mg11 Mg13 3.275976 1_545
Mg11 Mg9 3.317631 1_545
Mg11 Mg7 3.317631 1_555
Mg11 Mg3 3.322229 1_555
Mg11 Mg5 3.322236 1_545
Mg12 Mg5 3.074118 1_555
Mg12 Mg3 3.074125 1_555
Mg12 Mg6 3.135760 1_555
Mg12 Mg8 3.135760 1_555
Mg12 Mg4 3.356915 1_555
Mg12 Mg2 3.356921 1_555
Mg12 Mg6 3.380571 1_665
Mg12 Mg8 3.380571 1_655
Mg12 Rb0 3.410746 1_655
Mg13 Mg5 3.074118 1_555
Mg13 Mg3 3.074125 1_555
Mg13 Mg7 3.135760 1_555
Mg13 Mg9 3.135760 1_555
Mg13 Mg4 3.356915 1_556
Mg13 Mg2 3.356921 1_556
Mg13 Mg7 3.380571 1_665
Mg13 Mg9 3.380571 1_655
Mg13 Rb0 3.410746 1_656
Mn0 Rb0 3.262966 1_545
Mn0 Rb0 3.262966 1_555
