# generated using pymatgen
data_Zr5Sb3S
_symmetry_space_group_name_H-M   'P 1'
_cell_length_a   8.45612932
_cell_length_b   8.45613667
_cell_length_c   6.10069162
_cell_angle_alpha   90.00000696
_cell_angle_beta   90.00000005
_cell_angle_gamma   120.00002006
_symmetry_Int_Tables_number   1
_chemical_formula_structural   Zr5Sb3S
_chemical_formula_sum   'Zr10 Sb6 S2'
_cell_volume   377.79240779
_cell_formula_units_Z   2
loop_
 _symmetry_equiv_pos_site_id
 _symmetry_equiv_pos_as_xyz
  1  'x, y, z'
loop_
 _atom_site_type_symbol
 _atom_site_label
 _atom_site_symmetry_multiplicity
 _atom_site_fract_x
 _atom_site_fract_y
 _atom_site_fract_z
 _atom_site_occupancy
  Zr  Zr0  1  0.66666679  0.33334092  -0.00000063  1
  Zr  Zr1  1  0.33333321  0.66667512  -0.00000063  1
  Zr  Zr2  1  0.33333321  0.66667512  0.50000063  1
  Zr  Zr3  1  0.66666679  0.33334092  0.50000063  1
  Zr  Zr4  1  0.75012428  0.75011738  0.75000000  1
  Zr  Zr5  1  0.24987572  0.99999310  0.75000000  1
  Zr  Zr6  1  0.00000000  0.24988134  0.75000000  1
  Zr  Zr7  1  0.24988053  0.24987362  0.25000000  1
  Zr  Zr8  1  0.75011947  0.99999309  0.25000000  1
  Zr  Zr9  1  -0.00000000  0.75011797  0.25000000  1
  Sb  Sb0  1  0.39852850  0.39853587  0.75000000  1
  Sb  Sb1  1  0.60147150  0.00000737  0.75000000  1
  Sb  Sb2  1  0.00000000  0.60146075  0.75000000  1
  Sb  Sb3  1  0.60145169  0.60145990  0.25000000  1
  Sb  Sb4  1  0.39854831  0.00000721  0.25000000  1
  Sb  Sb5  1  -0.00000000  0.39853603  0.25000000  1
  S  S0  1  -0.00000000  0.99999164  0.00000016  1
  S  S1  1  -0.00000000  0.99999164  0.49999984  1
loop_
_geom_bond_atom_site_label_1
_geom_bond_atom_site_label_2
_geom_bond_distance
_geom_bond_site_symmetry_2
Sb0 Zr6 2.949723 1_555
Sb0 Zr5 2.949840 1_545
Sb0 Zr4 2.973079 1_555
Sb0 Zr3 3.003539 1_555
Sb0 Zr0 3.003539 1_556
Sb0 Zr1 3.003549 1_556
Sb0 Zr2 3.003549 1_555
Sb0 Zr7 3.299208 1_555
Sb0 Zr7 3.299209 1_556
Sb1 Zr6 2.949723 1_655
Sb1 Zr4 2.949840 1_545
Sb1 Zr5 2.973079 1_545
Sb1 Zr2 3.003534 1_545
Sb1 Zr1 3.003535 1_546
Sb1 Zr0 3.003542 1_556
Sb1 Zr3 3.003542 1_555
Sb1 Zr8 3.299208 1_546
Sb1 Zr8 3.299208 1_545
Sb2 Zr4 2.949753 1_455
Sb2 Zr5 2.949753 1_555
Sb2 Zr6 2.973004 1_555
Sb2 Zr1 3.003491 1_556
Sb2 Zr2 3.003491 1_555
Sb2 Zr3 3.003494 1_455
Sb2 Zr0 3.003494 1_456
Sb2 Zr9 3.299216 1_556
Sb2 Zr9 3.299216 1_555
Sb3 Zr8 2.949747 1_555
Sb3 Zr9 2.949874 1_655
Sb3 Zr7 2.972996 1_555
Sb3 Zr2 3.003497 1_555
Sb3 Zr1 3.003497 1_555
Sb3 Zr0 3.003501 1_555
Sb3 Zr3 3.003502 1_555
Sb3 Zr4 3.299240 1_555
Sb3 Zr4 3.299241 1_554
Sb4 Zr7 2.949754 1_555
Sb4 Zr9 2.949873 1_545
Sb4 Zr8 2.972991 1_545
Sb4 Zr1 3.003487 1_545
Sb4 Zr2 3.003488 1_545
Sb4 Zr3 3.003497 1_555
Sb4 Zr0 3.003498 1_555
Sb4 Zr5 3.299242 1_544
Sb4 Zr5 3.299242 1_545
Sb5 Zr7 2.949829 1_555
Sb5 Zr8 2.949829 1_445
Sb5 Zr9 2.973025 1_555
Sb5 Zr0 3.003542 1_455
Sb5 Zr3 3.003542 1_455
Sb5 Zr2 3.003544 1_555
Sb5 Zr1 3.003544 1_555
Sb5 Zr6 3.299207 1_554
Sb5 Zr6 3.299208 1_555
S0 Zr9 2.605912 1_555
S0 Zr5 2.605920 1_554
S0 Zr4 2.605920 1_454
S0 Zr8 2.605962 1_455
S0 Zr7 2.605962 1_565
S0 Zr6 2.606023 1_564
S1 Zr9 2.605911 1_555
S1 Zr5 2.605920 1_555
S1 Zr4 2.605920 1_455
S1 Zr8 2.605962 1_455
S1 Zr7 2.605962 1_565
S1 Zr6 2.606022 1_565
