# generated using pymatgen
data_Ba2GdCu3SO6
_symmetry_space_group_name_H-M   'P 1'
_cell_length_a   3.82451700
_cell_length_b   4.19199300
_cell_length_c   12.33330100
_cell_angle_alpha   90.00000000
_cell_angle_beta   90.00000000
_cell_angle_gamma   90.00000000
_symmetry_Int_Tables_number   1
_chemical_formula_structural   Ba2GdCu3SO6
_chemical_formula_sum   'Ba2 Gd1 Cu3 S1 O6'
_cell_volume   197.73177969
_cell_formula_units_Z   1
loop_
 _symmetry_equiv_pos_site_id
 _symmetry_equiv_pos_as_xyz
  1  'x, y, z'
loop_
 _atom_site_type_symbol
 _atom_site_label
 _atom_site_symmetry_multiplicity
 _atom_site_fract_x
 _atom_site_fract_y
 _atom_site_fract_z
 _atom_site_occupancy
  Ba  Ba0  1  0.50000000  0.50000000  0.20219100  1
  Ba  Ba1  1  0.50000000  0.50000000  0.79780900  1
  Gd  Gd0  1  0.50000000  0.50000000  0.50000000  1
  Cu  Cu0  1  0.00000000  0.00000000  0.36297600  1
  Cu  Cu1  1  0.00000000  0.00000000  0.63702400  1
  Cu  Cu2  1  0.00000000  0.00000000  0.00000000  1
  S  S0  1  0.00000000  0.50000000  0.00000000  1
  O  O0  1  0.50000000  0.00000000  0.38269300  1
  O  O1  1  0.50000000  0.00000000  0.61730700  1
  O  O2  1  0.00000000  0.50000000  0.37858000  1
  O  O3  1  0.00000000  0.50000000  0.62142000  1
  O  O4  1  0.00000000  0.00000000  0.15562000  1
  O  O5  1  0.00000000  0.00000000  0.84438000  1
loop_
_geom_bond_atom_site_label_1
_geom_bond_atom_site_label_2
_geom_bond_distance
_geom_bond_site_symmetry_2
Ba0 O4 2.894795 1_655
Ba0 O4 2.894795 1_665
Ba0 O4 2.894795 1_555
Ba0 O4 2.894795 1_565
Ba0 O2 2.896438 1_555
Ba0 O2 2.896438 1_655
Ba0 O0 3.057630 1_555
Ba0 O0 3.057630 1_565
Ba0 S0 3.142481 1_555
Ba0 S0 3.142481 1_655
Ba1 O5 2.894795 1_665
Ba1 O5 2.894795 1_555
Ba1 O5 2.894795 1_655
Ba1 O5 2.894795 1_565
Ba1 O3 2.896438 1_655
Ba1 O3 2.896438 1_555
Ba1 O1 3.057630 1_555
Ba1 O1 3.057630 1_565
Ba1 S0 3.142481 1_656
Ba1 S0 3.142481 1_556
Gd0 O2 2.428841 1_555
Gd0 O2 2.428841 1_655
Gd0 O3 2.428841 1_555
Gd0 O3 2.428841 1_655
Gd0 O1 2.546837 1_555
Gd0 O1 2.546837 1_565
Gd0 O0 2.546837 1_555
Gd0 O0 2.546837 1_565
Cu0 O0 1.927658 1_455
Cu0 O0 1.927658 1_555
Cu0 O2 2.104813 1_545
Cu0 O2 2.104813 1_555
Cu0 O4 2.557384 1_555
Cu1 O1 1.927658 1_555
Cu1 O1 1.927658 1_455
Cu1 O3 2.104813 1_545
Cu1 O3 2.104813 1_555
Cu1 O5 2.557384 1_555
Cu2 O5 1.919308 1_554
Cu2 O4 1.919308 1_555
Cu2 S0 2.095997 1_555
Cu2 S0 2.095997 1_545
