# generated using pymatgen
data_Y5(CoTe)2
_symmetry_space_group_name_H-M   'P 1'
_cell_length_a   7.89916932
_cell_length_b   7.89916932
_cell_length_c   15.01419982
_cell_angle_alpha   90.00000000
_cell_angle_beta   90.00000000
_cell_angle_gamma   151.08356989
_symmetry_Int_Tables_number   1
_chemical_formula_structural   Y5(CoTe)2
_chemical_formula_sum   'Y10 Co4 Te4'
_cell_volume   452.99303661
_cell_formula_units_Z   2
loop_
 _symmetry_equiv_pos_site_id
 _symmetry_equiv_pos_as_xyz
  1  'x, y, z'
loop_
 _atom_site_type_symbol
 _atom_site_label
 _atom_site_symmetry_multiplicity
 _atom_site_fract_x
 _atom_site_fract_y
 _atom_site_fract_z
 _atom_site_occupancy
  Y  Y0  1  0.96143377  0.03856623  0.12298115  1
  Y  Y1  1  0.03856623  0.96143377  0.87701885  1
  Y  Y2  1  0.03856623  0.96143377  0.62298115  1
  Y  Y3  1  0.96143377  0.03856623  0.37701885  1
  Y  Y4  1  0.74396957  0.25603043  0.62967951  1
  Y  Y5  1  0.25603043  0.74396957  0.37032049  1
  Y  Y6  1  0.25603043  0.74396957  0.12967951  1
  Y  Y7  1  0.74396957  0.25603043  0.87032049  1
  Y  Y8  1  0.60330139  0.39669861  0.25000000  1
  Y  Y9  1  0.39669861  0.60330139  0.75000000  1
  Co  Co0  1  0.41051096  0.58948904  0.25000000  1
  Co  Co1  1  0.58948904  0.41051096  0.75000000  1
  Co  Co2  1  0.82409352  0.17590648  0.25000000  1
  Co  Co3  1  0.17590648  0.82409352  0.75000000  1
  Te  Te0  1  0.61787810  0.38212190  0.03807380  1
  Te  Te1  1  0.38212190  0.61787810  0.96192620  1
  Te  Te2  1  0.38212190  0.61787810  0.53807380  1
  Te  Te3  1  0.61787810  0.38212190  0.46192620  1
loop_
_geom_bond_atom_site_label_1
_geom_bond_atom_site_label_2
_geom_bond_distance
_geom_bond_site_symmetry_2
Co0 Co2 2.374312 1_455
Co0 Co2 2.374312 1_565
Co0 Y0 2.851926 1_565
Co0 Y3 2.851926 1_565
Co0 Y3 2.851926 1_455
Co0 Y0 2.851926 1_455
Co0 Y8 2.949309 1_555
Co0 Y5 2.974630 1_555
Co0 Y6 2.974630 1_555
Co1 Co3 2.374312 1_545
Co1 Co3 2.374312 1_655
Co1 Y1 2.851926 1_545
Co1 Y2 2.851926 1_655
Co1 Y1 2.851926 1_655
Co1 Y2 2.851926 1_545
Co1 Y9 2.949309 1_555
Co1 Y4 2.974630 1_555
Co1 Y7 2.974630 1_555
Co2 Y0 2.837484 1_555
Co2 Y3 2.837484 1_555
Co2 Y6 2.870069 1_545
Co2 Y5 2.870069 1_545
Co2 Y5 2.870069 1_655
Co2 Y6 2.870069 1_655
Co2 Y8 3.377679 1_555
Co3 Y2 2.837484 1_555
Co3 Y1 2.837484 1_555
Co3 Y4 2.870069 1_565
Co3 Y7 2.870069 1_565
Co3 Y7 2.870069 1_455
Co3 Y4 2.870069 1_455
Co3 Y9 3.377679 1_555
Te0 Y7 3.172475 1_554
Te0 Y8 3.189707 1_555
Te0 Y6 3.201252 1_545
Te0 Y6 3.201252 1_655
Te0 Y1 3.347989 1_654
Te0 Y1 3.347989 1_544
Te0 Y0 3.353000 1_455
Te0 Y0 3.353000 1_565
Te1 Y6 3.172475 1_556
Te1 Y9 3.189707 1_555
Te1 Y7 3.201252 1_455
Te1 Y7 3.201252 1_565
Te1 Y0 3.347989 1_456
Te1 Y0 3.347989 1_566
Te1 Y1 3.353000 1_545
Te1 Y1 3.353000 1_655
Te2 Y5 3.172475 1_555
Te2 Y9 3.189707 1_555
Te2 Y4 3.201252 1_455
Te2 Y4 3.201252 1_565
Te2 Y3 3.347989 1_455
Te2 Y3 3.347989 1_565
Te2 Y2 3.353000 1_655
Te2 Y2 3.353000 1_545
Te3 Y4 3.172475 1_555
Te3 Y8 3.189707 1_555
Te3 Y5 3.201252 1_545
Te3 Y5 3.201252 1_655
Te3 Y2 3.347989 1_545
Te3 Y2 3.347989 1_655
Te3 Y3 3.353000 1_455
Te3 Y3 3.353000 1_565
