# generated using pymatgen
data_Co3B7IO13
_symmetry_space_group_name_H-M   'P 1'
_cell_length_a   8.68584500
_cell_length_b   8.65825900
_cell_length_c   12.28777100
_cell_angle_alpha   90.00000000
_cell_angle_beta   90.00000000
_cell_angle_gamma   90.00000000
_symmetry_Int_Tables_number   1
_chemical_formula_structural   Co3B7IO13
_chemical_formula_sum   'Co12 B28 I4 O52'
_cell_volume   924.09316309
_cell_formula_units_Z   4
loop_
 _symmetry_equiv_pos_site_id
 _symmetry_equiv_pos_as_xyz
  1  'x, y, z'
loop_
 _atom_site_type_symbol
 _atom_site_label
 _atom_site_symmetry_multiplicity
 _atom_site_fract_x
 _atom_site_fract_y
 _atom_site_fract_z
 _atom_site_occupancy
  Co  Co0  1  0.74420300  0.25238400  0.00207100  1
  Co  Co1  1  0.25579700  0.74761600  0.50207100  1
  Co  Co2  1  0.75579700  0.25238400  0.50207100  1
  Co  Co3  1  0.24420300  0.74761600  0.00207100  1
  Co  Co4  1  0.99475300  0.02030700  0.77304400  1
  Co  Co5  1  0.00524700  0.97969300  0.27304400  1
  Co  Co6  1  0.50524700  0.02030700  0.27304400  1
  Co  Co7  1  0.49475300  0.97969300  0.77304400  1
  Co  Co8  1  0.99375900  0.47904500  0.77132700  1
  Co  Co9  1  0.00624100  0.52095500  0.27132700  1
  Co  Co10  1  0.50624100  0.47904500  0.27132700  1
  Co  Co11  1  0.49375900  0.52095500  0.77132700  1
  B  B0  1  0.00139300  0.00121100  0.02017200  1
  B  B1  1  0.99860700  0.99878900  0.52017200  1
  B  B2  1  0.49860700  0.00121100  0.52017200  1
  B  B3  1  0.50139300  0.99878900  0.02017200  1
  B  B4  1  0.75620400  0.75372800  0.76829500  1
  B  B5  1  0.24379600  0.24627200  0.26829500  1
  B  B6  1  0.74379600  0.75372800  0.26829500  1
  B  B7  1  0.25620400  0.24627200  0.76829500  1
  B  B8  1  0.00216100  0.49675500  0.01999300  1
  B  B9  1  0.99783900  0.50324500  0.51999300  1
  B  B10  1  0.49783900  0.49675500  0.51999300  1
  B  B11  1  0.50216100  0.50324500  0.01999300  1
  B  B12  1  0.75694200  0.59766700  0.94057900  1
  B  B13  1  0.24305800  0.40233300  0.44057900  1
  B  B14  1  0.74305800  0.59766700  0.44057900  1
  B  B15  1  0.25694200  0.40233300  0.94057900  1
  B  B16  1  0.75614700  0.90453600  0.94087300  1
  B  B17  1  0.24385300  0.09546400  0.44087300  1
  B  B18  1  0.74385300  0.90453600  0.44087300  1
  B  B19  1  0.25614700  0.09546400  0.94087300  1
  B  B20  1  0.90754500  0.74943400  0.09395200  1
  B  B21  1  0.09245500  0.25056600  0.59395200  1
  B  B22  1  0.59245500  0.74943400  0.59395200  1
  B  B23  1  0.40754500  0.25056600  0.09395200  1
  B  B24  1  0.05157000  0.24795900  0.11866100  1
  B  B25  1  0.94843000  0.75204100  0.61866100  1
  B  B26  1  0.44843000  0.24795900  0.61866100  1
  B  B27  1  0.55157000  0.75204100  0.11866100  1
  I  I0  1  0.76073000  0.24760000  0.77452000  1
  I  I1  1  0.23927000  0.75240000  0.27452000  1
  I  I2  1  0.73927000  0.24760000  0.27452000  1
  I  I3  1  0.26073000  0.75240000  0.77452000  1
  O  O0  1  0.77104200  0.74993700  0.00968000  1
  O  O1  1  0.22895800  0.25006300  0.50968000  1
  O  O2  1  0.72895800  0.74993700  0.50968000  1
  O  O3  1  0.27104200  0.25006300  0.00968000  1
  O  O4  1  0.83657000  0.02541000  0.99955200  1
  O  O5  1  0.16343000  0.97459000  0.49955200  1
  O  O6  1  0.66343000  0.02541000  0.49955200  1
  O  O7  1  0.33657000  0.97459000  0.99955200  1
  O  O8  1  0.91483100  0.54164000  0.92239300  1
  O  O9  1  0.08516900  0.45836000  0.42239300  1
  O  O10  1  0.58516900  0.54164000  0.42239300  1
  O  O11  1  0.41483100  0.45836000  0.92239300  1
  O  O12  1  0.82888300  0.87332200  0.83570600  1
  O  O13  1  0.17111700  0.12667800  0.33570600  1
  O  O14  1  0.67111700  0.87332200  0.33570600  1
  O  O15  1  0.32888300  0.12667800  0.83570600  1
  O  O16  1  0.66789900  0.48225200  0.00088200  1
  O  O17  1  0.33210100  0.51774800  0.50088200  1
  O  O18  1  0.83210100  0.48225200  0.50088200  1
  O  O19  1  0.16789900  0.51774800  0.00088200  1
  O  O20  1  0.59322200  0.94451300  0.92645100  1
  O  O21  1  0.40677800  0.05548700  0.42645100  1
  O  O22  1  0.90677800  0.94451300  0.42645100  1
  O  O23  1  0.09322200  0.05548700  0.92645100  1
  O  O24  1  0.68123800  0.63673300  0.83790700  1
  O  O25  1  0.31876200  0.36326700  0.33790700  1
  O  O26  1  0.81876200  0.63673300  0.33790700  1
  O  O27  1  0.18123800  0.36326700  0.83790700  1
  O  O28  1  0.87975700  0.67334700  0.70362800  1
  O  O29  1  0.12024300  0.32665300  0.20362800  1
  O  O30  1  0.62024300  0.67334700  0.20362800  1
  O  O31  1  0.37975700  0.32665300  0.70362800  1
  O  O32  1  0.04259500  0.08884500  0.12176600  1
  O  O33  1  0.95740500  0.91115500  0.62176600  1
  O  O34  1  0.45740500  0.08884500  0.62176600  1
  O  O35  1  0.54259500  0.91115500  0.12176600  1
  O  O36  1  0.03387300  0.83655000  0.04224500  1
  O  O37  1  0.96612700  0.16345000  0.54224500  1
  O  O38  1  0.46612700  0.83655000  0.54224500  1
  O  O39  1  0.53387300  0.16345000  0.04224500  1
  O  O40  1  0.85938900  0.82403300  0.19558200  1
  O  O41  1  0.14061100  0.17596700  0.69558200  1
  O  O42  1  0.64061100  0.82403300  0.69558200  1
  O  O43  1  0.35938900  0.17596700  0.19558200  1
  O  O44  1  0.95188500  0.58959700  0.11410400  1
  O  O45  1  0.04811500  0.41040300  0.61410400  1
  O  O46  1  0.54811500  0.58959700  0.61410400  1
  O  O47  1  0.45188500  0.41040300  0.11410400  1
  O  O48  1  0.96499100  0.32966800  0.04311700  1
  O  O49  1  0.03500900  0.67033200  0.54311700  1
  O  O50  1  0.53500900  0.32966800  0.54311700  1
  O  O51  1  0.46499100  0.67033200  0.04311700  1
loop_
_geom_bond_atom_site_label_1
_geom_bond_atom_site_label_2
_geom_bond_distance
_geom_bond_site_symmetry_2
Co0 O39 2.043074 1_555
Co0 O48 2.092804 1_555
Co0 O16 2.097759 1_555
Co0 O4 2.122882 1_554
Co0 I0 2.800083 1_554
Co0 I2 3.348321 1_555
Co1 O38 2.043074 1_555
Co1 O49 2.092804 1_555
Co1 O17 2.097759 1_555
Co1 O5 2.122882 1_555
Co1 I1 2.800083 1_555
Co1 I3 3.348321 1_555
Co2 O37 2.043074 1_555
Co2 O50 2.092804 1_555
Co2 O18 2.097759 1_555
Co2 O6 2.122882 1_555
Co2 I2 2.800083 1_555
Co2 I0 3.348321 1_555
Co3 O36 2.043074 1_555
Co3 O51 2.092804 1_555
Co3 O19 2.097759 1_555
Co3 O7 2.122882 1_554
Co3 I3 2.800083 1_554
Co3 I1 3.348321 1_555
Co4 O12 2.070782 1_545
Co4 O41 2.080250 1_655
Co4 O23 2.092279 1_655
Co4 O33 2.110398 1_545
Co4 I0 2.829314 1_555
Co4 I3 3.273850 1_645
Co5 O13 2.070782 1_565
Co5 O40 2.080250 1_455
Co5 O22 2.092279 1_455
Co5 O32 2.110398 1_565
Co5 I1 2.829314 1_555
Co5 I2 3.273850 1_465
Co6 O14 2.070782 1_545
Co6 O43 2.080250 1_555
Co6 O21 2.092279 1_555
Co6 O35 2.110398 1_545
Co6 I2 2.829314 1_555
Co6 I1 3.273850 1_545
Co7 O15 2.070782 1_565
Co7 O42 2.080250 1_555
Co7 O20 2.092279 1_555
Co7 O34 2.110398 1_565
Co7 I3 2.829314 1_555
Co7 I0 3.273850 1_565
Co8 O8 2.051689 1_555
Co8 O45 2.075677 1_655
Co8 O27 2.079887 1_655
Co8 O28 2.121957 1_555
Co8 I0 2.848507 1_555
Co8 I3 3.313658 1_655
Co9 O9 2.051689 1_555
Co9 O44 2.075677 1_455
Co9 O26 2.079887 1_455
Co9 O29 2.121957 1_555
Co9 I1 2.848507 1_555
Co9 I2 3.313658 1_455
Co10 O10 2.051689 1_555
Co10 O47 2.075677 1_555
Co10 O25 2.079887 1_555
Co10 O30 2.121957 1_555
Co10 I2 2.848507 1_555
Co10 I1 3.313658 1_555
Co11 O11 2.051689 1_555
Co11 O46 2.075677 1_555
Co11 O24 2.079887 1_555
Co11 O31 2.121957 1_555
Co11 I3 2.848507 1_555
Co11 I0 3.313658 1_555
B0 O4 1.468895 1_454
B0 O23 1.477585 1_554
B0 O36 1.478415 1_545
B0 O32 1.504061 1_555
B1 O5 1.468895 1_655
B1 O22 1.477585 1_555
B1 O37 1.478415 1_565
B1 O33 1.504061 1_555
B2 O6 1.468895 1_555
B2 O21 1.477585 1_555
B2 O38 1.478415 1_545
B2 O34 1.504061 1_555
B3 O7 1.468895 1_554
B3 O20 1.477585 1_554
B3 O39 1.478415 1_565
B3 O35 1.504061 1_555
B4 O12 1.468623 1_555
B4 O42 1.475435 1_555
B4 O24 1.477082 1_555
B4 O28 1.505804 1_555
B5 O13 1.468623 1_555
B5 O43 1.475435 1_555
B5 O25 1.477082 1_555
B5 O29 1.505804 1_555
B6 O14 1.468623 1_555
B6 O40 1.475435 1_555
B6 O26 1.477082 1_555
B6 O30 1.505804 1_555
B7 O15 1.468623 1_555
B7 O41 1.475435 1_555
B7 O27 1.477082 1_555
B7 O31 1.505804 1_555
B8 O19 1.469884 1_555
B8 O8 1.471290 1_454
B8 O44 1.474506 1_455
B8 O48 1.509258 1_455
B9 O18 1.469884 1_555
B9 O9 1.471290 1_655
B9 O45 1.474506 1_655
B9 O49 1.509258 1_655
B10 O17 1.469884 1_555
B10 O10 1.471290 1_555
B10 O46 1.474506 1_555
B10 O50 1.509258 1_555
B11 O16 1.469884 1_555
B11 O11 1.471290 1_554
B11 O47 1.474506 1_555
B11 O51 1.509258 1_555
B12 O24 1.462342 1_555
B12 O16 1.464862 1_556
B12 O8 1.471731 1_555
B12 O0 1.572935 1_556
B13 O25 1.462342 1_555
B13 O17 1.464862 1_555
B13 O9 1.471731 1_555
B13 O1 1.572935 1_555
B14 O26 1.462342 1_555
B14 O18 1.464862 1_555
B14 O10 1.471731 1_555
B14 O2 1.572935 1_555
B15 O27 1.462342 1_555
B15 O19 1.464862 1_556
B15 O11 1.471731 1_555
B15 O3 1.572935 1_556
B16 O4 1.450219 1_565
B16 O12 1.463603 1_555
B16 O20 1.467596 1_555
B16 O0 1.588496 1_556
B17 O5 1.450219 1_545
B17 O13 1.463603 1_555
B17 O21 1.467596 1_555
B17 O1 1.588496 1_555
B18 O6 1.450219 1_565
B18 O14 1.463603 1_555
B18 O22 1.467596 1_555
B18 O2 1.588496 1_555
B19 O7 1.450219 1_545
B19 O15 1.463603 1_555
B19 O23 1.467596 1_555
B19 O3 1.588496 1_556
B20 O44 1.457686 1_555
B20 O40 1.466852 1_555
B20 O36 1.475333 1_655
B20 O0 1.574186 1_555
B21 O45 1.457686 1_555
B21 O41 1.466852 1_555
B21 O37 1.475333 1_455
B21 O1 1.574186 1_555
B22 O46 1.457686 1_555
B22 O42 1.466852 1_555
B22 O38 1.475333 1_555
B22 O2 1.574186 1_555
B23 O47 1.457686 1_555
B23 O43 1.466852 1_555
B23 O39 1.475333 1_555
B23 O3 1.574186 1_555
B24 O32 1.380381 1_555
B24 O29 1.382058 1_555
B24 O48 1.388416 1_455
B25 O33 1.380381 1_555
B25 O28 1.382058 1_555
B25 O49 1.388416 1_655
B26 O34 1.380381 1_555
B26 O31 1.382058 1_555
B26 O50 1.388416 1_555
B27 O35 1.380381 1_555
B27 O30 1.382058 1_555
B27 O51 1.388416 1_555
