# generated using pymatgen
data_Tb2GaNi2
_symmetry_space_group_name_H-M   'P 1'
_cell_length_a   4.18437251
_cell_length_b   5.31640391
_cell_length_c   5.31958654
_cell_angle_alpha   119.98021728
_cell_angle_beta   113.15990794
_cell_angle_gamma   90.00000000
_symmetry_Int_Tables_number   1
_chemical_formula_structural   Tb2GaNi2
_chemical_formula_sum   'Tb2 Ga1 Ni2'
_cell_volume   91.32907194
_cell_formula_units_Z   1
loop_
 _symmetry_equiv_pos_site_id
 _symmetry_equiv_pos_as_xyz
  1  'x, y, z'
loop_
 _atom_site_type_symbol
 _atom_site_label
 _atom_site_symmetry_multiplicity
 _atom_site_fract_x
 _atom_site_fract_y
 _atom_site_fract_z
 _atom_site_occupancy
  Tb  Tb0  1  0.79861323  0.29861323  0.59722646  1
  Tb  Tb1  1  0.20138677  0.70138677  0.40277354  1
  Ga  Ga0  1  0.00000000  0.00000000  0.00000000  1
  Ni  Ni0  1  0.50000000  0.26651015  0.00000000  1
  Ni  Ni1  1  0.50000000  0.73348985  -0.00000000  1
loop_
_geom_bond_atom_site_label_1
_geom_bond_atom_site_label_2
_geom_bond_distance
_geom_bond_site_symmetry_2
Ga0 Ni1 2.526812 1_545
Ga0 Ni0 2.526812 1_455
Ga0 Ni1 2.526812 1_445
Ga0 Ni0 2.526812 1_555
Ga0 Tb1 3.130546 1_555
Ga0 Tb0 3.130546 1_444
Ga0 Tb1 3.130546 1_545
Ga0 Tb0 3.130546 1_454
Ga0 Tb1 3.223193 1_544
Ga0 Tb0 3.223193 1_455
Ga0 Tb0 3.223193 1_555
Ga0 Tb1 3.223193 1_444
Ni0 Ni1 2.482653 1_555
Ni0 Tb1 2.831831 1_544
Ni0 Tb0 2.831831 1_555
Ni0 Tb1 2.941499 1_555
Ni0 Tb1 2.941499 1_655
Ni0 Tb0 2.941499 1_554
Ni0 Tb0 2.941499 1_454
Ni1 Tb0 2.831831 1_565
Ni1 Tb1 2.831831 1_554
Ni1 Tb0 2.941499 1_554
Ni1 Tb0 2.941499 1_454
Ni1 Tb1 2.941499 1_555
Ni1 Tb1 2.941499 1_655
