# generated using pymatgen
data_Ca2CuIrO6
_symmetry_space_group_name_H-M   'P 1'
_cell_length_a   6.50047768
_cell_length_b   6.50047768
_cell_length_c   6.48700370
_cell_angle_alpha   88.39616213
_cell_angle_beta   88.39616213
_cell_angle_gamma   92.10614302
_symmetry_Int_Tables_number   1
_chemical_formula_structural   Ca2CuIrO6
_chemical_formula_sum   'Ca4 Cu2 Ir2 O12'
_cell_volume   273.70814984
_cell_formula_units_Z   2
loop_
 _symmetry_equiv_pos_site_id
 _symmetry_equiv_pos_as_xyz
  1  'x, y, z'
loop_
 _atom_site_type_symbol
 _atom_site_label
 _atom_site_symmetry_multiplicity
 _atom_site_fract_x
 _atom_site_fract_y
 _atom_site_fract_z
 _atom_site_occupancy
  Ca  Ca0  1  0.60068700  0.39931300  0.00000000  1
  Ca  Ca1  1  0.40574900  0.59425100  0.50000000  1
  Ca  Ca2  1  0.74013300  0.88895300  0.12538500  1
  Ca  Ca3  1  0.11104700  0.25986700  0.87461500  1
  Cu  Cu0  1  0.83638200  0.16361800  0.50000000  1
  Cu  Cu1  1  0.18665300  0.81334700  0.00000000  1
  Ir  Ir0  1  0.49751900  0.99970600  0.73797500  1
  Ir  Ir1  1  0.00029400  0.50248100  0.26202500  1
  O  O0  1  0.88144600  0.21053800  0.20512900  1
  O  O1  1  0.78946200  0.11855400  0.79487100  1
  O  O2  1  0.10688500  0.78754000  0.28675300  1
  O  O3  1  0.21246000  0.89311500  0.71324700  1
  O  O4  1  0.02718300  0.38609800  0.54276400  1
  O  O5  1  0.61390200  0.97281700  0.45723600  1
  O  O6  1  0.97102000  0.60840200  0.96797200  1
  O  O7  1  0.39159800  0.02898000  0.03202800  1
  O  O8  1  0.70864500  0.57319400  0.30060800  1
  O  O9  1  0.42680600  0.29135500  0.69939200  1
  O  O10  1  0.27733100  0.43486900  0.17842300  1
  O  O11  1  0.56513100  0.72266900  0.82157700  1
loop_
_geom_bond_atom_site_label_1
_geom_bond_atom_site_label_2
_geom_bond_distance
_geom_bond_site_symmetry_2
Ca0 O8 2.390492 1_555
Ca0 O9 2.390492 1_554
Ca0 O10 2.392872 1_555
Ca0 O11 2.392872 1_554
Ca0 O0 2.610854 1_555
Ca0 O1 2.610854 1_554
Ca0 O7 2.720574 1_555
Ca0 O6 2.720574 1_554
Ca1 O8 2.335758 1_555
Ca1 O9 2.335758 1_555
Ca1 O10 2.505366 1_555
Ca1 O11 2.505366 1_555
Ca1 O3 2.738468 1_555
Ca1 O2 2.738468 1_555
Ca1 O4 2.767613 1_555
Ca1 O5 2.767613 1_555
Ca2 O8 2.317869 1_555
Ca2 O0 2.329683 1_565
Ca2 O5 2.367363 1_555
Ca2 O11 2.549698 1_554
Ca2 O7 2.554599 1_565
Ca2 O1 2.583519 1_564
Ca2 O6 2.615517 1_554
Ca2 O2 2.725933 1_655
Ca3 O9 2.317869 1_555
Ca3 O1 2.329683 1_455
Ca3 O4 2.367363 1_555
Ca3 O10 2.549698 1_556
Ca3 O6 2.554599 1_455
Ca3 O0 2.583519 1_456
Ca3 O7 2.615517 1_556
Ca3 O3 2.725933 1_545
Cu0 O4 1.901773 1_655
Cu0 O5 1.901773 1_545
Cu0 O0 1.940918 1_555
Cu0 O1 1.940918 1_555
Cu1 O7 1.917650 1_565
Cu1 O6 1.917650 1_454
Cu1 O2 1.918172 1_555
Cu1 O3 1.918172 1_554
Ir0 O11 1.935789 1_555
Ir0 O3 1.966724 1_555
Ir0 O5 1.967214 1_555
Ir0 O9 1.977915 1_565
Ir0 O7 2.026171 1_566
Ir0 O1 2.069304 1_565
Ir1 O10 1.935789 1_555
Ir1 O2 1.966724 1_555
Ir1 O4 1.967214 1_555
Ir1 O8 1.977915 1_455
Ir1 O6 2.026171 1_454
Ir1 O0 2.069304 1_455
