# generated using pymatgen
data_DyAgTe2
_symmetry_space_group_name_H-M   'P 1'
_cell_length_a   4.47099603
_cell_length_b   4.47099603
_cell_length_c   7.32457226
_cell_angle_alpha   90.00000000
_cell_angle_beta   90.00000000
_cell_angle_gamma   119.99999837
_symmetry_Int_Tables_number   1
_chemical_formula_structural   DyAgTe2
_chemical_formula_sum   'Dy1 Ag1 Te2'
_cell_volume   126.80064863
_cell_formula_units_Z   1
loop_
 _symmetry_equiv_pos_site_id
 _symmetry_equiv_pos_as_xyz
  1  'x, y, z'
loop_
 _atom_site_type_symbol
 _atom_site_label
 _atom_site_symmetry_multiplicity
 _atom_site_fract_x
 _atom_site_fract_y
 _atom_site_fract_z
 _atom_site_occupancy
  Dy  Dy0  1  0.00000000  0.00000000  0.01473815  1
  Ag  Ag0  1  0.33333300  0.66666700  0.61097734  1
  Te  Te0  1  0.33333300  0.66666700  0.23588394  1
  Te  Te1  1  0.66666700  0.33333300  0.76840157  1
loop_
_geom_bond_atom_site_label_1
_geom_bond_atom_site_label_2
_geom_bond_distance
_geom_bond_site_symmetry_2
Dy0 Te0 3.047458 1_545
Dy0 Te0 3.047462 1_445
Dy0 Te0 3.047462 1_555
Dy0 Te1 3.149411 1_454
Dy0 Te1 3.149414 1_554
Dy0 Te1 3.149414 1_444
Ag0 Te0 2.747399 1_555
Ag0 Te1 2.827157 1_455
Ag0 Te1 2.827157 1_565
Ag0 Te1 2.827164 1_555
