# generated using pymatgen
data_Cr2InPd2
_symmetry_space_group_name_H-M   'P 1'
_cell_length_a   14.53394800
_cell_length_b   14.53394800
_cell_length_c   6.56160800
_cell_angle_alpha   90.00000000
_cell_angle_beta   90.00000000
_cell_angle_gamma   90.00000000
_symmetry_Int_Tables_number   1
_chemical_formula_structural   Cr2InPd2
_chemical_formula_sum   'Cr32 In16 Pd32'
_cell_volume   1386.04549462
_cell_formula_units_Z   16
loop_
 _symmetry_equiv_pos_site_id
 _symmetry_equiv_pos_as_xyz
  1  'x, y, z'
loop_
 _atom_site_type_symbol
 _atom_site_label
 _atom_site_symmetry_multiplicity
 _atom_site_fract_x
 _atom_site_fract_y
 _atom_site_fract_z
 _atom_site_occupancy
  Cr  Cr0_0  1  0.32966150  0.07966150  0.25000000  1
  Cr  Cr0_1  1  0.32966150  0.07966150  0.75000000  1
  Cr  Cr0_2  1  0.32966150  0.57966150  0.25000000  1
  Cr  Cr0_3  1  0.32966150  0.57966150  0.75000000  1
  Cr  Cr0_4  1  0.82966150  0.07966150  0.25000000  1
  Cr  Cr0_5  1  0.82966150  0.07966150  0.75000000  1
  Cr  Cr0_6  1  0.82966150  0.57966150  0.25000000  1
  Cr  Cr0_7  1  0.82966150  0.57966150  0.75000000  1
  Cr  Cr1_0  1  0.17033850  0.42033850  0.25000000  1
  Cr  Cr1_1  1  0.17033850  0.42033850  0.75000000  1
  Cr  Cr1_2  1  0.17033850  0.92033850  0.25000000  1
  Cr  Cr1_3  1  0.17033850  0.92033850  0.75000000  1
  Cr  Cr1_4  1  0.67033850  0.42033850  0.25000000  1
  Cr  Cr1_5  1  0.67033850  0.42033850  0.75000000  1
  Cr  Cr1_6  1  0.67033850  0.92033850  0.25000000  1
  Cr  Cr1_7  1  0.67033850  0.92033850  0.75000000  1
  Cr  Cr2_0  1  0.07966150  0.17033850  0.25000000  1
  Cr  Cr2_1  1  0.07966150  0.17033850  0.75000000  1
  Cr  Cr2_2  1  0.07966150  0.67033850  0.25000000  1
  Cr  Cr2_3  1  0.07966150  0.67033850  0.75000000  1
  Cr  Cr2_4  1  0.57966150  0.17033850  0.25000000  1
  Cr  Cr2_5  1  0.57966150  0.17033850  0.75000000  1
  Cr  Cr2_6  1  0.57966150  0.67033850  0.25000000  1
  Cr  Cr2_7  1  0.57966150  0.67033850  0.75000000  1
  Cr  Cr3_0  1  0.42033850  0.32966150  0.25000000  1
  Cr  Cr3_1  1  0.42033850  0.32966150  0.75000000  1
  Cr  Cr3_2  1  0.42033850  0.82966150  0.25000000  1
  Cr  Cr3_3  1  0.42033850  0.82966150  0.75000000  1
  Cr  Cr3_4  1  0.92033850  0.32966150  0.25000000  1
  Cr  Cr3_5  1  0.92033850  0.32966150  0.75000000  1
  Cr  Cr3_6  1  0.92033850  0.82966150  0.25000000  1
  Cr  Cr3_7  1  0.92033850  0.82966150  0.75000000  1
  In  In0_0  1  0.25000000  0.25000000  0.00000000  1
  In  In0_1  1  0.25000000  0.25000000  0.50000000  1
  In  In0_2  1  0.25000000  0.75000000  0.00000000  1
  In  In0_3  1  0.25000000  0.75000000  0.50000000  1
  In  In0_4  1  0.75000000  0.25000000  0.00000000  1
  In  In0_5  1  0.75000000  0.25000000  0.50000000  1
  In  In0_6  1  0.75000000  0.75000000  0.00000000  1
  In  In0_7  1  0.75000000  0.75000000  0.50000000  1
  In  In1_0  1  0.00000000  0.00000000  0.00000000  1
  In  In1_1  1  0.00000000  0.00000000  0.50000000  1
  In  In1_2  1  0.00000000  0.50000000  0.00000000  1
  In  In1_3  1  0.00000000  0.50000000  0.50000000  1
  In  In1_4  1  0.50000000  0.00000000  0.00000000  1
  In  In1_5  1  0.50000000  0.00000000  0.50000000  1
  In  In1_6  1  0.50000000  0.50000000  0.00000000  1
  In  In1_7  1  0.50000000  0.50000000  0.50000000  1
  Pd  Pd0_0  1  0.06859350  0.31859350  0.00000000  1
  Pd  Pd0_1  1  0.06859350  0.31859350  0.50000000  1
  Pd  Pd0_2  1  0.06859350  0.81859350  0.00000000  1
  Pd  Pd0_3  1  0.06859350  0.81859350  0.50000000  1
  Pd  Pd0_4  1  0.56859350  0.31859350  0.00000000  1
  Pd  Pd0_5  1  0.56859350  0.31859350  0.50000000  1
  Pd  Pd0_6  1  0.56859350  0.81859350  0.00000000  1
  Pd  Pd0_7  1  0.56859350  0.81859350  0.50000000  1
  Pd  Pd1_0  1  0.43140650  0.18140650  0.00000000  1
  Pd  Pd1_1  1  0.43140650  0.18140650  0.50000000  1
  Pd  Pd1_2  1  0.43140650  0.68140650  0.00000000  1
  Pd  Pd1_3  1  0.43140650  0.68140650  0.50000000  1
  Pd  Pd1_4  1  0.93140650  0.18140650  0.00000000  1
  Pd  Pd1_5  1  0.93140650  0.18140650  0.50000000  1
  Pd  Pd1_6  1  0.93140650  0.68140650  0.00000000  1
  Pd  Pd1_7  1  0.93140650  0.68140650  0.50000000  1
  Pd  Pd2_0  1  0.31859350  0.43140650  0.00000000  1
  Pd  Pd2_1  1  0.31859350  0.43140650  0.50000000  1
  Pd  Pd2_2  1  0.31859350  0.93140650  0.00000000  1
  Pd  Pd2_3  1  0.31859350  0.93140650  0.50000000  1
  Pd  Pd2_4  1  0.81859350  0.43140650  0.00000000  1
  Pd  Pd2_5  1  0.81859350  0.43140650  0.50000000  1
  Pd  Pd2_6  1  0.81859350  0.93140650  0.00000000  1
  Pd  Pd2_7  1  0.81859350  0.93140650  0.50000000  1
  Pd  Pd3_0  1  0.18140650  0.06859350  0.00000000  1
  Pd  Pd3_1  1  0.18140650  0.06859350  0.50000000  1
  Pd  Pd3_2  1  0.18140650  0.56859350  0.00000000  1
  Pd  Pd3_3  1  0.18140650  0.56859350  0.50000000  1
  Pd  Pd3_4  1  0.68140650  0.06859350  0.00000000  1
  Pd  Pd3_5  1  0.68140650  0.06859350  0.50000000  1
  Pd  Pd3_6  1  0.68140650  0.56859350  0.00000000  1
  Pd  Pd3_7  1  0.68140650  0.56859350  0.50000000  1
loop_
_geom_bond_atom_site_label_1
_geom_bond_atom_site_label_2
_geom_bond_distance
_geom_bond_site_symmetry_2
Cr0_0 Pd1_0 2.657886 1_555
Cr0_0 Pd1_1 2.657886 1_555
Cr0_0 Pd3_0 2.712869 1_555
Cr0_0 Pd3_1 2.712869 1_555
Cr0_0 Pd2_3 2.712869 1_545
Cr0_0 Pd2_2 2.712869 1_545
Cr0_0 In1_4 3.187547 1_555
Cr0_0 In1_5 3.187547 1_555
Cr0_0 In0_0 3.187547 1_555
Cr0_0 In0_1 3.187547 1_555
Cr0_1 Pd1_1 2.657886 1_555
Cr0_1 Pd1_0 2.657886 1_556
Cr0_1 Pd3_0 2.712869 1_556
Cr0_1 Pd3_1 2.712869 1_555
Cr0_1 Pd2_3 2.712869 1_545
Cr0_1 Pd2_2 2.712869 1_546
Cr0_1 In1_5 3.187547 1_555
Cr0_1 In1_4 3.187547 1_556
Cr0_1 In0_0 3.187547 1_556
Cr0_1 In0_1 3.187547 1_555
Cr0_2 Pd1_2 2.657886 1_555
Cr0_2 Pd1_3 2.657886 1_555
Cr0_2 Pd3_2 2.712869 1_555
Cr0_2 Pd3_3 2.712869 1_555
Cr0_2 Pd2_0 2.712869 1_555
Cr0_2 Pd2_1 2.712869 1_555
Cr0_2 In1_6 3.187547 1_555
Cr0_2 In1_7 3.187547 1_555
Cr0_2 In0_2 3.187547 1_555
Cr0_2 In0_3 3.187547 1_555
Cr0_3 Pd1_2 2.657886 1_556
Cr0_3 Pd1_3 2.657886 1_555
Cr0_3 Pd3_2 2.712869 1_556
Cr0_3 Pd3_3 2.712869 1_555
Cr0_3 Pd2_0 2.712869 1_556
Cr0_3 Pd2_1 2.712869 1_555
Cr0_3 In1_7 3.187547 1_555
Cr0_3 In0_2 3.187547 1_556
Cr0_3 In1_6 3.187547 1_556
Cr0_3 In0_3 3.187547 1_555
Cr0_4 Pd1_4 2.657886 1_555
Cr0_4 Pd1_5 2.657886 1_555
Cr0_4 Pd3_5 2.712869 1_555
Cr0_4 Pd3_4 2.712869 1_555
Cr0_4 Pd2_6 2.712869 1_545
Cr0_4 Pd2_7 2.712869 1_545
Cr0_4 In1_1 3.187547 1_655
Cr0_4 In1_0 3.187547 1_655
Cr0_4 In0_4 3.187547 1_555
Cr0_4 In0_5 3.187547 1_555
Cr0_5 Pd1_4 2.657886 1_556
Cr0_5 Pd1_5 2.657886 1_555
Cr0_5 Pd3_5 2.712869 1_555
Cr0_5 Pd3_4 2.712869 1_556
Cr0_5 Pd2_6 2.712869 1_546
Cr0_5 Pd2_7 2.712869 1_545
Cr0_5 In1_1 3.187547 1_655
Cr0_5 In1_0 3.187547 1_656
Cr0_5 In0_4 3.187547 1_556
Cr0_5 In0_5 3.187547 1_555
Cr0_6 Pd1_6 2.657886 1_555
Cr0_6 Pd1_7 2.657886 1_555
Cr0_6 Pd3_6 2.712869 1_555
Cr0_6 Pd3_7 2.712869 1_555
Cr0_6 Pd2_5 2.712869 1_555
Cr0_6 Pd2_4 2.712869 1_555
Cr0_6 In1_3 3.187547 1_655
Cr0_6 In0_6 3.187547 1_555
Cr0_6 In1_2 3.187547 1_655
Cr0_6 In0_7 3.187547 1_555
Cr0_7 Pd1_6 2.657886 1_556
Cr0_7 Pd1_7 2.657886 1_555
Cr0_7 Pd3_6 2.712869 1_556
Cr0_7 Pd3_7 2.712869 1_555
Cr0_7 Pd2_5 2.712869 1_555
Cr0_7 Pd2_4 2.712869 1_556
Cr0_7 In1_3 3.187547 1_655
Cr0_7 In0_6 3.187547 1_556
Cr0_7 In1_2 3.187547 1_656
Cr0_7 In0_7 3.187547 1_555
Cr1_0 Pd0_0 2.657886 1_555
Cr1_0 Pd0_1 2.657886 1_555
Cr1_0 Pd2_0 2.712869 1_555
Cr1_0 Pd2_1 2.712869 1_555
Cr1_0 Pd3_2 2.712869 1_555
Cr1_0 Pd3_3 2.712869 1_555
Cr1_0 In1_2 3.187547 1_555
Cr1_0 In1_3 3.187547 1_555
Cr1_0 In0_0 3.187547 1_555
Cr1_0 In0_1 3.187547 1_555
Cr1_1 Pd0_1 2.657886 1_555
Cr1_1 Pd0_0 2.657886 1_556
Cr1_1 Pd2_0 2.712869 1_556
Cr1_1 Pd2_1 2.712869 1_555
Cr1_1 Pd3_2 2.712869 1_556
Cr1_1 Pd3_3 2.712869 1_555
Cr1_1 In1_2 3.187547 1_556
Cr1_1 In1_3 3.187547 1_555
Cr1_1 In0_0 3.187547 1_556
Cr1_1 In0_1 3.187547 1_555
Cr1_2 Pd0_2 2.657886 1_555
Cr1_2 Pd0_3 2.657886 1_555
Cr1_2 Pd3_0 2.712869 1_565
Cr1_2 Pd3_1 2.712869 1_565
Cr1_2 Pd2_3 2.712869 1_555
Cr1_2 Pd2_2 2.712869 1_555
Cr1_2 In1_0 3.187547 1_565
Cr1_2 In1_1 3.187547 1_565
Cr1_2 In0_3 3.187547 1_555
Cr1_2 In0_2 3.187547 1_555
Cr1_3 Pd0_2 2.657886 1_556
Cr1_3 Pd0_3 2.657886 1_555
Cr1_3 Pd3_0 2.712869 1_566
Cr1_3 Pd3_1 2.712869 1_565
Cr1_3 Pd2_3 2.712869 1_555
Cr1_3 Pd2_2 2.712869 1_556
Cr1_3 In1_0 3.187547 1_566
Cr1_3 In1_1 3.187547 1_565
Cr1_3 In0_3 3.187547 1_555
Cr1_3 In0_2 3.187547 1_556
Cr1_4 Pd0_4 2.657886 1_555
Cr1_4 Pd0_5 2.657886 1_555
Cr1_4 Pd2_4 2.712869 1_555
Cr1_4 Pd2_5 2.712869 1_555
Cr1_4 Pd3_6 2.712869 1_555
Cr1_4 Pd3_7 2.712869 1_555
Cr1_4 In0_4 3.187547 1_555
Cr1_4 In1_6 3.187547 1_555
Cr1_4 In1_7 3.187547 1_555
Cr1_4 In0_5 3.187547 1_555
Cr1_5 Pd0_5 2.657886 1_555
Cr1_5 Pd0_4 2.657886 1_556
Cr1_5 Pd2_4 2.712869 1_556
Cr1_5 Pd2_5 2.712869 1_555
Cr1_5 Pd3_6 2.712869 1_556
Cr1_5 Pd3_7 2.712869 1_555
Cr1_5 In0_4 3.187547 1_556
Cr1_5 In1_6 3.187547 1_556
Cr1_5 In0_5 3.187547 1_555
Cr1_5 In1_7 3.187547 1_555
Cr1_6 Pd0_6 2.657886 1_555
Cr1_6 Pd0_7 2.657886 1_555
Cr1_6 Pd2_7 2.712869 1_555
Cr1_6 Pd2_6 2.712869 1_555
Cr1_6 Pd3_5 2.712869 1_565
Cr1_6 Pd3_4 2.712869 1_565
Cr1_6 In0_7 3.187547 1_555
Cr1_6 In1_4 3.187547 1_565
Cr1_6 In0_6 3.187547 1_555
Cr1_6 In1_5 3.187547 1_565
Cr1_7 Pd0_6 2.657886 1_556
Cr1_7 Pd0_7 2.657886 1_555
Cr1_7 Pd2_6 2.712869 1_556
Cr1_7 Pd2_7 2.712869 1_555
Cr1_7 Pd3_5 2.712869 1_565
Cr1_7 Pd3_4 2.712869 1_566
Cr1_7 In0_6 3.187547 1_556
Cr1_7 In0_7 3.187547 1_555
Cr1_7 In1_4 3.187547 1_566
Cr1_7 In1_5 3.187547 1_565
Cr2_0 Pd3_0 2.657886 1_555
Cr2_0 Pd3_1 2.657886 1_555
Cr2_0 Pd0_1 2.712869 1_555
Cr2_0 Pd0_0 2.712869 1_555
Cr2_0 Pd1_4 2.712869 1_455
Cr2_0 Pd1_5 2.712869 1_455
Cr2_0 In0_1 3.187547 1_555
Cr2_0 In1_0 3.187547 1_555
Cr2_0 In1_1 3.187547 1_555
Cr2_0 In0_0 3.187547 1_555
Cr2_1 Pd3_1 2.657886 1_555
Cr2_1 Pd3_0 2.657886 1_556
Cr2_1 Pd0_0 2.712869 1_556
Cr2_1 Pd0_1 2.712869 1_555
Cr2_1 Pd1_5 2.712869 1_455
Cr2_1 Pd1_4 2.712869 1_456
Cr2_1 In0_1 3.187547 1_555
Cr2_1 In1_1 3.187547 1_555
Cr2_1 In0_0 3.187547 1_556
Cr2_1 In1_0 3.187547 1_556
Cr2_2 Pd3_3 2.657886 1_555
Cr2_2 Pd3_2 2.657886 1_555
Cr2_2 Pd0_2 2.712869 1_555
Cr2_2 Pd0_3 2.712869 1_555
Cr2_2 Pd1_7 2.712869 1_455
Cr2_2 Pd1_6 2.712869 1_455
Cr2_2 In0_3 3.187547 1_555
Cr2_2 In0_2 3.187547 1_555
Cr2_2 In1_2 3.187547 1_555
Cr2_2 In1_3 3.187547 1_555
Cr2_3 Pd3_2 2.657886 1_556
Cr2_3 Pd3_3 2.657886 1_555
Cr2_3 Pd0_2 2.712869 1_556
Cr2_3 Pd0_3 2.712869 1_555
Cr2_3 Pd1_7 2.712869 1_455
Cr2_3 Pd1_6 2.712869 1_456
Cr2_3 In0_3 3.187547 1_555
Cr2_3 In0_2 3.187547 1_556
Cr2_3 In1_2 3.187547 1_556
Cr2_3 In1_3 3.187547 1_555
Cr2_4 Pd3_4 2.657886 1_555
Cr2_4 Pd3_5 2.657886 1_555
Cr2_4 Pd0_5 2.712869 1_555
Cr2_4 Pd0_4 2.712869 1_555
Cr2_4 Pd1_0 2.712869 1_555
Cr2_4 Pd1_1 2.712869 1_555
Cr2_4 In0_4 3.187547 1_555
Cr2_4 In0_5 3.187547 1_555
Cr2_4 In1_5 3.187547 1_555
Cr2_4 In1_4 3.187547 1_555
Cr2_5 Pd3_4 2.657886 1_556
Cr2_5 Pd3_5 2.657886 1_555
Cr2_5 Pd0_5 2.712869 1_555
Cr2_5 Pd0_4 2.712869 1_556
Cr2_5 Pd1_0 2.712869 1_556
Cr2_5 Pd1_1 2.712869 1_555
Cr2_5 In0_4 3.187547 1_556
Cr2_5 In0_5 3.187547 1_555
Cr2_5 In1_5 3.187547 1_555
Cr2_5 In1_4 3.187547 1_556
Cr2_6 Pd3_6 2.657886 1_555
Cr2_6 Pd3_7 2.657886 1_555
Cr2_6 Pd0_6 2.712869 1_555
Cr2_6 Pd0_7 2.712869 1_555
Cr2_6 Pd1_3 2.712869 1_555
Cr2_6 Pd1_2 2.712869 1_555
Cr2_6 In0_6 3.187547 1_555
Cr2_6 In0_7 3.187547 1_555
Cr2_6 In1_6 3.187547 1_555
Cr2_6 In1_7 3.187547 1_555
Cr2_7 Pd3_6 2.657886 1_556
Cr2_7 Pd3_7 2.657886 1_555
Cr2_7 Pd0_6 2.712869 1_556
Cr2_7 Pd0_7 2.712869 1_555
Cr2_7 Pd1_3 2.712869 1_555
Cr2_7 Pd1_2 2.712869 1_556
Cr2_7 In0_6 3.187547 1_556
Cr2_7 In0_7 3.187547 1_555
Cr2_7 In1_6 3.187547 1_556
Cr2_7 In1_7 3.187547 1_555
Cr3_0 Pd2_1 2.657886 1_555
Cr3_0 Pd2_0 2.657886 1_555
Cr3_0 Pd1_0 2.712869 1_555
Cr3_0 Pd1_1 2.712869 1_555
Cr3_0 Pd0_4 2.712869 1_555
Cr3_0 Pd0_5 2.712869 1_555
Cr3_0 In1_6 3.187547 1_555
Cr3_0 In1_7 3.187547 1_555
Cr3_0 In0_1 3.187547 1_555
Cr3_0 In0_0 3.187547 1_555
Cr3_1 Pd2_1 2.657886 1_555
Cr3_1 Pd2_0 2.657886 1_556
Cr3_1 Pd1_0 2.712869 1_556
Cr3_1 Pd1_1 2.712869 1_555
Cr3_1 Pd0_4 2.712869 1_556
Cr3_1 Pd0_5 2.712869 1_555
Cr3_1 In1_7 3.187547 1_555
Cr3_1 In1_6 3.187547 1_556
Cr3_1 In0_1 3.187547 1_555
Cr3_1 In0_0 3.187547 1_556
Cr3_2 Pd2_2 2.657886 1_555
Cr3_2 Pd2_3 2.657886 1_555
Cr3_2 Pd1_3 2.712869 1_555
Cr3_2 Pd1_2 2.712869 1_555
Cr3_2 Pd0_7 2.712869 1_555
Cr3_2 Pd0_6 2.712869 1_555
Cr3_2 In1_5 3.187547 1_565
Cr3_2 In1_4 3.187547 1_565
Cr3_2 In0_2 3.187547 1_555
Cr3_2 In0_3 3.187547 1_555
Cr3_3 Pd2_3 2.657886 1_555
Cr3_3 Pd2_2 2.657886 1_556
Cr3_3 Pd1_3 2.712869 1_555
Cr3_3 Pd1_2 2.712869 1_556
Cr3_3 Pd0_7 2.712869 1_555
Cr3_3 Pd0_6 2.712869 1_556
Cr3_3 In1_4 3.187547 1_566
Cr3_3 In1_5 3.187547 1_565
Cr3_3 In0_2 3.187547 1_556
Cr3_3 In0_3 3.187547 1_555
Cr3_4 Pd2_5 2.657886 1_555
Cr3_4 Pd2_4 2.657886 1_555
Cr3_4 Pd0_1 2.712869 1_655
Cr3_4 Pd0_0 2.712869 1_655
Cr3_4 Pd1_4 2.712869 1_555
Cr3_4 Pd1_5 2.712869 1_555
Cr3_4 In1_2 3.187547 1_655
Cr3_4 In1_3 3.187547 1_655
Cr3_4 In0_5 3.187547 1_555
Cr3_4 In0_4 3.187547 1_555
Cr3_5 Pd2_5 2.657886 1_555
Cr3_5 Pd2_4 2.657886 1_556
Cr3_5 Pd0_1 2.712869 1_655
Cr3_5 Pd0_0 2.712869 1_656
Cr3_5 Pd1_4 2.712869 1_556
Cr3_5 Pd1_5 2.712869 1_555
Cr3_5 In1_2 3.187547 1_656
Cr3_5 In1_3 3.187547 1_655
Cr3_5 In0_4 3.187547 1_556
Cr3_5 In0_5 3.187547 1_555
Cr3_6 Pd2_6 2.657886 1_555
Cr3_6 Pd2_7 2.657886 1_555
Cr3_6 Pd0_3 2.712869 1_655
Cr3_6 Pd0_2 2.712869 1_655
Cr3_6 Pd1_7 2.712869 1_555
Cr3_6 Pd1_6 2.712869 1_555
Cr3_6 In1_1 3.187547 1_665
Cr3_6 In1_0 3.187547 1_665
Cr3_6 In0_7 3.187547 1_555
Cr3_6 In0_6 3.187547 1_555
Cr3_7 Pd2_6 2.657886 1_556
Cr3_7 Pd2_7 2.657886 1_555
Cr3_7 Pd0_3 2.712869 1_655
Cr3_7 Pd0_2 2.712869 1_656
Cr3_7 Pd1_6 2.712869 1_556
Cr3_7 Pd1_7 2.712869 1_555
Cr3_7 In1_0 3.187547 1_666
Cr3_7 In1_1 3.187547 1_665
Cr3_7 In0_7 3.187547 1_555
Cr3_7 In0_6 3.187547 1_556
In0_0 Pd1_0 2.818739 1_555
In0_0 Pd2_0 2.818739 1_555
In0_0 Pd0_0 2.818739 1_555
In0_0 Pd3_0 2.818739 1_555
In0_0 In0_1 3.280804 1_555
In0_0 In0_1 3.280804 1_554
In0_1 Pd1_1 2.818739 1_555
In0_1 Pd2_1 2.818739 1_555
In0_1 Pd0_1 2.818739 1_555
In0_1 Pd3_1 2.818739 1_555
In0_2 Pd2_2 2.818739 1_555
In0_2 Pd1_2 2.818739 1_555
In0_2 Pd3_2 2.818739 1_555
In0_2 Pd0_2 2.818739 1_555
In0_2 In0_3 3.280804 1_555
In0_2 In0_3 3.280804 1_554
In0_3 Pd2_3 2.818739 1_555
In0_3 Pd1_3 2.818739 1_555
In0_3 Pd3_3 2.818739 1_555
In0_3 Pd0_3 2.818739 1_555
In0_4 Pd1_4 2.818739 1_555
In0_4 Pd2_4 2.818739 1_555
In0_4 Pd0_4 2.818739 1_555
In0_4 Pd3_4 2.818739 1_555
In0_4 In0_5 3.280804 1_554
In0_4 In0_5 3.280804 1_555
In0_5 Pd1_5 2.818739 1_555
In0_5 Pd2_5 2.818739 1_555
In0_5 Pd0_5 2.818739 1_555
In0_5 Pd3_5 2.818739 1_555
In0_6 Pd2_6 2.818739 1_555
In0_6 Pd1_6 2.818739 1_555
In0_6 Pd0_6 2.818739 1_555
In0_6 Pd3_6 2.818739 1_555
In0_6 In0_7 3.280804 1_555
In0_6 In0_7 3.280804 1_554
In0_7 Pd2_7 2.818739 1_555
In0_7 Pd1_7 2.818739 1_555
In0_7 Pd3_7 2.818739 1_555
In0_7 Pd0_7 2.818739 1_555
In1_0 Pd3_0 2.818739 1_555
In1_0 Pd0_2 2.818739 1_545
In1_0 Pd2_6 2.818739 1_445
In1_0 Pd1_4 2.818739 1_455
In1_0 In1_1 3.280804 1_554
In1_0 In1_1 3.280804 1_555
In1_1 Pd0_3 2.818739 1_545
In1_1 Pd3_1 2.818739 1_555
In1_1 Pd2_7 2.818739 1_445
In1_1 Pd1_5 2.818739 1_455
In1_2 Pd0_0 2.818739 1_555
In1_2 Pd3_2 2.818739 1_555
In1_2 Pd2_4 2.818739 1_455
In1_2 Pd1_6 2.818739 1_455
In1_2 In1_3 3.280804 1_554
In1_2 In1_3 3.280804 1_555
In1_3 Pd0_1 2.818739 1_555
In1_3 Pd3_3 2.818739 1_555
In1_3 Pd2_5 2.818739 1_455
In1_3 Pd1_7 2.818739 1_455
In1_4 Pd3_4 2.818739 1_555
In1_4 Pd0_6 2.818739 1_545
In1_4 Pd1_0 2.818739 1_555
In1_4 Pd2_2 2.818739 1_545
In1_4 In1_5 3.280804 1_555
In1_4 In1_5 3.280804 1_554
In1_5 Pd3_5 2.818739 1_555
In1_5 Pd0_7 2.818739 1_545
In1_5 Pd2_3 2.818739 1_545
In1_5 Pd1_1 2.818739 1_555
In1_6 Pd3_6 2.818739 1_555
In1_6 Pd0_4 2.818739 1_555
In1_6 Pd1_2 2.818739 1_555
In1_6 Pd2_0 2.818739 1_555
In1_6 In1_7 3.280804 1_554
In1_6 In1_7 3.280804 1_555
In1_7 Pd0_5 2.818739 1_555
In1_7 Pd3_7 2.818739 1_555
In1_7 Pd2_1 2.818739 1_555
In1_7 Pd1_3 2.818739 1_555
Pd0_0 Pd1_4 2.819756 1_455
Pd0_1 Pd1_5 2.819756 1_455
Pd0_2 Pd1_6 2.819756 1_455
Pd0_3 Pd1_7 2.819756 1_455
Pd0_4 Pd1_0 2.819756 1_555
Pd0_5 Pd1_1 2.819756 1_555
Pd0_6 Pd1_2 2.819756 1_555
Pd0_7 Pd1_3 2.819756 1_555
Pd2_0 Pd3_2 2.819756 1_555
Pd2_1 Pd3_3 2.819756 1_555
Pd2_2 Pd3_0 2.819756 1_565
Pd2_3 Pd3_1 2.819756 1_565
Pd2_4 Pd3_6 2.819756 1_555
Pd2_5 Pd3_7 2.819756 1_555
Pd2_6 Pd3_4 2.819756 1_565
Pd2_7 Pd3_5 2.819756 1_565
