# generated using pymatgen
data_BaLiRu5O11
_symmetry_space_group_name_H-M   'P 1'
_cell_length_a   5.89864439
_cell_length_b   5.89864439
_cell_length_c   14.01558100
_cell_angle_alpha   90.00000000
_cell_angle_beta   90.00000000
_cell_angle_gamma   120.00000435
_symmetry_Int_Tables_number   1
_chemical_formula_structural   BaLiRu5O11
_chemical_formula_sum   'Ba2 Li2 Ru10 O22'
_cell_volume   422.32437454
_cell_formula_units_Z   2
loop_
 _symmetry_equiv_pos_site_id
 _symmetry_equiv_pos_as_xyz
  1  'x, y, z'
loop_
 _atom_site_type_symbol
 _atom_site_label
 _atom_site_symmetry_multiplicity
 _atom_site_fract_x
 _atom_site_fract_y
 _atom_site_fract_z
 _atom_site_occupancy
  Ba  Ba0  1  0.33333300  0.66666700  0.75000000  1
  Ba  Ba1  1  0.66666700  0.33333300  0.25000000  1
  Li  Li0  1  0.33333300  0.66666700  0.25000000  1
  Li  Li1  1  0.66666700  0.33333300  0.75000000  1
  Ru  Ru0  1  0.50000000  0.00000000  0.00000000  1
  Ru  Ru1  1  0.00000000  0.50000000  0.00000000  1
  Ru  Ru2  1  0.50000000  0.00000000  0.50000000  1
  Ru  Ru3  1  0.50000000  0.50000000  0.00000000  1
  Ru  Ru4  1  0.00000000  0.50000000  0.50000000  1
  Ru  Ru5  1  0.50000000  0.50000000  0.50000000  1
  Ru  Ru6  1  0.00000000  0.00000000  0.15750500  1
  Ru  Ru7  1  0.00000000  0.00000000  0.84249500  1
  Ru  Ru8  1  0.00000000  0.00000000  0.65750500  1
  Ru  Ru9  1  0.00000000  0.00000000  0.34249500  1
  O  O0  1  0.14968100  0.29936200  0.25000000  1
  O  O1  1  0.85031900  0.70063800  0.75000000  1
  O  O2  1  0.70063800  0.85031900  0.25000000  1
  O  O3  1  0.29936200  0.14968100  0.75000000  1
  O  O4  1  0.14968100  0.85031900  0.25000000  1
  O  O5  1  0.85031900  0.14968100  0.75000000  1
  O  O6  1  0.16808500  0.33617100  0.58020800  1
  O  O7  1  0.83191500  0.66382900  0.41979200  1
  O  O8  1  0.66382900  0.83191500  0.58020800  1
  O  O9  1  0.83191500  0.66382900  0.08020800  1
  O  O10  1  0.33617100  0.16808500  0.41979200  1
  O  O11  1  0.16808500  0.33617100  0.91979200  1
  O  O12  1  0.16808500  0.83191500  0.58020800  1
  O  O13  1  0.33617100  0.16808500  0.08020800  1
  O  O14  1  0.83191500  0.16808500  0.41979200  1
  O  O15  1  0.66382900  0.83191500  0.91979200  1
  O  O16  1  0.83191500  0.16808500  0.08020800  1
  O  O17  1  0.16808500  0.83191500  0.91979200  1
  O  O18  1  0.33333300  0.66666700  0.08237800  1
  O  O19  1  0.66666700  0.33333300  0.91762200  1
  O  O20  1  0.66666700  0.33333300  0.58237800  1
  O  O21  1  0.33333300  0.66666700  0.41762200  1
loop_
_geom_bond_atom_site_label_1
_geom_bond_atom_site_label_2
_geom_bond_distance
_geom_bond_site_symmetry_2
Ba0 O11 2.917787 1_555
Ba0 O15 2.917787 1_555
Ba0 O6 2.917787 1_555
Ba0 O8 2.917787 1_555
Ba0 O17 2.917787 1_555
Ba0 O12 2.917787 1_555
Ba0 O3 2.954420 1_565
Ba0 O1 2.954420 1_455
Ba0 O5 2.954423 1_455
Ba0 O5 2.954423 1_565
Ba0 O3 2.954426 1_555
Ba0 O1 2.954426 1_555
Ba1 O13 2.917787 1_555
Ba1 O10 2.917787 1_555
Ba1 O9 2.917787 1_555
Ba1 O7 2.917787 1_555
Ba1 O16 2.917787 1_555
Ba1 O14 2.917787 1_555
Ba1 O0 2.954420 1_655
Ba1 O2 2.954420 1_545
Ba1 O4 2.954423 1_545
Ba1 O4 2.954423 1_655
Ba1 O0 2.954426 1_555
Ba1 O2 2.954426 1_555
Li0 O4 1.876327 1_555
Li0 O0 1.876332 1_555
Li0 O2 1.876332 1_555
Li0 O21 2.349320 1_555
Li0 O18 2.349320 1_555
Li1 O5 1.876327 1_555
Li1 O1 1.876332 1_555
Li1 O3 1.876332 1_555
Li1 O19 2.349320 1_555
Li1 O20 2.349320 1_555
O0 Ru9 2.004793 1_555
O0 Ru6 2.004793 1_555
O1 Ru8 2.004793 1_665
O1 Ru7 2.004793 1_665
O2 Ru6 2.004793 1_665
O2 Ru9 2.004793 1_665
O3 Ru8 2.004793 1_555
O3 Ru7 2.004793 1_555
O4 Ru9 2.004793 1_565
O4 Ru6 2.004793 1_565
O5 Ru7 2.004793 1_655
O5 Ru8 2.004793 1_655
O6 Ru8 2.030456 1_555
O6 Ru4 2.034394 1_555
O6 Ru5 2.034398 1_555
O7 Ru9 2.030456 1_665
O7 Ru4 2.034394 1_655
O7 Ru5 2.034398 1_555
O8 Ru8 2.030456 1_665
O8 Ru2 2.034394 1_565
O8 Ru5 2.034398 1_555
O9 Ru6 2.030456 1_665
O9 Ru1 2.034394 1_655
O9 Ru3 2.034398 1_555
O10 Ru9 2.030456 1_555
O10 Ru2 2.034394 1_555
O10 Ru5 2.034398 1_555
O11 Ru7 2.030456 1_555
O11 Ru1 2.034394 1_556
O11 Ru3 2.034398 1_556
O12 Ru8 2.030452 1_565
O12 Ru2 2.034398 1_565
O12 Ru4 2.034398 1_555
O13 Ru6 2.030456 1_555
O13 Ru0 2.034394 1_555
O13 Ru3 2.034398 1_555
O14 Ru9 2.030452 1_655
O14 Ru2 2.034398 1_555
O14 Ru4 2.034398 1_655
O15 Ru7 2.030456 1_665
O15 Ru0 2.034394 1_566
O15 Ru3 2.034398 1_556
O16 Ru6 2.030452 1_655
O16 Ru0 2.034398 1_555
O16 Ru1 2.034398 1_655
O17 Ru7 2.030452 1_565
O17 Ru0 2.034398 1_566
O17 Ru1 2.034398 1_556
O18 Ru0 2.057314 1_565
O18 Ru1 2.057314 1_555
O18 Ru3 2.057318 1_555
O19 Ru0 2.057314 1_556
O19 Ru1 2.057314 1_656
O19 Ru3 2.057318 1_556
O20 Ru2 2.057314 1_555
O20 Ru4 2.057314 1_655
O20 Ru5 2.057318 1_555
O21 Ru4 2.057314 1_555
O21 Ru2 2.057314 1_565
O21 Ru5 2.057318 1_555
