# generated using pymatgen
data_Al10(Bi2O9)3
_symmetry_space_group_name_H-M   'P 1'
_cell_length_a   5.79338100
_cell_length_b   8.49675900
_cell_length_c   22.86532200
_cell_angle_alpha   90.00000000
_cell_angle_beta   90.00000000
_cell_angle_gamma   90.00000000
_symmetry_Int_Tables_number   1
_chemical_formula_structural   Al10(Bi2O9)3
_chemical_formula_sum   'Al20 Bi12 O54'
_cell_volume   1125.54461005
_cell_formula_units_Z   2
loop_
 _symmetry_equiv_pos_site_id
 _symmetry_equiv_pos_as_xyz
  1  'x, y, z'
loop_
 _atom_site_type_symbol
 _atom_site_label
 _atom_site_symmetry_multiplicity
 _atom_site_fract_x
 _atom_site_fract_y
 _atom_site_fract_z
 _atom_site_occupancy
  Al  Al0  1  0.00000000  0.81927700  0.21898600  1
  Al  Al1  1  0.00000000  0.83867100  0.54868200  1
  Al  Al2  1  0.00000000  0.16132900  0.45131800  1
  Al  Al3  1  0.00000000  0.18072300  0.78101400  1
  Al  Al4  1  0.00000000  0.68072300  0.71898600  1
  Al  Al5  1  0.00000000  0.66132900  0.04868200  1
  Al  Al6  1  0.00000000  0.31927700  0.28101400  1
  Al  Al7  1  0.00000000  0.33867100  0.95131800  1
  Al  Al8  1  0.24396200  0.50509600  0.16878300  1
  Al  Al9  1  0.25141100  0.50000000  0.50000000  1
  Al  Al10  1  0.24396200  0.49490400  0.83121700  1
  Al  Al11  1  0.75603800  0.00509600  0.33121700  1
  Al  Al12  1  0.75603800  0.99490400  0.66878300  1
  Al  Al13  1  0.74858900  0.00000000  0.00000000  1
  Al  Al14  1  0.75603800  0.50509600  0.16878300  1
  Al  Al15  1  0.74858900  0.50000000  0.50000000  1
  Al  Al16  1  0.75603800  0.49490400  0.83121700  1
  Al  Al17  1  0.24396200  0.00509600  0.33121700  1
  Al  Al18  1  0.24396200  0.99490400  0.66878300  1
  Al  Al19  1  0.25141100  0.00000000  0.00000000  1
  Bi  Bi0  1  0.50000000  0.67728300  0.28465100  1
  Bi  Bi1  1  0.50000000  0.67043300  0.61231700  1
  Bi  Bi2  1  0.50000000  0.67275600  0.94269900  1
  Bi  Bi3  1  0.50000000  0.32956700  0.38768300  1
  Bi  Bi4  1  0.50000000  0.32271700  0.71534900  1
  Bi  Bi5  1  0.50000000  0.32724400  0.05730100  1
  Bi  Bi6  1  0.50000000  0.82724400  0.44269900  1
  Bi  Bi7  1  0.50000000  0.82271700  0.78465100  1
  Bi  Bi8  1  0.50000000  0.82956700  0.11231700  1
  Bi  Bi9  1  0.50000000  0.17728300  0.21534900  1
  Bi  Bi10  1  0.50000000  0.17275600  0.55730100  1
  Bi  Bi11  1  0.50000000  0.17043300  0.88768300  1
  O  O0  1  0.50000000  0.93816700  0.27992500  1
  O  O1  1  0.50000000  0.92610000  0.61936100  1
  O  O2  1  0.50000000  0.93332900  0.95110600  1
  O  O3  1  0.50000000  0.07390000  0.38063900  1
  O  O4  1  0.50000000  0.06183300  0.72007500  1
  O  O5  1  0.50000000  0.06667100  0.04889400  1
  O  O6  1  0.50000000  0.56667100  0.45110600  1
  O  O7  1  0.50000000  0.56183300  0.77992500  1
  O  O8  1  0.50000000  0.57390000  0.11936100  1
  O  O9  1  0.50000000  0.43816700  0.22007500  1
  O  O10  1  0.50000000  0.43332900  0.54889400  1
  O  O11  1  0.50000000  0.42610000  0.88063900  1
  O  O12  1  0.00000000  0.92156500  0.28603300  1
  O  O13  1  0.00000000  0.91763100  0.62102100  1
  O  O14  1  0.00000000  0.93059200  0.95802200  1
  O  O15  1  0.00000000  0.08236900  0.37897900  1
  O  O16  1  0.00000000  0.07843500  0.71396700  1
  O  O17  1  0.00000000  0.06940800  0.04197800  1
  O  O18  1  0.00000000  0.56940800  0.45802200  1
  O  O19  1  0.00000000  0.57843500  0.78603300  1
  O  O20  1  0.00000000  0.58236900  0.12102100  1
  O  O21  1  0.00000000  0.42156500  0.21396700  1
  O  O22  1  0.00000000  0.43059200  0.54197800  1
  O  O23  1  0.00000000  0.41763100  0.87897900  1
  O  O24  1  0.24777800  0.29260100  0.45838800  1
  O  O25  1  0.25031900  0.29987900  0.78904500  1
  O  O26  1  0.27890000  0.30417300  0.13220600  1
  O  O27  1  0.25031900  0.70012100  0.21095500  1
  O  O28  1  0.24777800  0.70739900  0.54161200  1
  O  O29  1  0.27890000  0.69582700  0.86779400  1
  O  O30  1  0.74968100  0.20012100  0.28904500  1
  O  O31  1  0.72110000  0.19582700  0.63220600  1
  O  O32  1  0.75222200  0.20739900  0.95838800  1
  O  O33  1  0.72110000  0.80417300  0.36779400  1
  O  O34  1  0.74968100  0.79987900  0.71095500  1
  O  O35  1  0.75222200  0.79260100  0.04161200  1
  O  O36  1  0.00000000  0.98337500  0.17136500  1
  O  O37  1  0.00000000  0.00000000  0.50000000  1
  O  O38  1  0.00000000  0.01662500  0.82863500  1
  O  O39  1  0.00000000  0.48337500  0.32863500  1
  O  O40  1  0.00000000  0.51662500  0.67136500  1
  O  O41  1  0.00000000  0.50000000  0.00000000  1
  O  O42  1  0.25031900  0.20012100  0.28904500  1
  O  O43  1  0.27890000  0.19582700  0.63220600  1
  O  O44  1  0.24777800  0.20739900  0.95838800  1
  O  O45  1  0.27890000  0.80417300  0.36779400  1
  O  O46  1  0.25031900  0.79987900  0.71095500  1
  O  O47  1  0.24777800  0.79260100  0.04161200  1
  O  O48  1  0.75222200  0.29260100  0.45838800  1
  O  O49  1  0.74968100  0.29987900  0.78904500  1
  O  O50  1  0.72110000  0.30417300  0.13220600  1
  O  O51  1  0.74968100  0.70012100  0.21095500  1
  O  O52  1  0.75222200  0.70739900  0.54161200  1
  O  O53  1  0.72110000  0.69582700  0.86779400  1
loop_
_geom_bond_atom_site_label_1
_geom_bond_atom_site_label_2
_geom_bond_distance
_geom_bond_site_symmetry_2
Al0 O12 1.762274 1_555
Al0 O36 1.769099 1_555
Al0 O27 1.778149 1_555
Al0 O51 1.778149 1_455
Al1 O37 1.765808 1_565
Al1 O13 1.784939 1_555
Al1 O28 1.825048 1_555
Al1 O52 1.825048 1_455
Al2 O37 1.765808 1_555
Al2 O15 1.784939 1_555
Al2 O24 1.825048 1_555
Al2 O48 1.825048 1_455
Al3 O16 1.762274 1_555
Al3 O38 1.769099 1_555
Al3 O25 1.778149 1_555
Al3 O49 1.778149 1_455
Al4 O19 1.762274 1_555
Al4 O40 1.769099 1_555
Al4 O46 1.778149 1_555
Al4 O34 1.778149 1_455
Al5 O41 1.765808 1_555
Al5 O20 1.784939 1_555
Al5 O47 1.825048 1_555
Al5 O35 1.825048 1_455
Al6 O21 1.762274 1_555
Al6 O39 1.769099 1_555
Al6 O42 1.778149 1_555
Al6 O30 1.778149 1_455
Al7 O41 1.765808 1_556
Al7 O23 1.784939 1_555
Al7 O44 1.825048 1_555
Al7 O32 1.825048 1_455
Al8 O21 1.889107 1_555
Al8 O20 1.902985 1_555
Al8 O26 1.911794 1_555
Al8 O27 1.917577 1_555
Al8 O8 1.954236 1_555
Al8 O9 1.974622 1_555
Al9 O22 1.841342 1_555
Al9 O18 1.841342 1_555
Al9 O6 1.909155 1_555
Al9 O10 1.909155 1_555
Al9 O28 2.002788 1_555
Al9 O24 2.002788 1_555
Al10 O19 1.889107 1_555
Al10 O23 1.902985 1_555
Al10 O29 1.911794 1_555
Al10 O25 1.917577 1_555
Al10 O11 1.954236 1_555
Al10 O7 1.974622 1_555
Al11 O12 1.889107 1_645
Al11 O15 1.902985 1_655
Al11 O33 1.911794 1_545
Al11 O30 1.917577 1_555
Al11 O3 1.954236 1_555
Al11 O0 1.974622 1_545
Al12 O16 1.889107 1_665
Al12 O13 1.902985 1_655
Al12 O31 1.911794 1_565
Al12 O34 1.917577 1_555
Al12 O1 1.954236 1_555
Al12 O4 1.974622 1_565
Al13 O17 1.841342 1_655
Al13 O14 1.841342 1_644
Al13 O2 1.909155 1_544
Al13 O5 1.909155 1_555
Al13 O35 2.002788 1_545
Al13 O32 2.002788 1_554
Al14 O21 1.889107 1_655
Al14 O20 1.902985 1_655
Al14 O50 1.911794 1_555
Al14 O51 1.917577 1_555
Al14 O8 1.954236 1_555
Al14 O9 1.974622 1_555
Al15 O22 1.841342 1_655
Al15 O18 1.841342 1_655
Al15 O6 1.909155 1_555
Al15 O10 1.909155 1_555
Al15 O52 2.002788 1_555
Al15 O48 2.002788 1_555
Al16 O19 1.889107 1_655
Al16 O23 1.902985 1_655
Al16 O53 1.911794 1_555
Al16 O49 1.917577 1_555
Al16 O11 1.954236 1_555
Al16 O7 1.974622 1_555
Al17 O12 1.889107 1_545
Al17 O15 1.902985 1_555
Al17 O45 1.911794 1_545
Al17 O42 1.917577 1_555
Al17 O3 1.954236 1_555
Al17 O0 1.974622 1_545
Al18 O16 1.889107 1_565
Al18 O13 1.902985 1_555
Al18 O43 1.911794 1_565
Al18 O46 1.917577 1_555
Al18 O1 1.954236 1_555
Al18 O4 1.974622 1_565
Al19 O17 1.841342 1_555
Al19 O14 1.841342 1_544
Al19 O5 1.909155 1_555
Al19 O2 1.909155 1_544
Al19 O47 2.002788 1_545
Al19 O44 2.002788 1_554
Bi0 O0 2.219301 1_555
Bi0 O51 2.229240 1_555
Bi0 O27 2.229240 1_555
Bi0 O9 2.511584 1_555
Bi0 O33 2.533241 1_555
Bi0 O45 2.533241 1_555
Bi1 O1 2.178304 1_555
Bi1 O52 2.201705 1_555
Bi1 O28 2.201705 1_555
Bi1 O10 2.482281 1_555
Bi2 O53 2.147698 1_555
Bi2 O29 2.147698 1_555
Bi2 O2 2.222355 1_555
Bi2 O11 2.530988 1_555
Bi3 O3 2.178304 1_555
Bi3 O48 2.201705 1_555
Bi3 O24 2.201705 1_555
Bi3 O6 2.482281 1_555
Bi4 O4 2.219301 1_555
Bi4 O49 2.229240 1_555
Bi4 O25 2.229240 1_555
Bi4 O7 2.511584 1_555
Bi4 O43 2.533241 1_555
Bi4 O31 2.533241 1_555
Bi5 O26 2.147698 1_555
Bi5 O50 2.147698 1_555
Bi5 O5 2.222355 1_555
Bi5 O8 2.530988 1_555
Bi6 O45 2.147698 1_555
Bi6 O33 2.147698 1_555
Bi6 O6 2.222355 1_555
Bi6 O3 2.530988 1_565
Bi7 O7 2.219301 1_555
Bi7 O34 2.229240 1_555
Bi7 O46 2.229240 1_555
Bi7 O4 2.511584 1_565
Bi7 O29 2.533241 1_555
Bi7 O53 2.533241 1_555
Bi8 O8 2.178304 1_555
Bi8 O35 2.201705 1_555
Bi8 O47 2.201705 1_555
Bi8 O5 2.482281 1_565
Bi9 O9 2.219301 1_555
Bi9 O30 2.229240 1_555
Bi9 O42 2.229240 1_555
Bi9 O0 2.511584 1_545
Bi9 O50 2.533241 1_555
Bi9 O26 2.533241 1_555
Bi10 O43 2.147698 1_555
Bi10 O31 2.147698 1_555
Bi10 O10 2.222355 1_555
Bi10 O1 2.530988 1_545
Bi11 O11 2.178304 1_555
Bi11 O44 2.201705 1_555
Bi11 O32 2.201705 1_555
Bi11 O2 2.482281 1_545
