# generated using pymatgen
data_Mg(VS2)4
_symmetry_space_group_name_H-M   'P 1'
_cell_length_a   6.99424795
_cell_length_b   6.99424795
_cell_length_c   6.99424751
_cell_angle_alpha   58.95425198
_cell_angle_beta   58.95425198
_cell_angle_gamma   58.95425357
_symmetry_Int_Tables_number   1
_chemical_formula_structural   Mg(VS2)4
_chemical_formula_sum   'Mg1 V4 S8'
_cell_volume   236.16742856
_cell_formula_units_Z   1
loop_
 _symmetry_equiv_pos_site_id
 _symmetry_equiv_pos_as_xyz
  1  'x, y, z'
loop_
 _atom_site_type_symbol
 _atom_site_label
 _atom_site_symmetry_multiplicity
 _atom_site_fract_x
 _atom_site_fract_y
 _atom_site_fract_z
 _atom_site_occupancy
  Mg  Mg0  1  0.00000000  0.00000000  0.00000000  1
  V  V0  1  0.50000000  0.50000000  0.50000000  1
  V  V1  1  0.00000000  0.50000000  0.50000000  1
  V  V2  1  0.50000000  0.00000000  0.50000000  1
  V  V3  1  0.50000000  0.50000000  0.00000000  1
  S  S0  1  0.25552800  0.73711800  0.25552800  1
  S  S1  1  0.73711800  0.25552800  0.25552800  1
  S  S2  1  0.25552800  0.25552800  0.73711800  1
  S  S3  1  0.25538200  0.25538200  0.25538200  1
  S  S4  1  0.74461800  0.74461800  0.74461800  1
  S  S5  1  0.26288200  0.74447200  0.74447200  1
  S  S6  1  0.74447200  0.74447200  0.26288200  1
  S  S7  1  0.74447200  0.26288200  0.74447200  1
loop_
_geom_bond_atom_site_label_1
_geom_bond_atom_site_label_2
_geom_bond_distance
_geom_bond_site_symmetry_2
Mg0 S1 2.506946 1_455
Mg0 S0 2.506946 1_545
Mg0 S5 2.506946 1_544
Mg0 S7 2.506946 1_454
Mg0 S2 2.506946 1_554
Mg0 S6 2.506946 1_445
S0 V0 2.400779 1_555
S0 V3 2.418395 1_555
S0 V1 2.418395 1_555
S1 V0 2.400779 1_555
S1 V3 2.418395 1_555
S1 V2 2.418395 1_555
S2 V0 2.400779 1_555
S2 V2 2.418395 1_555
S2 V1 2.418395 1_555
S3 V2 2.400002 1_555
S3 V1 2.400002 1_555
S3 V3 2.400002 1_555
S4 V1 2.400002 1_655
S4 V2 2.400002 1_565
S4 V3 2.400002 1_556
S5 V0 2.400779 1_555
S5 V3 2.418395 1_556
S5 V2 2.418395 1_565
S6 V0 2.400779 1_555
S6 V2 2.418395 1_565
S6 V1 2.418395 1_655
S7 V0 2.400779 1_555
S7 V3 2.418395 1_556
S7 V1 2.418395 1_655
