# generated using pymatgen
data_HoWC2
_symmetry_space_group_name_H-M   'P 1'
_cell_length_a   3.36032912
_cell_length_b   5.69943105
_cell_length_c   10.74968824
_cell_angle_alpha   89.99997887
_cell_angle_beta   90.00000000
_cell_angle_gamma   90.00000000
_symmetry_Int_Tables_number   1
_chemical_formula_structural   HoWC2
_chemical_formula_sum   'Ho4 W4 C8'
_cell_volume   205.87764352
_cell_formula_units_Z   4
loop_
 _symmetry_equiv_pos_site_id
 _symmetry_equiv_pos_as_xyz
  1  'x, y, z'
loop_
 _atom_site_type_symbol
 _atom_site_label
 _atom_site_symmetry_multiplicity
 _atom_site_fract_x
 _atom_site_fract_y
 _atom_site_fract_z
 _atom_site_occupancy
  Ho  Ho0  1  0.25000000  0.58556026  0.36246328  1
  Ho  Ho1  1  0.25000000  0.08556026  0.13753672  1
  Ho  Ho2  1  0.75000000  0.41443974  0.63753672  1
  Ho  Ho3  1  0.75000000  0.91443974  0.86246328  1
  W  W0  1  0.25000000  0.90263261  0.61079443  1
  W  W1  1  0.25000000  0.40263261  0.88920557  1
  W  W2  1  0.75000000  0.09736639  0.38920557  1
  W  W3  1  0.75000000  0.59736739  0.11079443  1
  C  C0  1  0.25000000  0.65923943  0.74698587  1
  C  C1  1  0.25000000  0.15923943  0.75301413  1
  C  C2  1  0.75000000  0.34076057  0.25301413  1
  C  C3  1  0.75000000  0.84076057  0.24698587  1
  C  C4  1  0.25000000  0.22410758  0.48381420  1
  C  C5  1  0.25000000  0.72410758  0.01618580  1
  C  C6  1  0.75000000  0.77589242  0.51618580  1
  C  C7  1  0.75000000  0.27589242  0.98381420  1
loop_
_geom_bond_atom_site_label_1
_geom_bond_atom_site_label_2
_geom_bond_distance
_geom_bond_site_symmetry_2
C0 W0 2.016847 1_555
C0 W1 2.115709 1_555
C0 Ho2 2.480695 1_555
C0 Ho2 2.480695 1_455
C0 Ho3 2.545477 1_455
C0 Ho3 2.545477 1_555
C1 W1 2.016848 1_555
C1 W0 2.115710 1_545
C1 Ho3 2.480694 1_445
C1 Ho3 2.480694 1_545
C1 Ho2 2.545477 1_555
C1 Ho2 2.545477 1_455
C2 W2 2.016851 1_555
C2 W3 2.115709 1_555
C2 Ho0 2.480695 1_655
C2 Ho0 2.480695 1_555
C2 Ho1 2.545477 1_655
C2 Ho1 2.545477 1_555
C3 W3 2.016848 1_555
C3 W2 2.115706 1_565
C3 Ho1 2.480694 1_565
C3 Ho1 2.480694 1_665
C3 Ho0 2.545477 1_655
C3 Ho0 2.545477 1_555
C4 W2 2.092621 1_455
C4 W2 2.092621 1_555
C4 W0 2.284790 1_545
C4 Ho0 2.438357 1_555
C4 Ho2 2.594295 1_555
C4 Ho2 2.594295 1_455
C5 W3 2.092619 1_455
C5 W3 2.092619 1_555
C5 W1 2.284790 1_554
C5 Ho1 2.438358 1_565
C5 Ho3 2.594295 1_554
C5 Ho3 2.594295 1_454
C6 W0 2.092619 1_555
C6 W0 2.092619 1_655
C6 W2 2.284785 1_565
C6 Ho2 2.438357 1_555
C6 Ho0 2.594295 1_655
C6 Ho0 2.594295 1_555
C7 W1 2.092619 1_655
C7 W1 2.092619 1_555
C7 W3 2.284790 1_556
C7 Ho3 2.438358 1_545
C7 Ho1 2.594295 1_656
C7 Ho1 2.594295 1_556
