# generated using pymatgen
data_CsNaMg6O7
_symmetry_space_group_name_H-M   'P 1'
_cell_length_a   9.10187006
_cell_length_b   4.61172767
_cell_length_c   4.61153541
_cell_angle_alpha   90.00767293
_cell_angle_beta   90.00011536
_cell_angle_gamma   89.99981640
_symmetry_Int_Tables_number   1
_chemical_formula_structural   CsNaMg6O7
_chemical_formula_sum   'Cs1 Na1 Mg6 O7'
_cell_volume   193.57079274
_cell_formula_units_Z   1
loop_
 _symmetry_equiv_pos_site_id
 _symmetry_equiv_pos_as_xyz
  1  'x, y, z'
loop_
 _atom_site_type_symbol
 _atom_site_label
 _atom_site_symmetry_multiplicity
 _atom_site_fract_x
 _atom_site_fract_y
 _atom_site_fract_z
 _atom_site_occupancy
  Cs  Cs0  1  0.01355902  0.49999973  0.49999910  1
  Na  Na0  1  0.00488123  0.00000022  0.00000047  1
  Mg  Mg0  1  0.49624371  0.00000196  0.00000370  1
  Mg  Mg1  1  0.49845446  0.50000009  0.50000439  1
  Mg  Mg2  1  0.26498158  0.00000039  0.50001354  1
  Mg  Mg3  1  0.72100939  -0.00000617  0.50000577  1
  Mg  Mg4  1  0.26500405  0.50001148  0.00000026  1
  Mg  Mg5  1  0.72099049  0.49999681  0.00001292  1
  O  O0  1  0.27496067  -0.00000965  -0.00000689  1
  O  O1  1  0.72440791  0.00000081  -0.00000557  1
  O  O2  1  0.71421363  0.50000579  0.49998117  1
  O  O3  1  0.03259382  -0.00000070  0.49999694  1
  O  O4  1  0.49306824  -0.00000067  0.49999773  1
  O  O5  1  0.03256255  0.50000347  0.00000044  1
  O  O6  1  0.49306926  0.49999645  -0.00000397  1
loop_
_geom_bond_atom_site_label_1
_geom_bond_atom_site_label_2
_geom_bond_distance
_geom_bond_site_symmetry_2
Cs0 O5 2.312240 1_555
Cs0 O5 2.312252 1_556
Cs0 O3 2.312362 1_565
Cs0 O3 2.312365 1_555
Cs0 O2 2.724603 1_455
Na0 O3 2.319507 1_555
Na0 O3 2.319540 1_554
Na0 O5 2.319572 1_545
Na0 O5 2.319604 1_555
Na0 O0 2.458228 1_555
Na0 O1 2.552832 1_455
Mg0 O0 2.014089 1_555
Mg0 O1 2.076721 1_555
Mg0 O4 2.305921 1_555
Mg0 O4 2.305976 1_554
Mg0 O6 2.306019 1_555
Mg0 O6 2.306070 1_545
Mg1 O2 1.963812 1_555
Mg1 O6 2.306250 1_556
Mg1 O6 2.306327 1_555
Mg1 O4 2.306381 1_565
Mg1 O4 2.306389 1_555
Mg2 O4 2.076015 1_555
Mg2 O3 2.115163 1_555
Mg2 O0 2.307462 1_556
Mg2 O0 2.307650 1_555
Mg3 O4 2.074691 1_555
Mg3 O1 2.305923 1_556
Mg3 O1 2.306028 1_555
Mg3 O2 2.306638 1_545
Mg3 O2 2.306748 1_555
Mg4 O6 2.075820 1_555
Mg4 O5 2.115652 1_555
Mg4 O0 2.307547 1_565
Mg4 O0 2.307741 1_555
Mg5 O6 2.074509 1_555
Mg5 O1 2.306055 1_555
Mg5 O1 2.306092 1_565
Mg5 O2 2.306446 1_555
Mg5 O2 2.306739 1_554
