# generated using pymatgen
data_YBi(OF)2
_symmetry_space_group_name_H-M   'P 1'
_cell_length_a   3.92847400
_cell_length_b   3.92847400
_cell_length_c   5.61481300
_cell_angle_alpha   90.00000000
_cell_angle_beta   90.00000000
_cell_angle_gamma   90.00000000
_symmetry_Int_Tables_number   1
_chemical_formula_structural   YBi(OF)2
_chemical_formula_sum   'Y1 Bi1 O2 F2'
_cell_volume   86.65289229
_cell_formula_units_Z   1
loop_
 _symmetry_equiv_pos_site_id
 _symmetry_equiv_pos_as_xyz
  1  'x, y, z'
loop_
 _atom_site_type_symbol
 _atom_site_label
 _atom_site_symmetry_multiplicity
 _atom_site_fract_x
 _atom_site_fract_y
 _atom_site_fract_z
 _atom_site_occupancy
  Y  Y0  1  0.00000000  0.00000000  0.00000000  1
  Bi  Bi0  1  0.50000000  0.50000000  0.50000000  1
  O  O0  1  0.00000000  0.50000000  0.74562800  1
  O  O1  1  0.50000000  0.00000000  0.25437200  1
  F  F0  1  0.00000000  0.50000000  0.21961500  1
  F  F1  1  0.50000000  0.00000000  0.78038500  1
loop_
_geom_bond_atom_site_label_1
_geom_bond_atom_site_label_2
_geom_bond_distance
_geom_bond_site_symmetry_2
Bi0 O0 2.400062 1_655
Bi0 O0 2.400062 1_555
Bi0 O1 2.400062 1_555
Bi0 O1 2.400062 1_565
Bi0 F1 2.517276 1_565
Bi0 F1 2.517276 1_555
Bi0 F0 2.517276 1_555
Bi0 F0 2.517276 1_655
O0 Y0 2.428606 1_556
O0 Y0 2.428606 1_566
O1 Y0 2.428606 1_555
O1 Y0 2.428606 1_655
F0 Y0 2.319214 1_555
F0 Y0 2.319214 1_565
F1 Y0 2.319214 1_556
F1 Y0 2.319214 1_656
