# generated using pymatgen
data_ScGaNi
_symmetry_space_group_name_H-M   'P 1'
_cell_length_a   4.08154400
_cell_length_b   5.09032968
_cell_length_c   5.41844372
_cell_angle_alpha   92.26707551
_cell_angle_beta   112.24624618
_cell_angle_gamma   66.24871604
_symmetry_Int_Tables_number   1
_chemical_formula_structural   ScGaNi
_chemical_formula_sum   'Sc2 Ga2 Ni2'
_cell_volume   94.51999617
_cell_formula_units_Z   2
loop_
 _symmetry_equiv_pos_site_id
 _symmetry_equiv_pos_as_xyz
  1  'x, y, z'
loop_
 _atom_site_type_symbol
 _atom_site_label
 _atom_site_symmetry_multiplicity
 _atom_site_fract_x
 _atom_site_fract_y
 _atom_site_fract_z
 _atom_site_occupancy
  Sc  Sc0  1  0.74465210  0.69855844  0.18936735  1
  Sc  Sc1  1  0.25535373  0.30142990  0.81063280  1
  Ga  Ga0  1  0.57212029  0.25317610  0.39736844  1
  Ga  Ga1  1  0.42786854  0.74682982  0.60261473  1
  Ni  Ni0  1  0.03752907  0.11943945  0.19474806  1
  Ni  Ni1  1  0.96247727  0.88056629  0.80526763  1
loop_
_geom_bond_atom_site_label_1
_geom_bond_atom_site_label_2
_geom_bond_distance
_geom_bond_site_symmetry_2
Ga0 Ni0 2.398603 1_555
Ga0 Ni0 2.399065 1_655
Ga0 Ni1 2.500385 1_545
Ga0 Ga1 2.642124 1_555
Ga0 Sc0 2.912772 1_545
Ga0 Sc1 2.921110 1_554
Ga0 Sc1 2.937892 1_655
Ga0 Sc1 2.939207 1_555
Ga0 Sc0 2.994787 1_455
Ga0 Sc0 2.999199 1_555
Ga1 Ni1 2.398681 1_555
Ga1 Ni1 2.399136 1_455
Ga1 Ni0 2.500266 1_565
Ga1 Sc1 2.912736 1_565
Ga1 Sc0 2.921190 1_556
Ga1 Sc0 2.937846 1_455
Ga1 Sc0 2.939159 1_555
Ga1 Sc1 2.994860 1_655
Ga1 Sc1 2.999274 1_555
Ni0 Ni1 2.373517 1_444
Ni0 Sc0 2.694763 1_455
Ni0 Sc0 2.828174 1_545
Ni0 Sc0 2.837508 1_445
Ni0 Sc1 2.849752 1_454
Ni0 Sc1 2.863136 1_554
Ni1 Sc1 2.694854 1_655
Ni1 Sc1 2.828114 1_565
Ni1 Sc1 2.837440 1_665
Ni1 Sc0 2.849715 1_656
Ni1 Sc0 2.863108 1_556
