# generated using pymatgen
data_LiTi(PO3)4
_symmetry_space_group_name_H-M   'P 1'
_cell_length_a   7.28409687
_cell_length_b   7.28409687
_cell_length_c   10.09808783
_cell_angle_alpha   66.40845977
_cell_angle_beta   66.40845977
_cell_angle_gamma   70.15374381
_symmetry_Int_Tables_number   1
_chemical_formula_structural   LiTi(PO3)4
_chemical_formula_sum   'Li2 Ti2 P8 O24'
_cell_volume   439.59022580
_cell_formula_units_Z   2
loop_
 _symmetry_equiv_pos_site_id
 _symmetry_equiv_pos_as_xyz
  1  'x, y, z'
loop_
 _atom_site_type_symbol
 _atom_site_label
 _atom_site_symmetry_multiplicity
 _atom_site_fract_x
 _atom_site_fract_y
 _atom_site_fract_z
 _atom_site_occupancy
  Li  Li0  1  0.00000000  0.50000000  0.50000000  1
  Li  Li1  1  0.50000000  0.00000000  0.00000000  1
  Ti  Ti0  1  0.05458800  0.94541200  0.25000000  1
  Ti  Ti1  1  0.94541200  0.05458800  0.75000000  1
  P  P0  1  0.70897000  0.69117300  0.80072000  1
  P  P1  1  0.25298800  0.72685100  0.97799200  1
  P  P2  1  0.27314900  0.74701200  0.52200800  1
  P  P3  1  0.69117300  0.70897000  0.30072000  1
  P  P4  1  0.30882700  0.29103000  0.69928000  1
  P  P5  1  0.72685100  0.25298800  0.47799200  1
  P  P6  1  0.74701200  0.27314900  0.02200800  1
  P  P7  1  0.29103000  0.30882700  0.19928000  1
  O  O0  1  0.81029600  0.65067600  0.65332600  1
  O  O1  1  0.27295300  0.80861400  0.08723900  1
  O  O2  1  0.46680100  0.69890500  0.84799900  1
  O  O3  1  0.09028800  0.84463300  0.90212400  1
  O  O4  1  0.87880700  0.73048700  0.31923900  1
  O  O5  1  0.21908600  0.49755500  0.06200800  1
  O  O6  1  0.80861400  0.27295300  0.58723900  1
  O  O7  1  0.15536700  0.90971200  0.59787600  1
  O  O8  1  0.50244500  0.78091400  0.43799200  1
  O  O9  1  0.65067600  0.81029600  0.15332600  1
  O  O10  1  0.30109500  0.53319900  0.65200100  1
  O  O11  1  0.26951300  0.12119300  0.18076100  1
  O  O12  1  0.73048700  0.87880700  0.81923900  1
  O  O13  1  0.69890500  0.46680100  0.34799900  1
  O  O14  1  0.34932400  0.18970400  0.84667400  1
  O  O15  1  0.49755500  0.21908600  0.56200800  1
  O  O16  1  0.84463300  0.09028800  0.40212400  1
  O  O17  1  0.19138600  0.72704700  0.41276100  1
  O  O18  1  0.78091400  0.50244500  0.93799200  1
  O  O19  1  0.12119300  0.26951300  0.68076100  1
  O  O20  1  0.90971200  0.15536700  0.09787600  1
  O  O21  1  0.53319900  0.30109500  0.15200100  1
  O  O22  1  0.72704700  0.19138600  0.91276100  1
  O  O23  1  0.18970400  0.34932400  0.34667400  1
loop_
_geom_bond_atom_site_label_1
_geom_bond_atom_site_label_2
_geom_bond_distance
_geom_bond_site_symmetry_2
Li0 O0 2.032037 1_455
Li0 O23 2.032037 1_555
Li0 O19 2.181823 1_555
Li0 O4 2.181823 1_455
Li0 O17 2.207024 1_555
Li0 O6 2.207024 1_455
Li1 O14 2.032037 1_554
Li1 O9 2.032037 1_545
Li1 O11 2.181823 1_555
Li1 O12 2.181823 1_544
Li1 O22 2.207024 1_554
Li1 O1 2.207024 1_545
O0 P0 1.473563 1_555
O1 P1 1.518550 1_554
O1 Ti0 2.089601 1_555
O2 P1 1.597618 1_555
O2 P0 1.619478 1_555
O3 P1 1.495920 1_555
O3 Ti1 2.033123 1_465
O4 P3 1.516910 1_555
O4 Ti0 2.085075 1_655
O5 P1 1.596409 1_554
O5 P7 1.628792 1_555
O6 P5 1.518550 1_555
O6 Ti1 2.089601 1_555
O7 P2 1.495920 1_555
O7 Ti1 2.033123 1_465
O8 P2 1.596409 1_555
O8 P3 1.628792 1_555
O9 P3 1.473563 1_555
O10 P2 1.597618 1_555
O10 P4 1.619478 1_555
O11 P7 1.516910 1_555
O11 Ti0 2.085075 1_545
O12 P0 1.516910 1_555
O12 Ti1 2.085075 1_565
O13 P5 1.597618 1_555
O13 P3 1.619478 1_555
O14 P4 1.473563 1_555
O15 P5 1.596409 1_555
O15 P4 1.628792 1_555
O16 P5 1.495920 1_555
O16 Ti0 2.033123 1_645
O17 P2 1.518550 1_555
O17 Ti0 2.089601 1_555
O18 P6 1.596409 1_556
O18 P0 1.628792 1_555
O19 P4 1.516910 1_555
O19 Ti1 2.085075 1_455
O20 P6 1.495920 1_555
O20 Ti0 2.033123 1_645
O21 P6 1.597618 1_555
O21 P7 1.619478 1_555
O22 P6 1.518550 1_556
O22 Ti1 2.089601 1_555
O23 P7 1.473563 1_555
