# generated using pymatgen
data_NaEuF4
_symmetry_space_group_name_H-M   'P 1'
_cell_length_a   6.23924872
_cell_length_b   7.21567852
_cell_length_c   7.25662981
_cell_angle_alpha   84.16633606
_cell_angle_beta   115.40792282
_cell_angle_gamma   64.56747088
_symmetry_Int_Tables_number   1
_chemical_formula_structural   NaEuF4
_chemical_formula_sum   'Na3 Eu3 F12'
_cell_volume   249.59581378
_cell_formula_units_Z   3
loop_
 _symmetry_equiv_pos_site_id
 _symmetry_equiv_pos_as_xyz
  1  'x, y, z'
loop_
 _atom_site_type_symbol
 _atom_site_label
 _atom_site_symmetry_multiplicity
 _atom_site_fract_x
 _atom_site_fract_y
 _atom_site_fract_z
 _atom_site_occupancy
  Na  Na0  1  0.75307869  0.91391152  0.42062114  1
  Na  Na1  1  0.65756062  0.67889561  0.00263717  1
  Na  Na2  1  0.16693174  0.16625139  0.48895612  1
  Eu  Eu0  1  0.99803017  0.00135560  0.99774423  1
  Eu  Eu1  1  0.49579116  0.50504962  0.49591113  1
  Eu  Eu2  1  0.25436507  0.41182377  0.91942967  1
  F  F0  1  0.09581280  0.62713678  0.12437628  1
  F  F1  1  0.61575150  0.13501599  0.62902545  1
  F  F2  1  0.49585005  0.74222828  0.23989677  1
  F  F3  1  0.00916140  0.23595688  0.73542648  1
  F  F4  1  0.63482734  0.38833271  0.88760795  1
  F  F5  1  0.14187064  0.88381536  0.37499776  1
  F  F6  1  0.75002402  0.65364608  0.70149110  1
  F  F7  1  0.20961921  0.19420680  0.15767844  1
  F  F8  1  0.60528899  0.03862621  0.00732314  1
  F  F9  1  0.14245647  0.50318330  0.54689186  1
  F  F10  1  0.17332878  0.77363615  0.82167939  1
  F  F11  1  0.63425134  0.31292795  0.28230592  1
loop_
_geom_bond_atom_site_label_1
_geom_bond_atom_site_label_2
_geom_bond_distance
_geom_bond_site_symmetry_2
Eu0 F10 2.368726 1_645
Eu0 F7 2.370141 1_656
Eu0 F8 2.380256 1_556
Eu0 F5 2.405227 1_646
Eu0 F1 2.408626 1_555
Eu0 F2 2.427276 1_646
Eu0 F3 2.460341 1_655
Eu0 F0 2.471338 1_646
Eu0 F4 2.475550 1_555
Eu1 F11 2.372352 1_555
Eu1 F6 2.376264 1_555
Eu1 F9 2.391943 1_555
Eu1 F2 2.394814 1_555
Eu1 F1 2.400264 1_555
Eu1 F5 2.404566 1_555
Eu1 F0 2.475499 1_555
Eu1 F3 2.499101 1_655
Eu1 F4 2.512176 1_555
Eu2 F10 2.399315 1_555
Eu2 F7 2.402400 1_556
Eu2 F8 2.416753 1_556
Eu2 F4 2.418620 1_555
Eu2 F9 2.419283 1_555
Eu2 F11 2.422933 1_556
Eu2 F6 2.429043 1_455
Eu2 F3 2.448013 1_555
Eu2 F0 2.452822 1_556
F0 Na1 2.319398 1_455
F1 Na2 2.427852 1_555
F1 Na0 2.448448 1_545
F2 Na1 2.333596 1_555
F2 Na0 2.462126 1_555
F3 Na2 2.385219 1_555
F4 Na1 2.371125 1_556
F5 Na2 2.316666 1_565
F5 Na0 2.508475 1_455
F6 Na1 2.492803 1_556
F6 Na0 2.639570 1_555
F7 Na2 2.527378 1_555
F7 Na0 2.646144 1_545
F8 Na1 2.479020 1_545
F8 Na0 2.649622 1_545
F9 Na2 2.460643 1_555
F9 Na0 2.622738 1_455
F10 Na1 2.441049 1_556
F10 Na0 2.634959 1_455
F11 Na0 2.605248 1_545
F11 Na2 2.606553 1_655
