# generated using pymatgen
data_RbCd(BO2)3
_symmetry_space_group_name_H-M   'P 1'
_cell_length_a   7.47514751
_cell_length_b   7.71123896
_cell_length_c   13.10505860
_cell_angle_alpha   82.55500650
_cell_angle_beta   74.49434065
_cell_angle_gamma   61.00773196
_symmetry_Int_Tables_number   1
_chemical_formula_structural   RbCd(BO2)3
_chemical_formula_sum   'Rb4 Cd4 B12 O24'
_cell_volume   636.69765932
_cell_formula_units_Z   4
loop_
 _symmetry_equiv_pos_site_id
 _symmetry_equiv_pos_as_xyz
  1  'x, y, z'
loop_
 _atom_site_type_symbol
 _atom_site_label
 _atom_site_symmetry_multiplicity
 _atom_site_fract_x
 _atom_site_fract_y
 _atom_site_fract_z
 _atom_site_occupancy
  Rb  Rb0  1  0.31812300  0.98565100  0.87068200  1
  Rb  Rb1  1  0.69622600  0.98565100  0.62931800  1
  Rb  Rb2  1  0.68187700  0.01434900  0.12931800  1
  Rb  Rb3  1  0.30377400  0.01434900  0.37068200  1
  Cd  Cd0  1  0.34676300  0.64305800  0.62287800  1
  Cd  Cd1  1  0.01018000  0.64305800  0.87712200  1
  Cd  Cd2  1  0.65323700  0.35694200  0.37712200  1
  Cd  Cd3  1  0.98982000  0.35694200  0.12287800  1
  B  B0  1  0.02975000  0.47065900  0.65978800  1
  B  B1  1  0.49959200  0.47065900  0.84021200  1
  B  B2  1  0.97025000  0.52934100  0.34021200  1
  B  B3  1  0.50040800  0.52934100  0.15978800  1
  B  B4  1  0.17469800  0.11454300  0.62690600  1
  B  B5  1  0.71075900  0.11454300  0.87309400  1
  B  B6  1  0.82530200  0.88545700  0.37309400  1
  B  B7  1  0.28924100  0.88545700  0.12690600  1
  B  B8  1  0.16774700  0.64395900  0.41116400  1
  B  B9  1  0.18829400  0.64395900  0.08883600  1
  B  B10  1  0.83225300  0.35604100  0.58883600  1
  B  B11  1  0.81170600  0.35604100  0.91116400  1
  O  O0  1  0.33443700  0.93216000  0.62490400  1
  O  O1  1  0.73340300  0.93216000  0.87509600  1
  O  O2  1  0.66556300  0.06784000  0.37509600  1
  O  O3  1  0.26659700  0.06784000  0.12490400  1
  O  O4  1  0.33930000  0.61071800  0.44211900  1
  O  O5  1  0.04998300  0.61071800  0.05788100  1
  O  O6  1  0.66070000  0.38928200  0.55788100  1
  O  O7  1  0.95001700  0.38928200  0.94211900  1
  O  O8  1  0.18255200  0.27227400  0.66607200  1
  O  O9  1  0.54517400  0.27227400  0.83392800  1
  O  O10  1  0.81744800  0.72772600  0.33392800  1
  O  O11  1  0.45482600  0.72772600  0.16607200  1
  O  O12  1  0.85353300  0.50844000  0.62306400  1
  O  O13  1  0.63802700  0.50844000  0.87693600  1
  O  O14  1  0.14646700  0.49156000  0.37693600  1
  O  O15  1  0.36197300  0.49156000  0.12306400  1
  O  O16  1  0.99675100  0.16048300  0.58892500  1
  O  O17  1  0.84276700  0.16048300  0.91107500  1
  O  O18  1  0.00324900  0.83951700  0.41107500  1
  O  O19  1  0.15723300  0.83951700  0.08892500  1
  O  O20  1  0.04782800  0.62199700  0.68820800  1
  O  O21  1  0.33017500  0.62199700  0.81179200  1
  O  O22  1  0.95217200  0.37800300  0.31179200  1
  O  O23  1  0.66982500  0.37800300  0.18820800  1
loop_
_geom_bond_atom_site_label_1
_geom_bond_atom_site_label_2
_geom_bond_distance
_geom_bond_site_symmetry_2
Cd0 O0 2.189530 1_555
Cd0 O6 2.230175 1_555
Cd0 O20 2.246243 1_555
Cd0 O4 2.431877 1_555
Cd0 O21 2.433552 1_555
Cd1 O1 2.189533 1_455
Cd1 O7 2.230183 1_455
Cd1 O21 2.246236 1_555
Cd1 O5 2.431877 1_556
Cd1 O20 2.433553 1_555
Cd2 O2 2.189530 1_555
Cd2 O4 2.230175 1_555
Cd2 O22 2.246243 1_555
Cd2 O6 2.431877 1_555
Cd2 O23 2.433552 1_555
Cd3 O3 2.189533 1_655
Cd3 O5 2.230183 1_655
Cd3 O23 2.246236 1_555
Cd3 O7 2.431877 1_554
Cd3 O22 2.433553 1_555
B0 O20 1.345845 1_555
B0 O8 1.405524 1_555
B0 O12 1.407922 1_455
B1 O21 1.345849 1_555
B1 O9 1.405526 1_555
B1 O13 1.407915 1_555
B2 O22 1.345845 1_555
B2 O10 1.405524 1_555
B2 O14 1.407922 1_655
B3 O23 1.345849 1_555
B3 O11 1.405526 1_555
B3 O15 1.407915 1_555
B4 O0 1.330166 1_545
B4 O8 1.411880 1_555
B4 O16 1.412137 1_455
B5 O1 1.330166 1_545
B5 O9 1.411880 1_555
B5 O17 1.412144 1_555
B6 O2 1.330166 1_565
B6 O10 1.411880 1_555
B6 O18 1.412137 1_655
B7 O3 1.330166 1_565
B7 O11 1.411880 1_555
B7 O19 1.412144 1_555
B8 O4 1.344369 1_555
B8 O14 1.401264 1_555
B8 O18 1.410271 1_555
B9 O5 1.344362 1_555
B9 O15 1.401265 1_555
B9 O19 1.410268 1_555
B10 O6 1.344369 1_555
B10 O12 1.401264 1_555
B10 O16 1.410271 1_555
B11 O7 1.344362 1_555
B11 O13 1.401265 1_555
B11 O17 1.410268 1_555
O0 Rb1 2.942551 1_555
O0 Rb0 3.262662 1_555
O0 Rb3 3.357680 1_565
O1 Rb0 2.942551 1_555
O1 Rb1 3.262662 1_555
O1 Rb2 3.357680 1_566
O2 Rb3 2.942551 1_555
O2 Rb2 3.262662 1_555
O2 Rb1 3.357680 1_545
O3 Rb2 2.942551 1_555
O3 Rb3 3.262662 1_555
O3 Rb0 3.357680 1_544
O4 Rb3 3.034986 1_565
O5 Rb2 3.034989 1_465
O6 Rb1 3.034986 1_545
O7 Rb0 3.034989 1_645
O8 Rb0 3.293612 1_545
O8 Rb1 3.304714 1_545
O9 Rb1 3.293611 1_545
O9 Rb0 3.304714 1_545
O10 Rb2 3.293612 1_565
O10 Rb3 3.304714 1_565
O11 Rb3 3.293611 1_565
O11 Rb2 3.304714 1_565
O12 Rb1 3.280698 1_555
O13 Rb0 3.280698 1_555
O14 Rb3 3.280698 1_555
O15 Rb2 3.280698 1_555
O16 Rb1 3.042950 1_545
O16 Rb3 3.088006 1_655
O17 Rb0 3.042943 1_645
O17 Rb2 3.088008 1_556
O18 Rb3 3.042950 1_565
O18 Rb1 3.088006 1_455
O19 Rb2 3.042943 1_465
O19 Rb0 3.088008 1_554
O20 Rb1 2.957391 1_455
O21 Rb0 2.957391 1_555
O22 Rb3 2.957391 1_655
O23 Rb2 2.957391 1_555
