# generated using pymatgen
data_Mg16TiAl12
_symmetry_space_group_name_H-M   'P 1'
_cell_length_a   8.98949525
_cell_length_b   8.98949525
_cell_length_c   8.98949525
_cell_angle_alpha   109.47122063
_cell_angle_beta   109.47122063
_cell_angle_gamma   109.47122063
_symmetry_Int_Tables_number   1
_chemical_formula_structural   Mg16TiAl12
_chemical_formula_sum   'Mg16 Ti1 Al12'
_cell_volume   559.22171938
_cell_formula_units_Z   1
loop_
 _symmetry_equiv_pos_site_id
 _symmetry_equiv_pos_as_xyz
  1  'x, y, z'
loop_
 _atom_site_type_symbol
 _atom_site_label
 _atom_site_symmetry_multiplicity
 _atom_site_fract_x
 _atom_site_fract_y
 _atom_site_fract_z
 _atom_site_occupancy
  Mg  Mg0  1  0.34104626  0.34104626  0.34104626  1
  Mg  Mg1  1  0.65895374  -0.00000000  0.00000000  1
  Mg  Mg2  1  0.71438845  0.31669913  0.31669913  1
  Mg  Mg3  1  0.28561155  0.60231068  0.60231068  1
  Mg  Mg4  1  -0.00000000  0.68330087  0.39768932  1
  Mg  Mg5  1  0.60231068  0.60231068  0.28561155  1
  Mg  Mg6  1  0.39768932  -0.00000000  0.68330087  1
  Mg  Mg7  1  0.00000000  0.00000000  0.65895374  1
  Mg  Mg8  1  0.68330087  0.39768932  -0.00000000  1
  Mg  Mg9  1  0.31669913  0.71438845  0.31669913  1
  Mg  Mg10  1  0.31669913  0.31669913  0.71438845  1
  Mg  Mg11  1  0.68330087  0.00000000  0.39768932  1
  Mg  Mg12  1  0.00000000  0.65895374  -0.00000000  1
  Mg  Mg13  1  0.60231068  0.28561155  0.60231068  1
  Mg  Mg14  1  0.39768932  0.68330087  -0.00000000  1
  Mg  Mg15  1  -0.00000000  0.39768932  0.68330087  1
  Ti  Ti0  1  -0.00000000  -0.00000000  -0.00000000  1
  Al  Al0  1  0.17866696  0.81558362  0.81558362  1
  Al  Al1  1  0.82133304  0.63691666  0.63691666  1
  Al  Al2  1  -0.00000000  0.36308334  0.18441638  1
  Al  Al3  1  0.36308334  0.18441638  -0.00000000  1
  Al  Al4  1  0.63691666  0.82133304  0.63691666  1
  Al  Al5  1  0.81558362  0.17866696  0.81558362  1
  Al  Al6  1  0.18441638  0.36308334  0.00000000  1
  Al  Al7  1  0.18441638  0.00000000  0.36308334  1
  Al  Al8  1  0.81558362  0.81558362  0.17866696  1
  Al  Al9  1  0.63691666  0.63691666  0.82133304  1
  Al  Al10  1  0.36308334  0.00000000  0.18441638  1
  Al  Al11  1  -0.00000000  0.18441638  0.36308334  1
loop_
_geom_bond_atom_site_label_1
_geom_bond_atom_site_label_2
_geom_bond_distance
_geom_bond_site_symmetry_2
Mg0 Mg5 3.027151 1_555
Mg0 Mg13 3.027151 1_555
Mg0 Mg3 3.027151 1_555
Mg0 Ti0 3.065834 1_555
Mg1 Mg6 3.027151 1_554
Mg1 Mg2 3.027151 1_555
Mg1 Mg14 3.027151 1_545
Mg1 Ti0 3.065834 1_655
Mg2 Mg4 3.081590 1_655
Mg2 Mg8 3.114556 1_555
Mg2 Mg5 3.114556 1_555
Mg3 Mg4 3.081590 1_555
Mg3 Mg6 3.114556 1_565
Mg3 Mg9 3.114556 1_555
Mg4 Mg7 3.027151 1_565
Mg4 Mg9 3.114556 1_555
Mg4 Mg8 3.114556 1_455
Mg4 Mg5 3.114556 1_455
Mg4 Mg6 3.114556 1_565
Mg5 Mg8 3.081590 1_555
Mg5 Mg9 3.114556 1_555
Mg6 Mg9 3.081590 1_545
Mg6 Mg8 3.114556 1_556
Mg7 Ti0 3.065834 1_556
Mg10 Mg7 3.027151 1_555
Mg10 Mg14 3.081590 1_556
Mg10 Mg8 3.081590 1_556
Mg10 Mg6 3.114556 1_555
Mg10 Mg15 3.114556 1_555
Mg10 Mg3 3.114556 1_555
Mg10 Mg13 3.114556 1_555
Mg11 Mg7 3.027151 1_655
Mg11 Mg9 3.081590 1_545
Mg11 Mg13 3.081590 1_555
Mg11 Mg15 3.114556 1_655
Mg11 Mg14 3.114556 1_545
Mg11 Mg5 3.114556 1_545
Mg11 Mg2 3.114556 1_555
Mg12 Mg8 3.027151 1_455
Mg12 Mg15 3.027151 1_554
Mg12 Mg9 3.027151 1_555
Mg12 Ti0 3.065834 1_565
Mg13 Mg6 3.081590 1_555
Mg13 Mg15 3.114556 1_655
Mg13 Mg8 3.114556 1_556
Mg13 Mg2 3.114556 1_555
Mg14 Mg5 3.081590 1_555
Mg14 Mg9 3.114556 1_555
Mg14 Mg15 3.114556 1_554
Mg14 Mg3 3.114556 1_554
Mg15 Mg2 3.081590 1_455
Mg15 Mg3 3.081590 1_555
Al0 Al1 2.622792 1_455
Al0 Al3 2.707193 1_566
Al0 Al10 2.707193 1_566
Al0 Mg3 2.877979 1_555
Al0 Mg14 2.956028 1_556
Al0 Mg6 2.956028 1_565
Al0 Mg7 3.022271 1_565
Al0 Mg12 3.022271 1_556
Al0 Ti0 3.129583 1_566
Al0 Mg15 3.135652 1_555
Al0 Mg4 3.135652 1_555
Al1 Al9 2.707193 1_555
Al1 Al4 2.707193 1_555
Al1 Mg2 2.877979 1_555
Al1 Mg5 2.956028 1_555
Al1 Mg13 2.956028 1_555
Al1 Mg7 3.022271 1_665
Al1 Mg12 3.022271 1_656
Al1 Ti0 3.129583 1_666
Al1 Mg4 3.135652 1_655
Al1 Mg15 3.135652 1_655
Al2 Al5 2.707193 1_454
Al2 Al6 2.707193 1_555
Al2 Mg4 2.877979 1_555
Al2 Mg8 2.956028 1_455
Al2 Mg9 2.956028 1_555
Al2 Mg0 3.022271 1_555
Al2 Mg1 3.022271 1_455
Al2 Ti0 3.129583 1_555
Al2 Mg2 3.135652 1_455
Al2 Mg3 3.135652 1_555
Al3 Al6 2.622792 1_555
Al3 Mg8 2.877979 1_555
Al3 Mg6 2.956028 1_554
Al3 Mg2 2.956028 1_555
Al3 Mg7 3.022271 1_554
Al3 Mg0 3.022271 1_555
Al3 Ti0 3.129583 1_555
Al3 Mg10 3.135652 1_554
Al3 Mg5 3.135652 1_555
Al4 Al5 2.622792 1_565
Al4 Al9 2.707193 1_555
Al4 Mg9 2.877979 1_555
Al4 Mg3 2.956028 1_555
Al4 Mg5 2.956028 1_555
Al4 Mg1 3.022271 1_566
Al4 Mg7 3.022271 1_665
Al4 Ti0 3.129583 1_666
Al4 Mg11 3.135652 1_565
Al4 Mg6 3.135652 1_565
Al5 Al6 2.707193 1_656
Al5 Mg13 2.877979 1_555
Al5 Mg15 2.956028 1_655
Al5 Mg8 2.956028 1_556
Al5 Mg7 3.022271 1_655
Al5 Mg1 3.022271 1_556
Al5 Ti0 3.129583 1_656
Al5 Mg6 3.135652 1_555
Al5 Mg11 3.135652 1_555
Al6 Mg14 2.877979 1_555
Al6 Mg15 2.956028 1_554
Al6 Mg9 2.956028 1_555
Al6 Mg7 3.022271 1_554
Al6 Mg0 3.022271 1_555
Al6 Ti0 3.129583 1_555
Al6 Mg10 3.135652 1_554
Al6 Mg5 3.135652 1_555
Al7 Al8 2.707193 1_445
Al7 Mg6 2.877979 1_555
Al7 Mg4 2.956028 1_545
Al7 Mg10 2.956028 1_555
Al7 Mg12 3.022271 1_545
Al7 Mg0 3.022271 1_555
Al7 Ti0 3.129583 1_555
Al7 Mg9 3.135652 1_545
Al7 Mg13 3.135652 1_555
Al8 Al9 2.622792 1_554
Al8 Mg5 2.877979 1_555
Al8 Mg11 2.956028 1_565
Al8 Mg4 2.956028 1_655
Al8 Mg1 3.022271 1_565
Al8 Mg12 3.022271 1_655
Al8 Ti0 3.129583 1_665
Al8 Mg14 3.135652 1_555
Al8 Mg8 3.135652 1_555
Al9 Mg10 2.877979 1_555
Al9 Mg3 2.956028 1_555
Al9 Mg13 2.956028 1_555
Al9 Mg1 3.022271 1_566
Al9 Mg12 3.022271 1_656
Al9 Ti0 3.129583 1_666
Al9 Mg14 3.135652 1_556
Al9 Mg8 3.135652 1_556
Al10 Al7 2.622792 1_555
Al10 Al3 2.707193 1_555
Al10 Mg11 2.877979 1_555
Al10 Mg14 2.956028 1_545
Al10 Mg2 2.956028 1_555
Al10 Mg12 3.022271 1_545
Al10 Mg0 3.022271 1_555
Al10 Ti0 3.129583 1_555
Al10 Mg9 3.135652 1_545
Al10 Mg13 3.135652 1_555
Al11 Al2 2.622792 1_555
Al11 Al8 2.707193 1_445
Al11 Al7 2.707193 1_555
Al11 Mg15 2.877979 1_555
Al11 Mg11 2.956028 1_455
Al11 Mg10 2.956028 1_555
Al11 Mg1 3.022271 1_455
Al11 Mg0 3.022271 1_555
Al11 Ti0 3.129583 1_555
Al11 Mg2 3.135652 1_455
Al11 Mg3 3.135652 1_555
