# generated using pymatgen
data_BaNaLaFeO6
_symmetry_space_group_name_H-M   'P 1'
_cell_length_a   5.95497398
_cell_length_b   5.95497398
_cell_length_c   5.95497398
_cell_angle_alpha   60.00000000
_cell_angle_beta   60.00000000
_cell_angle_gamma   60.00000000
_symmetry_Int_Tables_number   1
_chemical_formula_structural   BaNaLaFeO6
_chemical_formula_sum   'Ba1 Na1 La1 Fe1 O6'
_cell_volume   149.32227768
_cell_formula_units_Z   1
loop_
 _symmetry_equiv_pos_site_id
 _symmetry_equiv_pos_as_xyz
  1  'x, y, z'
loop_
 _atom_site_type_symbol
 _atom_site_label
 _atom_site_symmetry_multiplicity
 _atom_site_fract_x
 _atom_site_fract_y
 _atom_site_fract_z
 _atom_site_occupancy
  Ba  Ba0  1  0.25000000  0.25000000  0.25000000  1
  Na  Na0  1  0.75000000  0.75000000  0.75000000  1
  La  La0  1  0.50000000  0.50000000  0.50000000  1
  Fe  Fe0  1  0.00000000  0.00000000  0.00000000  1
  O  O0  1  0.77691898  0.22308102  0.22308102  1
  O  O1  1  0.22308102  0.77691898  0.77691898  1
  O  O2  1  0.77691898  0.22308102  0.77691898  1
  O  O3  1  0.22308102  0.77691898  0.22308102  1
  O  O4  1  0.77691898  0.77691898  0.22308102  1
  O  O5  1  0.22308102  0.22308102  0.77691898  1
loop_
_geom_bond_atom_site_label_1
_geom_bond_atom_site_label_2
_geom_bond_distance
_geom_bond_site_symmetry_2
Ba0 O2 2.986105 1_455
Ba0 O1 2.986105 1_554
Ba0 O3 2.986105 1_545
Ba0 O5 2.986105 1_554
Ba0 O2 2.986105 1_554
Ba0 O5 2.986105 1_555
Ba0 O4 2.986105 1_545
Ba0 O1 2.986105 1_545
Ba0 O0 2.986105 1_455
Ba0 O3 2.986105 1_555
Ba0 O0 2.986105 1_555
Ba0 O4 2.986105 1_455
Na0 O2 2.986105 1_555
Na0 O2 2.986105 1_565
Na0 O4 2.986105 1_555
Na0 O1 2.986105 1_555
Na0 O4 2.986105 1_556
Na0 O0 2.986105 1_565
Na0 O3 2.986105 1_655
Na0 O5 2.986105 1_565
Na0 O1 2.986105 1_655
Na0 O5 2.986105 1_655
Na0 O3 2.986105 1_556
Na0 O0 2.986105 1_556
La0 O4 2.332102 1_555
La0 O0 2.332102 1_555
La0 O1 2.332102 1_555
La0 O5 2.332102 1_555
La0 O3 2.332102 1_555
La0 O2 2.332102 1_555
Fe0 O4 1.878700 1_445
Fe0 O2 1.878700 1_454
Fe0 O1 1.878700 1_544
Fe0 O0 1.878700 1_455
Fe0 O3 1.878700 1_545
Fe0 O5 1.878700 1_554
