# generated using pymatgen
data_MoW2(SeS2)2
_symmetry_space_group_name_H-M   'P 1'
_cell_length_a   3.23112669
_cell_length_b   3.23112669
_cell_length_c   29.67212300
_cell_angle_alpha   90.00000000
_cell_angle_beta   90.00000000
_cell_angle_gamma   120.00001421
_symmetry_Int_Tables_number   1
_chemical_formula_structural   MoW2(SeS2)2
_chemical_formula_sum   'Mo1 W2 Se2 S4'
_cell_volume   268.27930004
_cell_formula_units_Z   1
loop_
 _symmetry_equiv_pos_site_id
 _symmetry_equiv_pos_as_xyz
  1  'x, y, z'
loop_
 _atom_site_type_symbol
 _atom_site_label
 _atom_site_symmetry_multiplicity
 _atom_site_fract_x
 _atom_site_fract_y
 _atom_site_fract_z
 _atom_site_occupancy
  Mo  Mo0  1  0.00000000  0.00000000  0.88438300  1
  W  W0  1  0.00000000  0.00000000  0.42166600  1
  W  W1  1  0.33333300  0.66666700  0.65300200  1
  Se  Se0  1  0.33333300  0.66666700  0.94187000  1
  Se  Se1  1  0.33333300  0.66666700  0.82691600  1
  S  S0  1  0.00000000  0.00000000  0.60053600  1
  S  S1  1  0.33333300  0.66666700  0.47413500  1
  S  S2  1  0.33333300  0.66666700  0.36919000  1
  S  S3  1  0.00000000  0.00000000  0.70546100  1
loop_
_geom_bond_atom_site_label_1
_geom_bond_atom_site_label_2
_geom_bond_distance
_geom_bond_site_symmetry_2
Mo0 Se1 2.527380 1_545
Mo0 Se1 2.527382 1_445
Mo0 Se1 2.527382 1_555
Mo0 Se0 2.527781 1_545
Mo0 Se0 2.527782 1_445
Mo0 Se0 2.527782 1_555
S0 W1 2.429735 1_545
S0 W1 2.429736 1_555
S0 W1 2.429736 1_445
S1 W0 2.429792 1_565
S1 W0 2.429793 1_665
S1 W0 2.429793 1_555
S2 W0 2.429925 1_565
S2 W0 2.429927 1_665
S2 W0 2.429927 1_555
S3 W1 2.429601 1_545
S3 W1 2.429603 1_445
S3 W1 2.429603 1_555
