# generated using pymatgen
data_Li2Ti3ZnO8
_symmetry_space_group_name_H-M   'P 1'
_cell_length_a   5.96416259
_cell_length_b   5.96416259
_cell_length_c   5.96416211
_cell_angle_alpha   60.21615854
_cell_angle_beta   60.21615854
_cell_angle_gamma   60.21615529
_symmetry_Int_Tables_number   1
_chemical_formula_structural   Li2Ti3ZnO8
_chemical_formula_sum   'Li2 Ti3 Zn1 O8'
_cell_volume   150.74873986
_cell_formula_units_Z   1
loop_
 _symmetry_equiv_pos_site_id
 _symmetry_equiv_pos_as_xyz
  1  'x, y, z'
loop_
 _atom_site_type_symbol
 _atom_site_label
 _atom_site_symmetry_multiplicity
 _atom_site_fract_x
 _atom_site_fract_y
 _atom_site_fract_z
 _atom_site_occupancy
  Li  Li0  1  0.62562500  0.62562500  0.62562500  1
  Li  Li1  1  0.24580400  0.24580400  0.24580400  1
  Ti  Ti0  1  0.62329600  0.13199800  0.62329600  1
  Ti  Ti1  1  0.13199800  0.62329600  0.62329600  1
  Ti  Ti2  1  0.62329600  0.62329600  0.13199800  1
  Zn  Zn0  1  0.00768200  0.00768200  0.00768200  1
  O  O0  1  0.86701600  0.86701600  0.86701600  1
  O  O1  1  0.87168900  0.41254500  0.87168900  1
  O  O2  1  0.41254500  0.87168900  0.87168900  1
  O  O3  1  0.87168900  0.87168900  0.41254500  1
  O  O4  1  0.38457600  0.38457600  0.38457600  1
  O  O5  1  0.37607200  0.83264100  0.37607200  1
  O  O6  1  0.83264100  0.37607200  0.37607200  1
  O  O7  1  0.37607200  0.37607200  0.83264100  1
loop_
_geom_bond_atom_site_label_1
_geom_bond_atom_site_label_2
_geom_bond_distance
_geom_bond_site_symmetry_2
Li0 O1 2.087225 1_555
Li0 O2 2.087225 1_555
Li0 O3 2.087225 1_555
Li0 O5 2.122365 1_555
Li0 O6 2.122365 1_555
Li0 O7 2.122365 1_555
Li1 O7 2.018693 1_554
Li1 O5 2.018693 1_545
Li1 O6 2.018693 1_455
Li1 O4 2.024023 1_555
O0 Zn0 2.051648 1_666
O0 Ti1 2.063525 1_655
O0 Ti0 2.063525 1_565
O0 Ti2 2.063525 1_556
O1 Zn0 1.976997 1_656
O1 Ti2 1.997191 1_556
O1 Ti1 1.997191 1_655
O2 Zn0 1.976997 1_566
O2 Ti2 1.997191 1_556
O2 Ti0 1.997191 1_565
O3 Zn0 1.976997 1_665
O3 Ti0 1.997191 1_565
O3 Ti1 1.997191 1_655
O4 Ti1 2.018872 1_555
O4 Ti0 2.018872 1_555
O4 Ti2 2.018872 1_555
O5 Ti2 1.922606 1_555
O5 Ti1 1.922606 1_555
O6 Ti2 1.922606 1_555
O6 Ti0 1.922606 1_555
O7 Ti0 1.922606 1_555
O7 Ti1 1.922606 1_555
