# generated using pymatgen
data_GdAu3C6(N2O)3
_symmetry_space_group_name_H-M   'P 1'
_cell_length_a   6.92435806
_cell_length_b   6.92435806
_cell_length_c   17.66434400
_cell_angle_alpha   90.00000000
_cell_angle_beta   90.00000000
_cell_angle_gamma   120.00000056
_symmetry_Int_Tables_number   1
_chemical_formula_structural   GdAu3C6(N2O)3
_chemical_formula_sum   'Gd2 Au6 C12 N12 O6'
_cell_volume   733.47814372
_cell_formula_units_Z   2
loop_
 _symmetry_equiv_pos_site_id
 _symmetry_equiv_pos_as_xyz
  1  'x, y, z'
loop_
 _atom_site_type_symbol
 _atom_site_label
 _atom_site_symmetry_multiplicity
 _atom_site_fract_x
 _atom_site_fract_y
 _atom_site_fract_z
 _atom_site_occupancy
  Gd  Gd0  1  0.00000000  0.00000000  0.25000000  1
  Gd  Gd1  1  0.00000000  0.00000000  0.75000000  1
  Au  Au0  1  0.50000000  0.50000000  0.50000000  1
  Au  Au1  1  0.50000000  0.00000000  0.50000000  1
  Au  Au2  1  0.00000000  0.50000000  0.50000000  1
  Au  Au3  1  0.50000000  0.50000000  0.00000000  1
  Au  Au4  1  0.50000000  0.00000000  0.00000000  1
  Au  Au5  1  0.00000000  0.50000000  0.00000000  1
  C  C0  1  0.34980900  0.34980900  0.40356900  1
  C  C1  1  0.65019100  0.00000000  0.40356900  1
  C  C2  1  0.00000000  0.65019100  0.40356900  1
  C  C3  1  0.65019100  0.65019100  0.59643100  1
  C  C4  1  0.34980900  0.00000000  0.59643100  1
  C  C5  1  0.00000000  0.34980900  0.59643100  1
  C  C6  1  0.65019100  0.65019100  0.90356900  1
  C  C7  1  0.34980900  0.00000000  0.90356900  1
  C  C8  1  0.00000000  0.34980900  0.90356900  1
  C  C9  1  0.34980900  0.34980900  0.09643100  1
  C  C10  1  0.65019100  0.00000000  0.09643100  1
  C  C11  1  0.00000000  0.65019100  0.09643100  1
  N  N0  1  0.25410700  0.25410700  0.34899900  1
  N  N1  1  0.74589300  0.00000000  0.34899900  1
  N  N2  1  0.00000000  0.74589300  0.34899900  1
  N  N3  1  0.74589300  0.74589300  0.65100100  1
  N  N4  1  0.25410700  0.00000000  0.65100100  1
  N  N5  1  0.00000000  0.25410700  0.65100100  1
  N  N6  1  0.74589300  0.74589300  0.84899900  1
  N  N7  1  0.25410700  0.00000000  0.84899900  1
  N  N8  1  0.00000000  0.25410700  0.84899900  1
  N  N9  1  0.25410700  0.25410700  0.15100100  1
  N  N10  1  0.74589300  0.00000000  0.15100100  1
  N  N11  1  0.00000000  0.74589300  0.15100100  1
  O  O0  1  0.64989600  0.64989600  0.25000000  1
  O  O1  1  0.35010400  0.00000000  0.25000000  1
  O  O2  1  0.00000000  0.35010400  0.25000000  1
  O  O3  1  0.35010400  0.35010400  0.75000000  1
  O  O4  1  0.64989600  0.00000000  0.75000000  1
  O  O5  1  0.00000000  0.64989600  0.75000000  1
loop_
_geom_bond_atom_site_label_1
_geom_bond_atom_site_label_2
_geom_bond_distance
_geom_bond_site_symmetry_2
Gd0 O0 2.424245 1_445
Gd0 O1 2.424245 1_555
Gd0 O2 2.424245 1_555
Gd0 N9 2.480740 1_555
Gd0 N0 2.480740 1_555
Gd0 N1 2.480740 1_455
Gd0 N11 2.480740 1_545
Gd0 N10 2.480740 1_455
Gd0 N2 2.480740 1_545
Gd1 O3 2.424245 1_555
Gd1 O4 2.424245 1_455
Gd1 O5 2.424245 1_545
Gd1 N6 2.480740 1_445
Gd1 N3 2.480740 1_445
Gd1 N8 2.480740 1_555
Gd1 N7 2.480740 1_555
Gd1 N4 2.480740 1_555
Gd1 N5 2.480740 1_555
Au0 C3 1.995768 1_555
Au0 C0 1.995768 1_555
Au1 C4 1.995768 1_555
Au1 C1 1.995768 1_555
Au2 C5 1.995768 1_555
Au2 C2 1.995768 1_555
Au3 C9 1.995768 1_555
Au3 C6 1.995768 1_554
Au4 C10 1.995768 1_555
Au4 C7 1.995768 1_554
Au5 C11 1.995768 1_555
Au5 C8 1.995768 1_554
C0 N0 1.169754 1_555
C1 N1 1.169754 1_555
C2 N2 1.169754 1_555
C3 N3 1.169754 1_555
C4 N4 1.169754 1_555
C5 N5 1.169754 1_555
C6 N6 1.169754 1_555
C7 N7 1.169754 1_555
C8 N8 1.169754 1_555
C9 N9 1.169754 1_555
C10 N10 1.169754 1_555
C11 N11 1.169754 1_555
