# generated using pymatgen
data_BaNd2In2O7
_symmetry_space_group_name_H-M   'P 1'
_cell_length_a   5.97934000
_cell_length_b   5.97934000
_cell_length_c   20.78517900
_cell_angle_alpha   90.00000000
_cell_angle_beta   90.00000000
_cell_angle_gamma   90.00000000
_symmetry_Int_Tables_number   1
_chemical_formula_structural   BaNd2In2O7
_chemical_formula_sum   'Ba4 Nd8 In8 O28'
_cell_volume   743.12225428
_cell_formula_units_Z   4
loop_
 _symmetry_equiv_pos_site_id
 _symmetry_equiv_pos_as_xyz
  1  'x, y, z'
loop_
 _atom_site_type_symbol
 _atom_site_label
 _atom_site_symmetry_multiplicity
 _atom_site_fract_x
 _atom_site_fract_y
 _atom_site_fract_z
 _atom_site_occupancy
  Ba  Ba0  1  0.23757900  0.76242100  0.50000000  1
  Ba  Ba1  1  0.76242100  0.23757900  0.50000000  1
  Ba  Ba2  1  0.26242100  0.26242100  0.00000000  1
  Ba  Ba3  1  0.73757900  0.73757900  0.00000000  1
  Nd  Nd0  1  0.22005100  0.77994900  0.31377000  1
  Nd  Nd1  1  0.77994900  0.22005100  0.31377000  1
  Nd  Nd2  1  0.27994900  0.27994900  0.81377000  1
  Nd  Nd3  1  0.72005100  0.72005100  0.81377000  1
  Nd  Nd4  1  0.77994900  0.22005100  0.68623000  1
  Nd  Nd5  1  0.22005100  0.77994900  0.68623000  1
  Nd  Nd6  1  0.72005100  0.72005100  0.18623000  1
  Nd  Nd7  1  0.27994900  0.27994900  0.18623000  1
  In  In0  1  0.24052900  0.75947100  0.10364300  1
  In  In1  1  0.75947100  0.24052900  0.10364300  1
  In  In2  1  0.25947100  0.25947100  0.60364300  1
  In  In3  1  0.74052900  0.74052900  0.60364300  1
  In  In4  1  0.75947100  0.24052900  0.89635700  1
  In  In5  1  0.24052900  0.75947100  0.89635700  1
  In  In6  1  0.74052900  0.74052900  0.39635700  1
  In  In7  1  0.25947100  0.25947100  0.39635700  1
  O  O0  1  0.29504400  0.29504400  0.50000000  1
  O  O1  1  0.70495600  0.70495600  0.50000000  1
  O  O2  1  0.20495600  0.79504400  0.00000000  1
  O  O3  1  0.79504400  0.20495600  0.00000000  1
  O  O4  1  0.32240600  0.67759400  0.21228700  1
  O  O5  1  0.67759400  0.32240600  0.21228700  1
  O  O6  1  0.17759400  0.17759400  0.71228700  1
  O  O7  1  0.82240600  0.82240600  0.71228700  1
  O  O8  1  0.67759400  0.32240600  0.78771300  1
  O  O9  1  0.32240600  0.67759400  0.78771300  1
  O  O10  1  0.82240600  0.82240600  0.28771300  1
  O  O11  1  0.17759400  0.17759400  0.28771300  1
  O  O12  1  0.00000000  0.50000000  0.38044600  1
  O  O13  1  0.50000000  0.00000000  0.88044600  1
  O  O14  1  0.00000000  0.50000000  0.61955400  1
  O  O15  1  0.50000000  0.00000000  0.11955400  1
  O  O16  1  0.50000000  0.00000000  0.38044600  1
  O  O17  1  0.00000000  0.50000000  0.88044600  1
  O  O18  1  0.50000000  0.00000000  0.61955400  1
  O  O19  1  0.00000000  0.50000000  0.11955400  1
  O  O20  1  0.50000000  0.50000000  0.36275100  1
  O  O21  1  0.00000000  0.00000000  0.86275100  1
  O  O22  1  0.50000000  0.50000000  0.63724900  1
  O  O23  1  0.00000000  0.00000000  0.13724900  1
  O  O24  1  0.50000000  0.50000000  0.09168900  1
  O  O25  1  0.00000000  0.00000000  0.59168900  1
  O  O26  1  0.50000000  0.50000000  0.90831100  1
  O  O27  1  0.00000000  0.00000000  0.40831100  1
loop_
_geom_bond_atom_site_label_1
_geom_bond_atom_site_label_2
_geom_bond_distance
_geom_bond_site_symmetry_2
Ba0 O25 2.769112 1_565
Ba0 O27 2.769112 1_565
Ba0 O1 2.815650 1_555
Ba0 O0 2.815650 1_555
Ba0 O0 3.203216 1_565
Ba0 O1 3.203216 1_455
Ba0 O14 3.264212 1_555
Ba0 O18 3.264212 1_565
Ba0 O12 3.264212 1_555
Ba0 O16 3.264212 1_565
Ba1 O27 2.769112 1_655
Ba1 O25 2.769112 1_655
Ba1 O1 2.815650 1_555
Ba1 O0 2.815650 1_555
Ba1 O0 3.203216 1_655
Ba1 O1 3.203216 1_545
Ba1 O18 3.264212 1_555
Ba1 O14 3.264212 1_655
Ba1 O16 3.264212 1_555
Ba1 O12 3.264212 1_655
Ba2 O24 2.769112 1_555
Ba2 O26 2.769112 1_554
Ba2 O3 2.815650 1_455
Ba2 O2 2.815650 1_545
Ba2 O2 3.203216 1_555
Ba2 O3 3.203216 1_555
Ba2 O15 3.264212 1_555
Ba2 O19 3.264212 1_555
Ba2 O13 3.264212 1_554
Ba2 O17 3.264212 1_554
Ba3 O24 2.769112 1_555
Ba3 O26 2.769112 1_554
Ba3 O3 2.815650 1_565
Ba3 O2 2.815650 1_655
Ba3 O2 3.203216 1_555
Ba3 O3 3.203216 1_555
Ba3 O15 3.264212 1_565
Ba3 O19 3.264212 1_655
Ba3 O13 3.264212 1_564
Ba3 O17 3.264212 1_654
Nd0 O4 2.280011 1_555
Nd0 O10 2.451738 1_455
Nd0 O11 2.451738 1_565
Nd0 O16 2.540441 1_565
Nd0 O12 2.540441 1_555
Nd0 O20 2.576904 1_555
Nd0 O27 2.706266 1_565
Nd1 O5 2.280011 1_555
Nd1 O10 2.451738 1_545
Nd1 O11 2.451738 1_655
Nd1 O16 2.540441 1_555
Nd1 O12 2.540441 1_655
Nd1 O20 2.576904 1_555
Nd1 O27 2.706266 1_655
Nd2 O6 2.280011 1_555
Nd2 O8 2.451738 1_555
Nd2 O9 2.451738 1_555
Nd2 O13 2.540441 1_555
Nd2 O17 2.540441 1_555
Nd2 O21 2.576904 1_555
Nd2 O26 2.706266 1_555
Nd3 O7 2.280011 1_555
Nd3 O8 2.451738 1_555
Nd3 O9 2.451738 1_555
Nd3 O13 2.540441 1_565
Nd3 O17 2.540441 1_655
Nd3 O21 2.576904 1_665
Nd3 O26 2.706266 1_555
Nd4 O8 2.280011 1_555
Nd4 O7 2.451738 1_545
Nd4 O6 2.451738 1_655
Nd4 O14 2.540441 1_655
Nd4 O18 2.540441 1_555
Nd4 O22 2.576904 1_555
Nd4 O25 2.706266 1_655
Nd5 O9 2.280011 1_555
Nd5 O7 2.451738 1_455
Nd5 O6 2.451738 1_565
Nd5 O18 2.540441 1_565
Nd5 O14 2.540441 1_555
Nd5 O22 2.576904 1_555
Nd5 O25 2.706266 1_565
Nd6 O10 2.280011 1_555
Nd6 O4 2.451738 1_555
Nd6 O5 2.451738 1_555
Nd6 O15 2.540441 1_565
Nd6 O19 2.540441 1_655
Nd6 O23 2.576904 1_665
Nd6 O24 2.706266 1_555
Nd7 O11 2.280011 1_555
Nd7 O5 2.451738 1_555
Nd7 O4 2.451738 1_555
Nd7 O19 2.540441 1_555
Nd7 O15 2.540441 1_555
Nd7 O23 2.576904 1_555
Nd7 O24 2.706266 1_555
In0 O19 2.141226 1_555
In0 O15 2.141226 1_565
In0 O23 2.150529 1_565
In0 O2 2.175139 1_555
In0 O24 2.208127 1_555
In0 O4 2.361939 1_555
In1 O19 2.141226 1_655
In1 O15 2.141226 1_555
In1 O23 2.150529 1_655
In1 O3 2.175139 1_555
In1 O24 2.208127 1_555
In1 O5 2.361939 1_555
In2 O14 2.141226 1_555
In2 O18 2.141226 1_555
In2 O22 2.150529 1_555
In2 O0 2.175139 1_555
In2 O25 2.208127 1_555
In2 O6 2.361939 1_555
In3 O14 2.141226 1_655
In3 O18 2.141226 1_565
In3 O22 2.150529 1_555
In3 O1 2.175139 1_555
In3 O25 2.208127 1_665
In3 O7 2.361939 1_555
In4 O17 2.141226 1_655
In4 O13 2.141226 1_555
In4 O21 2.150529 1_655
In4 O3 2.175139 1_556
In4 O26 2.208127 1_555
In4 O8 2.361939 1_555
In5 O17 2.141226 1_555
In5 O13 2.141226 1_565
In5 O21 2.150529 1_565
In5 O2 2.175139 1_556
In5 O26 2.208127 1_555
In5 O9 2.361939 1_555
In6 O12 2.141226 1_655
In6 O16 2.141226 1_565
In6 O20 2.150529 1_555
In6 O1 2.175139 1_555
In6 O27 2.208127 1_665
In6 O10 2.361939 1_555
In7 O12 2.141226 1_555
In7 O16 2.141226 1_555
In7 O20 2.150529 1_555
In7 O0 2.175139 1_555
In7 O27 2.208127 1_555
In7 O11 2.361939 1_555
