# generated using pymatgen
data_NaB6S4(I3O4)2
_symmetry_space_group_name_H-M   'P 1'
_cell_length_a   11.79657519
_cell_length_b   20.44207904
_cell_length_c   20.74378771
_cell_angle_alpha   90.00000000
_cell_angle_beta   90.00000000
_cell_angle_gamma   90.00000000
_symmetry_Int_Tables_number   1
_chemical_formula_structural   NaB6S4(I3O4)2
_chemical_formula_sum   'Na8 B48 S32 I48 O64'
_cell_volume   5002.29226840
_cell_formula_units_Z   8
loop_
 _symmetry_equiv_pos_site_id
 _symmetry_equiv_pos_as_xyz
  1  'x, y, z'
loop_
 _atom_site_type_symbol
 _atom_site_label
 _atom_site_symmetry_multiplicity
 _atom_site_fract_x
 _atom_site_fract_y
 _atom_site_fract_z
 _atom_site_occupancy
  Na  Na0  1  0.68955555  0.02132812  0.10893475  1
  Na  Na1  1  0.81044445  0.52132812  0.39106525  1
  Na  Na2  1  0.31044445  0.97867188  0.60893475  1
  Na  Na3  1  0.18955555  0.47867188  0.89106525  1
  Na  Na4  1  0.31044445  0.97867188  0.89106525  1
  Na  Na5  1  0.18955555  0.47867188  0.60893475  1
  Na  Na6  1  0.68955555  0.02132812  0.39106525  1
  Na  Na7  1  0.81044445  0.52132812  0.10893475  1
  B  B0  1  0.10688157  0.71330867  0.17962671  1
  B  B1  1  0.39311843  0.21330867  0.32037329  1
  B  B2  1  0.89311843  0.28669133  0.67962671  1
  B  B3  1  0.60688157  0.78669133  0.82037329  1
  B  B4  1  0.89311843  0.28669133  0.82037329  1
  B  B5  1  0.60688157  0.78669133  0.67962671  1
  B  B6  1  0.10688157  0.71330867  0.32037329  1
  B  B7  1  0.39311843  0.21330867  0.17962671  1
  B  B8  1  0.09696133  0.66229612  0.25000000  1
  B  B9  1  0.40303867  0.16229612  0.25000000  1
  B  B10  1  0.90303867  0.33770388  0.75000000  1
  B  B11  1  0.59696133  0.83770388  0.75000000  1
  B  B12  1  0.22820096  0.66803424  0.20665187  1
  B  B13  1  0.27179904  0.16803424  0.29334813  1
  B  B14  1  0.77179904  0.33196576  0.70665187  1
  B  B15  1  0.72820096  0.83196576  0.79334813  1
  B  B16  1  0.77179904  0.33196576  0.79334813  1
  B  B17  1  0.72820096  0.83196576  0.70665187  1
  B  B18  1  0.22820096  0.66803424  0.29334813  1
  B  B19  1  0.27179904  0.16803424  0.20665187  1
  B  B20  1  0.24420834  0.75102591  0.18003949  1
  B  B21  1  0.25579166  0.25102591  0.31996051  1
  B  B22  1  0.75579166  0.24897409  0.68003949  1
  B  B23  1  0.74420834  0.74897409  0.81996051  1
  B  B24  1  0.75579166  0.24897409  0.81996051  1
  B  B25  1  0.74420834  0.74897409  0.68003949  1
  B  B26  1  0.24420834  0.75102591  0.31996051  1
  B  B27  1  0.25579166  0.25102591  0.18003949  1
  B  B28  1  0.12232715  0.79608635  0.20667967  1
  B  B29  1  0.37767285  0.29608635  0.29332033  1
  B  B30  1  0.87767285  0.20391365  0.70667967  1
  B  B31  1  0.62232715  0.70391365  0.79332033  1
  B  B32  1  0.87767285  0.20391365  0.79332033  1
  B  B33  1  0.62232715  0.70391365  0.70667967  1
  B  B34  1  0.12232715  0.79608635  0.29332033  1
  B  B35  1  0.37767285  0.29608635  0.20667967  1
  B  B36  1  0.03152059  0.74128807  0.25000000  1
  B  B37  1  0.46847941  0.24128807  0.25000000  1
  B  B38  1  0.96847941  0.25871193  0.75000000  1
  B  B39  1  0.53152059  0.75871193  0.75000000  1
  B  B40  1  0.31923359  0.72291155  0.25000000  1
  B  B41  1  0.18076641  0.22291155  0.25000000  1
  B  B42  1  0.68076641  0.27708845  0.75000000  1
  B  B43  1  0.81923359  0.77708845  0.75000000  1
  B  B44  1  0.25367657  0.80204929  0.25000000  1
  B  B45  1  0.24632343  0.30204929  0.25000000  1
  B  B46  1  0.74632343  0.19795071  0.75000000  1
  B  B47  1  0.75367657  0.69795071  0.75000000  1
  S  S0  1  0.88247356  0.15830759  0.06045381  1
  S  S1  1  0.61752644  0.65830759  0.43954619  1
  S  S2  1  0.11752644  0.84169241  0.56045381  1
  S  S3  1  0.38247356  0.34169241  0.93954619  1
  S  S4  1  0.11752644  0.84169241  0.93954619  1
  S  S5  1  0.38247356  0.34169241  0.56045381  1
  S  S6  1  0.88247356  0.15830759  0.43954619  1
  S  S7  1  0.61752644  0.65830759  0.06045381  1
  S  S8  1  0.70931991  0.35741410  0.04727989  1
  S  S9  1  0.79068009  0.85741410  0.45272011  1
  S  S10  1  0.29068009  0.64258590  0.54727989  1
  S  S11  1  0.20931991  0.14258590  0.95272011  1
  S  S12  1  0.29068009  0.64258590  0.95272011  1
  S  S13  1  0.20931991  0.14258590  0.54727989  1
  S  S14  1  0.70931991  0.35741410  0.45272011  1
  S  S15  1  0.79068009  0.85741410  0.04727989  1
  S  S16  1  0.37646785  0.95587496  0.07534159  1
  S  S17  1  0.12353215  0.45587496  0.42465841  1
  S  S18  1  0.62353215  0.04412504  0.57534159  1
  S  S19  1  0.87646785  0.54412504  0.92465841  1
  S  S20  1  0.62353215  0.04412504  0.92465841  1
  S  S21  1  0.87646785  0.54412504  0.57534159  1
  S  S22  1  0.37646785  0.95587496  0.42465841  1
  S  S23  1  0.12353215  0.45587496  0.07534159  1
  S  S24  1  0.92175175  0.03061460  0.25000000  1
  S  S25  1  0.57824825  0.53061460  0.25000000  1
  S  S26  1  0.07824825  0.96938540  0.75000000  1
  S  S27  1  0.42175175  0.46938540  0.75000000  1
  S  S28  1  0.84895091  0.39012648  0.25000000  1
  S  S29  1  0.65104909  0.89012648  0.25000000  1
  S  S30  1  0.15104909  0.60987352  0.75000000  1
  S  S31  1  0.34895091  0.10987352  0.75000000  1
  I  I0  1  0.02174774  0.68893824  0.08975083  1
  I  I1  1  0.47825226  0.18893824  0.41024917  1
  I  I2  1  0.97825226  0.31106176  0.58975083  1
  I  I3  1  0.52174774  0.81106176  0.91024917  1
  I  I4  1  0.97825226  0.31106176  0.91024917  1
  I  I5  1  0.52174774  0.81106176  0.58975083  1
  I  I6  1  0.02174774  0.68893824  0.41024917  1
  I  I7  1  0.47825226  0.18893824  0.08975083  1
  I  I8  1  0.99427641  0.57379241  0.25000000  1
  I  I9  1  0.50572359  0.07379241  0.25000000  1
  I  I10  1  0.00572359  0.42620759  0.75000000  1
  I  I11  1  0.49427641  0.92620759  0.75000000  1
  I  I12  1  0.29772093  0.58661253  0.15142307  1
  I  I13  1  0.20227907  0.08661253  0.34857693  1
  I  I14  1  0.70227907  0.41338747  0.65142307  1
  I  I15  1  0.79772093  0.91338747  0.84857693  1
  I  I16  1  0.70227907  0.41338747  0.84857693  1
  I  I17  1  0.79772093  0.91338747  0.65142307  1
  I  I18  1  0.29772093  0.58661253  0.34857693  1
  I  I19  1  0.20227907  0.08661253  0.15142307  1
  I  I20  1  0.33377074  0.77538339  0.09104360  1
  I  I21  1  0.16622926  0.27538339  0.40895640  1
  I  I22  1  0.66622926  0.22461661  0.59104360  1
  I  I23  1  0.83377074  0.72461661  0.90895640  1
  I  I24  1  0.66622926  0.22461661  0.90895640  1
  I  I25  1  0.83377074  0.72461661  0.59104360  1
  I  I26  1  0.33377074  0.77538339  0.40895640  1
  I  I27  1  0.16622926  0.27538339  0.09104360  1
  I  I28  1  0.05563960  0.87814982  0.15153782  1
  I  I29  1  0.44436040  0.37814982  0.34846218  1
  I  I30  1  0.94436040  0.12185018  0.65153782  1
  I  I31  1  0.55563960  0.62185018  0.84846218  1
  I  I32  1  0.94436040  0.12185018  0.84846218  1
  I  I33  1  0.55563960  0.62185018  0.65153782  1
  I  I34  1  0.05563960  0.87814982  0.34846218  1
  I  I35  1  0.44436040  0.37814982  0.15153782  1
  I  I36  1  0.84769592  0.75133746  0.25000000  1
  I  I37  1  0.65230408  0.25133746  0.25000000  1
  I  I38  1  0.15230408  0.24866254  0.75000000  1
  I  I39  1  0.34769592  0.74866254  0.75000000  1
  I  I40  1  0.50327202  0.71076347  0.25000000  1
  I  I41  1  0.99672798  0.21076347  0.25000000  1
  I  I42  1  0.49672798  0.28923653  0.75000000  1
  I  I43  1  0.00327202  0.78923653  0.75000000  1
  I  I44  1  0.34864317  0.89352993  0.25000000  1
  I  I45  1  0.15135683  0.39352993  0.25000000  1
  I  I46  1  0.65135683  0.10647007  0.75000000  1
  I  I47  1  0.84864317  0.60647007  0.75000000  1
  O  O0  1  0.95839236  0.11197159  0.03014674  1
  O  O1  1  0.54160764  0.61197159  0.46985326  1
  O  O2  1  0.04160764  0.88802841  0.53014674  1
  O  O3  1  0.45839236  0.38802841  0.96985326  1
  O  O4  1  0.04160764  0.88802841  0.96985326  1
  O  O5  1  0.45839236  0.38802841  0.53014674  1
  O  O6  1  0.95839236  0.11197159  0.46985326  1
  O  O7  1  0.54160764  0.61197159  0.03014674  1
  O  O8  1  0.78314719  0.13179790  0.09323305  1
  O  O9  1  0.71685281  0.63179790  0.40676695  1
  O  O10  1  0.21685281  0.86820210  0.59323305  1
  O  O11  1  0.28314719  0.36820210  0.90676695  1
  O  O12  1  0.21685281  0.86820210  0.90676695  1
  O  O13  1  0.28314719  0.36820210  0.59323305  1
  O  O14  1  0.78314719  0.13179790  0.40676695  1
  O  O15  1  0.71685281  0.63179790  0.09323305  1
  O  O16  1  0.79481784  0.31638424  0.07710757  1
  O  O17  1  0.70518216  0.81638424  0.42289243  1
  O  O18  1  0.20518216  0.68361576  0.57710757  1
  O  O19  1  0.29481784  0.18361576  0.92289243  1
  O  O20  1  0.20518216  0.68361576  0.92289243  1
  O  O21  1  0.29481784  0.18361576  0.57710757  1
  O  O22  1  0.79481784  0.31638424  0.42289243  1
  O  O23  1  0.70518216  0.81638424  0.07710757  1
  O  O24  1  0.72294556  0.42792856  0.05366883  1
  O  O25  1  0.77705444  0.92792856  0.44633117  1
  O  O26  1  0.27705444  0.57207144  0.55366883  1
  O  O27  1  0.22294556  0.07207144  0.94633117  1
  O  O28  1  0.27705444  0.57207144  0.94633117  1
  O  O29  1  0.22294556  0.07207144  0.55366883  1
  O  O30  1  0.72294556  0.42792856  0.44633117  1
  O  O31  1  0.77705444  0.92792856  0.05366883  1
  O  O32  1  0.49466096  0.97353353  0.08540583  1
  O  O33  1  0.00533904  0.47353353  0.41459417  1
  O  O34  1  0.50533904  0.02646647  0.58540583  1
  O  O35  1  0.99466096  0.52646647  0.91459417  1
  O  O36  1  0.50533904  0.02646647  0.91459417  1
  O  O37  1  0.99466096  0.52646647  0.58540583  1
  O  O38  1  0.49466096  0.97353353  0.41459417  1
  O  O39  1  0.00533904  0.47353353  0.08540583  1
  O  O40  1  0.33809130  0.95269095  0.00873664  1
  O  O41  1  0.16190870  0.45269095  0.49126336  1
  O  O42  1  0.66190870  0.04730905  0.50873664  1
  O  O43  1  0.83809130  0.54730905  0.99126336  1
  O  O44  1  0.66190870  0.04730905  0.99126336  1
  O  O45  1  0.83809130  0.54730905  0.50873664  1
  O  O46  1  0.33809130  0.95269095  0.49126336  1
  O  O47  1  0.16190870  0.45269095  0.00873664  1
  O  O48  1  0.85693848  0.03091066  0.19030118  1
  O  O49  1  0.64306152  0.53091066  0.30969882  1
  O  O50  1  0.14306152  0.96908934  0.69030118  1
  O  O51  1  0.35693848  0.46908934  0.80969882  1
  O  O52  1  0.14306152  0.96908934  0.80969882  1
  O  O53  1  0.35693848  0.46908934  0.69030118  1
  O  O54  1  0.85693848  0.03091066  0.30969882  1
  O  O55  1  0.64306152  0.53091066  0.19030118  1
  O  O56  1  0.83266379  0.42663801  0.19042300  1
  O  O57  1  0.66733621  0.92663801  0.30957700  1
  O  O58  1  0.16733621  0.57336199  0.69042300  1
  O  O59  1  0.33266379  0.07336199  0.80957700  1
  O  O60  1  0.16733621  0.57336199  0.80957700  1
  O  O61  1  0.33266379  0.07336199  0.69042300  1
  O  O62  1  0.83266379  0.42663801  0.30957700  1
  O  O63  1  0.66733621  0.92663801  0.19042300  1
loop_
_geom_bond_atom_site_label_1
_geom_bond_atom_site_label_2
_geom_bond_distance
_geom_bond_site_symmetry_2
Na0 O31 2.454599 1_545
Na0 O44 2.519261 1_554
Na0 O8 2.534689 1_555
Na0 O32 2.545309 1_545
Na0 O63 2.583188 1_545
Na0 O48 2.605001 1_555
Na1 O30 2.454599 1_555
Na1 O45 2.519261 1_555
Na1 O9 2.534689 1_555
Na1 O33 2.545309 1_655
Na1 O62 2.583188 1_555
Na1 O49 2.605001 1_555
Na2 O29 2.454599 1_565
Na2 O46 2.519261 1_555
Na2 O10 2.534689 1_555
Na2 O34 2.545309 1_565
Na2 O61 2.583188 1_565
Na2 O50 2.605001 1_555
Na3 O28 2.454599 1_555
Na3 O47 2.519261 1_556
Na3 O11 2.534689 1_555
Na3 O35 2.545309 1_455
Na3 O60 2.583188 1_555
Na3 O51 2.605001 1_555
Na4 O27 2.454599 1_565
Na4 O40 2.519261 1_556
Na4 O12 2.534689 1_555
Na4 O36 2.545309 1_565
Na4 O59 2.583188 1_565
Na4 O52 2.605001 1_555
Na5 O26 2.454599 1_555
Na5 O41 2.519261 1_555
Na5 O13 2.534689 1_555
Na5 O37 2.545309 1_455
Na5 O58 2.583188 1_555
Na5 O53 2.605001 1_555
Na6 O25 2.454599 1_545
Na6 O42 2.519261 1_555
Na6 O14 2.534689 1_555
Na6 O38 2.545309 1_545
Na6 O57 2.583188 1_545
Na6 O54 2.605001 1_555
Na7 O24 2.454599 1_555
Na7 O43 2.519261 1_554
Na7 O15 2.534689 1_555
Na7 O39 2.545309 1_655
Na7 O56 2.583188 1_555
Na7 O55 2.605001 1_555
B0 B28 1.792062 1_555
B0 B20 1.794128 1_555
B0 B12 1.794167 1_555
B0 B8 1.797825 1_555
B0 B36 1.802359 1_555
B0 I0 2.175463 1_555
B1 B29 1.792062 1_555
B1 B21 1.794128 1_555
B1 B13 1.794167 1_555
B1 B9 1.797825 1_555
B1 B37 1.802359 1_555
B1 I1 2.175463 1_555
B2 B30 1.792062 1_555
B2 B22 1.794128 1_555
B2 B38 1.802359 1_555
B2 I2 2.175463 1_555
B3 B31 1.792062 1_555
B3 B39 1.802359 1_555
B3 I3 2.175463 1_555
B4 I4 2.175463 1_555
B5 I5 2.175463 1_555
B6 B8 1.797825 1_555
B6 I6 2.175463 1_555
B7 B9 1.797825 1_555
B7 I7 2.175463 1_555
B8 I8 2.177275 1_455
B9 I9 2.177275 1_555
B10 B38 1.789804 1_555
B10 B14 1.794208 1_555
B10 B16 1.794208 1_555
B10 B2 1.797825 1_555
B10 B4 1.797825 1_555
B10 I10 2.177275 1_655
B11 B39 1.789804 1_555
B11 B17 1.794208 1_555
B11 B15 1.794208 1_555
B11 B5 1.797825 1_555
B11 B3 1.797825 1_555
B11 I11 2.177275 1_555
B12 B20 1.794044 1_555
B12 B8 1.794208 1_555
B12 B40 1.794498 1_555
B12 B18 1.798409 1_555
B12 I12 2.180690 1_555
B13 B21 1.794044 1_555
B13 B9 1.794208 1_555
B13 B41 1.794498 1_555
B13 B19 1.798409 1_555
B13 I13 2.180690 1_555
B14 B22 1.794044 1_555
B14 B2 1.794167 1_555
B14 B42 1.794498 1_555
B14 B16 1.798409 1_555
B14 I14 2.180690 1_555
B15 B23 1.794044 1_555
B15 B3 1.794167 1_555
B15 B43 1.794498 1_555
B15 B17 1.798409 1_555
B15 I15 2.180690 1_555
B16 B24 1.794044 1_555
B16 B4 1.794167 1_555
B16 B42 1.794498 1_555
B16 I16 2.180690 1_555
B17 B25 1.794044 1_555
B17 B5 1.794167 1_555
B17 B43 1.794498 1_555
B17 I17 2.180690 1_555
B18 B26 1.794044 1_555
B18 B6 1.794167 1_555
B18 B8 1.794208 1_555
B18 B40 1.794498 1_555
B18 I18 2.180690 1_555
B19 B27 1.794044 1_555
B19 B7 1.794167 1_555
B19 B9 1.794208 1_555
B19 B41 1.794498 1_555
B19 I19 2.180690 1_555
B20 B44 1.790667 1_555
B20 B40 1.794355 1_555
B20 B28 1.794736 1_555
B20 I20 2.184561 1_555
B21 B45 1.790667 1_555
B21 B41 1.794355 1_555
B21 B29 1.794736 1_555
B21 I21 2.184561 1_555
B22 B46 1.790667 1_555
B22 B42 1.794355 1_555
B22 B30 1.794736 1_555
B22 I22 2.184561 1_555
B23 B47 1.790667 1_555
B23 B3 1.794128 1_555
B23 B43 1.794355 1_555
B23 B31 1.794736 1_555
B23 I23 2.184561 1_555
B24 B46 1.790667 1_555
B24 B4 1.794128 1_555
B24 B42 1.794355 1_555
B24 B32 1.794736 1_555
B24 I24 2.184561 1_555
B25 B47 1.790667 1_555
B25 B5 1.794128 1_555
B25 B43 1.794355 1_555
B25 B33 1.794736 1_555
B25 I25 2.184561 1_555
B26 B44 1.790667 1_555
B26 B6 1.794128 1_555
B26 B40 1.794355 1_555
B26 B34 1.794736 1_555
B26 I26 2.184561 1_555
B27 B45 1.790667 1_555
B27 B7 1.794128 1_555
B27 B41 1.794355 1_555
B27 B35 1.794736 1_555
B27 I27 2.184561 1_555
B28 B36 1.791603 1_555
B28 B44 1.795343 1_555
B28 B34 1.797255 1_555
B28 I28 2.177484 1_555
B29 B37 1.791603 1_555
B29 B45 1.795343 1_555
B29 B35 1.797255 1_555
B29 I29 2.177484 1_555
B30 B38 1.791603 1_555
B30 B46 1.795343 1_555
B30 B32 1.797255 1_555
B30 I30 2.177484 1_555
B31 B39 1.791603 1_555
B31 B47 1.795343 1_555
B31 B33 1.797255 1_555
B31 I31 2.177484 1_555
B32 B38 1.791603 1_555
B32 B4 1.792062 1_555
B32 B46 1.795343 1_555
B32 I32 2.177484 1_555
B33 B39 1.791603 1_555
B33 B5 1.792062 1_555
B33 B47 1.795343 1_555
B33 I33 2.177484 1_555
B34 B36 1.791603 1_555
B34 B6 1.792062 1_555
B34 B44 1.795343 1_555
B34 I34 2.177484 1_555
B35 B37 1.791603 1_555
B35 B7 1.792062 1_555
B35 B45 1.795343 1_555
B35 I35 2.177484 1_555
B36 B8 1.789804 1_555
B36 B6 1.802359 1_555
B36 I36 2.178210 1_455
B37 B9 1.789804 1_555
B37 B7 1.802359 1_555
B37 I37 2.178210 1_555
B38 B4 1.802359 1_555
B38 I38 2.178210 1_655
B39 B5 1.802359 1_555
B39 I39 2.178210 1_555
B40 B44 1.793084 1_555
B40 I40 2.185180 1_555
B41 B45 1.793084 1_555
B41 I41 2.185180 1_455
B42 B46 1.793084 1_555
B42 I42 2.185180 1_555
B43 B47 1.793084 1_555
B43 I43 2.185180 1_655
B44 I44 2.179939 1_555
B45 I45 2.179939 1_555
B46 I46 2.179939 1_555
B47 I47 2.179939 1_555
O0 S0 1.447241 1_555
O1 S1 1.447241 1_555
O2 S2 1.447241 1_555
O3 S3 1.447241 1_555
O4 S4 1.447241 1_555
O5 S5 1.447241 1_555
O6 S6 1.447241 1_555
O7 S7 1.447241 1_555
O8 S0 1.459085 1_555
O9 S1 1.459085 1_555
O10 S2 1.459085 1_555
O11 S3 1.459085 1_555
O12 S4 1.459085 1_555
O13 S5 1.459085 1_555
O14 S6 1.459085 1_555
O15 S7 1.459085 1_555
O16 S8 1.450364 1_555
O17 S9 1.450364 1_555
O18 S10 1.450364 1_555
O19 S11 1.450364 1_555
O20 S12 1.450364 1_555
O21 S13 1.450364 1_555
O22 S14 1.450364 1_555
O23 S15 1.450364 1_555
O24 S8 1.456439 1_555
O25 S9 1.456439 1_555
O26 S10 1.456439 1_555
O27 S11 1.456439 1_555
O28 S12 1.456439 1_555
O29 S13 1.456439 1_555
O30 S14 1.456439 1_555
O31 S15 1.456439 1_555
O32 S16 1.455297 1_555
O33 S17 1.455297 1_555
O34 S18 1.455297 1_555
O35 S19 1.455297 1_555
O36 S20 1.455297 1_555
O37 S21 1.455297 1_555
O38 S22 1.455297 1_555
O39 S23 1.455297 1_555
O40 S16 1.455373 1_555
O41 S17 1.455373 1_555
O42 S18 1.455373 1_555
O43 S19 1.455373 1_555
O44 S20 1.455373 1_555
O45 S21 1.455373 1_555
O46 S22 1.455373 1_555
O47 S23 1.455373 1_555
O48 S24 1.455402 1_555
O49 S25 1.455402 1_555
O50 S26 1.455402 1_555
O51 S27 1.455402 1_555
O52 S26 1.455402 1_555
O53 S27 1.455402 1_555
O54 S24 1.455402 1_555
O55 S25 1.455402 1_555
O56 S28 1.456474 1_555
O57 S29 1.456474 1_555
O58 S30 1.456474 1_555
O59 S31 1.456474 1_555
O60 S30 1.456474 1_555
O61 S31 1.456474 1_555
O62 S28 1.456474 1_555
O63 S29 1.456474 1_555
