# generated using pymatgen
data_BaLaMg14
_symmetry_space_group_name_H-M   'P 1'
_cell_length_a   6.84153894
_cell_length_b   6.84153831
_cell_length_c   10.48355176
_cell_angle_alpha   90.00000000
_cell_angle_beta   90.00000000
_cell_angle_gamma   120.00000307
_symmetry_Int_Tables_number   1
_chemical_formula_structural   BaLaMg14
_chemical_formula_sum   'Ba1 La1 Mg14'
_cell_volume   424.95860537
_cell_formula_units_Z   1
loop_
 _symmetry_equiv_pos_site_id
 _symmetry_equiv_pos_as_xyz
  1  'x, y, z'
loop_
 _atom_site_type_symbol
 _atom_site_label
 _atom_site_symmetry_multiplicity
 _atom_site_fract_x
 _atom_site_fract_y
 _atom_site_fract_z
 _atom_site_occupancy
  Ba  Ba0  1  0.16666700  0.33333300  0.62500000  1
  La  La0  1  0.16666700  0.33333300  0.12500000  1
  Mg  Mg0  1  0.17218234  0.83609067  0.12500000  1
  Mg  Mg1  1  0.17525619  0.83762759  0.62500000  1
  Mg  Mg2  1  0.66390933  0.32781766  0.12500000  1
  Mg  Mg3  1  0.66237241  0.32474381  0.62500000  1
  Mg  Mg4  1  0.66390933  0.83609067  0.12500000  1
  Mg  Mg5  1  0.66237241  0.83762759  0.62500000  1
  Mg  Mg6  1  0.34336246  0.15663754  0.37008564  1
  Mg  Mg7  1  0.34336246  0.15663754  0.87991436  1
  Mg  Mg8  1  0.34336246  0.68672592  0.37008564  1
  Mg  Mg9  1  0.34336246  0.68672592  0.87991436  1
  Mg  Mg10  1  0.81327408  0.15663754  0.37008564  1
  Mg  Mg11  1  0.81327408  0.15663754  0.87991436  1
  Mg  Mg12  1  0.83333300  0.66666700  0.37449859  1
  Mg  Mg13  1  0.83333300  0.66666700  0.87550141  1
loop_
_geom_bond_atom_site_label_1
_geom_bond_atom_site_label_2
_geom_bond_distance
_geom_bond_site_symmetry_2
Ba0 Mg7 3.394975 1_555
Ba0 Mg6 3.394975 1_555
Ba0 Mg8 3.394982 1_555
Ba0 Mg9 3.394982 1_555
Ba0 Mg10 3.394982 1_455
Ba0 Mg11 3.394982 1_455
Ba0 Mg1 3.421148 1_555
Ba0 Mg5 3.421148 1_555
Ba0 Mg5 3.421148 1_445
Ba0 Mg1 3.421148 1_545
Ba0 Mg3 3.421148 1_455
Ba0 Mg3 3.421148 1_555
La0 Mg7 3.314475 1_554
La0 Mg6 3.314475 1_555
La0 Mg8 3.314482 1_555
La0 Mg9 3.314482 1_554
La0 Mg10 3.314482 1_455
La0 Mg11 3.314482 1_454
La0 Mg0 3.420925 1_555
La0 Mg4 3.420925 1_555
La0 Mg4 3.420925 1_445
La0 Mg0 3.420925 1_545
La0 Mg2 3.420926 1_455
La0 Mg2 3.420926 1_555
Mg0 Mg9 3.195970 1_554
Mg0 Mg8 3.195970 1_555
Mg0 Mg6 3.195977 1_565
Mg0 Mg7 3.195977 1_564
Mg0 Mg13 3.297308 1_454
Mg0 Mg12 3.297308 1_455
Mg0 Mg2 3.364169 1_565
Mg0 Mg4 3.364169 1_555
Mg0 Mg2 3.477369 1_455
Mg0 Mg4 3.477370 1_455
Mg1 Mg9 3.273794 1_555
Mg1 Mg8 3.273794 1_555
Mg1 Mg7 3.273800 1_565
Mg1 Mg6 3.273800 1_565
Mg1 Mg12 3.316747 1_455
Mg1 Mg13 3.316747 1_455
Mg1 Mg3 3.332624 1_565
Mg1 Mg5 3.332625 1_555
Mg1 Mg3 3.508914 1_455
Mg1 Mg5 3.508914 1_455
Mg2 Mg7 3.195977 1_554
Mg2 Mg6 3.195977 1_555
Mg2 Mg4 3.364169 1_545
Mg2 Mg4 3.477369 1_555
Mg3 Mg6 3.273800 1_555
Mg3 Mg7 3.273800 1_555
Mg3 Mg5 3.332624 1_545
Mg3 Mg5 3.508914 1_555
Mg4 Mg8 3.195977 1_555
Mg4 Mg9 3.195977 1_554
Mg5 Mg9 3.273801 1_555
Mg5 Mg8 3.273801 1_555
Mg6 Mg8 3.214918 1_545
Mg7 Mg9 3.214918 1_545
Mg10 Mg2 3.195970 1_555
Mg10 Mg4 3.195977 1_545
Mg10 Mg8 3.214918 1_545
Mg10 Mg6 3.214919 1_555
Mg10 Mg3 3.273794 1_555
Mg10 Mg5 3.273800 1_545
Mg10 Mg12 3.423146 1_555
Mg10 Mg12 3.423146 1_545
Mg11 Mg2 3.195970 1_556
Mg11 Mg4 3.195977 1_546
Mg11 Mg9 3.214918 1_545
Mg11 Mg7 3.214919 1_555
Mg11 Mg3 3.273794 1_555
Mg11 Mg5 3.273800 1_545
Mg11 Mg13 3.423146 1_555
Mg11 Mg13 3.423146 1_545
Mg12 Mg4 3.297301 1_555
Mg12 Mg2 3.297308 1_555
Mg12 Mg5 3.316740 1_555
Mg12 Mg3 3.316747 1_555
Mg12 Mg6 3.423146 1_555
Mg12 Mg6 3.423146 1_665
Mg12 Mg8 3.423146 1_555
Mg12 Mg8 3.423146 1_655
Mg13 Mg4 3.297301 1_556
Mg13 Mg2 3.297308 1_556
Mg13 Mg5 3.316740 1_555
Mg13 Mg3 3.316747 1_555
Mg13 Mg7 3.423146 1_555
Mg13 Mg7 3.423146 1_665
Mg13 Mg9 3.423146 1_555
Mg13 Mg9 3.423146 1_655
