# generated using pymatgen
data_Li2MgCdP2
_symmetry_space_group_name_H-M   'P 1'
_cell_length_a   4.27033880
_cell_length_b   4.27033880
_cell_length_c   6.02735714
_cell_angle_alpha   90.00000000
_cell_angle_beta   90.00000000
_cell_angle_gamma   90.00000000
_symmetry_Int_Tables_number   1
_chemical_formula_structural   Li2MgCdP2
_chemical_formula_sum   'Li2 Mg1 Cd1 P2'
_cell_volume   109.91363996
_cell_formula_units_Z   1
loop_
 _symmetry_equiv_pos_site_id
 _symmetry_equiv_pos_as_xyz
  1  'x, y, z'
loop_
 _atom_site_type_symbol
 _atom_site_label
 _atom_site_symmetry_multiplicity
 _atom_site_fract_x
 _atom_site_fract_y
 _atom_site_fract_z
 _atom_site_occupancy
  Li  Li0  1  0.50000000  0.50000000  0.00000000  1
  Li  Li1  1  -0.00000000  0.00000000  0.50000000  1
  Mg  Mg0  1  -0.00000000  -0.00000000  0.00000000  1
  Cd  Cd0  1  0.50000000  0.50000000  0.50000000  1
  P  P0  1  0.50000000  0.00000000  0.75814566  1
  P  P1  1  -0.00000000  0.50000000  0.24185434  1
loop_
_geom_bond_atom_site_label_1
_geom_bond_atom_site_label_2
_geom_bond_distance
_geom_bond_site_symmetry_2
Li0 P0 2.585336 1_564
Li0 P0 2.585336 1_554
Li0 P1 2.585336 1_655
Li0 P1 2.585336 1_555
Li1 P1 2.641947 1_555
Li1 P1 2.641947 1_545
Li1 P0 2.641947 1_455
Li1 P0 2.641947 1_555
Mg0 P0 2.585336 1_454
Mg0 P0 2.585336 1_554
Mg0 P1 2.585336 1_555
Mg0 P1 2.585336 1_545
Cd0 P1 2.641947 1_555
Cd0 P1 2.641947 1_655
Cd0 P0 2.641947 1_555
Cd0 P0 2.641947 1_565
Cd0 Li0 3.013679 1_555
Cd0 Li0 3.013679 1_556
Cd0 Li1 3.019586 1_555
Cd0 Li1 3.019586 1_655
Cd0 Li1 3.019586 1_565
Cd0 Li1 3.019586 1_665
