# generated using pymatgen
data_Mg2Sn
_symmetry_space_group_name_H-M   'P 1'
_cell_length_a   12.24024695
_cell_length_b   12.24024695
_cell_length_c   15.31729638
_cell_angle_alpha   76.08921113
_cell_angle_beta   76.08921113
_cell_angle_gamma   31.18863744
_symmetry_Int_Tables_number   1
_chemical_formula_structural   Mg2Sn
_chemical_formula_sum   'Mg32 Sn16'
_cell_volume   1150.81284564
_cell_formula_units_Z   16
loop_
 _symmetry_equiv_pos_site_id
 _symmetry_equiv_pos_as_xyz
  1  'x, y, z'
loop_
 _atom_site_type_symbol
 _atom_site_label
 _atom_site_symmetry_multiplicity
 _atom_site_fract_x
 _atom_site_fract_y
 _atom_site_fract_z
 _atom_site_occupancy
  Mg  Mg0_0  1  0.49995350  0.49995350  0.00013050  1
  Mg  Mg0_1  1  0.49995350  0.49995350  0.50013050  1
  Mg  Mg0_2  1  0.49995350  0.99995350  0.00013050  1
  Mg  Mg0_3  1  0.49995350  0.99995350  0.50013050  1
  Mg  Mg0_4  1  0.99995350  0.49995350  0.00013050  1
  Mg  Mg0_5  1  0.99995350  0.49995350  0.50013050  1
  Mg  Mg0_6  1  0.99995350  0.99995350  0.00013050  1
  Mg  Mg0_7  1  0.99995350  0.99995350  0.50013050  1
  Mg  Mg1_0  1  0.16714650  0.16714650  0.16622150  1
  Mg  Mg1_1  1  0.16714650  0.16714650  0.66622150  1
  Mg  Mg1_2  1  0.16714650  0.66714650  0.16622150  1
  Mg  Mg1_3  1  0.16714650  0.66714650  0.66622150  1
  Mg  Mg1_4  1  0.66714650  0.16714650  0.16622150  1
  Mg  Mg1_5  1  0.66714650  0.16714650  0.66622150  1
  Mg  Mg1_6  1  0.66714650  0.66714650  0.16622150  1
  Mg  Mg1_7  1  0.66714650  0.66714650  0.66622150  1
  Mg  Mg2_0  1  0.33295200  0.33295200  0.33343400  1
  Mg  Mg2_1  1  0.33295200  0.33295200  0.83343400  1
  Mg  Mg2_2  1  0.33295200  0.83295200  0.33343400  1
  Mg  Mg2_3  1  0.33295200  0.83295200  0.83343400  1
  Mg  Mg2_4  1  0.83295200  0.33295200  0.33343400  1
  Mg  Mg2_5  1  0.83295200  0.33295200  0.83343400  1
  Mg  Mg2_6  1  0.83295200  0.83295200  0.33343400  1
  Mg  Mg2_7  1  0.83295200  0.83295200  0.83343400  1
  Mg  Mg3_0  1  0.13907350  0.13907350  0.47203100  1
  Mg  Mg3_1  1  0.13907350  0.13907350  0.97203100  1
  Mg  Mg3_2  1  0.13907350  0.63907350  0.47203100  1
  Mg  Mg3_3  1  0.13907350  0.63907350  0.97203100  1
  Mg  Mg3_4  1  0.63907350  0.13907350  0.47203100  1
  Mg  Mg3_5  1  0.63907350  0.13907350  0.97203100  1
  Mg  Mg3_6  1  0.63907350  0.63907350  0.47203100  1
  Mg  Mg3_7  1  0.63907350  0.63907350  0.97203100  1
  Sn  Sn0_0  1  0.30690050  0.30690050  0.13614900  1
  Sn  Sn0_1  1  0.30690050  0.30690050  0.63614900  1
  Sn  Sn0_2  1  0.30690050  0.80690050  0.13614900  1
  Sn  Sn0_3  1  0.30690050  0.80690050  0.63614900  1
  Sn  Sn0_4  1  0.80690050  0.30690050  0.13614900  1
  Sn  Sn0_5  1  0.80690050  0.30690050  0.63614900  1
  Sn  Sn0_6  1  0.80690050  0.80690050  0.13614900  1
  Sn  Sn0_7  1  0.80690050  0.80690050  0.63614900  1
  Sn  Sn1_0  1  0.47064050  0.47064050  0.30870100  1
  Sn  Sn1_1  1  0.47064050  0.47064050  0.80870100  1
  Sn  Sn1_2  1  0.47064050  0.97064050  0.30870100  1
  Sn  Sn1_3  1  0.47064050  0.97064050  0.80870100  1
  Sn  Sn1_4  1  0.97064050  0.47064050  0.30870100  1
  Sn  Sn1_5  1  0.97064050  0.47064050  0.80870100  1
  Sn  Sn1_6  1  0.97064050  0.97064050  0.30870100  1
  Sn  Sn1_7  1  0.97064050  0.97064050  0.80870100  1
loop_
_geom_bond_atom_site_label_1
_geom_bond_atom_site_label_2
_geom_bond_distance
_geom_bond_site_symmetry_2
Mg0_0 Sn1_1 3.176025 1_554
Mg0_0 Mg3_7 3.200186 1_554
Mg0_0 Sn0_4 3.201109 1_555
Mg0_0 Sn0_2 3.201109 1_555
Mg0_0 Mg3_5 3.207694 1_554
Mg0_0 Mg3_3 3.207694 1_554
Mg0_0 Mg1_2 3.242185 1_555
Mg0_0 Mg1_4 3.242185 1_555
Mg0_0 Mg2_5 3.249908 1_554
Mg0_0 Mg2_3 3.249908 1_554
Mg0_0 Mg0_6 3.290476 1_545
Mg0_0 Mg0_6 3.290476 1_455
Mg0_1 Sn1_0 3.176025 1_555
Mg0_1 Mg3_6 3.200186 1_555
Mg0_1 Sn0_5 3.201109 1_555
Mg0_1 Sn0_3 3.201109 1_555
Mg0_1 Mg3_4 3.207694 1_555
Mg0_1 Mg3_2 3.207694 1_555
Mg0_1 Mg1_5 3.242185 1_555
Mg0_1 Mg1_3 3.242185 1_555
Mg0_1 Mg2_2 3.249908 1_555
Mg0_1 Mg2_4 3.249908 1_555
Mg0_1 Mg0_7 3.290476 1_455
Mg0_1 Mg0_7 3.290476 1_545
Mg0_2 Sn1_3 3.176025 1_554
Mg0_2 Mg3_5 3.200186 1_564
Mg0_2 Sn0_6 3.201109 1_555
Mg0_2 Sn0_0 3.201109 1_565
Mg0_2 Mg3_1 3.207694 1_564
Mg0_2 Mg3_7 3.207694 1_554
Mg0_2 Mg1_6 3.242185 1_555
Mg0_2 Mg1_0 3.242185 1_565
Mg0_2 Mg2_1 3.249908 1_564
Mg0_2 Mg2_7 3.249908 1_554
Mg0_2 Mg0_4 3.290476 1_555
Mg0_2 Mg0_4 3.290476 1_465
Mg0_3 Sn1_2 3.176025 1_555
Mg0_3 Mg3_4 3.200186 1_565
Mg0_3 Sn0_7 3.201109 1_555
Mg0_3 Sn0_1 3.201109 1_565
Mg0_3 Mg3_0 3.207694 1_565
Mg0_3 Mg3_6 3.207694 1_555
Mg0_3 Mg1_1 3.242185 1_565
Mg0_3 Mg1_7 3.242185 1_555
Mg0_3 Mg2_6 3.249908 1_555
Mg0_3 Mg2_0 3.249908 1_565
Mg0_3 Mg0_5 3.290476 1_555
Mg0_3 Mg0_5 3.290476 1_465
Mg0_4 Sn1_5 3.176025 1_554
Mg0_4 Mg3_3 3.200186 1_654
Mg0_4 Sn0_6 3.201109 1_555
Mg0_4 Sn0_0 3.201109 1_655
Mg0_4 Mg3_1 3.207694 1_654
Mg0_4 Mg3_7 3.207694 1_554
Mg0_4 Mg1_0 3.242185 1_655
Mg0_4 Mg1_6 3.242185 1_555
Mg0_4 Mg2_1 3.249908 1_654
Mg0_4 Mg2_7 3.249908 1_554
Mg0_5 Sn1_4 3.176025 1_555
Mg0_5 Mg3_2 3.200186 1_655
Mg0_5 Sn0_1 3.201109 1_655
Mg0_5 Sn0_7 3.201109 1_555
Mg0_5 Mg3_0 3.207694 1_655
Mg0_5 Mg3_6 3.207694 1_555
Mg0_5 Mg1_1 3.242185 1_655
Mg0_5 Mg1_7 3.242185 1_555
Mg0_5 Mg2_6 3.249908 1_555
Mg0_5 Mg2_0 3.249908 1_655
Mg0_6 Sn1_7 3.176025 1_554
Mg0_6 Mg3_1 3.200186 1_664
Mg0_6 Sn0_2 3.201109 1_655
Mg0_6 Sn0_4 3.201109 1_565
Mg0_6 Mg3_5 3.207694 1_564
Mg0_6 Mg3_3 3.207694 1_654
Mg0_6 Mg1_2 3.242185 1_655
Mg0_6 Mg1_4 3.242185 1_565
Mg0_6 Mg2_3 3.249908 1_654
Mg0_6 Mg2_5 3.249908 1_564
Mg0_7 Sn1_6 3.176025 1_555
Mg0_7 Mg3_0 3.200186 1_665
Mg0_7 Sn0_5 3.201109 1_565
Mg0_7 Sn0_3 3.201109 1_655
Mg0_7 Mg3_4 3.207694 1_565
Mg0_7 Mg3_2 3.207694 1_655
Mg0_7 Mg1_5 3.242185 1_565
Mg0_7 Mg1_3 3.242185 1_655
Mg0_7 Mg2_4 3.249908 1_565
Mg0_7 Mg2_2 3.249908 1_655
Mg1_0 Mg3_1 3.204457 1_554
Mg1_0 Sn0_4 3.205353 1_455
Mg1_0 Sn0_2 3.205353 1_545
Mg1_0 Sn0_0 3.211463 1_555
Mg1_0 Sn1_2 3.230306 1_545
Mg1_0 Sn1_4 3.230306 1_455
Mg1_0 Mg2_2 3.266454 1_545
Mg1_0 Mg2_4 3.266454 1_455
Mg1_0 Mg1_6 3.290476 1_545
Mg1_0 Mg1_6 3.290476 1_455
Mg1_1 Mg3_0 3.204457 1_555
Mg1_1 Sn0_5 3.205353 1_455
Mg1_1 Sn0_3 3.205353 1_545
Mg1_1 Sn0_1 3.211463 1_555
Mg1_1 Sn1_5 3.230306 1_455
Mg1_1 Sn1_3 3.230306 1_545
Mg1_1 Mg2_5 3.266454 1_455
Mg1_1 Mg2_3 3.266454 1_545
Mg1_1 Mg1_7 3.290476 1_545
Mg1_1 Mg1_7 3.290476 1_455
Mg1_2 Mg3_3 3.204457 1_554
Mg1_2 Sn0_6 3.205353 1_455
Mg1_2 Sn0_0 3.205353 1_555
Mg1_2 Sn0_2 3.211463 1_555
Mg1_2 Sn1_6 3.230306 1_455
Mg1_2 Sn1_0 3.230306 1_555
Mg1_2 Mg2_0 3.266454 1_555
Mg1_2 Mg2_6 3.266454 1_455
Mg1_2 Mg1_4 3.290476 1_465
Mg1_2 Mg1_4 3.290476 1_555
Mg1_3 Mg3_2 3.204457 1_555
Mg1_3 Sn0_1 3.205353 1_555
Mg1_3 Sn0_7 3.205353 1_455
Mg1_3 Sn0_3 3.211463 1_555
Mg1_3 Sn1_1 3.230306 1_555
Mg1_3 Sn1_7 3.230306 1_455
Mg1_3 Mg2_7 3.266454 1_455
Mg1_3 Mg2_1 3.266454 1_555
Mg1_3 Mg1_5 3.290476 1_555
Mg1_3 Mg1_5 3.290476 1_465
Mg1_4 Mg3_5 3.204457 1_554
Mg1_4 Sn0_6 3.205353 1_545
Mg1_4 Sn0_0 3.205353 1_555
Mg1_4 Sn0_4 3.211463 1_555
Mg1_4 Sn1_6 3.230306 1_545
Mg1_4 Sn1_0 3.230306 1_555
Mg1_4 Mg2_0 3.266454 1_555
Mg1_4 Mg2_6 3.266454 1_545
Mg1_5 Mg3_4 3.204457 1_555
Mg1_5 Sn0_1 3.205353 1_555
Mg1_5 Sn0_7 3.205353 1_545
Mg1_5 Sn0_5 3.211463 1_555
Mg1_5 Sn1_1 3.230306 1_555
Mg1_5 Sn1_7 3.230306 1_545
Mg1_5 Mg2_7 3.266454 1_545
Mg1_5 Mg2_1 3.266454 1_555
Mg1_6 Mg3_7 3.204457 1_554
Mg1_6 Sn0_2 3.205353 1_555
Mg1_6 Sn0_4 3.205353 1_555
Mg1_6 Sn0_6 3.211463 1_555
Mg1_6 Sn1_2 3.230306 1_555
Mg1_6 Sn1_4 3.230306 1_555
Mg1_6 Mg2_4 3.266454 1_555
Mg1_6 Mg2_2 3.266454 1_555
Mg1_7 Mg3_6 3.204457 1_555
Mg1_7 Sn0_5 3.205353 1_555
Mg1_7 Sn0_3 3.205353 1_555
Mg1_7 Sn0_7 3.211463 1_555
Mg1_7 Sn1_5 3.230306 1_555
Mg1_7 Sn1_3 3.230306 1_555
Mg1_7 Mg2_3 3.266454 1_555
Mg1_7 Mg2_5 3.266454 1_555
Mg2_0 Sn1_0 3.173323 1_555
Mg2_0 Sn1_2 3.219362 1_545
Mg2_0 Sn1_4 3.219362 1_455
Mg2_0 Mg3_4 3.219811 1_555
Mg2_0 Mg3_2 3.219811 1_555
Mg2_0 Sn0_0 3.230433 1_555
Mg2_0 Mg2_6 3.290476 1_455
Mg2_0 Mg2_6 3.290476 1_545
Mg2_1 Sn1_1 3.173323 1_555
Mg2_1 Sn1_3 3.219362 1_545
Mg2_1 Sn1_5 3.219362 1_455
Mg2_1 Mg3_3 3.219811 1_555
Mg2_1 Mg3_5 3.219811 1_555
Mg2_1 Sn0_1 3.230433 1_555
Mg2_1 Mg2_7 3.290476 1_545
Mg2_1 Mg2_7 3.290476 1_455
Mg2_2 Sn1_2 3.173323 1_555
Mg2_2 Sn1_0 3.219362 1_555
Mg2_2 Sn1_6 3.219362 1_455
Mg2_2 Mg3_6 3.219811 1_555
Mg2_2 Mg3_0 3.219811 1_565
Mg2_2 Sn0_2 3.230433 1_555
Mg2_2 Mg2_4 3.290476 1_555
Mg2_2 Mg2_4 3.290476 1_465
Mg2_3 Sn1_3 3.173323 1_555
Mg2_3 Sn1_7 3.219362 1_455
Mg2_3 Sn1_1 3.219362 1_555
Mg2_3 Mg3_1 3.219811 1_565
Mg2_3 Mg3_7 3.219811 1_555
Mg2_3 Sn0_3 3.230433 1_555
Mg2_3 Mg2_5 3.290476 1_465
Mg2_3 Mg2_5 3.290476 1_555
Mg2_4 Sn1_4 3.173323 1_555
Mg2_4 Sn1_0 3.219362 1_555
Mg2_4 Sn1_6 3.219362 1_545
Mg2_4 Mg3_6 3.219811 1_555
Mg2_4 Mg3_0 3.219811 1_655
Mg2_4 Sn0_4 3.230433 1_555
Mg2_5 Sn1_5 3.173323 1_555
Mg2_5 Sn1_7 3.219362 1_545
Mg2_5 Sn1_1 3.219362 1_555
Mg2_5 Mg3_7 3.219811 1_555
Mg2_5 Mg3_1 3.219811 1_655
Mg2_5 Sn0_5 3.230433 1_555
Mg2_6 Sn1_6 3.173323 1_555
Mg2_6 Sn1_4 3.219362 1_555
Mg2_6 Sn1_2 3.219362 1_555
Mg2_6 Mg3_4 3.219811 1_565
Mg2_6 Mg3_2 3.219811 1_655
Mg2_6 Sn0_6 3.230433 1_555
Mg2_7 Sn1_7 3.173323 1_555
Mg2_7 Sn1_5 3.219362 1_555
Mg2_7 Sn1_3 3.219362 1_555
Mg2_7 Mg3_5 3.219811 1_565
Mg2_7 Mg3_3 3.219811 1_655
Mg2_7 Sn0_7 3.230433 1_555
Mg3_0 Sn1_2 3.203558 1_545
Mg3_0 Sn1_4 3.203558 1_455
Mg3_0 Sn0_5 3.216982 1_455
Mg3_0 Sn0_3 3.216982 1_545
Mg3_0 Mg3_6 3.290476 1_455
Mg3_0 Mg3_6 3.290476 1_545
Mg3_1 Sn1_5 3.203558 1_455
Mg3_1 Sn1_3 3.203558 1_545
Mg3_1 Sn0_2 3.216982 1_546
Mg3_1 Sn0_4 3.216982 1_456
Mg3_1 Mg3_7 3.290476 1_545
Mg3_1 Mg3_7 3.290476 1_455
Mg3_2 Sn1_0 3.203558 1_555
Mg3_2 Sn1_6 3.203558 1_455
Mg3_2 Sn0_1 3.216982 1_555
Mg3_2 Sn0_7 3.216982 1_455
Mg3_2 Mg3_4 3.290476 1_555
Mg3_2 Mg3_4 3.290476 1_465
Mg3_3 Sn1_1 3.203558 1_555
Mg3_3 Sn1_7 3.203558 1_455
Mg3_3 Sn0_6 3.216982 1_456
Mg3_3 Sn0_0 3.216982 1_556
Mg3_3 Mg3_5 3.290476 1_555
Mg3_3 Mg3_5 3.290476 1_465
Mg3_4 Sn1_0 3.203558 1_555
Mg3_4 Sn1_6 3.203558 1_545
Mg3_4 Sn0_1 3.216982 1_555
Mg3_4 Sn0_7 3.216982 1_545
Mg3_5 Sn1_1 3.203558 1_555
Mg3_5 Sn1_7 3.203558 1_545
Mg3_5 Sn0_6 3.216982 1_546
Mg3_5 Sn0_0 3.216982 1_556
Mg3_6 Sn1_4 3.203558 1_555
Mg3_6 Sn1_2 3.203558 1_555
Mg3_6 Sn0_5 3.216982 1_555
Mg3_6 Sn0_3 3.216982 1_555
Mg3_7 Sn1_3 3.203558 1_555
Mg3_7 Sn1_5 3.203558 1_555
Mg3_7 Sn0_2 3.216982 1_556
Mg3_7 Sn0_4 3.216982 1_556
Sn0_0 Sn0_6 3.290476 1_455
Sn0_0 Sn0_6 3.290476 1_545
Sn0_0 Sn1_4 3.338533 1_455
Sn0_0 Sn1_2 3.338533 1_545
Sn0_1 Sn0_7 3.290476 1_545
Sn0_1 Sn0_7 3.290476 1_455
Sn0_1 Sn1_3 3.338533 1_545
Sn0_1 Sn1_5 3.338533 1_455
Sn0_2 Sn0_4 3.290476 1_465
Sn0_2 Sn0_4 3.290476 1_555
Sn0_2 Sn1_6 3.338533 1_455
Sn0_2 Sn1_0 3.338533 1_555
Sn0_3 Sn0_5 3.290476 1_555
Sn0_3 Sn0_5 3.290476 1_465
Sn0_3 Sn1_7 3.338533 1_455
Sn0_3 Sn1_1 3.338533 1_555
Sn0_4 Sn1_6 3.338533 1_545
Sn0_4 Sn1_0 3.338533 1_555
Sn0_5 Sn1_7 3.338533 1_545
Sn0_5 Sn1_1 3.338533 1_555
Sn0_6 Sn1_4 3.338533 1_555
Sn0_6 Sn1_2 3.338533 1_555
Sn0_7 Sn1_5 3.338533 1_555
Sn0_7 Sn1_3 3.338533 1_555
Sn1_0 Sn1_6 3.290476 1_455
Sn1_0 Sn1_6 3.290476 1_545
Sn1_1 Sn1_7 3.290476 1_545
Sn1_1 Sn1_7 3.290476 1_455
Sn1_2 Sn1_4 3.290476 1_465
Sn1_2 Sn1_4 3.290476 1_555
Sn1_3 Sn1_5 3.290476 1_555
Sn1_3 Sn1_5 3.290476 1_465
