# generated using pymatgen
data_CeAlIr
_symmetry_space_group_name_H-M   'P 1'
_cell_length_a   6.88600800
_cell_length_b   4.34513600
_cell_length_c   7.96780100
_cell_angle_alpha   90.00000000
_cell_angle_beta   90.00000000
_cell_angle_gamma   90.00000000
_symmetry_Int_Tables_number   1
_chemical_formula_structural   CeAlIr
_chemical_formula_sum   'Ce4 Al4 Ir4'
_cell_volume   238.40171533
_cell_formula_units_Z   4
loop_
 _symmetry_equiv_pos_site_id
 _symmetry_equiv_pos_as_xyz
  1  'x, y, z'
loop_
 _atom_site_type_symbol
 _atom_site_label
 _atom_site_symmetry_multiplicity
 _atom_site_fract_x
 _atom_site_fract_y
 _atom_site_fract_z
 _atom_site_occupancy
  Ce  Ce0  1  0.96464600  0.25000000  0.18306300  1
  Ce  Ce1  1  0.46464600  0.25000000  0.31693700  1
  Ce  Ce2  1  0.03535400  0.75000000  0.81693700  1
  Ce  Ce3  1  0.53535400  0.75000000  0.68306300  1
  Al  Al0  1  0.86220300  0.25000000  0.56241100  1
  Al  Al1  1  0.36220300  0.25000000  0.93758900  1
  Al  Al2  1  0.13779700  0.75000000  0.43758900  1
  Al  Al3  1  0.63779700  0.75000000  0.06241100  1
  Ir  Ir0  1  0.73825600  0.25000000  0.88323000  1
  Ir  Ir1  1  0.23825600  0.25000000  0.61677000  1
  Ir  Ir2  1  0.26174400  0.75000000  0.11677000  1
  Ir  Ir3  1  0.76174400  0.75000000  0.38323000  1
loop_
_geom_bond_atom_site_label_1
_geom_bond_atom_site_label_2
_geom_bond_distance
_geom_bond_site_symmetry_2
Ce0 Ir0 2.852650 1_554
Ce0 Ir2 3.030583 1_645
Ce0 Ir2 3.030583 1_655
Ce0 Ir3 3.035762 1_545
Ce0 Ir3 3.035762 1_555
Ce0 Ce1 3.604454 1_555
Ce0 Ce1 3.604454 1_655
Ce0 Ce2 3.669780 1_644
Ce0 Ce2 3.669780 1_654
Ce1 Ir1 2.852650 1_555
Ce1 Ir3 3.030583 1_555
Ce1 Ir3 3.030583 1_545
Ce1 Ir2 3.035762 1_545
Ce1 Ir2 3.035762 1_555
Ce1 Ce3 3.669780 1_545
Ce1 Ce3 3.669780 1_555
Ce2 Ir2 2.852650 1_556
Ce2 Ir0 3.030583 1_455
Ce2 Ir0 3.030583 1_465
Ce2 Ir1 3.035762 1_565
Ce2 Ir1 3.035762 1_555
Ce2 Ce3 3.604454 1_455
Ce2 Ce3 3.604454 1_555
Ce3 Ir3 2.852650 1_555
Ce3 Ir1 3.030583 1_565
Ce3 Ir1 3.030583 1_555
Ce3 Ir0 3.035762 1_565
Ce3 Ir0 3.035762 1_555
Al0 Ir1 2.625476 1_655
Al0 Ir3 2.690140 1_555
Al0 Ir3 2.690140 1_545
Al0 Ir0 2.694946 1_555
Al0 Al2 3.051331 1_655
Al0 Al2 3.051331 1_645
Al0 Ce0 3.103796 1_555
Al0 Ce2 3.202267 1_645
Al0 Ce2 3.202267 1_655
Al0 Ce3 3.272582 1_545
Al0 Ce3 3.272582 1_555
Al0 Ce1 3.364498 1_555
Al1 Ir0 2.625476 1_555
Al1 Ir2 2.690140 1_546
Al1 Ir2 2.690140 1_556
Al1 Ir1 2.694946 1_555
Al1 Al3 3.051331 1_556
Al1 Al3 3.051331 1_546
Al1 Ce1 3.103796 1_556
Al1 Ce3 3.202267 1_555
Al1 Ce3 3.202267 1_545
Al1 Ce2 3.272582 1_545
Al1 Ce2 3.272582 1_555
Al1 Ce0 3.364498 1_456
Al2 Ir3 2.625476 1_455
Al2 Ir1 2.690140 1_565
Al2 Ir1 2.690140 1_555
Al2 Ir2 2.694946 1_555
Al2 Ce2 3.103796 1_555
Al2 Ce0 3.202267 1_455
Al2 Ce0 3.202267 1_465
Al2 Ce1 3.272582 1_555
Al2 Ce1 3.272582 1_565
Al2 Ce3 3.364498 1_555
Al3 Ir2 2.625476 1_555
Al3 Ir0 2.690140 1_564
Al3 Ir0 2.690140 1_554
Al3 Ir3 2.694946 1_555
Al3 Ce3 3.103796 1_554
Al3 Ce1 3.202267 1_555
Al3 Ce1 3.202267 1_565
Al3 Ce0 3.272582 1_565
Al3 Ce0 3.272582 1_555
Al3 Ce2 3.364498 1_654
