# generated using pymatgen
data_Lu5Zr3(Ni4As3)4
_symmetry_space_group_name_H-M   'P 1'
_cell_length_a   3.88300900
_cell_length_b   12.73027564
_cell_length_c   12.73060332
_cell_angle_alpha   119.99914502
_cell_angle_beta   90.00000000
_cell_angle_gamma   90.00000000
_symmetry_Int_Tables_number   1
_chemical_formula_structural   Lu5Zr3(Ni4As3)4
_chemical_formula_sum   'Lu5 Zr3 Ni16 As12'
_cell_volume   544.99129281
_cell_formula_units_Z   1
loop_
 _symmetry_equiv_pos_site_id
 _symmetry_equiv_pos_as_xyz
  1  'x, y, z'
loop_
 _atom_site_type_symbol
 _atom_site_label
 _atom_site_symmetry_multiplicity
 _atom_site_fract_x
 _atom_site_fract_y
 _atom_site_fract_z
 _atom_site_occupancy
  Lu  Lu0  1  0.50000000  0.00000200  0.18100000  1
  Lu  Lu1  1  0.50000000  0.18100200  0.00000000  1
  Lu  Lu2  1  0.50000000  0.81900200  0.81900000  1
  Lu  Lu3  1  0.00000000  0.33330200  0.66669000  1
  Lu  Lu4  1  0.00000000  0.66661200  0.33331000  1
  Zr  Zr0  1  0.00000000  0.99999300  0.56235800  1
  Zr  Zr1  1  0.00000000  0.56236900  0.00000000  1
  Zr  Zr2  1  0.00000000  0.43763500  0.43764200  1
  Ni  Ni0  1  0.50000000  0.99999700  0.72322800  1
  Ni  Ni1  1  0.50000000  0.72323100  0.00000000  1
  Ni  Ni2  1  0.50000000  0.27676900  0.27677200  1
  Ni  Ni3  1  0.00000000  0.19110500  0.37298700  1
  Ni  Ni4  1  0.00000000  0.18190200  0.80891500  1
  Ni  Ni5  1  0.00000000  0.62700000  0.81810100  1
  Ni  Ni6  1  0.00000000  0.81811800  0.62701300  1
  Ni  Ni7  1  0.00000000  0.37298700  0.19108500  1
  Ni  Ni8  1  0.00000000  0.80889900  0.18189900  1
  Ni  Ni9  1  0.50000000  0.12206900  0.48203200  1
  Ni  Ni10  1  0.50000000  0.35995600  0.87792700  1
  Ni  Ni11  1  0.50000000  0.51796400  0.64005200  1
  Ni  Ni12  1  0.50000000  0.64003800  0.51796800  1
  Ni  Ni13  1  0.50000000  0.48202900  0.12207300  1
  Ni  Ni14  1  0.50000000  0.87791200  0.35994800  1
  Ni  Ni15  1  0.00000000  0.00000200  0.00000000  1
  As  As0  1  0.00000000  0.00000300  0.82337300  1
  As  As1  1  0.00000000  0.82338300  0.00000000  1
  As  As2  1  0.00000000  0.17663100  0.17662700  1
  As  As3  1  0.50000000  0.30825000  0.48147100  1
  As  As4  1  0.50000000  0.17320800  0.69174400  1
  As  As5  1  0.50000000  0.51853100  0.82678400  1
  As  As6  1  0.50000000  0.82677900  0.51852900  1
  As  As7  1  0.50000000  0.48146400  0.30825600  1
  As  As8  1  0.50000000  0.69174700  0.17321600  1
  As  As9  1  0.00000000  0.00000600  0.35384900  1
  As  As10  1  0.00000000  0.35384700  0.00000000  1
  As  As11  1  0.00000000  0.64615700  0.64615100  1
loop_
_geom_bond_atom_site_label_1
_geom_bond_atom_site_label_2
_geom_bond_distance
_geom_bond_site_symmetry_2
Lu0 Ni15 3.013131 1_555
Lu0 Ni15 3.013131 1_655
Lu0 Ni2 3.099141 1_555
Lu0 Ni1 3.099223 1_545
Lu0 Ni3 3.117008 1_655
Lu0 Ni3 3.117008 1_555
Lu0 Ni8 3.117034 1_645
Lu0 Ni8 3.117034 1_545
Lu0 Ni14 3.338580 1_545
Lu0 Ni9 3.338616 1_555
Lu1 Ni15 3.013086 1_655
Lu1 Ni15 3.013086 1_555
Lu1 Ni2 3.099303 1_555
Lu1 Ni0 3.099303 1_544
Lu1 Ni4 3.116908 1_654
Lu1 Ni4 3.116908 1_554
Lu1 Ni7 3.116908 1_555
Lu1 Ni7 3.116908 1_655
Lu1 Ni10 3.338454 1_554
Lu1 Ni13 3.338454 1_555
Lu2 Ni15 3.013131 1_566
Lu2 Ni15 3.013131 1_666
Lu2 Ni0 3.099141 1_555
Lu2 Ni1 3.099223 1_556
Lu2 Ni6 3.117008 1_655
Lu2 Ni6 3.117008 1_555
Lu2 Ni5 3.117034 1_555
Lu2 Ni5 3.117034 1_655
Lu2 Ni11 3.338581 1_555
Lu2 Ni12 3.338614 1_555
Lu3 Ni10 3.194336 1_455
Lu3 Ni10 3.194336 1_555
Lu3 Ni9 3.194599 1_455
Lu3 Ni9 3.194599 1_555
Lu3 Ni11 3.194976 1_455
Lu3 Ni11 3.194976 1_555
Lu3 Ni4 3.237693 1_555
Lu3 Ni5 3.238495 1_555
Lu3 Ni3 3.238653 1_555
Lu4 Ni13 3.194336 1_555
Lu4 Ni13 3.194336 1_455
Lu4 Ni12 3.194593 1_455
Lu4 Ni12 3.194593 1_555
Lu4 Ni14 3.194976 1_555
Lu4 Ni14 3.194976 1_455
Lu4 Ni7 3.237693 1_555
Lu4 Ni8 3.238495 1_555
Lu4 Ni6 3.238653 1_555
Ni0 Zr0 2.821972 1_555
Ni0 Zr0 2.821972 1_655
Ni1 Zr1 2.821878 1_555
Ni1 Zr1 2.821878 1_655
Ni2 Zr2 2.821972 1_655
Ni2 Zr2 2.821972 1_555
Ni3 Zr2 2.818488 1_555
Ni4 Zr0 2.818928 1_545
Ni5 Zr1 2.818611 1_556
Ni6 Zr0 2.818488 1_555
Ni7 Zr2 2.818928 1_555
Ni8 Zr1 2.818612 1_555
Ni9 Zr0 2.969746 1_545
Ni9 Zr0 2.969746 1_645
Ni10 Zr1 2.969840 1_556
Ni10 Zr1 2.969840 1_656
Ni11 Zr2 2.969862 1_555
Ni11 Zr2 2.969862 1_655
Ni12 Zr2 2.969755 1_655
Ni12 Zr2 2.969755 1_555
Ni13 Zr1 2.969840 1_655
Ni13 Zr1 2.969840 1_555
Ni14 Zr0 2.969862 1_555
Ni14 Zr0 2.969862 1_655
As0 Ni15 2.248575 1_556
As0 Ni0 2.322655 1_545
As0 Ni0 2.322655 1_445
As0 Ni4 2.412922 1_555
As0 Ni6 2.412931 1_545
As0 Lu2 2.992252 1_445
As0 Lu2 2.992252 1_545
As0 Lu1 2.992280 1_456
As0 Lu1 2.992280 1_556
As1 Ni15 2.248409 1_565
As1 Ni1 2.322707 1_455
As1 Ni1 2.322707 1_555
As1 Ni8 2.413163 1_555
As1 Ni5 2.413164 1_554
As1 Lu2 2.992250 1_554
As1 Lu2 2.992250 1_454
As1 Lu0 2.992250 1_565
As1 Lu0 2.992250 1_465
As2 Ni15 2.248581 1_555
As2 Ni2 2.322652 1_555
As2 Ni2 2.322652 1_455
As2 Ni7 2.412910 1_555
As2 Ni3 2.412937 1_555
As2 Lu0 2.992261 1_555
As2 Lu0 2.992261 1_455
As2 Lu1 2.992275 1_455
As2 Lu1 2.992275 1_555
As3 Ni9 2.373714 1_555
As3 Ni11 2.411120 1_555
As3 Ni3 2.416860 1_555
As3 Ni3 2.416860 1_655
As3 Ni2 2.430475 1_555
As3 Zr2 2.777182 1_655
As3 Zr2 2.777182 1_555
As3 Lu3 2.946031 1_555
As3 Lu3 2.946031 1_655
As4 Ni10 2.373826 1_555
As4 Ni9 2.411106 1_555
As4 Ni4 2.416949 1_655
As4 Ni4 2.416949 1_555
As4 Ni0 2.430340 1_545
As4 Zr0 2.777214 1_545
As4 Zr0 2.777214 1_645
As4 Lu3 2.945302 1_555
As4 Lu3 2.945302 1_655
As5 Ni11 2.373610 1_555
As5 Ni10 2.411094 1_555
As5 Ni5 2.416819 1_555
As5 Ni5 2.416819 1_655
As5 Ni1 2.430453 1_556
As5 Zr1 2.777220 1_556
As5 Zr1 2.777220 1_656
As5 Lu3 2.945806 1_555
As5 Lu3 2.945806 1_655
As6 Ni12 2.373702 1_555
As6 Ni14 2.411120 1_555
As6 Ni6 2.416860 1_555
As6 Ni6 2.416860 1_655
As6 Ni0 2.430475 1_555
As6 Zr0 2.777182 1_655
As6 Zr0 2.777182 1_555
As6 Lu4 2.946031 1_655
As6 Lu4 2.946031 1_555
As7 Ni13 2.373826 1_555
As7 Ni12 2.411110 1_555
As7 Ni7 2.416949 1_555
As7 Ni7 2.416949 1_655
As7 Ni2 2.430340 1_555
As7 Zr2 2.777213 1_555
As7 Zr2 2.777213 1_655
As7 Lu4 2.945302 1_655
As7 Lu4 2.945302 1_555
As8 Ni14 2.373610 1_555
As8 Ni13 2.411095 1_555
As8 Ni8 2.416819 1_555
As8 Ni8 2.416819 1_655
As8 Ni1 2.430453 1_555
As8 Zr1 2.777220 1_655
As8 Zr1 2.777220 1_555
As8 Lu4 2.945806 1_655
As8 Lu4 2.945806 1_555
As9 Ni3 2.320540 1_555
As9 Ni8 2.320592 1_545
As9 Ni9 2.512230 1_555
As9 Ni9 2.512230 1_455
As9 Ni14 2.512362 1_445
As9 Ni14 2.512362 1_545
As9 Zr0 2.654528 1_545
As9 Lu0 2.934520 1_455
As9 Lu0 2.934520 1_555
As10 Ni7 2.320416 1_555
As10 Ni4 2.320416 1_554
As10 Ni10 2.512261 1_554
As10 Ni10 2.512261 1_454
As10 Ni13 2.512261 1_555
As10 Ni13 2.512261 1_455
As10 Zr1 2.654543 1_555
As10 Lu1 2.934458 1_455
As10 Lu1 2.934458 1_555
As11 Ni6 2.320540 1_555
As11 Ni5 2.320592 1_555
As11 Ni12 2.512234 1_455
As11 Ni12 2.512234 1_555
As11 Ni11 2.512362 1_455
As11 Ni11 2.512362 1_555
As11 Zr2 2.654528 1_555
As11 Lu2 2.934520 1_455
As11 Lu2 2.934520 1_555
