# generated using pymatgen
data_Li9Mn2Co5O16
_symmetry_space_group_name_H-M   'P 1'
_cell_length_a   5.91701400
_cell_length_b   6.46638137
_cell_length_c   8.58850842
_cell_angle_alpha   83.00353070
_cell_angle_beta   109.44442546
_cell_angle_gamma   113.80863089
_symmetry_Int_Tables_number   1
_chemical_formula_structural   Li9Mn2Co5O16
_chemical_formula_sum   'Li9 Mn2 Co5 O16'
_cell_volume   283.46804072
_cell_formula_units_Z   1
loop_
 _symmetry_equiv_pos_site_id
 _symmetry_equiv_pos_as_xyz
  1  'x, y, z'
loop_
 _atom_site_type_symbol
 _atom_site_label
 _atom_site_symmetry_multiplicity
 _atom_site_fract_x
 _atom_site_fract_y
 _atom_site_fract_z
 _atom_site_occupancy
  Li  Li0  1  0.73226400  0.74037200  0.25967100  1
  Li  Li1  1  0.25471800  0.99730600  0.50522300  1
  Li  Li2  1  0.27327900  0.74469000  0.26559700  1
  Li  Li3  1  0.74612200  0.99567400  0.50269400  1
  Li  Li4  1  0.73947200  0.25965300  0.73522500  1
  Li  Li5  1  0.25529600  0.26016800  0.74035000  1
  Li  Li6  1  0.23841300  0.49867500  0.99577100  1
  Li  Li7  1  0.75660500  0.50339400  0.99673700  1
  Li  Li8  1  0.49804000  0.50073000  0.50269000  1
  Mn  Mn0  1  0.00607000  0.00210100  0.99745200  1
  Mn  Mn1  1  0.50134200  0.25321900  0.25530200  1
  Co  Co0  1  0.99880400  0.50302300  0.49993300  1
  Co  Co1  1  0.50187600  0.74708600  0.74689900  1
  Co  Co2  1  0.50342400  0.99950600  0.99848600  1
  Co  Co3  1  0.01007300  0.25882900  0.25253300  1
  Co  Co4  1  0.98691000  0.74056400  0.74872200  1
  O  O0  1  0.14722300  0.02734000  0.24107800  1
  O  O1  1  0.61341600  0.24725000  0.48270300  1
  O  O2  1  0.61169900  0.00919100  0.23319800  1
  O  O3  1  0.09907500  0.26367100  0.48061100  1
  O  O4  1  0.10731900  0.50938000  0.74302100  1
  O  O5  1  0.61590600  0.51518800  0.75294300  1
  O  O6  1  0.65954100  0.78645900  0.99398300  1
  O  O7  1  0.11596800  0.76173500  0.99121700  1
  O  O8  1  0.38007300  0.48598400  0.24499100  1
  O  O9  1  0.89257600  0.73693300  0.51464400  1
  O  O10  1  0.84477500  0.47071700  0.25163600  1
  O  O11  1  0.36862800  0.74059100  0.51525600  1
  O  O12  1  0.39318800  0.98583600  0.76717100  1
  O  O13  1  0.89707700  0.99475300  0.76238700  1
  O  O14  1  0.89305400  0.23893200  0.01519700  1
  O  O15  1  0.35777500  0.22104900  0.00668000  1
loop_
_geom_bond_atom_site_label_1
_geom_bond_atom_site_label_2
_geom_bond_distance
_geom_bond_site_symmetry_2
Li0 O8 2.042670 1_555
Li0 O9 2.077946 1_555
Li0 O2 2.092646 1_565
Li0 O10 2.117908 1_555
Li0 O6 2.182891 1_554
Li0 O0 2.451089 1_665
Li1 O11 2.011762 1_555
Li1 O12 2.125871 1_555
Li1 O1 2.140540 1_565
Li1 O9 2.145306 1_455
Li1 O0 2.149553 1_565
Li1 O3 2.218539 1_565
Li2 O11 2.027167 1_555
Li2 O8 2.056511 1_555
Li2 O2 2.121888 1_565
Li2 O0 2.200807 1_565
Li2 O7 2.234031 1_554
Li2 O10 2.409219 1_455
Li3 O1 2.041080 1_565
Li3 O13 2.108819 1_555
Li3 O9 2.151821 1_555
Li3 O3 2.159241 1_665
Li3 O2 2.186014 1_565
Li3 O11 2.205451 1_555
Li4 O1 2.045355 1_555
Li4 O5 2.097341 1_555
Li4 O4 2.107407 1_655
Li4 O12 2.176114 1_545
Li4 O13 2.214894 1_545
Li4 O14 2.278288 1_556
Li5 O5 2.081556 1_555
Li5 O3 2.112585 1_555
Li5 O4 2.127363 1_555
Li5 O15 2.173294 1_556
Li5 O13 2.173705 1_445
Li5 O12 2.193056 1_545
Li6 O8 2.027067 1_556
Li6 O4 2.050439 1_555
Li6 O7 2.092831 1_555
Li6 O14 2.100570 1_456
Li6 O15 2.160810 1_556
Li6 O6 2.438672 1_555
Li7 O5 1.983636 1_555
Li7 O10 2.079744 1_556
Li7 O7 2.119965 1_655
Li7 O6 2.123666 1_555
Li7 O14 2.136567 1_556
Li7 O15 2.351023 1_556
Li8 O11 2.014544 1_555
Li8 O5 2.028041 1_555
Li8 O1 2.057221 1_555
Li8 O8 2.088998 1_555
Li8 O9 2.189307 1_555
Li8 O3 2.193113 1_555
Mn0 O13 1.904138 1_445
Mn0 O7 1.923807 1_545
Mn0 O14 1.940941 1_456
Mn0 O6 1.952071 1_445
Mn0 O15 1.969839 1_556
Mn0 O0 1.977855 1_556
Mn1 O1 1.842718 1_555
Mn1 O8 1.893510 1_555
Mn1 O10 1.957756 1_555
Mn1 O2 1.984908 1_555
Mn1 O0 1.985158 1_555
Mn1 O15 2.020457 1_555
Co0 O9 1.888348 1_555
Co0 O3 1.909074 1_655
Co0 O4 1.969725 1_655
Co0 O10 2.020561 1_555
Co0 O11 2.075855 1_655
Co0 O1 2.178831 1_555
Co1 O5 1.865783 1_555
Co1 O11 1.879007 1_555
Co1 O12 1.941392 1_555
Co1 O6 2.014987 1_555
Co1 O13 2.207242 1_555
Co1 O4 2.208528 1_555
Co2 O12 1.874443 1_555
Co2 O2 1.901696 1_566
Co2 O6 1.953693 1_555
Co2 O15 1.965115 1_566
Co2 O14 2.164426 1_566
Co2 O7 2.169335 1_555
Co3 O3 1.852087 1_555
Co3 O14 1.924369 1_455
Co3 O10 1.976956 1_455
Co3 O0 1.994674 1_555
Co3 O8 2.104686 1_555
Co3 O2 2.218626 1_455
Co4 O9 1.899356 1_555
Co4 O4 1.909387 1_655
Co4 O13 1.947286 1_555
Co4 O7 1.966110 1_655
Co4 O5 2.097958 1_555
Co4 O12 2.246980 1_655
