# generated using pymatgen
data_Li3Cd
_symmetry_space_group_name_H-M   'P 1'
_cell_length_a   19.16554478
_cell_length_b   19.16554478
_cell_length_c   19.16554474
_cell_angle_alpha   18.97124343
_cell_angle_beta   18.97124343
_cell_angle_gamma   18.97124599
_symmetry_Int_Tables_number   1
_chemical_formula_structural   Li3Cd
_chemical_formula_sum   'Li24 Cd8'
_cell_volume   650.21923239
_cell_formula_units_Z   8
loop_
 _symmetry_equiv_pos_site_id
 _symmetry_equiv_pos_as_xyz
  1  'x, y, z'
loop_
 _atom_site_type_symbol
 _atom_site_label
 _atom_site_symmetry_multiplicity
 _atom_site_fract_x
 _atom_site_fract_y
 _atom_site_fract_z
 _atom_site_occupancy
  Li  Li0_0  1  0.12558200  0.12558200  0.12558200  1
  Li  Li0_1  1  0.12558200  0.12558200  0.62558200  1
  Li  Li0_2  1  0.12558200  0.62558200  0.12558200  1
  Li  Li0_3  1  0.12558200  0.62558200  0.62558200  1
  Li  Li0_4  1  0.62558200  0.12558200  0.12558200  1
  Li  Li0_5  1  0.62558200  0.12558200  0.62558200  1
  Li  Li0_6  1  0.62558200  0.62558200  0.12558200  1
  Li  Li0_7  1  0.62558200  0.62558200  0.62558200  1
  Li  Li1_0  1  0.25000000  0.25000000  0.25000000  1
  Li  Li1_1  1  0.25000000  0.25000000  0.75000000  1
  Li  Li1_2  1  0.25000000  0.75000000  0.25000000  1
  Li  Li1_3  1  0.25000000  0.75000000  0.75000000  1
  Li  Li1_4  1  0.75000000  0.25000000  0.25000000  1
  Li  Li1_5  1  0.75000000  0.25000000  0.75000000  1
  Li  Li1_6  1  0.75000000  0.75000000  0.25000000  1
  Li  Li1_7  1  0.75000000  0.75000000  0.75000000  1
  Li  Li2_0  1  0.37441800  0.37441800  0.37441800  1
  Li  Li2_1  1  0.37441800  0.37441800  0.87441800  1
  Li  Li2_2  1  0.37441800  0.87441800  0.37441800  1
  Li  Li2_3  1  0.37441800  0.87441800  0.87441800  1
  Li  Li2_4  1  0.87441800  0.37441800  0.37441800  1
  Li  Li2_5  1  0.87441800  0.37441800  0.87441800  1
  Li  Li2_6  1  0.87441800  0.87441800  0.37441800  1
  Li  Li2_7  1  0.87441800  0.87441800  0.87441800  1
  Cd  Cd0_0  1  0.00000000  0.00000000  0.00000000  1
  Cd  Cd0_1  1  0.00000000  0.00000000  0.50000000  1
  Cd  Cd0_2  1  0.00000000  0.50000000  0.00000000  1
  Cd  Cd0_3  1  1.00000000  0.50000000  0.50000000  1
  Cd  Cd0_4  1  0.50000000  0.00000000  0.00000000  1
  Cd  Cd0_5  1  0.50000000  1.00000000  0.50000000  1
  Cd  Cd0_6  1  0.50000000  0.50000000  0.00000000  1
  Cd  Cd0_7  1  0.50000000  0.50000000  0.50000000  1
loop_
_geom_bond_atom_site_label_1
_geom_bond_atom_site_label_2
_geom_bond_distance
_geom_bond_site_symmetry_2
Li0_0 Li1_1 3.002076 1_554
Li0_0 Li1_4 3.002076 1_455
Li0_0 Li1_2 3.002076 1_545
Li0_1 Li1_0 3.002076 1_555
Li0_1 Li1_5 3.002076 1_455
Li0_1 Li1_3 3.002076 1_545
Li0_2 Li1_3 3.002076 1_554
Li0_2 Li1_0 3.002076 1_555
Li0_2 Li1_6 3.002076 1_455
Li0_3 Li1_2 3.002076 1_555
Li0_3 Li1_7 3.002076 1_455
Li0_3 Li1_1 3.002076 1_555
Li0_4 Li1_5 3.002076 1_554
Li0_4 Li1_6 3.002076 1_545
Li0_4 Li1_0 3.002076 1_555
Li0_5 Li1_4 3.002076 1_555
Li0_5 Li1_7 3.002076 1_545
Li0_5 Li1_1 3.002076 1_555
Li0_6 Li1_7 3.002076 1_554
Li0_6 Li1_4 3.002076 1_555
Li0_6 Li1_2 3.002076 1_555
Li0_7 Li1_6 3.002076 1_555
Li0_7 Li1_5 3.002076 1_555
Li0_7 Li1_3 3.002076 1_555
Li1_0 Li2_1 3.002076 1_554
Li1_0 Li2_2 3.002076 1_545
Li1_0 Li2_4 3.002076 1_455
Li1_0 Li1_3 3.158484 1_554
Li1_0 Li1_3 3.158484 1_545
Li1_0 Li1_5 3.158484 1_455
Li1_0 Li1_5 3.158484 1_554
Li1_0 Li1_6 3.158484 1_455
Li1_0 Li1_6 3.158484 1_545
Li1_1 Li2_0 3.002076 1_555
Li1_1 Li2_5 3.002076 1_455
Li1_1 Li2_3 3.002076 1_545
Li1_1 Li1_4 3.158484 1_456
Li1_1 Li1_2 3.158484 1_555
Li1_1 Li1_2 3.158484 1_546
Li1_1 Li1_4 3.158484 1_555
Li1_1 Li1_7 3.158484 1_455
Li1_1 Li1_7 3.158484 1_545
Li1_2 Li2_3 3.002076 1_554
Li1_2 Li2_0 3.002076 1_555
Li1_2 Li2_6 3.002076 1_455
Li1_2 Li1_7 3.158484 1_455
Li1_2 Li1_7 3.158484 1_554
Li1_2 Li1_4 3.158484 1_465
Li1_2 Li1_4 3.158484 1_555
Li1_3 Li2_2 3.002076 1_555
Li1_3 Li2_7 3.002076 1_455
Li1_3 Li2_1 3.002076 1_555
Li1_3 Li1_6 3.158484 1_456
Li1_3 Li1_6 3.158484 1_555
Li1_3 Li1_5 3.158484 1_555
Li1_3 Li1_5 3.158484 1_465
Li1_4 Li2_5 3.002076 1_554
Li1_4 Li2_0 3.002076 1_555
Li1_4 Li2_6 3.002076 1_545
Li1_4 Li1_7 3.158484 1_545
Li1_4 Li1_7 3.158484 1_554
Li1_5 Li2_4 3.002076 1_555
Li1_5 Li2_7 3.002076 1_545
Li1_5 Li2_1 3.002076 1_555
Li1_5 Li1_6 3.158484 1_555
Li1_5 Li1_6 3.158484 1_546
Li1_6 Li2_7 3.002076 1_554
Li1_6 Li2_2 3.002076 1_555
Li1_6 Li2_4 3.002076 1_555
Li1_7 Li2_6 3.002076 1_555
Li1_7 Li2_5 3.002076 1_555
Li1_7 Li2_3 3.002076 1_555
Cd0_0 Li2_6 2.950153 1_445
Cd0_0 Li0_1 2.950153 1_554
Cd0_0 Li0_2 2.950153 1_545
Cd0_0 Li0_4 2.950153 1_455
Cd0_0 Li2_5 2.950153 1_454
Cd0_0 Li2_3 2.950153 1_544
Cd0_1 Li0_0 2.950153 1_555
Cd0_1 Li2_7 2.950153 1_445
Cd0_1 Li2_2 2.950153 1_545
Cd0_1 Li2_4 2.950153 1_455
Cd0_1 Li0_3 2.950153 1_545
Cd0_1 Li0_5 2.950153 1_455
Cd0_2 Li2_4 2.950153 1_455
Cd0_2 Li0_3 2.950153 1_554
Cd0_2 Li0_6 2.950153 1_455
Cd0_2 Li2_1 2.950153 1_554
Cd0_2 Li0_0 2.950153 1_555
Cd0_2 Li2_7 2.950153 1_454
Cd0_3 Li0_2 2.950153 1_655
Cd0_3 Li2_5 2.950153 1_555
Cd0_3 Li0_7 2.950153 1_555
Cd0_3 Li2_6 2.950153 1_555
Cd0_3 Li0_1 2.950153 1_655
Cd0_3 Li2_0 2.950153 1_655
Cd0_4 Li2_2 2.950153 1_545
Cd0_4 Li0_5 2.950153 1_554
Cd0_4 Li0_6 2.950153 1_545
Cd0_4 Li2_1 2.950153 1_554
Cd0_4 Li0_0 2.950153 1_555
Cd0_4 Li2_7 2.950153 1_544
Cd0_5 Li0_4 2.950153 1_565
Cd0_5 Li2_3 2.950153 1_555
Cd0_5 Li2_6 2.950153 1_555
Cd0_5 Li0_7 2.950153 1_555
Cd0_5 Li0_1 2.950153 1_565
Cd0_5 Li2_0 2.950153 1_565
Cd0_6 Li2_0 2.950153 1_555
Cd0_6 Li0_7 2.950153 1_554
Cd0_6 Li0_2 2.950153 1_555
Cd0_6 Li0_4 2.950153 1_555
Cd0_6 Li2_5 2.950153 1_554
Cd0_6 Li2_3 2.950153 1_554
Cd0_7 Li0_6 2.950153 1_555
Cd0_7 Li2_1 2.950153 1_555
Cd0_7 Li2_4 2.950153 1_555
Cd0_7 Li2_2 2.950153 1_555
Cd0_7 Li0_3 2.950153 1_555
Cd0_7 Li0_5 2.950153 1_555
