# generated using pymatgen
data_HfMg14NiO16
_symmetry_space_group_name_H-M   'P 1'
_cell_length_a   8.60122724
_cell_length_b   8.79479485
_cell_length_c   4.26176146
_cell_angle_alpha   90.00000000
_cell_angle_beta   90.00000000
_cell_angle_gamma   90.00000000
_symmetry_Int_Tables_number   1
_chemical_formula_structural   HfMg14NiO16
_chemical_formula_sum   'Hf1 Mg14 Ni1 O16'
_cell_volume   322.38533114
_cell_formula_units_Z   1
loop_
 _symmetry_equiv_pos_site_id
 _symmetry_equiv_pos_as_xyz
  1  'x, y, z'
loop_
 _atom_site_type_symbol
 _atom_site_label
 _atom_site_symmetry_multiplicity
 _atom_site_fract_x
 _atom_site_fract_y
 _atom_site_fract_z
 _atom_site_occupancy
  Hf  Hf0  1  0.00000000  0.50000000  -0.00000000  1
  Mg  Mg0  1  0.50000000  0.00000000  -0.00000000  1
  Mg  Mg1  1  0.50000000  0.50000000  -0.00000000  1
  Mg  Mg2  1  0.00000000  0.23184704  0.50000000  1
  Mg  Mg3  1  0.00000000  0.76815296  0.50000000  1
  Mg  Mg4  1  0.50000000  0.24668208  0.50000000  1
  Mg  Mg5  1  0.50000000  0.75331792  0.50000000  1
  Mg  Mg6  1  0.24872657  0.00000000  0.50000000  1
  Mg  Mg7  1  0.25804137  0.50000000  0.50000000  1
  Mg  Mg8  1  0.75127343  0.00000000  0.50000000  1
  Mg  Mg9  1  0.74195863  0.50000000  0.50000000  1
  Mg  Mg10  1  0.25284732  0.23911049  0.00000000  1
  Mg  Mg11  1  0.25284732  0.76088951  -0.00000000  1
  Mg  Mg12  1  0.74715268  0.23911049  0.00000000  1
  Mg  Mg13  1  0.74715268  0.76088951  0.00000000  1
  Ni  Ni0  1  0.00000000  0.00000000  -0.00000000  1
  O  O0  1  0.26167388  0.00000000  -0.00000000  1
  O  O1  1  0.25455111  0.50000000  -0.00000000  1
  O  O2  1  0.73832612  0.00000000  -0.00000000  1
  O  O3  1  0.74544889  0.50000000  -0.00000000  1
  O  O4  1  0.24811583  0.24947739  0.50000000  1
  O  O5  1  0.24811583  0.75052261  0.50000000  1
  O  O6  1  0.75188417  0.24947739  0.50000000  1
  O  O7  1  0.75188417  0.75052261  0.50000000  1
  O  O8  1  0.00000000  0.00000000  0.50000000  1
  O  O9  1  0.00000000  0.50000000  0.50000000  1
  O  O10  1  0.50000000  0.00000000  0.50000000  1
  O  O11  1  0.50000000  0.50000000  0.50000000  1
  O  O12  1  0.00000000  0.26768693  -0.00000000  1
  O  O13  1  -0.00000000  0.73231307  -0.00000000  1
  O  O14  1  0.50000000  0.25226538  -0.00000000  1
  O  O15  1  0.50000000  0.74773462  -0.00000000  1
loop_
_geom_bond_atom_site_label_1
_geom_bond_atom_site_label_2
_geom_bond_distance
_geom_bond_site_symmetry_2
Hf0 O12 2.043146 1_555
Hf0 O13 2.043146 1_555
Hf0 O9 2.130881 1_554
Hf0 O9 2.130881 1_555
Hf0 O3 2.189452 1_455
Hf0 O1 2.189452 1_555
Mg0 O0 2.049897 1_555
Mg0 O2 2.049897 1_555
Mg0 O10 2.130881 1_555
Mg0 O10 2.130881 1_554
Mg0 O14 2.218622 1_555
Mg0 O15 2.218622 1_545
Mg1 O1 2.111162 1_555
Mg1 O3 2.111162 1_555
Mg1 O11 2.130881 1_554
Mg1 O11 2.130881 1_555
Mg1 O14 2.178775 1_555
Mg1 O15 2.178775 1_555
Mg2 O8 2.039047 1_555
Mg2 O4 2.139726 1_555
Mg2 O6 2.139726 1_455
Mg2 O12 2.154067 1_556
Mg2 O12 2.154067 1_555
Mg2 O9 2.358350 1_555
Mg3 O8 2.039047 1_565
Mg3 O5 2.139726 1_555
Mg3 O7 2.139726 1_455
Mg3 O13 2.154067 1_555
Mg3 O13 2.154067 1_556
Mg3 O9 2.358350 1_555
Mg4 O14 2.131446 1_556
Mg4 O14 2.131446 1_555
Mg4 O4 2.166652 1_555
Mg4 O6 2.166652 1_555
Mg4 O10 2.169518 1_555
Mg4 O11 2.227879 1_555
Mg5 O15 2.131446 1_556
Mg5 O15 2.131446 1_555
Mg5 O7 2.166652 1_555
Mg5 O5 2.166652 1_555
Mg5 O10 2.169518 1_565
Mg5 O11 2.227879 1_555
Mg6 O0 2.133789 1_556
Mg6 O0 2.133789 1_555
Mg6 O8 2.139354 1_555
Mg6 O10 2.161260 1_555
Mg6 O4 2.194109 1_555
Mg6 O5 2.194109 1_545
Mg7 O11 2.081141 1_555
Mg7 O1 2.131092 1_555
Mg7 O1 2.131092 1_556
Mg7 O4 2.204948 1_555
Mg7 O5 2.204948 1_555
Mg7 O9 2.219472 1_555
Mg8 O2 2.133789 1_556
Mg8 O2 2.133789 1_555
Mg8 O8 2.139354 1_655
Mg8 O10 2.161260 1_555
Mg8 O7 2.194109 1_545
Mg8 O6 2.194109 1_555
Mg9 O11 2.081141 1_555
Mg9 O3 2.131092 1_556
Mg9 O3 2.131092 1_555
Mg9 O6 2.204948 1_555
Mg9 O7 2.204948 1_555
Mg9 O9 2.219472 1_655
Mg10 O0 2.104298 1_555
Mg10 O14 2.128962 1_555
Mg10 O4 2.133219 1_554
Mg10 O4 2.133219 1_555
Mg10 O12 2.189271 1_555
Mg10 O1 2.294517 1_555
Mg11 O0 2.104298 1_565
Mg11 O15 2.128962 1_555
Mg11 O5 2.133219 1_555
Mg11 O5 2.133219 1_554
Mg11 O13 2.189271 1_555
Mg11 O1 2.294517 1_555
Mg12 O2 2.104298 1_555
Mg12 O14 2.128962 1_555
Mg12 O6 2.133219 1_555
Mg12 O6 2.133219 1_554
Mg12 O12 2.189271 1_655
Mg12 O3 2.294517 1_555
Mg13 O2 2.104298 1_565
Mg13 O15 2.128962 1_555
Mg13 O7 2.133219 1_555
Mg13 O7 2.133219 1_554
Mg13 O13 2.189271 1_655
Mg13 O3 2.294517 1_555
Ni0 O8 2.130881 1_555
Ni0 O8 2.130881 1_554
Ni0 O0 2.250717 1_555
Ni0 O2 2.250717 1_455
Ni0 O13 2.354252 1_545
Ni0 O12 2.354252 1_555
