# generated using pymatgen
data_Zr2MoPt
_symmetry_space_group_name_H-M   'P 1'
_cell_length_a   11.20074029
_cell_length_b   11.20074029
_cell_length_c   11.20074029
_cell_angle_alpha   130.48384786
_cell_angle_beta   117.42970322
_cell_angle_gamma   83.69081551
_symmetry_Int_Tables_number   1
_chemical_formula_structural   Zr2MoPt
_chemical_formula_sum   'Zr2 Mo1 Pt1'
_cell_volume   910.61781155
_cell_formula_units_Z   1
loop_
 _symmetry_equiv_pos_site_id
 _symmetry_equiv_pos_as_xyz
  1  'x, y, z'
loop_
 _atom_site_type_symbol
 _atom_site_label
 _atom_site_symmetry_multiplicity
 _atom_site_fract_x
 _atom_site_fract_y
 _atom_site_fract_z
 _atom_site_occupancy
  Zr  Zr0  1  -0.00000000  0.23506227  0.23506227  1
  Zr  Zr1  1  0.00000000  0.76493773  0.76493773  1
  Mo  Mo0  1  -0.00000000  -0.00000000  -0.00000000  1
  Pt  Pt0  1  -0.00000000  0.50000000  0.50000000  1
loop_
_geom_bond_atom_site_label_1
_geom_bond_atom_site_label_2
_geom_bond_distance
_geom_bond_site_symmetry_2
Mo0 Zr0 2.205229 1_555
Mo0 Zr1 2.205229 1_544
Pt0 Zr1 2.485504 1_555
Pt0 Zr0 2.485504 1_555
