# generated using pymatgen
data_Ba4Nd8Cu3PtO20
_symmetry_space_group_name_H-M   'P 1'
_cell_length_a   5.90881600
_cell_length_b   6.78118300
_cell_length_c   13.56743264
_cell_angle_alpha   89.85634900
_cell_angle_beta   90.00000000
_cell_angle_gamma   90.00000000
_symmetry_Int_Tables_number   1
_chemical_formula_structural   Ba4Nd8Cu3PtO20
_chemical_formula_sum   'Ba4 Nd8 Cu3 Pt1 O20'
_cell_volume   543.62852914
_cell_formula_units_Z   1
loop_
 _symmetry_equiv_pos_site_id
 _symmetry_equiv_pos_as_xyz
  1  'x, y, z'
loop_
 _atom_site_type_symbol
 _atom_site_label
 _atom_site_symmetry_multiplicity
 _atom_site_fract_x
 _atom_site_fract_y
 _atom_site_fract_z
 _atom_site_occupancy
  Ba  Ba0  1  0.00000000  0.50000000  0.50000000  1
  Ba  Ba1  1  0.00000000  0.50000000  0.00000000  1
  Ba  Ba2  1  0.00000000  0.00141600  0.75018400  1
  Ba  Ba3  1  0.00000000  0.99858400  0.24981600  1
  Nd  Nd0  1  0.50000000  0.82416400  0.41225400  1
  Nd  Nd1  1  0.50000000  0.82643900  0.91312900  1
  Nd  Nd2  1  0.50000000  0.17583600  0.58774600  1
  Nd  Nd3  1  0.50000000  0.17356100  0.08687100  1
  Nd  Nd4  1  0.50000000  0.67156500  0.66458700  1
  Nd  Nd5  1  0.50000000  0.67409200  0.16268800  1
  Nd  Nd6  1  0.50000000  0.32843500  0.33541300  1
  Nd  Nd7  1  0.50000000  0.32590800  0.83731200  1
  Cu  Cu0  1  0.00000000  0.00000000  0.00000000  1
  Cu  Cu1  1  0.00000000  0.50042200  0.75009000  1
  Cu  Cu2  1  0.00000000  0.49957800  0.24991000  1
  Pt  Pt0  1  0.00000000  0.00000000  0.50000000  1
  O  O0  1  0.25202100  0.14272800  0.42861600  1
  O  O1  1  0.24348800  0.13846300  0.93078700  1
  O  O2  1  0.25202100  0.85727200  0.57138400  1
  O  O3  1  0.24348800  0.86153700  0.06921300  1
  O  O4  1  0.24500700  0.36289900  0.68150700  1
  O  O5  1  0.24369900  0.36134900  0.18065100  1
  O  O6  1  0.24500700  0.63710100  0.31849300  1
  O  O7  1  0.24369900  0.63865100  0.81934900  1
  O  O8  1  0.74797900  0.85727200  0.57138400  1
  O  O9  1  0.75651200  0.86153700  0.06921300  1
  O  O10  1  0.74797900  0.14272800  0.42861600  1
  O  O11  1  0.75651200  0.13846300  0.93078700  1
  O  O12  1  0.75499300  0.63710100  0.31849300  1
  O  O13  1  0.75630100  0.63865100  0.81934900  1
  O  O14  1  0.75499300  0.36289900  0.68150700  1
  O  O15  1  0.75630100  0.36134900  0.18065100  1
  O  O16  1  0.50000000  0.50000000  0.50000000  1
  O  O17  1  0.50000000  0.50000000  0.00000000  1
  O  O18  1  0.50000000  0.00056300  0.75057200  1
  O  O19  1  0.50000000  0.99943700  0.24942800  1
loop_
_geom_bond_atom_site_label_1
_geom_bond_atom_site_label_2
_geom_bond_distance
_geom_bond_site_symmetry_2
Ba0 O16 2.954408 1_455
Ba0 O16 2.954408 1_555
Ba0 O4 3.002171 1_555
Ba0 O14 3.002171 1_455
Ba0 O6 3.002171 1_555
Ba0 O12 3.002171 1_455
Ba0 O2 3.006146 1_555
Ba0 O8 3.006146 1_455
Ba0 O0 3.006146 1_555
Ba0 O10 3.006146 1_455
Ba1 O17 2.954408 1_455
Ba1 O17 2.954408 1_555
Ba1 O15 2.992195 1_455
Ba1 O5 2.992195 1_555
Ba1 O13 2.992195 1_454
Ba1 O7 2.992195 1_554
Ba1 O3 2.995640 1_555
Ba1 O9 2.995640 1_455
Ba1 O1 2.995640 1_554
Ba1 O11 2.995640 1_454
Ba2 O18 2.954418 1_555
Ba2 O18 2.954418 1_455
Ba2 O1 2.991503 1_555
Ba2 O11 2.991503 1_455
Ba2 O4 2.993554 1_555
Ba2 O14 2.993554 1_455
Ba2 O13 2.999001 1_445
Ba2 O7 2.999001 1_545
Ba2 O8 3.011589 1_445
Ba2 O2 3.011589 1_545
Ba3 O19 2.954418 1_455
Ba3 O19 2.954418 1_555
Ba3 O3 2.991503 1_555
Ba3 O9 2.991503 1_455
Ba3 O6 2.993554 1_555
Ba3 O12 2.993554 1_455
Ba3 O15 2.999001 1_465
Ba3 O5 2.999001 1_565
Ba3 O0 3.011589 1_565
Ba3 O10 3.011589 1_465
Nd0 O12 2.346401 1_555
Nd0 O6 2.346401 1_555
Nd0 O16 2.497257 1_555
Nd0 O19 2.505946 1_555
Nd0 O8 2.619360 1_555
Nd0 O2 2.619360 1_555
Nd0 O0 2.620175 1_565
Nd0 O10 2.620175 1_565
Nd1 O13 2.354174 1_555
Nd1 O7 2.354174 1_555
Nd1 O18 2.499060 1_565
Nd1 O17 2.505248 1_556
Nd1 O11 2.614236 1_565
Nd1 O1 2.614236 1_565
Nd1 O9 2.615520 1_556
Nd1 O3 2.615520 1_556
Nd2 O14 2.346401 1_555
Nd2 O4 2.346401 1_555
Nd2 O16 2.497257 1_555
Nd2 O18 2.505946 1_555
Nd2 O10 2.619360 1_555
Nd2 O0 2.619360 1_555
Nd2 O8 2.620175 1_545
Nd2 O2 2.620175 1_545
Nd3 O15 2.354174 1_555
Nd3 O5 2.354174 1_555
Nd3 O19 2.499060 1_545
Nd3 O17 2.505248 1_555
Nd3 O9 2.614236 1_545
Nd3 O3 2.614236 1_545
Nd3 O11 2.615520 1_554
Nd3 O1 2.615520 1_554
Nd4 O8 2.307358 1_555
Nd4 O2 2.307358 1_555
Nd4 O18 2.520186 1_565
Nd4 O16 2.520506 1_555
Nd4 O14 2.588746 1_555
Nd4 O4 2.588746 1_555
Nd4 O7 2.598041 1_555
Nd4 O13 2.598041 1_555
Nd5 O9 2.348036 1_555
Nd5 O3 2.348036 1_555
Nd5 O19 2.503077 1_555
Nd5 O17 2.505744 1_555
Nd5 O12 2.607468 1_555
Nd5 O6 2.607468 1_555
Nd5 O5 2.616863 1_555
Nd5 O15 2.616863 1_555
Nd6 O10 2.307358 1_555
Nd6 O0 2.307358 1_555
Nd6 O19 2.520186 1_545
Nd6 O16 2.520506 1_555
Nd6 O12 2.588746 1_555
Nd6 O6 2.588746 1_555
Nd6 O5 2.598041 1_555
Nd6 O15 2.598041 1_555
Nd7 O11 2.348036 1_555
Nd7 O1 2.348036 1_555
Nd7 O18 2.503077 1_555
Nd7 O17 2.505744 1_556
Nd7 O14 2.607468 1_555
Nd7 O4 2.607468 1_555
Nd7 O13 2.616863 1_555
Nd7 O7 2.616863 1_555
Cu0 O3 1.956764 1_545
Cu0 O9 1.956764 1_445
Cu0 O1 1.956764 1_554
Cu0 O11 1.956764 1_454
Cu1 O4 1.958493 1_555
Cu1 O14 1.958493 1_455
Cu1 O7 1.959476 1_555
Cu1 O13 1.959476 1_455
Cu2 O6 1.958493 1_555
Cu2 O12 1.958493 1_455
Cu2 O5 1.959476 1_555
Cu2 O15 1.959476 1_455
O0 Pt0 2.021782 1_555
O2 Pt0 2.021782 1_565
O8 Pt0 2.021782 1_665
O10 Pt0 2.021782 1_655
