# generated using pymatgen
data_Li2V3CoO8
_symmetry_space_group_name_H-M   'P 1'
_cell_length_a   8.41062091
_cell_length_b   8.40960522
_cell_length_c   8.40914483
_cell_angle_alpha   89.98536958
_cell_angle_beta   90.04876543
_cell_angle_gamma   89.97835910
_symmetry_Int_Tables_number   1
_chemical_formula_structural   Li2V3CoO8
_chemical_formula_sum   'Li8 V12 Co4 O32'
_cell_volume   594.77854924
_cell_formula_units_Z   4
loop_
 _symmetry_equiv_pos_site_id
 _symmetry_equiv_pos_as_xyz
  1  'x, y, z'
loop_
 _atom_site_type_symbol
 _atom_site_label
 _atom_site_symmetry_multiplicity
 _atom_site_fract_x
 _atom_site_fract_y
 _atom_site_fract_z
 _atom_site_occupancy
  Li  Li0  1  0.12586800  0.87443300  0.37391400  1
  Li  Li1  1  0.24772500  0.74796500  0.75220600  1
  Li  Li2  1  0.25216100  0.25201800  0.25195400  1
  Li  Li3  1  0.37425800  0.12570800  0.87398100  1
  Li  Li4  1  0.62586400  0.62601400  0.62572500  1
  Li  Li5  1  0.74792700  0.75216000  0.24816000  1
  Li  Li6  1  0.75216100  0.24782600  0.74784200  1
  Li  Li7  1  0.87411700  0.37401700  0.12584100  1
  V  V0  1  0.11936000  0.62160600  0.12721500  1
  V  V1  1  0.12144400  0.37416900  0.88039500  1
  V  V2  1  0.12552100  0.12046400  0.62165200  1
  V  V3  1  0.37370800  0.87977900  0.12105400  1
  V  V4  1  0.37842100  0.62544300  0.37933300  1
  V  V5  1  0.37960400  0.37861200  0.62557500  1
  V  V6  1  0.62125400  0.87828400  0.87504700  1
  V  V7  1  0.62148400  0.12586800  0.12049300  1
  V  V8  1  0.62707700  0.38011500  0.37873400  1
  V  V9  1  0.87526400  0.62067100  0.87798400  1
  V  V10  1  0.87854900  0.87361600  0.62052900  1
  V  V11  1  0.87977900  0.12113700  0.37428300  1
  Co  Co0  1  0.00105800  0.49885900  0.50106800  1
  Co  Co1  1  0.49895700  0.50118300  0.00117900  1
  Co  Co2  1  0.50104200  0.00102700  0.49903300  1
  Co  Co3  1  0.99857900  0.99895800  0.99864200  1
  O  O0  1  0.10891300  0.13030800  0.39851000  1
  O  O1  1  0.10134100  0.89056400  0.62994200  1
  O  O2  1  0.11176800  0.61188700  0.88803900  1
  O  O3  1  0.13058200  0.39822500  0.10901600  1
  O  O4  1  0.12145000  0.14004200  0.85529200  1
  O  O5  1  0.13739900  0.36259800  0.63768000  1
  O  O6  1  0.14293400  0.62153800  0.35962200  1
  O  O7  1  0.13971900  0.85588000  0.12186100  1
  O  O8  1  0.35926000  0.14453000  0.62243400  1
  O  O9  1  0.35567300  0.37756600  0.85949900  1
  O  O10  1  0.36132900  0.63814600  0.13841100  1
  O  O11  1  0.37784300  0.85939000  0.35538900  1
  O  O12  1  0.36980700  0.60153700  0.60893200  1
  O  O13  1  0.38806200  0.38799100  0.38785400  1
  O  O14  1  0.39876800  0.10934700  0.12982900  1
  O  O15  1  0.39112900  0.86983900  0.89854500  1
  O  O16  1  0.60915700  0.36984100  0.60143600  1
  O  O17  1  0.60119800  0.60936500  0.36982600  1
  O  O18  1  0.61194200  0.88768600  0.11205200  1
  O  O19  1  0.62998900  0.10103500  0.89036300  1
  O  O20  1  0.62251600  0.35965100  0.14443700  1
  O  O21  1  0.63866700  0.13821600  0.36193500  1
  O  O22  1  0.64479000  0.87798500  0.64070500  1
  O  O23  1  0.64112000  0.64438500  0.87830100  1
  O  O24  1  0.85979200  0.35686200  0.37834100  1
  O  O25  1  0.85529000  0.12153200  0.14002200  1
  O  O26  1  0.86302400  0.86220100  0.86285100  1
  O  O27  1  0.87879600  0.64023500  0.64299300  1
  O  O28  1  0.86987300  0.89845800  0.39097700  1
  O  O29  1  0.88773100  0.11173800  0.61191800  1
  O  O30  1  0.89824500  0.39133800  0.86959600  1
  O  O31  1  0.89071300  0.63023300  0.10163900  1
loop_
_geom_bond_atom_site_label_1
_geom_bond_atom_site_label_2
_geom_bond_distance
_geom_bond_site_symmetry_2
Li0 O7 2.128611 1_555
Li0 O11 2.128833 1_555
Li0 O6 2.134954 1_555
Li0 O0 2.166434 1_565
Li0 O1 2.167291 1_555
Li0 O28 2.167340 1_455
Li1 O2 1.981003 1_555
Li1 O1 2.001762 1_555
Li1 O15 2.004633 1_555
Li1 O12 2.006021 1_555
Li2 O13 1.979760 1_555
Li2 O3 1.999592 1_555
Li2 O14 2.004069 1_555
Li2 O0 2.005199 1_555
Li3 O8 2.124806 1_555
Li3 O9 2.127178 1_555
Li3 O4 2.135296 1_555
Li3 O19 2.165031 1_555
Li3 O14 2.165477 1_556
Li3 O15 2.166184 1_545
Li4 O22 2.128761 1_555
Li4 O23 2.133356 1_555
Li4 O27 2.135540 1_555
Li4 O17 2.166263 1_555
Li4 O12 2.167978 1_555
Li4 O16 2.168625 1_555
Li5 O18 1.978174 1_555
Li5 O28 2.001883 1_555
Li5 O31 2.003474 1_555
Li5 O17 2.003594 1_555
Li6 O29 1.979454 1_555
Li6 O16 2.002778 1_555
Li6 O30 2.003504 1_555
Li6 O19 2.004588 1_555
Li7 O20 2.125503 1_555
Li7 O24 2.131681 1_555
Li7 O25 2.132569 1_555
Li7 O31 2.168774 1_555
Li7 O30 2.169372 1_554
Li7 O3 2.171423 1_655
Co0 O27 1.974127 1_455
Co0 O24 1.975431 1_455
Co0 O6 1.976294 1_555
Co0 O5 1.985913 1_555
Co1 O20 1.985962 1_555
Co1 O23 1.987507 1_554
Co1 O9 1.987857 1_554
Co1 O10 2.000054 1_555
Co2 O22 1.986868 1_545
Co2 O11 1.987720 1_545
Co2 O8 1.989182 1_555
Co2 O21 2.000649 1_555
Co3 O26 1.981375 1_555
Co3 O7 1.981600 1_656
Co3 O25 1.982550 1_566
Co3 O4 1.982694 1_665
O0 V2 1.883304 1_555
O0 V11 1.939291 1_455
O1 V10 1.880886 1_455
O1 V2 1.945349 1_565
O2 V9 1.992211 1_455
O2 V1 2.001791 1_555
O2 V0 2.013906 1_556
O3 V0 1.887141 1_555
O3 V1 1.934638 1_554
O4 V2 1.971966 1_555
O4 V1 1.980253 1_555
O5 V2 2.043217 1_555
O5 V5 2.044213 1_555
O5 V1 2.047882 1_555
O6 V0 1.964208 1_555
O6 V4 1.987659 1_555
O7 V0 1.978148 1_555
O7 V3 1.978321 1_555
O8 V5 1.976205 1_555
O8 V2 1.976362 1_555
O9 V5 1.977559 1_555
O9 V1 1.978198 1_555
O10 V4 2.033697 1_555
O10 V3 2.039940 1_555
O10 V0 2.042003 1_555
O11 V4 1.977631 1_555
O11 V3 1.978234 1_555
O12 V5 1.881661 1_555
O12 V4 1.942534 1_555
O13 V4 1.999756 1_555
O13 V5 2.001891 1_555
O13 V8 2.012858 1_555
O14 V7 1.880083 1_555
O14 V3 1.943540 1_545
O15 V3 1.878842 1_556
O15 V6 1.947042 1_555
O16 V8 1.880882 1_555
O16 V5 1.942872 1_555
O17 V4 1.880284 1_555
O17 V8 1.941488 1_555
O18 V6 1.996200 1_554
O18 V7 2.005926 1_565
O18 V3 2.006316 1_555
O19 V6 1.879163 1_545
O19 V7 1.947857 1_556
O20 V7 1.976379 1_555
O20 V8 1.978124 1_555
O21 V11 2.035488 1_555
O21 V7 2.038012 1_555
O21 V8 2.041508 1_555
O22 V10 1.973838 1_555
O22 V6 1.980703 1_555
O23 V6 1.974200 1_555
O23 V9 1.979297 1_555
O24 V8 1.966954 1_555
O24 V11 1.989709 1_555
O25 V7 1.973482 1_555
O25 V11 1.980500 1_555
O26 V9 2.037680 1_555
O26 V6 2.040546 1_555
O26 V10 2.044244 1_555
O27 V10 1.971664 1_555
O27 V9 1.983117 1_555
O28 V11 1.879745 1_565
O28 V10 1.942861 1_555
O29 V11 2.000910 1_555
O29 V2 2.002939 1_655
O29 V10 2.005321 1_545
O30 V1 1.884842 1_655
O30 V9 1.939496 1_555
O31 V9 1.886857 1_554
O31 V0 1.936201 1_655
