# generated using pymatgen
data_Li3MnCo3O8
_symmetry_space_group_name_H-M   'P 1'
_cell_length_a   5.80664778
_cell_length_b   10.28184938
_cell_length_c   5.84586525
_cell_angle_alpha   73.60264718
_cell_angle_beta   60.78792614
_cell_angle_gamma   74.36468661
_symmetry_Int_Tables_number   1
_chemical_formula_structural   Li3MnCo3O8
_chemical_formula_sum   'Li6 Mn2 Co6 O16'
_cell_volume   288.59811785
_cell_formula_units_Z   2
loop_
 _symmetry_equiv_pos_site_id
 _symmetry_equiv_pos_as_xyz
  1  'x, y, z'
loop_
 _atom_site_type_symbol
 _atom_site_label
 _atom_site_symmetry_multiplicity
 _atom_site_fract_x
 _atom_site_fract_y
 _atom_site_fract_z
 _atom_site_occupancy
  Li  Li0  1  0.75546400  0.74979200  0.75068200  1
  Li  Li1  1  0.24453200  0.25017100  0.24945200  1
  Li  Li2  1  0.25158500  0.74819600  0.24490100  1
  Li  Li3  1  0.74851000  0.25181000  0.75498500  1
  Li  Li4  1  0.75994800  0.74776400  0.24236200  1
  Li  Li5  1  0.24011200  0.25220900  0.75759500  1
  Mn  Mn0  1  0.49992700  0.49998300  0.49999800  1
  Mn  Mn1  1  0.99987700  0.00005900  0.00014000  1
  Co  Co0  1  0.99998300  0.49999900  0.49998900  1
  Co  Co1  1  0.50004800  0.99997500  0.99997500  1
  Co  Co2  1  0.50003900  0.50000000  0.99995800  1
  Co  Co3  1  0.00003000  0.00000500  0.50004100  1
  Co  Co4  1  0.99998000  0.49997900  0.00003100  1
  Co  Co5  1  0.49998300  0.99998900  0.50004500  1
  O  O0  1  0.88557700  0.88675400  0.35680900  1
  O  O1  1  0.37353400  0.38677600  0.85355700  1
  O  O2  1  0.62643700  0.61319200  0.14642400  1
  O  O3  1  0.11445100  0.11325100  0.64320800  1
  O  O4  1  0.11284500  0.60479400  0.15415400  1
  O  O5  1  0.61966300  0.10666600  0.66696700  1
  O  O6  1  0.38041400  0.89333800  0.33299200  1
  O  O7  1  0.88719600  0.39519400  0.84576300  1
  O  O8  1  0.88130500  0.88611200  0.87657500  1
  O  O9  1  0.34576600  0.39324700  0.39437000  1
  O  O10  1  0.35743200  0.89283100  0.88998400  1
  O  O11  1  0.86039600  0.39275500  0.38881600  1
  O  O12  1  0.13953300  0.60725700  0.61116100  1
  O  O13  1  0.64249600  0.10722300  0.11006100  1
  O  O14  1  0.65420100  0.60674400  0.60555400  1
  O  O15  1  0.11873400  0.11393600  0.12345200  1
loop_
_geom_bond_atom_site_label_1
_geom_bond_atom_site_label_2
_geom_bond_distance
_geom_bond_site_symmetry_2
Li0 O8 2.167830 1_555
Li0 O14 2.210515 1_555
Li0 O0 2.213672 1_555
Li0 O12 2.219067 1_655
Li0 O2 2.219659 1_556
Li0 O10 2.274809 1_555
Li1 O15 2.167362 1_555
Li1 O9 2.209791 1_555
Li1 O3 2.213008 1_555
Li1 O11 2.219510 1_455
Li1 O1 2.220306 1_554
Li1 O13 2.274126 1_555
Li2 O10 2.097612 1_554
Li2 O6 2.112698 1_555
Li2 O12 2.122328 1_555
Li2 O0 2.124011 1_455
Li2 O2 2.143694 1_555
Li2 O4 2.145564 1_555
Li3 O13 2.097963 1_556
Li3 O5 2.112522 1_555
Li3 O11 2.122005 1_555
Li3 O3 2.123749 1_655
Li3 O1 2.144005 1_555
Li3 O7 2.145305 1_555
Li4 O2 2.066583 1_555
Li4 O4 2.097308 1_655
Li4 O8 2.108237 1_554
Li4 O14 2.111048 1_555
Li4 O0 2.144794 1_555
Li4 O6 2.215365 1_555
Li5 O1 2.066275 1_555
Li5 O7 2.097468 1_455
Li5 O15 2.108141 1_556
Li5 O9 2.111275 1_555
Li5 O3 2.144407 1_555
Li5 O5 2.215283 1_555
Mn0 O1 1.946005 1_555
Mn0 O2 1.946089 1_555
Mn0 O9 1.959246 1_555
Mn0 O14 1.959652 1_555
Mn0 O12 1.962468 1_555
Mn0 O11 1.962618 1_555
Mn1 O15 1.940266 1_655
Mn1 O8 1.940745 1_544
Mn1 O13 1.949108 1_555
Mn1 O10 1.950070 1_644
Mn1 O0 1.959510 1_545
Mn1 O3 1.960155 1_654
Co0 O7 1.880006 1_555
Co0 O4 1.880224 1_655
Co0 O14 1.897879 1_555
Co0 O9 1.897902 1_655
Co0 O12 1.922379 1_655
Co0 O11 1.922430 1_555
Co1 O6 1.833042 1_556
Co1 O5 1.833225 1_565
Co1 O10 1.929832 1_555
Co1 O13 1.930330 1_566
Co1 O8 2.076768 1_555
Co1 O15 2.077386 1_566
Co2 O2 2.064634 1_556
Co2 O1 2.065047 1_555
Co2 O7 2.071779 1_555
Co2 O4 2.071893 1_556
Co2 O14 2.099555 1_555
Co2 O9 2.099641 1_556
Co3 O3 2.001908 1_555
Co3 O0 2.002360 1_445
Co3 O8 2.047039 1_445
Co3 O15 2.047424 1_555
Co3 O5 2.056200 1_455
Co3 O6 2.056365 1_545
Co4 O4 1.976858 1_655
Co4 O7 1.976947 1_554
Co4 O2 2.044920 1_555
Co4 O1 2.044952 1_654
Co4 O11 2.075284 1_555
Co4 O12 2.075841 1_654
Co5 O6 2.077259 1_555
Co5 O5 2.077316 1_565
Co5 O10 2.080188 1_555
Co5 O13 2.080641 1_565
Co5 O3 2.093896 1_565
Co5 O0 2.094066 1_555
