# generated using pymatgen
data_Ag2P2PdO7
_symmetry_space_group_name_H-M   'P 1'
_cell_length_a   8.52051774
_cell_length_b   8.52051774
_cell_length_c   8.34004967
_cell_angle_alpha   64.79591403
_cell_angle_beta   64.79591403
_cell_angle_gamma   39.87132263
_symmetry_Int_Tables_number   1
_chemical_formula_structural   Ag2P2PdO7
_chemical_formula_sum   'Ag4 P4 Pd2 O14'
_cell_volume   346.04480764
_cell_formula_units_Z   2
loop_
 _symmetry_equiv_pos_site_id
 _symmetry_equiv_pos_as_xyz
  1  'x, y, z'
loop_
 _atom_site_type_symbol
 _atom_site_label
 _atom_site_symmetry_multiplicity
 _atom_site_fract_x
 _atom_site_fract_y
 _atom_site_fract_z
 _atom_site_occupancy
  Ag  Ag0  1  0.62461500  0.90649700  0.79373300  1
  Ag  Ag1  1  0.09350300  0.37538500  0.70626700  1
  Ag  Ag2  1  0.37538500  0.09350300  0.20626700  1
  Ag  Ag3  1  0.90649700  0.62461500  0.29373300  1
  P  P0  1  0.24157200  0.55671500  0.84210100  1
  P  P1  1  0.44328500  0.75842800  0.65789900  1
  P  P2  1  0.75842800  0.44328500  0.15789900  1
  P  P3  1  0.55671500  0.24157200  0.34210100  1
  Pd  Pd0  1  0.00000000  0.00000000  0.00000000  1
  Pd  Pd1  1  0.00000000  0.00000000  0.50000000  1
  O  O0  1  0.69881200  0.65859800  0.59528100  1
  O  O1  1  0.34140200  0.30118800  0.90471900  1
  O  O2  1  0.30118800  0.34140200  0.40471900  1
  O  O3  1  0.65859800  0.69881200  0.09528100  1
  O  O4  1  0.47381400  0.52618600  0.75000000  1
  O  O5  1  0.52618600  0.47381400  0.25000000  1
  O  O6  1  0.29215300  0.91914500  0.80500100  1
  O  O7  1  0.08085500  0.70784700  0.69499900  1
  O  O8  1  0.70784700  0.08085500  0.19499900  1
  O  O9  1  0.91914500  0.29215300  0.30500100  1
  O  O10  1  0.68896800  0.10328100  0.50502200  1
  O  O11  1  0.89671900  0.31103200  0.99497800  1
  O  O12  1  0.31103200  0.89671900  0.49497800  1
  O  O13  1  0.10328100  0.68896800  0.00502200  1
loop_
_geom_bond_atom_site_label_1
_geom_bond_atom_site_label_2
_geom_bond_distance
_geom_bond_site_symmetry_2
Ag0 O3 2.362941 1_556
Ag0 O10 2.399592 1_565
Ag0 O1 2.506319 1_565
Ag0 O7 2.648727 1_655
Ag0 O6 2.712603 1_555
Ag0 O0 2.763532 1_555
Ag1 O2 2.362941 1_555
Ag1 O11 2.399592 1_455
Ag1 O0 2.506319 1_455
Ag1 O6 2.648727 1_545
Ag1 O7 2.712603 1_555
Ag1 O1 2.763532 1_555
Ag2 O1 2.362941 1_554
Ag2 O12 2.399592 1_545
Ag2 O3 2.506319 1_545
Ag2 O9 2.648727 1_455
Ag2 O8 2.712603 1_555
Ag2 O2 2.763532 1_555
Ag3 O0 2.362941 1_555
Ag3 O13 2.399592 1_655
Ag3 O2 2.506319 1_655
Ag3 O8 2.648727 1_565
Ag3 O9 2.712603 1_555
Ag3 O3 2.763532 1_555
O0 P1 1.517828 1_555
O1 P0 1.517828 1_555
O2 P3 1.517828 1_555
O3 P2 1.517828 1_555
O4 P1 1.630623 1_555
O4 P0 1.630623 1_555
O5 P2 1.630623 1_555
O5 P3 1.630623 1_555
O6 P1 1.554723 1_555
O6 Pd0 2.046946 1_566
O7 P0 1.554723 1_555
O7 Pd1 2.046946 1_565
O8 P3 1.554723 1_555
O8 Pd0 2.046946 1_655
O9 P2 1.554723 1_555
O9 Pd1 2.046946 1_655
O10 P3 1.551395 1_555
O10 Pd1 2.038760 1_655
O11 P2 1.551395 1_556
O11 Pd0 2.038760 1_656
O12 P1 1.551395 1_555
O12 Pd1 2.038760 1_565
O13 P0 1.551395 1_554
O13 Pd0 2.038760 1_565
