# generated using pymatgen
data_SrCdP2O7
_symmetry_space_group_name_H-M   'P 1'
_cell_length_a   8.67225500
_cell_length_b   5.50838600
_cell_length_c   14.24837001
_cell_angle_alpha   67.42782112
_cell_angle_beta   90.00000000
_cell_angle_gamma   90.00000000
_symmetry_Int_Tables_number   1
_chemical_formula_structural   SrCdP2O7
_chemical_formula_sum   'Sr4 Cd4 P8 O28'
_cell_volume   628.50670194
_cell_formula_units_Z   4
loop_
 _symmetry_equiv_pos_site_id
 _symmetry_equiv_pos_as_xyz
  1  'x, y, z'
loop_
 _atom_site_type_symbol
 _atom_site_label
 _atom_site_symmetry_multiplicity
 _atom_site_fract_x
 _atom_site_fract_y
 _atom_site_fract_z
 _atom_site_occupancy
  Sr  Sr0  1  0.32416100  0.51294800  0.77014800  1
  Sr  Sr1  1  0.82416100  0.48705200  0.72985200  1
  Sr  Sr2  1  0.67583900  0.48705200  0.22985200  1
  Sr  Sr3  1  0.17583900  0.51294800  0.27014800  1
  Cd  Cd0  1  0.35536400  0.21964500  0.09363000  1
  Cd  Cd1  1  0.85536400  0.78035500  0.40637000  1
  Cd  Cd2  1  0.64463600  0.78035500  0.90637000  1
  Cd  Cd3  1  0.14463600  0.21964500  0.59363000  1
  P  P0  1  0.21637600  0.82391300  0.47326300  1
  P  P1  1  0.71637600  0.17608700  0.02673700  1
  P  P2  1  0.78362400  0.17608700  0.52673700  1
  P  P3  1  0.28362400  0.82391300  0.97326300  1
  P  P4  1  0.46883600  0.93309500  0.32489300  1
  P  P5  1  0.96883600  0.06690500  0.17510700  1
  P  P6  1  0.53116400  0.06690500  0.67510700  1
  P  P7  1  0.03116400  0.93309500  0.82489300  1
  O  O0  1  0.11642000  0.71972800  0.40657600  1
  O  O1  1  0.61642000  0.28027200  0.09342400  1
  O  O2  1  0.88358000  0.28027200  0.59342400  1
  O  O3  1  0.38358000  0.71972800  0.90657600  1
  O  O4  1  0.17446700  0.10921900  0.45646800  1
  O  O5  1  0.67446700  0.89078100  0.04353200  1
  O  O6  1  0.82553300  0.89078100  0.54353200  1
  O  O7  1  0.32553300  0.10921900  0.95646800  1
  O  O8  1  0.21333900  0.63176000  0.58454000  1
  O  O9  1  0.71333900  0.36824000  0.91546000  1
  O  O10  1  0.78666100  0.36824000  0.41546000  1
  O  O11  1  0.28666100  0.63176000  0.08454000  1
  O  O12  1  0.44656400  0.72686400  0.27851400  1
  O  O13  1  0.94656400  0.27313600  0.22148600  1
  O  O14  1  0.55343600  0.27313600  0.72148600  1
  O  O15  1  0.05343600  0.72686400  0.77851400  1
  O  O16  1  0.10666600  0.81794200  0.93810000  1
  O  O17  1  0.60666600  0.18205800  0.56190000  1
  O  O18  1  0.89333400  0.18205800  0.06190000  1
  O  O19  1  0.39333400  0.81794200  0.43810000  1
  O  O20  1  0.86302100  0.98996500  0.84095800  1
  O  O21  1  0.36302100  0.01003500  0.65904200  1
  O  O22  1  0.13697900  0.01003500  0.15904200  1
  O  O23  1  0.63697900  0.98996500  0.34095800  1
  O  O24  1  0.11172700  0.19597200  0.76308700  1
  O  O25  1  0.61172700  0.80402800  0.73691300  1
  O  O26  1  0.88827300  0.80402800  0.23691300  1
  O  O27  1  0.38827300  0.19597200  0.26308700  1
loop_
_geom_bond_atom_site_label_1
_geom_bond_atom_site_label_2
_geom_bond_distance
_geom_bond_site_symmetry_2
Cd0 O22 2.227661 1_555
Cd0 O7 2.273532 1_554
Cd0 O1 2.288280 1_555
Cd0 O11 2.302032 1_555
Cd0 O27 2.384636 1_555
Cd1 O23 2.227661 1_555
Cd1 O6 2.273532 1_555
Cd1 O0 2.288280 1_655
Cd1 O10 2.302032 1_555
Cd1 O26 2.384636 1_555
Cd2 O20 2.227661 1_555
Cd2 O5 2.273532 1_556
Cd2 O3 2.288280 1_555
Cd2 O9 2.302032 1_555
Cd2 O25 2.384636 1_555
Cd3 O21 2.227661 1_555
Cd3 O4 2.273532 1_555
Cd3 O2 2.288280 1_455
Cd3 O8 2.302032 1_555
Cd3 O24 2.384636 1_555
O0 P0 1.549915 1_555
O0 Sr3 2.653551 1_555
O1 P1 1.549915 1_555
O1 Sr2 2.653551 1_555
O2 P2 1.549915 1_555
O2 Sr1 2.653551 1_555
O3 P3 1.549915 1_555
O3 Sr0 2.653551 1_555
O4 P0 1.539641 1_545
O4 Sr3 2.731519 1_555
O5 P1 1.539641 1_565
O5 Sr2 2.731519 1_555
O6 P2 1.539641 1_565
O6 Sr1 2.731519 1_555
O7 P3 1.539641 1_545
O7 Sr0 2.731519 1_555
O8 P0 1.531841 1_555
O8 Sr0 2.649006 1_555
O9 P1 1.531841 1_556
O9 Sr1 2.649006 1_555
O10 P2 1.531841 1_555
O10 Sr2 2.649006 1_555
O11 P3 1.531841 1_554
O11 Sr3 2.649006 1_555
O12 P4 1.529967 1_555
O12 Sr2 2.623417 1_555
O12 Sr3 2.650029 1_555
O13 P5 1.529967 1_555
O13 Sr3 2.623417 1_655
O13 Sr2 2.650029 1_555
O14 P6 1.529967 1_555
O14 Sr0 2.623417 1_555
O14 Sr1 2.650029 1_555
O15 P7 1.529967 1_555
O15 Sr1 2.623417 1_455
O15 Sr0 2.650029 1_555
O16 P3 1.618587 1_555
O16 P7 1.627092 1_555
O17 P2 1.618587 1_555
O17 P6 1.627092 1_555
O18 P1 1.618587 1_555
O18 P5 1.627092 1_555
O19 P0 1.618587 1_555
O19 P4 1.627092 1_555
O20 P7 1.527044 1_655
O20 Sr1 2.605654 1_565
O21 P6 1.527044 1_555
O21 Sr0 2.605654 1_545
O22 P5 1.527044 1_455
O22 Sr3 2.605654 1_545
O23 P4 1.527044 1_555
O23 Sr2 2.605654 1_565
O24 P7 1.543205 1_545
O24 Sr0 2.566630 1_555
O24 Sr1 2.903696 1_455
O25 P6 1.543205 1_565
O25 Sr1 2.566630 1_555
O25 Sr0 2.903696 1_555
O26 P5 1.543205 1_565
O26 Sr2 2.566630 1_555
O26 Sr3 2.903696 1_655
O27 P4 1.543205 1_545
O27 Sr3 2.566630 1_555
O27 Sr2 2.903696 1_555
