# generated using pymatgen
data_YbSi4H36C12N2Cl
_symmetry_space_group_name_H-M   'P 1'
_cell_length_a   9.53248200
_cell_length_b   12.51797423
_cell_length_c   25.93416380
_cell_angle_alpha   95.64158201
_cell_angle_beta   94.92352578
_cell_angle_gamma   110.21536369
_symmetry_Int_Tables_number   1
_chemical_formula_structural   YbSi4H36C12N2Cl
_chemical_formula_sum   'Yb4 Si16 H144 C48 N8 Cl4'
_cell_volume   2866.08264342
_cell_formula_units_Z   4
loop_
 _symmetry_equiv_pos_site_id
 _symmetry_equiv_pos_as_xyz
  1  'x, y, z'
loop_
 _atom_site_type_symbol
 _atom_site_label
 _atom_site_symmetry_multiplicity
 _atom_site_fract_x
 _atom_site_fract_y
 _atom_site_fract_z
 _atom_site_occupancy
  Yb  Yb0  1  0.90941800  0.30732900  0.17605200  1
  Yb  Yb1  1  0.09058200  0.69267100  0.82394800  1
  Yb  Yb2  1  0.13627900  0.34547000  0.32062100  1
  Yb  Yb3  1  0.86372100  0.65453000  0.67937900  1
  Si  Si0  1  0.86154500  0.08225700  0.08965800  1
  Si  Si1  1  0.13845500  0.91774300  0.91034200  1
  Si  Si2  1  0.63842700  0.01723700  0.17187400  1
  Si  Si3  1  0.36157300  0.98276300  0.82812600  1
  Si  Si4  1  0.99566600  0.57502900  0.13549300  1
  Si  Si5  1  0.00433400  0.42497100  0.86450700  1
  Si  Si6  1  0.66081100  0.41544700  0.10317000  1
  Si  Si7  1  0.33918900  0.58455300  0.89683000  1
  Si  Si8  1  0.49712100  0.50084500  0.35597900  1
  Si  Si9  1  0.50287900  0.49915500  0.64402100  1
  Si  Si10  1  0.31451500  0.65921600  0.36662200  1
  Si  Si11  1  0.68548500  0.34078400  0.63337800  1
  Si  Si12  1  0.95885100  0.22288400  0.42120300  1
  Si  Si13  1  0.04114900  0.77711600  0.57879700  1
  Si  Si14  1  0.08797300  0.06073000  0.36050100  1
  Si  Si15  1  0.91202700  0.93926900  0.63949900  1
  H  H0  1  0.95476400  0.28752100  0.06775700  1
  H  H1  1  0.04523600  0.71247900  0.93224300  1
  H  H2  1  0.09991400  0.25761900  0.10638100  1
  H  H3  1  0.90008600  0.74238100  0.89361900  1
  H  H4  1  0.05040500  0.20340000  0.03951400  1
  H  H5  1  0.94959500  0.79660000  0.96048600  1
  H  H6  1  0.91292100  0.91501800  0.12296300  1
  H  H7  1  0.08707900  0.08498200  0.87703700  1
  H  H8  1  0.00154800  0.95168800  0.06660800  1
  H  H9  1  0.99845200  0.04831200  0.93339200  1
  H  H10  1  0.08038200  0.03723900  0.12844200  1
  H  H11  1  0.91961800  0.96276100  0.87155800  1
  H  H12  1  0.64717000  0.05950700  0.02073900  1
  H  H13  1  0.35283000  0.94049300  0.97926100  1
  H  H14  1  0.79090500  0.02048500  0.99396700  1
  H  H15  1  0.20909500  0.97951500  0.00603300  1
  H  H16  1  0.66131800  0.92377100  0.02829200  1
  H  H17  1  0.33868200  0.07622900  0.97170800  1
  H  H18  1  0.40462400  0.99465000  0.11063700  1
  H  H19  1  0.59537600  0.00535000  0.88936300  1
  H  H20  1  0.48057700  0.88704800  0.09191900  1
  H  H21  1  0.51942300  0.11295200  0.90808100  1
  H  H22  1  0.38105000  0.87792500  0.14724700  1
  H  H23  1  0.61895000  0.12207500  0.85275300  1
  H  H24  1  0.55965900  0.16318700  0.22762000  1
  H  H25  1  0.44034100  0.83681300  0.77238000  1
  H  H26  1  0.48203900  0.02011800  0.24161100  1
  H  H27  1  0.51796100  0.97988200  0.75838900  1
  H  H28  1  0.67264400  0.10407200  0.26482600  1
  H  H29  1  0.32735600  0.89592800  0.73517400  1
  H  H30  1  0.59992100  0.82690700  0.20019600  1
  H  H31  1  0.40007900  0.17309300  0.79980400  1
  H  H32  1  0.77123300  0.87277000  0.17231100  1
  H  H33  1  0.22876700  0.12723000  0.82768900  1
  H  H34  1  0.76372600  0.93288200  0.23651300  1
  H  H35  1  0.23627400  0.06711800  0.76348700  1
  H  H36  1  0.94784300  0.66128300  0.22148900  1
  H  H37  1  0.05215700  0.33871700  0.77851100  1
  H  H38  1  0.09271900  0.76063300  0.19283600  1
  H  H39  1  0.90728100  0.23936700  0.80716400  1
  H  H40  1  0.90036200  0.72953100  0.16903000  1
  H  H41  1  0.09963800  0.27046900  0.83097000  1
  H  H42  1  0.20354600  0.49054800  0.13454500  1
  H  H43  1  0.79645400  0.50945200  0.86545500  1
  H  H44  1  0.26921900  0.63578400  0.16329700  1
  H  H45  1  0.73078100  0.36421600  0.83670300  1
  H  H46  1  0.17318500  0.52754800  0.19955000  1
  H  H47  1  0.82681500  0.47245200  0.80045000  1
  H  H48  1  0.08440000  0.60018500  0.04690300  1
  H  H49  1  0.91560000  0.39981500  0.95309700  1
  H  H50  1  0.90937800  0.62059900  0.04882400  1
  H  H51  1  0.09062200  0.37940100  0.95117600  1
  H  H52  1  0.07863200  0.73008900  0.07951400  1
  H  H53  1  0.92136800  0.26991100  0.92048600  1
  H  H54  1  0.68464000  0.61628000  0.08782900  1
  H  H55  1  0.31536000  0.38372000  0.91217100  1
  H  H56  1  0.49521200  0.51995600  0.07535600  1
  H  H57  1  0.50478800  0.48004400  0.92464400  1
  H  H58  1  0.58010500  0.57530000  0.14074500  1
  H  H59  1  0.41989500  0.42470000  0.85925500  1
  H  H60  1  0.55040600  0.22556600  0.13526400  1
  H  H61  1  0.44959400  0.77443400  0.86473600  1
  H  H62  1  0.50553100  0.33153300  0.17498500  1
  H  H63  1  0.49446900  0.66846700  0.82501500  1
  H  H64  1  0.41237200  0.27804000  0.11055700  1
  H  H65  1  0.58762800  0.72196000  0.88944300  1
  H  H66  1  0.69526700  0.39112000  0.00619200  1
  H  H67  1  0.30473300  0.60888000  0.99380800  1
  H  H68  1  0.63568700  0.25768500  0.03213600  1
  H  H69  1  0.36431300  0.74231500  0.96786400  1
  H  H70  1  0.50564900  0.32814400  0.01953600  1
  H  H71  1  0.49435100  0.67185600  0.98046400  1
  H  H72  1  0.41063100  0.29016200  0.36757200  1
  H  H73  1  0.58936900  0.70983800  0.63242800  1
  H  H74  1  0.38699900  0.30484200  0.29936200  1
  H  H75  1  0.61300100  0.69515800  0.70063800  1
  H  H76  1  0.56686000  0.33357400  0.33209800  1
  H  H77  1  0.43314000  0.66642600  0.66790200  1
  H  H78  1  0.62200800  0.46707300  0.43853400  1
  H  H79  1  0.37799200  0.53292700  0.56146600  1
  H  H80  1  0.72308800  0.60489200  0.42174500  1
  H  H81  1  0.27691200  0.39510800  0.57825500  1
  H  H82  1  0.55608700  0.58213600  0.45176100  1
  H  H83  1  0.44391300  0.41786400  0.54823900  1
  H  H84  1  0.56901200  0.56639600  0.26982200  1
  H  H85  1  0.43098800  0.43360400  0.73017800  1
  H  H86  1  0.68165000  0.66929400  0.32339800  1
  H  H87  1  0.31835000  0.33070600  0.67660200  1
  H  H88  1  0.71601900  0.54001300  0.30736500  1
  H  H89  1  0.28398100  0.45998700  0.69263500  1
  H  H90  1  0.51662600  0.75221000  0.44366700  1
  H  H91  1  0.48337400  0.24779000  0.55633300  1
  H  H92  1  0.36678000  0.80611200  0.44456600  1
  H  H93  1  0.63322000  0.19388800  0.55543400  1
  H  H94  1  0.34335500  0.66941700  0.46434000  1
  H  H95  1  0.65664500  0.33058300  0.53566000  1
  H  H96  1  0.04918100  0.61648000  0.38808600  1
  H  H97  1  0.95081900  0.38352000  0.61191400  1
  H  H98  1  0.11946200  0.74550000  0.36016200  1
  H  H99  1  0.88053800  0.25450000  0.63983800  1
  H  H100  1  0.05330700  0.61076200  0.31950800  1
  H  H101  1  0.94669300  0.38923800  0.68049200  1
  H  H102  1  0.53690300  0.77131100  0.32322900  1
  H  H103  1  0.46309700  0.22868900  0.67677100  1
  H  H104  1  0.36499200  0.73025700  0.28089900  1
  H  H105  1  0.63500800  0.26974300  0.71910100  1
  H  H106  1  0.41138200  0.84647800  0.33232800  1
  H  H107  1  0.58861800  0.15352200  0.66767200  1
  H  H108  1  0.10869900  0.43611300  0.43726200  1
  H  H109  1  0.89130100  0.56388700  0.56273800  1
  H  H110  1  0.94354000  0.40476100  0.39125600  1
  H  H111  1  0.05646000  0.59523900  0.60874400  1
  H  H112  1  0.92793300  0.40121900  0.45832900  1
  H  H113  1  0.07206700  0.59878100  0.54167100  1
  H  H114  1  0.71022900  0.06881400  0.42742100  1
  H  H115  1  0.28977100  0.93118600  0.57257900  1
  H  H116  1  0.69016100  0.20275700  0.42025300  1
  H  H117  1  0.30983900  0.79724300  0.57974700  1
  H  H118  1  0.70867900  0.11587000  0.36478100  1
  H  H119  1  0.29132100  0.88413000  0.63521900  1
  H  H120  1  0.14347900  0.21665500  0.49544100  1
  H  H121  1  0.85652100  0.78334500  0.50455900  1
  H  H122  1  0.98282600  0.23810200  0.51809000  1
  H  H123  1  0.01717400  0.76189800  0.48191000  1
  H  H124  1  0.96957200  0.09875200  0.49063300  1
  H  H125  1  0.03042800  0.90124800  0.50936700  1
  H  H126  1  0.33670600  0.13929200  0.41977300  1
  H  H127  1  0.66329400  0.86070800  0.58022700  1
  H  H128  1  0.20371500  0.02421300  0.44489700  1
  H  H129  1  0.79628500  0.97578700  0.55510300  1
  H  H130  1  0.29519400  0.99532300  0.39092300  1
  H  H131  1  0.70480600  0.00467700  0.60907700  1
  H  H132  1  0.81539500  0.93625700  0.34094100  1
  H  H133  1  0.18460500  0.06374300  0.65905900  1
  H  H134  1  0.92977700  0.85352000  0.35433600  1
  H  H135  1  0.07022300  0.14648000  0.64566400  1
  H  H136  1  0.88578700  0.93449600  0.40658400  1
  H  H137  1  0.11421300  0.06550400  0.59341600  1
  H  H138  1  0.25508800  0.09648800  0.28877500  1
  H  H139  1  0.74491200  0.90351200  0.71122500  1
  H  H140  1  0.14619200  0.94926300  0.28791100  1
  H  H141  1  0.85380800  0.05073700  0.71208900  1
  H  H142  1  0.06231900  0.04201100  0.26177500  1
  H  H143  1  0.93768100  0.95798900  0.73822500  1
  C  C0  1  0.00331800  0.22147600  0.07523400  1
  C  C1  1  0.99668200  0.77852400  0.92476600  1
  C  C2  1  0.97421800  0.98731700  0.10321000  1
  C  C3  1  0.02578200  0.01268300  0.89679000  1
  C  C4  1  0.72697400  0.01484800  0.02759300  1
  C  C5  1  0.27302600  0.98515200  0.97240700  1
  C  C6  1  0.45963700  0.93782800  0.12540300  1
  C  C7  1  0.54036300  0.06217200  0.87459700  1
  C  C8  1  0.58441400  0.08471000  0.23148500  1
  C  C9  1  0.41558600  0.91529000  0.76851500  1
  C  C10  1  0.70036100  0.90168800  0.19739300  1
  C  C11  1  0.29963900  0.09831200  0.80260700  1
  C  C12  1  0.98046000  0.69175700  0.18460700  1
  C  C13  1  0.01954000  0.30824300  0.81539300  1
  C  C14  1  0.17474600  0.55308200  0.16010700  1
  C  C15  1  0.82525400  0.44691800  0.83989300  1
  C  C16  1  0.01911700  0.63633300  0.07142500  1
  C  C17  1  0.98088300  0.36366700  0.92857500  1
  C  C18  1  0.60099200  0.54443000  0.10211900  1
  C  C19  1  0.39900800  0.45557000  0.89788100  1
  C  C20  1  0.52175300  0.30348100  0.13527000  1
  C  C21  1  0.47824700  0.69651900  0.86473000  1
  C  C22  1  0.62434200  0.34206100  0.03317300  1
  C  C23  1  0.37565800  0.65793900  0.96682700  1
  C  C24  1  0.45751200  0.34242900  0.33722000  1
  C  C25  1  0.54248800  0.65757100  0.66278000  1
  C  C26  1  0.60970400  0.54313800  0.42365200  1
  C  C27  1  0.39029600  0.45686200  0.57634800  1
  C  C28  1  0.62692600  0.57714500  0.30944000  1
  C  C29  1  0.37307400  0.42285500  0.69056000  1
  C  C30  1  0.39383000  0.72770900  0.43648600  1
  C  C31  1  0.60617000  0.27229100  0.56351400  1
  C  C32  1  0.11482300  0.65579400  0.35766900  1
  C  C33  1  0.88517700  0.34420600  0.64233100  1
  C  C34  1  0.41769400  0.76102200  0.32155000  1
  C  C35  1  0.58230600  0.23897800  0.67845000  1
  C  C36  1  0.98960000  0.38099100  0.42700100  1
  C  C37  1  0.01040000  0.61900900  0.57299900  1
  C  C38  1  0.74700300  0.14405500  0.40657100  1
  C  C39  1  0.25299700  0.85594500  0.59342900  1
  C  C40  1  0.02048200  0.19075900  0.48746900  1
  C  C41  1  0.97951800  0.80924100  0.51253100  1
  C  C42  1  0.24606900  0.05536200  0.40907500  1
  C  C43  1  0.75393100  0.94463800  0.59092500  1
  C  C44  1  0.91295400  0.93467700  0.36627100  1
  C  C45  1  0.08704600  0.06532300  0.63372900  1
  C  C46  1  0.14279300  0.03691800  0.29342800  1
  C  C47  1  0.85720700  0.96308200  0.70657200  1
  N  N0  1  0.77538800  0.11396400  0.14241800  1
  N  N1  1  0.22461200  0.88603600  0.85758200  1
  N  N2  1  0.84542200  0.44524700  0.13056800  1
  N  N3  1  0.15457800  0.55475300  0.86943200  1
  N  N4  1  0.32766100  0.52417600  0.35461000  1
  N  N5  1  0.67233900  0.47582400  0.64539000  1
  N  N6  1  0.06136900  0.19182600  0.37287500  1
  N  N7  1  0.93863100  0.80817400  0.62712500  1
  Cl  Cl0  1  0.16682100  0.29232300  0.22075400  1
  Cl  Cl1  1  0.83317900  0.70767700  0.77924600  1
  Cl  Cl2  1  0.88554400  0.36803200  0.27565500  1
  Cl  Cl3  1  0.11445600  0.63196800  0.72434500  1
loop_
_geom_bond_atom_site_label_1
_geom_bond_atom_site_label_2
_geom_bond_distance
_geom_bond_site_symmetry_2
H74 Yb2 2.699209 1_555
H75 Yb3 2.699209 1_555
C0 H4 1.100538 1_555
C0 H0 1.102680 1_455
C0 H2 1.103459 1_555
C0 Si0 1.894926 1_455
C1 H5 1.100538 1_555
C1 H1 1.102680 1_655
C1 H3 1.103459 1_555
C1 Si1 1.894926 1_655
C2 H6 1.095448 1_555
C2 H8 1.098801 1_655
C2 H10 1.100793 1_665
C2 Si0 1.894475 1_565
C3 H7 1.095448 1_555
C3 H9 1.098801 1_455
C3 H11 1.100793 1_445
C3 Si1 1.894475 1_545
C4 H16 1.097607 1_545
C4 H14 1.100214 1_554
C4 H12 1.101394 1_555
C4 Si0 1.891792 1_555
C5 H17 1.097607 1_565
C5 H15 1.100214 1_556
C5 H13 1.101394 1_555
C5 Si1 1.891792 1_555
C6 H18 1.097481 1_555
C6 H20 1.098595 1_555
C6 H22 1.101165 1_555
C6 Si2 1.893760 1_565
C7 H19 1.097481 1_555
C7 H21 1.098595 1_555
C7 H23 1.101165 1_555
C7 Si3 1.893760 1_545
C8 H24 1.098316 1_555
C8 H28 1.098568 1_555
C8 H26 1.102500 1_555
C8 Si2 1.883863 1_555
C9 H25 1.098316 1_555
C9 H29 1.098568 1_555
C9 H27 1.102500 1_555
C9 Si3 1.883863 1_555
C10 H34 1.095692 1_555
C10 H30 1.097357 1_555
C10 H32 1.099424 1_555
C10 Si2 1.894742 1_565
C11 H35 1.095692 1_555
C11 H31 1.097357 1_555
C11 H33 1.099424 1_555
C11 Si3 1.894742 1_545
C12 H36 1.094491 1_555
C12 H40 1.097222 1_555
C12 H38 1.105003 1_655
C12 Si4 1.894899 1_555
C13 H37 1.094491 1_555
C13 H41 1.097222 1_555
C13 H39 1.105003 1_455
C13 Si5 1.894899 1_555
C14 H42 1.097885 1_555
C14 H46 1.101074 1_555
C14 H44 1.102575 1_555
C14 Si4 1.889079 1_455
C15 H43 1.097885 1_555
C15 H47 1.101074 1_555
C15 H45 1.102575 1_555
C15 Si5 1.889079 1_655
C16 H48 1.096554 1_555
C16 H50 1.098320 1_455
C16 H52 1.101950 1_555
C16 Si4 1.896186 1_455
C17 H49 1.096554 1_555
C17 H51 1.098320 1_655
C17 H53 1.101950 1_555
C17 Si5 1.896186 1_655
C18 H54 1.096686 1_555
C18 H58 1.097151 1_555
C18 H56 1.103143 1_555
C18 Si6 1.890799 1_555
C19 H55 1.096686 1_555
C19 H59 1.097151 1_555
C19 H57 1.103143 1_555
C19 Si7 1.890799 1_555
C20 H62 1.096279 1_555
C20 H60 1.099987 1_555
C20 H64 1.102284 1_555
C20 Si6 1.883997 1_555
C21 H63 1.096279 1_555
C21 H61 1.099987 1_555
C21 H65 1.102284 1_555
C21 Si7 1.883997 1_555
C22 H68 1.096297 1_555
C22 H66 1.096636 1_555
C22 H70 1.103884 1_555
C22 Si6 1.898214 1_555
C23 H69 1.096297 1_555
C23 H67 1.096636 1_555
C23 H71 1.103884 1_555
C23 Si7 1.898214 1_555
C24 H72 1.098622 1_555
C24 H74 1.102032 1_555
C24 H76 1.103252 1_555
C24 Si8 1.890252 1_555
C25 H73 1.098622 1_555
C25 H75 1.102032 1_555
C25 H77 1.103252 1_555
C25 Si9 1.890252 1_555
C26 H82 1.094249 1_555
C26 H80 1.098858 1_555
C26 H78 1.100466 1_555
C26 Si8 1.900936 1_555
C27 H83 1.094249 1_555
C27 H81 1.098858 1_555
C27 H79 1.100466 1_555
C27 Si9 1.900936 1_555
C28 H84 1.096663 1_555
C28 H86 1.096993 1_555
C28 H88 1.102709 1_555
C28 Si8 1.888463 1_555
C29 H85 1.096663 1_555
C29 H87 1.096993 1_555
C29 H89 1.102709 1_555
C29 Si9 1.888463 1_555
C30 H90 1.096438 1_555
C30 H94 1.098380 1_555
C30 H92 1.103346 1_555
C30 Si10 1.897640 1_555
C31 H91 1.096438 1_555
C31 H95 1.098380 1_555
C31 H93 1.103346 1_555
C31 Si11 1.897640 1_555
C32 H100 1.096966 1_555
C32 H96 1.097377 1_555
C32 H98 1.103649 1_555
C32 Si10 1.882847 1_555
C33 H101 1.096966 1_555
C33 H97 1.097377 1_555
C33 H99 1.103649 1_555
C33 Si11 1.882847 1_555
C34 H102 1.095011 1_555
C34 H104 1.098951 1_555
C34 H106 1.102119 1_555
C34 Si10 1.892562 1_555
C35 H103 1.095011 1_555
C35 H105 1.098951 1_555
C35 H107 1.102119 1_555
C35 Si11 1.892562 1_555
C36 H108 1.098412 1_655
C36 H112 1.101896 1_555
C36 H110 1.102421 1_555
C36 Si12 1.886445 1_555
C37 H109 1.098412 1_455
C37 H113 1.101896 1_555
C37 H111 1.102421 1_555
C37 Si13 1.886445 1_555
C38 H118 1.095591 1_555
C38 H114 1.098576 1_555
C38 H116 1.102899 1_555
C38 Si12 1.900925 1_555
C39 H119 1.095591 1_555
C39 H115 1.098576 1_555
C39 H117 1.102899 1_555
C39 Si13 1.900925 1_555
C40 H120 1.097748 1_555
C40 H124 1.099041 1_455
C40 H122 1.101875 1_455
C40 Si12 1.893711 1_455
C41 H121 1.097748 1_555
C41 H125 1.099041 1_655
C41 H123 1.101875 1_655
C41 Si13 1.893711 1_655
C42 H126 1.096128 1_555
C42 H128 1.097687 1_555
C42 H130 1.103296 1_545
C42 Si14 1.903515 1_555
C43 H127 1.096128 1_555
C43 H129 1.097687 1_555
C43 H131 1.103296 1_565
C43 Si15 1.903520 1_555
C44 H136 1.098472 1_555
C44 H132 1.098721 1_555
C44 H134 1.101320 1_555
C44 Si14 1.888282 1_665
C45 H137 1.098472 1_555
C45 H133 1.098721 1_555
C45 H135 1.101320 1_555
C45 Si15 1.888289 1_445
C46 H142 1.096538 1_555
C46 H138 1.097586 1_555
C46 H140 1.104539 1_545
C46 Si14 1.884003 1_555
C47 H143 1.096538 1_555
C47 H139 1.097586 1_555
C47 H141 1.104539 1_565
C47 Si15 1.884005 1_555
N0 Si2 1.736303 1_555
N0 Si0 1.736566 1_555
N0 Yb0 2.347026 1_555
N1 Si3 1.736303 1_555
N1 Si1 1.736566 1_555
N1 Yb1 2.347026 1_555
N2 Si6 1.737957 1_555
N2 Si4 1.739723 1_555
N2 Yb0 2.397702 1_555
N3 Si7 1.737957 1_555
N3 Si5 1.739723 1_555
N3 Yb1 2.397702 1_555
N4 Si8 1.736155 1_555
N4 Si10 1.737774 1_555
N4 Yb2 2.371787 1_555
N5 Si9 1.736155 1_555
N5 Si11 1.737774 1_555
N5 Yb3 2.371787 1_555
N6 Si12 1.747588 1_455
N6 Si14 1.748831 1_555
N6 Yb2 2.403103 1_555
N7 Si13 1.747588 1_655
N7 Si15 1.748819 1_555
N7 Yb3 2.403103 1_555
Cl0 Yb2 2.675785 1_555
Cl0 Yb0 2.696841 1_455
Cl1 Yb3 2.675785 1_555
Cl1 Yb1 2.696841 1_655
Cl2 Yb0 2.671371 1_555
Cl2 Yb2 2.684256 1_655
Cl3 Yb1 2.671371 1_555
Cl3 Yb3 2.684256 1_455
