# generated using pymatgen
data_Ca5(CrN3)2
_symmetry_space_group_name_H-M   'P 1'
_cell_length_a   5.00867300
_cell_length_b   6.41918400
_cell_length_c   6.88945736
_cell_angle_alpha   75.71237685
_cell_angle_beta   90.00000000
_cell_angle_gamma   90.00000000
_symmetry_Int_Tables_number   1
_chemical_formula_structural   Ca5(CrN3)2
_chemical_formula_sum   'Ca5 Cr2 N6'
_cell_volume   214.65561333
_cell_formula_units_Z   1
loop_
 _symmetry_equiv_pos_site_id
 _symmetry_equiv_pos_as_xyz
  1  'x, y, z'
loop_
 _atom_site_type_symbol
 _atom_site_label
 _atom_site_symmetry_multiplicity
 _atom_site_fract_x
 _atom_site_fract_y
 _atom_site_fract_z
 _atom_site_occupancy
  Ca  Ca0  1  0.00000000  0.19892900  0.57083200  1
  Ca  Ca1  1  0.50000000  0.87473600  0.90737400  1
  Ca  Ca2  1  0.50000000  0.40013900  0.83508600  1
  Ca  Ca3  1  0.00000000  0.10909000  0.10895900  1
  Ca  Ca4  1  0.50000000  0.79195000  0.40268500  1
  Cr  Cr0  1  0.50000000  0.29497000  0.29730300  1
  Cr  Cr1  1  0.00000000  0.70755100  0.71044700  1
  N  N0  1  0.50000000  0.20134500  0.55760600  1
  N  N1  1  0.00000000  0.88617300  0.86250200  1
  N  N2  1  0.50000000  0.11693500  0.13409700  1
  N  N3  1  0.00000000  0.42889400  0.79981200  1
  N  N4  1  0.00000000  0.83614900  0.46191900  1
  N  N5  1  0.50000000  0.55757200  0.18186700  1
loop_
_geom_bond_atom_site_label_1
_geom_bond_atom_site_label_2
_geom_bond_distance
_geom_bond_site_symmetry_2
Ca0 N3 2.411890 1_555
Ca0 N1 2.465213 1_545
Ca0 N0 2.505902 1_555
Ca0 N0 2.505902 1_455
Ca0 N4 2.616980 1_545
Ca1 N5 2.412665 1_556
Ca1 N2 2.460820 1_566
Ca1 N1 2.522193 1_555
Ca1 N1 2.522193 1_655
Ca1 N0 2.776449 1_565
Ca2 N2 2.387498 1_556
Ca2 N3 2.518470 1_555
Ca2 N3 2.518470 1_655
Ca2 N0 2.546969 1_555
Ca2 N5 2.814421 1_556
Ca3 N1 2.475863 1_544
Ca3 N2 2.511680 1_555
Ca3 N2 2.511680 1_455
Ca3 N3 2.567588 1_554
Ca3 N4 2.622975 1_545
Ca4 N5 2.389078 1_555
Ca4 N2 2.422955 1_565
Ca4 N4 2.564349 1_555
Ca4 N4 2.564349 1_655
Cr0 N5 1.677004 1_555
Cr0 N0 1.745082 1_555
Cr0 N2 1.790143 1_555
Cr1 N4 1.707486 1_555
Cr1 N1 1.733491 1_555
Cr1 N3 1.742157 1_555
