# generated using pymatgen
data_Ba2CeHfO6
_symmetry_space_group_name_H-M   'P 1'
_cell_length_a   8.66002558
_cell_length_b   8.66002558
_cell_length_c   8.66002558
_cell_angle_alpha   90.00000000
_cell_angle_beta   90.00000000
_cell_angle_gamma   90.00000000
_symmetry_Int_Tables_number   1
_chemical_formula_structural   Ba2CeHfO6
_chemical_formula_sum   'Ba8 Ce4 Hf4 O24'
_cell_volume   649.46765118
_cell_formula_units_Z   4
loop_
 _symmetry_equiv_pos_site_id
 _symmetry_equiv_pos_as_xyz
  1  'x, y, z'
loop_
 _atom_site_type_symbol
 _atom_site_label
 _atom_site_symmetry_multiplicity
 _atom_site_fract_x
 _atom_site_fract_y
 _atom_site_fract_z
 _atom_site_occupancy
  Ba  Ba0  1  0.50000000  0.50000000  0.50000000  1
  Ba  Ba1  1  0.00000000  -0.00000000  0.00000000  1
  Ba  Ba2  1  -0.00000000  -0.00000000  0.50000000  1
  Ba  Ba3  1  -0.00000000  0.50000000  0.00000000  1
  Ba  Ba4  1  0.50000000  -0.00000000  0.00000000  1
  Ba  Ba5  1  0.50000000  0.50000000  0.00000000  1
  Ba  Ba6  1  0.50000000  -0.00000000  0.50000000  1
  Ba  Ba7  1  -0.00000000  0.50000000  0.50000000  1
  Ce  Ce0  1  0.75000000  0.75000000  0.75000000  1
  Ce  Ce1  1  0.75000000  0.25000000  0.25000000  1
  Ce  Ce2  1  0.25000000  0.75000000  0.25000000  1
  Ce  Ce3  1  0.25000000  0.25000000  0.75000000  1
  Hf  Hf0  1  0.25000000  0.25000000  0.25000000  1
  Hf  Hf1  1  0.25000000  0.75000000  0.75000000  1
  Hf  Hf2  1  0.75000000  0.25000000  0.75000000  1
  Hf  Hf3  1  0.75000000  0.75000000  0.25000000  1
  O  O0  1  0.23094133  0.27074288  0.49089691  1
  O  O1  1  0.23094133  0.72925712  0.50910309  1
  O  O2  1  0.76905867  0.27074288  0.50910309  1
  O  O3  1  0.76905867  0.72925712  0.49089691  1
  O  O4  1  0.27074288  0.49089691  0.23094133  1
  O  O5  1  0.72925712  0.50910309  0.23094133  1
  O  O6  1  0.27074288  0.50910309  0.76905867  1
  O  O7  1  0.72925712  0.49089691  0.76905867  1
  O  O8  1  0.49089691  0.23094133  0.27074288  1
  O  O9  1  0.50910309  0.23094133  0.72925712  1
  O  O10  1  0.50910309  0.76905867  0.27074288  1
  O  O11  1  0.49089691  0.76905867  0.72925712  1
  O  O12  1  0.26905867  0.22925712  0.00910309  1
  O  O13  1  0.26905867  0.77074288  0.99089691  1
  O  O14  1  0.73094133  0.22925712  0.99089691  1
  O  O15  1  0.73094133  0.77074288  0.00910309  1
  O  O16  1  0.22925712  0.00910309  0.26905867  1
  O  O17  1  0.77074288  0.99089691  0.26905867  1
  O  O18  1  0.22925712  0.99089691  0.73094133  1
  O  O19  1  0.77074288  0.00910309  0.73094133  1
  O  O20  1  0.00910309  0.26905867  0.22925712  1
  O  O21  1  0.99089691  0.26905867  0.77074288  1
  O  O22  1  0.99089691  0.73094133  0.22925712  1
  O  O23  1  0.00910309  0.73094133  0.77074288  1
loop_
_geom_bond_atom_site_label_1
_geom_bond_atom_site_label_2
_geom_bond_distance
_geom_bond_site_symmetry_2
Ba0 O9 3.062201 1_555
Ba0 O0 3.062201 1_555
Ba0 O4 3.062201 1_555
Ba0 O1 3.062201 1_555
Ba0 O8 3.062201 1_555
Ba0 O5 3.062201 1_555
Ba0 O6 3.062201 1_555
Ba0 O7 3.062201 1_555
Ba0 O10 3.062201 1_555
Ba0 O2 3.062201 1_555
Ba0 O3 3.062201 1_555
Ba0 O11 3.062201 1_555
Ba1 O14 3.062201 1_454
Ba1 O23 3.062201 1_544
Ba1 O19 3.062201 1_454
Ba1 O15 3.062201 1_445
Ba1 O18 3.062201 1_544
Ba1 O22 3.062201 1_445
Ba1 O16 3.062201 1_555
Ba1 O21 3.062201 1_454
Ba1 O20 3.062201 1_555
Ba1 O13 3.062201 1_544
Ba1 O17 3.062201 1_445
Ba1 O12 3.062201 1_555
Ba2 O17 2.819175 1_445
Ba2 O16 2.819175 1_555
Ba2 O18 2.819175 1_545
Ba2 O19 2.819175 1_455
Ba2 O2 3.082756 1_455
Ba2 O3 3.082756 1_445
Ba2 O1 3.082756 1_545
Ba2 O0 3.082756 1_555
Ba2 O21 3.306465 1_455
Ba2 O23 3.306465 1_545
Ba2 O22 3.306465 1_445
Ba2 O20 3.306465 1_555
Ba3 O21 2.819175 1_454
Ba3 O20 2.819175 1_555
Ba3 O23 2.819175 1_554
Ba3 O22 2.819175 1_455
Ba3 O6 3.082756 1_554
Ba3 O7 3.082756 1_454
Ba3 O4 3.082756 1_555
Ba3 O5 3.082756 1_455
Ba3 O15 3.306465 1_455
Ba3 O14 3.306465 1_454
Ba3 O12 3.306465 1_555
Ba3 O13 3.306465 1_554
Ba4 O13 2.819175 1_544
Ba4 O12 2.819175 1_555
Ba4 O14 2.819175 1_554
Ba4 O15 2.819175 1_545
Ba4 O11 3.082756 1_544
Ba4 O10 3.082756 1_545
Ba4 O8 3.082756 1_555
Ba4 O9 3.082756 1_554
Ba4 O17 3.306465 1_545
Ba4 O16 3.306465 1_555
Ba4 O19 3.306465 1_554
Ba4 O18 3.306465 1_544
Ba5 O4 2.819175 1_555
Ba5 O5 2.819175 1_555
Ba5 O7 2.819175 1_554
Ba5 O6 2.819175 1_554
Ba5 O13 3.082756 1_554
Ba5 O12 3.082756 1_555
Ba5 O15 3.082756 1_555
Ba5 O14 3.082756 1_554
Ba5 O8 3.306465 1_555
Ba5 O9 3.306465 1_554
Ba5 O11 3.306465 1_554
Ba5 O10 3.306465 1_555
Ba6 O8 2.819175 1_555
Ba6 O10 2.819175 1_545
Ba6 O9 2.819175 1_555
Ba6 O11 2.819175 1_545
Ba6 O16 3.082756 1_555
Ba6 O17 3.082756 1_545
Ba6 O19 3.082756 1_555
Ba6 O18 3.082756 1_545
Ba6 O3 3.306465 1_545
Ba6 O1 3.306465 1_545
Ba6 O0 3.306465 1_555
Ba6 O2 3.306465 1_555
Ba7 O3 2.819175 1_455
Ba7 O2 2.819175 1_455
Ba7 O1 2.819175 1_555
Ba7 O0 2.819175 1_555
Ba7 O20 3.082756 1_555
Ba7 O21 3.082756 1_455
Ba7 O22 3.082756 1_455
Ba7 O23 3.082756 1_555
Ba7 O4 3.306465 1_555
Ba7 O5 3.306465 1_455
Ba7 O6 3.306465 1_555
Ba7 O7 3.306465 1_455
Ce0 O19 2.257061 1_565
Ce0 O23 2.257061 1_655
Ce0 O11 2.257061 1_555
Ce0 O15 2.257061 1_556
Ce0 O7 2.257061 1_555
Ce0 O3 2.257061 1_555
Ce1 O5 2.257061 1_555
Ce1 O17 2.257061 1_545
Ce1 O14 2.257061 1_554
Ce1 O2 2.257061 1_555
Ce1 O8 2.257061 1_555
Ce1 O20 2.257061 1_655
Ce2 O4 2.257061 1_555
Ce2 O16 2.257061 1_565
Ce2 O1 2.257061 1_555
Ce2 O10 2.257061 1_555
Ce2 O22 2.257061 1_455
Ce2 O13 2.257061 1_554
Ce3 O18 2.257061 1_545
Ce3 O21 2.257061 1_455
Ce3 O12 2.257061 1_556
Ce3 O6 2.257061 1_555
Ce3 O0 2.257061 1_555
Ce3 O9 2.257061 1_555
Hf0 O4 2.100388 1_555
Hf0 O16 2.100388 1_555
Hf0 O0 2.100388 1_555
Hf0 O12 2.100388 1_555
Hf0 O20 2.100388 1_555
Hf0 O8 2.100388 1_555
Hf1 O18 2.100388 1_555
Hf1 O6 2.100388 1_555
Hf1 O23 2.100388 1_555
Hf1 O13 2.100388 1_555
Hf1 O11 2.100388 1_555
Hf1 O1 2.100388 1_555
Hf2 O14 2.100388 1_555
Hf2 O19 2.100388 1_555
Hf2 O7 2.100388 1_555
Hf2 O9 2.100388 1_555
Hf2 O2 2.100388 1_555
Hf2 O21 2.100388 1_555
Hf3 O17 2.100388 1_555
Hf3 O5 2.100388 1_555
Hf3 O15 2.100388 1_555
Hf3 O22 2.100388 1_555
Hf3 O10 2.100388 1_555
Hf3 O3 2.100388 1_555
