# generated using pymatgen
data_BaNaCeBiO6
_symmetry_space_group_name_H-M   'P 1'
_cell_length_a   6.14624369
_cell_length_b   6.14624369
_cell_length_c   6.14624369
_cell_angle_alpha   60.00000000
_cell_angle_beta   60.00000000
_cell_angle_gamma   60.00000000
_symmetry_Int_Tables_number   1
_chemical_formula_structural   BaNaCeBiO6
_chemical_formula_sum   'Ba1 Na1 Ce1 Bi1 O6'
_cell_volume   164.17776072
_cell_formula_units_Z   1
loop_
 _symmetry_equiv_pos_site_id
 _symmetry_equiv_pos_as_xyz
  1  'x, y, z'
loop_
 _atom_site_type_symbol
 _atom_site_label
 _atom_site_symmetry_multiplicity
 _atom_site_fract_x
 _atom_site_fract_y
 _atom_site_fract_z
 _atom_site_occupancy
  Ba  Ba0  1  0.25000000  0.25000000  0.25000000  1
  Na  Na0  1  0.75000000  0.75000000  0.75000000  1
  Ce  Ce0  1  0.50000000  0.50000000  0.50000000  1
  Bi  Bi0  1  0.00000000  0.00000000  0.00000000  1
  O  O0  1  0.75481785  0.24518215  0.24518215  1
  O  O1  1  0.24518215  0.75481785  0.75481785  1
  O  O2  1  0.75481785  0.24518215  0.75481785  1
  O  O3  1  0.24518215  0.75481785  0.24518215  1
  O  O4  1  0.75481785  0.75481785  0.24518215  1
  O  O5  1  0.24518215  0.24518215  0.75481785  1
loop_
_geom_bond_atom_site_label_1
_geom_bond_atom_site_label_2
_geom_bond_distance
_geom_bond_site_symmetry_2
Ba0 O1 3.073407 1_554
Ba0 O3 3.073407 1_545
Ba0 O2 3.073407 1_455
Ba0 O5 3.073407 1_555
Ba0 O5 3.073407 1_554
Ba0 O1 3.073407 1_545
Ba0 O2 3.073407 1_554
Ba0 O0 3.073407 1_455
Ba0 O4 3.073407 1_545
Ba0 O3 3.073407 1_555
Ba0 O0 3.073407 1_555
Ba0 O4 3.073407 1_455
Na0 O3 3.073407 1_655
Na0 O4 3.073407 1_556
Na0 O0 3.073407 1_565
Na0 O1 3.073407 1_655
Na0 O5 3.073407 1_655
Na0 O5 3.073407 1_565
Na0 O2 3.073407 1_555
Na0 O2 3.073407 1_565
Na0 O3 3.073407 1_556
Na0 O0 3.073407 1_556
Na0 O4 3.073407 1_555
Na0 O1 3.073407 1_555
Ce0 O0 2.214903 1_555
Ce0 O3 2.214903 1_555
Ce0 O2 2.214903 1_555
Ce0 O4 2.214903 1_555
Ce0 O1 2.214903 1_555
Ce0 O5 2.214903 1_555
Bi0 O3 2.131148 1_545
Bi0 O2 2.131148 1_454
Bi0 O4 2.131148 1_445
Bi0 O1 2.131148 1_544
Bi0 O5 2.131148 1_554
Bi0 O0 2.131148 1_455
