# generated using pymatgen
data_Ba2Mg(GeIr)4
_symmetry_space_group_name_H-M   'P 1'
_cell_length_a   6.65588901
_cell_length_b   6.65588901
_cell_length_c   11.72693100
_cell_angle_alpha   90.00000000
_cell_angle_beta   90.00000000
_cell_angle_gamma   114.58816625
_symmetry_Int_Tables_number   1
_chemical_formula_structural   Ba2Mg(GeIr)4
_chemical_formula_sum   'Ba4 Mg2 Ge8 Ir8'
_cell_volume   472.40473561
_cell_formula_units_Z   2
loop_
 _symmetry_equiv_pos_site_id
 _symmetry_equiv_pos_as_xyz
  1  'x, y, z'
loop_
 _atom_site_type_symbol
 _atom_site_label
 _atom_site_symmetry_multiplicity
 _atom_site_fract_x
 _atom_site_fract_y
 _atom_site_fract_z
 _atom_site_occupancy
  Ba  Ba0  1  0.20479600  0.79520400  0.50000000  1
  Ba  Ba1  1  0.20479600  0.79520400  0.00000000  1
  Ba  Ba2  1  0.79520400  0.20479600  0.50000000  1
  Ba  Ba3  1  0.79520400  0.20479600  0.00000000  1
  Mg  Mg0  1  0.01895300  0.01895300  0.25000000  1
  Mg  Mg1  1  0.98104700  0.98104700  0.75000000  1
  Ge  Ge0  1  0.52157000  0.89264200  0.25000000  1
  Ge  Ge1  1  0.10735800  0.47843000  0.75000000  1
  Ge  Ge2  1  0.47843000  0.10735800  0.75000000  1
  Ge  Ge3  1  0.89264200  0.52157000  0.25000000  1
  Ge  Ge4  1  0.33341000  0.33341000  0.42278100  1
  Ge  Ge5  1  0.66659000  0.66659000  0.57721900  1
  Ge  Ge6  1  0.33341000  0.33341000  0.07721900  1
  Ge  Ge7  1  0.66659000  0.66659000  0.92278100  1
  Ir  Ir0  1  0.49688500  0.24214500  0.25000000  1
  Ir  Ir1  1  0.75785500  0.50311500  0.75000000  1
  Ir  Ir2  1  0.50311500  0.75785500  0.75000000  1
  Ir  Ir3  1  0.24214500  0.49688500  0.25000000  1
  Ir  Ir4  1  0.67821500  0.67821500  0.37014300  1
  Ir  Ir5  1  0.32178500  0.32178500  0.62985700  1
  Ir  Ir6  1  0.67821500  0.67821500  0.12985700  1
  Ir  Ir7  1  0.32178500  0.32178500  0.87014300  1
loop_
_geom_bond_atom_site_label_1
_geom_bond_atom_site_label_2
_geom_bond_distance
_geom_bond_site_symmetry_2
Ba0 Ge5 3.439959 1_455
Ba0 Ge4 3.439959 1_565
Ba0 Ge1 3.510434 1_555
Ba0 Ge0 3.510434 1_555
Ba0 Ir4 3.596979 1_455
Ba0 Ir5 3.596979 1_565
Ba0 Ir3 3.606957 1_555
Ba0 Ir2 3.606957 1_555
Ba0 Ge3 3.616600 1_455
Ba0 Ge2 3.616600 1_565
Ba0 Ge5 3.631770 1_555
Ba0 Ge4 3.631770 1_555
Ba0 Mg1 3.725044 1_455
Ba0 Mg0 3.725044 1_565
Ba0 Ba2 3.736217 1_565
Ba0 Ba2 3.736217 1_455
Ba0 Ir5 3.859549 1_555
Ba0 Ir4 3.859549 1_555
Ba1 Ge7 3.439959 1_454
Ba1 Ge6 3.439959 1_565
Ba1 Ge1 3.510434 1_554
Ba1 Ge0 3.510434 1_555
Ba1 Ir6 3.596979 1_455
Ba1 Ir7 3.596979 1_564
Ba1 Ir3 3.606957 1_555
Ba1 Ir2 3.606957 1_554
Ba1 Ge3 3.616600 1_455
Ba1 Ge2 3.616600 1_564
Ba1 Ge6 3.631770 1_555
Ba1 Ge7 3.631770 1_554
Ba1 Mg1 3.725044 1_454
Ba1 Mg0 3.725044 1_565
Ba1 Ba3 3.736217 1_565
Ba1 Ba3 3.736217 1_455
Ba1 Ir7 3.859549 1_554
Ba1 Ir6 3.859549 1_555
Ba2 Ge5 3.439959 1_545
Ba2 Ge4 3.439959 1_655
Ba2 Ge2 3.510434 1_555
Ba2 Ge3 3.510434 1_555
Ba2 Ir4 3.596979 1_545
Ba2 Ir5 3.596979 1_655
Ba2 Ir0 3.606957 1_555
Ba2 Ir1 3.606957 1_555
Ba2 Ge0 3.616600 1_545
Ba2 Ge1 3.616600 1_655
Ba2 Ge5 3.631770 1_555
Ba2 Ge4 3.631770 1_555
Ba2 Mg1 3.725044 1_545
Ba2 Mg0 3.725044 1_655
Ba2 Ir5 3.859549 1_555
Ba2 Ir4 3.859549 1_555
Ba3 Ge7 3.439959 1_544
Ba3 Ge6 3.439959 1_655
Ba3 Ge2 3.510434 1_554
Ba3 Ge3 3.510434 1_555
Ba3 Ir6 3.596979 1_545
Ba3 Ir7 3.596979 1_654
Ba3 Ir0 3.606957 1_555
Ba3 Ir1 3.606957 1_554
Ba3 Ge0 3.616600 1_545
Ba3 Ge1 3.616600 1_654
Ba3 Ge6 3.631770 1_555
Ba3 Ge7 3.631770 1_554
Ba3 Mg1 3.725044 1_544
Ba3 Mg0 3.725044 1_655
Ba3 Ir7 3.859549 1_554
Ba3 Ir6 3.859549 1_555
Ge0 Ir0 2.399274 1_565
Ge0 Ir3 2.514087 1_555
Ge0 Ir4 2.519380 1_555
Ge0 Ir6 2.519380 1_555
Ge0 Mg0 3.057816 1_665
Ge1 Ir1 2.399274 1_455
Ge1 Ir2 2.514087 1_555
Ge1 Ir5 2.519380 1_555
Ge1 Ir7 2.519380 1_555
Ge1 Mg1 3.057816 1_445
Ge2 Ir2 2.399274 1_545
Ge2 Ir1 2.514087 1_555
Ge2 Ir5 2.519380 1_555
Ge2 Ir7 2.519380 1_555
Ge2 Mg1 3.057816 1_445
Ge3 Ir3 2.399274 1_655
Ge3 Ir0 2.514087 1_555
Ge3 Ir4 2.519380 1_555
Ge3 Ir6 2.519380 1_555
Ge3 Mg0 3.057816 1_665
Ge4 Ir5 2.429805 1_555
Ge4 Ir3 2.491661 1_555
Ge4 Ir0 2.491661 1_555
Ge4 Ir4 2.555750 1_555
Ge4 Mg0 3.036641 1_555
Ge5 Ir4 2.429805 1_555
Ge5 Ir1 2.491661 1_555
Ge5 Ir2 2.491661 1_555
Ge5 Ir5 2.555750 1_555
Ge5 Mg1 3.036641 1_555
Ge6 Ir7 2.429805 1_554
Ge6 Ir3 2.491661 1_555
Ge6 Ir0 2.491661 1_555
Ge6 Ir6 2.555750 1_555
Ge6 Mg0 3.036641 1_555
Ge7 Ir6 2.429805 1_556
Ge7 Ir1 2.491661 1_555
Ge7 Ir2 2.491661 1_555
Ge7 Ir7 2.555750 1_555
Ge7 Mg1 3.036641 1_555
Ir0 Mg0 2.897139 1_555
Ir1 Mg1 2.897139 1_555
Ir2 Mg1 2.897139 1_555
Ir3 Mg0 2.897139 1_555
Ir4 Mg0 2.826942 1_665
Ir5 Mg1 2.826942 1_445
Ir6 Mg0 2.826942 1_665
Ir7 Mg1 2.826942 1_445
