# generated using pymatgen
data_Mg4AlB10
_symmetry_space_group_name_H-M   'P 1'
_cell_length_a   3.05073572
_cell_length_b   3.05073572
_cell_length_c   17.26380362
_cell_angle_alpha   90.00000000
_cell_angle_beta   90.00000000
_cell_angle_gamma   120.00001558
_symmetry_Int_Tables_number   1
_chemical_formula_structural   Mg4AlB10
_chemical_formula_sum   'Mg4 Al1 B10'
_cell_volume   139.14776160
_cell_formula_units_Z   1
loop_
 _symmetry_equiv_pos_site_id
 _symmetry_equiv_pos_as_xyz
  1  'x, y, z'
loop_
 _atom_site_type_symbol
 _atom_site_label
 _atom_site_symmetry_multiplicity
 _atom_site_fract_x
 _atom_site_fract_y
 _atom_site_fract_z
 _atom_site_occupancy
  Mg  Mg0  1  -0.00000000  0.00000000  0.80449012  1
  Mg  Mg1  1  -0.00000000  0.00000000  0.60171754  1
  Mg  Mg2  1  -0.00000000  0.00000000  0.39828246  1
  Mg  Mg3  1  -0.00000000  0.00000000  0.19550988  1
  Al  Al0  1  -0.00000000  0.00000000  -0.00000000  1
  B  B0  1  0.66666700  0.33333300  0.90925265  1
  B  B1  1  0.66666700  0.33333300  0.70398161  1
  B  B2  1  0.66666700  0.33333300  0.50000000  1
  B  B3  1  0.66666700  0.33333300  0.29601839  1
  B  B4  1  0.66666700  0.33333300  0.09074735  1
  B  B5  1  0.33333300  0.66666700  0.90925265  1
  B  B6  1  0.33333300  0.66666700  0.70398161  1
  B  B7  1  0.33333300  0.66666700  0.50000000  1
  B  B8  1  0.33333300  0.66666700  0.29601839  1
  B  B9  1  0.33333300  0.66666700  0.09074735  1
loop_
_geom_bond_atom_site_label_1
_geom_bond_atom_site_label_2
_geom_bond_distance
_geom_bond_site_symmetry_2
Al0 B4 2.357265 1_455
Al0 B9 2.357265 1_545
Al0 B5 2.357265 1_544
Al0 B0 2.357265 1_454
Al0 B4 2.357267 1_555
Al0 B4 2.357267 1_445
Al0 B5 2.357267 1_554
Al0 B5 2.357267 1_444
Al0 B9 2.357267 1_555
Al0 B0 2.357267 1_444
Al0 B9 2.357267 1_445
Al0 B0 2.357267 1_554
B0 B5 1.761341 1_545
B0 B5 1.761341 1_655
B0 B5 1.761347 1_555
B0 Mg0 2.524551 1_655
B0 Mg0 2.524552 1_665
B0 Mg0 2.524552 1_555
B1 B6 1.761341 1_545
B1 B6 1.761341 1_655
B1 B6 1.761347 1_555
B1 Mg0 2.472469 1_655
B1 Mg0 2.472470 1_665
B1 Mg0 2.472470 1_555
B1 Mg1 2.493832 1_655
B1 Mg1 2.493833 1_555
B1 Mg1 2.493833 1_665
B2 B7 1.761341 1_545
B2 B7 1.761341 1_655
B2 B7 1.761347 1_555
B2 Mg2 2.487161 1_655
B2 Mg1 2.487161 1_655
B2 Mg2 2.487163 1_555
B2 Mg1 2.487163 1_555
B2 Mg1 2.487163 1_665
B2 Mg2 2.487163 1_665
B3 B8 1.761341 1_545
B3 B8 1.761341 1_655
B3 B8 1.761347 1_555
B3 Mg3 2.472469 1_655
B3 Mg3 2.472470 1_665
B3 Mg3 2.472470 1_555
B3 Mg2 2.493832 1_655
B3 Mg2 2.493833 1_555
B3 Mg2 2.493833 1_665
B4 B9 1.761341 1_545
B4 B9 1.761341 1_655
B4 B9 1.761347 1_555
B4 Mg3 2.524551 1_655
B4 Mg3 2.524552 1_665
B4 Mg3 2.524552 1_555
B5 Mg0 2.524551 1_565
B5 Mg0 2.524552 1_665
B5 Mg0 2.524552 1_555
B6 Mg0 2.472469 1_565
B6 Mg0 2.472470 1_665
B6 Mg0 2.472470 1_555
B6 Mg1 2.493832 1_565
B6 Mg1 2.493833 1_555
B6 Mg1 2.493833 1_665
B7 Mg1 2.487161 1_565
B7 Mg2 2.487161 1_565
B7 Mg2 2.487163 1_555
B7 Mg1 2.487163 1_555
B7 Mg1 2.487163 1_665
B7 Mg2 2.487163 1_665
B8 Mg3 2.472469 1_565
B8 Mg3 2.472470 1_665
B8 Mg3 2.472470 1_555
B8 Mg2 2.493832 1_565
B8 Mg2 2.493833 1_665
B8 Mg2 2.493833 1_555
B9 Mg3 2.524551 1_565
B9 Mg3 2.524552 1_665
B9 Mg3 2.524552 1_555
