# generated using pymatgen
data_CsGd
_symmetry_space_group_name_H-M   'P 1'
_cell_length_a   7.89877268
_cell_length_b   7.89877268
_cell_length_c   14.99923800
_cell_angle_alpha   90.00000000
_cell_angle_beta   90.00000000
_cell_angle_gamma   120.00000573
_symmetry_Int_Tables_number   1
_chemical_formula_structural   CsGd
_chemical_formula_sum   'Cs8 Gd8'
_cell_volume   810.43657802
_cell_formula_units_Z   8
loop_
 _symmetry_equiv_pos_site_id
 _symmetry_equiv_pos_as_xyz
  1  'x, y, z'
loop_
 _atom_site_type_symbol
 _atom_site_label
 _atom_site_symmetry_multiplicity
 _atom_site_fract_x
 _atom_site_fract_y
 _atom_site_fract_z
 _atom_site_occupancy
  Cs  Cs0_0  1  0.00000000  0.00000000  0.25000000  1
  Cs  Cs0_1  1  0.00000000  0.00000000  0.75000000  1
  Cs  Cs0_2  1  0.00000000  0.50000000  0.25000000  1
  Cs  Cs0_3  1  0.00000000  0.50000000  0.75000000  1
  Cs  Cs0_4  1  0.50000000  0.00000000  0.25000000  1
  Cs  Cs0_5  1  0.50000000  0.00000000  0.75000000  1
  Cs  Cs0_6  1  0.50000000  0.50000000  0.25000000  1
  Cs  Cs0_7  1  0.50000000  0.50000000  0.75000000  1
  Gd  Gd0_0  1  0.33333350  0.16666650  0.00000000  1
  Gd  Gd0_1  1  0.33333350  0.16666650  0.50000000  1
  Gd  Gd0_2  1  0.33333350  0.66666650  0.00000000  1
  Gd  Gd0_3  1  0.33333350  0.66666650  0.50000000  1
  Gd  Gd0_4  1  0.83333350  0.16666650  0.00000000  1
  Gd  Gd0_5  1  0.83333350  0.16666650  0.50000000  1
  Gd  Gd0_6  1  0.83333350  0.66666650  0.00000000  1
  Gd  Gd0_7  1  0.83333350  0.66666650  0.50000000  1
loop_
_geom_bond_atom_site_label_1
_geom_bond_atom_site_label_2
_geom_bond_distance
_geom_bond_site_symmetry_2
Cs0_0 Cs0_6 3.949386 1_445
Cs0_0 Cs0_6 3.949386 1_555
Cs0_0 Cs0_2 3.949386 1_555
Cs0_0 Cs0_4 3.949386 1_555
Cs0_0 Cs0_4 3.949386 1_455
Cs0_0 Cs0_2 3.949386 1_545
Cs0_0 Gd0_5 4.388653 1_455
Cs0_0 Gd0_4 4.388653 1_455
Cs0_0 Gd0_6 4.388655 1_445
Cs0_0 Gd0_1 4.388655 1_555
Cs0_0 Gd0_0 4.388655 1_555
Cs0_0 Gd0_7 4.388655 1_445
Cs0_1 Cs0_7 3.949386 1_445
Cs0_1 Cs0_7 3.949386 1_555
Cs0_1 Cs0_3 3.949386 1_555
Cs0_1 Cs0_5 3.949386 1_555
Cs0_1 Cs0_5 3.949386 1_455
Cs0_1 Cs0_3 3.949386 1_545
Cs0_1 Gd0_5 4.388653 1_455
Cs0_1 Gd0_4 4.388653 1_456
Cs0_1 Gd0_6 4.388655 1_446
Cs0_1 Gd0_1 4.388655 1_555
Cs0_1 Gd0_7 4.388655 1_445
Cs0_1 Gd0_0 4.388655 1_556
Cs0_2 Cs0_4 3.949386 1_565
Cs0_2 Cs0_4 3.949386 1_455
Cs0_2 Cs0_6 3.949386 1_555
Cs0_2 Cs0_6 3.949386 1_455
Cs0_2 Gd0_6 4.388653 1_455
Cs0_2 Gd0_7 4.388653 1_455
Cs0_2 Gd0_4 4.388655 1_455
Cs0_2 Gd0_5 4.388655 1_455
Cs0_2 Gd0_2 4.388655 1_555
Cs0_2 Gd0_3 4.388655 1_555
Cs0_3 Cs0_5 3.949386 1_565
Cs0_3 Cs0_5 3.949386 1_455
Cs0_3 Cs0_7 3.949386 1_455
Cs0_3 Cs0_7 3.949386 1_555
Cs0_3 Gd0_6 4.388653 1_456
Cs0_3 Gd0_7 4.388653 1_455
Cs0_3 Gd0_5 4.388655 1_455
Cs0_3 Gd0_2 4.388655 1_556
Cs0_3 Gd0_4 4.388655 1_456
Cs0_3 Gd0_3 4.388655 1_555
Cs0_4 Cs0_6 3.949386 1_555
Cs0_4 Cs0_6 3.949386 1_545
Cs0_4 Gd0_0 4.388653 1_555
Cs0_4 Gd0_1 4.388653 1_555
Cs0_4 Gd0_2 4.388655 1_545
Cs0_4 Gd0_3 4.388655 1_545
Cs0_4 Gd0_4 4.388655 1_555
Cs0_4 Gd0_5 4.388655 1_555
Cs0_5 Cs0_7 3.949386 1_555
Cs0_5 Cs0_7 3.949386 1_545
Cs0_5 Gd0_0 4.388653 1_556
Cs0_5 Gd0_1 4.388653 1_555
Cs0_5 Gd0_3 4.388655 1_545
Cs0_5 Gd0_4 4.388655 1_556
Cs0_5 Gd0_5 4.388655 1_555
Cs0_5 Gd0_2 4.388655 1_546
Cs0_6 Gd0_2 4.388653 1_555
Cs0_6 Gd0_3 4.388653 1_555
Cs0_6 Gd0_7 4.388655 1_555
Cs0_6 Gd0_1 4.388655 1_555
Cs0_6 Gd0_0 4.388655 1_555
Cs0_6 Gd0_6 4.388655 1_555
Cs0_7 Gd0_2 4.388653 1_556
Cs0_7 Gd0_3 4.388653 1_555
Cs0_7 Gd0_6 4.388655 1_556
Cs0_7 Gd0_7 4.388655 1_555
Cs0_7 Gd0_1 4.388655 1_555
Cs0_7 Gd0_0 4.388655 1_556
Gd0_0 Gd0_6 3.949386 1_555
Gd0_0 Gd0_6 3.949386 1_445
Gd0_0 Gd0_2 3.949386 1_555
Gd0_0 Gd0_4 3.949386 1_455
Gd0_0 Gd0_4 3.949386 1_555
Gd0_0 Gd0_2 3.949386 1_545
Gd0_1 Gd0_7 3.949386 1_445
Gd0_1 Gd0_7 3.949386 1_555
Gd0_1 Gd0_3 3.949386 1_555
Gd0_1 Gd0_5 3.949386 1_455
Gd0_1 Gd0_5 3.949386 1_555
Gd0_1 Gd0_3 3.949386 1_545
Gd0_2 Gd0_4 3.949386 1_565
Gd0_2 Gd0_4 3.949386 1_455
Gd0_2 Gd0_6 3.949386 1_555
Gd0_2 Gd0_6 3.949386 1_455
Gd0_3 Gd0_5 3.949386 1_565
Gd0_3 Gd0_5 3.949386 1_455
Gd0_3 Gd0_7 3.949386 1_555
Gd0_3 Gd0_7 3.949386 1_455
Gd0_4 Gd0_6 3.949386 1_545
Gd0_4 Gd0_6 3.949386 1_555
Gd0_5 Gd0_7 3.949386 1_555
Gd0_5 Gd0_7 3.949386 1_545
