# generated using pymatgen
data_Yb3Tm
_symmetry_space_group_name_H-M   'P 1'
_cell_length_a   7.09085132
_cell_length_b   7.09085132
_cell_length_c   5.47713688
_cell_angle_alpha   90.00000000
_cell_angle_beta   90.00000000
_cell_angle_gamma   120.00000164
_symmetry_Int_Tables_number   1
_chemical_formula_structural   Yb3Tm
_chemical_formula_sum   'Yb6 Tm2'
_cell_volume   238.49593301
_cell_formula_units_Z   2
loop_
 _symmetry_equiv_pos_site_id
 _symmetry_equiv_pos_as_xyz
  1  'x, y, z'
loop_
 _atom_site_type_symbol
 _atom_site_label
 _atom_site_symmetry_multiplicity
 _atom_site_fract_x
 _atom_site_fract_y
 _atom_site_fract_z
 _atom_site_occupancy
  Yb  Yb0  1  0.16685908  0.33371816  0.25000000  1
  Yb  Yb1  1  0.66628184  0.83314092  0.25000000  1
  Yb  Yb2  1  0.16685908  0.83314092  0.25000000  1
  Yb  Yb3  1  0.83314092  0.66628184  0.75000000  1
  Yb  Yb4  1  0.33371816  0.16685908  0.75000000  1
  Yb  Yb5  1  0.83314092  0.16685908  0.75000000  1
  Tm  Tm0  1  0.33333300  0.66666700  0.75000000  1
  Tm  Tm1  1  0.66666700  0.33333300  0.25000000  1
loop_
_geom_bond_atom_site_label_1
_geom_bond_atom_site_label_2
_geom_bond_distance
_geom_bond_site_symmetry_2
Yb0 Yb5 3.420446 1_454
Yb0 Yb5 3.420446 1_455
Yb0 Yb4 3.420446 1_554
Yb0 Yb4 3.420446 1_555
Yb0 Yb1 3.541332 1_555
Yb0 Yb2 3.541333 1_555
Yb0 Yb1 3.549519 1_445
Yb0 Yb2 3.549519 1_545
Yb1 Yb5 3.420446 1_564
Yb1 Yb5 3.420446 1_565
Yb1 Yb3 3.420446 1_554
Yb1 Yb3 3.420446 1_555
Yb1 Yb2 3.541333 1_555
Yb1 Yb2 3.549519 1_655
Yb2 Yb3 3.420446 1_455
Yb2 Yb3 3.420446 1_454
Yb2 Yb4 3.420446 1_564
Yb2 Yb4 3.420446 1_565
Yb3 Yb4 3.541332 1_555
Yb3 Yb5 3.541333 1_555
Yb3 Yb4 3.549519 1_665
Yb3 Yb5 3.549519 1_565
Yb4 Yb5 3.541333 1_555
Yb4 Yb5 3.549519 1_455
Tm0 Yb2 3.417614 1_556
Tm0 Yb2 3.417614 1_555
Tm0 Yb0 3.417618 1_555
Tm0 Yb0 3.417618 1_556
Tm0 Yb1 3.417618 1_556
Tm0 Yb1 3.417618 1_555
Tm0 Yb3 3.545423 1_455
Tm0 Yb4 3.545423 1_565
Tm0 Yb5 3.545426 1_455
Tm0 Yb5 3.545426 1_565
Tm0 Yb3 3.545430 1_555
Tm0 Yb4 3.545430 1_555
Tm1 Yb5 3.417614 1_554
Tm1 Yb5 3.417614 1_555
Tm1 Yb3 3.417618 1_554
Tm1 Yb3 3.417618 1_555
Tm1 Yb4 3.417618 1_555
Tm1 Yb4 3.417618 1_554
Tm1 Yb1 3.545423 1_545
Tm1 Yb0 3.545423 1_655
Tm1 Yb2 3.545426 1_545
Tm1 Yb2 3.545426 1_655
Tm1 Yb1 3.545430 1_555
Tm1 Yb0 3.545430 1_555
