# generated using pymatgen
data_K3TmF6
_symmetry_space_group_name_H-M   'P 1'
_cell_length_a   6.76290305
_cell_length_b   6.76290305
_cell_length_c   6.76290305
_cell_angle_alpha   94.85754682
_cell_angle_beta   117.23625753
_cell_angle_gamma   117.23625753
_symmetry_Int_Tables_number   1
_chemical_formula_structural   K3TmF6
_chemical_formula_sum   'K3 Tm1 F6'
_cell_volume   226.97204816
_cell_formula_units_Z   1
loop_
 _symmetry_equiv_pos_site_id
 _symmetry_equiv_pos_as_xyz
  1  'x, y, z'
loop_
 _atom_site_type_symbol
 _atom_site_label
 _atom_site_symmetry_multiplicity
 _atom_site_fract_x
 _atom_site_fract_y
 _atom_site_fract_z
 _atom_site_occupancy
  K  K0  1  0.50000000  0.75000000  0.25000000  1
  K  K1  1  0.50000000  0.25000000  0.75000000  1
  K  K2  1  0.00000000  0.50000000  0.50000000  1
  Tm  Tm0  1  0.00000000  0.00000000  0.00000000  1
  F  F0  1  0.69630000  0.00000000  0.69630000  1
  F  F1  1  0.30370000  0.00000000  0.30370000  1
  F  F2  1  0.69630000  0.69630000  0.00000000  1
  F  F3  1  0.30370000  0.30370000  0.00000000  1
  F  F4  1  0.00000000  0.23627100  0.23627100  1
  F  F5  1  0.00000000  0.76372900  0.76372900  1
loop_
_geom_bond_atom_site_label_1
_geom_bond_atom_site_label_2
_geom_bond_distance
_geom_bond_site_symmetry_2
F0 Tm0 2.139087 1_656
F0 K0 2.672946 1_545
F0 K1 2.672946 1_555
F1 Tm0 2.139087 1_555
F1 K0 2.672946 1_545
F1 K1 2.672946 1_555
F2 Tm0 2.139087 1_665
F2 K1 2.672946 1_554
F2 K0 2.672946 1_555
F3 Tm0 2.139087 1_555
F3 K0 2.672946 1_555
F3 K1 2.672946 1_554
F4 Tm0 2.161949 1_555
F4 K2 2.413197 1_555
F5 Tm0 2.161949 1_566
F5 K2 2.413197 1_555
