# generated using pymatgen
data_Na4Al3Fe(SiO3)8
_symmetry_space_group_name_H-M   'P 1'
_cell_length_a   8.71774800
_cell_length_b   5.30977400
_cell_length_c   9.45656872
_cell_angle_alpha   75.39268832
_cell_angle_beta   90.00000000
_cell_angle_gamma   90.00000000
_symmetry_Int_Tables_number   1
_chemical_formula_structural   Na4Al3Fe(SiO3)8
_chemical_formula_sum   'Na4 Al3 Fe1 Si8 O24'
_cell_volume   423.58868127
_cell_formula_units_Z   1
loop_
 _symmetry_equiv_pos_site_id
 _symmetry_equiv_pos_as_xyz
  1  'x, y, z'
loop_
 _atom_site_type_symbol
 _atom_site_label
 _atom_site_symmetry_multiplicity
 _atom_site_fract_x
 _atom_site_fract_y
 _atom_site_fract_z
 _atom_site_occupancy
  Na  Na0  1  0.79989400  0.50000000  0.50000000  1
  Na  Na1  1  0.29950700  0.00000000  0.00000000  1
  Na  Na2  1  0.19978600  0.00000000  0.50000000  1
  Na  Na3  1  0.70042700  0.50000000  0.00000000  1
  Al  Al0  1  0.90364400  0.00000000  0.00000000  1
  Al  Al1  1  0.59804400  0.00000000  0.50000000  1
  Al  Al2  1  0.09589300  0.50000000  0.00000000  1
  Fe  Fe0  1  0.40345700  0.50000000  0.50000000  1
  Si  Si0  1  0.08845900  0.68972500  0.28716300  1
  Si  Si1  1  0.59416800  0.18572200  0.79159300  1
  Si  Si2  1  0.08845900  0.31027500  0.71283700  1
  Si  Si3  1  0.59416800  0.81427800  0.20840700  1
  Si  Si4  1  0.90637800  0.81158200  0.71042200  1
  Si  Si5  1  0.40747500  0.31059500  0.20799500  1
  Si  Si6  1  0.90637800  0.18841800  0.28957800  1
  Si  Si7  1  0.40747500  0.68940500  0.79200500  1
  O  O0  1  0.07329100  0.76813400  0.10726100  1
  O  O1  1  0.58282500  0.25939500  0.61127900  1
  O  O2  1  0.07329100  0.23186600  0.89273900  1
  O  O3  1  0.58282500  0.74060500  0.38872100  1
  O  O4  1  0.92462900  0.73245600  0.89047400  1
  O  O5  1  0.42578100  0.21772000  0.38765700  1
  O  O6  1  0.92462900  0.26754400  0.10952600  1
  O  O7  1  0.42578100  0.78228000  0.61234300  1
  O  O8  1  0.00624800  0.40453600  0.35186200  1
  O  O9  1  0.50681000  0.90409600  0.85548200  1
  O  O10  1  0.00624800  0.59546400  0.64813800  1
  O  O11  1  0.50681000  0.09590400  0.14451800  1
  O  O12  1  0.99182300  0.09517400  0.64794600  1
  O  O13  1  0.49389600  0.59486200  0.14906700  1
  O  O14  1  0.99182300  0.90482600  0.35205400  1
  O  O15  1  0.49389600  0.40513800  0.85093300  1
  O  O16  1  0.25804000  0.69058900  0.35492400  1
  O  O17  1  0.76187000  0.18109900  0.86354700  1
  O  O18  1  0.25804000  0.30941100  0.64507600  1
  O  O19  1  0.76187000  0.81890100  0.13645300  1
  O  O20  1  0.73917000  0.81618800  0.63771600  1
  O  O21  1  0.23880900  0.31981100  0.13695700  1
  O  O22  1  0.73917000  0.18381200  0.36228400  1
  O  O23  1  0.23880900  0.68018900  0.86304300  1
loop_
_geom_bond_atom_site_label_1
_geom_bond_atom_site_label_2
_geom_bond_distance
_geom_bond_site_symmetry_2
Na0 O3 2.375380 1_555
Na0 O1 2.375380 1_555
Na0 O10 2.411172 1_655
Na0 O8 2.411172 1_655
Na0 O22 2.428529 1_555
Na0 O20 2.428529 1_555
Na0 O12 2.803672 1_555
Na0 O14 2.803672 1_555
Na1 O11 2.396680 1_555
Na1 O9 2.396680 1_544
Na1 O0 2.409124 1_545
Na1 O2 2.409124 1_554
Na1 O21 2.439329 1_555
Na1 O23 2.439329 1_544
Na1 O15 2.820821 1_554
Na1 O13 2.820821 1_545
Na2 O5 2.393153 1_555
Na2 O7 2.393153 1_545
Na2 O12 2.419963 1_455
Na2 O14 2.419963 1_445
Na2 O18 2.444597 1_555
Na2 O16 2.444597 1_545
Na2 O8 2.811636 1_555
Na2 O10 2.811636 1_545
Na3 O4 2.402422 1_554
Na3 O6 2.402422 1_555
Na3 O15 2.416762 1_554
Na3 O13 2.416762 1_555
Na3 O19 2.433373 1_555
Na3 O17 2.433373 1_554
Na3 O11 2.800277 1_555
Na3 O9 2.800277 1_554
Al0 O19 1.868544 1_545
Al0 O17 1.868544 1_554
Al0 O6 1.966332 1_555
Al0 O4 1.966332 1_544
Al0 O2 2.025336 1_654
Al0 O0 2.025336 1_645
Al1 O20 1.876472 1_545
Al1 O22 1.876472 1_555
Al1 O1 1.937282 1_555
Al1 O3 1.937282 1_545
Al1 O5 2.025058 1_555
Al1 O7 2.025058 1_545
Al2 O21 1.876184 1_555
Al2 O23 1.876184 1_554
Al2 O0 1.955268 1_555
Al2 O2 1.955268 1_554
Al2 O4 2.044646 1_454
Al2 O6 2.044646 1_455
Fe0 O18 1.952715 1_555
Fe0 O16 1.952715 1_555
Fe0 O7 2.053341 1_555
Fe0 O5 2.053341 1_555
Fe0 O1 2.122862 1_555
Fe0 O3 2.122862 1_555
O0 Si0 1.651617 1_555
O1 Si1 1.653453 1_555
O2 Si2 1.651617 1_555
O3 Si3 1.653453 1_555
O4 Si4 1.655329 1_555
O5 Si5 1.653063 1_555
O6 Si6 1.655329 1_555
O7 Si7 1.653063 1_555
O8 Si0 1.647347 1_555
O8 Si6 1.662132 1_455
O9 Si1 1.650892 1_565
O9 Si7 1.659790 1_555
O10 Si2 1.647347 1_555
O10 Si4 1.662132 1_455
O11 Si3 1.650892 1_545
O11 Si5 1.659790 1_555
O12 Si4 1.650046 1_545
O12 Si2 1.656583 1_655
O13 Si5 1.652925 1_555
O13 Si3 1.663165 1_555
O14 Si6 1.650046 1_565
O14 Si0 1.656583 1_655
O15 Si7 1.652925 1_555
O15 Si1 1.663165 1_555
O16 Si0 1.611730 1_555
O17 Si1 1.610146 1_555
O18 Si2 1.611730 1_555
O19 Si3 1.610146 1_555
O20 Si4 1.609243 1_555
O21 Si5 1.612184 1_555
O22 Si6 1.609243 1_555
O23 Si7 1.612184 1_555
