# generated using pymatgen
data_Ca8Ti3Mn5O24
_symmetry_space_group_name_H-M   'P 1'
_cell_length_a   7.68237700
_cell_length_b   7.66990800
_cell_length_c   7.68237700
_cell_angle_alpha   90.00000000
_cell_angle_beta   90.00000000
_cell_angle_gamma   90.00000000
_symmetry_Int_Tables_number   1
_chemical_formula_structural   Ca8Ti3Mn5O24
_chemical_formula_sum   'Ca8 Ti3 Mn5 O24'
_cell_volume   452.66965882
_cell_formula_units_Z   1
loop_
 _symmetry_equiv_pos_site_id
 _symmetry_equiv_pos_as_xyz
  1  'x, y, z'
loop_
 _atom_site_type_symbol
 _atom_site_label
 _atom_site_symmetry_multiplicity
 _atom_site_fract_x
 _atom_site_fract_y
 _atom_site_fract_z
 _atom_site_occupancy
  Ca  Ca0  1  0.25226900  0.25731200  0.25226900  1
  Ca  Ca1  1  0.25226900  0.25731200  0.74773100  1
  Ca  Ca2  1  0.25226900  0.74268800  0.25226900  1
  Ca  Ca3  1  0.25226900  0.74268800  0.74773100  1
  Ca  Ca4  1  0.74773100  0.25731200  0.25226900  1
  Ca  Ca5  1  0.74773100  0.25731200  0.74773100  1
  Ca  Ca6  1  0.74773100  0.74268800  0.25226900  1
  Ca  Ca7  1  0.74773100  0.74268800  0.74773100  1
  Ti  Ti0  1  0.00000000  0.00000000  0.00000000  1
  Ti  Ti1  1  0.00000000  0.00000000  0.50000000  1
  Ti  Ti2  1  0.50000000  0.00000000  0.00000000  1
  Mn  Mn0  1  0.00000000  0.50000000  0.00000000  1
  Mn  Mn1  1  0.00000000  0.50000000  0.50000000  1
  Mn  Mn2  1  0.50000000  0.00000000  0.50000000  1
  Mn  Mn3  1  0.50000000  0.50000000  0.00000000  1
  Mn  Mn4  1  0.50000000  0.50000000  0.50000000  1
  O  O0  1  0.00000000  0.00000000  0.25053700  1
  O  O1  1  0.00000000  0.00000000  0.74946300  1
  O  O2  1  0.00000000  0.50000000  0.25014100  1
  O  O3  1  0.00000000  0.50000000  0.74985900  1
  O  O4  1  0.50000000  0.00000000  0.25282200  1
  O  O5  1  0.50000000  0.00000000  0.74717800  1
  O  O6  1  0.50000000  0.50000000  0.25015200  1
  O  O7  1  0.50000000  0.50000000  0.74984800  1
  O  O8  1  0.25053700  0.00000000  0.00000000  1
  O  O9  1  0.25282200  0.00000000  0.50000000  1
  O  O10  1  0.25014100  0.50000000  0.00000000  1
  O  O11  1  0.25015200  0.50000000  0.50000000  1
  O  O12  1  0.74946300  0.00000000  0.00000000  1
  O  O13  1  0.74717800  0.00000000  0.50000000  1
  O  O14  1  0.74985900  0.50000000  0.00000000  1
  O  O15  1  0.74984800  0.50000000  0.50000000  1
  O  O16  1  0.00000000  0.25378100  0.00000000  1
  O  O17  1  0.00000000  0.25346900  0.50000000  1
  O  O18  1  0.00000000  0.74621900  0.00000000  1
  O  O19  1  0.00000000  0.74653100  0.50000000  1
  O  O20  1  0.50000000  0.25346900  0.00000000  1
  O  O21  1  0.50000000  0.25064300  0.50000000  1
  O  O22  1  0.50000000  0.74653100  0.00000000  1
  O  O23  1  0.50000000  0.74935700  0.50000000  1
loop_
_geom_bond_atom_site_label_1
_geom_bond_atom_site_label_2
_geom_bond_distance
_geom_bond_site_symmetry_2
Ca0 O11 2.662158 1_555
Ca0 O6 2.662158 1_555
Ca0 O10 2.687192 1_555
Ca0 O2 2.687192 1_555
Ca0 O21 2.691965 1_555
Ca0 O20 2.716402 1_555
Ca0 O17 2.716402 1_555
Ca0 O16 2.740916 1_555
Ca0 O4 2.741712 1_555
Ca0 O9 2.741712 1_555
Ca0 O0 2.766054 1_555
Ca0 O8 2.766054 1_555
Ca1 O11 2.662158 1_555
Ca1 O7 2.662158 1_555
Ca1 O3 2.687192 1_555
Ca1 O10 2.687192 1_556
Ca1 O21 2.691965 1_555
Ca1 O17 2.716402 1_555
Ca1 O20 2.716402 1_556
Ca1 O16 2.740916 1_556
Ca1 O9 2.741712 1_555
Ca1 O5 2.741712 1_555
Ca1 O1 2.766054 1_555
Ca1 O8 2.766054 1_556
Ca2 O11 2.662158 1_555
Ca2 O6 2.662158 1_555
Ca2 O10 2.687192 1_555
Ca2 O2 2.687192 1_555
Ca2 O23 2.691965 1_555
Ca2 O22 2.716402 1_555
Ca2 O19 2.716402 1_555
Ca2 O18 2.740916 1_555
Ca2 O9 2.741712 1_565
Ca2 O4 2.741712 1_565
Ca2 O0 2.766054 1_565
Ca2 O8 2.766054 1_565
Ca3 O11 2.662158 1_555
Ca3 O7 2.662158 1_555
Ca3 O3 2.687192 1_555
Ca3 O10 2.687192 1_556
Ca3 O23 2.691965 1_555
Ca3 O19 2.716402 1_555
Ca3 O22 2.716402 1_556
Ca3 O18 2.740916 1_556
Ca3 O9 2.741712 1_565
Ca3 O5 2.741712 1_565
Ca3 O1 2.766054 1_565
Ca3 O8 2.766054 1_566
Ca4 O6 2.662158 1_555
Ca4 O15 2.662158 1_555
Ca4 O14 2.687192 1_555
Ca4 O2 2.687192 1_655
Ca4 O21 2.691965 1_555
Ca4 O20 2.716402 1_555
Ca4 O17 2.716402 1_655
Ca4 O16 2.740916 1_655
Ca4 O4 2.741712 1_555
Ca4 O13 2.741712 1_555
Ca4 O12 2.766054 1_555
Ca4 O0 2.766054 1_655
Ca5 O15 2.662158 1_555
Ca5 O7 2.662158 1_555
Ca5 O3 2.687192 1_655
Ca5 O14 2.687192 1_556
Ca5 O21 2.691965 1_555
Ca5 O20 2.716402 1_556
Ca5 O17 2.716402 1_655
Ca5 O16 2.740916 1_656
Ca5 O5 2.741712 1_555
Ca5 O13 2.741712 1_555
Ca5 O1 2.766054 1_655
Ca5 O12 2.766054 1_556
Ca6 O6 2.662158 1_555
Ca6 O15 2.662158 1_555
Ca6 O14 2.687192 1_555
Ca6 O2 2.687192 1_655
Ca6 O23 2.691965 1_555
Ca6 O22 2.716402 1_555
Ca6 O19 2.716402 1_655
Ca6 O18 2.740916 1_655
Ca6 O4 2.741712 1_565
Ca6 O13 2.741712 1_565
Ca6 O12 2.766054 1_565
Ca6 O0 2.766054 1_665
Ca7 O15 2.662158 1_555
Ca7 O7 2.662158 1_555
Ca7 O3 2.687192 1_655
Ca7 O14 2.687192 1_556
Ca7 O23 2.691965 1_555
Ca7 O22 2.716402 1_556
Ca7 O19 2.716402 1_655
Ca7 O18 2.740916 1_656
Ca7 O13 2.741712 1_565
Ca7 O5 2.741712 1_565
Ca7 O1 2.766054 1_665
Ca7 O12 2.766054 1_566
Mn0 O18 1.888477 1_555
Mn0 O16 1.888477 1_555
Mn0 O10 1.921677 1_555
Mn0 O2 1.921677 1_555
Mn0 O14 1.921677 1_455
Mn0 O3 1.921677 1_554
Mn1 O19 1.890870 1_555
Mn1 O17 1.890870 1_555
Mn1 O3 1.919511 1_555
Mn1 O2 1.919511 1_555
Mn1 O11 1.921762 1_555
Mn1 O15 1.921762 1_455
Mn2 O5 1.898915 1_555
Mn2 O9 1.898915 1_555
Mn2 O13 1.898915 1_555
Mn2 O4 1.898915 1_555
Mn2 O21 1.922409 1_555
Mn2 O23 1.922409 1_545
Mn3 O22 1.890870 1_555
Mn3 O20 1.890870 1_555
Mn3 O14 1.919511 1_555
Mn3 O10 1.919511 1_555
Mn3 O6 1.921762 1_555
Mn3 O7 1.921762 1_554
Mn4 O23 1.912545 1_555
Mn4 O21 1.912545 1_555
Mn4 O15 1.919427 1_555
Mn4 O7 1.919427 1_555
Mn4 O6 1.919427 1_555
Mn4 O11 1.919427 1_555
O0 Ti1 1.916469 1_555
O0 Ti0 1.924720 1_555
O1 Ti1 1.916469 1_555
O1 Ti0 1.924720 1_556
O4 Ti2 1.942274 1_555
O5 Ti2 1.942274 1_556
O8 Ti2 1.916469 1_555
O8 Ti0 1.924720 1_555
O9 Ti1 1.942274 1_555
O12 Ti2 1.916469 1_555
O12 Ti0 1.924720 1_655
O13 Ti1 1.942274 1_655
O16 Ti0 1.946477 1_555
O17 Ti1 1.944084 1_555
O18 Ti0 1.946477 1_565
O19 Ti1 1.944084 1_565
O20 Ti2 1.944084 1_555
O22 Ti2 1.944084 1_565
