# generated using pymatgen
data_Y5(Si7Os2)2
_symmetry_space_group_name_H-M   'P 1'
_cell_length_a   8.03041999
_cell_length_b   7.93137541
_cell_length_c   12.82799999
_cell_angle_alpha   81.51261956
_cell_angle_beta   90.00000000
_cell_angle_gamma   90.00000000
_symmetry_Int_Tables_number   1
_chemical_formula_structural   Y5(Si7Os2)2
_chemical_formula_sum   'Y10 Si28 Os8'
_cell_volume   808.09656189
_cell_formula_units_Z   2
loop_
 _symmetry_equiv_pos_site_id
 _symmetry_equiv_pos_as_xyz
  1  'x, y, z'
loop_
 _atom_site_type_symbol
 _atom_site_label
 _atom_site_symmetry_multiplicity
 _atom_site_fract_x
 _atom_site_fract_y
 _atom_site_fract_z
 _atom_site_occupancy
  Y  Y0  1  0.74523828  0.34212013  0.63774650  1
  Y  Y1  1  0.24523828  0.15787987  0.36225350  1
  Y  Y2  1  0.25476172  0.65787987  0.36225350  1
  Y  Y3  1  0.75476172  0.84212013  0.63774650  1
  Y  Y4  1  0.74868779  0.16284262  0.36347022  1
  Y  Y5  1  0.24868779  0.33715738  0.63652978  1
  Y  Y6  1  0.25131221  0.83715738  0.63652978  1
  Y  Y7  1  0.75131221  0.66284262  0.36347022  1
  Y  Y8  1  0.50000000  0.00000000  -0.00000000  1
  Y  Y9  1  0.00000000  0.50000000  -0.00000000  1
  Si  Si0  1  0.00023496  0.60623637  0.56010309  1
  Si  Si1  1  0.50023496  0.89376363  0.43989691  1
  Si  Si2  1  0.99976504  0.39376363  0.43989691  1
  Si  Si3  1  0.49976504  0.10623637  0.56010309  1
  Si  Si4  1  0.49995447  0.38513649  0.44933503  1
  Si  Si5  1  -0.00004553  0.11486351  0.55066497  1
  Si  Si6  1  0.50004553  0.61486351  0.55066497  1
  Si  Si7  1  0.00004553  0.88513649  0.44933503  1
  Si  Si8  1  0.00629339  0.82300398  0.82222608  1
  Si  Si9  1  0.50629339  0.67699602  0.17777392  1
  Si  Si10  1  0.99370661  0.17699602  0.17777392  1
  Si  Si11  1  0.49370661  0.32300398  0.82222608  1
  Si  Si12  1  0.50677104  0.76205915  0.82229278  1
  Si  Si13  1  0.00677104  0.73794085  0.17770722  1
  Si  Si14  1  0.49322896  0.23794085  0.17770722  1
  Si  Si15  1  0.99322896  0.26205915  0.82229278  1
  Si  Si16  1  0.27969632  0.53677635  0.82199296  1
  Si  Si17  1  0.77969632  0.96322365  0.17800704  1
  Si  Si18  1  0.33341685  0.66511689  0.99953768  1
  Si  Si19  1  0.83341685  0.83488311  0.00046232  1
  Si  Si20  1  0.66658315  0.33488311  0.00046232  1
  Si  Si21  1  0.16658315  0.16511689  0.99953768  1
  Si  Si22  1  0.77943576  0.04991492  0.82239302  1
  Si  Si23  1  0.27943576  0.45008508  0.17760698  1
  Si  Si24  1  0.22056424  0.95008508  0.17760698  1
  Si  Si25  1  0.72056424  0.54991492  0.82239302  1
  Si  Si26  1  0.22030368  0.03677635  0.82199296  1
  Si  Si27  1  0.72030368  0.46322365  0.17800704  1
  Os  Os0  1  0.12682276  0.87039580  0.99949897  1
  Os  Os1  1  0.62682276  0.62960420  0.00050103  1
  Os  Os2  1  0.87317724  0.12960420  0.00050103  1
  Os  Os3  1  0.37317724  0.37039580  0.99949897  1
  Os  Os4  1  0.49994937  0.06019902  0.74716388  1
  Os  Os5  1  -0.00005063  0.43980098  0.25283612  1
  Os  Os6  1  0.50005063  0.93980098  0.25283612  1
  Os  Os7  1  0.00005063  0.56019902  0.74716388  1
loop_
_geom_bond_atom_site_label_1
_geom_bond_atom_site_label_2
_geom_bond_distance
_geom_bond_site_symmetry_2
Si0 Si7 2.446314 1_555
Si0 Si2 2.446376 1_455
Si0 Y5 2.979761 1_555
Si0 Y6 2.985127 1_555
Si0 Y3 2.987997 1_455
Si0 Y0 2.992918 1_455
Si0 Y7 3.197755 1_455
Si0 Y2 3.237312 1_555
Si1 Si6 2.446314 1_555
Si1 Si3 2.446376 1_565
Si1 Y4 2.979761 1_565
Si1 Y7 2.985127 1_555
Si1 Y2 2.987997 1_555
Si1 Y1 2.992918 1_565
Si1 Y6 3.197755 1_555
Si1 Y3 3.237312 1_555
Si2 Si5 2.446314 1_655
Si2 Y7 2.979761 1_555
Si2 Y4 2.985127 1_555
Si2 Y1 2.987997 1_655
Si2 Y2 2.992918 1_655
Si2 Y5 3.197755 1_655
Si2 Y0 3.237312 1_555
Si3 Si4 2.446314 1_555
Si3 Y6 2.979761 1_545
Si3 Y5 2.985127 1_555
Si3 Y0 2.987997 1_555
Si3 Y3 2.992918 1_545
Si3 Y4 3.197755 1_555
Si3 Y1 3.237312 1_555
Si4 Si6 2.389273 1_555
Si4 Y4 2.980728 1_555
Si4 Y2 3.015143 1_555
Si4 Y1 3.045497 1_555
Si4 Y7 3.069672 1_555
Si4 Y0 3.097490 1_555
Si4 Y5 3.116553 1_555
Si5 Si7 2.389273 1_545
Si5 Y5 2.980728 1_555
Si5 Y3 3.015143 1_445
Si5 Y0 3.045497 1_455
Si5 Y6 3.069672 1_545
Si5 Y1 3.097490 1_555
Si5 Y4 3.116553 1_455
Si6 Y6 2.980728 1_555
Si6 Y0 3.015143 1_555
Si6 Y3 3.045497 1_555
Si6 Y5 3.069672 1_555
Si6 Y2 3.097490 1_555
Si6 Y7 3.116553 1_555
Si7 Y7 2.980728 1_455
Si7 Y1 3.015143 1_565
Si7 Y2 3.045497 1_555
Si7 Y4 3.069672 1_465
Si7 Y3 3.097490 1_455
Si7 Y6 3.116553 1_555
Si8 Y6 3.078895 1_555
Si8 Y3 3.097972 1_455
Si8 Y9 3.168875 1_556
Si9 Y7 3.078895 1_555
Si9 Y2 3.097972 1_555
Si9 Y8 3.168875 1_565
Si10 Si17 2.413881 1_545
Si10 Si24 2.561042 1_645
Si10 Si21 2.688392 1_654
Si10 Y4 3.078895 1_555
Si10 Y1 3.097972 1_655
Si10 Y9 3.168875 1_655
Si11 Si16 2.413881 1_555
Si11 Si25 2.561042 1_555
Si11 Si20 2.688392 1_556
Si11 Y5 3.078895 1_555
Si11 Y0 3.097972 1_555
Si11 Y8 3.168875 1_556
Si12 Si25 2.403760 1_555
Si12 Si16 2.553405 1_555
Si12 Si18 2.680075 1_555
Si12 Y3 3.087041 1_555
Si12 Y6 3.134127 1_555
Si12 Y8 3.167189 1_566
Si13 Si24 2.403760 1_555
Si13 Si17 2.553405 1_455
Si13 Si19 2.680075 1_455
Si13 Y2 3.087041 1_555
Si13 Y7 3.134127 1_455
Si13 Y9 3.167189 1_555
Si14 Si23 2.403760 1_555
Si14 Si27 2.553405 1_555
Si14 Si20 2.680075 1_555
Si14 Y1 3.087041 1_555
Si14 Y4 3.134127 1_555
Si14 Y8 3.167189 1_555
Si15 Si22 2.403760 1_555
Si15 Si26 2.553405 1_655
Si15 Si21 2.680075 1_655
Si15 Y0 3.087041 1_555
Si15 Y5 3.134127 1_655
Si15 Y9 3.167189 1_656
Si16 Si18 2.663419 1_555
Si16 Y5 3.056272 1_555
Si16 Y6 3.116896 1_555
Si16 Y9 3.185529 1_556
Si17 Si19 2.663419 1_555
Si17 Y4 3.056272 1_565
Si17 Y7 3.116896 1_555
Si17 Y8 3.185529 1_565
Si18 Si23 2.676669 1_556
Si18 Si9 2.688392 1_556
Si18 Y8 2.974726 1_566
Si18 Y9 2.980216 1_556
Si19 Si22 2.676669 1_564
Si19 Si8 2.688392 1_654
Si19 Y9 2.974726 1_655
Si19 Y8 2.980216 1_565
Si20 Si27 2.663419 1_555
Si20 Si25 2.676669 1_554
Si20 Y8 2.974726 1_555
Si20 Y9 2.980216 1_655
Si21 Si26 2.663419 1_555
Si21 Si24 2.676669 1_546
Si21 Y9 2.974726 1_556
Si21 Y8 2.980216 1_556
Si22 Si8 2.561042 1_645
Si22 Y0 3.071921 1_555
Si22 Y3 3.085173 1_545
Si22 Y8 3.180692 1_556
Si23 Si9 2.561042 1_555
Si23 Y1 3.071921 1_555
Si23 Y2 3.085173 1_555
Si23 Y9 3.180692 1_555
Si24 Y2 3.071921 1_555
Si24 Y1 3.085173 1_565
Si24 Y8 3.180692 1_565
Si25 Y3 3.071921 1_555
Si25 Y0 3.085173 1_555
Si25 Y9 3.180692 1_656
Si26 Si8 2.413881 1_545
Si26 Y6 3.056272 1_545
Si26 Y5 3.116896 1_555
Si26 Y8 3.185529 1_556
Si27 Si9 2.413881 1_555
Si27 Y7 3.056272 1_555
Si27 Y4 3.116896 1_555
Si27 Y9 3.185529 1_655
Os0 Si18 2.324440 1_555
Os0 Si21 2.359322 1_565
Os0 Si19 2.372764 1_456
Os0 Si8 2.549857 1_555
Os0 Si13 2.559338 1_556
Os0 Si26 2.569613 1_565
Os0 Si24 2.571498 1_556
Os0 Y9 3.108384 1_556
Os0 Y8 3.168483 1_566
Os1 Si19 2.324440 1_555
Os1 Si20 2.359322 1_555
Os1 Si18 2.372764 1_554
Os1 Si9 2.549857 1_555
Os1 Si12 2.559338 1_554
Os1 Si27 2.569613 1_555
Os1 Si25 2.571498 1_554
Os1 Y8 3.108384 1_565
Os1 Y9 3.168483 1_655
Os2 Si20 2.324440 1_555
Os2 Si19 2.359322 1_545
Os2 Si21 2.372764 1_654
Os2 Si10 2.549857 1_555
Os2 Si15 2.559338 1_554
Os2 Si17 2.569613 1_545
Os2 Si22 2.571498 1_554
Os2 Y9 3.108384 1_655
Os2 Y8 3.168483 1_555
Os3 Si21 2.324440 1_555
Os3 Si18 2.359322 1_555
Os3 Si20 2.372764 1_556
Os3 Si11 2.549857 1_555
Os3 Si14 2.559338 1_556
Os3 Si16 2.569613 1_555
Os3 Si23 2.571498 1_556
Os3 Y8 3.108384 1_556
Os3 Y9 3.168483 1_556
Os4 Si3 2.373362 1_555
Os4 Si12 2.418828 1_545
Os4 Si11 2.422165 1_555
Os4 Si26 2.438512 1_555
Os4 Si22 2.439676 1_555
Os4 Y3 3.140960 1_545
Os4 Y6 3.141874 1_545
Os4 Y0 3.150156 1_555
Os4 Y5 3.160776 1_555
Os4 Y8 3.207862 1_556
Os5 Si2 2.373362 1_455
Os5 Si13 2.418828 1_555
Os5 Si10 2.422165 1_455
Os5 Si27 2.438512 1_455
Os5 Si23 2.439676 1_555
Os5 Y2 3.140960 1_555
Os5 Y7 3.141874 1_455
Os5 Y1 3.150156 1_555
Os5 Y4 3.160776 1_455
Os5 Y9 3.207862 1_555
Os6 Si1 2.373362 1_555
Os6 Si14 2.418828 1_565
Os6 Si9 2.422165 1_555
Os6 Si17 2.438512 1_555
Os6 Si24 2.439676 1_555
Os6 Y1 3.140960 1_565
Os6 Y4 3.141874 1_565
Os6 Y2 3.150156 1_555
Os6 Y7 3.160776 1_555
Os6 Y8 3.207862 1_565
Os7 Si0 2.373362 1_555
Os7 Si15 2.418828 1_455
Os7 Si8 2.422165 1_555
Os7 Si16 2.438512 1_555
Os7 Si25 2.439676 1_455
Os7 Y0 3.140960 1_455
Os7 Y5 3.141874 1_555
Os7 Y3 3.150156 1_455
Os7 Y6 3.160776 1_555
Os7 Y9 3.207862 1_556
