# generated using pymatgen
data_Fe3O4
_symmetry_space_group_name_H-M   'P 1'
_cell_length_a   6.10603586
_cell_length_b   6.10617309
_cell_length_c   17.06046222
_cell_angle_alpha   90.00232841
_cell_angle_beta   90.10718364
_cell_angle_gamma   90.01992848
_symmetry_Int_Tables_number   1
_chemical_formula_structural   Fe3O4
_chemical_formula_sum   'Fe24 O32'
_cell_volume   636.08985362
_cell_formula_units_Z   8
loop_
 _symmetry_equiv_pos_site_id
 _symmetry_equiv_pos_as_xyz
  1  'x, y, z'
loop_
 _atom_site_type_symbol
 _atom_site_label
 _atom_site_symmetry_multiplicity
 _atom_site_fract_x
 _atom_site_fract_y
 _atom_site_fract_z
 _atom_site_occupancy
  Fe  Fe0  1  0.49882100  0.75053300  0.36906400  1
  Fe  Fe1  1  0.49917500  0.24450000  0.86841100  1
  Fe  Fe2  1  0.00212300  0.25059500  0.12154500  1
  Fe  Fe3  1  0.00025200  0.75575500  0.62412200  1
  Fe  Fe4  1  0.00255200  0.75319000  0.12180700  1
  Fe  Fe5  1  0.00019100  0.25065400  0.62236900  1
  Fe  Fe6  1  0.99558500  0.49559100  0.30917500  1
  Fe  Fe7  1  0.00030800  0.49770500  0.81049400  1
  Fe  Fe8  1  0.24429900  0.49945400  0.99836800  1
  Fe  Fe9  1  0.75078000  0.50023400  0.49591200  1
  Fe  Fe10  1  0.75398400  0.49925900  0.99697000  1
  Fe  Fe11  1  0.24891100  0.50015100  0.49533300  1
  Fe  Fe12  1  0.49942700  0.00089300  0.05579400  1
  Fe  Fe13  1  0.49973500  0.99611500  0.55661700  1
  Fe  Fe14  1  0.50375000  0.50202500  0.18271900  1
  Fe  Fe15  1  0.49994300  0.50540300  0.68214600  1
  Fe  Fe16  1  0.99894100  0.00298100  0.43248100  1
  Fe  Fe17  1  0.00071200  0.99881400  0.93338800  1
  Fe  Fe18  1  0.25142700  0.99873100  0.24456800  1
  Fe  Fe19  1  0.74961400  0.00197700  0.74487900  1
  Fe  Fe20  1  0.75418400  0.99675100  0.24239800  1
  Fe  Fe21  1  0.25018500  0.00128900  0.74448300  1
  Fe  Fe22  1  0.49895200  0.24669100  0.36852900  1
  Fe  Fe23  1  0.49978900  0.75311000  0.87024200  1
  O  O0  1  0.98826000  0.76033700  0.24842000  1
  O  O1  1  0.99983000  0.24221600  0.74612400  1
  O  O2  1  0.51070900  0.24174800  0.25096000  1
  O  O3  1  0.50053500  0.75742000  0.74902700  1
  O  O4  1  0.99241300  0.23317200  0.24720600  1
  O  O5  1  0.00036500  0.74735300  0.74157800  1
  O  O6  1  0.24970100  0.50000600  0.11790200  1
  O  O7  1  0.76117100  0.51056600  0.61492500  1
  O  O8  1  0.75620100  0.50148900  0.11671100  1
  O  O9  1  0.23870100  0.51040900  0.61450300  1
  O  O10  1  0.24410900  0.00050100  0.11872000  1
  O  O11  1  0.76310100  0.99028700  0.61739900  1
  O  O12  1  0.74929500  0.00224100  0.12451000  1
  O  O13  1  0.23807500  0.99000300  0.61771400  1
  O  O14  1  0.50039500  0.72986600  0.99161900  1
  O  O15  1  0.50034100  0.26987300  0.49278700  1
  O  O16  1  0.99939000  0.71838900  0.99658300  1
  O  O17  1  0.99978800  0.27096100  0.49578200  1
  O  O18  1  0.50009300  0.27002000  0.99118900  1
  O  O19  1  0.50008800  0.72716700  0.49411200  1
  O  O20  1  0.99909700  0.28022000  0.99647600  1
  O  O21  1  0.00004100  0.73018500  0.49709500  1
  O  O22  1  0.26013400  0.48894200  0.37488400  1
  O  O23  1  0.73070700  0.50006700  0.87431900  1
  O  O24  1  0.73769200  0.48909100  0.37666500  1
  O  O25  1  0.26903200  0.49975900  0.87478300  1
  O  O26  1  0.26369200  0.01021600  0.37368500  1
  O  O27  1  0.71833000  0.99936000  0.86989400  1
  O  O28  1  0.73724700  0.00961800  0.36867700  1
  O  O29  1  0.28072100  0.99864500  0.86938000  1
  O  O30  1  0.50780300  0.76483900  0.24692800  1
  O  O31  1  0.49928700  0.25260800  0.74761300  1
loop_
_geom_bond_atom_site_label_1
_geom_bond_atom_site_label_2
_geom_bond_distance
_geom_bond_site_symmetry_2
Fe0 O30 2.086353 1_555
Fe0 O19 2.138148 1_555
Fe0 O26 2.140984 1_565
Fe0 O28 2.149587 1_565
Fe0 O22 2.164332 1_555
Fe0 O24 2.166484 1_555
Fe1 O29 2.007965 1_545
Fe1 O27 2.008287 1_545
Fe1 O31 2.061468 1_555
Fe1 O18 2.100428 1_555
Fe1 O25 2.101920 1_555
Fe1 O23 2.107610 1_555
Fe2 O10 2.125904 1_555
Fe2 O20 2.141442 1_454
Fe2 O6 2.146459 1_555
Fe2 O8 2.147046 1_455
Fe2 O4 2.147406 1_455
Fe2 O12 2.164307 1_455
Fe3 O5 2.004511 1_555
Fe3 O11 2.040033 1_455
Fe3 O13 2.041028 1_555
Fe3 O9 2.096085 1_555
Fe3 O7 2.096391 1_455
Fe3 O21 2.172748 1_555
Fe4 O10 2.111277 1_565
Fe4 O16 2.146963 1_454
Fe4 O8 2.151814 1_455
Fe4 O6 2.161917 1_555
Fe4 O0 2.162441 1_455
Fe4 O12 2.169802 1_465
Fe5 O1 2.111953 1_455
Fe5 O11 2.151396 1_445
Fe5 O13 2.156688 1_545
Fe5 O9 2.157278 1_555
Fe5 O7 2.160066 1_455
Fe5 O17 2.163191 1_455
Fe6 O4 1.919756 1_555
Fe6 O0 1.920862 1_555
Fe6 O24 1.952885 1_555
Fe6 O22 1.964933 1_655
Fe7 O1 1.907785 1_455
Fe7 O5 1.925172 1_555
Fe7 O25 1.971986 1_555
Fe7 O23 1.975487 1_455
Fe8 O16 2.006395 1_455
Fe8 O20 2.008276 1_455
Fe8 O6 2.039513 1_556
Fe8 O18 2.102241 1_555
Fe8 O14 2.106451 1_555
Fe8 O25 2.114102 1_555
Fe9 O7 2.032265 1_555
Fe9 O24 2.036962 1_555
Fe9 O19 2.065318 1_555
Fe9 O17 2.067176 1_555
Fe9 O21 2.070467 1_655
Fe9 O15 2.077991 1_555
Fe10 O20 2.007587 1_555
Fe10 O16 2.008589 1_555
Fe10 O8 2.042901 1_556
Fe10 O18 2.090533 1_555
Fe10 O14 2.095177 1_555
Fe10 O23 2.097045 1_555
Fe11 O9 2.035130 1_555
Fe11 O22 2.057323 1_555
Fe11 O17 2.066654 1_455
Fe11 O19 2.067087 1_555
Fe11 O21 2.069963 1_555
Fe11 O15 2.082730 1_555
Fe12 O10 1.894515 1_555
Fe12 O12 1.922365 1_555
Fe12 O18 1.978776 1_554
Fe12 O14 1.984300 1_544
Fe13 O13 1.909640 1_555
Fe13 O11 1.912180 1_555
Fe13 O19 1.958052 1_555
Fe13 O15 1.995074 1_565
Fe14 O6 1.903379 1_555
Fe14 O8 1.910711 1_555
Fe14 O30 1.943106 1_555
Fe14 O2 1.970557 1_555
Fe15 O31 1.905350 1_555
Fe15 O3 1.915690 1_555
Fe15 O7 1.966531 1_555
Fe15 O9 1.967323 1_555
Fe16 O26 1.904595 1_655
Fe16 O28 1.932200 1_555
Fe16 O17 1.960541 1_555
Fe16 O21 1.997505 1_645
Fe17 O16 2.023528 1_455
Fe17 O20 2.027571 1_465
Fe17 O29 2.030442 1_555
Fe17 O27 2.034555 1_455
Fe18 O30 2.119732 1_555
Fe18 O4 2.134117 1_465
Fe18 O10 2.147434 1_565
Fe18 O0 2.168925 1_455
Fe18 O2 2.172106 1_565
Fe18 O26 2.205040 1_565
Fe19 O1 2.117768 1_555
Fe19 O3 2.132346 1_545
Fe19 O27 2.141766 1_545
Fe19 O31 2.163910 1_555
Fe19 O11 2.177748 1_545
Fe19 O5 2.183284 1_645
Fe20 O12 2.011670 1_565
Fe20 O0 2.034262 1_555
Fe20 O4 2.050569 1_565
Fe20 O30 2.067248 1_555
Fe20 O2 2.114676 1_565
Fe20 O28 2.158481 1_565
Fe21 O1 2.122172 1_455
Fe21 O3 2.135733 1_545
Fe21 O29 2.138657 1_545
Fe21 O31 2.160885 1_555
Fe21 O13 2.164957 1_545
Fe21 O5 2.175244 1_545
Fe22 O2 2.007426 1_555
Fe22 O26 2.038465 1_555
Fe22 O28 2.052843 1_555
Fe22 O22 2.080477 1_555
Fe22 O24 2.081549 1_555
Fe22 O15 2.124615 1_555
Fe23 O29 2.009639 1_555
Fe23 O27 2.010048 1_555
Fe23 O3 2.068166 1_555
Fe23 O14 2.075608 1_555
Fe23 O23 2.093200 1_555
Fe23 O25 2.093666 1_555
