# generated using pymatgen
data_Pr2MgS4
_symmetry_space_group_name_H-M   'P 1'
_cell_length_a   7.67072444
_cell_length_b   8.94222341
_cell_length_c   12.00403774
_cell_angle_alpha   79.58163367
_cell_angle_beta   83.40059968
_cell_angle_gamma   91.00334146
_symmetry_Int_Tables_number   1
_chemical_formula_structural   Pr2MgS4
_chemical_formula_sum   'Pr8 Mg4 S16'
_cell_volume   803.83798602
_cell_formula_units_Z   4
loop_
 _symmetry_equiv_pos_site_id
 _symmetry_equiv_pos_as_xyz
  1  'x, y, z'
loop_
 _atom_site_type_symbol
 _atom_site_label
 _atom_site_symmetry_multiplicity
 _atom_site_fract_x
 _atom_site_fract_y
 _atom_site_fract_z
 _atom_site_occupancy
  Pr  Pr0  1  0.13722100  0.70540600  0.65940300  1
  Pr  Pr1  1  0.86277900  0.29459400  0.34059700  1
  Pr  Pr2  1  0.24650700  0.86894500  0.99801300  1
  Pr  Pr3  1  0.75349300  0.13105500  0.00198700  1
  Pr  Pr4  1  0.36828300  0.55269200  0.33504400  1
  Pr  Pr5  1  0.63171700  0.44730800  0.66495600  1
  Pr  Pr6  1  0.36060800  0.02900500  0.34407700  1
  Pr  Pr7  1  0.63939200  0.97099500  0.65592300  1
  Mg  Mg0  1  0.13945800  0.20710400  0.68460700  1
  Mg  Mg1  1  0.86054200  0.79289600  0.31539300  1
  Mg  Mg2  1  0.24991800  0.38667600  0.99353500  1
  Mg  Mg3  1  0.75008200  0.61332400  0.00646500  1
  S  S0  1  0.09725000  0.63949900  0.88964400  1
  S  S1  1  0.90275000  0.36050100  0.11035600  1
  S  S2  1  0.11636300  0.16658600  0.89049500  1
  S  S3  1  0.88363700  0.83341400  0.10950500  1
  S  S4  1  0.14868700  0.77231500  0.39261400  1
  S  S5  1  0.85131300  0.22768500  0.60738600  1
  S  S6  1  0.19908800  0.28053400  0.37958400  1
  S  S7  1  0.80091200  0.71946600  0.62041600  1
  S  S8  1  0.29696000  0.99381800  0.61030600  1
  S  S9  1  0.70304000  0.00618200  0.38969400  1
  S  S10  1  0.30039700  0.45348800  0.60219200  1
  S  S11  1  0.69960300  0.54651200  0.39780800  1
  S  S12  1  0.39341100  0.09325800  0.11412600  1
  S  S13  1  0.60658900  0.90674200  0.88587400  1
  S  S14  1  0.40510800  0.58767500  0.10468700  1
  S  S15  1  0.59489200  0.41232500  0.89531300  1
loop_
_geom_bond_atom_site_label_1
_geom_bond_atom_site_label_2
_geom_bond_distance
_geom_bond_site_symmetry_2
Pr0 S7 2.675340 1_455
Pr0 S0 2.699970 1_555
Pr0 S10 2.752040 1_555
Pr0 S8 2.770165 1_555
Pr0 S4 3.140449 1_555
Pr1 S6 2.675340 1_655
Pr1 S1 2.699970 1_555
Pr1 S11 2.752040 1_555
Pr1 S9 2.770165 1_555
Pr1 S5 3.140449 1_555
Pr2 S0 2.904852 1_555
Pr2 S13 2.916085 1_555
Pr2 S12 2.920452 1_566
Pr2 S3 2.932379 1_456
Pr2 S14 2.957420 1_556
Pr2 S2 2.982141 1_565
Pr3 S1 2.904852 1_555
Pr3 S12 2.916085 1_555
Pr3 S13 2.920452 1_544
Pr3 S2 2.932379 1_654
Pr3 S15 2.957420 1_554
Pr3 S3 2.982141 1_545
Pr4 S6 2.674404 1_555
Pr4 S14 2.707134 1_555
Pr4 S11 2.731249 1_555
Pr4 S4 2.740640 1_555
Pr4 S10 3.148514 1_555
Pr5 S7 2.674404 1_555
Pr5 S15 2.707134 1_555
Pr5 S10 2.731249 1_555
Pr5 S5 2.740640 1_555
Pr5 S11 3.148514 1_555
Pr6 S6 2.664338 1_555
Pr6 S12 2.697147 1_555
Pr6 S4 2.723730 1_545
Pr6 S9 2.747732 1_555
Pr6 S8 3.134159 1_545
Pr7 S7 2.664338 1_555
Pr7 S13 2.697147 1_555
Pr7 S5 2.723730 1_565
Pr7 S8 2.747732 1_555
Pr7 S9 3.134159 1_565
Mg0 S2 2.417470 1_555
Mg0 S10 2.488505 1_555
Mg0 S5 2.490373 1_455
Mg0 S8 2.518134 1_545
Mg1 S3 2.417470 1_555
Mg1 S11 2.488505 1_555
Mg1 S4 2.490373 1_655
Mg1 S9 2.518134 1_565
Mg2 S0 2.728849 1_555
Mg2 S2 2.748436 1_555
Mg2 S14 2.754171 1_556
Mg2 S15 2.758434 1_555
Mg2 S1 2.848528 1_456
Mg2 S12 3.047144 1_556
Mg3 S1 2.728849 1_555
Mg3 S3 2.748436 1_555
Mg3 S15 2.754171 1_554
Mg3 S14 2.758434 1_555
Mg3 S0 2.848528 1_654
Mg3 S13 3.047144 1_554
