# generated using pymatgen
data_NbS2
_symmetry_space_group_name_H-M   'P 1'
_cell_length_a   3.36876760
_cell_length_b   3.36876769
_cell_length_c   12.62466552
_cell_angle_alpha   90.00000000
_cell_angle_beta   90.00000000
_cell_angle_gamma   119.99998878
_symmetry_Int_Tables_number   1
_chemical_formula_structural   NbS2
_chemical_formula_sum   'Nb2 S4'
_cell_volume   124.07739745
_cell_formula_units_Z   2
loop_
 _symmetry_equiv_pos_site_id
 _symmetry_equiv_pos_as_xyz
  1  'x, y, z'
loop_
 _atom_site_type_symbol
 _atom_site_label
 _atom_site_symmetry_multiplicity
 _atom_site_fract_x
 _atom_site_fract_y
 _atom_site_fract_z
 _atom_site_occupancy
  Nb  Nb0  1  -0.00000000  -0.00000000  0.75000000  1
  Nb  Nb1  1  0.00000000  0.00000000  0.25000000  1
  S  S0  1  0.33333300  0.66666700  0.37381142  1
  S  S1  1  0.66666700  0.33333300  0.87381142  1
  S  S2  1  0.33333300  0.66666700  0.12618858  1
  S  S3  1  0.66666700  0.33333300  0.62618858  1
loop_
_geom_bond_atom_site_label_1
_geom_bond_atom_site_label_2
_geom_bond_distance
_geom_bond_site_symmetry_2
Nb0 S3 2.495209 1_455
Nb0 S1 2.495209 1_455
Nb0 S3 2.495212 1_555
Nb0 S1 2.495212 1_555
Nb0 S1 2.495212 1_445
Nb0 S3 2.495212 1_445
Nb1 S0 2.495209 1_545
Nb1 S2 2.495209 1_545
Nb1 S2 2.495212 1_445
Nb1 S0 2.495212 1_445
Nb1 S2 2.495212 1_555
Nb1 S0 2.495212 1_555
