# generated using pymatgen
data_Zr2CoMo3
_symmetry_space_group_name_H-M   'P 1'
_cell_length_a   5.35306217
_cell_length_b   5.35306217
_cell_length_c   5.35306227
_cell_angle_alpha   58.44259945
_cell_angle_beta   58.44259945
_cell_angle_gamma   58.44259887
_symmetry_Int_Tables_number   1
_chemical_formula_structural   Zr2CoMo3
_chemical_formula_sum   'Zr2 Co1 Mo3'
_cell_volume   104.60003065
_cell_formula_units_Z   1
loop_
 _symmetry_equiv_pos_site_id
 _symmetry_equiv_pos_as_xyz
  1  'x, y, z'
loop_
 _atom_site_type_symbol
 _atom_site_label
 _atom_site_symmetry_multiplicity
 _atom_site_fract_x
 _atom_site_fract_y
 _atom_site_fract_z
 _atom_site_occupancy
  Zr  Zr0  1  0.12662800  0.12662800  0.12662800  1
  Zr  Zr1  1  0.87337200  0.87337200  0.87337200  1
  Co  Co0  1  0.50000000  0.50000000  0.50000000  1
  Mo  Mo0  1  0.50000000  0.00000000  0.50000000  1
  Mo  Mo1  1  0.00000000  0.50000000  0.50000000  1
  Mo  Mo2  1  0.50000000  0.50000000  0.00000000  1
loop_
_geom_bond_atom_site_label_1
_geom_bond_atom_site_label_2
_geom_bond_distance
_geom_bond_site_symmetry_2
Co0 Mo0 2.676531 1_565
Co0 Mo1 2.676531 1_655
Co0 Mo0 2.676531 1_555
Co0 Mo1 2.676531 1_555
Co0 Mo2 2.676531 1_555
Co0 Mo2 2.676531 1_556
Co0 Zr0 3.063936 1_565
Co0 Zr1 3.063936 1_455
Co0 Zr1 3.063936 1_545
Co0 Zr0 3.063936 1_655
Co0 Zr0 3.063936 1_556
Co0 Zr1 3.063936 1_554
Mo0 Mo1 2.613280 1_645
Mo0 Mo1 2.613280 1_555
Mo0 Mo2 2.613280 1_546
Mo0 Mo2 2.613280 1_555
Mo0 Zr0 3.106522 1_655
Mo0 Zr1 3.106522 1_445
Mo0 Zr1 3.106522 1_544
Mo0 Zr0 3.106522 1_556
Mo0 Zr0 3.129553 1_555
Mo0 Zr1 3.129553 1_545
Mo1 Mo2 2.613280 1_555
Mo1 Mo2 2.613280 1_456
Mo1 Zr0 3.106522 1_565
Mo1 Zr1 3.106522 1_445
Mo1 Zr1 3.106522 1_454
Mo1 Zr0 3.106522 1_556
Mo1 Zr0 3.129553 1_555
Mo1 Zr1 3.129553 1_455
Mo2 Zr1 3.106522 1_454
Mo2 Zr0 3.106522 1_655
Mo2 Zr0 3.106522 1_565
Mo2 Zr1 3.106522 1_544
Mo2 Zr0 3.129553 1_555
Mo2 Zr1 3.129553 1_554
