# generated using pymatgen
data_LaMg14Zr
_symmetry_space_group_name_H-M   'P 1'
_cell_length_a   6.61611677
_cell_length_b   6.61611619
_cell_length_c   10.20717218
_cell_angle_alpha   90.00000000
_cell_angle_beta   90.00000000
_cell_angle_gamma   120.00000285
_symmetry_Int_Tables_number   1
_chemical_formula_structural   LaMg14Zr
_chemical_formula_sum   'La1 Mg14 Zr1'
_cell_volume   386.93885759
_cell_formula_units_Z   1
loop_
 _symmetry_equiv_pos_site_id
 _symmetry_equiv_pos_as_xyz
  1  'x, y, z'
loop_
 _atom_site_type_symbol
 _atom_site_label
 _atom_site_symmetry_multiplicity
 _atom_site_fract_x
 _atom_site_fract_y
 _atom_site_fract_z
 _atom_site_occupancy
  La  La0  1  0.16666700  0.33333300  0.62500000  1
  Mg  Mg0  1  0.16895414  0.83447657  0.12500000  1
  Mg  Mg1  1  0.17368369  0.83684135  0.62500000  1
  Mg  Mg2  1  0.66552343  0.33104586  0.12500000  1
  Mg  Mg3  1  0.66315865  0.32631631  0.62500000  1
  Mg  Mg4  1  0.66552343  0.83447657  0.12500000  1
  Mg  Mg5  1  0.66315865  0.83684135  0.62500000  1
  Mg  Mg6  1  0.33515362  0.16484638  0.36815598  1
  Mg  Mg7  1  0.33515362  0.16484638  0.88184402  1
  Mg  Mg8  1  0.33515362  0.67030825  0.36815598  1
  Mg  Mg9  1  0.33515362  0.67030825  0.88184402  1
  Mg  Mg10  1  0.82969175  0.16484638  0.36815598  1
  Mg  Mg11  1  0.82969175  0.16484638  0.88184402  1
  Mg  Mg12  1  0.83333300  0.66666700  0.37748615  1
  Mg  Mg13  1  0.83333300  0.66666700  0.87251385  1
  Zr  Zr0  1  0.16666700  0.33333300  0.12500000  1
loop_
_geom_bond_atom_site_label_1
_geom_bond_atom_site_label_2
_geom_bond_distance
_geom_bond_site_symmetry_2
La0 Mg7 3.255903 1_555
La0 Mg6 3.255903 1_555
La0 Mg9 3.255910 1_555
La0 Mg8 3.255910 1_555
La0 Mg11 3.255910 1_455
La0 Mg10 3.255910 1_455
La0 Mg1 3.308302 1_545
La0 Mg5 3.308302 1_555
La0 Mg5 3.308302 1_445
La0 Mg1 3.308302 1_555
La0 Mg3 3.308303 1_555
La0 Mg3 3.308303 1_455
Mg0 Mg8 3.121407 1_555
Mg0 Mg9 3.121407 1_554
Mg0 Mg6 3.121414 1_565
Mg0 Mg7 3.121414 1_564
Mg0 Mg13 3.215555 1_454
Mg0 Mg12 3.215555 1_455
Mg0 Mg2 3.285360 1_565
Mg0 Mg4 3.285360 1_555
Mg0 Zr0 3.308084 1_555
Mg0 Zr0 3.308084 1_565
Mg0 Mg2 3.330756 1_455
Mg0 Mg4 3.330756 1_455
Mg1 Mg12 3.191509 1_455
Mg1 Mg13 3.191509 1_455
Mg1 Mg9 3.225733 1_555
Mg1 Mg8 3.225733 1_555
Mg1 Mg7 3.225740 1_565
Mg1 Mg6 3.225740 1_565
Mg1 Mg3 3.238423 1_565
Mg1 Mg5 3.238423 1_555
Mg1 Mg3 3.377693 1_455
Mg1 Mg5 3.377693 1_455
Mg2 Mg6 3.121414 1_555
Mg2 Mg7 3.121414 1_554
Mg2 Mg4 3.285360 1_545
Mg2 Zr0 3.308084 1_555
Mg2 Zr0 3.308084 1_655
Mg2 Mg4 3.330756 1_555
Mg3 Mg6 3.225740 1_555
Mg3 Mg7 3.225740 1_555
Mg3 Mg5 3.238423 1_545
Mg3 Mg5 3.377693 1_555
Mg4 Mg9 3.121414 1_554
Mg4 Mg8 3.121414 1_555
Mg4 Zr0 3.308084 1_555
Mg4 Zr0 3.308084 1_665
Mg5 Mg9 3.225740 1_555
Mg5 Mg8 3.225740 1_555
Mg6 Zr0 3.144495 1_555
Mg6 Mg8 3.271922 1_545
Mg6 Mg8 3.344194 1_555
Mg7 Zr0 3.144495 1_556
Mg7 Mg9 3.271922 1_545
Mg7 Mg9 3.344194 1_555
Mg8 Zr0 3.144502 1_555
Mg9 Zr0 3.144502 1_556
Mg10 Mg2 3.121407 1_555
Mg10 Mg4 3.121414 1_545
Mg10 Zr0 3.144502 1_655
Mg10 Mg3 3.225733 1_555
Mg10 Mg5 3.225740 1_545
Mg10 Mg8 3.271922 1_545
Mg10 Mg6 3.271922 1_555
Mg10 Mg12 3.309494 1_555
Mg10 Mg12 3.309494 1_545
Mg10 Mg8 3.344194 1_655
Mg10 Mg6 3.344195 1_655
Mg11 Mg2 3.121407 1_556
Mg11 Mg4 3.121414 1_546
Mg11 Zr0 3.144502 1_656
Mg11 Mg3 3.225733 1_555
Mg11 Mg5 3.225740 1_545
Mg11 Mg9 3.271922 1_545
Mg11 Mg7 3.271922 1_555
Mg11 Mg13 3.309494 1_555
Mg11 Mg13 3.309494 1_545
Mg11 Mg9 3.344194 1_655
Mg11 Mg7 3.344195 1_655
Mg12 Mg5 3.191502 1_555
Mg12 Mg3 3.191509 1_555
Mg12 Mg4 3.215549 1_555
Mg12 Mg2 3.215555 1_555
Mg12 Mg6 3.309494 1_555
Mg12 Mg6 3.309494 1_665
Mg12 Mg8 3.309495 1_655
Mg12 Mg8 3.309495 1_555
Mg13 Mg5 3.191502 1_555
Mg13 Mg3 3.191509 1_555
Mg13 Mg4 3.215549 1_556
Mg13 Mg2 3.215555 1_556
Mg13 Mg7 3.309494 1_555
Mg13 Mg7 3.309494 1_665
Mg13 Mg9 3.309495 1_655
Mg13 Mg9 3.309495 1_555
