# generated using pymatgen
data_Li4MnCo2O7
_symmetry_space_group_name_H-M   'P 1'
_cell_length_a   6.60368986
_cell_length_b   6.60368986
_cell_length_c   14.42571138
_cell_angle_alpha   68.69695492
_cell_angle_beta   68.69695492
_cell_angle_gamma   25.54345879
_symmetry_Int_Tables_number   1
_chemical_formula_structural   Li4MnCo2O7
_chemical_formula_sum   'Li8 Mn2 Co4 O14'
_cell_volume   251.73561233
_cell_formula_units_Z   2
loop_
 _symmetry_equiv_pos_site_id
 _symmetry_equiv_pos_as_xyz
  1  'x, y, z'
loop_
 _atom_site_type_symbol
 _atom_site_label
 _atom_site_symmetry_multiplicity
 _atom_site_fract_x
 _atom_site_fract_y
 _atom_site_fract_z
 _atom_site_occupancy
  Li  Li0  1  0.70869500  0.70869500  0.92808800  1
  Li  Li1  1  0.29130500  0.29130500  0.07191200  1
  Li  Li2  1  0.86091700  0.86091700  0.20889800  1
  Li  Li3  1  0.13908300  0.13908300  0.79110200  1
  Li  Li4  1  0.57348300  0.57348300  0.64150200  1
  Li  Li5  1  0.42651700  0.42651700  0.35849800  1
  Li  Li6  1  0.00000000  0.00000000  0.50000000  1
  Li  Li7  1  0.00000000  0.00000000  0.00000000  1
  Mn  Mn0  1  0.43344700  0.43344700  0.86110800  1
  Mn  Mn1  1  0.56655300  0.56655300  0.13889200  1
  Co  Co0  1  0.14363100  0.14363100  0.28487600  1
  Co  Co1  1  0.71371500  0.71371500  0.42855300  1
  Co  Co2  1  0.28628500  0.28628500  0.57144700  1
  Co  Co3  1  0.85636900  0.85636900  0.71512400  1
  O  O0  1  0.86373900  0.86373900  0.95193300  1
  O  O1  1  0.43861300  0.43861300  0.11209400  1
  O  O2  1  0.00947900  0.00947900  0.23929500  1
  O  O3  1  0.29767700  0.29767700  0.81624200  1
  O  O4  1  0.72287500  0.72287500  0.67097200  1
  O  O5  1  0.57755100  0.57755100  0.38532300  1
  O  O6  1  0.14916200  0.14916200  0.53001600  1
  O  O7  1  0.56138700  0.56138700  0.88790600  1
  O  O8  1  0.13626100  0.13626100  0.04806700  1
  O  O9  1  0.70232300  0.70232300  0.18375800  1
  O  O10  1  0.99052100  0.99052100  0.76070500  1
  O  O11  1  0.42244900  0.42244900  0.61467700  1
  O  O12  1  0.27712500  0.27712500  0.32902800  1
  O  O13  1  0.85083800  0.85083800  0.46998400  1
loop_
_geom_bond_atom_site_label_1
_geom_bond_atom_site_label_2
_geom_bond_distance
_geom_bond_site_symmetry_2
Li0 O0 2.149042 1_555
Li0 O3 2.161093 1_655
Li0 O3 2.161093 1_565
Li0 O7 2.180737 1_555
Li0 O8 2.189563 1_566
Li0 O8 2.189563 1_656
Li1 O8 2.149042 1_555
Li1 O9 2.161093 1_455
Li1 O9 2.161093 1_545
Li1 O1 2.180737 1_555
Li1 O0 2.189563 1_544
Li1 O0 2.189563 1_454
Li2 O1 2.010382 1_565
Li2 O1 2.010382 1_655
Li2 O2 2.116408 1_665
Li2 O9 2.203737 1_555
Li2 O12 2.214887 1_655
Li2 O12 2.214887 1_565
Li3 O7 2.010382 1_545
Li3 O7 2.010382 1_455
Li3 O10 2.116408 1_445
Li3 O3 2.203737 1_555
Li3 O4 2.214887 1_545
Li3 O4 2.214887 1_455
Li4 O4 2.119667 1_555
Li4 O11 2.120198 1_555
Li4 O6 2.121301 1_655
Li4 O6 2.121301 1_565
Li4 O10 2.204777 1_545
Li4 O10 2.204777 1_455
Li5 O12 2.119667 1_555
Li5 O5 2.120198 1_555
Li5 O13 2.121301 1_545
Li5 O13 2.121301 1_455
Li5 O2 2.204777 1_655
Li5 O2 2.204777 1_565
Li6 O6 2.121011 1_555
Li6 O13 2.121011 1_445
Li6 O5 2.152799 1_545
Li6 O5 2.152799 1_455
Li6 O11 2.152799 1_545
Li6 O11 2.152799 1_455
Li7 O1 2.102049 1_455
Li7 O1 2.102049 1_545
Li7 O7 2.102049 1_544
Li7 O7 2.102049 1_454
Li7 O0 2.113759 1_444
Li7 O8 2.113759 1_555
Mn0 O7 1.827512 1_555
Mn0 O0 1.943598 1_545
Mn0 O0 1.943598 1_455
Mn0 O10 1.994030 1_545
Mn0 O10 1.994030 1_455
Mn0 O3 2.078577 1_555
Mn1 O1 1.827512 1_555
Mn1 O8 1.943598 1_565
Mn1 O8 1.943598 1_655
Mn1 O2 1.994030 1_655
Mn1 O2 1.994030 1_565
Mn1 O9 2.078577 1_555
Co0 O9 2.002228 1_545
Co0 O9 2.002228 1_455
Co0 O5 2.009087 1_455
Co0 O5 2.009087 1_545
Co0 O12 2.044076 1_555
Co0 O2 2.065117 1_555
Co1 O12 1.996477 1_655
Co1 O12 1.996477 1_565
Co1 O6 2.014492 1_565
Co1 O6 2.014492 1_655
Co1 O13 2.064764 1_555
Co1 O5 2.068785 1_555
Co2 O4 1.996477 1_455
Co2 O4 1.996477 1_545
Co2 O13 2.014492 1_545
Co2 O13 2.014492 1_455
Co2 O6 2.064764 1_555
Co2 O11 2.068785 1_555
Co3 O3 2.002228 1_565
Co3 O3 2.002228 1_655
Co3 O11 2.009087 1_565
Co3 O11 2.009087 1_655
Co3 O4 2.044076 1_555
Co3 O10 2.065117 1_555
