# generated using pymatgen
data_Eu3Pt2
_symmetry_space_group_name_H-M   'P 1'
_cell_length_a   7.84693833
_cell_length_b   7.84693833
_cell_length_c   7.84693835
_cell_angle_alpha   71.73127655
_cell_angle_beta   71.73127655
_cell_angle_gamma   71.73127961
_symmetry_Int_Tables_number   1
_chemical_formula_structural   Eu3Pt2
_chemical_formula_sum   'Eu9 Pt6'
_cell_volume   423.10143687
_cell_formula_units_Z   3
loop_
 _symmetry_equiv_pos_site_id
 _symmetry_equiv_pos_as_xyz
  1  'x, y, z'
loop_
 _atom_site_type_symbol
 _atom_site_label
 _atom_site_symmetry_multiplicity
 _atom_site_fract_x
 _atom_site_fract_y
 _atom_site_fract_z
 _atom_site_occupancy
  Eu  Eu0  1  0.00000000  0.00000000  0.00000000  1
  Eu  Eu1  1  0.79782700  0.79782700  0.79782700  1
  Eu  Eu2  1  0.20217300  0.20217300  0.20217300  1
  Eu  Eu3  1  0.33255700  0.60404900  0.84357200  1
  Eu  Eu4  1  0.84357200  0.33255700  0.60404900  1
  Eu  Eu5  1  0.60404900  0.84357200  0.33255700  1
  Eu  Eu6  1  0.66744300  0.39595100  0.15642800  1
  Eu  Eu7  1  0.15642800  0.66744300  0.39595100  1
  Eu  Eu8  1  0.39595100  0.15642800  0.66744300  1
  Pt  Pt0  1  0.15820400  0.95651000  0.59026700  1
  Pt  Pt1  1  0.59026700  0.15820400  0.95651000  1
  Pt  Pt2  1  0.95651000  0.59026700  0.15820400  1
  Pt  Pt3  1  0.84179600  0.04349000  0.40973300  1
  Pt  Pt4  1  0.40973300  0.84179600  0.04349000  1
  Pt  Pt5  1  0.04349000  0.40973300  0.84179600  1
loop_
_geom_bond_atom_site_label_1
_geom_bond_atom_site_label_2
_geom_bond_distance
_geom_bond_site_symmetry_2
Eu0 Pt5 3.148760 1_554
Eu0 Pt2 3.148760 1_445
Eu0 Pt0 3.148760 1_544
Eu0 Pt3 3.148760 1_455
Eu0 Pt1 3.148760 1_454
Eu0 Pt4 3.148760 1_545
Eu1 Pt3 3.030999 1_565
Eu1 Pt4 3.030999 1_556
Eu1 Pt5 3.030999 1_655
Eu1 Pt0 3.201325 1_655
Eu1 Pt2 3.201325 1_556
Eu1 Pt1 3.201325 1_565
Eu2 Pt0 3.030999 1_545
Eu2 Pt1 3.030999 1_554
Eu2 Pt2 3.030999 1_455
Eu2 Pt3 3.201325 1_455
Eu2 Pt5 3.201325 1_554
Eu2 Pt4 3.201325 1_545
Eu3 Pt0 3.059082 1_555
Eu3 Pt4 3.073580 1_556
Eu3 Pt5 3.109960 1_555
Eu3 Pt2 3.206192 1_456
Eu3 Pt1 3.443640 1_555
Eu4 Pt1 3.059082 1_555
Eu4 Pt5 3.073580 1_655
Eu4 Pt3 3.109960 1_555
Eu4 Pt0 3.206192 1_645
Eu4 Pt2 3.443639 1_555
Eu5 Pt2 3.059082 1_555
Eu5 Pt3 3.073580 1_565
Eu5 Pt4 3.109960 1_555
Eu5 Pt1 3.206192 1_564
Eu5 Pt0 3.443640 1_555
Eu6 Pt3 3.059082 1_555
Eu6 Pt1 3.073580 1_554
Eu6 Pt2 3.109960 1_555
Eu6 Pt5 3.206192 1_654
Eu6 Pt4 3.443640 1_555
Eu7 Pt4 3.059082 1_555
Eu7 Pt2 3.073580 1_455
Eu7 Pt0 3.109960 1_555
Eu7 Pt3 3.206192 1_465
Eu7 Pt5 3.443639 1_555
Eu8 Pt5 3.059082 1_555
Eu8 Pt0 3.073580 1_545
Eu8 Pt1 3.109960 1_555
Eu8 Pt4 3.206192 1_546
Eu8 Pt3 3.443640 1_555
Pt0 Pt3 3.028813 1_465
Pt1 Pt4 3.028813 1_546
Pt2 Pt5 3.028813 1_654
