# generated using pymatgen
data_Nd2(Al3Rh)3
_symmetry_space_group_name_H-M   'P 1'
_cell_length_a   7.56519446
_cell_length_b   7.56519446
_cell_length_c   9.56727910
_cell_angle_alpha   90.00000000
_cell_angle_beta   90.00000000
_cell_angle_gamma   119.22601905
_symmetry_Int_Tables_number   1
_chemical_formula_structural   Nd2(Al3Rh)3
_chemical_formula_sum   'Nd4 Al18 Rh6'
_cell_volume   477.85246501
_cell_formula_units_Z   2
loop_
 _symmetry_equiv_pos_site_id
 _symmetry_equiv_pos_as_xyz
  1  'x, y, z'
loop_
 _atom_site_type_symbol
 _atom_site_label
 _atom_site_symmetry_multiplicity
 _atom_site_fract_x
 _atom_site_fract_y
 _atom_site_fract_z
 _atom_site_occupancy
  Nd  Nd0  1  0.99460021  0.67143072  0.75000000  1
  Nd  Nd1  1  0.00539979  0.32856928  0.25000000  1
  Nd  Nd2  1  0.67143072  0.99460021  0.75000000  1
  Nd  Nd3  1  0.32856928  0.00539979  0.25000000  1
  Al  Al0  1  0.13222943  0.13222943  0.75000000  1
  Al  Al1  1  0.86777057  0.86777057  0.25000000  1
  Al  Al2  1  0.00354705  0.33567796  0.57251138  1
  Al  Al3  1  0.99645295  0.66432204  0.42748862  1
  Al  Al4  1  0.99645295  0.66432204  0.07251138  1
  Al  Al5  1  0.33567796  0.00354705  0.92748862  1
  Al  Al6  1  0.00354705  0.33567796  0.92748862  1
  Al  Al7  1  0.66432204  0.99645295  0.07251138  1
  Al  Al8  1  0.66432204  0.99645295  0.42748862  1
  Al  Al9  1  0.33567796  0.00354705  0.57251138  1
  Al  Al10  1  0.33453458  0.33453458  0.04328557  1
  Al  Al11  1  0.66546542  0.66546542  0.95671443  1
  Al  Al12  1  0.66546542  0.66546542  0.54328557  1
  Al  Al13  1  0.33453458  0.33453458  0.45671443  1
  Al  Al14  1  0.33979307  0.54677226  0.75000000  1
  Al  Al15  1  0.66020693  0.45322774  0.25000000  1
  Al  Al16  1  0.54677226  0.33979307  0.75000000  1
  Al  Al17  1  0.45322774  0.66020693  0.25000000  1
  Rh  Rh0  1  0.67140271  0.32859729  0.50000000  1
  Rh  Rh1  1  0.32859729  0.67140271  0.50000000  1
  Rh  Rh2  1  0.32859729  0.67140271  0.00000000  1
  Rh  Rh3  1  0.67140271  0.32859729  0.00000000  1
  Rh  Rh4  1  0.00000000  0.00000000  0.50000000  1
  Rh  Rh5  1  0.00000000  0.00000000  0.00000000  1
loop_
_geom_bond_atom_site_label_1
_geom_bond_atom_site_label_2
_geom_bond_distance
_geom_bond_site_symmetry_2
Nd0 Rh5 3.435400 1_666
Nd0 Rh4 3.435400 1_665
Nd0 Rh1 3.479340 1_655
Nd0 Rh2 3.479340 1_656
Nd0 Rh0 3.497615 1_555
Nd0 Rh3 3.497615 1_556
Nd1 Rh4 3.435400 1_555
Nd1 Rh5 3.435400 1_555
Nd1 Rh3 3.479340 1_455
Nd1 Rh0 3.479340 1_455
Nd1 Rh1 3.497615 1_555
Nd1 Rh2 3.497615 1_555
Nd2 Rh5 3.435400 1_666
Nd2 Rh4 3.435400 1_665
Nd2 Rh0 3.479340 1_565
Nd2 Rh3 3.479340 1_566
Nd2 Rh2 3.497615 1_556
Nd2 Rh1 3.497615 1_555
Nd3 Rh5 3.435400 1_555
Nd3 Rh4 3.435400 1_555
Nd3 Rh1 3.479340 1_545
Nd3 Rh2 3.479340 1_545
Nd3 Rh0 3.497615 1_555
Nd3 Rh3 3.497615 1_555
Al0 Rh4 2.597112 1_555
Al0 Rh5 2.597112 1_556
Al0 Nd0 3.113217 1_445
Al0 Nd2 3.113217 1_445
Al1 Rh4 2.597112 1_665
Al1 Rh5 2.597112 1_665
Al1 Nd3 3.113217 1_665
Al1 Nd1 3.113217 1_665
Al2 Rh0 2.581966 1_455
Al2 Rh4 2.619990 1_555
Al2 Rh1 2.622992 1_555
Al2 Nd0 3.083460 1_455
Al2 Nd2 3.086013 1_445
Al2 Nd1 3.086176 1_555
Al3 Rh1 2.581966 1_655
Al3 Rh4 2.619990 1_665
Al3 Rh0 2.622992 1_555
Al3 Nd1 3.083460 1_655
Al3 Nd3 3.086013 1_665
Al3 Nd0 3.086176 1_555
Al4 Rh2 2.581966 1_655
Al4 Rh5 2.619990 1_665
Al4 Rh3 2.622992 1_555
Al4 Nd1 3.083460 1_655
Al4 Nd3 3.086013 1_665
Al4 Nd0 3.086176 1_554
Al5 Rh2 2.581966 1_546
Al5 Rh5 2.619990 1_556
Al5 Rh3 2.622992 1_556
Al5 Nd2 3.083460 1_545
Al5 Nd0 3.086013 1_445
Al5 Nd3 3.086176 1_556
Al6 Rh3 2.581966 1_456
Al6 Rh5 2.619990 1_556
Al6 Rh2 2.622992 1_556
Al6 Nd0 3.083460 1_455
Al6 Nd2 3.086013 1_445
Al6 Nd1 3.086176 1_556
Al7 Rh3 2.581966 1_565
Al7 Rh5 2.619990 1_665
Al7 Rh2 2.622992 1_555
Al7 Nd3 3.083460 1_565
Al7 Nd1 3.086013 1_665
Al7 Nd2 3.086176 1_554
Al8 Rh0 2.581966 1_565
Al8 Rh4 2.619990 1_665
Al8 Rh1 2.622992 1_555
Al8 Nd3 3.083460 1_565
Al8 Nd1 3.086013 1_665
Al8 Nd2 3.086176 1_555
Al9 Rh1 2.581966 1_545
Al9 Rh4 2.619990 1_555
Al9 Rh0 2.622992 1_555
Al9 Nd2 3.083460 1_545
Al9 Nd0 3.086013 1_445
Al9 Nd3 3.086176 1_555
Al10 Rh5 2.593644 1_555
Al10 Rh2 2.603846 1_555
Al10 Rh3 2.603846 1_555
Al10 Nd3 3.162835 1_555
Al10 Nd1 3.162835 1_555
Al11 Rh5 2.593644 1_666
Al11 Rh2 2.603846 1_556
Al11 Rh3 2.603846 1_556
Al11 Nd2 3.162835 1_555
Al11 Nd0 3.162835 1_555
Al12 Rh4 2.593644 1_665
Al12 Rh1 2.603846 1_555
Al12 Rh0 2.603846 1_555
Al12 Nd2 3.162835 1_555
Al12 Nd0 3.162835 1_555
Al13 Rh4 2.593644 1_555
Al13 Rh1 2.603846 1_555
Al13 Rh0 2.603846 1_555
Al13 Nd3 3.162835 1_555
Al13 Nd1 3.162835 1_555
Al14 Rh2 2.587456 1_556
Al14 Rh1 2.587456 1_555
Al14 Nd2 3.077697 1_555
Al14 Nd0 3.180247 1_455
Al15 Rh0 2.587456 1_555
Al15 Rh3 2.587456 1_555
Al15 Nd3 3.077697 1_555
Al15 Nd1 3.180247 1_655
Al16 Rh0 2.587456 1_555
Al16 Rh3 2.587456 1_556
Al16 Nd0 3.077697 1_555
Al16 Nd2 3.180247 1_545
Al17 Rh1 2.587456 1_555
Al17 Rh2 2.587456 1_555
Al17 Nd1 3.077697 1_555
Al17 Nd3 3.180247 1_565
