# generated using pymatgen
data_Ba(DyS2)2
_symmetry_space_group_name_H-M   'P 1'
_cell_length_a   4.04228418
_cell_length_b   12.29909509
_cell_length_c   14.53436266
_cell_angle_alpha   90.00000000
_cell_angle_beta   90.00000000
_cell_angle_gamma   90.00000000
_symmetry_Int_Tables_number   1
_chemical_formula_structural   Ba(DyS2)2
_chemical_formula_sum   'Ba4 Dy8 S16'
_cell_volume   722.59673294
_cell_formula_units_Z   4
loop_
 _symmetry_equiv_pos_site_id
 _symmetry_equiv_pos_as_xyz
  1  'x, y, z'
loop_
 _atom_site_type_symbol
 _atom_site_label
 _atom_site_symmetry_multiplicity
 _atom_site_fract_x
 _atom_site_fract_y
 _atom_site_fract_z
 _atom_site_occupancy
  Ba  Ba0  1  0.25000000  0.75855321  0.33781837  1
  Ba  Ba1  1  0.25000000  0.25855321  0.16218163  1
  Ba  Ba2  1  0.75000000  0.24144679  0.66218163  1
  Ba  Ba3  1  0.75000000  0.74144679  0.83781837  1
  Dy  Dy0  1  0.25000000  0.43424785  0.39120972  1
  Dy  Dy1  1  0.25000000  0.93424785  0.10879028  1
  Dy  Dy2  1  0.75000000  0.56575215  0.60879028  1
  Dy  Dy3  1  0.75000000  0.06575215  0.89120972  1
  Dy  Dy4  1  0.25000000  0.42029344  0.89849637  1
  Dy  Dy5  1  0.25000000  0.92029344  0.60150363  1
  Dy  Dy6  1  0.75000000  0.57970656  0.10150363  1
  Dy  Dy7  1  0.75000000  0.07970656  0.39849637  1
  S  S0  1  0.25000000  0.20614979  0.83797052  1
  S  S1  1  0.25000000  0.70614979  0.66202948  1
  S  S2  1  0.75000000  0.79385021  0.16202948  1
  S  S3  1  0.75000000  0.29385021  0.33797052  1
  S  S4  1  0.25000000  0.12305959  0.52360769  1
  S  S5  1  0.25000000  0.62305959  0.97639231  1
  S  S6  1  0.75000000  0.87694041  0.47639231  1
  S  S7  1  0.75000000  0.37694041  0.02360769  1
  S  S8  1  0.25000000  0.52402908  0.21687834  1
  S  S9  1  0.25000000  0.02402908  0.28312166  1
  S  S10  1  0.75000000  0.47597092  0.78312166  1
  S  S11  1  0.75000000  0.97597092  0.71687834  1
  S  S12  1  0.25000000  0.41834957  0.57631737  1
  S  S13  1  0.25000000  0.91834957  0.92368263  1
  S  S14  1  0.75000000  0.58165043  0.42368263  1
  S  S15  1  0.75000000  0.08165043  0.07631737  1
loop_
_geom_bond_atom_site_label_1
_geom_bond_atom_site_label_2
_geom_bond_distance
_geom_bond_site_symmetry_2
Ba0 S6 3.203381 1_555
Ba0 S6 3.203381 1_455
Ba0 S14 3.221232 1_455
Ba0 S14 3.221232 1_555
Ba0 S2 3.286548 1_455
Ba0 S2 3.286548 1_555
Ba0 S9 3.360500 1_565
Ba0 S8 3.377836 1_555
Ba1 S7 3.203381 1_555
Ba1 S7 3.203381 1_455
Ba1 S15 3.221232 1_555
Ba1 S15 3.221232 1_455
Ba1 S3 3.286548 1_455
Ba1 S3 3.286548 1_555
Ba1 S8 3.360500 1_555
Ba1 S9 3.377836 1_555
Ba2 S4 3.203381 1_555
Ba2 S4 3.203381 1_655
Ba2 S12 3.221232 1_655
Ba2 S12 3.221232 1_555
Ba2 S0 3.286548 1_655
Ba2 S0 3.286548 1_555
Ba2 S11 3.360500 1_545
Ba2 S10 3.377836 1_555
Ba3 S5 3.203381 1_555
Ba3 S5 3.203381 1_655
Ba3 S13 3.221232 1_555
Ba3 S13 3.221232 1_655
Ba3 S1 3.286548 1_555
Ba3 S1 3.286548 1_655
Ba3 S10 3.360500 1_555
Ba3 S11 3.377836 1_555
Dy0 S12 2.697518 1_555
Dy0 S14 2.755802 1_555
Dy0 S14 2.755802 1_455
Dy0 S8 2.763953 1_555
Dy0 S3 2.768663 1_455
Dy0 S3 2.768663 1_555
Dy1 S13 2.697518 1_554
Dy1 S15 2.755802 1_465
Dy1 S15 2.755802 1_565
Dy1 S9 2.763953 1_565
Dy1 S2 2.768663 1_555
Dy1 S2 2.768663 1_455
Dy2 S14 2.697518 1_555
Dy2 S12 2.755802 1_555
Dy2 S12 2.755802 1_655
Dy2 S10 2.763953 1_555
Dy2 S1 2.768663 1_555
Dy2 S1 2.768663 1_655
Dy3 S15 2.697518 1_556
Dy3 S13 2.755802 1_645
Dy3 S13 2.755802 1_545
Dy3 S11 2.763953 1_545
Dy3 S0 2.768663 1_655
Dy3 S0 2.768663 1_555
Dy4 S10 2.714025 1_555
Dy4 S10 2.714025 1_455
Dy4 S5 2.738803 1_555
Dy4 S7 2.770550 1_456
Dy4 S7 2.770550 1_556
Dy4 S0 2.776804 1_555
Dy5 S11 2.714025 1_555
Dy5 S11 2.714025 1_455
Dy5 S4 2.738803 1_565
Dy5 S6 2.770550 1_555
Dy5 S6 2.770550 1_455
Dy5 S1 2.776804 1_555
Dy6 S8 2.714025 1_655
Dy6 S8 2.714025 1_555
Dy6 S7 2.738803 1_555
Dy6 S5 2.770550 1_654
Dy6 S5 2.770550 1_554
Dy6 S2 2.776804 1_555
Dy7 S9 2.714025 1_555
Dy7 S9 2.714025 1_655
Dy7 S6 2.738803 1_545
Dy7 S4 2.770550 1_555
Dy7 S4 2.770550 1_655
Dy7 S3 2.776804 1_555
