# generated using pymatgen
data_Na3LaN6
_symmetry_space_group_name_H-M   'P 1'
_cell_length_a   12.18331646
_cell_length_b   11.62391108
_cell_length_c   6.35951776
_cell_angle_alpha   79.42787385
_cell_angle_beta   69.69992251
_cell_angle_gamma   30.87220365
_symmetry_Int_Tables_number   1
_chemical_formula_structural   Na3LaN6
_chemical_formula_sum   'Na6 La2 N12'
_cell_volume   421.02372971
_cell_formula_units_Z   2
loop_
 _symmetry_equiv_pos_site_id
 _symmetry_equiv_pos_as_xyz
  1  'x, y, z'
loop_
 _atom_site_type_symbol
 _atom_site_label
 _atom_site_symmetry_multiplicity
 _atom_site_fract_x
 _atom_site_fract_y
 _atom_site_fract_z
 _atom_site_occupancy
  Na  Na0  1  0.75000000  0.75000000  0.75000000  1
  Na  Na1  1  0.50000000  0.50000000  0.50000000  1
  Na  Na2  1  0.41414800  0.41414800  0.08585200  1
  Na  Na3  1  0.08585200  0.08585200  0.41414800  1
  Na  Na4  1  0.83585200  0.83585200  0.16414800  1
  Na  Na5  1  0.16414800  0.16414800  0.83585200  1
  La  La0  1  0.25000000  0.25000000  0.25000000  1
  La  La1  1  0.00000000  0.00000000  0.00000000  1
  N  N0  1  0.01129000  0.48871000  0.01129000  1
  N  N1  1  0.48871000  0.01129000  0.48871000  1
  N  N2  1  0.23871000  0.76129000  0.23871000  1
  N  N3  1  0.76129000  0.23871000  0.76129000  1
  N  N4  1  0.38311900  0.96639400  0.07741800  1
  N  N5  1  0.96639400  0.38311900  0.57306800  1
  N  N6  1  0.07741800  0.57306800  0.38311900  1
  N  N7  1  0.57306800  0.07741800  0.96639400  1
  N  N8  1  0.86688100  0.28360600  0.17258200  1
  N  N9  1  0.28360600  0.86688100  0.67693200  1
  N  N10  1  0.17258200  0.67693200  0.86688100  1
  N  N11  1  0.67693200  0.17258200  0.28360600  1
loop_
_geom_bond_atom_site_label_1
_geom_bond_atom_site_label_2
_geom_bond_distance
_geom_bond_site_symmetry_2
La0 N6 2.370032 1_555
La0 N7 2.370034 1_554
La0 N5 2.370039 1_455
La0 N4 2.370042 1_545
La0 N0 2.475259 1_555
La0 N1 2.475259 1_555
La1 N10 2.370032 1_544
La1 N11 2.370034 1_455
La1 N9 2.370039 1_544
La1 N8 2.370042 1_455
La1 N3 2.475259 1_454
La1 N2 2.475259 1_545
N0 Na4 2.643491 1_455
N0 Na5 2.643491 1_554
N0 Na0 2.709399 1_454
N1 Na4 2.643491 1_545
N1 Na5 2.643491 1_555
N1 Na0 2.709399 1_545
N2 Na3 2.643491 1_565
N2 Na2 2.643491 1_555
N2 Na1 2.709399 1_555
N3 Na3 2.643491 1_655
N3 Na2 2.643491 1_556
N3 Na1 2.709399 1_555
N4 Na5 2.404577 1_564
N4 Na3 2.589863 1_565
N4 Na0 2.608740 1_554
N5 Na5 2.404583 1_655
N5 Na3 2.589860 1_655
N5 Na0 2.608742 1_555
N6 Na4 2.404578 1_455
N6 Na2 2.589869 1_555
N6 Na0 2.608736 1_455
N7 Na4 2.404583 1_546
N7 Na2 2.589871 1_556
N7 Na0 2.608733 1_545
N8 Na3 2.404577 1_655
N8 Na5 2.589863 1_654
N8 Na1 2.608740 1_555
N9 Na3 2.404583 1_565
N9 Na5 2.589860 1_565
N9 Na1 2.608742 1_555
N10 Na2 2.404578 1_556
N10 Na4 2.589869 1_456
N10 Na1 2.608736 1_555
N11 Na2 2.404583 1_555
N11 Na4 2.589871 1_545
N11 Na1 2.608733 1_555
