# generated using pymatgen
data_Y4Ti2Nb2O15
_symmetry_space_group_name_H-M   'P 1'
_cell_length_a   7.29192297
_cell_length_b   7.29192297
_cell_length_c   7.29192297
_cell_angle_alpha   120.51523144
_cell_angle_beta   119.51589980
_cell_angle_gamma   89.97522143
_symmetry_Int_Tables_number   1
_chemical_formula_structural   Y4Ti2Nb2O15
_chemical_formula_sum   'Y4 Ti2 Nb2 O15'
_cell_volume   274.07389631
_cell_formula_units_Z   1
loop_
 _symmetry_equiv_pos_site_id
 _symmetry_equiv_pos_as_xyz
  1  'x, y, z'
loop_
 _atom_site_type_symbol
 _atom_site_label
 _atom_site_symmetry_multiplicity
 _atom_site_fract_x
 _atom_site_fract_y
 _atom_site_fract_z
 _atom_site_occupancy
  Y  Y0  1  0.25428500  0.50165300  0.24736800  1
  Y  Y1  1  0.25428500  0.00691700  0.75263200  1
  Y  Y2  1  0.25551800  0.49921900  0.75629900  1
  Y  Y3  1  0.74292100  0.49921900  0.24370100  1
  Ti  Ti0  1  0.75831500  0.99672500  0.23841100  1
  Ti  Ti1  1  0.75831500  0.51990400  0.76158900  1
  Nb  Nb0  1  0.75833900  0.99471800  0.76362100  1
  Nb  Nb1  1  0.23109600  0.99471800  0.23637900  1
  O  O0  1  0.12418000  0.62418000  0.50000000  1
  O  O1  1  0.37702000  0.37702000  0.00000000  1
  O  O2  1  0.11037000  0.11037000  0.00000000  1
  O  O3  1  0.64871300  0.64871300  0.00000000  1
  O  O4  1  0.10198800  0.64037900  0.99967600  1
  O  O5  1  0.64070300  0.10231100  0.00032400  1
  O  O6  1  0.10198800  0.10231100  0.46160900  1
  O  O7  1  0.64070300  0.64037900  0.53839100  1
  O  O8  1  0.42315100  0.92315100  0.50000000  1
  O  O9  1  0.82125500  0.32125500  0.50000000  1
  O  O10  1  0.42472800  0.32273300  0.50142600  1
  O  O11  1  0.82130800  0.92330300  0.49857400  1
  O  O12  1  0.42472800  0.92330300  0.10199500  1
  O  O13  1  0.82130800  0.32273300  0.89800500  1
  O  O14  1  0.87978400  0.87978400  0.00000000  1
loop_
_geom_bond_atom_site_label_1
_geom_bond_atom_site_label_2
_geom_bond_distance
_geom_bond_site_symmetry_2
Nb0 O13 2.017284 1_565
Nb0 O11 2.017291 1_555
Nb0 O8 2.072287 1_555
Nb0 O7 2.100845 1_555
Nb0 O5 2.100845 1_566
Nb0 O14 2.102374 1_556
Nb0 O2 2.106559 1_666
Nb1 O10 2.017286 1_565
Nb1 O12 2.017291 1_555
Nb1 O8 2.072289 1_555
Nb1 O6 2.100839 1_565
Nb1 O4 2.100845 1_554
Nb1 O14 2.102368 1_455
Nb1 O2 2.106559 1_565
O0 Y0 2.267550 1_555
O0 Y1 2.267550 1_565
O0 Y3 2.281525 1_455
O0 Y2 2.281531 1_555
O1 Y2 2.189272 1_554
O1 Y3 2.189278 1_555
O1 Y1 2.192204 1_554
O1 Y0 2.192204 1_555
O2 Y1 2.325212 1_554
O2 Y0 2.325212 1_555
O3 Ti0 2.062363 1_555
O3 Ti1 2.062369 1_554
O3 Y3 2.362601 1_555
O3 Y2 2.362602 1_554
O4 Ti1 2.057224 1_455
O4 Y0 2.323117 1_556
O4 Y2 2.358798 1_555
O5 Ti0 2.057224 1_545
O5 Y1 2.323117 1_554
O5 Y3 2.358804 1_555
O6 Ti0 2.057224 1_445
O6 Y1 2.323111 1_555
O6 Y2 2.358804 1_555
O7 Ti1 2.057224 1_555
O7 Y0 2.323117 1_555
O7 Y3 2.358804 1_555
O8 Y1 2.524813 1_565
O8 Y0 2.524813 1_555
O9 Ti1 2.000860 1_555
O9 Ti0 2.000865 1_545
O9 Y2 2.629369 1_655
O9 Y3 2.629370 1_555
O10 Ti1 2.066216 1_555
O10 Y2 2.542026 1_555
O10 Y0 2.619793 1_555
O11 Ti0 2.066203 1_555
O11 Y3 2.542032 1_555
O11 Y1 2.619788 1_665
O12 Ti0 2.066215 1_555
O12 Y2 2.542031 1_554
O12 Y1 2.619788 1_564
O13 Ti1 2.066215 1_555
O13 Y3 2.542026 1_556
O13 Y0 2.619788 1_656
O14 Ti1 2.131924 1_554
O14 Ti0 2.131925 1_555
