# generated using pymatgen
data_Zn3Fe4(SbO4)6
_symmetry_space_group_name_H-M   'P 1'
_cell_length_a   6.94576900
_cell_length_b   8.30349307
_cell_length_c   10.30242890
_cell_angle_alpha   104.55279431
_cell_angle_beta   105.44611263
_cell_angle_gamma   102.22580435
_symmetry_Int_Tables_number   1
_chemical_formula_structural   Zn3Fe4(SbO4)6
_chemical_formula_sum   'Zn3 Fe4 Sb6 O24'
_cell_volume   529.03779349
_cell_formula_units_Z   1
loop_
 _symmetry_equiv_pos_site_id
 _symmetry_equiv_pos_as_xyz
  1  'x, y, z'
loop_
 _atom_site_type_symbol
 _atom_site_label
 _atom_site_symmetry_multiplicity
 _atom_site_fract_x
 _atom_site_fract_y
 _atom_site_fract_z
 _atom_site_occupancy
  Zn  Zn0  1  0.00000000  0.50000000  0.50000000  1
  Zn  Zn1  1  0.28395300  0.28751500  0.79132600  1
  Zn  Zn2  1  0.71604700  0.71248500  0.20867400  1
  Fe  Fe0  1  0.37838000  0.95582400  0.61010600  1
  Fe  Fe1  1  0.62162000  0.04417600  0.38989400  1
  Fe  Fe2  1  0.04245200  0.20954600  0.01321900  1
  Fe  Fe3  1  0.95754800  0.79045400  0.98678100  1
  Sb  Sb0  1  0.78138300  0.34691700  0.72719000  1
  Sb  Sb1  1  0.21861700  0.65308300  0.27281000  1
  Sb  Sb2  1  0.89302600  0.89327900  0.66600500  1
  Sb  Sb3  1  0.39908600  0.72546200  0.87551300  1
  Sb  Sb4  1  0.10697400  0.10672100  0.33399500  1
  Sb  Sb5  1  0.60091400  0.27453800  0.12448700  1
  O  O0  1  0.85291800  0.65544900  0.57874800  1
  O  O1  1  0.14708200  0.34455100  0.42125200  1
  O  O2  1  0.24983700  0.49819000  0.74108700  1
  O  O3  1  0.75016300  0.50181000  0.25891300  1
  O  O4  1  0.78673900  0.29469300  0.53448800  1
  O  O5  1  0.21326100  0.70530700  0.46551200  1
  O  O6  1  0.66150400  0.96855000  0.57666300  1
  O  O7  1  0.33849600  0.03145000  0.42333700  1
  O  O8  1  0.66038600  0.75760700  0.01755200  1
  O  O9  1  0.33961400  0.24239300  0.98244800  1
  O  O10  1  0.48823900  0.78006500  0.27959300  1
  O  O11  1  0.51176100  0.21993500  0.72040700  1
  O  O12  1  0.13523200  0.03207200  0.64620500  1
  O  O13  1  0.06842000  0.05311800  0.13514700  1
  O  O14  1  0.93158000  0.94688200  0.86485300  1
  O  O15  1  0.55268700  0.12730000  0.23320000  1
  O  O16  1  0.44731300  0.87270000  0.76680000  1
  O  O17  1  0.20006600  0.42442600  0.17208300  1
  O  O18  1  0.79993400  0.57557400  0.82791700  1
  O  O19  1  0.99431700  0.26694900  0.82964000  1
  O  O20  1  0.00568300  0.73305100  0.17036000  1
  O  O21  1  0.23362600  0.78810200  0.98611800  1
  O  O22  1  0.76637400  0.21189800  0.01388200  1
  O  O23  1  0.86476800  0.96792800  0.35379500  1
loop_
_geom_bond_atom_site_label_1
_geom_bond_atom_site_label_2
_geom_bond_distance
_geom_bond_site_symmetry_2
Fe0 O16 1.897343 1_555
Fe0 O12 2.015061 1_565
Fe0 O11 2.070120 1_565
Fe0 O6 2.070808 1_555
Fe0 O5 2.093757 1_555
Fe0 O7 2.137871 1_565
Fe1 O15 1.897343 1_555
Fe1 O23 2.015061 1_545
Fe1 O10 2.070120 1_545
Fe1 O7 2.070808 1_555
Fe1 O4 2.093757 1_555
Fe1 O6 2.137871 1_545
Fe2 O22 1.923614 1_455
Fe2 O17 1.952313 1_555
Fe2 O13 2.023881 1_555
Fe2 O19 2.024779 1_454
Fe2 O9 2.142107 1_554
Fe2 O14 2.161621 1_444
Fe3 O21 1.923614 1_655
Fe3 O18 1.952313 1_555
Fe3 O14 2.023881 1_555
Fe3 O20 2.024779 1_656
Fe3 O8 2.142107 1_556
Fe3 O13 2.161621 1_666
O0 Sb2 1.878055 1_555
O0 Zn0 1.960014 1_655
O1 Sb4 1.878055 1_555
O1 Zn0 1.960014 1_555
O2 Sb3 1.909781 1_555
O2 Zn1 1.987330 1_555
O3 Sb5 1.909781 1_555
O3 Zn2 1.987330 1_555
O4 Sb0 1.935037 1_555
O4 Zn0 2.177580 1_655
O5 Sb1 1.935037 1_555
O5 Zn0 2.177580 1_555
O6 Sb2 1.936541 1_555
O7 Sb4 1.936541 1_555
O8 Sb3 1.921054 1_554
O8 Zn2 2.047802 1_555
O9 Sb5 1.921054 1_556
O9 Zn1 2.047802 1_555
O10 Sb1 1.918519 1_555
O10 Zn2 2.034262 1_555
O11 Sb0 1.918519 1_555
O11 Zn1 2.034262 1_555
O12 Sb2 1.918266 1_445
O12 Zn1 2.111165 1_555
O13 Sb4 1.914608 1_555
O14 Sb2 1.914608 1_555
O15 Sb5 1.891000 1_555
O16 Sb3 1.891000 1_555
O17 Sb1 1.879727 1_555
O18 Sb0 1.879727 1_555
O19 Sb0 1.918073 1_555
O19 Zn1 2.131536 1_655
O20 Sb1 1.918073 1_555
O20 Zn2 2.131536 1_455
O21 Sb3 1.882190 1_555
O22 Sb5 1.882190 1_555
O23 Sb4 1.918266 1_665
O23 Zn2 2.111165 1_555
