# generated using pymatgen
data_Mn2Si4N7
_symmetry_space_group_name_H-M   'P 1'
_cell_length_a   5.93702400
_cell_length_b   5.80793574
_cell_length_c   9.44327700
_cell_angle_alpha   90.00000000
_cell_angle_beta   90.00000000
_cell_angle_gamma   120.73800081
_symmetry_Int_Tables_number   1
_chemical_formula_structural   Mn2Si4N7
_chemical_formula_sum   'Mn4 Si8 N14'
_cell_volume   279.87623518
_cell_formula_units_Z   2
loop_
 _symmetry_equiv_pos_site_id
 _symmetry_equiv_pos_as_xyz
  1  'x, y, z'
loop_
 _atom_site_type_symbol
 _atom_site_label
 _atom_site_symmetry_multiplicity
 _atom_site_fract_x
 _atom_site_fract_y
 _atom_site_fract_z
 _atom_site_occupancy
  Mn  Mn0  1  0.31435900  0.62871900  0.73583800  1
  Mn  Mn1  1  0.68564100  0.37128100  0.23583800  1
  Mn  Mn2  1  0.60468900  0.20937900  0.81273500  1
  Mn  Mn3  1  0.39531100  0.79062100  0.31273500  1
  Si  Si0  1  0.00667500  0.01335000  0.81148100  1
  Si  Si1  1  0.99332500  0.98665000  0.31148100  1
  Si  Si2  1  0.80156600  0.12736600  0.54698600  1
  Si  Si3  1  0.80489600  0.60979000  0.55806700  1
  Si  Si4  1  0.32580000  0.12736600  0.54698600  1
  Si  Si5  1  0.19843400  0.87263400  0.04698600  1
  Si  Si6  1  0.19510400  0.39021000  0.05806700  1
  Si  Si7  1  0.67420000  0.87263400  0.04698600  1
  N  N0  1  0.94492100  0.43578300  0.62882800  1
  N  N1  1  0.49086200  0.43578300  0.62882800  1
  N  N2  1  0.47129200  0.94258400  0.59829500  1
  N  N3  1  0.05507900  0.56421700  0.12882800  1
  N  N4  1  0.50913800  0.56421700  0.12882800  1
  N  N5  1  0.52870800  0.05741600  0.09829500  1
  N  N6  1  0.18969500  0.87693300  0.86493900  1
  N  N7  1  0.17055900  0.34111700  0.87627000  1
  N  N8  1  0.68723700  0.87693300  0.86493900  1
  N  N9  1  0.81030500  0.12306700  0.36493900  1
  N  N10  1  0.82944100  0.65888300  0.37627000  1
  N  N11  1  0.31276300  0.12306700  0.36493900  1
  N  N12  1  0.98373600  0.96747300  0.61854500  1
  N  N13  1  0.01626400  0.03252700  0.11854500  1
loop_
_geom_bond_atom_site_label_1
_geom_bond_atom_site_label_2
_geom_bond_distance
_geom_bond_site_symmetry_2
Mn0 N7 1.954457 1_555
Mn0 N2 2.035174 1_555
Mn0 N0 2.138979 1_455
Mn0 N1 2.138984 1_555
Mn0 N8 2.281016 1_555
Mn0 N6 2.281016 1_555
Mn1 N10 1.954457 1_555
Mn1 N5 2.035174 1_555
Mn1 N3 2.138979 1_655
Mn1 N4 2.138984 1_555
Mn1 N9 2.281016 1_555
Mn1 N11 2.281016 1_555
Mn2 N6 2.275656 1_545
Mn2 N8 2.275656 1_545
Mn2 N2 2.423735 1_545
Mn2 N1 2.471885 1_555
Mn2 N0 2.471888 1_555
Mn2 N5 2.801293 1_556
Mn3 N11 2.275656 1_565
Mn3 N9 2.275656 1_565
Mn3 N5 2.423735 1_565
Mn3 N4 2.471885 1_555
Mn3 N3 2.471888 1_555
Mn3 N2 2.801293 1_555
N0 Si2 1.723915 1_555
N0 Si3 1.737186 1_555
N1 Si4 1.723915 1_555
N1 Si3 1.737195 1_555
N2 Si2 1.755074 1_565
N2 Si4 1.755074 1_565
N3 Si5 1.723915 1_555
N3 Si6 1.737186 1_555
N4 Si7 1.723915 1_555
N4 Si6 1.737195 1_555
N5 Si5 1.755074 1_545
N5 Si7 1.755074 1_545
N6 Si0 1.715609 1_565
N6 Si5 1.720469 1_556
N7 Si6 1.734164 1_556
N7 Si0 1.746859 1_555
N8 Si0 1.715614 1_665
N8 Si7 1.720469 1_556
N9 Si1 1.715609 1_545
N9 Si2 1.720469 1_555
N10 Si3 1.734164 1_555
N10 Si1 1.746859 1_555
N11 Si1 1.715614 1_445
N11 Si4 1.720469 1_555
N12 Si0 1.836285 1_665
N12 Si3 1.874665 1_555
N12 Si2 1.874960 1_565
N12 Si4 1.874965 1_665
N13 Si1 1.836285 1_445
N13 Si6 1.874665 1_555
N13 Si5 1.874960 1_545
N13 Si7 1.874965 1_445
