# generated using pymatgen
data_Li7Mn2(CoO4)3
_symmetry_space_group_name_H-M   'P 1'
_cell_length_a   2.88734000
_cell_length_b   5.17617000
_cell_length_c   14.47101236
_cell_angle_alpha   89.35731697
_cell_angle_beta   90.00000000
_cell_angle_gamma   90.00000000
_symmetry_Int_Tables_number   1
_chemical_formula_structural   Li7Mn2(CoO4)3
_chemical_formula_sum   'Li7 Mn2 Co3 O12'
_cell_volume   216.26092252
_cell_formula_units_Z   1
loop_
 _symmetry_equiv_pos_site_id
 _symmetry_equiv_pos_as_xyz
  1  'x, y, z'
loop_
 _atom_site_type_symbol
 _atom_site_label
 _atom_site_symmetry_multiplicity
 _atom_site_fract_x
 _atom_site_fract_y
 _atom_site_fract_z
 _atom_site_occupancy
  Li  Li0  1  0.50000000  0.49558300  0.00485400  1
  Li  Li1  1  0.00000000  0.34088800  0.83653800  1
  Li  Li2  1  0.50000000  0.17303300  0.67423000  1
  Li  Li3  1  0.00000000  0.99942000  0.49558200  1
  Li  Li4  1  0.00000000  0.65034300  0.16618700  1
  Li  Li5  1  0.50000000  0.83228400  0.32449400  1
  Li  Li6  1  0.50000000  0.16876400  0.16530700  1
  Mn  Mn0  1  0.00000000  0.01115500  0.00528600  1
  Mn  Mn1  1  0.50000000  0.48841200  0.49914900  1
  Co  Co0  1  0.50000000  0.84087600  0.83342600  1
  Co  Co1  1  0.00000000  0.67016400  0.66846100  1
  Co  Co2  1  0.00000000  0.31280600  0.31958700  1
  O  O0  1  0.50000000  0.84943600  0.07344800  1
  O  O1  1  0.00000000  0.69767500  0.91519600  1
  O  O2  1  0.50000000  0.52807000  0.74673900  1
  O  O3  1  0.00000000  0.33682800  0.57413100  1
  O  O4  1  0.00000000  0.01940400  0.25802300  1
  O  O5  1  0.50000000  0.20081100  0.41831000  1
  O  O6  1  0.50000000  0.14745200  0.92367800  1
  O  O7  1  0.00000000  0.00298400  0.75386500  1
  O  O8  1  0.50000000  0.78891700  0.58452400  1
  O  O9  1  0.00000000  0.64272300  0.42860600  1
  O  O10  1  0.00000000  0.30389800  0.07480200  1
  O  O11  1  0.50000000  0.49807400  0.25557500  1
loop_
_geom_bond_atom_site_label_1
_geom_bond_atom_site_label_2
_geom_bond_distance
_geom_bond_site_symmetry_2
Li0 O10 2.017595 1_655
Li0 O10 2.017595 1_555
Li0 O0 2.093050 1_555
Li0 O6 2.162072 1_554
Li0 O1 2.198031 1_654
Li0 O1 2.198031 1_554
Li1 O7 2.130116 1_555
Li1 O6 2.156040 1_555
Li1 O6 2.156040 1_455
Li1 O2 2.164101 1_455
Li1 O2 2.164101 1_555
Li1 O1 2.180236 1_555
Li2 O7 2.040639 1_555
Li2 O7 2.040639 1_655
Li2 O2 2.126382 1_555
Li2 O3 2.207646 1_555
Li2 O3 2.207646 1_655
Li2 O8 2.386671 1_545
Li3 O3 2.094464 1_565
Li3 O9 2.094857 1_555
Li3 O5 2.096445 1_465
Li3 O5 2.096445 1_565
Li3 O8 2.212810 1_455
Li3 O8 2.212810 1_555
Li4 O11 2.087045 1_555
Li4 O11 2.087045 1_455
Li4 O0 2.217252 1_455
Li4 O0 2.217252 1_555
Li4 O10 2.240046 1_555
Li4 O4 2.339320 1_565
Li5 O4 1.981580 1_565
Li5 O4 1.981580 1_665
Li5 O11 2.006494 1_555
Li5 O9 2.298616 1_555
Li5 O9 2.298616 1_655
Li5 O5 2.353718 1_565
Li6 O10 2.065965 1_555
Li6 O10 2.065965 1_655
Li6 O4 2.111578 1_555
Li6 O4 2.111578 1_655
Li6 O0 2.132692 1_545
Li6 O11 2.159127 1_555
Mn0 O10 1.828185 1_555
Mn0 O0 1.933728 1_545
Mn0 O0 1.933728 1_445
Mn0 O6 1.989437 1_554
Mn0 O6 1.989437 1_454
Mn0 O1 2.092842 1_544
Mn1 O5 1.903600 1_555
Mn1 O9 1.935450 1_555
Mn1 O9 1.935450 1_655
Mn1 O3 1.964201 1_555
Mn1 O3 1.964201 1_655
Mn1 O8 1.997236 1_555
Co0 O1 2.003527 1_655
Co0 O1 2.003527 1_555
Co0 O7 2.022907 1_565
Co0 O7 2.022907 1_665
Co0 O2 2.059323 1_555
Co0 O6 2.066506 1_565
Co1 O2 1.972209 1_555
Co1 O2 1.972209 1_455
Co1 O8 1.980064 1_555
Co1 O8 1.980064 1_455
Co1 O7 2.131426 1_565
Co1 O3 2.212062 1_555
Co2 O4 1.769319 1_555
Co2 O11 1.960092 1_555
Co2 O11 1.960092 1_455
Co2 O5 2.107753 1_455
Co2 O5 2.107753 1_555
Co2 O9 2.337856 1_555
