# generated using pymatgen
data_Eu3NbO6
_symmetry_space_group_name_H-M   'P 1'
_cell_length_a   5.76666052
_cell_length_b   6.03553434
_cell_length_c   10.11516422
_cell_angle_alpha   90.00000000
_cell_angle_beta   124.74151939
_cell_angle_gamma   90.00000000
_symmetry_Int_Tables_number   1
_chemical_formula_structural   Eu3NbO6
_chemical_formula_sum   'Eu6 Nb2 O12'
_cell_volume   289.29629819
_cell_formula_units_Z   2
loop_
 _symmetry_equiv_pos_site_id
 _symmetry_equiv_pos_as_xyz
  1  'x, y, z'
loop_
 _atom_site_type_symbol
 _atom_site_label
 _atom_site_symmetry_multiplicity
 _atom_site_fract_x
 _atom_site_fract_y
 _atom_site_fract_z
 _atom_site_occupancy
  Eu  Eu0  1  0.23658312  0.44246206  0.75442078  1
  Eu  Eu1  1  0.23658312  0.05753794  0.25442078  1
  Eu  Eu2  1  0.76341688  0.55753794  0.24557922  1
  Eu  Eu3  1  0.76341688  0.94246206  0.74557922  1
  Eu  Eu4  1  0.50000000  0.50000000  0.50000000  1
  Eu  Eu5  1  0.50000000  -0.00000000  -0.00000000  1
  Nb  Nb0  1  -0.00000000  0.50000000  -0.00000000  1
  Nb  Nb1  1  -0.00000000  -0.00000000  0.50000000  1
  O  O0  1  0.34520918  0.05198833  0.72709160  1
  O  O1  1  0.34520918  0.44801167  0.22709160  1
  O  O2  1  0.65479082  0.94801167  0.27290840  1
  O  O3  1  0.65479082  0.55198833  0.77290840  1
  O  O4  1  0.77172232  0.17852126  0.55550449  1
  O  O5  1  0.77172232  0.32147874  0.05550449  1
  O  O6  1  0.22827768  0.82147874  0.44449551  1
  O  O7  1  0.22827768  0.67852126  0.94449551  1
  O  O8  1  0.10082010  0.22110238  0.92949481  1
  O  O9  1  0.10082010  0.27889762  0.42949481  1
  O  O10  1  0.89917990  0.77889762  0.07050519  1
  O  O11  1  0.89917990  0.72110238  0.57050519  1
loop_
_geom_bond_atom_site_label_1
_geom_bond_atom_site_label_2
_geom_bond_distance
_geom_bond_site_symmetry_2
Eu0 O3 2.402925 1_555
Eu0 O7 2.415300 1_555
Eu0 O11 2.439126 1_455
Eu0 O0 2.494051 1_555
Eu0 O8 2.667242 1_555
Eu0 O4 2.761295 1_455
Eu0 O5 2.935941 1_556
Eu0 O9 3.075227 1_555
Eu1 O2 2.402925 1_545
Eu1 O6 2.415300 1_545
Eu1 O10 2.439126 1_445
Eu1 O1 2.494051 1_555
Eu1 O9 2.667242 1_555
Eu1 O5 2.761295 1_455
Eu1 O4 2.935941 1_555
Eu1 O8 3.075227 1_554
Eu2 O1 2.402925 1_555
Eu2 O5 2.415300 1_555
Eu2 O9 2.439126 1_655
Eu2 O2 2.494051 1_555
Eu2 O10 2.667242 1_555
Eu2 O6 2.761295 1_655
Eu2 O7 2.935941 1_554
Eu2 O11 3.075227 1_555
Eu3 O0 2.402925 1_565
Eu3 O4 2.415300 1_565
Eu3 O8 2.439126 1_665
Eu3 O3 2.494051 1_555
Eu3 O11 2.667242 1_555
Eu3 O7 2.761295 1_655
Eu3 O6 2.935941 1_555
Eu3 O10 3.075227 1_556
Eu4 O4 2.352138 1_555
Eu4 O6 2.352138 1_555
Eu4 O3 2.388976 1_555
Eu4 O1 2.388976 1_555
Eu4 O11 2.391073 1_555
Eu4 O9 2.391073 1_555
Eu5 O5 2.352138 1_555
Eu5 O7 2.352138 1_544
Eu5 O2 2.388976 1_545
Eu5 O0 2.388976 1_554
Eu5 O10 2.391073 1_545
Eu5 O8 2.391073 1_554
Nb0 O7 2.012815 1_554
Nb0 O5 2.012815 1_455
Nb0 O1 2.031269 1_555
Nb0 O3 2.031269 1_454
Nb0 O8 2.037817 1_554
Nb0 O10 2.037817 1_455
Nb1 O6 2.012815 1_545
Nb1 O4 2.012815 1_455
Nb1 O0 2.031269 1_555
Nb1 O2 2.031269 1_445
Nb1 O9 2.037817 1_555
Nb1 O11 2.037817 1_445
