# generated using pymatgen
data_Mn3OF5
_symmetry_space_group_name_H-M   'P 1'
_cell_length_a   4.90478100
_cell_length_b   5.87099625
_cell_length_c   8.14827189
_cell_angle_alpha   86.58875523
_cell_angle_beta   88.57727407
_cell_angle_gamma   87.89434641
_symmetry_Int_Tables_number   1
_chemical_formula_structural   Mn3OF5
_chemical_formula_sum   'Mn6 O2 F10'
_cell_volume   234.00304491
_cell_formula_units_Z   2
loop_
 _symmetry_equiv_pos_site_id
 _symmetry_equiv_pos_as_xyz
  1  'x, y, z'
loop_
 _atom_site_type_symbol
 _atom_site_label
 _atom_site_symmetry_multiplicity
 _atom_site_fract_x
 _atom_site_fract_y
 _atom_site_fract_z
 _atom_site_occupancy
  Mn  Mn0  1  0.51460600  0.49113800  0.99316500  1
  Mn  Mn1  1  0.49628300  0.16956900  0.33557100  1
  Mn  Mn2  1  0.51661100  0.82177900  0.66185800  1
  Mn  Mn3  1  0.98739900  0.66771700  0.34504900  1
  Mn  Mn4  1  0.97635500  0.34762100  0.67536500  1
  Mn  Mn5  1  0.99492100  0.01250500  0.99246100  1
  O  O0  1  0.80272800  0.61810600  0.57527200  1
  O  O1  1  0.81083100  0.30281800  0.88672300  1
  F  F0  1  0.80664800  0.96631500  0.22978500  1
  F  F1  1  0.69150800  0.80331200  0.90048600  1
  F  F2  1  0.69604300  0.46596700  0.23007800  1
  F  F3  1  0.70174000  0.11778600  0.56347200  1
  F  F4  1  0.30706800  0.86394900  0.43364500  1
  F  F5  1  0.30617800  0.54264400  0.76817600  1
  F  F6  1  0.30377000  0.20258200  0.10189000  1
  F  F7  1  0.18441500  0.35880000  0.45350500  1
  F  F8  1  0.20473900  0.04530700  0.75216400  1
  F  F9  1  0.19815300  0.70208600  0.10133400  1
loop_
_geom_bond_atom_site_label_1
_geom_bond_atom_site_label_2
_geom_bond_distance
_geom_bond_site_symmetry_2
Mn0 O1 2.004774 1_555
Mn2 O0 1.955736 1_555
Mn3 O0 2.072274 1_555
Mn4 O1 1.893842 1_555
Mn4 O0 1.921766 1_555
Mn5 O1 2.052667 1_555
F0 Mn1 2.099535 1_565
F0 Mn3 2.114830 1_555
F0 Mn5 2.129109 1_564
F1 Mn2 2.139918 1_555
F1 Mn5 2.141017 1_565
F1 Mn0 2.145180 1_555
F2 Mn0 2.140569 1_554
F2 Mn1 2.152311 1_555
F2 Mn3 2.155380 1_555
F3 Mn2 2.097937 1_545
F3 Mn1 2.135323 1_555
F3 Mn4 2.192530 1_555
F4 Mn3 2.143520 1_455
F4 Mn2 2.144039 1_555
F4 Mn1 2.152742 1_565
F5 Mn2 2.100568 1_555
F5 Mn0 2.121741 1_555
F5 Mn4 2.190840 1_455
F6 Mn1 2.141644 1_555
F6 Mn0 2.151482 1_554
F6 Mn5 2.155184 1_454
F7 Mn4 2.052547 1_455
F7 Mn1 2.103971 1_555
F7 Mn3 2.174158 1_455
F8 Mn2 2.124866 1_545
F8 Mn4 2.133807 1_455
F8 Mn5 2.190793 1_455
F9 Mn0 2.154181 1_554
F9 Mn5 2.195456 1_464
F9 Mn3 2.217788 1_455
