# generated using pymatgen
data_FeCuTe2
_symmetry_space_group_name_H-M   'P 1'
_cell_length_a   3.87059900
_cell_length_b   3.87059900
_cell_length_c   6.30553900
_cell_angle_alpha   90.00000000
_cell_angle_beta   90.00000000
_cell_angle_gamma   90.00000000
_symmetry_Int_Tables_number   1
_chemical_formula_structural   FeCuTe2
_chemical_formula_sum   'Fe1 Cu1 Te2'
_cell_volume   94.46666343
_cell_formula_units_Z   1
loop_
 _symmetry_equiv_pos_site_id
 _symmetry_equiv_pos_as_xyz
  1  'x, y, z'
loop_
 _atom_site_type_symbol
 _atom_site_label
 _atom_site_symmetry_multiplicity
 _atom_site_fract_x
 _atom_site_fract_y
 _atom_site_fract_z
 _atom_site_occupancy
  Fe  Fe0  1  0.00000000  0.00000000  0.00000000  1
  Cu  Cu0  1  0.50000000  0.50000000  0.00000000  1
  Te  Te0  1  0.00000000  0.50000000  0.27372600  1
  Te  Te1  1  0.50000000  0.00000000  0.72627400  1
loop_
_geom_bond_atom_site_label_1
_geom_bond_atom_site_label_2
_geom_bond_distance
_geom_bond_site_symmetry_2
Fe0 Te1 2.593150 1_554
Fe0 Te0 2.593150 1_545
Fe0 Te0 2.593150 1_555
Fe0 Te1 2.593150 1_454
Cu0 Te1 2.593150 1_554
Cu0 Te0 2.593150 1_555
Cu0 Te0 2.593150 1_655
Cu0 Te1 2.593150 1_564
Cu0 Fe0 2.736927 1_565
Cu0 Fe0 2.736927 1_655
Cu0 Fe0 2.736927 1_665
Cu0 Fe0 2.736927 1_555
