# generated using pymatgen
data_UAlAu2
_symmetry_space_group_name_H-M   'P 1'
_cell_length_a   5.65056200
_cell_length_b   6.93312000
_cell_length_c   8.40640500
_cell_angle_alpha   90.00000000
_cell_angle_beta   90.00000000
_cell_angle_gamma   90.00000000
_symmetry_Int_Tables_number   1
_chemical_formula_structural   UAlAu2
_chemical_formula_sum   'U4 Al4 Au8'
_cell_volume   329.32952751
_cell_formula_units_Z   4
loop_
 _symmetry_equiv_pos_site_id
 _symmetry_equiv_pos_as_xyz
  1  'x, y, z'
loop_
 _atom_site_type_symbol
 _atom_site_label
 _atom_site_symmetry_multiplicity
 _atom_site_fract_x
 _atom_site_fract_y
 _atom_site_fract_z
 _atom_site_occupancy
  U  U0  1  0.34911600  0.75000000  0.05330900  1
  U  U1  1  0.15088400  0.75000000  0.55330900  1
  U  U2  1  0.65088400  0.25000000  0.94669100  1
  U  U3  1  0.84911600  0.25000000  0.44669100  1
  Al  Al0  1  0.65836500  0.75000000  0.39501900  1
  Al  Al1  1  0.84163500  0.75000000  0.89501900  1
  Al  Al2  1  0.34163500  0.25000000  0.60498100  1
  Al  Al3  1  0.15836500  0.25000000  0.10498100  1
  Au  Au0  1  0.88363900  0.54414300  0.17887900  1
  Au  Au1  1  0.61636100  0.95585700  0.67887900  1
  Au  Au2  1  0.11636100  0.04414300  0.82112100  1
  Au  Au3  1  0.38363900  0.45585700  0.32112100  1
  Au  Au4  1  0.11636100  0.45585700  0.82112100  1
  Au  Au5  1  0.38363900  0.04414300  0.32112100  1
  Au  Au6  1  0.88363900  0.95585700  0.17887900  1
  Au  Au7  1  0.61636100  0.54414300  0.67887900  1
loop_
_geom_bond_atom_site_label_1
_geom_bond_atom_site_label_2
_geom_bond_distance
_geom_bond_site_symmetry_2
U0 U2 3.965843 1_564
U0 U2 3.965843 1_554
U1 U3 3.965843 1_465
U1 U3 3.965843 1_455
Al0 Au5 2.637154 1_565
Al0 Au3 2.637154 1_555
Al0 Au6 2.637929 1_555
Al0 Au0 2.637929 1_555
Al0 Au1 2.790605 1_555
Al0 Au7 2.790605 1_555
Al0 U1 3.084764 1_655
Al0 U1 3.161248 1_555
Al0 U0 3.362302 1_555
Al0 U3 3.656157 1_555
Al0 U3 3.656157 1_565
Al1 Au2 2.637154 1_665
Al1 Au4 2.637154 1_655
Al1 Au1 2.637929 1_555
Al1 Au7 2.637929 1_555
Al1 Au6 2.790605 1_556
Al1 Au0 2.790605 1_556
Al1 U0 3.084764 1_556
Al1 U0 3.161248 1_656
Al1 U1 3.362302 1_655
Al1 U2 3.656157 1_565
Al1 U2 3.656157 1_555
Al2 Au7 2.637154 1_555
Al2 Au1 2.637154 1_545
Al2 Au4 2.637929 1_555
Al2 Au2 2.637929 1_555
Al2 Au3 2.790605 1_555
Al2 Au5 2.790605 1_555
Al2 U3 3.084764 1_455
Al2 U3 3.161248 1_555
Al2 U2 3.362302 1_555
Al2 U1 3.656157 1_555
Al2 U1 3.656157 1_545
Al3 Au0 2.637154 1_455
Al3 Au6 2.637154 1_445
Al3 Au3 2.637929 1_555
Al3 Au5 2.637929 1_555
Al3 Au4 2.790605 1_554
Al3 Au2 2.790605 1_554
Al3 U2 3.084764 1_554
Al3 U2 3.161248 1_454
Al3 U3 3.362302 1_455
Al3 U0 3.656157 1_545
Al3 U0 3.656157 1_555
Au0 Au6 2.854463 1_555
Au0 U3 3.043917 1_555
Au0 U2 3.114223 1_554
Au0 Au3 3.128367 1_555
Au0 Au3 3.128367 1_655
Au0 U0 3.173208 1_655
Au0 U0 3.503400 1_555
Au0 U1 3.771577 1_655
Au1 Au7 2.854463 1_555
Au1 U2 3.043917 1_565
Au1 U3 3.114223 1_565
Au1 Au2 3.128367 1_565
Au1 Au2 3.128367 1_665
Au1 U1 3.173208 1_555
Au1 U1 3.503400 1_655
Au1 U0 3.771577 1_556
Au2 Au4 2.854463 1_555
Au2 U1 3.043917 1_545
Au2 U0 3.114223 1_546
Au2 U2 3.173208 1_455
Au2 U2 3.503400 1_555
Au2 U3 3.771577 1_455
Au3 Au5 2.854463 1_555
Au3 U0 3.043917 1_555
Au3 U1 3.114223 1_555
Au3 U3 3.173208 1_555
Au3 U3 3.503400 1_455
Au3 U2 3.771577 1_554
Au4 U1 3.043917 1_555
Au4 U0 3.114223 1_556
Au4 Au7 3.128367 1_455
Au4 Au7 3.128367 1_555
Au4 U2 3.173208 1_455
Au4 U2 3.503400 1_555
Au4 U3 3.771577 1_455
Au5 U0 3.043917 1_545
Au5 U1 3.114223 1_545
Au5 Au6 3.128367 1_545
Au5 Au6 3.128367 1_445
Au5 U3 3.173208 1_555
Au5 U3 3.503400 1_455
Au5 U2 3.771577 1_554
Au6 U3 3.043917 1_565
Au6 U2 3.114223 1_564
Au6 U0 3.173208 1_655
Au6 U0 3.503400 1_555
Au6 U1 3.771577 1_655
Au7 U2 3.043917 1_555
Au7 U3 3.114223 1_555
Au7 U1 3.173208 1_555
Au7 U1 3.503400 1_655
Au7 U0 3.771577 1_556
