# generated using pymatgen
data_Tb(Al5Fe)2
_symmetry_space_group_name_H-M   'P 1'
_cell_length_a   6.70618814
_cell_length_b   6.70616898
_cell_length_c   8.88600144
_cell_angle_alpha   90.00038801
_cell_angle_beta   90.00014355
_cell_angle_gamma   97.35112212
_symmetry_Int_Tables_number   1
_chemical_formula_structural   Tb(Al5Fe)2
_chemical_formula_sum   'Tb2 Al20 Fe4'
_cell_volume   396.34396237
_cell_formula_units_Z   2
loop_
 _symmetry_equiv_pos_site_id
 _symmetry_equiv_pos_as_xyz
  1  'x, y, z'
loop_
 _atom_site_type_symbol
 _atom_site_label
 _atom_site_symmetry_multiplicity
 _atom_site_fract_x
 _atom_site_fract_y
 _atom_site_fract_z
 _atom_site_occupancy
  Tb  Tb0  1  0.87513675  0.12485095  0.74998378  1
  Tb  Tb1  1  0.12486565  0.87514660  0.25001535  1
  Al  Al0  1  0.41195992  0.13216154  0.75000202  1
  Al  Al1  1  0.13218146  0.41196433  0.25001572  1
  Al  Al2  1  0.58803545  0.86783584  0.24999764  1
  Al  Al3  1  0.86781553  0.58803647  0.74998621  1
  Al  Al4  1  0.52112500  0.78016969  0.74999228  1
  Al  Al5  1  0.78017241  0.52112655  0.25000971  1
  Al  Al6  1  0.47887724  0.21982814  0.25000809  1
  Al  Al7  1  0.21982637  0.47887001  0.74998881  1
  Al  Al8  1  0.83963438  0.16036105  0.40287787  1
  Al  Al9  1  0.16036223  0.83963903  0.59711937  1
  Al  Al10  1  0.83962926  0.16036228  0.09713961  1
  Al  Al11  1  0.16037354  0.83963822  0.90286048  1
  Al  Al12  1  0.62453811  0.37544534  0.94880981  1
  Al  Al13  1  0.37545359  0.62456106  0.05118146  1
  Al  Al14  1  0.62454781  0.37544852  0.55117728  1
  Al  Al15  1  0.37545028  0.62455053  0.44882410  1
  Al  Al16  1  0.77225776  0.77225957  0.00002010  1
  Al  Al17  1  0.77224559  0.77224355  0.50000670  1
  Al  Al18  1  0.22776032  0.22774507  -0.00000553  1
  Al  Al19  1  0.22775241  0.22775487  0.49999263  1
  Fe  Fe0  1  0.50000015  -0.00000265  -0.00000053  1
  Fe  Fe1  1  0.00000042  0.50000060  -0.00000105  1
  Fe  Fe2  1  0.49999846  -0.00000221  0.49999911  1
  Fe  Fe3  1  0.00000093  0.50000204  0.49999996  1
loop_
_geom_bond_atom_site_label_1
_geom_bond_atom_site_label_2
_geom_bond_distance
_geom_bond_site_symmetry_2
Al0 Fe0 2.490590 1_556
Al0 Fe2 2.490621 1_555
Al0 Al4 2.559336 1_545
Al0 Al18 2.659732 1_556
Al0 Al19 2.659906 1_555
Al0 Al12 2.686962 1_555
Al0 Al14 2.687122 1_555
Al0 Al11 2.773619 1_545
Al0 Al9 2.773743 1_545
Al0 Al7 2.798722 1_555
Al0 Tb0 3.112804 1_555
Al0 Tb0 3.594093 1_455
Al1 Fe3 2.490518 1_555
Al1 Fe1 2.490777 1_555
Al1 Al5 2.559444 1_455
Al1 Al19 2.659630 1_555
Al1 Al18 2.659996 1_555
Al1 Al15 2.686937 1_555
Al1 Al13 2.687151 1_555
Al1 Al8 2.773795 1_455
Al1 Al10 2.773857 1_455
Al1 Al6 2.798660 1_555
Al1 Tb1 3.112836 1_555
Al1 Tb1 3.594042 1_545
Al2 Fe0 2.490579 1_565
Al2 Fe2 2.490602 1_565
Al2 Al6 2.559320 1_565
Al2 Al8 2.773749 1_565
Al2 Al5 2.798740 1_555
Al2 Tb1 3.112757 1_555
Al2 Tb1 3.594140 1_655
Al3 Fe3 2.490540 1_655
Al3 Fe1 2.490754 1_656
Al3 Al7 2.559467 1_655
Al3 Al9 2.773811 1_655
Al3 Al4 2.798618 1_555
Al3 Tb0 3.112863 1_555
Al3 Tb0 3.594016 1_565
Al4 Al7 2.668448 1_555
Al4 Fe2 2.679858 1_565
Al4 Fe0 2.679942 1_566
Al4 Al9 2.846840 1_555
Al4 Tb0 3.094336 1_565
Al5 Al6 2.668428 1_555
Al5 Fe3 2.679828 1_655
Al5 Fe1 2.679983 1_655
Al5 Al8 2.846827 1_555
Al5 Tb1 3.094425 1_655
Al6 Fe2 2.679846 1_555
Al6 Fe0 2.679962 1_555
Al6 Al8 2.846790 1_555
Al6 Tb1 3.094336 1_545
Al7 Fe3 2.679812 1_555
Al7 Fe1 2.679974 1_556
Al7 Al9 2.846856 1_555
Al7 Tb0 3.094405 1_455
Al8 Fe2 2.542104 1_555
Al8 Fe3 2.542127 1_655
Al8 Tb0 3.105049 1_555
Al8 Tb1 3.177824 1_645
Al9 Fe3 2.542086 1_555
Al9 Fe2 2.542094 1_565
Al9 Tb1 3.105028 1_555
Al9 Tb0 3.177793 1_465
Al10 Al12 2.535905 1_554
Al10 Fe0 2.542117 1_555
Al10 Fe1 2.542190 1_655
Al10 Al8 2.716791 1_555
Al10 Al16 2.724319 1_545
Al10 Al18 2.724588 1_655
Al10 Al2 2.773657 1_545
Al10 Al6 2.846756 1_555
Al10 Al5 2.846805 1_555
Al10 Tb0 3.105492 1_554
Al10 Tb1 3.177910 1_645
Al11 Al13 2.535791 1_556
Al11 Fe0 2.542088 1_566
Al11 Fe1 2.542183 1_556
Al11 Al9 2.716816 1_555
Al11 Al18 2.724390 1_566
Al11 Al16 2.724532 1_456
Al11 Al3 2.773873 1_455
Al11 Al4 2.846756 1_555
Al11 Al7 2.846827 1_555
Al11 Tb1 3.105482 1_556
Al11 Tb0 3.177902 1_465
Al12 Fe0 2.589544 1_556
Al12 Fe1 2.589657 1_656
Al12 Al13 2.668860 1_556
Al12 Al3 2.687090 1_555
Al12 Al18 2.755674 1_556
Al12 Al16 2.755955 1_556
Al12 Al6 2.990961 1_556
Al12 Al5 2.991031 1_556
Al12 Tb0 3.081011 1_555
Al13 Fe0 2.589471 1_565
Al13 Fe1 2.589596 1_555
Al13 Al2 2.686990 1_555
Al13 Al16 2.755800 1_555
Al13 Al18 2.755890 1_555
Al13 Al4 2.990891 1_554
Al13 Al7 2.990977 1_554
Al13 Tb1 3.080970 1_555
Al14 Al8 2.535758 1_555
Al14 Fe2 2.589552 1_555
Al14 Fe3 2.589583 1_655
Al14 Al15 2.668806 1_555
Al14 Al3 2.686942 1_555
Al14 Al17 2.755751 1_555
Al14 Al19 2.755768 1_555
Al14 Al6 2.990737 1_555
Al14 Al5 2.990764 1_555
Al14 Tb0 3.080892 1_555
Al15 Al9 2.535749 1_555
Al15 Fe2 2.589524 1_565
Al15 Fe3 2.589550 1_555
Al15 Al2 2.687117 1_555
Al15 Al19 2.755752 1_555
Al15 Al17 2.755763 1_555
Al15 Al4 2.990735 1_555
Al15 Al7 2.990745 1_555
Al15 Tb1 3.080880 1_555
Al16 Fe0 2.525794 1_565
Al16 Fe1 2.525823 1_655
Al16 Al2 2.659682 1_555
Al16 Al3 2.660060 1_554
Al16 Al5 2.792262 1_555
Al16 Al4 2.792519 1_554
Al16 Tb1 3.253456 1_655
Al16 Tb0 3.253636 1_564
Al17 Fe3 2.525789 1_655
Al17 Fe2 2.525815 1_565
Al17 Al3 2.659639 1_555
Al17 Al2 2.659910 1_555
Al17 Al9 2.724404 1_655
Al17 Al8 2.724455 1_565
Al17 Al4 2.792187 1_555
Al17 Al5 2.792239 1_555
Al17 Tb0 3.253337 1_565
Al17 Tb1 3.253517 1_655
Al18 Fe0 2.525745 1_555
Al18 Fe1 2.525886 1_555
Al18 Al7 2.792355 1_554
Al18 Al6 2.792358 1_555
Al18 Tb1 3.253588 1_545
Al18 Tb0 3.253629 1_454
Al19 Fe3 2.525801 1_555
Al19 Fe2 2.525823 1_555
Al19 Al8 2.724418 1_455
Al19 Al9 2.724439 1_545
Al19 Al6 2.792197 1_555
Al19 Al7 2.792225 1_555
Al19 Tb1 3.253339 1_545
Al19 Tb0 3.253496 1_455
Fe0 Tb1 3.380328 1_545
Fe0 Tb0 3.380339 1_554
Fe1 Tb1 3.380375 1_555
Fe1 Tb0 3.380384 1_454
Fe2 Tb1 3.380117 1_545
Fe2 Tb0 3.380150 1_555
Fe3 Tb1 3.380207 1_555
Fe3 Tb0 3.380233 1_455
