# generated using pymatgen
data_Ga4BiAs3
_symmetry_space_group_name_H-M   'P 1'
_cell_length_a   5.94039500
_cell_length_b   5.94039500
_cell_length_c   5.94039500
_cell_angle_alpha   90.00000000
_cell_angle_beta   90.00000000
_cell_angle_gamma   90.00000000
_symmetry_Int_Tables_number   1
_chemical_formula_structural   Ga4BiAs3
_chemical_formula_sum   'Ga4 Bi1 As3'
_cell_volume   209.62639785
_cell_formula_units_Z   1
loop_
 _symmetry_equiv_pos_site_id
 _symmetry_equiv_pos_as_xyz
  1  'x, y, z'
loop_
 _atom_site_type_symbol
 _atom_site_label
 _atom_site_symmetry_multiplicity
 _atom_site_fract_x
 _atom_site_fract_y
 _atom_site_fract_z
 _atom_site_occupancy
  Ga  Ga0  1  0.26072100  0.26072100  0.26072100  1
  Ga  Ga1  1  0.26072100  0.73927900  0.73927900  1
  Ga  Ga2  1  0.73927900  0.26072100  0.73927900  1
  Ga  Ga3  1  0.73927900  0.73927900  0.26072100  1
  Bi  Bi0  1  0.00000000  0.00000000  0.00000000  1
  As  As0  1  0.50000000  0.50000000  0.00000000  1
  As  As1  1  0.50000000  0.00000000  0.50000000  1
  As  As2  1  0.00000000  0.50000000  0.50000000  1
loop_
_geom_bond_atom_site_label_1
_geom_bond_atom_site_label_2
_geom_bond_distance
_geom_bond_site_symmetry_2
Bi0 Ga1 2.682576 1_544
Bi0 Ga2 2.682576 1_454
Bi0 Ga0 2.682576 1_555
Bi0 Ga3 2.682576 1_445
As0 Ga2 2.537629 1_554
As0 Ga1 2.537629 1_554
As0 Ga3 2.537629 1_555
As0 Ga0 2.537629 1_555
As1 Ga2 2.537629 1_555
As1 Ga3 2.537629 1_545
As1 Ga1 2.537629 1_545
As1 Ga0 2.537629 1_555
As2 Ga2 2.537629 1_455
As2 Ga1 2.537629 1_555
As2 Ga3 2.537629 1_455
As2 Ga0 2.537629 1_555
