# generated using pymatgen
data_LaCeC4
_symmetry_space_group_name_H-M   'P 1'
_cell_length_a   4.23875682
_cell_length_b   4.23875682
_cell_length_c   5.48712400
_cell_angle_alpha   90.00000000
_cell_angle_beta   90.00000000
_cell_angle_gamma   99.34176904
_symmetry_Int_Tables_number   1
_chemical_formula_structural   LaCeC4
_chemical_formula_sum   'La1 Ce1 C4'
_cell_volume   97.27998040
_cell_formula_units_Z   1
loop_
 _symmetry_equiv_pos_site_id
 _symmetry_equiv_pos_as_xyz
  1  'x, y, z'
loop_
 _atom_site_type_symbol
 _atom_site_label
 _atom_site_symmetry_multiplicity
 _atom_site_fract_x
 _atom_site_fract_y
 _atom_site_fract_z
 _atom_site_occupancy
  La  La0  1  0.50000000  0.50000000  0.50000000  1
  Ce  Ce0  1  0.00000000  0.00000000  0.00000000  1
  C  C0  1  0.60147000  0.39853000  0.00000000  1
  C  C1  1  0.10031500  0.89968500  0.50000000  1
  C  C2  1  0.89968500  0.10031500  0.50000000  1
  C  C3  1  0.39853000  0.60147000  0.00000000  1
loop_
_geom_bond_atom_site_label_1
_geom_bond_atom_site_label_2
_geom_bond_distance
_geom_bond_site_symmetry_2
C0 C3 1.311549 1_555
C0 Ce0 2.575597 1_655
C0 Ce0 2.820520 1_665
C0 Ce0 2.820520 1_555
C0 La0 2.820846 1_555
C0 La0 2.820846 1_554
C1 C2 1.296620 1_465
C1 La0 2.583062 1_555
C1 La0 2.818794 1_455
C1 La0 2.818794 1_565
C1 Ce0 2.819120 1_566
C1 Ce0 2.819120 1_565
C2 La0 2.583062 1_555
C2 La0 2.818794 1_545
C2 La0 2.818794 1_655
C2 Ce0 2.819120 1_655
C2 Ce0 2.819120 1_656
C3 Ce0 2.575597 1_565
C3 Ce0 2.820520 1_665
C3 Ce0 2.820520 1_555
C3 La0 2.820846 1_555
C3 La0 2.820846 1_554
