# generated using pymatgen
data_NpCd11
_symmetry_space_group_name_H-M   'P 1'
_cell_length_a   9.44900600
_cell_length_b   9.44900600
_cell_length_c   9.44900600
_cell_angle_alpha   90.00000000
_cell_angle_beta   90.00000000
_cell_angle_gamma   90.00000000
_symmetry_Int_Tables_number   1
_chemical_formula_structural   NpCd11
_chemical_formula_sum   'Np3 Cd33'
_cell_volume   843.64235295
_cell_formula_units_Z   3
loop_
 _symmetry_equiv_pos_site_id
 _symmetry_equiv_pos_as_xyz
  1  'x, y, z'
loop_
 _atom_site_type_symbol
 _atom_site_label
 _atom_site_symmetry_multiplicity
 _atom_site_fract_x
 _atom_site_fract_y
 _atom_site_fract_z
 _atom_site_occupancy
  Np  Np0  1  0.00000000  0.00000000  0.50000000  1
  Np  Np1  1  0.00000000  0.50000000  0.00000000  1
  Np  Np2  1  0.50000000  0.00000000  0.00000000  1
  Cd  Cd0  1  0.50000000  0.50000000  0.50000000  1
  Cd  Cd1  1  0.15548600  0.15548600  0.84451400  1
  Cd  Cd2  1  0.15548600  0.84451400  0.15548600  1
  Cd  Cd3  1  0.84451400  0.15548600  0.15548600  1
  Cd  Cd4  1  0.84451400  0.84451400  0.84451400  1
  Cd  Cd5  1  0.84451400  0.84451400  0.15548600  1
  Cd  Cd6  1  0.84451400  0.15548600  0.84451400  1
  Cd  Cd7  1  0.15548600  0.84451400  0.84451400  1
  Cd  Cd8  1  0.15548600  0.15548600  0.15548600  1
  Cd  Cd9  1  0.34480100  0.34480100  0.00000000  1
  Cd  Cd10  1  0.34480100  0.00000000  0.65519900  1
  Cd  Cd11  1  0.00000000  0.34480100  0.65519900  1
  Cd  Cd12  1  0.34480100  0.65519900  0.00000000  1
  Cd  Cd13  1  0.34480100  0.00000000  0.34480100  1
  Cd  Cd14  1  0.00000000  0.65519900  0.34480100  1
  Cd  Cd15  1  0.65519900  0.34480100  0.00000000  1
  Cd  Cd16  1  0.65519900  0.00000000  0.34480100  1
  Cd  Cd17  1  0.00000000  0.34480100  0.34480100  1
  Cd  Cd18  1  0.65519900  0.65519900  0.00000000  1
  Cd  Cd19  1  0.65519900  0.00000000  0.65519900  1
  Cd  Cd20  1  0.00000000  0.65519900  0.65519900  1
  Cd  Cd21  1  0.26548800  0.26548800  0.50000000  1
  Cd  Cd22  1  0.26548800  0.50000000  0.73451200  1
  Cd  Cd23  1  0.50000000  0.26548800  0.73451200  1
  Cd  Cd24  1  0.26548800  0.73451200  0.50000000  1
  Cd  Cd25  1  0.26548800  0.50000000  0.26548800  1
  Cd  Cd26  1  0.50000000  0.73451200  0.26548800  1
  Cd  Cd27  1  0.73451200  0.26548800  0.50000000  1
  Cd  Cd28  1  0.73451200  0.50000000  0.26548800  1
  Cd  Cd29  1  0.50000000  0.26548800  0.26548800  1
  Cd  Cd30  1  0.73451200  0.73451200  0.50000000  1
  Cd  Cd31  1  0.73451200  0.50000000  0.73451200  1
  Cd  Cd32  1  0.50000000  0.73451200  0.73451200  1
loop_
_geom_bond_atom_site_label_1
_geom_bond_atom_site_label_2
_geom_bond_distance
_geom_bond_site_symmetry_2
Cd0 Cd30 3.133763 1_555
Cd0 Cd31 3.133763 1_555
Cd0 Cd32 3.133763 1_555
Cd0 Cd27 3.133763 1_555
Cd0 Cd28 3.133763 1_555
Cd0 Cd22 3.133763 1_555
Cd0 Cd26 3.133763 1_555
Cd0 Cd24 3.133763 1_555
Cd0 Cd23 3.133763 1_555
Cd0 Cd25 3.133763 1_555
Cd0 Cd29 3.133763 1_555
Cd0 Cd21 3.133763 1_555
Cd1 Cd11 2.925474 1_555
Cd1 Cd10 2.925474 1_555
Cd1 Cd9 2.925474 1_556
Cd1 Cd8 2.938376 1_556
Cd1 Cd6 2.938376 1_455
Cd1 Cd7 2.938376 1_545
Cd1 Np0 3.861878 1_555
Cd1 Np2 3.861878 1_556
Cd1 Np1 3.861878 1_556
Cd2 Cd8 2.938376 1_565
Cd2 Cd5 2.938376 1_455
Cd2 Cd7 2.938376 1_554
Cd2 Np1 3.861878 1_555
Cd2 Np2 3.861878 1_565
Cd2 Np0 3.861878 1_565
Cd3 Cd8 2.938376 1_655
Cd3 Cd6 2.938376 1_554
Cd3 Cd5 2.938376 1_545
Cd3 Np2 3.861878 1_555
Cd3 Np1 3.861878 1_655
Cd3 Np0 3.861878 1_655
Cd4 Cd6 2.938376 1_565
Cd4 Cd5 2.938376 1_556
Cd4 Cd7 2.938376 1_655
Cd4 Np0 3.861878 1_665
Cd4 Np1 3.861878 1_656
Cd4 Np2 3.861878 1_566
Cd5 Np1 3.861878 1_655
Cd5 Np2 3.861878 1_565
Cd5 Np0 3.861878 1_665
Cd6 Np0 3.861878 1_655
Cd6 Np2 3.861878 1_556
Cd6 Np1 3.861878 1_656
Cd7 Np0 3.861878 1_565
Cd7 Np1 3.861878 1_556
Cd7 Np2 3.861878 1_566
Cd8 Cd9 2.925474 1_555
Cd8 Np2 3.861878 1_555
Cd8 Np0 3.861878 1_555
Cd8 Np1 3.861878 1_555
Cd9 Np1 3.572855 1_555
Cd9 Np2 3.572855 1_555
Cd10 Cd7 2.925474 1_545
Cd10 Cd19 2.932953 1_555
Cd10 Cd13 2.932953 1_555
Cd10 Cd21 3.000876 1_555
Cd10 Cd23 3.000876 1_555
Cd10 Cd24 3.000876 1_545
Cd10 Cd32 3.000876 1_545
Cd10 Np0 3.572855 1_555
Cd10 Np2 3.572855 1_556
Cd11 Cd6 2.925474 1_455
Cd11 Cd17 2.932953 1_555
Cd11 Cd20 2.932953 1_555
Cd11 Cd21 3.000876 1_555
Cd11 Cd22 3.000876 1_555
Cd11 Cd27 3.000876 1_455
Cd11 Cd31 3.000876 1_455
Cd11 Np0 3.572855 1_555
Cd11 Np1 3.572855 1_556
Cd12 Cd2 2.925474 1_555
Cd12 Cd7 2.925474 1_554
Cd12 Cd9 2.932953 1_555
Cd12 Cd18 2.932953 1_555
Cd12 Cd25 3.000876 1_555
Cd12 Cd26 3.000876 1_555
Cd12 Cd22 3.000876 1_554
Cd12 Cd32 3.000876 1_554
Cd12 Np1 3.572855 1_555
Cd12 Np2 3.572855 1_565
Cd13 Cd8 2.925474 1_555
Cd13 Cd2 2.925474 1_545
Cd13 Cd16 2.932953 1_555
Cd13 Cd21 3.000876 1_555
Cd13 Cd29 3.000876 1_555
Cd13 Cd24 3.000876 1_545
Cd13 Cd26 3.000876 1_545
Cd13 Np0 3.572855 1_555
Cd13 Np2 3.572855 1_555
Cd14 Cd2 2.925474 1_555
Cd14 Cd5 2.925474 1_455
Cd14 Cd17 2.932953 1_555
Cd14 Cd20 2.932953 1_555
Cd14 Cd25 3.000876 1_555
Cd14 Cd24 3.000876 1_555
Cd14 Cd28 3.000876 1_455
Cd14 Cd30 3.000876 1_455
Cd14 Np1 3.572855 1_555
Cd14 Np0 3.572855 1_565
Cd15 Cd3 2.925474 1_555
Cd15 Cd6 2.925474 1_554
Cd15 Cd9 2.932953 1_555
Cd15 Cd18 2.932953 1_555
Cd15 Cd29 3.000876 1_555
Cd15 Cd28 3.000876 1_555
Cd15 Cd23 3.000876 1_554
Cd15 Cd31 3.000876 1_554
Cd15 Np2 3.572855 1_555
Cd15 Np1 3.572855 1_655
Cd16 Cd3 2.925474 1_555
Cd16 Cd5 2.925474 1_545
Cd16 Cd19 2.932953 1_555
Cd16 Cd29 3.000876 1_555
Cd16 Cd27 3.000876 1_555
Cd16 Cd26 3.000876 1_545
Cd16 Cd30 3.000876 1_545
Cd16 Np2 3.572855 1_555
Cd16 Np0 3.572855 1_655
Cd17 Cd8 2.925474 1_555
Cd17 Cd3 2.925474 1_455
Cd17 Cd21 3.000876 1_555
Cd17 Cd25 3.000876 1_555
Cd17 Cd28 3.000876 1_455
Cd17 Cd27 3.000876 1_455
Cd17 Np0 3.572855 1_555
Cd17 Np1 3.572855 1_555
Cd18 Cd5 2.925474 1_555
Cd18 Cd4 2.925474 1_554
Cd18 Cd28 3.000876 1_555
Cd18 Cd26 3.000876 1_555
Cd18 Cd31 3.000876 1_554
Cd18 Cd32 3.000876 1_554
Cd18 Np2 3.572855 1_565
Cd18 Np1 3.572855 1_655
Cd19 Cd6 2.925474 1_555
Cd19 Cd4 2.925474 1_545
Cd19 Cd27 3.000876 1_555
Cd19 Cd23 3.000876 1_555
Cd19 Cd30 3.000876 1_545
Cd19 Cd32 3.000876 1_545
Cd19 Np0 3.572855 1_655
Cd19 Np2 3.572855 1_556
Cd20 Cd7 2.925474 1_555
Cd20 Cd4 2.925474 1_455
Cd20 Cd22 3.000876 1_555
Cd20 Cd24 3.000876 1_555
Cd20 Cd31 3.000876 1_455
Cd20 Cd30 3.000876 1_455
Cd20 Np0 3.572855 1_565
Cd20 Np1 3.572855 1_556
Cd21 Cd22 3.133763 1_555
Cd21 Cd23 3.133763 1_555
Cd21 Cd25 3.133763 1_555
Cd21 Cd29 3.133763 1_555
Cd21 Np0 3.547693 1_555
Cd22 Cd9 3.000876 1_556
Cd22 Cd24 3.133763 1_555
Cd22 Cd32 3.133763 1_555
Cd22 Cd23 3.133763 1_555
Cd22 Np1 3.547693 1_556
Cd23 Cd9 3.000876 1_556
Cd23 Cd27 3.133763 1_555
Cd23 Cd31 3.133763 1_555
Cd23 Np2 3.547693 1_556
Cd24 Cd25 3.133763 1_555
Cd24 Cd32 3.133763 1_555
Cd24 Cd26 3.133763 1_555
Cd24 Np0 3.547693 1_565
Cd25 Cd9 3.000876 1_555
Cd25 Cd26 3.133763 1_555
Cd25 Cd29 3.133763 1_555
Cd25 Np1 3.547693 1_555
Cd26 Cd28 3.133763 1_555
Cd26 Cd30 3.133763 1_555
Cd26 Np2 3.547693 1_565
Cd27 Cd31 3.133763 1_555
Cd27 Cd29 3.133763 1_555
Cd27 Cd28 3.133763 1_555
Cd27 Np0 3.547693 1_655
Cd28 Cd29 3.133763 1_555
Cd28 Cd30 3.133763 1_555
Cd28 Np1 3.547693 1_655
Cd29 Cd9 3.000876 1_555
Cd29 Np2 3.547693 1_555
Cd30 Cd31 3.133763 1_555
Cd30 Cd32 3.133763 1_555
Cd30 Np0 3.547693 1_665
Cd31 Cd32 3.133763 1_555
Cd31 Np1 3.547693 1_656
Cd32 Np2 3.547693 1_566
