# generated using pymatgen
data_Ba2YV3O7
_symmetry_space_group_name_H-M   'P 1'
_cell_length_a   3.90041300
_cell_length_b   4.14935500
_cell_length_c   11.63264800
_cell_angle_alpha   90.00000000
_cell_angle_beta   90.00000000
_cell_angle_gamma   90.00000000
_symmetry_Int_Tables_number   1
_chemical_formula_structural   Ba2YV3O7
_chemical_formula_sum   'Ba2 Y1 V3 O7'
_cell_volume   188.26508063
_cell_formula_units_Z   1
loop_
 _symmetry_equiv_pos_site_id
 _symmetry_equiv_pos_as_xyz
  1  'x, y, z'
loop_
 _atom_site_type_symbol
 _atom_site_label
 _atom_site_symmetry_multiplicity
 _atom_site_fract_x
 _atom_site_fract_y
 _atom_site_fract_z
 _atom_site_occupancy
  Ba  Ba0  1  0.50000000  0.50000000  0.32227500  1
  Ba  Ba1  1  0.50000000  0.50000000  0.67772500  1
  Y  Y0  1  0.50000000  0.50000000  0.00000000  1
  V  V0  1  0.00000000  0.00000000  0.15283900  1
  V  V1  1  0.00000000  0.00000000  0.84716100  1
  V  V2  1  0.00000000  0.00000000  0.50000000  1
  O  O0  1  0.00000000  0.50000000  0.50000000  1
  O  O1  1  0.50000000  0.00000000  0.11861900  1
  O  O2  1  0.50000000  0.00000000  0.88138100  1
  O  O3  1  0.00000000  0.50000000  0.12610900  1
  O  O4  1  0.00000000  0.50000000  0.87389100  1
  O  O5  1  0.00000000  0.00000000  0.32521900  1
  O  O6  1  0.00000000  0.00000000  0.67478100  1
loop_
_geom_bond_atom_site_label_1
_geom_bond_atom_site_label_2
_geom_bond_distance
_geom_bond_site_symmetry_2
Ba0 O0 2.842094 1_555
Ba0 O0 2.842094 1_655
Ba0 O5 2.847589 1_655
Ba0 O5 2.847589 1_665
Ba0 O5 2.847589 1_555
Ba0 O5 2.847589 1_565
Ba0 O3 3.001751 1_555
Ba0 O3 3.001751 1_655
Ba0 O1 3.149083 1_565
Ba0 O1 3.149083 1_555
Ba1 O0 2.842094 1_555
Ba1 O0 2.842094 1_655
Ba1 O6 2.847589 1_555
Ba1 O6 2.847589 1_655
Ba1 O6 2.847589 1_565
Ba1 O6 2.847589 1_665
Ba1 O4 3.001751 1_555
Ba1 O4 3.001751 1_655
Ba1 O2 3.149083 1_565
Ba1 O2 3.149083 1_555
O0 V2 2.074677 1_555
O0 V2 2.074677 1_565
O1 V0 1.990418 1_655
O1 V0 1.990418 1_555
O1 Y0 2.491642 1_555
O1 Y0 2.491642 1_545
O2 V1 1.990418 1_555
O2 V1 1.990418 1_655
O2 Y0 2.491642 1_556
O2 Y0 2.491642 1_546
O3 V0 2.097849 1_555
O3 V0 2.097849 1_565
O3 Y0 2.440357 1_455
O3 Y0 2.440357 1_555
O4 V1 2.097849 1_565
O4 V1 2.097849 1_555
O4 Y0 2.440357 1_456
O4 Y0 2.440357 1_556
O5 V0 2.005236 1_555
O5 V2 2.033166 1_555
O6 V1 2.005236 1_555
O6 V2 2.033166 1_555
