# generated using pymatgen
data_KP(HO2)2
_symmetry_space_group_name_H-M   'P 1'
_cell_length_a   7.30873528
_cell_length_b   14.95628200
_cell_length_c   7.53077698
_cell_angle_alpha   90.00000000
_cell_angle_beta   91.67676891
_cell_angle_gamma   90.00000000
_symmetry_Int_Tables_number   1
_chemical_formula_structural   KP(HO2)2
_chemical_formula_sum   'K8 P8 H16 O32'
_cell_volume   822.84808367
_cell_formula_units_Z   8
loop_
 _symmetry_equiv_pos_site_id
 _symmetry_equiv_pos_as_xyz
  1  'x, y, z'
loop_
 _atom_site_type_symbol
 _atom_site_label
 _atom_site_symmetry_multiplicity
 _atom_site_fract_x
 _atom_site_fract_y
 _atom_site_fract_z
 _atom_site_occupancy
  K  K0  1  0.34292900  0.71038900  0.28230800  1
  K  K1  1  0.65707100  0.21038900  0.71769200  1
  K  K2  1  0.21382900  0.90346500  0.63019800  1
  K  K3  1  0.78617100  0.40346500  0.36980200  1
  K  K4  1  0.36121300  0.19933400  0.22629200  1
  K  K5  1  0.63878700  0.69933400  0.77370800  1
  K  K6  1  0.06959800  0.43461600  0.85073200  1
  K  K7  1  0.93040200  0.93461600  0.14926800  1
  P  P0  1  0.13213300  0.68708600  0.77323600  1
  P  P1  1  0.86786700  0.18708600  0.22676400  1
  P  P2  1  0.40755300  0.94565500  0.14624500  1
  P  P3  1  0.59244700  0.44565500  0.85375500  1
  P  P4  1  0.17268400  0.17580200  0.73497100  1
  P  P5  1  0.82731600  0.67580200  0.26502900  1
  P  P6  1  0.28267300  0.43770700  0.36680300  1
  P  P7  1  0.71732700  0.93770700  0.63319700  1
  H  H0  1  0.33292800  0.59166300  0.88720200  1
  H  H1  1  0.66707200  0.09166300  0.11279800  1
  H  H2  1  0.98391900  0.60885800  0.55940300  1
  H  H3  1  0.01608100  0.10885800  0.44059700  1
  H  H4  1  0.55533200  0.87873600  0.92778400  1
  H  H5  1  0.44466800  0.37873600  0.07221600  1
  H  H6  1  0.29762800  0.04430000  0.93960800  1
  H  H7  1  0.70237200  0.54430000  0.06039200  1
  H  H8  1  0.02155400  0.24655400  0.95856600  1
  H  H9  1  0.97844600  0.74655400  0.04143400  1
  H  H10  1  0.23411900  0.29554800  0.56361600  1
  H  H11  1  0.76588100  0.79554800  0.43638400  1
  H  H12  1  0.41822700  0.52089000  0.57851300  1
  H  H13  1  0.58177300  0.02089000  0.42148700  1
  H  H14  1  0.06852600  0.53162100  0.26807000  1
  H  H15  1  0.93147400  0.03162100  0.73193000  1
  O  O0  1  0.24499100  0.63845200  0.93259600  1
  O  O1  1  0.75500900  0.13845200  0.06740400  1
  O  O2  1  0.00420600  0.60839300  0.69536200  1
  O  O3  1  0.99579400  0.10839300  0.30463800  1
  O  O4  1  0.25601400  0.72355000  0.63467800  1
  O  O5  1  0.74398600  0.22355000  0.36532200  1
  O  O6  1  0.01032200  0.75579700  0.86433200  1
  O  O7  1  0.98967800  0.25579700  0.13566800  1
  O  O8  1  0.53378300  0.87043100  0.06230800  1
  O  O9  1  0.46621700  0.37043100  0.93769200  1
  O  O10  1  0.27849200  0.97959700  0.98445100  1
  O  O11  1  0.72150800  0.47959700  0.01554900  1
  O  O12  1  0.52834900  0.02452300  0.21229900  1
  O  O13  1  0.47165100  0.52452300  0.78770100  1
  O  O14  1  0.29275200  0.90241600  0.28483100  1
  O  O15  1  0.70724800  0.40241600  0.71516900  1
  O  O16  1  0.03913900  0.24694100  0.81573200  1
  O  O17  1  0.96086100  0.74694100  0.18426800  1
  O  O18  1  0.27791700  0.23019400  0.58711300  1
  O  O19  1  0.72208300  0.73019400  0.41288700  1
  O  O20  1  0.06129600  0.10105500  0.64107600  1
  O  O21  1  0.93870400  0.60105500  0.35892400  1
  O  O22  1  0.31095400  0.14034200  0.87296300  1
  O  O23  1  0.68904600  0.64034200  0.12703700  1
  O  O24  1  0.38876300  0.52301500  0.44539500  1
  O  O25  1  0.61123700  0.02301500  0.55460500  1
  O  O26  1  0.14594700  0.48044000  0.22052400  1
  O  O27  1  0.85405300  0.98044000  0.77947600  1
  O  O28  1  0.41198600  0.37741800  0.26716300  1
  O  O29  1  0.58801400  0.87741800  0.73283700  1
  O  O30  1  0.17841500  0.39106200  0.51316000  1
  O  O31  1  0.82158500  0.89106200  0.48684000  1
loop_
_geom_bond_atom_site_label_1
_geom_bond_atom_site_label_2
_geom_bond_distance
_geom_bond_site_symmetry_2
K0 O4 2.753656 1_555
K0 O14 2.895462 1_555
K0 O0 2.914704 1_554
K0 O17 2.919076 1_455
K0 O19 2.928218 1_555
K0 O23 3.006197 1_555
K0 O24 3.074101 1_555
K0 O8 3.248902 1_555
K1 O5 2.753656 1_555
K1 O15 2.895462 1_555
K1 O1 2.914704 1_556
K1 O16 2.919076 1_655
K1 O18 2.928218 1_555
K1 O22 3.006197 1_555
K1 O25 3.074101 1_555
K1 O9 3.248902 1_555
K2 O14 2.680552 1_555
K2 O4 2.708563 1_555
K2 O29 2.846883 1_555
K2 O10 2.926304 1_555
K2 O31 3.039309 1_455
K3 O15 2.680552 1_555
K3 O5 2.708563 1_555
K3 O28 2.846883 1_555
K3 O11 2.926304 1_555
K3 O30 3.039309 1_655
K4 O28 2.705523 1_555
K4 O22 2.817138 1_554
K4 O18 2.839714 1_555
K4 O12 2.889041 1_555
K4 O7 2.905878 1_455
K4 O5 2.980347 1_555
K4 O3 3.069725 1_455
K5 O29 2.705523 1_555
K5 O23 2.817138 1_556
K5 O19 2.839714 1_555
K5 O13 2.889041 1_555
K5 O6 2.905878 1_655
K5 O4 2.980347 1_555
K5 O2 3.069725 1_655
K6 O30 2.763667 1_555
K6 O16 2.827437 1_555
K6 O15 2.851234 1_455
K6 O2 2.884411 1_555
K6 O26 2.906094 1_556
K6 O11 2.941156 1_456
K6 O9 3.105198 1_555
K7 O31 2.763667 1_555
K7 O17 2.827437 1_555
K7 O14 2.851234 1_655
K7 O3 2.884411 1_565
K7 O27 2.906094 1_554
K7 O10 2.941156 1_654
K7 O8 3.105198 1_555
H0 O0 1.016120 1_555
H0 O13 1.625503 1_555
H0 K5 2.903925 1_555
H1 O1 1.016120 1_555
H1 O12 1.625503 1_555
H1 K4 2.903925 1_555
H2 O2 1.030278 1_655
H2 O21 1.540458 1_555
H3 O3 1.030278 1_455
H3 O20 1.540458 1_555
H4 O8 1.037247 1_556
H4 O29 1.494420 1_555
H4 K5 2.993205 1_555
H5 O9 1.037247 1_554
H5 O28 1.494420 1_555
H5 K4 2.993205 1_555
H6 O10 1.035781 1_545
H6 O22 1.525639 1_555
H7 O11 1.035781 1_555
H7 O23 1.525639 1_555
H8 O16 1.087045 1_555
H8 O7 1.367614 1_456
H9 O17 1.087045 1_555
H9 O6 1.367614 1_654
H10 O18 1.042056 1_555
H10 O30 1.530290 1_555
H11 O19 1.042056 1_555
H11 O31 1.530290 1_555
H12 O24 1.019667 1_555
H12 O13 1.612804 1_555
H13 O25 1.019667 1_555
H13 O12 1.612804 1_555
H14 O26 1.022841 1_555
H14 O21 1.576337 1_455
H15 O27 1.022841 1_545
H15 O20 1.576337 1_655
O0 P0 1.609902 1_555
O1 P1 1.609902 1_555
O2 P0 1.603513 1_555
O3 P1 1.603513 1_555
O4 P0 1.503753 1_555
O5 P1 1.503753 1_555
O6 P0 1.534622 1_555
O7 P1 1.534622 1_555
O8 P2 1.597071 1_555
O9 P3 1.597071 1_555
O10 P2 1.601496 1_556
O11 P3 1.601496 1_554
O12 P2 1.546799 1_545
O13 P3 1.546799 1_555
O14 P2 1.504225 1_555
O15 P3 1.504225 1_555
O16 P4 1.577766 1_555
O17 P5 1.577766 1_555
O18 P4 1.594773 1_555
O19 P5 1.594773 1_555
O20 P4 1.542354 1_555
O21 P5 1.542354 1_555
O22 P4 1.523480 1_555
O23 P5 1.523480 1_555
O24 P6 1.597672 1_555
O25 P7 1.597672 1_545
O26 P6 1.598800 1_555
O27 P7 1.598800 1_555
O28 P6 1.520150 1_555
O29 P7 1.520150 1_555
O30 P6 1.526855 1_555
O31 P7 1.526855 1_555
