# generated using pymatgen
data_Li2Ca(SiN2)2
_symmetry_space_group_name_H-M   'P 1'
_cell_length_a   10.63827127
_cell_length_b   10.63827127
_cell_length_c   10.63827127
_cell_angle_alpha   90.00000000
_cell_angle_beta   90.00000000
_cell_angle_gamma   90.00000000
_symmetry_Int_Tables_number   1
_chemical_formula_structural   Li2Ca(SiN2)2
_chemical_formula_sum   'Li24 Ca12 Si24 N48'
_cell_volume   1203.96311289
_cell_formula_units_Z   12
loop_
 _symmetry_equiv_pos_site_id
 _symmetry_equiv_pos_as_xyz
  1  'x, y, z'
loop_
 _atom_site_type_symbol
 _atom_site_label
 _atom_site_symmetry_multiplicity
 _atom_site_fract_x
 _atom_site_fract_y
 _atom_site_fract_z
 _atom_site_occupancy
  Li  Li0  1  0.38628266  0.72182278  0.95236371  1
  Li  Li1  1  0.61371734  0.22182278  0.54763629  1
  Li  Li2  1  0.11371734  0.27817722  0.45236371  1
  Li  Li3  1  0.88628266  0.77817722  0.04763629  1
  Li  Li4  1  0.95236371  0.38628266  0.72182278  1
  Li  Li5  1  0.54763629  0.61371734  0.22182278  1
  Li  Li6  1  0.45236371  0.11371734  0.27817722  1
  Li  Li7  1  0.04763629  0.88628266  0.77817722  1
  Li  Li8  1  0.72182278  0.95236371  0.38628266  1
  Li  Li9  1  0.22182278  0.54763629  0.61371734  1
  Li  Li10  1  0.27817722  0.45236371  0.11371734  1
  Li  Li11  1  0.77817722  0.04763629  0.88628266  1
  Li  Li12  1  0.61371734  0.27817722  0.04763629  1
  Li  Li13  1  0.38628266  0.77817722  0.45236371  1
  Li  Li14  1  0.88628266  0.72182278  0.54763629  1
  Li  Li15  1  0.11371734  0.22182278  0.95236371  1
  Li  Li16  1  0.04763629  0.61371734  0.27817722  1
  Li  Li17  1  0.45236371  0.38628266  0.77817722  1
  Li  Li18  1  0.54763629  0.88628266  0.72182278  1
  Li  Li19  1  0.95236371  0.11371734  0.22182278  1
  Li  Li20  1  0.27817722  0.04763629  0.61371734  1
  Li  Li21  1  0.77817722  0.45236371  0.38628266  1
  Li  Li22  1  0.72182278  0.54763629  0.88628266  1
  Li  Li23  1  0.22182278  0.95236371  0.11371734  1
  Ca  Ca0  1  0.29502788  0.70497212  0.20497212  1
  Ca  Ca1  1  0.70497212  0.20497212  0.29502788  1
  Ca  Ca2  1  0.20497212  0.29502788  0.70497212  1
  Ca  Ca3  1  0.79502788  0.79502788  0.79502788  1
  Ca  Ca4  1  0.70497212  0.29502788  0.79502788  1
  Ca  Ca5  1  0.29502788  0.79502788  0.70497212  1
  Ca  Ca6  1  0.79502788  0.70497212  0.29502788  1
  Ca  Ca7  1  0.20497212  0.20497212  0.20497212  1
  Ca  Ca8  1  0.50000000  -0.00000000  0.00000000  1
  Ca  Ca9  1  0.50000000  0.50000000  0.50000000  1
  Ca  Ca10  1  0.00000000  -0.00000000  0.50000000  1
  Ca  Ca11  1  0.00000000  0.50000000  0.00000000  1
  Si  Si0  1  0.24838142  0.98463266  0.37246985  1
  Si  Si1  1  0.75161858  0.48463266  0.12753015  1
  Si  Si2  1  0.25161858  0.01536734  0.87246985  1
  Si  Si3  1  0.74838142  0.51536734  0.62753015  1
  Si  Si4  1  0.37246985  0.24838142  0.98463266  1
  Si  Si5  1  0.12753015  0.75161858  0.48463266  1
  Si  Si6  1  0.87246985  0.25161858  0.01536734  1
  Si  Si7  1  0.62753015  0.74838142  0.51536734  1
  Si  Si8  1  0.98463266  0.37246985  0.24838142  1
  Si  Si9  1  0.48463266  0.12753015  0.75161858  1
  Si  Si10  1  0.01536734  0.87246985  0.25161858  1
  Si  Si11  1  0.51536734  0.62753015  0.74838142  1
  Si  Si12  1  0.75161858  0.01536734  0.62753015  1
  Si  Si13  1  0.24838142  0.51536734  0.87246985  1
  Si  Si14  1  0.74838142  0.98463266  0.12753015  1
  Si  Si15  1  0.25161858  0.48463266  0.37246985  1
  Si  Si16  1  0.62753015  0.75161858  0.01536734  1
  Si  Si17  1  0.87246985  0.24838142  0.51536734  1
  Si  Si18  1  0.12753015  0.74838142  0.98463266  1
  Si  Si19  1  0.37246985  0.25161858  0.48463266  1
  Si  Si20  1  0.01536734  0.62753015  0.75161858  1
  Si  Si21  1  0.51536734  0.87246985  0.24838142  1
  Si  Si22  1  0.98463266  0.12753015  0.74838142  1
  Si  Si23  1  0.48463266  0.37246985  0.25161858  1
  N  N0  1  0.49617756  0.78118410  0.10963942  1
  N  N1  1  0.50382244  0.28118410  0.39036058  1
  N  N2  1  0.00382244  0.21881590  0.60963942  1
  N  N3  1  0.99617756  0.71881590  0.89036058  1
  N  N4  1  0.10963942  0.49617756  0.78118410  1
  N  N5  1  0.39036058  0.50382244  0.28118410  1
  N  N6  1  0.60963942  0.00382244  0.21881590  1
  N  N7  1  0.89036058  0.99617756  0.71881590  1
  N  N8  1  0.78118410  0.10963942  0.49617756  1
  N  N9  1  0.28118410  0.39036058  0.50382244  1
  N  N10  1  0.21881590  0.60963942  0.00382244  1
  N  N11  1  0.71881590  0.89036058  0.99617756  1
  N  N12  1  0.50382244  0.21881590  0.89036058  1
  N  N13  1  0.49617756  0.71881590  0.60963942  1
  N  N14  1  0.99617756  0.78118410  0.39036058  1
  N  N15  1  0.00382244  0.28118410  0.10963942  1
  N  N16  1  0.89036058  0.50382244  0.21881590  1
  N  N17  1  0.60963942  0.49617756  0.71881590  1
  N  N18  1  0.39036058  0.99617756  0.78118410  1
  N  N19  1  0.10963942  0.00382244  0.28118410  1
  N  N20  1  0.21881590  0.89036058  0.50382244  1
  N  N21  1  0.71881590  0.60963942  0.49617756  1
  N  N22  1  0.78118410  0.39036058  0.99617756  1
  N  N23  1  0.28118410  0.10963942  0.00382244  1
  N  N24  1  0.07873788  0.77572876  0.13775716  1
  N  N25  1  0.92126212  0.27572876  0.36224284  1
  N  N26  1  0.42126212  0.22427124  0.63775716  1
  N  N27  1  0.57873788  0.72427124  0.86224284  1
  N  N28  1  0.13775716  0.07873788  0.77572876  1
  N  N29  1  0.36224284  0.92126212  0.27572876  1
  N  N30  1  0.63775716  0.42126212  0.22427124  1
  N  N31  1  0.86224284  0.57873788  0.72427124  1
  N  N32  1  0.77572876  0.13775716  0.07873788  1
  N  N33  1  0.27572876  0.36224284  0.92126212  1
  N  N34  1  0.22427124  0.63775716  0.42126212  1
  N  N35  1  0.72427124  0.86224284  0.57873788  1
  N  N36  1  0.92126212  0.22427124  0.86224284  1
  N  N37  1  0.07873788  0.72427124  0.63775716  1
  N  N38  1  0.57873788  0.77572876  0.36224284  1
  N  N39  1  0.42126212  0.27572876  0.13775716  1
  N  N40  1  0.86224284  0.92126212  0.22427124  1
  N  N41  1  0.63775716  0.07873788  0.72427124  1
  N  N42  1  0.36224284  0.57873788  0.77572876  1
  N  N43  1  0.13775716  0.42126212  0.27572876  1
  N  N44  1  0.22427124  0.86224284  0.92126212  1
  N  N45  1  0.72427124  0.63775716  0.07873788  1
  N  N46  1  0.77572876  0.36224284  0.57873788  1
  N  N47  1  0.27572876  0.13775716  0.42126212  1
loop_
_geom_bond_atom_site_label_1
_geom_bond_atom_site_label_2
_geom_bond_distance
_geom_bond_site_symmetry_2
Li0 N0 2.136580 1_556
Li0 N10 2.213124 1_556
Li0 N27 2.260896 1_555
Li0 N44 2.304673 1_555
Li0 N42 2.431749 1_555
Li1 N1 2.136580 1_555
Li1 N8 2.213124 1_555
Li1 N26 2.260896 1_555
Li1 N46 2.304673 1_555
Li1 N41 2.431749 1_555
Li2 N2 2.136580 1_555
Li2 N9 2.213124 1_555
Li2 N25 2.260896 1_455
Li2 N47 2.304673 1_555
Li2 N43 2.431749 1_555
Li3 N3 2.136580 1_554
Li3 N11 2.213124 1_554
Li3 N24 2.260896 1_655
Li3 N45 2.304673 1_555
Li3 N40 2.431749 1_555
Li4 N4 2.136580 1_655
Li4 N2 2.213124 1_655
Li4 N31 2.260896 1_555
Li4 N36 2.304673 1_555
Li4 N46 2.431749 1_555
Li5 N5 2.136580 1_555
Li5 N0 2.213124 1_555
Li5 N30 2.260896 1_555
Li5 N38 2.304673 1_555
Li5 N45 2.431749 1_555
Li6 N6 2.136580 1_555
Li6 N1 2.213124 1_555
Li6 N29 2.260896 1_545
Li6 N39 2.304673 1_555
Li6 N47 2.431749 1_555
Li7 N7 2.136580 1_455
Li7 N3 2.213124 1_455
Li7 N28 2.260896 1_565
Li7 N37 2.304673 1_555
Li7 N44 2.431749 1_555
Li8 N8 2.136580 1_565
Li8 N6 2.213124 1_565
Li8 N35 2.260896 1_555
Li8 N40 2.304673 1_555
Li8 N38 2.431749 1_555
Li9 N9 2.136580 1_555
Li9 N4 2.213124 1_555
Li9 N34 2.260896 1_555
Li9 N42 2.304673 1_555
Li9 N37 2.431749 1_555
Li10 N10 2.136580 1_555
Li10 N5 2.213124 1_555
Li10 N33 2.260896 1_554
Li10 N43 2.304673 1_555
Li10 N39 2.431749 1_555
Li11 N11 2.136580 1_545
Li11 N7 2.213124 1_545
Li11 N32 2.260896 1_556
Li11 N41 2.304673 1_555
Li11 N36 2.431749 1_555
Li12 N12 2.136580 1_554
Li12 N22 2.213124 1_554
Li12 N39 2.260896 1_555
Li12 N32 2.304673 1_555
Li12 N30 2.431749 1_555
Li13 N13 2.136580 1_555
Li13 N20 2.213124 1_555
Li13 N38 2.260896 1_555
Li13 N34 2.304673 1_555
Li13 N29 2.431749 1_555
Li14 N14 2.136580 1_555
Li14 N21 2.213124 1_555
Li14 N37 2.260896 1_655
Li14 N35 2.304673 1_555
Li14 N31 2.431749 1_555
Li15 N15 2.136580 1_556
Li15 N23 2.213124 1_556
Li15 N36 2.260896 1_455
Li15 N33 2.304673 1_555
Li15 N28 2.431749 1_555
Li16 N16 2.136580 1_455
Li16 N14 2.213124 1_455
Li16 N43 2.260896 1_555
Li16 N24 2.304673 1_555
Li16 N34 2.431749 1_555
Li17 N17 2.136580 1_555
Li17 N12 2.213124 1_555
Li17 N42 2.260896 1_555
Li17 N26 2.304673 1_555
Li17 N33 2.431749 1_555
Li18 N18 2.136580 1_555
Li18 N13 2.213124 1_555
Li18 N41 2.260896 1_565
Li18 N27 2.304673 1_555
Li18 N35 2.431749 1_555
Li19 N19 2.136580 1_655
Li19 N15 2.213124 1_655
Li19 N40 2.260896 1_545
Li19 N25 2.304673 1_555
Li19 N32 2.431749 1_555
Li20 N20 2.136580 1_545
Li20 N18 2.213124 1_545
Li20 N47 2.260896 1_555
Li20 N28 2.304673 1_555
Li20 N26 2.431749 1_555
Li21 N21 2.136580 1_555
Li21 N16 2.213124 1_555
Li21 N46 2.260896 1_555
Li21 N30 2.304673 1_555
Li21 N25 2.431749 1_555
Li22 N22 2.136580 1_555
Li22 N17 2.213124 1_555
Li22 N45 2.260896 1_556
Li22 N31 2.304673 1_555
Li22 N27 2.431749 1_555
Li23 N23 2.136580 1_565
Li23 N19 2.213124 1_565
Li23 N44 2.260896 1_554
Li23 N29 2.304673 1_555
Li23 N24 2.431749 1_555
Ca0 N10 2.502997 1_555
Ca0 N0 2.502997 1_555
Ca0 N5 2.502997 1_555
Ca0 N29 2.524337 1_555
Ca0 N34 2.524337 1_555
Ca0 N24 2.524337 1_555
Ca1 N6 2.502997 1_555
Ca1 N8 2.502997 1_555
Ca1 N1 2.502997 1_555
Ca1 N25 2.524337 1_555
Ca1 N30 2.524337 1_555
Ca1 N32 2.524337 1_555
Ca2 N2 2.502997 1_555
Ca2 N9 2.502997 1_555
Ca2 N4 2.502997 1_555
Ca2 N26 2.524337 1_555
Ca2 N33 2.524337 1_555
Ca2 N28 2.524337 1_555
Ca3 N3 2.502997 1_555
Ca3 N7 2.502997 1_555
Ca3 N11 2.502997 1_555
Ca3 N35 2.524337 1_555
Ca3 N27 2.524337 1_555
Ca3 N31 2.524337 1_555
Ca4 N17 2.502997 1_555
Ca4 N12 2.502997 1_555
Ca4 N22 2.502997 1_555
Ca4 N36 2.524337 1_555
Ca4 N46 2.524337 1_555
Ca4 N41 2.524337 1_555
Ca5 N13 2.502997 1_555
Ca5 N20 2.502997 1_555
Ca5 N18 2.502997 1_555
Ca5 N44 2.524337 1_555
Ca5 N37 2.524337 1_555
Ca5 N42 2.524337 1_555
Ca6 N21 2.502997 1_555
Ca6 N16 2.502997 1_555
Ca6 N14 2.502997 1_555
Ca6 N40 2.524337 1_555
Ca6 N38 2.524337 1_555
Ca6 N45 2.524337 1_555
Ca7 N23 2.502997 1_555
Ca7 N15 2.502997 1_555
Ca7 N19 2.502997 1_555
Ca7 N39 2.524337 1_555
Ca7 N43 2.524337 1_555
Ca7 N47 2.524337 1_555
Ca8 N18 2.604005 1_544
Ca8 N0 2.604005 1_545
Ca8 N11 2.604005 1_544
Ca8 N23 2.604005 1_555
Ca8 N6 2.604005 1_555
Ca8 N12 2.604005 1_554
Ca9 N13 2.604005 1_555
Ca9 N21 2.604005 1_555
Ca9 N17 2.604005 1_555
Ca9 N5 2.604005 1_555
Ca9 N9 2.604005 1_555
Ca9 N1 2.604005 1_555
Ca10 N14 2.604005 1_445
Ca10 N7 2.604005 1_445
Ca10 N8 2.604005 1_455
Ca10 N19 2.604005 1_555
Ca10 N20 2.604005 1_545
Ca10 N2 2.604005 1_555
Ca11 N4 2.604005 1_554
Ca11 N22 2.604005 1_454
Ca11 N3 2.604005 1_454
Ca11 N15 2.604005 1_555
Ca11 N16 2.604005 1_455
Ca11 N10 2.604005 1_555
N0 Si16 1.748527 1_555
N0 Si21 1.778555 1_555
N1 Si19 1.748527 1_555
N1 Si23 1.778555 1_555
N2 Si17 1.748527 1_455
N2 Si22 1.778555 1_455
N3 Si18 1.748527 1_655
N3 Si20 1.778555 1_655
N4 Si20 1.748527 1_555
N4 Si13 1.778555 1_555
N5 Si23 1.748527 1_555
N5 Si15 1.778555 1_555
N6 Si21 1.748527 1_545
N6 Si14 1.778555 1_545
N7 Si22 1.748527 1_565
N7 Si12 1.778555 1_565
N8 Si12 1.748527 1_555
N8 Si17 1.778555 1_555
N9 Si15 1.748527 1_555
N9 Si19 1.778555 1_555
N10 Si13 1.748527 1_554
N10 Si18 1.778555 1_554
N11 Si14 1.748527 1_556
N11 Si16 1.778555 1_556
N12 Si4 1.748527 1_555
N12 Si9 1.778555 1_555
N13 Si7 1.748527 1_555
N13 Si11 1.778555 1_555
N14 Si5 1.748527 1_655
N14 Si10 1.778555 1_655
N15 Si6 1.748527 1_455
N15 Si8 1.778555 1_455
N16 Si8 1.748527 1_555
N16 Si1 1.778555 1_555
N17 Si11 1.748527 1_555
N17 Si3 1.778555 1_555
N18 Si9 1.748527 1_565
N18 Si2 1.778555 1_565
N19 Si10 1.748527 1_545
N19 Si0 1.778555 1_545
N20 Si0 1.748527 1_555
N20 Si5 1.778555 1_555
N21 Si3 1.748527 1_555
N21 Si7 1.778555 1_555
N22 Si1 1.748527 1_556
N22 Si6 1.778555 1_556
N23 Si2 1.748527 1_554
N23 Si4 1.778555 1_554
N24 Si10 1.726519 1_555
N24 Si18 1.734256 1_554
N25 Si8 1.726519 1_555
N25 Si17 1.734256 1_555
N26 Si9 1.726519 1_555
N26 Si19 1.734256 1_555
N27 Si11 1.726519 1_555
N27 Si16 1.734256 1_556
N28 Si2 1.726519 1_555
N28 Si22 1.734256 1_455
N29 Si0 1.726519 1_555
N29 Si21 1.734256 1_555
N30 Si1 1.726519 1_555
N30 Si23 1.734256 1_555
N31 Si3 1.726519 1_555
N31 Si20 1.734256 1_655
N32 Si6 1.726519 1_555
N32 Si14 1.734256 1_545
N33 Si4 1.726519 1_555
N33 Si13 1.734256 1_555
N34 Si5 1.726519 1_555
N34 Si15 1.734256 1_555
N35 Si7 1.726519 1_555
N35 Si12 1.734256 1_565
N36 Si22 1.726519 1_555
N36 Si6 1.734256 1_556
N37 Si20 1.726519 1_555
N37 Si5 1.734256 1_555
N38 Si21 1.726519 1_555
N38 Si7 1.734256 1_555
N39 Si23 1.726519 1_555
N39 Si4 1.734256 1_554
N40 Si14 1.726519 1_555
N40 Si10 1.734256 1_655
N41 Si12 1.726519 1_555
N41 Si9 1.734256 1_555
N42 Si13 1.726519 1_555
N42 Si11 1.734256 1_555
N43 Si15 1.726519 1_555
N43 Si8 1.734256 1_455
N44 Si18 1.726519 1_555
N44 Si2 1.734256 1_565
N45 Si16 1.726519 1_555
N45 Si1 1.734256 1_555
N46 Si17 1.726519 1_555
N46 Si3 1.734256 1_555
N47 Si19 1.726519 1_555
N47 Si0 1.734256 1_545
