# generated using pymatgen
data_VIr
_symmetry_space_group_name_H-M   'P 1'
_cell_length_a   3.63272957
_cell_length_b   3.88484838
_cell_length_c   3.88484838
_cell_angle_alpha   90.00000000
_cell_angle_beta   90.00000000
_cell_angle_gamma   90.00000000
_symmetry_Int_Tables_number   1
_chemical_formula_structural   VIr
_chemical_formula_sum   'V2 Ir2'
_cell_volume   54.82532517
_cell_formula_units_Z   2
loop_
 _symmetry_equiv_pos_site_id
 _symmetry_equiv_pos_as_xyz
  1  'x, y, z'
loop_
 _atom_site_type_symbol
 _atom_site_label
 _atom_site_symmetry_multiplicity
 _atom_site_fract_x
 _atom_site_fract_y
 _atom_site_fract_z
 _atom_site_occupancy
  V  V0  1  0.50000000  0.50000000  -0.00000000  1
  V  V1  1  0.50000000  -0.00000000  0.50000000  1
  Ir  Ir0  1  0.00000000  0.50000000  0.50000000  1
  Ir  Ir1  1  0.00000000  -0.00000000  0.00000000  1
loop_
_geom_bond_atom_site_label_1
_geom_bond_atom_site_label_2
_geom_bond_distance
_geom_bond_site_symmetry_2
Ir0 V1 2.659359 1_455
Ir0 V0 2.659359 1_555
Ir0 V0 2.659359 1_456
Ir0 V0 2.659359 1_455
Ir0 V1 2.659359 1_565
Ir0 V1 2.659359 1_555
Ir0 V1 2.659359 1_465
Ir0 V0 2.659359 1_556
Ir1 V0 2.659359 1_445
Ir1 V0 2.659359 1_545
Ir1 V1 2.659359 1_554
Ir1 V0 2.659359 1_555
Ir1 V0 2.659359 1_455
Ir1 V1 2.659359 1_555
Ir1 V1 2.659359 1_454
Ir1 V1 2.659359 1_455
