# generated using pymatgen
data_Ca6Mn3Al2O15
_symmetry_space_group_name_H-M   'P 1'
_cell_length_a   8.23294415
_cell_length_b   8.23294415
_cell_length_c   16.24451627
_cell_angle_alpha   71.12830582
_cell_angle_beta   71.12830582
_cell_angle_gamma   39.59571918
_symmetry_Int_Tables_number   1
_chemical_formula_structural   Ca6Mn3Al2O15
_chemical_formula_sum   'Ca12 Mn6 Al4 O30'
_cell_volume   659.01755236
_cell_formula_units_Z   2
loop_
 _symmetry_equiv_pos_site_id
 _symmetry_equiv_pos_as_xyz
  1  'x, y, z'
loop_
 _atom_site_type_symbol
 _atom_site_label
 _atom_site_symmetry_multiplicity
 _atom_site_fract_x
 _atom_site_fract_y
 _atom_site_fract_z
 _atom_site_occupancy
  Ca  Ca0  1  0.42034000  0.85062100  0.02731000  1
  Ca  Ca1  1  0.37388500  0.88302200  0.37936300  1
  Ca  Ca2  1  0.41591200  0.86064600  0.71228300  1
  Ca  Ca3  1  0.14802800  0.58365400  0.11859700  1
  Ca  Ca4  1  0.10909800  0.62894500  0.46602600  1
  Ca  Ca5  1  0.14859500  0.57531300  0.80446000  1
  Ca  Ca6  1  0.57531300  0.14859500  0.30446000  1
  Ca  Ca7  1  0.58365400  0.14802800  0.61859700  1
  Ca  Ca8  1  0.62894500  0.10909800  0.96602600  1
  Ca  Ca9  1  0.86064600  0.41591200  0.21228300  1
  Ca  Ca10  1  0.85062100  0.42034000  0.52731000  1
  Ca  Ca11  1  0.88302200  0.37388500  0.87936300  1
  Mn  Mn0  1  0.50015300  0.99592800  0.16415900  1
  Mn  Mn1  1  0.47929600  0.01394800  0.49952500  1
  Mn  Mn2  1  0.52179400  0.98970300  0.82685800  1
  Mn  Mn3  1  0.98970300  0.52179400  0.32685800  1
  Mn  Mn4  1  0.99592800  0.50015300  0.66415900  1
  Mn  Mn5  1  0.01394800  0.47929600  0.99952500  1
  Al  Al0  1  0.83280000  0.16316900  0.10364100  1
  Al  Al1  1  0.82792400  0.17389000  0.75857000  1
  Al  Al2  1  0.17389000  0.82792400  0.25857000  1
  Al  Al3  1  0.16316900  0.83280000  0.60364100  1
  O  O0  1  0.87194100  0.12756500  0.21442700  1
  O  O1  1  0.87617300  0.12446200  0.56571700  1
  O  O2  1  0.84734800  0.14993900  0.86592500  1
  O  O3  1  0.12446200  0.87617300  0.06571700  1
  O  O4  1  0.14993900  0.84734800  0.36592500  1
  O  O5  1  0.12756500  0.87194100  0.71442700  1
  O  O6  1  0.42594800  0.79870400  0.20252700  1
  O  O7  1  0.41316800  0.79135900  0.53783300  1
  O  O8  1  0.46139100  0.80414800  0.86329000  1
  O  O9  1  0.58483000  0.19270200  0.10956200  1
  O  O10  1  0.54080200  0.19779100  0.45956100  1
  O  O11  1  0.57782800  0.21222800  0.76705300  1
  O  O12  1  0.79135900  0.41316800  0.03783300  1
  O  O13  1  0.80414800  0.46139100  0.36329000  1
  O  O14  1  0.79870400  0.42594800  0.70252700  1
  O  O15  1  0.21222800  0.57782800  0.26705300  1
  O  O16  1  0.19270200  0.58483000  0.60956200  1
  O  O17  1  0.19779100  0.54080200  0.95956100  1
  O  O18  1  0.76724800  0.75166600  0.07790100  1
  O  O19  1  0.76964300  0.77494400  0.40736200  1
  O  O20  1  0.77996400  0.77358400  0.73539800  1
  O  O21  1  0.22254400  0.22372100  0.09173300  1
  O  O22  1  0.22385400  0.24254600  0.41878600  1
  O  O23  1  0.22643100  0.24539700  0.75309600  1
  O  O24  1  0.24539700  0.22643100  0.25309600  1
  O  O25  1  0.22372100  0.22254400  0.59173300  1
  O  O26  1  0.24254600  0.22385400  0.91878600  1
  O  O27  1  0.77358400  0.77996400  0.23539800  1
  O  O28  1  0.75166600  0.76724800  0.57790100  1
  O  O29  1  0.77494400  0.76964300  0.90736200  1
loop_
_geom_bond_atom_site_label_1
_geom_bond_atom_site_label_2
_geom_bond_distance
_geom_bond_site_symmetry_2
Ca0 O3 2.163182 1_555
Ca0 O12 2.305662 1_555
Ca0 O26 2.434311 1_564
Ca0 O21 2.539817 1_565
Ca0 O29 2.631559 1_554
Ca0 O18 2.644929 1_555
Ca0 O8 2.690248 1_554
Ca0 O6 2.748440 1_555
Ca1 O4 2.160935 1_555
Ca1 O13 2.388254 1_555
Ca1 O22 2.403560 1_565
Ca1 O7 2.491321 1_555
Ca1 O24 2.522432 1_565
Ca1 O19 2.800659 1_555
Ca2 O5 2.292133 1_555
Ca2 O14 2.329618 1_555
Ca2 O8 2.441634 1_555
Ca2 O23 2.445631 1_565
Ca2 O25 2.486033 1_565
Ca2 O20 2.623199 1_555
Ca2 O28 2.627597 1_555
Ca3 O3 2.150550 1_555
Ca3 O9 2.332312 1_555
Ca3 O27 2.497417 1_455
Ca3 O18 2.498900 1_455
Ca3 O17 2.578518 1_554
Ca3 O15 2.609242 1_555
Ca3 O21 2.685085 1_555
Ca3 O24 2.721880 1_555
Ca4 O4 2.162637 1_555
Ca4 O10 2.408328 1_555
Ca4 O19 2.442997 1_455
Ca4 O28 2.444193 1_455
Ca4 O16 2.479414 1_555
Ca4 O22 2.842510 1_555
Ca4 O25 2.866370 1_555
Ca5 O11 2.301990 1_555
Ca5 O5 2.309678 1_555
Ca5 O29 2.373989 1_455
Ca5 O26 2.534499 1_555
Ca5 O20 2.552844 1_455
Ca5 O17 2.571491 1_555
Ca5 O23 2.631014 1_555
Ca6 O15 2.301990 1_555
Ca6 O0 2.309678 1_555
Ca6 O19 2.373989 1_545
Ca6 O22 2.534499 1_555
Ca6 O27 2.552844 1_545
Ca6 O10 2.571491 1_555
Ca6 O24 2.631014 1_555
Ca7 O1 2.150550 1_555
Ca7 O16 2.332312 1_555
Ca7 O20 2.497417 1_545
Ca7 O28 2.498900 1_545
Ca7 O10 2.578518 1_555
Ca7 O11 2.609242 1_555
Ca7 O25 2.685085 1_555
Ca7 O23 2.721880 1_555
Ca8 O2 2.162637 1_555
Ca8 O17 2.408328 1_555
Ca8 O29 2.442997 1_545
Ca8 O18 2.444193 1_546
Ca8 O9 2.479414 1_556
Ca8 O26 2.842510 1_555
Ca8 O21 2.866370 1_556
Ca9 O0 2.292133 1_555
Ca9 O6 2.329618 1_555
Ca9 O13 2.441634 1_555
Ca9 O24 2.445631 1_655
Ca9 O21 2.486033 1_655
Ca9 O27 2.623199 1_555
Ca9 O18 2.627597 1_555
Ca10 O1 2.163182 1_555
Ca10 O7 2.305662 1_555
Ca10 O22 2.434311 1_655
Ca10 O25 2.539817 1_655
Ca10 O19 2.631559 1_555
Ca10 O28 2.644929 1_555
Ca10 O13 2.690248 1_555
Ca10 O14 2.748440 1_555
Ca11 O2 2.160935 1_555
Ca11 O8 2.388254 1_555
Ca11 O26 2.403560 1_655
Ca11 O12 2.491321 1_556
Ca11 O23 2.522432 1_655
Ca11 O29 2.800659 1_555
Mn0 O27 1.937509 1_555
Mn0 O24 1.940870 1_565
Mn0 O21 1.957413 1_565
Mn0 O18 1.964072 1_555
Mn0 O6 2.006482 1_555
Mn0 O9 2.075614 1_565
Mn1 O10 1.817038 1_555
Mn1 O25 1.917454 1_555
Mn1 O22 1.942369 1_555
Mn1 O28 1.982339 1_545
Mn1 O19 2.041842 1_545
Mn1 O7 2.150030 1_545
Mn2 O8 1.823964 1_555
Mn2 O20 1.931299 1_555
Mn2 O29 1.935874 1_555
Mn2 O26 2.010705 1_565
Mn2 O23 2.035823 1_565
Mn2 O11 2.091458 1_565
Mn3 O13 1.823964 1_555
Mn3 O27 1.931299 1_555
Mn3 O19 1.935874 1_555
Mn3 O22 2.010705 1_655
Mn3 O24 2.035823 1_655
Mn3 O15 2.091458 1_655
Mn4 O20 1.937509 1_555
Mn4 O23 1.940870 1_655
Mn4 O25 1.957413 1_655
Mn4 O28 1.964072 1_555
Mn4 O14 2.006482 1_555
Mn4 O16 2.075614 1_655
Mn5 O17 1.817038 1_555
Mn5 O21 1.917454 1_556
Mn5 O26 1.942369 1_555
Mn5 O18 1.982339 1_456
Mn5 O29 2.041842 1_455
Mn5 O12 2.150030 1_456
Al0 O3 1.723145 1_645
Al0 O12 1.796070 1_555
Al0 O0 1.821233 1_555
Al0 O9 1.832840 1_555
Al1 O2 1.736406 1_555
Al1 O11 1.789194 1_555
Al1 O5 1.826883 1_645
Al1 O14 1.828452 1_555
Al2 O4 1.736406 1_555
Al2 O15 1.789194 1_555
Al2 O0 1.826883 1_465
Al2 O6 1.828452 1_555
Al3 O1 1.723145 1_465
Al3 O7 1.796070 1_555
Al3 O5 1.821233 1_555
Al3 O16 1.832840 1_555
