# generated using pymatgen
data_SrCaI4
_symmetry_space_group_name_H-M   'P 1'
_cell_length_a   7.63567572
_cell_length_b   7.63567572
_cell_length_c   4.78773100
_cell_angle_alpha   90.00000000
_cell_angle_beta   90.00000000
_cell_angle_gamma   90.02016247
_symmetry_Int_Tables_number   1
_chemical_formula_structural   SrCaI4
_chemical_formula_sum   'Sr1 Ca1 I4'
_cell_volume   279.14166662
_cell_formula_units_Z   1
loop_
 _symmetry_equiv_pos_site_id
 _symmetry_equiv_pos_as_xyz
  1  'x, y, z'
loop_
 _atom_site_type_symbol
 _atom_site_label
 _atom_site_symmetry_multiplicity
 _atom_site_fract_x
 _atom_site_fract_y
 _atom_site_fract_z
 _atom_site_occupancy
  Sr  Sr0  1  0.00000000  0.00000000  0.00000000  1
  Ca  Ca0  1  0.50000000  0.50000000  0.50000000  1
  I  I0  1  0.20730100  0.20730100  0.50000000  1
  I  I1  1  0.69224200  0.30775800  0.00000000  1
  I  I2  1  0.30775800  0.69224200  0.00000000  1
  I  I3  1  0.79269900  0.79269900  0.50000000  1
loop_
_geom_bond_atom_site_label_1
_geom_bond_atom_site_label_2
_geom_bond_distance
_geom_bond_site_symmetry_2
Ca0 I3 3.160147 1_555
Ca0 I0 3.160147 1_555
Ca0 I2 3.168841 1_555
Ca0 I1 3.168841 1_556
Ca0 I1 3.168841 1_555
Ca0 I2 3.168841 1_556
I0 Sr0 3.277174 1_555
I0 Sr0 3.277174 1_556
I1 Sr0 3.323902 1_655
I2 Sr0 3.323902 1_565
I3 Sr0 3.277174 1_665
I3 Sr0 3.277174 1_666
