# generated using pymatgen
data_SrGaH5
_symmetry_space_group_name_H-M   'P 1'
_cell_length_a   4.72349000
_cell_length_b   8.70621100
_cell_length_c   8.86815200
_cell_angle_alpha   90.00000000
_cell_angle_beta   90.00000000
_cell_angle_gamma   90.00000000
_symmetry_Int_Tables_number   1
_chemical_formula_structural   SrGaH5
_chemical_formula_sum   'Sr4 Ga4 H20'
_cell_volume   364.69122769
_cell_formula_units_Z   4
loop_
 _symmetry_equiv_pos_site_id
 _symmetry_equiv_pos_as_xyz
  1  'x, y, z'
loop_
 _atom_site_type_symbol
 _atom_site_label
 _atom_site_symmetry_multiplicity
 _atom_site_fract_x
 _atom_site_fract_y
 _atom_site_fract_z
 _atom_site_occupancy
  Sr  Sr0  1  0.75000000  0.49376600  0.31830400  1
  Sr  Sr1  1  0.25000000  0.50623400  0.68169600  1
  Sr  Sr2  1  0.25000000  0.00623400  0.81830400  1
  Sr  Sr3  1  0.75000000  0.99376600  0.18169600  1
  Ga  Ga0  1  0.75000000  0.33347600  0.91537600  1
  Ga  Ga1  1  0.25000000  0.66652400  0.08462400  1
  Ga  Ga2  1  0.25000000  0.16652400  0.41537600  1
  Ga  Ga3  1  0.75000000  0.83347600  0.58462400  1
  H  H0  1  0.02493600  0.77384100  0.67080200  1
  H  H1  1  0.52493600  0.22615900  0.32919800  1
  H  H2  1  0.52493600  0.72615900  0.17080200  1
  H  H3  1  0.02493600  0.27384100  0.82919800  1
  H  H4  1  0.75000000  0.51636300  0.90197100  1
  H  H5  1  0.25000000  0.48363700  0.09802900  1
  H  H6  1  0.25000000  0.98363700  0.40197100  1
  H  H7  1  0.75000000  0.01636300  0.59802900  1
  H  H8  1  0.75000000  0.48151900  0.58726000  1
  H  H9  1  0.25000000  0.51848100  0.41274000  1
  H  H10  1  0.25000000  0.01848100  0.08726000  1
  H  H11  1  0.75000000  0.98151900  0.91274000  1
  H  H12  1  0.97506400  0.72615900  0.17080200  1
  H  H13  1  0.47506400  0.27384100  0.82919800  1
  H  H14  1  0.47506400  0.77384100  0.67080200  1
  H  H15  1  0.97506400  0.22615900  0.32919800  1
  H  H16  1  0.75000000  0.28272400  0.08891500  1
  H  H17  1  0.25000000  0.71727600  0.91108500  1
  H  H18  1  0.25000000  0.21727600  0.58891500  1
  H  H19  1  0.75000000  0.78272400  0.41108500  1
loop_
_geom_bond_atom_site_label_1
_geom_bond_atom_site_label_2
_geom_bond_distance
_geom_bond_site_symmetry_2
Ga0 H3 1.593781 1_655
Ga0 H13 1.593781 1_555
Ga0 H4 1.596684 1_555
Ga0 H16 1.601146 1_556
Ga1 H2 1.593781 1_555
Ga1 H12 1.593781 1_455
Ga1 H5 1.596684 1_555
Ga1 H17 1.601146 1_554
Ga2 H1 1.593781 1_555
Ga2 H15 1.593781 1_455
Ga2 H6 1.596684 1_545
Ga2 H18 1.601146 1_555
Ga3 H0 1.593781 1_655
Ga3 H14 1.593781 1_555
Ga3 H7 1.596684 1_565
Ga3 H19 1.601146 1_555
H0 Sr1 2.562744 1_555
H0 Sr2 2.633400 1_565
H1 Sr0 2.562744 1_555
H1 Sr3 2.633400 1_545
H2 Sr3 2.562744 1_555
H2 Sr0 2.633400 1_555
H3 Sr2 2.562744 1_555
H3 Sr1 2.633400 1_555
H8 Sr0 2.387525 1_555
H8 Sr1 2.515055 1_655
H8 Sr1 2.515055 1_555
H9 Sr1 2.387525 1_555
H9 Sr0 2.515055 1_555
H9 Sr0 2.515055 1_455
H10 Sr2 2.387525 1_554
H10 Sr3 2.515055 1_445
H10 Sr3 2.515055 1_545
H11 Sr3 2.387525 1_556
H11 Sr2 2.515055 1_665
H11 Sr2 2.515055 1_565
H12 Sr3 2.562744 1_555
H12 Sr0 2.633400 1_555
H13 Sr2 2.562744 1_555
H13 Sr1 2.633400 1_555
H14 Sr1 2.562744 1_555
H14 Sr2 2.633400 1_565
H15 Sr0 2.562744 1_555
H15 Sr3 2.633400 1_545
H16 Sr3 2.646864 1_545
H16 Sr0 2.741195 1_555
H17 Sr2 2.646864 1_565
H17 Sr1 2.741195 1_555
H18 Sr1 2.646864 1_555
H18 Sr2 2.741195 1_555
H19 Sr0 2.646864 1_555
H19 Sr3 2.741195 1_555
