# generated using pymatgen
data_Ca8Mn6Al2O21
_symmetry_space_group_name_H-M   'P 1'
_cell_length_a   7.73650500
_cell_length_b   7.73650500
_cell_length_c   7.44200200
_cell_angle_alpha   90.00000000
_cell_angle_beta   90.00000000
_cell_angle_gamma   90.00000000
_symmetry_Int_Tables_number   1
_chemical_formula_structural   Ca8Mn6Al2O21
_chemical_formula_sum   'Ca8 Mn6 Al2 O21'
_cell_volume   445.42993826
_cell_formula_units_Z   1
loop_
 _symmetry_equiv_pos_site_id
 _symmetry_equiv_pos_as_xyz
  1  'x, y, z'
loop_
 _atom_site_type_symbol
 _atom_site_label
 _atom_site_symmetry_multiplicity
 _atom_site_fract_x
 _atom_site_fract_y
 _atom_site_fract_z
 _atom_site_occupancy
  Ca  Ca0  1  0.26232900  0.26232900  0.25000000  1
  Ca  Ca1  1  0.25163600  0.25163600  0.75000000  1
  Ca  Ca2  1  0.26232900  0.73767100  0.25000000  1
  Ca  Ca3  1  0.25163600  0.74836400  0.75000000  1
  Ca  Ca4  1  0.73767100  0.26232900  0.25000000  1
  Ca  Ca5  1  0.74836400  0.25163600  0.75000000  1
  Ca  Ca6  1  0.73767100  0.73767100  0.25000000  1
  Ca  Ca7  1  0.74836400  0.74836400  0.75000000  1
  Mn  Mn0  1  0.00000000  0.50000000  0.99724400  1
  Mn  Mn1  1  0.00000000  0.50000000  0.50275600  1
  Mn  Mn2  1  0.50000000  0.00000000  0.99724400  1
  Mn  Mn3  1  0.50000000  0.00000000  0.50275600  1
  Mn  Mn4  1  0.50000000  0.50000000  0.99845700  1
  Mn  Mn5  1  0.50000000  0.50000000  0.50154300  1
  Al  Al0  1  0.00000000  0.00000000  0.00357800  1
  Al  Al1  1  0.00000000  0.00000000  0.49642200  1
  O  O0  1  0.00000000  0.50000000  0.25000000  1
  O  O1  1  0.00000000  0.50000000  0.75000000  1
  O  O2  1  0.50000000  0.00000000  0.25000000  1
  O  O3  1  0.50000000  0.00000000  0.75000000  1
  O  O4  1  0.50000000  0.50000000  0.25000000  1
  O  O5  1  0.23479900  0.00000000  0.00008800  1
  O  O6  1  0.23479900  0.00000000  0.49991200  1
  O  O7  1  0.25557500  0.50000000  0.97742800  1
  O  O8  1  0.25557500  0.50000000  0.52257200  1
  O  O9  1  0.76520100  0.00000000  0.00008800  1
  O  O10  1  0.76520100  0.00000000  0.49991200  1
  O  O11  1  0.74442500  0.50000000  0.97742800  1
  O  O12  1  0.74442500  0.50000000  0.52257200  1
  O  O13  1  0.00000000  0.23479900  0.00008800  1
  O  O14  1  0.00000000  0.23479900  0.49991200  1
  O  O15  1  0.00000000  0.76520100  0.00008800  1
  O  O16  1  0.00000000  0.76520100  0.49991200  1
  O  O17  1  0.50000000  0.25557500  0.97742800  1
  O  O18  1  0.50000000  0.25557500  0.52257200  1
  O  O19  1  0.50000000  0.74442500  0.97742800  1
  O  O20  1  0.50000000  0.74442500  0.52257200  1
loop_
_geom_bond_atom_site_label_1
_geom_bond_atom_site_label_2
_geom_bond_distance
_geom_bond_site_symmetry_2
Ca0 O4 2.600375 1_555
Ca0 O18 2.738328 1_555
Ca0 O8 2.738328 1_555
Ca0 O7 2.738328 1_554
Ca0 O17 2.738328 1_554
Ca0 O2 2.738592 1_555
Ca0 O0 2.738592 1_555
Ca0 O5 2.761032 1_555
Ca0 O13 2.761032 1_555
Ca0 O14 2.761032 1_555
Ca0 O6 2.761032 1_555
Ca1 O8 2.560780 1_555
Ca1 O18 2.560780 1_555
Ca1 O7 2.560780 1_555
Ca1 O17 2.560780 1_555
Ca1 O14 2.696448 1_555
Ca1 O6 2.696448 1_555
Ca1 O5 2.696448 1_556
Ca1 O13 2.696448 1_556
Ca1 O3 2.735326 1_555
Ca1 O1 2.735326 1_555
Ca2 O4 2.600375 1_555
Ca2 O7 2.738328 1_554
Ca2 O8 2.738328 1_555
Ca2 O19 2.738328 1_554
Ca2 O20 2.738328 1_555
Ca2 O0 2.738592 1_555
Ca2 O2 2.738592 1_565
Ca2 O5 2.761032 1_565
Ca2 O15 2.761032 1_555
Ca2 O6 2.761032 1_565
Ca2 O16 2.761032 1_555
Ca3 O8 2.560780 1_555
Ca3 O7 2.560780 1_555
Ca3 O19 2.560780 1_555
Ca3 O20 2.560780 1_555
Ca3 O6 2.696448 1_565
Ca3 O5 2.696448 1_566
Ca3 O16 2.696448 1_555
Ca3 O15 2.696448 1_556
Ca3 O3 2.735326 1_565
Ca3 O1 2.735326 1_555
Ca4 O4 2.600375 1_555
Ca4 O18 2.738328 1_555
Ca4 O12 2.738328 1_555
Ca4 O17 2.738328 1_554
Ca4 O11 2.738328 1_554
Ca4 O2 2.738592 1_555
Ca4 O0 2.738592 1_655
Ca4 O9 2.761032 1_555
Ca4 O10 2.761032 1_555
Ca4 O13 2.761032 1_655
Ca4 O14 2.761032 1_655
Ca5 O11 2.560780 1_555
Ca5 O18 2.560780 1_555
Ca5 O12 2.560780 1_555
Ca5 O17 2.560780 1_555
Ca5 O14 2.696448 1_655
Ca5 O10 2.696448 1_555
Ca5 O13 2.696448 1_656
Ca5 O9 2.696448 1_556
Ca5 O1 2.735326 1_655
Ca5 O3 2.735326 1_555
Ca6 O4 2.600375 1_555
Ca6 O12 2.738328 1_555
Ca6 O19 2.738328 1_554
Ca6 O11 2.738328 1_554
Ca6 O20 2.738328 1_555
Ca6 O2 2.738592 1_565
Ca6 O0 2.738592 1_655
Ca6 O15 2.761032 1_655
Ca6 O9 2.761032 1_565
Ca6 O10 2.761032 1_565
Ca6 O16 2.761032 1_655
Ca7 O11 2.560780 1_555
Ca7 O12 2.560780 1_555
Ca7 O19 2.560780 1_555
Ca7 O20 2.560780 1_555
Ca7 O10 2.696448 1_565
Ca7 O16 2.696448 1_655
Ca7 O9 2.696448 1_566
Ca7 O15 2.696448 1_656
Ca7 O3 2.735326 1_565
Ca7 O1 2.735326 1_655
Mn0 O1 1.839990 1_555
Mn0 O0 1.881011 1_556
Mn0 O7 1.982749 1_555
Mn0 O11 1.982749 1_455
Mn0 O13 2.051838 1_556
Mn0 O15 2.051838 1_556
Mn1 O1 1.839990 1_555
Mn1 O0 1.881011 1_555
Mn1 O12 1.982749 1_455
Mn1 O8 1.982749 1_555
Mn1 O16 2.051838 1_555
Mn1 O14 2.051838 1_555
Mn2 O3 1.839990 1_555
Mn2 O2 1.881011 1_556
Mn2 O17 1.982749 1_555
Mn2 O19 1.982749 1_545
Mn2 O5 2.051838 1_556
Mn2 O9 2.051838 1_556
Mn3 O3 1.839990 1_555
Mn3 O2 1.881011 1_555
Mn3 O18 1.982749 1_555
Mn3 O20 1.982749 1_545
Mn3 O6 2.051838 1_555
Mn3 O10 2.051838 1_555
Mn4 O4 1.871984 1_556
Mn4 O11 1.897460 1_555
Mn4 O17 1.897460 1_555
Mn4 O7 1.897460 1_555
Mn4 O19 1.897460 1_555
Mn5 O4 1.871984 1_555
Mn5 O20 1.897460 1_555
Mn5 O18 1.897460 1_555
Mn5 O8 1.897460 1_555
Mn5 O12 1.897460 1_555
Al0 O15 1.816709 1_545
Al0 O9 1.816709 1_455
Al0 O13 1.816709 1_555
Al0 O5 1.816709 1_555
Al1 O10 1.816709 1_455
Al1 O16 1.816709 1_545
Al1 O14 1.816709 1_555
Al1 O6 1.816709 1_555
