# generated using pymatgen
data_TbHoFe4
_symmetry_space_group_name_H-M   'P 1'
_cell_length_a   5.16591525
_cell_length_b   5.16672073
_cell_length_c   5.16675917
_cell_angle_alpha   89.99735203
_cell_angle_beta   59.99913032
_cell_angle_gamma   120.00095566
_symmetry_Int_Tables_number   1
_chemical_formula_structural   TbHoFe4
_chemical_formula_sum   'Tb1 Ho1 Fe4'
_cell_volume   97.50872241
_cell_formula_units_Z   1
loop_
 _symmetry_equiv_pos_site_id
 _symmetry_equiv_pos_as_xyz
  1  'x, y, z'
loop_
 _atom_site_type_symbol
 _atom_site_label
 _atom_site_symmetry_multiplicity
 _atom_site_fract_x
 _atom_site_fract_y
 _atom_site_fract_z
 _atom_site_occupancy
  Tb  Tb0  1  -0.00000339  0.00001148  0.00001845  1
  Ho  Ho0  1  0.50000369  0.74998629  0.74997953  1
  Fe  Fe0  1  0.75007781  0.37503599  0.87489458  1
  Fe  Fe1  1  0.24992925  0.37503602  0.37503628  1
  Fe  Fe2  1  0.24992165  0.87489454  0.37503678  1
  Fe  Fe3  1  0.75007099  0.37503668  0.37503639  1
loop_
_geom_bond_atom_site_label_1
_geom_bond_atom_site_label_2
_geom_bond_distance
_geom_bond_site_symmetry_2
Ho0 Tb0 3.163687 1_665
Ho0 Tb0 3.163718 1_556
Ho0 Tb0 3.163790 1_566
Ho0 Tb0 3.163794 1_666
Fe0 Fe1 2.582385 1_655
Fe0 Fe2 2.582447 1_655
Fe0 Fe3 2.582665 1_555
Fe0 Fe1 2.583885 1_556
Fe0 Fe2 2.583912 1_546
Fe0 Fe3 2.584095 1_556
Fe0 Ho0 3.028536 1_655
Fe0 Tb0 3.028760 1_556
Fe0 Ho0 3.029006 1_555
Fe0 Tb0 3.029109 1_656
Fe0 Ho0 3.029308 1_545
Fe0 Tb0 3.029441 1_666
Fe1 Fe3 2.582227 1_455
Fe1 Fe2 2.582649 1_555
Fe1 Fe3 2.583688 1_555
Fe1 Fe2 2.584072 1_545
Fe1 Ho0 3.028759 1_445
Fe1 Tb0 3.028908 1_665
Fe1 Ho0 3.029046 1_555
Fe1 Ho0 3.029216 1_554
Fe1 Tb0 3.029225 1_555
Fe1 Tb0 3.029363 1_556
Fe2 Fe3 2.582370 1_455
Fe2 Fe3 2.583874 1_565
Fe2 Ho0 3.028521 1_455
Fe2 Tb0 3.028752 1_665
Fe2 Ho0 3.029002 1_555
Fe2 Tb0 3.029103 1_565
Fe2 Ho0 3.029347 1_554
Fe2 Tb0 3.029474 1_566
Fe3 Ho0 3.028803 1_654
Fe3 Tb0 3.028950 1_556
Fe3 Ho0 3.029038 1_555
Fe3 Ho0 3.029173 1_545
Fe3 Tb0 3.029224 1_655
Fe3 Tb0 3.029317 1_665
