# generated using pymatgen
data_Al2Si3(NO5)2
_symmetry_space_group_name_H-M   'P 1'
_cell_length_a   13.31929684
_cell_length_b   10.01401289
_cell_length_c   9.95547476
_cell_angle_alpha   83.66863039
_cell_angle_beta   48.35330598
_cell_angle_gamma   47.97806362
_symmetry_Int_Tables_number   1
_chemical_formula_structural   Al2Si3(NO5)2
_chemical_formula_sum   'Al4 Si6 N4 O20'
_cell_volume   588.21166893
_cell_formula_units_Z   2
loop_
 _symmetry_equiv_pos_site_id
 _symmetry_equiv_pos_as_xyz
  1  'x, y, z'
loop_
 _atom_site_type_symbol
 _atom_site_label
 _atom_site_symmetry_multiplicity
 _atom_site_fract_x
 _atom_site_fract_y
 _atom_site_fract_z
 _atom_site_occupancy
  Al  Al0  1  0.93872400  0.75459600  0.63591800  1
  Al  Al1  1  0.67076300  0.63591800  0.75459600  1
  Al  Al2  1  0.61408200  0.57923700  0.31127600  1
  Al  Al3  1  0.49540400  0.31127600  0.57923700  1
  Si  Si0  1  0.19467600  0.30532400  0.30532400  1
  Si  Si1  1  0.94467600  0.05532400  0.05532400  1
  Si  Si2  1  0.17740500  0.75342300  0.62342800  1
  Si  Si3  1  0.44574300  0.62342800  0.75342300  1
  Si  Si4  1  0.62657200  0.80425700  0.07259500  1
  Si  Si5  1  0.49657700  0.07259500  0.80425700  1
  N  N0  1  0.55193700  0.33776200  0.03031600  1
  N  N1  1  0.07998500  0.03031600  0.33776200  1
  N  N2  1  0.21968400  0.17001500  0.69806300  1
  N  N3  1  0.91223800  0.69806300  0.17001500  1
  O  O0  1  0.13449000  0.50023000  0.39958600  1
  O  O1  1  0.96569400  0.39958600  0.50023000  1
  O  O2  1  0.85041400  0.28430600  0.11551000  1
  O  O3  1  0.74977000  0.11551000  0.28430600  1
  O  O4  1  0.04754800  0.81518100  0.59680100  1
  O  O5  1  0.54047000  0.59680100  0.81518100  1
  O  O6  1  0.65319900  0.70953000  0.20245200  1
  O  O7  1  0.43481900  0.20245200  0.70953000  1
  O  O8  1  0.83633700  0.73726000  0.86295400  1
  O  O9  1  0.56344900  0.86295400  0.73726000  1
  O  O10  1  0.38704600  0.68655100  0.41366300  1
  O  O11  1  0.51274000  0.41366300  0.68655100  1
  O  O12  1  0.29058200  0.53306400  0.62235700  1
  O  O13  1  0.55399700  0.62235700  0.53306400  1
  O  O14  1  0.62764300  0.69600300  0.95941800  1
  O  O15  1  0.71693600  0.95941800  0.69600300  1
  O  O16  1  0.99889400  0.96960800  0.86139200  1
  O  O17  1  0.17010600  0.86139200  0.96960800  1
  O  O18  1  0.38860800  0.07989400  0.25110600  1
  O  O19  1  0.28039200  0.25110600  0.07989400  1
loop_
_geom_bond_atom_site_label_1
_geom_bond_atom_site_label_2
_geom_bond_distance
_geom_bond_site_symmetry_2
Al0 O4 1.730809 1_655
Al0 O0 1.760349 1_655
Al0 O15 1.761051 1_555
Al0 O8 1.769848 1_555
Al1 O5 1.730821 1_555
Al1 O1 1.760344 1_555
Al1 O14 1.761042 1_555
Al1 O9 1.769849 1_555
Al2 O6 1.730818 1_555
Al2 O2 1.760343 1_555
Al2 O13 1.761052 1_555
Al2 O10 1.769844 1_555
Al3 O7 1.730813 1_555
Al3 O3 1.760344 1_555
Al3 O12 1.761045 1_555
Al3 O11 1.769856 1_555
O0 Si0 1.625463 1_555
O1 Si0 1.625463 1_655
O2 Si1 1.625463 1_555
O3 Si1 1.625463 1_555
O4 Si2 1.607912 1_555
O5 Si3 1.607925 1_555
O6 Si4 1.607916 1_555
O7 Si5 1.607921 1_555
O8 Si4 1.631338 1_556
O9 Si5 1.631346 1_565
O10 Si2 1.631344 1_555
O11 Si3 1.631336 1_555
O12 Si2 1.634690 1_555
O13 Si3 1.634690 1_555
O14 Si4 1.634698 1_556
O15 Si5 1.634686 1_565
O16 Si1 1.633526 1_566
O16 Si2 1.644915 1_655
O17 Si1 1.633526 1_466
O17 Si3 1.644910 1_555
O18 Si0 1.633526 1_555
O18 Si4 1.644910 1_545
O19 Si0 1.633526 1_555
O19 Si5 1.644909 1_554
