# generated using pymatgen
data_GdVB4
_symmetry_space_group_name_H-M   'P 1'
_cell_length_a   3.47279200
_cell_length_b   6.02538100
_cell_length_c   11.66865300
_cell_angle_alpha   90.00000000
_cell_angle_beta   90.00000000
_cell_angle_gamma   90.00000000
_symmetry_Int_Tables_number   1
_chemical_formula_structural   GdVB4
_chemical_formula_sum   'Gd4 V4 B16'
_cell_volume   244.16533804
_cell_formula_units_Z   4
loop_
 _symmetry_equiv_pos_site_id
 _symmetry_equiv_pos_as_xyz
  1  'x, y, z'
loop_
 _atom_site_type_symbol
 _atom_site_label
 _atom_site_symmetry_multiplicity
 _atom_site_fract_x
 _atom_site_fract_y
 _atom_site_fract_z
 _atom_site_occupancy
  Gd  Gd0  1  0.00000000  0.62433700  0.34846800  1
  Gd  Gd1  1  0.00000000  0.37566300  0.65153200  1
  Gd  Gd2  1  0.00000000  0.12433700  0.15153200  1
  Gd  Gd3  1  0.00000000  0.87566300  0.84846800  1
  V  V0  1  0.00000000  0.62668600  0.08245400  1
  V  V1  1  0.00000000  0.37331400  0.91754600  1
  V  V2  1  0.00000000  0.12668600  0.41754600  1
  V  V3  1  0.00000000  0.87331400  0.58245400  1
  B  B0  1  0.50000000  0.78543400  0.18518200  1
  B  B1  1  0.50000000  0.21456600  0.81481800  1
  B  B2  1  0.50000000  0.28543400  0.31481800  1
  B  B3  1  0.50000000  0.71456600  0.68518200  1
  B  B4  1  0.50000000  0.86332500  0.03269300  1
  B  B5  1  0.50000000  0.13667500  0.96730700  1
  B  B6  1  0.50000000  0.36332500  0.46730700  1
  B  B7  1  0.50000000  0.63667500  0.53269300  1
  B  B8  1  0.50000000  0.88616600  0.45280300  1
  B  B9  1  0.50000000  0.11383400  0.54719700  1
  B  B10  1  0.50000000  0.38616600  0.04719700  1
  B  B11  1  0.50000000  0.61383400  0.95280300  1
  B  B12  1  0.50000000  0.97771700  0.30828100  1
  B  B13  1  0.50000000  0.02228300  0.69171900  1
  B  B14  1  0.50000000  0.47771700  0.19171900  1
  B  B15  1  0.50000000  0.52228300  0.80828100  1
loop_
_geom_bond_atom_site_label_1
_geom_bond_atom_site_label_2
_geom_bond_distance
_geom_bond_site_symmetry_2
B0 B4 1.840195 1_555
B0 B12 1.845413 1_555
B0 B14 1.855681 1_555
B0 V0 2.316651 1_555
B0 V0 2.316651 1_655
B0 Gd2 2.709075 1_565
B0 Gd2 2.709075 1_665
B0 Gd0 2.754550 1_655
B0 Gd0 2.754550 1_555
B1 B5 1.840195 1_555
B1 B13 1.845413 1_555
B1 B15 1.855681 1_555
B1 V1 2.316651 1_555
B1 V1 2.316651 1_655
B1 Gd3 2.709075 1_645
B1 Gd3 2.709075 1_545
B1 Gd1 2.754550 1_655
B1 Gd1 2.754550 1_555
B2 B6 1.840195 1_555
B2 V2 2.316651 1_555
B2 V2 2.316651 1_655
B2 Gd0 2.709075 1_555
B2 Gd0 2.709075 1_655
B2 Gd2 2.754550 1_555
B2 Gd2 2.754550 1_655
B3 B7 1.840195 1_555
B3 V3 2.316651 1_655
B3 V3 2.316651 1_555
B3 Gd1 2.709075 1_655
B3 Gd1 2.709075 1_555
B3 Gd3 2.754550 1_655
B3 Gd3 2.754550 1_555
B4 B5 1.815173 1_564
B4 V0 2.320612 1_655
B4 V0 2.320612 1_555
B4 Gd2 2.722381 1_665
B4 Gd2 2.722381 1_565
B4 Gd3 2.764349 1_554
B4 Gd3 2.764349 1_654
B5 V1 2.320612 1_655
B5 V1 2.320612 1_555
B5 Gd3 2.722381 1_545
B5 Gd3 2.722381 1_645
B5 Gd2 2.764349 1_656
B5 Gd2 2.764349 1_556
B6 B9 1.768858 1_555
B6 B7 1.815173 1_555
B6 V2 2.320612 1_555
B6 V2 2.320612 1_655
B6 Gd0 2.722381 1_655
B6 Gd0 2.722381 1_555
B6 Gd1 2.764349 1_655
B6 Gd1 2.764349 1_555
B7 B8 1.768858 1_555
B7 V3 2.320612 1_555
B7 V3 2.320612 1_655
B7 Gd1 2.722381 1_655
B7 Gd1 2.722381 1_555
B7 Gd0 2.764349 1_655
B7 Gd0 2.764349 1_555
B8 B9 1.759259 1_565
B8 V2 2.298820 1_565
B8 V2 2.298820 1_665
B8 V3 2.304298 1_555
B8 V3 2.304298 1_655
B8 Gd0 2.643130 1_655
B8 Gd0 2.643130 1_555
B9 V3 2.298820 1_545
B9 V3 2.298820 1_645
B9 V2 2.304298 1_655
B9 V2 2.304298 1_555
B9 Gd1 2.643130 1_655
B9 Gd1 2.643130 1_555
B10 B11 1.759259 1_554
B10 B5 1.768858 1_554
B10 B14 1.774306 1_555
B10 V0 2.298820 1_555
B10 V0 2.298820 1_655
B10 V1 2.304298 1_554
B10 V1 2.304298 1_654
B10 Gd2 2.643130 1_555
B10 Gd2 2.643130 1_655
B11 B4 1.768858 1_556
B11 B15 1.774306 1_555
B11 V1 2.298820 1_655
B11 V1 2.298820 1_555
B11 V0 2.304298 1_556
B11 V0 2.304298 1_656
B11 Gd3 2.643130 1_555
B11 Gd3 2.643130 1_655
B12 B8 1.774306 1_555
B12 B2 1.855681 1_565
B12 V2 2.333733 1_565
B12 V2 2.333733 1_665
B12 Gd2 2.672258 1_665
B12 Gd2 2.672258 1_565
B12 Gd0 2.787233 1_655
B12 Gd0 2.787233 1_555
B13 B9 1.774306 1_555
B13 B3 1.855681 1_545
B13 V3 2.333733 1_645
B13 V3 2.333733 1_545
B13 Gd3 2.672258 1_545
B13 Gd3 2.672258 1_645
B13 Gd1 2.787233 1_655
B13 Gd1 2.787233 1_555
B14 B2 1.845413 1_555
B14 V0 2.333733 1_555
B14 V0 2.333733 1_655
B14 Gd0 2.672258 1_555
B14 Gd0 2.672258 1_655
B14 Gd2 2.787233 1_555
B14 Gd2 2.787233 1_655
B15 B3 1.845413 1_555
B15 V1 2.333733 1_655
B15 V1 2.333733 1_555
B15 Gd1 2.672258 1_655
B15 Gd1 2.672258 1_555
B15 Gd3 2.787233 1_555
B15 Gd3 2.787233 1_655
