# generated using pymatgen
data_MgIn4(Ge2O7)2
_symmetry_space_group_name_H-M   'P 1'
_cell_length_a   7.25260353
_cell_length_b   7.25260353
_cell_length_c   7.26294548
_cell_angle_alpha   59.95281829
_cell_angle_beta   59.95281829
_cell_angle_gamma   59.92582017
_symmetry_Int_Tables_number   1
_chemical_formula_structural   MgIn4(Ge2O7)2
_chemical_formula_sum   'Mg1 In4 Ge4 O14'
_cell_volume   269.79373400
_cell_formula_units_Z   1
loop_
 _symmetry_equiv_pos_site_id
 _symmetry_equiv_pos_as_xyz
  1  'x, y, z'
loop_
 _atom_site_type_symbol
 _atom_site_label
 _atom_site_symmetry_multiplicity
 _atom_site_fract_x
 _atom_site_fract_y
 _atom_site_fract_z
 _atom_site_occupancy
  Mg  Mg0  1  0.12367700  0.12367700  0.12632300  1
  In  In0  1  0.50048200  0.50048200  0.99926100  1
  In  In1  1  0.50089300  0.99921100  0.49994800  1
  In  In2  1  0.99921100  0.50089300  0.49994800  1
  In  In3  1  0.50048200  0.50048200  0.49977400  1
  Ge  Ge0  1  0.98811300  0.98811300  0.53594000  1
  Ge  Ge1  1  0.98869000  0.53431900  0.98849600  1
  Ge  Ge2  1  0.53431900  0.98869000  0.98849600  1
  Ge  Ge3  1  0.98811300  0.98811300  0.98783300  1
  O  O0  1  0.37539000  0.37539000  0.37461000  1
  O  O1  1  0.62445700  0.62445700  0.62554300  1
  O  O2  1  0.32277200  0.92624300  0.92791900  1
  O  O3  1  0.92624300  0.32277200  0.32306600  1
  O  O4  1  0.92624300  0.32277200  0.92791900  1
  O  O5  1  0.32277200  0.92624300  0.32306600  1
  O  O6  1  0.92593700  0.92593700  0.32406300  1
  O  O7  1  0.32203000  0.32203000  0.92797000  1
  O  O8  1  0.67665600  0.07351000  0.07228100  1
  O  O9  1  0.07351000  0.67665600  0.67755300  1
  O  O10  1  0.07351000  0.67665600  0.07228100  1
  O  O11  1  0.67665600  0.07351000  0.67755300  1
  O  O12  1  0.07305700  0.07305700  0.67694300  1
  O  O13  1  0.67715700  0.67715700  0.07284300  1
loop_
_geom_bond_atom_site_label_1
_geom_bond_atom_site_label_2
_geom_bond_distance
_geom_bond_site_symmetry_2
Mg0 O6 2.027855 1_445
Mg0 O3 2.030324 1_455
Mg0 O5 2.030324 1_545
Mg0 O2 2.030324 1_544
Mg0 O4 2.030324 1_454
Mg0 O7 2.034142 1_554
In0 O1 2.215071 1_555
In0 O0 2.224715 1_556
In0 O4 2.557804 1_555
In0 O2 2.557804 1_555
In0 O8 2.563505 1_556
In0 O10 2.563505 1_556
In0 O13 2.566400 1_556
In0 O7 2.576669 1_555
In1 O1 2.217442 1_555
In1 O0 2.225850 1_565
In1 O6 2.551774 1_555
In1 O12 2.568440 1_565
In1 O11 2.571085 1_565
In1 O8 2.571085 1_565
In1 O2 2.574359 1_555
In1 O5 2.574359 1_555
In2 O1 2.217442 1_555
In2 O0 2.225850 1_655
In2 O6 2.551774 1_555
In2 O12 2.568440 1_655
In2 O9 2.571085 1_655
In2 O10 2.571085 1_655
In2 O4 2.574359 1_555
In2 O3 2.574359 1_555
In3 O1 2.215077 1_555
In3 O0 2.224709 1_555
In3 O3 2.557803 1_555
In3 O5 2.557803 1_555
In3 O9 2.563506 1_555
In3 O11 2.563506 1_555
In3 O13 2.566395 1_555
In3 O7 2.576674 1_555
Ge0 O12 1.857917 1_665
Ge0 O9 1.858253 1_655
Ge0 O11 1.858253 1_565
Ge0 O5 2.080398 1_655
Ge0 O3 2.080398 1_565
Ge0 O6 2.090068 1_555
Ge1 O10 1.858719 1_656
Ge1 O9 1.858724 1_655
Ge1 O13 1.859302 1_556
Ge1 O7 2.071572 1_655
Ge1 O3 2.079571 1_556
Ge1 O4 2.079576 1_555
Ge2 O8 1.858719 1_566
Ge2 O11 1.858724 1_565
Ge2 O13 1.859302 1_556
Ge2 O7 2.071572 1_565
Ge2 O5 2.079571 1_556
Ge2 O2 2.079576 1_555
Ge3 O12 1.857910 1_665
Ge3 O8 1.858253 1_566
Ge3 O10 1.858253 1_656
Ge3 O4 2.080400 1_565
Ge3 O2 2.080400 1_655
Ge3 O6 2.090075 1_556
