# generated using pymatgen
data_LuHO2
_symmetry_space_group_name_H-M   'P 1'
_cell_length_a   5.31899511
_cell_length_b   5.78755976
_cell_length_c   5.78670510
_cell_angle_alpha   71.21283989
_cell_angle_beta   90.00000000
_cell_angle_gamma   90.00000000
_symmetry_Int_Tables_number   1
_chemical_formula_structural   LuHO2
_chemical_formula_sum   'Lu4 H4 O8'
_cell_volume   168.64701154
_cell_formula_units_Z   4
loop_
 _symmetry_equiv_pos_site_id
 _symmetry_equiv_pos_as_xyz
  1  'x, y, z'
loop_
 _atom_site_type_symbol
 _atom_site_label
 _atom_site_symmetry_multiplicity
 _atom_site_fract_x
 _atom_site_fract_y
 _atom_site_fract_z
 _atom_site_occupancy
  Lu  Lu0  1  0.48574381  0.23345711  0.25292353  1
  Lu  Lu1  1  0.01425619  0.23345711  0.75292353  1
  Lu  Lu2  1  0.98574381  0.76654289  0.24707647  1
  Lu  Lu3  1  0.51425619  0.76654289  0.74707647  1
  H  H0  1  0.97159922  0.28123547  0.26764590  1
  H  H1  1  0.47159922  0.71876453  0.23235410  1
  H  H2  1  0.52840078  0.28123547  0.76764590  1
  H  H3  1  0.02840078  0.71876453  0.73235410  1
  O  O0  1  0.14079982  0.13151319  0.12459983  1
  O  O1  1  0.35920018  0.13151319  0.62459983  1
  O  O2  1  0.86477098  0.36839564  0.35745437  1
  O  O3  1  0.36477098  0.63160436  0.14254563  1
  O  O4  1  0.63522902  0.36839564  0.85745437  1
  O  O5  1  0.13522902  0.63160436  0.64254563  1
  O  O6  1  0.64079982  0.86848681  0.37540017  1
  O  O7  1  0.85920018  0.86848681  0.87540017  1
loop_
_geom_bond_atom_site_label_1
_geom_bond_atom_site_label_2
_geom_bond_distance
_geom_bond_site_symmetry_2
Lu0 O0 2.132615 1_555
Lu0 O1 2.147011 1_555
Lu0 O6 2.163331 1_545
Lu0 O3 2.276796 1_555
Lu0 O4 2.308250 1_554
Lu0 O2 2.311818 1_555
Lu1 O1 2.132615 1_555
Lu1 O0 2.147011 1_556
Lu1 O7 2.163331 1_445
Lu1 O5 2.276796 1_555
Lu1 O2 2.308250 1_455
Lu1 O4 2.311818 1_455
Lu2 O6 2.132615 1_555
Lu2 O7 2.147011 1_554
Lu2 O0 2.163331 1_665
Lu2 O2 2.276796 1_555
Lu2 O5 2.308250 1_655
Lu2 O3 2.311818 1_655
Lu3 O7 2.132615 1_555
Lu3 O6 2.147011 1_555
Lu3 O1 2.163331 1_565
Lu3 O4 2.276796 1_555
Lu3 O3 2.308250 1_556
Lu3 O5 2.311818 1_555
H0 O2 1.008106 1_555
H0 O0 1.645609 1_655
H1 O3 1.008106 1_555
H1 O6 1.645609 1_555
H2 O4 1.008106 1_555
H2 O1 1.645609 1_555
H3 O5 1.008106 1_555
H3 O7 1.645609 1_455
