# generated using pymatgen
data_Sb8Cl2O15
_symmetry_space_group_name_H-M   'P 1'
_cell_length_a   8.75751134
_cell_length_b   8.75751134
_cell_length_c   8.25969749
_cell_angle_alpha   76.57434958
_cell_angle_beta   76.57434958
_cell_angle_gamma   115.03629157
_symmetry_Int_Tables_number   1
_chemical_formula_structural   Sb8Cl2O15
_chemical_formula_sum   'Sb8 Cl2 O15'
_cell_volume   517.53402909
_cell_formula_units_Z   1
loop_
 _symmetry_equiv_pos_site_id
 _symmetry_equiv_pos_as_xyz
  1  'x, y, z'
loop_
 _atom_site_type_symbol
 _atom_site_label
 _atom_site_symmetry_multiplicity
 _atom_site_fract_x
 _atom_site_fract_y
 _atom_site_fract_z
 _atom_site_occupancy
  Sb  Sb0  1  0.90330200  0.53785600  0.88781800  1
  Sb  Sb1  1  0.97421800  0.68477600  0.31747100  1
  Sb  Sb2  1  0.62533800  0.95281000  0.37969200  1
  Sb  Sb3  1  0.62253000  0.93781100  0.84366400  1
  Sb  Sb4  1  0.46214400  0.09669800  0.11218200  1
  Sb  Sb5  1  0.31522400  0.02578200  0.68252900  1
  Sb  Sb6  1  0.04719000  0.37466200  0.62030800  1
  Sb  Sb7  1  0.06218900  0.37747000  0.15633600  1
  Cl  Cl0  1  0.99342000  0.00658000  0.50000000  1
  Cl  Cl1  1  0.01376400  0.98623600  0.00000000  1
  O  O0  1  0.13077500  0.77083500  0.76570200  1
  O  O1  1  0.22916500  0.86922500  0.23429800  1
  O  O2  1  0.79630000  0.18935900  0.69695000  1
  O  O3  1  0.81064100  0.20370000  0.30305000  1
  O  O4  1  0.00346800  0.37769600  0.90831700  1
  O  O5  1  0.06812600  0.50005000  0.35607400  1
  O  O6  1  0.44563400  0.04697700  0.88720300  1
  O  O7  1  0.46098500  0.06747200  0.35876300  1
  O  O8  1  0.49995000  0.93187400  0.64392600  1
  O  O9  1  0.62230400  0.99653200  0.09168300  1
  O  O10  1  0.93252800  0.53901500  0.64123700  1
  O  O11  1  0.95302300  0.55436600  0.11279700  1
  O  O12  1  0.46375700  0.53624300  0.50000000  1
  O  O13  1  0.54820400  0.45179600  0.50000000  1
  O  O14  1  0.62582100  0.37417900  0.00000000  1
loop_
_geom_bond_atom_site_label_1
_geom_bond_atom_site_label_2
_geom_bond_distance
_geom_bond_site_symmetry_2
Cl1 Sb1 3.091196 1_455
Cl1 Sb5 3.091196 1_564
O0 Sb5 1.945785 1_565
O0 Sb0 1.954447 1_455
O1 Sb1 1.945785 1_455
O1 Sb4 1.954447 1_565
O2 Sb3 1.924536 1_545
O2 Sb6 1.928990 1_655
O3 Sb7 1.924536 1_655
O3 Sb2 1.928990 1_545
O4 Sb0 1.940492 1_455
O4 Sb7 2.224689 1_556
O4 Sb6 2.328372 1_555
O5 Sb1 2.098424 1_455
O5 Sb6 2.129220 1_555
O5 Sb7 2.166069 1_555
O6 Sb4 2.027523 1_556
O6 Sb3 2.144226 1_545
O6 Sb5 2.249348 1_555
O7 Sb4 1.989932 1_555
O7 Sb2 2.089994 1_545
O7 Sb5 2.545806 1_555
O8 Sb5 2.098424 1_565
O8 Sb2 2.129220 1_555
O8 Sb3 2.166069 1_555
O9 Sb4 1.940492 1_565
O9 Sb3 2.224689 1_554
O9 Sb2 2.328372 1_555
O10 Sb0 1.989932 1_555
O10 Sb6 2.089994 1_655
O10 Sb1 2.545806 1_555
O11 Sb0 2.027523 1_554
O11 Sb7 2.144226 1_655
O11 Sb1 2.249348 1_555
O12 O13 1.247704 1_555
O14 Sb4 2.051296 1_555
O14 Sb0 2.051296 1_554
