# generated using pymatgen
data_KMg6C
_symmetry_space_group_name_H-M   'P 1'
_cell_length_a   6.51713000
_cell_length_b   16.49895000
_cell_length_c   28.62536400
_cell_angle_alpha   90.00000000
_cell_angle_beta   90.00000000
_cell_angle_gamma   90.00000000
_symmetry_Int_Tables_number   1
_chemical_formula_structural   KMg6C
_chemical_formula_sum   'K16 Mg96 C16'
_cell_volume   3077.96522203
_cell_formula_units_Z   16
loop_
 _symmetry_equiv_pos_site_id
 _symmetry_equiv_pos_as_xyz
  1  'x, y, z'
loop_
 _atom_site_type_symbol
 _atom_site_label
 _atom_site_symmetry_multiplicity
 _atom_site_fract_x
 _atom_site_fract_y
 _atom_site_fract_z
 _atom_site_occupancy
  K  K0_0  1  0.00000000  0.00000000  0.42146550  1
  K  K0_1  1  0.00000000  0.00000000  0.92146550  1
  K  K0_2  1  0.00000000  0.50000000  0.42146550  1
  K  K0_3  1  0.00000000  0.50000000  0.92146550  1
  K  K0_4  1  0.50000000  0.00000000  0.42146550  1
  K  K0_5  1  0.50000000  0.00000000  0.92146550  1
  K  K0_6  1  0.50000000  0.50000000  0.42146550  1
  K  K0_7  1  0.50000000  0.50000000  0.92146550  1
  K  K1_0  1  0.00000000  0.25000000  0.17146550  1
  K  K1_1  1  0.00000000  0.25000000  0.67146550  1
  K  K1_2  1  0.00000000  0.75000000  0.17146550  1
  K  K1_3  1  0.00000000  0.75000000  0.67146550  1
  K  K1_4  1  0.50000000  0.25000000  0.17146550  1
  K  K1_5  1  0.50000000  0.25000000  0.67146550  1
  K  K1_6  1  0.50000000  0.75000000  0.17146550  1
  K  K1_7  1  0.50000000  0.75000000  0.67146550  1
  Mg  Mg0_0  1  0.00000000  0.41255150  0.31519450  1
  Mg  Mg0_1  1  0.00000000  0.41255150  0.81519450  1
  Mg  Mg0_2  1  0.00000000  0.91255150  0.31519450  1
  Mg  Mg0_3  1  0.00000000  0.91255150  0.81519450  1
  Mg  Mg0_4  1  0.50000000  0.41255150  0.31519450  1
  Mg  Mg0_5  1  0.50000000  0.41255150  0.81519450  1
  Mg  Mg0_6  1  0.50000000  0.91255150  0.31519450  1
  Mg  Mg0_7  1  0.50000000  0.91255150  0.81519450  1
  Mg  Mg1_0  1  0.00000000  0.08744850  0.31519450  1
  Mg  Mg1_1  1  0.00000000  0.08744850  0.81519450  1
  Mg  Mg1_2  1  0.00000000  0.58744850  0.31519450  1
  Mg  Mg1_3  1  0.00000000  0.58744850  0.81519450  1
  Mg  Mg1_4  1  0.50000000  0.08744850  0.31519450  1
  Mg  Mg1_5  1  0.50000000  0.08744850  0.81519450  1
  Mg  Mg1_6  1  0.50000000  0.58744850  0.31519450  1
  Mg  Mg1_7  1  0.50000000  0.58744850  0.81519450  1
  Mg  Mg2_0  1  0.00000000  0.25000000  0.39465950  1
  Mg  Mg2_1  1  0.00000000  0.25000000  0.89465950  1
  Mg  Mg2_2  1  0.00000000  0.75000000  0.39465950  1
  Mg  Mg2_3  1  0.00000000  0.75000000  0.89465950  1
  Mg  Mg2_4  1  0.50000000  0.25000000  0.39465950  1
  Mg  Mg2_5  1  0.50000000  0.25000000  0.89465950  1
  Mg  Mg2_6  1  0.50000000  0.75000000  0.39465950  1
  Mg  Mg2_7  1  0.50000000  0.75000000  0.89465950  1
  Mg  Mg3_0  1  0.25000000  0.16503900  0.48095550  1
  Mg  Mg3_1  1  0.25000000  0.16503900  0.98095550  1
  Mg  Mg3_2  1  0.25000000  0.66503900  0.48095550  1
  Mg  Mg3_3  1  0.25000000  0.66503900  0.98095550  1
  Mg  Mg3_4  1  0.75000000  0.16503900  0.48095550  1
  Mg  Mg3_5  1  0.75000000  0.16503900  0.98095550  1
  Mg  Mg3_6  1  0.75000000  0.66503900  0.48095550  1
  Mg  Mg3_7  1  0.75000000  0.66503900  0.98095550  1
  Mg  Mg4_0  1  0.25000000  0.33496100  0.48095550  1
  Mg  Mg4_1  1  0.25000000  0.33496100  0.98095550  1
  Mg  Mg4_2  1  0.25000000  0.83496100  0.48095550  1
  Mg  Mg4_3  1  0.25000000  0.83496100  0.98095550  1
  Mg  Mg4_4  1  0.75000000  0.33496100  0.48095550  1
  Mg  Mg4_5  1  0.75000000  0.33496100  0.98095550  1
  Mg  Mg4_6  1  0.75000000  0.83496100  0.48095550  1
  Mg  Mg4_7  1  0.75000000  0.83496100  0.98095550  1
  Mg  Mg5_0  1  0.25000000  0.25000000  0.29444350  1
  Mg  Mg5_1  1  0.25000000  0.25000000  0.79444350  1
  Mg  Mg5_2  1  0.25000000  0.75000000  0.29444350  1
  Mg  Mg5_3  1  0.25000000  0.75000000  0.79444350  1
  Mg  Mg5_4  1  0.75000000  0.25000000  0.29444350  1
  Mg  Mg5_5  1  0.75000000  0.25000000  0.79444350  1
  Mg  Mg5_6  1  0.75000000  0.75000000  0.29444350  1
  Mg  Mg5_7  1  0.75000000  0.75000000  0.79444350  1
  Mg  Mg6_0  1  0.00000000  0.16255150  0.06519450  1
  Mg  Mg6_1  1  0.00000000  0.16255150  0.56519450  1
  Mg  Mg6_2  1  0.00000000  0.66255150  0.06519450  1
  Mg  Mg6_3  1  0.00000000  0.66255150  0.56519450  1
  Mg  Mg6_4  1  0.50000000  0.16255150  0.06519450  1
  Mg  Mg6_5  1  0.50000000  0.16255150  0.56519450  1
  Mg  Mg6_6  1  0.50000000  0.66255150  0.06519450  1
  Mg  Mg6_7  1  0.50000000  0.66255150  0.56519450  1
  Mg  Mg7_0  1  0.00000000  0.33744850  0.06519450  1
  Mg  Mg7_1  1  0.00000000  0.33744850  0.56519450  1
  Mg  Mg7_2  1  0.00000000  0.83744850  0.06519450  1
  Mg  Mg7_3  1  0.00000000  0.83744850  0.56519450  1
  Mg  Mg7_4  1  0.50000000  0.33744850  0.06519450  1
  Mg  Mg7_5  1  0.50000000  0.33744850  0.56519450  1
  Mg  Mg7_6  1  0.50000000  0.83744850  0.06519450  1
  Mg  Mg7_7  1  0.50000000  0.83744850  0.56519450  1
  Mg  Mg8_0  1  0.00000000  0.00000000  0.14466000  1
  Mg  Mg8_1  1  0.00000000  0.00000000  0.64466000  1
  Mg  Mg8_2  1  0.00000000  0.50000000  0.14466000  1
  Mg  Mg8_3  1  0.00000000  0.50000000  0.64466000  1
  Mg  Mg8_4  1  0.50000000  0.00000000  0.14466000  1
  Mg  Mg8_5  1  0.50000000  0.00000000  0.64466000  1
  Mg  Mg8_6  1  0.50000000  0.50000000  0.14466000  1
  Mg  Mg8_7  1  0.50000000  0.50000000  0.64466000  1
  Mg  Mg9_0  1  0.25000000  0.41503900  0.23095550  1
  Mg  Mg9_1  1  0.25000000  0.41503900  0.73095550  1
  Mg  Mg9_2  1  0.25000000  0.91503900  0.23095550  1
  Mg  Mg9_3  1  0.25000000  0.91503900  0.73095550  1
  Mg  Mg9_4  1  0.75000000  0.41503900  0.23095550  1
  Mg  Mg9_5  1  0.75000000  0.41503900  0.73095550  1
  Mg  Mg9_6  1  0.75000000  0.91503900  0.23095550  1
  Mg  Mg9_7  1  0.75000000  0.91503900  0.73095550  1
  Mg  Mg10_0  1  0.25000000  0.08496100  0.23095550  1
  Mg  Mg10_1  1  0.25000000  0.08496100  0.73095550  1
  Mg  Mg10_2  1  0.25000000  0.58496100  0.23095550  1
  Mg  Mg10_3  1  0.25000000  0.58496100  0.73095550  1
  Mg  Mg10_4  1  0.75000000  0.08496100  0.23095550  1
  Mg  Mg10_5  1  0.75000000  0.08496100  0.73095550  1
  Mg  Mg10_6  1  0.75000000  0.58496100  0.23095550  1
  Mg  Mg10_7  1  0.75000000  0.58496100  0.73095550  1
  Mg  Mg11_0  1  0.25000000  0.00000000  0.04444350  1
  Mg  Mg11_1  1  0.25000000  0.00000000  0.54444350  1
  Mg  Mg11_2  1  0.25000000  0.50000000  0.04444350  1
  Mg  Mg11_3  1  0.25000000  0.50000000  0.54444350  1
  Mg  Mg11_4  1  0.75000000  0.00000000  0.04444350  1
  Mg  Mg11_5  1  0.75000000  0.00000000  0.54444350  1
  Mg  Mg11_6  1  0.75000000  0.50000000  0.04444350  1
  Mg  Mg11_7  1  0.75000000  0.50000000  0.54444350  1
  C  C0_0  1  0.25000000  0.00000000  0.29713100  1
  C  C0_1  1  0.25000000  0.00000000  0.79713100  1
  C  C0_2  1  0.25000000  0.50000000  0.29713100  1
  C  C0_3  1  0.25000000  0.50000000  0.79713100  1
  C  C0_4  1  0.75000000  0.00000000  0.29713100  1
  C  C0_5  1  0.75000000  0.00000000  0.79713100  1
  C  C0_6  1  0.75000000  0.50000000  0.29713100  1
  C  C0_7  1  0.75000000  0.50000000  0.79713100  1
  C  C1_0  1  0.25000000  0.25000000  0.04713100  1
  C  C1_1  1  0.25000000  0.25000000  0.54713100  1
  C  C1_2  1  0.25000000  0.75000000  0.04713100  1
  C  C1_3  1  0.25000000  0.75000000  0.54713100  1
  C  C1_4  1  0.75000000  0.25000000  0.04713100  1
  C  C1_5  1  0.75000000  0.25000000  0.54713100  1
  C  C1_6  1  0.75000000  0.75000000  0.04713100  1
  C  C1_7  1  0.75000000  0.75000000  0.54713100  1
loop_
_geom_bond_atom_site_label_1
_geom_bond_atom_site_label_2
_geom_bond_distance
_geom_bond_site_symmetry_2
K0_0 K0_4 3.258565 1_455
K0_0 K0_4 3.258565 1_555
K0_0 Mg1_0 3.366859 1_555
K0_0 Mg0_2 3.366859 1_545
K0_0 Mg3_0 3.601260 1_555
K0_0 Mg3_4 3.601260 1_455
K0_0 Mg4_6 3.601260 1_445
K0_0 Mg4_2 3.601260 1_545
K0_0 Mg11_5 3.879047 1_455
K0_0 Mg11_1 3.879047 1_555
K0_1 K0_5 3.258565 1_455
K0_1 K0_5 3.258565 1_555
K0_1 Mg1_1 3.366859 1_555
K0_1 Mg0_3 3.366859 1_545
K0_1 Mg3_5 3.601260 1_455
K0_1 Mg3_1 3.601260 1_555
K0_1 Mg4_3 3.601260 1_545
K0_1 Mg4_7 3.601260 1_445
K0_1 Mg11_4 3.879047 1_456
K0_1 Mg11_0 3.879047 1_556
K0_2 K0_6 3.258565 1_455
K0_2 K0_6 3.258565 1_555
K0_2 Mg1_2 3.366859 1_555
K0_2 Mg0_0 3.366859 1_555
K0_2 Mg4_0 3.601260 1_555
K0_2 Mg4_4 3.601260 1_455
K0_2 Mg3_2 3.601260 1_555
K0_2 Mg3_6 3.601260 1_455
K0_2 Mg11_3 3.879047 1_555
K0_2 Mg11_7 3.879047 1_455
K0_3 K0_7 3.258565 1_555
K0_3 K0_7 3.258565 1_455
K0_3 Mg1_3 3.366859 1_555
K0_3 Mg0_1 3.366859 1_555
K0_3 Mg4_5 3.601260 1_455
K0_3 Mg4_1 3.601260 1_555
K0_3 Mg3_7 3.601260 1_455
K0_3 Mg3_3 3.601260 1_555
K0_3 Mg11_6 3.879047 1_456
K0_3 Mg11_2 3.879047 1_556
K0_4 Mg1_4 3.366859 1_555
K0_4 Mg0_6 3.366859 1_545
K0_4 Mg3_0 3.601260 1_555
K0_4 Mg3_4 3.601260 1_555
K0_4 Mg4_2 3.601260 1_545
K0_4 Mg4_6 3.601260 1_545
K0_4 Mg11_5 3.879047 1_555
K0_4 Mg11_1 3.879047 1_555
K0_5 Mg1_5 3.366859 1_555
K0_5 Mg0_7 3.366859 1_545
K0_5 Mg3_5 3.601260 1_555
K0_5 Mg3_1 3.601260 1_555
K0_5 Mg4_3 3.601260 1_545
K0_5 Mg4_7 3.601260 1_545
K0_5 Mg11_4 3.879047 1_556
K0_5 Mg11_0 3.879047 1_556
K0_6 Mg1_6 3.366859 1_555
K0_6 Mg0_4 3.366859 1_555
K0_6 Mg4_0 3.601260 1_555
K0_6 Mg4_4 3.601260 1_555
K0_6 Mg3_2 3.601260 1_555
K0_6 Mg3_6 3.601260 1_555
K0_6 Mg11_3 3.879047 1_555
K0_6 Mg11_7 3.879047 1_555
K0_7 Mg1_7 3.366859 1_555
K0_7 Mg0_5 3.366859 1_555
K0_7 Mg4_5 3.601260 1_555
K0_7 Mg4_1 3.601260 1_555
K0_7 Mg3_3 3.601260 1_555
K0_7 Mg3_7 3.601260 1_555
K0_7 Mg11_2 3.879047 1_556
K0_7 Mg11_6 3.879047 1_556
K1_0 K1_4 3.258565 1_455
K1_0 K1_4 3.258565 1_555
K1_0 Mg7_0 3.366859 1_555
K1_0 Mg6_0 3.366859 1_555
K1_0 Mg9_0 3.601260 1_555
K1_0 Mg10_4 3.601260 1_455
K1_0 Mg10_0 3.601260 1_555
K1_0 Mg9_4 3.601260 1_455
K1_0 Mg5_4 3.879047 1_455
K1_0 Mg5_0 3.879047 1_555
K1_1 K1_5 3.258565 1_455
K1_1 K1_5 3.258565 1_555
K1_1 Mg7_1 3.366859 1_555
K1_1 Mg6_1 3.366859 1_555
K1_1 Mg9_1 3.601260 1_555
K1_1 Mg9_5 3.601260 1_455
K1_1 Mg10_1 3.601260 1_555
K1_1 Mg10_5 3.601260 1_455
K1_1 Mg5_1 3.879047 1_555
K1_1 Mg5_5 3.879047 1_455
K1_2 K1_6 3.258565 1_555
K1_2 K1_6 3.258565 1_455
K1_2 Mg7_2 3.366859 1_555
K1_2 Mg6_2 3.366859 1_555
K1_2 Mg9_6 3.601260 1_455
K1_2 Mg9_2 3.601260 1_555
K1_2 Mg10_2 3.601260 1_555
K1_2 Mg10_6 3.601260 1_455
K1_2 Mg5_2 3.879047 1_555
K1_2 Mg5_6 3.879047 1_455
K1_3 K1_7 3.258565 1_555
K1_3 K1_7 3.258565 1_455
K1_3 Mg7_3 3.366859 1_555
K1_3 Mg6_3 3.366859 1_555
K1_3 Mg9_3 3.601260 1_555
K1_3 Mg9_7 3.601260 1_455
K1_3 Mg10_3 3.601260 1_555
K1_3 Mg10_7 3.601260 1_455
K1_3 Mg5_3 3.879047 1_555
K1_3 Mg5_7 3.879047 1_455
K1_4 Mg7_4 3.366859 1_555
K1_4 Mg6_4 3.366859 1_555
K1_4 Mg9_0 3.601260 1_555
K1_4 Mg10_0 3.601260 1_555
K1_4 Mg9_4 3.601260 1_555
K1_4 Mg10_4 3.601260 1_555
K1_4 Mg5_4 3.879047 1_555
K1_4 Mg5_0 3.879047 1_555
K1_5 Mg7_5 3.366859 1_555
K1_5 Mg6_5 3.366859 1_555
K1_5 Mg10_5 3.601260 1_555
K1_5 Mg9_1 3.601260 1_555
K1_5 Mg10_1 3.601260 1_555
K1_5 Mg9_5 3.601260 1_555
K1_5 Mg5_1 3.879047 1_555
K1_5 Mg5_5 3.879047 1_555
K1_6 Mg7_6 3.366859 1_555
K1_6 Mg6_6 3.366859 1_555
K1_6 Mg9_6 3.601260 1_555
K1_6 Mg9_2 3.601260 1_555
K1_6 Mg10_2 3.601260 1_555
K1_6 Mg10_6 3.601260 1_555
K1_6 Mg5_2 3.879047 1_555
K1_6 Mg5_6 3.879047 1_555
K1_7 Mg7_7 3.366859 1_555
K1_7 Mg6_7 3.366859 1_555
K1_7 Mg9_7 3.601260 1_555
K1_7 Mg9_3 3.601260 1_555
K1_7 Mg10_7 3.601260 1_555
K1_7 Mg10_3 3.601260 1_555
K1_7 Mg5_3 3.879047 1_555
K1_7 Mg5_7 3.879047 1_555
Mg0_0 Mg5_4 3.193767 1_455
Mg0_0 Mg5_0 3.193767 1_555
Mg0_1 Mg5_5 3.193767 1_455
Mg0_1 Mg5_1 3.193767 1_555
Mg0_2 Mg5_2 3.193767 1_555
Mg0_2 Mg5_6 3.193767 1_455
Mg0_3 Mg5_7 3.193767 1_455
Mg0_3 Mg5_3 3.193767 1_555
Mg0_4 Mg5_4 3.193767 1_555
Mg0_4 Mg5_0 3.193767 1_555
Mg0_5 Mg5_1 3.193767 1_555
Mg0_5 Mg5_5 3.193767 1_555
Mg0_6 Mg5_2 3.193767 1_555
Mg0_6 Mg5_6 3.193767 1_555
Mg0_7 Mg5_7 3.193767 1_555
Mg0_7 Mg5_3 3.193767 1_555
Mg1_0 Mg5_0 3.193767 1_555
Mg1_0 Mg5_4 3.193767 1_455
Mg1_1 Mg5_1 3.193767 1_555
Mg1_1 Mg5_5 3.193767 1_455
Mg1_2 Mg5_6 3.193767 1_455
Mg1_2 Mg5_2 3.193767 1_555
Mg1_3 Mg5_3 3.193767 1_555
Mg1_3 Mg5_7 3.193767 1_455
Mg1_4 Mg5_0 3.193767 1_555
Mg1_4 Mg5_4 3.193767 1_555
Mg1_5 Mg5_1 3.193767 1_555
Mg1_5 Mg5_5 3.193767 1_555
Mg1_6 Mg5_2 3.193767 1_555
Mg1_6 Mg5_6 3.193767 1_555
Mg1_7 Mg5_3 3.193767 1_555
Mg1_7 Mg5_7 3.193767 1_555
Mg2_0 Mg2_4 3.258565 1_455
Mg2_0 Mg2_4 3.258565 1_555
Mg2_0 Mg4_0 3.274396 1_555
Mg2_0 Mg3_4 3.274396 1_455
Mg2_0 Mg4_4 3.274396 1_455
Mg2_0 Mg3_0 3.274396 1_555
Mg2_0 Mg5_0 3.299108 1_555
Mg2_0 Mg5_4 3.299108 1_455
Mg2_1 Mg2_5 3.258565 1_455
Mg2_1 Mg2_5 3.258565 1_555
Mg2_1 Mg4_1 3.274396 1_555
Mg2_1 Mg3_5 3.274396 1_455
Mg2_1 Mg3_1 3.274396 1_555
Mg2_1 Mg4_5 3.274396 1_455
Mg2_1 Mg5_1 3.299108 1_555
Mg2_1 Mg5_5 3.299108 1_455
Mg2_2 Mg2_6 3.258565 1_455
Mg2_2 Mg2_6 3.258565 1_555
Mg2_2 Mg4_2 3.274396 1_555
Mg2_2 Mg4_6 3.274396 1_455
Mg2_2 Mg3_2 3.274396 1_555
Mg2_2 Mg3_6 3.274396 1_455
Mg2_2 Mg5_6 3.299108 1_455
Mg2_2 Mg5_2 3.299108 1_555
Mg2_3 Mg2_7 3.258565 1_455
Mg2_3 Mg2_7 3.258565 1_555
Mg2_3 Mg4_3 3.274396 1_555
Mg2_3 Mg4_7 3.274396 1_455
Mg2_3 Mg3_7 3.274396 1_455
Mg2_3 Mg3_3 3.274396 1_555
Mg2_3 Mg5_3 3.299108 1_555
Mg2_3 Mg5_7 3.299108 1_455
Mg2_4 Mg4_0 3.274396 1_555
Mg2_4 Mg4_4 3.274396 1_555
Mg2_4 Mg3_0 3.274396 1_555
Mg2_4 Mg3_4 3.274396 1_555
Mg2_4 Mg5_4 3.299108 1_555
Mg2_4 Mg5_0 3.299108 1_555
Mg2_5 Mg4_1 3.274396 1_555
Mg2_5 Mg3_1 3.274396 1_555
Mg2_5 Mg4_5 3.274396 1_555
Mg2_5 Mg3_5 3.274396 1_555
Mg2_5 Mg5_1 3.299108 1_555
Mg2_5 Mg5_5 3.299108 1_555
Mg2_6 Mg4_2 3.274396 1_555
Mg2_6 Mg4_6 3.274396 1_555
Mg2_6 Mg3_2 3.274396 1_555
Mg2_6 Mg3_6 3.274396 1_555
Mg2_6 Mg5_2 3.299108 1_555
Mg2_6 Mg5_6 3.299108 1_555
Mg2_7 Mg3_7 3.274396 1_555
Mg2_7 Mg4_3 3.274396 1_555
Mg2_7 Mg3_3 3.274396 1_555
Mg2_7 Mg4_7 3.274396 1_555
Mg2_7 Mg5_3 3.299108 1_555
Mg2_7 Mg5_7 3.299108 1_555
Mg5_0 Mg5_4 3.258565 1_455
Mg5_0 Mg5_4 3.258565 1_555
Mg5_0 Mg9_0 3.273743 1_555
Mg5_1 Mg5_5 3.258565 1_455
Mg5_1 Mg5_5 3.258565 1_555
Mg5_1 Mg9_1 3.273743 1_555
Mg5_2 Mg5_6 3.258565 1_555
Mg5_2 Mg5_6 3.258565 1_455
Mg5_2 Mg9_2 3.273743 1_555
Mg5_3 Mg5_7 3.258565 1_455
Mg5_3 Mg5_7 3.258565 1_555
Mg5_3 Mg9_3 3.273743 1_555
Mg5_4 Mg9_4 3.273743 1_555
Mg5_5 Mg9_5 3.273743 1_555
Mg5_6 Mg9_6 3.273743 1_555
Mg5_7 Mg9_7 3.273743 1_555
Mg8_0 Mg8_4 3.258565 1_555
Mg8_0 Mg8_4 3.258565 1_455
Mg8_0 Mg9_6 3.274385 1_445
Mg8_0 Mg9_2 3.274385 1_545
Mg8_1 Mg8_5 3.258565 1_555
Mg8_1 Mg8_5 3.258565 1_455
Mg8_1 Mg9_7 3.274385 1_445
Mg8_1 Mg9_3 3.274385 1_545
Mg8_2 Mg8_6 3.258565 1_555
Mg8_2 Mg8_6 3.258565 1_455
Mg8_2 Mg9_0 3.274385 1_555
Mg8_2 Mg9_4 3.274385 1_455
Mg8_3 Mg8_7 3.258565 1_455
Mg8_3 Mg8_7 3.258565 1_555
Mg8_3 Mg9_1 3.274385 1_555
Mg8_3 Mg9_5 3.274385 1_455
Mg8_4 Mg9_6 3.274385 1_545
Mg8_4 Mg9_2 3.274385 1_545
Mg8_5 Mg9_3 3.274385 1_545
Mg8_5 Mg9_7 3.274385 1_545
Mg8_6 Mg9_0 3.274385 1_555
Mg8_6 Mg9_4 3.274385 1_555
Mg8_7 Mg9_1 3.274385 1_555
Mg8_7 Mg9_5 3.274385 1_555
Mg10_0 Mg5_0 3.273743 1_555
Mg10_0 Mg8_0 3.274385 1_555
Mg10_0 Mg8_4 3.274385 1_555
Mg10_1 Mg5_1 3.273743 1_555
Mg10_1 Mg8_1 3.274385 1_555
Mg10_1 Mg8_5 3.274385 1_555
Mg10_2 Mg5_2 3.273743 1_555
Mg10_2 Mg8_6 3.274385 1_555
Mg10_2 Mg8_2 3.274385 1_555
Mg10_3 Mg5_3 3.273743 1_555
Mg10_3 Mg8_3 3.274385 1_555
Mg10_3 Mg8_7 3.274385 1_555
Mg10_4 Mg5_4 3.273743 1_555
Mg10_4 Mg8_0 3.274385 1_655
Mg10_4 Mg8_4 3.274385 1_555
Mg10_5 Mg5_5 3.273743 1_555
Mg10_5 Mg8_5 3.274385 1_555
Mg10_5 Mg8_1 3.274385 1_655
Mg10_6 Mg5_6 3.273743 1_555
Mg10_6 Mg8_6 3.274385 1_555
Mg10_6 Mg8_2 3.274385 1_655
Mg10_7 Mg5_7 3.273743 1_555
Mg10_7 Mg8_7 3.274385 1_555
Mg10_7 Mg8_3 3.274385 1_655
Mg11_0 Mg6_0 3.193767 1_555
Mg11_0 Mg6_4 3.193767 1_555
Mg11_0 Mg7_2 3.193767 1_545
Mg11_0 Mg7_6 3.193767 1_545
Mg11_0 Mg11_4 3.258565 1_455
Mg11_0 Mg11_4 3.258565 1_555
Mg11_0 Mg3_1 3.273743 1_554
Mg11_0 Mg4_3 3.273743 1_544
Mg11_0 Mg8_0 3.299120 1_555
Mg11_0 Mg8_4 3.299120 1_555
Mg11_1 Mg6_1 3.193767 1_555
Mg11_1 Mg6_5 3.193767 1_555
Mg11_1 Mg7_3 3.193767 1_545
Mg11_1 Mg7_7 3.193767 1_545
Mg11_1 Mg11_5 3.258565 1_455
Mg11_1 Mg11_5 3.258565 1_555
Mg11_1 Mg3_0 3.273743 1_555
Mg11_1 Mg4_2 3.273743 1_545
Mg11_1 Mg8_1 3.299120 1_555
Mg11_1 Mg8_5 3.299120 1_555
Mg11_2 Mg6_6 3.193767 1_555
Mg11_2 Mg6_2 3.193767 1_555
Mg11_2 Mg7_4 3.193767 1_555
Mg11_2 Mg7_0 3.193767 1_555
Mg11_2 Mg11_6 3.258565 1_555
Mg11_2 Mg11_6 3.258565 1_455
Mg11_2 Mg4_1 3.273743 1_554
Mg11_2 Mg3_3 3.273743 1_554
Mg11_2 Mg8_2 3.299120 1_555
Mg11_2 Mg8_6 3.299120 1_555
Mg11_3 Mg6_7 3.193767 1_555
Mg11_3 Mg6_3 3.193767 1_555
Mg11_3 Mg7_1 3.193767 1_555
Mg11_3 Mg7_5 3.193767 1_555
Mg11_3 Mg11_7 3.258565 1_555
Mg11_3 Mg11_7 3.258565 1_455
Mg11_3 Mg4_0 3.273743 1_555
Mg11_3 Mg3_2 3.273743 1_555
Mg11_3 Mg8_3 3.299120 1_555
Mg11_3 Mg8_7 3.299120 1_555
Mg11_4 Mg6_0 3.193767 1_655
Mg11_4 Mg6_4 3.193767 1_555
Mg11_4 Mg7_2 3.193767 1_645
Mg11_4 Mg7_6 3.193767 1_545
Mg11_4 Mg3_5 3.273743 1_554
Mg11_4 Mg4_7 3.273743 1_544
Mg11_4 Mg8_4 3.299120 1_555
Mg11_4 Mg8_0 3.299120 1_655
Mg11_5 Mg6_5 3.193767 1_555
Mg11_5 Mg6_1 3.193767 1_655
Mg11_5 Mg7_3 3.193767 1_645
Mg11_5 Mg7_7 3.193767 1_545
Mg11_5 Mg3_4 3.273743 1_555
Mg11_5 Mg4_6 3.273743 1_545
Mg11_5 Mg8_1 3.299120 1_655
Mg11_5 Mg8_5 3.299120 1_555
Mg11_6 Mg6_2 3.193767 1_655
Mg11_6 Mg6_6 3.193767 1_555
Mg11_6 Mg7_0 3.193767 1_655
Mg11_6 Mg7_4 3.193767 1_555
Mg11_6 Mg4_5 3.273743 1_554
Mg11_6 Mg3_7 3.273743 1_554
Mg11_6 Mg8_6 3.299120 1_555
Mg11_6 Mg8_2 3.299120 1_655
Mg11_7 Mg6_3 3.193767 1_655
Mg11_7 Mg6_7 3.193767 1_555
Mg11_7 Mg7_5 3.193767 1_555
Mg11_7 Mg7_1 3.193767 1_655
Mg11_7 Mg4_4 3.273743 1_555
Mg11_7 Mg3_6 3.273743 1_555
Mg11_7 Mg8_7 3.299120 1_555
Mg11_7 Mg8_3 3.299120 1_655
C0_0 Mg1_4 2.236878 1_555
C0_0 Mg1_0 2.236878 1_555
C0_0 Mg0_2 2.236878 1_545
C0_0 Mg0_6 2.236878 1_545
C0_0 Mg10_0 2.356547 1_555
C0_0 Mg9_2 2.356547 1_545
C0_1 Mg1_1 2.236878 1_555
C0_1 Mg1_5 2.236878 1_555
C0_1 Mg0_3 2.236878 1_545
C0_1 Mg0_7 2.236878 1_545
C0_1 Mg10_1 2.356547 1_555
C0_1 Mg9_3 2.356547 1_545
C0_2 Mg1_6 2.236878 1_555
C0_2 Mg1_2 2.236878 1_555
C0_2 Mg0_0 2.236878 1_555
C0_2 Mg0_4 2.236878 1_555
C0_2 Mg10_2 2.356547 1_555
C0_2 Mg9_0 2.356547 1_555
C0_3 Mg1_3 2.236878 1_555
C0_3 Mg1_7 2.236878 1_555
C0_3 Mg0_5 2.236878 1_555
C0_3 Mg0_1 2.236878 1_555
C0_3 Mg10_3 2.356547 1_555
C0_3 Mg9_1 2.356547 1_555
C0_4 Mg1_4 2.236878 1_555
C0_4 Mg1_0 2.236878 1_655
C0_4 Mg0_6 2.236878 1_545
C0_4 Mg0_2 2.236878 1_645
C0_4 Mg10_4 2.356547 1_555
C0_4 Mg9_6 2.356547 1_545
C0_5 Mg1_1 2.236878 1_655
C0_5 Mg1_5 2.236878 1_555
C0_5 Mg0_3 2.236878 1_645
C0_5 Mg0_7 2.236878 1_545
C0_5 Mg10_5 2.356547 1_555
C0_5 Mg9_7 2.356547 1_545
C0_6 Mg1_2 2.236878 1_655
C0_6 Mg1_6 2.236878 1_555
C0_6 Mg0_0 2.236878 1_655
C0_6 Mg0_4 2.236878 1_555
C0_6 Mg10_6 2.356547 1_555
C0_6 Mg9_4 2.356547 1_555
C0_7 Mg1_3 2.236878 1_655
C0_7 Mg1_7 2.236878 1_555
C0_7 Mg0_1 2.236878 1_655
C0_7 Mg0_5 2.236878 1_555
C0_7 Mg10_7 2.356547 1_555
C0_7 Mg9_5 2.356547 1_555
C1_0 Mg7_4 2.236878 1_555
C1_0 Mg6_0 2.236878 1_555
C1_0 Mg6_4 2.236878 1_555
C1_0 Mg7_0 2.236878 1_555
C1_0 Mg3_1 2.356547 1_554
C1_0 Mg4_1 2.356547 1_554
C1_1 Mg7_1 2.236878 1_555
C1_1 Mg7_5 2.236878 1_555
C1_1 Mg6_1 2.236878 1_555
C1_1 Mg6_5 2.236878 1_555
C1_1 Mg4_0 2.356547 1_555
C1_1 Mg3_0 2.356547 1_555
C1_2 Mg7_6 2.236878 1_555
C1_2 Mg7_2 2.236878 1_555
C1_2 Mg6_6 2.236878 1_555
C1_2 Mg6_2 2.236878 1_555
C1_2 Mg3_3 2.356547 1_554
C1_2 Mg4_3 2.356547 1_554
C1_3 Mg7_3 2.236878 1_555
C1_3 Mg7_7 2.236878 1_555
C1_3 Mg6_3 2.236878 1_555
C1_3 Mg6_7 2.236878 1_555
C1_3 Mg3_2 2.356547 1_555
C1_3 Mg4_2 2.356547 1_555
C1_4 Mg7_4 2.236878 1_555
C1_4 Mg6_0 2.236878 1_655
C1_4 Mg6_4 2.236878 1_555
C1_4 Mg7_0 2.236878 1_655
C1_4 Mg4_5 2.356547 1_554
C1_4 Mg3_5 2.356547 1_554
C1_5 Mg6_1 2.236878 1_655
C1_5 Mg7_5 2.236878 1_555
C1_5 Mg7_1 2.236878 1_655
C1_5 Mg6_5 2.236878 1_555
C1_5 Mg4_4 2.356547 1_555
C1_5 Mg3_4 2.356547 1_555
C1_6 Mg7_6 2.236878 1_555
C1_6 Mg7_2 2.236878 1_655
C1_6 Mg6_2 2.236878 1_655
C1_6 Mg6_6 2.236878 1_555
C1_6 Mg4_7 2.356547 1_554
C1_6 Mg3_7 2.356547 1_554
C1_7 Mg7_3 2.236878 1_655
C1_7 Mg7_7 2.236878 1_555
C1_7 Mg6_3 2.236878 1_655
C1_7 Mg6_7 2.236878 1_555
C1_7 Mg4_6 2.356547 1_555
C1_7 Mg3_6 2.356547 1_555
