# generated using pymatgen
data_K8Mg(SiO3)8
_symmetry_space_group_name_H-M   'P 1'
_cell_length_a   7.92659834
_cell_length_b   7.89418903
_cell_length_c   11.00336459
_cell_angle_alpha   88.66193233
_cell_angle_beta   91.04765025
_cell_angle_gamma   93.85103325
_symmetry_Int_Tables_number   1
_chemical_formula_structural   K8Mg(SiO3)8
_chemical_formula_sum   'K8 Mg1 Si8 O24'
_cell_volume   686.68682946
_cell_formula_units_Z   1
loop_
 _symmetry_equiv_pos_site_id
 _symmetry_equiv_pos_as_xyz
  1  'x, y, z'
loop_
 _atom_site_type_symbol
 _atom_site_label
 _atom_site_symmetry_multiplicity
 _atom_site_fract_x
 _atom_site_fract_y
 _atom_site_fract_z
 _atom_site_occupancy
  K  K0  1  0.99144760  0.99361956  0.74692036  1
  K  K1  1  0.51350642  0.51656249  0.75381536  1
  K  K2  1  0.04149236  0.01115846  0.25351150  1
  K  K3  1  0.38956048  0.40322855  0.23769048  1
  K  K4  1  0.67342480  0.19585918  0.52144248  1
  K  K5  1  0.17654373  0.68308711  0.97514625  1
  K  K6  1  0.33575805  0.81320007  0.48202174  1
  K  K7  1  0.82733497  0.31830146  0.01639650  1
  Mg  Mg0  1  0.71279184  0.64898655  0.24440168  1
  Si  Si0  1  0.98873478  0.51847685  0.68348213  1
  Si  Si1  1  0.51397635  0.98924624  0.81689655  1
  Si  Si2  1  0.99742571  0.50535900  0.30921321  1
  Si  Si3  1  0.50005586  0.99188895  0.18981184  1
  Si  Si4  1  0.81544928  0.72576590  0.47688268  1
  Si  Si5  1  0.31346386  0.18763512  0.98096111  1
  Si  Si6  1  0.18299877  0.29696513  0.52547118  1
  Si  Si7  1  0.71330136  0.80178649  0.01867305  1
  O  O0  1  0.90120375  0.49920595  0.81545085  1
  O  O1  1  0.49379693  0.89914505  0.68618508  1
  O  O2  1  0.08920898  0.52325937  0.18033775  1
  O  O3  1  0.51154353  0.08579242  0.31912193  1
  O  O4  1  0.84702253  0.57254343  0.57885335  1
  O  O5  1  0.33447845  0.06421662  0.86272630  1
  O  O6  1  0.12241785  0.41802347  0.40890748  1
  O  O7  1  0.68077041  0.90819258  0.15287644  1
  O  O8  1  0.05315311  0.33485034  0.63730235  1
  O  O9  1  0.55627046  0.84530756  0.92376248  1
  O  O10  1  0.95509776  0.69917641  0.36081839  1
  O  O11  1  0.46415176  0.13351758  0.08043862  1
  O  O12  1  0.14053038  0.66292294  0.70676508  1
  O  O13  1  0.66262238  0.13649590  0.79123616  1
  O  O14  1  0.80780759  0.41545489  0.28771647  1
  O  O15  1  0.34633023  0.84933741  0.21377844  1
  O  O16  1  0.84747944  0.91598294  0.52420312  1
  O  O17  1  0.34101390  0.38911216  0.95385304  1
  O  O18  1  0.16561258  0.09728122  0.49161703  1
  O  O19  1  0.68148572  0.60883790  0.07114249  1
  O  O20  1  0.63277036  0.68578153  0.40878522  1
  O  O21  1  0.12445290  0.16486010  0.03558762  1
  O  O22  1  0.38001978  0.34514251  0.55380722  1
  O  O23  1  0.89849302  0.86109962  0.97198898  1
loop_
_geom_bond_atom_site_label_1
_geom_bond_atom_site_label_2
_geom_bond_distance
_geom_bond_site_symmetry_2
K0 O16 2.749085 1_555
K0 O23 2.759094 1_555
K0 O8 2.939925 1_665
K0 O13 2.961526 1_565
K0 O12 2.982311 1_655
K0 O5 3.005089 1_665
K0 O18 3.217113 1_665
K1 O17 2.747426 1_555
K1 O22 2.766899 1_555
K1 O1 3.107061 1_555
K1 O0 3.146237 1_555
K1 O9 3.229862 1_555
K1 O12 3.273894 1_555
K1 O4 3.298470 1_555
K1 O13 3.312008 1_555
K2 O21 2.732976 1_555
K2 O10 2.756070 1_445
K2 O15 2.853242 1_545
K2 O18 2.862423 1_555
K2 O7 3.110710 1_445
K3 O2 2.680354 1_555
K3 O3 2.864652 1_555
K3 O6 2.869892 1_555
K3 O11 2.873215 1_555
K4 O16 2.681530 1_545
K4 O3 2.682088 1_555
K4 O22 2.709715 1_555
K4 O13 2.996446 1_555
K4 O1 3.201223 1_545
K4 O14 3.224548 1_555
K4 O4 3.262093 1_555
K4 O8 3.371994 1_655
K5 O2 2.641133 1_556
K5 O23 2.691566 1_455
K5 O17 2.753739 1_555
K5 O12 2.968607 1_555
K5 O0 3.084072 1_455
K5 O15 3.197302 1_556
K5 O9 3.244997 1_555
K6 O1 2.632565 1_555
K6 O18 2.698484 1_565
K6 O20 2.762101 1_555
K6 O15 2.960867 1_555
K6 O3 3.048517 1_565
K6 O12 3.110274 1_555
K6 O10 3.352203 1_455
K7 O0 2.656824 1_554
K7 O19 2.721387 1_555
K7 O21 2.722417 1_655
K7 O14 3.108819 1_555
K7 O13 3.114262 1_554
K7 O2 3.119133 1_655
K7 O11 3.220879 1_555
Mg0 O19 1.948558 1_555
Mg0 O20 1.962040 1_555
Mg0 O14 2.079757 1_555
Mg0 O7 2.286885 1_555
Mg0 O10 2.306152 1_555
O0 Si0 1.620332 1_555
O1 Si1 1.619935 1_555
O2 Si2 1.604596 1_455
O3 Si3 1.617947 1_545
O4 Si4 1.658803 1_555
O4 Si0 1.662391 1_555
O5 Si5 1.660861 1_555
O5 Si1 1.668002 1_545
O6 Si2 1.636148 1_455
O6 Si6 1.664570 1_555
O7 Si3 1.677675 1_555
O7 Si7 1.747465 1_555
O8 Si0 1.662388 1_455
O8 Si6 1.663669 1_555
O9 Si7 1.658660 1_556
O9 Si1 1.661499 1_555
O10 Si2 1.700734 1_555
O10 Si4 1.730830 1_555
O11 Si3 1.657329 1_545
O11 Si5 1.675178 1_554
O12 Si0 1.622252 1_455
O13 Si1 1.622371 1_545
O14 Si2 1.634103 1_555
O15 Si3 1.623084 1_555
O16 Si4 1.603394 1_555
O17 Si5 1.612425 1_555
O18 Si6 1.624493 1_555
O19 Si7 1.621614 1_555
O20 Si4 1.633349 1_555
O21 Si5 1.621716 1_554
O22 Si6 1.608955 1_555
O23 Si7 1.600616 1_556
