# generated using pymatgen
data_Mg14FeMo
_symmetry_space_group_name_H-M   'P 1'
_cell_length_a   6.27078256
_cell_length_b   6.01176181
_cell_length_c   9.90501630
_cell_angle_alpha   90.00000000
_cell_angle_beta   90.00000000
_cell_angle_gamma   118.64276834
_symmetry_Int_Tables_number   1
_chemical_formula_structural   Mg14FeMo
_chemical_formula_sum   'Mg14 Fe1 Mo1'
_cell_volume   327.70864025
_cell_formula_units_Z   1
loop_
 _symmetry_equiv_pos_site_id
 _symmetry_equiv_pos_as_xyz
  1  'x, y, z'
loop_
 _atom_site_type_symbol
 _atom_site_label
 _atom_site_symmetry_multiplicity
 _atom_site_fract_x
 _atom_site_fract_y
 _atom_site_fract_z
 _atom_site_occupancy
  Mg  Mg0  1  0.16673185  0.33336543  0.62500000  1
  Mg  Mg1  1  0.16719282  0.83359591  0.62500000  1
  Mg  Mg2  1  0.66385399  0.33413422  0.12500000  1
  Mg  Mg3  1  0.66111296  0.32956745  0.62500000  1
  Mg  Mg4  1  0.66385399  0.82971878  0.12500000  1
  Mg  Mg5  1  0.66111296  0.83154451  0.62500000  1
  Mg  Mg6  1  0.32761018  0.16437374  0.35305817  1
  Mg  Mg7  1  0.32761018  0.16437374  0.89694183  1
  Mg  Mg8  1  0.32761018  0.66323744  0.35305817  1
  Mg  Mg9  1  0.32761018  0.66323744  0.89694183  1
  Mg  Mg10  1  0.85804611  0.17902356  0.36054285  1
  Mg  Mg11  1  0.85804611  0.17902356  0.88945715  1
  Mg  Mg12  1  0.84843376  0.67421738  0.37046419  1
  Mg  Mg13  1  0.84843376  0.67421738  0.87953581  1
  Fe  Fe0  1  0.15108807  0.32554353  0.12500000  1
  Mo  Mo0  1  0.14165289  0.82082594  0.12500000  1
loop_
_geom_bond_atom_site_label_1
_geom_bond_atom_site_label_2
_geom_bond_distance
_geom_bond_site_symmetry_2
Mg0 Mg1 3.005882 1_555
Mg0 Mg1 3.005882 1_545
Mg0 Mg5 3.111165 1_555
Mg0 Mg3 3.111166 1_555
Mg0 Mg10 3.122102 1_455
Mg0 Mg11 3.122102 1_455
Mg0 Mg5 3.159745 1_445
Mg0 Mg3 3.159745 1_455
Mg0 Mg7 3.207471 1_555
Mg0 Mg6 3.207471 1_555
Mg0 Mg8 3.207476 1_555
Mg0 Mg9 3.207476 1_555
Mg1 Mg12 3.071445 1_455
Mg1 Mg13 3.071445 1_455
Mg1 Mg3 3.103196 1_565
Mg1 Mg5 3.103196 1_555
Mg1 Mg3 3.167623 1_455
Mg1 Mg5 3.167624 1_455
Mg1 Mg8 3.209971 1_555
Mg1 Mg9 3.209971 1_555
Mg1 Mg6 3.209977 1_565
Mg1 Mg7 3.209977 1_565
Mg2 Mg6 2.920121 1_555
Mg2 Mg7 2.920121 1_554
Mg2 Mg4 2.979336 1_555
Mg2 Mo0 3.022164 1_655
Mg2 Mg4 3.032425 1_545
Mg2 Mo0 3.249321 1_545
Mg3 Mg5 2.993995 1_545
Mg3 Mg5 3.017767 1_555
Mg3 Mg6 3.259477 1_555
Mg3 Mg7 3.259477 1_555
Mg4 Mg9 2.920121 1_554
Mg4 Mg8 2.920121 1_555
Mg4 Mo0 3.022164 1_655
Mg4 Mo0 3.249322 1_555
Mg5 Mg8 3.259477 1_555
Mg5 Mg9 3.259477 1_555
Mg6 Mo0 2.901584 1_545
Mg6 Mg8 2.999050 1_555
Mg6 Mg8 3.012712 1_545
Mg7 Mo0 2.901584 1_546
Mg7 Mg9 2.999050 1_555
Mg7 Mg9 3.012712 1_545
Mg8 Mo0 2.901577 1_555
Mg9 Mo0 2.901577 1_556
Mg10 Mg2 2.980635 1_555
Mg10 Mg4 2.980641 1_545
Mg10 Mg8 2.988670 1_655
Mg10 Mg6 2.988670 1_655
Mg10 Mg12 3.007952 1_555
Mg10 Mg12 3.007952 1_545
Mg10 Mg3 3.205798 1_555
Mg10 Mg5 3.205804 1_545
Mg10 Mg8 3.285777 1_545
Mg10 Mg6 3.285778 1_555
Mg11 Mg2 2.980635 1_556
Mg11 Mg4 2.980641 1_546
Mg11 Mg9 2.988670 1_655
Mg11 Mg7 2.988670 1_655
Mg11 Mg13 3.007952 1_555
Mg11 Mg13 3.007952 1_545
Mg11 Mg3 3.205798 1_555
Mg11 Mg5 3.205804 1_545
Mg11 Mg9 3.285777 1_545
Mg11 Mg7 3.285778 1_555
Mg12 Mo0 2.918113 1_655
Mg12 Mg4 3.026933 1_555
Mg12 Mg2 3.026939 1_555
Mg12 Mg6 3.041894 1_665
Mg12 Mg8 3.041895 1_655
Mg12 Mg5 3.113812 1_555
Mg12 Mg3 3.113817 1_555
Mg12 Mg6 3.239440 1_555
Mg12 Mg8 3.239440 1_555
Mg13 Mo0 2.918113 1_656
Mg13 Mg4 3.026933 1_556
Mg13 Mg2 3.026939 1_556
Mg13 Mg7 3.041894 1_665
Mg13 Mg9 3.041895 1_655
Mg13 Mg5 3.113812 1_555
Mg13 Mg3 3.113817 1_555
Mg13 Mg7 3.239440 1_555
Mg13 Mg9 3.239440 1_555
Fe0 Mg10 2.836201 1_455
Fe0 Mg11 2.836201 1_454
Fe0 Mg7 2.880110 1_554
Fe0 Mg6 2.880110 1_555
Fe0 Mg9 2.880116 1_554
Fe0 Mg8 2.880116 1_555
Fe0 Mo0 3.006329 1_545
Fe0 Mo0 3.006329 1_555
Fe0 Mg4 3.080428 1_445
Fe0 Mg2 3.080428 1_455
Fe0 Mg4 3.191009 1_555
Fe0 Mg2 3.191010 1_555
