# generated using pymatgen
data_MnCo2TeO6
_symmetry_space_group_name_H-M   'P 1'
_cell_length_a   6.19076300
_cell_length_b   6.20570041
_cell_length_c   6.23107606
_cell_angle_alpha   90.11285743
_cell_angle_beta   90.36944594
_cell_angle_gamma   90.31267840
_symmetry_Int_Tables_number   1
_chemical_formula_structural   MnCo2TeO6
_chemical_formula_sum   'Mn2 Co4 Te2 O12'
_cell_volume   239.37658542
_cell_formula_units_Z   2
loop_
 _symmetry_equiv_pos_site_id
 _symmetry_equiv_pos_as_xyz
  1  'x, y, z'
loop_
 _atom_site_type_symbol
 _atom_site_label
 _atom_site_symmetry_multiplicity
 _atom_site_fract_x
 _atom_site_fract_y
 _atom_site_fract_z
 _atom_site_occupancy
  Mn  Mn0  1  0.94626800  0.43657000  0.25146800  1
  Mn  Mn1  1  0.25234900  0.94664400  0.43588200  1
  Co  Co0  1  0.43685600  0.25750700  0.94568900  1
  Co  Co1  1  0.05345800  0.56476200  0.74379000  1
  Co  Co2  1  0.74214300  0.05336900  0.56699100  1
  Co  Co3  1  0.56307500  0.74321500  0.05321800  1
  Te  Te0  1  0.50371100  0.50065800  0.50413500  1
  Te  Te1  1  0.99859000  0.00018000  0.99696800  1
  O  O0  1  0.94915000  0.08682500  0.29610700  1
  O  O1  1  0.30081900  0.95413400  0.08536300  1
  O  O2  1  0.09504900  0.29852700  0.94640400  1
  O  O3  1  0.04261800  0.90676700  0.70156500  1
  O  O4  1  0.69832300  0.05071500  0.90586100  1
  O  O5  1  0.90625100  0.70264100  0.04403800  1
  O  O6  1  0.20153400  0.57018800  0.44111100  1
  O  O7  1  0.43753500  0.20039700  0.57412100  1
  O  O8  1  0.56428400  0.43570800  0.20131400  1
  O  O9  1  0.80134700  0.42594500  0.57398500  1
  O  O10  1  0.57611400  0.79777500  0.42825900  1
  O  O11  1  0.43052500  0.56747300  0.80373200  1
loop_
_geom_bond_atom_site_label_1
_geom_bond_atom_site_label_2
_geom_bond_distance
_geom_bond_site_symmetry_2
Mn0 O5 2.113533 1_555
Mn0 O6 2.130494 1_655
Mn0 O0 2.188861 1_555
Mn0 O9 2.207033 1_555
Mn0 O2 2.284804 1_654
Mn0 O8 2.383310 1_555
Mn1 O7 2.120907 1_565
Mn1 O3 2.124511 1_555
Mn1 O1 2.207088 1_555
Mn1 O10 2.212334 1_555
Mn1 O0 2.244614 1_465
Mn1 O6 2.355874 1_555
Co0 O8 2.085585 1_556
Co0 O4 2.086898 1_555
Co0 O11 2.119222 1_555
Co0 O2 2.132714 1_555
Co0 O1 2.238226 1_546
Co0 O7 2.341581 1_555
Co1 O9 2.063498 1_455
Co1 O2 2.097274 1_555
Co1 O6 2.102557 1_555
Co1 O3 2.140503 1_555
Co1 O5 2.255430 1_456
Co1 O11 2.361609 1_555
Co2 O10 2.070006 1_545
Co2 O7 2.100058 1_555
Co2 O4 2.130698 1_555
Co2 O0 2.135603 1_555
Co2 O3 2.234372 1_645
Co2 O9 2.339266 1_555
Co3 O11 2.060717 1_554
Co3 O1 2.101346 1_555
Co3 O8 2.121370 1_555
Co3 O5 2.141871 1_555
Co3 O4 2.277046 1_564
Co3 O10 2.361451 1_555
O0 Te1 1.965283 1_554
O1 Te1 1.969502 1_464
O2 Te1 1.968856 1_455
O3 Te1 1.949981 1_465
O4 Te1 1.967110 1_555
O5 Te1 1.953180 1_564
O6 Te0 1.959577 1_555
O7 Te0 1.956318 1_555
O8 Te0 1.967549 1_555
O9 Te0 1.949188 1_555
O10 Te0 1.954803 1_555
O11 Te0 1.967764 1_555
