# generated using pymatgen
data_CaNiBiO5
_symmetry_space_group_name_H-M   'P 1'
_cell_length_a   10.63317800
_cell_length_b   5.84738900
_cell_length_c   8.32152248
_cell_angle_alpha   72.79780301
_cell_angle_beta   90.00000000
_cell_angle_gamma   90.00000000
_symmetry_Int_Tables_number   1
_chemical_formula_structural   CaNiBiO5
_chemical_formula_sum   'Ca4 Ni4 Bi4 O20'
_cell_volume   494.25679251
_cell_formula_units_Z   4
loop_
 _symmetry_equiv_pos_site_id
 _symmetry_equiv_pos_as_xyz
  1  'x, y, z'
loop_
 _atom_site_type_symbol
 _atom_site_label
 _atom_site_symmetry_multiplicity
 _atom_site_fract_x
 _atom_site_fract_y
 _atom_site_fract_z
 _atom_site_occupancy
  Ca  Ca0  1  0.09360400  0.54114300  0.80658600  1
  Ca  Ca1  1  0.90639600  0.45885700  0.19341400  1
  Ca  Ca2  1  0.59360400  0.45885700  0.69341400  1
  Ca  Ca3  1  0.40639600  0.54114300  0.30658600  1
  Ni  Ni0  1  0.36850600  0.14409700  0.04508100  1
  Ni  Ni1  1  0.63149400  0.85590300  0.95491900  1
  Ni  Ni2  1  0.86850600  0.85590300  0.45491900  1
  Ni  Ni3  1  0.13149400  0.14409700  0.54508100  1
  Bi  Bi0  1  0.89977700  0.00698200  0.84338600  1
  Bi  Bi1  1  0.10022300  0.99301800  0.15661400  1
  Bi  Bi2  1  0.60022300  0.00698200  0.34338600  1
  Bi  Bi3  1  0.39977700  0.99301800  0.65661400  1
  O  O0  1  0.93310800  0.81407000  0.66552900  1
  O  O1  1  0.02472100  0.25933300  0.67736800  1
  O  O2  1  0.78390100  0.14492700  0.33457500  1
  O  O3  1  0.45699500  0.77853600  0.49146000  1
  O  O4  1  0.71414200  0.70524000  0.48307900  1
  O  O5  1  0.78585800  0.70524000  0.98307900  1
  O  O6  1  0.47527900  0.25933300  0.17736800  1
  O  O7  1  0.52472100  0.74066700  0.82263200  1
  O  O8  1  0.54300500  0.22146400  0.50854000  1
  O  O9  1  0.43310800  0.18593000  0.83447100  1
  O  O10  1  0.28585800  0.29476000  0.51692100  1
  O  O11  1  0.06689200  0.18593000  0.33447100  1
  O  O12  1  0.56689200  0.81407000  0.16552900  1
  O  O13  1  0.21414200  0.29476000  0.01692100  1
  O  O14  1  0.95699500  0.22146400  0.00854000  1
  O  O15  1  0.04300500  0.77853600  0.99146000  1
  O  O16  1  0.21609900  0.85507300  0.66542500  1
  O  O17  1  0.97527900  0.74066700  0.32263200  1
  O  O18  1  0.28390100  0.85507300  0.16542500  1
  O  O19  1  0.71609900  0.14492700  0.83457500  1
loop_
_geom_bond_atom_site_label_1
_geom_bond_atom_site_label_2
_geom_bond_distance
_geom_bond_site_symmetry_2
Ca0 O16 2.273905 1_555
Ca0 O13 2.300089 1_556
Ca0 O1 2.335854 1_555
Ca0 O0 2.393564 1_455
Ca0 O15 2.417913 1_555
Ca0 O14 2.563280 1_456
Ca1 O2 2.273905 1_555
Ca1 O5 2.300089 1_554
Ca1 O17 2.335854 1_555
Ca1 O11 2.393564 1_655
Ca1 O14 2.417913 1_555
Ca1 O15 2.563280 1_654
Ca2 O19 2.273905 1_555
Ca2 O4 2.300089 1_555
Ca2 O7 2.335854 1_555
Ca2 O9 2.393564 1_555
Ca2 O8 2.417913 1_555
Ca2 O3 2.563280 1_555
Ca3 O18 2.273905 1_555
Ca3 O10 2.300089 1_555
Ca3 O6 2.335854 1_555
Ca3 O12 2.393564 1_555
Ca3 O3 2.417913 1_555
Ca3 O8 2.563280 1_555
Ni0 O9 1.830223 1_554
Ni0 O6 1.842175 1_555
Ni0 O13 1.844740 1_555
Ni0 O18 1.915032 1_545
Ni1 O12 1.830223 1_556
Ni1 O7 1.842175 1_555
Ni1 O5 1.844740 1_555
Ni1 O19 1.915032 1_565
Ni2 O0 1.830223 1_555
Ni2 O17 1.842175 1_555
Ni2 O4 1.844740 1_555
Ni2 O2 1.915032 1_565
Ni3 O11 1.830223 1_555
Ni3 O1 1.842175 1_555
Ni3 O10 1.844740 1_555
Ni3 O16 1.915032 1_545
Bi0 O19 2.106075 1_555
Bi0 O0 2.139181 1_545
Bi0 O1 2.155283 1_655
Bi0 O15 2.156053 1_645
Bi0 O5 2.172223 1_545
Bi0 O14 2.202585 1_556
Bi1 O18 2.106075 1_555
Bi1 O11 2.139181 1_565
Bi1 O17 2.155283 1_455
Bi1 O14 2.156053 1_465
Bi1 O13 2.172223 1_565
Bi1 O15 2.202585 1_554
Bi2 O2 2.106075 1_555
Bi2 O12 2.139181 1_545
Bi2 O6 2.155283 1_555
Bi2 O3 2.156053 1_545
Bi2 O4 2.172223 1_545
Bi2 O8 2.202585 1_555
Bi3 O16 2.106075 1_555
Bi3 O9 2.139181 1_565
Bi3 O7 2.155283 1_555
Bi3 O8 2.156053 1_565
Bi3 O10 2.172223 1_565
Bi3 O3 2.202585 1_555
