# generated using pymatgen
data_Ca3SnF6
_symmetry_space_group_name_H-M   'P 1'
_cell_length_a   6.90656517
_cell_length_b   6.67637677
_cell_length_c   8.82059147
_cell_angle_alpha   77.50857424
_cell_angle_beta   136.33194092
_cell_angle_gamma   119.59846957
_symmetry_Int_Tables_number   1
_chemical_formula_structural   Ca3SnF6
_chemical_formula_sum   'Ca3 Sn1 F6'
_cell_volume   237.36027551
_cell_formula_units_Z   1
loop_
 _symmetry_equiv_pos_site_id
 _symmetry_equiv_pos_as_xyz
  1  'x, y, z'
loop_
 _atom_site_type_symbol
 _atom_site_label
 _atom_site_symmetry_multiplicity
 _atom_site_fract_x
 _atom_site_fract_y
 _atom_site_fract_z
 _atom_site_occupancy
  Ca  Ca0  1  0.00000000  0.00000000  0.50000000  1
  Ca  Ca1  1  0.50000000  0.50000000  0.00000000  1
  Ca  Ca2  1  0.00000000  0.50000000  0.00000000  1
  Sn  Sn0  1  0.00000000  0.00000000  0.00000000  1
  F  F0  1  0.07889100  0.54845300  0.78205900  1
  F  F1  1  0.92110900  0.45154700  0.21794100  1
  F  F2  1  0.97182900  0.99441700  0.72887600  1
  F  F3  1  0.02817100  0.00558300  0.27112400  1
  F  F4  1  0.45685000  0.33833500  0.75582100  1
  F  F5  1  0.54315000  0.66166500  0.24417900  1
loop_
_geom_bond_atom_site_label_1
_geom_bond_atom_site_label_2
_geom_bond_distance
_geom_bond_site_symmetry_2
Ca0 F2 2.154860 1_445
Ca0 F3 2.154860 1_555
Ca0 F4 2.239178 1_555
Ca0 F5 2.239178 1_445
Ca1 F1 2.197915 1_555
Ca1 F0 2.197915 1_554
Ca1 F5 2.377378 1_555
Ca1 F4 2.377378 1_554
Ca2 F1 2.273593 1_455
Ca2 F0 2.273593 1_554
Ca2 F4 2.278883 1_454
Ca2 F5 2.278883 1_555
F2 Sn0 2.262000 1_666
F3 Sn0 2.262000 1_555
