# generated using pymatgen
data_Y4US5O3
_symmetry_space_group_name_H-M   'P 1'
_cell_length_a   3.87076300
_cell_length_b   14.02180800
_cell_length_c   18.62557800
_cell_angle_alpha   90.00000000
_cell_angle_beta   90.00000000
_cell_angle_gamma   90.00000000
_symmetry_Int_Tables_number   1
_chemical_formula_structural   Y4US5O3
_chemical_formula_sum   'Y16 U4 S20 O12'
_cell_volume   1010.90502655
_cell_formula_units_Z   4
loop_
 _symmetry_equiv_pos_site_id
 _symmetry_equiv_pos_as_xyz
  1  'x, y, z'
loop_
 _atom_site_type_symbol
 _atom_site_label
 _atom_site_symmetry_multiplicity
 _atom_site_fract_x
 _atom_site_fract_y
 _atom_site_fract_z
 _atom_site_occupancy
  Y  Y0  1  0.50000000  0.86396500  0.33481500  1
  Y  Y1  1  0.50000000  0.36309200  0.16473200  1
  Y  Y2  1  0.00000000  0.63690800  0.66473200  1
  Y  Y3  1  0.00000000  0.13603500  0.83481500  1
  Y  Y4  1  0.50000000  0.86267500  0.95372800  1
  Y  Y5  1  0.50000000  0.36333900  0.54662800  1
  Y  Y6  1  0.00000000  0.63666100  0.04662800  1
  Y  Y7  1  0.00000000  0.13732500  0.45372800  1
  Y  Y8  1  0.50000000  0.10768300  0.65791900  1
  Y  Y9  1  0.50000000  0.60527100  0.84095100  1
  Y  Y10  1  0.00000000  0.39472900  0.34095100  1
  Y  Y11  1  0.00000000  0.89231700  0.15791900  1
  Y  Y12  1  0.50000000  0.59132100  0.27221200  1
  Y  Y13  1  0.00000000  0.40867900  0.77221200  1
  Y  Y14  1  0.50000000  0.85022200  0.56505600  1
  Y  Y15  1  0.00000000  0.14977800  0.06505600  1
  U  U0  1  0.50000000  0.09558900  0.22337800  1
  U  U1  1  0.00000000  0.90441100  0.72337800  1
  U  U2  1  0.50000000  0.34959600  0.93182800  1
  U  U3  1  0.00000000  0.65040400  0.43182800  1
  S  S0  1  0.50000000  0.97510000  0.83328600  1
  S  S1  1  0.50000000  0.47435100  0.66669100  1
  S  S2  1  0.00000000  0.52564900  0.16669100  1
  S  S3  1  0.00000000  0.02490000  0.33328600  1
  S  S4  1  0.50000000  0.76430300  0.08868400  1
  S  S5  1  0.50000000  0.26329800  0.41187100  1
  S  S6  1  0.00000000  0.73670200  0.91187100  1
  S  S7  1  0.00000000  0.23569700  0.58868400  1
  S  S8  1  0.50000000  0.03798200  0.51796400  1
  S  S9  1  0.50000000  0.53930900  0.98285400  1
  S  S10  1  0.00000000  0.46069100  0.48285400  1
  S  S11  1  0.00000000  0.96201800  0.01796400  1
  S  S12  1  0.50000000  0.15697700  0.94813400  1
  S  S13  1  0.50000000  0.65656700  0.54994600  1
  S  S14  1  0.00000000  0.34343300  0.04994600  1
  S  S15  1  0.00000000  0.84302300  0.44813400  1
  S  S16  1  0.50000000  0.24278700  0.76350900  1
  S  S17  1  0.50000000  0.74395400  0.73819200  1
  S  S18  1  0.00000000  0.25604600  0.23819200  1
  S  S19  1  0.00000000  0.75721300  0.26350900  1
  O  O0  1  0.50000000  0.93205400  0.21620100  1
  O  O1  1  0.50000000  0.42902100  0.28298900  1
  O  O2  1  0.00000000  0.57097900  0.78298900  1
  O  O3  1  0.00000000  0.06794600  0.71620100  1
  O  O4  1  0.50000000  0.94541400  0.66657400  1
  O  O5  1  0.50000000  0.44334900  0.83728200  1
  O  O6  1  0.00000000  0.55665100  0.33728200  1
  O  O7  1  0.00000000  0.05458600  0.16657400  1
  O  O8  1  0.50000000  0.17877900  0.12289500  1
  O  O9  1  0.50000000  0.68064100  0.38168100  1
  O  O10  1  0.00000000  0.31935900  0.88168100  1
  O  O11  1  0.00000000  0.82122100  0.62289500  1
loop_
_geom_bond_atom_site_label_1
_geom_bond_atom_site_label_2
_geom_bond_distance
_geom_bond_site_symmetry_2
S0 Y4 2.741796 1_555
S0 Y3 2.973004 1_565
S0 Y3 2.973004 1_665
S0 U1 2.986431 1_555
S0 U1 2.986431 1_655
S1 Y5 2.724656 1_555
S1 Y13 2.907990 1_555
S1 Y13 2.907990 1_655
S1 Y2 2.990391 1_555
S1 Y2 2.990391 1_655
S2 Y6 2.724656 1_555
S2 Y12 2.907990 1_455
S2 Y12 2.907990 1_555
S2 Y1 2.990391 1_555
S2 Y1 2.990391 1_455
S3 Y7 2.741796 1_555
S3 Y0 2.973004 1_545
S3 Y0 2.973004 1_445
S3 U0 2.986431 1_455
S3 U0 2.986431 1_555
S4 Y6 2.750013 1_555
S4 Y6 2.750013 1_655
S4 Y4 2.867223 1_554
S4 Y11 2.937788 1_655
S4 Y11 2.937788 1_555
S5 Y7 2.733780 1_655
S5 Y7 2.733780 1_555
S5 Y5 2.875319 1_555
S5 Y10 2.981078 1_555
S5 Y10 2.981078 1_655
S6 Y4 2.733780 1_455
S6 Y4 2.733780 1_555
S6 Y6 2.875319 1_556
S6 Y9 2.981078 1_555
S6 Y9 2.981078 1_455
S7 Y5 2.750013 1_555
S7 Y5 2.750013 1_455
S7 Y7 2.867223 1_555
S7 Y8 2.937788 1_455
S7 Y8 2.937788 1_555
S8 Y7 2.667867 1_655
S8 Y7 2.667867 1_555
S8 Y14 2.775000 1_545
S8 Y8 2.783934 1_555
S9 Y6 2.649528 1_656
S9 Y6 2.649528 1_556
S9 Y9 2.800185 1_555
S9 U2 2.824796 1_555
S10 Y5 2.649528 1_455
S10 Y5 2.649528 1_555
S10 Y10 2.800185 1_555
S10 U3 2.824796 1_555
S11 Y4 2.667867 1_554
S11 Y4 2.667867 1_454
S11 Y15 2.775000 1_565
S11 Y11 2.783934 1_555
S12 U2 2.717889 1_555
S12 Y3 2.878662 1_555
S12 Y3 2.878662 1_655
S12 Y15 2.915209 1_556
S12 Y15 2.915209 1_656
S13 Y14 2.729939 1_555
S13 Y2 2.896988 1_555
S13 Y2 2.896988 1_655
S13 U3 2.931423 1_555
S13 U3 2.931423 1_655
S14 Y15 2.729939 1_555
S14 Y1 2.896988 1_455
S14 Y1 2.896988 1_555
S14 U2 2.931423 1_454
S14 U2 2.931423 1_554
S15 U3 2.717889 1_555
S15 Y0 2.878662 1_555
S15 Y0 2.878662 1_455
S15 Y14 2.915209 1_555
S15 Y14 2.915209 1_455
S16 Y8 2.730672 1_555
S16 Y3 2.783913 1_555
S16 Y3 2.783913 1_655
S16 Y13 3.030305 1_655
S16 Y13 3.030305 1_555
S17 Y9 2.728480 1_555
S17 Y2 2.805478 1_655
S17 Y2 2.805478 1_555
S17 U1 2.980582 1_655
S17 U1 2.980582 1_555
S18 Y10 2.728480 1_555
S18 Y1 2.805478 1_555
S18 Y1 2.805478 1_455
S18 U0 2.980582 1_455
S18 U0 2.980582 1_555
S19 Y11 2.730672 1_555
S19 Y0 2.783913 1_455
S19 Y0 2.783913 1_555
S19 Y12 3.030305 1_455
S19 Y12 3.030305 1_555
O0 Y11 2.287913 1_655
O0 Y11 2.287913 1_555
O0 U0 2.296949 1_565
O0 Y0 2.406723 1_555
O1 Y10 2.267684 1_655
O1 Y10 2.267684 1_555
O1 Y12 2.284575 1_555
O1 Y1 2.388737 1_555
O2 Y9 2.267684 1_455
O2 Y9 2.267684 1_555
O2 Y13 2.284575 1_555
O2 Y2 2.388737 1_555
O3 Y8 2.287913 1_455
O3 Y8 2.287913 1_555
O3 U1 2.296949 1_545
O3 Y3 2.406723 1_555
O4 U1 2.279393 1_555
O4 U1 2.279393 1_655
O4 Y8 2.281008 1_565
O4 Y14 2.314484 1_555
O5 U2 2.197537 1_555
O5 Y9 2.271467 1_555
O5 Y13 2.334715 1_655
O5 Y13 2.334715 1_555
O6 U3 2.197537 1_555
O6 Y10 2.271467 1_555
O6 Y12 2.334715 1_455
O6 Y12 2.334715 1_555
O7 U0 2.279393 1_555
O7 U0 2.279393 1_455
O7 Y11 2.281008 1_545
O7 Y15 2.314484 1_555
O8 U0 2.205306 1_555
O8 Y15 2.252023 1_555
O8 Y15 2.252023 1_655
O8 Y1 2.699323 1_555
O9 U3 2.190399 1_555
O9 U3 2.190399 1_655
O9 Y12 2.392861 1_555
O9 Y0 2.714703 1_555
O10 U2 2.190399 1_555
O10 U2 2.190399 1_455
O10 Y13 2.392861 1_555
O10 Y3 2.714703 1_555
O11 U1 2.205306 1_555
O11 Y14 2.252023 1_555
O11 Y14 2.252023 1_455
O11 Y2 2.699323 1_555
