# generated using pymatgen
data_V3As2O9
_symmetry_space_group_name_H-M   'P 1'
_cell_length_a   9.07219000
_cell_length_b   9.07219000
_cell_length_c   4.78535500
_cell_angle_alpha   90.00000000
_cell_angle_beta   90.00000000
_cell_angle_gamma   90.00000000
_symmetry_Int_Tables_number   1
_chemical_formula_structural   V3As2O9
_chemical_formula_sum   'V6 As4 O18'
_cell_volume   393.85687937
_cell_formula_units_Z   2
loop_
 _symmetry_equiv_pos_site_id
 _symmetry_equiv_pos_as_xyz
  1  'x, y, z'
loop_
 _atom_site_type_symbol
 _atom_site_label
 _atom_site_symmetry_multiplicity
 _atom_site_fract_x
 _atom_site_fract_y
 _atom_site_fract_z
 _atom_site_occupancy
  V  V0  1  0.88324200  0.61675800  0.35507200  1
  V  V1  1  0.11675800  0.38324200  0.35507200  1
  V  V2  1  0.38324200  0.88324200  0.35507200  1
  V  V3  1  0.61675800  0.11675800  0.35507200  1
  V  V4  1  0.50000000  0.50000000  0.42997700  1
  V  V5  1  0.00000000  0.00000000  0.42997700  1
  As  As0  1  0.70003900  0.79996100  0.70870900  1
  As  As1  1  0.29996100  0.20003900  0.70870900  1
  As  As2  1  0.20003900  0.70003900  0.70870900  1
  As  As3  1  0.79996100  0.29996100  0.70870900  1
  O  O0  1  0.68211700  0.62024100  0.52963700  1
  O  O1  1  0.31788300  0.37975900  0.52963700  1
  O  O2  1  0.18211700  0.87975900  0.52963700  1
  O  O3  1  0.81788300  0.12024100  0.52963700  1
  O  O4  1  0.37975900  0.68211700  0.52963700  1
  O  O5  1  0.62024100  0.31788300  0.52963700  1
  O  O6  1  0.12024100  0.18211700  0.52963700  1
  O  O7  1  0.87975900  0.81788300  0.52963700  1
  O  O8  1  0.59689600  0.90310400  0.44089300  1
  O  O9  1  0.40310400  0.09689600  0.44089300  1
  O  O10  1  0.09689600  0.59689600  0.44089300  1
  O  O11  1  0.90310400  0.40310400  0.44089300  1
  O  O12  1  0.50000000  0.50000000  0.09001700  1
  O  O13  1  0.00000000  0.00000000  0.09001700  1
  O  O14  1  0.87081000  0.62919000  0.01205900  1
  O  O15  1  0.12919000  0.37081000  0.01205900  1
  O  O16  1  0.37081000  0.87081000  0.01205900  1
  O  O17  1  0.62919000  0.12919000  0.01205900  1
loop_
_geom_bond_atom_site_label_1
_geom_bond_atom_site_label_2
_geom_bond_distance
_geom_bond_site_symmetry_2
As0 O8 1.842194 1_555
As0 O0 1.849090 1_555
As0 O7 1.849090 1_555
As1 O9 1.842194 1_555
As1 O6 1.849090 1_555
As1 O1 1.849090 1_555
As2 O10 1.842194 1_555
As2 O2 1.849090 1_555
As2 O4 1.849090 1_555
As3 O11 1.842194 1_555
As3 O3 1.849090 1_555
As3 O5 1.849090 1_555
O0 V0 2.007024 1_555
O0 V4 2.036457 1_555
O1 V1 2.007024 1_555
O1 V4 2.036457 1_555
O2 V2 2.007024 1_555
O2 V5 2.036457 1_565
O3 V3 2.007024 1_555
O3 V5 2.036457 1_655
O4 V2 2.007024 1_555
O4 V4 2.036457 1_555
O5 V3 2.007024 1_555
O5 V4 2.036457 1_555
O6 V1 2.007024 1_555
O6 V5 2.036457 1_555
O7 V0 2.007024 1_555
O7 V5 2.036457 1_665
O8 V3 1.989516 1_565
O8 V2 1.989516 1_555
O9 V2 1.989516 1_545
O9 V3 1.989516 1_555
O10 V1 1.989516 1_555
O10 V0 1.989516 1_455
O11 V1 1.989516 1_655
O11 V0 1.989516 1_555
O12 V4 1.626829 1_555
O13 V5 1.626829 1_555
O14 V0 1.649170 1_555
O15 V1 1.649170 1_555
O16 V2 1.649170 1_555
O17 V3 1.649170 1_555
