# generated using pymatgen
data_Mg16Al12Pt
_symmetry_space_group_name_H-M   'P 1'
_cell_length_a   9.25813793
_cell_length_b   9.00683425
_cell_length_c   9.00683453
_cell_angle_alpha   108.89912766
_cell_angle_beta   110.03741724
_cell_angle_gamma   110.03742214
_symmetry_Int_Tables_number   1
_chemical_formula_structural   Mg16Al12Pt
_chemical_formula_sum   'Mg16 Al12 Pt1'
_cell_volume   574.06838057
_cell_formula_units_Z   1
loop_
 _symmetry_equiv_pos_site_id
 _symmetry_equiv_pos_as_xyz
  1  'x, y, z'
loop_
 _atom_site_type_symbol
 _atom_site_label
 _atom_site_symmetry_multiplicity
 _atom_site_fract_x
 _atom_site_fract_y
 _atom_site_fract_z
 _atom_site_occupancy
  Mg  Mg0  1  0.56993500  0.25958600  0.99999900  1
  Mg  Mg1  1  0.31769400  0.59104300  0.99999900  1
  Mg  Mg2  1  0.00203200  0.35290600  0.00000000  1
  Mg  Mg3  1  0.98703000  0.00000100  0.00000100  1
  Mg  Mg4  1  0.56993400  0.99999900  0.25958700  1
  Mg  Mg5  1  0.68143100  0.67331700  0.27334200  1
  Mg  Mg6  1  0.00811400  0.60002600  0.32668200  1
  Mg  Mg7  1  0.00203200  0.00000000  0.35290600  1
  Mg  Mg8  1  0.40808900  0.72665700  0.39997500  1
  Mg  Mg9  1  0.72665300  0.40895700  0.40895700  1
  Mg  Mg10  1  0.31769400  0.99999900  0.59104300  1
  Mg  Mg11  1  0.00811500  0.32668200  0.60002500  1
  Mg  Mg12  1  0.64912500  0.64709300  0.64709300  1
  Mg  Mg13  1  0.68143100  0.27334300  0.67331700  1
  Mg  Mg14  1  0.40809000  0.39997500  0.72665700  1
  Mg  Mg15  1  0.31034800  0.74041200  0.74041200  1
  Al  Al0  1  0.65235000  0.80968900  0.99999900  1
  Al  Al1  1  0.81314700  0.61145400  0.99999900  1
  Al  Al2  1  0.18318900  0.81660800  0.17982400  1
  Al  Al3  1  0.36658200  0.36321600  0.18339100  1
  Al  Al4  1  0.84266000  0.19031000  0.19031100  1
  Al  Al5  1  0.36658200  0.18339100  0.36321600  1
  Al  Al6  1  0.20169300  0.38854600  0.38854500  1
  Al  Al7  1  0.81314600  0.00000000  0.61145500  1
  Al  Al8  1  0.00336600  0.82017600  0.63678500  1
  Al  Al9  1  0.65234900  0.99999900  0.80968900  1
  Al  Al10  1  0.18318900  0.17982300  0.81660800  1
  Al  Al11  1  0.00336600  0.63678500  0.82017500  1
  Pt  Pt0  1  0.27062300  0.99999900  0.00000000  1
loop_
_geom_bond_atom_site_label_1
_geom_bond_atom_site_label_2
_geom_bond_distance
_geom_bond_site_symmetry_2
Mg0 Pt0 2.950523 1_546
Mg0 Mg10 3.045075 1_545
Mg0 Mg9 3.045087 1_556
Mg0 Mg14 3.269903 1_555
Mg0 Mg5 3.269909 1_556
Mg0 Mg13 3.459521 1_555
Mg0 Mg6 3.459530 1_656
Mg1 Mg2 2.974174 1_556
Mg1 Mg15 3.045075 1_555
Mg1 Mg4 3.045075 1_556
Mg1 Mg5 3.062247 1_556
Mg1 Mg14 3.062250 1_555
Mg1 Mg11 3.090842 1_555
Mg1 Mg8 3.090858 1_556
Mg2 Mg6 3.028670 1_555
Mg2 Mg3 3.133689 1_455
Mg3 Pt0 2.625552 1_645
Mg3 Mg7 3.133689 1_655
Mg4 Pt0 2.950511 1_555
Mg4 Mg9 3.045087 1_565
Mg4 Mg8 3.269895 1_555
Mg4 Mg5 3.459523 1_555
Mg5 Mg7 3.028672 1_665
Mg5 Mg9 3.090854 1_555
Mg5 Mg6 3.223647 1_655
Mg5 Mg8 3.223648 1_555
Mg6 Mg9 3.062239 1_455
Mg6 Mg8 3.223650 1_555
Mg10 Mg7 2.974174 1_565
Mg10 Mg15 3.045075 1_555
Mg10 Mg8 3.062244 1_555
Mg10 Mg13 3.062250 1_565
Mg10 Mg6 3.090839 1_555
Mg10 Mg14 3.090856 1_565
Mg11 Mg7 3.028661 1_555
Mg11 Mg9 3.062243 1_455
Mg11 Mg14 3.223649 1_555
Mg11 Mg13 3.223662 1_455
Mg11 Mg15 3.269898 1_555
Mg11 Mg4 3.459537 1_445
Mg12 Mg9 2.974179 1_555
Mg12 Mg14 3.028657 1_555
Mg12 Mg8 3.028662 1_555
Mg12 Mg3 3.133711 1_566
Mg13 Mg2 3.028676 1_656
Mg13 Mg9 3.090848 1_555
Mg13 Mg14 3.223634 1_555
Mg13 Mg4 3.269901 1_545
Mg14 Mg15 3.459523 1_555
Mg15 Pt0 2.950523 1_556
Mg15 Mg6 3.269904 1_555
Mg15 Mg8 3.459517 1_555
Al0 Al1 2.688031 1_555
Al0 Al9 2.789182 1_555
Al0 Al4 2.789190 1_566
Al0 Mg15 2.917080 1_555
Al0 Mg4 2.917093 1_556
Al0 Mg3 2.983171 1_566
Al0 Mg12 3.022974 1_555
Al0 Mg7 3.022982 1_666
Al0 Mg1 3.049005 1_555
Al0 Mg14 3.061645 1_555
Al0 Mg5 3.061653 1_556
Al1 Al2 2.774037 1_656
Al1 Al11 2.774045 1_655
Al1 Mg13 2.934331 1_555
Al1 Mg6 2.934336 1_656
Al1 Mg14 3.081060 1_555
Al1 Mg5 3.081075 1_556
Al1 Mg12 3.193686 1_555
Al1 Mg7 3.193694 1_666
Al1 Mg0 3.197485 1_555
Al1 Mg3 3.313296 1_566
Al1 Mg2 3.357299 1_656
Al2 Al5 2.687785 1_565
Al2 Pt0 2.778866 1_555
Al2 Mg8 2.879400 1_555
Al2 Mg6 3.025905 1_555
Al2 Mg1 3.047233 1_554
Al2 Mg10 3.076325 1_555
Al2 Mg4 3.079035 1_555
Al2 Mg7 3.161257 1_565
Al2 Mg3 3.228440 1_465
Al3 Al5 2.635514 1_555
Al3 Al6 2.774045 1_555
Al3 Pt0 2.778877 1_545
Al3 Mg5 2.879384 1_555
Al3 Mg8 3.025917 1_555
Al3 Mg9 3.047239 1_555
Al3 Mg1 3.076327 1_554
Al3 Mg0 3.079038 1_554
Al3 Mg2 3.161264 1_555
Al3 Mg3 3.228441 1_455
Al4 Al6 2.688038 1_655
Al4 Al9 2.789197 1_544
Al4 Mg0 2.917080 1_554
Al4 Mg4 2.917084 1_545
Al4 Mg3 2.983172 1_555
Al4 Mg7 3.022974 1_655
Al4 Mg2 3.022986 1_655
Al4 Mg9 3.048988 1_555
Al4 Mg11 3.061644 1_655
Al4 Mg6 3.061662 1_655
Al5 Al6 2.774052 1_555
Al5 Pt0 2.778870 1_545
Al5 Mg13 2.879381 1_555
Al5 Mg14 3.025913 1_555
Al5 Mg9 3.047239 1_555
Al5 Mg10 3.076327 1_545
Al5 Mg4 3.079027 1_545
Al5 Mg7 3.161264 1_555
Al5 Mg3 3.228441 1_455
Al6 Mg8 2.934329 1_555
Al6 Mg14 2.934344 1_555
Al6 Mg11 3.081069 1_555
Al6 Mg6 3.081075 1_555
Al6 Mg2 3.193682 1_555
Al6 Mg7 3.193694 1_555
Al6 Mg15 3.197473 1_555
Al6 Mg3 3.313284 1_455
Al6 Mg12 3.357291 1_555
Al7 Al9 2.688023 1_545
Al7 Al8 2.774052 1_645
Al7 Mg11 2.934344 1_655
Al7 Mg5 2.934349 1_545
Al7 Mg8 3.081061 1_545
Al7 Mg13 3.081067 1_555
Al7 Mg2 3.193684 1_656
Al7 Mg12 3.193687 1_545
Al7 Mg4 3.197480 1_545
Al7 Mg3 3.313294 1_556
Al7 Mg7 3.357313 1_655
Al8 Pt0 2.778865 1_556
Al8 Mg6 2.879398 1_555
Al8 Mg5 3.025928 1_455
Al8 Mg10 3.047225 1_555
Al8 Mg9 3.076323 1_455
Al8 Mg15 3.079040 1_555
Al8 Mg12 3.161265 1_455
Al8 Mg3 3.228443 1_466
Al9 Mg15 2.917073 1_555
Al9 Mg0 2.917073 1_565
Al9 Mg3 2.983179 1_566
Al9 Mg12 3.022978 1_555
Al9 Mg2 3.022987 1_666
Al9 Mg10 3.048998 1_555
Al9 Mg8 3.061645 1_555
Al9 Mg13 3.061660 1_565
Al10 Al8 2.635492 1_545
Al10 Al3 2.687785 1_556
Al10 Al7 2.774045 1_455
Al10 Pt0 2.778872 1_546
Al10 Mg14 2.879410 1_555
Al10 Mg11 3.025914 1_555
Al10 Mg10 3.047229 1_545
Al10 Mg1 3.076333 1_555
Al10 Mg0 3.079043 1_555
Al10 Mg2 3.161262 1_556
Al10 Mg3 3.228435 1_456
Al11 Al2 2.635507 1_556
Al11 Al8 2.687770 1_555
Al11 Pt0 2.778857 1_556
Al11 Mg11 2.879403 1_555
Al11 Mg13 3.025925 1_455
Al11 Mg1 3.047227 1_555
Al11 Mg9 3.076317 1_455
Al11 Mg15 3.079034 1_555
Al11 Mg12 3.161264 1_455
Al11 Mg3 3.228445 1_466
