# generated using pymatgen
data_BaSr7Ti7MnO20
_symmetry_space_group_name_H-M   'P 1'
_cell_length_a   11.33235952
_cell_length_b   11.39236440
_cell_length_c   17.85599978
_cell_angle_alpha   108.61337317
_cell_angle_beta   108.49517588
_cell_angle_gamma   89.97057839
_symmetry_Int_Tables_number   1
_chemical_formula_structural   BaSr7Ti7MnO20
_chemical_formula_sum   'Ba4 Sr28 Ti28 Mn4 O80'
_cell_volume   2058.77957779
_cell_formula_units_Z   4
loop_
 _symmetry_equiv_pos_site_id
 _symmetry_equiv_pos_as_xyz
  1  'x, y, z'
loop_
 _atom_site_type_symbol
 _atom_site_label
 _atom_site_symmetry_multiplicity
 _atom_site_fract_x
 _atom_site_fract_y
 _atom_site_fract_z
 _atom_site_occupancy
  Ba  Ba0  1  0.31105200  0.06092600  0.12413400  1
  Ba  Ba1  1  0.31093900  0.56404700  0.12274100  1
  Ba  Ba2  1  0.81138700  0.06367200  0.12425100  1
  Ba  Ba3  1  0.06095400  0.80964700  0.12293000  1
  Sr  Sr0  1  0.30254000  0.05863800  0.60489500  1
  Sr  Sr1  1  0.30440900  0.56140200  0.60894800  1
  Sr  Sr2  1  0.80172100  0.05904900  0.60572800  1
  Sr  Sr3  1  0.80760000  0.55856000  0.11429400  1
  Sr  Sr4  1  0.80218100  0.56635400  0.60673400  1
  Sr  Sr5  1  0.19444900  0.44095200  0.38543200  1
  Sr  Sr6  1  0.19622800  0.43895900  0.88981800  1
  Sr  Sr7  1  0.19134600  0.93677400  0.38038500  1
  Sr  Sr8  1  0.20063500  0.93832500  0.89447300  1
  Sr  Sr9  1  0.69072700  0.43967600  0.38269700  1
  Sr  Sr10  1  0.68992400  0.43574500  0.88838000  1
  Sr  Sr11  1  0.68889800  0.93833000  0.37879500  1
  Sr  Sr12  1  0.69613100  0.94297600  0.89567600  1
  Sr  Sr13  1  0.05874700  0.30874400  0.11677500  1
  Sr  Sr14  1  0.05653500  0.29806300  0.60961800  1
  Sr  Sr15  1  0.05722500  0.79323700  0.60567700  1
  Sr  Sr16  1  0.55934700  0.30753700  0.11634300  1
  Sr  Sr17  1  0.55082000  0.29492000  0.60895400  1
  Sr  Sr18  1  0.55962500  0.80301100  0.11615600  1
  Sr  Sr19  1  0.55132300  0.79520400  0.60342700  1
  Sr  Sr20  1  0.43950800  0.19041200  0.38340100  1
  Sr  Sr21  1  0.44727000  0.20245000  0.89250700  1
  Sr  Sr22  1  0.44121200  0.69364900  0.38123500  1
  Sr  Sr23  1  0.44486400  0.70166000  0.88941100  1
  Sr  Sr24  1  0.94440700  0.19699700  0.38357500  1
  Sr  Sr25  1  0.94507200  0.20112300  0.89154700  1
  Sr  Sr26  1  0.94328300  0.69360300  0.38429200  1
  Sr  Sr27  1  0.94559600  0.70879800  0.89268500  1
  Ti  Ti0  1  0.00172700  0.00456600  0.00225300  1
  Ti  Ti1  1  0.99763400  0.99597900  0.49428200  1
  Ti  Ti2  1  0.00113400  0.50064400  0.00258500  1
  Ti  Ti3  1  0.00151100  0.50009800  0.50181700  1
  Ti  Ti4  1  0.50035200  0.00042600  0.99955300  1
  Ti  Ti5  1  0.49970100  0.99626100  0.49620100  1
  Ti  Ti6  1  0.49999500  0.49869900  0.99642900  1
  Ti  Ti7  1  0.50230400  0.49849700  0.50087700  1
  Ti  Ti8  1  0.25299400  0.25144900  0.00371500  1
  Ti  Ti9  1  0.25147700  0.25111000  0.50129000  1
  Ti  Ti10  1  0.25022800  0.74851300  0.99777200  1
  Ti  Ti11  1  0.25099100  0.74970600  0.49852000  1
  Ti  Ti12  1  0.75275200  0.25188800  0.00290900  1
  Ti  Ti13  1  0.74948900  0.24884400  0.49520900  1
  Ti  Ti14  1  0.74851700  0.74736200  0.99644400  1
  Ti  Ti15  1  0.74989700  0.75036500  0.49489600  1
  Ti  Ti16  1  0.12218500  0.11542800  0.25396100  1
  Ti  Ti17  1  0.10908900  0.08449300  0.74920500  1
  Ti  Ti18  1  0.11958400  0.61069300  0.25200000  1
  Ti  Ti19  1  0.62527700  0.11112200  0.25143000  1
  Ti  Ti20  1  0.60081700  0.08958900  0.74897900  1
  Ti  Ti21  1  0.62032000  0.61380000  0.25002900  1
  Ti  Ti22  1  0.37313800  0.38910600  0.25276900  1
  Ti  Ti23  1  0.37497900  0.88733000  0.25233900  1
  Ti  Ti24  1  0.86761500  0.39512000  0.25243000  1
  Ti  Ti25  1  0.85270900  0.41268400  0.74873400  1
  Ti  Ti26  1  0.87184700  0.88197000  0.25056300  1
  Ti  Ti27  1  0.84958600  0.90972400  0.74915800  1
  Mn  Mn0  1  0.11054900  0.59274200  0.74962100  1
  Mn  Mn1  1  0.60482500  0.60387400  0.74855900  1
  Mn  Mn2  1  0.35557100  0.40498700  0.74886500  1
  Mn  Mn3  1  0.36461700  0.90180000  0.74912700  1
  O  O0  1  0.12084400  0.12028900  0.49077700  1
  O  O1  1  0.12145500  0.12319800  0.99215400  1
  O  O2  1  0.12199700  0.62157000  0.49215400  1
  O  O3  1  0.12069400  0.62093000  0.99137300  1
  O  O4  1  0.62339500  0.12376600  0.49537700  1
  O  O5  1  0.62295400  0.12582200  0.99774900  1
  O  O6  1  0.62108300  0.62012000  0.48854000  1
  O  O7  1  0.62370900  0.62195700  0.99408200  1
  O  O8  1  0.12316600  0.37245700  0.00062900  1
  O  O9  1  0.12805400  0.37743100  0.50533600  1
  O  O10  1  0.12587300  0.87692000  0.00126600  1
  O  O11  1  0.12823600  0.87703600  0.50555500  1
  O  O12  1  0.62915200  0.37772100  0.00568300  1
  O  O13  1  0.63107200  0.37781300  0.50802600  1
  O  O14  1  0.62742300  0.87647200  0.00706800  1
  O  O15  1  0.62883700  0.87734500  0.50416100  1
  O  O16  1  0.37154700  0.11928800  0.49094200  1
  O  O17  1  0.37222300  0.12213200  0.99303900  1
  O  O18  1  0.37178100  0.61902600  0.48994100  1
  O  O19  1  0.37520800  0.62262300  0.99489500  1
  O  O20  1  0.87321900  0.12155700  0.49532500  1
  O  O21  1  0.87407600  0.12596800  0.99529800  1
  O  O22  1  0.87327100  0.62304200  0.49495000  1
  O  O23  1  0.86971200  0.61733200  0.98954500  1
  O  O24  1  0.37980000  0.37626800  0.00424100  1
  O  O25  1  0.38078700  0.37880000  0.50696900  1
  O  O26  1  0.38046400  0.87870800  0.00558400  1
  O  O27  1  0.37675800  0.87550500  0.50288400  1
  O  O28  1  0.87384200  0.37504200  0.99872500  1
  O  O29  1  0.87969700  0.37998400  0.50789000  1
  O  O30  1  0.87687400  0.87862200  0.00414300  1
  O  O31  1  0.88213200  0.88090800  0.51084800  1
  O  O32  1  0.06562600  0.08276800  0.13180700  1
  O  O33  1  0.08412700  0.09244600  0.64311500  1
  O  O34  1  0.05676300  0.56531800  0.12690900  1
  O  O35  1  0.06922400  0.58435900  0.62736800  1
  O  O36  1  0.56398000  0.08301700  0.13225400  1
  O  O37  1  0.56941600  0.07561800  0.63365900  1
  O  O38  1  0.57199700  0.57764400  0.13108100  1
  O  O39  1  0.57268000  0.58574400  0.62519500  1
  O  O40  1  0.43498900  0.41178000  0.37072900  1
  O  O41  1  0.44599700  0.41912200  0.87352700  1
  O  O42  1  0.43840800  0.91927300  0.37278300  1
  O  O43  1  0.44421200  0.92170500  0.87207200  1
  O  O44  1  0.93525100  0.42371600  0.37158200  1
  O  O45  1  0.93602100  0.39942100  0.85266900  1
  O  O46  1  0.93078100  0.91598300  0.37236000  1
  O  O47  1  0.92864300  0.92270000  0.86333100  1
  O  O48  1  0.31385100  0.30680500  0.12973200  1
  O  O49  1  0.32043100  0.29198100  0.62473800  1
  O  O50  1  0.31796000  0.80884300  0.12989000  1
  O  O51  1  0.32026700  0.79602600  0.62679700  1
  O  O52  1  0.81871100  0.31233500  0.12960800  1
  O  O53  1  0.83191000  0.29571300  0.64425700  1
  O  O54  1  0.81399600  0.79594400  0.13022000  1
  O  O55  1  0.81385100  0.80477300  0.63585600  1
  O  O56  1  0.18705100  0.20841200  0.37211800  1
  O  O57  1  0.18801800  0.19774100  0.85590300  1
  O  O58  1  0.18311900  0.69902000  0.37130600  1
  O  O59  1  0.19293800  0.70588200  0.87139500  1
  O  O60  1  0.69096100  0.20315600  0.37276500  1
  O  O61  1  0.68196200  0.18928800  0.86452600  1
  O  O62  1  0.69465600  0.70418400  0.37131500  1
  O  O63  1  0.69168000  0.70735500  0.87254000  1
  O  O64  1  0.49797500  0.01261400  0.25986500  1
  O  O65  1  0.43586400  0.07545200  0.74830300  1
  O  O66  1  0.49011400  0.51434800  0.25811000  1
  O  O67  1  0.42654700  0.57252600  0.74860300  1
  O  O68  1  0.99682400  0.00594500  0.25822100  1
  O  O69  1  0.94545400  0.05305700  0.74823800  1
  O  O70  1  0.97335300  0.52603500  0.25206600  1
  O  O71  1  0.92106500  0.55983500  0.74937400  1
  O  O72  1  0.23128500  0.48670600  0.25273800  1
  O  O73  1  0.17453900  0.42516500  0.74949400  1
  O  O74  1  0.24752500  0.00114100  0.25741300  1
  O  O75  1  0.17928600  0.93912300  0.74970600  1
  O  O76  1  0.72202500  0.46849400  0.25169500  1
  O  O77  1  0.69205200  0.43749900  0.74849700  1
  O  O78  1  0.73957300  0.98948500  0.25140900  1
  O  O79  1  0.68033800  0.93653800  0.74927500  1
loop_
_geom_bond_atom_site_label_1
_geom_bond_atom_site_label_2
_geom_bond_distance
_geom_bond_site_symmetry_2
Ba0 O26 2.767423 1_545
Ba0 O48 2.770693 1_555
Ba0 O10 2.785511 1_545
Ba0 O36 2.830839 1_555
Ba0 O32 2.834671 1_555
Ba0 O64 2.873511 1_555
Ba0 O50 2.906396 1_545
Ba0 O17 2.918595 1_554
Ba0 O1 2.920036 1_554
Ba0 O74 2.961071 1_555
Ba1 O50 2.750743 1_555
Ba1 O24 2.796221 1_555
Ba1 O66 2.836303 1_555
Ba1 O8 2.840656 1_555
Ba1 O19 2.866152 1_554
Ba1 O3 2.886297 1_554
Ba1 O34 2.904791 1_555
Ba1 O38 2.916256 1_555
Ba1 O48 2.972520 1_555
Ba1 O72 3.100807 1_555
Ba2 O14 2.767843 1_545
Ba2 O30 2.777872 1_545
Ba2 O52 2.804168 1_555
Ba2 O32 2.846350 1_655
Ba2 O5 2.850022 1_554
Ba2 O36 2.857133 1_555
Ba2 O68 2.895598 1_555
Ba2 O21 2.896856 1_554
Ba2 O78 2.988307 1_545
Ba2 O54 3.085530 1_545
Ba3 O30 2.779040 1_455
Ba3 O34 2.807777 1_555
Ba3 O10 2.815222 1_555
Ba3 O54 2.849231 1_455
Ba3 O50 2.875613 1_555
Ba3 O3 2.895210 1_554
Ba3 O74 2.904351 1_565
Ba3 O23 2.927208 1_454
Ba3 O68 3.004764 1_465
Ba3 O32 3.064201 1_565
Mn0 O73 2.041414 1_555
Mn0 O59 2.045770 1_555
Mn0 O35 2.052333 1_555
Mn0 O71 2.178354 1_455
Mn1 O67 2.052102 1_555
Mn1 O63 2.052371 1_555
Mn1 O39 2.056252 1_555
Mn1 O77 2.137077 1_555
Mn2 O73 2.067411 1_555
Mn2 O67 2.073555 1_555
Mn2 O49 2.085068 1_555
Mn2 O41 2.086885 1_555
Mn3 O51 2.024793 1_555
Mn3 O43 2.027437 1_555
Mn3 O65 2.143260 1_565
Mn3 O75 2.145216 1_555
O0 Ti1 2.018190 1_445
O0 Ti9 2.023684 1_555
O0 Sr24 2.657709 1_455
O0 Sr0 2.671200 1_555
O0 Sr7 2.694706 1_545
O0 Sr14 2.715140 1_555
O1 Ti0 2.003164 1_556
O1 Ti8 2.003464 1_556
O1 Sr25 2.597824 1_455
O1 Sr8 2.632329 1_545
O1 Sr13 2.814941 1_556
O2 Ti11 2.017815 1_555
O2 Ti3 2.028040 1_555
O2 Sr15 2.623810 1_555
O2 Sr26 2.648958 1_455
O2 Sr5 2.650918 1_555
O2 Sr1 2.695953 1_555
O3 Ti10 2.017475 1_555
O3 Ti2 2.025536 1_556
O3 Sr6 2.627140 1_555
O3 Sr27 2.636327 1_455
O4 Ti13 2.019867 1_555
O4 Ti5 2.025814 1_545
O4 Sr2 2.628598 1_555
O4 Sr17 2.668991 1_555
O4 Sr20 2.690863 1_555
O4 Sr11 2.742041 1_545
O5 Ti4 2.007977 1_555
O5 Ti12 2.016542 1_556
O5 Sr12 2.623406 1_545
O5 Sr21 2.632295 1_555
O5 Sr16 2.730914 1_556
O6 Ti15 2.033487 1_555
O6 Ti7 2.040850 1_555
O6 Sr9 2.623955 1_555
O6 Sr22 2.659462 1_555
O6 Sr4 2.667778 1_555
O6 Sr19 2.688317 1_555
O7 Ti14 1.992248 1_555
O7 Ti6 2.003977 1_555
O7 Sr10 2.639442 1_555
O7 Sr23 2.665236 1_555
O7 Sr3 2.760789 1_556
O7 Sr18 2.768732 1_556
O8 Ti2 2.010548 1_555
O8 Ti8 2.015702 1_555
O8 Sr25 2.599999 1_454
O8 Sr6 2.677964 1_554
O8 Sr13 2.698682 1_555
O9 Ti3 2.002532 1_555
O9 Ti9 2.007031 1_555
O9 Sr14 2.640969 1_555
O9 Sr1 2.644382 1_555
O9 Sr24 2.750325 1_455
O9 Sr5 2.772247 1_555
O10 Ti0 2.022751 1_565
O10 Ti10 2.031058 1_554
O10 Sr8 2.592408 1_554
O10 Sr27 2.592608 1_454
O11 Ti11 2.011873 1_555
O11 Ti1 2.012508 1_455
O11 Sr15 2.599651 1_555
O11 Sr0 2.601336 1_565
O11 Sr26 2.772202 1_455
O11 Sr7 2.820579 1_555
O12 Ti12 2.003998 1_555
O12 Ti6 2.014685 1_554
O12 Sr3 2.657150 1_555
O12 Sr10 2.664201 1_554
O12 Sr21 2.665506 1_554
O12 Sr16 2.677744 1_555
O13 Ti13 1.997522 1_555
O13 Ti7 2.006930 1_555
O13 Sr4 2.626658 1_555
O13 Sr17 2.663426 1_555
O13 Sr9 2.815837 1_555
O13 Sr20 2.851259 1_555
O14 Ti14 2.016820 1_554
O14 Ti4 2.020405 1_564
O14 Sr18 2.660020 1_555
O14 Sr12 2.661129 1_554
O14 Sr23 2.689929 1_554
O15 Ti5 1.996499 1_555
O15 Ti15 1.997826 1_555
O15 Sr2 2.601132 1_565
O15 Sr19 2.614677 1_555
O15 Sr22 2.798136 1_555
O15 Sr11 2.813709 1_555
O16 Ti5 2.019345 1_545
O16 Ti9 2.030063 1_555
O16 Sr20 2.620919 1_555
O16 Sr0 2.671460 1_555
O16 Sr17 2.677271 1_555
O16 Sr7 2.686454 1_545
O17 Ti8 2.003603 1_556
O17 Ti4 2.009480 1_555
O17 Sr8 2.596872 1_545
O17 Sr21 2.607840 1_555
O17 Sr16 2.807040 1_556
O18 Ti7 2.024161 1_555
O18 Ti11 2.024581 1_555
O18 Sr5 2.616225 1_555
O18 Sr19 2.658286 1_555
O18 Sr22 2.670682 1_555
O18 Sr1 2.729432 1_555
O19 Ti6 1.997929 1_555
O19 Ti10 2.015571 1_555
O19 Sr23 2.647294 1_555
O19 Sr6 2.663839 1_555
O19 Sr18 2.751735 1_556
O20 Ti1 2.008106 1_545
O20 Ti13 2.016634 1_555
O20 Sr2 2.638176 1_555
O20 Sr14 2.686775 1_655
O20 Sr24 2.736396 1_555
O20 Sr11 2.743021 1_545
O21 Ti12 1.989653 1_556
O21 Ti0 2.003620 1_656
O21 Sr25 2.602175 1_555
O21 Sr12 2.633995 1_545
O21 Sr13 2.767962 1_656
O22 Ti15 2.014118 1_555
O22 Ti3 2.020702 1_655
O22 Sr4 2.625603 1_555
O22 Sr15 2.637466 1_655
O22 Sr26 2.681250 1_555
O22 Sr9 2.713224 1_555
O23 Ti2 2.003751 1_656
O23 Ti14 2.021047 1_555
O23 Sr27 2.628987 1_555
O23 Sr10 2.641499 1_555
O23 Sr3 2.802301 1_556
O24 Ti6 2.016645 1_554
O24 Ti8 2.017954 1_555
O24 Sr21 2.632599 1_554
O24 Sr16 2.678570 1_555
O24 Sr6 2.691746 1_554
O25 Ti7 1.989803 1_555
O25 Ti9 2.021760 1_555
O25 Sr17 2.612458 1_555
O25 Sr1 2.640542 1_555
O25 Sr5 2.782436 1_555
O25 Sr20 2.797219 1_555
O26 Ti4 1.992568 1_564
O26 Ti10 2.034013 1_554
O26 Sr8 2.616122 1_554
O26 Sr23 2.681794 1_554
O26 Sr18 2.702935 1_555
O27 Ti11 1.987871 1_555
O27 Ti5 2.014976 1_555
O27 Sr19 2.601287 1_555
O27 Sr0 2.631018 1_565
O27 Sr22 2.770617 1_555
O27 Sr7 2.782759 1_555
O28 Ti12 1.997748 1_556
O28 Ti2 2.002293 1_656
O28 Sr25 2.607245 1_555
O28 Sr10 2.639566 1_555
O28 Sr3 2.723984 1_556
O28 Sr13 2.759862 1_656
O29 Ti3 1.995365 1_655
O29 Ti13 2.008710 1_555
O29 Sr14 2.637661 1_655
O29 Sr4 2.642777 1_555
O29 Sr24 2.808578 1_555
O29 Sr9 2.824412 1_555
O30 Ti14 2.028538 1_554
O30 Ti0 2.031000 1_665
O30 Sr27 2.614244 1_554
O30 Sr12 2.621445 1_554
O31 Ti15 1.999887 1_555
O31 Ti1 2.003555 1_555
O31 Sr2 2.569435 1_565
O31 Sr15 2.597645 1_655
O31 Sr26 2.837954 1_555
O31 Sr11 2.913813 1_555
O32 Ti16 1.975350 1_555
O32 Ti0 2.071654 1_555
O32 Sr13 2.670821 1_555
O33 Ti17 1.856427 1_555
O33 Ti1 2.390644 1_445
O33 Sr14 2.591842 1_555
O33 Sr0 2.764652 1_555
O33 Sr2 3.052234 1_455
O34 Ti2 1.984145 1_555
O34 Ti18 2.004385 1_555
O34 Sr3 2.759535 1_455
O34 Sr13 2.870881 1_555
O35 Ti3 2.017846 1_555
O35 Sr15 2.526989 1_555
O35 Sr1 2.789339 1_555
O35 Sr4 2.929312 1_455
O35 Sr14 3.173445 1_555
O36 Ti19 1.934139 1_555
O36 Ti4 2.124451 1_554
O36 Sr16 2.660860 1_555
O36 Sr18 3.109107 1_545
O37 Ti20 1.928219 1_555
O37 Ti5 2.195398 1_545
O37 Sr17 2.669246 1_555
O37 Sr2 2.826156 1_555
O37 Sr0 2.898186 1_555
O37 Sr19 3.060780 1_545
O38 Ti21 1.919500 1_555
O38 Ti6 2.152024 1_554
O38 Sr18 2.663692 1_555
O38 Sr3 2.780512 1_555
O38 Sr16 3.003045 1_555
O39 Ti7 2.005175 1_555
O39 Sr19 2.536854 1_555
O39 Sr4 2.723676 1_555
O39 Sr1 2.965381 1_555
O40 Ti22 1.926315 1_555
O40 Ti7 2.090210 1_555
O40 Sr20 2.602040 1_555
O40 Sr5 2.829707 1_555
O40 Sr9 2.847876 1_555
O40 Sr22 3.155784 1_555
O41 Ti6 1.972529 1_555
O41 Sr21 2.595955 1_555
O41 Sr10 2.692717 1_555
O41 Sr6 2.937179 1_555
O41 Sr23 3.140162 1_555
O42 Ti23 1.947888 1_555
O42 Ti5 1.975816 1_555
O42 Sr22 2.622061 1_555
O42 Sr11 2.812289 1_555
O42 Sr7 2.849615 1_555
O42 Sr20 3.033510 1_565
O43 Ti4 2.041861 1_565
O43 Sr23 2.621851 1_555
O43 Sr12 2.749286 1_555
O43 Sr8 2.909764 1_555
O43 Sr21 3.100142 1_565
O44 Ti24 1.934782 1_555
O44 Ti3 2.080846 1_655
O44 Sr24 2.658295 1_555
O44 Sr9 2.841910 1_555
O44 Sr5 2.869898 1_655
O44 Sr26 3.009154 1_555
O45 Ti25 1.850845 1_555
O45 Ti2 2.411883 1_656
O45 Sr25 2.559611 1_555
O45 Sr6 2.812067 1_655
O45 Sr10 3.051920 1_555
O46 Ti1 1.957491 1_555
O46 Ti26 1.966409 1_555
O46 Sr26 2.609368 1_555
O46 Sr11 2.787851 1_555
O46 Sr7 2.916567 1_655
O46 Sr24 3.143984 1_565
O47 Ti27 1.905162 1_555
O47 Ti0 2.220267 1_666
O47 Sr27 2.645914 1_555
O47 Sr12 2.865203 1_555
O47 Sr8 2.948132 1_655
O47 Sr25 3.044728 1_565
O48 Ti22 1.976440 1_555
O48 Ti8 2.011610 1_555
O48 Sr13 2.826719 1_555
O48 Sr16 2.867107 1_555
O49 Ti9 1.984607 1_555
O49 Sr0 2.566528 1_555
O49 Sr17 2.714786 1_555
O49 Sr14 2.919014 1_555
O49 Sr1 3.170600 1_555
O50 Ti23 1.963117 1_555
O50 Ti10 2.107972 1_554
O50 Sr18 2.824922 1_555
O51 Ti11 2.056506 1_555
O51 Sr1 2.588190 1_555
O51 Sr19 2.778669 1_555
O51 Sr15 2.882385 1_555
O51 Sr0 3.136947 1_565
O52 Ti24 1.978735 1_555
O52 Ti12 2.020950 1_555
O52 Sr13 2.800517 1_655
O52 Sr16 2.871974 1_555
O52 Sr3 2.902856 1_555
O53 Ti25 1.856329 1_555
O53 Ti13 2.399334 1_555
O53 Sr2 2.554833 1_555
O53 Sr14 2.805807 1_655
O54 Ti26 1.941732 1_555
O54 Ti14 2.143537 1_554
O54 Sr3 2.626005 1_555
O54 Sr18 2.816461 1_555
O55 Ti27 1.903450 1_555
O55 Ti15 2.256512 1_555
O55 Sr4 2.592394 1_555
O55 Sr19 2.839936 1_555
O55 Sr15 2.968431 1_655
O55 Sr2 3.106005 1_565
O56 Ti16 1.924559 1_555
O56 Ti9 2.074932 1_555
O56 Sr5 2.582101 1_555
O56 Sr20 2.815610 1_555
O56 Sr24 2.827370 1_455
O56 Sr7 3.144455 1_545
O57 Ti17 1.856141 1_555
O57 Ti8 2.370484 1_556
O57 Sr6 2.613294 1_555
O57 Sr21 2.796610 1_555
O57 Sr25 3.013697 1_455
O58 Ti18 1.930912 1_555
O58 Ti11 2.034588 1_555
O58 Sr7 2.661155 1_555
O58 Sr26 2.802454 1_455
O58 Sr22 2.875308 1_555
O58 Sr5 3.029222 1_555
O59 Ti10 2.029969 1_555
O59 Sr8 2.543730 1_555
O59 Sr23 2.771894 1_555
O59 Sr27 2.944510 1_455
O59 Sr6 3.160262 1_555
O60 Ti13 1.960835 1_555
O60 Ti19 1.968473 1_555
O60 Sr9 2.643322 1_555
O60 Sr24 2.819234 1_555
O60 Sr20 2.922070 1_555
O60 Sr11 3.053430 1_545
O61 Ti20 1.921953 1_555
O61 Ti12 2.208135 1_556
O61 Sr10 2.699139 1_555
O61 Sr21 2.853155 1_555
O61 Sr25 2.861365 1_555
O61 Sr12 3.024638 1_545
O62 Ti21 1.969763 1_555
O62 Ti15 1.980113 1_555
O62 Sr11 2.629724 1_555
O62 Sr26 2.758617 1_555
O62 Sr22 2.937949 1_555
O62 Sr9 3.085535 1_555
O63 Ti14 1.992469 1_555
O63 Sr12 2.580232 1_555
O63 Sr27 2.783714 1_555
O63 Sr23 2.909546 1_555
O63 Sr10 3.196448 1_555
O64 Ti19 1.900187 1_555
O64 Ti23 1.938745 1_545
O64 Sr20 2.735193 1_555
O64 Sr11 2.852609 1_545
O64 Sr18 3.162107 1_545
O65 Ti20 1.872203 1_555
O65 Sr0 2.471670 1_555
O65 Sr21 2.480119 1_555
O66 Ti22 1.907088 1_555
O66 Ti21 1.929476 1_555
O66 Sr22 2.686657 1_555
O66 Sr9 2.972949 1_555
O66 Sr16 3.166297 1_555
O67 Sr1 2.399768 1_555
O67 Sr23 2.415964 1_555
O68 Ti16 1.926297 1_655
O68 Ti26 1.942998 1_545
O68 Sr24 2.798660 1_555
O68 Sr7 2.878088 1_645
O69 Ti17 1.882463 1_655
O69 Ti27 1.969059 1_545
O69 Sr2 2.571796 1_555
O69 Sr25 2.577800 1_555
O70 Ti24 1.916560 1_555
O70 Ti18 1.918307 1_655
O70 Sr26 2.639583 1_555
O70 Sr3 2.714205 1_555
O70 Sr5 3.251726 1_655
O71 Ti25 1.842278 1_555
O71 Sr4 2.500255 1_555
O71 Sr27 2.506487 1_555
O72 Ti18 1.896615 1_555
O72 Ti22 1.954086 1_555
O72 Sr5 2.734240 1_555
O72 Sr13 2.770882 1_555
O72 Sr22 3.093813 1_555
O73 Sr14 2.386916 1_555
O73 Sr6 2.391908 1_555
O74 Ti16 1.926218 1_555
O74 Ti23 1.944631 1_545
O74 Sr7 2.771239 1_545
O74 Sr20 2.871697 1_555
O75 Ti17 1.838255 1_565
O75 Sr15 2.511267 1_555
O75 Sr8 2.521676 1_555
O76 Ti24 1.847391 1_555
O76 Ti21 2.019227 1_555
O76 Sr9 2.592690 1_555
O76 Sr16 2.636237 1_555
O77 Ti25 1.841182 1_555
O77 Sr17 2.509453 1_555
O77 Sr10 2.511935 1_555
O78 Ti19 1.896324 1_565
O78 Ti26 1.935997 1_555
O78 Sr11 2.741992 1_555
O78 Sr18 2.847591 1_555
O78 Sr24 3.084636 1_565
O79 Ti27 1.942549 1_555
O79 Ti20 1.963046 1_565
O79 Sr19 2.534209 1_555
O79 Sr12 2.540060 1_555
