# generated using pymatgen
data_Ho2B3O8
_symmetry_space_group_name_H-M   'P 1'
_cell_length_a   4.36236100
_cell_length_b   8.89492800
_cell_length_c   12.89263200
_cell_angle_alpha   90.00000000
_cell_angle_beta   90.00000000
_cell_angle_gamma   90.00000000
_symmetry_Int_Tables_number   1
_chemical_formula_structural   Ho2B3O8
_chemical_formula_sum   'Ho8 B12 O32'
_cell_volume   500.27134269
_cell_formula_units_Z   4
loop_
 _symmetry_equiv_pos_site_id
 _symmetry_equiv_pos_as_xyz
  1  'x, y, z'
loop_
 _atom_site_type_symbol
 _atom_site_label
 _atom_site_symmetry_multiplicity
 _atom_site_fract_x
 _atom_site_fract_y
 _atom_site_fract_z
 _atom_site_occupancy
  Ho  Ho0  1  0.95036100  0.03788500  0.13897800  1
  Ho  Ho1  1  0.54963900  0.53788500  0.36102200  1
  Ho  Ho2  1  0.54963900  0.96211500  0.63897800  1
  Ho  Ho3  1  0.95036100  0.46211500  0.86102200  1
  Ho  Ho4  1  0.04963900  0.96211500  0.86102200  1
  Ho  Ho5  1  0.45036100  0.46211500  0.63897800  1
  Ho  Ho6  1  0.45036100  0.03788500  0.36102200  1
  Ho  Ho7  1  0.04963900  0.53788500  0.13897800  1
  B  B0  1  0.56257500  0.75000000  0.00000000  1
  B  B1  1  0.93742500  0.25000000  0.50000000  1
  B  B2  1  0.43742500  0.25000000  0.00000000  1
  B  B3  1  0.06257500  0.75000000  0.50000000  1
  B  B4  1  0.97865700  0.80333700  0.30681900  1
  B  B5  1  0.52134300  0.30333700  0.19318100  1
  B  B6  1  0.52134300  0.19666300  0.80681900  1
  B  B7  1  0.97865700  0.69666300  0.69318100  1
  B  B8  1  0.02134300  0.19666300  0.69318100  1
  B  B9  1  0.47865700  0.69666300  0.80681900  1
  B  B10  1  0.47865700  0.80333700  0.19318100  1
  B  B11  1  0.02134300  0.30333700  0.30681900  1
  O  O0  1  0.96299100  0.96504400  0.31126100  1
  O  O1  1  0.53700900  0.46504400  0.18873900  1
  O  O2  1  0.53700900  0.03495600  0.81126100  1
  O  O3  1  0.96299100  0.53495600  0.68873900  1
  O  O4  1  0.03700900  0.03495600  0.68873900  1
  O  O5  1  0.46299100  0.53495600  0.81126100  1
  O  O6  1  0.46299100  0.96504400  0.18873900  1
  O  O7  1  0.03700900  0.46504400  0.31126100  1
  O  O8  1  0.79573100  0.74681100  0.21565600  1
  O  O9  1  0.70426900  0.24681100  0.28434400  1
  O  O10  1  0.70426900  0.25318900  0.71565600  1
  O  O11  1  0.79573100  0.75318900  0.78434400  1
  O  O12  1  0.20426900  0.25318900  0.78434400  1
  O  O13  1  0.29573100  0.75318900  0.71565600  1
  O  O14  1  0.29573100  0.74681100  0.28434400  1
  O  O15  1  0.20426900  0.24681100  0.21565600  1
  O  O16  1  0.36328800  0.76001200  0.90602700  1
  O  O17  1  0.13671200  0.26001200  0.59397300  1
  O  O18  1  0.13671200  0.23998800  0.40602700  1
  O  O19  1  0.36328800  0.73998800  0.09397300  1
  O  O20  1  0.63671200  0.23998800  0.09397300  1
  O  O21  1  0.86328800  0.73998800  0.40602700  1
  O  O22  1  0.86328800  0.76001200  0.59397300  1
  O  O23  1  0.63671200  0.26001200  0.90602700  1
  O  O24  1  0.77766500  0.62211900  0.99563300  1
  O  O25  1  0.72233500  0.12211900  0.50436700  1
  O  O26  1  0.72233500  0.37788100  0.49563300  1
  O  O27  1  0.77766500  0.87788100  0.00436700  1
  O  O28  1  0.22233500  0.37788100  0.00436700  1
  O  O29  1  0.27766500  0.87788100  0.49563300  1
  O  O30  1  0.27766500  0.62211900  0.50436700  1
  O  O31  1  0.22233500  0.12211900  0.99563300  1
loop_
_geom_bond_atom_site_label_1
_geom_bond_atom_site_label_2
_geom_bond_distance
_geom_bond_site_symmetry_2
Ho0 O6 2.313356 1_545
Ho0 O0 2.314406 1_545
Ho0 O31 2.320452 1_654
Ho0 O20 2.332482 1_555
Ho0 O27 2.367498 1_545
Ho0 O15 2.378600 1_655
Ho0 O6 2.415019 1_645
Ho1 O7 2.313356 1_655
Ho1 O1 2.314406 1_555
Ho1 O30 2.320452 1_555
Ho1 O21 2.332482 1_555
Ho1 O26 2.367498 1_555
Ho1 O14 2.378600 1_555
Ho1 O7 2.415019 1_555
Ho2 O4 2.313356 1_665
Ho2 O2 2.314406 1_565
Ho2 O29 2.320452 1_555
Ho2 O22 2.332482 1_555
Ho2 O25 2.367498 1_565
Ho2 O13 2.378600 1_555
Ho2 O4 2.415019 1_565
Ho3 O5 2.313356 1_555
Ho3 O3 2.314406 1_555
Ho3 O28 2.320452 1_656
Ho3 O23 2.332482 1_555
Ho3 O24 2.367498 1_555
Ho3 O12 2.378600 1_655
Ho3 O5 2.415019 1_655
Ho4 O2 2.313356 1_565
Ho4 O4 2.314406 1_565
Ho4 O27 2.320452 1_456
Ho4 O16 2.332482 1_555
Ho4 O31 2.367498 1_565
Ho4 O11 2.378600 1_455
Ho4 O2 2.415019 1_465
Ho5 O3 2.313356 1_455
Ho5 O5 2.314406 1_555
Ho5 O26 2.320452 1_555
Ho5 O17 2.332482 1_555
Ho5 O30 2.367498 1_555
Ho5 O10 2.378600 1_555
Ho5 O3 2.415019 1_555
Ho6 O0 2.313356 1_445
Ho6 O6 2.314406 1_545
Ho6 O25 2.320452 1_555
Ho6 O18 2.332482 1_555
Ho6 O29 2.367498 1_545
Ho6 O9 2.378600 1_555
Ho6 O0 2.415019 1_545
Ho7 O1 2.313356 1_555
Ho7 O7 2.314406 1_555
Ho7 O24 2.320452 1_454
Ho7 O19 2.332482 1_555
Ho7 O28 2.367498 1_555
Ho7 O8 2.378600 1_455
Ho7 O1 2.415019 1_455
B0 O27 1.475624 1_555
B0 O24 1.475624 1_554
B0 O16 1.493853 1_554
B0 O19 1.493853 1_555
B1 O25 1.475624 1_555
B1 O26 1.475624 1_555
B1 O18 1.493853 1_655
B1 O17 1.493853 1_655
B2 O28 1.475624 1_555
B2 O31 1.475624 1_554
B2 O23 1.493853 1_554
B2 O20 1.493853 1_555
B3 O29 1.475624 1_555
B3 O30 1.475624 1_555
B3 O21 1.493853 1_455
B3 O22 1.493853 1_455
B4 O0 1.441133 1_555
B4 O21 1.485524 1_555
B4 O14 1.499994 1_655
B4 O8 1.506981 1_555
B5 O1 1.441133 1_555
B5 O20 1.485524 1_555
B5 O15 1.499994 1_555
B5 O9 1.506981 1_555
B6 O2 1.441133 1_555
B6 O23 1.485524 1_555
B6 O12 1.499994 1_555
B6 O10 1.506981 1_555
B7 O3 1.441133 1_555
B7 O22 1.485524 1_555
B7 O13 1.499994 1_655
B7 O11 1.506981 1_555
B8 O4 1.441133 1_555
B8 O17 1.485524 1_555
B8 O10 1.499994 1_455
B8 O12 1.506981 1_555
B9 O5 1.441133 1_555
B9 O16 1.485524 1_555
B9 O11 1.499994 1_555
B9 O13 1.506981 1_555
B10 O6 1.441133 1_555
B10 O19 1.485524 1_555
B10 O8 1.499994 1_555
B10 O14 1.506981 1_555
B11 O7 1.441133 1_555
B11 O18 1.485524 1_555
B11 O9 1.499994 1_455
B11 O15 1.506981 1_555
