# generated using pymatgen
data_YTiF5
_symmetry_space_group_name_H-M   'P 1'
_cell_length_a   5.85309497
_cell_length_b   5.85309497
_cell_length_c   5.85309497
_cell_angle_alpha   138.04237152
_cell_angle_beta   107.08651555
_cell_angle_gamma   87.85349410
_symmetry_Int_Tables_number   1
_chemical_formula_structural   YTiF5
_chemical_formula_sum   'Y1 Ti1 F5'
_cell_volume   122.89692830
_cell_formula_units_Z   1
loop_
 _symmetry_equiv_pos_site_id
 _symmetry_equiv_pos_as_xyz
  1  'x, y, z'
loop_
 _atom_site_type_symbol
 _atom_site_label
 _atom_site_symmetry_multiplicity
 _atom_site_fract_x
 _atom_site_fract_y
 _atom_site_fract_z
 _atom_site_occupancy
  Y  Y0  1  0.50000000  0.50000000  0.00000000  1
  Ti  Ti0  1  0.00000000  0.00000000  0.00000000  1
  F  F0  1  0.81898100  0.50000000  0.31898100  1
  F  F1  1  0.18101900  0.50000000  0.68101900  1
  F  F2  1  0.23915000  0.23915000  0.00000000  1
  F  F3  1  0.76085000  0.76085000  0.00000000  1
  F  F4  1  0.50000000  0.00000000  0.50000000  1
loop_
_geom_bond_atom_site_label_1
_geom_bond_atom_site_label_2
_geom_bond_distance
_geom_bond_site_symmetry_2
F0 Y0 2.218832 1_555
F0 Ti0 2.444749 1_655
F0 Ti0 2.444749 1_666
F1 Y0 2.218832 1_556
F1 Ti0 2.444749 1_566
F1 Ti0 2.444749 1_555
F2 Ti0 2.016302 1_555
F2 Y0 2.199257 1_555
F3 Ti0 2.016302 1_665
F3 Y0 2.199257 1_555
F4 Y0 2.095541 1_556
F4 Y0 2.095541 1_545
