# generated using pymatgen
data_PrTl(MoO4)2
_symmetry_space_group_name_H-M   'P 1'
_cell_length_a   5.19739743
_cell_length_b   8.28062285
_cell_length_c   18.56349573
_cell_angle_alpha   90.00000000
_cell_angle_beta   90.00000000
_cell_angle_gamma   90.00000000
_symmetry_Int_Tables_number   1
_chemical_formula_structural   PrTl(MoO4)2
_chemical_formula_sum   'Pr4 Tl4 Mo8 O32'
_cell_volume   798.92993592
_cell_formula_units_Z   4
loop_
 _symmetry_equiv_pos_site_id
 _symmetry_equiv_pos_as_xyz
  1  'x, y, z'
loop_
 _atom_site_type_symbol
 _atom_site_label
 _atom_site_symmetry_multiplicity
 _atom_site_fract_x
 _atom_site_fract_y
 _atom_site_fract_z
 _atom_site_occupancy
  Pr  Pr0  1  0.50000000  0.75000000  0.50814552  1
  Pr  Pr1  1  0.00000000  0.25000000  0.99185448  1
  Pr  Pr2  1  0.50000000  0.25000000  0.49185448  1
  Pr  Pr3  1  0.00000000  0.75000000  0.00814552  1
  Tl  Tl0  1  0.00000000  0.75000000  0.76816139  1
  Tl  Tl1  1  0.50000000  0.25000000  0.73183861  1
  Tl  Tl2  1  0.00000000  0.25000000  0.23183861  1
  Tl  Tl3  1  0.50000000  0.75000000  0.26816139  1
  Mo  Mo0  1  0.48285023  0.51973563  0.89644989  1
  Mo  Mo1  1  0.98285023  0.48026437  0.60355011  1
  Mo  Mo2  1  0.01714977  0.01973563  0.60355011  1
  Mo  Mo3  1  0.51714977  0.98026437  0.89644989  1
  Mo  Mo4  1  0.51714977  0.48026437  0.10355011  1
  Mo  Mo5  1  0.01714977  0.51973563  0.39644989  1
  Mo  Mo6  1  0.98285023  0.98026437  0.39644989  1
  Mo  Mo7  1  0.48285023  0.01973563  0.10355011  1
  O  O0  1  0.60982139  0.52863996  0.81071923  1
  O  O1  1  0.10982139  0.47136004  0.68928077  1
  O  O2  1  0.89017861  0.02863996  0.68928077  1
  O  O3  1  0.39017861  0.97136004  0.81071923  1
  O  O4  1  0.39017861  0.47136004  0.18928077  1
  O  O5  1  0.89017861  0.52863996  0.31071923  1
  O  O6  1  0.10982139  0.97136004  0.31071923  1
  O  O7  1  0.60982139  0.02863996  0.18928077  1
  O  O8  1  0.74453697  0.49889834  0.96209903  1
  O  O9  1  0.24453697  0.50110166  0.53790097  1
  O  O10  1  0.75546303  0.99889834  0.53790097  1
  O  O11  1  0.25546303  0.00110166  0.96209903  1
  O  O12  1  0.25546303  0.50110166  0.03790097  1
  O  O13  1  0.75546303  0.49889834  0.46209903  1
  O  O14  1  0.24453697  0.00110166  0.46209903  1
  O  O15  1  0.74453697  0.99889834  0.03790097  1
  O  O16  1  0.28454000  0.84714884  0.10242779  1
  O  O17  1  0.78454000  0.15285116  0.39757221  1
  O  O18  1  0.21546000  0.34714884  0.39757221  1
  O  O19  1  0.71546000  0.65285116  0.10242779  1
  O  O20  1  0.71546000  0.15285116  0.89757221  1
  O  O21  1  0.21546000  0.84714884  0.60242779  1
  O  O22  1  0.78454000  0.65285116  0.60242779  1
  O  O23  1  0.28454000  0.34714884  0.89757221  1
  O  O24  1  0.26585508  0.18601311  0.09346137  1
  O  O25  1  0.76585508  0.81398689  0.40653863  1
  O  O26  1  0.23414492  0.68601311  0.40653863  1
  O  O27  1  0.73414492  0.31398689  0.09346137  1
  O  O28  1  0.73414492  0.81398689  0.90653863  1
  O  O29  1  0.23414492  0.18601311  0.59346137  1
  O  O30  1  0.76585508  0.31398689  0.59346137  1
  O  O31  1  0.26585508  0.68601311  0.90653863  1
loop_
_geom_bond_atom_site_label_1
_geom_bond_atom_site_label_2
_geom_bond_distance
_geom_bond_site_symmetry_2
Mo0 O0 1.724435 1_555
Mo0 O23 1.762150 1_555
Mo0 O31 1.789646 1_555
Mo0 O8 1.834337 1_555
Mo1 O1 1.724435 1_655
Mo1 O22 1.762150 1_555
Mo1 O30 1.789646 1_555
Mo1 O9 1.834337 1_655
Mo2 O2 1.724435 1_455
Mo2 O21 1.762150 1_545
Mo2 O29 1.789646 1_555
Mo2 O10 1.834337 1_445
Mo3 O3 1.724435 1_555
Mo3 O20 1.762150 1_565
Mo3 O28 1.789646 1_555
Mo3 O11 1.834337 1_565
Mo4 O4 1.724435 1_555
Mo4 O19 1.762150 1_555
Mo4 O27 1.789646 1_555
Mo4 O12 1.834337 1_555
Mo5 O5 1.724435 1_455
Mo5 O18 1.762150 1_555
Mo5 O26 1.789646 1_555
Mo5 O13 1.834337 1_455
Mo6 O6 1.724435 1_655
Mo6 O17 1.762150 1_565
Mo6 O25 1.789646 1_555
Mo6 O14 1.834337 1_665
Mo7 O7 1.724435 1_555
Mo7 O16 1.762150 1_545
Mo7 O24 1.789646 1_555
Mo7 O15 1.834337 1_545
O0 Tl1 2.791713 1_555
O0 Tl0 2.845427 1_655
O1 Tl0 2.791713 1_555
O1 Tl1 2.845427 1_555
O2 Tl0 2.791713 1_645
O2 Tl1 2.845427 1_555
O3 Tl1 2.791713 1_565
O3 Tl0 2.845427 1_555
O4 Tl3 2.791713 1_555
O4 Tl2 2.845427 1_555
O5 Tl2 2.791713 1_655
O5 Tl3 2.845427 1_555
O6 Tl2 2.791713 1_565
O6 Tl3 2.845427 1_555
O7 Tl3 2.791713 1_545
O7 Tl2 2.845427 1_655
O8 Pr1 2.513139 1_655
O8 Pr3 2.610930 1_656
O9 Pr0 2.513139 1_555
O9 Pr2 2.610930 1_555
O10 Pr0 2.513139 1_555
O10 Pr2 2.610930 1_565
O11 Pr1 2.513139 1_555
O11 Pr3 2.610930 1_546
O12 Pr3 2.513139 1_555
O12 Pr1 2.610930 1_554
O13 Pr2 2.513139 1_555
O13 Pr0 2.610930 1_555
O14 Pr2 2.513139 1_555
O14 Pr0 2.610930 1_545
O15 Pr3 2.513139 1_655
O15 Pr1 2.610930 1_664
O16 Pr3 2.428461 1_555
O17 Pr2 2.428461 1_555
O18 Pr2 2.428461 1_555
O19 Pr3 2.428461 1_655
O20 Pr1 2.428461 1_655
O21 Pr0 2.428461 1_555
O22 Pr0 2.428461 1_555
O23 Pr1 2.428461 1_555
O24 Pr1 2.397428 1_554
O25 Pr0 2.397428 1_555
O26 Pr0 2.397428 1_555
O27 Pr1 2.397428 1_654
O28 Pr3 2.397428 1_656
O29 Pr2 2.397428 1_555
O30 Pr2 2.397428 1_555
O31 Pr3 2.397428 1_556
