# generated using pymatgen
data_Li4FeP6(H4O11)2
_symmetry_space_group_name_H-M   'P 1'
_cell_length_a   6.97712200
_cell_length_b   7.48706536
_cell_length_c   8.58943721
_cell_angle_alpha   84.91560032
_cell_angle_beta   76.34997373
_cell_angle_gamma   86.03634038
_symmetry_Int_Tables_number   1
_chemical_formula_structural   Li4FeP6(H4O11)2
_chemical_formula_sum   'Li4 Fe1 P6 H8 O22'
_cell_volume   433.76850050
_cell_formula_units_Z   1
loop_
 _symmetry_equiv_pos_site_id
 _symmetry_equiv_pos_as_xyz
  1  'x, y, z'
loop_
 _atom_site_type_symbol
 _atom_site_label
 _atom_site_symmetry_multiplicity
 _atom_site_fract_x
 _atom_site_fract_y
 _atom_site_fract_z
 _atom_site_occupancy
  Li  Li0  1  0.92743600  0.64839000  0.41875100  1
  Li  Li1  1  0.68371900  0.55373400  0.75876500  1
  Li  Li2  1  0.31628100  0.44626600  0.24123500  1
  Li  Li3  1  0.07256400  0.35161000  0.58124900  1
  Fe  Fe0  1  0.00000000  0.00000000  0.00000000  1
  P  P0  1  0.77966400  0.97927900  0.69407300  1
  P  P1  1  0.55712200  0.78937000  0.16749300  1
  P  P2  1  0.34357900  0.70935700  0.49329600  1
  P  P3  1  0.65642100  0.29064300  0.50670400  1
  P  P4  1  0.44287800  0.21063000  0.83250700  1
  P  P5  1  0.22033600  0.02072100  0.30592700  1
  H  H0  1  0.26472200  0.76132900  0.81209500  1
  H  H1  1  0.27546700  0.73131700  0.99430900  1
  H  H2  1  0.97688600  0.61414300  0.12001100  1
  H  H3  1  0.03693300  0.58663800  0.81659600  1
  H  H4  1  0.96306700  0.41336200  0.18340400  1
  H  H5  1  0.02311400  0.38585700  0.87998900  1
  H  H6  1  0.72453300  0.26868300  0.00569100  1
  H  H7  1  0.73527800  0.23867100  0.18790500  1
  O  O0  1  0.43852200  0.98339400  0.18779900  1
  O  O1  1  0.24599200  0.91009700  0.47283600  1
  O  O2  1  0.80429700  0.78508000  0.66170900  1
  O  O3  1  0.06896800  0.93360500  0.24224100  1
  O  O4  1  0.76795700  0.82000200  0.08600900  1
  O  O5  1  0.18299100  0.77310200  0.92438400  1
  O  O6  1  0.54867900  0.72087900  0.35508600  1
  O  O7  1  0.39784700  0.68305000  0.65167000  1
  O  O8  1  0.44803200  0.65978400  0.09981700  1
  O  O9  1  0.98289100  0.47437200  0.80073000  1
  O  O10  1  0.21075700  0.57731500  0.45192800  1
  O  O11  1  0.78924300  0.42268500  0.54807200  1
  O  O12  1  0.01710900  0.52562800  0.19927000  1
  O  O13  1  0.55196800  0.34021600  0.90018300  1
  O  O14  1  0.60215300  0.31695000  0.34833000  1
  O  O15  1  0.45132100  0.27912100  0.64491400  1
  O  O16  1  0.81700900  0.22689800  0.07561600  1
  O  O17  1  0.23204300  0.17999800  0.91399100  1
  O  O18  1  0.93103200  0.06639500  0.75775900  1
  O  O19  1  0.19570300  0.21492000  0.33829100  1
  O  O20  1  0.75400800  0.08990300  0.52716400  1
  O  O21  1  0.56147800  0.01660600  0.81220100  1
loop_
_geom_bond_atom_site_label_1
_geom_bond_atom_site_label_2
_geom_bond_distance
_geom_bond_site_symmetry_2
Li0 O10 2.089392 1_655
Li0 O11 2.099101 1_555
Li0 O12 2.112158 1_655
Li0 O2 2.356120 1_555
Li0 O3 2.616264 1_655
Li1 O2 2.004350 1_555
Li1 O13 2.051355 1_555
Li1 O11 2.089471 1_555
Li1 O9 2.232879 1_555
Li1 O7 2.490587 1_555
Li2 O19 2.004350 1_555
Li2 O8 2.051355 1_555
Li2 O10 2.089471 1_555
Li2 O12 2.232879 1_555
Li2 O14 2.490587 1_555
Li3 O11 2.089392 1_455
Li3 O10 2.099101 1_555
Li3 O9 2.112158 1_455
Li3 O19 2.356120 1_555
Li3 O18 2.616264 1_455
Fe0 O5 2.107650 1_544
Fe0 O16 2.107650 1_455
Fe0 O17 2.131606 1_554
Fe0 O4 2.131606 1_445
Fe0 O3 2.250377 1_545
Fe0 O18 2.250377 1_454
H0 O5 1.005852 1_555
H0 O7 1.602745 1_555
H1 O5 0.998305 1_555
H1 O8 1.702230 1_556
H2 O12 0.982814 1_655
H3 O9 0.977563 1_455
H4 O12 0.977563 1_655
H5 O9 0.982814 1_455
H6 O16 0.998305 1_555
H6 O13 1.702230 1_554
H7 O16 1.005852 1_555
H7 O14 1.602745 1_555
O0 P1 1.623580 1_555
O0 P5 1.639350 1_565
O1 P2 1.619115 1_555
O1 P5 1.632044 1_565
O2 P0 1.495132 1_555
O3 P5 1.507043 1_565
O4 P1 1.496201 1_555
O6 P2 1.631455 1_555
O6 P1 1.635756 1_555
O7 P2 1.489294 1_555
O8 P1 1.506466 1_555
O10 P2 1.518796 1_555
O11 P3 1.518796 1_555
O13 P4 1.506466 1_555
O14 P3 1.489294 1_555
O15 P3 1.631455 1_555
O15 P4 1.635756 1_555
O17 P4 1.496201 1_555
O18 P0 1.507043 1_545
O19 P5 1.495132 1_555
O20 P3 1.619115 1_555
O20 P0 1.632044 1_545
O21 P4 1.623580 1_555
O21 P0 1.639350 1_545
