# generated using pymatgen
data_TbFeSi2
_symmetry_space_group_name_H-M   'P 1'
_cell_length_a   8.53753264
_cell_length_b   8.53753264
_cell_length_c   3.97939600
_cell_angle_alpha   90.00000000
_cell_angle_beta   90.00000000
_cell_angle_gamma   152.90506970
_symmetry_Int_Tables_number   1
_chemical_formula_structural   TbFeSi2
_chemical_formula_sum   'Tb2 Fe2 Si4'
_cell_volume   132.11070396
_cell_formula_units_Z   2
loop_
 _symmetry_equiv_pos_site_id
 _symmetry_equiv_pos_as_xyz
  1  'x, y, z'
loop_
 _atom_site_type_symbol
 _atom_site_label
 _atom_site_symmetry_multiplicity
 _atom_site_fract_x
 _atom_site_fract_y
 _atom_site_fract_z
 _atom_site_occupancy
  Tb  Tb0  1  0.60767500  0.39232500  0.25000000  1
  Tb  Tb1  1  0.39232500  0.60767500  0.75000000  1
  Fe  Fe0  1  0.24879300  0.75120700  0.25000000  1
  Fe  Fe1  1  0.75120700  0.24879300  0.75000000  1
  Si  Si0  1  0.96266000  0.03734000  0.25000000  1
  Si  Si1  1  0.03734000  0.96266000  0.75000000  1
  Si  Si2  1  0.81377900  0.18622100  0.25000000  1
  Si  Si3  1  0.18622100  0.81377900  0.75000000  1
loop_
_geom_bond_atom_site_label_1
_geom_bond_atom_site_label_2
_geom_bond_distance
_geom_bond_site_symmetry_2
Fe0 Si3 2.244500 1_554
Fe0 Si3 2.244500 1_555
Fe0 Si2 2.272319 1_455
Fe0 Si2 2.272319 1_565
Fe0 Tb0 3.080139 1_455
Fe0 Tb0 3.080139 1_565
Fe0 Tb1 3.104160 1_554
Fe0 Tb1 3.104160 1_555
Fe1 Si2 2.244500 1_556
Fe1 Si2 2.244500 1_555
Fe1 Si3 2.272319 1_655
Fe1 Si3 2.272319 1_545
Fe1 Tb1 3.080139 1_545
Fe1 Tb1 3.080139 1_655
Fe1 Tb0 3.104160 1_555
Fe1 Tb0 3.104160 1_556
Si0 Si1 2.344295 1_644
Si0 Si1 2.344295 1_645
Si0 Si2 2.471420 1_555
Si0 Tb1 3.053160 1_655
Si0 Tb1 3.053160 1_654
Si0 Tb1 3.053160 1_544
Si0 Tb1 3.053160 1_545
Si0 Tb0 3.129620 1_655
Si0 Tb0 3.129620 1_545
Si1 Si3 2.471420 1_555
Si1 Tb0 3.053160 1_565
Si1 Tb0 3.053160 1_566
Si1 Tb0 3.053160 1_456
Si1 Tb0 3.053160 1_455
Si1 Tb1 3.129620 1_565
Si1 Tb1 3.129620 1_455
Si2 Tb1 3.107837 1_544
Si2 Tb1 3.107837 1_545
Si2 Tb1 3.107837 1_655
Si2 Tb1 3.107837 1_654
Si3 Tb0 3.107837 1_455
Si3 Tb0 3.107837 1_456
Si3 Tb0 3.107837 1_566
Si3 Tb0 3.107837 1_565
