# generated using pymatgen
data_RbYbP2O7
_symmetry_space_group_name_H-M   'P 1'
_cell_length_a   11.25598400
_cell_length_b   7.92483900
_cell_length_c   8.90167691
_cell_angle_alpha   74.49612377
_cell_angle_beta   90.00000000
_cell_angle_gamma   90.00000000
_symmetry_Int_Tables_number   1
_chemical_formula_structural   RbYbP2O7
_chemical_formula_sum   'Rb4 Yb4 P8 O28'
_cell_volume   765.15269031
_cell_formula_units_Z   4
loop_
 _symmetry_equiv_pos_site_id
 _symmetry_equiv_pos_as_xyz
  1  'x, y, z'
loop_
 _atom_site_type_symbol
 _atom_site_label
 _atom_site_symmetry_multiplicity
 _atom_site_fract_x
 _atom_site_fract_y
 _atom_site_fract_z
 _atom_site_occupancy
  Rb  Rb0  1  0.81955800  0.81892400  0.55692200  1
  Rb  Rb1  1  0.18044200  0.18107600  0.44307800  1
  Rb  Rb2  1  0.31955800  0.18107600  0.94307800  1
  Rb  Rb3  1  0.68044200  0.81892400  0.05692200  1
  Yb  Yb0  1  0.39991400  0.76281900  0.75739300  1
  Yb  Yb1  1  0.60008600  0.23718100  0.24260700  1
  Yb  Yb2  1  0.89991400  0.23718100  0.74260700  1
  Yb  Yb3  1  0.10008600  0.76281900  0.25739300  1
  P  P0  1  0.13331100  0.56601900  0.69200100  1
  P  P1  1  0.86668900  0.43398100  0.30799900  1
  P  P2  1  0.63331100  0.43398100  0.80799900  1
  P  P3  1  0.36668900  0.56601900  0.19200100  1
  P  P4  1  0.09799700  0.86654900  0.82198900  1
  P  P5  1  0.90200300  0.13345100  0.17801100  1
  P  P6  1  0.59799700  0.13345100  0.67801100  1
  P  P7  1  0.40200300  0.86654900  0.32198900  1
  O  O0  1  0.07359400  0.38717800  0.72856500  1
  O  O1  1  0.92640600  0.61282200  0.27143500  1
  O  O2  1  0.57359400  0.61282200  0.77143500  1
  O  O3  1  0.42640600  0.38717800  0.22856500  1
  O  O4  1  0.22375600  0.91886900  0.75981000  1
  O  O5  1  0.77624400  0.08113100  0.24019000  1
  O  O6  1  0.72375600  0.08113100  0.74019000  1
  O  O7  1  0.27624400  0.91886900  0.25981000  1
  O  O8  1  0.26450400  0.55181700  0.73665000  1
  O  O9  1  0.73549600  0.44818300  0.26335000  1
  O  O10  1  0.76450400  0.44818300  0.76335000  1
  O  O11  1  0.23549600  0.55181700  0.23665000  1
  O  O12  1  0.10905000  0.66941100  0.52339600  1
  O  O13  1  0.89095000  0.33058900  0.47660400  1
  O  O14  1  0.60905000  0.33058900  0.97660400  1
  O  O15  1  0.39095000  0.66941100  0.02339600  1
  O  O16  1  0.40838600  0.85134000  0.49579500  1
  O  O17  1  0.59161400  0.14866000  0.50420500  1
  O  O18  1  0.90838600  0.14866000  0.00420500  1
  O  O19  1  0.09161400  0.85134000  0.99579500  1
  O  O20  1  0.06763400  0.67179900  0.80290300  1
  O  O21  1  0.93236600  0.32820100  0.19709700  1
  O  O22  1  0.56763400  0.32820100  0.69709700  1
  O  O23  1  0.43236600  0.67179900  0.30290300  1
  O  O24  1  0.50299300  0.01264800  0.77191500  1
  O  O25  1  0.49700700  0.98735200  0.22808500  1
  O  O26  1  0.00299300  0.98735200  0.72808500  1
  O  O27  1  0.99700700  0.01264800  0.27191500  1
loop_
_geom_bond_atom_site_label_1
_geom_bond_atom_site_label_2
_geom_bond_distance
_geom_bond_site_symmetry_2
O0 P0 1.523102 1_555
O0 Yb2 2.273981 1_455
O0 Rb2 3.508793 1_555
O0 Rb1 3.576521 1_555
O1 P1 1.523102 1_555
O1 Yb3 2.273981 1_655
O1 Rb3 3.508793 1_555
O1 Rb0 3.576521 1_555
O2 P2 1.523102 1_555
O2 Yb0 2.273981 1_555
O2 Rb0 3.508793 1_555
O2 Rb3 3.576521 1_556
O3 P3 1.523102 1_555
O3 Yb1 2.273981 1_555
O3 Rb1 3.508793 1_555
O3 Rb2 3.576521 1_554
O4 P4 1.536015 1_555
O4 Yb0 2.340014 1_555
O4 Rb1 3.061496 1_565
O4 Rb2 3.155064 1_565
O5 P5 1.536015 1_555
O5 Yb1 2.340014 1_555
O5 Rb0 3.061496 1_545
O5 Rb3 3.155064 1_545
O6 P6 1.536015 1_555
O6 Yb2 2.340014 1_555
O6 Rb3 3.061496 1_546
O6 Rb0 3.155064 1_545
O7 P7 1.536015 1_555
O7 Yb3 2.340014 1_555
O7 Rb2 3.061496 1_564
O7 Rb1 3.155064 1_565
O8 P0 1.525576 1_555
O8 Yb0 2.306159 1_555
O8 Rb2 3.083272 1_555
O9 P1 1.525576 1_555
O9 Yb1 2.306159 1_555
O9 Rb3 3.083272 1_555
O10 P2 1.525576 1_555
O10 Yb2 2.306159 1_555
O10 Rb0 3.083272 1_555
O11 P3 1.525576 1_555
O11 Yb3 2.306159 1_555
O11 Rb1 3.083272 1_555
O12 P0 1.530065 1_555
O12 Yb3 2.286461 1_555
O12 Rb0 3.507129 1_455
O13 P1 1.530065 1_555
O13 Yb2 2.286461 1_555
O13 Rb1 3.507129 1_655
O14 P2 1.530065 1_555
O14 Yb1 2.286461 1_556
O14 Rb2 3.507129 1_555
O15 P3 1.530065 1_555
O15 Yb0 2.286461 1_554
O15 Rb3 3.507129 1_555
O16 P7 1.521090 1_555
O16 Yb0 2.247343 1_555
O16 Rb1 3.602216 1_565
O17 P6 1.521090 1_555
O17 Yb1 2.247343 1_555
O17 Rb0 3.602216 1_545
O18 P5 1.521090 1_555
O18 Yb2 2.247343 1_554
O18 Rb3 3.602216 1_545
O19 P4 1.521090 1_555
O19 Yb3 2.247343 1_556
O19 Rb2 3.602216 1_565
O20 P0 1.632866 1_555
O20 P4 1.633345 1_555
O20 Rb0 3.547713 1_455
O21 P1 1.632866 1_555
O21 P5 1.633345 1_555
O21 Rb1 3.547713 1_655
O22 P2 1.632866 1_555
O22 P6 1.633345 1_555
O22 Rb2 3.547713 1_555
O23 P3 1.632866 1_555
O23 P7 1.633345 1_555
O23 Rb3 3.547713 1_555
O24 P6 1.526749 1_555
O24 Yb0 2.327993 1_545
O24 Rb2 3.074647 1_555
O24 Rb3 3.271193 1_546
O25 P7 1.526749 1_555
O25 Yb1 2.327993 1_565
O25 Rb3 3.074647 1_555
O25 Rb2 3.271193 1_564
O26 P4 1.526749 1_555
O26 Yb2 2.327993 1_465
O26 Rb0 3.074647 1_455
O26 Rb1 3.271193 1_565
O27 P5 1.526749 1_555
O27 Yb3 2.327993 1_645
O27 Rb1 3.074647 1_655
O27 Rb0 3.271193 1_545
