# generated using pymatgen
data_MnH7C3NO6
_symmetry_space_group_name_H-M   'P 1'
_cell_length_a   7.41169871
_cell_length_b   7.51974255
_cell_length_c   8.58100236
_cell_angle_alpha   91.34559723
_cell_angle_beta   89.99999890
_cell_angle_gamma   119.52582486
_symmetry_Int_Tables_number   1
_chemical_formula_structural   MnH7C3NO6
_chemical_formula_sum   'Mn2 H14 C6 N2 O12'
_cell_volume   415.99346153
_cell_formula_units_Z   2
loop_
 _symmetry_equiv_pos_site_id
 _symmetry_equiv_pos_as_xyz
  1  'x, y, z'
loop_
 _atom_site_type_symbol
 _atom_site_label
 _atom_site_symmetry_multiplicity
 _atom_site_fract_x
 _atom_site_fract_y
 _atom_site_fract_z
 _atom_site_occupancy
  Mn  Mn0  1  0.66537600  0.33272900  0.74959700  1
  Mn  Mn1  1  0.33264700  0.66727100  0.25040300  1
  H  H0  1  0.00220900  0.58099700  0.50145000  1
  H  H1  1  0.57867000  0.00000000  0.50000000  1
  H  H2  1  0.42121200  0.41900300  0.49855000  1
  H  H3  1  0.00323900  0.42172200  0.00143400  1
  H  H4  1  0.42157800  0.00000000  0.00000000  1
  H  H5  1  0.58151700  0.57827800  0.99856600  1
  H  H6  1  0.10316600  0.07541000  0.65790500  1
  H  H7  1  0.91649300  0.84938100  0.72175700  1
  H  H8  1  0.02775600  0.92459000  0.34209500  1
  H  H9  1  0.06711200  0.15061900  0.27824300  1
  H  H10  1  0.07747700  0.97035300  0.15745200  1
  H  H11  1  0.84775000  0.93345100  0.22209500  1
  H  H12  1  0.10712400  0.02964700  0.84254800  1
  H  H13  1  0.91429900  0.06654900  0.77790500  1
  C  C0  1  0.99870600  0.43181300  0.49765700  1
  C  C1  1  0.42928100  0.00000000  0.50000000  1
  C  C2  1  0.56689300  0.56818700  0.50234300  1
  C  C3  1  0.99959100  0.56714700  0.00125500  1
  C  C4  1  0.57132500  0.00000000  0.00000000  1
  C  C5  1  0.43244400  0.43285300  0.99874500  1
  N  N0  1  0.00786200  0.00385600  0.75005200  1
  N  N1  1  0.00400500  0.99614400  0.24994800  1
  O  O0  1  0.89018500  0.30270100  0.59820200  1
  O  O1  1  0.40328900  0.10914600  0.60329500  1
  O  O2  1  0.70059800  0.59590300  0.60754600  1
  O  O3  1  0.58748400  0.69729900  0.40179800  1
  O  O4  1  0.29414300  0.89085400  0.39670500  1
  O  O5  1  0.10469500  0.40409700  0.39245400  1
  O  O6  1  0.10890300  0.70365700  0.10408200  1
  O  O7  1  0.59785000  0.89689300  0.10398700  1
  O  O8  1  0.30079700  0.41257600  0.10104300  1
  O  O9  1  0.40524600  0.29634300  0.89591800  1
  O  O10  1  0.70095700  0.10310700  0.89601300  1
  O  O11  1  0.88822100  0.58742400  0.89895700  1
loop_
_geom_bond_atom_site_label_1
_geom_bond_atom_site_label_2
_geom_bond_distance
_geom_bond_site_symmetry_2
Mn0 O11 2.192171 1_555
Mn0 O1 2.204092 1_555
Mn0 O9 2.205615 1_555
Mn0 O0 2.207268 1_555
Mn0 O2 2.252665 1_555
Mn0 O10 2.276020 1_555
Mn1 O8 2.192171 1_555
Mn1 O4 2.204092 1_555
Mn1 O6 2.205615 1_555
Mn1 O3 2.207268 1_555
Mn1 O5 2.252665 1_555
Mn1 O7 2.276020 1_555
H6 N0 1.029110 1_555
H7 N0 1.038416 1_665
H8 N1 1.029113 1_555
H9 N1 1.038415 1_545
H10 N1 1.030043 1_555
H11 N1 1.037874 1_655
H12 N0 1.030038 1_555
H13 N0 1.037880 1_655
C0 H0 1.108965 1_655
C0 O0 1.266333 1_555
C0 O5 1.275942 1_655
C1 H1 1.107226 1_555
C1 O1 1.272036 1_555
C1 O4 1.272036 1_545
C2 H2 1.108965 1_555
C2 O3 1.266333 1_555
C2 O2 1.275942 1_555
C3 H3 1.107170 1_655
C3 O11 1.267087 1_554
C3 O6 1.275320 1_655
C4 H4 1.109880 1_555
C4 O7 1.272302 1_545
C4 O10 1.272302 1_554
C5 H5 1.107170 1_555
C5 O8 1.267087 1_556
C5 O9 1.275320 1_555
