# generated using pymatgen
data_RbVPO6
_symmetry_space_group_name_H-M   'P 1'
_cell_length_a   6.78582500
_cell_length_b   9.88192300
_cell_length_c   18.37064800
_cell_angle_alpha   90.00000000
_cell_angle_beta   90.00000000
_cell_angle_gamma   90.00000000
_symmetry_Int_Tables_number   1
_chemical_formula_structural   RbVPO6
_chemical_formula_sum   'Rb8 V8 P8 O48'
_cell_volume   1231.88054553
_cell_formula_units_Z   8
loop_
 _symmetry_equiv_pos_site_id
 _symmetry_equiv_pos_as_xyz
  1  'x, y, z'
loop_
 _atom_site_type_symbol
 _atom_site_label
 _atom_site_symmetry_multiplicity
 _atom_site_fract_x
 _atom_site_fract_y
 _atom_site_fract_z
 _atom_site_occupancy
  Rb  Rb0  1  0.77359100  0.80905600  0.40095800  1
  Rb  Rb1  1  0.27359100  0.69094400  0.59904200  1
  Rb  Rb2  1  0.22640900  0.30905600  0.09904200  1
  Rb  Rb3  1  0.72640900  0.19094400  0.90095800  1
  Rb  Rb4  1  0.22640900  0.19094400  0.59904200  1
  Rb  Rb5  1  0.72640900  0.30905600  0.40095800  1
  Rb  Rb6  1  0.77359100  0.69094400  0.90095800  1
  Rb  Rb7  1  0.27359100  0.80905600  0.09904200  1
  V  V0  1  0.52254900  0.95524400  0.74360900  1
  V  V1  1  0.02254900  0.54475600  0.25639100  1
  V  V2  1  0.47745100  0.45524400  0.75639100  1
  V  V3  1  0.97745100  0.04475600  0.24360900  1
  V  V4  1  0.47745100  0.04475600  0.25639100  1
  V  V5  1  0.97745100  0.45524400  0.74360900  1
  V  V6  1  0.52254900  0.54475600  0.24360900  1
  V  V7  1  0.02254900  0.95524400  0.75639100  1
  P  P0  1  0.29561000  0.90109200  0.89845000  1
  P  P1  1  0.79561000  0.59890800  0.10155000  1
  P  P2  1  0.70439000  0.40109200  0.60155000  1
  P  P3  1  0.20439000  0.09890800  0.39845000  1
  P  P4  1  0.70439000  0.09890800  0.10155000  1
  P  P5  1  0.20439000  0.40109200  0.89845000  1
  P  P6  1  0.29561000  0.59890800  0.39845000  1
  P  P7  1  0.79561000  0.90109200  0.60155000  1
  O  O0  1  0.34364300  0.76858700  0.93893100  1
  O  O1  1  0.84364300  0.73141300  0.06106900  1
  O  O2  1  0.65635700  0.26858700  0.56106900  1
  O  O3  1  0.15635700  0.23141300  0.43893100  1
  O  O4  1  0.65635700  0.23141300  0.06106900  1
  O  O5  1  0.15635700  0.26858700  0.93893100  1
  O  O6  1  0.34364300  0.73141300  0.43893100  1
  O  O7  1  0.84364300  0.76858700  0.56106900  1
  O  O8  1  0.27241300  0.99702400  0.96411900  1
  O  O9  1  0.77241300  0.50297600  0.03588100  1
  O  O10  1  0.72758700  0.49702400  0.53588100  1
  O  O11  1  0.22758700  0.00297600  0.46411900  1
  O  O12  1  0.72758700  0.00297600  0.03588100  1
  O  O13  1  0.22758700  0.49702400  0.96411900  1
  O  O14  1  0.27241300  0.50297600  0.46411900  1
  O  O15  1  0.77241300  0.99702400  0.53588100  1
  O  O16  1  0.60309400  0.88970700  0.64728200  1
  O  O17  1  0.10309400  0.61029300  0.35271800  1
  O  O18  1  0.39690600  0.38970700  0.85271800  1
  O  O19  1  0.89690600  0.11029300  0.14728200  1
  O  O20  1  0.39690600  0.11029300  0.35271800  1
  O  O21  1  0.89690600  0.38970700  0.64728200  1
  O  O22  1  0.60309400  0.61029300  0.14728200  1
  O  O23  1  0.10309400  0.88970700  0.85271800  1
  O  O24  1  0.96926800  0.94568700  0.65124600  1
  O  O25  1  0.46926800  0.55431300  0.34875400  1
  O  O26  1  0.03073200  0.44568700  0.84875400  1
  O  O27  1  0.53073200  0.05431300  0.15124600  1
  O  O28  1  0.03073200  0.05431300  0.34875400  1
  O  O29  1  0.53073200  0.44568700  0.65124600  1
  O  O30  1  0.96926800  0.55431300  0.15124600  1
  O  O31  1  0.46926800  0.94568700  0.84875400  1
  O  O32  1  0.47640100  0.88113300  0.26726300  1
  O  O33  1  0.97640100  0.61886700  0.73273700  1
  O  O34  1  0.52359900  0.38113300  0.23273700  1
  O  O35  1  0.02359900  0.11886700  0.76726300  1
  O  O36  1  0.52359900  0.11886700  0.73273700  1
  O  O37  1  0.02359900  0.38113300  0.26726300  1
  O  O38  1  0.47640100  0.61886700  0.76726300  1
  O  O39  1  0.97640100  0.88113300  0.23273700  1
  O  O40  1  0.72259400  0.10139300  0.27360600  1
  O  O41  1  0.22259400  0.39860700  0.72639400  1
  O  O42  1  0.27740600  0.60139300  0.22639400  1
  O  O43  1  0.77740600  0.89860700  0.77360600  1
  O  O44  1  0.27740600  0.89860700  0.72639400  1
  O  O45  1  0.77740600  0.60139300  0.27360600  1
  O  O46  1  0.72259400  0.39860700  0.77360600  1
  O  O47  1  0.22259400  0.10139300  0.22639400  1
loop_
_geom_bond_atom_site_label_1
_geom_bond_atom_site_label_2
_geom_bond_distance
_geom_bond_site_symmetry_2
O0 P0 1.540718 1_555
O0 Rb7 3.006226 1_556
O0 Rb6 3.096358 1_555
O1 P1 1.540718 1_555
O1 Rb6 3.006226 1_554
O1 Rb7 3.096358 1_655
O2 P2 1.540718 1_555
O2 Rb5 3.006226 1_555
O2 Rb4 3.096358 1_555
O3 P3 1.540718 1_555
O3 Rb4 3.006226 1_555
O3 Rb5 3.096358 1_455
O4 P4 1.540718 1_555
O4 Rb3 3.006226 1_554
O4 Rb2 3.096358 1_555
O5 P5 1.540718 1_555
O5 Rb2 3.006226 1_556
O5 Rb3 3.096358 1_455
O6 P6 1.540718 1_555
O6 Rb1 3.006226 1_555
O6 Rb0 3.096358 1_555
O7 P7 1.540718 1_555
O7 Rb0 3.006226 1_555
O7 Rb1 3.096358 1_655
O8 P0 1.542344 1_555
O8 Rb7 3.097400 1_556
O9 P1 1.542344 1_555
O9 Rb6 3.097400 1_554
O10 P2 1.542344 1_555
O10 Rb5 3.097400 1_555
O11 P3 1.542344 1_555
O11 Rb4 3.097400 1_555
O12 P4 1.542344 1_555
O12 Rb3 3.097400 1_554
O13 P5 1.542344 1_555
O13 Rb2 3.097400 1_556
O14 P6 1.542344 1_555
O14 Rb1 3.097400 1_555
O15 P7 1.542344 1_555
O15 Rb0 3.097400 1_555
O16 P7 1.557273 1_555
O16 V0 1.962041 1_555
O16 Rb1 3.105278 1_555
O17 P6 1.557273 1_555
O17 V1 1.962041 1_555
O17 Rb0 3.105278 1_455
O18 P5 1.557273 1_555
O18 V2 1.962041 1_555
O18 Rb3 3.105278 1_555
O19 P4 1.557273 1_555
O19 V3 1.962041 1_555
O19 Rb2 3.105278 1_655
O20 P3 1.557273 1_555
O20 V4 1.962041 1_555
O20 Rb5 3.105278 1_555
O21 P2 1.557273 1_555
O21 V5 1.962041 1_555
O21 Rb4 3.105278 1_655
O22 P1 1.557273 1_555
O22 V6 1.962041 1_555
O22 Rb7 3.105278 1_555
O23 P0 1.557273 1_555
O23 V7 1.962041 1_555
O23 Rb6 3.105278 1_455
O24 P7 1.554456 1_555
O24 V7 1.967397 1_655
O24 Rb4 3.136612 1_665
O24 Rb1 3.394310 1_655
O25 P6 1.554456 1_555
O25 V6 1.967397 1_555
O25 Rb5 3.136612 1_555
O25 Rb0 3.394310 1_555
O26 P5 1.554456 1_555
O26 V5 1.967397 1_455
O26 Rb6 3.136612 1_455
O26 Rb3 3.394310 1_455
O27 P4 1.554456 1_555
O27 V4 1.967397 1_555
O27 Rb7 3.136612 1_545
O27 Rb2 3.394310 1_555
O28 P3 1.554456 1_555
O28 V3 1.967397 1_455
O28 Rb0 3.136612 1_445
O28 Rb5 3.394310 1_455
O29 P2 1.554456 1_555
O29 V2 1.967397 1_555
O29 Rb1 3.136612 1_555
O29 Rb4 3.394310 1_555
O30 P1 1.554456 1_555
O30 V1 1.967397 1_655
O30 Rb2 3.136612 1_655
O30 Rb7 3.394310 1_655
O31 P0 1.554456 1_555
O31 V0 1.967397 1_555
O31 Rb3 3.136612 1_565
O31 Rb6 3.394310 1_555
O32 V4 1.629214 1_565
O32 Rb0 3.256771 1_555
O32 Rb7 3.457089 1_555
O33 V5 1.629214 1_555
O33 Rb1 3.256771 1_655
O33 Rb6 3.457089 1_555
O34 V6 1.629214 1_555
O34 Rb2 3.256771 1_555
O34 Rb5 3.457089 1_555
O35 V7 1.629214 1_545
O35 Rb3 3.256771 1_455
O35 Rb4 3.457089 1_555
O36 V0 1.629214 1_545
O36 Rb4 3.256771 1_555
O36 Rb3 3.457089 1_555
O37 V1 1.629214 1_555
O37 Rb5 3.256771 1_455
O37 Rb2 3.457089 1_555
O38 V2 1.629214 1_555
O38 Rb6 3.256771 1_555
O38 Rb1 3.457089 1_555
O39 V3 1.629214 1_565
O39 Rb7 3.256771 1_655
O39 Rb0 3.457089 1_555
O40 V4 1.783391 1_555
O40 V3 1.899419 1_555
O40 Rb5 3.112116 1_555
O41 V5 1.783391 1_455
O41 V2 1.899419 1_555
O41 Rb4 3.112116 1_555
O42 V6 1.783391 1_555
O42 V1 1.899419 1_555
O42 Rb7 3.112116 1_555
O43 V7 1.783391 1_655
O43 V0 1.899419 1_555
O43 Rb6 3.112116 1_555
O44 V0 1.783391 1_555
O44 V7 1.899419 1_555
O44 Rb1 3.112116 1_555
O45 V1 1.783391 1_655
O45 V6 1.899419 1_555
O45 Rb0 3.112116 1_555
O46 V2 1.783391 1_555
O46 V5 1.899419 1_555
O46 Rb3 3.112116 1_555
O47 V3 1.783391 1_455
O47 V4 1.899419 1_555
O47 Rb2 3.112116 1_555
