# generated using pymatgen
data_CeOs2
_symmetry_space_group_name_H-M   'P 1'
_cell_length_a   5.30950339
_cell_length_b   5.30950339
_cell_length_c   9.00161713
_cell_angle_alpha   90.00000000
_cell_angle_beta   90.00000000
_cell_angle_gamma   119.99985334
_symmetry_Int_Tables_number   1
_chemical_formula_structural   CeOs2
_chemical_formula_sum   'Ce4 Os8'
_cell_volume   219.76555053
_cell_formula_units_Z   4
loop_
 _symmetry_equiv_pos_site_id
 _symmetry_equiv_pos_as_xyz
  1  'x, y, z'
loop_
 _atom_site_type_symbol
 _atom_site_label
 _atom_site_symmetry_multiplicity
 _atom_site_fract_x
 _atom_site_fract_y
 _atom_site_fract_z
 _atom_site_occupancy
  Ce  Ce0  1  0.66667502  0.33332498  0.57038769  1
  Ce  Ce1  1  0.33332498  0.66667502  0.42961231  1
  Ce  Ce2  1  0.33332498  0.66667502  0.07038769  1
  Ce  Ce3  1  0.66667502  0.33332498  0.92961231  1
  Os  Os0  1  0.00000000  0.00000000  0.50000000  1
  Os  Os1  1  0.00000000  0.00000000  -0.00000000  1
  Os  Os2  1  0.17030084  0.34055523  0.75000000  1
  Os  Os3  1  0.17030828  0.82969172  0.75000000  1
  Os  Os4  1  0.65944477  0.82969916  0.75000000  1
  Os  Os5  1  0.82969916  0.65944477  0.25000000  1
  Os  Os6  1  0.82969172  0.17030828  0.25000000  1
  Os  Os7  1  0.34055523  0.17030084  0.25000000  1
loop_
_geom_bond_atom_site_label_1
_geom_bond_atom_site_label_2
_geom_bond_distance
_geom_bond_site_symmetry_2
Ce0 Os4 3.108465 1_555
Ce0 Os2 3.108465 1_555
Ce0 Os3 3.108521 1_545
Ce0 Os3 3.108521 1_655
Ce0 Os2 3.108562 1_655
Ce0 Os4 3.108562 1_545
Ce0 Os0 3.130161 1_655
Ce0 Os0 3.130281 1_665
Ce0 Os0 3.130281 1_555
Ce0 Os6 3.250379 1_555
Ce0 Os7 3.250563 1_555
Ce0 Os5 3.250563 1_555
Ce1 Os7 3.108465 1_555
Ce1 Os5 3.108465 1_555
Ce1 Os6 3.108521 1_455
Ce1 Os6 3.108521 1_565
Ce1 Os5 3.108562 1_455
Ce1 Os7 3.108562 1_565
Ce1 Os0 3.130161 1_565
Ce1 Os0 3.130281 1_665
Ce1 Os0 3.130281 1_555
Ce1 Os3 3.250379 1_555
Ce1 Os2 3.250563 1_555
Ce1 Os4 3.250563 1_555
Ce2 Os5 3.108465 1_555
Ce2 Os7 3.108465 1_555
Ce2 Os6 3.108521 1_455
Ce2 Os6 3.108521 1_565
Ce2 Os5 3.108562 1_455
Ce2 Os7 3.108562 1_565
Ce2 Os1 3.130161 1_565
Ce2 Os1 3.130281 1_665
Ce2 Os1 3.130281 1_555
Ce2 Os3 3.250379 1_554
Ce2 Os2 3.250563 1_554
Ce2 Os4 3.250563 1_554
Ce3 Os4 3.108465 1_555
Ce3 Os2 3.108465 1_555
Ce3 Os3 3.108521 1_545
Ce3 Os3 3.108521 1_655
Ce3 Os2 3.108562 1_655
Ce3 Os4 3.108562 1_545
Ce3 Os1 3.130161 1_656
Ce3 Os1 3.130281 1_556
Ce3 Os1 3.130281 1_666
Ce3 Os6 3.250379 1_556
Ce3 Os5 3.250563 1_556
Ce3 Os7 3.250563 1_556
Os0 Os5 2.741616 1_445
Os0 Os2 2.741616 1_555
Os0 Os4 2.741616 1_445
Os0 Os7 2.741616 1_555
Os0 Os6 2.741776 1_455
Os0 Os3 2.741776 1_545
Os1 Os2 2.741616 1_554
Os1 Os5 2.741616 1_445
Os1 Os4 2.741616 1_444
Os1 Os7 2.741616 1_555
Os1 Os6 2.741776 1_455
Os1 Os3 2.741776 1_544
Os2 Os3 2.597052 1_555
Os2 Os4 2.597117 1_555
Os2 Os4 2.712398 1_445
Os2 Os3 2.712451 1_545
Os3 Os4 2.597052 1_555
Os3 Os4 2.712451 1_455
Os5 Os6 2.597052 1_555
Os5 Os7 2.597117 1_555
Os5 Os7 2.712398 1_665
Os5 Os6 2.712451 1_565
Os6 Os7 2.597052 1_555
Os6 Os7 2.712451 1_655
