# generated using pymatgen
data_YMg14Ga
_symmetry_space_group_name_H-M   'P 1'
_cell_length_a   6.47831710
_cell_length_b   6.26367305
_cell_length_c   10.37809344
_cell_angle_alpha   90.00000000
_cell_angle_beta   90.00000000
_cell_angle_gamma   118.90990617
_symmetry_Int_Tables_number   1
_chemical_formula_structural   YMg14Ga
_chemical_formula_sum   'Y1 Mg14 Ga1'
_cell_volume   368.64296747
_cell_formula_units_Z   1
loop_
 _symmetry_equiv_pos_site_id
 _symmetry_equiv_pos_as_xyz
  1  'x, y, z'
loop_
 _atom_site_type_symbol
 _atom_site_label
 _atom_site_symmetry_multiplicity
 _atom_site_fract_x
 _atom_site_fract_y
 _atom_site_fract_z
 _atom_site_occupancy
  Y  Y0  1  0.15175835  0.32587867  0.12500000  1
  Mg  Mg0  1  0.16651580  0.33325740  0.62500000  1
  Mg  Mg1  1  0.16147090  0.83073495  0.62500000  1
  Mg  Mg2  1  0.64965758  0.31846769  0.12500000  1
  Mg  Mg3  1  0.66539049  0.33670727  0.62500000  1
  Mg  Mg4  1  0.64965758  0.83118890  0.12500000  1
  Mg  Mg5  1  0.66539049  0.82868221  0.62500000  1
  Mg  Mg6  1  0.33686515  0.16635705  0.37936254  1
  Mg  Mg7  1  0.33686515  0.16635705  0.87063746  1
  Mg  Mg8  1  0.33686515  0.67050910  0.37936254  1
  Mg  Mg9  1  0.33686515  0.67050910  0.87063746  1
  Mg  Mg10  1  0.83287568  0.16643834  0.38420127  1
  Mg  Mg11  1  0.83287568  0.16643834  0.86579873  1
  Mg  Mg12  1  0.84414022  0.67207061  0.36209262  1
  Mg  Mg13  1  0.84414022  0.67207061  0.88790738  1
  Ga  Ga0  1  0.18866644  0.84433272  0.12500000  1
loop_
_geom_bond_atom_site_label_1
_geom_bond_atom_site_label_2
_geom_bond_distance
_geom_bond_site_symmetry_2
Mg0 Mg1 3.131967 1_545
Mg0 Mg1 3.131967 1_555
Mg0 Mg10 3.134501 1_455
Mg0 Mg11 3.134501 1_455
Mg0 Mg6 3.150380 1_555
Mg0 Mg7 3.150380 1_555
Mg0 Mg8 3.150386 1_555
Mg0 Mg9 3.150386 1_555
Mg0 Mg5 3.221477 1_555
Mg0 Mg3 3.221478 1_555
Mg0 Mg5 3.256950 1_445
Mg0 Mg3 3.256950 1_455
Mg1 Mg9 3.146354 1_555
Mg1 Mg8 3.146354 1_555
Mg1 Mg6 3.146360 1_565
Mg1 Mg7 3.146360 1_565
Mg1 Mg3 3.207570 1_455
Mg1 Mg5 3.207570 1_455
Mg1 Mg12 3.268498 1_455
Mg1 Mg13 3.268498 1_455
Mg1 Mg3 3.270786 1_565
Mg1 Mg5 3.270786 1_555
Mg2 Mg7 3.180531 1_554
Mg2 Mg6 3.180531 1_555
Mg2 Y0 3.230583 1_655
Mg2 Y0 3.248244 1_555
Mg3 Mg5 3.081570 1_555
Mg3 Mg6 3.157711 1_555
Mg3 Mg7 3.157711 1_555
Mg3 Mg5 3.182103 1_545
Mg4 Mg8 3.180531 1_555
Mg4 Mg9 3.180531 1_554
Mg4 Y0 3.230582 1_665
Mg4 Y0 3.248244 1_555
Mg5 Mg8 3.157711 1_555
Mg5 Mg9 3.157711 1_555
Mg6 Mg8 3.105829 1_545
Mg6 Mg8 3.157844 1_555
Mg6 Y0 3.250148 1_555
Mg7 Mg9 3.105829 1_545
Mg7 Mg9 3.157844 1_555
Mg7 Y0 3.250148 1_556
Mg8 Y0 3.250154 1_555
Mg9 Y0 3.250154 1_556
Mg10 Mg3 3.111064 1_555
Mg10 Mg5 3.111070 1_545
Mg10 Mg12 3.140880 1_555
Mg10 Mg12 3.140880 1_545
Mg10 Mg8 3.213460 1_545
Mg10 Mg6 3.213460 1_555
Mg10 Y0 3.241362 1_655
Mg10 Mg2 3.262615 1_555
Mg10 Mg4 3.262621 1_545
Mg10 Mg8 3.265636 1_655
Mg10 Mg6 3.265636 1_655
Mg11 Mg3 3.111064 1_555
Mg11 Mg5 3.111070 1_545
Mg11 Mg13 3.140880 1_555
Mg11 Mg13 3.140880 1_545
Mg11 Mg9 3.213460 1_545
Mg11 Mg7 3.213460 1_555
Mg11 Y0 3.241362 1_656
Mg11 Mg2 3.262615 1_556
Mg11 Mg4 3.262621 1_546
Mg11 Mg9 3.265636 1_655
Mg11 Mg7 3.265636 1_655
Mg12 Mg6 3.201788 1_665
Mg12 Mg8 3.201789 1_655
Mg12 Mg6 3.286462 1_555
Mg12 Mg8 3.286462 1_555
Mg12 Mg5 3.293350 1_555
Mg12 Mg3 3.293356 1_555
Mg13 Mg7 3.201788 1_665
Mg13 Mg9 3.201789 1_655
Mg13 Mg7 3.286462 1_555
Mg13 Mg9 3.286462 1_555
Mg13 Mg5 3.293350 1_555
Mg13 Mg3 3.293356 1_555
Ga0 Mg2 3.027105 1_565
Ga0 Mg4 3.027105 1_555
Ga0 Y0 3.138823 1_565
Ga0 Y0 3.138823 1_555
Ga0 Mg13 3.141936 1_454
Ga0 Mg12 3.141936 1_455
Ga0 Mg9 3.175908 1_554
Ga0 Mg8 3.175908 1_555
Ga0 Mg6 3.175914 1_565
Ga0 Mg7 3.175914 1_564
