# generated using pymatgen
data_Ta(Mo2S5)2
_symmetry_space_group_name_H-M   'P 1'
_cell_length_a   5.59188456
_cell_length_b   6.53888165
_cell_length_c   8.54434008
_cell_angle_alpha   100.73247863
_cell_angle_beta   70.89895325
_cell_angle_gamma   81.87276437
_symmetry_Int_Tables_number   1
_chemical_formula_structural   Ta(Mo2S5)2
_chemical_formula_sum   'Ta1 Mo4 S10'
_cell_volume   283.08545479
_cell_formula_units_Z   1
loop_
 _symmetry_equiv_pos_site_id
 _symmetry_equiv_pos_as_xyz
  1  'x, y, z'
loop_
 _atom_site_type_symbol
 _atom_site_label
 _atom_site_symmetry_multiplicity
 _atom_site_fract_x
 _atom_site_fract_y
 _atom_site_fract_z
 _atom_site_occupancy
  Ta  Ta0  1  0.86879208  0.49993568  0.09998714  1
  Mo  Mo0  1  0.26629116  0.49992999  0.30246058  1
  Mo  Mo1  1  0.66346955  0.50000183  0.50294160  1
  Mo  Mo2  1  0.06643097  0.50007418  0.69703847  1
  Mo  Mo3  1  0.46896738  0.50005014  0.89755965  1
  S  S0  1  0.86573924  0.25396730  0.84681660  1
  S  S1  1  0.06304921  0.25586612  0.45076858  1
  S  S2  1  0.46245222  0.25591708  0.65197970  1
  S  S3  1  0.66159672  0.25396740  0.25509112  1
  S  S4  1  0.27188009  0.25418474  0.05090663  1
  S  S5  1  0.14159723  0.74604597  0.14903023  1
  S  S6  1  0.53105278  0.74597607  0.35314615  1
  S  S7  1  0.93358880  0.74415785  0.54801724  1
  S  S8  1  0.33295451  0.74426887  0.74941323  1
  S  S9  1  0.73533906  0.74615578  0.94494307  1
loop_
_geom_bond_atom_site_label_1
_geom_bond_atom_site_label_2
_geom_bond_distance
_geom_bond_site_symmetry_2
Mo0 S1 2.401629 1_555
Mo0 S7 2.402290 1_455
Mo0 S6 2.408638 1_555
Mo0 S3 2.409074 1_555
Mo0 S4 2.420400 1_555
Mo0 S5 2.421049 1_555
Mo1 S2 2.399983 1_555
Mo1 S8 2.401499 1_555
Mo1 S7 2.410864 1_555
Mo1 S1 2.411270 1_655
Mo1 S3 2.413175 1_555
Mo1 S6 2.413215 1_555
Mo2 S7 2.400228 1_455
Mo2 S1 2.400232 1_555
Mo2 S8 2.411292 1_555
Mo2 S2 2.411341 1_555
Mo2 S0 2.413433 1_455
Mo2 S9 2.413566 1_455
Mo3 S8 2.402172 1_555
Mo3 S2 2.402400 1_555
Mo3 S0 2.408527 1_555
Mo3 S9 2.408743 1_555
Mo3 S4 2.420012 1_556
Mo3 S5 2.420984 1_556
S0 Ta0 2.450013 1_556
S3 Ta0 2.449765 1_555
S4 Ta0 2.438233 1_455
S5 Ta0 2.440053 1_455
S6 Ta0 2.450548 1_555
S9 Ta0 2.450641 1_556
