# generated using pymatgen
data_V2Re2O11
_symmetry_space_group_name_H-M   'P 1'
_cell_length_a   7.66006829
_cell_length_b   7.66006829
_cell_length_c   9.09593800
_cell_angle_alpha   90.00000000
_cell_angle_beta   90.00000000
_cell_angle_gamma   125.57450574
_symmetry_Int_Tables_number   1
_chemical_formula_structural   V2Re2O11
_chemical_formula_sum   'V4 Re4 O22'
_cell_volume   434.10563705
_cell_formula_units_Z   2
loop_
 _symmetry_equiv_pos_site_id
 _symmetry_equiv_pos_as_xyz
  1  'x, y, z'
loop_
 _atom_site_type_symbol
 _atom_site_label
 _atom_site_symmetry_multiplicity
 _atom_site_fract_x
 _atom_site_fract_y
 _atom_site_fract_z
 _atom_site_occupancy
  V  V0  1  0.74702600  0.25297400  0.21752300  1
  V  V1  1  0.44591100  0.55408900  0.48961000  1
  V  V2  1  0.55408900  0.44591100  0.98961000  1
  V  V3  1  0.25297400  0.74702600  0.71752300  1
  Re  Re0  1  0.00508000  0.99492000  0.51643400  1
  Re  Re1  1  0.29835200  0.70164800  0.14679100  1
  Re  Re2  1  0.99492000  0.00508000  0.01643400  1
  Re  Re3  1  0.70164800  0.29835200  0.64679100  1
  O  O0  1  0.62316600  0.37683400  0.16809900  1
  O  O1  1  0.82936800  0.17063200  0.65600800  1
  O  O2  1  0.16052000  0.27162100  0.46678900  1
  O  O3  1  0.96281000  0.03719000  0.20083800  1
  O  O4  1  0.74700100  0.25299900  0.40111200  1
  O  O5  1  0.72837900  0.83948000  0.46678900  1
  O  O6  1  0.17063200  0.82936800  0.15600800  1
  O  O7  1  0.65684700  0.34315300  0.83224000  1
  O  O8  1  0.25299900  0.74700100  0.90111200  1
  O  O9  1  0.41932000  0.58068000  0.04678100  1
  O  O10  1  0.27162100  0.16052000  0.96678900  1
  O  O11  1  0.37683400  0.62316600  0.66809900  1
  O  O12  1  0.42806700  0.01691900  0.64516400  1
  O  O13  1  0.57193300  0.98308100  0.14516400  1
  O  O14  1  0.83948000  0.72837900  0.96678900  1
  O  O15  1  0.01691900  0.42806700  0.14516400  1
  O  O16  1  0.98308100  0.57193300  0.64516400  1
  O  O17  1  0.58068000  0.41932000  0.54678100  1
  O  O18  1  0.34315300  0.65684700  0.33224000  1
  O  O19  1  0.03719000  0.96281000  0.70083800  1
  O  O20  1  0.88405000  0.11595000  0.92665800  1
  O  O21  1  0.11595000  0.88405000  0.42665800  1
loop_
_geom_bond_atom_site_label_1
_geom_bond_atom_site_label_2
_geom_bond_distance
_geom_bond_site_symmetry_2
O0 V0 1.746376 1_555
O0 V2 1.876584 1_554
O1 Re3 1.742130 1_555
O2 Re0 1.782620 1_545
O2 V1 2.000064 1_555
O3 Re2 1.733440 1_555
O4 V0 1.669914 1_555
O4 Re3 2.318536 1_555
O5 Re0 1.782620 1_655
O5 V1 2.000064 1_555
O6 Re1 1.742130 1_555
O7 Re3 1.793872 1_555
O7 V2 2.002258 1_555
O8 V3 1.669914 1_555
O8 Re1 2.318536 1_556
O9 Re1 1.882504 1_555
O9 V2 1.908369 1_554
O10 Re2 1.782620 1_456
O10 V2 2.000064 1_555
O11 V3 1.746376 1_555
O11 V1 1.876584 1_555
O12 V3 1.811062 1_545
O12 Re3 1.944960 1_555
O13 V0 1.811062 1_565
O13 Re1 1.944960 1_555
O14 Re2 1.782620 1_566
O14 V2 2.000064 1_555
O15 V0 1.811062 1_455
O15 Re1 1.944960 1_555
O16 V3 1.811062 1_655
O16 Re3 1.944960 1_555
O17 Re3 1.882504 1_555
O17 V1 1.908369 1_555
O18 Re1 1.793872 1_555
O18 V1 2.002258 1_555
O19 Re0 1.733440 1_555
O20 Re2 1.717137 1_556
O21 Re0 1.717137 1_555
