# generated using pymatgen
data_SrCaZr4O12
_symmetry_space_group_name_H-M   'P 1'
_cell_length_a   5.80372326
_cell_length_b   5.80372326
_cell_length_c   8.37429363
_cell_angle_alpha   90.00000000
_cell_angle_beta   90.00000000
_cell_angle_gamma   87.43313202
_symmetry_Int_Tables_number   1
_chemical_formula_structural   SrCaZr4O12
_chemical_formula_sum   'Sr1 Ca1 Zr4 O12'
_cell_volume   281.79001589
_cell_formula_units_Z   1
loop_
 _symmetry_equiv_pos_site_id
 _symmetry_equiv_pos_as_xyz
  1  'x, y, z'
loop_
 _atom_site_type_symbol
 _atom_site_label
 _atom_site_symmetry_multiplicity
 _atom_site_fract_x
 _atom_site_fract_y
 _atom_site_fract_z
 _atom_site_occupancy
  Sr  Sr0  1  0.94484708  0.05515292  0.00000000  1
  Ca  Ca0  1  0.54197310  0.45802690  0.50000000  1
  Zr  Zr0  1  0.48033225  0.98044873  0.26079598  1
  Zr  Zr1  1  0.48033225  0.98044873  0.73920402  1
  Zr  Zr2  1  0.01955127  0.51966775  0.73920402  1
  Zr  Zr3  1  0.01955127  0.51966775  0.26079598  1
  O  O0  1  0.20358772  0.20513018  0.21828974  1
  O  O1  1  0.79486982  0.79641228  0.21828974  1
  O  O2  1  0.79486982  0.79641228  0.78171026  1
  O  O3  1  0.20358772  0.20513018  0.78171026  1
  O  O4  1  0.31642386  0.68357614  0.30998799  1
  O  O5  1  0.71894315  0.28105685  0.24158891  1
  O  O6  1  0.71894315  0.28105685  0.75841109  1
  O  O7  1  0.31642386  0.68357614  0.69001201  1
  O  O8  1  0.47158340  0.97946439  0.00000000  1
  O  O9  1  0.50689297  0.06544828  0.50000000  1
  O  O10  1  0.02053561  0.52841660  0.00000000  1
  O  O11  1  0.93455172  0.49310703  0.50000000  1
loop_
_geom_bond_atom_site_label_1
_geom_bond_atom_site_label_2
_geom_bond_distance
_geom_bond_site_symmetry_2
Ca0 O9 2.296560 1_555
Ca0 O11 2.296560 1_555
Ca0 O7 2.409477 1_555
Ca0 O4 2.409477 1_555
Ca0 O5 2.588100 1_555
Ca0 O6 2.588100 1_555
O0 Zr0 2.054072 1_545
O0 Zr3 2.103640 1_555
O0 Sr0 2.543888 1_455
O1 Zr3 2.054072 1_655
O1 Zr0 2.103640 1_555
O1 Sr0 2.543888 1_565
O2 Zr2 2.054072 1_655
O2 Zr1 2.103640 1_555
O2 Sr0 2.543888 1_566
O3 Zr1 2.054072 1_545
O3 Zr2 2.103640 1_555
O3 Sr0 2.543888 1_456
O4 Zr3 2.046962 1_555
O4 Zr0 2.046962 1_555
O5 Zr3 2.281190 1_655
O5 Zr0 2.281190 1_545
O5 Sr0 2.716063 1_555
O6 Zr2 2.281190 1_655
O6 Zr1 2.281190 1_545
O6 Sr0 2.716063 1_556
O7 Zr1 2.046962 1_555
O7 Zr2 2.046962 1_555
O8 Zr0 2.184586 1_555
O8 Zr1 2.184586 1_554
O8 Sr0 2.800955 1_565
O8 Sr0 3.068896 1_465
O9 Zr1 2.070411 1_545
O9 Zr0 2.070411 1_545
O10 Zr3 2.184586 1_555
O10 Zr2 2.184586 1_554
O10 Sr0 2.800955 1_455
O10 Sr0 3.068896 1_465
O11 Zr2 2.070411 1_655
O11 Zr3 2.070411 1_655
