# generated using pymatgen
data_NdH6SNO10
_symmetry_space_group_name_H-M   'P 1'
_cell_length_a   6.15457797
_cell_length_b   6.97092337
_cell_length_c   8.92426997
_cell_angle_alpha   90.00000000
_cell_angle_beta   93.69777155
_cell_angle_gamma   90.00000000
_symmetry_Int_Tables_number   1
_chemical_formula_structural   NdH6SNO10
_chemical_formula_sum   'Nd2 H12 S2 N2 O20'
_cell_volume   382.08166520
_cell_formula_units_Z   2
loop_
 _symmetry_equiv_pos_site_id
 _symmetry_equiv_pos_as_xyz
  1  'x, y, z'
loop_
 _atom_site_type_symbol
 _atom_site_label
 _atom_site_symmetry_multiplicity
 _atom_site_fract_x
 _atom_site_fract_y
 _atom_site_fract_z
 _atom_site_occupancy
  Nd  Nd0  1  0.15787210  0.25000000  0.78835546  1
  Nd  Nd1  1  0.84212790  0.75000000  0.21164454  1
  H  H0  1  0.78291260  0.36417727  0.55741313  1
  H  H1  1  0.21708740  0.86417727  0.44258687  1
  H  H2  1  0.21708740  0.63582273  0.44258687  1
  H  H3  1  0.78291260  0.13582273  0.55741313  1
  H  H4  1  0.39184596  0.91224543  0.09793111  1
  H  H5  1  0.60815404  0.41224543  0.90206889  1
  H  H6  1  0.60815404  0.08775457  0.90206889  1
  H  H7  1  0.39184596  0.58775457  0.09793111  1
  H  H8  1  0.47199600  0.05277546  0.22644401  1
  H  H9  1  0.52800400  0.55277546  0.77355599  1
  H  H10  1  0.52800400  0.94722454  0.77355599  1
  H  H11  1  0.47199600  0.44722454  0.22644401  1
  S  S0  1  0.99468933  0.25000000  0.11590289  1
  S  S1  1  0.00531067  0.75000000  0.88409711  1
  N  N0  1  0.32330578  0.25000000  0.47526344  1
  N  N1  1  0.67669422  0.75000000  0.52473656  1
  O  O0  1  0.21604239  0.25000000  0.05959061  1
  O  O1  1  0.78395761  0.75000000  0.94040939  1
  O  O2  1  0.84360443  0.25000000  0.97841921  1
  O  O3  1  0.15639557  0.75000000  0.02158079  1
  O  O4  1  0.96468203  0.42098020  0.20798299  1
  O  O5  1  0.03531797  0.92098020  0.79201701  1
  O  O6  1  0.03531797  0.57901980  0.79201701  1
  O  O7  1  0.96468203  0.07901980  0.20798299  1
  O  O8  1  0.41839472  0.25000000  0.35710581  1
  O  O9  1  0.58160528  0.75000000  0.64289419  1
  O  O10  1  0.27438802  0.40516681  0.53950229  1
  O  O11  1  0.72561198  0.90516681  0.46049771  1
  O  O12  1  0.72561198  0.59483319  0.46049771  1
  O  O13  1  0.27438802  0.09483319  0.53950229  1
  O  O14  1  0.83095264  0.25000000  0.61345822  1
  O  O15  1  0.16904736  0.75000000  0.38654178  1
  O  O16  1  0.48167654  0.05045843  0.83742256  1
  O  O17  1  0.51832346  0.55045843  0.16257744  1
  O  O18  1  0.51832346  0.94954157  0.16257744  1
  O  O19  1  0.48167654  0.44954157  0.83742256  1
loop_
_geom_bond_atom_site_label_1
_geom_bond_atom_site_label_2
_geom_bond_distance
_geom_bond_site_symmetry_2
Nd0 O6 2.415293 1_555
Nd0 O5 2.415293 1_545
Nd0 O0 2.423960 1_556
Nd0 O19 2.446549 1_555
Nd0 O16 2.446549 1_555
Nd0 O14 2.465656 1_455
Nd0 O10 2.611846 1_555
Nd0 O13 2.611846 1_555
Nd0 O2 2.653539 1_455
Nd1 O7 2.415293 1_565
Nd1 O4 2.415293 1_555
Nd1 O1 2.423960 1_554
Nd1 O17 2.446549 1_555
Nd1 O18 2.446549 1_555
Nd1 O15 2.465656 1_655
Nd1 O12 2.611846 1_555
Nd1 O11 2.611846 1_555
Nd1 O3 2.653539 1_655
H0 O14 0.975703 1_555
H1 O15 0.975703 1_555
H2 O15 0.975703 1_555
H3 O14 0.975703 1_555
H4 O18 0.973877 1_555
H5 O19 0.973877 1_555
H6 O16 0.973877 1_555
H7 O17 0.973877 1_555
H8 O18 0.972107 1_545
H9 O19 0.972107 1_555
H10 O16 0.972107 1_565
H11 O17 0.972107 1_555
N0 O8 1.238549 1_555
N0 O10 1.269464 1_555
N0 O13 1.269464 1_555
N1 O9 1.238549 1_555
N1 O12 1.269464 1_555
N1 O11 1.269464 1_555
O0 S0 1.482166 1_455
O1 S1 1.482166 1_655
O2 S0 1.490930 1_556
O3 S1 1.490930 1_554
O4 S0 1.466136 1_555
O5 S1 1.466136 1_555
O6 S1 1.466136 1_555
O7 S0 1.466136 1_555
