# generated using pymatgen
data_MgAg6Mo10O33
_symmetry_space_group_name_H-M   'P 1'
_cell_length_a   7.75149072
_cell_length_b   9.02786523
_cell_length_c   11.40741905
_cell_angle_alpha   73.61710071
_cell_angle_beta   79.57602867
_cell_angle_gamma   74.71632850
_symmetry_Int_Tables_number   1
_chemical_formula_structural   MgAg6Mo10O33
_chemical_formula_sum   'Mg1 Ag6 Mo10 O33'
_cell_volume   733.87015968
_cell_formula_units_Z   1
loop_
 _symmetry_equiv_pos_site_id
 _symmetry_equiv_pos_as_xyz
  1  'x, y, z'
loop_
 _atom_site_type_symbol
 _atom_site_label
 _atom_site_symmetry_multiplicity
 _atom_site_fract_x
 _atom_site_fract_y
 _atom_site_fract_z
 _atom_site_occupancy
  Mg  Mg0  1  0.38547262  0.61114908  0.33865672  1
  Ag  Ag0  1  0.34494512  0.01491214  0.24935040  1
  Ag  Ag1  1  0.66615279  0.99377875  0.74679808  1
  Ag  Ag2  1  0.25024016  0.36934204  0.18555624  1
  Ag  Ag3  1  0.76638496  0.59793480  0.83016808  1
  Ag  Ag4  1  0.69344181  0.42823882  0.18202145  1
  Ag  Ag5  1  0.43565385  0.46434140  0.74141040  1
  Mo  Mo0  1  0.44716638  0.21716475  0.47836678  1
  Mo  Mo1  1  0.54580844  0.79253570  0.52894413  1
  Mo  Mo2  1  0.94382781  0.23282234  0.46367231  1
  Mo  Mo3  1  0.04808029  0.77961897  0.54869924  1
  Mo  Mo4  1  0.84400687  0.81561789  0.05897769  1
  Mo  Mo5  1  0.12639714  0.19263629  0.94999713  1
  Mo  Mo6  1  0.70453624  0.18864410  0.98744174  1
  Mo  Mo7  1  0.30450478  0.78748378  0.02082962  1
  Mo  Mo8  1  0.81189285  0.00443773  0.32387831  1
  Mo  Mo9  1  0.19335815  0.99350322  0.68677967  1
  O  O0  1  0.95656356  0.02381523  0.99984908  1
  O  O1  1  0.10228067  0.69719369  0.05797874  1
  O  O2  1  0.88248839  0.32557278  0.94020010  1
  O  O3  1  0.63779905  0.98980433  0.07798020  1
  O  O4  1  0.32362033  0.99509073  0.94744234  1
  O  O5  1  0.51757896  0.31976381  0.04592937  1
  O  O6  1  0.49469022  0.65617369  0.97393400  1
  O  O7  1  0.75199844  0.65675867  0.15082130  1
  O  O8  1  0.24225045  0.33647264  0.86207649  1
  O  O9  1  0.16185593  0.18592969  0.10095314  1
  O  O10  1  0.81560692  0.81172090  0.90962545  1
  O  O11  1  0.33625701  0.77312496  0.17781226  1
  O  O12  1  0.65697124  0.19691873  0.84030435  1
  O  O13  1  0.78381791  0.16875329  0.19244906  1
  O  O14  1  0.22590604  0.83274549  0.81753510  1
  O  O15  1  0.87811224  0.85032604  0.24643306  1
  O  O16  1  0.12263833  0.15130013  0.76074156  1
  O  O17  1  0.42333581  0.38965611  0.32712600  1
  O  O18  1  0.57814212  0.65650356  0.67994573  1
  O  O19  1  0.98158246  0.35684212  0.31560610  1
  O  O20  1  0.01379544  0.65113788  0.69243867  1
  O  O21  1  0.03013372  0.00028944  0.37990589  1
  O  O22  1  0.97165677  0.99684177  0.62725369  1
  O  O23  1  0.54503699  0.01575828  0.38125740  1
  O  O24  1  0.45428612  0.99512655  0.62552408  1
  O  O25  1  0.16240686  0.65361904  0.45139926  1
  O  O26  1  0.84575512  0.35898658  0.55700516  1
  O  O27  1  0.54417808  0.69301409  0.41271230  1
  O  O28  1  0.43067093  0.32529172  0.58485322  1
  O  O29  1  0.72684897  0.17355175  0.44465015  1
  O  O30  1  0.27089873  0.83160320  0.56558639  1
  O  O31  1  0.80571939  0.82708531  0.50287172  1
  O  O32  1  0.19657951  0.17375399  0.50047263  1
loop_
_geom_bond_atom_site_label_1
_geom_bond_atom_site_label_2
_geom_bond_distance
_geom_bond_site_symmetry_2
Mg0 O25 1.978580 1_555
Mg0 O17 1.981636 1_555
Mg0 O27 1.995213 1_555
Mg0 O11 2.023875 1_555
Ag0 O9 2.345928 1_555
Ag0 O23 2.350983 1_555
Ag0 O11 2.556846 1_545
Ag0 O21 2.633272 1_555
Ag0 O3 2.720108 1_545
Ag1 O24 2.326630 1_555
Ag1 O12 2.348047 1_565
Ag1 O10 2.355051 1_555
Ag1 O22 2.512576 1_555
Ag2 O19 2.337071 1_455
Ag2 O17 2.350079 1_555
Ag2 O5 2.397998 1_555
Ag2 O9 2.425147 1_555
Ag3 O18 2.309171 1_555
Ag3 O20 2.312297 1_655
Ag3 O2 2.435670 1_555
Ag3 O6 2.460538 1_555
Ag3 O10 2.488449 1_555
Ag4 O7 2.147061 1_555
Ag4 O13 2.236173 1_555
Ag4 O17 2.459687 1_555
Ag5 O8 2.178092 1_555
Ag5 O18 2.182858 1_555
Ag5 O28 2.466173 1_555
Ag5 O12 2.650431 1_555
Mo0 O28 1.729656 1_555
Mo0 O17 1.970722 1_555
Mo0 O32 2.039243 1_555
Mo0 O29 2.082469 1_555
Mo0 O24 2.217241 1_545
Mo0 O23 2.283354 1_555
Mo1 O27 1.802635 1_555
Mo1 O18 1.827229 1_555
Mo1 O30 2.050541 1_555
Mo1 O31 2.075302 1_555
Mo1 O23 2.231937 1_565
Mo1 O24 2.287360 1_555
Mo2 O26 1.715661 1_555
Mo2 O19 1.766126 1_555
Mo2 O29 1.958124 1_555
Mo2 O32 1.979801 1_655
Mo2 O22 2.393337 1_545
Mo2 O21 2.434641 1_655
Mo3 O20 1.742575 1_555
Mo3 O25 1.770903 1_555
Mo3 O31 1.947018 1_455
Mo3 O30 1.959393 1_555
Mo3 O22 2.277378 1_455
Mo3 O21 2.341498 1_565
Mo4 O7 1.756241 1_555
Mo4 O10 1.768047 1_554
Mo4 O3 1.953601 1_555
Mo4 O1 2.005341 1_655
Mo4 O0 2.164583 1_564
Mo4 O15 2.316671 1_555
Mo5 O8 1.747211 1_555
Mo5 O9 1.774329 1_556
Mo5 O2 1.957539 1_455
Mo5 O4 2.023461 1_545
Mo5 O0 2.162701 1_455
Mo5 O16 2.298698 1_555
Mo6 O12 1.759951 1_555
Mo6 O5 1.771382 1_556
Mo6 O3 1.951169 1_546
Mo6 O2 1.993850 1_555
Mo6 O0 2.121203 1_555
Mo6 O13 2.470623 1_556
Mo7 O6 1.736612 1_554
Mo7 O11 1.815475 1_555
Mo7 O4 1.857957 1_554
Mo7 O1 1.881376 1_555
Mo7 O14 2.400355 1_554
Mo8 O15 1.769874 1_545
Mo8 O13 1.785767 1_555
Mo8 O21 1.901594 1_655
Mo8 O23 2.038146 1_555
Mo8 O31 2.212655 1_545
Mo8 O29 2.234019 1_555
Mo9 O14 1.765426 1_555
Mo9 O16 1.772205 1_565
Mo9 O22 1.949030 1_455
Mo9 O24 2.019344 1_555
Mo9 O30 2.187450 1_555
Mo9 O32 2.284025 1_565
