# generated using pymatgen
data_YMg6Zn
_symmetry_space_group_name_H-M   'P 1'
_cell_length_a   5.03756900
_cell_length_b   6.10467800
_cell_length_c   12.08486200
_cell_angle_alpha   90.00000000
_cell_angle_beta   90.00000000
_cell_angle_gamma   90.00000000
_symmetry_Int_Tables_number   1
_chemical_formula_structural   YMg6Zn
_chemical_formula_sum   'Y2 Mg12 Zn2'
_cell_volume   371.64257851
_cell_formula_units_Z   2
loop_
 _symmetry_equiv_pos_site_id
 _symmetry_equiv_pos_as_xyz
  1  'x, y, z'
loop_
 _atom_site_type_symbol
 _atom_site_label
 _atom_site_symmetry_multiplicity
 _atom_site_fract_x
 _atom_site_fract_y
 _atom_site_fract_z
 _atom_site_occupancy
  Y  Y0  1  0.50000000  0.00000000  0.18673500  1
  Y  Y1  1  0.50000000  0.50000000  0.68673500  1
  Mg  Mg0  1  0.50000000  0.25224700  0.43091000  1
  Mg  Mg1  1  0.50000000  0.74775300  0.43091000  1
  Mg  Mg2  1  0.00000000  0.74960100  0.07781300  1
  Mg  Mg3  1  0.00000000  0.25039900  0.07781300  1
  Mg  Mg4  1  0.00000000  0.00000000  0.34397000  1
  Mg  Mg5  1  0.00000000  0.50000000  0.30746600  1
  Mg  Mg6  1  0.50000000  0.75224700  0.93091000  1
  Mg  Mg7  1  0.50000000  0.24775300  0.93091000  1
  Mg  Mg8  1  0.00000000  0.24960100  0.57781300  1
  Mg  Mg9  1  0.00000000  0.75039900  0.57781300  1
  Mg  Mg10  1  0.00000000  0.50000000  0.84397000  1
  Mg  Mg11  1  0.00000000  0.00000000  0.80746600  1
  Zn  Zn0  1  0.50000000  0.50000000  0.14437800  1
  Zn  Zn1  1  0.50000000  0.00000000  0.64437800  1
loop_
_geom_bond_atom_site_label_1
_geom_bond_atom_site_label_2
_geom_bond_distance
_geom_bond_site_symmetry_2
Y0 Zn0 3.094963 1_555
Y0 Zn0 3.094963 1_545
Y1 Zn1 3.094963 1_565
Y1 Zn1 3.094963 1_555
Mg0 Zn1 3.004374 1_555
Mg0 Mg1 3.024905 1_555
Mg0 Mg1 3.079773 1_545
Mg0 Mg8 3.081596 1_555
Mg0 Mg8 3.081596 1_655
Mg0 Mg4 3.133594 1_555
Mg0 Mg4 3.133594 1_655
Mg0 Mg5 3.295037 1_555
Mg0 Mg5 3.295037 1_655
Mg0 Y0 3.328453 1_555
Mg0 Y1 3.441738 1_555
Mg1 Zn1 3.004374 1_565
Mg1 Mg9 3.081596 1_655
Mg1 Mg9 3.081596 1_555
Mg1 Mg4 3.133594 1_665
Mg1 Mg4 3.133594 1_565
Mg1 Mg5 3.295037 1_555
Mg1 Mg5 3.295037 1_655
Mg1 Y0 3.328453 1_565
Mg1 Y1 3.441738 1_555
Mg2 Mg3 3.047467 1_555
Mg2 Zn0 3.051745 1_455
Mg2 Zn0 3.051745 1_555
Mg2 Mg3 3.057211 1_565
Mg2 Mg6 3.081596 1_454
Mg2 Mg6 3.081596 1_554
Mg2 Mg5 3.166100 1_555
Mg2 Y0 3.227007 1_565
Mg2 Y0 3.227007 1_465
Mg3 Zn0 3.051745 1_555
Mg3 Zn0 3.051745 1_455
Mg3 Mg7 3.081596 1_554
Mg3 Mg7 3.081596 1_454
Mg3 Mg5 3.166100 1_555
Mg3 Y0 3.227007 1_555
Mg3 Y0 3.227007 1_455
Mg4 Mg5 3.084053 1_555
Mg4 Mg5 3.084053 1_545
Mg4 Y0 3.155138 1_455
Mg4 Y0 3.155138 1_555
Mg4 Mg8 3.210579 1_555
Mg4 Mg9 3.210579 1_545
Mg5 Zn0 3.198235 1_455
Mg5 Zn0 3.198235 1_555
Mg6 Zn0 3.004374 1_556
Mg6 Mg7 3.024905 1_565
Mg6 Mg7 3.079773 1_555
Mg6 Y1 3.328453 1_555
Mg6 Y0 3.441738 1_566
Mg7 Zn0 3.004374 1_556
Mg7 Y1 3.328453 1_555
Mg7 Y0 3.441738 1_556
Mg8 Mg9 3.047467 1_545
Mg8 Zn1 3.051745 1_455
Mg8 Zn1 3.051745 1_555
Mg8 Mg9 3.057211 1_555
Mg8 Y1 3.227007 1_455
Mg8 Y1 3.227007 1_555
Mg9 Zn1 3.051745 1_565
Mg9 Zn1 3.051745 1_465
Mg9 Y1 3.227007 1_455
Mg9 Y1 3.227007 1_555
Mg10 Mg11 3.084053 1_565
Mg10 Mg11 3.084053 1_555
Mg10 Mg6 3.133594 1_555
Mg10 Mg7 3.133594 1_455
Mg10 Mg7 3.133594 1_555
Mg10 Mg6 3.133594 1_455
Mg10 Y1 3.155138 1_455
Mg10 Y1 3.155138 1_555
Mg10 Mg3 3.210579 1_556
Mg10 Mg2 3.210579 1_556
Mg11 Mg9 3.166100 1_545
Mg11 Mg8 3.166100 1_555
Mg11 Zn1 3.198235 1_555
Mg11 Zn1 3.198235 1_455
Mg11 Mg6 3.295037 1_445
Mg11 Mg6 3.295037 1_545
Mg11 Mg7 3.295037 1_455
Mg11 Mg7 3.295037 1_555
