# generated using pymatgen
data_TmZnSn
_symmetry_space_group_name_H-M   'P 1'
_cell_length_a   4.42151270
_cell_length_b   4.42151270
_cell_length_c   15.82754761
_cell_angle_alpha   90.00000000
_cell_angle_beta   90.00000000
_cell_angle_gamma   119.99999371
_symmetry_Int_Tables_number   1
_chemical_formula_structural   TmZnSn
_chemical_formula_sum   'Tm4 Zn4 Sn4'
_cell_volume   267.96991675
_cell_formula_units_Z   4
loop_
 _symmetry_equiv_pos_site_id
 _symmetry_equiv_pos_as_xyz
  1  'x, y, z'
loop_
 _atom_site_type_symbol
 _atom_site_label
 _atom_site_symmetry_multiplicity
 _atom_site_fract_x
 _atom_site_fract_y
 _atom_site_fract_z
 _atom_site_occupancy
  Tm  Tm0  1  0.00000000  0.00000000  0.25000000  1
  Tm  Tm1  1  0.00000000  -0.00000000  0.75000000  1
  Tm  Tm2  1  0.00000000  -0.00000000  -0.00000000  1
  Tm  Tm3  1  0.00000000  -0.00000000  0.50000000  1
  Zn  Zn0  1  0.33333300  0.66666700  0.16311507  1
  Zn  Zn1  1  0.66666700  0.33333300  0.83688493  1
  Zn  Zn2  1  0.66666700  0.33333300  0.66311507  1
  Zn  Zn3  1  0.33333300  0.66666700  0.33688493  1
  Sn  Sn0  1  0.33333300  0.66666700  0.61287389  1
  Sn  Sn1  1  0.66666700  0.33333300  0.38712611  1
  Sn  Sn2  1  0.66666700  0.33333300  0.11287389  1
  Sn  Sn3  1  0.33333300  0.66666700  0.88712611  1
loop_
_geom_bond_atom_site_label_1
_geom_bond_atom_site_label_2
_geom_bond_distance
_geom_bond_site_symmetry_2
Tm0 Zn3 2.899601 1_545
Tm0 Zn0 2.899601 1_545
Tm0 Zn3 2.899604 1_445
Tm0 Zn0 2.899604 1_445
Tm0 Zn0 2.899604 1_555
Tm0 Zn3 2.899604 1_555
Tm1 Zn2 2.899601 1_455
Tm1 Zn1 2.899601 1_455
Tm1 Zn1 2.899604 1_555
Tm1 Zn2 2.899604 1_555
Tm1 Zn2 2.899604 1_445
Tm1 Zn1 2.899604 1_445
Sn0 Zn2 2.673745 1_455
Sn0 Zn2 2.673745 1_565
Sn0 Zn2 2.673752 1_555
Sn0 Tm3 3.115802 1_565
Sn0 Tm3 3.115805 1_555
Sn0 Tm3 3.115805 1_665
Sn0 Tm1 3.350684 1_565
Sn0 Tm1 3.350687 1_665
Sn0 Tm1 3.350687 1_555
Sn1 Zn3 2.673745 1_545
Sn1 Zn3 2.673745 1_655
Sn1 Zn3 2.673752 1_555
Sn1 Tm3 3.115802 1_655
Sn1 Tm3 3.115805 1_555
Sn1 Tm3 3.115805 1_665
Sn1 Tm0 3.350684 1_655
Sn1 Tm0 3.350687 1_665
Sn1 Tm0 3.350687 1_555
Sn2 Zn0 2.673745 1_545
Sn2 Zn0 2.673745 1_655
Sn2 Zn0 2.673752 1_555
Sn2 Tm2 3.115802 1_655
Sn2 Tm2 3.115805 1_555
Sn2 Tm2 3.115805 1_665
Sn2 Tm0 3.350684 1_655
Sn2 Tm0 3.350687 1_555
Sn2 Tm0 3.350687 1_665
Sn3 Zn1 2.673745 1_455
Sn3 Zn1 2.673745 1_565
Sn3 Zn1 2.673752 1_555
Sn3 Tm2 3.115802 1_566
Sn3 Tm2 3.115805 1_666
Sn3 Tm2 3.115805 1_556
Sn3 Tm1 3.350684 1_565
Sn3 Tm1 3.350687 1_665
Sn3 Tm1 3.350687 1_555
