# generated using pymatgen
data_Na5Ca2Fe3(PO4)6
_symmetry_space_group_name_H-M   'P 1'
_cell_length_a   6.57443200
_cell_length_b   8.84173509
_cell_length_c   9.06218977
_cell_angle_alpha   91.24852219
_cell_angle_beta   107.32149296
_cell_angle_gamma   106.56263114
_symmetry_Int_Tables_number   1
_chemical_formula_structural   Na5Ca2Fe3(PO4)6
_chemical_formula_sum   'Na5 Ca2 Fe3 P6 O24'
_cell_volume   478.73815638
_cell_formula_units_Z   1
loop_
 _symmetry_equiv_pos_site_id
 _symmetry_equiv_pos_as_xyz
  1  'x, y, z'
loop_
 _atom_site_type_symbol
 _atom_site_label
 _atom_site_symmetry_multiplicity
 _atom_site_fract_x
 _atom_site_fract_y
 _atom_site_fract_z
 _atom_site_occupancy
  Na  Na0  1  0.74328300  0.02154000  0.98146400  1
  Na  Na1  1  0.25317500  0.97344000  0.02068600  1
  Na  Na2  1  0.51329900  0.51389300  0.48966500  1
  Na  Na3  1  0.99277600  0.50241800  0.49794300  1
  Na  Na4  1  0.76423700  0.73125700  0.27160400  1
  Ca  Ca0  1  0.32360200  0.90649800  0.61284500  1
  Ca  Ca1  1  0.25429400  0.27665900  0.73098800  1
  Fe  Fe0  1  0.14156500  0.38135200  0.06505100  1
  Fe  Fe1  1  0.64005400  0.06236500  0.38591200  1
  Fe  Fe2  1  0.84962900  0.61543700  0.92890600  1
  P  P0  1  0.75121100  0.27897800  0.72490900  1
  P  P1  1  0.25000900  0.71732200  0.25852100  1
  P  P2  1  0.36673100  0.65272800  0.87186300  1
  P  P3  1  0.13670600  0.14838300  0.34583400  1
  P  P4  1  0.63315500  0.34231800  0.14224000  1
  P  P5  1  0.86914900  0.86818700  0.66101100  1
  O  O0  1  0.54337800  0.16152300  0.74846600  1
  O  O1  1  0.96370200  0.25912300  0.84845300  1
  O  O2  1  0.46559700  0.84838600  0.25515000  1
  O  O3  1  0.05020300  0.74540600  0.12853900  1
  O  O4  1  0.16786100  0.57716200  0.93787000  1
  O  O5  1  0.32707600  0.06871200  0.39082600  1
  O  O6  1  0.81962800  0.40336400  0.06032800  1
  O  O7  1  0.66888600  0.93119000  0.57925100  1
  O  O8  1  0.59107700  0.64083500  0.98633700  1
  O  O9  1  0.91613200  0.02481100  0.35203100  1
  O  O10  1  0.40009400  0.32724600  0.01678100  1
  O  O11  1  0.08847300  0.00793500  0.69900100  1
  O  O12  1  0.77942600  0.25328800  0.56192800  1
  O  O13  1  0.73021500  0.45029500  0.74214300  1
  O  O14  1  0.19929800  0.72010800  0.41149300  1
  O  O15  1  0.28768100  0.55273100  0.23575200  1
  O  O16  1  0.31463000  0.55649500  0.71405200  1
  O  O17  1  0.19693800  0.29721400  0.46018000  1
  O  O18  1  0.67979000  0.45348500  0.28639000  1
  O  O19  1  0.87076200  0.72980800  0.55734700  1
  O  O20  1  0.38738900  0.82964800  0.86127900  1
  O  O21  1  0.09820900  0.18585300  0.17270900  1
  O  O22  1  0.62005700  0.16835600  0.18159000  1
  O  O23  1  0.85062100  0.81424700  0.82266400  1
loop_
_geom_bond_atom_site_label_1
_geom_bond_atom_site_label_2
_geom_bond_distance
_geom_bond_site_symmetry_2
Na0 O20 2.382905 1_545
Na0 O21 2.471565 1_656
Na0 O22 2.646197 1_556
Na0 O0 2.665770 1_555
Na0 O23 2.674954 1_545
Na0 O1 2.716716 1_555
Na1 O20 2.408392 1_554
Na1 O3 2.475821 1_555
Na1 O22 2.518021 1_565
Na1 O2 2.627416 1_555
Na1 O23 2.672795 1_454
Na1 O11 2.848004 1_564
Na1 O21 2.876998 1_565
Na1 O10 3.003783 1_565
Na2 O17 2.332959 1_555
Na2 O15 2.430064 1_555
Na2 O19 2.465061 1_555
Na2 O13 2.480972 1_555
Na2 O18 2.523467 1_555
Na2 O16 2.794886 1_555
Na3 O18 2.281222 1_555
Na3 O14 2.317571 1_655
Na3 O16 2.335863 1_655
Na3 O12 2.436018 1_555
Na3 O19 2.470819 1_555
Na3 O17 2.616400 1_655
Na4 O18 2.374723 1_555
Na4 O2 2.437478 1_555
Na4 O19 2.474391 1_555
Na4 O8 2.501347 1_554
Na4 O9 2.504324 1_565
Na4 O3 2.560383 1_655
Na4 O14 2.793748 1_655
Ca0 O14 2.219561 1_555
Ca0 O11 2.298307 1_565
Ca0 O20 2.317994 1_555
Ca0 O7 2.329230 1_555
Ca0 O0 2.376329 1_565
Ca0 O5 2.498019 1_565
Ca0 O19 2.824807 1_455
Ca1 O11 2.285360 1_555
Ca1 O0 2.367361 1_555
Ca1 O17 2.388589 1_555
Ca1 O16 2.407486 1_555
Ca1 O1 2.420001 1_455
Ca1 O10 2.460349 1_556
Fe0 O15 1.948067 1_555
Fe0 O21 1.994779 1_555
Fe0 O10 2.050928 1_555
Fe0 O1 2.051447 1_454
Fe0 O4 2.095374 1_554
Fe0 O6 2.168128 1_455
Fe1 O2 2.038379 1_545
Fe1 O9 2.042047 1_555
Fe1 O22 2.079632 1_555
Fe1 O5 2.087907 1_555
Fe1 O12 2.089028 1_555
Fe1 O7 2.113528 1_545
Fe2 O8 1.987475 1_555
Fe2 O3 1.989277 1_656
Fe2 O13 2.015043 1_555
Fe2 O23 2.021856 1_555
Fe2 O4 2.191362 1_655
Fe2 O6 2.235985 1_556
O0 P0 1.537992 1_555
O1 P0 1.566189 1_555
O2 P1 1.563220 1_555
O3 P1 1.565906 1_555
O4 P2 1.580738 1_555
O5 P3 1.562114 1_555
O6 P4 1.589780 1_555
O7 P5 1.564610 1_555
O8 P2 1.563572 1_555
O9 P3 1.564509 1_655
O10 P4 1.580441 1_555
O11 P5 1.547423 1_445
O12 P0 1.562041 1_555
O13 P0 1.568317 1_555
O14 P1 1.520488 1_555
O15 P1 1.563510 1_555
O16 P2 1.541311 1_555
O17 P3 1.536676 1_555
O18 P4 1.516678 1_555
O19 P5 1.530636 1_555
O20 P2 1.538762 1_555
O21 P3 1.571384 1_555
O22 P4 1.570695 1_555
O23 P5 1.578574 1_555
