# generated using pymatgen
data_Al3SiMo12
_symmetry_space_group_name_H-M   'P 1'
_cell_length_a   4.96983600
_cell_length_b   4.96866200
_cell_length_c   9.92439600
_cell_angle_alpha   90.00000000
_cell_angle_beta   90.00000000
_cell_angle_gamma   90.00000000
_symmetry_Int_Tables_number   1
_chemical_formula_structural   Al3SiMo12
_chemical_formula_sum   'Al3 Si1 Mo12'
_cell_volume   245.06743031
_cell_formula_units_Z   1
loop_
 _symmetry_equiv_pos_site_id
 _symmetry_equiv_pos_as_xyz
  1  'x, y, z'
loop_
 _atom_site_type_symbol
 _atom_site_label
 _atom_site_symmetry_multiplicity
 _atom_site_fract_x
 _atom_site_fract_y
 _atom_site_fract_z
 _atom_site_occupancy
  Al  Al0  1  0.50000000  0.50000000  0.25000800  1
  Al  Al1  1  0.50000000  0.50000000  0.74999200  1
  Al  Al2  1  0.00000000  0.00000000  0.00000000  1
  Si  Si0  1  0.00000000  0.00000000  0.50000000  1
  Mo  Mo0  1  0.00000000  0.50000000  0.37590500  1
  Mo  Mo1  1  0.00000000  0.50000000  0.87492800  1
  Mo  Mo2  1  0.50000000  0.24987100  0.00000000  1
  Mo  Mo3  1  0.50000000  0.24795100  0.50000000  1
  Mo  Mo4  1  0.75057000  0.00000000  0.25096300  1
  Mo  Mo5  1  0.75057000  0.00000000  0.74903700  1
  Mo  Mo6  1  0.00000000  0.50000000  0.12507200  1
  Mo  Mo7  1  0.00000000  0.50000000  0.62409500  1
  Mo  Mo8  1  0.50000000  0.75012900  0.00000000  1
  Mo  Mo9  1  0.50000000  0.75204900  0.50000000  1
  Mo  Mo10  1  0.24943000  0.00000000  0.25096300  1
  Mo  Mo11  1  0.24943000  0.00000000  0.74903700  1
loop_
_geom_bond_atom_site_label_1
_geom_bond_atom_site_label_2
_geom_bond_distance
_geom_bond_site_symmetry_2
Al0 Mo2 2.775034 1_555
Al0 Mo8 2.775034 1_555
Al0 Mo6 2.777086 1_655
Al0 Mo6 2.777086 1_555
Al0 Mo4 2.778982 1_555
Al0 Mo10 2.778982 1_565
Al0 Mo4 2.778982 1_565
Al0 Mo10 2.778982 1_555
Al0 Mo3 2.779178 1_555
Al0 Mo9 2.779178 1_555
Al0 Mo0 2.781357 1_655
Al0 Mo0 2.781357 1_555
Al1 Mo2 2.775034 1_556
Al1 Mo8 2.775034 1_556
Al1 Mo1 2.777086 1_555
Al1 Mo1 2.777086 1_655
Al1 Mo11 2.778982 1_555
Al1 Mo5 2.778982 1_555
Al1 Mo11 2.778982 1_565
Al1 Mo5 2.778982 1_565
Al1 Mo3 2.779178 1_555
Al1 Mo9 2.779178 1_555
Al1 Mo7 2.781357 1_555
Al1 Mo7 2.781357 1_655
Al2 Mo1 2.777163 1_554
Al2 Mo6 2.777163 1_545
Al2 Mo6 2.777163 1_555
Al2 Mo1 2.777163 1_544
Al2 Mo8 2.777805 1_445
Al2 Mo8 2.777805 1_545
Al2 Mo2 2.777805 1_455
Al2 Mo2 2.777805 1_555
Al2 Mo4 2.782093 1_455
Al2 Mo10 2.782093 1_555
Al2 Mo5 2.782093 1_454
Al2 Mo11 2.782093 1_554
Mo0 Mo7 2.463136 1_555
Mo0 Mo6 2.489366 1_555
Mo0 Si0 2.772843 1_555
Mo0 Si0 2.772843 1_565
Mo1 Mo6 2.482528 1_556
Mo1 Mo7 2.489366 1_555
Mo2 Mo8 2.483049 1_545
Mo2 Mo8 2.485613 1_555
Mo3 Mo9 2.463969 1_545
Mo3 Mo9 2.504693 1_555
Mo3 Si0 2.773554 1_655
Mo3 Si0 2.773554 1_555
Mo4 Si0 2.764994 1_655
Mo5 Si0 2.764994 1_655
Mo7 Si0 2.772843 1_565
Mo7 Si0 2.772843 1_555
Mo9 Si0 2.773554 1_565
Mo9 Si0 2.773554 1_665
Mo10 Mo4 2.479252 1_455
Mo10 Mo4 2.490584 1_555
Mo10 Si0 2.764994 1_555
Mo11 Mo5 2.479252 1_455
Mo11 Mo5 2.490584 1_555
Mo11 Si0 2.764994 1_555
