# generated using pymatgen
data_Li4V9O18
_symmetry_space_group_name_H-M   'P 1'
_cell_length_a   2.99780600
_cell_length_b   8.88684300
_cell_length_c   25.29255900
_cell_angle_alpha   90.00000000
_cell_angle_beta   90.00000000
_cell_angle_gamma   90.00000000
_symmetry_Int_Tables_number   1
_chemical_formula_structural   Li4V9O18
_chemical_formula_sum   'Li8 V18 O36'
_cell_volume   673.81985513
_cell_formula_units_Z   2
loop_
 _symmetry_equiv_pos_site_id
 _symmetry_equiv_pos_as_xyz
  1  'x, y, z'
loop_
 _atom_site_type_symbol
 _atom_site_label
 _atom_site_symmetry_multiplicity
 _atom_site_fract_x
 _atom_site_fract_y
 _atom_site_fract_z
 _atom_site_occupancy
  Li  Li0  1  0.00000000  0.18300700  0.98946800  1
  Li  Li1  1  0.00000000  0.18285300  0.20122800  1
  Li  Li2  1  0.00000000  0.31714700  0.70122800  1
  Li  Li3  1  0.00000000  0.31699300  0.48946800  1
  Li  Li4  1  0.00000000  0.68300700  0.51053200  1
  Li  Li5  1  0.00000000  0.68285300  0.29877200  1
  Li  Li6  1  0.00000000  0.81714700  0.79877200  1
  Li  Li7  1  0.00000000  0.81699300  0.01053200  1
  V  V0  1  0.00000000  0.00000000  0.50000000  1
  V  V1  1  0.00000000  0.98878300  0.10278300  1
  V  V2  1  0.00000000  0.02729400  0.31079000  1
  V  V3  1  0.50000000  0.15080800  0.58626200  1
  V  V4  1  0.50000000  0.13693800  0.80282400  1
  V  V5  1  0.50000000  0.36306200  0.30282400  1
  V  V6  1  0.50000000  0.34919200  0.08626200  1
  V  V7  1  0.00000000  0.47270600  0.81079000  1
  V  V8  1  0.00000000  0.51121700  0.60278300  1
  V  V9  1  0.00000000  0.50000000  0.00000000  1
  V  V10  1  0.00000000  0.48878300  0.39721700  1
  V  V11  1  0.00000000  0.52729400  0.18921000  1
  V  V12  1  0.50000000  0.65080800  0.91373800  1
  V  V13  1  0.50000000  0.63693800  0.69717600  1
  V  V14  1  0.50000000  0.86306200  0.19717600  1
  V  V15  1  0.50000000  0.84919200  0.41373800  1
  V  V16  1  0.00000000  0.97270600  0.68921000  1
  V  V17  1  0.00000000  0.01121700  0.89721700  1
  O  O0  1  0.00000000  0.99869800  0.42508300  1
  O  O1  1  0.00000000  0.00130200  0.57491700  1
  O  O2  1  0.50000000  0.06839500  0.94124900  1
  O  O3  1  0.50000000  0.04805800  0.15959400  1
  O  O4  1  0.50000000  0.10230400  0.66342200  1
  O  O5  1  0.00000000  0.08126800  0.75767000  1
  O  O6  1  0.50000000  0.15092600  0.50517400  1
  O  O7  1  0.50000000  0.16003200  0.28033900  1
  O  O8  1  0.00000000  0.19060100  0.85336100  1
  O  O9  1  0.00000000  0.19315900  0.08463300  1
  O  O10  1  0.00000000  0.30684100  0.58463300  1
  O  O11  1  0.00000000  0.30939900  0.35336100  1
  O  O12  1  0.50000000  0.33996800  0.78033900  1
  O  O13  1  0.50000000  0.34907400  0.00517400  1
  O  O14  1  0.00000000  0.41873200  0.25767000  1
  O  O15  1  0.50000000  0.39769600  0.16342200  1
  O  O16  1  0.50000000  0.45194200  0.65959400  1
  O  O17  1  0.50000000  0.43160500  0.44124900  1
  O  O18  1  0.00000000  0.49869800  0.07491700  1
  O  O19  1  0.00000000  0.50130200  0.92508300  1
  O  O20  1  0.50000000  0.56839500  0.55875100  1
  O  O21  1  0.50000000  0.54805800  0.34040600  1
  O  O22  1  0.50000000  0.60230400  0.83657800  1
  O  O23  1  0.00000000  0.58126800  0.74233000  1
  O  O24  1  0.50000000  0.65092600  0.99482600  1
  O  O25  1  0.50000000  0.66003200  0.21966100  1
  O  O26  1  0.00000000  0.69060100  0.64663900  1
  O  O27  1  0.00000000  0.69315900  0.41536700  1
  O  O28  1  0.00000000  0.80684100  0.91536700  1
  O  O29  1  0.00000000  0.80939900  0.14663900  1
  O  O30  1  0.50000000  0.83996800  0.71966100  1
  O  O31  1  0.50000000  0.84907400  0.49482600  1
  O  O32  1  0.00000000  0.91873200  0.24233000  1
  O  O33  1  0.50000000  0.89769600  0.33657800  1
  O  O34  1  0.50000000  0.95194200  0.84040600  1
  O  O35  1  0.50000000  0.93160500  0.05875100  1
loop_
_geom_bond_atom_site_label_1
_geom_bond_atom_site_label_2
_geom_bond_distance
_geom_bond_site_symmetry_2
Li0 O13 2.140685 1_456
Li0 O13 2.140685 1_556
Li0 O2 2.184379 1_455
Li0 O2 2.184379 1_555
Li0 O9 2.408657 1_556
Li1 O3 2.188733 1_455
Li1 O3 2.188733 1_555
Li1 O7 2.508290 1_455
Li1 O7 2.508290 1_555
Li1 O14 2.536153 1_555
Li1 O32 2.567114 1_545
Li1 O15 2.608905 1_455
Li1 O15 2.608905 1_555
Li2 O16 2.188733 1_455
Li2 O16 2.188733 1_555
Li2 O12 2.508290 1_455
Li2 O12 2.508290 1_555
Li2 O5 2.536153 1_555
Li2 O23 2.567114 1_555
Li2 O4 2.608905 1_555
Li2 O4 2.608905 1_455
Li3 O6 2.140685 1_455
Li3 O6 2.140685 1_555
Li3 O17 2.184379 1_455
Li3 O17 2.184379 1_555
Li3 O10 2.408657 1_555
Li4 O31 2.140685 1_455
Li4 O31 2.140685 1_555
Li4 O20 2.184379 1_455
Li4 O20 2.184379 1_555
Li4 O27 2.408657 1_555
Li5 O21 2.188733 1_455
Li5 O21 2.188733 1_555
Li5 O25 2.508290 1_555
Li5 O25 2.508290 1_455
Li5 O32 2.536153 1_555
Li5 O14 2.567114 1_555
Li5 O33 2.608905 1_555
Li5 O33 2.608905 1_455
Li6 O34 2.188733 1_455
Li6 O34 2.188733 1_555
Li6 O30 2.508290 1_455
Li6 O30 2.508290 1_555
Li6 O23 2.536153 1_555
Li6 O5 2.567114 1_565
Li6 O22 2.608905 1_455
Li6 O22 2.608905 1_555
Li7 O24 2.140685 1_454
Li7 O24 2.140685 1_554
Li7 O35 2.184379 1_555
Li7 O35 2.184379 1_455
Li7 O28 2.408657 1_554
O0 V0 1.894878 1_565
O0 V15 2.023443 1_555
O0 V15 2.023443 1_455
O1 V0 1.894878 1_555
O1 V3 2.023443 1_555
O1 V3 2.023443 1_455
O2 V17 1.935251 1_555
O2 V17 1.935251 1_655
O3 V14 1.899045 1_545
O3 V1 2.142163 1_545
O3 V1 2.142163 1_645
O4 V3 1.998610 1_555
O4 V16 1.999646 1_645
O4 V16 1.999646 1_545
O5 V4 1.948274 1_455
O5 V4 1.948274 1_555
O5 V16 1.982165 1_545
O6 V0 2.015639 1_655
O6 V0 2.015639 1_555
O6 V3 2.050923 1_555
O7 V5 1.891800 1_555
O7 V2 2.057037 1_555
O7 V2 2.057037 1_655
O8 V17 1.942094 1_555
O8 V4 2.026810 1_555
O8 V4 2.026810 1_455
O9 V1 1.873373 1_545
O9 V6 2.042347 1_555
O9 V6 2.042347 1_455
O10 V8 1.873373 1_555
O10 V3 2.042347 1_455
O10 V3 2.042347 1_555
O11 V10 1.942094 1_555
O11 V5 2.026810 1_555
O11 V5 2.026810 1_455
O12 V4 1.891800 1_555
O12 V7 2.057037 1_555
O12 V7 2.057037 1_655
O13 V9 2.015639 1_555
O13 V9 2.015639 1_655
O13 V6 2.050923 1_555
O14 V5 1.948274 1_455
O14 V5 1.948274 1_555
O14 V11 1.982165 1_555
O15 V6 1.998610 1_555
O15 V11 1.999646 1_555
O15 V11 1.999646 1_655
O16 V13 1.899045 1_555
O16 V8 2.142163 1_555
O16 V8 2.142163 1_655
O17 V10 1.935251 1_655
O17 V10 1.935251 1_555
O18 V9 1.894878 1_555
O18 V6 2.023443 1_455
O18 V6 2.023443 1_555
O19 V9 1.894878 1_556
O19 V12 2.023443 1_455
O19 V12 2.023443 1_555
O20 V8 1.935251 1_655
O20 V8 1.935251 1_555
O21 V5 1.899045 1_555
O21 V10 2.142163 1_655
O21 V10 2.142163 1_555
O22 V12 1.998610 1_555
O22 V7 1.999646 1_555
O22 V7 1.999646 1_655
O23 V13 1.948274 1_555
O23 V13 1.948274 1_455
O23 V7 1.982165 1_555
O24 V9 2.015639 1_556
O24 V9 2.015639 1_656
O24 V12 2.050923 1_555
O25 V14 1.891800 1_555
O25 V11 2.057037 1_555
O25 V11 2.057037 1_655
O26 V8 1.942094 1_555
O26 V13 2.026810 1_555
O26 V13 2.026810 1_455
O27 V10 1.873373 1_555
O27 V15 2.042347 1_555
O27 V15 2.042347 1_455
O28 V17 1.873373 1_565
O28 V12 2.042347 1_555
O28 V12 2.042347 1_455
O29 V1 1.942094 1_555
O29 V14 2.026810 1_455
O29 V14 2.026810 1_555
O30 V13 1.891800 1_555
O30 V16 2.057037 1_655
O30 V16 2.057037 1_555
O31 V0 2.015639 1_565
O31 V0 2.015639 1_665
O31 V15 2.050923 1_555
O32 V14 1.948274 1_555
O32 V14 1.948274 1_455
O32 V2 1.982165 1_565
O33 V15 1.998610 1_555
O33 V2 1.999646 1_665
O33 V2 1.999646 1_565
O34 V4 1.899045 1_565
O34 V17 2.142163 1_565
O34 V17 2.142163 1_665
O35 V1 1.935251 1_655
O35 V1 1.935251 1_555
