# generated using pymatgen
data_CdP3NO9
_symmetry_space_group_name_H-M   'P 1'
_cell_length_a   6.89842363
_cell_length_b   6.89842363
_cell_length_c   10.62175500
_cell_angle_alpha   90.00000000
_cell_angle_beta   90.00000000
_cell_angle_gamma   119.99999643
_symmetry_Int_Tables_number   1
_chemical_formula_structural   CdP3NO9
_chemical_formula_sum   'Cd2 P6 N2 O18'
_cell_volume   437.75049748
_cell_formula_units_Z   2
loop_
 _symmetry_equiv_pos_site_id
 _symmetry_equiv_pos_as_xyz
  1  'x, y, z'
loop_
 _atom_site_type_symbol
 _atom_site_label
 _atom_site_symmetry_multiplicity
 _atom_site_fract_x
 _atom_site_fract_y
 _atom_site_fract_z
 _atom_site_occupancy
  Cd  Cd0  1  0.00000000  0.00000000  0.00000000  1
  Cd  Cd1  1  0.00000000  0.00000000  0.50000000  1
  P  P0  1  0.71693100  0.11160700  0.25000000  1
  P  P1  1  0.88839300  0.60532400  0.25000000  1
  P  P2  1  0.71693100  0.60532400  0.75000000  1
  P  P3  1  0.39467600  0.28306900  0.25000000  1
  P  P4  1  0.88839300  0.28306900  0.75000000  1
  P  P5  1  0.39467600  0.11160700  0.75000000  1
  N  N0  1  0.33333300  0.66666700  0.00000000  1
  N  N1  1  0.33333300  0.66666700  0.50000000  1
  O  O0  1  0.27378100  0.26235000  0.12871500  1
  O  O1  1  0.73765000  0.01143100  0.12871500  1
  O  O2  1  0.27378100  0.26235000  0.37128500  1
  O  O3  1  0.27378100  0.01143100  0.62871500  1
  O  O4  1  0.98856900  0.72621900  0.12871500  1
  O  O5  1  0.73765000  0.01143100  0.37128500  1
  O  O6  1  0.73765000  0.72621900  0.62871500  1
  O  O7  1  0.27378100  0.01143100  0.87128500  1
  O  O8  1  0.98856900  0.72621900  0.37128500  1
  O  O9  1  0.73765000  0.72621900  0.87128500  1
  O  O10  1  0.98856900  0.26235000  0.62871500  1
  O  O11  1  0.98856900  0.26235000  0.87128500  1
  O  O12  1  0.48045400  0.10308000  0.25000000  1
  O  O13  1  0.89692000  0.37737400  0.25000000  1
  O  O14  1  0.48045400  0.37737400  0.75000000  1
  O  O15  1  0.62262600  0.51954600  0.25000000  1
  O  O16  1  0.89692000  0.51954600  0.75000000  1
  O  O17  1  0.62262600  0.10308000  0.75000000  1
loop_
_geom_bond_atom_site_label_1
_geom_bond_atom_site_label_2
_geom_bond_distance
_geom_bond_site_symmetry_2
Cd0 O1 2.300759 1_455
Cd0 O11 2.300759 1_454
Cd0 O4 2.300759 1_445
Cd0 O7 2.300759 1_554
Cd0 O0 2.300759 1_555
Cd0 O9 2.300759 1_444
Cd1 O5 2.300759 1_455
Cd1 O10 2.300759 1_455
Cd1 O8 2.300759 1_445
Cd1 O3 2.300759 1_555
Cd1 O2 2.300759 1_555
Cd1 O6 2.300759 1_445
O0 P3 1.502122 1_555
O1 P0 1.502122 1_555
O2 P3 1.502122 1_555
O3 P5 1.502122 1_555
O4 P1 1.502122 1_555
O5 P0 1.502122 1_555
O6 P2 1.502122 1_555
O7 P5 1.502122 1_555
O8 P1 1.502122 1_555
O9 P2 1.502122 1_555
O10 P4 1.502122 1_555
O11 P4 1.502122 1_555
O12 P0 1.602717 1_555
O12 P3 1.620660 1_555
O13 P1 1.602717 1_555
O13 P0 1.620660 1_555
O14 P2 1.602717 1_555
O14 P5 1.620660 1_555
O15 P3 1.602717 1_555
O15 P1 1.620660 1_555
O16 P4 1.602717 1_555
O16 P2 1.620660 1_555
O17 P5 1.602717 1_555
O17 P4 1.620660 1_555
