# generated using pymatgen
data_MgGa3
_symmetry_space_group_name_H-M   'P 1'
_cell_length_a   11.13744134
_cell_length_b   11.13744134
_cell_length_c   11.13744134
_cell_angle_alpha   147.09081190
_cell_angle_beta   128.29604760
_cell_angle_gamma   62.66078504
_symmetry_Int_Tables_number   1
_chemical_formula_structural   MgGa3
_chemical_formula_sum   'Mg8 Ga24'
_cell_volume   583.01459884
_cell_formula_units_Z   8
loop_
 _symmetry_equiv_pos_site_id
 _symmetry_equiv_pos_as_xyz
  1  'x, y, z'
loop_
 _atom_site_type_symbol
 _atom_site_label
 _atom_site_symmetry_multiplicity
 _atom_site_fract_x
 _atom_site_fract_y
 _atom_site_fract_z
 _atom_site_occupancy
  Mg  Mg0_0  1  0.08086981  0.25000000  0.33086981  1
  Mg  Mg0_1  1  0.08086981  0.25000000  0.83086981  1
  Mg  Mg0_2  1  0.08086981  0.75000000  0.33086981  1
  Mg  Mg0_3  1  0.08086981  0.75000000  0.83086981  1
  Mg  Mg0_4  1  0.58086981  0.25000000  0.33086981  1
  Mg  Mg0_5  1  0.58086981  0.25000000  0.83086981  1
  Mg  Mg0_6  1  0.58086981  0.75000000  0.33086981  1
  Mg  Mg0_7  1  0.58086981  0.75000000  0.83086981  1
  Ga  Ga0_0  1  0.33082491  0.00000000  0.33082491  1
  Ga  Ga0_1  1  0.33082491  0.00000000  0.83082491  1
  Ga  Ga0_2  1  0.33082491  0.50000000  0.33082491  1
  Ga  Ga0_3  1  0.33082491  0.50000000  0.83082491  1
  Ga  Ga0_4  1  0.83082491  0.00000000  0.33082491  1
  Ga  Ga0_5  1  0.83082491  0.00000000  0.83082491  1
  Ga  Ga0_6  1  0.83082491  0.50000000  0.33082491  1
  Ga  Ga0_7  1  0.83082491  0.50000000  0.83082491  1
  Ga  Ga1_0  1  0.37637760  0.37389121  0.00248589  1
  Ga  Ga1_1  1  0.37637760  0.37389121  0.50248589  1
  Ga  Ga1_2  1  0.37637760  0.87389121  0.00248588  1
  Ga  Ga1_3  1  0.37637760  0.87389121  0.50248589  1
  Ga  Ga1_4  1  0.87637760  0.37389121  0.00248589  1
  Ga  Ga1_5  1  0.87637760  0.37389121  0.50248589  1
  Ga  Ga1_6  1  0.87637760  0.87389121  0.00248589  1
  Ga  Ga1_7  1  0.87637760  0.87389121  0.50248589  1
  Ga  Ga2_0  1  0.12859417  0.12610879  0.00248589  1
  Ga  Ga2_1  1  0.12859417  0.12610879  0.50248589  1
  Ga  Ga2_2  1  0.12859417  0.62610879  0.00248588  1
  Ga  Ga2_3  1  0.12859417  0.62610879  0.50248589  1
  Ga  Ga2_4  1  0.62859417  0.12610878  0.00248589  1
  Ga  Ga2_5  1  0.62859417  0.12610879  0.50248589  1
  Ga  Ga2_6  1  0.62859417  0.62610879  0.00248589  1
  Ga  Ga2_7  1  0.62859417  0.62610879  0.50248589  1
loop_
_geom_bond_atom_site_label_1
_geom_bond_atom_site_label_2
_geom_bond_distance
_geom_bond_site_symmetry_2
Mg0_0 Mg0_3 3.154740 1_555
Mg0_0 Mg0_3 3.154740 1_544
Mg0_1 Mg0_2 3.154740 1_545
Mg0_1 Mg0_2 3.154740 1_556
Mg0_4 Mg0_7 3.154740 1_544
Mg0_4 Mg0_7 3.154740 1_555
Mg0_5 Mg0_6 3.154740 1_545
Mg0_5 Mg0_6 3.154740 1_556
Ga0_0 Mg0_0 2.895215 1_555
Ga0_0 Mg0_3 2.895215 1_544
Ga0_0 Mg0_5 2.895946 1_555
Ga0_0 Mg0_6 2.895946 1_545
Ga0_0 Ga2_5 2.921868 1_555
Ga0_0 Ga1_3 2.921871 1_545
Ga0_0 Ga1_1 2.936620 1_555
Ga0_0 Ga2_2 2.936622 1_545
Ga0_0 Ga1_2 2.936622 1_545
Ga0_0 Ga2_1 2.936623 1_555
Ga0_1 Mg0_1 2.895215 1_555
Ga0_1 Mg0_2 2.895215 1_545
Ga0_1 Mg0_4 2.895946 1_556
Ga0_1 Mg0_7 2.895946 1_545
Ga0_1 Ga2_4 2.921868 1_556
Ga0_1 Ga1_2 2.921871 1_546
Ga0_1 Ga1_0 2.936620 1_556
Ga0_1 Ga2_3 2.936622 1_545
Ga0_1 Ga1_3 2.936622 1_545
Ga0_1 Ga2_0 2.936623 1_556
Ga0_2 Mg0_1 2.895215 1_554
Ga0_2 Mg0_2 2.895215 1_555
Ga0_2 Mg0_7 2.895946 1_555
Ga0_2 Mg0_4 2.895946 1_555
Ga0_2 Ga2_7 2.921868 1_555
Ga0_2 Ga1_1 2.921871 1_555
Ga0_2 Ga1_3 2.936620 1_555
Ga0_2 Ga2_0 2.936622 1_555
Ga0_2 Ga1_0 2.936622 1_555
Ga0_2 Ga2_3 2.936623 1_555
Ga0_3 Mg0_3 2.895215 1_555
Ga0_3 Mg0_0 2.895215 1_555
Ga0_3 Mg0_6 2.895946 1_556
Ga0_3 Mg0_5 2.895946 1_555
Ga0_3 Ga2_6 2.921868 1_556
Ga0_3 Ga1_0 2.921871 1_556
Ga0_3 Ga1_2 2.936620 1_556
Ga0_3 Ga2_1 2.936622 1_555
Ga0_3 Ga1_1 2.936622 1_555
Ga0_3 Ga2_2 2.936623 1_556
Ga0_4 Mg0_7 2.895215 1_544
Ga0_4 Mg0_4 2.895215 1_555
Ga0_4 Mg0_2 2.895946 1_645
Ga0_4 Mg0_1 2.895946 1_655
Ga0_4 Ga2_1 2.921868 1_655
Ga0_4 Ga1_7 2.921871 1_545
Ga0_4 Ga1_5 2.936620 1_555
Ga0_4 Ga2_6 2.936622 1_545
Ga0_4 Ga1_6 2.936622 1_545
Ga0_4 Ga2_5 2.936623 1_555
Ga0_5 Mg0_5 2.895215 1_555
Ga0_5 Mg0_6 2.895215 1_545
Ga0_5 Mg0_0 2.895946 1_656
Ga0_5 Mg0_3 2.895946 1_645
Ga0_5 Ga2_0 2.921868 1_656
Ga0_5 Ga1_6 2.921871 1_546
Ga0_5 Ga1_4 2.936620 1_556
Ga0_5 Ga2_7 2.936622 1_545
Ga0_5 Ga1_7 2.936622 1_545
Ga0_5 Ga2_4 2.936623 1_556
Ga0_6 Mg0_6 2.895215 1_555
Ga0_6 Mg0_5 2.895215 1_554
Ga0_6 Mg0_3 2.895946 1_655
Ga0_6 Mg0_0 2.895946 1_655
Ga0_6 Ga2_3 2.921868 1_655
Ga0_6 Ga1_5 2.921871 1_555
Ga0_6 Ga1_7 2.936620 1_555
Ga0_6 Ga2_4 2.936622 1_555
Ga0_6 Ga1_4 2.936622 1_555
Ga0_6 Ga2_7 2.936623 1_555
Ga0_7 Mg0_4 2.895215 1_555
Ga0_7 Mg0_7 2.895215 1_555
Ga0_7 Mg0_1 2.895946 1_655
Ga0_7 Mg0_2 2.895946 1_656
Ga0_7 Ga2_2 2.921868 1_656
Ga0_7 Ga1_4 2.921871 1_556
Ga0_7 Ga1_6 2.936620 1_556
Ga0_7 Ga2_5 2.936622 1_555
Ga0_7 Ga1_5 2.936622 1_555
Ga0_7 Ga2_6 2.936623 1_556
Ga1_0 Mg0_1 2.887078 1_554
Ga1_0 Ga2_4 2.895882 1_555
Ga1_0 Ga2_7 2.895885 1_555
Ga1_0 Ga2_1 2.895890 1_554
Ga1_0 Ga2_2 2.895893 1_555
Ga1_0 Mg0_5 2.970700 1_554
Ga1_0 Mg0_6 2.970702 1_555
Ga1_1 Mg0_0 2.887078 1_555
Ga1_1 Ga2_5 2.895882 1_555
Ga1_1 Ga2_6 2.895885 1_556
Ga1_1 Ga2_0 2.895890 1_555
Ga1_1 Ga2_3 2.895893 1_555
Ga1_1 Mg0_4 2.970700 1_555
Ga1_1 Mg0_7 2.970702 1_555
Ga1_2 Mg0_3 2.887078 1_554
Ga1_2 Ga2_6 2.895882 1_555
Ga1_2 Ga2_5 2.895885 1_565
Ga1_2 Ga2_3 2.895890 1_554
Ga1_2 Ga2_0 2.895893 1_565
Ga1_2 Mg0_7 2.970700 1_554
Ga1_2 Mg0_4 2.970702 1_565
Ga1_3 Mg0_2 2.887078 1_555
Ga1_3 Ga2_7 2.895882 1_555
Ga1_3 Ga2_4 2.895885 1_566
Ga1_3 Ga2_2 2.895890 1_555
Ga1_3 Ga2_1 2.895893 1_565
Ga1_3 Mg0_6 2.970700 1_555
Ga1_3 Mg0_5 2.970702 1_565
Ga1_4 Mg0_5 2.887078 1_554
Ga1_4 Ga2_0 2.895882 1_655
Ga1_4 Ga2_3 2.895885 1_655
Ga1_4 Ga2_5 2.895890 1_554
Ga1_4 Ga2_6 2.895893 1_555
Ga1_4 Mg0_1 2.970700 1_654
Ga1_4 Mg0_2 2.970702 1_655
Ga1_5 Mg0_4 2.887078 1_555
Ga1_5 Ga2_1 2.895882 1_655
Ga1_5 Ga2_2 2.895885 1_656
Ga1_5 Ga2_4 2.895890 1_555
Ga1_5 Ga2_7 2.895893 1_555
Ga1_5 Mg0_0 2.970700 1_655
Ga1_5 Mg0_3 2.970702 1_655
Ga1_6 Mg0_7 2.887078 1_554
Ga1_6 Ga2_2 2.895882 1_655
Ga1_6 Ga2_1 2.895885 1_665
Ga1_6 Ga2_7 2.895890 1_554
Ga1_6 Ga2_4 2.895893 1_565
Ga1_6 Mg0_3 2.970700 1_654
Ga1_6 Mg0_0 2.970702 1_665
Ga1_7 Mg0_6 2.887078 1_555
Ga1_7 Ga2_3 2.895882 1_655
Ga1_7 Ga2_0 2.895885 1_666
Ga1_7 Ga2_6 2.895890 1_555
Ga1_7 Ga2_5 2.895893 1_565
Ga1_7 Mg0_2 2.970700 1_655
Ga1_7 Mg0_1 2.970702 1_665
Ga2_0 Mg0_1 2.887075 1_554
Ga2_0 Mg0_0 2.970701 1_555
Ga2_0 Mg0_3 2.970703 1_544
Ga2_1 Mg0_0 2.887075 1_555
Ga2_1 Mg0_1 2.970701 1_555
Ga2_1 Mg0_2 2.970703 1_545
Ga2_2 Mg0_3 2.887075 1_554
Ga2_2 Mg0_2 2.970701 1_555
Ga2_2 Mg0_1 2.970703 1_554
Ga2_3 Mg0_2 2.887075 1_555
Ga2_3 Mg0_3 2.970701 1_555
Ga2_3 Mg0_0 2.970703 1_555
Ga2_4 Mg0_5 2.887075 1_554
Ga2_4 Mg0_4 2.970701 1_555
Ga2_4 Mg0_7 2.970703 1_544
Ga2_5 Mg0_4 2.887075 1_555
Ga2_5 Mg0_5 2.970701 1_555
Ga2_5 Mg0_6 2.970703 1_545
Ga2_6 Mg0_7 2.887075 1_554
Ga2_6 Mg0_6 2.970701 1_555
Ga2_6 Mg0_5 2.970703 1_554
Ga2_7 Mg0_6 2.887075 1_555
Ga2_7 Mg0_7 2.970701 1_555
Ga2_7 Mg0_4 2.970703 1_555
