# generated using pymatgen
data_MnVP2(HO5)2
_symmetry_space_group_name_H-M   'P 1'
_cell_length_a   5.14889600
_cell_length_b   5.24961110
_cell_length_c   7.23307597
_cell_angle_alpha   109.60011255
_cell_angle_beta   105.56544027
_cell_angle_gamma   98.83635804
_symmetry_Int_Tables_number   1
_chemical_formula_structural   MnVP2(HO5)2
_chemical_formula_sum   'Mn1 V1 P2 H2 O10'
_cell_volume   170.91162182
_cell_formula_units_Z   1
loop_
 _symmetry_equiv_pos_site_id
 _symmetry_equiv_pos_as_xyz
  1  'x, y, z'
loop_
 _atom_site_type_symbol
 _atom_site_label
 _atom_site_symmetry_multiplicity
 _atom_site_fract_x
 _atom_site_fract_y
 _atom_site_fract_z
 _atom_site_occupancy
  Mn  Mn0  1  0.00000000  0.00000000  0.00000000  1
  V  V0  1  0.00000000  0.00000000  0.50000000  1
  P  P0  1  0.32675900  0.65898300  0.22354900  1
  P  P1  1  0.67324100  0.34101700  0.77645100  1
  H  H0  1  0.64459100  0.96853800  0.33232000  1
  H  H1  1  0.35540900  0.03146200  0.66768000  1
  O  O0  1  0.14264300  0.97002400  0.72344100  1
  O  O1  1  0.29026800  0.81721900  0.37984800  1
  O  O2  1  0.72554300  0.65119800  0.65555500  1
  O  O3  1  0.63668700  0.76767200  0.06007300  1
  O  O4  1  0.11259200  0.68095300  0.11792000  1
  O  O5  1  0.88740800  0.31904700  0.88208000  1
  O  O6  1  0.36331300  0.23232800  0.93992700  1
  O  O7  1  0.27445700  0.34880200  0.34444500  1
  O  O8  1  0.70973200  0.18278100  0.62015200  1
  O  O9  1  0.85735700  0.02997600  0.27655900  1
loop_
_geom_bond_atom_site_label_1
_geom_bond_atom_site_label_2
_geom_bond_distance
_geom_bond_site_symmetry_2
Mn0 O4 2.204567 1_545
Mn0 O5 2.204567 1_454
Mn0 O0 2.275625 1_544
Mn0 O9 2.275625 1_455
Mn0 O6 2.294886 1_554
Mn0 O3 2.294886 1_445
Mn0 O2 2.410766 1_444
Mn0 O7 2.410766 1_555
H0 O9 1.297183 1_565
H1 O0 1.297183 1_545
O0 V0 1.656888 1_565
O0 O6 1.660393 1_565
O1 P0 1.239075 1_555
O2 P1 2.106087 1_555
O3 O9 1.660393 1_565
O3 P0 2.335768 1_555
O4 P0 1.207920 1_555
O5 P1 1.207920 1_555
O6 P1 2.335768 1_555
O7 P0 2.106087 1_555
O8 P1 1.239075 1_555
O9 V0 1.656888 1_655
