# generated using pymatgen
data_Pr2InCu2
_symmetry_space_group_name_H-M   'P 1'
_cell_length_a   7.73627251
_cell_length_b   7.73627251
_cell_length_c   3.90214295
_cell_angle_alpha   90.00000000
_cell_angle_beta   90.00000000
_cell_angle_gamma   90.00000000
_symmetry_Int_Tables_number   1
_chemical_formula_structural   Pr2InCu2
_chemical_formula_sum   'Pr4 In2 Cu4'
_cell_volume   233.54291353
_cell_formula_units_Z   2
loop_
 _symmetry_equiv_pos_site_id
 _symmetry_equiv_pos_as_xyz
  1  'x, y, z'
loop_
 _atom_site_type_symbol
 _atom_site_label
 _atom_site_symmetry_multiplicity
 _atom_site_fract_x
 _atom_site_fract_y
 _atom_site_fract_z
 _atom_site_occupancy
  Pr  Pr0  1  0.67642151  0.17642151  0.50000000  1
  Pr  Pr1  1  0.32357849  0.82357849  0.50000000  1
  Pr  Pr2  1  0.17642151  0.32357849  0.50000000  1
  Pr  Pr3  1  0.82357849  0.67642151  0.50000000  1
  In  In0  1  0.50000000  0.50000000  0.00000000  1
  In  In1  1  -0.00000000  -0.00000000  0.00000000  1
  Cu  Cu0  1  0.11674867  0.61674867  0.00000000  1
  Cu  Cu1  1  0.88325133  0.38325133  -0.00000000  1
  Cu  Cu2  1  0.61674867  0.88325133  -0.00000000  1
  Cu  Cu3  1  0.38325133  0.11674867  0.00000000  1
loop_
_geom_bond_atom_site_label_1
_geom_bond_atom_site_label_2
_geom_bond_distance
_geom_bond_site_symmetry_2
In0 Pr0 3.454844 1_555
In0 Pr0 3.454844 1_554
In0 Pr2 3.454844 1_555
In0 Pr2 3.454844 1_554
In0 Pr3 3.454844 1_554
In0 Pr3 3.454844 1_555
In0 Pr1 3.454844 1_554
In0 Pr1 3.454844 1_555
In1 Pr1 3.454844 1_544
In1 Pr1 3.454844 1_545
In1 Pr2 3.454844 1_555
In1 Pr2 3.454844 1_554
In1 Pr3 3.454844 1_444
In1 Pr3 3.454844 1_445
In1 Pr0 3.454844 1_454
In1 Pr0 3.454844 1_455
Cu0 Cu1 2.554634 1_455
Cu0 Pr1 2.987853 1_554
Cu0 Pr1 2.987853 1_555
Cu0 Pr2 3.027180 1_554
Cu0 Pr3 3.027180 1_455
Cu0 Pr2 3.027180 1_555
Cu0 Pr3 3.027180 1_454
Cu0 In1 3.099455 1_565
Cu0 In0 3.099455 1_555
Cu1 Pr0 2.987853 1_555
Cu1 Pr0 2.987853 1_554
Cu1 Pr2 3.027180 1_655
Cu1 Pr3 3.027180 1_555
Cu1 Pr2 3.027180 1_654
Cu1 Pr3 3.027180 1_554
Cu1 In1 3.099455 1_655
Cu1 In0 3.099455 1_555
Cu2 Cu3 2.554634 1_565
Cu2 Pr3 2.987853 1_554
Cu2 Pr3 2.987853 1_555
Cu2 Pr1 3.027180 1_555
Cu2 Pr1 3.027180 1_554
Cu2 Pr0 3.027180 1_565
Cu2 Pr0 3.027180 1_564
Cu2 In1 3.099455 1_665
Cu2 In0 3.099455 1_555
Cu3 Pr2 2.987853 1_554
Cu3 Pr2 2.987853 1_555
Cu3 Pr1 3.027180 1_545
Cu3 Pr1 3.027180 1_544
Cu3 Pr0 3.027180 1_554
Cu3 Pr0 3.027180 1_555
Cu3 In1 3.099455 1_555
Cu3 In0 3.099455 1_555
