# generated using pymatgen
data_Cr2O3
_symmetry_space_group_name_H-M   'P 1'
_cell_length_a   10.51759683
_cell_length_b   9.98348718
_cell_length_c   9.10727962
_cell_angle_alpha   92.35288589
_cell_angle_beta   87.30110083
_cell_angle_gamma   84.76791350
_symmetry_Int_Tables_number   1
_chemical_formula_structural   Cr2O3
_chemical_formula_sum   'Cr32 O48'
_cell_volume   950.25556285
_cell_formula_units_Z   16
loop_
 _symmetry_equiv_pos_site_id
 _symmetry_equiv_pos_as_xyz
  1  'x, y, z'
loop_
 _atom_site_type_symbol
 _atom_site_label
 _atom_site_symmetry_multiplicity
 _atom_site_fract_x
 _atom_site_fract_y
 _atom_site_fract_z
 _atom_site_occupancy
  Cr  Cr0  1  0.53272500  0.71716400  0.64553600  1
  Cr  Cr1  1  0.37590600  0.26584400  0.78206300  1
  Cr  Cr2  1  0.65904600  0.15629200  0.93711700  1
  Cr  Cr3  1  0.37869900  0.86989500  0.47225400  1
  Cr  Cr4  1  0.38625000  0.30397900  0.11415200  1
  Cr  Cr5  1  0.74391300  0.93661200  0.15022800  1
  Cr  Cr6  1  0.50727200  0.93288600  0.84508700  1
  Cr  Cr7  1  0.06011400  0.88546000  0.29702900  1
  Cr  Cr8  1  0.23479300  0.82345100  0.83803900  1
  Cr  Cr9  1  0.74984900  0.68113100  0.88562800  1
  Cr  Cr10  1  0.85830400  0.58719800  0.17819000  1
  Cr  Cr11  1  0.03660200  0.23654300  0.32093500  1
  Cr  Cr12  1  0.60325300  0.08750200  0.56130100  1
  Cr  Cr13  1  0.83287800  0.39023200  0.90085100  1
  Cr  Cr14  1  0.94871300  0.89302000  0.81329700  1
  Cr  Cr15  1  0.13111100  0.20277600  0.82923500  1
  Cr  Cr16  1  0.78290100  0.85944400  0.53677300  1
  Cr  Cr17  1  0.92224800  0.13002600  0.06499900  1
  Cr  Cr18  1  0.83992200  0.24322900  0.58876200  1
  Cr  Cr19  1  0.47978500  0.56983700  0.92223500  1
  Cr  Cr20  1  0.31448500  0.75052800  0.12752900  1
  Cr  Cr21  1  0.10448700  0.71516000  0.53583900  1
  Cr  Cr22  1  0.25254600  0.04847800  0.08141900  1
  Cr  Cr23  1  0.46797600  0.45986500  0.46779000  1
  Cr  Cr24  1  0.64822900  0.40684100  0.71583800  1
  Cr  Cr25  1  0.11876800  0.04872300  0.58633500  1
  Cr  Cr26  1  0.09441300  0.44835800  0.00353200  1
  Cr  Cr27  1  0.18672800  0.34570000  0.59071900  1
  Cr  Cr28  1  0.16659900  0.49811500  0.30894800  1
  Cr  Cr29  1  0.58521200  0.70139100  0.25627100  1
  Cr  Cr30  1  0.69158100  0.30664100  0.29523900  1
  Cr  Cr31  1  0.50656500  0.02487500  0.26074200  1
  O  O0  1  0.25349100  0.15720100  0.65965900  1
  O  O1  1  0.52889600  0.12277300  0.77211700  1
  O  O2  1  0.98948800  0.29038000  0.95096700  1
  O  O3  1  0.92094000  0.95771700  0.17601200  1
  O  O4  1  0.82466100  0.43624200  0.67805800  1
  O  O5  1  0.05407400  0.06643400  0.39736800  1
  O  O6  1  0.10395200  0.00584000  0.80988600  1
  O  O7  1  0.67086800  0.50927900  0.90630400  1
  O  O8  1  0.64833300  0.28996700  0.52883400  1
  O  O9  1  0.09077900  0.75334600  0.74483200  1
  O  O10  1  0.17083500  0.89360800  0.12233600  1
  O  O11  1  0.19349100  0.87605000  0.48953000  1
  O  O12  1  0.36240300  0.13881500  0.20762000  1
  O  O13  1  0.08647400  0.15980700  0.14220400  1
  O  O14  1  0.67928900  0.86155400  0.34001900  1
  O  O15  1  0.01121200  0.46407100  0.21136800  1
  O  O16  1  0.29669600  0.65959200  0.93040800  1
  O  O17  1  0.17260300  0.68803900  0.27919500  1
  O  O18  1  0.71556300  0.53773600  0.28001600  1
  O  O19  1  0.74974900  0.25133200  0.79468100  1
  O  O20  1  0.87065300  0.28179400  0.37691600  1
  O  O21  1  0.76443200  0.26581000  0.08073900  1
  O  O22  1  0.19261700  0.38241700  0.80750400  1
  O  O23  1  0.81066700  0.02325900  0.94886000  1
  O  O24  1  0.78877300  0.05136400  0.57970500  1
  O  O25  1  0.47874100  0.66506400  0.44508000  1
  O  O26  1  0.14276400  0.52841000  0.52355100  1
  O  O27  1  0.37996700  0.84013500  0.69117800  1
  O  O28  1  0.29093700  0.19360700  0.95421500  1
  O  O29  1  0.37240100  0.35478400  0.58456900  1
  O  O30  1  0.66167600  0.11607500  0.28753200  1
  O  O31  1  0.57915800  0.00550100  0.03995400  1
  O  O32  1  0.82226800  0.77782500  0.73074300  1
  O  O33  1  0.36009000  0.90739600  0.97011900  1
  O  O34  1  0.73332500  0.73632700  0.09592200  1
  O  O35  1  0.24533000  0.43925900  0.11417600  1
  O  O36  1  0.47256700  0.36352400  0.92852700  1
  O  O37  1  0.46656000  0.61772600  0.12938500  1
  O  O38  1  0.42262100  0.85446000  0.26137000  1
  O  O39  1  0.17543200  0.31047300  0.37876900  1
  O  O40  1  0.91237500  0.55658300  0.97006400  1
  O  O41  1  0.95442400  0.80409600  0.45051500  1
  O  O42  1  0.56658300  0.73976100  0.85695400  1
  O  O43  1  0.50059600  0.36737800  0.27884200  1
  O  O44  1  0.60775400  0.89355600  0.63213200  1
  O  O45  1  0.50742500  0.53534200  0.68121000  1
  O  O46  1  0.02444200  0.22873200  0.64395700  1
  O  O47  1  0.44773000  0.03998900  0.46599600  1
loop_
_geom_bond_atom_site_label_1
_geom_bond_atom_site_label_2
_geom_bond_distance
_geom_bond_site_symmetry_2
Cr0 O45 1.897301 1_555
Cr0 O27 1.948529 1_555
Cr0 O42 1.982068 1_555
Cr0 O25 1.999820 1_555
Cr0 O44 2.000198 1_555
Cr1 O28 1.963488 1_555
Cr1 O36 1.991363 1_555
Cr1 O29 2.038693 1_555
Cr1 O1 2.047931 1_555
Cr1 O0 2.089834 1_555
Cr1 O22 2.156618 1_555
Cr2 O19 1.908585 1_555
Cr2 O23 1.989939 1_555
Cr2 O31 2.030217 1_556
Cr2 O21 2.091660 1_556
Cr2 O1 2.116567 1_555
Cr3 O47 1.908649 1_565
Cr3 O11 1.942042 1_555
Cr3 O38 1.950625 1_555
Cr3 O27 2.028329 1_555
Cr3 O25 2.211697 1_555
Cr4 O35 1.911972 1_555
Cr4 O12 1.917550 1_555
Cr4 O36 2.017897 1_554
Cr4 O43 2.080231 1_555
Cr4 O28 2.132594 1_554
Cr5 O3 1.916993 1_555
Cr5 O14 2.024779 1_555
Cr5 O34 2.054210 1_555
Cr5 O31 2.118384 1_565
Cr5 O23 2.173531 1_564
Cr5 O30 2.225624 1_565
Cr6 O33 1.920246 1_555
Cr6 O42 1.980490 1_555
Cr6 O1 2.062769 1_565
Cr6 O31 2.089850 1_566
Cr6 O44 2.168239 1_555
Cr6 O27 2.216132 1_555
Cr7 O10 1.935809 1_555
Cr7 O3 1.975438 1_455
Cr7 O5 1.985317 1_565
Cr7 O41 1.990233 1_455
Cr7 O17 2.200254 1_555
Cr7 O11 2.295943 1_555
Cr8 O9 1.941732 1_555
Cr8 O16 1.943708 1_555
Cr8 O27 2.005089 1_555
Cr8 O33 2.038109 1_555
Cr8 O6 2.211252 1_565
Cr9 O32 1.909581 1_555
Cr9 O34 1.966318 1_556
Cr9 O7 1.985143 1_555
Cr9 O42 1.995074 1_555
Cr9 O40 2.207731 1_555
Cr10 O18 1.843748 1_555
Cr10 O40 1.956738 1_554
Cr10 O15 1.975962 1_655
Cr10 O34 2.081642 1_555
Cr11 O39 1.786423 1_555
Cr11 O13 1.804309 1_555
Cr11 O20 1.806618 1_455
Cr11 O5 1.858675 1_555
Cr11 O15 2.515437 1_555
Cr12 O24 1.967971 1_555
Cr12 O47 1.973674 1_555
Cr12 O1 2.043212 1_555
Cr12 O44 2.063050 1_545
Cr12 O8 2.146759 1_555
Cr12 O30 2.573233 1_555
Cr13 O2 1.929741 1_555
Cr13 O19 1.952681 1_555
Cr13 O7 1.984013 1_555
Cr13 O40 2.017793 1_555
Cr13 O4 2.102679 1_555
Cr13 O21 2.228076 1_556
Cr14 O32 1.989626 1_555
Cr14 O9 2.006668 1_655
Cr14 O6 2.066142 1_665
Cr14 O23 2.162871 1_565
Cr15 O2 1.933908 1_455
Cr15 O0 1.974120 1_555
Cr15 O22 1.975541 1_555
Cr15 O6 2.014187 1_555
Cr15 O28 2.071312 1_555
Cr15 O46 2.081878 1_555
Cr16 O24 1.946846 1_565
Cr16 O41 1.956017 1_555
Cr16 O44 1.993557 1_555
Cr16 O32 2.020298 1_555
Cr16 O14 2.140488 1_555
Cr17 O13 1.938322 1_655
Cr17 O23 1.970947 1_554
Cr17 O3 2.031604 1_545
Cr17 O21 2.040722 1_555
Cr17 O2 2.101272 1_554
Cr18 O20 2.000005 1_555
Cr18 O46 2.021532 1_655
Cr18 O24 2.035785 1_555
Cr18 O4 2.050089 1_555
Cr18 O19 2.056465 1_555
Cr18 O8 2.128156 1_555
Cr19 O37 1.922546 1_556
Cr19 O7 2.041895 1_555
Cr19 O16 2.045227 1_555
Cr19 O36 2.071064 1_555
Cr19 O42 2.092583 1_555
Cr19 O45 2.209314 1_555
Cr20 O37 1.983435 1_555
Cr20 O10 1.985955 1_555
Cr20 O16 2.002717 1_554
Cr20 O38 2.024318 1_555
Cr20 O17 2.137838 1_555
Cr20 O33 2.234823 1_554
Cr21 O26 1.868791 1_555
Cr21 O9 1.921834 1_555
Cr21 O41 1.949307 1_455
Cr21 O11 1.981631 1_555
Cr21 O17 2.409281 1_555
Cr22 O10 1.878159 1_545
Cr22 O12 1.923385 1_555
Cr22 O33 1.942923 1_544
Cr22 O28 1.950610 1_554
Cr22 O13 2.024110 1_555
Cr23 O29 1.850783 1_555
Cr23 O43 1.920311 1_555
Cr23 O25 2.080205 1_555
Cr23 O45 2.128505 1_555
Cr23 O8 2.524743 1_555
Cr24 O45 1.915486 1_555
Cr24 O4 1.922355 1_555
Cr24 O19 1.981767 1_555
Cr24 O7 2.012254 1_555
Cr24 O8 2.024454 1_555
Cr25 O5 1.889264 1_555
Cr25 O11 1.982308 1_545
Cr25 O0 1.983981 1_555
Cr25 O46 2.009384 1_555
Cr25 O6 2.099163 1_555
Cr26 O35 1.917018 1_555
Cr26 O15 2.041502 1_555
Cr26 O2 2.059048 1_454
Cr26 O22 2.072021 1_554
Cr26 O40 2.151911 1_454
Cr27 O39 1.958900 1_555
Cr27 O29 1.961463 1_555
Cr27 O26 1.969699 1_555
Cr27 O22 1.998095 1_555
Cr27 O0 2.079967 1_555
Cr27 O46 2.200944 1_555
Cr28 O17 1.932623 1_555
Cr28 O15 1.946663 1_555
Cr28 O35 1.965914 1_555
Cr28 O26 1.966135 1_555
Cr28 O39 1.998484 1_555
Cr29 O37 1.958840 1_555
Cr29 O18 2.060148 1_555
Cr29 O25 2.070329 1_555
Cr29 O14 2.092132 1_555
Cr29 O34 2.146543 1_555
Cr29 O38 2.184457 1_555
Cr30 O30 1.955419 1_555
Cr30 O20 2.055227 1_555
Cr30 O43 2.058740 1_555
Cr30 O21 2.075127 1_555
Cr30 O8 2.170775 1_555
Cr30 O18 2.352618 1_555
Cr31 O12 1.904388 1_555
Cr31 O47 1.936715 1_555
Cr31 O30 1.959624 1_555
Cr31 O38 1.987044 1_545
Cr31 O31 2.111902 1_555
Cr31 O14 2.481934 1_545
