# generated using pymatgen
data_YCr3O9
_symmetry_space_group_name_H-M   'P 1'
_cell_length_a   5.57448500
_cell_length_b   8.04990414
_cell_length_c   16.05674558
_cell_angle_alpha   90.17412906
_cell_angle_beta   90.07333635
_cell_angle_gamma   90.25406260
_symmetry_Int_Tables_number   1
_chemical_formula_structural   YCr3O9
_chemical_formula_sum   'Y4 Cr12 O36'
_cell_volume   720.52050950
_cell_formula_units_Z   4
loop_
 _symmetry_equiv_pos_site_id
 _symmetry_equiv_pos_as_xyz
  1  'x, y, z'
loop_
 _atom_site_type_symbol
 _atom_site_label
 _atom_site_symmetry_multiplicity
 _atom_site_fract_x
 _atom_site_fract_y
 _atom_site_fract_z
 _atom_site_occupancy
  Y  Y0  1  0.02055000  0.75582700  0.98257100  1
  Y  Y1  1  0.51858700  0.25182700  0.18339800  1
  Y  Y2  1  0.48212800  0.73616200  0.48362100  1
  Y  Y3  1  0.97929100  0.25904200  0.68330000  1
  Cr  Cr0  1  0.00717700  0.56082300  0.20262800  1
  Cr  Cr1  1  0.98817700  0.43091200  0.46102800  1
  Cr  Cr2  1  0.99170700  0.49764700  0.83447100  1
  Cr  Cr3  1  0.48072100  0.53017200  0.98156900  1
  Cr  Cr4  1  0.49820700  0.49633100  0.33210200  1
  Cr  Cr5  1  0.48643500  0.56710400  0.70707900  1
  Cr  Cr6  1  0.51357100  0.06710900  0.96100000  1
  Cr  Cr7  1  0.50254200  0.99517600  0.33409600  1
  Cr  Cr8  1  0.51790200  0.03002100  0.68380900  1
  Cr  Cr9  1  0.98701100  0.02285900  0.18846500  1
  Cr  Cr10  1  0.01856100  0.96882100  0.48161600  1
  Cr  Cr11  1  0.00693900  0.99822900  0.83219600  1
  O  O0  1  0.51326900  0.42210800  0.06752200  1
  O  O1  1  0.26910200  0.49516000  0.43041100  1
  O  O2  1  0.24673000  0.45326800  0.74560100  1
  O  O3  1  0.00717200  0.57173700  0.10003100  1
  O  O4  1  0.75223600  0.54603700  0.42160700  1
  O  O5  1  0.76481600  0.49728300  0.73719900  1
  O  O6  1  0.25183900  0.04092400  0.24156500  1
  O  O7  1  0.00131200  0.07914000  0.56822600  1
  O  O8  1  0.23771400  0.99548500  0.92856700  1
  O  O9  1  0.72892500  0.97178600  0.23710300  1
  O  O10  1  0.49845400  0.91676100  0.59836400  1
  O  O11  1  0.75616800  0.95505500  0.92393600  1
  O  O12  1  0.72722700  0.49731500  0.23482700  1
  O  O13  1  0.47431100  0.57223300  0.60478900  1
  O  O14  1  0.73940800  0.54971800  0.92566700  1
  O  O15  1  0.24518200  0.44488700  0.24093300  1
  O  O16  1  0.97616300  0.42701000  0.56338600  1
  O  O17  1  0.21823500  0.48493000  0.93356400  1
  O  O18  1  0.01593300  0.92289700  0.09945500  1
  O  O19  1  0.75412200  0.94724700  0.42813900  1
  O  O20  1  0.77590600  0.98887600  0.73449600  1
  O  O21  1  0.51464200  0.07761300  0.06360400  1
  O  O22  1  0.27473600  0.01452900  0.43063400  1
  O  O23  1  0.25628800  0.04980300  0.73830200  1
  O  O24  1  0.93051600  0.21696100  0.16005800  1
  O  O25  1  0.94739800  0.24778200  0.42442000  1
  O  O26  1  0.95084100  0.24612000  0.82024300  1
  O  O27  1  0.43033100  0.72285700  0.01374400  1
  O  O28  1  0.44713600  0.74719200  0.34733200  1
  O  O29  1  0.45358300  0.74987300  0.74438000  1
  O  O30  1  0.55204400  0.24348800  0.31945300  1
  O  O31  1  0.56944300  0.22174000  0.65041700  1
  O  O32  1  0.54633500  0.24940900  0.92315200  1
  O  O33  1  0.05323900  0.74221300  0.23996800  1
  O  O34  1  0.07284500  0.77667700  0.51339800  1
  O  O35  1  0.04689400  0.74582500  0.84589100  1
loop_
_geom_bond_atom_site_label_1
_geom_bond_atom_site_label_2
_geom_bond_distance
_geom_bond_site_symmetry_2
Cr0 O33 1.596391 1_555
Cr0 O3 1.649982 1_555
Cr0 O12 1.720656 1_455
Cr0 O15 1.738376 1_555
Cr1 O25 1.600566 1_555
Cr1 O16 1.645376 1_555
Cr1 O1 1.719853 1_655
Cr1 O4 1.732523 1_555
Cr2 O5 2.008496 1_555
Cr2 O35 2.027729 1_655
Cr2 O17 2.033153 1_655
Cr2 O2 2.047305 1_655
Cr2 O26 2.048594 1_555
Cr2 O14 2.074787 1_555
Cr3 O0 1.643915 1_556
Cr3 O27 1.658635 1_556
Cr3 O17 1.690705 1_555
Cr3 O14 1.706490 1_555
Cr4 O12 2.018571 1_555
Cr4 O1 2.031763 1_555
Cr4 O4 2.053554 1_555
Cr4 O28 2.054540 1_555
Cr4 O30 2.068110 1_555
Cr4 O15 2.071170 1_555
Cr5 O29 1.598192 1_555
Cr5 O13 1.644399 1_555
Cr5 O5 1.722047 1_555
Cr5 O2 1.732784 1_555
Cr6 O32 1.599860 1_555
Cr6 O21 1.649400 1_556
Cr6 O8 1.719476 1_545
Cr6 O11 1.733868 1_545
Cr7 O22 2.011222 1_565
Cr7 O9 2.014657 1_555
Cr7 O28 2.030479 1_555
Cr7 O30 2.031037 1_565
Cr7 O6 2.073344 1_565
Cr7 O19 2.097322 1_555
Cr8 O10 1.648165 1_545
Cr8 O31 1.659323 1_555
Cr8 O20 1.686263 1_545
Cr8 O23 1.709459 1_555
Cr9 O18 1.646483 1_645
Cr9 O24 1.660413 1_555
Cr9 O9 1.687712 1_545
Cr9 O6 1.709274 1_655
Cr10 O7 1.650897 1_565
Cr10 O34 1.659202 1_555
Cr10 O22 1.686704 1_565
Cr10 O19 1.712909 1_455
Cr11 O8 2.011286 1_555
Cr11 O20 2.029418 1_455
Cr11 O26 2.030850 1_465
Cr11 O35 2.057399 1_555
Cr11 O11 2.061287 1_455
Cr11 O23 2.093191 1_565
O0 Y1 2.314594 1_555
O1 Y2 2.422975 1_555
O2 Y3 2.373569 1_455
O3 Y0 2.403137 1_554
O4 Y2 2.369827 1_555
O5 Y3 2.422672 1_555
O6 Y1 2.440610 1_555
O7 Y3 2.347823 1_455
O8 Y0 2.435458 1_555
O9 Y1 2.689420 1_565
O10 Y2 2.344863 1_555
O11 Y0 2.378470 1_655
O12 Y1 2.430443 1_555
O13 Y2 2.354529 1_555
O14 Y0 2.451098 1_655
O15 Y1 2.368009 1_555
O16 Y3 2.356220 1_555
O17 Y0 2.569459 1_555
O18 Y0 2.305817 1_554
O19 Y2 2.443300 1_555
O20 Y3 2.585027 1_565
O21 Y1 2.377037 1_555
O22 Y2 2.667168 1_545
O23 Y3 2.455589 1_455
O24 Y1 2.345093 1_555
O26 Y3 2.207508 1_555
O27 Y0 2.354218 1_554
O28 Y2 2.198883 1_555
O30 Y1 2.193565 1_555
O31 Y3 2.361911 1_555
O34 Y2 2.355599 1_555
O35 Y0 2.200984 1_555
