# generated using pymatgen
data_Nd4Mg2Ti3(Si2O11)2
_symmetry_space_group_name_H-M   'P 1'
_cell_length_a   5.83925700
_cell_length_b   10.97530646
_cell_length_c   13.51691032
_cell_angle_alpha   101.30054584
_cell_angle_beta   90.00000000
_cell_angle_gamma   90.00000000
_symmetry_Int_Tables_number   1
_chemical_formula_structural   Nd4Mg2Ti3(Si2O11)2
_chemical_formula_sum   'Nd8 Mg4 Ti6 Si8 O44'
_cell_volume   849.47232137
_cell_formula_units_Z   2
loop_
 _symmetry_equiv_pos_site_id
 _symmetry_equiv_pos_as_xyz
  1  'x, y, z'
loop_
 _atom_site_type_symbol
 _atom_site_label
 _atom_site_symmetry_multiplicity
 _atom_site_fract_x
 _atom_site_fract_y
 _atom_site_fract_z
 _atom_site_occupancy
  Nd  Nd0  1  0.02290800  0.23387300  0.35789900  1
  Nd  Nd1  1  0.04483200  0.75585400  0.93320200  1
  Nd  Nd2  1  0.45516800  0.75585400  0.43320200  1
  Nd  Nd3  1  0.47709200  0.23387300  0.85789900  1
  Nd  Nd4  1  0.52290800  0.76612700  0.14210100  1
  Nd  Nd5  1  0.54483200  0.24414600  0.56679800  1
  Nd  Nd6  1  0.95516800  0.24414600  0.06679800  1
  Nd  Nd7  1  0.97709200  0.76612700  0.64210100  1
  Mg  Mg0  1  0.50000000  0.50000000  0.50000000  1
  Mg  Mg1  1  0.50000000  0.00000000  0.00000000  1
  Mg  Mg2  1  0.00000000  0.00000000  0.50000000  1
  Mg  Mg3  1  0.00000000  0.50000000  0.00000000  1
  Ti  Ti0  1  0.22645600  0.49779600  0.22899000  1
  Ti  Ti1  1  0.27354400  0.49779600  0.72899000  1
  Ti  Ti2  1  0.50000000  0.50000000  0.00000000  1
  Ti  Ti3  1  0.72645600  0.50220400  0.27101000  1
  Ti  Ti4  1  0.77354400  0.50220400  0.77101000  1
  Ti  Ti5  1  0.00000000  0.50000000  0.50000000  1
  Si  Si0  1  0.99907100  0.95409300  0.13770600  1
  Si  Si1  1  0.00158900  0.22744200  0.70289700  1
  Si  Si2  1  0.49841100  0.22744200  0.20289700  1
  Si  Si3  1  0.50092900  0.95409300  0.63770600  1
  Si  Si4  1  0.49907100  0.04590700  0.36229400  1
  Si  Si5  1  0.50158900  0.77255800  0.79710300  1
  Si  Si6  1  0.99841100  0.77255800  0.29710300  1
  Si  Si7  1  0.00092900  0.04590700  0.86229400  1
  O  O0  1  0.01678200  0.49219600  0.34200600  1
  O  O1  1  0.02052900  0.52784200  0.85255400  1
  O  O2  1  0.98615400  0.10069200  0.18259700  1
  O  O3  1  0.06701200  0.83737400  0.40990000  1
  O  O4  1  0.06662100  0.12892600  0.77544400  1
  O  O5  1  0.19947400  0.09693800  0.94916800  1
  O  O6  1  0.28178300  0.68417300  0.75096100  1
  O  O7  1  0.25959800  0.37351000  0.97896900  1
  O  O8  1  0.23045100  0.62879900  0.52851000  1
  O  O9  1  0.23594500  0.31247600  0.70843100  1
  O  O10  1  0.25110900  0.90430000  0.59138000  1
  O  O11  1  0.24889100  0.90430000  0.09138000  1
  O  O12  1  0.26954900  0.62879900  0.02851000  1
  O  O13  1  0.26405500  0.31247600  0.20843100  1
  O  O14  1  0.24040200  0.37351000  0.47896900  1
  O  O15  1  0.21821700  0.68417300  0.25096100  1
  O  O16  1  0.30052600  0.09693800  0.44916800  1
  O  O17  1  0.43337900  0.12892600  0.27544400  1
  O  O18  1  0.43298800  0.83737400  0.90990000  1
  O  O19  1  0.51384600  0.10069200  0.68259700  1
  O  O20  1  0.47947100  0.52784200  0.35255400  1
  O  O21  1  0.48321800  0.49219600  0.84200600  1
  O  O22  1  0.51678200  0.50780400  0.15799400  1
  O  O23  1  0.52052900  0.47215800  0.64744600  1
  O  O24  1  0.48615400  0.89930800  0.31740300  1
  O  O25  1  0.56701200  0.16262600  0.09010000  1
  O  O26  1  0.56662100  0.87107400  0.72455600  1
  O  O27  1  0.69947400  0.90306200  0.55083200  1
  O  O28  1  0.78178300  0.31582700  0.74903900  1
  O  O29  1  0.75959800  0.62649000  0.52103100  1
  O  O30  1  0.73594500  0.68752400  0.79156900  1
  O  O31  1  0.73045100  0.37120100  0.97149000  1
  O  O32  1  0.75110900  0.09570000  0.90862000  1
  O  O33  1  0.74889100  0.09570000  0.40862000  1
  O  O34  1  0.76405500  0.68752400  0.29156900  1
  O  O35  1  0.76954900  0.37120100  0.47149000  1
  O  O36  1  0.74040200  0.62649000  0.02103100  1
  O  O37  1  0.71821700  0.31582700  0.24903900  1
  O  O38  1  0.80052600  0.90306200  0.05083200  1
  O  O39  1  0.93337900  0.87107400  0.22455600  1
  O  O40  1  0.93298800  0.16262600  0.59010000  1
  O  O41  1  0.01384600  0.89930800  0.81740300  1
  O  O42  1  0.97947100  0.47215800  0.14744600  1
  O  O43  1  0.98321800  0.50780400  0.65799400  1
loop_
_geom_bond_atom_site_label_1
_geom_bond_atom_site_label_2
_geom_bond_distance
_geom_bond_site_symmetry_2
Nd0 O14 2.378409 1_555
Nd0 O33 2.395292 1_455
Nd0 O35 2.431236 1_455
Nd0 O2 2.537706 1_455
Nd0 O37 2.580380 1_455
Nd0 O16 2.671184 1_555
Nd0 O13 2.737135 1_555
Nd0 O17 2.794753 1_555
Nd0 O0 2.885193 1_555
Nd1 O41 2.434636 1_555
Nd1 O12 2.455615 1_556
Nd1 O18 2.479388 1_555
Nd1 O38 2.483291 1_456
Nd1 O1 2.530190 1_555
Nd1 O30 2.630219 1_455
Nd1 O36 2.691814 1_456
Nd1 O11 2.698222 1_556
Nd1 O6 2.800329 1_555
Nd2 O24 2.434636 1_555
Nd2 O8 2.455615 1_555
Nd2 O3 2.479388 1_555
Nd2 O27 2.483291 1_555
Nd2 O20 2.530190 1_555
Nd2 O34 2.630219 1_555
Nd2 O29 2.691814 1_555
Nd2 O10 2.698222 1_555
Nd2 O15 2.800329 1_555
Nd3 O7 2.378409 1_555
Nd3 O32 2.395292 1_555
Nd3 O31 2.431236 1_555
Nd3 O19 2.537706 1_555
Nd3 O28 2.580380 1_555
Nd3 O5 2.671184 1_555
Nd3 O9 2.737135 1_555
Nd3 O4 2.794753 1_555
Nd3 O21 2.885193 1_555
Nd4 O36 2.378409 1_555
Nd4 O11 2.395292 1_555
Nd4 O12 2.431236 1_555
Nd4 O24 2.537706 1_555
Nd4 O15 2.580380 1_555
Nd4 O38 2.671184 1_555
Nd4 O34 2.737135 1_555
Nd4 O39 2.794753 1_555
Nd4 O22 2.885193 1_555
Nd5 O19 2.434636 1_555
Nd5 O35 2.455615 1_555
Nd5 O40 2.479388 1_555
Nd5 O16 2.483291 1_555
Nd5 O23 2.530190 1_555
Nd5 O9 2.630219 1_555
Nd5 O14 2.691814 1_555
Nd5 O33 2.698222 1_555
Nd5 O28 2.800329 1_555
Nd6 O2 2.434636 1_555
Nd6 O31 2.455615 1_554
Nd6 O25 2.479388 1_555
Nd6 O5 2.483291 1_654
Nd6 O42 2.530190 1_555
Nd6 O13 2.630219 1_655
Nd6 O7 2.691814 1_654
Nd6 O32 2.698222 1_554
Nd6 O37 2.800329 1_555
Nd7 O29 2.378409 1_555
Nd7 O10 2.395292 1_655
Nd7 O8 2.431236 1_655
Nd7 O41 2.537706 1_655
Nd7 O6 2.580380 1_655
Nd7 O27 2.671184 1_555
Nd7 O30 2.737135 1_555
Nd7 O26 2.794753 1_555
Nd7 O43 2.885193 1_555
Mg0 O29 2.037464 1_555
Mg0 O14 2.037464 1_555
Mg0 O23 2.078108 1_555
Mg0 O20 2.078108 1_555
Mg0 O35 2.100159 1_555
Mg0 O8 2.100159 1_555
Mg1 O25 1.992531 1_555
Mg1 O18 1.992531 1_544
Mg1 O38 2.229353 1_545
Mg1 O5 2.229353 1_554
Mg1 O32 2.299417 1_554
Mg1 O11 2.299417 1_545
Mg2 O40 1.992531 1_455
Mg2 O3 1.992531 1_545
Mg2 O27 2.229353 1_445
Mg2 O16 2.229353 1_555
Mg2 O10 2.299417 1_545
Mg2 O33 2.299417 1_455
Mg3 O7 2.037464 1_554
Mg3 O36 2.037464 1_455
Mg3 O1 2.078108 1_554
Mg3 O42 2.078108 1_455
Mg3 O12 2.100159 1_555
Mg3 O31 2.100159 1_454
O0 Ti3 1.961708 1_455
O0 Ti0 1.968052 1_555
O0 Ti5 2.122734 1_555
O1 Ti4 1.803466 1_455
O1 Ti1 2.205729 1_555
O2 Si0 1.606250 1_545
O3 Si6 1.601892 1_455
O4 Si1 1.640251 1_555
O4 Si7 1.665745 1_555
O5 Si7 1.667017 1_555
O6 Si5 1.655376 1_555
O6 Ti1 2.009150 1_555
O7 Ti2 1.955504 1_556
O8 Ti5 1.934970 1_555
O9 Si1 1.649828 1_555
O9 Ti1 2.010184 1_555
O10 Si3 1.638486 1_555
O11 Si0 1.638486 1_455
O12 Ti2 1.934970 1_555
O13 Si2 1.649828 1_555
O13 Ti0 2.010184 1_555
O14 Ti5 1.955504 1_555
O15 Si6 1.655376 1_455
O15 Ti0 2.009150 1_555
O16 Si4 1.667017 1_555
O17 Si2 1.640251 1_555
O17 Si4 1.665745 1_555
O18 Si5 1.601892 1_555
O19 Si3 1.606250 1_545
O20 Ti3 1.803466 1_555
O20 Ti0 2.205729 1_555
O21 Ti4 1.961708 1_555
O21 Ti1 1.968052 1_555
O21 Ti2 2.122734 1_556
O22 Ti0 1.961708 1_555
O22 Ti3 1.968052 1_555
O22 Ti2 2.122734 1_555
O23 Ti1 1.803466 1_555
O23 Ti4 2.205729 1_555
O24 Si4 1.606250 1_565
O25 Si2 1.601892 1_555
O26 Si5 1.640251 1_555
O26 Si3 1.665745 1_555
O27 Si3 1.667017 1_555
O28 Si1 1.655376 1_655
O28 Ti4 2.009150 1_555
O29 Ti5 1.955504 1_655
O30 Si5 1.649828 1_555
O30 Ti4 2.010184 1_555
O31 Ti2 1.934970 1_556
O32 Si7 1.638486 1_655
O33 Si4 1.638486 1_555
O34 Si6 1.649828 1_555
O34 Ti3 2.010184 1_555
O35 Ti5 1.934970 1_655
O36 Ti2 1.955504 1_555
O37 Si2 1.655376 1_555
O37 Ti3 2.009150 1_555
O38 Si0 1.667017 1_555
O39 Si6 1.640251 1_555
O39 Si0 1.665745 1_555
O40 Si1 1.601892 1_655
O41 Si7 1.606250 1_565
O42 Ti0 1.803466 1_655
O42 Ti3 2.205729 1_555
O43 Ti1 1.961708 1_655
O43 Ti4 1.968052 1_555
O43 Ti5 2.122734 1_655
