# generated using pymatgen
data_Al3Pt
_symmetry_space_group_name_H-M   'P 1'
_cell_length_a   4.84097023
_cell_length_b   4.84097023
_cell_length_c   4.84097023
_cell_angle_alpha   131.94653885
_cell_angle_beta   131.94653885
_cell_angle_gamma   70.31347607
_symmetry_Int_Tables_number   1
_chemical_formula_structural   Al3Pt
_chemical_formula_sum   'Al3 Pt1'
_cell_volume   61.50686975
_cell_formula_units_Z   1
loop_
 _symmetry_equiv_pos_site_id
 _symmetry_equiv_pos_as_xyz
  1  'x, y, z'
loop_
 _atom_site_type_symbol
 _atom_site_label
 _atom_site_symmetry_multiplicity
 _atom_site_fract_x
 _atom_site_fract_y
 _atom_site_fract_z
 _atom_site_occupancy
  Al  Al0  1  0.75000000  0.25000000  0.50000000  1
  Al  Al1  1  0.25000000  0.75000000  0.50000000  1
  Al  Al2  1  0.50000000  0.50000000  0.00000000  1
  Pt  Pt0  1  0.00000000  0.00000000  0.00000000  1
loop_
_geom_bond_atom_site_label_1
_geom_bond_atom_site_label_2
_geom_bond_distance
_geom_bond_site_symmetry_2
Al0 Al1 2.787504 1_544
Al0 Al1 2.787504 1_555
Al0 Al1 2.787504 1_656
Al0 Al1 2.787504 1_645
Al0 Al2 2.793079 1_556
Al0 Al2 2.793079 1_656
Al0 Al2 2.793079 1_555
Al0 Pt0 2.793079 1_655
Al0 Pt0 2.793079 1_555
Al0 Pt0 2.793079 1_656
Al0 Al2 2.793079 1_545
Al0 Pt0 2.793079 1_666
Al1 Al2 2.793079 1_556
Al1 Al2 2.793079 1_555
Al1 Pt0 2.793079 1_555
Al1 Pt0 2.793079 1_566
Al1 Al2 2.793079 1_566
Al1 Pt0 2.793079 1_565
Al1 Al2 2.793079 1_455
Al1 Pt0 2.793079 1_666
Al2 Pt0 2.787504 1_554
Al2 Pt0 2.787504 1_655
Al2 Pt0 2.787504 1_565
Al2 Pt0 2.787504 1_666
