# generated using pymatgen
data_Er(NO3)3
_symmetry_space_group_name_H-M   'P 1'
_cell_length_a   6.16352300
_cell_length_b   9.69659200
_cell_length_c   11.14681116
_cell_angle_alpha   87.09076138
_cell_angle_beta   90.00000000
_cell_angle_gamma   90.00000000
_symmetry_Int_Tables_number   1
_chemical_formula_structural   Er(NO3)3
_chemical_formula_sum   'Er4 N12 O36'
_cell_volume   665.33244360
_cell_formula_units_Z   4
loop_
 _symmetry_equiv_pos_site_id
 _symmetry_equiv_pos_as_xyz
  1  'x, y, z'
loop_
 _atom_site_type_symbol
 _atom_site_label
 _atom_site_symmetry_multiplicity
 _atom_site_fract_x
 _atom_site_fract_y
 _atom_site_fract_z
 _atom_site_occupancy
  Er  Er0  1  0.67725900  0.28572400  0.73387400  1
  Er  Er1  1  0.17725900  0.21427600  0.26612600  1
  Er  Er2  1  0.32274100  0.71427600  0.26612600  1
  Er  Er3  1  0.82274100  0.78572400  0.73387400  1
  N  N0  1  0.37984700  0.16877000  0.49361600  1
  N  N1  1  0.87984700  0.33123000  0.50638400  1
  N  N2  1  0.62015300  0.83123000  0.50638400  1
  N  N3  1  0.12015300  0.66877000  0.49361600  1
  N  N4  1  0.73026000  0.20061100  0.21352100  1
  N  N5  1  0.23026000  0.29938900  0.78647900  1
  N  N6  1  0.26974000  0.79938900  0.78647900  1
  N  N7  1  0.76974000  0.70061100  0.21352100  1
  N  N8  1  0.72141200  0.52704800  0.87935400  1
  N  N9  1  0.22141200  0.97295200  0.12064600  1
  N  N10  1  0.27858800  0.47295200  0.12064600  1
  N  N11  1  0.77858800  0.02704800  0.87935400  1
  O  O0  1  0.42534000  0.27451200  0.42538100  1
  O  O1  1  0.92534000  0.22548800  0.57461900  1
  O  O2  1  0.57466000  0.72548800  0.57461900  1
  O  O3  1  0.07466000  0.77451200  0.42538100  1
  O  O4  1  0.25052900  0.08110600  0.45203200  1
  O  O5  1  0.75052900  0.41889400  0.54796800  1
  O  O6  1  0.74947100  0.91889400  0.54796800  1
  O  O7  1  0.24947100  0.58110600  0.45203200  1
  O  O8  1  0.45810300  0.15171700  0.59717800  1
  O  O9  1  0.95810300  0.34828300  0.40282200  1
  O  O10  1  0.54189700  0.84828300  0.40282200  1
  O  O11  1  0.04189700  0.65171700  0.59717800  1
  O  O12  1  0.82616400  0.10385600  0.27447800  1
  O  O13  1  0.32616400  0.39614400  0.72552200  1
  O  O14  1  0.17383600  0.89614400  0.72552200  1
  O  O15  1  0.67383600  0.60385600  0.27447800  1
  O  O16  1  0.52970900  0.19713600  0.19521400  1
  O  O17  1  0.02970900  0.30286400  0.80478600  1
  O  O18  1  0.47029100  0.80286400  0.80478600  1
  O  O19  1  0.97029100  0.69713600  0.19521400  1
  O  O20  1  0.84470300  0.29992000  0.17112700  1
  O  O21  1  0.34470300  0.20008000  0.82887300  1
  O  O22  1  0.15529700  0.70008000  0.82887300  1
  O  O23  1  0.65529700  0.79992000  0.17112700  1
  O  O24  1  0.73216200  0.54198900  0.76184500  1
  O  O25  1  0.23216200  0.95801100  0.23815500  1
  O  O26  1  0.26783800  0.45801100  0.23815500  1
  O  O27  1  0.76783800  0.04198900  0.76184500  1
  O  O28  1  0.66726300  0.40925700  0.92175400  1
  O  O29  1  0.16726300  0.09074300  0.07824600  1
  O  O30  1  0.33273700  0.59074300  0.07824600  1
  O  O31  1  0.83273700  0.90925700  0.92175400  1
  O  O32  1  0.76583000  0.62722300  0.93895700  1
  O  O33  1  0.26583000  0.87277700  0.06104300  1
  O  O34  1  0.23417000  0.37277700  0.06104300  1
  O  O35  1  0.73417000  0.12722300  0.93895700  1
loop_
_geom_bond_atom_site_label_1
_geom_bond_atom_site_label_2
_geom_bond_distance
_geom_bond_site_symmetry_2
Er0 O17 2.320515 1_655
Er0 O13 2.414076 1_555
Er0 O5 2.427760 1_555
Er0 O27 2.433054 1_555
Er0 O21 2.433736 1_555
Er0 O1 2.436327 1_555
Er0 O8 2.456781 1_555
Er0 O28 2.465607 1_555
Er0 O24 2.542652 1_555
Er0 O35 2.711903 1_555
Er1 O16 2.320515 1_555
Er1 O12 2.414076 1_455
Er1 O4 2.427760 1_555
Er1 O26 2.433054 1_555
Er1 O20 2.433736 1_455
Er1 O0 2.436327 1_555
Er1 O9 2.456781 1_455
Er1 O29 2.465607 1_555
Er1 O25 2.542652 1_545
Er1 O34 2.711903 1_555
Er2 O19 2.320515 1_455
Er2 O15 2.414076 1_555
Er2 O7 2.427760 1_555
Er2 O25 2.433054 1_555
Er2 O23 2.433736 1_555
Er2 O3 2.436327 1_555
Er2 O10 2.456781 1_555
Er2 O30 2.465607 1_555
Er2 O26 2.542652 1_555
Er2 O33 2.711903 1_555
Er3 O18 2.320515 1_555
Er3 O14 2.414076 1_655
Er3 O6 2.427760 1_555
Er3 O24 2.433054 1_555
Er3 O22 2.433736 1_655
Er3 O2 2.436327 1_555
Er3 O11 2.456781 1_655
Er3 O31 2.465607 1_555
Er3 O27 2.542652 1_565
Er3 O32 2.711903 1_555
N0 O8 1.254280 1_555
N0 O4 1.269930 1_555
N0 O0 1.276437 1_555
N1 O9 1.254280 1_555
N1 O5 1.269930 1_555
N1 O1 1.276437 1_555
N2 O10 1.254280 1_555
N2 O6 1.269930 1_555
N2 O2 1.276437 1_555
N3 O11 1.254280 1_555
N3 O7 1.269930 1_555
N3 O3 1.276437 1_555
N4 O16 1.253563 1_555
N4 O20 1.265685 1_555
N4 O12 1.275380 1_555
N5 O17 1.253563 1_555
N5 O21 1.265685 1_555
N5 O13 1.275380 1_555
N6 O18 1.253563 1_555
N6 O22 1.265685 1_555
N6 O14 1.275380 1_555
N7 O19 1.253563 1_555
N7 O23 1.265685 1_555
N7 O15 1.275380 1_555
N8 O32 1.235070 1_555
N8 O28 1.258778 1_555
N8 O24 1.312183 1_555
N9 O33 1.235070 1_555
N9 O29 1.258778 1_565
N9 O25 1.312183 1_555
N10 O34 1.235070 1_555
N10 O30 1.258778 1_555
N10 O26 1.312183 1_555
N11 O35 1.235070 1_555
N11 O31 1.258778 1_545
N11 O27 1.312183 1_555
