# generated using pymatgen
data_CaMg3
_symmetry_space_group_name_H-M   'P 1'
_cell_length_a   6.81814854
_cell_length_b   6.81814854
_cell_length_c   21.76135000
_cell_angle_alpha   90.00000000
_cell_angle_beta   90.00000000
_cell_angle_gamma   120.00000525
_symmetry_Int_Tables_number   1
_chemical_formula_structural   CaMg3
_chemical_formula_sum   'Ca8 Mg24'
_cell_volume   876.09128455
_cell_formula_units_Z   8
loop_
 _symmetry_equiv_pos_site_id
 _symmetry_equiv_pos_as_xyz
  1  'x, y, z'
loop_
 _atom_site_type_symbol
 _atom_site_label
 _atom_site_symmetry_multiplicity
 _atom_site_fract_x
 _atom_site_fract_y
 _atom_site_fract_z
 _atom_site_occupancy
  Ca  Ca0_0  1  0.00000000  0.00000000  0.25000000  1
  Ca  Ca0_1  1  0.00000000  0.00000000  0.75000000  1
  Ca  Ca0_2  1  0.00000000  0.50000000  0.25000000  1
  Ca  Ca0_3  1  0.00000000  0.50000000  0.75000000  1
  Ca  Ca0_4  1  0.50000000  0.00000000  0.25000000  1
  Ca  Ca0_5  1  0.50000000  0.00000000  0.75000000  1
  Ca  Ca0_6  1  0.50000000  0.50000000  0.25000000  1
  Ca  Ca0_7  1  0.50000000  0.50000000  0.75000000  1
  Mg  Mg0_0  1  0.00000000  0.00000000  0.00000000  1
  Mg  Mg0_1  1  0.00000000  0.00000000  0.50000000  1
  Mg  Mg0_2  1  0.00000000  0.50000000  0.00000000  1
  Mg  Mg0_3  1  0.00000000  0.50000000  0.50000000  1
  Mg  Mg0_4  1  0.50000000  0.00000000  0.00000000  1
  Mg  Mg0_5  1  0.50000000  0.00000000  0.50000000  1
  Mg  Mg0_6  1  0.50000000  0.50000000  0.00000000  1
  Mg  Mg0_7  1  0.50000000  0.50000000  0.50000000  1
  Mg  Mg1_0  1  0.33333350  0.16666650  0.38227400  1
  Mg  Mg1_1  1  0.33333350  0.16666650  0.88227400  1
  Mg  Mg1_2  1  0.33333350  0.66666650  0.38227400  1
  Mg  Mg1_3  1  0.33333350  0.66666650  0.88227400  1
  Mg  Mg1_4  1  0.83333350  0.16666650  0.38227400  1
  Mg  Mg1_5  1  0.83333350  0.16666650  0.88227400  1
  Mg  Mg1_6  1  0.83333350  0.66666650  0.38227400  1
  Mg  Mg1_7  1  0.83333350  0.66666650  0.88227400  1
  Mg  Mg2_0  1  0.33333350  0.16666650  0.11772600  1
  Mg  Mg2_1  1  0.33333350  0.16666650  0.61772600  1
  Mg  Mg2_2  1  0.33333350  0.66666650  0.11772600  1
  Mg  Mg2_3  1  0.33333350  0.66666650  0.61772600  1
  Mg  Mg2_4  1  0.83333350  0.16666650  0.11772600  1
  Mg  Mg2_5  1  0.83333350  0.16666650  0.61772600  1
  Mg  Mg2_6  1  0.83333350  0.66666650  0.11772600  1
  Mg  Mg2_7  1  0.83333350  0.66666650  0.61772600  1
loop_
_geom_bond_atom_site_label_1
_geom_bond_atom_site_label_2
_geom_bond_distance
_geom_bond_site_symmetry_2
Ca0_0 Ca0_6 3.409074 1_555
Ca0_0 Ca0_6 3.409074 1_445
Ca0_0 Ca0_4 3.409074 1_555
Ca0_0 Ca0_4 3.409074 1_455
Ca0_0 Ca0_2 3.409074 1_545
Ca0_0 Ca0_2 3.409074 1_555
Ca0_0 Mg2_4 3.487041 1_455
Ca0_0 Mg1_4 3.487041 1_455
Ca0_0 Mg2_0 3.487043 1_555
Ca0_0 Mg1_0 3.487043 1_555
Ca0_0 Mg2_6 3.487043 1_445
Ca0_0 Mg1_6 3.487043 1_445
Ca0_1 Ca0_7 3.409074 1_445
Ca0_1 Ca0_7 3.409074 1_555
Ca0_1 Ca0_5 3.409074 1_555
Ca0_1 Ca0_3 3.409074 1_545
Ca0_1 Ca0_3 3.409074 1_555
Ca0_1 Ca0_5 3.409074 1_455
Ca0_1 Mg1_5 3.487041 1_455
Ca0_1 Mg2_5 3.487041 1_455
Ca0_1 Mg1_1 3.487043 1_555
Ca0_1 Mg1_7 3.487043 1_445
Ca0_1 Mg2_1 3.487043 1_555
Ca0_1 Mg2_7 3.487043 1_445
Ca0_2 Ca0_4 3.409074 1_565
Ca0_2 Ca0_4 3.409074 1_455
Ca0_2 Ca0_6 3.409074 1_455
Ca0_2 Ca0_6 3.409074 1_555
Ca0_2 Mg2_6 3.487041 1_455
Ca0_2 Mg1_6 3.487041 1_455
Ca0_2 Mg1_2 3.487043 1_555
Ca0_2 Mg2_2 3.487043 1_555
Ca0_2 Mg2_4 3.487043 1_455
Ca0_2 Mg1_4 3.487043 1_455
Ca0_3 Ca0_5 3.409074 1_565
Ca0_3 Ca0_5 3.409074 1_455
Ca0_3 Ca0_7 3.409074 1_455
Ca0_3 Ca0_7 3.409074 1_555
Ca0_3 Mg1_7 3.487041 1_455
Ca0_3 Mg2_7 3.487041 1_455
Ca0_3 Mg1_3 3.487043 1_555
Ca0_3 Mg1_5 3.487043 1_455
Ca0_3 Mg2_3 3.487043 1_555
Ca0_3 Mg2_5 3.487043 1_455
Ca0_4 Ca0_6 3.409074 1_555
Ca0_4 Ca0_6 3.409074 1_545
Ca0_4 Mg1_0 3.487041 1_555
Ca0_4 Mg2_0 3.487041 1_555
Ca0_4 Mg2_4 3.487043 1_555
Ca0_4 Mg1_4 3.487043 1_555
Ca0_4 Mg2_2 3.487043 1_545
Ca0_4 Mg1_2 3.487043 1_545
Ca0_5 Ca0_7 3.409074 1_555
Ca0_5 Ca0_7 3.409074 1_545
Ca0_5 Mg1_1 3.487041 1_555
Ca0_5 Mg2_1 3.487041 1_555
Ca0_5 Mg1_5 3.487043 1_555
Ca0_5 Mg1_3 3.487043 1_545
Ca0_5 Mg2_5 3.487043 1_555
Ca0_5 Mg2_3 3.487043 1_545
Ca0_6 Mg1_2 3.487041 1_555
Ca0_6 Mg2_2 3.487041 1_555
Ca0_6 Mg2_0 3.487043 1_555
Ca0_6 Mg1_6 3.487043 1_555
Ca0_6 Mg1_0 3.487043 1_555
Ca0_6 Mg2_6 3.487043 1_555
Ca0_7 Mg1_3 3.487041 1_555
Ca0_7 Mg2_3 3.487041 1_555
Ca0_7 Mg1_7 3.487043 1_555
Ca0_7 Mg1_1 3.487043 1_555
Ca0_7 Mg2_1 3.487043 1_555
Ca0_7 Mg2_7 3.487043 1_555
Mg0_0 Mg1_5 3.230655 1_454
Mg0_0 Mg2_4 3.230655 1_455
Mg0_0 Mg2_0 3.230657 1_555
Mg0_0 Mg1_7 3.230657 1_444
Mg0_0 Mg1_1 3.230657 1_554
Mg0_0 Mg2_6 3.230657 1_445
Mg0_0 Mg0_6 3.409074 1_445
Mg0_0 Mg0_6 3.409074 1_555
Mg0_0 Mg0_4 3.409074 1_555
Mg0_0 Mg0_2 3.409074 1_545
Mg0_0 Mg0_2 3.409074 1_555
Mg0_0 Mg0_4 3.409074 1_455
Mg0_1 Mg1_4 3.230655 1_455
Mg0_1 Mg2_5 3.230655 1_455
Mg0_1 Mg2_7 3.230657 1_445
Mg0_1 Mg2_1 3.230657 1_555
Mg0_1 Mg1_6 3.230657 1_445
Mg0_1 Mg1_0 3.230657 1_555
Mg0_1 Mg0_7 3.409074 1_555
Mg0_1 Mg0_7 3.409074 1_445
Mg0_1 Mg0_5 3.409074 1_555
Mg0_1 Mg0_5 3.409074 1_455
Mg0_1 Mg0_3 3.409074 1_545
Mg0_1 Mg0_3 3.409074 1_555
Mg0_2 Mg1_7 3.230655 1_454
Mg0_2 Mg2_6 3.230655 1_455
Mg0_2 Mg1_5 3.230657 1_454
Mg0_2 Mg1_3 3.230657 1_554
Mg0_2 Mg2_4 3.230657 1_455
Mg0_2 Mg2_2 3.230657 1_555
Mg0_2 Mg0_4 3.409074 1_565
Mg0_2 Mg0_4 3.409074 1_455
Mg0_2 Mg0_6 3.409074 1_455
Mg0_2 Mg0_6 3.409074 1_555
Mg0_3 Mg1_6 3.230655 1_455
Mg0_3 Mg2_7 3.230655 1_455
Mg0_3 Mg1_4 3.230657 1_455
Mg0_3 Mg1_2 3.230657 1_555
Mg0_3 Mg2_3 3.230657 1_555
Mg0_3 Mg2_5 3.230657 1_455
Mg0_3 Mg0_5 3.409074 1_565
Mg0_3 Mg0_5 3.409074 1_455
Mg0_3 Mg0_7 3.409074 1_455
Mg0_3 Mg0_7 3.409074 1_555
Mg0_4 Mg1_1 3.230655 1_554
Mg0_4 Mg2_0 3.230655 1_555
Mg0_4 Mg1_5 3.230657 1_554
Mg0_4 Mg2_2 3.230657 1_545
Mg0_4 Mg2_4 3.230657 1_555
Mg0_4 Mg1_3 3.230657 1_544
Mg0_4 Mg0_6 3.409074 1_555
Mg0_4 Mg0_6 3.409074 1_545
Mg0_5 Mg2_1 3.230655 1_555
Mg0_5 Mg1_0 3.230655 1_555
Mg0_5 Mg1_4 3.230657 1_555
Mg0_5 Mg2_5 3.230657 1_555
Mg0_5 Mg2_3 3.230657 1_545
Mg0_5 Mg1_2 3.230657 1_545
Mg0_5 Mg0_7 3.409074 1_555
Mg0_5 Mg0_7 3.409074 1_545
Mg0_6 Mg1_3 3.230655 1_554
Mg0_6 Mg2_2 3.230655 1_555
Mg0_6 Mg2_0 3.230657 1_555
Mg0_6 Mg1_7 3.230657 1_554
Mg0_6 Mg1_1 3.230657 1_554
Mg0_6 Mg2_6 3.230657 1_555
Mg0_7 Mg1_2 3.230655 1_555
Mg0_7 Mg2_3 3.230655 1_555
Mg0_7 Mg2_1 3.230657 1_555
Mg0_7 Mg1_6 3.230657 1_555
Mg0_7 Mg2_7 3.230657 1_555
Mg0_7 Mg1_0 3.230657 1_555
Mg1_0 Mg1_6 3.409074 1_555
Mg1_0 Mg1_6 3.409074 1_445
Mg1_0 Mg1_4 3.409074 1_555
Mg1_0 Mg1_2 3.409074 1_555
Mg1_0 Mg1_4 3.409074 1_455
Mg1_0 Mg1_2 3.409074 1_545
Mg1_1 Mg1_7 3.409074 1_555
Mg1_1 Mg1_7 3.409074 1_445
Mg1_1 Mg1_5 3.409074 1_555
Mg1_1 Mg1_3 3.409074 1_555
Mg1_1 Mg1_3 3.409074 1_545
Mg1_1 Mg1_5 3.409074 1_455
Mg1_2 Mg1_4 3.409074 1_565
Mg1_2 Mg1_4 3.409074 1_455
Mg1_2 Mg1_6 3.409074 1_555
Mg1_2 Mg1_6 3.409074 1_455
Mg1_3 Mg1_5 3.409074 1_565
Mg1_3 Mg1_5 3.409074 1_455
Mg1_3 Mg1_7 3.409074 1_555
Mg1_3 Mg1_7 3.409074 1_455
Mg1_4 Mg1_6 3.409074 1_555
Mg1_4 Mg1_6 3.409074 1_545
Mg1_5 Mg1_7 3.409074 1_545
Mg1_5 Mg1_7 3.409074 1_555
Mg2_0 Mg2_6 3.409074 1_555
Mg2_0 Mg2_6 3.409074 1_445
Mg2_0 Mg2_4 3.409074 1_555
Mg2_0 Mg2_2 3.409074 1_555
Mg2_0 Mg2_4 3.409074 1_455
Mg2_0 Mg2_2 3.409074 1_545
Mg2_1 Mg2_7 3.409074 1_555
Mg2_1 Mg2_7 3.409074 1_445
Mg2_1 Mg2_5 3.409074 1_555
Mg2_1 Mg2_3 3.409074 1_555
Mg2_1 Mg2_5 3.409074 1_455
Mg2_1 Mg2_3 3.409074 1_545
Mg2_2 Mg2_4 3.409074 1_565
Mg2_2 Mg2_4 3.409074 1_455
Mg2_2 Mg2_6 3.409074 1_555
Mg2_2 Mg2_6 3.409074 1_455
Mg2_3 Mg2_5 3.409074 1_565
Mg2_3 Mg2_5 3.409074 1_455
Mg2_3 Mg2_7 3.409074 1_555
Mg2_3 Mg2_7 3.409074 1_455
Mg2_4 Mg2_6 3.409074 1_555
Mg2_4 Mg2_6 3.409074 1_545
Mg2_5 Mg2_7 3.409074 1_545
Mg2_5 Mg2_7 3.409074 1_555
