# generated using pymatgen
data_Na3Ce4Ti2(SiO12)2
_symmetry_space_group_name_H-M   'P 1'
_cell_length_a   4.99976632
_cell_length_b   7.49640392
_cell_length_c   13.88590777
_cell_angle_alpha   77.65304468
_cell_angle_beta   78.32545761
_cell_angle_gamma   70.31869614
_symmetry_Int_Tables_number   1
_chemical_formula_structural   Na3Ce4Ti2(SiO12)2
_chemical_formula_sum   'Na3 Ce4 Ti2 Si2 O24'
_cell_volume   473.87850111
_cell_formula_units_Z   1
loop_
 _symmetry_equiv_pos_site_id
 _symmetry_equiv_pos_as_xyz
  1  'x, y, z'
loop_
 _atom_site_type_symbol
 _atom_site_label
 _atom_site_symmetry_multiplicity
 _atom_site_fract_x
 _atom_site_fract_y
 _atom_site_fract_z
 _atom_site_occupancy
  Na  Na0  1  0.08943100  0.04737600  0.64089100  1
  Na  Na1  1  0.71332700  0.19280400  0.22572600  1
  Na  Na2  1  0.35063900  0.30885300  0.81557600  1
  Ce  Ce0  1  0.42672400  0.42034500  0.45671500  1
  Ce  Ce1  1  0.76504400  0.85007000  0.47553900  1
  Ce  Ce2  1  0.01538800  0.95620500  0.99963800  1
  Ce  Ce3  1  0.69008800  0.58437300  0.01595400  1
  Ti  Ti0  1  0.00381200  0.60023600  0.23357900  1
  Ti  Ti1  1  0.39775500  0.81902300  0.23074800  1
  Si  Si0  1  0.23448200  0.25356100  0.07638200  1
  Si  Si1  1  0.18493800  0.16374600  0.37445200  1
  O  O0  1  0.35434400  0.33407400  0.64133600  1
  O  O1  1  0.55986000  0.26191500  0.06304500  1
  O  O2  1  0.12153000  0.68422400  0.96807600  1
  O  O3  1  0.87762100  0.64451200  0.77756400  1
  O  O4  1  0.31497000  0.74967200  0.50401800  1
  O  O5  1  0.76696200  0.80460800  0.14573400  1
  O  O6  1  0.38579400  0.73488100  0.59482200  1
  O  O7  1  0.99291800  0.41575600  0.14183600  1
  O  O8  1  0.81520400  0.12664500  0.84737700  1
  O  O9  1  0.06091800  0.76938500  0.30879900  1
  O  O10  1  0.85310000  0.16492300  0.38989100  1
  O  O11  1  0.64214900  0.59828300  0.31257500  1
  O  O12  1  0.52698500  0.86879200  0.96662700  1
  O  O13  1  0.98883200  0.53768500  0.49158400  1
  O  O14  1  0.41125300  0.99377700  0.31448300  1
  O  O15  1  0.63260800  0.31754800  0.61308700  1
  O  O16  1  0.34443200  0.65047000  0.14824600  1
  O  O17  1  0.30947300  0.13652100  0.47951600  1
  O  O18  1  0.24129800  0.36633700  0.31402500  1
  O  O19  1  0.75874200  0.92275400  0.60123000  1
  O  O20  1  0.18743300  0.04550400  0.13588200  1
  O  O21  1  0.68265700  0.56850900  0.80666300  1
  O  O22  1  0.09530000  0.06179700  0.81423800  1
  O  O23  1  0.09898900  0.28883700  0.97214700  1
loop_
_geom_bond_atom_site_label_1
_geom_bond_atom_site_label_2
_geom_bond_distance
_geom_bond_site_symmetry_2
Na0 O17 2.352738 1_555
Na0 O19 2.353431 1_445
Na0 O22 2.438974 1_555
Na0 O6 2.451882 1_545
Na0 O15 2.524734 1_455
Na0 O0 2.880944 1_555
Na1 O1 2.427617 1_555
Na1 O14 2.450326 1_545
Na1 O20 2.454359 1_655
Na1 O10 2.463961 1_555
Na1 O7 2.487268 1_555
Na1 O18 2.491683 1_555
Na2 O23 2.283199 1_555
Na2 O8 2.340055 1_555
Na2 O0 2.382974 1_555
Na2 O22 2.584001 1_555
Na2 O3 2.851671 1_455
Na2 O21 2.924046 1_555
Ce0 O13 2.063351 1_455
Ce0 O17 2.334048 1_555
Ce0 O11 2.428771 1_555
Ce0 O15 2.454169 1_555
Ce0 O0 2.488885 1_555
Ce0 O10 2.506319 1_555
Ce0 O18 2.507702 1_555
Ce0 O4 2.540529 1_555
Ce1 O19 1.927937 1_555
Ce1 O13 2.213206 1_555
Ce1 O6 2.510919 1_555
Ce1 O4 2.537689 1_555
Ce1 O10 2.542965 1_565
Ce1 O17 2.550994 1_565
Ce1 O9 2.554415 1_655
Ce1 O4 2.683558 1_655
Ce1 O14 2.928832 1_555
Ce2 O2 2.046935 1_555
Ce2 O12 2.388962 1_555
Ce2 O5 2.427922 1_456
Ce2 O8 2.438068 1_465
Ce2 O22 2.517782 1_565
Ce2 O20 2.520972 1_566
Ce2 O23 2.601650 1_565
Ce2 O1 2.783890 1_466
Ce3 O12 2.027424 1_554
Ce3 O16 2.265921 1_555
Ce3 O7 2.404725 1_555
Ce3 O2 2.439217 1_654
Ce3 O23 2.545606 1_654
Ce3 O1 2.628042 1_555
Ce3 O2 2.863874 1_554
Ce3 O21 2.942104 1_554
O0 O15 1.337398 1_555
O1 Si0 1.620641 1_555
O4 O6 1.349815 1_555
O5 Ti0 1.949558 1_655
O5 Ti1 1.962413 1_555
O7 Si0 1.674021 1_655
O7 Ti0 2.090610 1_655
O9 Ti1 1.913183 1_555
O9 Ti0 1.926475 1_555
O10 Si1 1.626559 1_655
O11 Ti0 1.918698 1_655
O11 Ti1 1.979440 1_555
O14 Si1 1.642728 1_565
O14 Ti1 1.953307 1_555
O16 Ti0 1.967386 1_555
O16 Ti1 1.987363 1_555
O17 Si1 1.646952 1_555
O18 Si1 1.654544 1_555
O18 Ti0 2.007214 1_555
O20 Si0 1.669712 1_555
O20 Ti1 2.031045 1_545
O21 O3 1.246716 1_555
O22 O8 1.336242 1_455
O23 Si0 1.654167 1_556
