# generated using pymatgen
data_Fe(SeO3)2
_symmetry_space_group_name_H-M   'P 1'
_cell_length_a   10.04115300
_cell_length_b   6.63390500
_cell_length_c   8.17886879
_cell_angle_alpha   89.41329929
_cell_angle_beta   90.00000000
_cell_angle_gamma   90.00000000
_symmetry_Int_Tables_number   1
_chemical_formula_structural   Fe(SeO3)2
_chemical_formula_sum   'Fe4 Se8 O24'
_cell_volume   544.78269585
_cell_formula_units_Z   4
loop_
 _symmetry_equiv_pos_site_id
 _symmetry_equiv_pos_as_xyz
  1  'x, y, z'
loop_
 _atom_site_type_symbol
 _atom_site_label
 _atom_site_symmetry_multiplicity
 _atom_site_fract_x
 _atom_site_fract_y
 _atom_site_fract_z
 _atom_site_occupancy
  Fe  Fe0  1  0.50632400  0.55202600  0.30213400  1
  Fe  Fe1  1  0.00632400  0.44797400  0.19786600  1
  Fe  Fe2  1  0.49367600  0.44797400  0.69786600  1
  Fe  Fe3  1  0.99367600  0.55202600  0.80213400  1
  Se  Se0  1  0.91650500  0.94047700  0.22028500  1
  Se  Se1  1  0.41650500  0.05952300  0.27971500  1
  Se  Se2  1  0.08349500  0.05952300  0.77971500  1
  Se  Se3  1  0.58349500  0.94047700  0.72028500  1
  Se  Se4  1  0.71085500  0.40788900  0.02152100  1
  Se  Se5  1  0.21085500  0.59211100  0.47847900  1
  Se  Se6  1  0.28914500  0.59211100  0.97847900  1
  Se  Se7  1  0.78914500  0.40788900  0.52152100  1
  O  O0  1  0.03406900  0.75374900  0.23013800  1
  O  O1  1  0.53406900  0.24625100  0.26986200  1
  O  O2  1  0.96593100  0.24625100  0.76986200  1
  O  O3  1  0.46593100  0.75374900  0.73013800  1
  O  O4  1  0.85089800  0.97886100  0.40415200  1
  O  O5  1  0.35089800  0.02113900  0.09584800  1
  O  O6  1  0.14910200  0.02113900  0.59584800  1
  O  O7  1  0.64910200  0.97886100  0.90415200  1
  O  O8  1  0.00293500  0.14715200  0.14974700  1
  O  O9  1  0.50293500  0.85284800  0.35025300  1
  O  O10  1  0.99706500  0.85284800  0.85025300  1
  O  O11  1  0.49706500  0.14715200  0.64974700  1
  O  O12  1  0.62451200  0.59883100  0.11440600  1
  O  O13  1  0.12451200  0.40116900  0.38559400  1
  O  O14  1  0.37548800  0.40116900  0.88559400  1
  O  O15  1  0.87548800  0.59883100  0.61440600  1
  O  O16  1  0.87166900  0.52133400  0.00333400  1
  O  O17  1  0.37166900  0.47866600  0.49666600  1
  O  O18  1  0.12833100  0.47866600  0.99666600  1
  O  O19  1  0.62833100  0.52133400  0.50333400  1
  O  O20  1  0.66309000  0.43761700  0.82174300  1
  O  O21  1  0.16309000  0.56238300  0.67825700  1
  O  O22  1  0.33691000  0.56238300  0.17825700  1
  O  O23  1  0.83691000  0.43761700  0.32174300  1
loop_
_geom_bond_atom_site_label_1
_geom_bond_atom_site_label_2
_geom_bond_distance
_geom_bond_site_symmetry_2
Fe0 O12 1.962771 1_555
Fe0 O22 1.980807 1_555
Fe0 O9 2.038295 1_555
Fe0 O19 2.059952 1_555
Fe0 O1 2.067121 1_555
Fe0 O17 2.140229 1_555
Fe1 O13 1.962771 1_555
Fe1 O23 1.980807 1_455
Fe1 O8 2.038295 1_555
Fe1 O18 2.059952 1_554
Fe1 O0 2.067121 1_555
Fe1 O16 2.140229 1_455
Fe2 O14 1.962771 1_555
Fe2 O20 1.980807 1_555
Fe2 O11 2.038295 1_555
Fe2 O17 2.059952 1_555
Fe2 O3 2.067121 1_555
Fe2 O19 2.140229 1_555
Fe3 O15 1.962771 1_555
Fe3 O21 1.980807 1_655
Fe3 O10 2.038295 1_555
Fe3 O16 2.059952 1_556
Fe3 O2 2.067121 1_555
Fe3 O18 2.140229 1_655
O0 Se0 1.712438 1_455
O1 Se1 1.712438 1_555
O2 Se2 1.712438 1_655
O3 Se3 1.712438 1_555
O4 Se0 1.663775 1_555
O5 Se1 1.663775 1_555
O6 Se2 1.663775 1_555
O7 Se3 1.663775 1_555
O8 Se0 1.717448 1_445
O9 Se1 1.717448 1_565
O10 Se2 1.717448 1_665
O11 Se3 1.717448 1_545
O12 Se4 1.718432 1_555
O13 Se5 1.718432 1_555
O14 Se6 1.718432 1_555
O15 Se7 1.718432 1_555
O16 Se4 1.787081 1_555
O17 Se5 1.787081 1_555
O18 Se6 1.787081 1_555
O19 Se7 1.787081 1_555
O20 Se4 1.712350 1_556
O21 Se5 1.712350 1_555
O22 Se6 1.712350 1_554
O23 Se7 1.712350 1_555
