# generated using pymatgen
data_Dy6Fe23
_symmetry_space_group_name_H-M   'P 1'
_cell_length_a   8.51087015
_cell_length_b   8.51087015
_cell_length_c   8.51087015
_cell_angle_alpha   60.00000000
_cell_angle_beta   60.00000000
_cell_angle_gamma   60.00000000
_symmetry_Int_Tables_number   1
_chemical_formula_structural   Dy6Fe23
_chemical_formula_sum   'Dy6 Fe23'
_cell_volume   435.92010199
_cell_formula_units_Z   1
loop_
 _symmetry_equiv_pos_site_id
 _symmetry_equiv_pos_as_xyz
  1  'x, y, z'
loop_
 _atom_site_type_symbol
 _atom_site_label
 _atom_site_symmetry_multiplicity
 _atom_site_fract_x
 _atom_site_fract_y
 _atom_site_fract_z
 _atom_site_occupancy
  Dy  Dy0  1  0.71023500  0.28976500  0.28976500  1
  Dy  Dy1  1  0.71023500  0.28976500  0.71023500  1
  Dy  Dy2  1  0.71023500  0.71023500  0.28976500  1
  Dy  Dy3  1  0.28976500  0.71023500  0.71023500  1
  Dy  Dy4  1  0.28976500  0.71023500  0.28976500  1
  Dy  Dy5  1  0.28976500  0.28976500  0.71023500  1
  Fe  Fe0  1  0.00000000  0.00000000  0.00000000  1
  Fe  Fe1  1  0.50000000  0.00000000  0.00000000  1
  Fe  Fe2  1  0.50000000  0.00000000  0.50000000  1
  Fe  Fe3  1  0.50000000  0.50000000  0.00000000  1
  Fe  Fe4  1  0.00000000  0.50000000  0.50000000  1
  Fe  Fe5  1  0.00000000  0.50000000  0.00000000  1
  Fe  Fe6  1  0.00000000  0.00000000  0.50000000  1
  Fe  Fe7  1  0.63469600  0.12176800  0.12176800  1
  Fe  Fe8  1  0.12176800  0.63469600  0.12176800  1
  Fe  Fe9  1  0.12176800  0.12176800  0.63469600  1
  Fe  Fe10  1  0.12176800  0.12176800  0.12176800  1
  Fe  Fe11  1  0.36530400  0.87823200  0.87823200  1
  Fe  Fe12  1  0.87823200  0.36530400  0.87823200  1
  Fe  Fe13  1  0.87823200  0.87823200  0.36530400  1
  Fe  Fe14  1  0.87823200  0.87823200  0.87823200  1
  Fe  Fe15  1  0.02753700  0.32415400  0.32415400  1
  Fe  Fe16  1  0.32415400  0.02753700  0.32415400  1
  Fe  Fe17  1  0.32415400  0.32415400  0.02753700  1
  Fe  Fe18  1  0.32415400  0.32415400  0.32415400  1
  Fe  Fe19  1  0.97246300  0.67584600  0.67584600  1
  Fe  Fe20  1  0.67584600  0.97246300  0.67584600  1
  Fe  Fe21  1  0.67584600  0.67584600  0.97246300  1
  Fe  Fe22  1  0.67584600  0.67584600  0.67584600  1
loop_
_geom_bond_atom_site_label_1
_geom_bond_atom_site_label_2
_geom_bond_distance
_geom_bond_site_symmetry_2
Dy0 Fe10 2.895645 1_655
Dy0 Fe13 2.895645 1_545
Dy0 Fe12 2.895645 1_554
Dy0 Fe7 2.895645 1_555
Dy0 Fe15 3.021680 1_655
Dy0 Fe21 3.021685 1_554
Dy0 Fe20 3.021685 1_545
Dy0 Fe18 3.021688 1_555
Dy0 Fe3 3.046874 1_555
Dy0 Fe2 3.046874 1_555
Dy0 Fe6 3.046874 1_655
Dy0 Fe5 3.046874 1_655
Dy1 Fe12 2.895645 1_555
Dy1 Fe9 2.895645 1_655
Dy1 Fe14 2.895645 1_545
Dy1 Fe7 2.895645 1_556
Dy1 Fe20 3.021680 1_545
Dy1 Fe15 3.021685 1_655
Dy1 Fe17 3.021685 1_556
Dy1 Fe22 3.021688 1_555
Dy1 Fe6 3.046874 1_655
Dy1 Fe1 3.046874 1_556
Dy1 Fe3 3.046874 1_556
Dy1 Fe4 3.046874 1_655
Dy2 Fe13 2.895645 1_555
Dy2 Fe7 2.895645 1_565
Dy2 Fe8 2.895645 1_655
Dy2 Fe14 2.895645 1_554
Dy2 Fe21 3.021680 1_554
Dy2 Fe15 3.021685 1_655
Dy2 Fe16 3.021685 1_565
Dy2 Fe22 3.021688 1_555
Dy2 Fe5 3.046874 1_655
Dy2 Fe1 3.046874 1_565
Dy2 Fe4 3.046874 1_655
Dy2 Fe2 3.046874 1_565
Dy3 Fe11 2.895645 1_555
Dy3 Fe8 2.895645 1_556
Dy3 Fe9 2.895645 1_565
Dy3 Fe14 2.895645 1_455
Dy3 Fe19 3.021680 1_455
Dy3 Fe17 3.021685 1_556
Dy3 Fe16 3.021685 1_565
Dy3 Fe22 3.021688 1_555
Dy3 Fe5 3.046874 1_556
Dy3 Fe6 3.046874 1_565
Dy3 Fe2 3.046874 1_565
Dy3 Fe3 3.046874 1_556
Dy4 Fe11 2.895645 1_554
Dy4 Fe10 2.895645 1_565
Dy4 Fe13 2.895645 1_455
Dy4 Fe8 2.895645 1_555
Dy4 Fe16 3.021680 1_565
Dy4 Fe21 3.021685 1_554
Dy4 Fe19 3.021685 1_455
Dy4 Fe18 3.021688 1_555
Dy4 Fe3 3.046874 1_555
Dy4 Fe4 3.046874 1_555
Dy4 Fe1 3.046874 1_565
Dy4 Fe6 3.046874 1_565
Dy5 Fe12 2.895645 1_455
Dy5 Fe10 2.895645 1_556
Dy5 Fe11 2.895645 1_545
Dy5 Fe9 2.895645 1_555
Dy5 Fe17 3.021680 1_556
Dy5 Fe19 3.021685 1_455
Dy5 Fe20 3.021685 1_545
Dy5 Fe18 3.021688 1_555
Dy5 Fe4 3.046874 1_555
Dy5 Fe2 3.046874 1_555
Dy5 Fe1 3.046874 1_556
Dy5 Fe5 3.046874 1_556
Fe0 Fe12 2.538533 1_454
Fe0 Fe11 2.538533 1_544
Fe0 Fe13 2.538533 1_445
Fe0 Fe14 2.538533 1_444
Fe0 Fe10 2.538533 1_555
Fe0 Fe7 2.538533 1_455
Fe0 Fe9 2.538533 1_554
Fe0 Fe8 2.538533 1_545
Fe1 Fe16 2.464315 1_555
Fe1 Fe17 2.464315 1_555
Fe1 Fe20 2.464315 1_544
Fe1 Fe21 2.464315 1_544
Fe1 Fe7 2.629138 1_555
Fe1 Fe14 2.629138 1_544
Fe1 Fe10 2.629138 1_555
Fe1 Fe11 2.629138 1_544
Fe2 Fe22 2.464318 1_545
Fe2 Fe20 2.464322 1_545
Fe2 Fe7 2.629138 1_555
Fe2 Fe9 2.629138 1_555
Fe3 Fe7 2.629138 1_555
Fe3 Fe8 2.629138 1_555
Fe4 Fe8 2.629138 1_555
Fe4 Fe9 2.629138 1_555
Fe5 Fe8 2.629138 1_555
Fe6 Fe9 2.629138 1_555
Fe10 Fe16 2.604072 1_555
Fe10 Fe17 2.604072 1_555
Fe10 Fe15 2.604072 1_555
Fe10 Fe6 2.629138 1_555
Fe10 Fe5 2.629138 1_555
Fe10 Fe12 2.931245 1_454
Fe10 Fe11 2.931245 1_544
Fe10 Fe13 2.931245 1_445
Fe11 Fe22 2.604075 1_555
Fe11 Fe20 2.604079 1_555
Fe11 Fe21 2.604079 1_555
Fe11 Fe2 2.629138 1_565
Fe11 Fe3 2.629138 1_556
Fe11 Fe9 2.931245 1_565
Fe11 Fe8 2.931245 1_556
Fe12 Fe22 2.604075 1_555
Fe12 Fe19 2.604079 1_555
Fe12 Fe21 2.604079 1_555
Fe12 Fe4 2.629138 1_655
Fe12 Fe3 2.629138 1_556
Fe12 Fe5 2.629138 1_656
Fe12 Fe9 2.931245 1_655
Fe12 Fe7 2.931245 1_556
Fe13 Fe22 2.604075 1_555
Fe13 Fe20 2.604079 1_555
Fe13 Fe19 2.604079 1_555
Fe13 Fe4 2.629138 1_655
Fe13 Fe2 2.629138 1_565
Fe13 Fe6 2.629138 1_665
Fe13 Fe7 2.931245 1_565
Fe13 Fe8 2.931245 1_655
Fe14 Fe20 2.604072 1_555
Fe14 Fe19 2.604072 1_555
Fe14 Fe21 2.604072 1_555
Fe14 Fe6 2.629138 1_665
Fe14 Fe5 2.629138 1_656
Fe14 Fe9 2.931245 1_665
Fe14 Fe7 2.931245 1_566
Fe14 Fe8 2.931245 1_656
Fe15 Fe6 2.464315 1_555
Fe15 Fe5 2.464315 1_555
Fe15 Fe4 2.464322 1_555
Fe15 Fe18 2.524469 1_555
Fe15 Fe16 2.524469 1_555
Fe15 Fe17 2.524469 1_555
Fe15 Fe8 2.604079 1_555
Fe15 Fe9 2.604079 1_555
Fe16 Fe6 2.464315 1_555
Fe16 Fe2 2.464322 1_555
Fe16 Fe18 2.524469 1_555
Fe16 Fe17 2.524469 1_555
Fe16 Fe7 2.604079 1_555
Fe16 Fe9 2.604079 1_555
Fe17 Fe5 2.464315 1_555
Fe17 Fe3 2.464322 1_555
Fe17 Fe18 2.524469 1_555
Fe17 Fe7 2.604079 1_555
Fe17 Fe8 2.604079 1_555
Fe18 Fe4 2.464318 1_555
Fe18 Fe2 2.464318 1_555
Fe18 Fe3 2.464318 1_555
Fe18 Fe8 2.604075 1_555
Fe18 Fe9 2.604075 1_555
Fe18 Fe7 2.604075 1_555
Fe19 Fe5 2.464315 1_656
Fe19 Fe6 2.464315 1_665
Fe19 Fe4 2.464322 1_655
Fe19 Fe21 2.524469 1_555
Fe19 Fe22 2.524469 1_555
Fe19 Fe20 2.524469 1_555
Fe20 Fe6 2.464315 1_665
Fe20 Fe21 2.524469 1_555
Fe20 Fe22 2.524469 1_555
Fe21 Fe5 2.464315 1_656
Fe21 Fe3 2.464322 1_556
Fe21 Fe22 2.524469 1_555
Fe22 Fe3 2.464318 1_556
Fe22 Fe4 2.464318 1_655
