# generated using pymatgen
data_K2AsAuBr6
_symmetry_space_group_name_H-M   'P 1'
_cell_length_a   7.72733503
_cell_length_b   7.72733503
_cell_length_c   7.72733503
_cell_angle_alpha   60.00000000
_cell_angle_beta   60.00000000
_cell_angle_gamma   60.00000000
_symmetry_Int_Tables_number   1
_chemical_formula_structural   K2AsAuBr6
_chemical_formula_sum   'K2 As1 Au1 Br6'
_cell_volume   326.26781049
_cell_formula_units_Z   1
loop_
 _symmetry_equiv_pos_site_id
 _symmetry_equiv_pos_as_xyz
  1  'x, y, z'
loop_
 _atom_site_type_symbol
 _atom_site_label
 _atom_site_symmetry_multiplicity
 _atom_site_fract_x
 _atom_site_fract_y
 _atom_site_fract_z
 _atom_site_occupancy
  K  K0  1  0.75000000  0.75000000  0.75000000  1
  K  K1  1  0.25000000  0.25000000  0.25000000  1
  As  As0  1  0.00000000  0.00000000  0.00000000  1
  Au  Au0  1  0.50000000  0.50000000  0.50000000  1
  Br  Br0  1  0.75467300  0.24532700  0.24532700  1
  Br  Br1  1  0.24532700  0.24532700  0.75467300  1
  Br  Br2  1  0.24532700  0.75467300  0.75467300  1
  Br  Br3  1  0.24532700  0.75467300  0.24532700  1
  Br  Br4  1  0.75467300  0.24532700  0.75467300  1
  Br  Br5  1  0.75467300  0.75467300  0.24532700  1
loop_
_geom_bond_atom_site_label_1
_geom_bond_atom_site_label_2
_geom_bond_distance
_geom_bond_site_symmetry_2
As0 Br0 2.680958 1_455
As0 Br5 2.680958 1_445
As0 Br3 2.680958 1_545
As0 Br2 2.680958 1_544
As0 Br4 2.680958 1_454
As0 Br1 2.680958 1_554
Au0 Br3 2.783093 1_555
Au0 Br0 2.783093 1_555
Au0 Br1 2.783093 1_555
Au0 Br4 2.783093 1_555
Au0 Br5 2.783093 1_555
Au0 Br2 2.783093 1_555
Br0 K0 3.864005 1_554
Br0 K1 3.864005 1_555
Br0 K0 3.864005 1_545
Br0 K1 3.864005 1_655
Br1 K1 3.864005 1_555
Br1 K1 3.864005 1_556
Br1 K0 3.864005 1_545
Br1 K0 3.864005 1_455
Br2 K0 3.864005 1_455
Br2 K0 3.864005 1_555
Br2 K1 3.864005 1_556
Br2 K1 3.864005 1_565
Br3 K0 3.864005 1_554
Br3 K0 3.864005 1_455
Br3 K1 3.864005 1_555
Br3 K1 3.864005 1_565
Br4 K0 3.864005 1_555
Br4 K0 3.864005 1_545
Br4 K1 3.864005 1_556
Br4 K1 3.864005 1_655
Br5 K1 3.864005 1_655
Br5 K0 3.864005 1_554
Br5 K1 3.864005 1_565
Br5 K0 3.864005 1_555
