# generated using pymatgen
data_Rb2Th7Se15
_symmetry_space_group_name_H-M   'P 1'
_cell_length_a   7.96062300
_cell_length_b   15.47572000
_cell_length_c   22.02638252
_cell_angle_alpha   89.51518659
_cell_angle_beta   90.00000000
_cell_angle_gamma   90.00000000
_symmetry_Int_Tables_number   1
_chemical_formula_structural   Rb2Th7Se15
_chemical_formula_sum   'Rb8 Th28 Se60'
_cell_volume   2713.47328458
_cell_formula_units_Z   4
loop_
 _symmetry_equiv_pos_site_id
 _symmetry_equiv_pos_as_xyz
  1  'x, y, z'
loop_
 _atom_site_type_symbol
 _atom_site_label
 _atom_site_symmetry_multiplicity
 _atom_site_fract_x
 _atom_site_fract_y
 _atom_site_fract_z
 _atom_site_occupancy
  Rb  Rb0  1  0.05237300  0.95525500  0.26752900  1
  Rb  Rb1  1  0.55237300  0.04474500  0.23247100  1
  Rb  Rb2  1  0.94762700  0.04474500  0.73247100  1
  Rb  Rb3  1  0.44762700  0.95525500  0.76752900  1
  Rb  Rb4  1  0.45317300  0.60762500  0.44128500  1
  Rb  Rb5  1  0.95317300  0.39237500  0.05871500  1
  Rb  Rb6  1  0.54682700  0.39237500  0.55871500  1
  Rb  Rb7  1  0.04682700  0.60762500  0.94128500  1
  Th  Th0  1  0.41888600  0.90503400  0.42277500  1
  Th  Th1  1  0.91888600  0.09496600  0.07722500  1
  Th  Th2  1  0.58111400  0.09496600  0.57722500  1
  Th  Th3  1  0.08111400  0.90503400  0.92277500  1
  Th  Th4  1  0.52318200  0.88137900  0.06080300  1
  Th  Th5  1  0.02318200  0.11862100  0.43919700  1
  Th  Th6  1  0.47681800  0.11862100  0.93919700  1
  Th  Th7  1  0.97681800  0.88137900  0.56080300  1
  Th  Th8  1  0.02554900  0.78804400  0.10502100  1
  Th  Th9  1  0.52554900  0.21195600  0.39497900  1
  Th  Th10  1  0.97445100  0.21195600  0.89497900  1
  Th  Th11  1  0.47445100  0.78804400  0.60502100  1
  Th  Th12  1  0.57044600  0.74927200  0.24434900  1
  Th  Th13  1  0.07044600  0.25072800  0.25565100  1
  Th  Th14  1  0.42955400  0.25072800  0.75565100  1
  Th  Th15  1  0.92955400  0.74927200  0.74434900  1
  Th  Th16  1  0.42590700  0.57932300  0.08580600  1
  Th  Th17  1  0.92590700  0.42067700  0.41419400  1
  Th  Th18  1  0.57409300  0.42067700  0.91419400  1
  Th  Th19  1  0.07409300  0.57932300  0.58580600  1
  Th  Th20  1  0.47940600  0.45384900  0.27390500  1
  Th  Th21  1  0.97940600  0.54615100  0.22609500  1
  Th  Th22  1  0.52059400  0.54615100  0.72609500  1
  Th  Th23  1  0.02059400  0.45384900  0.77390500  1
  Th  Th24  1  0.44636400  0.25906300  0.11314300  1
  Th  Th25  1  0.94636400  0.74093700  0.38685700  1
  Th  Th26  1  0.55363600  0.74093700  0.88685700  1
  Th  Th27  1  0.05363600  0.25906300  0.61314300  1
  Se  Se0  1  0.16286900  0.95294100  0.04712600  1
  Se  Se1  1  0.66286900  0.04705900  0.45287400  1
  Se  Se2  1  0.83713100  0.04705900  0.95287400  1
  Se  Se3  1  0.33713100  0.95294100  0.54712600  1
  Se  Se4  1  0.80834300  0.93231200  0.14292500  1
  Se  Se5  1  0.30834300  0.06768800  0.35707500  1
  Se  Se6  1  0.19165700  0.06768800  0.85707500  1
  Se  Se7  1  0.69165700  0.93231200  0.64292500  1
  Se  Se8  1  0.03788100  0.92259100  0.42898000  1
  Se  Se9  1  0.53788100  0.07740900  0.07102000  1
  Se  Se10  1  0.96211900  0.07740900  0.57102000  1
  Se  Se11  1  0.46211900  0.92259100  0.92898000  1
  Se  Se12  1  0.69796700  0.86912500  0.33343900  1
  Se  Se13  1  0.19796700  0.13087500  0.16656100  1
  Se  Se14  1  0.30203300  0.13087500  0.66656100  1
  Se  Se15  1  0.80203300  0.86912500  0.83343900  1
  Se  Se16  1  0.33161100  0.85693500  0.17386400  1
  Se  Se17  1  0.83161100  0.14306500  0.32613600  1
  Se  Se18  1  0.66838900  0.14306500  0.82613600  1
  Se  Se19  1  0.16838900  0.85693500  0.67386400  1
  Se  Se20  1  0.29074000  0.77063400  0.34291000  1
  Se  Se21  1  0.79074000  0.22936600  0.15709000  1
  Se  Se22  1  0.70926000  0.22936600  0.65709000  1
  Se  Se23  1  0.20926000  0.77063400  0.84291000  1
  Se  Se24  1  0.31363800  0.74026600  0.01086600  1
  Se  Se25  1  0.81363800  0.25973400  0.48913400  1
  Se  Se26  1  0.68636200  0.25973400  0.98913400  1
  Se  Se27  1  0.18636200  0.74026600  0.51086600  1
  Se  Se28  1  0.66631400  0.71606200  0.11785700  1
  Se  Se29  1  0.16631400  0.28393800  0.38214300  1
  Se  Se30  1  0.33368600  0.28393800  0.88214300  1
  Se  Se31  1  0.83368600  0.71606200  0.61785700  1
  Se  Se32  1  0.33723900  0.61307600  0.21470900  1
  Se  Se33  1  0.83723900  0.38692400  0.28529100  1
  Se  Se34  1  0.66276100  0.38692400  0.78529100  1
  Se  Se35  1  0.16276100  0.61307600  0.71470900  1
  Se  Se36  1  0.05406900  0.59862100  0.09656700  1
  Se  Se37  1  0.55406900  0.40137900  0.40343300  1
  Se  Se38  1  0.94593100  0.40137900  0.90343300  1
  Se  Se39  1  0.44593100  0.59862100  0.59656700  1
  Se  Se40  1  0.16539500  0.52745700  0.34180600  1
  Se  Se41  1  0.66539500  0.47254300  0.15819400  1
  Se  Se42  1  0.83460500  0.47254300  0.65819400  1
  Se  Se43  1  0.33460500  0.52745700  0.84180600  1
  Se  Se44  1  0.37537000  0.41105900  0.02984200  1
  Se  Se45  1  0.87537000  0.58894100  0.47015800  1
  Se  Se46  1  0.62463000  0.58894100  0.97015800  1
  Se  Se47  1  0.12463000  0.41105900  0.52984200  1
  Se  Se48  1  0.20535100  0.39726500  0.18180400  1
  Se  Se49  1  0.70535100  0.60273500  0.31819600  1
  Se  Se50  1  0.79464900  0.60273500  0.81819600  1
  Se  Se51  1  0.29464900  0.39726500  0.68180400  1
  Se  Se52  1  0.45300000  0.26254700  0.26104600  1
  Se  Se53  1  0.95300000  0.73745300  0.23895400  1
  Se  Se54  1  0.54700000  0.73745300  0.73895400  1
  Se  Se55  1  0.04700000  0.26254700  0.76104600  1
  Se  Se56  1  0.17654500  0.19972800  0.01227100  1
  Se  Se57  1  0.67654500  0.80027200  0.48772900  1
  Se  Se58  1  0.82345500  0.80027200  0.98772900  1
  Se  Se59  1  0.32345500  0.19972800  0.51227100  1
loop_
_geom_bond_atom_site_label_1
_geom_bond_atom_site_label_2
_geom_bond_distance
_geom_bond_site_symmetry_2
Rb0 Se5 3.335868 1_565
Rb0 Se4 3.383647 1_455
Rb0 Se16 3.400885 1_555
Rb0 Se12 3.436748 1_455
Rb0 Se53 3.524071 1_455
Rb0 Se8 3.589546 1_555
Rb0 Se17 3.642265 1_465
Rb0 Se13 3.684253 1_565
Rb0 Se20 3.800067 1_555
Rb1 Se4 3.335868 1_545
Rb1 Se5 3.383647 1_555
Rb1 Se17 3.400885 1_555
Rb1 Se13 3.436748 1_555
Rb1 Se52 3.524071 1_555
Rb1 Se9 3.589546 1_555
Rb1 Se16 3.642265 1_545
Rb1 Se12 3.684253 1_545
Rb1 Se21 3.800067 1_555
Rb2 Se7 3.335868 1_545
Rb2 Se6 3.383647 1_655
Rb2 Se18 3.400885 1_555
Rb2 Se14 3.436748 1_655
Rb2 Se55 3.524071 1_655
Rb2 Se10 3.589546 1_555
Rb2 Se19 3.642265 1_645
Rb2 Se15 3.684253 1_545
Rb2 Se22 3.800067 1_555
Rb3 Se6 3.335868 1_565
Rb3 Se7 3.383647 1_555
Rb3 Se19 3.400885 1_555
Rb3 Se15 3.436748 1_555
Rb3 Se54 3.524071 1_555
Rb3 Se11 3.589546 1_555
Rb3 Se18 3.642265 1_565
Rb3 Se14 3.684253 1_565
Rb3 Se23 3.800067 1_555
Rb4 Se27 3.335730 1_555
Rb4 Se49 3.374888 1_555
Rb4 Se37 3.401897 1_555
Rb4 Se40 3.410955 1_555
Rb4 Se39 3.422445 1_555
Rb4 Se45 3.432338 1_555
Rb4 Se20 3.555089 1_555
Rb4 Se57 3.626087 1_555
Rb5 Se26 3.335730 1_554
Rb5 Se48 3.374888 1_655
Rb5 Se36 3.401897 1_655
Rb5 Se41 3.410955 1_555
Rb5 Se38 3.422445 1_554
Rb5 Se44 3.432338 1_655
Rb5 Se21 3.555089 1_555
Rb5 Se56 3.626087 1_655
Rb6 Se25 3.335730 1_555
Rb6 Se51 3.374888 1_555
Rb6 Se39 3.401897 1_555
Rb6 Se42 3.410955 1_555
Rb6 Se37 3.422445 1_555
Rb6 Se47 3.432338 1_555
Rb6 Se22 3.555089 1_555
Rb6 Se59 3.626087 1_555
Rb7 Se24 3.335730 1_556
Rb7 Se50 3.374888 1_455
Rb7 Se38 3.401897 1_455
Rb7 Se43 3.410955 1_555
Rb7 Se36 3.422445 1_556
Rb7 Se46 3.432338 1_455
Rb7 Se23 3.555089 1_555
Rb7 Se58 3.626087 1_455
Se0 Th3 2.917145 1_554
Se0 Th1 3.011227 1_465
Se0 Th8 3.046028 1_555
Se0 Th4 3.088502 1_555
Se1 Th2 2.917145 1_555
Se1 Th0 3.011227 1_545
Se1 Th9 3.046028 1_555
Se1 Th5 3.088502 1_655
Se2 Th1 2.917145 1_556
Se2 Th3 3.011227 1_645
Se2 Th10 3.046028 1_555
Se2 Th6 3.088502 1_555
Se3 Th0 2.917145 1_555
Se3 Th2 3.011227 1_565
Se3 Th11 3.046028 1_555
Se3 Th7 3.088502 1_455
Se4 Th8 2.950099 1_655
Se4 Th4 3.011733 1_555
Se4 Th1 3.023767 1_565
Se5 Th9 2.950099 1_555
Se5 Th5 3.011733 1_555
Se5 Th0 3.023767 1_545
Se6 Th10 2.950099 1_455
Se6 Th6 3.011733 1_555
Se6 Th3 3.023767 1_545
Se7 Th11 2.950099 1_555
Se7 Th7 3.011733 1_555
Se7 Th2 3.023767 1_565
Se8 Th7 3.007079 1_455
Se8 Th5 3.046188 1_565
Se8 Th0 3.048352 1_555
Se8 Th25 3.055935 1_455
Se9 Th6 3.007079 1_554
Se9 Th4 3.046188 1_545
Se9 Th1 3.048352 1_555
Se9 Th24 3.055935 1_555
Se10 Th5 3.007079 1_655
Se10 Th7 3.046188 1_545
Se10 Th2 3.048352 1_555
Se10 Th27 3.055935 1_655
Se11 Th4 3.007079 1_556
Se11 Th6 3.046188 1_565
Se11 Th3 3.048352 1_555
Se11 Th26 3.055935 1_555
Se12 Th12 2.895373 1_555
Se12 Th0 3.022438 1_555
Se12 Th25 3.031577 1_555
Se13 Th13 2.895373 1_555
Se13 Th1 3.022438 1_455
Se13 Th24 3.031577 1_555
Se14 Th14 2.895373 1_555
Se14 Th2 3.022438 1_555
Se14 Th27 3.031577 1_555
Se15 Th15 2.895373 1_555
Se15 Th3 3.022438 1_655
Se15 Th26 3.031577 1_555
Se16 Th4 2.941866 1_555
Se16 Th12 2.959310 1_555
Se16 Th8 3.065880 1_555
Se17 Th5 2.941866 1_655
Se17 Th13 2.959310 1_655
Se17 Th9 3.065880 1_555
Se18 Th6 2.941866 1_555
Se18 Th14 2.959310 1_555
Se18 Th10 3.065880 1_555
Se19 Th7 2.941866 1_455
Se19 Th15 2.959310 1_455
Se19 Th11 3.065880 1_555
Se20 Th0 2.919464 1_555
Se20 Th25 2.942148 1_455
Se20 Th12 3.129269 1_555
Se21 Th1 2.919464 1_555
Se21 Th24 2.942148 1_555
Se21 Th13 3.129269 1_655
Se22 Th2 2.919464 1_555
Se22 Th27 2.942148 1_655
Se22 Th14 3.129269 1_555
Se23 Th3 2.919464 1_555
Se23 Th26 2.942148 1_555
Se23 Th15 3.129269 1_455
Se24 Th4 2.966842 1_555
Se24 Th16 3.107648 1_555
Se24 Th8 3.183274 1_555
Se24 Th26 3.333271 1_554
Se24 Th3 3.689103 1_554
Se25 Th5 2.966842 1_655
Se25 Th17 3.107648 1_555
Se25 Th9 3.183274 1_555
Se25 Th27 3.333271 1_655
Se25 Th2 3.689103 1_555
Se26 Th6 2.966842 1_555
Se26 Th18 3.107648 1_555
Se26 Th10 3.183274 1_555
Se26 Th24 3.333271 1_556
Se26 Th1 3.689103 1_556
Se27 Th7 2.966842 1_455
Se27 Th19 3.107648 1_555
Se27 Th11 3.183274 1_555
Se27 Th25 3.333271 1_455
Se27 Th0 3.689103 1_555
Se28 Th12 2.938281 1_555
Se28 Th16 2.943516 1_555
Se28 Th4 3.060809 1_555
Se28 Th8 3.081172 1_655
Se29 Th13 2.938281 1_555
Se29 Th17 2.943516 1_455
Se29 Th5 3.060809 1_555
Se29 Th9 3.081172 1_555
Se30 Th14 2.938281 1_555
Se30 Th18 2.943516 1_555
Se30 Th6 3.060809 1_555
Se30 Th10 3.081172 1_455
Se31 Th15 2.938281 1_555
Se31 Th19 2.943516 1_655
Se31 Th7 3.060809 1_555
Se31 Th11 3.081172 1_555
Se32 Th12 2.887653 1_555
Se32 Th16 2.976174 1_555
Se32 Th20 2.999765 1_555
Se32 Th21 3.040653 1_455
Se33 Th13 2.887653 1_655
Se33 Th17 2.976174 1_555
Se33 Th21 2.999765 1_555
Se33 Th20 3.040653 1_555
Se34 Th14 2.887653 1_555
Se34 Th18 2.976174 1_555
Se34 Th22 2.999765 1_555
Se34 Th23 3.040653 1_655
Se35 Th15 2.887653 1_455
Se35 Th19 2.976174 1_555
Se35 Th23 2.999765 1_555
Se35 Th22 3.040653 1_555
Se36 Th8 2.947694 1_555
Se36 Th16 2.984718 1_555
Se36 Th21 3.018812 1_455
Se37 Th9 2.947694 1_555
Se37 Th17 2.984718 1_555
Se37 Th20 3.018812 1_555
Se38 Th10 2.947694 1_555
Se38 Th18 2.984718 1_555
Se38 Th23 3.018812 1_655
Se39 Th11 2.947694 1_555
Se39 Th19 2.984718 1_555
Se39 Th22 3.018812 1_555
Se40 Th21 2.959595 1_455
Se40 Th17 2.977089 1_455
Se40 Th20 3.132402 1_555
Se41 Th20 2.959595 1_555
Se41 Th16 2.977089 1_555
Se41 Th21 3.132402 1_555
Se42 Th23 2.959595 1_655
Se42 Th19 2.977089 1_655
Se42 Th22 3.132402 1_555
Se43 Th22 2.959595 1_555
Se43 Th18 2.977089 1_555
Se43 Th23 3.132402 1_555
Se44 Th16 2.918310 1_555
Se44 Th18 3.001184 1_554
Se44 Th24 3.024235 1_555
Se45 Th17 2.918310 1_555
Se45 Th19 3.001184 1_655
Se45 Th25 3.024235 1_555
Se46 Th18 2.918310 1_555
Se46 Th16 3.001184 1_556
Se46 Th26 3.024235 1_555
Se47 Th19 2.918310 1_555
Se47 Th17 3.001184 1_455
Se47 Th27 3.024235 1_555
Se48 Th13 2.979837 1_555
Se48 Th21 3.087706 1_455
Se48 Th20 3.109967 1_555
Se48 Th24 3.255363 1_555
Se49 Th12 2.979837 1_555
Se49 Th20 3.087706 1_555
Se49 Th21 3.109967 1_555
Se49 Th25 3.255363 1_555
Se50 Th15 2.979837 1_555
Se50 Th23 3.087706 1_655
Se50 Th22 3.109967 1_555
Se50 Th26 3.255363 1_555
Se51 Th14 2.979837 1_555
Se51 Th22 3.087706 1_555
Se51 Th23 3.109967 1_555
Se51 Th27 3.255363 1_555
Se52 Th20 2.983853 1_555
Se52 Th13 3.053230 1_555
Se52 Th9 3.100047 1_555
Se52 Th24 3.259098 1_555
Se53 Th21 2.983853 1_555
Se53 Th12 3.053230 1_555
Se53 Th8 3.100047 1_655
Se53 Th25 3.259098 1_555
Se54 Th22 2.983853 1_555
Se54 Th15 3.053230 1_555
Se54 Th11 3.100047 1_555
Se54 Th26 3.259098 1_555
Se55 Th23 2.983853 1_555
Se55 Th14 3.053230 1_555
Se55 Th10 3.100047 1_455
Se55 Th27 3.259098 1_555
Se56 Th1 2.973765 1_455
Se56 Th10 3.048003 1_454
Se56 Th6 3.148679 1_554
Se56 Th24 3.229226 1_555
Se57 Th0 2.973765 1_555
Se57 Th11 3.048003 1_555
Se57 Th7 3.148679 1_555
Se57 Th25 3.229226 1_555
Se58 Th3 2.973765 1_655
Se58 Th8 3.048003 1_656
Se58 Th4 3.148679 1_556
Se58 Th26 3.229226 1_555
Se59 Th2 2.973765 1_555
Se59 Th9 3.048003 1_555
Se59 Th5 3.148679 1_555
Se59 Th27 3.229226 1_555
