# generated using pymatgen
data_Sr3Tl5
_symmetry_space_group_name_H-M   'P 1'
_cell_length_a   6.88907664
_cell_length_b   6.88907664
_cell_length_c   11.58553200
_cell_angle_alpha   90.00000000
_cell_angle_beta   90.00000000
_cell_angle_gamma   102.83969661
_symmetry_Int_Tables_number   1
_chemical_formula_structural   Sr3Tl5
_chemical_formula_sum   'Sr6 Tl10'
_cell_volume   536.09367123
_cell_formula_units_Z   2
loop_
 _symmetry_equiv_pos_site_id
 _symmetry_equiv_pos_as_xyz
  1  'x, y, z'
loop_
 _atom_site_type_symbol
 _atom_site_label
 _atom_site_symmetry_multiplicity
 _atom_site_fract_x
 _atom_site_fract_y
 _atom_site_fract_z
 _atom_site_occupancy
  Sr  Sr0  1  0.60858600  0.60858600  0.75000000  1
  Sr  Sr1  1  0.39141400  0.39141400  0.25000000  1
  Sr  Sr2  1  0.79321600  0.20678400  0.00000000  1
  Sr  Sr3  1  0.79321600  0.20678400  0.50000000  1
  Sr  Sr4  1  0.20678400  0.79321600  0.00000000  1
  Sr  Sr5  1  0.20678400  0.79321600  0.50000000  1
  Tl  Tl0  1  0.01368100  0.01368100  0.25000000  1
  Tl  Tl1  1  0.98631900  0.98631900  0.75000000  1
  Tl  Tl2  1  0.91747100  0.52128700  0.25000000  1
  Tl  Tl3  1  0.47871300  0.08252900  0.75000000  1
  Tl  Tl4  1  0.08252900  0.47871300  0.75000000  1
  Tl  Tl5  1  0.52128700  0.91747100  0.25000000  1
  Tl  Tl6  1  0.69301100  0.69301100  0.04207600  1
  Tl  Tl7  1  0.30698900  0.30698900  0.95792400  1
  Tl  Tl8  1  0.69301100  0.69301100  0.45792400  1
  Tl  Tl9  1  0.30698900  0.30698900  0.54207600  1
loop_
_geom_bond_atom_site_label_1
_geom_bond_atom_site_label_2
_geom_bond_distance
_geom_bond_site_symmetry_2
Sr0 Tl1 3.245549 1_555
Sr0 Tl8 3.460734 1_555
Sr0 Tl6 3.460734 1_556
Sr0 Tl4 3.534560 1_555
Sr0 Tl3 3.534560 1_555
Sr0 Tl7 3.538089 1_555
Sr0 Tl9 3.538089 1_555
Sr0 Tl3 3.572010 1_565
Sr0 Tl4 3.572010 1_655
Sr1 Tl0 3.245549 1_555
Sr1 Tl9 3.460734 1_555
Sr1 Tl7 3.460734 1_554
Sr1 Tl5 3.534560 1_555
Sr1 Tl2 3.534560 1_555
Sr1 Tl6 3.538089 1_555
Sr1 Tl8 3.538089 1_555
Sr1 Tl5 3.572010 1_545
Sr1 Tl2 3.572010 1_455
Sr2 Tl6 3.486509 1_545
Sr2 Tl7 3.486509 1_654
Sr2 Tl7 3.600288 1_554
Sr2 Tl6 3.600288 1_555
Sr2 Tl3 3.604412 1_554
Sr2 Tl2 3.604412 1_555
Sr2 Tl1 3.655610 1_544
Sr2 Tl0 3.655610 1_655
Sr2 Tl4 3.769804 1_654
Sr2 Tl5 3.769804 1_545
Sr3 Tl8 3.486509 1_545
Sr3 Tl9 3.486509 1_655
Sr3 Tl8 3.600288 1_555
Sr3 Tl9 3.600288 1_555
Sr3 Tl2 3.604412 1_555
Sr3 Tl3 3.604412 1_555
Sr3 Tl1 3.655610 1_545
Sr3 Tl0 3.655610 1_655
Sr3 Tl5 3.769804 1_545
Sr3 Tl4 3.769804 1_655
Sr4 Tl7 3.486509 1_564
Sr4 Tl6 3.486509 1_455
Sr4 Tl7 3.600288 1_554
Sr4 Tl6 3.600288 1_555
Sr4 Tl5 3.604412 1_555
Sr4 Tl4 3.604412 1_554
Sr4 Tl1 3.655610 1_454
Sr4 Tl0 3.655610 1_565
Sr4 Tl3 3.769804 1_564
Sr4 Tl2 3.769804 1_455
Sr5 Tl9 3.486509 1_565
Sr5 Tl8 3.486509 1_455
Sr5 Tl8 3.600288 1_555
Sr5 Tl9 3.600288 1_555
Sr5 Tl5 3.604412 1_555
Sr5 Tl4 3.604412 1_555
Sr5 Tl1 3.655610 1_455
Sr5 Tl0 3.655610 1_565
Sr5 Tl3 3.769804 1_565
Sr5 Tl2 3.769804 1_455
Tl0 Tl5 3.308574 1_445
Tl0 Tl2 3.308574 1_445
Tl1 Tl3 3.308574 1_665
Tl1 Tl4 3.308574 1_665
Tl2 Tl8 3.225917 1_555
Tl2 Tl6 3.225917 1_555
Tl3 Tl7 3.225917 1_555
Tl3 Tl9 3.225917 1_555
Tl4 Tl7 3.225917 1_555
Tl4 Tl9 3.225917 1_555
Tl5 Tl8 3.225917 1_555
Tl5 Tl6 3.225917 1_555
Tl6 Tl7 3.457091 1_554
Tl8 Tl9 3.457091 1_555
