# generated using pymatgen
data_NaCa3IrO6
_symmetry_space_group_name_H-M   'P 1'
_cell_length_a   6.56652517
_cell_length_b   6.56652517
_cell_length_c   6.56652534
_cell_angle_alpha   90.50435065
_cell_angle_beta   90.50435065
_cell_angle_gamma   90.50435919
_symmetry_Int_Tables_number   1
_chemical_formula_structural   NaCa3IrO6
_chemical_formula_sum   'Na2 Ca6 Ir2 O12'
_cell_volume   283.11056190
_cell_formula_units_Z   2
loop_
 _symmetry_equiv_pos_site_id
 _symmetry_equiv_pos_as_xyz
  1  'x, y, z'
loop_
 _atom_site_type_symbol
 _atom_site_label
 _atom_site_symmetry_multiplicity
 _atom_site_fract_x
 _atom_site_fract_y
 _atom_site_fract_z
 _atom_site_occupancy
  Na  Na0  1  0.25000000  0.25000000  0.25000000  1
  Na  Na1  1  0.75000000  0.75000000  0.75000000  1
  Ca  Ca0  1  0.75000000  0.10452800  0.39547200  1
  Ca  Ca1  1  0.39547200  0.75000000  0.10452800  1
  Ca  Ca2  1  0.10452800  0.39547200  0.75000000  1
  Ca  Ca3  1  0.25000000  0.89547200  0.60452800  1
  Ca  Ca4  1  0.60452800  0.25000000  0.89547200  1
  Ca  Ca5  1  0.89547200  0.60452800  0.25000000  1
  Ir  Ir0  1  0.50000000  0.50000000  0.50000000  1
  Ir  Ir1  1  0.00000000  0.00000000  0.00000000  1
  O  O0  1  0.43211900  0.20852500  0.55813400  1
  O  O1  1  0.55813400  0.43211900  0.20852500  1
  O  O2  1  0.20852500  0.55813400  0.43211900  1
  O  O3  1  0.06788100  0.94186600  0.29147500  1
  O  O4  1  0.29147500  0.06788100  0.94186600  1
  O  O5  1  0.94186600  0.29147500  0.06788100  1
  O  O6  1  0.56788100  0.79147500  0.44186600  1
  O  O7  1  0.44186600  0.56788100  0.79147500  1
  O  O8  1  0.79147500  0.44186600  0.56788100  1
  O  O9  1  0.93211900  0.05813400  0.70852500  1
  O  O10  1  0.05813400  0.70852500  0.93211900  1
  O  O11  1  0.70852500  0.93211900  0.05813400  1
loop_
_geom_bond_atom_site_label_1
_geom_bond_atom_site_label_2
_geom_bond_distance
_geom_bond_site_symmetry_2
Na0 O1 2.360335 1_555
Na0 O3 2.360335 1_545
Na0 O2 2.360336 1_555
Na0 O5 2.360336 1_455
Na0 O0 2.360336 1_555
Na0 O4 2.360336 1_554
Na1 O9 2.360335 1_565
Na1 O7 2.360335 1_555
Na1 O10 2.360336 1_655
Na1 O8 2.360336 1_555
Na1 O11 2.360336 1_556
Na1 O6 2.360336 1_555
Ca0 O6 2.392258 1_545
Ca0 O9 2.392259 1_555
Ca0 O0 2.452728 1_555
Ca0 O3 2.452728 1_645
Ca0 O8 2.490487 1_555
Ca0 O11 2.490487 1_545
Ca0 O5 2.790818 1_555
Ca0 O1 2.790818 1_555
Ca1 O11 2.392258 1_555
Ca1 O7 2.392259 1_554
Ca1 O4 2.452728 1_564
Ca1 O1 2.452728 1_555
Ca1 O10 2.490487 1_554
Ca1 O6 2.490487 1_555
Ca1 O2 2.790818 1_555
Ca1 O3 2.790818 1_555
Ca2 O10 2.392259 1_555
Ca2 O8 2.392259 1_455
Ca2 O5 2.452728 1_456
Ca2 O2 2.452728 1_555
Ca2 O7 2.490487 1_555
Ca2 O9 2.490487 1_455
Ca2 O0 2.790818 1_555
Ca2 O4 2.790818 1_555
Ca3 O0 2.392258 1_565
Ca3 O3 2.392259 1_555
Ca3 O6 2.452728 1_555
Ca3 O9 2.452728 1_465
Ca3 O2 2.490487 1_555
Ca3 O4 2.490487 1_565
Ca3 O10 2.790818 1_555
Ca3 O7 2.790818 1_555
Ca4 O4 2.392258 1_555
Ca4 O1 2.392259 1_556
Ca4 O11 2.452728 1_546
Ca4 O7 2.452728 1_555
Ca4 O5 2.490487 1_556
Ca4 O0 2.490487 1_555
Ca4 O8 2.790818 1_555
Ca4 O9 2.790818 1_555
Ca5 O5 2.392259 1_555
Ca5 O2 2.392259 1_655
Ca5 O8 2.452728 1_555
Ca5 O10 2.452728 1_654
Ca5 O1 2.490487 1_555
Ca5 O3 2.490487 1_655
Ca5 O11 2.790818 1_555
Ca5 O6 2.790818 1_555
Ir0 O6 2.002139 1_555
Ir0 O0 2.002139 1_555
Ir0 O8 2.002139 1_555
Ir0 O2 2.002139 1_555
Ir0 O7 2.002139 1_555
Ir0 O1 2.002139 1_555
Ir1 O4 2.002139 1_554
Ir1 O11 2.002139 1_445
Ir1 O5 2.002139 1_455
Ir1 O10 2.002139 1_544
Ir1 O3 2.002139 1_545
Ir1 O9 2.002139 1_454
