# generated using pymatgen
data_KCo
_symmetry_space_group_name_H-M   'P 1'
_cell_length_a   22.35187400
_cell_length_b   11.71186200
_cell_length_c   7.04188000
_cell_angle_alpha   90.00000000
_cell_angle_beta   90.00000000
_cell_angle_gamma   90.00000000
_symmetry_Int_Tables_number   1
_chemical_formula_structural   KCo
_chemical_formula_sum   'K32 Co32'
_cell_volume   1843.43787893
_cell_formula_units_Z   32
loop_
 _symmetry_equiv_pos_site_id
 _symmetry_equiv_pos_as_xyz
  1  'x, y, z'
loop_
 _atom_site_type_symbol
 _atom_site_label
 _atom_site_symmetry_multiplicity
 _atom_site_fract_x
 _atom_site_fract_y
 _atom_site_fract_z
 _atom_site_occupancy
  K  K0_0  1  0.20193400  0.28117450  0.12500000  1
  K  K0_1  1  0.20193400  0.28117450  0.62500000  1
  K  K0_2  1  0.20193400  0.78117450  0.12500000  1
  K  K0_3  1  0.20193400  0.78117450  0.62500000  1
  K  K0_4  1  0.70193400  0.28117450  0.12500000  1
  K  K0_5  1  0.70193400  0.28117450  0.62500000  1
  K  K0_6  1  0.70193400  0.78117450  0.12500000  1
  K  K0_7  1  0.70193400  0.78117450  0.62500000  1
  K  K1_0  1  0.04806600  0.21882550  0.37500000  1
  K  K1_1  1  0.04806600  0.21882550  0.87500000  1
  K  K1_2  1  0.04806600  0.71882550  0.37500000  1
  K  K1_3  1  0.04806600  0.71882550  0.87500000  1
  K  K1_4  1  0.54806600  0.21882550  0.37500000  1
  K  K1_5  1  0.54806600  0.21882550  0.87500000  1
  K  K1_6  1  0.54806600  0.71882550  0.37500000  1
  K  K1_7  1  0.54806600  0.71882550  0.87500000  1
  K  K2_0  1  0.45193400  0.46882550  0.37500000  1
  K  K2_1  1  0.45193400  0.46882550  0.87500000  1
  K  K2_2  1  0.45193400  0.96882550  0.37500000  1
  K  K2_3  1  0.45193400  0.96882550  0.87500000  1
  K  K2_4  1  0.95193400  0.46882550  0.37500000  1
  K  K2_5  1  0.95193400  0.46882550  0.87500000  1
  K  K2_6  1  0.95193400  0.96882550  0.37500000  1
  K  K2_7  1  0.95193400  0.96882550  0.87500000  1
  K  K3_0  1  0.29806600  0.03117450  0.12500000  1
  K  K3_1  1  0.29806600  0.03117450  0.62500000  1
  K  K3_2  1  0.29806600  0.53117450  0.12500000  1
  K  K3_3  1  0.29806600  0.53117450  0.62500000  1
  K  K3_4  1  0.79806600  0.03117450  0.12500000  1
  K  K3_5  1  0.79806600  0.03117450  0.62500000  1
  K  K3_6  1  0.79806600  0.53117450  0.12500000  1
  K  K3_7  1  0.79806600  0.53117450  0.62500000  1
  Co  Co0_0  1  0.40186550  0.23001750  0.12500000  1
  Co  Co0_1  1  0.40186550  0.23001750  0.62500000  1
  Co  Co0_2  1  0.40186550  0.73001750  0.12500000  1
  Co  Co0_3  1  0.40186550  0.73001750  0.62500000  1
  Co  Co0_4  1  0.90186550  0.23001750  0.12500000  1
  Co  Co0_5  1  0.90186550  0.23001750  0.62500000  1
  Co  Co0_6  1  0.90186550  0.73001750  0.12500000  1
  Co  Co0_7  1  0.90186550  0.73001750  0.62500000  1
  Co  Co1_0  1  0.34813450  0.26998250  0.37500000  1
  Co  Co1_1  1  0.34813450  0.26998250  0.87500000  1
  Co  Co1_2  1  0.34813450  0.76998250  0.37500000  1
  Co  Co1_3  1  0.34813450  0.76998250  0.87500000  1
  Co  Co1_4  1  0.84813450  0.26998250  0.37500000  1
  Co  Co1_5  1  0.84813450  0.26998250  0.87500000  1
  Co  Co1_6  1  0.84813450  0.76998250  0.37500000  1
  Co  Co1_7  1  0.84813450  0.76998250  0.87500000  1
  Co  Co2_0  1  0.15186550  0.01998250  0.37500000  1
  Co  Co2_1  1  0.15186550  0.01998250  0.87500000  1
  Co  Co2_2  1  0.15186550  0.51998250  0.37500000  1
  Co  Co2_3  1  0.15186550  0.51998250  0.87500000  1
  Co  Co2_4  1  0.65186550  0.01998250  0.37500000  1
  Co  Co2_5  1  0.65186550  0.01998250  0.87500000  1
  Co  Co2_6  1  0.65186550  0.51998250  0.37500000  1
  Co  Co2_7  1  0.65186550  0.51998250  0.87500000  1
  Co  Co3_0  1  0.09813450  0.48001750  0.12500000  1
  Co  Co3_1  1  0.09813450  0.48001750  0.62500000  1
  Co  Co3_2  1  0.09813450  0.98001750  0.12500000  1
  Co  Co3_3  1  0.09813450  0.98001750  0.62500000  1
  Co  Co3_4  1  0.59813450  0.48001750  0.12500000  1
  Co  Co3_5  1  0.59813450  0.48001750  0.62500000  1
  Co  Co3_6  1  0.59813450  0.98001750  0.12500000  1
  Co  Co3_7  1  0.59813450  0.98001750  0.62500000  1
loop_
_geom_bond_atom_site_label_1
_geom_bond_atom_site_label_2
_geom_bond_distance
_geom_bond_site_symmetry_2
K0_0 K0_1 3.520940 1_554
K0_0 K0_1 3.520940 1_555
K0_0 K3_2 3.631807 1_555
K0_0 K3_0 3.631807 1_555
K0_0 K1_1 3.932027 1_554
K0_0 K1_0 3.932027 1_555
K0_1 K3_3 3.631807 1_555
K0_1 K3_1 3.631807 1_555
K0_1 K1_1 3.932027 1_555
K0_1 K1_0 3.932027 1_555
K0_2 K0_3 3.520940 1_554
K0_2 K0_3 3.520940 1_555
K0_2 K3_0 3.631807 1_565
K0_2 K3_2 3.631807 1_555
K0_2 K1_3 3.932027 1_554
K0_2 K1_2 3.932027 1_555
K0_3 K3_1 3.631807 1_565
K0_3 K3_3 3.631807 1_555
K0_3 K1_3 3.932027 1_555
K0_3 K1_2 3.932027 1_555
K0_4 K0_5 3.520940 1_554
K0_4 K0_5 3.520940 1_555
K0_4 K3_6 3.631807 1_555
K0_4 K3_4 3.631807 1_555
K0_4 K1_5 3.932027 1_554
K0_4 K1_4 3.932027 1_555
K0_5 K3_7 3.631807 1_555
K0_5 K3_5 3.631807 1_555
K0_5 K1_5 3.932027 1_555
K0_5 K1_4 3.932027 1_555
K0_6 K0_7 3.520940 1_554
K0_6 K0_7 3.520940 1_555
K0_6 K3_4 3.631807 1_565
K0_6 K3_6 3.631807 1_555
K0_6 K1_7 3.932027 1_554
K0_6 K1_6 3.932027 1_555
K0_7 K3_5 3.631807 1_565
K0_7 K3_7 3.631807 1_555
K0_7 K1_6 3.932027 1_555
K0_7 K1_7 3.932027 1_555
K1_0 K1_1 3.520940 1_554
K1_0 K1_1 3.520940 1_555
K1_0 K2_6 3.631807 1_445
K1_0 K2_4 3.631807 1_455
K1_1 K2_7 3.631807 1_445
K1_1 K2_5 3.631807 1_455
K1_2 K1_3 3.520940 1_554
K1_2 K1_3 3.520940 1_555
K1_2 K2_4 3.631807 1_455
K1_2 K2_6 3.631807 1_455
K1_3 K2_5 3.631807 1_455
K1_3 K2_7 3.631807 1_455
K1_4 K1_5 3.520940 1_554
K1_4 K1_5 3.520940 1_555
K1_4 K2_2 3.631807 1_545
K1_4 K2_0 3.631807 1_555
K1_5 K2_3 3.631807 1_545
K1_5 K2_1 3.631807 1_555
K1_6 K1_7 3.520940 1_554
K1_6 K1_7 3.520940 1_555
K1_6 K2_0 3.631807 1_555
K1_6 K2_2 3.631807 1_555
K1_7 K2_1 3.631807 1_555
K1_7 K2_3 3.631807 1_555
K2_0 K2_1 3.520940 1_554
K2_0 K2_1 3.520940 1_555
K2_0 K3_3 3.932027 1_555
K2_0 K3_2 3.932027 1_555
K2_1 K3_2 3.932027 1_556
K2_1 K3_3 3.932027 1_555
K2_2 K2_3 3.520940 1_554
K2_2 K2_3 3.520940 1_555
K2_2 K3_0 3.932027 1_565
K2_2 K3_1 3.932027 1_565
K2_3 K3_0 3.932027 1_566
K2_3 K3_1 3.932027 1_565
K2_4 K2_5 3.520940 1_554
K2_4 K2_5 3.520940 1_555
K2_4 K3_7 3.932027 1_555
K2_4 K3_6 3.932027 1_555
K2_5 K3_6 3.932027 1_556
K2_5 K3_7 3.932027 1_555
K2_6 K2_7 3.520940 1_554
K2_6 K2_7 3.520940 1_555
K2_6 K3_5 3.932027 1_565
K2_6 K3_4 3.932027 1_565
K2_7 K3_4 3.932027 1_566
K2_7 K3_5 3.932027 1_565
K3_0 K3_1 3.520940 1_554
K3_0 K3_1 3.520940 1_555
K3_2 K3_3 3.520940 1_554
K3_2 K3_3 3.520940 1_555
K3_4 K3_5 3.520940 1_554
K3_4 K3_5 3.520940 1_555
K3_6 K3_7 3.520940 1_554
K3_6 K3_7 3.520940 1_555
Co0_0 Co1_1 2.181906 1_554
Co0_0 Co1_0 2.181906 1_555
Co0_0 K3_0 3.287299 1_555
Co0_0 K2_1 3.489164 1_554
Co0_0 K2_0 3.489164 1_555
Co0_0 K2_3 3.702627 1_544
Co0_0 K2_2 3.702627 1_545
Co0_0 K1_5 3.714204 1_554
Co0_0 K1_4 3.714204 1_555
Co0_1 Co1_0 2.181906 1_555
Co0_1 Co1_1 2.181906 1_555
Co0_1 K3_1 3.287299 1_555
Co0_1 K2_0 3.489164 1_555
Co0_1 K2_1 3.489164 1_555
Co0_1 K2_2 3.702627 1_545
Co0_1 K2_3 3.702627 1_545
Co0_1 K1_5 3.714204 1_555
Co0_1 K1_4 3.714204 1_555
Co0_2 Co1_3 2.181906 1_554
Co0_2 Co1_2 2.181906 1_555
Co0_2 K3_2 3.287299 1_555
Co0_2 K2_3 3.489164 1_554
Co0_2 K2_2 3.489164 1_555
Co0_2 K2_1 3.702627 1_554
Co0_2 K2_0 3.702627 1_555
Co0_2 K1_7 3.714204 1_554
Co0_2 K1_6 3.714204 1_555
Co0_3 Co1_3 2.181906 1_555
Co0_3 Co1_2 2.181906 1_555
Co0_3 K3_3 3.287299 1_555
Co0_3 K2_3 3.489164 1_555
Co0_3 K2_2 3.489164 1_555
Co0_3 K2_0 3.702627 1_555
Co0_3 K2_1 3.702627 1_555
Co0_3 K1_7 3.714204 1_555
Co0_3 K1_6 3.714204 1_555
Co0_4 Co1_5 2.181906 1_554
Co0_4 Co1_4 2.181906 1_555
Co0_4 K3_4 3.287299 1_555
Co0_4 K2_5 3.489164 1_554
Co0_4 K2_4 3.489164 1_555
Co0_4 K2_7 3.702627 1_544
Co0_4 K2_6 3.702627 1_545
Co0_4 K1_1 3.714204 1_654
Co0_4 K1_0 3.714204 1_655
Co0_5 Co1_4 2.181906 1_555
Co0_5 Co1_5 2.181906 1_555
Co0_5 K3_5 3.287299 1_555
Co0_5 K2_5 3.489164 1_555
Co0_5 K2_4 3.489164 1_555
Co0_5 K2_6 3.702627 1_545
Co0_5 K2_7 3.702627 1_545
Co0_5 K1_1 3.714204 1_655
Co0_5 K1_0 3.714204 1_655
Co0_6 Co1_7 2.181906 1_554
Co0_6 Co1_6 2.181906 1_555
Co0_6 K3_6 3.287299 1_555
Co0_6 K2_7 3.489164 1_554
Co0_6 K2_6 3.489164 1_555
Co0_6 K2_5 3.702627 1_554
Co0_6 K2_4 3.702627 1_555
Co0_6 K1_3 3.714204 1_654
Co0_6 K1_2 3.714204 1_655
Co0_7 Co1_7 2.181906 1_555
Co0_7 Co1_6 2.181906 1_555
Co0_7 K3_7 3.287299 1_555
Co0_7 K2_6 3.489164 1_555
Co0_7 K2_7 3.489164 1_555
Co0_7 K2_4 3.702627 1_555
Co0_7 K2_5 3.702627 1_555
Co0_7 K1_3 3.714204 1_655
Co0_7 K1_2 3.714204 1_655
Co1_0 K2_0 3.287299 1_555
Co1_0 K3_1 3.489164 1_555
Co1_0 K3_0 3.489164 1_555
Co1_0 K3_2 3.702627 1_555
Co1_0 K3_3 3.702627 1_555
Co1_0 K0_0 3.714204 1_555
Co1_0 K0_1 3.714204 1_555
Co1_1 K2_1 3.287299 1_555
Co1_1 K3_0 3.489164 1_556
Co1_1 K3_1 3.489164 1_555
Co1_1 K3_2 3.702627 1_556
Co1_1 K3_3 3.702627 1_555
Co1_1 K0_0 3.714204 1_556
Co1_1 K0_1 3.714204 1_555
Co1_2 K2_2 3.287299 1_555
Co1_2 K3_2 3.489164 1_555
Co1_2 K3_3 3.489164 1_555
Co1_2 K3_0 3.702627 1_565
Co1_2 K3_1 3.702627 1_565
Co1_2 K0_2 3.714204 1_555
Co1_2 K0_3 3.714204 1_555
Co1_3 K2_3 3.287299 1_555
Co1_3 K3_2 3.489164 1_556
Co1_3 K3_3 3.489164 1_555
Co1_3 K3_0 3.702627 1_566
Co1_3 K3_1 3.702627 1_565
Co1_3 K0_2 3.714204 1_556
Co1_3 K0_3 3.714204 1_555
Co1_4 K2_4 3.287299 1_555
Co1_4 K3_4 3.489164 1_555
Co1_4 K3_5 3.489164 1_555
Co1_4 K3_7 3.702627 1_555
Co1_4 K3_6 3.702627 1_555
Co1_4 K0_4 3.714204 1_555
Co1_4 K0_5 3.714204 1_555
Co1_5 K2_5 3.287299 1_555
Co1_5 K3_4 3.489164 1_556
Co1_5 K3_5 3.489164 1_555
Co1_5 K3_6 3.702627 1_556
Co1_5 K3_7 3.702627 1_555
Co1_5 K0_4 3.714204 1_556
Co1_5 K0_5 3.714204 1_555
Co1_6 K2_6 3.287299 1_555
Co1_6 K3_6 3.489164 1_555
Co1_6 K3_7 3.489164 1_555
Co1_6 K3_4 3.702627 1_565
Co1_6 K3_5 3.702627 1_565
Co1_6 K0_7 3.714204 1_555
Co1_6 K0_6 3.714204 1_555
Co1_7 K2_7 3.287299 1_555
Co1_7 K3_6 3.489164 1_556
Co1_7 K3_7 3.489164 1_555
Co1_7 K3_4 3.702627 1_566
Co1_7 K3_5 3.702627 1_565
Co1_7 K0_6 3.714204 1_556
Co1_7 K0_7 3.714204 1_555
Co2_0 Co3_2 2.181906 1_545
Co2_0 Co3_3 2.181906 1_545
Co2_0 K1_0 3.287299 1_555
Co2_0 K0_3 3.489164 1_545
Co2_0 K0_2 3.489164 1_545
Co2_0 K0_0 3.702627 1_555
Co2_0 K0_1 3.702627 1_555
Co2_0 K3_0 3.714204 1_555
Co2_0 K3_1 3.714204 1_555
Co2_1 Co3_2 2.181906 1_546
Co2_1 Co3_3 2.181906 1_545
Co2_1 K1_1 3.287299 1_555
Co2_1 K0_2 3.489164 1_546
Co2_1 K0_3 3.489164 1_545
Co2_1 K0_0 3.702627 1_556
Co2_1 K0_1 3.702627 1_555
Co2_1 K3_0 3.714204 1_556
Co2_1 K3_1 3.714204 1_555
Co2_2 Co3_0 2.181906 1_555
Co2_2 Co3_1 2.181906 1_555
Co2_2 K1_2 3.287299 1_555
Co2_2 K0_1 3.489164 1_555
Co2_2 K0_0 3.489164 1_555
Co2_2 K0_3 3.702627 1_555
Co2_2 K0_2 3.702627 1_555
Co2_2 K3_3 3.714204 1_555
Co2_2 K3_2 3.714204 1_555
Co2_3 Co3_0 2.181906 1_556
Co2_3 Co3_1 2.181906 1_555
Co2_3 K1_3 3.287299 1_555
Co2_3 K0_0 3.489164 1_556
Co2_3 K0_1 3.489164 1_555
Co2_3 K0_2 3.702627 1_556
Co2_3 K0_3 3.702627 1_555
Co2_3 K3_2 3.714204 1_556
Co2_3 K3_3 3.714204 1_555
Co2_4 Co3_6 2.181906 1_545
Co2_4 Co3_7 2.181906 1_545
Co2_4 K1_4 3.287299 1_555
Co2_4 K0_7 3.489164 1_545
Co2_4 K0_6 3.489164 1_545
Co2_4 K0_5 3.702627 1_555
Co2_4 K0_4 3.702627 1_555
Co2_4 K3_4 3.714204 1_555
Co2_4 K3_5 3.714204 1_555
Co2_5 Co3_6 2.181906 1_546
Co2_5 Co3_7 2.181906 1_545
Co2_5 K1_5 3.287299 1_555
Co2_5 K0_6 3.489164 1_546
Co2_5 K0_7 3.489164 1_545
Co2_5 K0_4 3.702627 1_556
Co2_5 K0_5 3.702627 1_555
Co2_5 K3_4 3.714204 1_556
Co2_5 K3_5 3.714204 1_555
Co2_6 Co3_4 2.181906 1_555
Co2_6 Co3_5 2.181906 1_555
Co2_6 K1_6 3.287299 1_555
Co2_6 K0_5 3.489164 1_555
Co2_6 K0_4 3.489164 1_555
Co2_6 K0_7 3.702627 1_555
Co2_6 K0_6 3.702627 1_555
Co2_6 K3_7 3.714204 1_555
Co2_6 K3_6 3.714204 1_555
Co2_7 Co3_4 2.181906 1_556
Co2_7 Co3_5 2.181906 1_555
Co2_7 K1_7 3.287299 1_555
Co2_7 K0_4 3.489164 1_556
Co2_7 K0_5 3.489164 1_555
Co2_7 K0_6 3.702627 1_556
Co2_7 K0_7 3.702627 1_555
Co2_7 K3_6 3.714204 1_556
Co2_7 K3_7 3.714204 1_555
Co3_0 K0_0 3.287299 1_555
Co3_0 K1_3 3.489164 1_554
Co3_0 K1_2 3.489164 1_555
Co3_0 K1_1 3.702627 1_554
Co3_0 K1_0 3.702627 1_555
Co3_0 K2_5 3.714204 1_454
Co3_0 K2_4 3.714204 1_455
Co3_1 K0_1 3.287299 1_555
Co3_1 K1_3 3.489164 1_555
Co3_1 K1_2 3.489164 1_555
Co3_1 K1_1 3.702627 1_555
Co3_1 K1_0 3.702627 1_555
Co3_1 K2_5 3.714204 1_455
Co3_1 K2_4 3.714204 1_455
Co3_2 K0_2 3.287299 1_555
Co3_2 K1_1 3.489164 1_564
Co3_2 K1_0 3.489164 1_565
Co3_2 K1_3 3.702627 1_554
Co3_2 K1_2 3.702627 1_555
Co3_2 K2_7 3.714204 1_454
Co3_2 K2_6 3.714204 1_455
Co3_3 K0_3 3.287299 1_555
Co3_3 K1_0 3.489164 1_565
Co3_3 K1_1 3.489164 1_565
Co3_3 K1_2 3.702627 1_555
Co3_3 K1_3 3.702627 1_555
Co3_3 K2_6 3.714204 1_455
Co3_3 K2_7 3.714204 1_455
Co3_4 K0_4 3.287299 1_555
Co3_4 K1_7 3.489164 1_554
Co3_4 K1_6 3.489164 1_555
Co3_4 K1_5 3.702627 1_554
Co3_4 K1_4 3.702627 1_555
Co3_4 K2_1 3.714204 1_554
Co3_4 K2_0 3.714204 1_555
Co3_5 K0_5 3.287299 1_555
Co3_5 K1_7 3.489164 1_555
Co3_5 K1_6 3.489164 1_555
Co3_5 K1_5 3.702627 1_555
Co3_5 K1_4 3.702627 1_555
Co3_5 K2_1 3.714204 1_555
Co3_5 K2_0 3.714204 1_555
Co3_6 K0_6 3.287299 1_555
Co3_6 K1_5 3.489164 1_564
Co3_6 K1_4 3.489164 1_565
Co3_6 K1_7 3.702627 1_554
Co3_6 K1_6 3.702627 1_555
Co3_6 K2_3 3.714204 1_554
Co3_6 K2_2 3.714204 1_555
Co3_7 K0_7 3.287299 1_555
Co3_7 K1_5 3.489164 1_565
Co3_7 K1_4 3.489164 1_565
Co3_7 K1_7 3.702627 1_555
Co3_7 K1_6 3.702627 1_555
Co3_7 K2_3 3.714204 1_555
Co3_7 K2_2 3.714204 1_555
