# generated using pymatgen
data_Te3Mo5O18
_symmetry_space_group_name_H-M   'P 1'
_cell_length_a   8.86371450
_cell_length_b   8.86371450
_cell_length_c   11.49560432
_cell_angle_alpha   81.36289946
_cell_angle_beta   81.36289946
_cell_angle_gamma   65.10384682
_symmetry_Int_Tables_number   1
_chemical_formula_structural   Te3Mo5O18
_chemical_formula_sum   'Te6 Mo10 O36'
_cell_volume   806.12174976
_cell_formula_units_Z   2
loop_
 _symmetry_equiv_pos_site_id
 _symmetry_equiv_pos_as_xyz
  1  'x, y, z'
loop_
 _atom_site_type_symbol
 _atom_site_label
 _atom_site_symmetry_multiplicity
 _atom_site_fract_x
 _atom_site_fract_y
 _atom_site_fract_z
 _atom_site_occupancy
  Te  Te0  1  0.96843800  0.35851200  0.94834300  1
  Te  Te1  1  0.18112700  0.80074000  0.26350900  1
  Te  Te2  1  0.19926000  0.81887300  0.73649100  1
  Te  Te3  1  0.81777200  0.52781600  0.46106500  1
  Te  Te4  1  0.47218400  0.18222800  0.53893500  1
  Te  Te5  1  0.64148800  0.03156200  0.05165700  1
  Mo  Mo0  1  0.51323500  0.77360500  0.97343100  1
  Mo  Mo1  1  0.16372900  0.12523600  0.47846200  1
  Mo  Mo2  1  0.36274200  0.34258600  0.28238800  1
  Mo  Mo3  1  0.72223900  0.96908800  0.77527400  1
  Mo  Mo4  1  0.65741400  0.63725800  0.71761200  1
  Mo  Mo5  1  0.04789600  0.95210400  0.00000000  1
  Mo  Mo6  1  0.35280200  0.64719800  0.50000000  1
  Mo  Mo7  1  0.03091200  0.27776100  0.22472600  1
  Mo  Mo8  1  0.87476400  0.83627100  0.52153800  1
  Mo  Mo9  1  0.22639500  0.48676500  0.02656900  1
  O  O0  1  0.16881000  0.38418400  0.89443300  1
  O  O1  1  0.42967700  0.76527600  0.80868000  1
  O  O2  1  0.59284000  0.60776700  0.55434000  1
  O  O3  1  0.11068200  0.73017200  0.43857600  1
  O  O4  1  0.23472400  0.57032300  0.19132000  1
  O  O5  1  0.26982800  0.88931800  0.56142400  1
  O  O6  1  0.82587100  0.35896000  0.28694100  1
  O  O7  1  0.05506100  0.12019000  0.87892400  1
  O  O8  1  0.29136200  0.60548500  0.68618800  1
  O  O9  1  0.41815400  0.11705300  0.39910600  1
  O  O10  1  0.59089500  0.57177000  0.03512100  1
  O  O11  1  0.98731200  0.47303300  0.08803600  1
  O  O12  1  0.94758300  0.85614300  0.67791600  1
  O  O13  1  0.72489800  0.72367700  0.84701900  1
  O  O14  1  0.42823000  0.40910500  0.96487900  1
  O  O15  1  0.56447900  0.28275300  0.22070100  1
  O  O16  1  0.80023800  0.03551200  0.45024400  1
  O  O17  1  0.27632300  0.27510200  0.15298100  1
  O  O18  1  0.39223300  0.40716000  0.44566000  1
  O  O19  1  0.96448800  0.19976200  0.54975600  1
  O  O20  1  0.81236700  0.73637300  0.39083900  1
  O  O21  1  0.65254600  0.88867300  0.63445800  1
  O  O22  1  0.87981000  0.94493900  0.12107600  1
  O  O23  1  0.71724700  0.43552100  0.77929900  1
  O  O24  1  0.82370000  0.98814300  0.91577600  1
  O  O25  1  0.13188600  0.73105800  0.93514600  1
  O  O26  1  0.52696700  0.01268800  0.91196400  1
  O  O27  1  0.64104000  0.17412900  0.71305900  1
  O  O28  1  0.14385700  0.05241700  0.32208400  1
  O  O29  1  0.11132700  0.34745400  0.36554200  1
  O  O30  1  0.26362700  0.18763300  0.60916100  1
  O  O31  1  0.26894200  0.86811400  0.06485400  1
  O  O32  1  0.39451500  0.70863800  0.31381200  1
  O  O33  1  0.88294700  0.58184600  0.60089400  1
  O  O34  1  0.01185700  0.17630000  0.08422400  1
  O  O35  1  0.61581600  0.83119000  0.10556700  1
loop_
_geom_bond_atom_site_label_1
_geom_bond_atom_site_label_2
_geom_bond_distance
_geom_bond_site_symmetry_2
Mo0 O10 1.704705 1_556
Mo0 O35 2.105470 1_556
Mo0 O13 2.121948 1_555
Mo0 O31 2.132762 1_556
Mo0 O1 2.156438 1_555
Mo0 O26 2.178657 1_565
Mo1 O19 1.724106 1_455
Mo1 O5 2.044836 1_545
Mo1 O28 2.053905 1_555
Mo1 O30 2.099720 1_555
Mo1 O29 2.103156 1_555
Mo1 O9 2.277590 1_555
Mo2 O15 1.707405 1_555
Mo2 O17 2.037844 1_555
Mo2 O4 2.061998 1_555
Mo2 O18 2.124786 1_555
Mo2 O9 2.145555 1_555
Mo2 O29 2.274493 1_555
Mo3 O27 1.730734 1_565
Mo3 O24 2.022901 1_555
Mo3 O12 2.055697 1_555
Mo3 O26 2.101565 1_565
Mo3 O21 2.127830 1_555
Mo3 O13 2.199165 1_555
Mo4 O23 1.707405 1_555
Mo4 O13 2.037844 1_555
Mo4 O1 2.061998 1_555
Mo4 O2 2.124786 1_555
Mo4 O33 2.145555 1_555
Mo4 O21 2.274493 1_555
Mo5 O7 1.895059 1_564
Mo5 O22 1.895059 1_455
Mo5 O25 1.998200 1_554
Mo5 O31 1.998200 1_555
Mo5 O34 2.222384 1_565
Mo5 O24 2.222384 1_454
Mo6 O32 2.143852 1_555
Mo6 O8 2.143852 1_555
Mo6 O3 2.148354 1_555
Mo6 O5 2.148354 1_555
Mo6 O2 2.178691 1_555
Mo6 O18 2.178691 1_555
Mo7 O6 1.730734 1_455
Mo7 O34 2.022901 1_555
Mo7 O28 2.055697 1_555
Mo7 O11 2.101565 1_455
Mo7 O29 2.127830 1_555
Mo7 O17 2.199165 1_555
Mo8 O16 1.724106 1_565
Mo8 O3 2.044836 1_655
Mo8 O12 2.053905 1_555
Mo8 O20 2.099720 1_555
Mo8 O21 2.103156 1_555
Mo8 O33 2.277590 1_555
Mo9 O14 1.704705 1_554
Mo9 O0 2.105470 1_554
Mo9 O17 2.121948 1_555
Mo9 O25 2.132762 1_554
Mo9 O4 2.156438 1_555
Mo9 O11 2.178657 1_455
O0 Te0 1.886129 1_455
O1 Te2 2.158537 1_555
O2 Te3 2.005857 1_555
O3 Te1 2.098716 1_555
O4 Te1 2.158537 1_555
O5 Te2 2.098716 1_555
O6 Te3 2.649165 1_555
O7 Te0 2.155311 1_455
O8 Te2 1.861438 1_555
O9 Te4 1.972289 1_555
O11 Te0 2.085764 1_554
O12 Te2 2.302793 1_655
O16 Te4 2.740413 1_555
O18 Te4 2.005857 1_555
O19 Te3 2.740413 1_555
O20 Te3 1.886828 1_555
O21 Te4 2.588189 1_565
O22 Te5 2.155311 1_565
O24 Te5 2.023866 1_566
O25 Te2 2.371804 1_555
O26 Te5 2.085764 1_556
O27 Te4 2.649165 1_555
O28 Te1 2.302793 1_545
O29 Te3 2.588189 1_455
O30 Te4 1.886828 1_555
O31 Te1 2.371804 1_555
O32 Te1 1.861438 1_555
O33 Te3 1.972289 1_555
O34 Te0 2.023866 1_454
O35 Te5 1.886129 1_565
