# generated using pymatgen
data_PmEr3
_symmetry_space_group_name_H-M   'P 1'
_cell_length_a   6.13085096
_cell_length_b   6.13085096
_cell_length_c   6.13085096
_cell_angle_alpha   131.72182114
_cell_angle_beta   131.72182114
_cell_angle_gamma   70.66873657
_symmetry_Int_Tables_number   1
_chemical_formula_structural   PmEr3
_chemical_formula_sum   'Pm1 Er3'
_cell_volume   125.76163324
_cell_formula_units_Z   1
loop_
 _symmetry_equiv_pos_site_id
 _symmetry_equiv_pos_as_xyz
  1  'x, y, z'
loop_
 _atom_site_type_symbol
 _atom_site_label
 _atom_site_symmetry_multiplicity
 _atom_site_fract_x
 _atom_site_fract_y
 _atom_site_fract_z
 _atom_site_occupancy
  Pm  Pm0  1  -0.00000000  0.00000000  0.00000000  1
  Er  Er0  1  0.75000000  0.25000000  0.50000000  1
  Er  Er1  1  0.25000000  0.75000000  0.50000000  1
  Er  Er2  1  0.50000000  0.50000000  0.00000000  1
loop_
_geom_bond_atom_site_label_1
_geom_bond_atom_site_label_2
_geom_bond_distance
_geom_bond_site_symmetry_2
Er0 Pm0 3.541177 1_666
Er0 Pm0 3.541177 1_555
Er0 Pm0 3.541177 1_655
Er0 Pm0 3.541177 1_656
Er0 Er2 3.541177 1_555
Er0 Er2 3.541177 1_556
Er0 Er2 3.541177 1_656
Er0 Er2 3.541177 1_545
Er0 Er1 3.545760 1_656
Er0 Er1 3.545760 1_544
Er0 Er1 3.545760 1_555
Er0 Er1 3.545760 1_645
Er1 Er2 3.541177 1_566
Er1 Pm0 3.541177 1_555
Er1 Pm0 3.541177 1_666
Er1 Pm0 3.541177 1_565
Er1 Er2 3.541177 1_555
Er1 Pm0 3.541177 1_566
Er1 Er2 3.541177 1_556
Er1 Er2 3.541177 1_455
Er2 Pm0 3.545760 1_565
Er2 Pm0 3.545760 1_655
Er2 Pm0 3.545760 1_666
Er2 Pm0 3.545760 1_554
