# generated using pymatgen
data_FeSnO3
_symmetry_space_group_name_H-M   'P 1'
_cell_length_a   5.43931500
_cell_length_b   5.46144100
_cell_length_c   7.86870000
_cell_angle_alpha   89.99699991
_cell_angle_beta   90.00083682
_cell_angle_gamma   90.00018924
_symmetry_Int_Tables_number   1
_chemical_formula_structural   FeSnO3
_chemical_formula_sum   'Fe4 Sn4 O12'
_cell_volume   233.75152028
_cell_formula_units_Z   4
loop_
 _symmetry_equiv_pos_site_id
 _symmetry_equiv_pos_as_xyz
  1  'x, y, z'
loop_
 _atom_site_type_symbol
 _atom_site_label
 _atom_site_symmetry_multiplicity
 _atom_site_fract_x
 _atom_site_fract_y
 _atom_site_fract_z
 _atom_site_occupancy
  Fe  Fe0  1  0.50694900  0.46443800  0.75007500  1
  Fe  Fe1  1  0.00698600  0.03552900  0.24994800  1
  Fe  Fe2  1  0.99303400  0.96444300  0.74991000  1
  Fe  Fe3  1  0.49300200  0.53552200  0.25005000  1
  Sn  Sn0  1  0.00007500  0.50001800  0.00000100  1
  Sn  Sn1  1  0.99990900  0.50002600  0.50002000  1
  Sn  Sn2  1  0.49995400  0.00008500  0.99999400  1
  Sn  Sn3  1  0.50014200  0.99991700  0.50000800  1
  O  O0  1  0.12419500  0.41570700  0.25001700  1
  O  O1  1  0.37579100  0.91570700  0.25000400  1
  O  O2  1  0.62425100  0.08431800  0.75001400  1
  O  O3  1  0.87573200  0.58431700  0.75004800  1
  O  O4  1  0.17059100  0.17483900  0.56666700  1
  O  O5  1  0.17054200  0.17475500  0.93333700  1
  O  O6  1  0.32951300  0.67476600  0.56663200  1
  O  O7  1  0.32933700  0.67485300  0.93329300  1
  O  O8  1  0.67058100  0.32519900  0.43343300  1
  O  O9  1  0.67059900  0.32519600  0.06661300  1
  O  O10  1  0.82941900  0.82513000  0.06656100  1
  O  O11  1  0.82939900  0.82523600  0.43337400  1
loop_
_geom_bond_atom_site_label_1
_geom_bond_atom_site_label_2
_geom_bond_distance
_geom_bond_site_symmetry_2
Fe0 O7 2.081490 1_555
Fe0 O6 2.081907 1_555
Fe0 O3 2.110067 1_555
Fe0 O2 2.171842 1_555
Fe1 O11 2.082106 1_445
Fe1 O10 2.082226 1_445
Fe1 O1 2.110088 1_545
Fe1 O0 2.171992 1_555
Fe2 O4 2.081343 1_665
Fe2 O5 2.082033 1_665
Fe2 O2 2.110064 1_565
Fe2 O3 2.171869 1_555
Fe3 O8 2.081926 1_555
Fe3 O9 2.082378 1_555
Fe3 O0 2.110083 1_555
Fe3 O1 2.172035 1_555
O0 Sn0 2.130249 1_555
O0 Sn1 2.130513 1_455
O1 Sn2 2.130376 1_564
O1 Sn3 2.130485 1_555
O2 Sn2 2.130218 1_555
O2 Sn3 2.130307 1_545
O3 Sn0 2.130162 1_656
O3 Sn1 2.130474 1_555
O4 Sn1 2.071467 1_455
O4 Sn3 2.097863 1_545
O5 Sn0 2.071387 1_556
O5 Sn2 2.096549 1_555
O6 Sn3 2.071125 1_555
O6 Sn1 2.097546 1_455
O7 Sn2 2.071668 1_565
O7 Sn0 2.096370 1_556
O8 Sn3 2.071178 1_545
O8 Sn1 2.096430 1_555
O9 Sn2 2.071007 1_554
O9 Sn0 2.097143 1_655
O10 Sn0 2.070933 1_655
O10 Sn2 2.097327 1_564
O11 Sn1 2.071153 1_555
O11 Sn3 2.095848 1_555
