# generated using pymatgen
data_Dy2OsC2
_symmetry_space_group_name_H-M   'P 1'
_cell_length_a   5.12057767
_cell_length_b   6.42500493
_cell_length_c   9.76832899
_cell_angle_alpha   90.00000000
_cell_angle_beta   90.00000000
_cell_angle_gamma   90.00000000
_symmetry_Int_Tables_number   1
_chemical_formula_structural   Dy2OsC2
_chemical_formula_sum   'Dy8 Os4 C8'
_cell_volume   321.37545249
_cell_formula_units_Z   4
loop_
 _symmetry_equiv_pos_site_id
 _symmetry_equiv_pos_as_xyz
  1  'x, y, z'
loop_
 _atom_site_type_symbol
 _atom_site_label
 _atom_site_symmetry_multiplicity
 _atom_site_fract_x
 _atom_site_fract_y
 _atom_site_fract_z
 _atom_site_occupancy
  Dy  Dy0  1  0.25000000  0.68401296  0.55190154  1
  Dy  Dy1  1  0.75000000  0.31598704  0.44809846  1
  Dy  Dy2  1  0.75000000  0.81598704  0.05190154  1
  Dy  Dy3  1  0.25000000  0.18401296  0.94809846  1
  Dy  Dy4  1  0.25000000  0.52604485  0.21898777  1
  Dy  Dy5  1  0.75000000  0.47395515  0.78101223  1
  Dy  Dy6  1  0.75000000  0.97395515  0.71898777  1
  Dy  Dy7  1  0.25000000  0.02604485  0.28101223  1
  Os  Os0  1  0.25000000  0.72538267  0.86433892  1
  Os  Os1  1  0.75000000  0.27461733  0.13566108  1
  Os  Os2  1  0.75000000  0.77461733  0.36433892  1
  Os  Os3  1  0.25000000  0.22538267  0.63566108  1
  C  C0  1  0.25000000  0.46203625  0.75782655  1
  C  C1  1  0.75000000  0.53796375  0.24217345  1
  C  C2  1  0.75000000  0.03796375  0.25782655  1
  C  C3  1  0.25000000  0.96203625  0.74217345  1
  C  C4  1  0.25000000  0.82346683  0.05193106  1
  C  C5  1  0.75000000  0.17653317  0.94806894  1
  C  C6  1  0.75000000  0.67653317  0.55193106  1
  C  C7  1  0.25000000  0.32346683  0.44806894  1
loop_
_geom_bond_atom_site_label_1
_geom_bond_atom_site_label_2
_geom_bond_distance
_geom_bond_site_symmetry_2
C0 Os3 1.932877 1_555
C0 Os0 1.986304 1_555
C0 Dy0 2.465838 1_555
C0 Dy5 2.571427 1_555
C0 Dy5 2.571427 1_455
C0 Dy3 2.577869 1_555
C1 Os2 1.932877 1_555
C1 Os1 1.986304 1_555
C1 Dy1 2.465838 1_555
C1 Dy4 2.571427 1_655
C1 Dy4 2.571427 1_555
C1 Dy2 2.577869 1_555
C2 Os1 1.932877 1_555
C2 Os2 1.986304 1_545
C2 Dy2 2.465838 1_545
C2 Dy7 2.571427 1_655
C2 Dy7 2.571427 1_555
C2 Dy1 2.577869 1_555
C3 Os0 1.932877 1_555
C3 Os3 1.986304 1_565
C3 Dy3 2.465838 1_565
C3 Dy6 2.571427 1_455
C3 Dy6 2.571427 1_555
C3 Dy0 2.577869 1_555
C4 Os0 1.937797 1_554
C4 Dy4 2.512900 1_555
C4 Dy3 2.528827 1_564
C4 Dy2 2.560740 1_455
C4 Dy2 2.560740 1_555
C4 Dy7 2.588736 1_565
C5 Os1 1.937797 1_556
C5 Dy5 2.512900 1_555
C5 Dy2 2.528827 1_546
C5 Dy3 2.560740 1_555
C5 Dy3 2.560740 1_655
C5 Dy6 2.588736 1_545
C6 Os2 1.937797 1_555
C6 Dy6 2.512900 1_555
C6 Dy1 2.528827 1_555
C6 Dy0 2.560740 1_555
C6 Dy0 2.560740 1_655
C6 Dy5 2.588736 1_555
C7 Os3 1.937797 1_555
C7 Dy7 2.512900 1_555
C7 Dy0 2.528827 1_555
C7 Dy1 2.560740 1_455
C7 Dy1 2.560740 1_555
C7 Dy4 2.588736 1_555
