# generated using pymatgen
data_TaTiCrO6
_symmetry_space_group_name_H-M   'P 1'
_cell_length_a   4.69157300
_cell_length_b   10.22035060
_cell_length_c   9.38048500
_cell_angle_alpha   62.67964137
_cell_angle_beta   90.00000611
_cell_angle_gamma   89.99993381
_symmetry_Int_Tables_number   1
_chemical_formula_structural   TaTiCrO6
_chemical_formula_sum   'Ta4 Ti4 Cr4 O24'
_cell_volume   399.61760632
_cell_formula_units_Z   4
loop_
 _symmetry_equiv_pos_site_id
 _symmetry_equiv_pos_as_xyz
  1  'x, y, z'
loop_
 _atom_site_type_symbol
 _atom_site_label
 _atom_site_symmetry_multiplicity
 _atom_site_fract_x
 _atom_site_fract_y
 _atom_site_fract_z
 _atom_site_occupancy
  Ta  Ta0  1  0.50001300  0.83405700  0.83295500  1
  Ta  Ta1  1  0.50000700  0.83405200  0.33295200  1
  Ta  Ta2  1  0.99998600  0.33405500  0.33295400  1
  Ta  Ta3  1  0.99998500  0.33405700  0.83295500  1
  Ti  Ti0  1  0.49998500  0.49814200  0.00089800  1
  Ti  Ti1  1  0.49999400  0.49814700  0.50089500  1
  Ti  Ti2  1  0.00001000  0.99815000  0.00089300  1
  Ti  Ti3  1  0.00000100  0.99815100  0.50089500  1
  Cr  Cr0  1  0.49998500  0.16714000  0.16643300  1
  Cr  Cr1  1  0.99997300  0.66713600  0.16640400  1
  Cr  Cr2  1  0.50002900  0.16714000  0.66642300  1
  Cr  Cr3  1  0.00003000  0.66714800  0.66642200  1
  O  O0  1  0.19387500  0.16575100  0.01391800  1
  O  O1  1  0.19385300  0.16575800  0.51391800  1
  O  O2  1  0.80634100  0.16589800  0.32039600  1
  O  O3  1  0.80635900  0.16590500  0.82038800  1
  O  O4  1  0.30613700  0.66575700  0.01391700  1
  O  O5  1  0.30614400  0.66575900  0.51391900  1
  O  O6  1  0.69363900  0.66590400  0.82038700  1
  O  O7  1  0.69365600  0.66589900  0.32039600  1
  O  O8  1  0.19911200  0.49728000  0.85078000  1
  O  O9  1  0.19911100  0.49727700  0.35078200  1
  O  O10  1  0.80089800  0.49733100  0.15190200  1
  O  O11  1  0.80089500  0.49733000  0.65190500  1
  O  O12  1  0.30088700  0.99727700  0.85078100  1
  O  O13  1  0.30090100  0.99727400  0.35078800  1
  O  O14  1  0.69910100  0.99732900  0.65190400  1
  O  O15  1  0.69909800  0.99732800  0.15190500  1
  O  O16  1  0.19573200  0.83729400  0.67912400  1
  O  O17  1  0.19573500  0.83727400  0.17910000  1
  O  O18  1  0.80458600  0.83711600  0.98359600  1
  O  O19  1  0.80458100  0.83710800  0.48362700  1
  O  O20  1  0.30426800  0.33727300  0.17909900  1
  O  O21  1  0.30426600  0.33729300  0.67912500  1
  O  O22  1  0.69541300  0.33710300  0.98363200  1
  O  O23  1  0.69541500  0.33710700  0.48363000  1
loop_
_geom_bond_atom_site_label_1
_geom_bond_atom_site_label_2
_geom_bond_distance
_geom_bond_site_symmetry_2
Cr0 O22 2.016007 1_554
Cr0 O20 2.017516 1_555
Cr0 O15 2.029880 1_545
Cr0 O13 2.030055 1_545
Cr0 O0 2.031782 1_555
Cr0 O2 2.033468 1_555
Cr1 O18 2.016029 1_554
Cr1 O17 2.017788 1_655
Cr1 O10 2.029624 1_555
Cr1 O9 2.030235 1_655
Cr1 O4 2.031741 1_655
Cr1 O7 2.033547 1_555
Cr2 O23 2.015902 1_555
Cr2 O21 2.017950 1_555
Cr2 O14 2.029743 1_545
Cr2 O12 2.030179 1_545
Cr2 O1 2.031910 1_555
Cr2 O3 2.033418 1_555
Cr3 O19 2.016009 1_455
Cr3 O16 2.017758 1_555
Cr3 O11 2.029936 1_455
Cr3 O8 2.030071 1_555
Cr3 O5 2.031715 1_555
Cr3 O6 2.033591 1_455
O0 Ti2 1.992099 1_545
O0 Ta3 1.996896 1_454
O1 Ti3 1.992117 1_545
O1 Ta2 1.996808 1_455
O2 Ti3 1.991734 1_645
O2 Ta2 1.994682 1_555
O3 Ti2 1.991779 1_646
O3 Ta3 1.994635 1_555
O4 Ti0 1.992162 1_555
O4 Ta0 1.996835 1_554
O5 Ti1 1.992161 1_555
O5 Ta1 1.996795 1_555
O6 Ti0 1.991847 1_556
O6 Ta0 1.994646 1_555
O7 Ti1 1.991764 1_555
O7 Ta1 1.994644 1_555
O8 Ta3 1.984855 1_455
O8 Ti0 1.996737 1_556
O9 Ta2 1.984854 1_455
O9 Ti1 1.996764 1_555
O10 Ta2 1.984943 1_555
O10 Ti0 1.997196 1_555
O11 Ta3 1.984925 1_555
O11 Ti1 1.997176 1_555
O12 Ta0 1.984828 1_555
O12 Ti2 1.996747 1_556
O13 Ta1 1.984846 1_555
O13 Ti3 1.996804 1_555
O14 Ta0 1.984923 1_555
O14 Ti3 1.997150 1_655
O15 Ta1 1.984930 1_555
O15 Ti2 1.997209 1_655
O16 Ti3 1.954017 1_555
O16 Ta0 2.019274 1_555
O17 Ti2 1.953994 1_555
O17 Ta1 2.019431 1_555
O18 Ti2 1.954686 1_656
O18 Ta0 2.019944 1_555
O19 Ti3 1.954631 1_655
O19 Ta1 2.020162 1_555
O20 Ti0 1.953920 1_555
O20 Ta2 2.019497 1_455
O21 Ti1 1.954003 1_555
O21 Ta3 2.019270 1_455
O22 Ti0 1.954602 1_556
O22 Ta3 2.020134 1_555
O23 Ti1 1.954591 1_555
O23 Ta2 2.020145 1_555
