# generated using pymatgen
data_Er(PPd)2
_symmetry_space_group_name_H-M   'P 1'
_cell_length_a   5.73922852
_cell_length_b   5.73922852
_cell_length_c   5.73922852
_cell_angle_alpha   138.29853074
_cell_angle_beta   138.29853074
_cell_angle_gamma   60.44609127
_symmetry_Int_Tables_number   1
_chemical_formula_structural   Er(PPd)2
_chemical_formula_sum   'Er1 P2 Pd2'
_cell_volume   82.77726858
_cell_formula_units_Z   1
loop_
 _symmetry_equiv_pos_site_id
 _symmetry_equiv_pos_as_xyz
  1  'x, y, z'
loop_
 _atom_site_type_symbol
 _atom_site_label
 _atom_site_symmetry_multiplicity
 _atom_site_fract_x
 _atom_site_fract_y
 _atom_site_fract_z
 _atom_site_occupancy
  Er  Er0  1  0.00000000  0.00000000  0.00000000  1
  P  P0  1  0.38963800  0.38963800  0.00000000  1
  P  P1  1  0.61036200  0.61036200  0.00000000  1
  Pd  Pd0  1  0.75000000  0.25000000  0.50000000  1
  Pd  Pd1  1  0.25000000  0.75000000  0.50000000  1
loop_
_geom_bond_atom_site_label_1
_geom_bond_atom_site_label_2
_geom_bond_distance
_geom_bond_site_symmetry_2
Er0 P1 3.089356 1_556
Er0 P0 3.089356 1_444
Er0 P0 3.089356 1_455
Er0 P1 3.089356 1_444
Er0 P0 3.089356 1_545
Er0 P1 3.089356 1_455
Er0 P1 3.089356 1_545
Er0 P0 3.089356 1_556
Er0 Pd1 3.212660 1_555
Er0 Pd1 3.212660 1_545
Er0 Pd1 3.212660 1_544
Er0 Pd1 3.212660 1_444
Er0 Pd0 3.212660 1_455
Er0 Pd0 3.212660 1_454
Er0 Pd0 3.212660 1_555
Er0 Pd0 3.212660 1_444
P0 P1 2.189189 1_555
P0 Pd1 2.468017 1_544
P0 Pd0 2.468017 1_454
P0 Pd0 2.468017 1_555
P0 Pd1 2.468017 1_555
P1 Pd0 2.468017 1_565
P1 Pd1 2.468017 1_554
P1 Pd1 2.468017 1_655
P1 Pd0 2.468017 1_554
Pd0 Pd1 2.888941 1_656
Pd0 Pd1 2.888941 1_544
Pd0 Pd1 2.888941 1_645
Pd0 Pd1 2.888941 1_555
