# generated using pymatgen
data_YbIn2Pt
_symmetry_space_group_name_H-M   'P 1'
_cell_length_a   5.61185760
_cell_length_b   5.61185760
_cell_length_c   7.58184083
_cell_angle_alpha   90.00000000
_cell_angle_beta   90.00000000
_cell_angle_gamma   133.94160225
_symmetry_Int_Tables_number   1
_chemical_formula_structural   YbIn2Pt
_chemical_formula_sum   'Yb2 In4 Pt2'
_cell_volume   171.92897010
_cell_formula_units_Z   2
loop_
 _symmetry_equiv_pos_site_id
 _symmetry_equiv_pos_as_xyz
  1  'x, y, z'
loop_
 _atom_site_type_symbol
 _atom_site_label
 _atom_site_symmetry_multiplicity
 _atom_site_fract_x
 _atom_site_fract_y
 _atom_site_fract_z
 _atom_site_occupancy
  Yb  Yb0  1  0.57398310  0.42601690  0.25000000  1
  Yb  Yb1  1  0.42601690  0.57398310  0.75000000  1
  In  In0  1  0.86303724  0.13696276  0.45092756  1
  In  In1  1  0.13696276  0.86303724  0.54907244  1
  In  In2  1  0.86303724  0.13696276  0.04907244  1
  In  In3  1  0.13696276  0.86303724  0.95092756  1
  Pt  Pt0  1  0.28664988  0.71335012  0.25000000  1
  Pt  Pt1  1  0.71335012  0.28664988  0.75000000  1
loop_
_geom_bond_atom_site_label_1
_geom_bond_atom_site_label_2
_geom_bond_distance
_geom_bond_site_symmetry_2
In0 Pt1 2.744493 1_555
In0 Pt0 2.786200 1_655
In0 Pt0 2.786200 1_545
In0 Yb1 3.222490 1_545
In0 Yb1 3.222490 1_655
In0 Yb0 3.351899 1_555
In0 Yb0 3.447900 1_655
In0 Yb0 3.447900 1_545
In1 Pt0 2.744493 1_555
In1 Pt1 2.786200 1_455
In1 Pt1 2.786200 1_565
In1 Yb0 3.222490 1_455
In1 Yb0 3.222490 1_565
In1 Yb1 3.351899 1_555
In1 Yb1 3.447900 1_565
In1 Yb1 3.447900 1_455
In2 Pt1 2.744493 1_554
In2 Pt0 2.786200 1_655
In2 Pt0 2.786200 1_545
In2 Yb1 3.222490 1_544
In2 Yb1 3.222490 1_654
In2 Yb0 3.351899 1_555
In2 Yb0 3.447900 1_655
In2 Yb0 3.447900 1_545
In3 Pt0 2.744493 1_556
In3 Pt1 2.786200 1_565
In3 Pt1 2.786200 1_455
In3 Yb0 3.222490 1_456
In3 Yb0 3.222490 1_566
In3 Yb1 3.351899 1_555
In3 Yb1 3.447900 1_565
In3 Yb1 3.447900 1_455
Pt0 Yb0 2.967936 1_555
Pt0 Yb0 3.105647 1_455
Pt0 Yb0 3.105647 1_565
Pt1 Yb1 2.967936 1_555
Pt1 Yb1 3.105647 1_545
Pt1 Yb1 3.105647 1_655
