# generated using pymatgen
data_HoMgTl
_symmetry_space_group_name_H-M   'P 1'
_cell_length_a   7.48036899
_cell_length_b   7.48036899
_cell_length_c   4.61334163
_cell_angle_alpha   90.00000000
_cell_angle_beta   90.00000000
_cell_angle_gamma   119.99999228
_symmetry_Int_Tables_number   1
_chemical_formula_structural   HoMgTl
_chemical_formula_sum   'Ho3 Mg3 Tl3'
_cell_volume   223.55908524
_cell_formula_units_Z   3
loop_
 _symmetry_equiv_pos_site_id
 _symmetry_equiv_pos_as_xyz
  1  'x, y, z'
loop_
 _atom_site_type_symbol
 _atom_site_label
 _atom_site_symmetry_multiplicity
 _atom_site_fract_x
 _atom_site_fract_y
 _atom_site_fract_z
 _atom_site_occupancy
  Ho  Ho0  1  0.57072564  -0.00000000  -0.00000000  1
  Ho  Ho1  1  -0.00000000  0.57072564  0.00000000  1
  Ho  Ho2  1  0.42927436  0.42927436  0.00000000  1
  Mg  Mg0  1  0.24309476  -0.00000000  0.50000000  1
  Mg  Mg1  1  -0.00000000  0.24309476  0.50000000  1
  Mg  Mg2  1  0.75690524  0.75690524  0.50000000  1
  Tl  Tl0  1  0.33333300  0.66666700  0.50000000  1
  Tl  Tl1  1  0.66666700  0.33333300  0.50000000  1
  Tl  Tl2  1  0.00000000  0.00000000  -0.00000000  1
loop_
_geom_bond_atom_site_label_1
_geom_bond_atom_site_label_2
_geom_bond_distance
_geom_bond_site_symmetry_2
Ho0 Tl1 3.203687 1_555
Ho0 Tl1 3.203687 1_554
Ho0 Tl0 3.203688 1_545
Ho0 Tl0 3.203688 1_544
Ho0 Tl2 3.211131 1_655
Ho1 Tl0 3.203687 1_555
Ho1 Tl0 3.203687 1_554
Ho1 Tl1 3.203688 1_455
Ho1 Tl1 3.203688 1_454
Ho1 Tl2 3.211131 1_565
Ho2 Tl0 3.203692 1_555
Ho2 Tl1 3.203692 1_555
Ho2 Tl0 3.203692 1_554
Ho2 Tl1 3.203692 1_554
Ho2 Tl2 3.211131 1_555
Mg0 Tl0 2.890688 1_545
Mg0 Tl1 2.890693 1_555
Mg0 Tl2 2.937252 1_555
Mg0 Tl2 2.937252 1_556
Mg1 Tl1 2.890688 1_455
Mg1 Tl0 2.890693 1_555
Mg1 Tl2 2.937252 1_555
Mg1 Tl2 2.937252 1_556
Mg2 Tl1 2.890695 1_555
Mg2 Tl0 2.890695 1_555
Mg2 Tl2 2.937252 1_665
Mg2 Tl2 2.937252 1_666
