# generated using pymatgen
data_Nd2Co7
_symmetry_space_group_name_H-M   'P 1'
_cell_length_a   4.97901570
_cell_length_b   4.97901500
_cell_length_c   12.48419988
_cell_angle_alpha   78.49738259
_cell_angle_beta   78.49738282
_cell_angle_gamma   59.99999803
_symmetry_Int_Tables_number   1
_chemical_formula_structural   Nd2Co7
_chemical_formula_sum   'Nd4 Co14'
_cell_volume   260.82459471
_cell_formula_units_Z   2
loop_
 _symmetry_equiv_pos_site_id
 _symmetry_equiv_pos_as_xyz
  1  'x, y, z'
loop_
 _atom_site_type_symbol
 _atom_site_label
 _atom_site_symmetry_multiplicity
 _atom_site_fract_x
 _atom_site_fract_y
 _atom_site_fract_z
 _atom_site_occupancy
  Nd  Nd0  1  0.94847400  0.94847400  0.15457800  1
  Nd  Nd1  1  0.05152600  0.05152600  0.84542200  1
  Nd  Nd2  1  0.85169500  0.85169500  0.44491400  1
  Nd  Nd3  1  0.14830500  0.14830500  0.55508600  1
  Co  Co0  1  0.50000000  0.50000000  0.50000000  1
  Co  Co1  1  0.72137200  0.72137200  0.83588500  1
  Co  Co2  1  0.27862800  0.27862800  0.16411500  1
  Co  Co3  1  0.61234900  0.61234900  0.16295300  1
  Co  Co4  1  0.38765100  0.38765100  0.83704700  1
  Co  Co5  1  0.00000000  0.50000000  0.00000000  1
  Co  Co6  1  0.50000000  0.00000000  0.00000000  1
  Co  Co7  1  0.50000000  0.50000000  0.00000000  1
  Co  Co8  1  0.39404500  0.39404500  0.32329500  1
  Co  Co9  1  0.88861400  0.39404500  0.32329500  1
  Co  Co10  1  0.39404500  0.88861400  0.32329500  1
  Co  Co11  1  0.60595500  0.60595500  0.67670500  1
  Co  Co12  1  0.11138600  0.60595500  0.67670500  1
  Co  Co13  1  0.60595500  0.11138600  0.67670500  1
loop_
_geom_bond_atom_site_label_1
_geom_bond_atom_site_label_2
_geom_bond_distance
_geom_bond_site_symmetry_2
Co0 Co13 2.574829 1_555
Co0 Co10 2.574829 1_555
Co0 Co12 2.574829 1_555
Co0 Co9 2.574829 1_555
Co0 Co11 2.574831 1_555
Co0 Co8 2.574831 1_555
Co0 Nd3 2.951504 1_555
Co0 Nd2 2.951504 1_555
Co0 Nd3 2.951508 1_565
Co0 Nd2 2.951508 1_545
Co0 Nd3 2.951509 1_655
Co0 Nd2 2.951509 1_455
Co1 Co13 2.418827 1_565
Co1 Co11 2.418827 1_555
Co1 Co12 2.418827 1_655
Co1 Co6 2.457860 1_566
Co1 Co5 2.457860 1_656
Co1 Co7 2.457862 1_556
Co1 Nd1 2.876967 1_665
Co1 Nd1 2.876971 1_655
Co1 Nd1 2.876971 1_565
Co2 Co8 2.418827 1_555
Co2 Co9 2.418827 1_455
Co2 Co6 2.457860 1_555
Co2 Co5 2.457860 1_555
Co2 Co7 2.457862 1_555
Co2 Nd0 2.876967 1_445
Co2 Nd0 2.876971 1_455
Co2 Nd0 2.876971 1_545
Co3 Co9 2.411589 1_555
Co3 Co8 2.411591 1_555
Co3 Co6 2.446423 1_565
Co3 Co7 2.446423 1_555
Co3 Co5 2.446423 1_655
Co3 Nd0 2.876436 1_545
Co3 Nd0 2.876436 1_555
Co3 Nd0 2.876436 1_455
Co4 Co6 2.446423 1_556
Co4 Co7 2.446423 1_556
Co4 Co5 2.446423 1_556
Co4 Nd1 2.876436 1_565
Co4 Nd1 2.876436 1_555
Co4 Nd1 2.876436 1_655
Co5 Co6 2.489508 1_465
Co5 Co6 2.489508 1_555
Co5 Co7 2.489508 1_555
Co5 Co7 2.489508 1_455
Co5 Nd0 3.118374 1_445
Co5 Nd1 3.118374 1_564
Co5 Nd1 3.118374 1_554
Co5 Nd0 3.118374 1_455
Co6 Co7 2.489508 1_545
Co6 Co7 2.489508 1_555
Co6 Nd0 3.118374 1_445
Co6 Nd1 3.118374 1_654
Co6 Nd1 3.118374 1_554
Co6 Nd0 3.118374 1_545
Co7 Nd1 3.118374 1_564
Co7 Nd0 3.118374 1_545
Co7 Nd1 3.118374 1_654
Co7 Nd0 3.118374 1_455
Co8 Co9 2.462467 1_555
Co8 Co9 2.516549 1_455
Co8 Nd2 2.894987 1_545
Co8 Nd2 2.894987 1_455
Co8 Nd3 3.168700 1_555
Co8 Nd0 3.224772 1_455
Co8 Nd0 3.224772 1_545
Co9 Nd2 2.894987 1_545
Co9 Nd2 2.894987 1_555
Co9 Nd3 3.168704 1_655
Co9 Nd0 3.224770 1_545
Co9 Nd0 3.224774 1_555
Co10 Co3 2.411589 1_555
Co10 Co2 2.418827 1_565
Co10 Co8 2.462466 1_555
Co10 Co9 2.462467 1_555
Co10 Co8 2.516549 1_565
Co10 Co9 2.516549 1_465
Co10 Nd2 2.894987 1_455
Co10 Nd2 2.894987 1_555
Co10 Nd3 3.168704 1_565
Co10 Nd0 3.224770 1_455
Co10 Nd0 3.224774 1_555
Co11 Co4 2.411591 1_555
Co11 Co13 2.462466 1_555
Co11 Co12 2.462467 1_555
Co11 Co13 2.516549 1_565
Co11 Co12 2.516549 1_655
Co11 Nd3 2.894987 1_565
Co11 Nd3 2.894987 1_655
Co11 Nd2 3.168700 1_555
Co11 Nd1 3.224772 1_655
Co11 Nd1 3.224772 1_565
Co12 Co4 2.411589 1_555
Co12 Co13 2.462467 1_555
Co12 Co13 2.516549 1_465
Co12 Nd3 2.894987 1_565
Co12 Nd3 2.894987 1_555
Co12 Nd2 3.168704 1_455
Co12 Nd1 3.224770 1_565
Co12 Nd1 3.224774 1_555
Co13 Co4 2.411589 1_555
Co13 Nd3 2.894987 1_655
Co13 Nd3 2.894987 1_555
Co13 Nd2 3.168704 1_545
Co13 Nd1 3.224770 1_655
Co13 Nd1 3.224774 1_555
