# generated using pymatgen
data_Sr2TaMnO6
_symmetry_space_group_name_H-M   'P 1'
_cell_length_a   5.68160723
_cell_length_b   5.68160723
_cell_length_c   5.68160723
_cell_angle_alpha   60.00000000
_cell_angle_beta   60.00000000
_cell_angle_gamma   60.00000000
_symmetry_Int_Tables_number   1
_chemical_formula_structural   Sr2TaMnO6
_chemical_formula_sum   'Sr2 Ta1 Mn1 O6'
_cell_volume   129.68765124
_cell_formula_units_Z   1
loop_
 _symmetry_equiv_pos_site_id
 _symmetry_equiv_pos_as_xyz
  1  'x, y, z'
loop_
 _atom_site_type_symbol
 _atom_site_label
 _atom_site_symmetry_multiplicity
 _atom_site_fract_x
 _atom_site_fract_y
 _atom_site_fract_z
 _atom_site_occupancy
  Sr  Sr0  1  0.75000000  0.75000000  0.75000000  1
  Sr  Sr1  1  0.25000000  0.25000000  0.25000000  1
  Ta  Ta0  1  0.00000000  0.00000000  0.00000000  1
  Mn  Mn0  1  0.50000000  0.50000000  0.50000000  1
  O  O0  1  0.75263000  0.75263000  0.24737000  1
  O  O1  1  0.24737000  0.75263000  0.24737000  1
  O  O2  1  0.75263000  0.24737000  0.24737000  1
  O  O3  1  0.24737000  0.24737000  0.75263000  1
  O  O4  1  0.75263000  0.24737000  0.75263000  1
  O  O5  1  0.24737000  0.75263000  0.75263000  1
loop_
_geom_bond_atom_site_label_1
_geom_bond_atom_site_label_2
_geom_bond_distance
_geom_bond_site_symmetry_2
Mn0 O3 2.029884 1_555
Mn0 O0 2.029884 1_555
Mn0 O2 2.029884 1_555
Mn0 O1 2.029884 1_555
Mn0 O4 2.029884 1_555
Mn0 O5 2.029884 1_555
O0 Ta0 1.987619 1_665
O0 Sr1 2.840882 1_655
O0 Sr1 2.840882 1_565
O0 Sr0 2.840882 1_555
O0 Sr0 2.840882 1_554
O1 Ta0 1.987619 1_565
O1 Sr1 2.840882 1_565
O1 Sr1 2.840882 1_555
O1 Sr0 2.840882 1_455
O1 Sr0 2.840882 1_554
O2 Ta0 1.987619 1_655
O2 Sr1 2.840882 1_655
O2 Sr1 2.840882 1_555
O2 Sr0 2.840882 1_545
O2 Sr0 2.840882 1_554
O3 Ta0 1.987619 1_556
O3 Sr1 2.840882 1_555
O3 Sr1 2.840882 1_556
O3 Sr0 2.840882 1_545
O3 Sr0 2.840882 1_455
O4 Ta0 1.987619 1_656
O4 Sr1 2.840882 1_655
O4 Sr1 2.840882 1_556
O4 Sr0 2.840882 1_545
O4 Sr0 2.840882 1_555
O5 Ta0 1.987619 1_566
O5 Sr1 2.840882 1_565
O5 Sr1 2.840882 1_556
O5 Sr0 2.840882 1_455
O5 Sr0 2.840882 1_555
