# generated using pymatgen
data_Te4Mo3W(SeS)2
_symmetry_space_group_name_H-M   'P 1'
_cell_length_a   3.39838994
_cell_length_b   3.39838994
_cell_length_c   40.19722300
_cell_angle_alpha   90.00000000
_cell_angle_beta   90.00000000
_cell_angle_gamma   119.99999879
_symmetry_Int_Tables_number   1
_chemical_formula_structural   Te4Mo3W(SeS)2
_chemical_formula_sum   'Te4 Mo3 W1 Se2 S2'
_cell_volume   402.04355683
_cell_formula_units_Z   1
loop_
 _symmetry_equiv_pos_site_id
 _symmetry_equiv_pos_as_xyz
  1  'x, y, z'
loop_
 _atom_site_type_symbol
 _atom_site_label
 _atom_site_symmetry_multiplicity
 _atom_site_fract_x
 _atom_site_fract_y
 _atom_site_fract_z
 _atom_site_occupancy
  Te  Te0  1  0.00000000  0.00000000  0.32719500  1
  Te  Te1  1  0.33333300  0.66666700  0.42365800  1
  Te  Te2  1  0.33333300  0.66666700  0.51740900  1
  Te  Te3  1  0.00000000  0.00000000  0.23388300  1
  Mo  Mo0  1  0.00000000  0.00000000  0.09390700  1
  Mo  Mo1  1  0.33333300  0.66666700  0.28052300  1
  Mo  Mo2  1  0.33333300  0.66666700  0.65795100  1
  W  W0  1  0.00000000  0.00000000  0.47054500  1
  Se  Se0  1  0.00000000  0.00000000  0.69899900  1
  Se  Se1  1  0.00000000  0.00000000  0.61684700  1
  S  S0  1  0.33333300  0.66666700  0.05651000  1
  S  S1  1  0.33333300  0.66666700  0.13132000  1
loop_
_geom_bond_atom_site_label_1
_geom_bond_atom_site_label_2
_geom_bond_distance
_geom_bond_site_symmetry_2
Te1 W0 2.720638 1_565
Te1 W0 2.720641 1_665
Te1 W0 2.720641 1_555
Te2 W0 2.719998 1_565
Te2 W0 2.720000 1_555
Te2 W0 2.720000 1_665
Mo0 S0 2.471731 1_545
Mo0 S0 2.471733 1_555
Mo0 S0 2.471733 1_445
Mo0 S1 2.472122 1_545
Mo0 S1 2.472125 1_555
Mo0 S1 2.472125 1_445
Mo1 Te3 2.713770 1_565
Mo1 Te3 2.713772 1_665
Mo1 Te3 2.713772 1_555
Mo1 Te0 2.714659 1_565
Mo1 Te0 2.714661 1_555
Mo1 Te0 2.714661 1_665
Mo2 Se0 2.563636 1_565
Mo2 Se0 2.563638 1_555
Mo2 Se0 2.563638 1_665
Mo2 Se1 2.565085 1_565
Mo2 Se1 2.565087 1_665
Mo2 Se1 2.565087 1_555
