# generated using pymatgen
data_LuMgSe3
_symmetry_space_group_name_H-M   'P 1'
_cell_length_a   8.15340640
_cell_length_b   11.84292776
_cell_length_c   7.27374043
_cell_angle_alpha   90.00000000
_cell_angle_beta   130.47385083
_cell_angle_gamma   90.00000000
_symmetry_Int_Tables_number   1
_chemical_formula_structural   LuMgSe3
_chemical_formula_sum   'Lu4 Mg4 Se12'
_cell_volume   534.28218213
_cell_formula_units_Z   4
loop_
 _symmetry_equiv_pos_site_id
 _symmetry_equiv_pos_as_xyz
  1  'x, y, z'
loop_
 _atom_site_type_symbol
 _atom_site_label
 _atom_site_symmetry_multiplicity
 _atom_site_fract_x
 _atom_site_fract_y
 _atom_site_fract_z
 _atom_site_occupancy
  Lu  Lu0  1  0.99831352  0.00000000  0.22106132  1
  Lu  Lu1  1  0.00168648  0.00000000  0.77893868  1
  Lu  Lu2  1  0.49831352  0.50000000  0.22106132  1
  Lu  Lu3  1  0.50168648  0.50000000  0.77893868  1
  Mg  Mg0  1  -0.00000000  0.33094339  -0.00000000  1
  Mg  Mg1  1  -0.00000000  0.66905661  -0.00000000  1
  Mg  Mg2  1  0.50000000  0.83094339  -0.00000000  1
  Mg  Mg3  1  0.50000000  0.16905661  -0.00000000  1
  Se  Se0  1  0.24997866  0.15319761  0.21467495  1
  Se  Se1  1  0.75002134  0.84680239  0.78532505  1
  Se  Se2  1  0.75002134  0.15319761  0.78532505  1
  Se  Se3  1  0.24997866  0.84680239  0.21467495  1
  Se  Se4  1  0.74997866  0.65319761  0.21467495  1
  Se  Se5  1  0.25002134  0.34680239  0.78532505  1
  Se  Se6  1  0.25002134  0.65319761  0.78532505  1
  Se  Se7  1  0.74997866  0.34680239  0.21467495  1
  Se  Se8  1  0.28735941  0.00000000  0.70599428  1
  Se  Se9  1  0.71264059  0.00000000  0.29400572  1
  Se  Se10  1  0.78735941  0.50000000  0.70599428  1
  Se  Se11  1  0.21264059  0.50000000  0.29400572  1
loop_
_geom_bond_atom_site_label_1
_geom_bond_atom_site_label_2
_geom_bond_distance
_geom_bond_site_symmetry_2
Lu0 Se8 2.684047 1_655
Lu0 Se9 2.703900 1_555
Lu0 Se0 2.761888 1_655
Lu0 Se3 2.761888 1_645
Lu0 Se2 3.017563 1_554
Lu0 Se1 3.017563 1_544
Lu1 Se9 2.684047 1_455
Lu1 Se8 2.703900 1_555
Lu1 Se1 2.761888 1_445
Lu1 Se2 2.761888 1_455
Lu1 Se3 3.017563 1_546
Lu1 Se0 3.017563 1_556
Lu2 Se10 2.684047 1_555
Lu2 Se11 2.703900 1_555
Lu2 Se7 2.761888 1_555
Lu2 Se4 2.761888 1_555
Lu2 Se5 3.017563 1_554
Lu2 Se6 3.017563 1_554
Lu3 Se11 2.684047 1_555
Lu3 Se10 2.703900 1_555
Lu3 Se5 2.761888 1_555
Lu3 Se6 2.761888 1_555
Lu3 Se4 3.017563 1_556
Lu3 Se7 3.017563 1_556
Mg0 Se10 2.602762 1_454
Mg0 Se11 2.602762 1_555
Mg0 Se2 2.625247 1_454
Mg0 Se0 2.625247 1_555
Mg0 Se7 3.280467 1_455
Mg0 Se5 3.280467 1_554
Mg1 Se11 2.602762 1_555
Mg1 Se10 2.602762 1_454
Mg1 Se1 2.625247 1_454
Mg1 Se3 2.625247 1_555
Mg1 Se6 3.280467 1_554
Mg1 Se4 3.280467 1_455
Mg2 Se8 2.602762 1_564
Mg2 Se9 2.602762 1_565
Mg2 Se4 2.625247 1_555
Mg2 Se6 2.625247 1_554
Mg2 Se1 3.280467 1_554
Mg2 Se3 3.280467 1_555
Mg3 Se8 2.602762 1_554
Mg3 Se9 2.602762 1_555
Mg3 Se7 2.625247 1_555
Mg3 Se5 2.625247 1_554
Mg3 Se2 3.280467 1_554
Mg3 Se0 3.280467 1_555
