# generated using pymatgen
data_TbCuSn
_symmetry_space_group_name_H-M   'P 1'
_cell_length_a   4.51539607
_cell_length_b   4.51539607
_cell_length_c   7.33101947
_cell_angle_alpha   90.00000000
_cell_angle_beta   90.00000000
_cell_angle_gamma   120.00002394
_symmetry_Int_Tables_number   1
_chemical_formula_structural   TbCuSn
_chemical_formula_sum   'Tb2 Cu2 Sn2'
_cell_volume   129.44539406
_cell_formula_units_Z   2
loop_
 _symmetry_equiv_pos_site_id
 _symmetry_equiv_pos_as_xyz
  1  'x, y, z'
loop_
 _atom_site_type_symbol
 _atom_site_label
 _atom_site_symmetry_multiplicity
 _atom_site_fract_x
 _atom_site_fract_y
 _atom_site_fract_z
 _atom_site_occupancy
  Tb  Tb0  1  0.00000000  -0.00000000  0.03620607  1
  Tb  Tb1  1  0.00000000  -0.00000000  0.53620607  1
  Cu  Cu0  1  0.66666700  0.33333300  0.71335754  1
  Cu  Cu1  1  0.33333300  0.66666700  0.21335754  1
  Sn  Sn0  1  0.66666700  0.33333300  0.30543739  1
  Sn  Sn1  1  0.33333300  0.66666700  0.80543739  1
loop_
_geom_bond_atom_site_label_1
_geom_bond_atom_site_label_2
_geom_bond_distance
_geom_bond_site_symmetry_2
Cu0 Sn1 2.692940 1_545
Cu0 Sn1 2.692940 1_655
Cu0 Sn1 2.692949 1_555
Cu0 Tb1 2.912538 1_655
Cu0 Tb1 2.912541 1_555
Cu0 Tb1 2.912541 1_665
Cu0 Sn0 2.990471 1_555
Cu0 Tb0 3.521085 1_656
Cu0 Tb0 3.521087 1_556
Cu0 Tb0 3.521087 1_666
Cu1 Sn0 2.692940 1_455
Cu1 Sn0 2.692940 1_565
Cu1 Sn0 2.692949 1_555
Cu1 Tb0 2.912538 1_565
Cu1 Tb0 2.912541 1_555
Cu1 Tb0 2.912541 1_665
Cu1 Sn1 2.990471 1_554
Cu1 Tb1 3.521085 1_565
Cu1 Tb1 3.521087 1_555
Cu1 Tb1 3.521087 1_665
Sn0 Tb1 3.107787 1_655
Sn0 Tb1 3.107789 1_555
Sn0 Tb1 3.107789 1_665
Sn0 Tb0 3.269848 1_655
Sn0 Tb0 3.269850 1_555
Sn0 Tb0 3.269850 1_665
Sn1 Tb0 3.107787 1_566
Sn1 Tb0 3.107789 1_666
Sn1 Tb0 3.107789 1_556
Sn1 Tb1 3.269848 1_565
Sn1 Tb1 3.269850 1_665
Sn1 Tb1 3.269850 1_555
