# generated using pymatgen
data_NaBrO2
_symmetry_space_group_name_H-M   'P 1'
_cell_length_a   10.90258000
_cell_length_b   4.33187900
_cell_length_c   7.06394816
_cell_angle_alpha   65.93473951
_cell_angle_beta   90.00000000
_cell_angle_gamma   90.00000000
_symmetry_Int_Tables_number   1
_chemical_formula_structural   NaBrO2
_chemical_formula_sum   'Na4 Br4 O8'
_cell_volume   304.62299798
_cell_formula_units_Z   4
loop_
 _symmetry_equiv_pos_site_id
 _symmetry_equiv_pos_as_xyz
  1  'x, y, z'
loop_
 _atom_site_type_symbol
 _atom_site_label
 _atom_site_symmetry_multiplicity
 _atom_site_fract_x
 _atom_site_fract_y
 _atom_site_fract_z
 _atom_site_occupancy
  Na  Na0  1  0.66496500  0.04565900  0.94556500  1
  Na  Na1  1  0.16496500  0.95434100  0.55443500  1
  Na  Na2  1  0.33503500  0.95434100  0.05443500  1
  Na  Na3  1  0.83503500  0.04565900  0.44556500  1
  Br  Br0  1  0.43809500  0.65699900  0.71429000  1
  Br  Br1  1  0.93809500  0.34300100  0.78571000  1
  Br  Br2  1  0.56190500  0.34300100  0.28571000  1
  Br  Br3  1  0.06190500  0.65699900  0.21429000  1
  O  O0  1  0.79817500  0.37346900  0.65218600  1
  O  O1  1  0.29817500  0.62653100  0.84781400  1
  O  O2  1  0.20182500  0.62653100  0.34781400  1
  O  O3  1  0.70182500  0.37346900  0.15218600  1
  O  O4  1  0.97487800  0.76276400  0.73959400  1
  O  O5  1  0.47487800  0.23723600  0.76040600  1
  O  O6  1  0.02512200  0.23723600  0.26040600  1
  O  O7  1  0.52512200  0.76276400  0.23959400  1
loop_
_geom_bond_atom_site_label_1
_geom_bond_atom_site_label_2
_geom_bond_distance
_geom_bond_site_symmetry_2
Na0 O5 2.410231 1_555
Na0 O3 2.449213 1_556
Na0 O0 2.453686 1_555
Na0 O7 2.462610 1_546
Na0 O3 2.702692 1_546
Na1 O4 2.410231 1_455
Na1 O2 2.449213 1_555
Na1 O1 2.453686 1_555
Na1 O6 2.462610 1_565
Na1 O2 2.702692 1_565
Na2 O7 2.410231 1_555
Na2 O1 2.449213 1_554
Na2 O2 2.453686 1_555
Na2 O5 2.462610 1_564
Na2 O1 2.702692 1_564
Na3 O6 2.410231 1_655
Na3 O0 2.449213 1_555
Na3 O3 2.453686 1_555
Na3 O4 2.462610 1_545
Na3 O0 2.702692 1_545
Br0 O5 1.757923 1_555
Br0 O1 1.769929 1_555
Br1 O4 1.757923 1_555
Br1 O0 1.769929 1_555
Br2 O7 1.757923 1_555
Br2 O3 1.769929 1_555
Br3 O6 1.757923 1_555
Br3 O2 1.769929 1_555
