# generated using pymatgen
data_Li4MnCo2O7
_symmetry_space_group_name_H-M   'P 1'
_cell_length_a   2.97817500
_cell_length_b   8.08496610
_cell_length_c   10.67428049
_cell_angle_alpha   78.32814455
_cell_angle_beta   85.99897317
_cell_angle_gamma   89.05352025
_symmetry_Int_Tables_number   1
_chemical_formula_structural   Li4MnCo2O7
_chemical_formula_sum   'Li8 Mn2 Co4 O14'
_cell_volume   251.09126568
_cell_formula_units_Z   2
loop_
 _symmetry_equiv_pos_site_id
 _symmetry_equiv_pos_as_xyz
  1  'x, y, z'
loop_
 _atom_site_type_symbol
 _atom_site_label
 _atom_site_symmetry_multiplicity
 _atom_site_fract_x
 _atom_site_fract_y
 _atom_site_fract_z
 _atom_site_occupancy
  Li  Li0  1  0.14921600  0.07444300  0.71015400  1
  Li  Li1  1  0.84905000  0.92299200  0.28605100  1
  Li  Li2  1  0.55868800  0.77980200  0.86453200  1
  Li  Li3  1  0.71683700  0.35755400  0.57093000  1
  Li  Li4  1  0.43186700  0.21791400  0.14232300  1
  Li  Li5  1  0.29282200  0.63723600  0.42753600  1
  Li  Li6  1  0.99736100  0.50919900  0.00439400  1
  Li  Li7  1  0.44230700  0.71086200  0.13613900  1
  Mn  Mn0  1  0.99494400  0.99249900  0.00336200  1
  Mn  Mn1  1  0.71235200  0.85702100  0.57040200  1
  Co  Co0  1  0.13721600  0.57034400  0.71603500  1
  Co  Co1  1  0.86622700  0.44006000  0.28008900  1
  Co  Co2  1  0.55817000  0.28700600  0.85992200  1
  Co  Co3  1  0.29110500  0.14604700  0.42661600  1
  O  O0  1  0.53483600  0.04239800  0.87431300  1
  O  O1  1  0.31552600  0.90693100  0.42684400  1
  O  O2  1  0.00785900  0.76737600  0.99784700  1
  O  O3  1  0.16354400  0.32954300  0.72291400  1
  O  O4  1  0.88406400  0.19631400  0.29315900  1
  O  O5  1  0.73951300  0.61212900  0.57891300  1
  O  O6  1  0.45117200  0.45919800  0.15526500  1
  O  O7  1  0.68583900  0.10086800  0.56629900  1
  O  O8  1  0.46313900  0.96986800  0.12495200  1
  O  O9  1  0.11660200  0.81165400  0.70916700  1
  O  O10  1  0.26523800  0.38105500  0.42122100  1
  O  O11  1  0.97313500  0.24278000  0.99054200  1
  O  O12  1  0.85049800  0.65107700  0.29104800  1
  O  O13  1  0.55087400  0.52582800  0.84903100  1
loop_
_geom_bond_atom_site_label_1
_geom_bond_atom_site_label_2
_geom_bond_distance
_geom_bond_site_symmetry_2
Li0 O3 2.095604 1_555
Li0 O7 2.112165 1_455
Li0 O7 2.119845 1_555
Li0 O9 2.130647 1_545
Li0 O0 2.131628 1_555
Li0 O0 2.422824 1_455
Li1 O1 2.096372 1_555
Li1 O1 2.100454 1_655
Li1 O8 2.102224 1_555
Li1 O12 2.188196 1_555
Li1 O4 2.230784 1_565
Li1 O8 2.401206 1_655
Li2 O2 2.006980 1_655
Li2 O2 2.085209 1_555
Li2 O13 2.093762 1_555
Li2 O0 2.146412 1_565
Li2 O9 2.161203 1_555
Li2 O9 2.243711 1_655
Li3 O5 2.079541 1_555
Li3 O7 2.089569 1_555
Li3 O10 2.137128 1_555
Li3 O3 2.143753 1_655
Li3 O10 2.186425 1_655
Li3 O3 2.211128 1_555
Li4 O6 1.985386 1_555
Li4 O8 2.051033 1_545
Li4 O4 2.148841 1_555
Li4 O11 2.167900 1_454
Li4 O11 2.185930 1_554
Li4 O4 2.193977 1_455
Li5 O12 2.016787 1_455
Li5 O10 2.089045 1_555
Li5 O12 2.120392 1_555
Li5 O5 2.140151 1_555
Li5 O1 2.181142 1_555
Li5 O5 2.207787 1_455
Li6 O2 2.075025 1_654
Li6 O6 2.146122 1_655
Li6 O13 2.179010 1_554
Li6 O6 2.189900 1_555
Li6 O11 2.191397 1_554
Li6 O13 2.240838 1_654
Li7 O6 2.003313 1_555
Li7 O2 2.008984 1_554
Li7 O8 2.074911 1_555
Li7 O12 2.093655 1_555
Li7 O2 2.151815 1_654
Li7 O12 2.317831 1_455
Mn0 O2 1.832615 1_654
Mn0 O8 1.951993 1_655
Mn0 O8 1.962923 1_555
Mn0 O0 1.989533 1_564
Mn0 O11 2.000602 1_564
Mn0 O0 2.033000 1_664
Mn1 O9 1.947414 1_655
Mn1 O7 1.963504 1_565
Mn1 O5 1.964161 1_555
Mn1 O1 1.973444 1_555
Mn1 O9 2.216174 1_555
Mn1 O1 2.264406 1_655
Co0 O13 1.919706 1_555
Co0 O5 1.920415 1_455
Co0 O3 1.933844 1_555
Co0 O9 1.937596 1_555
Co0 O13 2.159237 1_455
Co0 O5 2.219815 1_555
Co1 O12 1.733171 1_555
Co1 O6 1.862071 1_555
Co1 O4 1.947355 1_555
Co1 O10 1.962012 1_655
Co1 O6 2.106093 1_655
Co1 O10 2.249841 1_555
Co2 O11 1.903494 1_555
Co2 O13 1.910597 1_555
Co2 O3 1.913456 1_555
Co2 O0 1.954392 1_555
Co2 O11 2.141834 1_455
Co2 O3 2.226340 1_655
Co3 O10 1.889678 1_555
Co3 O4 1.911679 1_455
Co3 O1 1.932927 1_545
Co3 O7 1.936133 1_555
Co3 O4 2.179784 1_555
Co3 O7 2.243257 1_455
