# generated using pymatgen
data_PrMn7O12
_symmetry_space_group_name_H-M   'P 1'
_cell_length_a   6.56593268
_cell_length_b   6.56593268
_cell_length_c   6.56593268
_cell_angle_alpha   109.47122063
_cell_angle_beta   109.47122063
_cell_angle_gamma   109.47122063
_symmetry_Int_Tables_number   1
_chemical_formula_structural   PrMn7O12
_chemical_formula_sum   'Pr1 Mn7 O12'
_cell_volume   217.90509556
_cell_formula_units_Z   1
loop_
 _symmetry_equiv_pos_site_id
 _symmetry_equiv_pos_as_xyz
  1  'x, y, z'
loop_
 _atom_site_type_symbol
 _atom_site_label
 _atom_site_symmetry_multiplicity
 _atom_site_fract_x
 _atom_site_fract_y
 _atom_site_fract_z
 _atom_site_occupancy
  Pr  Pr0  1  0.00000000  0.00000000  0.00000000  1
  Mn  Mn0  1  0.50000000  0.00000000  0.00000000  1
  Mn  Mn1  1  0.00000000  0.00000000  0.50000000  1
  Mn  Mn2  1  0.00000000  0.50000000  0.50000000  1
  Mn  Mn3  1  0.50000000  0.50000000  0.50000000  1
  Mn  Mn4  1  0.00000000  0.50000000  0.00000000  1
  Mn  Mn5  1  0.50000000  0.50000000  0.00000000  1
  Mn  Mn6  1  0.50000000  0.00000000  0.50000000  1
  O  O0  1  0.30725100  0.82454700  0.13179800  1
  O  O1  1  0.82454700  0.51729600  0.69274900  1
  O  O2  1  0.82454700  0.13179800  0.30725100  1
  O  O3  1  0.17545300  0.48270400  0.30725100  1
  O  O4  1  0.13179800  0.30725100  0.82454700  1
  O  O5  1  0.48270400  0.30725100  0.17545300  1
  O  O6  1  0.86820200  0.69274900  0.17545300  1
  O  O7  1  0.51729600  0.69274900  0.82454700  1
  O  O8  1  0.69274900  0.82454700  0.51729600  1
  O  O9  1  0.30725100  0.17545300  0.48270400  1
  O  O10  1  0.17545300  0.86820200  0.69274900  1
  O  O11  1  0.69274900  0.17545300  0.86820200  1
loop_
_geom_bond_atom_site_label_1
_geom_bond_atom_site_label_2
_geom_bond_distance
_geom_bond_site_symmetry_2
Mn0 O2 2.024962 1_555
Mn0 O10 2.024962 1_544
Mn0 O7 2.024962 1_544
Mn0 O0 2.024962 1_545
Mn0 O5 2.024962 1_555
Mn0 O11 2.024962 1_554
Mn1 O4 2.024962 1_555
Mn1 O6 2.024962 1_445
Mn1 O8 2.024962 1_445
Mn1 O2 2.024962 1_455
Mn1 O9 2.024962 1_555
Mn1 O10 2.024962 1_545
Mn2 O10 1.976130 1_555
Mn2 O2 1.976130 1_455
Mn2 O3 1.976130 1_555
Mn2 O1 1.976130 1_455
Mn3 O1 2.024962 1_555
Mn3 O8 2.024962 1_555
Mn3 O7 2.024962 1_555
Mn3 O3 2.024962 1_555
Mn3 O9 2.024962 1_555
Mn3 O5 2.024962 1_555
Mn4 O0 2.024962 1_555
Mn4 O11 2.024962 1_454
Mn4 O1 2.024962 1_454
Mn4 O4 2.024962 1_554
Mn4 O3 2.024962 1_555
Mn4 O6 2.024962 1_455
Mn5 O6 1.976130 1_555
Mn5 O4 1.976130 1_554
Mn5 O5 1.976130 1_555
Mn5 O7 1.976130 1_554
Mn6 O11 1.976130 1_555
Mn6 O0 1.976130 1_545
Mn6 O9 1.976130 1_555
Mn6 O8 1.976130 1_545
O0 Pr0 2.682534 1_565
O1 Pr0 2.682534 1_666
O2 Pr0 2.682534 1_655
O3 Pr0 2.682534 1_555
O4 Pr0 2.682534 1_556
O5 Pr0 2.682534 1_555
O6 Pr0 2.682534 1_665
O7 Pr0 2.682534 1_666
O8 Pr0 2.682534 1_666
O9 Pr0 2.682534 1_555
O10 Pr0 2.682534 1_566
O11 Pr0 2.682534 1_656
