# generated using pymatgen
data_Sm5Ga3
_symmetry_space_group_name_H-M   'P 1'
_cell_length_a   9.06871962
_cell_length_b   9.06871962
_cell_length_c   9.06755488
_cell_angle_alpha   129.31518728
_cell_angle_beta   129.31518728
_cell_angle_gamma   74.51748361
_symmetry_Int_Tables_number   1
_chemical_formula_structural   Sm5Ga3
_chemical_formula_sum   'Sm10 Ga6'
_cell_volume   434.95864262
_cell_formula_units_Z   2
loop_
 _symmetry_equiv_pos_site_id
 _symmetry_equiv_pos_as_xyz
  1  'x, y, z'
loop_
 _atom_site_type_symbol
 _atom_site_label
 _atom_site_symmetry_multiplicity
 _atom_site_fract_x
 _atom_site_fract_y
 _atom_site_fract_z
 _atom_site_occupancy
  Sm  Sm0  1  0.50000000  0.50000000  0.00000000  1
  Sm  Sm1  1  0.00000000  0.00000000  0.00000000  1
  Sm  Sm2  1  0.52493737  0.02493737  0.84616264  1
  Sm  Sm3  1  0.17872528  0.67872528  0.15357189  1
  Sm  Sm4  1  0.02528666  0.17862801  0.50012534  1
  Sm  Sm5  1  0.67862801  0.52528666  0.50012534  1
  Sm  Sm6  1  0.47506263  0.97506263  0.15383736  1
  Sm  Sm7  1  0.82127472  0.32127472  0.84642811  1
  Sm  Sm8  1  0.97471334  0.82137199  0.49987466  1
  Sm  Sm9  1  0.32137199  0.47471334  0.49987466  1
  Ga  Ga0  1  0.24996442  0.25003558  0.00000000  1
  Ga  Ga1  1  0.75003558  0.74996442  0.00000000  1
  Ga  Ga2  1  0.88205253  0.38205253  0.26411086  1
  Ga  Ga3  1  0.11794747  0.61794747  0.73588914  1
  Ga  Ga4  1  0.38199667  0.11800333  0.50000000  1
  Ga  Ga5  1  0.61800333  0.88199667  0.50000000  1
loop_
_geom_bond_atom_site_label_1
_geom_bond_atom_site_label_2
_geom_bond_distance
_geom_bond_site_symmetry_2
Sm0 Sm8 3.578362 1_555
Sm0 Sm4 3.578362 1_554
Sm0 Sm5 3.579638 1_555
Sm0 Sm9 3.579638 1_554
Sm0 Sm7 3.579784 1_554
Sm0 Sm3 3.579784 1_555
Sm0 Sm2 3.580777 1_554
Sm0 Sm6 3.580777 1_555
Sm1 Sm5 3.578362 1_444
Sm1 Sm9 3.578362 1_555
Sm1 Sm4 3.579638 1_555
Sm1 Sm8 3.579638 1_444
Sm1 Sm7 3.579784 1_454
Sm1 Sm3 3.579784 1_545
Sm1 Sm6 3.580777 1_545
Sm1 Sm2 3.580777 1_454
Sm2 Sm6 3.391112 1_546
Sm3 Sm7 3.391552 1_454
Sm4 Sm8 3.389641 1_445
Sm5 Sm9 3.389641 1_555
Ga0 Sm9 3.224574 1_555
Ga0 Sm4 3.224574 1_554
Ga0 Sm8 3.225780 1_444
Ga0 Sm5 3.225780 1_555
Ga0 Sm7 3.226372 1_454
Ga0 Sm3 3.226372 1_555
Ga0 Sm6 3.226921 1_545
Ga0 Sm2 3.226921 1_554
Ga0 Sm1 3.608941 1_555
Ga0 Sm0 3.608941 1_555
Ga1 Sm8 3.224574 1_555
Ga1 Sm5 3.224574 1_554
Ga1 Sm9 3.225780 1_554
Ga1 Sm4 3.225780 1_665
Ga1 Sm7 3.226372 1_554
Ga1 Sm3 3.226372 1_655
Ga1 Sm2 3.226921 1_564
Ga1 Sm6 3.226921 1_555
Ga1 Sm1 3.608941 1_665
Ga1 Sm0 3.608941 1_555
Ga2 Ga3 2.589087 1_655
Ga2 Sm1 3.104318 1_655
Ga2 Sm0 3.104318 1_555
Ga2 Sm7 3.134236 1_554
Ga2 Sm2 3.135853 1_554
Ga2 Sm9 3.141246 1_655
Ga2 Sm8 3.141246 1_555
Ga2 Sm4 3.141875 1_655
Ga2 Sm5 3.141875 1_555
Ga3 Sm1 3.104318 1_566
Ga3 Sm0 3.104318 1_556
Ga3 Sm3 3.134236 1_556
Ga3 Sm6 3.135853 1_556
Ga3 Sm5 3.141246 1_455
Ga3 Sm4 3.141246 1_555
Ga3 Sm9 3.141875 1_555
Ga3 Sm8 3.141875 1_455
Ga4 Ga5 2.591515 1_545
Ga4 Sm1 3.103249 1_555
Ga4 Sm0 3.103249 1_556
Ga4 Sm9 3.133880 1_555
Ga4 Sm4 3.133880 1_555
Ga4 Sm7 3.140262 1_555
Ga4 Sm3 3.140262 1_545
Ga4 Sm6 3.140374 1_545
Ga4 Sm2 3.140374 1_555
Ga5 Sm1 3.103249 1_666
Ga5 Sm0 3.103249 1_555
Ga5 Sm8 3.133880 1_555
Ga5 Sm5 3.133880 1_555
Ga5 Sm7 3.140262 1_565
Ga5 Sm3 3.140262 1_555
Ga5 Sm6 3.140374 1_555
Ga5 Sm2 3.140374 1_565
