# generated using pymatgen
data_Na3Mg4InSi8(O11F)2
_symmetry_space_group_name_H-M   'P 1'
_cell_length_a   5.35144800
_cell_length_b   9.94088937
_cell_length_c   10.43900434
_cell_angle_alpha   61.57109193
_cell_angle_beta   83.61586563
_cell_angle_gamma   76.50220225
_symmetry_Int_Tables_number   1
_chemical_formula_structural   Na3Mg4InSi8(O11F)2
_chemical_formula_sum   'Na3 Mg4 In1 Si8 O22 F2'
_cell_volume   474.87773052
_cell_formula_units_Z   1
loop_
 _symmetry_equiv_pos_site_id
 _symmetry_equiv_pos_as_xyz
  1  'x, y, z'
loop_
 _atom_site_type_symbol
 _atom_site_label
 _atom_site_symmetry_multiplicity
 _atom_site_fract_x
 _atom_site_fract_y
 _atom_site_fract_z
 _atom_site_occupancy
  Na  Na0  1  0.50004800  0.27390100  0.45298700  1
  Na  Na1  1  0.49994300  0.72277800  0.55533200  1
  Na  Na2  1  0.07394900  0.47084100  0.99893300  1
  Mg  Mg0  1  0.99997600  0.00244900  0.99420300  1
  Mg  Mg1  1  0.50047200  0.08969800  0.81944800  1
  Mg  Mg2  1  0.50039100  0.91355100  0.17177400  1
  Mg  Mg3  1  0.99965500  0.18324500  0.63330400  1
  In  In0  1  0.99973000  0.81787400  0.36389100  1
  Si  Si0  1  0.79613200  0.88115200  0.66654100  1
  Si  Si1  1  0.79676500  0.53937400  0.33809500  1
  Si  Si2  1  0.20369100  0.12137900  0.33891800  1
  Si  Si3  1  0.20430500  0.45209400  0.66557200  1
  Si  Si4  1  0.29168700  0.80238900  0.83203400  1
  Si  Si5  1  0.29263600  0.63294000  0.16634100  1
  Si  Si6  1  0.70797100  0.20088800  0.16628900  1
  Si  Si7  1  0.70889400  0.36563200  0.83211500  1
  O  O0  1  0.29147800  0.65510400  0.99934900  1
  O  O1  1  0.70931800  0.34556200  0.99936800  1
  O  O2  1  0.78704200  0.88887900  0.50921700  1
  O  O3  1  0.79729300  0.39258500  0.49404300  1
  O  O4  1  0.20386400  0.11377600  0.49395300  1
  O  O5  1  0.21430100  0.60203100  0.50945000  1
  O  O6  1  0.08075800  0.77683200  0.74663300  1
  O  O7  1  0.07943500  0.52552200  0.25281800  1
  O  O8  1  0.92241100  0.22180400  0.25204800  1
  O  O9  1  0.92104700  0.47584800  0.74742700  1
  O  O10  1  0.73051000  0.04631700  0.67040000  1
  O  O11  1  0.72056600  0.71461600  0.32886100  1
  O  O12  1  0.28003700  0.95630300  0.32878200  1
  O  O13  1  0.27041500  0.28284900  0.67051900  1
  O  O14  1  0.21798800  0.96877000  0.83388100  1
  O  O15  1  0.21714900  0.80237200  0.16649700  1
  O  O16  1  0.78246000  0.03135700  0.16684000  1
  O  O17  1  0.78184900  0.19783700  0.83349900  1
  O  O18  1  0.57942100  0.77265000  0.76576700  1
  O  O19  1  0.57958400  0.53957400  0.23329900  1
  O  O20  1  0.41752800  0.22904500  0.23058700  1
  O  O21  1  0.41771600  0.46064400  0.76857700  1
  F  F0  1  0.71081300  0.89971500  0.00114900  1
  F  F1  1  0.28777300  0.10082100  0.00125900  1
loop_
_geom_bond_atom_site_label_1
_geom_bond_atom_site_label_2
_geom_bond_distance
_geom_bond_site_symmetry_2
Na0 O4 2.368085 1_555
Na0 O3 2.369625 1_555
Na0 O13 2.489048 1_555
Na0 O10 2.494290 1_555
Na0 O19 2.637492 1_555
Na0 O20 2.662601 1_555
Na1 O5 2.360838 1_555
Na1 O2 2.362548 1_555
Na1 O12 2.546236 1_555
Na1 O11 2.550849 1_555
Na1 O18 2.568168 1_555
Na1 O21 2.594944 1_555
Na1 O6 2.961696 1_555
Na1 O9 2.976735 1_555
Na2 O0 2.390502 1_555
Na2 O1 2.546695 1_455
Na2 O9 2.810591 1_455
Na2 O8 2.828515 1_456
Na2 O21 2.887621 1_555
Na2 O20 2.897825 1_556
Na2 O6 2.931405 1_555
Na2 O7 2.952441 1_556
Mg0 O14 2.047221 1_645
Mg0 O17 2.055274 1_555
Mg0 O15 2.126314 1_646
Mg0 O16 2.134419 1_556
Mg1 O10 2.021725 1_555
Mg1 O13 2.024691 1_555
Mg1 O14 2.092433 1_545
Mg1 O17 2.097469 1_555
Mg2 O11 2.059722 1_555
Mg2 O12 2.063242 1_555
Mg2 O15 2.092993 1_555
Mg2 O16 2.098364 1_565
Mg3 O3 2.008579 1_555
Mg3 O4 2.009460 1_655
Mg3 O10 2.089637 1_555
Mg3 O13 2.095703 1_655
Mg3 O17 2.327022 1_555
Mg3 O14 2.329300 1_645
In0 O2 2.087032 1_555
In0 O5 2.089228 1_655
In0 O11 2.148010 1_555
In0 O12 2.153900 1_655
In0 O15 2.304132 1_655
In0 O16 2.304457 1_565
O0 Si5 1.650303 1_556
O0 Si4 1.661262 1_555
O1 Si6 1.649446 1_556
O1 Si7 1.660473 1_555
O2 Si0 1.612868 1_555
O3 Si1 1.586440 1_555
O4 Si2 1.583920 1_555
O5 Si3 1.607955 1_555
O6 Si4 1.645226 1_555
O6 Si0 1.677732 1_455
O7 Si5 1.636697 1_555
O7 Si1 1.679191 1_455
O8 Si6 1.636665 1_555
O8 Si2 1.680735 1_655
O9 Si7 1.645047 1_555
O9 Si3 1.679479 1_655
O10 Si0 1.615985 1_545
O11 Si1 1.651543 1_555
O12 Si2 1.647343 1_565
O13 Si3 1.613050 1_555
O14 Si4 1.617316 1_555
O15 Si5 1.638571 1_555
O16 Si6 1.636095 1_555
O17 Si7 1.615323 1_555
O18 Si4 1.637753 1_555
O18 Si0 1.683532 1_555
O19 Si5 1.632089 1_555
O19 Si1 1.681414 1_555
O20 Si6 1.639656 1_555
O20 Si2 1.692758 1_555
O21 Si7 1.645117 1_555
O21 Si3 1.695038 1_555
F0 Mg0 2.021161 1_564
F0 Mg2 2.043126 1_555
F0 Mg1 2.122086 1_564
F1 Mg0 2.032390 1_454
F1 Mg2 2.057962 1_545
F1 Mg1 2.137894 1_554
