# generated using pymatgen
data_BaEr2F8
_symmetry_space_group_name_H-M   'P 1'
_cell_length_a   4.22982923
_cell_length_b   6.25073929
_cell_length_c   6.25073973
_cell_angle_alpha   112.91246961
_cell_angle_beta   95.18040302
_cell_angle_gamma   95.18039801
_symmetry_Int_Tables_number   1
_chemical_formula_structural   BaEr2F8
_chemical_formula_sum   'Ba1 Er2 F8'
_cell_volume   150.18135825
_cell_formula_units_Z   1
loop_
 _symmetry_equiv_pos_site_id
 _symmetry_equiv_pos_as_xyz
  1  'x, y, z'
loop_
 _atom_site_type_symbol
 _atom_site_label
 _atom_site_symmetry_multiplicity
 _atom_site_fract_x
 _atom_site_fract_y
 _atom_site_fract_z
 _atom_site_occupancy
  Ba  Ba0  1  -0.00000000  -0.00000000  0.00000000  1
  Er  Er0  1  0.50000000  0.32433326  0.67566674  1
  Er  Er1  1  0.50000000  0.67566674  0.32433326  1
  F  F0  1  -0.00000000  0.73796961  0.26203039  1
  F  F1  1  0.00000000  0.26203039  0.73796961  1
  F  F2  1  0.22536912  0.39415196  0.39415196  1
  F  F3  1  0.43836233  0.67163513  0.95347784  1
  F  F4  1  0.56163767  0.04652216  0.32836487  1
  F  F5  1  0.56163767  0.32836487  0.04652216  1
  F  F6  1  0.43836233  0.95347784  0.67163513  1
  F  F7  1  0.77463088  0.60584804  0.60584804  1
loop_
_geom_bond_atom_site_label_1
_geom_bond_atom_site_label_2
_geom_bond_distance
_geom_bond_site_symmetry_2
Ba0 F1 2.730234 1_554
Ba0 F0 2.730234 1_545
Ba0 F2 2.733882 1_555
Ba0 F7 2.733882 1_444
Ba0 F5 2.838194 1_455
Ba0 F3 2.838194 1_544
Ba0 F4 2.838194 1_455
Ba0 F6 2.838194 1_544
Ba0 F6 2.910499 1_444
Ba0 F4 2.910499 1_555
Ba0 F3 2.910499 1_444
Ba0 F5 2.910499 1_555
Er0 F1 2.212302 1_655
Er0 F1 2.212302 1_555
Er0 F2 2.226368 1_555
Er0 F7 2.226368 1_555
Er0 F3 2.246081 1_555
Er0 F4 2.246081 1_555
Er0 F6 2.299234 1_545
Er0 F5 2.299234 1_556
Er1 F0 2.212302 1_555
Er1 F0 2.212302 1_655
Er1 F7 2.226368 1_555
Er1 F2 2.226368 1_555
Er1 F5 2.246081 1_555
Er1 F6 2.246081 1_555
Er1 F4 2.299234 1_565
Er1 F3 2.299234 1_554
