# generated using pymatgen
data_Sr6Mg(Te4O11)2
_symmetry_space_group_name_H-M   'P 1'
_cell_length_a   8.05257255
_cell_length_b   9.41039138
_cell_length_c   9.60034944
_cell_angle_alpha   101.50418580
_cell_angle_beta   107.32100246
_cell_angle_gamma   103.83675683
_symmetry_Int_Tables_number   1
_chemical_formula_structural   Sr6Mg(Te4O11)2
_chemical_formula_sum   'Sr6 Mg1 Te8 O22'
_cell_volume   644.96622459
_cell_formula_units_Z   1
loop_
 _symmetry_equiv_pos_site_id
 _symmetry_equiv_pos_as_xyz
  1  'x, y, z'
loop_
 _atom_site_type_symbol
 _atom_site_label
 _atom_site_symmetry_multiplicity
 _atom_site_fract_x
 _atom_site_fract_y
 _atom_site_fract_z
 _atom_site_occupancy
  Sr  Sr0  1  0.28188764  0.04593623  0.15147629  1
  Sr  Sr1  1  0.77203115  0.96692627  0.88388384  1
  Sr  Sr2  1  0.82861534  0.06886044  0.30452423  1
  Sr  Sr3  1  0.10034901  0.93777690  0.64080734  1
  Sr  Sr4  1  0.30545013  0.50582070  0.61436411  1
  Sr  Sr5  1  0.70128108  0.48445103  0.38405397  1
  Mg  Mg0  1  0.38713403  0.86412361  0.86477511  1
  Te  Te0  1  0.07989802  0.36329327  0.20630890  1
  Te  Te1  1  0.92518450  0.64441141  0.79030855  1
  Te  Te2  1  0.04963328  0.27609187  0.78571790  1
  Te  Te3  1  0.95321730  0.71639866  0.19860306  1
  Te  Te4  1  0.50208316  0.72270807  0.09645859  1
  Te  Te5  1  0.53738613  0.29055049  0.95405007  1
  Te  Te6  1  0.47422854  0.80407905  0.47209586  1
  Te  Te7  1  0.54405066  0.20767216  0.57101116  1
  O  O0  1  0.99873696  0.53381777  0.64700491  1
  O  O1  1  0.00436534  0.46338319  0.35468058  1
  O  O2  1  0.41208207  0.58959476  0.39289761  1
  O  O3  1  0.60127609  0.42259341  0.63169694  1
  O  O4  1  0.84920350  0.20204156  0.09745231  1
  O  O5  1  0.14003037  0.82216919  0.86986324  1
  O  O6  1  0.74536810  0.17145370  0.71295676  1
  O  O7  1  0.29670129  0.86144648  0.33428081  1
  O  O8  1  0.36766129  0.79805802  0.62899924  1
  O  O9  1  0.61421108  0.19387676  0.39981777  1
  O  O10  1  0.02947653  0.17403006  0.58785944  1
  O  O11  1  0.92857632  0.81312491  0.37910615  1
  O  O12  1  0.47405352  0.28745159  0.12571468  1
  O  O13  1  0.52491898  0.71438463  0.89252932  1
  O  O14  1  0.50779827  0.93972623  0.09413036  1
  O  O15  1  0.43274237  0.07519568  0.84067410  1
  O  O16  1  0.93930716  0.88206186  0.11031658  1
  O  O17  1  0.06013899  0.11212613  0.87097592  1
  O  O18  1  0.18924570  0.24602193  0.32240961  1
  O  O19  1  0.79693664  0.74842968  0.66717507  1
  O  O20  1  0.70364471  0.56941892  0.12000422  1
  O  O21  1  0.33276173  0.35192236  0.83434936  1
loop_
_geom_bond_atom_site_label_1
_geom_bond_atom_site_label_2
_geom_bond_distance
_geom_bond_site_symmetry_2
Mg0 O5 1.951269 1_555
Mg0 O13 2.002285 1_555
Mg0 O15 2.004666 1_565
Mg0 O14 2.017210 1_556
Mg0 O8 2.171492 1_555
O0 Te1 1.880312 1_555
O0 Sr4 2.647042 1_655
O0 Sr5 2.779455 1_555
O1 Te0 1.881706 1_555
O1 Sr5 2.587343 1_455
O1 Sr4 2.791708 1_555
O2 Te6 1.892239 1_555
O2 Sr4 2.703925 1_555
O2 Sr5 2.756058 1_555
O3 Te7 1.888546 1_555
O3 Sr4 2.650307 1_555
O3 Te1 2.691118 1_555
O3 Sr5 2.847365 1_555
O4 Te0 1.925848 1_655
O4 Sr1 2.501898 1_544
O4 Sr2 2.576990 1_555
O5 Te1 1.921969 1_455
O5 Sr3 2.612176 1_555
O5 Sr0 2.790707 1_566
O6 Te7 1.932702 1_555
O6 Te2 2.239015 1_655
O6 Sr1 2.773249 1_545
O7 Te6 1.900889 1_555
O7 Te3 2.559270 1_455
O7 Sr0 2.701492 1_565
O8 Te6 1.946568 1_555
O8 Sr4 2.641700 1_555
O8 Sr3 2.795464 1_555
O9 Te7 1.881507 1_555
O9 Sr2 2.585449 1_555
O9 Sr5 2.702362 1_555
O9 Sr0 2.806901 1_555
O10 Te2 1.889730 1_555
O10 Sr3 2.532152 1_545
O10 Sr2 2.556445 1_455
O10 Sr4 3.283220 1_555
O11 Te3 1.879568 1_555
O11 Sr3 2.362326 1_655
O11 Sr2 2.867559 1_565
O11 Sr5 3.212670 1_555
O12 Te5 1.868020 1_554
O12 Sr0 2.528047 1_555
O12 Sr5 2.603315 1_555
O13 Te4 2.008231 1_556
O13 Sr1 2.743985 1_555
O13 Sr4 2.747164 1_555
O14 Te4 2.036460 1_555
O14 Sr0 2.420319 1_565
O14 Sr2 2.577349 1_565
O15 Te5 1.938808 1_555
O15 Sr3 2.610526 1_545
O16 Te3 1.927519 1_555
O16 Sr1 2.577047 1_554
O16 Sr0 2.686536 1_665
O16 Sr2 2.791502 1_565
O17 Te2 1.892847 1_555
O17 Sr1 2.446891 1_445
O17 Sr3 2.629357 1_545
O17 Sr0 3.027542 1_556
O18 Te0 1.899099 1_555
O18 Sr0 2.638762 1_555
O18 Sr2 2.918101 1_455
O18 Sr4 3.052783 1_555
O19 Te1 1.907940 1_555
O19 Sr1 2.708451 1_555
O19 Sr3 2.770262 1_655
O19 Sr5 3.049097 1_555
O20 Te3 1.967868 1_555
O20 Te4 2.407869 1_555
O20 Te5 2.568887 1_554
O20 Sr5 2.809930 1_555
O21 Te5 1.990382 1_555
O21 Te2 2.092916 1_555
O21 Sr4 2.775218 1_555
