# generated using pymatgen
data_Hg3(PS4)2
_symmetry_space_group_name_H-M   'P 1'
_cell_length_a   11.04186000
_cell_length_b   11.04186000
_cell_length_c   11.04186000
_cell_angle_alpha   90.00000000
_cell_angle_beta   90.00000000
_cell_angle_gamma   90.00000000
_symmetry_Int_Tables_number   1
_chemical_formula_structural   Hg3(PS4)2
_chemical_formula_sum   'Hg12 P8 S32'
_cell_volume   1346.25307792
_cell_formula_units_Z   4
loop_
 _symmetry_equiv_pos_site_id
 _symmetry_equiv_pos_as_xyz
  1  'x, y, z'
loop_
 _atom_site_type_symbol
 _atom_site_label
 _atom_site_symmetry_multiplicity
 _atom_site_fract_x
 _atom_site_fract_y
 _atom_site_fract_z
 _atom_site_occupancy
  Hg  Hg0  1  0.12782600  0.41282700  0.27979000  1
  Hg  Hg1  1  0.37217400  0.58717300  0.77979000  1
  Hg  Hg2  1  0.87217400  0.91282700  0.22021000  1
  Hg  Hg3  1  0.27979000  0.12782600  0.41282700  1
  Hg  Hg4  1  0.62782600  0.08717300  0.72021000  1
  Hg  Hg5  1  0.77979000  0.37217400  0.58717300  1
  Hg  Hg6  1  0.22021000  0.87217400  0.91282700  1
  Hg  Hg7  1  0.72021000  0.62782600  0.08717300  1
  Hg  Hg8  1  0.41282700  0.27979000  0.12782600  1
  Hg  Hg9  1  0.91282700  0.22021000  0.87217400  1
  Hg  Hg10  1  0.08717300  0.72021000  0.62782600  1
  Hg  Hg11  1  0.58717300  0.77979000  0.37217400  1
  P  P0  1  0.41439500  0.41439500  0.41439500  1
  P  P1  1  0.08560500  0.58560500  0.91439500  1
  P  P2  1  0.58560500  0.91439500  0.08560500  1
  P  P3  1  0.91439500  0.08560500  0.58560500  1
  P  P4  1  0.13350900  0.13350900  0.13350900  1
  P  P5  1  0.36649100  0.86649100  0.63350900  1
  P  P6  1  0.86649100  0.63350900  0.36649100  1
  P  P7  1  0.63350900  0.36649100  0.86649100  1
  S  S0  1  0.51806000  0.51806000  0.51806000  1
  S  S1  1  0.98194000  0.48194000  0.01806000  1
  S  S2  1  0.48194000  0.01806000  0.98194000  1
  S  S3  1  0.01806000  0.98194000  0.48194000  1
  S  S4  1  0.02600500  0.02600500  0.02600500  1
  S  S5  1  0.47399500  0.97399500  0.52600500  1
  S  S6  1  0.97399500  0.52600500  0.47399500  1
  S  S7  1  0.52600500  0.47399500  0.97399500  1
  S  S8  1  0.01309600  0.22843800  0.24222600  1
  S  S9  1  0.48690400  0.77156200  0.74222600  1
  S  S10  1  0.98690400  0.72843800  0.25777400  1
  S  S11  1  0.24222600  0.01309600  0.22843800  1
  S  S12  1  0.51309600  0.27156200  0.75777400  1
  S  S13  1  0.74222600  0.48690400  0.77156200  1
  S  S14  1  0.25777400  0.98690400  0.72843800  1
  S  S15  1  0.75777400  0.51309600  0.27156200  1
  S  S16  1  0.22843800  0.24222600  0.01309600  1
  S  S17  1  0.72843800  0.25777400  0.98690400  1
  S  S18  1  0.27156200  0.75777400  0.51309600  1
  S  S19  1  0.77156200  0.74222600  0.48690400  1
  S  S20  1  0.02464500  0.20704900  0.68286600  1
  S  S21  1  0.47535500  0.79295100  0.18286600  1
  S  S22  1  0.97535500  0.70704900  0.81713400  1
  S  S23  1  0.68286600  0.02464500  0.20704900  1
  S  S24  1  0.52464500  0.29295100  0.31713400  1
  S  S25  1  0.18286600  0.47535500  0.79295100  1
  S  S26  1  0.81713400  0.97535500  0.70704900  1
  S  S27  1  0.31713400  0.52464500  0.29295100  1
  S  S28  1  0.20704900  0.68286600  0.02464500  1
  S  S29  1  0.70704900  0.81713400  0.97535500  1
  S  S30  1  0.29295100  0.31713400  0.52464500  1
  S  S31  1  0.79295100  0.18286600  0.47535500  1
loop_
_geom_bond_atom_site_label_1
_geom_bond_atom_site_label_2
_geom_bond_distance
_geom_bond_site_symmetry_2
Hg0 S27 2.432068 1_555
Hg0 S8 2.433555 1_555
Hg0 S6 3.007540 1_455
Hg1 S25 2.432068 1_555
Hg1 S9 2.433555 1_555
Hg1 S7 3.007540 1_555
Hg2 S23 2.432068 1_565
Hg2 S10 2.433555 1_555
Hg2 S4 3.007540 1_665
Hg3 S30 2.432068 1_555
Hg3 S11 2.433555 1_555
Hg3 S5 3.007540 1_545
Hg4 S26 2.432068 1_545
Hg4 S12 2.433555 1_555
Hg4 S5 3.007540 1_545
Hg5 S31 2.432068 1_555
Hg5 S13 2.433555 1_555
Hg5 S6 3.007540 1_555
Hg6 S28 2.432068 1_556
Hg6 S14 2.433555 1_555
Hg6 S4 3.007540 1_566
Hg7 S29 2.432068 1_554
Hg7 S15 2.433555 1_555
Hg7 S7 3.007540 1_554
Hg8 S24 2.432068 1_555
Hg8 S16 2.433555 1_555
Hg8 S7 3.007540 1_554
Hg9 S20 2.432068 1_655
Hg9 S17 2.433555 1_555
Hg9 S4 3.007540 1_656
Hg10 S22 2.432068 1_455
Hg10 S18 2.433555 1_555
Hg10 S6 3.007540 1_455
Hg11 S21 2.432068 1_555
Hg11 S19 2.433555 1_555
Hg11 S5 3.007540 1_555
P0 S0 1.982600 1_555
P0 S27 2.105594 1_555
P0 S30 2.105594 1_555
P0 S24 2.105594 1_555
P1 S1 1.982600 1_456
P1 S25 2.105594 1_555
P1 S22 2.105594 1_455
P1 S28 2.105594 1_556
P2 S2 1.982600 1_564
P2 S29 2.105594 1_554
P2 S21 2.105594 1_555
P2 S23 2.105594 1_565
P3 S3 1.982600 1_645
P3 S31 2.105594 1_555
P3 S26 2.105594 1_545
P3 S20 2.105594 1_655
P4 S4 2.056021 1_555
P4 S8 2.075464 1_555
P4 S16 2.075464 1_555
P4 S11 2.075464 1_555
P5 S5 2.056021 1_555
P5 S18 2.075464 1_555
P5 S14 2.075464 1_555
P5 S9 2.075464 1_555
P6 S6 2.056021 1_555
P6 S10 2.075464 1_555
P6 S15 2.075464 1_555
P6 S19 2.075464 1_555
P7 S7 2.056021 1_555
P7 S12 2.075464 1_555
P7 S17 2.075464 1_555
P7 S13 2.075464 1_555
