# generated using pymatgen
data_BeSiP2
_symmetry_space_group_name_H-M   'P 1'
_cell_length_a   5.11196259
_cell_length_b   5.11196259
_cell_length_c   6.24779865
_cell_angle_alpha   114.14838485
_cell_angle_beta   114.14838485
_cell_angle_gamma   90.00000000
_symmetry_Int_Tables_number   1
_chemical_formula_structural   BeSiP2
_chemical_formula_sum   'Be2 Si2 P4'
_cell_volume   133.16868998
_cell_formula_units_Z   2
loop_
 _symmetry_equiv_pos_site_id
 _symmetry_equiv_pos_as_xyz
  1  'x, y, z'
loop_
 _atom_site_type_symbol
 _atom_site_label
 _atom_site_symmetry_multiplicity
 _atom_site_fract_x
 _atom_site_fract_y
 _atom_site_fract_z
 _atom_site_occupancy
  Be  Be0  1  0.75000000  0.25000000  0.50000000  1
  Be  Be1  1  0.00000000  0.00000000  0.00000000  1
  Si  Si0  1  0.25000000  0.75000000  0.50000000  1
  Si  Si1  1  0.50000000  0.50000000  -0.00000000  1
  P  P0  1  0.11245649  0.12500000  0.75000000  1
  P  P1  1  0.87500000  0.36245649  0.25000000  1
  P  P2  1  0.37500000  0.88754351  0.25000000  1
  P  P3  1  0.63754351  0.62500000  0.75000000  1
loop_
_geom_bond_atom_site_label_1
_geom_bond_atom_site_label_2
_geom_bond_distance
_geom_bond_site_symmetry_2
Be0 P2 2.174809 1_545
Be0 P3 2.174809 1_555
Be0 P0 2.174809 1_655
Be0 P1 2.174809 1_555
Be1 P3 2.174809 1_444
Be1 P2 2.174809 1_545
Be1 P1 2.174809 1_455
Be1 P0 2.174809 1_554
P0 Si1 2.248907 1_556
P0 Si0 2.248907 1_545
P1 Si0 2.248907 1_655
P1 Si1 2.248907 1_555
P2 Si1 2.248907 1_555
P2 Si0 2.248907 1_555
P3 Si0 2.248907 1_555
P3 Si1 2.248907 1_556
