# generated using pymatgen
data_Tm10Mn13C18
_symmetry_space_group_name_H-M   'P 1'
_cell_length_a   8.65213765
_cell_length_b   8.65213765
_cell_length_c   8.65213765
_cell_angle_alpha   109.47122063
_cell_angle_beta   109.47122063
_cell_angle_gamma   109.47122063
_symmetry_Int_Tables_number   1
_chemical_formula_structural   Tm10Mn13C18
_chemical_formula_sum   'Tm10 Mn13 C18'
_cell_volume   498.59551710
_cell_formula_units_Z   1
loop_
 _symmetry_equiv_pos_site_id
 _symmetry_equiv_pos_as_xyz
  1  'x, y, z'
loop_
 _atom_site_type_symbol
 _atom_site_label
 _atom_site_symmetry_multiplicity
 _atom_site_fract_x
 _atom_site_fract_y
 _atom_site_fract_z
 _atom_site_occupancy
  Tm  Tm0  1  0.50000000  0.75000000  0.25000000  1
  Tm  Tm1  1  0.75000000  0.50000000  0.25000000  1
  Tm  Tm2  1  0.25000000  0.75000000  0.50000000  1
  Tm  Tm3  1  0.25000000  0.50000000  0.75000000  1
  Tm  Tm4  1  0.50000000  0.25000000  0.75000000  1
  Tm  Tm5  1  0.75000000  0.25000000  0.50000000  1
  Tm  Tm6  1  0.40987000  0.00000000  0.00000000  1
  Tm  Tm7  1  0.00000000  0.40987000  0.00000000  1
  Tm  Tm8  1  0.00000000  0.00000000  0.40987000  1
  Tm  Tm9  1  0.59013000  0.59013000  0.59013000  1
  Mn  Mn0  1  0.00000000  0.00000000  0.00000000  1
  Mn  Mn1  1  0.66535800  0.81988200  0.00000000  1
  Mn  Mn2  1  0.84547500  0.18011800  0.18011800  1
  Mn  Mn3  1  0.66535800  0.00000000  0.81988200  1
  Mn  Mn4  1  0.81988200  0.66535800  0.00000000  1
  Mn  Mn5  1  0.00000000  0.66535800  0.81988200  1
  Mn  Mn6  1  0.18011800  0.84547500  0.18011800  1
  Mn  Mn7  1  0.18011800  0.18011800  0.84547500  1
  Mn  Mn8  1  0.00000000  0.81988200  0.66535800  1
  Mn  Mn9  1  0.81988200  0.00000000  0.66535800  1
  Mn  Mn10  1  0.33464200  0.33464200  0.15452500  1
  Mn  Mn11  1  0.15452500  0.33464200  0.33464200  1
  Mn  Mn12  1  0.33464200  0.15452500  0.33464200  1
  C  C0  1  0.70293000  0.22172500  0.00000000  1
  C  C1  1  0.48120500  0.77827500  0.77827500  1
  C  C2  1  0.70293000  0.00000000  0.22172500  1
  C  C3  1  0.22172500  0.70293000  0.00000000  1
  C  C4  1  0.00000000  0.70293000  0.22172500  1
  C  C5  1  0.77827500  0.48120500  0.77827500  1
  C  C6  1  0.77827500  0.77827500  0.48120500  1
  C  C7  1  0.00000000  0.22172500  0.70293000  1
  C  C8  1  0.22172500  0.00000000  0.70293000  1
  C  C9  1  0.29707000  0.29707000  0.51879500  1
  C  C10  1  0.51879500  0.29707000  0.29707000  1
  C  C11  1  0.29707000  0.51879500  0.29707000  1
  C  C12  1  0.56914000  0.56914000  0.00000000  1
  C  C13  1  0.00000000  0.43086000  0.43086000  1
  C  C14  1  0.56914000  0.00000000  0.56914000  1
  C  C15  1  0.00000000  0.56914000  0.56914000  1
  C  C16  1  0.43086000  0.00000000  0.43086000  1
  C  C17  1  0.43086000  0.43086000  0.00000000  1
loop_
_geom_bond_atom_site_label_1
_geom_bond_atom_site_label_2
_geom_bond_distance
_geom_bond_site_symmetry_2
Mn0 Mn11 2.793505 1_555
Mn0 Mn12 2.793505 1_555
Mn0 Mn10 2.793505 1_555
Mn0 Mn3 2.793507 1_454
Mn0 Mn5 2.793507 1_544
Mn0 Mn4 2.793507 1_445
Mn0 Mn9 2.793507 1_454
Mn0 Mn8 2.793507 1_544
Mn0 Mn1 2.793507 1_445
Mn0 Mn7 2.793514 1_554
Mn0 Mn6 2.793514 1_545
Mn0 Mn2 2.793514 1_455
Mn0 Tm9 3.546252 1_444
Mn0 Tm7 3.546252 1_555
Mn0 Tm8 3.546252 1_555
Mn0 Tm6 3.546252 1_555
C0 Mn2 1.862243 1_555
C0 Mn3 1.862247 1_554
C0 Tm4 2.434868 1_554
C0 Tm1 2.434868 1_555
C0 Tm7 2.543017 1_655
C0 Tm6 2.620427 1_555
C1 Mn1 1.862247 1_556
C1 Mn3 1.862247 1_565
C1 Tm2 2.434868 1_555
C1 Tm3 2.434868 1_555
C1 Tm9 2.543017 1_555
C1 Tm6 2.620427 1_566
C2 Mn2 1.862243 1_555
C2 Mn1 1.862247 1_545
C2 Tm0 2.434868 1_545
C2 Tm5 2.434868 1_555
C2 Tm8 2.543017 1_655
C2 Tm6 2.620427 1_555
C3 Mn6 1.862243 1_555
C3 Mn5 1.862247 1_554
C3 Tm3 2.434868 1_554
C3 Tm0 2.434868 1_555
C3 Tm6 2.543017 1_565
C3 Tm7 2.620427 1_555
C4 Mn6 1.862243 1_555
C4 Mn4 1.862247 1_455
C4 Tm2 2.434868 1_555
C4 Tm1 2.434868 1_455
C4 Tm8 2.543017 1_565
C4 Tm7 2.620427 1_555
C5 Mn4 1.862247 1_556
C5 Mn5 1.862247 1_655
C5 Tm5 2.434868 1_555
C5 Tm4 2.434868 1_555
C5 Tm9 2.543017 1_555
C5 Tm7 2.620427 1_656
C6 Mn8 1.862247 1_655
C6 Mn9 1.862247 1_565
C6 Tm0 2.434868 1_555
C6 Tm1 2.434868 1_555
C6 Tm9 2.543017 1_555
C6 Tm8 2.620427 1_665
C7 Mn7 1.862243 1_555
C7 Mn9 1.862247 1_455
C7 Tm3 2.434868 1_555
C7 Tm5 2.434868 1_455
C7 Tm7 2.543017 1_556
C7 Tm8 2.620427 1_555
C8 Mn7 1.862243 1_555
C8 Mn8 1.862247 1_545
C8 Tm4 2.434868 1_555
C8 Tm2 2.434868 1_545
C8 Tm6 2.543017 1_556
C8 Tm8 2.620427 1_555
C9 Mn11 1.862243 1_555
C9 Mn12 1.862243 1_555
C9 Tm3 2.434868 1_555
C9 Tm4 2.434868 1_555
C9 Tm8 2.543017 1_555
C9 Tm9 2.620427 1_555
C10 Mn10 1.862243 1_555
C10 Mn12 1.862243 1_555
C10 Tm5 2.434868 1_555
C10 Tm1 2.434868 1_555
C10 Tm6 2.543017 1_555
C10 Tm9 2.620427 1_555
C11 Mn10 1.862243 1_555
C11 Mn11 1.862243 1_555
C11 Tm2 2.434868 1_555
C11 Tm0 2.434868 1_555
C11 Tm7 2.543017 1_555
C11 Tm9 2.620427 1_555
C12 C17 1.381504 1_555
C12 Mn4 2.048302 1_555
C12 Mn1 2.048302 1_555
C12 Tm0 2.591414 1_555
C12 Tm4 2.591414 1_554
C12 Tm1 2.591414 1_555
C12 Tm3 2.591414 1_554
C13 C15 1.381504 1_555
C13 Mn2 2.048301 1_455
C13 Mn11 2.048310 1_555
C13 Tm5 2.591414 1_455
C13 Tm2 2.591414 1_555
C13 Tm1 2.591414 1_455
C13 Tm3 2.591414 1_555
C14 C16 1.381504 1_555
C14 Mn3 2.048302 1_555
C14 Mn9 2.048302 1_555
C14 Tm2 2.591414 1_545
C14 Tm0 2.591414 1_545
C14 Tm5 2.591414 1_555
C14 Tm4 2.591414 1_555
C15 Mn8 2.048302 1_555
C15 Mn5 2.048302 1_555
C15 Tm2 2.591414 1_555
C15 Tm1 2.591414 1_455
C15 Tm3 2.591414 1_555
C15 Tm5 2.591414 1_455
C16 Mn6 2.048301 1_545
C16 Mn12 2.048310 1_555
C16 Tm0 2.591414 1_545
C16 Tm5 2.591414 1_555
C16 Tm4 2.591414 1_555
C16 Tm2 2.591414 1_545
C17 Mn7 2.048301 1_554
C17 Mn10 2.048310 1_555
C17 Tm1 2.591414 1_555
C17 Tm0 2.591414 1_555
C17 Tm3 2.591414 1_554
C17 Tm4 2.591414 1_554
