# generated using pymatgen
data_Li9Mn2Co5O16
_symmetry_space_group_name_H-M   'P 1'
_cell_length_a   2.94056900
_cell_length_b   10.14335538
_cell_length_c   10.62786527
_cell_angle_alpha   113.78025128
_cell_angle_beta   94.97267973
_cell_angle_gamma   92.45427732
_symmetry_Int_Tables_number   1
_chemical_formula_structural   Li9Mn2Co5O16
_chemical_formula_sum   'Li9 Mn2 Co5 O16'
_cell_volume   287.94073773
_cell_formula_units_Z   1
loop_
 _symmetry_equiv_pos_site_id
 _symmetry_equiv_pos_as_xyz
  1  'x, y, z'
loop_
 _atom_site_type_symbol
 _atom_site_label
 _atom_site_symmetry_multiplicity
 _atom_site_fract_x
 _atom_site_fract_y
 _atom_site_fract_z
 _atom_site_occupancy
  Li  Li0  1  0.13167700  0.93677000  0.25289100  1
  Li  Li1  1  0.86903900  0.06764200  0.75293700  1
  Li  Li2  1  0.61025900  0.19215900  0.24443400  1
  Li  Li3  1  0.62377600  0.68332300  0.24704800  1
  Li  Li4  1  0.38158900  0.81132900  0.75237900  1
  Li  Li5  1  0.11561700  0.42772400  0.23840000  1
  Li  Li6  1  0.87895100  0.56354700  0.75129100  1
  Li  Li7  1  0.38474900  0.31690400  0.75372100  1
  Li  Li8  1  0.51535900  0.25236300  0.00831400  1
  Mn  Mn0  1  0.99239400  0.00572600  0.00092600  1
  Mn  Mn1  1  0.74934500  0.62488700  0.49978700  1
  Co  Co0  1  0.74977700  0.12560800  0.50093800  1
  Co  Co1  1  0.25038300  0.37521700  0.50134900  1
  Co  Co2  1  0.00503100  0.48992900  0.99819300  1
  Co  Co3  1  0.48994600  0.74729000  0.99753600  1
  Co  Co4  1  0.25037300  0.87446800  0.49795900  1
  O  O0  1  0.52666500  0.96002800  0.10597100  1
  O  O1  1  0.32448900  0.09221700  0.61769000  1
  O  O2  1  0.06194400  0.19852400  0.11735300  1
  O  O3  1  0.07716800  0.70553500  0.10721400  1
  O  O4  1  0.81654200  0.84136400  0.61448500  1
  O  O5  1  0.59308600  0.47371900  0.11468500  1
  O  O6  1  0.34531500  0.59200200  0.62032800  1
  O  O7  1  0.81584900  0.34306400  0.61481000  1
  O  O8  1  0.68455700  0.90773400  0.38288200  1
  O  O9  1  0.45753600  0.02666200  0.88988200  1
  O  O10  1  0.18218300  0.15651000  0.38696300  1
  O  O11  1  0.15614100  0.66010200  0.38139000  1
  O  O12  1  0.91298300  0.79025300  0.88893800  1
  O  O13  1  0.68117700  0.40906400  0.38500300  1
  O  O14  1  0.42302800  0.54141900  0.88927400  1
  O  O15  1  0.94307000  0.30691900  0.88503000  1
loop_
_geom_bond_atom_site_label_1
_geom_bond_atom_site_label_2
_geom_bond_distance
_geom_bond_site_symmetry_2
Li0 O8 2.081802 1_455
Li0 O10 2.096204 1_565
Li0 O0 2.104956 1_555
Li0 O8 2.149022 1_555
Li0 O3 2.218176 1_555
Li0 O0 2.347408 1_455
Li1 O9 2.122601 1_555
Li1 O1 2.125086 1_655
Li1 O1 2.148595 1_555
Li1 O4 2.159547 1_545
Li1 O15 2.250075 1_555
Li1 O9 2.323494 1_655
Li2 O2 1.991582 1_655
Li2 O2 2.032167 1_555
Li2 O13 2.090920 1_555
Li2 O10 2.177882 1_555
Li2 O0 2.205313 1_545
Li2 O10 2.303449 1_655
Li3 O5 2.014166 1_555
Li3 O11 2.111862 1_655
Li3 O8 2.137235 1_555
Li3 O11 2.137469 1_555
Li3 O3 2.150503 1_655
Li3 O3 2.174818 1_555
Li4 O9 2.069706 1_565
Li4 O6 2.089521 1_555
Li4 O12 2.116472 1_555
Li4 O4 2.127927 1_555
Li4 O12 2.150012 1_455
Li4 O4 2.232178 1_455
Li5 O5 2.124439 1_455
Li5 O2 2.146216 1_555
Li5 O13 2.158153 1_455
Li5 O5 2.162491 1_555
Li5 O11 2.221554 1_555
Li5 O13 2.246063 1_555
Li6 O7 2.107538 1_555
Li6 O6 2.113545 1_555
Li6 O6 2.126553 1_655
Li6 O14 2.139816 1_555
Li6 O14 2.156392 1_655
Li6 O12 2.163335 1_555
Li7 O15 2.015332 1_455
Li7 O15 2.093860 1_555
Li7 O7 2.113889 1_555
Li7 O14 2.139732 1_555
Li7 O1 2.139976 1_555
Li7 O7 2.230314 1_455
Li8 O2 2.033404 1_555
Li8 O5 2.058111 1_555
Li8 O15 2.101340 1_554
Li8 O9 2.111886 1_554
Li8 O2 2.118287 1_655
Li8 O15 2.266543 1_454
Mn0 O2 1.835140 1_655
Mn0 O9 1.940563 1_654
Mn0 O9 1.954603 1_554
Mn0 O0 1.991179 1_545
Mn0 O12 2.014516 1_544
Mn0 O0 2.026102 1_645
Mn1 O11 1.930978 1_655
Mn1 O6 1.933530 1_555
Mn1 O13 2.021664 1_555
Mn1 O4 2.027066 1_555
Mn1 O11 2.188386 1_555
Mn1 O6 2.197536 1_655
Co0 O10 1.929084 1_655
Co0 O1 1.946792 1_555
Co0 O7 2.034058 1_555
Co0 O8 2.044704 1_545
Co0 O10 2.086089 1_555
Co0 O1 2.129509 1_655
Co1 O7 1.934357 1_455
Co1 O13 1.956583 1_555
Co1 O6 2.038627 1_555
Co1 O10 2.045530 1_555
Co1 O7 2.083582 1_555
Co1 O13 2.116878 1_455
Co2 O15 1.748765 1_455
Co2 O5 1.853190 1_456
Co2 O14 1.950083 1_555
Co2 O3 2.011082 1_556
Co2 O5 2.089831 1_556
Co2 O14 2.182291 1_455
Co3 O3 1.900215 1_556
Co3 O12 1.917699 1_555
Co3 O14 1.926432 1_555
Co3 O0 1.987248 1_556
Co3 O12 2.128365 1_455
Co3 O3 2.152131 1_656
Co4 O8 1.950986 1_555
Co4 O4 1.961235 1_455
Co4 O11 2.013955 1_555
Co4 O1 2.046754 1_565
Co4 O8 2.099063 1_455
Co4 O4 2.108080 1_555
