# generated using pymatgen
data_Zn3Cu6Sn3(SeS2)4
_symmetry_space_group_name_H-M   'P 1'
_cell_length_a   5.55735686
_cell_length_b   5.55735686
_cell_length_c   17.16865069
_cell_angle_alpha   80.63937508
_cell_angle_beta   80.63937508
_cell_angle_gamma   89.55058728
_symmetry_Int_Tables_number   1
_chemical_formula_structural   Zn3Cu6Sn3(SeS2)4
_chemical_formula_sum   'Zn3 Cu6 Sn3 Se4 S8'
_cell_volume   516.11881192
_cell_formula_units_Z   1
loop_
 _symmetry_equiv_pos_site_id
 _symmetry_equiv_pos_as_xyz
  1  'x, y, z'
loop_
 _atom_site_type_symbol
 _atom_site_label
 _atom_site_symmetry_multiplicity
 _atom_site_fract_x
 _atom_site_fract_y
 _atom_site_fract_z
 _atom_site_occupancy
  Zn  Zn0  1  0.00827900  0.00827900  0.99813600  1
  Zn  Zn1  1  0.67083900  0.67083900  0.65938600  1
  Zn  Zn2  1  0.34320900  0.34320900  0.33008500  1
  Cu  Cu0  1  0.57898400  0.07812500  0.84182100  1
  Cu  Cu1  1  0.26158400  0.73598600  0.50247400  1
  Cu  Cu2  1  0.92792200  0.40068100  0.17041500  1
  Cu  Cu3  1  0.07812500  0.57898400  0.84182100  1
  Cu  Cu4  1  0.73598600  0.26158400  0.50247400  1
  Cu  Cu5  1  0.40068100  0.92792200  0.17041500  1
  Sn  Sn0  1  0.49511800  0.49511800  0.99991600  1
  Sn  Sn1  1  0.16865600  0.16865600  0.66185400  1
  Sn  Sn2  1  0.82807500  0.82807500  0.33152900  1
  Se  Se0  1  0.38203600  0.38203600  0.75487500  1
  Se  Se1  1  0.04764500  0.04764500  0.42184500  1
  Se  Se2  1  0.71362800  0.71362800  0.09040600  1
  Se  Se3  1  0.86128200  0.86128200  0.75527000  1
  S  S0  1  0.53123900  0.53123900  0.42036900  1
  S  S1  1  0.19736200  0.19736200  0.08766200  1
  S  S2  1  0.28659000  0.80007400  0.91200400  1
  S  S3  1  0.95718700  0.46909200  0.57418300  1
  S  S4  1  0.62177000  0.13481900  0.24343700  1
  S  S5  1  0.80007400  0.28659000  0.91200400  1
  S  S6  1  0.46909200  0.95718700  0.57418300  1
  S  S7  1  0.13481900  0.62177000  0.24343700  1
loop_
_geom_bond_atom_site_label_1
_geom_bond_atom_site_label_2
_geom_bond_distance
_geom_bond_site_symmetry_2
Cu0 S5 2.293844 1_555
Cu0 S2 2.297139 1_545
Cu0 Se3 2.432289 1_545
Cu0 Se0 2.441541 1_555
Cu1 S6 2.309359 1_555
Cu1 S0 2.309832 1_555
Cu1 S3 2.311969 1_455
Cu1 Se1 2.460245 1_565
Cu2 S1 2.311065 1_655
Cu2 S4 2.322172 1_555
Cu2 S7 2.322834 1_655
Cu2 Se2 2.460156 1_555
Cu3 S2 2.293844 1_555
Cu3 S5 2.297139 1_455
Cu3 Se3 2.432289 1_455
Cu3 Se0 2.441541 1_555
Cu4 S3 2.309359 1_555
Cu4 S0 2.309832 1_555
Cu4 S6 2.311969 1_545
Cu4 Se1 2.460245 1_655
Cu5 S1 2.311065 1_565
Cu5 S7 2.322172 1_555
Cu5 S4 2.322834 1_565
Cu5 Se2 2.460156 1_555
Se0 Zn1 2.483580 1_555
Se0 Sn1 2.572372 1_555
Se1 Zn2 2.497328 1_555
Se1 Sn2 2.576165 1_445
Se2 Zn0 2.495323 1_664
Se2 Sn0 2.571655 1_554
Se3 Zn1 2.470081 1_555
Se3 Sn1 2.582916 1_665
S0 Zn2 2.378533 1_555
S0 Sn2 2.484889 1_555
S1 Zn0 2.374652 1_554
S1 Sn0 2.483330 1_554
S2 Zn0 2.387945 1_565
S2 Sn0 2.489840 1_555
S3 Zn1 2.382757 1_555
S3 Sn1 2.482241 1_655
S4 Zn2 2.394555 1_555
S4 Sn2 2.490499 1_545
S5 Zn0 2.387945 1_655
S5 Sn0 2.489840 1_555
S6 Zn1 2.382757 1_555
S6 Sn1 2.482241 1_565
S7 Zn2 2.394555 1_555
S7 Sn2 2.490499 1_455
