# generated using pymatgen
data_Mg6MnCdO8
_symmetry_space_group_name_H-M   'P 1'
_cell_length_a   8.76709548
_cell_length_b   4.39647149
_cell_length_c   4.39647149
_cell_angle_alpha   90.00000000
_cell_angle_beta   90.00000000
_cell_angle_gamma   90.00000000
_symmetry_Int_Tables_number   1
_chemical_formula_structural   Mg6MnCdO8
_chemical_formula_sum   'Mg6 Mn1 Cd1 O8'
_cell_volume   169.45885155
_cell_formula_units_Z   1
loop_
 _symmetry_equiv_pos_site_id
 _symmetry_equiv_pos_as_xyz
  1  'x, y, z'
loop_
 _atom_site_type_symbol
 _atom_site_label
 _atom_site_symmetry_multiplicity
 _atom_site_fract_x
 _atom_site_fract_y
 _atom_site_fract_z
 _atom_site_occupancy
  Mg  Mg0  1  0.00000000  0.50000000  0.50000000  1
  Mg  Mg1  1  0.50000000  0.50000000  0.50000000  1
  Mg  Mg2  1  0.24608716  0.00000000  0.50000000  1
  Mg  Mg3  1  0.75391284  0.00000000  0.50000000  1
  Mg  Mg4  1  0.24608716  0.50000000  0.00000000  1
  Mg  Mg5  1  0.75391284  0.50000000  0.00000000  1
  Mn  Mn0  1  0.00000000  0.00000000  0.00000000  1
  Cd  Cd0  1  0.50000000  0.00000000  0.00000000  1
  O  O0  1  0.24015203  0.00000000  0.00000000  1
  O  O1  1  0.75984797  0.00000000  0.00000000  1
  O  O2  1  0.24999503  0.50000000  0.50000000  1
  O  O3  1  0.75000497  0.50000000  0.50000000  1
  O  O4  1  0.00000000  0.00000000  0.50000000  1
  O  O5  1  0.50000000  0.00000000  0.50000000  1
  O  O6  1  0.00000000  0.50000000  0.00000000  1
  O  O7  1  0.50000000  0.50000000  0.00000000  1
loop_
_geom_bond_atom_site_label_1
_geom_bond_atom_site_label_2
_geom_bond_distance
_geom_bond_site_symmetry_2
Mg0 O3 2.191730 1_455
Mg0 O2 2.191730 1_555
Mg0 O6 2.198236 1_556
Mg0 O6 2.198236 1_555
Mg0 O4 2.198236 1_555
Mg0 O4 2.198236 1_565
Mg1 O2 2.191817 1_555
Mg1 O3 2.191817 1_555
Mg1 O5 2.198236 1_565
Mg1 O7 2.198236 1_555
Mg1 O7 2.198236 1_556
Mg1 O5 2.198236 1_555
Mg2 O4 2.157470 1_555
Mg2 O2 2.198503 1_545
Mg2 O2 2.198503 1_555
Mg2 O0 2.198851 1_555
Mg2 O0 2.198851 1_556
Mg2 O5 2.226078 1_555
Mg3 O4 2.157470 1_655
Mg3 O3 2.198503 1_545
Mg3 O3 2.198503 1_555
Mg3 O1 2.198851 1_555
Mg3 O1 2.198851 1_556
Mg3 O5 2.226078 1_555
Mg4 O6 2.157470 1_555
Mg4 O2 2.198503 1_554
Mg4 O2 2.198503 1_555
Mg4 O0 2.198851 1_555
Mg4 O0 2.198851 1_565
Mg4 O7 2.226078 1_555
Mg5 O6 2.157470 1_655
Mg5 O3 2.198503 1_555
Mg5 O3 2.198503 1_554
Mg5 O1 2.198851 1_555
Mg5 O1 2.198851 1_565
Mg5 O7 2.226078 1_555
Mn0 O1 2.105436 1_455
Mn0 O0 2.105436 1_555
Mn0 O6 2.198236 1_555
Mn0 O4 2.198236 1_554
Mn0 O4 2.198236 1_555
Mn0 O6 2.198236 1_545
Cd0 O7 2.198236 1_555
Cd0 O5 2.198236 1_554
Cd0 O7 2.198236 1_545
Cd0 O5 2.198236 1_555
Cd0 O0 2.278112 1_555
Cd0 O1 2.278112 1_555
