# generated using pymatgen
data_Mg14AlCoO16
_symmetry_space_group_name_H-M   'P 1'
_cell_length_a   4.24192200
_cell_length_b   8.49829900
_cell_length_c   8.52449600
_cell_angle_alpha   90.00000000
_cell_angle_beta   90.00000000
_cell_angle_gamma   90.00000000
_symmetry_Int_Tables_number   1
_chemical_formula_structural   Mg14AlCoO16
_chemical_formula_sum   'Mg14 Al1 Co1 O16'
_cell_volume   307.30059195
_cell_formula_units_Z   1
loop_
 _symmetry_equiv_pos_site_id
 _symmetry_equiv_pos_as_xyz
  1  'x, y, z'
loop_
 _atom_site_type_symbol
 _atom_site_label
 _atom_site_symmetry_multiplicity
 _atom_site_fract_x
 _atom_site_fract_y
 _atom_site_fract_z
 _atom_site_occupancy
  Mg  Mg0  1  0.00000000  0.50000000  0.00000000  1
  Mg  Mg1  1  0.00000000  0.50000000  0.50000000  1
  Mg  Mg2  1  0.50000000  0.00000000  0.25648000  1
  Mg  Mg3  1  0.50000000  0.00000000  0.74352000  1
  Mg  Mg4  1  0.50000000  0.50000000  0.25227100  1
  Mg  Mg5  1  0.50000000  0.50000000  0.74772900  1
  Mg  Mg6  1  0.50000000  0.24941200  0.00000000  1
  Mg  Mg7  1  0.50000000  0.24591900  0.50000000  1
  Mg  Mg8  1  0.50000000  0.75058800  0.00000000  1
  Mg  Mg9  1  0.50000000  0.75408100  0.50000000  1
  Mg  Mg10  1  0.00000000  0.24740700  0.25542900  1
  Mg  Mg11  1  0.00000000  0.24740700  0.74457100  1
  Mg  Mg12  1  0.00000000  0.75259300  0.25542900  1
  Mg  Mg13  1  0.00000000  0.75259300  0.74457100  1
  Al  Al0  1  0.00000000  0.00000000  0.00000000  1
  Co  Co0  1  0.00000000  0.00000000  0.50000000  1
  O  O0  1  0.00000000  0.23545400  0.00000000  1
  O  O1  1  0.00000000  0.26071400  0.50000000  1
  O  O2  1  0.00000000  0.76454600  0.00000000  1
  O  O3  1  0.00000000  0.73928600  0.50000000  1
  O  O4  1  0.50000000  0.24888800  0.24915600  1
  O  O5  1  0.50000000  0.24888800  0.75084400  1
  O  O6  1  0.50000000  0.75111200  0.24915600  1
  O  O7  1  0.50000000  0.75111200  0.75084400  1
  O  O8  1  0.50000000  0.00000000  0.00000000  1
  O  O9  1  0.50000000  0.00000000  0.50000000  1
  O  O10  1  0.50000000  0.50000000  0.00000000  1
  O  O11  1  0.50000000  0.50000000  0.50000000  1
  O  O12  1  0.00000000  0.00000000  0.21822700  1
  O  O13  1  0.00000000  0.00000000  0.78177300  1
  O  O14  1  0.00000000  0.50000000  0.24432100  1
  O  O15  1  0.00000000  0.50000000  0.75567900  1
loop_
_geom_bond_atom_site_label_1
_geom_bond_atom_site_label_2
_geom_bond_distance
_geom_bond_site_symmetry_2
Mg0 O14 2.082713 1_555
Mg0 O15 2.082713 1_554
Mg0 O10 2.120961 1_455
Mg0 O10 2.120961 1_555
Mg0 O2 2.248191 1_555
Mg0 O0 2.248191 1_555
Mg1 O3 2.033524 1_555
Mg1 O1 2.033524 1_555
Mg1 O11 2.120961 1_455
Mg1 O11 2.120961 1_555
Mg1 O14 2.179535 1_555
Mg1 O15 2.179535 1_555
Mg2 O9 2.075885 1_555
Mg2 O4 2.116046 1_555
Mg2 O6 2.116046 1_545
Mg2 O12 2.145882 1_655
Mg2 O12 2.145882 1_555
Mg2 O8 2.186363 1_555
Mg3 O9 2.075885 1_555
Mg3 O5 2.116046 1_555
Mg3 O7 2.116046 1_545
Mg3 O13 2.145882 1_655
Mg3 O13 2.145882 1_555
Mg3 O8 2.186363 1_556
Mg4 O11 2.111765 1_555
Mg4 O14 2.122043 1_655
Mg4 O14 2.122043 1_555
Mg4 O6 2.134190 1_555
Mg4 O4 2.134190 1_555
Mg4 O10 2.150483 1_555
Mg5 O11 2.111765 1_555
Mg5 O15 2.122043 1_655
Mg5 O15 2.122043 1_555
Mg5 O5 2.134190 1_555
Mg5 O7 2.134190 1_555
Mg5 O10 2.150483 1_556
Mg6 O8 2.119578 1_555
Mg6 O4 2.123934 1_555
Mg6 O5 2.123934 1_554
Mg6 O0 2.124275 1_655
Mg6 O0 2.124275 1_555
Mg6 O10 2.129572 1_555
Mg7 O9 2.089893 1_555
Mg7 O1 2.124684 1_555
Mg7 O1 2.124684 1_655
Mg7 O5 2.138468 1_555
Mg7 O4 2.138468 1_555
Mg7 O11 2.159256 1_555
Mg8 O8 2.119578 1_565
Mg8 O6 2.123934 1_555
Mg8 O7 2.123934 1_554
Mg8 O2 2.124275 1_655
Mg8 O2 2.124275 1_555
Mg8 O10 2.129572 1_555
Mg9 O9 2.089893 1_565
Mg9 O3 2.124684 1_655
Mg9 O3 2.124684 1_555
Mg9 O7 2.138468 1_555
Mg9 O6 2.138468 1_555
Mg9 O11 2.159256 1_555
Mg10 O1 2.087909 1_555
Mg10 O4 2.121672 1_555
Mg10 O4 2.121672 1_455
Mg10 O12 2.126321 1_555
Mg10 O14 2.148698 1_555
Mg10 O0 2.179772 1_555
Mg11 O1 2.087909 1_555
Mg11 O5 2.121672 1_455
Mg11 O5 2.121672 1_555
Mg11 O13 2.126321 1_555
Mg11 O15 2.148698 1_555
Mg11 O0 2.179772 1_556
Mg12 O3 2.087909 1_555
Mg12 O6 2.121672 1_455
Mg12 O6 2.121672 1_555
Mg12 O12 2.126321 1_565
Mg12 O14 2.148698 1_555
Mg12 O2 2.179772 1_555
Mg13 O3 2.087909 1_555
Mg13 O7 2.121672 1_455
Mg13 O7 2.121672 1_555
Mg13 O13 2.126321 1_565
Mg13 O15 2.148698 1_555
Mg13 O2 2.179772 1_556
Al0 O13 1.860275 1_554
Al0 O12 1.860275 1_555
Al0 O0 2.000958 1_555
Al0 O2 2.000958 1_545
Al0 O8 2.120961 1_555
Al0 O8 2.120961 1_455
Co0 O9 2.120961 1_555
Co0 O9 2.120961 1_455
Co0 O1 2.215626 1_555
Co0 O3 2.215626 1_545
Co0 O12 2.401973 1_555
Co0 O13 2.401973 1_555
