# generated using pymatgen
data_Li4Cr3CoO8
_symmetry_space_group_name_H-M   'P 1'
_cell_length_a   5.93636966
_cell_length_b   8.85452119
_cell_length_c   6.62665069
_cell_angle_alpha   81.25657976
_cell_angle_beta   116.11647213
_cell_angle_gamma   109.68067628
_symmetry_Int_Tables_number   1
_chemical_formula_structural   Li4Cr3CoO8
_chemical_formula_sum   'Li8 Cr6 Co2 O16'
_cell_volume   294.48517489
_cell_formula_units_Z   2
loop_
 _symmetry_equiv_pos_site_id
 _symmetry_equiv_pos_as_xyz
  1  'x, y, z'
loop_
 _atom_site_type_symbol
 _atom_site_label
 _atom_site_symmetry_multiplicity
 _atom_site_fract_x
 _atom_site_fract_y
 _atom_site_fract_z
 _atom_site_occupancy
  Li  Li0  1  0.99983500  0.99816900  0.99981500  1
  Li  Li1  1  0.00013300  0.50186400  0.50017000  1
  Li  Li2  1  0.50276200  0.00139600  0.99922500  1
  Li  Li3  1  0.49712500  0.49867500  0.50076400  1
  Li  Li4  1  0.25018100  0.24451500  0.75501900  1
  Li  Li5  1  0.24129000  0.74574000  0.25912300  1
  Li  Li6  1  0.75864200  0.75425600  0.24093300  1
  Li  Li7  1  0.74974700  0.25545900  0.74501300  1
  Cr  Cr0  1  0.00006200  0.25015600  0.24991500  1
  Cr  Cr1  1  0.99997300  0.75011800  0.74994400  1
  Cr  Cr2  1  0.75339900  0.50131600  0.00010000  1
  Cr  Cr3  1  0.74853900  0.99977700  0.50214200  1
  Cr  Cr4  1  0.25123400  0.50010200  0.99774000  1
  Cr  Cr5  1  0.24668500  0.99860000  0.50002000  1
  Co  Co0  1  0.50010200  0.75003100  0.75003200  1
  Co  Co1  1  0.49997400  0.24998400  0.25001900  1
  O  O0  1  0.39391400  0.51479100  0.76634100  1
  O  O1  1  0.38994700  0.01150300  0.26670200  1
  O  O2  1  0.61008200  0.48848300  0.23327600  1
  O  O3  1  0.60606600  0.98519900  0.73355400  1
  O  O4  1  0.11392100  0.49251500  0.23249300  1
  O  O5  1  0.10934500  0.99182800  0.73275200  1
  O  O6  1  0.89066800  0.50806200  0.76723600  1
  O  O7  1  0.88602900  0.00743700  0.26741400  1
  O  O8  1  0.63961400  0.25808200  0.01324800  1
  O  O9  1  0.63120000  0.75681300  0.52538200  1
  O  O10  1  0.13409200  0.25768000  0.01306000  1
  O  O11  1  0.11988500  0.75769100  0.50663000  1
  O  O12  1  0.88020300  0.74231600  0.99333900  1
  O  O13  1  0.86586500  0.24232200  0.48702200  1
  O  O14  1  0.36902700  0.74319500  0.97473200  1
  O  O15  1  0.36045600  0.24192400  0.48684800  1
loop_
_geom_bond_atom_site_label_1
_geom_bond_atom_site_label_2
_geom_bond_distance
_geom_bond_site_symmetry_2
Li0 O12 2.134840 1_555
Li0 O5 2.150676 1_655
Li0 O10 2.165456 1_666
Li0 O7 2.178077 1_566
Li0 O1 2.185950 1_666
Li0 O3 2.200045 1_555
Li1 O11 2.134593 1_555
Li1 O6 2.150195 1_455
Li1 O13 2.165689 1_455
Li1 O4 2.178689 1_555
Li1 O2 2.185644 1_455
Li1 O0 2.199961 1_555
Li2 O3 2.140687 1_545
Li2 O8 2.142068 1_556
Li2 O14 2.158790 1_545
Li2 O7 2.173692 1_556
Li2 O1 2.175284 1_556
Li2 O5 2.204805 1_545
Li3 O0 2.139512 1_555
Li3 O15 2.142579 1_555
Li3 O9 2.158280 1_555
Li3 O4 2.173420 1_555
Li3 O2 2.176130 1_555
Li3 O6 2.205638 1_555
Li4 O5 2.111545 1_545
Li4 O10 2.136493 1_556
Li4 O15 2.152620 1_555
Li4 O8 2.163271 1_556
Li4 O13 2.184682 1_455
Li4 O0 2.254717 1_555
Li5 O12 2.084805 1_454
Li5 O11 2.089376 1_555
Li5 O4 2.119236 1_555
Li5 O9 2.187365 1_555
Li5 O1 2.217438 1_565
Li5 O14 2.325862 1_554
Li6 O11 2.085161 1_655
Li6 O12 2.090548 1_554
Li6 O7 2.118776 1_565
Li6 O14 2.186046 1_554
Li6 O2 2.217508 1_555
Li6 O9 2.325054 1_555
Li7 O6 2.110836 1_555
Li7 O13 2.136227 1_555
Li7 O8 2.152529 1_556
Li7 O15 2.162592 1_555
Li7 O10 2.184863 1_656
Li7 O3 2.254608 1_545
Cr0 O4 2.022815 1_555
Cr0 O7 2.025834 1_455
Cr0 O10 2.032969 1_555
Cr0 O13 2.034660 1_455
Cr0 O8 2.038706 1_455
Cr0 O15 2.039743 1_555
Cr1 O12 2.013546 1_555
Cr1 O11 2.014040 1_655
Cr1 O5 2.017456 1_655
Cr1 O6 2.020377 1_555
Cr1 O9 2.050110 1_555
Cr1 O14 2.052313 1_655
Cr2 O12 2.010228 1_554
Cr2 O6 2.023616 1_554
Cr2 O8 2.029102 1_555
Cr2 O4 2.032792 1_655
Cr2 O2 2.040390 1_555
Cr2 O0 2.042757 1_554
Cr3 O3 2.022799 1_555
Cr3 O13 2.023839 1_565
Cr3 O5 2.028565 1_655
Cr3 O9 2.030150 1_555
Cr3 O7 2.034348 1_565
Cr3 O1 2.037670 1_565
Cr4 O10 2.022862 1_556
Cr4 O0 2.023427 1_555
Cr4 O6 2.027344 1_455
Cr4 O14 2.031168 1_555
Cr4 O4 2.033881 1_556
Cr4 O2 2.038690 1_556
Cr5 O11 2.009451 1_555
Cr5 O5 2.023054 1_555
Cr5 O15 2.029859 1_565
Cr5 O7 2.033870 1_465
Cr5 O1 2.040905 1_565
Cr5 O3 2.041681 1_555
Co0 O9 1.945961 1_555
Co0 O14 1.946067 1_555
Co0 O3 1.962824 1_555
Co0 O0 1.963370 1_555
Co0 O12 2.136132 1_555
Co0 O11 2.136685 1_555
Co1 O1 1.990339 1_555
Co1 O2 1.990503 1_555
Co1 O15 2.055360 1_555
Co1 O8 2.055454 1_555
Co1 O10 2.062145 1_555
Co1 O13 2.062187 1_555
