# generated using pymatgen
data_KGdHf4O12
_symmetry_space_group_name_H-M   'P 1'
_cell_length_a   7.84240391
_cell_length_b   7.84240391
_cell_length_c   11.59766890
_cell_angle_alpha   90.00000000
_cell_angle_beta   90.00000000
_cell_angle_gamma   80.23726346
_symmetry_Int_Tables_number   1
_chemical_formula_structural   KGdHf4O12
_chemical_formula_sum   'K1 Gd1 Hf4 O12'
_cell_volume   702.96523921
_cell_formula_units_Z   1
loop_
 _symmetry_equiv_pos_site_id
 _symmetry_equiv_pos_as_xyz
  1  'x, y, z'
loop_
 _atom_site_type_symbol
 _atom_site_label
 _atom_site_symmetry_multiplicity
 _atom_site_fract_x
 _atom_site_fract_y
 _atom_site_fract_z
 _atom_site_occupancy
  K  K0  1  0.01979764  0.98020236  0.50000000  1
  Gd  Gd0  1  0.45499123  0.54500877  0.00000000  1
  Hf  Hf0  1  0.52474977  0.02905357  0.25581665  1
  Hf  Hf1  1  0.52474977  0.02905357  0.74418335  1
  Hf  Hf2  1  0.97094643  0.47525023  0.74418335  1
  Hf  Hf3  1  0.97094643  0.47525023  0.25581665  1
  O  O0  1  0.23922022  0.23737548  0.24082656  1
  O  O1  1  0.76262452  0.76077978  0.24082656  1
  O  O2  1  0.76262452  0.76077978  0.75917344  1
  O  O3  1  0.23922022  0.23737548  0.75917344  1
  O  O4  1  0.27567200  0.72432800  0.24139737  1
  O  O5  1  0.69585545  0.30414455  0.18239686  1
  O  O6  1  0.69585545  0.30414455  0.81760314  1
  O  O7  1  0.27567200  0.72432800  0.75860263  1
  O  O8  1  0.49986816  0.90623620  0.00000000  1
  O  O9  1  0.52695387  0.01791147  0.50000000  1
  O  O10  1  0.09376380  0.50013184  0.00000000  1
  O  O11  1  0.98208853  0.47304613  0.50000000  1
loop_
_geom_bond_atom_site_label_1
_geom_bond_atom_site_label_2
_geom_bond_distance
_geom_bond_site_symmetry_2
Gd0 O8 2.913291 1_555
Gd0 O10 2.913291 1_555
Gd0 O6 3.225063 1_554
Gd0 O5 3.225063 1_555
Gd0 O7 3.335063 1_554
Gd0 O4 3.335063 1_555
Hf0 O0 2.544180 1_555
Hf0 O1 2.570161 1_545
Hf0 O9 2.833268 1_555
Hf0 O5 2.856875 1_555
Hf0 O8 3.135586 1_545
Hf1 O3 2.544180 1_555
Hf1 O2 2.570161 1_545
Hf1 O9 2.833268 1_555
Hf1 O6 2.856875 1_555
Hf1 O8 3.135586 1_546
Hf2 O2 2.544180 1_555
Hf2 O3 2.570161 1_655
Hf2 O11 2.833268 1_555
Hf2 O6 2.856875 1_555
Hf2 O10 3.135586 1_656
Hf3 O1 2.544180 1_555
Hf3 O0 2.570161 1_655
Hf3 O11 2.833268 1_555
Hf3 O5 2.856875 1_555
Hf3 O10 3.135586 1_655
