# generated using pymatgen
data_Na2MnPCO7
_symmetry_space_group_name_H-M   'P 1'
_cell_length_a   6.78010800
_cell_length_b   10.22383780
_cell_length_c   10.35700830
_cell_angle_alpha   119.41230555
_cell_angle_beta   90.16891119
_cell_angle_gamma   90.39810983
_symmetry_Int_Tables_number   1
_chemical_formula_structural   Na2MnPCO7
_chemical_formula_sum   'Na8 Mn4 P4 C4 O28'
_cell_volume   625.36706728
_cell_formula_units_Z   4
loop_
 _symmetry_equiv_pos_site_id
 _symmetry_equiv_pos_as_xyz
  1  'x, y, z'
loop_
 _atom_site_type_symbol
 _atom_site_label
 _atom_site_symmetry_multiplicity
 _atom_site_fract_x
 _atom_site_fract_y
 _atom_site_fract_z
 _atom_site_occupancy
  Na  Na0  1  0.98299100  0.74433700  0.74921500  1
  Na  Na1  1  0.51912500  0.74358300  0.75066800  1
  Na  Na2  1  0.99285300  0.75767000  0.25592000  1
  Na  Na3  1  0.50859100  0.75891900  0.25574100  1
  Na  Na4  1  0.49116500  0.24728200  0.74016400  1
  Na  Na5  1  0.00414600  0.24580500  0.73647500  1
  Na  Na6  1  0.01293300  0.25060100  0.25970400  1
  Na  Na7  1  0.26420600  0.08758100  0.93881500  1
  Mn  Mn0  1  0.24857300  0.64707900  0.93163100  1
  Mn  Mn1  1  0.25136800  0.64396300  0.43481800  1
  Mn  Mn2  1  0.74219100  0.35032900  0.56227900  1
  Mn  Mn3  1  0.74407100  0.34930500  0.07047000  1
  P  P0  1  0.74953100  0.57766900  0.93576800  1
  P  P1  1  0.75186200  0.57938500  0.43308300  1
  P  P2  1  0.24763800  0.42112300  0.56625300  1
  P  P3  1  0.24837200  0.41921300  0.05834900  1
  C  C0  1  0.24739000  0.92670700  0.09848800  1
  C  C1  1  0.25112200  0.92685800  0.60561000  1
  C  C2  1  0.75075000  0.07360800  0.40017700  1
  C  C3  1  0.75305700  0.07324800  0.90017000  1
  O  O0  1  0.75358200  0.93345700  0.32833300  1
  O  O1  1  0.75388900  0.93270700  0.82124100  1
  O  O2  1  0.25297300  0.84983100  0.94943100  1
  O  O3  1  0.25235500  0.85246800  0.45935800  1
  O  O4  1  0.25033300  0.83887800  0.15623200  1
  O  O5  1  0.25421500  0.84113200  0.66620200  1
  O  O6  1  0.93469400  0.67167300  0.94746500  1
  O  O7  1  0.56298100  0.66779100  0.94566100  1
  O  O8  1  0.93856900  0.67554400  0.45033700  1
  O  O9  1  0.56408700  0.66885600  0.44281900  1
  O  O10  1  0.74953800  0.54681400  0.56782600  1
  O  O11  1  0.24614400  0.57826600  0.70973700  1
  O  O12  1  0.75060600  0.54446500  0.07042200  1
  O  O13  1  0.25213700  0.57100700  0.20501300  1
  O  O14  1  0.75000100  0.42443400  0.78946000  1
  O  O15  1  0.23830300  0.45491300  0.92519200  1
  O  O16  1  0.76066100  0.42728800  0.28792600  1
  O  O17  1  0.24386200  0.45566700  0.43251000  1
  O  O18  1  0.43212300  0.33463700  0.56321000  1
  O  O19  1  0.06111800  0.32970200  0.55444100  1
  O  O20  1  0.43304100  0.32275900  0.03255300  1
  O  O21  1  0.06794100  0.32029500  0.04544900  1
  O  O22  1  0.75563100  0.16353600  0.34561500  1
  O  O23  1  0.74812400  0.16729400  0.84818000  1
  O  O24  1  0.74203900  0.14844300  0.54818600  1
  O  O25  1  0.75502600  0.14263900  0.04604600  1
  O  O26  1  0.23899000  0.06616600  0.16409100  1
  O  O27  1  0.24719900  0.06834800  0.68132900  1
loop_
_geom_bond_atom_site_label_1
_geom_bond_atom_site_label_2
_geom_bond_distance
_geom_bond_site_symmetry_2
Na0 O1 2.305568 1_555
Na0 O11 2.365993 1_655
Na0 O5 2.433086 1_655
Na0 O10 2.514888 1_555
Na0 O6 2.524654 1_555
Na0 O2 2.562717 1_655
Na0 O8 2.832067 1_555
Na1 O1 2.317068 1_555
Na1 O11 2.389597 1_555
Na1 O5 2.420446 1_555
Na1 O7 2.510799 1_555
Na1 O10 2.528456 1_555
Na1 O2 2.554788 1_555
Na1 O9 2.908424 1_555
Na2 O0 2.268941 1_555
Na2 O4 2.373892 1_655
Na2 O13 2.464612 1_655
Na2 O3 2.534408 1_655
Na2 O8 2.560390 1_555
Na2 O12 2.637913 1_555
Na2 O6 2.891959 1_554
Na3 O0 2.267684 1_555
Na3 O4 2.373451 1_555
Na3 O13 2.438679 1_555
Na3 O3 2.538494 1_555
Na3 O9 2.548808 1_555
Na3 O12 2.668137 1_555
Na3 O7 2.896678 1_554
Na4 O27 2.304606 1_555
Na4 O14 2.379734 1_555
Na4 O23 2.421257 1_555
Na4 O18 2.434133 1_555
Na4 O24 2.436840 1_555
Na4 O15 2.681846 1_555
Na4 O20 2.763568 1_556
Na5 O27 2.315784 1_555
Na5 O14 2.381295 1_455
Na5 O23 2.429108 1_455
Na5 O24 2.449555 1_455
Na5 O19 2.455080 1_555
Na5 O15 2.596479 1_555
Na6 O26 2.258426 1_555
Na6 O22 2.322272 1_455
Na6 O16 2.408619 1_455
Na6 O17 2.510512 1_555
Na6 O25 2.593102 1_455
Na6 O21 2.669293 1_555
Na6 O19 2.764930 1_555
Na7 O20 2.386763 1_556
Na7 O26 2.454483 1_556
Na7 O21 2.474480 1_556
Na7 O2 2.487217 1_545
Na7 O27 2.578087 1_555
Na7 O5 2.708187 1_545
Mn0 O15 1.933552 1_555
Mn0 O2 1.988862 1_555
Mn0 O11 2.046547 1_555
Mn0 O7 2.138192 1_555
Mn0 O6 2.141977 1_455
Mn0 O4 2.185370 1_556
Mn1 O17 1.913801 1_555
Mn1 O3 2.019040 1_555
Mn1 O13 2.116056 1_555
Mn1 O9 2.130241 1_555
Mn1 O8 2.142073 1_455
Mn1 O5 2.249738 1_555
Mn2 O10 1.981521 1_555
Mn2 O24 1.996415 1_555
Mn2 O14 2.088264 1_555
Mn2 O18 2.107706 1_555
Mn2 O22 2.117889 1_555
Mn2 O19 2.171962 1_655
Mn3 O16 1.988544 1_555
Mn3 O12 1.995712 1_555
Mn3 O25 2.002815 1_555
Mn3 O23 2.134755 1_554
Mn3 O20 2.134823 1_555
Mn3 O21 2.216732 1_655
C0 O26 1.244055 1_565
C0 O4 1.300774 1_555
C0 O2 1.345906 1_554
C1 O27 1.262821 1_565
C1 O5 1.304921 1_555
C1 O3 1.319690 1_555
C2 O0 1.249183 1_545
C2 O22 1.294501 1_555
C2 O24 1.337145 1_555
C3 O1 1.256723 1_545
C3 O23 1.313169 1_555
C3 O25 1.316479 1_556
O6 P0 1.543511 1_555
O7 P0 1.543855 1_555
O8 P1 1.552338 1_555
O9 P1 1.547298 1_555
O10 P1 1.585921 1_555
O11 P2 1.563652 1_555
O12 P0 1.589091 1_554
O13 P3 1.549298 1_555
O14 P0 1.555316 1_555
O15 P3 1.591855 1_556
O16 P1 1.545152 1_555
O17 P2 1.588870 1_555
O18 P2 1.528280 1_555
O19 P2 1.535648 1_555
O20 P3 1.540093 1_555
O21 P3 1.544772 1_555
