# generated using pymatgen
data_Mg14TiW
_symmetry_space_group_name_H-M   'P 1'
_cell_length_a   6.31885998
_cell_length_b   6.05275022
_cell_length_c   10.04397398
_cell_angle_alpha   90.00000000
_cell_angle_beta   90.00000000
_cell_angle_gamma   118.61640956
_symmetry_Int_Tables_number   1
_chemical_formula_structural   Mg14TiW
_chemical_formula_sum   'Mg14 Ti1 W1'
_cell_volume   337.22154902
_cell_formula_units_Z   1
loop_
 _symmetry_equiv_pos_site_id
 _symmetry_equiv_pos_as_xyz
  1  'x, y, z'
loop_
 _atom_site_type_symbol
 _atom_site_label
 _atom_site_symmetry_multiplicity
 _atom_site_fract_x
 _atom_site_fract_y
 _atom_site_fract_z
 _atom_site_occupancy
  Mg  Mg0  1  0.16724255  0.33362077  0.62500000  1
  Mg  Mg1  1  0.16425272  0.83212586  0.62500000  1
  Mg  Mg2  1  0.66018001  0.32805429  0.12500000  1
  Mg  Mg3  1  0.66311479  0.33262680  0.62500000  1
  Mg  Mg4  1  0.66018001  0.83212473  0.12500000  1
  Mg  Mg5  1  0.66311479  0.83048699  0.62500000  1
  Mg  Mg6  1  0.32954706  0.16073449  0.36289459  1
  Mg  Mg7  1  0.32954706  0.16073449  0.88710541  1
  Mg  Mg8  1  0.32954706  0.66881357  0.36289459  1
  Mg  Mg9  1  0.32954706  0.66881357  0.88710541  1
  Mg  Mg10  1  0.84550159  0.17275130  0.37256958  1
  Mg  Mg11  1  0.84550159  0.17275130  0.87743042  1
  Mg  Mg12  1  0.84911941  0.67456021  0.36414353  1
  Mg  Mg13  1  0.84911941  0.67456021  0.88585647  1
  Ti  Ti0  1  0.15908175  0.32954038  0.12500000  1
  W  W0  1  0.15540315  0.82770107  0.12500000  1
loop_
_geom_bond_atom_site_label_1
_geom_bond_atom_site_label_2
_geom_bond_distance
_geom_bond_site_symmetry_2
Mg0 Mg1 3.026421 1_545
Mg0 Mg1 3.026421 1_555
Mg0 Mg10 3.100549 1_455
Mg0 Mg11 3.100549 1_455
Mg0 Mg5 3.136233 1_555
Mg0 Mg3 3.136233 1_555
Mg0 Mg6 3.178888 1_555
Mg0 Mg7 3.178888 1_555
Mg0 Mg8 3.178894 1_555
Mg0 Mg9 3.178894 1_555
Mg0 Mg5 3.182635 1_445
Mg0 Mg3 3.182636 1_455
Mg1 Mg12 3.149640 1_455
Mg1 Mg13 3.149640 1_455
Mg1 Mg3 3.157002 1_565
Mg1 Mg5 3.157003 1_555
Mg1 Mg9 3.160297 1_555
Mg1 Mg8 3.160297 1_555
Mg1 Mg6 3.160302 1_565
Mg1 Mg7 3.160302 1_565
Mg1 Mg3 3.161881 1_455
Mg1 Mg5 3.161881 1_455
Mg2 Mg4 3.001738 1_545
Mg2 Mg6 3.012147 1_555
Mg2 Mg7 3.012147 1_554
Mg2 Mg4 3.051012 1_555
Mg2 W0 3.142157 1_655
Mg2 Ti0 3.148192 1_655
Mg2 Ti0 3.170688 1_555
Mg2 W0 3.176877 1_545
Mg3 Mg5 3.013423 1_555
Mg3 Mg5 3.039327 1_545
Mg3 Mg7 3.217923 1_555
Mg3 Mg6 3.217923 1_555
Mg4 Mg8 3.012147 1_555
Mg4 Mg9 3.012147 1_554
Mg4 W0 3.142157 1_655
Mg4 Ti0 3.148192 1_665
Mg4 Ti0 3.170687 1_555
Mg4 W0 3.176877 1_555
Mg5 Mg8 3.217923 1_555
Mg5 Mg9 3.217923 1_555
Mg6 W0 2.976361 1_545
Mg6 Mg8 2.977474 1_545
Mg6 Ti0 2.994608 1_555
Mg6 Mg8 3.075276 1_555
Mg7 W0 2.976361 1_546
Mg7 Mg9 2.977474 1_545
Mg7 Ti0 2.994608 1_556
Mg7 Mg9 3.075276 1_555
Mg8 W0 2.976355 1_555
Mg8 Ti0 2.994614 1_555
Mg9 W0 2.976355 1_556
Mg9 Ti0 2.994614 1_556
Mg10 Mg12 3.027625 1_555
Mg10 Mg12 3.027625 1_545
Mg10 Ti0 3.034582 1_655
Mg10 Mg2 3.080977 1_555
Mg10 Mg4 3.080982 1_545
Mg10 Mg8 3.095636 1_655
Mg10 Mg6 3.095636 1_655
Mg10 Mg3 3.124286 1_555
Mg10 Mg5 3.124292 1_545
Mg10 Mg8 3.227504 1_545
Mg10 Mg6 3.227504 1_555
Mg11 Mg13 3.027625 1_555
Mg11 Mg13 3.027625 1_545
Mg11 Ti0 3.034582 1_656
Mg11 Mg2 3.080977 1_556
Mg11 Mg4 3.080982 1_546
Mg11 Mg9 3.095636 1_655
Mg11 Mg7 3.095636 1_655
Mg11 Mg3 3.124286 1_555
Mg11 Mg5 3.124292 1_545
Mg11 Mg9 3.227504 1_545
Mg11 Mg7 3.227504 1_555
Mg12 W0 2.942075 1_655
Mg12 Mg4 3.032312 1_555
Mg12 Mg2 3.032318 1_555
Mg12 Mg6 3.052592 1_665
Mg12 Mg8 3.052593 1_655
Mg12 Mg5 3.193632 1_555
Mg12 Mg3 3.193638 1_555
Mg12 Mg6 3.266612 1_555
Mg12 Mg8 3.266613 1_555
Mg13 W0 2.942075 1_656
Mg13 Mg4 3.032312 1_556
Mg13 Mg2 3.032318 1_556
Mg13 Mg7 3.052592 1_665
Mg13 Mg9 3.052593 1_655
Mg13 Mg5 3.193632 1_555
Mg13 Mg3 3.193638 1_555
Mg13 Mg7 3.266612 1_555
Mg13 Mg9 3.266613 1_555
Ti0 W0 3.026444 1_555
Ti0 W0 3.026444 1_545
