# generated using pymatgen
data_Cs2NaLaBr6
_symmetry_space_group_name_H-M   'P 1'
_cell_length_a   8.30337674
_cell_length_b   8.30337674
_cell_length_c   8.30337674
_cell_angle_alpha   60.00000000
_cell_angle_beta   60.00000000
_cell_angle_gamma   60.00000000
_symmetry_Int_Tables_number   1
_chemical_formula_structural   Cs2NaLaBr6
_chemical_formula_sum   'Cs2 Na1 La1 Br6'
_cell_volume   404.80813518
_cell_formula_units_Z   1
loop_
 _symmetry_equiv_pos_site_id
 _symmetry_equiv_pos_as_xyz
  1  'x, y, z'
loop_
 _atom_site_type_symbol
 _atom_site_label
 _atom_site_symmetry_multiplicity
 _atom_site_fract_x
 _atom_site_fract_y
 _atom_site_fract_z
 _atom_site_occupancy
  Cs  Cs0  1  0.25000000  0.25000000  0.25000000  1
  Cs  Cs1  1  0.75000000  0.75000000  0.75000000  1
  Na  Na0  1  0.00000000  0.00000000  0.00000000  1
  La  La0  1  0.50000000  0.50000000  0.50000000  1
  Br  Br0  1  0.25034900  0.25034900  0.74965100  1
  Br  Br1  1  0.25034900  0.74965100  0.74965100  1
  Br  Br2  1  0.25034900  0.74965100  0.25034900  1
  Br  Br3  1  0.74965100  0.25034900  0.25034900  1
  Br  Br4  1  0.74965100  0.25034900  0.74965100  1
  Br  Br5  1  0.74965100  0.74965100  0.25034900  1
loop_
_geom_bond_atom_site_label_1
_geom_bond_atom_site_label_2
_geom_bond_distance
_geom_bond_site_symmetry_2
Br0 La0 2.931589 1_555
Br0 Na0 2.939785 1_556
Br0 Cs1 4.151690 1_455
Br0 Cs1 4.151690 1_545
Br0 Cs0 4.151690 1_555
Br0 Cs0 4.151690 1_556
Br1 La0 2.931589 1_555
Br1 Na0 2.939785 1_566
Br1 Cs1 4.151690 1_455
Br1 Cs0 4.151690 1_556
Br1 Cs0 4.151690 1_565
Br1 Cs1 4.151690 1_555
Br2 La0 2.931589 1_555
Br2 Na0 2.939785 1_565
Br2 Cs0 4.151690 1_555
Br2 Cs1 4.151690 1_554
Br2 Cs1 4.151690 1_455
Br2 Cs0 4.151690 1_565
Br3 La0 2.931589 1_555
Br3 Na0 2.939785 1_655
Br3 Cs1 4.151690 1_554
Br3 Cs1 4.151690 1_545
Br3 Cs0 4.151690 1_555
Br3 Cs0 4.151690 1_655
Br4 La0 2.931589 1_555
Br4 Na0 2.939785 1_656
Br4 Cs1 4.151690 1_545
Br4 Cs0 4.151690 1_655
Br4 Cs1 4.151690 1_555
Br4 Cs0 4.151690 1_556
Br5 La0 2.931589 1_555
Br5 Na0 2.939785 1_665
Br5 Cs1 4.151690 1_554
Br5 Cs0 4.151690 1_565
Br5 Cs0 4.151690 1_655
Br5 Cs1 4.151690 1_555
