# generated using pymatgen
data_KLi2FeO3
_symmetry_space_group_name_H-M   'P 1'
_cell_length_a   6.13782700
_cell_length_b   6.55042700
_cell_length_c   8.79284700
_cell_angle_alpha   90.00000000
_cell_angle_beta   90.00000000
_cell_angle_gamma   90.00000000
_symmetry_Int_Tables_number   1
_chemical_formula_structural   KLi2FeO3
_chemical_formula_sum   'K4 Li8 Fe4 O12'
_cell_volume   353.51982264
_cell_formula_units_Z   4
loop_
 _symmetry_equiv_pos_site_id
 _symmetry_equiv_pos_as_xyz
  1  'x, y, z'
loop_
 _atom_site_type_symbol
 _atom_site_label
 _atom_site_symmetry_multiplicity
 _atom_site_fract_x
 _atom_site_fract_y
 _atom_site_fract_z
 _atom_site_occupancy
  K  K0  1  0.75000000  0.17768300  0.48911900  1
  K  K1  1  0.25000000  0.32231700  0.98911900  1
  K  K2  1  0.75000000  0.67768300  0.01088100  1
  K  K3  1  0.25000000  0.82231700  0.51088100  1
  Li  Li0  1  0.50529900  0.00506800  0.76914400  1
  Li  Li1  1  0.99470100  0.00506800  0.76914400  1
  Li  Li2  1  0.49470100  0.49493200  0.26914400  1
  Li  Li3  1  0.00529900  0.49493200  0.26914400  1
  Li  Li4  1  0.50529900  0.50506800  0.73085600  1
  Li  Li5  1  0.99470100  0.50506800  0.73085600  1
  Li  Li6  1  0.00529900  0.99493200  0.23085600  1
  Li  Li7  1  0.49470100  0.99493200  0.23085600  1
  Fe  Fe0  1  0.75000000  0.18382100  0.00383600  1
  Fe  Fe1  1  0.25000000  0.31617900  0.50383600  1
  Fe  Fe2  1  0.75000000  0.68382100  0.49616400  1
  Fe  Fe3  1  0.25000000  0.81617900  0.99616400  1
  O  O0  1  0.00000000  0.00000000  0.00000000  1
  O  O1  1  0.50000000  0.00000000  0.00000000  1
  O  O2  1  0.25000000  0.15501300  0.32780300  1
  O  O3  1  0.25000000  0.16290900  0.68270000  1
  O  O4  1  0.75000000  0.33709100  0.18270000  1
  O  O5  1  0.75000000  0.34498700  0.82780300  1
  O  O6  1  0.50000000  0.50000000  0.50000000  1
  O  O7  1  0.00000000  0.50000000  0.50000000  1
  O  O8  1  0.25000000  0.65501300  0.17219700  1
  O  O9  1  0.25000000  0.66290900  0.81730000  1
  O  O10  1  0.75000000  0.83709100  0.31730000  1
  O  O11  1  0.75000000  0.84498700  0.67219700  1
loop_
_geom_bond_atom_site_label_1
_geom_bond_atom_site_label_2
_geom_bond_distance
_geom_bond_site_symmetry_2
K0 O6 2.611773 1_555
K0 O7 2.611773 1_655
K0 O10 2.694423 1_545
K0 O11 2.709379 1_545
K0 O4 2.889561 1_555
K1 O0 2.611773 1_556
K1 O1 2.611773 1_556
K1 O9 2.694423 1_555
K1 O8 2.709379 1_556
K1 O3 2.889561 1_555
K2 O1 2.611773 1_565
K2 O0 2.611773 1_665
K2 O4 2.694423 1_555
K2 O5 2.709379 1_554
K2 O10 2.889561 1_555
K3 O7 2.611773 1_555
K3 O6 2.611773 1_555
K3 O3 2.694423 1_565
K3 O2 2.709379 1_565
K3 O9 2.889561 1_555
Li0 O11 2.020400 1_545
Li0 O3 2.025381 1_555
Li0 O1 2.030413 1_556
Li1 O11 2.020400 1_545
Li1 O3 2.025381 1_655
Li1 O0 2.030413 1_656
Li2 O8 2.020400 1_555
Li2 O4 2.025381 1_555
Li2 O6 2.030413 1_555
Li3 O8 2.020400 1_555
Li3 O4 2.025381 1_455
Li3 O7 2.030413 1_555
Li4 O5 2.020400 1_555
Li4 O9 2.025381 1_555
Li4 O6 2.030413 1_555
Li5 O5 2.020400 1_555
Li5 O9 2.025381 1_655
Li5 O7 2.030413 1_655
Li6 O2 2.020400 1_565
Li6 O10 2.025381 1_455
Li6 O0 2.030413 1_565
Li7 O2 2.020400 1_565
Li7 O10 2.025381 1_555
Li7 O1 2.030413 1_565
Fe0 O4 1.865863 1_555
Fe0 O5 1.873579 1_554
Fe0 O1 1.950786 1_555
Fe0 O0 1.950786 1_655
Fe1 O3 1.865863 1_555
Fe1 O2 1.873579 1_555
Fe1 O7 1.950786 1_555
Fe1 O6 1.950786 1_555
Fe2 O10 1.865863 1_555
Fe2 O11 1.873579 1_555
Fe2 O7 1.950786 1_655
Fe2 O6 1.950786 1_555
Fe3 O9 1.865863 1_555
Fe3 O8 1.873579 1_556
Fe3 O0 1.950786 1_566
Fe3 O1 1.950786 1_566
