# generated using pymatgen
data_Ca2Mn3Si3O14
_symmetry_space_group_name_H-M   'P 1'
_cell_length_a   6.04904900
_cell_length_b   8.67015700
_cell_length_c   10.43489950
_cell_angle_alpha   72.98273032
_cell_angle_beta   90.00000000
_cell_angle_gamma   90.00000000
_symmetry_Int_Tables_number   1
_chemical_formula_structural   Ca2Mn3Si3O14
_chemical_formula_sum   'Ca4 Mn6 Si6 O28'
_cell_volume   523.30948752
_cell_formula_units_Z   2
loop_
 _symmetry_equiv_pos_site_id
 _symmetry_equiv_pos_as_xyz
  1  'x, y, z'
loop_
 _atom_site_type_symbol
 _atom_site_label
 _atom_site_symmetry_multiplicity
 _atom_site_fract_x
 _atom_site_fract_y
 _atom_site_fract_z
 _atom_site_occupancy
  Ca  Ca0  1  0.25000000  0.33169700  0.81162400  1
  Ca  Ca1  1  0.75000000  0.66830300  0.18837600  1
  Ca  Ca2  1  0.25000000  0.23890400  0.17872100  1
  Ca  Ca3  1  0.75000000  0.76109600  0.82127900  1
  Mn  Mn0  1  0.50000000  0.50000000  0.50000000  1
  Mn  Mn1  1  0.00000000  0.50000000  0.50000000  1
  Mn  Mn2  1  0.50000000  0.00000000  0.00000000  1
  Mn  Mn3  1  0.00000000  0.00000000  0.00000000  1
  Mn  Mn4  1  0.50000000  0.00000000  0.50000000  1
  Mn  Mn5  1  0.00000000  0.00000000  0.50000000  1
  Si  Si0  1  0.25000000  0.66560300  0.99701900  1
  Si  Si1  1  0.75000000  0.33439700  0.00298100  1
  Si  Si2  1  0.25000000  0.80588500  0.30725000  1
  Si  Si3  1  0.75000000  0.19411500  0.69275000  1
  Si  Si4  1  0.25000000  0.71588200  0.68951800  1
  Si  Si5  1  0.75000000  0.28411800  0.31048200  1
  O  O0  1  0.25000000  0.61608600  0.85075500  1
  O  O1  1  0.75000000  0.38391400  0.14924500  1
  O  O2  1  0.25000000  0.40734800  0.44068500  1
  O  O3  1  0.75000000  0.59265200  0.55931500  1
  O  O4  1  0.25000000  0.09896500  0.55798200  1
  O  O5  1  0.75000000  0.90103500  0.44201800  1
  O  O6  1  0.25000000  0.91565100  0.41774900  1
  O  O7  1  0.75000000  0.08434900  0.58225100  1
  O  O8  1  0.48130700  0.77037800  0.99678400  1
  O  O9  1  0.51869300  0.22962200  0.00321600  1
  O  O10  1  0.98130700  0.22962200  0.00321600  1
  O  O11  1  0.01869300  0.77037800  0.99678400  1
  O  O12  1  0.25000000  0.05599500  0.88893900  1
  O  O13  1  0.75000000  0.94400500  0.11106100  1
  O  O14  1  0.25000000  0.94493800  0.15692500  1
  O  O15  1  0.75000000  0.05506200  0.84307500  1
  O  O16  1  0.47493700  0.82336100  0.65942000  1
  O  O17  1  0.52506300  0.17663900  0.34058000  1
  O  O18  1  0.97493700  0.17663900  0.34058000  1
  O  O19  1  0.02506300  0.82336100  0.65942000  1
  O  O20  1  0.47072500  0.69449200  0.33668000  1
  O  O21  1  0.52927500  0.30550800  0.66332000  1
  O  O22  1  0.97072500  0.30550800  0.66332000  1
  O  O23  1  0.02927500  0.69449200  0.33668000  1
  O  O24  1  0.25000000  0.57498900  0.61170400  1
  O  O25  1  0.75000000  0.42501100  0.38829600  1
  O  O26  1  0.25000000  0.50224000  0.11670100  1
  O  O27  1  0.75000000  0.49776000  0.88329900  1
loop_
_geom_bond_atom_site_label_1
_geom_bond_atom_site_label_2
_geom_bond_distance
_geom_bond_site_symmetry_2
Ca0 O12 2.288233 1_555
Ca0 O21 2.346487 1_555
Ca0 O22 2.346487 1_455
Ca0 O24 2.495155 1_555
Ca0 O9 2.527113 1_556
Ca0 O10 2.527113 1_456
Ca0 O0 2.614518 1_555
Ca1 O13 2.288233 1_555
Ca1 O23 2.346487 1_655
Ca1 O20 2.346487 1_555
Ca1 O25 2.495155 1_555
Ca1 O8 2.527113 1_554
Ca1 O11 2.527113 1_654
Ca1 O1 2.614518 1_555
Ca2 O26 2.183301 1_555
Ca2 O17 2.319239 1_555
Ca2 O18 2.319239 1_455
Ca2 O10 2.467469 1_455
Ca2 O9 2.467469 1_555
Ca2 O14 2.624321 1_545
Ca3 O27 2.183301 1_555
Ca3 O16 2.319239 1_555
Ca3 O19 2.319239 1_655
Ca3 O8 2.467469 1_555
Ca3 O11 2.467469 1_655
Ca3 O15 2.624321 1_565
Mn0 O3 1.899041 1_555
Mn0 O2 1.899041 1_555
Mn0 O20 2.024151 1_555
Mn0 O21 2.024151 1_555
Mn0 O24 2.124125 1_555
Mn0 O25 2.124125 1_555
Mn1 O3 1.899041 1_455
Mn1 O2 1.899041 1_555
Mn1 O23 2.024151 1_555
Mn1 O22 2.024151 1_455
Mn1 O24 2.124125 1_555
Mn1 O25 2.124125 1_455
Mn2 O12 1.880528 1_554
Mn2 O13 1.880528 1_545
Mn2 O9 2.004130 1_555
Mn2 O8 2.004130 1_544
Mn2 O14 2.176850 1_545
Mn2 O15 2.176850 1_554
Mn3 O12 1.880528 1_554
Mn3 O13 1.880528 1_445
Mn3 O11 2.004130 1_544
Mn3 O10 2.004130 1_455
Mn3 O14 2.176850 1_545
Mn3 O15 2.176850 1_454
Mn4 O16 1.909076 1_545
Mn4 O17 1.909076 1_555
Mn4 O5 1.921746 1_545
Mn4 O4 1.921746 1_555
Mn4 O7 1.981364 1_555
Mn4 O6 1.981364 1_545
Mn5 O18 1.909076 1_455
Mn5 O19 1.909076 1_545
Mn5 O5 1.921746 1_445
Mn5 O4 1.921746 1_555
Mn5 O7 1.981364 1_455
Mn5 O6 1.981364 1_545
O0 Si4 1.651466 1_555
O0 Si0 1.702142 1_555
O1 Si5 1.651466 1_555
O1 Si1 1.702142 1_555
O6 Si2 1.696326 1_555
O7 Si3 1.696326 1_555
O8 Si0 1.667827 1_555
O9 Si1 1.667827 1_555
O10 Si1 1.667827 1_555
O11 Si0 1.667827 1_555
O14 Si2 1.675457 1_555
O15 Si3 1.675457 1_555
O16 Si4 1.626985 1_555
O17 Si5 1.626985 1_555
O18 Si5 1.626985 1_555
O19 Si4 1.626985 1_555
O20 Si2 1.623626 1_555
O21 Si3 1.623626 1_555
O22 Si3 1.623626 1_555
O23 Si2 1.623626 1_555
O24 Si4 1.652908 1_555
O25 Si5 1.652908 1_555
O26 Si0 1.590741 1_554
O27 Si1 1.590741 1_556
