# generated using pymatgen
data_MnCo4Cu10(SnS4)5
_symmetry_space_group_name_H-M   'P 1'
_cell_length_a   5.40467600
_cell_length_b   5.40467600
_cell_length_c   27.36862165
_cell_angle_alpha   84.33346272
_cell_angle_beta   84.33346272
_cell_angle_gamma   90.00000000
_symmetry_Int_Tables_number   1
_chemical_formula_structural   MnCo4Cu10(SnS4)5
_chemical_formula_sum   'Mn1 Co4 Cu10 Sn5 S20'
_cell_volume   791.61927290
_cell_formula_units_Z   1
loop_
 _symmetry_equiv_pos_site_id
 _symmetry_equiv_pos_as_xyz
  1  'x, y, z'
loop_
 _atom_site_type_symbol
 _atom_site_label
 _atom_site_symmetry_multiplicity
 _atom_site_fract_x
 _atom_site_fract_y
 _atom_site_fract_z
 _atom_site_occupancy
  Mn  Mn0  1  0.45000000  0.95000000  0.10000000  1
  Co  Co0  1  0.84999900  0.34999900  0.30000100  1
  Co  Co1  1  0.25000000  0.75000000  0.50000000  1
  Co  Co2  1  0.65000000  0.15000000  0.70000000  1
  Co  Co3  1  0.05000100  0.55000100  0.89999900  1
  Cu  Cu0  1  0.95000000  0.45000000  0.10000000  1
  Cu  Cu1  1  0.34995700  0.84995700  0.30008500  1
  Cu  Cu2  1  0.74999800  0.24999800  0.50000400  1
  Cu  Cu3  1  0.15000200  0.65000200  0.69999600  1
  Cu  Cu4  1  0.55004300  0.05004300  0.89991500  1
  Cu  Cu5  1  0.00028100  0.00028100  0.99943800  1
  Cu  Cu6  1  0.39971900  0.39971900  0.20056200  1
  Cu  Cu7  1  0.80000200  0.80000200  0.39999500  1
  Cu  Cu8  1  0.20000000  0.20000000  0.60000000  1
  Cu  Cu9  1  0.59999800  0.59999800  0.80000500  1
  Sn  Sn0  1  0.50048800  0.50048800  0.99902400  1
  Sn  Sn1  1  0.89951200  0.89951200  0.20097600  1
  Sn  Sn2  1  0.29998900  0.29998900  0.40002200  1
  Sn  Sn3  1  0.70000000  0.70000000  0.60000000  1
  Sn  Sn4  1  0.10001100  0.10001100  0.79997800  1
  S  S0  1  0.18302600  0.19521000  0.14871500  1
  S  S1  1  0.59438800  0.58664800  0.34653000  1
  S  S2  1  0.99447100  0.98678100  0.54651800  1
  S  S3  1  0.39448400  0.38679300  0.74650900  1
  S  S4  1  0.79356100  0.78703100  0.94630600  1
  S  S5  1  0.66825800  0.65607400  0.14871500  1
  S  S6  1  0.05908200  0.06682300  0.34653000  1
  S  S7  1  0.45901100  0.46670100  0.54651800  1
  S  S8  1  0.85900700  0.86669700  0.74650900  1
  S  S9  1  0.26013200  0.26666300  0.94630600  1
  S  S10  1  0.20479000  0.73174200  0.05128500  1
  S  S11  1  0.61296900  0.13986800  0.25369400  1
  S  S12  1  0.01320700  0.54099300  0.45349100  1
  S  S13  1  0.41321900  0.94098900  0.65348200  1
  S  S14  1  0.81335200  0.34091800  0.85347000  1
  S  S15  1  0.74392600  0.21697400  0.05128500  1
  S  S16  1  0.13333700  0.60643900  0.25369400  1
  S  S17  1  0.53330300  0.00551600  0.45349100  1
  S  S18  1  0.93329900  0.40552900  0.65348200  1
  S  S19  1  0.33317700  0.80561200  0.85347000  1
loop_
_geom_bond_atom_site_label_1
_geom_bond_atom_site_label_2
_geom_bond_distance
_geom_bond_site_symmetry_2
Mn0 S10 2.363251 1_555
Mn0 S0 2.363254 1_565
Mn0 S5 2.363255 1_555
Mn0 S15 2.363258 1_565
Co0 S6 2.267211 1_655
Co0 S1 2.267214 1_555
Co0 S11 2.267594 1_555
Co0 S16 2.267604 1_655
Co1 S12 2.267107 1_555
Co1 S17 2.267111 1_565
Co1 S7 2.267243 1_555
Co1 S2 2.267243 1_455
Co2 S3 2.267107 1_555
Co2 S8 2.267111 1_545
Co2 S18 2.267243 1_555
Co2 S13 2.267243 1_545
Co3 S19 2.267208 1_555
Co3 S14 2.267217 1_455
Co3 S9 2.267598 1_555
Co3 S4 2.267600 1_455
Cu0 S15 2.286713 1_555
Cu0 S0 2.286716 1_655
Cu0 S5 2.286716 1_555
Cu0 S10 2.286719 1_655
Cu1 S16 2.310511 1_555
Cu1 S11 2.310521 1_565
Cu1 S1 2.315300 1_555
Cu1 S6 2.315303 1_565
Cu2 S17 2.316181 1_555
Cu2 S12 2.316184 1_655
Cu2 S7 2.316192 1_555
Cu2 S2 2.316192 1_545
Cu3 S8 2.316181 1_455
Cu3 S3 2.316184 1_555
Cu3 S13 2.316192 1_555
Cu3 S18 2.316193 1_455
Cu4 S4 2.310514 1_545
Cu4 S9 2.310518 1_555
Cu4 S14 2.315297 1_555
Cu4 S19 2.315306 1_545
Cu5 S10 2.290131 1_546
Cu5 S15 2.290131 1_456
Cu5 S9 2.311484 1_555
Cu5 S4 2.311487 1_445
Cu6 S5 2.290128 1_555
Cu6 S0 2.290134 1_555
Cu6 S11 2.311484 1_555
Cu6 S16 2.311487 1_555
Cu7 S17 2.315048 1_565
Cu7 S12 2.315051 1_655
Cu7 S1 2.315180 1_555
Cu7 S6 2.315189 1_665
Cu8 S7 2.314861 1_555
Cu8 S18 2.314861 1_455
Cu8 S13 2.314861 1_545
Cu8 S2 2.314861 1_445
Cu9 S8 2.315045 1_555
Cu9 S3 2.315054 1_555
Cu9 S14 2.315183 1_555
Cu9 S19 2.315186 1_555
S0 Sn1 2.462442 1_445
S1 Sn2 2.483427 1_555
S2 Sn3 2.483899 1_555
S3 Sn4 2.483743 1_555
S4 Sn0 2.469108 1_555
S5 Sn1 2.462448 1_555
S6 Sn2 2.483424 1_555
S7 Sn3 2.483899 1_555
S8 Sn4 2.483747 1_665
S9 Sn0 2.469111 1_555
S10 Sn0 2.462445 1_554
S11 Sn1 2.469111 1_545
S12 Sn2 2.483743 1_555
S13 Sn3 2.483899 1_555
S14 Sn4 2.483427 1_655
S15 Sn0 2.462445 1_554
S16 Sn1 2.469108 1_455
S17 Sn2 2.483747 1_555
S18 Sn3 2.483899 1_555
S19 Sn4 2.483424 1_565
