# generated using pymatgen
data_GdPt2
_symmetry_space_group_name_H-M   'P 1'
_cell_length_a   5.43147928
_cell_length_b   5.43147853
_cell_length_c   5.43147978
_cell_angle_alpha   59.99999862
_cell_angle_beta   60.00000318
_cell_angle_gamma   59.99999760
_symmetry_Int_Tables_number   1
_chemical_formula_structural   GdPt2
_chemical_formula_sum   'Gd2 Pt4'
_cell_volume   113.30246597
_cell_formula_units_Z   2
loop_
 _symmetry_equiv_pos_site_id
 _symmetry_equiv_pos_as_xyz
  1  'x, y, z'
loop_
 _atom_site_type_symbol
 _atom_site_label
 _atom_site_symmetry_multiplicity
 _atom_site_fract_x
 _atom_site_fract_y
 _atom_site_fract_z
 _atom_site_occupancy
  Gd  Gd0  1  0.12500100  0.12500000  0.12500000  1
  Gd  Gd1  1  0.87499900  0.87500000  0.87500000  1
  Pt  Pt0  1  0.50000000  0.50000000  0.50000000  1
  Pt  Pt1  1  0.50000000  0.50000000  -0.00000000  1
  Pt  Pt2  1  -0.00000000  0.50000000  0.50000000  1
  Pt  Pt3  1  0.50000000  0.00000000  0.50000000  1
loop_
_geom_bond_atom_site_label_1
_geom_bond_atom_site_label_2
_geom_bond_distance
_geom_bond_site_symmetry_2
Gd0 Pt1 3.184482 1_555
Gd0 Pt3 3.184482 1_555
Gd0 Pt0 3.184484 1_545
Gd0 Pt2 3.184485 1_555
Gd0 Pt0 3.184485 1_554
Gd0 Pt1 3.184487 1_545
Gd0 Pt3 3.184487 1_554
Gd0 Pt2 3.184489 1_545
Gd0 Pt0 3.184489 1_455
Gd0 Pt2 3.184489 1_554
Gd0 Pt1 3.184492 1_455
Gd0 Pt3 3.184492 1_455
Gd0 Gd1 3.326079 1_544
Gd0 Gd1 3.326088 1_454
Gd0 Gd1 3.326089 1_445
Gd0 Gd1 3.326097 1_444
Gd1 Pt1 3.184482 1_556
Gd1 Pt3 3.184482 1_565
Gd1 Pt0 3.184484 1_565
Gd1 Pt2 3.184485 1_655
Gd1 Pt0 3.184485 1_556
Gd1 Pt1 3.184487 1_566
Gd1 Pt3 3.184487 1_566
Gd1 Pt2 3.184489 1_665
Gd1 Pt0 3.184489 1_655
Gd1 Pt2 3.184489 1_656
Gd1 Pt1 3.184492 1_656
Gd1 Pt3 3.184492 1_665
Pt0 Pt3 2.715739 1_555
Pt0 Pt3 2.715739 1_565
Pt0 Pt2 2.715740 1_555
Pt0 Pt2 2.715740 1_655
Pt0 Pt1 2.715740 1_555
Pt0 Pt1 2.715740 1_556
Pt1 Pt3 2.715740 1_564
Pt1 Pt3 2.715740 1_555
Pt1 Pt2 2.715740 1_654
Pt1 Pt2 2.715740 1_555
Pt2 Pt3 2.715739 1_555
Pt2 Pt3 2.715739 1_465
