# generated using pymatgen
data_LiMg6BO7
_symmetry_space_group_name_H-M   'P 1'
_cell_length_a   8.06476025
_cell_length_b   4.32316619
_cell_length_c   4.32316619
_cell_angle_alpha   90.00000000
_cell_angle_beta   90.00000000
_cell_angle_gamma   90.00000000
_symmetry_Int_Tables_number   1
_chemical_formula_structural   LiMg6BO7
_chemical_formula_sum   'Li1 Mg6 B1 O7'
_cell_volume   150.72848116
_cell_formula_units_Z   1
loop_
 _symmetry_equiv_pos_site_id
 _symmetry_equiv_pos_as_xyz
  1  'x, y, z'
loop_
 _atom_site_type_symbol
 _atom_site_label
 _atom_site_symmetry_multiplicity
 _atom_site_fract_x
 _atom_site_fract_y
 _atom_site_fract_z
 _atom_site_occupancy
  Li  Li0  1  0.00404632  -0.00000000  -0.00000000  1
  Mg  Mg0  1  0.00259812  0.50000000  0.50000000  1
  Mg  Mg1  1  0.49653886  0.50000000  0.50000000  1
  Mg  Mg2  1  0.25351445  0.00000000  0.50000000  1
  Mg  Mg3  1  0.74545538  0.00000000  0.50000000  1
  Mg  Mg4  1  0.25351445  0.50000000  -0.00000000  1
  Mg  Mg5  1  0.74545538  0.50000000  0.00000000  1
  B  B0  1  0.50060718  -0.00000000  0.00000000  1
  O  O0  1  0.32440578  0.00000000  0.00000000  1
  O  O1  1  0.67732615  0.00000000  -0.00000000  1
  O  O2  1  0.74929589  0.50000000  0.50000000  1
  O  O3  1  0.99926338  -0.00000000  0.50000000  1
  O  O4  1  0.49935764  0.00000000  0.50000000  1
  O  O5  1  0.99926338  0.50000000  0.00000000  1
  O  O6  1  0.49935764  0.50000000  0.00000000  1
loop_
_geom_bond_atom_site_label_1
_geom_bond_atom_site_label_2
_geom_bond_distance
_geom_bond_site_symmetry_2
Li0 O5 2.161927 1_455
Li0 O5 2.161927 1_445
Li0 O3 2.161927 1_455
Li0 O3 2.161927 1_454
Mg0 O2 2.042822 1_455
Mg0 O5 2.161750 1_456
Mg0 O5 2.161750 1_455
Mg0 O3 2.161750 1_465
Mg0 O3 2.161750 1_455
Mg1 O2 2.038425 1_555
Mg1 O4 2.161703 1_565
Mg1 O6 2.161703 1_556
Mg1 O6 2.161703 1_555
Mg1 O4 2.161703 1_555
Mg2 O4 1.982666 1_555
Mg2 O3 2.050474 1_455
Mg2 O0 2.235913 1_556
Mg2 O0 2.235913 1_555
Mg3 O4 1.984719 1_555
Mg3 O3 2.046901 1_555
Mg3 O2 2.161805 1_555
Mg3 O2 2.161805 1_545
Mg3 O1 2.230321 1_555
Mg3 O1 2.230321 1_556
Mg4 O6 1.982666 1_555
Mg4 O5 2.050474 1_455
Mg4 O0 2.235913 1_555
Mg4 O0 2.235913 1_565
Mg5 O6 1.984719 1_555
Mg5 O5 2.046901 1_555
Mg5 O2 2.161805 1_555
Mg5 O2 2.161805 1_554
Mg5 O1 2.230321 1_565
Mg5 O1 2.230321 1_555
B0 O0 1.421022 1_555
B0 O1 1.425196 1_555
B0 O4 2.161607 1_555
B0 O6 2.161607 1_545
B0 O6 2.161607 1_555
B0 O4 2.161607 1_554
