# generated using pymatgen
data_Al5(BiS4)3
_symmetry_space_group_name_H-M   'P 1'
_cell_length_a   7.26468728
_cell_length_b   7.26476801
_cell_length_c   36.07180124
_cell_angle_alpha   90.00197775
_cell_angle_beta   89.99966030
_cell_angle_gamma   90.39400791
_symmetry_Int_Tables_number   1
_chemical_formula_structural   Al5(BiS4)3
_chemical_formula_sum   'Al20 Bi12 S48'
_cell_volume   1903.69002541
_cell_formula_units_Z   4
loop_
 _symmetry_equiv_pos_site_id
 _symmetry_equiv_pos_as_xyz
  1  'x, y, z'
loop_
 _atom_site_type_symbol
 _atom_site_label
 _atom_site_symmetry_multiplicity
 _atom_site_fract_x
 _atom_site_fract_y
 _atom_site_fract_z
 _atom_site_occupancy
  Al  Al0  1  0.24998495  0.74999790  0.00122543  1
  Al  Al1  1  0.24995299  0.75002924  0.33178512  1
  Al  Al2  1  0.24991789  0.74998831  0.09132886  1
  Al  Al3  1  0.24999980  0.74998412  0.41603371  1
  Al  Al4  1  0.25001406  0.74999458  0.74358201  1
  Al  Al5  1  0.25000161  0.75000136  0.50127132  1
  Al  Al6  1  0.25000038  0.74999503  0.83179715  1
  Al  Al7  1  0.74992915  0.24994859  0.25309171  1
  Al  Al8  1  0.74998558  0.25000359  0.58201890  1
  Al  Al9  1  0.74992925  0.25001674  0.16889599  1
  Al  Al10  1  0.75000651  0.24999461  0.49498064  1
  Al  Al11  1  0.75000857  0.24999893  0.84368628  1
  Al  Al12  1  0.74999682  0.24999284  0.99486885  1
  Al  Al13  1  0.75001595  0.25000123  0.34363706  1
  Al  Al14  1  0.74999888  0.24999347  0.66892224  1
  Al  Al15  1  0.25005332  0.75001488  0.24365383  1
  Al  Al16  1  0.25002005  0.74999996  0.59138509  1
  Al  Al17  1  0.25000348  0.74999858  0.91604073  1
  Al  Al18  1  0.74997421  0.24993343  0.08194552  1
  Al  Al19  1  0.75000667  0.25000751  0.75315603  1
  Bi  Bi0  1  0.74977680  0.75003202  0.26846937  1
  Bi  Bi1  1  0.75001441  0.74997894  0.66444997  1
  Bi  Bi2  1  0.74999040  0.75001538  0.94136154  1
  Bi  Bi3  1  0.25000856  0.25001431  0.06552674  1
  Bi  Bi4  1  0.24997415  0.24998898  0.34071407  1
  Bi  Bi5  1  0.24998126  0.24998836  0.66394029  1
  Bi  Bi6  1  0.75056127  0.75026335  0.16408974  1
  Bi  Bi7  1  0.75001460  0.75000290  0.56571294  1
  Bi  Bi8  1  0.75000714  0.74998094  0.84055654  1
  Bi  Bi9  1  0.24993193  0.25049133  0.16402658  1
  Bi  Bi10  1  0.25001872  0.24999343  0.44139904  1
  Bi  Bi11  1  0.25001536  0.24998281  0.76837191  1
  S  S0  1  0.08902640  0.58769914  0.04776253  1
  S  S1  1  0.08456203  0.58090626  0.37230822  1
  S  S2  1  0.10194299  0.52085584  0.71170789  1
  S  S3  1  0.92524910  0.09253376  0.20931431  1
  S  S4  1  0.90313474  0.07392015  0.54102929  1
  S  S5  1  0.89704165  0.03420993  0.87536981  1
  S  S6  1  0.58443974  0.08158616  0.12728115  1
  S  S7  1  0.53828647  0.07738549  0.46847948  1
  S  S8  1  0.57511844  0.10465492  0.79629284  1
  S  S9  1  0.09527295  0.91956369  0.28729553  1
  S  S10  1  0.04989275  0.91629219  0.62734058  1
  S  S11  1  0.09246374  0.92190942  0.95867494  1
  S  S12  1  0.57465846  0.40740080  0.20933092  1
  S  S13  1  0.59688053  0.42608703  0.54102947  1
  S  S14  1  0.60296554  0.46579152  0.87536753  1
  S  S15  1  0.41092849  0.91225895  0.04777101  1
  S  S16  1  0.41541516  0.91906871  0.37231129  1
  S  S17  1  0.39804652  0.97915160  0.71170779  1
  S  S18  1  0.02048515  0.60214967  0.21176710  1
  S  S19  1  0.08777583  0.58906898  0.54784949  1
  S  S20  1  0.08082208  0.58463770  0.87230885  1
  S  S21  1  0.91551143  0.41840631  0.12728344  1
  S  S22  1  0.96172796  0.42261139  0.46847958  1
  S  S23  1  0.92490748  0.39533865  0.79629615  1
  S  S24  1  0.89552579  0.42460633  0.29625873  1
  S  S25  1  0.91847140  0.41543142  0.62733111  1
  S  S26  1  0.92264930  0.46151245  0.96840885  1
  S  S27  1  0.40471221  0.58039250  0.28730496  1
  S  S28  1  0.45010895  0.58371338  0.62734151  1
  S  S29  1  0.40753301  0.57808364  0.95867074  1
  S  S30  1  0.92601017  0.09689783  0.04092590  1
  S  S31  1  0.96567013  0.10289365  0.37539406  1
  S  S32  1  0.90757670  0.07491847  0.70937180  1
  S  S33  1  0.57399261  0.40308658  0.04093589  1
  S  S34  1  0.53432506  0.39706637  0.37539154  1
  S  S35  1  0.59243032  0.42509076  0.70937675  1
  S  S36  1  0.47975285  0.89762574  0.21179495  1
  S  S37  1  0.41225468  0.91092871  0.54785040  1
  S  S38  1  0.41918314  0.91535287  0.87230935  1
  S  S39  1  0.41641835  0.55000601  0.12721843  1
  S  S40  1  0.42186701  0.59246284  0.45869118  1
  S  S41  1  0.41942921  0.59509957  0.78725970  1
  S  S42  1  0.08344468  0.94989341  0.12723944  1
  S  S43  1  0.07815002  0.90752828  0.45869599  1
  S  S44  1  0.08058119  0.90489890  0.78726258  1
  S  S45  1  0.60442660  0.07531847  0.29627185  1
  S  S46  1  0.58152578  0.08456981  0.62732971  1
  S  S47  1  0.57731051  0.03850611  0.96841217  1
loop_
_geom_bond_atom_site_label_1
_geom_bond_atom_site_label_2
_geom_bond_distance
_geom_bond_site_symmetry_2
Al0 S11 2.290176 1_554
Al0 S29 2.290320 1_554
Al0 S15 2.357222 1_555
Al0 S0 2.357242 1_555
Al1 S16 2.251566 1_555
Al1 S1 2.251594 1_555
Al1 S9 2.318244 1_555
Al1 S27 2.318618 1_555
Al2 S0 2.281838 1_555
Al2 S15 2.282045 1_555
Al2 S42 2.296437 1_555
Al2 S39 2.296536 1_555
Al3 S40 2.292585 1_555
Al3 S43 2.292653 1_555
Al3 S16 2.328117 1_555
Al3 S1 2.328202 1_555
Al4 S2 2.285898 1_555
Al4 S17 2.285917 1_555
Al4 S41 2.298366 1_555
Al4 S44 2.298476 1_555
Al5 S43 2.290556 1_555
Al5 S40 2.290707 1_555
Al5 S19 2.357940 1_555
Al5 S37 2.357997 1_555
Al6 S38 2.251402 1_555
Al6 S20 2.251415 1_555
Al6 S44 2.319711 1_555
Al6 S41 2.319726 1_555
Al7 S45 2.265949 1_555
Al7 S24 2.266000 1_555
Al7 S12 2.332723 1_555
Al7 S3 2.333128 1_555
Al8 S13 2.253742 1_555
Al8 S4 2.253840 1_555
Al8 S46 2.365038 1_555
Al8 S25 2.365101 1_555
Al9 S12 2.252957 1_555
Al9 S3 2.253200 1_555
Al9 S6 2.274996 1_555
Al9 S21 2.275182 1_555
Al10 S7 2.196670 1_555
Al10 S22 2.196736 1_555
Al10 S13 2.377505 1_555
Al10 S4 2.377509 1_555
Al11 S14 2.219823 1_555
Al11 S5 2.219874 1_555
Al11 S23 2.373412 1_555
Al11 S8 2.373436 1_555
Al12 S47 2.195108 1_555
Al12 S26 2.195227 1_555
Al12 S30 2.377361 1_556
Al12 S33 2.377509 1_556
Al13 S34 2.220739 1_555
Al13 S31 2.220794 1_555
Al13 S24 2.372524 1_555
Al13 S45 2.372685 1_555
Al14 S32 2.253275 1_555
Al14 S35 2.253383 1_555
Al14 S46 2.274379 1_555
Al14 S25 2.274443 1_555
Al15 S36 2.287056 1_555
Al15 S18 2.287699 1_555
Al15 S9 2.297525 1_555
Al15 S27 2.297678 1_555
Al16 S37 2.281032 1_555
Al16 S19 2.281053 1_555
Al16 S28 2.297558 1_555
Al16 S10 2.297681 1_555
Al17 S29 2.292144 1_555
Al17 S11 2.292199 1_555
Al17 S20 2.328467 1_555
Al17 S38 2.328470 1_555
Al18 S30 2.253944 1_555
Al18 S33 2.253967 1_555
Al18 S6 2.365607 1_555
Al18 S21 2.366094 1_555
Al19 S8 2.265408 1_555
Al19 S23 2.265429 1_555
Al19 S35 2.332877 1_555
Al19 S32 2.332930 1_555
Bi0 S45 2.781957 1_565
Bi0 S24 2.783829 1_555
Bi0 S27 2.867394 1_555
Bi0 S9 2.869700 1_655
Bi0 S36 3.034173 1_555
Bi0 S18 3.038762 1_655
Bi1 S28 2.821576 1_555
Bi1 S10 2.821614 1_655
Bi1 S25 3.039405 1_555
Bi1 S46 3.039854 1_565
Bi1 S35 3.077447 1_555
Bi1 S32 3.077501 1_565
Bi2 S47 2.637093 1_565
Bi2 S26 2.637105 1_555
Bi2 S29 2.845458 1_555
Bi2 S11 2.845461 1_655
Bi3 S33 2.743562 1_555
Bi3 S30 2.743881 1_455
Bi3 S0 2.799300 1_555
Bi3 S15 2.799447 1_545
Bi4 S31 2.634836 1_455
Bi4 S34 2.634983 1_555
Bi4 S1 2.926046 1_555
Bi4 S16 2.926265 1_545
Bi5 S2 2.833123 1_555
Bi5 S17 2.833131 1_545
Bi5 S25 3.004729 1_455
Bi5 S46 3.004832 1_555
Bi5 S10 3.111925 1_545
Bi5 S28 3.112268 1_555
Bi5 S32 3.232226 1_455
Bi5 S35 3.232627 1_555
Bi6 S18 2.826642 1_655
Bi6 S36 2.829576 1_555
Bi6 S21 3.008391 1_555
Bi6 S6 3.008837 1_565
Bi6 S42 3.109695 1_655
Bi6 S39 3.119177 1_555
Bi6 S3 3.226583 1_565
Bi6 S12 3.233701 1_555
Bi7 S13 2.744386 1_555
Bi7 S4 2.744404 1_565
Bi7 S37 2.800393 1_555
Bi7 S19 2.800409 1_655
Bi8 S14 2.636309 1_555
Bi8 S5 2.636490 1_565
Bi8 S20 2.927493 1_655
Bi8 S38 2.927597 1_555
Bi9 S39 2.815005 1_555
Bi9 S42 2.820651 1_545
Bi9 S21 3.031157 1_455
Bi9 S6 3.034595 1_555
Bi9 S12 3.081886 1_555
Bi9 S3 3.084138 1_455
Bi10 S7 2.635985 1_555
Bi10 S22 2.636114 1_455
Bi10 S40 2.845131 1_555
Bi10 S43 2.845241 1_545
Bi11 S8 2.782335 1_555
Bi11 S23 2.782450 1_455
Bi11 S44 2.867386 1_545
Bi11 S41 2.867469 1_555
Bi11 S17 3.038796 1_545
Bi11 S2 3.039198 1_555
