# generated using pymatgen
data_ZnCo3(P2O7)2
_symmetry_space_group_name_H-M   'P 1'
_cell_length_a   7.57492900
_cell_length_b   7.23343100
_cell_length_c   9.57032123
_cell_angle_alpha   68.56884288
_cell_angle_beta   90.00000000
_cell_angle_gamma   90.00000000
_symmetry_Int_Tables_number   1
_chemical_formula_structural   ZnCo3(P2O7)2
_chemical_formula_sum   'Zn2 Co6 P8 O28'
_cell_volume   488.12664546
_cell_formula_units_Z   2
loop_
 _symmetry_equiv_pos_site_id
 _symmetry_equiv_pos_as_xyz
  1  'x, y, z'
loop_
 _atom_site_type_symbol
 _atom_site_label
 _atom_site_symmetry_multiplicity
 _atom_site_fract_x
 _atom_site_fract_y
 _atom_site_fract_z
 _atom_site_occupancy
  Zn  Zn0  1  0.00000000  0.50000000  0.00000000  1
  Zn  Zn1  1  0.50000000  0.50000000  0.50000000  1
  Co  Co0  1  0.13180000  0.81375000  0.51908400  1
  Co  Co1  1  0.63180000  0.18625000  0.98091600  1
  Co  Co2  1  0.86820000  0.18625000  0.48091600  1
  Co  Co3  1  0.36820000  0.81375000  0.01908400  1
  Co  Co4  1  0.00000000  0.00000000  0.00000000  1
  Co  Co5  1  0.50000000  0.00000000  0.50000000  1
  P  P0  1  0.92763900  0.41715900  0.70466700  1
  P  P1  1  0.42763900  0.58284100  0.79533300  1
  P  P2  1  0.07236100  0.58284100  0.29533300  1
  P  P3  1  0.57236100  0.41715900  0.20466700  1
  P  P4  1  0.20770100  0.13468700  0.68795400  1
  P  P5  1  0.70770100  0.86531300  0.81204600  1
  P  P6  1  0.79229900  0.86531300  0.31204600  1
  P  P7  1  0.29229900  0.13468700  0.18795400  1
  O  O0  1  0.38428400  0.19556000  0.60241800  1
  O  O1  1  0.88428400  0.80444000  0.89758200  1
  O  O2  1  0.61571600  0.80444000  0.39758200  1
  O  O3  1  0.11571600  0.19556000  0.10241800  1
  O  O4  1  0.38720500  0.70255200  0.62491800  1
  O  O5  1  0.88720500  0.29744800  0.87508200  1
  O  O6  1  0.61279500  0.29744800  0.37508200  1
  O  O7  1  0.11279500  0.70255200  0.12491800  1
  O  O8  1  0.79307600  0.37643300  0.60002900  1
  O  O9  1  0.29307600  0.62356700  0.89997100  1
  O  O10  1  0.20692400  0.62356700  0.39997100  1
  O  O11  1  0.70692400  0.37643300  0.10002900  1
  O  O12  1  0.11702000  0.33994400  0.67196900  1
  O  O13  1  0.61702000  0.66005600  0.82803100  1
  O  O14  1  0.88298000  0.66005600  0.32803100  1
  O  O15  1  0.38298000  0.33994400  0.17196900  1
  O  O16  1  0.53131400  0.63052500  0.18225600  1
  O  O17  1  0.03131400  0.36947500  0.31774400  1
  O  O18  1  0.46868600  0.36947500  0.81774400  1
  O  O19  1  0.96868600  0.63052500  0.68225600  1
  O  O20  1  0.78627400  0.97954300  0.14129700  1
  O  O21  1  0.28627400  0.02045700  0.35870300  1
  O  O22  1  0.21372600  0.02045700  0.85870300  1
  O  O23  1  0.71372600  0.97954300  0.64129700  1
  O  O24  1  0.41261000  0.03238200  0.10992000  1
  O  O25  1  0.91261000  0.96761800  0.39008000  1
  O  O26  1  0.58739000  0.96761800  0.89008000  1
  O  O27  1  0.08739000  0.03238200  0.60992000  1
loop_
_geom_bond_atom_site_label_1
_geom_bond_atom_site_label_2
_geom_bond_distance
_geom_bond_site_symmetry_2
Co0 O19 2.051674 1_455
Co0 O21 2.069697 1_565
Co0 O27 2.091549 1_565
Co0 O25 2.124999 1_455
Co0 O10 2.159117 1_555
Co0 O4 2.195560 1_555
Co1 O18 2.051674 1_555
Co1 O20 2.069697 1_546
Co1 O26 2.091549 1_545
Co1 O24 2.124999 1_556
Co1 O11 2.159117 1_556
Co1 O5 2.195560 1_555
Co2 O17 2.051674 1_655
Co2 O23 2.069697 1_545
Co2 O25 2.091549 1_545
Co2 O27 2.124999 1_655
Co2 O8 2.159117 1_555
Co2 O6 2.195560 1_555
Co3 O16 2.051674 1_555
Co3 O22 2.069697 1_564
Co3 O24 2.091549 1_565
Co3 O26 2.124999 1_554
Co3 O9 2.159117 1_554
Co3 O7 2.195560 1_555
Co4 O22 2.079736 1_554
Co4 O20 2.079736 1_445
Co4 O3 2.177911 1_555
Co4 O1 2.177911 1_444
Co4 O5 2.215586 1_454
Co4 O7 2.215586 1_545
Co5 O21 2.079736 1_555
Co5 O23 2.079736 1_545
Co5 O0 2.177911 1_555
Co5 O2 2.177911 1_545
Co5 O6 2.215586 1_555
Co5 O4 2.215586 1_545
O0 P4 1.545891 1_555
O0 Zn1 2.236328 1_555
O1 P5 1.545891 1_555
O1 Zn0 2.236328 1_656
O2 P6 1.545891 1_555
O2 Zn1 2.236328 1_555
O3 P7 1.545891 1_555
O3 Zn0 2.236328 1_555
O4 P1 1.572108 1_555
O4 Zn1 2.363453 1_555
O5 P0 1.572108 1_555
O5 Zn0 2.363453 1_656
O6 P3 1.572108 1_555
O6 Zn1 2.363453 1_555
O7 P2 1.572108 1_555
O7 Zn0 2.363453 1_555
O8 P0 1.531074 1_555
O8 Zn1 2.453282 1_555
O9 P1 1.531074 1_555
O9 Zn0 2.453282 1_556
O10 P2 1.531074 1_555
O10 Zn1 2.453282 1_555
O11 P3 1.531074 1_555
O11 Zn0 2.453282 1_655
O12 P4 1.591737 1_555
O12 P0 1.611065 1_455
O13 P5 1.591737 1_555
O13 P1 1.611065 1_555
O14 P6 1.591737 1_555
O14 P2 1.611065 1_655
O15 P7 1.591737 1_555
O15 P3 1.611065 1_555
O16 P3 1.510882 1_555
O17 P2 1.510882 1_555
O18 P1 1.510882 1_555
O19 P0 1.510882 1_555
O20 P6 1.538982 1_555
O21 P7 1.538982 1_555
O22 P4 1.538982 1_555
O23 P5 1.538982 1_555
O24 P7 1.529628 1_555
O25 P6 1.529628 1_555
O26 P5 1.529628 1_555
O27 P4 1.529628 1_555
