# generated using pymatgen
data_BaSrNdSbO6
_symmetry_space_group_name_H-M   'P 1'
_cell_length_a   8.58834252
_cell_length_b   8.58129025
_cell_length_c   8.58609898
_cell_angle_alpha   90.00000000
_cell_angle_beta   90.00000000
_cell_angle_gamma   90.00000000
_symmetry_Int_Tables_number   1
_chemical_formula_structural   BaSrNdSbO6
_chemical_formula_sum   'Ba4 Sr4 Nd4 Sb4 O24'
_cell_volume   632.78742330
_cell_formula_units_Z   4
loop_
 _symmetry_equiv_pos_site_id
 _symmetry_equiv_pos_as_xyz
  1  'x, y, z'
loop_
 _atom_site_type_symbol
 _atom_site_label
 _atom_site_symmetry_multiplicity
 _atom_site_fract_x
 _atom_site_fract_y
 _atom_site_fract_z
 _atom_site_occupancy
  Ba  Ba0  1  0.00000000  -0.00000000  0.00000000  1
  Ba  Ba1  1  0.50000000  0.50000000  0.50000000  1
  Ba  Ba2  1  0.00000000  0.50000000  0.50000000  1
  Ba  Ba3  1  0.50000000  -0.00000000  0.50000000  1
  Sr  Sr0  1  0.50000000  0.50000000  0.00000000  1
  Sr  Sr1  1  0.50000000  -0.00000000  0.00000000  1
  Sr  Sr2  1  0.00000000  0.50000000  0.00000000  1
  Sr  Sr3  1  0.00000000  -0.00000000  0.50000000  1
  Nd  Nd0  1  0.75051955  0.75080452  0.75222187  1
  Nd  Nd1  1  0.24948045  0.24919548  0.75222187  1
  Nd  Nd2  1  0.24948045  0.75080452  0.24777813  1
  Nd  Nd3  1  0.75051955  0.24919548  0.24777813  1
  Sb  Sb0  1  0.24923858  0.25051807  0.24616996  1
  Sb  Sb1  1  0.75076142  0.74948193  0.24616996  1
  Sb  Sb2  1  0.75076142  0.25051807  0.75383004  1
  Sb  Sb3  1  0.24923858  0.74948193  0.75383004  1
  O  O0  1  0.01876695  0.21185918  0.27967997  1
  O  O1  1  0.98123305  0.78814082  0.27967997  1
  O  O2  1  0.98123305  0.21185918  0.72032003  1
  O  O3  1  0.01876695  0.78814082  0.72032003  1
  O  O4  1  0.28394106  0.01961505  0.21276491  1
  O  O5  1  0.28394106  0.98038495  0.78723509  1
  O  O6  1  0.71605894  0.98038495  0.21276491  1
  O  O7  1  0.71605894  0.01961505  0.78723509  1
  O  O8  1  0.21094369  0.28170901  0.01728386  1
  O  O9  1  0.78905631  0.28170901  0.98271614  1
  O  O10  1  0.21094369  0.71829099  0.98271614  1
  O  O11  1  0.78905631  0.71829099  0.01728386  1
  O  O12  1  0.48138029  0.28207146  0.21582479  1
  O  O13  1  0.51861971  0.71792854  0.21582479  1
  O  O14  1  0.51861971  0.28207146  0.78417521  1
  O  O15  1  0.48138029  0.71792854  0.78417521  1
  O  O16  1  0.22355899  0.48244819  0.27289917  1
  O  O17  1  0.22355899  0.51755181  0.72710083  1
  O  O18  1  0.77644101  0.51755181  0.27289917  1
  O  O19  1  0.77644101  0.48244819  0.72710083  1
  O  O20  1  0.27648989  0.22732897  0.48010164  1
  O  O21  1  0.72351011  0.22732897  0.51989836  1
  O  O22  1  0.27648989  0.77267103  0.51989836  1
  O  O23  1  0.72351011  0.77267103  0.48010164  1
loop_
_geom_bond_atom_site_label_1
_geom_bond_atom_site_label_2
_geom_bond_distance
_geom_bond_site_symmetry_2
Ba0 O0 3.016243 1_555
Ba0 O2 3.016243 1_454
Ba0 O3 3.016243 1_544
Ba0 O1 3.016243 1_445
Ba0 O8 3.024578 1_555
Ba0 O11 3.024578 1_445
Ba0 O10 3.024578 1_544
Ba0 O9 3.024578 1_454
Ba0 O7 3.051605 1_454
Ba0 O6 3.051605 1_445
Ba0 O5 3.051605 1_544
Ba0 O4 3.051605 1_555
Ba1 O21 3.031331 1_555
Ba1 O22 3.031331 1_555
Ba1 O20 3.031331 1_555
Ba1 O23 3.031331 1_555
Ba1 O18 3.075958 1_555
Ba1 O16 3.075958 1_555
Ba1 O19 3.075958 1_555
Ba1 O17 3.075958 1_555
Ba1 O15 3.078354 1_555
Ba1 O13 3.078354 1_555
Ba1 O14 3.078354 1_555
Ba1 O12 3.078354 1_555
Ba2 O18 2.740664 1_455
Ba2 O16 2.740664 1_555
Ba2 O17 2.740664 1_555
Ba2 O19 2.740664 1_455
Ba2 O3 3.117422 1_555
Ba2 O2 3.117422 1_455
Ba2 O1 3.117422 1_455
Ba2 O0 3.117422 1_555
Ba2 O20 3.338091 1_555
Ba2 O23 3.338091 1_455
Ba2 O21 3.338091 1_455
Ba2 O22 3.338091 1_555
Ba3 O22 2.742172 1_545
Ba3 O23 2.742172 1_545
Ba3 O21 2.742172 1_555
Ba3 O20 2.742172 1_555
Ba3 O7 3.090926 1_555
Ba3 O5 3.090926 1_545
Ba3 O4 3.090926 1_555
Ba3 O6 3.090926 1_545
Nd0 O11 2.316651 1_556
Nd0 O19 2.323612 1_555
Nd0 O3 2.342045 1_655
Nd0 O15 2.344719 1_555
Nd0 O7 2.345000 1_565
Nd0 O23 2.355424 1_555
Nd1 O8 2.316651 1_556
Nd1 O17 2.323612 1_555
Nd1 O2 2.342045 1_455
Nd1 O14 2.344719 1_555
Nd1 O5 2.345000 1_545
Nd1 O20 2.355424 1_555
Nd2 O10 2.316651 1_554
Nd2 O16 2.323612 1_555
Nd2 O1 2.342045 1_455
Nd2 O13 2.344719 1_555
Nd2 O4 2.345000 1_565
Nd2 O22 2.355424 1_555
Nd3 O9 2.316651 1_554
Nd3 O18 2.323612 1_555
Nd3 O0 2.342045 1_655
Nd3 O12 2.344719 1_555
Nd3 O6 2.345000 1_545
Nd3 O21 2.355424 1_555
O0 Sb0 2.027496 1_555
O0 Sr3 2.628628 1_555
O1 Sb1 2.027496 1_555
O1 Sr3 2.628628 1_665
O2 Sb2 2.027496 1_555
O2 Sr3 2.628628 1_655
O3 Sb3 2.027496 1_555
O3 Sr3 2.628628 1_565
O4 Sb0 2.024159 1_555
O4 Sr1 2.609370 1_555
O5 Sb3 2.024159 1_555
O5 Sr1 2.609370 1_566
O6 Sb1 2.024159 1_555
O6 Sr1 2.609370 1_565
O7 Sb2 2.024159 1_555
O7 Sr1 2.609370 1_556
O8 Sb0 2.010466 1_555
O8 Sr2 2.610186 1_555
O8 Sr0 3.113495 1_555
O9 Sb2 2.010466 1_555
O9 Sr2 2.610186 1_656
O9 Sr0 3.113495 1_556
O10 Sb3 2.010466 1_555
O10 Sr2 2.610186 1_556
O10 Sr0 3.113495 1_556
O11 Sb1 2.010466 1_555
O11 Sr2 2.610186 1_655
O11 Sr0 3.113495 1_555
O12 Sb0 2.028815 1_555
O12 Sr0 2.637580 1_555
O12 Sr1 3.052626 1_555
O13 Sb1 2.028815 1_555
O13 Sr0 2.637580 1_555
O13 Sr1 3.052626 1_565
O14 Sb2 2.028815 1_555
O14 Sr0 2.637580 1_556
O14 Sr1 3.052626 1_556
O15 Sb3 2.028815 1_555
O15 Sr0 2.637580 1_556
O15 Sr1 3.052626 1_566
O16 Sb0 2.015550 1_555
O16 Sr2 3.033050 1_555
O17 Sb3 2.015550 1_555
O17 Sr2 3.033050 1_556
O18 Sb1 2.015550 1_555
O18 Sr2 3.033050 1_655
O19 Sb2 2.015550 1_555
O19 Sr2 3.033050 1_656
O20 Sb0 2.031918 1_555
O20 Sr3 3.077888 1_555
O21 Sb2 2.031918 1_555
O21 Sr3 3.077888 1_655
O22 Sb3 2.031918 1_555
O22 Sr3 3.077888 1_565
O23 Sb1 2.031918 1_555
O23 Sr3 3.077888 1_665
