# generated using pymatgen
data_K4BaU3O12
_symmetry_space_group_name_H-M   'P 1'
_cell_length_a   7.64348869
_cell_length_b   7.64348869
_cell_length_c   7.64348877
_cell_angle_alpha   109.17576980
_cell_angle_beta   109.17576980
_cell_angle_gamma   109.17577722
_symmetry_Int_Tables_number   1
_chemical_formula_structural   K4BaU3O12
_chemical_formula_sum   'K4 Ba1 U3 O12'
_cell_volume   347.46753217
_cell_formula_units_Z   1
loop_
 _symmetry_equiv_pos_site_id
 _symmetry_equiv_pos_as_xyz
  1  'x, y, z'
loop_
 _atom_site_type_symbol
 _atom_site_label
 _atom_site_symmetry_multiplicity
 _atom_site_fract_x
 _atom_site_fract_y
 _atom_site_fract_z
 _atom_site_occupancy
  K  K0  1  0.00000000  0.00000000  0.00000000  1
  K  K1  1  0.00000000  0.50000000  0.00000000  1
  K  K2  1  0.50000000  0.00000000  0.00000000  1
  K  K3  1  0.00000000  0.00000000  0.50000000  1
  Ba  Ba0  1  0.50000000  0.50000000  0.50000000  1
  U  U0  1  0.50000000  0.50000000  0.00000000  1
  U  U1  1  0.00000000  0.50000000  0.50000000  1
  U  U2  1  0.50000000  0.00000000  0.50000000  1
  O  O0  1  0.25520400  0.74479600  0.50000000  1
  O  O1  1  0.50000000  0.25520400  0.74479600  1
  O  O2  1  0.74479600  0.50000000  0.25520400  1
  O  O3  1  0.50000000  0.74479600  0.25520400  1
  O  O4  1  0.74479600  0.25520400  0.50000000  1
  O  O5  1  0.25520400  0.50000000  0.74479600  1
  O  O6  1  0.70980800  0.70980800  0.98818500  1
  O  O7  1  0.98818500  0.70980800  0.70980800  1
  O  O8  1  0.70980800  0.98818500  0.70980800  1
  O  O9  1  0.29019200  0.29019200  0.01181500  1
  O  O10  1  0.01181500  0.29019200  0.29019200  1
  O  O11  1  0.29019200  0.01181500  0.29019200  1
loop_
_geom_bond_atom_site_label_1
_geom_bond_atom_site_label_2
_geom_bond_distance
_geom_bond_site_symmetry_2
K0 O6 2.520454 1_444
K0 O9 2.520454 1_555
K0 O7 2.520454 1_444
K0 O8 2.520454 1_444
K0 O10 2.520454 1_555
K0 O11 2.520454 1_555
K1 O7 3.130507 1_454
K1 O10 3.130507 1_555
K1 O6 3.130507 1_454
K1 O9 3.130507 1_555
K1 O1 3.149450 1_454
K1 O3 3.149450 1_555
K1 O0 3.149450 1_555
K1 O4 3.149450 1_454
K1 O2 3.179578 1_455
K1 O5 3.179578 1_554
K1 O11 3.242084 1_565
K1 O8 3.242084 1_444
K2 O8 3.130507 1_544
K2 O11 3.130507 1_555
K2 O6 3.130507 1_544
K2 O9 3.130507 1_555
K2 O2 3.149450 1_555
K2 O5 3.149450 1_544
K2 O4 3.149450 1_555
K2 O0 3.149450 1_544
K2 O3 3.179578 1_545
K2 O1 3.179578 1_554
K2 O10 3.242084 1_655
K2 O7 3.242084 1_444
K3 O11 3.130507 1_555
K3 O8 3.130507 1_445
K3 O7 3.130507 1_445
K3 O10 3.130507 1_555
K3 O5 3.149450 1_555
K3 O2 3.149450 1_445
K3 O3 3.149450 1_445
K3 O1 3.149450 1_555
K3 O0 3.179578 1_545
K3 O4 3.179578 1_455
K3 O9 3.242084 1_556
K3 O6 3.242084 1_444
Ba0 O5 3.049905 1_555
Ba0 O2 3.049905 1_555
Ba0 O3 3.049905 1_555
Ba0 O1 3.049905 1_555
Ba0 O0 3.049906 1_555
Ba0 O4 3.049906 1_555
Ba0 O8 3.084717 1_555
Ba0 O7 3.084717 1_555
Ba0 O10 3.084717 1_555
Ba0 O11 3.084717 1_555
Ba0 O6 3.084717 1_555
Ba0 O9 3.084717 1_555
O0 U2 2.215472 1_565
O0 U1 2.215472 1_555
O1 U2 2.215472 1_555
O1 U0 2.215472 1_556
O2 U1 2.215472 1_655
O2 U0 2.215472 1_555
O3 U2 2.215472 1_565
O3 U0 2.215472 1_555
O4 U1 2.215472 1_655
O4 U2 2.215472 1_555
O5 U1 2.215472 1_555
O5 U0 2.215472 1_556
O6 U0 1.911139 1_556
O7 U1 1.911139 1_655
O8 U2 1.911139 1_565
O9 U0 1.911139 1_555
O10 U1 1.911139 1_555
O11 U2 1.911139 1_555
