# generated using pymatgen
data_Rb6CdO4
_symmetry_space_group_name_H-M   'P 1'
_cell_length_a   9.09122897
_cell_length_b   9.09125047
_cell_length_c   6.93286497
_cell_angle_alpha   90.00003505
_cell_angle_beta   89.99964357
_cell_angle_gamma   119.99990728
_symmetry_Int_Tables_number   1
_chemical_formula_structural   Rb6CdO4
_chemical_formula_sum   'Rb12 Cd2 O8'
_cell_volume   496.23797729
_cell_formula_units_Z   2
loop_
 _symmetry_equiv_pos_site_id
 _symmetry_equiv_pos_as_xyz
  1  'x, y, z'
loop_
 _atom_site_type_symbol
 _atom_site_label
 _atom_site_symmetry_multiplicity
 _atom_site_fract_x
 _atom_site_fract_y
 _atom_site_fract_z
 _atom_site_occupancy
  Rb  Rb0  1  0.53746246  0.46253783  0.11426112  1
  Rb  Rb1  1  0.53746214  0.07492425  0.11425903  1
  Rb  Rb2  1  0.46253031  0.53747072  0.61426518  1
  Rb  Rb3  1  0.92507361  0.46253670  0.11426177  1
  Rb  Rb4  1  0.46252907  0.92506001  0.61426614  1
  Rb  Rb5  1  0.07493889  0.53747006  0.61426312  1
  Rb  Rb6  1  0.14333714  0.85666310  0.28299400  1
  Rb  Rb7  1  0.14333660  0.28667386  0.28299374  1
  Rb  Rb8  1  0.85666255  0.14333554  0.78300267  1
  Rb  Rb9  1  0.71332431  0.85666169  0.28299492  1
  Rb  Rb10  1  0.85666063  0.71332525  0.78300434  1
  Rb  Rb11  1  0.28667346  0.14333808  0.78300305  1
  Cd  Cd0  1  0.33333935  0.66666819  0.00628599  1
  Cd  Cd1  1  0.66667268  0.33333564  0.50629007  1
  O  O0  1  0.33333235  0.66666684  0.32736720  1
  O  O1  1  0.66666597  0.33333304  0.82737564  1
  O  O2  1  0.80355136  0.19644711  0.39952153  1
  O  O3  1  0.80355018  0.60710235  0.39952224  1
  O  O4  1  0.19645014  0.80354945  0.89951796  1
  O  O5  1  0.39289823  0.19644857  0.39952182  1
  O  O6  1  0.19645101  0.39290353  0.89951606  1
  O  O7  1  0.60709657  0.80354816  0.89951740  1
loop_
_geom_bond_atom_site_label_1
_geom_bond_atom_site_label_2
_geom_bond_distance
_geom_bond_site_symmetry_2
Cd0 O0 2.226013 1_555
Cd0 O7 2.278916 1_554
Cd0 O6 2.278986 1_554
Cd0 O4 2.279020 1_554
Cd1 O1 2.226043 1_555
Cd1 O2 2.278991 1_555
Cd1 O3 2.278992 1_555
Cd1 O5 2.279053 1_555
O0 Rb5 2.845148 1_555
O0 Rb2 2.845177 1_555
O0 Rb4 2.845179 1_555
O0 Rb6 3.007540 1_555
O0 Rb9 3.007541 1_555
O0 Rb7 3.007560 1_555
O1 Rb1 2.845183 1_556
O1 Rb0 2.845185 1_556
O1 Rb3 2.845200 1_556
O1 Rb11 3.007550 1_555
O1 Rb10 3.007551 1_555
O1 Rb8 3.007558 1_555
O2 Rb8 2.787063 1_555
O2 Rb3 2.882901 1_555
O2 Rb1 2.882921 1_555
O2 Rb7 2.886854 1_655
O2 Rb9 2.886866 1_545
O2 Rb4 3.204136 1_545
O2 Rb5 3.204148 1_655
O3 Rb10 2.787070 1_555
O3 Rb3 2.882895 1_555
O3 Rb0 2.882906 1_555
O3 Rb9 2.886866 1_555
O3 Rb6 2.886875 1_655
O3 Rb2 3.204116 1_555
O3 Rb5 3.204132 1_655
O4 Rb6 2.787032 1_556
O4 Rb4 2.882794 1_555
O4 Rb5 2.882828 1_555
O4 Rb11 2.886877 1_565
O4 Rb10 2.886879 1_455
O4 Rb1 3.204055 1_566
O4 Rb3 3.204060 1_456
O5 Rb11 2.787060 1_555
O5 Rb1 2.882900 1_555
O5 Rb0 2.882901 1_555
O5 Rb6 2.886878 1_545
O5 Rb7 2.886881 1_555
O5 Rb4 3.204134 1_545
O5 Rb2 3.204150 1_555
O6 Rb7 2.787052 1_556
O6 Rb2 2.882792 1_555
O6 Rb5 2.882812 1_555
O6 Rb11 2.886865 1_555
O6 Rb8 2.886882 1_455
O6 Rb3 3.204048 1_456
O6 Rb0 3.204067 1_556
O7 Rb9 2.787053 1_556
O7 Rb2 2.882805 1_555
O7 Rb4 2.882809 1_555
O7 Rb10 2.886850 1_555
O7 Rb8 2.886869 1_565
O7 Rb1 3.204041 1_566
O7 Rb0 3.204051 1_556
