# generated using pymatgen
data_SrLaFeO4
_symmetry_space_group_name_H-M   'P 1'
_cell_length_a   6.88960943
_cell_length_b   6.88960943
_cell_length_c   6.88960943
_cell_angle_alpha   146.79483259
_cell_angle_beta   146.79483259
_cell_angle_gamma   47.66766239
_symmetry_Int_Tables_number   1
_chemical_formula_structural   SrLaFeO4
_chemical_formula_sum   'Sr1 La1 Fe1 O4'
_cell_volume   97.68976115
_cell_formula_units_Z   1
loop_
 _symmetry_equiv_pos_site_id
 _symmetry_equiv_pos_as_xyz
  1  'x, y, z'
loop_
 _atom_site_type_symbol
 _atom_site_label
 _atom_site_symmetry_multiplicity
 _atom_site_fract_x
 _atom_site_fract_y
 _atom_site_fract_z
 _atom_site_occupancy
  Sr  Sr0  1  0.64200900  0.64200900  0.00000000  1
  La  La0  1  0.35831700  0.35831700  0.00000000  1
  Fe  Fe0  1  0.00417700  0.00417700  0.00000000  1
  O  O0  1  0.83346200  0.83346200  0.00000000  1
  O  O1  1  0.17262700  0.17262700  0.00000000  1
  O  O2  1  0.99470400  0.49470400  0.50000000  1
  O  O3  1  0.49470400  0.99470400  0.50000000  1
loop_
_geom_bond_atom_site_label_1
_geom_bond_atom_site_label_2
_geom_bond_distance
_geom_bond_site_symmetry_2
La0 O1 2.340463 1_555
La0 O3 2.613505 1_555
La0 O2 2.613505 1_555
La0 O2 2.613505 1_454
La0 O3 2.613505 1_544
La0 O0 2.801562 1_556
La0 O0 2.801562 1_545
La0 O0 2.801562 1_444
La0 O0 2.801562 1_455
Fe0 O3 1.972197 1_444
Fe0 O2 1.972197 1_444
Fe0 O2 1.972197 1_455
Fe0 O3 1.972197 1_545
Fe0 O1 2.123168 1_555
Fe0 O0 2.151716 1_445
O0 Sr0 2.413101 1_555
O1 Sr0 2.810611 1_556
O1 Sr0 2.810611 1_444
O1 Sr0 2.810611 1_545
O1 Sr0 2.810611 1_455
O2 Sr0 2.706005 1_555
O2 Sr0 2.706005 1_656
O3 Sr0 2.706005 1_555
O3 Sr0 2.706005 1_566
