# generated using pymatgen
data_CsCuS6
_symmetry_space_group_name_H-M   'P 1'
_cell_length_a   7.29065717
_cell_length_b   10.81438320
_cell_length_c   11.25604030
_cell_angle_alpha   74.19613983
_cell_angle_beta   84.76554083
_cell_angle_gamma   78.10081410
_symmetry_Int_Tables_number   1
_chemical_formula_structural   CsCuS6
_chemical_formula_sum   'Cs4 Cu4 S24'
_cell_volume   834.99482517
_cell_formula_units_Z   4
loop_
 _symmetry_equiv_pos_site_id
 _symmetry_equiv_pos_as_xyz
  1  'x, y, z'
loop_
 _atom_site_type_symbol
 _atom_site_label
 _atom_site_symmetry_multiplicity
 _atom_site_fract_x
 _atom_site_fract_y
 _atom_site_fract_z
 _atom_site_occupancy
  Cs  Cs0  1  0.82922250  0.69763987  0.57890408  1
  Cs  Cs1  1  0.17077750  0.30236013  0.42109592  1
  Cs  Cs2  1  0.67736902  0.30250997  0.92815952  1
  Cs  Cs3  1  0.32263098  0.69749003  0.07184048  1
  Cu  Cu0  1  0.60129044  0.49575980  0.39006952  1
  Cu  Cu1  1  0.39870956  0.50424020  0.60993048  1
  Cu  Cu2  1  0.14744481  0.50532800  0.87027896  1
  Cu  Cu3  1  0.85255519  0.49467200  0.12972104  1
  S  S0  1  0.37510711  0.61453383  0.76111387  1
  S  S1  1  0.62489289  0.38546617  0.23888613  1
  S  S2  1  0.19689221  0.79704190  0.73063022  1
  S  S3  1  0.80310779  0.20295810  0.26936978  1
  S  S4  1  0.31935456  0.92729651  0.59828181  1
  S  S5  1  0.68064544  0.07270349  0.40171819  1
  S  S6  1  0.21923145  0.93041582  0.42932331  1
  S  S7  1  0.78076855  0.06958418  0.57067669  1
  S  S8  1  0.40355457  0.79652433  0.35928462  1
  S  S9  1  0.59644543  0.20347567  0.64071538  1
  S  S10  1  0.69277467  0.37928057  0.58608774  1
  S  S11  1  0.30722533  0.62071943  0.41391226  1
  S  S12  1  0.16136579  0.39687310  0.72000681  1
  S  S13  1  0.83863421  0.60312690  0.27999319  1
  S  S14  1  0.10307105  0.20914516  0.75736684  1
  S  S15  1  0.89692895  0.79085484  0.24263316  1
  S  S16  1  0.28520209  0.08322463  0.88486953  1
  S  S17  1  0.71479791  0.91677537  0.11513047  1
  S  S18  1  0.16553384  0.08605532  0.05904009  1
  S  S19  1  0.83446616  0.91394468  0.94095991  1
  S  S20  1  0.70906194  0.79607264  0.87152545  1
  S  S21  1  0.29093806  0.20392736  0.12847455  1
  S  S22  1  0.84773194  0.60327508  0.92542888  1
  S  S23  1  0.15226806  0.39672492  0.07457112  1
loop_
_geom_bond_atom_site_label_1
_geom_bond_atom_site_label_2
_geom_bond_distance
_geom_bond_site_symmetry_2
Cs0 S15 3.656863 1_555
Cs0 S12 3.688596 1_655
Cs0 S20 3.707851 1_555
Cs0 S10 3.754397 1_555
Cs0 S22 3.760937 1_555
Cs0 S13 3.764533 1_555
Cs0 S2 3.779048 1_655
Cs0 S11 3.840701 1_655
Cs0 S0 3.867768 1_555
Cs0 S8 3.934080 1_555
Cs0 S7 3.940782 1_565
Cs0 S5 3.972269 1_565
Cs0 S4 4.046465 1_555
Cs1 S14 3.656863 1_555
Cs1 S13 3.688596 1_455
Cs1 S21 3.707851 1_555
Cs1 S11 3.754397 1_555
Cs1 S23 3.760937 1_555
Cs1 S12 3.764533 1_555
Cs1 S3 3.779048 1_455
Cs1 S10 3.840701 1_455
Cs1 S1 3.867768 1_555
Cs1 S9 3.934080 1_555
Cs1 S6 3.940782 1_545
Cs1 S4 3.972269 1_545
Cs1 S5 4.046465 1_555
Cs2 S21 3.595566 1_556
Cs2 S14 3.608908 1_655
Cs2 S22 3.705070 1_555
Cs2 S10 3.707508 1_555
Cs2 S0 3.743202 1_555
Cs2 S9 3.802603 1_555
Cs2 S1 3.808865 1_556
Cs2 S3 3.838416 1_556
Cs2 S18 3.994908 1_656
Cs2 S19 4.087270 1_545
Cs3 S20 3.595566 1_554
Cs3 S15 3.608908 1_455
Cs3 S23 3.705070 1_555
Cs3 S11 3.707508 1_555
Cs3 S1 3.743202 1_555
Cs3 S8 3.802603 1_555
Cs3 S0 3.808865 1_554
Cs3 S2 3.838416 1_554
Cs3 S19 3.994908 1_454
Cs3 S18 4.087270 1_565
Cu0 S10 2.303896 1_555
Cu0 S1 2.305573 1_555
Cu0 S11 2.322161 1_555
Cu0 S13 2.351880 1_555
Cu1 S11 2.303896 1_555
Cu1 S0 2.305573 1_555
Cu1 S10 2.322161 1_555
Cu1 S12 2.351880 1_555
Cu2 S23 2.279273 1_556
Cu2 S12 2.290674 1_555
Cu2 S0 2.303337 1_555
Cu2 S22 2.331995 1_455
Cu3 S22 2.279273 1_554
Cu3 S13 2.290674 1_555
Cu3 S1 2.303337 1_555
Cu3 S23 2.331995 1_655
S0 S2 2.087199 1_555
S1 S3 2.087199 1_555
S2 S4 2.033118 1_555
S3 S5 2.033118 1_555
S4 S6 2.087833 1_555
S5 S7 2.087833 1_555
S6 S8 2.037160 1_555
S7 S9 2.037160 1_555
S10 S9 2.078708 1_555
S11 S8 2.078708 1_555
S12 S14 2.082598 1_555
S13 S15 2.082598 1_555
S14 S16 2.053005 1_555
S15 S17 2.053005 1_555
S16 S18 2.077295 1_556
S17 S19 2.077295 1_554
S18 S21 2.055547 1_555
S19 S20 2.055547 1_555
S20 S22 2.071478 1_555
S21 S23 2.071478 1_555
