# generated using pymatgen
data_NaB5PbO9
_symmetry_space_group_name_H-M   'P 1'
_cell_length_a   13.18039100
_cell_length_b   6.59844800
_cell_length_c   8.69382078
_cell_angle_alpha   75.01383223
_cell_angle_beta   90.00000000
_cell_angle_gamma   90.00000000
_symmetry_Int_Tables_number   1
_chemical_formula_structural   NaB5PbO9
_chemical_formula_sum   'Na4 B20 Pb4 O36'
_cell_volume   730.38632582
_cell_formula_units_Z   4
loop_
 _symmetry_equiv_pos_site_id
 _symmetry_equiv_pos_as_xyz
  1  'x, y, z'
loop_
 _atom_site_type_symbol
 _atom_site_label
 _atom_site_symmetry_multiplicity
 _atom_site_fract_x
 _atom_site_fract_y
 _atom_site_fract_z
 _atom_site_occupancy
  Na  Na0  1  0.41152400  0.46574100  0.86812700  1
  Na  Na1  1  0.91152400  0.53425900  0.63187300  1
  Na  Na2  1  0.58847600  0.53425900  0.13187300  1
  Na  Na3  1  0.08847600  0.46574100  0.36812700  1
  B  B0  1  0.25358300  0.41697700  0.62070500  1
  B  B1  1  0.75358300  0.58302300  0.87929500  1
  B  B2  1  0.74641700  0.58302300  0.37929500  1
  B  B3  1  0.24641700  0.41697700  0.12070500  1
  B  B4  1  0.06254700  0.91336400  0.36759900  1
  B  B5  1  0.56254700  0.08663600  0.13240100  1
  B  B6  1  0.93745300  0.08663600  0.63240100  1
  B  B7  1  0.43745300  0.91336400  0.86759900  1
  B  B8  1  0.38857000  0.16323100  0.22928400  1
  B  B9  1  0.88857000  0.83676900  0.27071600  1
  B  B10  1  0.61143000  0.83676900  0.77071600  1
  B  B11  1  0.11143000  0.16323100  0.72928400  1
  B  B12  1  0.65108900  0.54752800  0.64313800  1
  B  B13  1  0.15108900  0.45247200  0.85686200  1
  B  B14  1  0.34891100  0.45247200  0.35686200  1
  B  B15  1  0.84891100  0.54752800  0.14313800  1
  B  B16  1  0.55124200  0.20837800  0.75055200  1
  B  B17  1  0.05124200  0.79162200  0.74944800  1
  B  B18  1  0.44875800  0.79162200  0.24944800  1
  B  B19  1  0.94875800  0.20837800  0.25055200  1
  Pb  Pb0  1  0.28874200  0.90983900  0.55778200  1
  Pb  Pb1  1  0.78874200  0.09016100  0.94221800  1
  Pb  Pb2  1  0.71125800  0.09016100  0.44221800  1
  Pb  Pb3  1  0.21125800  0.90983900  0.05778200  1
  O  O0  1  0.24281500  0.50803200  0.74665200  1
  O  O1  1  0.74281500  0.49196800  0.75334800  1
  O  O2  1  0.75718500  0.49196800  0.25334800  1
  O  O3  1  0.25718500  0.50803200  0.24665200  1
  O  O4  1  0.15252000  0.83713500  0.42776900  1
  O  O5  1  0.65252000  0.16286500  0.07223100  1
  O  O6  1  0.84748000  0.16286500  0.57223100  1
  O  O7  1  0.34748000  0.83713500  0.92776900  1
  O  O8  1  0.37265400  0.23118200  0.37355300  1
  O  O9  1  0.87265400  0.76881800  0.12644700  1
  O  O10  1  0.62734600  0.76881800  0.62644700  1
  O  O11  1  0.12734600  0.23118200  0.87355300  1
  O  O12  1  0.56328300  0.41802300  0.71703900  1
  O  O13  1  0.06328300  0.58197700  0.78296100  1
  O  O14  1  0.43671700  0.58197700  0.28296100  1
  O  O15  1  0.93671700  0.41802300  0.21703900  1
  O  O16  1  0.19192800  0.25243500  0.60605800  1
  O  O17  1  0.69192800  0.74756500  0.89394200  1
  O  O18  1  0.80807200  0.74756500  0.39394200  1
  O  O19  1  0.30807200  0.25243500  0.10605800  1
  O  O20  1  0.62507600  0.07033500  0.72658200  1
  O  O21  1  0.12507600  0.92966500  0.77341800  1
  O  O22  1  0.37492400  0.92966500  0.27341800  1
  O  O23  1  0.87492400  0.07033500  0.22658200  1
  O  O24  1  0.48775000  0.22499400  0.15328700  1
  O  O25  1  0.98775000  0.77500600  0.34671300  1
  O  O26  1  0.51225000  0.77500600  0.84671300  1
  O  O27  1  0.01225000  0.22499400  0.65328700  1
  O  O28  1  0.45759300  0.13060700  0.81726500  1
  O  O29  1  0.95759300  0.86939300  0.68273500  1
  O  O30  1  0.54240700  0.86939300  0.18273500  1
  O  O31  1  0.04240700  0.13060700  0.31726500  1
  O  O32  1  0.32618400  0.50033100  0.50984700  1
  O  O33  1  0.82618400  0.49966900  0.99015300  1
  O  O34  1  0.67381600  0.49966900  0.49015300  1
  O  O35  1  0.17381600  0.50033100  0.00984700  1
loop_
_geom_bond_atom_site_label_1
_geom_bond_atom_site_label_2
_geom_bond_distance
_geom_bond_site_symmetry_2
Na0 O26 2.401053 1_555
Na0 O28 2.441325 1_555
Na0 O0 2.446506 1_555
Na0 O12 2.457513 1_555
Na0 O19 2.571646 1_556
Na0 O24 2.764462 1_556
Na0 O7 2.764802 1_555
Na1 O27 2.401053 1_655
Na1 O29 2.441325 1_555
Na1 O1 2.446506 1_555
Na1 O13 2.457513 1_655
Na1 O18 2.571646 1_555
Na1 O25 2.764462 1_555
Na1 O6 2.764802 1_555
Na2 O24 2.401053 1_555
Na2 O30 2.441325 1_555
Na2 O2 2.446506 1_555
Na2 O14 2.457513 1_555
Na2 O17 2.571646 1_554
Na2 O26 2.764462 1_554
Na2 O5 2.764802 1_555
Na3 O25 2.401053 1_455
Na3 O31 2.441325 1_555
Na3 O3 2.446506 1_555
Na3 O15 2.457513 1_455
Na3 O16 2.571646 1_555
Na3 O27 2.764462 1_555
Na3 O4 2.764802 1_555
B0 O32 1.368543 1_555
B0 O0 1.385750 1_555
B0 O16 1.388124 1_555
B1 O33 1.368543 1_555
B1 O1 1.385750 1_555
B1 O17 1.388124 1_555
B2 O34 1.368543 1_555
B2 O2 1.385750 1_555
B2 O18 1.388124 1_555
B3 O35 1.368543 1_555
B3 O3 1.385750 1_555
B3 O19 1.388124 1_555
B4 O4 1.340476 1_555
B4 O25 1.387114 1_455
B4 O31 1.411514 1_565
B5 O5 1.340476 1_555
B5 O24 1.387114 1_555
B5 O30 1.411514 1_545
B6 O6 1.340476 1_555
B6 O27 1.387114 1_655
B6 O29 1.411514 1_545
B7 O7 1.340476 1_555
B7 O26 1.387114 1_555
B7 O28 1.411514 1_565
B8 O8 1.452248 1_555
B8 O24 1.473844 1_555
B8 O22 1.499654 1_545
B8 O19 1.514512 1_555
B9 O9 1.452248 1_555
B9 O25 1.473844 1_555
B9 O23 1.499654 1_565
B9 O18 1.514512 1_555
B10 O10 1.452248 1_555
B10 O26 1.473844 1_555
B10 O20 1.499654 1_565
B10 O17 1.514512 1_555
B11 O11 1.452248 1_555
B11 O27 1.473844 1_555
B11 O21 1.499654 1_545
B11 O16 1.514512 1_555
B12 O10 1.463389 1_555
B12 O34 1.475006 1_555
B12 O12 1.482718 1_555
B12 O1 1.527228 1_555
B13 O11 1.463389 1_555
B13 O35 1.475006 1_556
B13 O13 1.482718 1_555
B13 O0 1.527228 1_555
B14 O8 1.463389 1_555
B14 O32 1.475006 1_555
B14 O14 1.482718 1_555
B14 O3 1.527228 1_555
B15 O9 1.463389 1_555
B15 O33 1.475006 1_554
B15 O15 1.482718 1_555
B15 O2 1.527228 1_555
B16 O12 1.347308 1_555
B16 O20 1.385034 1_555
B16 O28 1.403344 1_555
B17 O13 1.347308 1_555
B17 O21 1.385034 1_555
B17 O29 1.403344 1_455
B18 O14 1.347308 1_555
B18 O22 1.385034 1_555
B18 O30 1.403344 1_555
B19 O15 1.347308 1_555
B19 O23 1.385034 1_555
B19 O31 1.403344 1_655
O4 Pb0 2.238717 1_555
O5 Pb1 2.238717 1_554
O6 Pb2 2.238717 1_555
O7 Pb3 2.238717 1_556
