# generated using pymatgen
data_Ca(SbO3)2
_symmetry_space_group_name_H-M   'P 1'
_cell_length_a   5.43471500
_cell_length_b   5.55545300
_cell_length_c   7.77827300
_cell_angle_alpha   90.00000000
_cell_angle_beta   90.00000000
_cell_angle_gamma   90.00000000
_symmetry_Int_Tables_number   1
_chemical_formula_structural   Ca(SbO3)2
_chemical_formula_sum   'Ca2 Sb4 O12'
_cell_volume   234.84398107
_cell_formula_units_Z   2
loop_
 _symmetry_equiv_pos_site_id
 _symmetry_equiv_pos_as_xyz
  1  'x, y, z'
loop_
 _atom_site_type_symbol
 _atom_site_label
 _atom_site_symmetry_multiplicity
 _atom_site_fract_x
 _atom_site_fract_y
 _atom_site_fract_z
 _atom_site_occupancy
  Ca  Ca0  1  0.51394400  0.30927900  0.50000000  1
  Ca  Ca1  1  0.01394400  0.69072100  0.00000000  1
  Sb  Sb0  1  0.50191900  0.75781200  0.74976000  1
  Sb  Sb1  1  0.00191900  0.24218800  0.75024000  1
  Sb  Sb2  1  0.00191900  0.24218800  0.24976000  1
  Sb  Sb3  1  0.50191900  0.75781200  0.25024000  1
  O  O0  1  0.69612200  0.05316400  0.29847200  1
  O  O1  1  0.19612200  0.94683600  0.20152800  1
  O  O2  1  0.79308800  0.53939600  0.70951800  1
  O  O3  1  0.29308800  0.46060400  0.79048200  1
  O  O4  1  0.29308800  0.46060400  0.20951800  1
  O  O5  1  0.79308800  0.53939600  0.29048200  1
  O  O6  1  0.19612200  0.94683600  0.79847200  1
  O  O7  1  0.69612200  0.05316400  0.70152800  1
  O  O8  1  0.09444000  0.23144000  0.50000000  1
  O  O9  1  0.59444000  0.76856000  0.00000000  1
  O  O10  1  0.42012200  0.72502700  0.50000000  1
  O  O11  1  0.92012200  0.27497300  0.00000000  1
loop_
_geom_bond_atom_site_label_1
_geom_bond_atom_site_label_2
_geom_bond_distance
_geom_bond_site_symmetry_2
Ca0 O8 2.320532 1_555
Ca0 O7 2.337073 1_555
Ca0 O0 2.337073 1_555
Ca0 O10 2.365283 1_555
Ca0 O2 2.567430 1_555
Ca0 O5 2.567430 1_555
Ca0 O3 2.693054 1_555
Ca0 O4 2.693054 1_555
Ca1 O9 2.320532 1_455
Ca1 O1 2.337073 1_555
Ca1 O6 2.337073 1_554
Ca1 O11 2.365283 1_455
Ca1 O4 2.567430 1_555
Ca1 O3 2.567430 1_554
Ca1 O5 2.693054 1_455
Ca1 O2 2.693054 1_454
O0 Sb3 1.986697 1_545
O0 Sb2 2.002068 1_655
O1 Sb2 1.986697 1_565
O1 Sb3 2.002068 1_555
O2 Sb0 2.018507 1_555
O2 Sb1 2.028454 1_655
O3 Sb1 2.018507 1_555
O3 Sb0 2.028454 1_555
O4 Sb2 2.018507 1_555
O4 Sb3 2.028454 1_555
O5 Sb3 2.018507 1_555
O5 Sb2 2.028454 1_655
O6 Sb1 1.986697 1_565
O6 Sb0 2.002068 1_555
O7 Sb0 1.986697 1_545
O7 Sb1 2.002068 1_655
O8 Sb2 2.011220 1_555
O8 Sb1 2.011220 1_555
O9 Sb0 2.011220 1_554
O9 Sb3 2.011220 1_555
O10 Sb3 2.001220 1_555
O10 Sb0 2.001220 1_555
O11 Sb1 2.001220 1_654
O11 Sb2 2.001220 1_655
