# generated using pymatgen
data_Zn7SnN6
_symmetry_space_group_name_H-M   'P 1'
_cell_length_a   10.84830000
_cell_length_b   6.03576200
_cell_length_c   12.47579400
_cell_angle_alpha   90.00000000
_cell_angle_beta   90.00000000
_cell_angle_gamma   90.00000000
_symmetry_Int_Tables_number   1
_chemical_formula_structural   Zn7SnN6
_chemical_formula_sum   'Zn28 Sn4 N24'
_cell_volume   816.88700672
_cell_formula_units_Z   4
loop_
 _symmetry_equiv_pos_site_id
 _symmetry_equiv_pos_as_xyz
  1  'x, y, z'
loop_
 _atom_site_type_symbol
 _atom_site_label
 _atom_site_symmetry_multiplicity
 _atom_site_fract_x
 _atom_site_fract_y
 _atom_site_fract_z
 _atom_site_occupancy
  Zn  Zn0  1  0.96498900  0.76663200  0.04158900  1
  Zn  Zn1  1  0.53501100  0.73336800  0.54158900  1
  Zn  Zn2  1  0.46498900  0.73336800  0.95841100  1
  Zn  Zn3  1  0.03501100  0.76663200  0.45841100  1
  Zn  Zn4  1  0.03501100  0.23336800  0.95841100  1
  Zn  Zn5  1  0.46498900  0.26663200  0.45841100  1
  Zn  Zn6  1  0.53501100  0.26663200  0.04158900  1
  Zn  Zn7  1  0.96498900  0.23336800  0.54158900  1
  Zn  Zn8  1  0.24252000  0.65212600  0.65347200  1
  Zn  Zn9  1  0.25748000  0.84787400  0.15347200  1
  Zn  Zn10  1  0.74252000  0.84787400  0.34652800  1
  Zn  Zn11  1  0.75748000  0.65212600  0.84652800  1
  Zn  Zn12  1  0.75748000  0.34787400  0.34652800  1
  Zn  Zn13  1  0.74252000  0.15212600  0.84652800  1
  Zn  Zn14  1  0.25748000  0.15212600  0.65347200  1
  Zn  Zn15  1  0.24252000  0.34787400  0.15347200  1
  Zn  Zn16  1  0.20728000  0.63556700  0.92596400  1
  Zn  Zn17  1  0.29272000  0.86443300  0.42596400  1
  Zn  Zn18  1  0.70728000  0.86443300  0.07403600  1
  Zn  Zn19  1  0.79272000  0.63556700  0.57403600  1
  Zn  Zn20  1  0.79272000  0.36443300  0.07403600  1
  Zn  Zn21  1  0.70728000  0.13556700  0.57403600  1
  Zn  Zn22  1  0.29272000  0.13556700  0.92596400  1
  Zn  Zn23  1  0.20728000  0.36443300  0.42596400  1
  Zn  Zn24  1  0.00000000  0.40958100  0.75000000  1
  Zn  Zn25  1  0.50000000  0.09041900  0.25000000  1
  Zn  Zn26  1  0.00000000  0.59041900  0.25000000  1
  Zn  Zn27  1  0.50000000  0.90958100  0.75000000  1
  Sn  Sn0  1  0.00000000  0.89873700  0.75000000  1
  Sn  Sn1  1  0.50000000  0.60126300  0.25000000  1
  Sn  Sn2  1  0.00000000  0.10126300  0.25000000  1
  Sn  Sn3  1  0.50000000  0.39873800  0.75000000  1
  N  N0  1  0.13312300  0.65545000  0.78176400  1
  N  N1  1  0.36687700  0.84455000  0.28176400  1
  N  N2  1  0.63312300  0.84455000  0.21823600  1
  N  N3  1  0.86687700  0.65545000  0.71823600  1
  N  N4  1  0.86687700  0.34455000  0.21823600  1
  N  N5  1  0.63312300  0.15545000  0.71823600  1
  N  N6  1  0.36687700  0.15545000  0.78176400  1
  N  N7  1  0.13312300  0.34455000  0.28176400  1
  N  N8  1  0.18346600  0.64941600  0.50432600  1
  N  N9  1  0.31653400  0.85058400  0.00432600  1
  N  N10  1  0.68346600  0.85058400  0.49567400  1
  N  N11  1  0.81653400  0.64941600  0.99567400  1
  N  N12  1  0.81653400  0.35058400  0.49567400  1
  N  N13  1  0.68346600  0.14941600  0.99567400  1
  N  N14  1  0.31653400  0.14941600  0.50432600  1
  N  N15  1  0.18346600  0.35058400  0.00432600  1
  N  N16  1  0.42709300  0.64945600  0.65075500  1
  N  N17  1  0.07290700  0.85054400  0.15075500  1
  N  N18  1  0.92709300  0.85054400  0.34924500  1
  N  N19  1  0.57290700  0.64945600  0.84924500  1
  N  N20  1  0.57290700  0.35054400  0.34924500  1
  N  N21  1  0.92709300  0.14945600  0.84924500  1
  N  N22  1  0.07290700  0.14945600  0.65075500  1
  N  N23  1  0.42709300  0.35054400  0.15075500  1
loop_
_geom_bond_atom_site_label_1
_geom_bond_atom_site_label_2
_geom_bond_distance
_geom_bond_site_symmetry_2
N0 Zn16 1.974341 1_555
N0 Zn8 1.992629 1_555
N0 Sn0 2.097355 1_555
N0 Zn24 2.108295 1_555
N1 Zn17 1.974341 1_555
N1 Zn9 1.992629 1_555
N1 Sn1 2.097355 1_555
N1 Zn25 2.108295 1_565
N2 Zn18 1.974341 1_555
N2 Zn10 1.992629 1_555
N2 Sn1 2.097355 1_555
N2 Zn25 2.108295 1_565
N3 Zn19 1.974341 1_555
N3 Zn11 1.992629 1_555
N3 Sn0 2.097355 1_655
N3 Zn24 2.108295 1_655
N4 Zn20 1.974341 1_555
N4 Zn12 1.992629 1_555
N4 Sn2 2.097355 1_655
N4 Zn26 2.108295 1_655
N5 Zn21 1.974341 1_555
N5 Zn13 1.992629 1_555
N5 Sn3 2.097359 1_555
N5 Zn27 2.108295 1_545
N6 Zn22 1.974341 1_555
N6 Zn14 1.992629 1_555
N6 Sn3 2.097359 1_555
N6 Zn27 2.108295 1_545
N7 Zn23 1.974341 1_555
N7 Zn15 1.992629 1_555
N7 Sn2 2.097355 1_555
N7 Zn26 2.108295 1_555
N8 Zn3 1.849954 1_555
N8 Zn8 1.967979 1_555
N8 Zn23 1.995296 1_555
N8 Zn17 2.011160 1_555
N9 Zn2 1.849954 1_554
N9 Zn9 1.967979 1_555
N9 Zn22 1.995296 1_564
N9 Zn16 2.011160 1_554
N10 Zn1 1.849954 1_555
N10 Zn10 1.967979 1_555
N10 Zn21 1.995296 1_565
N10 Zn19 2.011160 1_555
N11 Zn0 1.849954 1_556
N11 Zn11 1.967979 1_555
N11 Zn20 1.995296 1_556
N11 Zn18 2.011160 1_556
N12 Zn7 1.849954 1_555
N12 Zn12 1.967979 1_555
N12 Zn19 1.995296 1_555
N12 Zn21 2.011160 1_555
N13 Zn6 1.849954 1_556
N13 Zn13 1.967979 1_555
N13 Zn18 1.995296 1_546
N13 Zn20 2.011160 1_556
N14 Zn5 1.849954 1_555
N14 Zn14 1.967979 1_555
N14 Zn17 1.995296 1_545
N14 Zn23 2.011160 1_555
N15 Zn4 1.849954 1_554
N15 Zn15 1.967979 1_555
N15 Zn16 1.995296 1_554
N15 Zn22 2.011160 1_554
N16 Zn1 1.866005 1_555
N16 Zn8 2.002655 1_555
N16 Sn3 2.109168 1_555
N16 Zn27 2.150269 1_555
N17 Zn0 1.866005 1_455
N17 Zn9 2.002655 1_555
N17 Sn2 2.109172 1_565
N17 Zn26 2.150269 1_555
N18 Zn3 1.866005 1_655
N18 Zn10 2.002655 1_555
N18 Sn2 2.109172 1_665
N18 Zn26 2.150269 1_655
N19 Zn2 1.866005 1_555
N19 Zn11 2.002655 1_555
N19 Sn3 2.109168 1_555
N19 Zn27 2.150269 1_555
N20 Zn5 1.866005 1_555
N20 Zn12 2.002655 1_555
N20 Sn1 2.109172 1_555
N20 Zn25 2.150269 1_555
N21 Zn4 1.866005 1_655
N21 Zn13 2.002655 1_555
N21 Sn0 2.109172 1_645
N21 Zn24 2.150269 1_655
N22 Zn7 1.866005 1_455
N22 Zn14 2.002655 1_555
N22 Sn0 2.109172 1_545
N22 Zn24 2.150269 1_555
N23 Zn6 1.866005 1_555
N23 Zn15 2.002655 1_555
N23 Sn1 2.109172 1_555
N23 Zn25 2.150269 1_555
