# generated using pymatgen
data_Li7Co5O12
_symmetry_space_group_name_H-M   'P 1'
_cell_length_a   5.60880607
_cell_length_b   6.30386033
_cell_length_c   6.29361619
_cell_angle_alpha   96.50319886
_cell_angle_beta   116.42308307
_cell_angle_gamma   102.84036199
_symmetry_Int_Tables_number   1
_chemical_formula_structural   Li7Co5O12
_chemical_formula_sum   'Li7 Co5 O12'
_cell_volume   188.47173461
_cell_formula_units_Z   1
loop_
 _symmetry_equiv_pos_site_id
 _symmetry_equiv_pos_as_xyz
  1  'x, y, z'
loop_
 _atom_site_type_symbol
 _atom_site_label
 _atom_site_symmetry_multiplicity
 _atom_site_fract_x
 _atom_site_fract_y
 _atom_site_fract_z
 _atom_site_occupancy
  Li  Li0  1  0.74790107  0.99864679  0.49569020  1
  Li  Li1  1  0.25535047  0.32552104  0.83335175  1
  Li  Li2  1  0.25664411  0.67587536  0.16523936  1
  Li  Li3  1  0.74335589  0.32412464  0.83476064  1
  Li  Li4  1  0.25209893  0.00135321  0.50430980  1
  Li  Li5  1  0.74464953  0.67447896  0.16664825  1
  Li  Li6  1  0.50000000  0.00000000  0.00000000  1
  Co  Co0  1  0.00000000  0.00000000  0.00000000  1
  Co  Co1  1  0.49941375  0.33070170  0.32816412  1
  Co  Co2  1  0.00501495  0.66878181  0.67099123  1
  Co  Co3  1  0.99498505  0.33121819  0.32900877  1
  Co  Co4  1  0.50058625  0.66929830  0.67183588  1
  O  O0  1  0.11016038  0.98172462  0.75936310  1
  O  O1  1  0.64066758  0.33896972  0.11009574  1
  O  O2  1  0.62990259  0.65161345  0.43593830  1
  O  O3  1  0.12781389  0.31981786  0.09676620  1
  O  O4  1  0.64056835  0.98227419  0.75968318  1
  O  O5  1  0.13268973  0.65374995  0.43679851  1
  O  O6  1  0.35943165  0.01772581  0.24031682  1
  O  O7  1  0.86731027  0.34625005  0.56320149  1
  O  O8  1  0.87218611  0.68018214  0.90323380  1
  O  O9  1  0.37009741  0.34838655  0.56406170  1
  O  O10  1  0.88983962  0.01827538  0.24063690  1
  O  O11  1  0.35933242  0.66103028  0.88990426  1
loop_
_geom_bond_atom_site_label_1
_geom_bond_atom_site_label_2
_geom_bond_distance
_geom_bond_site_symmetry_2
Li0 O0 2.007277 1_655
Li0 O4 2.008722 1_555
Li0 O2 2.076984 1_555
Li0 O7 2.077060 1_565
Li0 O10 2.089098 1_565
Li0 O6 2.094903 1_565
Li1 O11 2.009115 1_555
Li1 O0 2.055824 1_545
Li1 O1 2.060699 1_556
Li1 O9 2.071773 1_555
Li1 O3 2.078194 1_556
Li1 O7 2.127935 1_455
Li2 O6 2.043103 1_565
Li2 O11 2.053959 1_554
Li2 O8 2.059428 1_454
Li2 O2 2.082256 1_555
Li2 O5 2.119480 1_555
Li2 O3 2.128068 1_555
Li3 O4 2.043103 1_545
Li3 O1 2.053959 1_556
Li3 O3 2.059428 1_656
Li3 O9 2.082256 1_555
Li3 O7 2.119480 1_555
Li3 O8 2.128068 1_555
Li4 O10 2.007277 1_455
Li4 O6 2.008722 1_555
Li4 O9 2.076984 1_555
Li4 O5 2.077060 1_545
Li4 O0 2.089098 1_545
Li4 O4 2.094903 1_545
Li5 O1 2.009115 1_555
Li5 O10 2.055824 1_565
Li5 O11 2.060699 1_554
Li5 O2 2.071773 1_555
Li5 O8 2.078194 1_554
Li5 O5 2.127935 1_655
Li6 O4 1.995942 1_544
Li6 O6 1.995942 1_555
Li6 O0 1.997296 1_544
Li6 O10 1.997296 1_555
Li6 O1 2.024186 1_555
Li6 O11 2.024186 1_544
Co0 O6 1.874069 1_555
Co0 O4 1.874069 1_444
Co0 O10 1.874459 1_455
Co0 O0 1.874459 1_544
Co0 O3 1.907969 1_555
Co0 O8 1.907969 1_444
Co1 O1 1.865357 1_555
Co1 O6 1.868890 1_555
Co1 O7 1.901661 1_555
Co1 O2 1.917674 1_555
Co1 O3 1.918858 1_555
Co1 O9 1.923410 1_555
Co2 O11 1.863211 1_555
Co2 O0 1.868504 1_555
Co2 O5 1.905810 1_555
Co2 O8 1.914619 1_455
Co2 O7 1.927148 1_455
Co2 O2 1.928515 1_455
Co3 O1 1.863211 1_555
Co3 O10 1.868504 1_555
Co3 O7 1.905810 1_555
Co3 O3 1.914619 1_655
Co3 O5 1.927148 1_655
Co3 O9 1.928515 1_655
Co4 O11 1.865357 1_555
Co4 O4 1.868890 1_555
Co4 O5 1.901661 1_555
Co4 O9 1.917674 1_555
Co4 O8 1.918858 1_555
Co4 O2 1.923410 1_555
