# generated using pymatgen
data_Cr12BP3
_symmetry_space_group_name_H-M   'P 1'
_cell_length_a   4.46244600
_cell_length_b   6.68693698
_cell_length_c   6.74908508
_cell_angle_alpha   85.43454322
_cell_angle_beta   108.94953748
_cell_angle_gamma   108.90029558
_symmetry_Int_Tables_number   1
_chemical_formula_structural   Cr12BP3
_chemical_formula_sum   'Cr12 B1 P3'
_cell_volume   180.13518965
_cell_formula_units_Z   1
loop_
 _symmetry_equiv_pos_site_id
 _symmetry_equiv_pos_as_xyz
  1  'x, y, z'
loop_
 _atom_site_type_symbol
 _atom_site_label
 _atom_site_symmetry_multiplicity
 _atom_site_fract_x
 _atom_site_fract_y
 _atom_site_fract_z
 _atom_site_occupancy
  Cr  Cr0  1  0.06349500  0.02992600  0.60337100  1
  Cr  Cr1  1  0.39696500  0.94795900  0.39670100  1
  Cr  Cr2  1  0.98529400  0.38483900  0.05661600  1
  Cr  Cr3  1  0.54757900  0.61806700  0.93908700  1
  Cr  Cr4  1  0.67283900  0.01499600  0.81669700  1
  Cr  Cr5  1  0.83337800  0.97652200  0.17143600  1
  Cr  Cr6  1  0.33485700  0.17396600  0.02159300  1
  Cr  Cr7  1  0.14227500  0.81553300  0.96169400  1
  Cr  Cr8  1  0.65250000  0.67660700  0.62001900  1
  Cr  Cr9  1  0.35493200  0.33294300  0.38529900  1
  Cr  Cr10  1  0.03352700  0.40408100  0.67758800  1
  Cr  Cr11  1  0.97948300  0.62837200  0.34413400  1
  B  B0  1  0.22068100  0.75070200  0.66748000  1
  P  P0  1  0.78854400  0.24878800  0.34067800  1
  P  P1  1  0.53717400  0.32979800  0.75067700  1
  P  P2  1  0.45647800  0.66690000  0.24693000  1
loop_
_geom_bond_atom_site_label_1
_geom_bond_atom_site_label_2
_geom_bond_distance
_geom_bond_site_symmetry_2
Cr0 P1 2.384097 1_555
Cr0 P0 2.475489 1_455
Cr1 P0 2.296470 1_565
Cr1 P2 2.329088 1_555
Cr2 P1 2.315218 1_554
Cr2 P0 2.360531 1_555
Cr2 P2 2.385524 1_655
Cr3 P2 2.308926 1_556
Cr3 P1 2.372505 1_555
Cr4 P1 2.344659 1_555
Cr5 P0 2.318372 1_565
Cr5 P2 2.346851 1_555
Cr6 P1 2.324531 1_554
Cr6 P0 2.381280 1_555
Cr7 P2 2.346247 1_556
Cr8 P1 2.369942 1_555
Cr8 P2 2.380854 1_555
Cr9 P0 2.293979 1_555
Cr9 P2 2.313366 1_555
Cr9 P0 2.325231 1_455
Cr9 P1 2.333057 1_555
Cr10 P1 2.313848 1_455
Cr10 P0 2.338757 1_455
Cr10 P1 2.346383 1_555
Cr11 P2 2.304774 1_555
Cr11 P2 2.356332 1_655
Cr11 P0 2.400975 1_555
B0 Cr0 2.165233 1_565
B0 Cr11 2.185931 1_455
B0 Cr10 2.198239 1_555
B0 Cr4 2.205055 1_565
B0 Cr7 2.222565 1_555
B0 Cr8 2.259642 1_555
B0 Cr3 2.262193 1_555
B0 Cr8 2.336809 1_455
B0 Cr1 2.361402 1_555
