# generated using pymatgen
data_Ti3CuO8
_symmetry_space_group_name_H-M   'P 1'
_cell_length_a   3.80816300
_cell_length_b   3.80816300
_cell_length_c   9.58491700
_cell_angle_alpha   90.00000000
_cell_angle_beta   90.00000000
_cell_angle_gamma   90.00000000
_symmetry_Int_Tables_number   1
_chemical_formula_structural   Ti3CuO8
_chemical_formula_sum   'Ti3 Cu1 O8'
_cell_volume   139.00147692
_cell_formula_units_Z   1
loop_
 _symmetry_equiv_pos_site_id
 _symmetry_equiv_pos_as_xyz
  1  'x, y, z'
loop_
 _atom_site_type_symbol
 _atom_site_label
 _atom_site_symmetry_multiplicity
 _atom_site_fract_x
 _atom_site_fract_y
 _atom_site_fract_z
 _atom_site_occupancy
  Ti  Ti0  1  0.50000000  0.50000000  0.00000000  1
  Ti  Ti1  1  0.50000000  0.00000000  0.25415300  1
  Ti  Ti2  1  0.00000000  0.50000000  0.74584700  1
  Cu  Cu0  1  0.00000000  0.00000000  0.50000000  1
  O  O0  1  0.50000000  0.50000000  0.20870300  1
  O  O1  1  0.00000000  0.00000000  0.69898400  1
  O  O2  1  0.50000000  0.00000000  0.45865000  1
  O  O3  1  0.00000000  0.50000000  0.95758500  1
  O  O4  1  0.00000000  0.50000000  0.54135000  1
  O  O5  1  0.50000000  0.00000000  0.04241500  1
  O  O6  1  0.00000000  0.00000000  0.30101600  1
  O  O7  1  0.50000000  0.50000000  0.79129700  1
loop_
_geom_bond_atom_site_label_1
_geom_bond_atom_site_label_2
_geom_bond_distance
_geom_bond_site_symmetry_2
Cu0 O6 1.907245 1_555
Cu0 O1 1.907245 1_555
Cu0 O2 1.944893 1_555
Cu0 O4 1.944893 1_555
Cu0 O2 1.944893 1_455
Cu0 O4 1.944893 1_545
O0 Ti1 1.953280 1_555
O0 Ti1 1.953280 1_565
O0 Ti0 2.000401 1_555
O1 Ti2 1.956345 1_555
O1 Ti2 1.956345 1_545
O2 Ti1 1.960087 1_555
O3 Ti0 1.946999 1_556
O3 Ti0 1.946999 1_456
O3 Ti2 2.029491 1_555
O4 Ti2 1.960087 1_555
O5 Ti0 1.946999 1_555
O5 Ti0 1.946999 1_545
O5 Ti1 2.029491 1_555
O6 Ti1 1.956345 1_455
O6 Ti1 1.956345 1_555
O7 Ti2 1.953280 1_555
O7 Ti2 1.953280 1_655
O7 Ti0 2.000401 1_556
