# generated using pymatgen
data_Zn53Co7
_symmetry_space_group_name_H-M   'P 1'
_cell_length_a   7.65152634
_cell_length_b   11.01519120
_cell_length_c   11.04719037
_cell_angle_alpha   60.26948844
_cell_angle_beta   90.00000000
_cell_angle_gamma   90.00000000
_symmetry_Int_Tables_number   1
_chemical_formula_structural   Zn53Co7
_chemical_formula_sum   'Zn53 Co7'
_cell_volume   808.52888437
_cell_formula_units_Z   1
loop_
 _symmetry_equiv_pos_site_id
 _symmetry_equiv_pos_as_xyz
  1  'x, y, z'
loop_
 _atom_site_type_symbol
 _atom_site_label
 _atom_site_symmetry_multiplicity
 _atom_site_fract_x
 _atom_site_fract_y
 _atom_site_fract_z
 _atom_site_occupancy
  Zn  Zn0  1  0.42844958  0.10991590  0.51891073  1
  Zn  Zn1  1  0.76465491  0.37046148  0.11035323  1
  Zn  Zn2  1  0.09616284  0.51051740  0.37481817  1
  Zn  Zn3  1  0.42844958  0.89008410  0.48108927  1
  Zn  Zn4  1  0.76465491  0.62953852  0.88964677  1
  Zn  Zn5  1  0.09616284  0.48948260  0.62518183  1
  Zn  Zn6  1  0.69176776  0.51722566  0.37424416  1
  Zn  Zn7  1  0.02637516  0.11077494  0.51267708  1
  Zn  Zn8  1  0.35781631  0.37332692  0.10711568  1
  Zn  Zn9  1  0.69176776  0.48277434  0.62575584  1
  Zn  Zn10  1  0.02637516  0.88922506  0.48732292  1
  Zn  Zn11  1  0.35781631  0.62667308  0.89288432  1
  Zn  Zn12  1  0.22808975  0.26566865  0.57904561  1
  Zn  Zn13  1  0.55945406  0.15759184  0.26952922  1
  Zn  Zn14  1  0.89152871  0.57826493  0.15505230  1
  Zn  Zn15  1  0.22808975  0.73433135  0.42095439  1
  Zn  Zn16  1  0.55945406  0.84240816  0.73047078  1
  Zn  Zn17  1  0.89152871  0.42173507  0.84494770  1
  Zn  Zn18  1  0.71451783  0.21685979  0.81306592  1
  Zn  Zn19  1  0.06177617  0.96806508  0.22600063  1
  Zn  Zn20  1  0.39964588  0.80867978  0.97590467  1
  Zn  Zn21  1  0.71451783  0.78314021  0.18693408  1
  Zn  Zn22  1  0.06177617  0.03193492  0.77399937  1
  Zn  Zn23  1  0.39964588  0.19132022  0.02409533  1
  Zn  Zn24  1  0.40202987  0.38220979  0.33902057  1
  Zn  Zn25  1  0.73901532  0.27864294  0.38385659  1
  Zn  Zn26  1  0.06867606  0.33963806  0.27316053  1
  Zn  Zn27  1  0.40202987  0.61779021  0.66097943  1
  Zn  Zn28  1  0.73901532  0.72135706  0.61614341  1
  Zn  Zn29  1  0.06867606  0.66036194  0.72683947  1
  Zn  Zn30  1  0.39771293  0.50000000  0.50000000  1
  Zn  Zn31  1  0.73197452  -0.00000000  0.50000000  1
  Zn  Zn32  1  0.06379590  0.50000000  -0.00000000  1
  Zn  Zn33  1  0.89615200  0.31503150  0.57548132  1
  Zn  Zn34  1  0.23150889  0.11338736  0.31376602  1
  Zn  Zn35  1  0.56349416  0.56765684  0.11434154  1
  Zn  Zn36  1  0.89615200  0.68496850  0.42451868  1
  Zn  Zn37  1  0.23150889  0.88661264  0.68623398  1
  Zn  Zn38  1  0.56349416  0.43234316  0.88565846  1
  Zn  Zn39  1  0.40321727  0.31487419  0.75595917  1
  Zn  Zn40  1  0.73925979  0.92926826  0.31334653  1
  Zn  Zn41  1  0.07060708  0.75987519  0.93230749  1
  Zn  Zn42  1  0.40321727  0.68512581  0.24404083  1
  Zn  Zn43  1  0.73925979  0.07073174  0.68665347  1
  Zn  Zn44  1  0.07060708  0.24012481  0.06769251  1
  Zn  Zn45  1  0.89949505  -0.00000000  -0.00000000  1
  Zn  Zn46  1  0.24062859  -0.00000000  -0.00000000  1
  Zn  Zn47  1  0.42617710  0.06670636  0.77579091  1
  Zn  Zn48  1  0.73997029  0.15684113  0.06981909  1
  Zn  Zn49  1  0.07939232  0.76628381  0.16935679  1
  Zn  Zn50  1  0.42617710  0.93329364  0.22420909  1
  Zn  Zn51  1  0.73997029  0.84315887  0.93018091  1
  Zn  Zn52  1  0.07939232  0.23371619  0.83064321  1
  Co  Co0  1  0.56649493  0.28506395  0.57522914  1
  Co  Co1  1  0.89981382  0.13830282  0.28414447  1
  Co  Co2  1  0.23245167  0.57546179  0.13984528  1
  Co  Co3  1  0.56649493  0.71493605  0.42477086  1
  Co  Co4  1  0.89981382  0.86169718  0.71585553  1
  Co  Co5  1  0.23245167  0.42453821  0.86015472  1
  Co  Co6  1  0.56970096  -0.00000000  -0.00000000  1
loop_
_geom_bond_atom_site_label_1
_geom_bond_atom_site_label_2
_geom_bond_distance
_geom_bond_site_symmetry_2
Zn0 Zn12 2.620205 1_555
Zn0 Zn47 2.634446 1_555
Zn0 Zn3 2.653616 1_545
Zn0 Zn24 2.659775 1_555
Zn0 Zn31 2.674714 1_555
Zn0 Zn37 2.688527 1_545
Zn0 Zn34 2.705964 1_555
Zn0 Zn13 2.726794 1_555
Zn0 Zn16 2.884301 1_545
Zn0 Zn43 2.912494 1_555
Zn0 Zn25 2.928606 1_555
Zn0 Zn7 3.077163 1_555
Zn1 Zn48 2.611169 1_555
Zn1 Zn13 2.639293 1_555
Zn1 Zn32 2.652523 1_655
Zn1 Zn25 2.675739 1_555
Zn1 Zn35 2.680331 1_555
Zn1 Zn4 2.680958 1_554
Zn1 Zn38 2.705010 1_554
Zn1 Zn14 2.747149 1_555
Zn1 Zn26 2.855829 1_655
Zn1 Zn17 2.866268 1_554
Zn1 Zn44 2.904250 1_655
Zn1 Zn8 3.113122 1_555
Zn2 Zn49 2.600596 1_555
Zn2 Zn26 2.635331 1_555
Zn2 Zn5 2.658534 1_555
Zn2 Zn30 2.662831 1_555
Zn2 Zn33 2.675527 1_455
Zn2 Zn36 2.717093 1_455
Zn2 Zn24 2.861031 1_555
Zn2 Zn42 2.924088 1_555
Zn2 Zn6 3.095053 1_455
Zn3 Zn50 2.634446 1_555
Zn3 Zn31 2.674714 1_565
Zn3 Zn34 2.688527 1_565
Zn3 Zn37 2.705964 1_555
Zn3 Zn40 2.912494 1_555
Zn4 Zn51 2.611169 1_555
Zn4 Zn41 2.904250 1_655
Zn5 Zn52 2.600596 1_555
Zn5 Zn9 3.095053 1_455
Zn6 Zn9 2.611179 1_555
Zn10 Zn19 2.583601 1_555
Zn10 Zn7 2.590760 1_565
Zn10 Zn31 2.598515 1_465
Zn10 Zn29 2.616344 1_555
Zn10 Zn15 2.659235 1_555
Zn10 Zn37 2.688924 1_555
Zn10 Zn34 2.746089 1_565
Zn10 Zn28 2.769271 1_455
Zn10 Zn40 2.806041 1_455
Zn10 Zn36 2.843351 1_455
Zn10 Zn3 3.077163 1_555
Zn11 Zn32 2.602060 1_556
Zn11 Zn20 2.605127 1_555
Zn11 Zn8 2.614990 1_556
Zn11 Zn27 2.633623 1_555
Zn11 Zn16 2.649099 1_555
Zn11 Zn38 2.689726 1_555
Zn11 Zn35 2.703170 1_556
Zn11 Zn29 2.778827 1_555
Zn11 Zn41 2.793865 1_555
Zn11 Zn37 2.803709 1_555
Zn11 Zn4 3.113122 1_555
Zn12 Zn33 2.593590 1_455
Zn12 Zn30 2.621837 1_555
Zn12 Zn39 2.638121 1_555
Zn12 Zn7 2.659235 1_555
Zn12 Zn24 2.659718 1_555
Zn12 Zn47 2.664557 1_555
Zn12 Zn2 2.710711 1_555
Zn12 Zn22 2.717857 1_555
Zn12 Zn52 2.858920 1_555
Zn12 Zn5 2.933086 1_555
Zn13 Zn34 2.556637 1_555
Zn13 Zn48 2.606419 1_555
Zn13 Zn31 2.618134 1_555
Zn13 Zn25 2.632700 1_555
Zn13 Zn8 2.649099 1_555
Zn13 Zn40 2.691651 1_545
Zn13 Zn23 2.825870 1_555
Zn13 Zn3 2.884301 1_545
Zn13 Zn50 2.936286 1_545
Zn14 Zn35 2.562805 1_555
Zn14 Zn49 2.589427 1_655
Zn14 Zn32 2.622836 1_655
Zn14 Zn6 2.652723 1_555
Zn14 Zn26 2.654646 1_655
Zn14 Zn41 2.655570 1_654
Zn14 Zn2 2.665658 1_655
Zn14 Zn21 2.799943 1_555
Zn14 Zn4 2.866268 1_554
Zn14 Zn51 2.973301 1_554
Zn15 Zn36 2.593590 1_455
Zn15 Zn3 2.620205 1_555
Zn15 Zn30 2.621837 1_555
Zn15 Zn42 2.638121 1_555
Zn15 Zn27 2.659718 1_555
Zn15 Zn50 2.664557 1_555
Zn15 Zn5 2.710711 1_555
Zn15 Zn19 2.717857 1_555
Zn15 Zn49 2.858920 1_555
Zn15 Zn2 2.933086 1_555
Zn16 Zn37 2.556637 1_555
Zn16 Zn51 2.606419 1_555
Zn16 Zn31 2.618134 1_565
Zn16 Zn28 2.632700 1_555
Zn16 Zn4 2.639293 1_555
Zn16 Zn43 2.691651 1_565
Zn16 Zn3 2.726794 1_555
Zn16 Zn20 2.825870 1_555
Zn16 Zn47 2.936286 1_565
Zn17 Zn38 2.562805 1_555
Zn17 Zn52 2.589427 1_655
Zn17 Zn32 2.622836 1_656
Zn17 Zn9 2.652723 1_555
Zn17 Zn29 2.654646 1_655
Zn17 Zn44 2.655570 1_656
Zn17 Zn5 2.665658 1_655
Zn17 Zn4 2.747149 1_555
Zn17 Zn18 2.799943 1_555
Zn17 Zn48 2.973301 1_556
Zn18 Zn39 2.561570 1_555
Zn18 Zn48 2.580752 1_556
Zn18 Zn43 2.608922 1_555
Zn18 Zn9 2.622999 1_555
Zn18 Zn45 2.661059 1_556
Zn18 Zn33 2.678532 1_555
Zn18 Zn52 2.811112 1_655
Zn18 Zn47 2.906583 1_555
Zn18 Zn38 3.082260 1_555
Zn19 Zn34 2.593932 1_565
Zn19 Zn49 2.594118 1_555
Zn19 Zn40 2.606620 1_455
Zn19 Zn44 2.616413 1_565
Zn19 Zn45 2.651007 1_465
Zn19 Zn46 2.712711 1_565
Zn19 Zn50 2.815812 1_555
Zn19 Zn36 3.058878 1_455
Zn20 Zn46 2.559086 1_566
Zn20 Zn42 2.574648 1_556
Zn20 Zn47 2.602796 1_565
Zn20 Zn35 2.632877 1_556
Zn20 Zn51 2.643848 1_555
Zn20 Zn41 2.667645 1_555
Zn21 Zn42 2.561570 1_555
Zn21 Zn51 2.580752 1_554
Zn21 Zn40 2.608922 1_555
Zn21 Zn6 2.622999 1_555
Zn21 Zn45 2.661059 1_565
Zn21 Zn36 2.678532 1_555
Zn21 Zn49 2.811112 1_655
Zn21 Zn50 2.906583 1_555
Zn21 Zn35 3.082260 1_555
Zn22 Zn7 2.583601 1_555
Zn22 Zn37 2.593932 1_545
Zn22 Zn52 2.594118 1_555
Zn22 Zn43 2.606620 1_455
Zn22 Zn41 2.616413 1_545
Zn22 Zn45 2.651007 1_456
Zn22 Zn46 2.712711 1_556
Zn22 Zn47 2.815812 1_555
Zn22 Zn33 3.058878 1_455
Zn23 Zn46 2.559086 1_555
Zn23 Zn39 2.574648 1_554
Zn23 Zn50 2.602796 1_545
Zn23 Zn8 2.605127 1_555
Zn23 Zn38 2.632877 1_554
Zn23 Zn48 2.643848 1_555
Zn23 Zn44 2.667645 1_555
Zn24 Zn35 2.613604 1_555
Zn24 Zn8 2.633623 1_555
Zn24 Zn30 2.671279 1_555
Zn24 Zn26 2.755640 1_555
Zn24 Zn25 2.763105 1_555
Zn24 Zn6 2.802152 1_555
Zn24 Zn42 2.960062 1_555
Zn25 Zn6 2.602257 1_555
Zn25 Zn33 2.632337 1_555
Zn25 Zn31 2.676528 1_555
Zn25 Zn26 2.737604 1_655
Zn25 Zn7 2.769271 1_655
Zn25 Zn43 2.972547 1_555
Zn26 Zn7 2.616344 1_555
Zn26 Zn34 2.618349 1_555
Zn26 Zn32 2.634562 1_555
Zn26 Zn8 2.778827 1_555
Zn26 Zn44 2.970149 1_555
Zn27 Zn38 2.613604 1_555
Zn27 Zn3 2.659775 1_555
Zn27 Zn30 2.671279 1_555
Zn27 Zn29 2.755640 1_555
Zn27 Zn28 2.763105 1_555
Zn27 Zn9 2.802152 1_555
Zn27 Zn5 2.861031 1_555
Zn27 Zn39 2.960062 1_555
Zn28 Zn9 2.602257 1_555
Zn28 Zn36 2.632337 1_555
Zn28 Zn4 2.675739 1_555
Zn28 Zn31 2.676528 1_565
Zn28 Zn29 2.737604 1_655
Zn28 Zn3 2.928606 1_555
Zn28 Zn40 2.972547 1_555
Zn29 Zn37 2.618349 1_555
Zn29 Zn32 2.634562 1_556
Zn29 Zn5 2.635331 1_555
Zn29 Zn4 2.855829 1_455
Zn29 Zn41 2.970149 1_555
Zn30 Zn42 2.537032 1_555
Zn30 Zn39 2.537032 1_555
Zn30 Zn9 2.601331 1_555
Zn30 Zn6 2.601331 1_555
Zn30 Zn5 2.662831 1_555
Zn31 Zn40 2.540751 1_545
Zn31 Zn43 2.540751 1_555
Zn31 Zn7 2.598515 1_655
Zn32 Zn41 2.575474 1_554
Zn32 Zn44 2.575474 1_555
Zn32 Zn8 2.602060 1_555
Zn32 Zn4 2.652523 1_454
Zn33 Zn43 2.629258 1_555
Zn33 Zn9 2.680671 1_555
Zn33 Zn5 2.717093 1_655
Zn33 Zn6 2.727152 1_555
Zn33 Zn7 2.843351 1_655
Zn33 Zn52 2.865241 1_655
Zn34 Zn44 2.662779 1_555
Zn34 Zn7 2.688924 1_555
Zn34 Zn8 2.803709 1_555
Zn34 Zn50 3.013208 1_545
Zn35 Zn42 2.658959 1_555
Zn35 Zn8 2.689726 1_555
Zn35 Zn4 2.705010 1_554
Zn35 Zn6 2.816683 1_555
Zn35 Zn51 3.008021 1_554
Zn36 Zn40 2.629258 1_555
Zn36 Zn5 2.675527 1_655
Zn36 Zn6 2.680671 1_555
Zn36 Zn9 2.727152 1_555
Zn36 Zn49 2.865241 1_655
Zn37 Zn41 2.662779 1_555
Zn37 Zn7 2.746089 1_565
Zn37 Zn47 3.013208 1_565
Zn38 Zn39 2.658959 1_555
Zn38 Zn4 2.680331 1_555
Zn38 Zn8 2.703170 1_556
Zn38 Zn9 2.816683 1_555
Zn38 Zn48 3.008021 1_556
Zn39 Zn52 2.624425 1_555
Zn39 Zn47 2.637709 1_555
Zn39 Zn9 2.779480 1_555
Zn39 Zn5 2.924088 1_555
Zn40 Zn50 2.582061 1_555
Zn40 Zn48 2.613933 1_565
Zn41 Zn49 2.655296 1_556
Zn41 Zn51 2.687200 1_455
Zn42 Zn49 2.624425 1_555
Zn42 Zn50 2.637709 1_555
Zn42 Zn6 2.779480 1_555
Zn43 Zn47 2.582061 1_555
Zn43 Zn51 2.613933 1_545
Zn43 Zn7 2.806041 1_655
Zn44 Zn52 2.655296 1_554
Zn44 Zn48 2.687200 1_455
Zn44 Zn8 2.793865 1_555
Zn45 Zn51 2.528078 1_544
Zn45 Zn48 2.528078 1_555
Zn45 Zn46 2.610192 1_655
Zn45 Zn52 2.691743 1_654
Zn45 Zn49 2.691743 1_645
Zn46 Zn49 2.621600 1_545
Zn46 Zn52 2.621600 1_554
Zn46 Zn47 2.623995 1_554
Zn46 Zn50 2.623995 1_545
Co0 Zn43 2.440110 1_555
Co0 Zn30 2.451996 1_555
Co0 Zn39 2.511003 1_555
Co0 Zn25 2.522969 1_555
Co0 Zn0 2.532875 1_555
Co0 Zn33 2.544068 1_555
Co0 Zn47 2.561507 1_555
Co0 Zn12 2.596737 1_555
Co0 Zn6 2.599364 1_555
Co0 Zn24 2.601598 1_555
Co0 Zn18 2.606291 1_555
Co0 Zn9 2.679351 1_555
Co1 Zn44 2.454279 1_655
Co1 Zn31 2.460335 1_555
Co1 Zn40 2.485610 1_545
Co1 Zn26 2.517065 1_655
Co1 Zn1 2.534861 1_555
Co1 Zn34 2.556294 1_655
Co1 Zn7 2.577645 1_655
Co1 Zn19 2.580580 1_645
Co1 Zn48 2.581466 1_555
Co1 Zn25 2.608799 1_555
Co1 Zn13 2.611402 1_555
Co1 Zn10 2.719437 1_645
Co2 Zn42 2.422914 1_555
Co2 Zn32 2.452886 1_555
Co2 Zn41 2.509407 1_554
Co2 Zn24 2.531952 1_555
Co2 Zn2 2.548635 1_555
Co2 Zn35 2.554757 1_555
Co2 Zn49 2.564311 1_555
Co2 Zn26 2.587010 1_555
Co2 Zn8 2.609001 1_555
Co2 Zn14 2.615151 1_455
Co2 Zn20 2.627062 1_554
Co2 Zn11 2.674902 1_554
Co3 Zn40 2.440110 1_555
Co3 Zn30 2.451996 1_555
Co3 Zn42 2.511003 1_555
Co3 Zn28 2.522969 1_555
Co3 Zn3 2.532875 1_555
Co3 Zn36 2.544068 1_555
Co3 Zn50 2.561507 1_555
Co3 Zn15 2.596737 1_555
Co3 Zn9 2.599364 1_555
Co3 Zn27 2.601598 1_555
Co3 Zn21 2.606291 1_555
Co3 Zn6 2.679351 1_555
Co4 Zn41 2.454279 1_655
Co4 Zn31 2.460335 1_565
Co4 Zn43 2.485610 1_565
Co4 Zn29 2.517065 1_655
Co4 Zn4 2.534861 1_555
Co4 Zn37 2.556294 1_655
Co4 Zn10 2.577645 1_655
Co4 Zn22 2.580580 1_665
Co4 Zn51 2.581466 1_555
Co4 Zn28 2.608799 1_555
Co4 Zn16 2.611402 1_555
Co4 Zn7 2.719437 1_665
Co5 Zn39 2.422914 1_555
Co5 Zn32 2.452886 1_556
Co5 Zn44 2.509407 1_556
Co5 Zn27 2.531952 1_555
Co5 Zn5 2.548635 1_555
Co5 Zn38 2.554757 1_555
Co5 Zn52 2.564311 1_555
Co5 Zn29 2.587010 1_555
Co5 Zn11 2.609001 1_555
Co5 Zn17 2.615151 1_455
Co5 Zn23 2.627062 1_556
Co5 Zn8 2.674902 1_556
Co6 Zn47 2.464896 1_554
Co6 Zn50 2.464896 1_545
Co6 Zn18 2.511139 1_554
Co6 Zn21 2.511139 1_545
Co6 Zn46 2.517906 1_555
Co6 Zn45 2.523428 1_555
Co6 Zn51 2.568781 1_544
Co6 Zn48 2.568781 1_555
Co6 Zn20 2.600303 1_544
Co6 Zn23 2.600303 1_555
