# generated using pymatgen
data_SrNdAlO4
_symmetry_space_group_name_H-M   'P 1'
_cell_length_a   6.77319854
_cell_length_b   6.77319854
_cell_length_c   6.77319854
_cell_angle_alpha   147.67629851
_cell_angle_beta   147.67629851
_cell_angle_gamma   46.36344475
_symmetry_Int_Tables_number   1
_chemical_formula_structural   SrNdAlO4
_chemical_formula_sum   'Sr1 Nd1 Al1 O4'
_cell_volume   88.52538651
_cell_formula_units_Z   1
loop_
 _symmetry_equiv_pos_site_id
 _symmetry_equiv_pos_as_xyz
  1  'x, y, z'
loop_
 _atom_site_type_symbol
 _atom_site_label
 _atom_site_symmetry_multiplicity
 _atom_site_fract_x
 _atom_site_fract_y
 _atom_site_fract_z
 _atom_site_occupancy
  Sr  Sr0  1  0.64405800  0.64405800  0.00000000  1
  Nd  Nd0  1  0.35984800  0.35984800  0.00000000  1
  Al  Al0  1  0.00374500  0.00374500  0.00000000  1
  O  O0  1  0.83918900  0.83918900  0.00000000  1
  O  O1  1  0.16557100  0.16557100  0.00000000  1
  O  O2  1  0.99379400  0.49379400  0.50000000  1
  O  O3  1  0.49379400  0.99379400  0.50000000  1
loop_
_geom_bond_atom_site_label_1
_geom_bond_atom_site_label_2
_geom_bond_distance
_geom_bond_site_symmetry_2
Nd0 O1 2.419268 1_555
Nd0 O3 2.517270 1_555
Nd0 O2 2.517270 1_555
Nd0 O2 2.517270 1_454
Nd0 O3 2.517270 1_544
Nd0 O0 2.678643 1_444
Nd0 O0 2.678643 1_545
Nd0 O0 2.678643 1_455
Nd0 O0 2.678643 1_556
Al0 O2 1.889399 1_444
Al0 O3 1.889399 1_444
Al0 O2 1.889399 1_455
Al0 O3 1.889399 1_545
Al0 O1 2.015166 1_555
Al0 O0 2.049162 1_445
O0 Sr0 2.429903 1_555
O1 Sr0 2.679685 1_556
O1 Sr0 2.679685 1_444
O1 Sr0 2.679685 1_545
O1 Sr0 2.679685 1_455
O2 Sr0 2.656279 1_555
O2 Sr0 2.656279 1_656
O3 Sr0 2.656279 1_555
O3 Sr0 2.656279 1_566
