# generated using pymatgen
data_Nb4Co(CS2)2
_symmetry_space_group_name_H-M   'P 1'
_cell_length_a   3.33465100
_cell_length_b   5.73922200
_cell_length_c   8.52961682
_cell_angle_alpha   77.36761505
_cell_angle_beta   90.00000000
_cell_angle_gamma   90.00000000
_symmetry_Int_Tables_number   1
_chemical_formula_structural   Nb4Co(CS2)2
_chemical_formula_sum   'Nb4 Co1 C2 S4'
_cell_volume   159.29082750
_cell_formula_units_Z   1
loop_
 _symmetry_equiv_pos_site_id
 _symmetry_equiv_pos_as_xyz
  1  'x, y, z'
loop_
 _atom_site_type_symbol
 _atom_site_label
 _atom_site_symmetry_multiplicity
 _atom_site_fract_x
 _atom_site_fract_y
 _atom_site_fract_z
 _atom_site_occupancy
  Nb  Nb0  1  0.50000000  0.62667400  0.63957300  1
  Nb  Nb1  1  0.00000000  0.11611900  0.63867000  1
  Nb  Nb2  1  0.50000000  0.37332600  0.36042700  1
  Nb  Nb3  1  0.00000000  0.88388100  0.36133000  1
  Co  Co0  1  0.00000000  0.00000000  0.00000000  1
  C  C0  1  0.00000000  0.50000000  0.50000000  1
  C  C1  1  0.50000000  0.00000000  0.50000000  1
  S  S0  1  0.50000000  0.77932200  0.15633600  1
  S  S1  1  0.00000000  0.27863200  0.15936200  1
  S  S2  1  0.50000000  0.22067800  0.84366400  1
  S  S3  1  0.00000000  0.72136800  0.84063800  1
loop_
_geom_bond_atom_site_label_1
_geom_bond_atom_site_label_2
_geom_bond_distance
_geom_bond_site_symmetry_2
Nb0 S3 2.534611 1_555
Nb0 S3 2.534611 1_655
Nb0 S2 2.585661 1_555
Nb1 S3 2.528520 1_545
Nb1 S2 2.579988 1_455
Nb1 S2 2.579988 1_555
Nb2 S1 2.534611 1_555
Nb2 S1 2.534611 1_655
Nb2 S0 2.585661 1_555
Nb3 S1 2.528520 1_565
Nb3 S0 2.579988 1_455
Nb3 S0 2.579988 1_555
Co0 S1 2.314230 1_555
Co0 S3 2.314230 1_544
Co0 S2 2.328848 1_454
Co0 S2 2.328848 1_554
Co0 S0 2.328848 1_445
Co0 S0 2.328848 1_545
C0 Nb0 2.259288 1_555
C0 Nb0 2.259288 1_455
C0 Nb2 2.259288 1_555
C0 Nb2 2.259288 1_455
C0 Nb3 2.261241 1_555
C0 Nb1 2.261241 1_555
C1 Nb0 2.211867 1_545
C1 Nb2 2.211867 1_555
C1 Nb1 2.228879 1_655
C1 Nb1 2.228879 1_555
C1 Nb3 2.228879 1_645
C1 Nb3 2.228879 1_545
