# generated using pymatgen
data_Sr2AlCrCu2O7
_symmetry_space_group_name_H-M   'P 1'
_cell_length_a   12.10403773
_cell_length_b   12.10403773
_cell_length_c   5.38426280
_cell_angle_alpha   77.30273080
_cell_angle_beta   77.30273080
_cell_angle_gamma   143.13871251
_symmetry_Int_Tables_number   1
_chemical_formula_structural   Sr2AlCrCu2O7
_chemical_formula_sum   'Sr4 Al2 Cr2 Cu4 O14'
_cell_volume   340.13763338
_cell_formula_units_Z   2
loop_
 _symmetry_equiv_pos_site_id
 _symmetry_equiv_pos_as_xyz
  1  'x, y, z'
loop_
 _atom_site_type_symbol
 _atom_site_label
 _atom_site_symmetry_multiplicity
 _atom_site_fract_x
 _atom_site_fract_y
 _atom_site_fract_z
 _atom_site_occupancy
  Sr  Sr0  1  0.66146900  0.87218700  0.97280500  1
  Sr  Sr1  1  0.33801500  0.12863700  0.00786300  1
  Sr  Sr2  1  0.12863700  0.33801500  0.00786300  1
  Sr  Sr3  1  0.87218700  0.66146900  0.97280500  1
  Al  Al0  1  0.00216400  0.50297400  0.98679500  1
  Al  Al1  1  0.50297400  0.00216400  0.98679500  1
  Cr  Cr0  1  0.30959300  0.30959300  0.46660300  1
  Cr  Cr1  1  0.67681200  0.67681200  0.60328300  1
  Cu  Cu0  1  0.55475700  0.94384900  0.48759500  1
  Cu  Cu1  1  0.44653300  0.06114300  0.48259900  1
  Cu  Cu2  1  0.06114300  0.44653300  0.48259900  1
  Cu  Cu3  1  0.94384900  0.55475700  0.48759500  1
  O  O0  1  0.63735600  0.63735600  0.98162200  1
  O  O1  1  0.36460100  0.36460100  0.78845400  1
  O  O2  1  0.73106100  0.12418600  0.63117500  1
  O  O3  1  0.26925000  0.87671500  0.98398500  1
  O  O4  1  0.87671500  0.26925000  0.98398500  1
  O  O5  1  0.12418600  0.73106100  0.63117500  1
  O  O6  1  0.38388200  0.77349400  0.33257400  1
  O  O7  1  0.61929700  0.23167900  0.98530400  1
  O  O8  1  0.23167900  0.61929700  0.98530400  1
  O  O9  1  0.77349400  0.38388200  0.33257400  1
  O  O10  1  0.13135500  0.28272800  0.51498700  1
  O  O11  1  0.86703800  0.72629900  0.41279500  1
  O  O12  1  0.72629900  0.86703800  0.41279500  1
  O  O13  1  0.28272800  0.13135500  0.51498700  1
loop_
_geom_bond_atom_site_label_1
_geom_bond_atom_site_label_2
_geom_bond_distance
_geom_bond_site_symmetry_2
Al0 O9 1.837254 1_456
Al0 O5 1.837862 1_555
Al0 O8 1.851022 1_555
Al0 O4 1.861241 1_455
Al1 O6 1.837254 1_546
Al1 O2 1.837862 1_555
Al1 O7 1.851022 1_555
Al1 O3 1.861241 1_545
Cr0 O10 1.849620 1_555
Cr0 O13 1.849620 1_555
Cr0 O0 2.000851 1_554
Cr0 O1 2.048104 1_555
Cr1 O11 1.788046 1_555
Cr1 O12 1.788046 1_555
Cr1 O0 1.839982 1_555
Cr1 O1 1.841538 1_555
Cu0 O6 1.979226 1_555
Cu0 O2 1.982284 1_565
Cu0 O8 2.022167 1_555
Cu0 O4 2.037405 1_564
Cu1 O7 2.001215 1_554
Cu1 O3 2.003688 1_545
Cu1 O9 2.010925 1_555
Cu1 O5 2.025885 1_545
Cu1 O13 2.700595 1_555
Cu2 O8 2.001215 1_554
Cu2 O4 2.003688 1_455
Cu2 O6 2.010925 1_555
Cu2 O2 2.025885 1_455
Cu2 O10 2.700595 1_555
Cu3 O9 1.979226 1_555
Cu3 O5 1.982284 1_655
Cu3 O7 2.022167 1_555
Cu3 O3 2.037405 1_654
O0 Sr0 2.602649 1_555
O0 Sr3 2.602649 1_555
O1 Sr2 2.556459 1_556
O1 Sr1 2.556459 1_556
O2 Sr0 2.477468 1_545
O3 Sr1 2.483037 1_566
O4 Sr2 2.483037 1_656
O5 Sr3 2.477468 1_455
O6 Sr0 2.483428 1_554
O7 Sr1 2.473584 1_556
O8 Sr2 2.473584 1_556
O9 Sr3 2.483428 1_554
O10 Sr0 2.518794 1_445
O10 Sr2 2.678795 1_555
O10 Sr2 2.875579 1_556
O10 Sr0 3.154616 1_554
O11 Sr1 2.532243 1_665
O11 Sr3 2.657531 1_554
O12 Sr2 2.532243 1_665
O12 Sr0 2.657531 1_554
O13 Sr3 2.518794 1_445
O13 Sr1 2.678795 1_555
O13 Sr1 2.875579 1_556
O13 Sr3 3.154616 1_554
