# generated using pymatgen
data_YMg2Mo3S8
_symmetry_space_group_name_H-M   'P 1'
_cell_length_a   7.50358109
_cell_length_b   7.50344623
_cell_length_c   7.50362244
_cell_angle_alpha   60.72646499
_cell_angle_beta   60.72507967
_cell_angle_gamma   60.72737618
_symmetry_Int_Tables_number   1
_chemical_formula_structural   YMg2Mo3S8
_chemical_formula_sum   'Y1 Mg2 Mo3 S8'
_cell_volume   303.63072780
_cell_formula_units_Z   1
loop_
 _symmetry_equiv_pos_site_id
 _symmetry_equiv_pos_as_xyz
  1  'x, y, z'
loop_
 _atom_site_type_symbol
 _atom_site_label
 _atom_site_symmetry_multiplicity
 _atom_site_fract_x
 _atom_site_fract_y
 _atom_site_fract_z
 _atom_site_occupancy
  Y  Y0  1  0.50000200  0.50001600  0.49997900  1
  Mg  Mg0  1  0.87637000  0.87637900  0.87637500  1
  Mg  Mg1  1  0.12363100  0.12362300  0.12362500  1
  Mo  Mo0  1  0.50000000  0.49999300  0.00000300  1
  Mo  Mo1  1  0.00000000  0.49999400  0.50000700  1
  Mo  Mo2  1  0.50000100  0.99999800  0.50000600  1
  S  S0  1  0.73830600  0.73830400  0.73831100  1
  S  S1  1  0.24685200  0.24686100  0.72609500  1
  S  S2  1  0.24685200  0.72609300  0.24685400  1
  S  S3  1  0.72609600  0.24685600  0.24684800  1
  S  S4  1  0.75313600  0.27390900  0.75313700  1
  S  S5  1  0.27390600  0.75313800  0.75315300  1
  S  S6  1  0.26169200  0.26168600  0.26170300  1
  S  S7  1  0.75316100  0.75314500  0.27390500  1
loop_
_geom_bond_atom_site_label_1
_geom_bond_atom_site_label_2
_geom_bond_distance
_geom_bond_site_symmetry_2
Mg0 S4 2.459461 1_565
Mg0 S7 2.459477 1_556
Mg0 S5 2.459517 1_655
Mg0 S0 2.523647 1_555
Mg1 S2 2.459467 1_545
Mg1 S1 2.459473 1_554
Mg1 S3 2.459512 1_455
Mg1 S6 2.523641 1_555
Mo0 S4 2.529417 1_554
Mo0 S2 2.529424 1_555
Mo0 S3 2.529441 1_555
Mo0 S5 2.529461 1_554
Mo0 S6 2.551433 1_555
Mo0 S0 2.551438 1_554
Mo1 S4 2.529367 1_455
Mo1 S2 2.529385 1_555
Mo1 S1 2.529437 1_555
Mo1 S7 2.529447 1_455
Mo1 S6 2.551455 1_555
Mo1 S0 2.551466 1_455
Mo2 S3 2.529399 1_565
Mo2 S5 2.529404 1_555
Mo2 S1 2.529433 1_565
Mo2 S7 2.529446 1_555
Mo2 S0 2.551520 1_555
Mo2 S6 2.551526 1_565
S1 Y0 2.705532 1_555
S2 Y0 2.705507 1_555
S3 Y0 2.705508 1_555
S4 Y0 2.705588 1_555
S5 Y0 2.705535 1_555
S7 Y0 2.705457 1_555
