# generated using pymatgen
data_Mg16PaAl12
_symmetry_space_group_name_H-M   'P 1'
_cell_length_a   9.27680280
_cell_length_b   9.27680280
_cell_length_c   9.27680229
_cell_angle_alpha   110.51114988
_cell_angle_beta   110.51114988
_cell_angle_gamma   110.51114813
_symmetry_Int_Tables_number   1
_chemical_formula_structural   Mg16PaAl12
_chemical_formula_sum   'Mg16 Pa1 Al12'
_cell_volume   589.72545705
_cell_formula_units_Z   1
loop_
 _symmetry_equiv_pos_site_id
 _symmetry_equiv_pos_as_xyz
  1  'x, y, z'
loop_
 _atom_site_type_symbol
 _atom_site_label
 _atom_site_symmetry_multiplicity
 _atom_site_fract_x
 _atom_site_fract_y
 _atom_site_fract_z
 _atom_site_occupancy
  Mg  Mg0  1  0.99823100  0.99823100  0.99823100  1
  Mg  Mg1  1  0.31663200  0.31663200  0.71963700  1
  Mg  Mg2  1  0.99680300  0.99680300  0.65485100  1
  Mg  Mg3  1  0.60956200  0.60956200  0.27520600  1
  Mg  Mg4  1  0.69075900  0.39162000  0.00245800  1
  Mg  Mg5  1  0.00245800  0.69075900  0.39162000  1
  Mg  Mg6  1  0.60956200  0.27520600  0.60956200  1
  Mg  Mg7  1  0.99680300  0.65485100  0.99680300  1
  Mg  Mg8  1  0.39162000  0.00245800  0.69075900  1
  Mg  Mg9  1  0.71963700  0.31663200  0.31663200  1
  Mg  Mg10  1  0.31663200  0.71963700  0.31663200  1
  Mg  Mg11  1  0.00245800  0.39162000  0.69075900  1
  Mg  Mg12  1  0.65485100  0.99680300  0.99680300  1
  Mg  Mg13  1  0.27520600  0.60956200  0.60956200  1
  Mg  Mg14  1  0.69075900  0.00245800  0.39162000  1
  Mg  Mg15  1  0.39162000  0.69075900  0.00245800  1
  Pa  Pa0  1  0.37228800  0.37228800  0.37228800  1
  Al  Al0  1  0.62686100  0.62686100  0.80719400  1
  Al  Al1  1  0.80928400  0.80928400  0.17079300  1
  Al  Al2  1  0.36497700  0.18688400  0.00506700  1
  Al  Al3  1  0.80719400  0.62686100  0.62686100  1
  Al  Al4  1  0.18688400  0.00506700  0.36497700  1
  Al  Al5  1  0.36497700  0.00506700  0.18688400  1
  Al  Al6  1  0.17079300  0.80928400  0.80928400  1
  Al  Al7  1  0.80928400  0.17079300  0.80928400  1
  Al  Al8  1  0.00506700  0.36497700  0.18688400  1
  Al  Al9  1  0.00506700  0.18688400  0.36497700  1
  Al  Al10  1  0.62686100  0.80719400  0.62686100  1
  Al  Al11  1  0.18688400  0.36497700  0.00506700  1
loop_
_geom_bond_atom_site_label_1
_geom_bond_atom_site_label_2
_geom_bond_distance
_geom_bond_site_symmetry_2
Mg0 Mg2 3.176207 1_555
Mg0 Mg12 3.176207 1_555
Mg0 Mg7 3.176207 1_555
Mg0 Pa0 3.287703 1_666
Mg1 Mg2 3.049436 1_445
Mg1 Mg8 3.170874 1_555
Mg1 Mg11 3.170874 1_555
Mg1 Mg4 3.171923 1_556
Mg1 Mg15 3.171923 1_556
Mg1 Mg13 3.313067 1_555
Mg1 Mg6 3.313067 1_555
Mg1 Pa0 3.614035 1_555
Mg2 Mg5 3.059749 1_655
Mg2 Mg3 3.381988 1_555
Mg3 Mg5 3.125050 1_655
Mg3 Mg4 3.142460 1_555
Mg3 Pa0 3.143928 1_555
Mg3 Mg9 3.313067 1_555
Mg4 Mg5 3.022589 1_655
Mg4 Mg8 3.022589 1_554
Mg4 Mg7 3.059749 1_554
Mg4 Mg6 3.125049 1_554
Mg4 Mg9 3.170874 1_555
Mg5 Mg8 3.022589 1_565
Mg5 Mg9 3.171923 1_455
Mg6 Mg8 3.142460 1_555
Mg6 Pa0 3.143928 1_555
Mg6 Mg9 3.313067 1_555
Mg6 Mg7 3.381988 1_555
Mg9 Pa0 3.614036 1_555
Mg10 Mg7 3.049436 1_454
Mg10 Mg15 3.170874 1_555
Mg10 Mg5 3.170874 1_555
Mg10 Mg8 3.171922 1_565
Mg10 Mg14 3.171923 1_565
Mg10 Mg13 3.313067 1_555
Mg10 Mg3 3.313067 1_555
Mg10 Pa0 3.614036 1_555
Mg11 Mg15 3.022589 1_556
Mg11 Mg14 3.022589 1_455
Mg11 Mg7 3.059749 1_455
Mg11 Mg6 3.125050 1_455
Mg11 Mg13 3.142460 1_555
Mg11 Mg9 3.171922 1_455
Mg12 Mg9 3.049436 1_566
Mg12 Mg8 3.059749 1_565
Mg12 Mg15 3.059749 1_556
Mg12 Mg13 3.381988 1_555
Mg13 Mg15 3.125049 1_556
Mg13 Mg8 3.125050 1_565
Mg13 Mg5 3.142460 1_555
Mg13 Pa0 3.143928 1_555
Mg14 Mg15 3.022589 1_545
Mg14 Mg2 3.059749 1_545
Mg14 Mg3 3.125050 1_545
Mg14 Mg6 3.142460 1_555
Mg14 Mg9 3.170874 1_555
Mg15 Mg3 3.142460 1_555
Al0 Al1 2.664174 1_556
Al0 Al10 2.749274 1_555
Al0 Al3 2.749274 1_555
Al0 Mg1 2.853816 1_555
Al0 Mg6 3.043824 1_555
Al0 Mg13 3.043824 1_555
Al0 Mg12 3.124794 1_555
Al0 Mg7 3.124794 1_555
Al0 Mg0 3.162885 1_555
Al0 Pa0 3.188959 1_555
Al1 Al9 2.764225 1_665
Al1 Al4 2.764225 1_665
Al1 Mg3 2.813091 1_555
Al1 Mg14 3.000611 1_565
Al1 Mg5 3.000611 1_655
Al1 Mg7 3.126895 1_554
Al1 Mg12 3.126895 1_554
Al1 Mg4 3.198615 1_555
Al1 Mg15 3.198615 1_555
Al1 Mg0 3.238375 1_554
Al2 Al6 2.764225 1_544
Al2 Al5 2.771899 1_555
Al2 Mg9 2.958105 1_555
Al2 Mg8 2.965710 1_554
Al2 Mg4 2.966924 1_555
Al2 Mg2 3.052651 1_444
Al2 Mg3 3.114139 1_555
Al2 Pa0 3.196609 1_555
Al2 Mg0 3.200071 1_444
Al2 Mg1 3.231209 1_554
Al3 Al6 2.664174 1_655
Al3 Mg9 2.853815 1_555
Al3 Mg3 3.043824 1_555
Al3 Mg6 3.043824 1_555
Al3 Mg7 3.124794 1_555
Al3 Mg2 3.124795 1_555
Al3 Mg0 3.162885 1_555
Al3 Pa0 3.188959 1_555
Al4 Al5 2.715124 1_555
Al4 Al9 2.771899 1_555
Al4 Mg1 2.958105 1_555
Al4 Mg5 2.965710 1_545
Al4 Mg8 2.966924 1_555
Al4 Mg7 3.052651 1_444
Al4 Mg6 3.114139 1_555
Al4 Pa0 3.196609 1_555
Al4 Mg0 3.200071 1_444
Al4 Mg10 3.231209 1_545
Al5 Al6 2.764225 1_544
Al5 Mg9 2.958105 1_555
Al5 Mg15 2.965710 1_545
Al5 Mg14 2.966924 1_555
Al5 Mg7 3.052651 1_444
Al5 Mg6 3.114139 1_555
Al5 Pa0 3.196609 1_555
Al5 Mg0 3.200071 1_444
Al5 Mg10 3.231209 1_545
Al6 Mg13 2.813091 1_555
Al6 Mg15 3.000611 1_556
Al6 Mg8 3.000611 1_565
Al6 Mg7 3.126895 1_455
Al6 Mg2 3.126895 1_455
Al6 Mg5 3.198615 1_555
Al6 Mg11 3.198615 1_555
Al6 Mg0 3.238375 1_455
Al7 Al8 2.764225 1_656
Al7 Mg6 2.813091 1_555
Al7 Mg4 3.000611 1_556
Al7 Mg11 3.000611 1_655
Al7 Mg12 3.126895 1_545
Al7 Mg2 3.126895 1_545
Al7 Mg14 3.198615 1_555
Al7 Mg8 3.198615 1_555
Al7 Mg0 3.238375 1_545
Al8 Al9 2.715124 1_555
Al8 Mg10 2.958105 1_555
Al8 Mg4 2.965710 1_455
Al8 Mg5 2.966924 1_555
Al8 Mg12 3.052651 1_444
Al8 Mg13 3.114139 1_555
Al8 Pa0 3.196609 1_555
Al8 Mg0 3.200071 1_444
Al8 Mg9 3.231209 1_455
Al9 Mg1 2.958105 1_555
Al9 Mg14 2.965710 1_455
Al9 Mg11 2.966924 1_555
Al9 Mg12 3.052651 1_444
Al9 Mg13 3.114139 1_555
Al9 Pa0 3.196609 1_555
Al9 Mg0 3.200071 1_444
Al9 Mg9 3.231209 1_455
Al10 Al7 2.664174 1_565
Al10 Al3 2.749274 1_555
Al10 Mg10 2.853815 1_555
Al10 Mg3 3.043824 1_555
Al10 Mg13 3.043824 1_555
Al10 Mg12 3.124794 1_555
Al10 Mg2 3.124795 1_555
Al10 Mg0 3.162885 1_555
Al10 Pa0 3.188959 1_555
Al11 Al2 2.715124 1_555
Al11 Al7 2.764225 1_454
Al11 Al8 2.771899 1_555
Al11 Mg10 2.958105 1_555
Al11 Mg11 2.965710 1_554
Al11 Mg15 2.966924 1_555
Al11 Mg2 3.052651 1_444
Al11 Mg3 3.114139 1_555
Al11 Pa0 3.196609 1_555
Al11 Mg0 3.200071 1_444
Al11 Mg1 3.231209 1_554
