# generated using pymatgen
data_Ba4MgMn4(P2O7)4
_symmetry_space_group_name_H-M   'P 1'
_cell_length_a   5.67787013
_cell_length_b   8.93495947
_cell_length_c   13.90365659
_cell_angle_alpha   87.34886304
_cell_angle_beta   85.07513520
_cell_angle_gamma   89.07269488
_symmetry_Int_Tables_number   1
_chemical_formula_structural   Ba4MgMn4(P2O7)4
_chemical_formula_sum   'Ba4 Mg1 Mn4 P8 O28'
_cell_volume   701.94481021
_cell_formula_units_Z   1
loop_
 _symmetry_equiv_pos_site_id
 _symmetry_equiv_pos_as_xyz
  1  'x, y, z'
loop_
 _atom_site_type_symbol
 _atom_site_label
 _atom_site_symmetry_multiplicity
 _atom_site_fract_x
 _atom_site_fract_y
 _atom_site_fract_z
 _atom_site_occupancy
  Ba  Ba0  1  0.83706426  0.38555382  0.24374840  1
  Ba  Ba1  1  0.78983971  0.88164690  0.30836005  1
  Ba  Ba2  1  0.20519497  0.63972538  0.74983227  1
  Ba  Ba3  1  0.26386616  0.13649398  0.71938879  1
  Mg  Mg0  1  0.36307430  0.71635057  0.15582411  1
  Mn  Mn0  1  0.71844397  0.84898886  0.61701046  1
  Mn  Mn1  1  0.35834535  0.18293439  0.40435685  1
  Mn  Mn2  1  0.80135384  0.30627772  0.88905178  1
  Mn  Mn3  1  0.08218623  0.60376819  0.03079081  1
  P  P0  1  0.26333572  0.26241840  0.00812832  1
  P  P1  1  0.24676235  0.82565045  0.48972811  1
  P  P2  1  0.63702805  0.66714759  0.95187678  1
  P  P3  1  0.82760808  0.20549989  0.52659767  1
  P  P4  1  0.28123027  0.57683542  0.35496834  1
  P  P5  1  0.71502062  0.93402643  0.81752559  1
  P  P6  1  0.73996688  0.44236004  0.67015540  1
  P  P7  1  0.31248051  0.08189730  0.19204342  1
  O  O0  1  0.32477091  0.65805795  0.45444373  1
  O  O1  1  0.30328271  0.11286004  0.07690955  1
  O  O2  1  0.78543214  0.37574980  0.56306208  1
  O  O3  1  0.70997330  0.84039410  0.91978337  1
  O  O4  1  0.49252971  0.62349347  0.28152001  1
  O  O5  1  0.06206713  0.10718128  0.24000846  1
  O  O6  1  0.48842556  0.40224955  0.70890553  1
  O  O7  1  0.94854514  0.89939694  0.75690457  1
  O  O8  1  0.09254527  0.36585769  0.06802675  1
  O  O9  1  0.36996411  0.93856317  0.41564308  1
  O  O10  1  0.84248794  0.56862971  0.90589431  1
  O  O11  1  0.68596921  0.09808198  0.59842482  1
  O  O12  1  0.64934637  0.66172310  0.06185531  1
  O  O13  1  0.73160766  0.21018889  0.42579933  1
  O  O14  1  0.14350643  0.21568842  0.91872528  1
  O  O15  1  0.34732433  0.82687310  0.58846781  1
  O  O16  1  0.51163441  0.87890051  0.76172582  1
  O  O17  1  0.92575596  0.37115252  0.73477394  1
  O  O18  1  0.48599523  0.18292393  0.23820194  1
  O  O19  1  0.04487149  0.63246598  0.32187274  1
  O  O20  1  0.77907272  0.61157296  0.65523637  1
  O  O21  1  0.68351488  0.09852986  0.83949187  1
  O  O22  1  0.39509689  0.63740382  0.91739733  1
  O  O23  1  0.40175911  0.91960851  0.19980252  1
  O  O24  1  0.97628763  0.83973668  0.49487816  1
  O  O25  1  0.50919418  0.32619228  0.98517114  1
  O  O26  1  0.09512959  0.17606666  0.52454968  1
  O  O27  1  0.28301369  0.40859681  0.37640236  1
loop_
_geom_bond_atom_site_label_1
_geom_bond_atom_site_label_2
_geom_bond_distance
_geom_bond_site_symmetry_2
Ba0 O18 2.722734 1_555
Ba0 O8 2.743589 1_655
Ba0 O5 2.778293 1_655
Ba0 O19 2.822255 1_655
Ba0 O4 2.900806 1_555
Ba0 O13 2.936617 1_555
Ba0 O27 3.272490 1_655
Ba1 O19 2.644376 1_655
Ba1 O5 2.650374 1_665
Ba1 O9 2.754521 1_555
Ba1 O23 2.783513 1_555
Ba1 O24 2.890456 1_555
Ba1 O4 2.936508 1_555
Ba2 O22 2.648955 1_555
Ba2 O6 2.693743 1_555
Ba2 O7 2.720911 1_455
Ba2 O16 2.797137 1_555
Ba2 O15 2.804754 1_555
Ba2 O20 2.871166 1_455
Ba2 O10 2.915550 1_455
Ba2 O17 2.923430 1_455
Ba3 O6 2.705422 1_555
Ba3 O16 2.744982 1_545
Ba3 O7 2.797405 1_445
Ba3 O17 2.822744 1_455
Ba3 O11 2.832842 1_555
Ba3 O14 2.913680 1_555
Ba3 O26 2.954235 1_555
Ba3 O21 3.030750 1_555
Mg0 O23 1.964448 1_555
Mg0 O12 2.062976 1_555
Mg0 O4 2.085554 1_555
Mg0 Mn3 2.695783 1_555
Mn0 O24 2.148455 1_555
Mn0 O15 2.191120 1_555
Mn0 O20 2.191888 1_555
Mn0 O11 2.235157 1_565
Mn0 O16 2.265529 1_555
Mn0 O7 2.495864 1_555
Mn1 O27 2.080276 1_555
Mn1 O26 2.143506 1_555
Mn1 O9 2.182163 1_545
Mn1 O13 2.184415 1_555
Mn1 O18 2.361076 1_555
Mn2 O25 2.049689 1_555
Mn2 O21 2.146089 1_555
Mn2 O14 2.157606 1_655
Mn2 O17 2.252584 1_555
Mn2 O10 2.383716 1_555
Mn3 O8 2.165537 1_555
Mn3 O22 2.285824 1_554
Mn3 O10 2.331603 1_454
Mn3 O12 2.508341 1_455
O0 P4 1.630350 1_555
O0 P1 1.639615 1_555
O1 P7 1.616998 1_555
O1 P0 1.631220 1_555
O2 P6 1.627560 1_555
O2 P3 1.633116 1_555
O3 P5 1.614268 1_555
O3 P2 1.640708 1_555
O4 P4 1.556421 1_555
O5 P7 1.535601 1_555
O6 P6 1.524830 1_555
O7 P5 1.543752 1_555
O8 P0 1.546500 1_555
O9 P1 1.539855 1_555
O10 P2 1.560527 1_555
O11 P3 1.537419 1_555
O12 P2 1.535186 1_554
O13 P3 1.545303 1_555
O14 P0 1.544274 1_556
O15 P1 1.531995 1_555
O16 P5 1.544556 1_555
O17 P6 1.553347 1_555
O18 P7 1.545389 1_555
O19 P4 1.524167 1_555
O20 P6 1.533671 1_555
O21 P5 1.519644 1_545
O22 P2 1.524479 1_555
O23 P7 1.530474 1_565
O24 P1 1.534634 1_655
O25 P0 1.519103 1_556
O26 P3 1.535423 1_455
O27 P4 1.518922 1_555
