# generated using pymatgen
data_LuMn4(CuO4)3
_symmetry_space_group_name_H-M   'P 1'
_cell_length_a   6.38408986
_cell_length_b   6.38408986
_cell_length_c   6.38408986
_cell_angle_alpha   109.47122063
_cell_angle_beta   109.47122063
_cell_angle_gamma   109.47122063
_symmetry_Int_Tables_number   1
_chemical_formula_structural   LuMn4(CuO4)3
_chemical_formula_sum   'Lu1 Mn4 Cu3 O12'
_cell_volume   200.29729470
_cell_formula_units_Z   1
loop_
 _symmetry_equiv_pos_site_id
 _symmetry_equiv_pos_as_xyz
  1  'x, y, z'
loop_
 _atom_site_type_symbol
 _atom_site_label
 _atom_site_symmetry_multiplicity
 _atom_site_fract_x
 _atom_site_fract_y
 _atom_site_fract_z
 _atom_site_occupancy
  Lu  Lu0  1  0.00000000  0.00000000  0.00000000  1
  Mn  Mn0  1  0.00000000  0.00000000  0.50000000  1
  Mn  Mn1  1  0.50000000  0.00000000  0.00000000  1
  Mn  Mn2  1  0.00000000  0.50000000  0.00000000  1
  Mn  Mn3  1  0.50000000  0.50000000  0.50000000  1
  Cu  Cu0  1  0.50000000  0.00000000  0.50000000  1
  Cu  Cu1  1  0.00000000  0.50000000  0.50000000  1
  Cu  Cu2  1  0.50000000  0.50000000  0.00000000  1
  O  O0  1  0.17223200  0.87549700  0.70326500  1
  O  O1  1  0.82776800  0.12450300  0.29673500  1
  O  O2  1  0.82776800  0.53103300  0.70326500  1
  O  O3  1  0.17223200  0.46896700  0.29673500  1
  O  O4  1  0.87549700  0.70326500  0.17223200  1
  O  O5  1  0.12450300  0.29673500  0.82776800  1
  O  O6  1  0.53103300  0.70326500  0.82776800  1
  O  O7  1  0.46896700  0.29673500  0.17223200  1
  O  O8  1  0.70326500  0.17223200  0.87549700  1
  O  O9  1  0.29673500  0.82776800  0.12450300  1
  O  O10  1  0.70326500  0.82776800  0.53103300  1
  O  O11  1  0.29673500  0.17223200  0.46896700  1
loop_
_geom_bond_atom_site_label_1
_geom_bond_atom_site_label_2
_geom_bond_distance
_geom_bond_site_symmetry_2
Lu0 O8 2.529212 1_454
Lu0 O7 2.529212 1_555
Lu0 O0 2.529212 1_544
Lu0 O4 2.529212 1_445
Lu0 O6 2.529212 1_444
Lu0 O10 2.529212 1_444
Lu0 O11 2.529212 1_555
Lu0 O2 2.529212 1_444
Lu0 O3 2.529212 1_555
Lu0 O1 2.529212 1_455
Lu0 O9 2.529212 1_545
Lu0 O5 2.529212 1_554
Mn0 O4 1.960543 1_445
Mn0 O5 1.960543 1_555
Mn0 O11 1.960543 1_555
Mn0 O10 1.960543 1_445
Mn0 O1 1.960543 1_455
Mn0 O0 1.960543 1_545
Mn1 O0 1.960543 1_544
Mn1 O1 1.960543 1_555
Mn1 O9 1.960543 1_545
Mn1 O6 1.960543 1_544
Mn1 O7 1.960543 1_555
Mn1 O8 1.960543 1_554
Mn2 O8 1.960543 1_454
Mn2 O3 1.960543 1_555
Mn2 O9 1.960543 1_555
Mn2 O5 1.960543 1_554
Mn2 O2 1.960543 1_454
Mn2 O4 1.960543 1_455
Mn3 O6 1.960543 1_555
Mn3 O10 1.960543 1_555
Mn3 O2 1.960543 1_555
Mn3 O11 1.960543 1_555
Mn3 O7 1.960543 1_555
Mn3 O3 1.960543 1_555
Cu0 O11 1.963984 1_555
Cu0 O9 1.963984 1_545
Cu0 O8 1.963984 1_555
Cu0 O10 1.963984 1_545
Cu1 O0 1.963984 1_555
Cu1 O1 1.963984 1_455
Cu1 O3 1.963984 1_555
Cu1 O2 1.963984 1_455
Cu2 O4 1.963984 1_555
Cu2 O5 1.963984 1_554
Cu2 O7 1.963984 1_555
Cu2 O6 1.963984 1_554
