# generated using pymatgen
data_SrCuH3ClO3
_symmetry_space_group_name_H-M   'P 1'
_cell_length_a   6.61131600
_cell_length_b   6.63563500
_cell_length_c   16.10854300
_cell_angle_alpha   90.00000000
_cell_angle_beta   90.00000000
_cell_angle_gamma   90.00000000
_symmetry_Int_Tables_number   1
_chemical_formula_structural   SrCuH3ClO3
_chemical_formula_sum   'Sr6 Cu6 H18 Cl6 O18'
_cell_volume   706.68628932
_cell_formula_units_Z   6
loop_
 _symmetry_equiv_pos_site_id
 _symmetry_equiv_pos_as_xyz
  1  'x, y, z'
loop_
 _atom_site_type_symbol
 _atom_site_label
 _atom_site_symmetry_multiplicity
 _atom_site_fract_x
 _atom_site_fract_y
 _atom_site_fract_z
 _atom_site_occupancy
  Sr  Sr0  1  0.91328200  0.66719500  0.00000000  1
  Sr  Sr1  1  0.41328200  0.33280500  0.50000000  1
  Sr  Sr2  1  0.55878600  0.93263400  0.16982300  1
  Sr  Sr3  1  0.55878600  0.93263400  0.83017700  1
  Sr  Sr4  1  0.05878600  0.06736600  0.33017700  1
  Sr  Sr5  1  0.05878600  0.06736600  0.66982300  1
  Cu  Cu0  1  0.40983600  0.52740900  0.00000000  1
  Cu  Cu1  1  0.90983600  0.47259100  0.50000000  1
  Cu  Cu2  1  0.08076500  0.20689600  0.10110100  1
  Cu  Cu3  1  0.08076500  0.20689600  0.89889900  1
  Cu  Cu4  1  0.58076500  0.79310400  0.39889900  1
  Cu  Cu5  1  0.58076500  0.79310400  0.60110100  1
  H  H0  1  0.23173500  0.54204600  0.13773300  1
  H  H1  1  0.23173500  0.54204600  0.86226700  1
  H  H2  1  0.73173500  0.45795400  0.36226700  1
  H  H3  1  0.73173500  0.45795400  0.63773300  1
  H  H4  1  0.80273000  0.17965800  0.00000000  1
  H  H5  1  0.30273000  0.82034200  0.50000000  1
  H  H6  1  0.31263300  0.29364600  0.21116100  1
  H  H7  1  0.31263300  0.29364600  0.78883900  1
  H  H8  1  0.81263300  0.70635400  0.28883900  1
  H  H9  1  0.81263300  0.70635400  0.71116100  1
  H  H10  1  0.61720900  0.50104500  0.12727600  1
  H  H11  1  0.61720900  0.50104500  0.87272400  1
  H  H12  1  0.11720900  0.49895500  0.37272400  1
  H  H13  1  0.11720900  0.49895500  0.62727600  1
  H  H14  1  0.00534100  0.87759700  0.16017300  1
  H  H15  1  0.00534100  0.87759700  0.83982700  1
  H  H16  1  0.50534100  0.12240300  0.33982700  1
  H  H17  1  0.50534100  0.12240300  0.66017300  1
  Cl  Cl0  1  0.47660400  0.07554400  0.00000000  1
  Cl  Cl1  1  0.97660400  0.92445600  0.50000000  1
  Cl  Cl2  1  0.73485200  0.31649000  0.23910800  1
  Cl  Cl3  1  0.73485200  0.31649000  0.76089200  1
  Cl  Cl4  1  0.23485200  0.68351000  0.26089200  1
  Cl  Cl5  1  0.23485200  0.68351000  0.73910800  1
  O  O0  1  0.19197300  0.48558900  0.08381900  1
  O  O1  1  0.19197300  0.48558900  0.91618100  1
  O  O2  1  0.69197300  0.51441100  0.41618100  1
  O  O3  1  0.69197300  0.51441100  0.58381900  1
  O  O4  1  0.92390600  0.26533300  0.00000000  1
  O  O5  1  0.42390600  0.73466700  0.50000000  1
  O  O6  1  0.25114500  0.16233400  0.19992800  1
  O  O7  1  0.25114500  0.16233400  0.80007200  1
  O  O8  1  0.75114500  0.83766600  0.30007200  1
  O  O9  1  0.75114500  0.83766600  0.69992800  1
  O  O10  1  0.59965800  0.61181700  0.08753200  1
  O  O11  1  0.59965800  0.61181700  0.91246800  1
  O  O12  1  0.09965800  0.38818300  0.41246800  1
  O  O13  1  0.09965800  0.38818300  0.58753200  1
  O  O14  1  0.93748900  0.94671000  0.11413300  1
  O  O15  1  0.93748900  0.94671000  0.88586700  1
  O  O16  1  0.43748900  0.05329000  0.38586700  1
  O  O17  1  0.43748900  0.05329000  0.61413300  1
loop_
_geom_bond_atom_site_label_1
_geom_bond_atom_site_label_2
_geom_bond_distance
_geom_bond_site_symmetry_2
Cu0 O10 1.968961 1_555
Cu0 O11 1.968961 1_554
Cu0 O1 1.993663 1_554
Cu0 O0 1.993663 1_555
Cu1 O12 1.968961 1_655
Cu1 O13 1.968961 1_655
Cu1 O2 1.993663 1_555
Cu1 O3 1.993663 1_555
Cu2 O4 1.969297 1_455
Cu2 O6 1.972468 1_555
Cu2 O14 1.980439 1_445
Cu2 O0 2.009476 1_555
Cu3 O4 1.969297 1_456
Cu3 O7 1.972468 1_555
Cu3 O15 1.980439 1_445
Cu3 O1 2.009476 1_555
Cu4 O5 1.969297 1_555
Cu4 O8 1.972468 1_555
Cu4 O16 1.980439 1_565
Cu4 O2 2.009476 1_555
Cu5 O5 1.969297 1_555
Cu5 O9 1.972468 1_555
Cu5 O17 1.980439 1_565
Cu5 O3 2.009476 1_555
H0 O0 0.981683 1_555
H1 O1 0.981683 1_555
H2 O2 0.981683 1_555
H3 O3 0.981683 1_555
H4 O4 0.982352 1_555
H5 O5 0.982352 1_555
H6 O6 0.978381 1_555
H7 O7 0.978381 1_555
H8 O8 0.978381 1_555
H9 O9 0.978381 1_555
H10 O10 0.981647 1_555
H11 O11 0.981647 1_555
H12 O12 0.981647 1_555
H13 O13 0.981647 1_555
H14 O14 0.980603 1_455
H15 O15 0.980603 1_455
H16 O16 0.980603 1_555
H17 O17 0.980603 1_555
Cl0 Sr3 2.945843 1_544
Cl0 Sr2 2.945843 1_545
Cl1 Sr5 2.945843 1_665
Cl1 Sr4 2.945843 1_665
Cl2 Sr2 3.014707 1_545
Cl2 Sr4 3.077558 1_655
Cl3 Sr3 3.014707 1_545
Cl3 Sr5 3.077558 1_655
Cl4 Sr4 3.014707 1_565
Cl4 Sr2 3.077558 1_555
Cl5 Sr5 3.014707 1_565
Cl5 Sr3 3.077558 1_555
O0 Sr0 2.582654 1_455
O1 Sr0 2.582654 1_456
O2 Sr1 2.582654 1_555
O3 Sr1 2.582654 1_555
O4 Sr0 2.667534 1_555
O5 Sr1 2.667534 1_555
O6 Sr4 2.533095 1_555
O6 Sr2 2.587503 1_545
O7 Sr5 2.533095 1_555
O7 Sr3 2.587503 1_545
O8 Sr2 2.533095 1_555
O8 Sr4 2.587503 1_665
O9 Sr3 2.533095 1_555
O9 Sr5 2.587503 1_665
O10 Sr2 2.522319 1_555
O10 Sr0 2.534253 1_555
O11 Sr3 2.522319 1_555
O11 Sr0 2.534253 1_556
O12 Sr4 2.522319 1_555
O12 Sr1 2.534253 1_555
O13 Sr5 2.522319 1_555
O13 Sr1 2.534253 1_555
O14 Sr0 2.616465 1_555
O14 Sr2 2.661226 1_555
O15 Sr0 2.616465 1_556
O15 Sr3 2.661226 1_555
O16 Sr1 2.616465 1_555
O16 Sr4 2.661226 1_555
O17 Sr1 2.616465 1_555
O17 Sr5 2.661226 1_555
