# generated using pymatgen
data_Ba3Ta3N5
_symmetry_space_group_name_H-M   'P 1'
_cell_length_a   6.05541459
_cell_length_b   8.50245068
_cell_length_c   9.24172648
_cell_angle_alpha   110.55714772
_cell_angle_beta   100.57408191
_cell_angle_gamma   103.17334816
_symmetry_Int_Tables_number   1
_chemical_formula_structural   Ba3Ta3N5
_chemical_formula_sum   'Ba6 Ta6 N10'
_cell_volume   415.27718030
_cell_formula_units_Z   2
loop_
 _symmetry_equiv_pos_site_id
 _symmetry_equiv_pos_as_xyz
  1  'x, y, z'
loop_
 _atom_site_type_symbol
 _atom_site_label
 _atom_site_symmetry_multiplicity
 _atom_site_fract_x
 _atom_site_fract_y
 _atom_site_fract_z
 _atom_site_occupancy
  Ba  Ba0  1  0.75815700  0.43854100  0.60437000  1
  Ba  Ba1  1  0.24184300  0.56145900  0.39563000  1
  Ba  Ba2  1  0.63440900  0.81903800  0.91072900  1
  Ba  Ba3  1  0.36559100  0.18096200  0.08927100  1
  Ba  Ba4  1  0.69782900  0.69388700  0.26175500  1
  Ba  Ba5  1  0.30217100  0.30611300  0.73824500  1
  Ta  Ta0  1  0.89313100  0.30873200  0.96411200  1
  Ta  Ta1  1  0.10686900  0.69126800  0.03588800  1
  Ta  Ta2  1  0.66133900  0.00286400  0.63767500  1
  Ta  Ta3  1  0.33866100  0.99713600  0.36232500  1
  Ta  Ta4  1  0.07874900  0.88018100  0.69882600  1
  Ta  Ta5  1  0.92125100  0.11981900  0.30117400  1
  N  N0  1  0.99563300  0.09832100  0.81737200  1
  N  N1  1  0.00436700  0.90167900  0.18262800  1
  N  N2  1  0.72385900  0.76431700  0.58418100  1
  N  N3  1  0.27614100  0.23568300  0.41581900  1
  N  N4  1  0.77470600  0.50838300  0.94716000  1
  N  N5  1  0.22529400  0.49161700  0.05284000  1
  N  N6  1  0.27269800  0.93005700  0.54637900  1
  N  N7  1  0.72730200  0.06994300  0.45362100  1
  N  N8  1  0.14523500  0.76657500  0.85394500  1
  N  N9  1  0.85476500  0.23342500  0.14605500  1
loop_
_geom_bond_atom_site_label_1
_geom_bond_atom_site_label_2
_geom_bond_distance
_geom_bond_site_symmetry_2
Ba0 N3 2.873803 1_555
Ba0 N2 2.891573 1_555
Ba0 N7 2.892921 1_555
Ba0 N4 2.988967 1_555
Ba0 N8 3.018482 1_655
Ba1 N2 2.873803 1_555
Ba1 N3 2.891573 1_555
Ba1 N6 2.892921 1_555
Ba1 N5 2.988967 1_555
Ba1 N9 3.018482 1_455
Ba2 N1 2.793419 1_656
Ba2 N8 2.812748 1_555
Ba2 N2 3.057141 1_555
Ba2 N4 3.058442 1_555
Ba2 N9 3.214782 1_566
Ba2 N0 3.306298 1_565
Ba2 N8 3.332105 1_655
Ba3 N0 2.793419 1_454
Ba3 N9 2.812748 1_555
Ba3 N3 3.057141 1_555
Ba3 N5 3.058442 1_555
Ba3 N8 3.214782 1_544
Ba3 N1 3.306298 1_545
Ba3 N9 3.332105 1_455
Ba4 N1 2.648096 1_655
Ba4 N2 2.791765 1_555
Ba4 N5 2.875852 1_555
Ba4 N4 2.961138 1_554
Ba4 N7 3.006906 1_565
Ba5 N0 2.648096 1_455
Ba5 N3 2.791765 1_555
Ba5 N4 2.875852 1_555
Ba5 N5 2.961138 1_556
Ba5 N6 3.006906 1_545
N0 Ta4 2.023466 1_645
N0 Ta0 2.129819 1_555
N0 Ta2 2.141305 1_555
N1 Ta5 2.023466 1_465
N1 Ta1 2.129819 1_555
N1 Ta3 2.141305 1_555
N2 Ta4 2.043935 1_655
N2 Ta2 2.053280 1_565
N3 Ta5 2.043935 1_455
N3 Ta3 2.053280 1_545
N4 Ta0 2.029966 1_555
N4 Ta1 2.051741 1_656
N5 Ta1 2.029966 1_555
N5 Ta0 2.051741 1_454
N6 Ta3 2.050605 1_555
N6 Ta4 2.084208 1_555
N6 Ta2 2.207697 1_565
N7 Ta2 2.050605 1_555
N7 Ta5 2.084208 1_555
N7 Ta3 2.207697 1_545
N8 Ta4 2.021910 1_555
N8 Ta1 2.030506 1_556
N9 Ta5 2.021910 1_555
N9 Ta0 2.030506 1_554
