# generated using pymatgen
data_Cu3Pd13S7
_symmetry_space_group_name_H-M   'P 1'
_cell_length_a   7.80607129
_cell_length_b   7.80607129
_cell_length_c   7.80607124
_cell_angle_alpha   109.63004675
_cell_angle_beta   109.63004675
_cell_angle_gamma   109.63004781
_symmetry_Int_Tables_number   1
_chemical_formula_structural   Cu3Pd13S7
_chemical_formula_sum   'Cu3 Pd13 S7'
_cell_volume   363.99489429
_cell_formula_units_Z   1
loop_
 _symmetry_equiv_pos_site_id
 _symmetry_equiv_pos_as_xyz
  1  'x, y, z'
loop_
 _atom_site_type_symbol
 _atom_site_label
 _atom_site_symmetry_multiplicity
 _atom_site_fract_x
 _atom_site_fract_y
 _atom_site_fract_z
 _atom_site_occupancy
  Cu  Cu0  1  0.00064200  0.00064200  0.76875500  1
  Cu  Cu1  1  0.76875500  0.00064200  0.00064200  1
  Cu  Cu2  1  0.00064200  0.76875500  0.00064200  1
  Pd  Pd0  1  0.58581900  0.58581900  0.33903000  1
  Pd  Pd1  1  0.58581900  0.33903000  0.58581900  1
  Pd  Pd2  1  0.33903000  0.58581900  0.58581900  1
  Pd  Pd3  1  0.24181800  0.24181800  0.66092300  1
  Pd  Pd4  1  0.75730800  0.00073800  0.41936400  1
  Pd  Pd5  1  0.00073800  0.75730800  0.41936400  1
  Pd  Pd6  1  0.41936400  0.75730800  0.00073800  1
  Pd  Pd7  1  0.41936400  0.00073800  0.75730800  1
  Pd  Pd8  1  0.66092300  0.24181800  0.24181800  1
  Pd  Pd9  1  0.75730800  0.41936400  0.00073800  1
  Pd  Pd10  1  0.24181800  0.66092300  0.24181800  1
  Pd  Pd11  1  0.00073800  0.41936400  0.75730800  1
  Pd  Pd12  1  0.22355300  0.22355300  0.22355300  1
  S  S0  1  0.50066700  0.00056600  0.50066700  1
  S  S1  1  0.00056600  0.50066700  0.50066700  1
  S  S2  1  0.50066700  0.50066700  0.00056600  1
  S  S3  1  0.69920500  0.69920500  0.69920500  1
  S  S4  1  0.99680400  0.99680400  0.30164800  1
  S  S5  1  0.30164800  0.99680400  0.99680400  1
  S  S6  1  0.99680400  0.30164800  0.99680400  1
loop_
_geom_bond_atom_site_label_1
_geom_bond_atom_site_label_2
_geom_bond_distance
_geom_bond_site_symmetry_2
Cu0 S3 2.435476 1_445
Cu0 S6 2.442048 1_455
Cu0 S5 2.442048 1_545
Cu0 Pd3 2.746865 1_555
Cu0 Pd4 2.751022 1_455
Cu0 Pd5 2.751022 1_545
Cu1 S3 2.435476 1_544
Cu1 S6 2.442048 1_554
Cu1 S4 2.442048 1_545
Cu1 Pd8 2.746865 1_555
Cu1 Pd6 2.751022 1_545
Cu1 Pd7 2.751022 1_554
Cu2 S3 2.435476 1_454
Cu2 S5 2.442048 1_554
Cu2 S4 2.442048 1_455
Cu2 Pd10 2.746865 1_555
Cu2 Pd9 2.751022 1_455
Cu2 Pd11 2.751022 1_554
Pd0 S2 2.281975 1_555
Pd0 S3 2.366698 1_555
Pd1 S0 2.281975 1_555
Pd1 S3 2.366698 1_555
Pd2 S1 2.281975 1_555
Pd2 S3 2.366698 1_555
Pd3 S2 2.291904 1_556
Pd3 S4 2.348547 1_445
Pd4 S0 2.295490 1_555
Pd4 S4 2.348253 1_545
Pd5 S1 2.295490 1_555
Pd5 S4 2.348253 1_455
Pd6 S2 2.295490 1_555
Pd6 S5 2.348253 1_554
Pd7 S0 2.295490 1_555
Pd7 S5 2.348253 1_545
Pd8 S1 2.291904 1_655
Pd8 S5 2.348547 1_544
Pd9 S2 2.295490 1_555
Pd9 S6 2.348253 1_554
Pd10 S0 2.291904 1_565
Pd10 S6 2.348547 1_454
Pd11 S1 2.295490 1_555
Pd11 S6 2.348253 1_455
Pd12 S4 2.445922 1_445
Pd12 S5 2.445922 1_544
Pd12 S6 2.445922 1_454
