# generated using pymatgen
data_Na4W(NO)2
_symmetry_space_group_name_H-M   'P 1'
_cell_length_a   5.91952300
_cell_length_b   5.95370566
_cell_length_c   9.06552200
_cell_angle_alpha   83.35420066
_cell_angle_beta   71.44057718
_cell_angle_gamma   69.73943519
_symmetry_Int_Tables_number   1
_chemical_formula_structural   Na4W(NO)2
_chemical_formula_sum   'Na8 W2 N4 O4'
_cell_volume   284.13584974
_cell_formula_units_Z   2
loop_
 _symmetry_equiv_pos_site_id
 _symmetry_equiv_pos_as_xyz
  1  'x, y, z'
loop_
 _atom_site_type_symbol
 _atom_site_label
 _atom_site_symmetry_multiplicity
 _atom_site_fract_x
 _atom_site_fract_y
 _atom_site_fract_z
 _atom_site_occupancy
  Na  Na0  1  0.24107000  0.76373500  0.98464700  1
  Na  Na1  1  0.75893000  0.23626500  0.01535300  1
  Na  Na2  1  0.05525700  0.75816900  0.40626800  1
  Na  Na3  1  0.94474300  0.24183100  0.59373200  1
  Na  Na4  1  0.47932900  0.74343900  0.55120700  1
  Na  Na5  1  0.52067100  0.25656100  0.44879300  1
  Na  Na6  1  0.61379600  0.72184900  0.18763600  1
  Na  Na7  1  0.38620400  0.27815100  0.81236400  1
  W  W0  1  0.84152200  0.71847800  0.76494200  1
  W  W1  1  0.15847800  0.28152200  0.23505800  1
  N  N0  1  0.29842000  0.03787400  0.35856200  1
  N  N1  1  0.15955400  0.54244400  0.64602300  1
  N  N2  1  0.84044600  0.45755600  0.35397700  1
  N  N3  1  0.70158000  0.96212600  0.64143800  1
  O  O0  1  0.64188900  0.51214900  0.81851800  1
  O  O1  1  0.14932100  0.15856100  0.05258100  1
  O  O2  1  0.35811100  0.48785100  0.18148200  1
  O  O3  1  0.85067900  0.84143900  0.94741900  1
loop_
_geom_bond_atom_site_label_1
_geom_bond_atom_site_label_2
_geom_bond_distance
_geom_bond_site_symmetry_2
Na0 O3 2.321253 1_455
Na0 O1 2.331930 1_566
Na0 O2 2.383796 1_556
Na0 O0 2.434617 1_555
Na1 O1 2.321253 1_655
Na1 O3 2.331930 1_544
Na1 O0 2.383796 1_554
Na1 O2 2.434617 1_555
Na2 O2 2.528242 1_555
Na3 O0 2.528242 1_555
Na4 O0 2.913583 1_555
Na5 O2 2.913583 1_555
Na6 O3 2.367333 1_554
Na6 O2 2.401434 1_555
Na7 O1 2.367333 1_556
Na7 O0 2.401434 1_555
N0 W1 1.851027 1_555
N0 Na6 2.413920 1_545
N0 Na2 2.475732 1_545
N0 Na5 2.492605 1_555
N0 Na3 2.529828 1_455
N0 Na4 2.539990 1_545
N1 W0 1.846039 1_455
N1 Na7 2.413825 1_555
N1 Na4 2.459464 1_555
N1 Na2 2.532543 1_555
N1 Na5 2.532769 1_555
N1 Na3 2.683498 1_455
N2 W1 1.846039 1_655
N2 Na6 2.413825 1_555
N2 Na5 2.459464 1_555
N2 Na3 2.532543 1_555
N2 Na4 2.532769 1_555
N2 Na2 2.683498 1_655
N3 W0 1.851027 1_555
N3 Na7 2.413920 1_565
N3 Na3 2.475732 1_565
N3 Na4 2.492605 1_555
N3 Na2 2.529828 1_655
N3 Na5 2.539990 1_565
O0 W0 1.908753 1_555
O1 W1 1.907953 1_555
O2 W1 1.908753 1_555
O3 W0 1.907953 1_555
