# generated using pymatgen
data_Ac3Zn
_symmetry_space_group_name_H-M   'P 1'
_cell_length_a   6.65528889
_cell_length_b   6.65528889
_cell_length_c   6.65528889
_cell_angle_alpha   134.46611371
_cell_angle_beta   134.46611371
_cell_angle_gamma   66.36087968
_symmetry_Int_Tables_number   1
_chemical_formula_structural   Ac3Zn
_chemical_formula_sum   'Ac3 Zn1'
_cell_volume   147.79035735
_cell_formula_units_Z   1
loop_
 _symmetry_equiv_pos_site_id
 _symmetry_equiv_pos_as_xyz
  1  'x, y, z'
loop_
 _atom_site_type_symbol
 _atom_site_label
 _atom_site_symmetry_multiplicity
 _atom_site_fract_x
 _atom_site_fract_y
 _atom_site_fract_z
 _atom_site_occupancy
  Ac  Ac0  1  0.75000000  0.25000000  0.50000000  1
  Ac  Ac1  1  0.25000000  0.75000000  0.50000000  1
  Ac  Ac2  1  0.50000000  0.50000000  0.00000000  1
  Zn  Zn0  1  0.00000000  0.00000000  0.00000000  1
loop_
_geom_bond_atom_site_label_1
_geom_bond_atom_site_label_2
_geom_bond_distance
_geom_bond_site_symmetry_2
Ac0 Ac1 3.642290 1_544
Ac0 Ac1 3.642290 1_645
Ac0 Ac1 3.642290 1_555
Ac0 Ac1 3.642290 1_656
Ac0 Ac2 3.793387 1_555
Ac0 Ac2 3.793387 1_556
Ac0 Ac2 3.793387 1_545
Ac0 Zn0 3.793387 1_655
Ac0 Ac2 3.793387 1_656
Ac0 Zn0 3.793387 1_666
Ac0 Zn0 3.793387 1_656
Ac0 Zn0 3.793387 1_555
Ac1 Zn0 3.793387 1_566
Ac1 Ac2 3.793387 1_555
Ac1 Ac2 3.793387 1_556
Ac1 Ac2 3.793387 1_455
Ac1 Ac2 3.793387 1_566
Ac1 Zn0 3.793387 1_666
Ac1 Zn0 3.793387 1_565
Ac1 Zn0 3.793387 1_555
Ac2 Zn0 3.642290 1_554
Ac2 Zn0 3.642290 1_666
Ac2 Zn0 3.642290 1_565
Ac2 Zn0 3.642290 1_655
