# generated using pymatgen
data_Mg30MnSnO32
_symmetry_space_group_name_H-M   'P 1'
_cell_length_a   8.62135800
_cell_length_b   8.62135800
_cell_length_c   8.61755800
_cell_angle_alpha   90.00000000
_cell_angle_beta   90.00000000
_cell_angle_gamma   90.00000000
_symmetry_Int_Tables_number   1
_chemical_formula_structural   Mg30MnSnO32
_chemical_formula_sum   'Mg30 Mn1 Sn1 O32'
_cell_volume   640.52424613
_cell_formula_units_Z   1
loop_
 _symmetry_equiv_pos_site_id
 _symmetry_equiv_pos_as_xyz
  1  'x, y, z'
loop_
 _atom_site_type_symbol
 _atom_site_label
 _atom_site_symmetry_multiplicity
 _atom_site_fract_x
 _atom_site_fract_y
 _atom_site_fract_z
 _atom_site_occupancy
  Mg  Mg0  1  0.50000000  0.00000000  0.00000000  1
  Mg  Mg1  1  0.50000000  0.00000000  0.50000000  1
  Mg  Mg2  1  0.00000000  0.50000000  0.00000000  1
  Mg  Mg3  1  0.00000000  0.50000000  0.50000000  1
  Mg  Mg4  1  0.50000000  0.50000000  0.00000000  1
  Mg  Mg5  1  0.50000000  0.50000000  0.50000000  1
  Mg  Mg6  1  0.25565000  0.00000000  0.24635900  1
  Mg  Mg7  1  0.25565000  0.00000000  0.75364100  1
  Mg  Mg8  1  0.74435000  0.00000000  0.24635900  1
  Mg  Mg9  1  0.74435000  0.00000000  0.75364100  1
  Mg  Mg10  1  0.25045400  0.50000000  0.24954200  1
  Mg  Mg11  1  0.25045400  0.50000000  0.75045800  1
  Mg  Mg12  1  0.74954600  0.50000000  0.24954200  1
  Mg  Mg13  1  0.74954600  0.50000000  0.75045800  1
  Mg  Mg14  1  0.00000000  0.25565000  0.24635900  1
  Mg  Mg15  1  0.00000000  0.25565000  0.75364100  1
  Mg  Mg16  1  0.50000000  0.25045400  0.24954200  1
  Mg  Mg17  1  0.50000000  0.25045400  0.75045800  1
  Mg  Mg18  1  0.00000000  0.74435000  0.24635900  1
  Mg  Mg19  1  0.00000000  0.74435000  0.75364100  1
  Mg  Mg20  1  0.50000000  0.74954600  0.24954200  1
  Mg  Mg21  1  0.50000000  0.74954600  0.75045800  1
  Mg  Mg22  1  0.25099100  0.25099100  0.00000000  1
  Mg  Mg23  1  0.25430800  0.25430800  0.50000000  1
  Mg  Mg24  1  0.74900900  0.25099100  0.00000000  1
  Mg  Mg25  1  0.74569200  0.25430800  0.50000000  1
  Mg  Mg26  1  0.25099100  0.74900900  0.00000000  1
  Mg  Mg27  1  0.25430800  0.74569200  0.50000000  1
  Mg  Mg28  1  0.74900900  0.74900900  0.00000000  1
  Mg  Mg29  1  0.74569200  0.74569200  0.50000000  1
  Mn  Mn0  1  0.00000000  0.00000000  0.00000000  1
  Sn  Sn0  1  0.00000000  0.00000000  0.50000000  1
  O  O0  1  0.00000000  0.26006100  0.00000000  1
  O  O1  1  0.00000000  0.27012300  0.50000000  1
  O  O2  1  0.50000000  0.25166300  0.00000000  1
  O  O3  1  0.50000000  0.25340200  0.50000000  1
  O  O4  1  0.00000000  0.73993900  0.00000000  1
  O  O5  1  0.00000000  0.72987700  0.50000000  1
  O  O6  1  0.50000000  0.74833700  0.00000000  1
  O  O7  1  0.50000000  0.74659800  0.50000000  1
  O  O8  1  0.24931100  0.24931100  0.25024800  1
  O  O9  1  0.24931100  0.24931100  0.74975200  1
  O  O10  1  0.75068900  0.24931100  0.25024800  1
  O  O11  1  0.75068900  0.24931100  0.74975200  1
  O  O12  1  0.24931100  0.75068900  0.25024800  1
  O  O13  1  0.24931100  0.75068900  0.74975200  1
  O  O14  1  0.75068900  0.75068900  0.25024800  1
  O  O15  1  0.75068900  0.75068900  0.74975200  1
  O  O16  1  0.00000000  0.00000000  0.23548500  1
  O  O17  1  0.00000000  0.00000000  0.76451500  1
  O  O18  1  0.50000000  0.00000000  0.24777500  1
  O  O19  1  0.50000000  0.00000000  0.75222500  1
  O  O20  1  0.00000000  0.50000000  0.24777500  1
  O  O21  1  0.00000000  0.50000000  0.75222500  1
  O  O22  1  0.50000000  0.50000000  0.24947500  1
  O  O23  1  0.50000000  0.50000000  0.75052500  1
  O  O24  1  0.26006100  0.00000000  0.00000000  1
  O  O25  1  0.27012300  0.00000000  0.50000000  1
  O  O26  1  0.73993900  0.00000000  0.00000000  1
  O  O27  1  0.72987700  0.00000000  0.50000000  1
  O  O28  1  0.25166300  0.50000000  0.00000000  1
  O  O29  1  0.25340200  0.50000000  0.50000000  1
  O  O30  1  0.74833700  0.50000000  0.00000000  1
  O  O31  1  0.74659800  0.50000000  0.50000000  1
loop_
_geom_bond_atom_site_label_1
_geom_bond_atom_site_label_2
_geom_bond_distance
_geom_bond_site_symmetry_2
Mg0 O26 2.068600 1_555
Mg0 O24 2.068600 1_555
Mg0 O18 2.135215 1_555
Mg0 O19 2.135215 1_554
Mg0 O2 2.169677 1_555
Mg0 O6 2.169677 1_545
Mg1 O27 1.981852 1_555
Mg1 O25 1.981852 1_555
Mg1 O19 2.173564 1_555
Mg1 O18 2.173564 1_555
Mg1 O3 2.184669 1_555
Mg1 O7 2.184669 1_545
Mg2 O4 2.068600 1_555
Mg2 O0 2.068600 1_555
Mg2 O20 2.135215 1_555
Mg2 O21 2.135215 1_554
Mg2 O28 2.169677 1_555
Mg2 O30 2.169677 1_455
Mg3 O1 1.981852 1_555
Mg3 O5 1.981852 1_555
Mg3 O21 2.173564 1_555
Mg3 O20 2.173564 1_555
Mg3 O29 2.184669 1_555
Mg3 O31 2.184669 1_455
Mg4 O30 2.141002 1_555
Mg4 O6 2.141002 1_555
Mg4 O2 2.141002 1_555
Mg4 O28 2.141002 1_555
Mg4 O22 2.149865 1_555
Mg4 O23 2.149865 1_554
Mg5 O31 2.126010 1_555
Mg5 O3 2.126010 1_555
Mg5 O7 2.126010 1_555
Mg5 O29 2.126010 1_555
Mg5 O22 2.158914 1_555
Mg5 O23 2.158914 1_555
Mg6 O18 2.106664 1_555
Mg6 O24 2.123354 1_555
Mg6 O8 2.150355 1_555
Mg6 O12 2.150355 1_545
Mg6 O25 2.189325 1_555
Mg6 O16 2.206041 1_555
Mg7 O19 2.106664 1_555
Mg7 O24 2.123354 1_556
Mg7 O9 2.150355 1_555
Mg7 O13 2.150355 1_545
Mg7 O25 2.189325 1_555
Mg7 O17 2.206041 1_555
Mg8 O18 2.106664 1_555
Mg8 O26 2.123354 1_555
Mg8 O10 2.150355 1_555
Mg8 O14 2.150355 1_545
Mg8 O27 2.189325 1_555
Mg8 O16 2.206041 1_655
Mg9 O19 2.106664 1_555
Mg9 O26 2.123354 1_556
Mg9 O11 2.150355 1_555
Mg9 O15 2.150355 1_545
Mg9 O27 2.189325 1_555
Mg9 O17 2.206041 1_655
Mg10 O28 2.150468 1_555
Mg10 O22 2.151425 1_555
Mg10 O29 2.158486 1_555
Mg10 O20 2.159307 1_555
Mg10 O12 2.161311 1_555
Mg10 O8 2.161311 1_555
Mg11 O28 2.150468 1_556
Mg11 O23 2.151425 1_555
Mg11 O29 2.158486 1_555
Mg11 O21 2.159307 1_555
Mg11 O13 2.161311 1_555
Mg11 O9 2.161311 1_555
Mg12 O30 2.150468 1_555
Mg12 O22 2.151425 1_555
Mg12 O31 2.158486 1_555
Mg12 O20 2.159307 1_655
Mg12 O14 2.161311 1_555
Mg12 O10 2.161311 1_555
Mg13 O30 2.150468 1_556
Mg13 O23 2.151425 1_555
Mg13 O31 2.158486 1_555
Mg13 O21 2.159307 1_655
Mg13 O15 2.161311 1_555
Mg13 O11 2.161311 1_555
Mg14 O20 2.106664 1_555
Mg14 O0 2.123354 1_555
Mg14 O8 2.150355 1_555
Mg14 O10 2.150355 1_455
Mg14 O1 2.189325 1_555
Mg14 O16 2.206041 1_555
Mg15 O21 2.106664 1_555
Mg15 O0 2.123354 1_556
Mg15 O9 2.150355 1_555
Mg15 O11 2.150355 1_455
Mg15 O1 2.189325 1_555
Mg15 O17 2.206041 1_555
Mg16 O2 2.150468 1_555
Mg16 O22 2.151425 1_555
Mg16 O3 2.158486 1_555
Mg16 O18 2.159307 1_555
Mg16 O10 2.161311 1_555
Mg16 O8 2.161311 1_555
Mg17 O2 2.150468 1_556
Mg17 O23 2.151425 1_555
Mg17 O3 2.158486 1_555
Mg17 O19 2.159307 1_555
Mg17 O11 2.161311 1_555
Mg17 O9 2.161311 1_555
Mg18 O20 2.106664 1_555
Mg18 O4 2.123354 1_555
Mg18 O12 2.150355 1_555
Mg18 O14 2.150355 1_455
Mg18 O5 2.189325 1_555
Mg18 O16 2.206041 1_565
Mg19 O21 2.106664 1_555
Mg19 O4 2.123354 1_556
Mg19 O13 2.150355 1_555
Mg19 O15 2.150355 1_455
Mg19 O5 2.189325 1_555
Mg19 O17 2.206041 1_565
Mg20 O6 2.150468 1_555
Mg20 O22 2.151425 1_555
Mg20 O7 2.158486 1_555
Mg20 O18 2.159307 1_565
Mg20 O14 2.161311 1_555
Mg20 O12 2.161311 1_555
Mg21 O6 2.150468 1_556
Mg21 O23 2.151425 1_555
Mg21 O7 2.158486 1_555
Mg21 O19 2.159307 1_565
Mg21 O15 2.161311 1_555
Mg21 O13 2.161311 1_555
Mg22 O2 2.146804 1_555
Mg22 O28 2.146804 1_555
Mg22 O8 2.156624 1_555
Mg22 O9 2.156624 1_554
Mg22 O24 2.165296 1_555
Mg22 O0 2.165296 1_555
Mg23 O29 2.118213 1_555
Mg23 O3 2.118213 1_555
Mg23 O9 2.153115 1_555
Mg23 O8 2.153115 1_555
Mg23 O1 2.196716 1_555
Mg23 O25 2.196716 1_555
Mg24 O2 2.146804 1_555
Mg24 O30 2.146804 1_555
Mg24 O10 2.156624 1_555
Mg24 O11 2.156624 1_554
Mg24 O26 2.165296 1_555
Mg24 O0 2.165296 1_655
Mg25 O31 2.118213 1_555
Mg25 O3 2.118213 1_555
Mg25 O11 2.153115 1_555
Mg25 O10 2.153115 1_555
Mg25 O27 2.196716 1_555
Mg25 O1 2.196716 1_655
Mg26 O28 2.146804 1_555
Mg26 O6 2.146804 1_555
Mg26 O12 2.156624 1_555
Mg26 O13 2.156624 1_554
Mg26 O4 2.165296 1_555
Mg26 O24 2.165296 1_565
Mg27 O7 2.118213 1_555
Mg27 O29 2.118213 1_555
Mg27 O13 2.153115 1_555
Mg27 O12 2.153115 1_555
Mg27 O25 2.196716 1_565
Mg27 O5 2.196716 1_555
Mg28 O30 2.146804 1_555
Mg28 O6 2.146804 1_555
Mg28 O14 2.156624 1_555
Mg28 O15 2.156624 1_554
Mg28 O26 2.165296 1_565
Mg28 O4 2.165296 1_655
Mg29 O7 2.118213 1_555
Mg29 O31 2.118213 1_555
Mg29 O15 2.153115 1_555
Mg29 O14 2.153115 1_555
Mg29 O27 2.196716 1_565
Mg29 O5 2.196716 1_655
Mn0 O16 2.029306 1_555
Mn0 O17 2.029306 1_554
Mn0 O4 2.242079 1_545
Mn0 O0 2.242079 1_555
Mn0 O24 2.242079 1_555
Mn0 O26 2.242079 1_455
O1 Sn0 2.328827 1_555
O5 Sn0 2.328827 1_565
O16 Sn0 2.279473 1_555
O17 Sn0 2.279473 1_555
O25 Sn0 2.328827 1_555
O27 Sn0 2.328827 1_655
