# generated using pymatgen
data_ThSe3
_symmetry_space_group_name_H-M   'P 1'
_cell_length_a   4.25151142
_cell_length_b   5.80061688
_cell_length_c   9.85493668
_cell_angle_alpha   83.05666780
_cell_angle_beta   90.00000000
_cell_angle_gamma   90.00000000
_symmetry_Int_Tables_number   1
_chemical_formula_structural   ThSe3
_chemical_formula_sum   'Th2 Se6'
_cell_volume   241.25404539
_cell_formula_units_Z   2
loop_
 _symmetry_equiv_pos_site_id
 _symmetry_equiv_pos_as_xyz
  1  'x, y, z'
loop_
 _atom_site_type_symbol
 _atom_site_label
 _atom_site_symmetry_multiplicity
 _atom_site_fract_x
 _atom_site_fract_y
 _atom_site_fract_z
 _atom_site_occupancy
  Th  Th0  1  0.75000000  0.28099991  0.34477598  1
  Th  Th1  1  0.25000000  0.71900009  0.65522402  1
  Se  Se0  1  0.75000000  0.76195912  0.44029610  1
  Se  Se1  1  0.25000000  0.23804088  0.55970390  1
  Se  Se2  1  0.75000000  0.47663226  0.82934153  1
  Se  Se3  1  0.25000000  0.52336774  0.17065847  1
  Se  Se4  1  0.75000000  0.88401882  0.83290518  1
  Se  Se5  1  0.25000000  0.11598118  0.16709482  1
loop_
_geom_bond_atom_site_label_1
_geom_bond_atom_site_label_2
_geom_bond_distance
_geom_bond_site_symmetry_2
Se0 Th1 2.989929 1_555
Se0 Th1 2.989929 1_655
Se0 Th0 3.043938 1_565
Se0 Th0 3.050312 1_555
Se1 Th0 2.989929 1_555
Se1 Th0 2.989929 1_455
Se1 Th1 3.043938 1_545
Se1 Th1 3.050312 1_555
Se2 Se4 2.367596 1_555
Se2 Th1 2.975981 1_555
Se2 Th1 2.975981 1_655
Se3 Se5 2.367596 1_555
Se3 Th0 2.975981 1_455
Se3 Th0 2.975981 1_555
Se4 Th1 2.984369 1_655
Se4 Th1 2.984369 1_555
Se5 Th0 2.984369 1_455
Se5 Th0 2.984369 1_555
