# generated using pymatgen
data_BaSrTm4O8
_symmetry_space_group_name_H-M   'P 1'
_cell_length_a   3.40521700
_cell_length_b   10.25962900
_cell_length_c   11.98477900
_cell_angle_alpha   90.00000000
_cell_angle_beta   90.00000000
_cell_angle_gamma   90.00000000
_symmetry_Int_Tables_number   1
_chemical_formula_structural   BaSrTm4O8
_chemical_formula_sum   'Ba2 Sr2 Tm8 O16'
_cell_volume   418.70339215
_cell_formula_units_Z   2
loop_
 _symmetry_equiv_pos_site_id
 _symmetry_equiv_pos_as_xyz
  1  'x, y, z'
loop_
 _atom_site_type_symbol
 _atom_site_label
 _atom_site_symmetry_multiplicity
 _atom_site_fract_x
 _atom_site_fract_y
 _atom_site_fract_z
 _atom_site_occupancy
  Ba  Ba0  1  0.75000000  0.74658600  0.14931300  1
  Ba  Ba1  1  0.75000000  0.24658600  0.35068700  1
  Sr  Sr0  1  0.25000000  0.25390600  0.85129800  1
  Sr  Sr1  1  0.25000000  0.75390600  0.64870200  1
  Tm  Tm0  1  0.75000000  0.07648500  0.61201000  1
  Tm  Tm1  1  0.75000000  0.57648500  0.88799000  1
  Tm  Tm2  1  0.25000000  0.92069300  0.39428200  1
  Tm  Tm3  1  0.25000000  0.42069300  0.10571800  1
  Tm  Tm4  1  0.75000000  0.07492400  0.10786900  1
  Tm  Tm5  1  0.75000000  0.57492400  0.39213100  1
  Tm  Tm6  1  0.25000000  0.92846000  0.88526300  1
  Tm  Tm7  1  0.25000000  0.42846000  0.61473700  1
  O  O0  1  0.75000000  0.98055900  0.28416500  1
  O  O1  1  0.75000000  0.48055900  0.21583500  1
  O  O2  1  0.25000000  0.01685200  0.71727600  1
  O  O3  1  0.25000000  0.51685200  0.78272400  1
  O  O4  1  0.75000000  0.37856900  0.97718100  1
  O  O5  1  0.75000000  0.87856900  0.52281900  1
  O  O6  1  0.25000000  0.61356000  0.01469200  1
  O  O7  1  0.25000000  0.11356000  0.48530800  1
  O  O8  1  0.75000000  0.07651800  0.92156600  1
  O  O9  1  0.75000000  0.57651800  0.57843400  1
  O  O10  1  0.25000000  0.93282200  0.07113700  1
  O  O11  1  0.25000000  0.43282200  0.42886300  1
  O  O12  1  0.75000000  0.29047400  0.66697800  1
  O  O13  1  0.75000000  0.79047400  0.83302200  1
  O  O14  1  0.25000000  0.70959200  0.34137600  1
  O  O15  1  0.25000000  0.20959200  0.15862400  1
loop_
_geom_bond_atom_site_label_1
_geom_bond_atom_site_label_2
_geom_bond_distance
_geom_bond_site_symmetry_2
Ba0 O6 2.713783 1_555
Ba0 O6 2.713783 1_655
Ba0 O10 2.725348 1_555
Ba0 O10 2.725348 1_655
Ba0 O1 2.843395 1_555
Ba0 O14 2.888142 1_655
Ba0 O14 2.888142 1_555
Ba0 O0 2.893838 1_555
Ba1 O7 2.713783 1_555
Ba1 O7 2.713783 1_655
Ba1 O11 2.725348 1_655
Ba1 O11 2.725348 1_555
Ba1 O0 2.843395 1_545
Ba1 O15 2.888142 1_555
Ba1 O15 2.888142 1_655
Ba1 O1 2.893838 1_555
O0 Tm2 2.240045 1_655
O0 Tm2 2.240045 1_555
O0 Tm4 2.324119 1_565
O1 Tm3 2.240045 1_655
O1 Tm3 2.240045 1_555
O1 Tm5 2.324119 1_555
O2 Tm0 2.205629 1_555
O2 Tm0 2.205629 1_455
O2 Tm6 2.208107 1_545
O2 Sr1 2.820136 1_545
O2 Sr0 2.914618 1_555
O3 Tm1 2.205629 1_555
O3 Tm1 2.205629 1_455
O3 Tm7 2.208107 1_555
O3 Sr0 2.820136 1_555
O3 Sr1 2.914618 1_555
O4 Tm1 2.294718 1_555
O4 Tm3 2.336398 1_556
O4 Tm3 2.336398 1_656
O4 Sr0 2.609755 1_555
O4 Sr0 2.609755 1_655
O5 Tm0 2.294718 1_565
O5 Tm2 2.336398 1_655
O5 Tm2 2.336398 1_555
O5 Sr1 2.609755 1_555
O5 Sr1 2.609755 1_655
O6 Tm3 2.259546 1_555
O6 Tm1 2.312875 1_554
O6 Tm1 2.312875 1_454
O7 Tm2 2.259546 1_545
O7 Tm0 2.312875 1_555
O7 Tm0 2.312875 1_455
O8 Tm4 2.232860 1_556
O8 Tm6 2.322842 1_545
O8 Tm6 2.322842 1_645
O8 Sr0 2.630637 1_555
O8 Sr0 2.630637 1_655
O9 Tm5 2.232860 1_555
O9 Tm7 2.322842 1_655
O9 Tm7 2.322842 1_555
O9 Sr1 2.630637 1_555
O9 Sr1 2.630637 1_655
O10 Tm6 2.228108 1_554
O10 Tm4 2.284335 1_465
O10 Tm4 2.284335 1_565
O11 Tm7 2.228108 1_555
O11 Tm5 2.284335 1_455
O11 Tm5 2.284335 1_555
O12 Tm0 2.292156 1_555
O12 Tm7 2.301095 1_655
O12 Tm7 2.301095 1_555
O12 Sr0 2.814154 1_555
O12 Sr0 2.814154 1_655
O13 Tm1 2.292156 1_555
O13 Tm6 2.301095 1_655
O13 Tm6 2.301095 1_555
O13 Sr1 2.814154 1_555
O13 Sr1 2.814154 1_655
O14 Tm2 2.256725 1_555
O14 Tm5 2.275484 1_455
O14 Tm5 2.275484 1_555
O15 Tm3 2.256725 1_555
O15 Tm4 2.275484 1_455
O15 Tm4 2.275484 1_555
