# generated using pymatgen
data_CeBi2Au
_symmetry_space_group_name_H-M   'P 1'
_cell_length_a   4.68563050
_cell_length_b   4.68562945
_cell_length_c   9.94455204
_cell_angle_alpha   90.00000000
_cell_angle_beta   90.00000000
_cell_angle_gamma   90.00000000
_symmetry_Int_Tables_number   1
_chemical_formula_structural   CeBi2Au
_chemical_formula_sum   'Ce2 Bi4 Au2'
_cell_volume   218.33391555
_cell_formula_units_Z   2
loop_
 _symmetry_equiv_pos_site_id
 _symmetry_equiv_pos_as_xyz
  1  'x, y, z'
loop_
 _atom_site_type_symbol
 _atom_site_label
 _atom_site_symmetry_multiplicity
 _atom_site_fract_x
 _atom_site_fract_y
 _atom_site_fract_z
 _atom_site_occupancy
  Ce  Ce0  1  0.50000000  -0.00000000  0.23287474  1
  Ce  Ce1  1  -0.00000000  0.50000000  0.76712544  1
  Bi  Bi0  1  0.00000000  0.50000000  0.18726454  1
  Bi  Bi1  1  0.50000000  0.00000000  0.81274012  1
  Bi  Bi2  1  -0.00000000  0.00000000  0.49972250  1
  Bi  Bi3  1  0.50000000  0.50000000  0.49972250  1
  Au  Au0  1  0.00000000  -0.00000000  0.00027508  1
  Au  Au1  1  0.50000000  0.50000000  0.00027508  1
loop_
_geom_bond_atom_site_label_1
_geom_bond_atom_site_label_2
_geom_bond_distance
_geom_bond_site_symmetry_2
Bi0 Ce0 3.344143 1_465
Bi0 Ce0 3.344143 1_565
Bi0 Ce0 3.344143 1_455
Bi0 Ce0 3.344143 1_555
Bi1 Ce1 3.344149 1_645
Bi1 Ce1 3.344149 1_555
Bi1 Ce1 3.344149 1_545
Bi1 Ce1 3.344149 1_655
Bi2 Bi3 3.313241 1_545
Bi2 Bi3 3.313241 1_445
Bi2 Bi3 3.313241 1_555
Bi2 Bi3 3.313241 1_455
Bi2 Ce0 3.539888 1_455
Bi2 Ce0 3.539888 1_555
Bi2 Ce1 3.544029 1_555
Bi2 Ce1 3.544029 1_545
Bi3 Ce0 3.539888 1_565
Bi3 Ce0 3.539888 1_555
Bi3 Ce1 3.544029 1_555
Bi3 Ce1 3.544029 1_655
Au0 Bi0 2.991090 1_555
Au0 Bi0 2.991090 1_545
Au0 Bi1 2.994466 1_454
Au0 Bi1 2.994466 1_554
Au0 Ce0 3.292296 1_455
Au0 Ce0 3.292296 1_555
Au0 Ce1 3.296140 1_544
Au0 Ce1 3.296140 1_554
Au1 Bi0 2.991090 1_555
Au1 Bi0 2.991090 1_655
Au1 Bi1 2.994466 1_554
Au1 Bi1 2.994466 1_564
Au1 Ce0 3.292296 1_565
Au1 Ce0 3.292296 1_555
Au1 Ce1 3.296141 1_654
Au1 Ce1 3.296141 1_554
