# generated using pymatgen
data_Mn2CrNiSb2
_symmetry_space_group_name_H-M   'P 1'
_cell_length_a   7.42171429
_cell_length_b   7.42171429
_cell_length_c   7.42171405
_cell_angle_alpha   33.42486721
_cell_angle_beta   33.42486721
_cell_angle_gamma   33.42486295
_symmetry_Int_Tables_number   1
_chemical_formula_structural   Mn2CrNiSb2
_chemical_formula_sum   'Mn2 Cr1 Ni1 Sb2'
_cell_volume   110.46300873
_cell_formula_units_Z   1
loop_
 _symmetry_equiv_pos_site_id
 _symmetry_equiv_pos_as_xyz
  1  'x, y, z'
loop_
 _atom_site_type_symbol
 _atom_site_label
 _atom_site_symmetry_multiplicity
 _atom_site_fract_x
 _atom_site_fract_y
 _atom_site_fract_z
 _atom_site_occupancy
  Mn  Mn0  1  0.00069400  0.00069400  0.00069400  1
  Mn  Mn1  1  0.49886600  0.49886600  0.49886600  1
  Cr  Cr0  1  0.74890200  0.74890200  0.74890200  1
  Ni  Ni0  1  0.25117000  0.25117000  0.25117000  1
  Sb  Sb0  1  0.12732000  0.12732000  0.12732000  1
  Sb  Sb1  1  0.62304900  0.62304900  0.62304900  1
loop_
_geom_bond_atom_site_label_1
_geom_bond_atom_site_label_2
_geom_bond_distance
_geom_bond_site_symmetry_2
Mn0 Sb1 2.634279 1_454
Mn0 Sb1 2.634279 1_544
Mn0 Sb1 2.634280 1_445
Mn0 Sb0 2.659376 1_555
Mn0 Ni0 3.016870 1_455
Mn0 Ni0 3.016870 1_545
Mn0 Ni0 3.016870 1_554
Mn1 Sb0 2.591800 1_565
Mn1 Sb0 2.591800 1_655
Mn1 Sb0 2.591800 1_556
Mn1 Sb1 2.608069 1_555
Mn1 Ni0 3.050919 1_655
Mn1 Ni0 3.050919 1_565
Mn1 Ni0 3.050919 1_556
Cr0 Sb0 2.640058 1_566
Cr0 Sb0 2.640058 1_656
Cr0 Sb0 2.640059 1_665
Cr0 Sb1 2.643142 1_555
Cr0 Mn0 3.001013 1_566
Cr0 Mn0 3.001013 1_656
Cr0 Mn0 3.001013 1_665
Cr0 Mn1 3.022209 1_565
Cr0 Mn1 3.022209 1_655
Cr0 Mn1 3.022209 1_556
Ni0 Sb1 2.593974 1_545
Ni0 Sb1 2.593974 1_455
Ni0 Sb1 2.593974 1_554
Ni0 Sb0 2.601075 1_555
