# generated using pymatgen
data_Ca3SiO5
_symmetry_space_group_name_H-M   'P 1'
_cell_length_a   7.09521045
_cell_length_b   7.09521045
_cell_length_c   9.25819493
_cell_angle_alpha   68.08791206
_cell_angle_beta   68.08791206
_cell_angle_gamma   60.55818441
_symmetry_Int_Tables_number   1
_chemical_formula_structural   Ca3SiO5
_chemical_formula_sum   'Ca9 Si3 O15'
_cell_volume   366.03049471
_cell_formula_units_Z   3
loop_
 _symmetry_equiv_pos_site_id
 _symmetry_equiv_pos_as_xyz
  1  'x, y, z'
loop_
 _atom_site_type_symbol
 _atom_site_label
 _atom_site_symmetry_multiplicity
 _atom_site_fract_x
 _atom_site_fract_y
 _atom_site_fract_z
 _atom_site_occupancy
  Ca  Ca0  1  0.52880700  0.00752600  0.01450100  1
  Ca  Ca1  1  0.00752600  0.52880700  0.01450100  1
  Ca  Ca2  1  0.71294500  0.24160200  0.29443000  1
  Ca  Ca3  1  0.24160200  0.71294500  0.29443000  1
  Ca  Ca4  1  0.25730000  0.75620800  0.65370900  1
  Ca  Ca5  1  0.75620800  0.25730000  0.65370900  1
  Ca  Ca6  1  0.54987100  0.54987100  0.95313800  1
  Ca  Ca7  1  0.68380800  0.68380800  0.35152700  1
  Ca  Ca8  1  0.27054300  0.27054300  0.70617500  1
  Si  Si0  1  0.79162400  0.79162400  0.64468000  1
  Si  Si1  1  0.21400500  0.21400500  0.35119500  1
  Si  Si2  1  0.99880100  0.99880100  0.00914600  1
  O  O0  1  0.60810700  0.98341500  0.74522500  1
  O  O1  1  0.88100300  0.88100300  0.18483100  1
  O  O2  1  0.98341500  0.60810700  0.74522500  1
  O  O3  1  0.66152600  0.66152600  0.62733400  1
  O  O4  1  0.26510300  0.89388300  0.99947100  1
  O  O5  1  0.39267100  0.39267100  0.87116700  1
  O  O6  1  0.89388300  0.26510300  0.99947100  1
  O  O7  1  0.63540600  0.63540600  0.13361800  1
  O  O8  1  0.94833400  0.94833400  0.87004600  1
  O  O9  1  0.16715600  0.16715600  0.54856400  1
  O  O10  1  0.97041100  0.34968200  0.30520300  1
  O  O11  1  0.36253200  0.36253200  0.24289500  1
  O  O12  1  0.34968200  0.97041100  0.30520300  1
  O  O13  1  0.46868200  0.46868200  0.50235600  1
  O  O14  1  0.91547900  0.91547900  0.47686000  1
loop_
_geom_bond_atom_site_label_1
_geom_bond_atom_site_label_2
_geom_bond_distance
_geom_bond_site_symmetry_2
Ca0 O7 2.290294 1_545
Ca0 O0 2.395351 1_544
Ca0 O5 2.411798 1_554
Ca0 O4 2.435463 1_544
Ca0 O12 2.484988 1_545
Ca0 O8 2.654121 1_544
Ca1 O7 2.290294 1_455
Ca1 O2 2.395351 1_454
Ca1 O5 2.411798 1_554
Ca1 O6 2.435463 1_454
Ca1 O10 2.484988 1_455
Ca1 O8 2.654121 1_454
Ca2 O10 2.346348 1_555
Ca2 O11 2.372333 1_555
Ca2 O14 2.428491 1_545
Ca2 O7 2.514296 1_555
Ca2 O13 2.526852 1_555
Ca2 O6 2.527278 1_554
Ca2 O1 2.651962 1_545
Ca3 O12 2.346348 1_555
Ca3 O11 2.372333 1_555
Ca3 O14 2.428491 1_455
Ca3 O7 2.514296 1_555
Ca3 O13 2.526852 1_555
Ca3 O4 2.527278 1_554
Ca3 O1 2.651962 1_455
Ca4 O2 2.390071 1_455
Ca4 O13 2.435544 1_555
Ca4 O9 2.524135 1_565
Ca4 O3 2.538175 1_555
Ca4 O8 2.549203 1_455
Ca4 O5 2.600157 1_555
Ca4 O14 2.954369 1_455
Ca4 O12 2.981757 1_555
Ca5 O0 2.390071 1_545
Ca5 O13 2.435544 1_555
Ca5 O9 2.524135 1_655
Ca5 O3 2.538175 1_555
Ca5 O8 2.549203 1_545
Ca5 O5 2.600157 1_555
Ca5 O14 2.954369 1_545
Ca5 O10 2.981757 1_555
Ca6 O7 2.324738 1_556
Ca6 O4 2.347427 1_555
Ca6 O6 2.347427 1_555
Ca6 O5 2.355960 1_555
Ca6 O11 2.672870 1_556
Ca6 O3 2.720949 1_555
Ca7 O1 2.235662 1_555
Ca7 O10 2.303902 1_555
Ca7 O12 2.303902 1_555
Ca7 O7 2.335834 1_555
Ca7 O13 2.391284 1_555
Ca7 O3 2.447895 1_555
Ca8 O2 2.305915 1_455
Ca8 O0 2.305915 1_545
Ca8 O9 2.309167 1_555
Ca8 O13 2.344464 1_555
Ca8 O5 2.559115 1_555
O0 Si0 1.647000 1_555
O1 Si2 1.643216 1_555
O2 Si0 1.647000 1_555
O3 Si0 1.669983 1_555
O4 Si2 1.634922 1_456
O6 Si2 1.634922 1_546
O8 Si2 1.652059 1_556
O9 Si1 1.661891 1_555
O10 Si1 1.644050 1_655
O11 Si1 1.655578 1_555
O12 Si1 1.644050 1_565
O14 Si0 1.636939 1_555
