# generated using pymatgen
data_ErGeRu
_symmetry_space_group_name_H-M   'P 1'
_cell_length_a   4.38003358
_cell_length_b   6.96880682
_cell_length_c   7.15907201
_cell_angle_alpha   90.00000000
_cell_angle_beta   90.00000000
_cell_angle_gamma   90.00000000
_symmetry_Int_Tables_number   1
_chemical_formula_structural   ErGeRu
_chemical_formula_sum   'Er4 Ge4 Ru4'
_cell_volume   218.52070685
_cell_formula_units_Z   4
loop_
 _symmetry_equiv_pos_site_id
 _symmetry_equiv_pos_as_xyz
  1  'x, y, z'
loop_
 _atom_site_type_symbol
 _atom_site_label
 _atom_site_symmetry_multiplicity
 _atom_site_fract_x
 _atom_site_fract_y
 _atom_site_fract_z
 _atom_site_occupancy
  Er  Er0  1  0.25000000  0.48550928  0.80775269  1
  Er  Er1  1  0.75000000  0.51449072  0.19224731  1
  Er  Er2  1  0.25000000  0.98550928  0.69224731  1
  Er  Er3  1  0.75000000  0.01449072  0.30775269  1
  Ge  Ge0  1  0.25000000  0.79670846  0.10712080  1
  Ge  Ge1  1  0.75000000  0.20329154  0.89287920  1
  Ge  Ge2  1  0.25000000  0.29670846  0.39287920  1
  Ge  Ge3  1  0.75000000  0.70329154  0.60712080  1
  Ru  Ru0  1  0.75000000  0.84547654  0.93705673  1
  Ru  Ru1  1  0.25000000  0.15452346  0.06294327  1
  Ru  Ru2  1  0.75000000  0.34547654  0.56294327  1
  Ru  Ru3  1  0.25000000  0.65452346  0.43705673  1
loop_
_geom_bond_atom_site_label_1
_geom_bond_atom_site_label_2
_geom_bond_distance
_geom_bond_site_symmetry_2
Er0 Ru3 2.903470 1_555
Er0 Ru1 2.942441 1_556
Er0 Ru2 2.969868 1_455
Er0 Ru2 2.969868 1_555
Er0 Ge1 3.005922 1_555
Er0 Ge1 3.005922 1_455
Er0 Ge3 3.026979 1_455
Er0 Ge3 3.026979 1_555
Er0 Ge0 3.049016 1_556
Er0 Ge2 3.248486 1_555
Er1 Ru2 2.903470 1_555
Er1 Ru0 2.942441 1_554
Er1 Ru3 2.969868 1_555
Er1 Ru3 2.969868 1_655
Er1 Ge0 3.005922 1_655
Er1 Ge0 3.005922 1_555
Er1 Ge2 3.026979 1_655
Er1 Ge2 3.026979 1_555
Er1 Ge1 3.049016 1_554
Er1 Ge3 3.248486 1_555
Er2 Ru1 2.903470 1_566
Er2 Ru3 2.942441 1_555
Er2 Ru0 2.969868 1_455
Er2 Ru0 2.969868 1_555
Er2 Ge3 3.005922 1_455
Er2 Ge3 3.005922 1_555
Er2 Ge1 3.026979 1_565
Er2 Ge1 3.026979 1_465
Er2 Ge2 3.049016 1_565
Er2 Ge0 3.248486 1_556
Er3 Ru0 2.903470 1_544
Er3 Ru2 2.942441 1_555
Er3 Ru1 2.969868 1_655
Er3 Ru1 2.969868 1_555
Er3 Ge2 3.005922 1_555
Er3 Ge2 3.005922 1_655
Er3 Ge0 3.026979 1_645
Er3 Ge0 3.026979 1_545
Er3 Ge3 3.049016 1_545
Er3 Ge1 3.248486 1_554
Ge0 Ru1 2.513521 1_565
Ge0 Ru0 2.528633 1_554
Ge0 Ru0 2.528633 1_454
Ge0 Ru3 2.561447 1_555
Ge1 Ru0 2.513521 1_545
Ge1 Ru1 2.528633 1_556
Ge1 Ru1 2.528633 1_656
Ge1 Ru2 2.561447 1_555
Ge2 Ru3 2.513521 1_555
Ge2 Ru2 2.528633 1_455
Ge2 Ru2 2.528633 1_555
Ge2 Ru1 2.561447 1_555
Ge3 Ru2 2.513521 1_555
Ge3 Ru3 2.528633 1_655
Ge3 Ru3 2.528633 1_555
Ge3 Ru0 2.561447 1_555
