# generated using pymatgen
data_KU6F25
_symmetry_space_group_name_H-M   'P 1'
_cell_length_a   8.18707617
_cell_length_b   8.18707617
_cell_length_c   16.61149800
_cell_angle_alpha   90.00000000
_cell_angle_beta   90.00000000
_cell_angle_gamma   120.00000141
_symmetry_Int_Tables_number   1
_chemical_formula_structural   KU6F25
_chemical_formula_sum   'K2 U12 F50'
_cell_volume   964.26651581
_cell_formula_units_Z   2
loop_
 _symmetry_equiv_pos_site_id
 _symmetry_equiv_pos_as_xyz
  1  'x, y, z'
loop_
 _atom_site_type_symbol
 _atom_site_label
 _atom_site_symmetry_multiplicity
 _atom_site_fract_x
 _atom_site_fract_y
 _atom_site_fract_z
 _atom_site_occupancy
  K  K0  1  0.33333300  0.66666700  0.75000000  1
  K  K1  1  0.66666700  0.33333300  0.25000000  1
  U  U0  1  0.16672300  0.33344500  0.11304900  1
  U  U1  1  0.83327700  0.66655500  0.88695100  1
  U  U2  1  0.66655500  0.83327700  0.11304900  1
  U  U3  1  0.83327700  0.66655500  0.61304900  1
  U  U4  1  0.33344500  0.16672300  0.88695100  1
  U  U5  1  0.16672300  0.33344500  0.38695100  1
  U  U6  1  0.16672300  0.83327700  0.11304900  1
  U  U7  1  0.33344500  0.16672300  0.61304900  1
  U  U8  1  0.83327700  0.16672300  0.88695100  1
  U  U9  1  0.66655500  0.83327700  0.38695100  1
  U  U10  1  0.83327700  0.16672300  0.61304900  1
  U  U11  1  0.16672300  0.83327700  0.38695100  1
  F  F0  1  0.00000000  0.00000000  0.07347300  1
  F  F1  1  0.00000000  0.00000000  0.92652700  1
  F  F2  1  0.00000000  0.00000000  0.57347300  1
  F  F3  1  0.00000000  0.00000000  0.42652700  1
  F  F4  1  0.18882800  0.37765700  0.25000000  1
  F  F5  1  0.81117200  0.62234300  0.75000000  1
  F  F6  1  0.62234300  0.81117200  0.25000000  1
  F  F7  1  0.37765700  0.18882800  0.75000000  1
  F  F8  1  0.18882800  0.81117200  0.25000000  1
  F  F9  1  0.81117200  0.18882800  0.75000000  1
  F  F10  1  0.13702100  0.27404100  0.66117900  1
  F  F11  1  0.86297900  0.72595900  0.33882100  1
  F  F12  1  0.72595900  0.86297900  0.66117900  1
  F  F13  1  0.86297900  0.72595900  0.16117900  1
  F  F14  1  0.27404100  0.13702100  0.33882100  1
  F  F15  1  0.13702100  0.27404100  0.83882100  1
  F  F16  1  0.13702100  0.86297900  0.66117900  1
  F  F17  1  0.27404100  0.13702100  0.16117900  1
  F  F18  1  0.86297900  0.13702100  0.33882100  1
  F  F19  1  0.72595900  0.86297900  0.83882100  1
  F  F20  1  0.86297900  0.13702100  0.16117900  1
  F  F21  1  0.13702100  0.86297900  0.83882100  1
  F  F22  1  0.32107000  0.00000000  0.00000000  1
  F  F23  1  0.67893000  0.00000000  0.00000000  1
  F  F24  1  0.00000000  0.32107000  0.00000000  1
  F  F25  1  0.67893000  0.00000000  0.50000000  1
  F  F26  1  0.00000000  0.67893000  0.00000000  1
  F  F27  1  0.32107000  0.00000000  0.50000000  1
  F  F28  1  0.67893000  0.67893000  0.00000000  1
  F  F29  1  0.00000000  0.67893000  0.50000000  1
  F  F30  1  0.32107000  0.32107000  0.00000000  1
  F  F31  1  0.00000000  0.32107000  0.50000000  1
  F  F32  1  0.32107000  0.32107000  0.50000000  1
  F  F33  1  0.67893000  0.67893000  0.50000000  1
  F  F34  1  0.33333300  0.66666700  0.06814600  1
  F  F35  1  0.66666700  0.33333300  0.93185400  1
  F  F36  1  0.66666700  0.33333300  0.56814600  1
  F  F37  1  0.33333300  0.66666700  0.43185400  1
  F  F38  1  0.51454400  0.02908800  0.64515900  1
  F  F39  1  0.48545600  0.97091200  0.35484100  1
  F  F40  1  0.97091200  0.48545600  0.64515900  1
  F  F41  1  0.48545600  0.97091200  0.14515900  1
  F  F42  1  0.02908800  0.51454400  0.35484100  1
  F  F43  1  0.51454400  0.02908800  0.85484100  1
  F  F44  1  0.51454400  0.48545600  0.64515900  1
  F  F45  1  0.02908800  0.51454400  0.14515900  1
  F  F46  1  0.48545600  0.51454400  0.35484100  1
  F  F47  1  0.97091200  0.48545600  0.85484100  1
  F  F48  1  0.48545600  0.51454400  0.14515900  1
  F  F49  1  0.51454400  0.48545600  0.85484100  1
loop_
_geom_bond_atom_site_label_1
_geom_bond_atom_site_label_2
_geom_bond_distance
_geom_bond_site_symmetry_2
F0 U2 2.453900 1_445
F0 U0 2.453900 1_555
F0 U6 2.453907 1_545
F1 U4 2.453900 1_555
F1 U1 2.453900 1_445
F1 U8 2.453907 1_455
F2 U3 2.453900 1_445
F2 U7 2.453900 1_555
F2 U10 2.453907 1_455
F3 U9 2.453900 1_445
F3 U5 2.453900 1_555
F3 U11 2.453907 1_545
F4 U0 2.296457 1_555
F4 U5 2.296457 1_555
F5 U1 2.296457 1_555
F5 U3 2.296457 1_555
F6 U2 2.296457 1_555
F6 U9 2.296457 1_555
F7 U4 2.296457 1_555
F7 U7 2.296457 1_555
F8 U11 2.296455 1_555
F8 U6 2.296455 1_555
F9 U8 2.296455 1_555
F9 U10 2.296455 1_555
F10 U7 2.325993 1_555
F10 U10 2.326008 1_455
F10 K0 3.150637 1_555
F11 U9 2.325993 1_555
F11 U11 2.326008 1_655
F11 K1 3.150637 1_555
F12 U3 2.325993 1_555
F12 U10 2.326008 1_565
F12 K0 3.150637 1_555
F13 U2 2.325993 1_555
F13 U6 2.326008 1_655
F13 K1 3.150637 1_555
F14 U5 2.325993 1_555
F14 U11 2.326008 1_545
F14 K1 3.150637 1_555
F15 U4 2.325993 1_555
F15 U8 2.326008 1_455
F15 K0 3.150637 1_555
F16 U7 2.326005 1_565
F16 U3 2.326005 1_455
F16 K0 3.150624 1_555
F17 U0 2.325993 1_555
F17 U6 2.326008 1_545
F17 K1 3.150637 1_555
F18 U5 2.326005 1_655
F18 U9 2.326005 1_545
F18 K1 3.150624 1_555
F19 U1 2.325993 1_555
F19 U8 2.326008 1_565
F19 K0 3.150637 1_555
F20 U0 2.326005 1_655
F20 U2 2.326005 1_545
F20 K1 3.150624 1_555
F21 U4 2.326005 1_565
F21 U1 2.326005 1_455
F21 K0 3.150624 1_555
F22 U6 2.293834 1_545
F22 U4 2.293836 1_554
F23 U8 2.293834 1_554
F23 U2 2.293836 1_545
F24 U8 2.293834 1_454
F24 U0 2.293836 1_555
F25 U10 2.293834 1_555
F25 U9 2.293836 1_545
F26 U6 2.293834 1_555
F26 U1 2.293836 1_454
F27 U11 2.293834 1_545
F27 U7 2.293836 1_555
F28 U2 2.293831 1_555
F28 U1 2.293831 1_554
F29 U11 2.293834 1_555
F29 U3 2.293836 1_455
F30 U0 2.293831 1_555
F30 U4 2.293831 1_554
F31 U10 2.293834 1_455
F31 U5 2.293836 1_555
F32 U7 2.293831 1_555
F32 U5 2.293831 1_555
F33 U3 2.293831 1_555
F33 U9 2.293831 1_555
F34 U6 2.477552 1_555
F34 U2 2.477565 1_555
F34 U0 2.477565 1_555
F35 U8 2.477552 1_555
F35 U1 2.477565 1_555
F35 U4 2.477565 1_555
F36 U10 2.477552 1_555
F36 U7 2.477565 1_555
F36 U3 2.477565 1_555
F37 U11 2.477552 1_555
F37 U5 2.477565 1_555
F37 U9 2.477565 1_555
F38 U10 2.328787 1_555
F38 U7 2.328794 1_555
F38 K0 3.104210 1_545
F39 U11 2.328787 1_555
F39 U9 2.328794 1_555
F39 K1 3.104210 1_565
F40 U10 2.328787 1_555
F40 U3 2.328794 1_555
F40 K0 3.104210 1_655
F41 U6 2.328787 1_555
F41 U2 2.328794 1_555
F41 K1 3.104210 1_565
F42 U11 2.328787 1_555
F42 U5 2.328794 1_555
F42 K1 3.104210 1_455
F43 U8 2.328787 1_555
F43 U4 2.328794 1_555
F43 K0 3.104210 1_545
F44 U3 2.328788 1_555
F44 U7 2.328788 1_555
F44 K0 3.104216 1_555
F45 U6 2.328787 1_555
F45 U0 2.328794 1_555
F45 K1 3.104210 1_455
F46 U9 2.328788 1_555
F46 U5 2.328788 1_555
F46 K1 3.104216 1_555
F47 U8 2.328787 1_555
F47 U1 2.328794 1_555
F47 K0 3.104210 1_655
F48 U2 2.328788 1_555
F48 U0 2.328788 1_555
F48 K1 3.104216 1_555
F49 U1 2.328788 1_555
F49 U4 2.328788 1_555
F49 K0 3.104216 1_555
