# generated using pymatgen
data_Sr3Ca5Mn8O23
_symmetry_space_group_name_H-M   'P 1'
_cell_length_a   10.92506003
_cell_length_b   15.44892280
_cell_length_c   10.87180682
_cell_angle_alpha   90.17588804
_cell_angle_beta   90.22421629
_cell_angle_gamma   90.05542366
_symmetry_Int_Tables_number   1
_chemical_formula_structural   Sr3Ca5Mn8O23
_chemical_formula_sum   'Sr12 Ca20 Mn32 O92'
_cell_volume   1834.92442470
_cell_formula_units_Z   4
loop_
 _symmetry_equiv_pos_site_id
 _symmetry_equiv_pos_as_xyz
  1  'x, y, z'
loop_
 _atom_site_type_symbol
 _atom_site_label
 _atom_site_symmetry_multiplicity
 _atom_site_fract_x
 _atom_site_fract_y
 _atom_site_fract_z
 _atom_site_occupancy
  Sr  Sr0  1  0.00835673  0.12169873  0.50159051  1
  Sr  Sr1  1  0.00705454  0.12116719  0.99523867  1
  Sr  Sr2  1  0.01124472  0.62573533  0.49872145  1
  Sr  Sr3  1  0.49845623  0.38060187  0.99664048  1
  Sr  Sr4  1  0.48970292  0.38126804  0.50575981  1
  Sr  Sr5  1  0.49070104  0.87162964  0.99294878  1
  Sr  Sr6  1  0.24034217  0.38559249  0.25422100  1
  Sr  Sr7  1  0.23456650  0.37757927  0.74257454  1
  Sr  Sr8  1  0.23242658  0.87155322  0.24312715  1
  Sr  Sr9  1  0.24096062  0.11784494  0.25877749  1
  Sr  Sr10  1  0.26248731  0.12162543  0.74005845  1
  Sr  Sr11  1  0.26397286  0.62773852  0.25168242  1
  Ca  Ca0  1  0.01924093  0.62649207  0.99482158  1
  Ca  Ca1  1  0.52371408  0.13084759  0.50967308  1
  Ca  Ca2  1  0.53068405  0.12146342  0.97246187  1
  Ca  Ca3  1  0.52122969  0.62474843  0.49679613  1
  Ca  Ca4  1  0.51938374  0.62533823  0.99518592  1
  Ca  Ca5  1  0.48256502  0.86546126  0.51866005  1
  Ca  Ca6  1  0.96769358  0.38460466  0.99838488  1
  Ca  Ca7  1  0.97939819  0.37791231  0.50368781  1
  Ca  Ca8  1  0.98004991  0.87230597  0.00566749  1
  Ca  Ca9  1  0.97286760  0.87143424  0.50394920  1
  Ca  Ca10  1  0.22757404  0.87177704  0.75147253  1
  Ca  Ca11  1  0.74564704  0.38688039  0.25004890  1
  Ca  Ca12  1  0.73437871  0.37928018  0.74809601  1
  Ca  Ca13  1  0.74676058  0.86392606  0.25007969  1
  Ca  Ca14  1  0.73264946  0.87223968  0.74624662  1
  Ca  Ca15  1  0.27218394  0.62497426  0.75583321  1
  Ca  Ca16  1  0.77602810  0.11973977  0.25274254  1
  Ca  Ca17  1  0.76948195  0.12394320  0.75608288  1
  Ca  Ca18  1  0.76634313  0.62454379  0.25315346  1
  Ca  Ca19  1  0.76790493  0.62592306  0.75404383  1
  Mn  Mn0  1  0.99545896  0.99511870  0.25111205  1
  Mn  Mn1  1  0.99542877  0.99613906  0.75462579  1
  Mn  Mn2  1  0.99914228  0.50118500  0.24821171  1
  Mn  Mn3  1  0.99948475  0.50129473  0.75046990  1
  Mn  Mn4  1  0.51425063  0.98573531  0.24170616  1
  Mn  Mn5  1  0.50119494  0.99815797  0.74669985  1
  Mn  Mn6  1  0.50209071  0.50519552  0.24911609  1
  Mn  Mn7  1  0.50210780  0.50398511  0.74866646  1
  Mn  Mn8  1  0.25143385  0.00041633  0.99909561  1
  Mn  Mn9  1  0.23609350  0.99117073  0.51047603  1
  Mn  Mn10  1  0.24965541  0.50295193  0.00024709  1
  Mn  Mn11  1  0.24988666  0.50341441  0.50237305  1
  Mn  Mn12  1  0.75221341  0.99727190  0.99768074  1
  Mn  Mn13  1  0.74518424  0.99901867  0.50134159  1
  Mn  Mn14  1  0.74992351  0.50461453  0.00072890  1
  Mn  Mn15  1  0.75054424  0.50132688  0.50089070  1
  Mn  Mn16  1  0.25819543  0.24673632  0.97358415  1
  Mn  Mn17  1  0.25028017  0.25054428  0.49585170  1
  Mn  Mn18  1  0.25084850  0.74955034  0.99698986  1
  Mn  Mn19  1  0.24959922  0.75005550  0.50358640  1
  Mn  Mn20  1  0.75008506  0.24955469  0.99979141  1
  Mn  Mn21  1  0.75229910  0.24941230  0.50587046  1
  Mn  Mn22  1  0.75170074  0.74900497  0.99987137  1
  Mn  Mn23  1  0.74824169  0.74919199  0.50011987  1
  Mn  Mn24  1  0.99061948  0.25284838  0.26031952  1
  Mn  Mn25  1  0.99439916  0.25229681  0.74910278  1
  Mn  Mn26  1  0.99861218  0.74874896  0.24853883  1
  Mn  Mn27  1  0.99976071  0.75044540  0.75157720  1
  Mn  Mn28  1  0.52298893  0.25618858  0.26241264  1
  Mn  Mn29  1  0.50546257  0.25014538  0.74465322  1
  Mn  Mn30  1  0.50292968  0.74761787  0.25073352  1
  Mn  Mn31  1  0.50094025  0.74749104  0.74967218  1
  O  O0  1  0.10331041  0.26296624  0.60594596  1
  O  O1  1  0.10524520  0.76589630  0.10404596  1
  O  O2  1  0.10593048  0.77382523  0.60776675  1
  O  O3  1  0.59551869  0.24805701  0.10751062  1
  O  O4  1  0.60402787  0.26169412  0.60365478  1
  O  O5  1  0.61474344  0.77076007  0.11441522  1
  O  O6  1  0.60833199  0.76444110  0.60562280  1
  O  O7  1  0.39634917  0.22225845  0.36426976  1
  O  O8  1  0.40649888  0.23569751  0.89650116  1
  O  O9  1  0.39678226  0.73172937  0.39706912  1
  O  O10  1  0.39551720  0.72909119  0.89182764  1
  O  O11  1  0.88645085  0.23557044  0.40102865  1
  O  O12  1  0.88862449  0.23791468  0.89458305  1
  O  O13  1  0.88721046  0.73527324  0.38916495  1
  O  O14  1  0.89503899  0.73159583  0.89621796  1
  O  O15  1  0.14535316  0.24407105  0.34682873  1
  O  O16  1  0.13432274  0.23666611  0.85938919  1
  O  O17  1  0.13958710  0.73705746  0.35909196  1
  O  O18  1  0.14660358  0.73256115  0.85129923  1
  O  O19  1  0.64890097  0.21883526  0.35930690  1
  O  O20  1  0.64522137  0.22944784  0.85523708  1
  O  O21  1  0.64510154  0.72842970  0.35676748  1
  O  O22  1  0.64343811  0.72966934  0.85767621  1
  O  O23  1  0.35864523  0.25921854  0.63824425  1
  O  O24  1  0.36333099  0.76520339  0.14021925  1
  O  O25  1  0.35523527  0.76948331  0.64744255  1
  O  O26  1  0.86324568  0.27314386  0.13870489  1
  O  O27  1  0.85137390  0.27225544  0.64480868  1
  O  O28  1  0.85973302  0.76838029  0.13942819  1
  O  O29  1  0.85706480  0.77072721  0.64268373  1
  O  O30  1  0.36226713  0.49143870  0.13890648  1
  O  O31  1  0.35893747  0.48985570  0.64248244  1
  O  O32  1  0.36581838  0.99910323  0.15833138  1
  O  O33  1  0.35551991  0.97907836  0.63988948  1
  O  O34  1  0.85883868  0.48234357  0.13974940  1
  O  O35  1  0.85732782  0.48098544  0.64244965  1
  O  O36  1  0.85457891  0.97991999  0.14375679  1
  O  O37  1  0.85360590  0.97693673  0.64176233  1
  O  O38  1  0.13642120  0.00509654  0.36412257  1
  O  O39  1  0.14205206  0.01552978  0.86050571  1
  O  O40  1  0.14037617  0.51568714  0.35807920  1
  O  O41  1  0.14514424  0.51548900  0.85389326  1
  O  O42  1  0.61877649  0.03139943  0.35928743  1
  O  O43  1  0.64524891  0.01697060  0.85322243  1
  O  O44  1  0.64335338  0.51872182  0.35785154  1
  O  O45  1  0.64305999  0.52208057  0.85871778  1
  O  O46  1  0.39512824  0.01767945  0.89287464  1
  O  O47  1  0.39295157  0.51967746  0.39145282  1
  O  O48  1  0.39334788  0.51588164  0.89151651  1
  O  O49  1  0.87919110  0.01739109  0.38614129  1
  O  O50  1  0.88918510  0.01123252  0.89102661  1
  O  O51  1  0.88850098  0.51301940  0.38927089  1
  O  O52  1  0.89393872  0.51768683  0.89734094  1
  O  O53  1  0.10383042  0.48405013  0.10435692  1
  O  O54  1  0.10414755  0.48226881  0.60687776  1
  O  O55  1  0.10813176  0.98331996  0.11168212  1
  O  O56  1  0.10171189  0.97765183  0.61172064  1
  O  O57  1  0.61505398  0.48720873  0.11304007  1
  O  O58  1  0.61225666  0.48953226  0.60979065  1
  O  O59  1  0.60825347  0.99224916  0.10271452  1
  O  O60  1  0.59855679  0.98358299  0.59793590  1
  O  O61  1  0.00432155  0.37642150  0.27974968  1
  O  O62  1  -0.00006021  0.37717624  0.78666092  1
  O  O63  1  0.99443686  0.87342683  0.28525308  1
  O  O64  1  0.00723480  0.87317702  0.79150960  1
  O  O65  1  0.50089485  0.37709865  0.26794658  1
  O  O66  1  0.51063770  0.37617734  0.77020575  1
  O  O67  1  0.50695753  0.87482157  0.29697563  1
  O  O68  1  0.51370975  0.87327280  0.77177199  1
  O  O69  1  0.49789695  0.12353943  0.71989958  1
  O  O70  1  0.50042556  0.62816181  0.21191907  1
  O  O71  1  0.49219065  0.62633226  0.71276788  1
  O  O72  1  0.99950053  0.12767749  0.22486011  1
  O  O73  1  0.98773985  0.12339955  0.72638552  1
  O  O74  1  0.98905009  0.62506073  0.21456340  1
  O  O75  1  0.98684944  0.62587199  0.72248488  1
  O  O76  1  0.24602655  0.13589573  0.03619967  1
  O  O77  1  0.25999413  0.11460440  0.50627138  1
  O  O78  1  0.23791798  0.62505987  0.02499591  1
  O  O79  1  0.24252993  0.62785885  0.53837776  1
  O  O80  1  0.75269465  0.12337926  0.03374723  1
  O  O81  1  0.74724573  0.12361961  0.54247222  1
  O  O82  1  0.74171114  0.62648634  0.03815145  1
  O  O83  1  0.74763879  0.62580298  0.53698396  1
  O  O84  1  0.25974166  0.37669994  0.47765046  1
  O  O85  1  0.25510752  0.36348893  0.00565303  1
  O  O86  1  0.26871537  0.87552551  0.46746893  1
  O  O87  1  0.25864068  0.87569717  0.97084289  1
  O  O88  1  0.74808179  0.37468467  0.46454874  1
  O  O89  1  0.74365070  0.37600668  0.96781646  1
  O  O90  1  0.75119001  0.87526461  0.46228232  1
  O  O91  1  0.75318550  0.87346276  0.96342280  1
loop_
_geom_bond_atom_site_label_1
_geom_bond_atom_site_label_2
_geom_bond_distance
_geom_bond_site_symmetry_2
Ca0 O14 2.372866 1_455
Ca0 O52 2.407467 1_455
Ca0 O78 2.410337 1_556
Ca0 O74 2.413097 1_456
Ca0 O1 2.627312 1_556
Ca0 O18 2.661628 1_555
Ca0 O53 2.669476 1_556
Ca0 O41 2.680523 1_555
Ca1 O69 2.307070 1_555
Ca1 O4 2.424241 1_555
Ca1 O81 2.469294 1_555
Ca1 O42 2.472468 1_555
Ca1 O19 2.533422 1_555
Ca1 O7 2.535686 1_555
Ca1 O60 2.603114 1_545
Ca1 O77 2.891904 1_555
Ca2 O46 2.342966 1_555
Ca2 O8 2.375294 1_555
Ca2 O43 2.420087 1_555
Ca2 O20 2.448379 1_555
Ca2 O80 2.512936 1_556
Ca2 O3 2.540443 1_556
Ca2 O59 2.592218 1_546
Ca2 O69 2.767971 1_555
Ca3 O71 2.370624 1_555
Ca3 O9 2.399871 1_555
Ca3 O47 2.425327 1_555
Ca3 O83 2.510168 1_555
Ca3 O21 2.596456 1_555
Ca3 O44 2.598039 1_555
Ca3 O58 2.621447 1_555
Ca3 O6 2.633307 1_555
Ca4 O70 2.366446 1_556
Ca4 O10 2.380445 1_555
Ca4 O48 2.448952 1_555
Ca4 O82 2.471689 1_556
Ca4 O45 2.564556 1_555
Ca4 O22 2.587690 1_555
Ca4 O57 2.701577 1_556
Ca4 O5 2.789244 1_556
Ca5 O6 2.284830 1_555
Ca5 O60 2.378250 1_555
Ca5 O86 2.404862 1_555
Ca5 O67 2.430566 1_555
Ca5 O25 2.473451 1_555
Ca5 O33 2.597947 1_555
Ca5 O9 2.619917 1_555
Ca5 O68 2.773663 1_555
Ca5 O90 3.004185 1_555
Ca6 O62 2.332481 1_655
Ca6 O53 2.423019 1_656
Ca6 O34 2.461675 1_556
Ca6 O52 2.468446 1_555
Ca6 O89 2.472240 1_555
Ca6 O26 2.573017 1_556
Ca6 O12 2.669889 1_555
Ca7 O54 2.384933 1_655
Ca7 O61 2.450890 1_655
Ca7 O0 2.495398 1_655
Ca7 O88 2.561488 1_555
Ca7 O35 2.568103 1_555
Ca7 O51 2.626867 1_555
Ca7 O27 2.646183 1_555
Ca7 O11 2.661630 1_555
Ca8 O64 2.348380 1_654
Ca8 O1 2.391835 1_655
Ca8 O55 2.489668 1_655
Ca8 O91 2.519023 1_554
Ca8 O28 2.538810 1_555
Ca8 O36 2.627174 1_555
Ca8 O14 2.641123 1_554
Ca8 O50 2.675103 1_564
Ca9 O2 2.379707 1_655
Ca9 O63 2.390478 1_555
Ca9 O56 2.453113 1_655
Ca9 O90 2.462900 1_555
Ca9 O29 2.514291 1_555
Ca9 O37 2.569720 1_555
Ca9 O13 2.613205 1_555
Ca9 O49 2.790019 1_565
Ca10 O25 2.393204 1_555
Ca10 O87 2.408236 1_555
Ca10 O64 2.448036 1_555
Ca10 O33 2.488894 1_555
Ca10 O2 2.542110 1_555
Ca10 O18 2.569869 1_555
Ca10 O56 2.622560 1_555
Ca10 O39 2.684531 1_565
Ca11 O34 2.271826 1_555
Ca11 O88 2.340226 1_555
Ca11 O26 2.491361 1_555
Ca11 O57 2.580407 1_555
Ca11 O44 2.602142 1_555
Ca11 O65 2.685905 1_555
Ca11 O51 2.912338 1_555
Ca12 O35 2.368822 1_555
Ca12 O27 2.373268 1_555
Ca12 O89 2.391201 1_555
Ca12 O66 2.457546 1_555
Ca12 O58 2.635628 1_555
Ca12 O45 2.702963 1_555
Ca12 O20 2.772130 1_555
Ca12 O4 2.784587 1_555
Ca12 O62 2.930011 1_655
Ca13 O28 2.270142 1_555
Ca13 O90 2.313444 1_555
Ca13 O36 2.440111 1_555
Ca13 O5 2.508690 1_555
Ca13 O21 2.642182 1_555
Ca13 O67 2.676329 1_555
Ca13 O63 2.735021 1_555
Ca13 O13 2.932143 1_555
Ca13 O59 2.965304 1_555
Ca14 O29 2.362187 1_555
Ca14 O91 2.370875 1_555
Ca14 O37 2.381523 1_555
Ca14 O68 2.409115 1_555
Ca14 O6 2.630434 1_555
Ca14 O43 2.694557 1_565
Ca14 O22 2.700045 1_555
Ca14 O60 2.776377 1_555
Ca15 O79 2.385530 1_555
Ca15 O18 2.393129 1_555
Ca15 O41 2.437602 1_555
Ca15 O71 2.450642 1_555
Ca15 O10 2.560155 1_555
Ca15 O31 2.602210 1_555
Ca15 O48 2.602494 1_555
Ca15 O25 2.686373 1_555
Ca16 O19 2.370807 1_555
Ca16 O80 2.394329 1_555
Ca16 O49 2.424552 1_555
Ca16 O72 2.464355 1_555
Ca16 O42 2.485263 1_555
Ca16 O36 2.608082 1_545
Ca16 O11 2.686891 1_555
Ca16 O26 2.843326 1_555
Ca17 O81 2.334049 1_555
Ca17 O20 2.380469 1_555
Ca17 O43 2.388758 1_555
Ca17 O73 2.407511 1_555
Ca17 O50 2.626715 1_555
Ca17 O12 2.650600 1_555
Ca17 O27 2.745060 1_555
Ca17 O37 2.746435 1_545
Ca17 O69 2.991518 1_555
Ca18 O82 2.352140 1_555
Ca18 O21 2.367257 1_555
Ca18 O44 2.406847 1_555
Ca18 O74 2.470620 1_555
Ca18 O13 2.611770 1_555
Ca18 O51 2.635181 1_555
Ca18 O34 2.713804 1_555
Ca18 O28 2.744056 1_555
Ca18 O70 2.938427 1_555
Ca19 O83 2.369329 1_555
Ca19 O22 2.385886 1_555
Ca19 O45 2.397523 1_555
Ca19 O75 2.417793 1_555
Ca19 O14 2.635679 1_555
Ca19 O52 2.668832 1_555
Ca19 O35 2.727067 1_555
Ca19 O29 2.727765 1_555
Mn0 O63 1.917447 1_555
Mn0 O36 1.941602 1_555
Mn0 O55 1.964597 1_655
Mn0 O38 1.971934 1_665
Mn0 O49 1.974661 1_565
Mn0 O72 2.069003 1_565
Mn1 O50 1.900677 1_565
Mn1 O64 1.946992 1_655
Mn1 O56 1.963585 1_655
Mn1 O39 1.990801 1_665
Mn1 O73 1.992598 1_565
Mn1 O37 1.994070 1_555
Mn2 O34 1.951316 1_555
Mn2 O74 1.952638 1_555
Mn2 O53 1.958622 1_655
Mn2 O61 1.959589 1_655
Mn2 O40 1.959848 1_655
Mn2 O51 1.964581 1_555
Mn3 O75 1.954336 1_555
Mn3 O41 1.956662 1_655
Mn3 O62 1.958639 1_655
Mn3 O54 1.960286 1_655
Mn3 O35 1.967780 1_555
Mn3 O52 1.988939 1_555
Mn4 O67 1.819316 1_555
Mn4 O59 1.833331 1_555
Mn4 O42 1.848597 1_565
Mn4 O32 1.866616 1_555
Mn5 O60 1.951815 1_555
Mn5 O68 1.954175 1_555
Mn5 O69 1.960029 1_565
Mn5 O43 1.971109 1_565
Mn5 O33 1.987648 1_555
Mn5 O46 1.992834 1_565
Mn6 O70 1.943564 1_555
Mn6 O30 1.948791 1_555
Mn6 O57 1.949698 1_555
Mn6 O44 1.951029 1_555
Mn6 O47 1.969572 1_555
Mn6 O65 1.990180 1_555
Mn7 O71 1.934231 1_555
Mn7 O58 1.946855 1_555
Mn7 O31 1.952056 1_555
Mn7 O45 1.965625 1_555
Mn7 O48 1.967399 1_555
Mn7 O66 1.991272 1_555
Mn8 O39 1.934262 1_555
Mn8 O87 1.951887 1_545
Mn8 O46 1.970909 1_555
Mn8 O55 2.008785 1_546
Mn8 O76 2.131232 1_556
Mn8 O32 2.131285 1_546
Mn9 O56 1.850419 1_555
Mn9 O86 1.880149 1_555
Mn9 O33 1.924707 1_555
Mn9 O77 1.925167 1_565
Mn9 O38 1.937194 1_565
Mn10 O78 1.909215 1_555
Mn10 O30 1.950716 1_555
Mn10 O41 1.964942 1_554
Mn10 O48 1.979153 1_554
Mn10 O53 1.979834 1_555
Mn10 O85 2.156409 1_555
Mn11 O31 1.942108 1_555
Mn11 O79 1.962585 1_555
Mn11 O84 1.978243 1_555
Mn11 O40 1.978850 1_555
Mn11 O54 1.986989 1_555
Mn11 O47 1.994023 1_555
Mn12 O50 1.909132 1_565
Mn12 O91 1.947566 1_555
Mn12 O59 1.948832 1_556
Mn12 O36 1.958049 1_556
Mn12 O43 1.978389 1_565
Mn12 O80 1.986107 1_566
Mn13 O60 1.933852 1_555
Mn13 O49 1.951481 1_565
Mn13 O90 1.958402 1_555
Mn13 O37 1.959558 1_555
Mn13 O81 1.974956 1_565
Mn13 O42 2.128839 1_565
Mn14 O82 1.927272 1_555
Mn14 O57 1.936393 1_555
Mn14 O52 1.947902 1_554
Mn14 O34 1.951539 1_555
Mn14 O45 1.951559 1_554
Mn14 O89 2.018785 1_554
Mn15 O58 1.931896 1_555
Mn15 O51 1.947300 1_555
Mn15 O35 1.953945 1_555
Mn15 O83 1.961780 1_555
Mn15 O44 1.962359 1_555
Mn15 O88 1.994927 1_555
Mn16 O8 1.834881 1_555
Mn16 O85 1.836405 1_556
Mn16 O16 1.839093 1_555
Mn16 O76 1.849517 1_556
Mn17 O23 1.949396 1_555
Mn17 O84 1.962259 1_555
Mn17 O15 1.983233 1_555
Mn17 O0 2.015392 1_555
Mn17 O77 2.106280 1_555
Mn17 O7 2.190748 1_555
Mn18 O78 1.953186 1_556
Mn18 O18 1.964051 1_555
Mn18 O87 1.972124 1_555
Mn18 O10 1.979384 1_555
Mn18 O1 1.990549 1_556
Mn18 O24 1.993868 1_556
Mn19 O79 1.927999 1_555
Mn19 O25 1.962225 1_555
Mn19 O2 1.973267 1_555
Mn19 O17 1.983798 1_555
Mn19 O86 1.989883 1_555
Mn19 O9 2.005057 1_555
Mn20 O12 1.908999 1_555
Mn20 O20 1.964951 1_555
Mn20 O26 1.980700 1_556
Mn20 O80 1.985247 1_556
Mn20 O89 1.986548 1_555
Mn20 O3 2.058911 1_556
Mn21 O11 1.872200 1_555
Mn21 O27 1.887050 1_555
Mn21 O4 1.950125 1_555
Mn21 O81 1.985639 1_555
Mn21 O88 1.988659 1_555
Mn21 O19 2.004601 1_555
Mn22 O28 1.940908 1_556
Mn22 O82 1.942298 1_556
Mn22 O14 1.951229 1_555
Mn22 O91 1.964403 1_555
Mn22 O22 1.964745 1_555
Mn22 O5 1.978769 1_556
Mn23 O6 1.928799 1_555
Mn23 O21 1.945250 1_555
Mn23 O83 1.949117 1_555
Mn23 O13 1.954426 1_555
Mn23 O29 1.976888 1_555
Mn23 O90 1.992144 1_555
Mn24 O61 1.925697 1_655
Mn24 O11 1.929280 1_555
Mn24 O15 1.936346 1_655
Mn24 O26 1.942136 1_555
Mn24 O72 1.973200 1_555
Mn25 O27 1.952314 1_555
Mn25 O16 1.954720 1_655
Mn25 O0 1.970007 1_655
Mn25 O62 1.971586 1_655
Mn25 O12 1.975423 1_555
Mn25 O73 2.007043 1_555
Mn26 O28 1.946849 1_555
Mn26 O74 1.947736 1_555
Mn26 O17 1.958747 1_655
Mn26 O63 1.966470 1_555
Mn26 O13 1.969274 1_555
Mn26 O1 1.977711 1_655
Mn27 O64 1.945404 1_655
Mn27 O18 1.953073 1_655
Mn27 O75 1.954257 1_555
Mn27 O14 1.970474 1_555
Mn27 O29 1.979611 1_555
Mn27 O2 1.984231 1_655
Mn28 O19 1.824523 1_555
Mn28 O7 1.851862 1_555
Mn28 O3 1.867908 1_555
Mn28 O65 1.884501 1_555
Mn29 O4 1.885585 1_555
Mn29 O66 1.966659 1_555
Mn29 O20 1.966703 1_555
Mn29 O69 1.975141 1_555
Mn29 O23 1.979306 1_555
Mn29 O8 1.989947 1_555
Mn30 O70 1.891983 1_555
Mn30 O21 1.954046 1_555
Mn30 O24 1.957512 1_555
Mn30 O5 1.957815 1_555
Mn30 O9 1.988072 1_555
Mn30 O67 2.027345 1_555
Mn31 O71 1.915304 1_555
Mn31 O10 1.952399 1_555
Mn31 O68 1.962023 1_555
Mn31 O22 1.966386 1_555
Mn31 O25 1.968286 1_555
Mn31 O6 1.978387 1_555
O0 Sr0 2.664117 1_555
O0 Sr7 2.712964 1_555
O1 Sr8 2.616356 1_555
O2 Sr2 2.771078 1_555
O3 Sr3 2.603784 1_554
O4 Sr4 2.472114 1_555
O5 Sr5 2.451828 1_554
O7 Sr9 2.601428 1_555
O7 Sr4 3.066041 1_555
O8 Sr3 2.679195 1_555
O8 Sr10 2.903293 1_555
O9 Sr11 2.673303 1_555
O10 Sr5 2.666615 1_555
O11 Sr0 2.463486 1_655
O12 Sr1 2.475920 1_655
O13 Sr2 2.474424 1_655
O15 Sr9 2.410482 1_555
O15 Sr6 2.624513 1_555
O15 Sr0 2.945992 1_555
O16 Sr10 2.609057 1_555
O16 Sr1 2.706634 1_555
O16 Sr7 2.752208 1_555
O17 Sr11 2.463184 1_555
O17 Sr8 2.637720 1_555
O17 Sr2 2.693729 1_555
O23 Sr7 2.543970 1_555
O23 Sr10 2.620407 1_555
O23 Sr4 2.776240 1_555
O24 Sr8 2.449938 1_555
O24 Sr11 2.679261 1_555
O24 Sr5 2.689298 1_554
O26 Sr1 3.227623 1_654
O30 Sr6 2.457923 1_555
O30 Sr11 2.662556 1_555
O30 Sr3 2.746761 1_554
O31 Sr7 2.461226 1_555
O31 Sr4 2.659054 1_555
O32 Sr9 2.534281 1_565
O32 Sr8 2.621575 1_555
O32 Sr5 2.995864 1_554
O33 Sr10 2.658373 1_565
O36 Sr1 3.190505 1_664
O38 Sr9 2.380910 1_555
O38 Sr8 2.661804 1_545
O38 Sr0 2.727782 1_555
O39 Sr10 2.480924 1_555
O39 Sr1 2.644064 1_555
O40 Sr11 2.485546 1_555
O40 Sr6 2.550889 1_555
O40 Sr2 2.687789 1_555
O41 Sr7 2.637387 1_555
O44 Sr4 3.154060 1_555
O46 Sr5 2.715810 1_545
O46 Sr10 2.727808 1_555
O47 Sr11 2.661761 1_555
O47 Sr4 2.691519 1_555
O48 Sr3 2.646063 1_555
O49 Sr0 2.476442 1_655
O50 Sr1 2.408087 1_655
O51 Sr2 2.493330 1_655
O53 Sr6 2.681994 1_555
O54 Sr7 2.612474 1_555
O54 Sr2 2.708552 1_555
O55 Sr8 2.621459 1_555
O55 Sr1 2.714291 1_564
O55 Sr9 2.989662 1_565
O56 Sr0 2.727130 1_565
O57 Sr3 2.430452 1_554
O58 Sr4 2.416923 1_555
O59 Sr5 2.552561 1_554
O61 Sr6 2.598289 1_555
O62 Sr7 2.609585 1_555
O63 Sr8 2.642015 1_655
O65 Sr4 2.589434 1_555
O65 Sr6 2.853046 1_555
O65 Sr3 2.950267 1_554
O66 Sr3 2.466611 1_555
O66 Sr4 2.884515 1_555
O66 Sr7 3.029952 1_555
O68 Sr5 2.418881 1_555
O69 Sr10 2.582189 1_555
O70 Sr11 2.620855 1_555
O72 Sr1 2.499805 1_654
O72 Sr9 2.666724 1_655
O72 Sr0 3.011440 1_655
O73 Sr0 2.455226 1_655
O73 Sr1 2.930014 1_655
O75 Sr2 2.448300 1_655
O76 Sr9 2.437526 1_555
O76 Sr1 2.656201 1_554
O77 Sr10 2.543707 1_555
O77 Sr9 2.698539 1_555
O77 Sr0 2.751721 1_555
O78 Sr11 2.479984 1_555
O79 Sr2 2.561820 1_555
O80 Sr1 2.812101 1_654
O81 Sr0 2.888955 1_655
O83 Sr2 2.911410 1_655
O84 Sr6 2.441784 1_555
O84 Sr4 2.530562 1_555
O84 Sr7 2.894369 1_555
O85 Sr3 2.673665 1_554
O85 Sr6 2.728251 1_555
O85 Sr7 2.876983 1_554
O86 Sr8 2.470047 1_555
O87 Sr5 2.546557 1_555
O88 Sr4 2.861727 1_555
O89 Sr3 2.699226 1_555
O91 Sr5 2.886938 1_555
