# generated using pymatgen
data_Li3Co2NiO6
_symmetry_space_group_name_H-M   'P 1'
_cell_length_a   2.86113851
_cell_length_b   5.79939959
_cell_length_c   12.64857813
_cell_angle_alpha   77.27661949
_cell_angle_beta   90.04579317
_cell_angle_gamma   90.02403467
_symmetry_Int_Tables_number   1
_chemical_formula_structural   Li3Co2NiO6
_chemical_formula_sum   'Li6 Co4 Ni2 O12'
_cell_volume   204.72276976
_cell_formula_units_Z   2
loop_
 _symmetry_equiv_pos_site_id
 _symmetry_equiv_pos_as_xyz
  1  'x, y, z'
loop_
 _atom_site_type_symbol
 _atom_site_label
 _atom_site_symmetry_multiplicity
 _atom_site_fract_x
 _atom_site_fract_y
 _atom_site_fract_z
 _atom_site_occupancy
  Li  Li0  1  0.49871200  0.66968500  0.15909800  1
  Li  Li1  1  0.99871100  0.16376400  0.67292200  1
  Li  Li2  1  0.49857000  0.98779200  0.50484400  1
  Li  Li3  1  0.99859800  0.49577600  0.99220400  1
  Li  Li4  1  0.99814200  0.83594500  0.33050500  1
  Li  Li5  1  0.49786800  0.33457700  0.83727200  1
  Co  Co0  1  0.49980500  0.49934400  0.49810400  1
  Co  Co1  1  0.99817900  0.99715100  0.99844700  1
  Co  Co2  1  0.99917300  0.33218300  0.33471100  1
  Co  Co3  1  0.49742800  0.83189600  0.83397200  1
  Ni  Ni0  1  0.99813600  0.66429600  0.66657900  1
  Ni  Ni1  1  0.49920600  0.16534700  0.16405700  1
  O  O0  1  0.00026000  0.72398100  0.49567300  1
  O  O1  1  0.49853100  0.22372000  0.99935200  1
  O  O2  1  0.49929000  0.11323900  0.33670400  1
  O  O3  1  0.99633000  0.60707100  0.83259700  1
  O  O4  1  0.99918700  0.40158900  0.18409400  1
  O  O5  1  0.49565600  0.90033900  0.67688100  1
  O  O6  1  0.99917100  0.92563400  0.15685400  1
  O  O7  1  0.50063500  0.43112500  0.65230200  1
  O  O8  1  0.49951200  0.55023400  0.34024400  1
  O  O9  1  0.99774200  0.05514200  0.84153100  1
  O  O10  1  0.99955600  0.27666500  0.48897700  1
  O  O11  1  0.49782600  0.77351400  0.99085400  1
loop_
_geom_bond_atom_site_label_1
_geom_bond_atom_site_label_2
_geom_bond_distance
_geom_bond_site_symmetry_2
Li0 O6 2.056704 1_455
Li0 O6 2.057696 1_555
Li0 O11 2.080078 1_554
Li0 O4 2.083823 1_455
Li0 O4 2.086236 1_555
Li0 O8 2.242879 1_555
Li1 O5 2.079904 1_645
Li1 O7 2.079931 1_555
Li1 O9 2.086462 1_555
Li1 O7 2.086884 1_655
Li1 O5 2.091072 1_545
Li1 O10 2.273973 1_555
Li2 O2 2.090632 1_565
Li2 O0 2.112578 1_555
Li2 O0 2.120108 1_655
Li2 O5 2.122797 1_555
Li2 O10 2.176875 1_465
Li2 O10 2.179868 1_565
Li3 O3 1.979448 1_555
Li3 O1 2.116615 1_555
Li3 O1 2.117153 1_655
Li3 O11 2.149627 1_655
Li3 O11 2.153445 1_555
Li3 O4 2.367565 1_556
Li4 O0 2.046610 1_655
Li4 O6 2.142817 1_555
Li4 O2 2.164959 1_565
Li4 O2 2.168323 1_665
Li4 O8 2.168959 1_555
Li4 O8 2.174909 1_655
Li5 O1 2.008878 1_555
Li5 O3 2.119408 1_555
Li5 O3 2.126168 1_455
Li5 O9 2.153227 1_455
Li5 O9 2.153594 1_555
Li5 O7 2.282614 1_555
Co0 O7 1.902796 1_555
Co0 O0 1.929969 1_555
Co0 O0 1.931125 1_655
Co0 O10 1.947569 1_555
Co0 O10 1.947685 1_455
Co0 O8 1.953037 1_555
Co1 O9 1.938651 1_565
Co1 O1 1.943839 1_565
Co1 O1 1.944496 1_665
Co1 O11 1.947206 1_655
Co1 O11 1.947778 1_555
Co1 O6 1.954604 1_556
Co2 O4 1.858389 1_555
Co2 O10 1.906381 1_555
Co2 O2 1.908636 1_555
Co2 O2 1.909905 1_655
Co2 O8 1.920530 1_555
Co2 O8 1.921101 1_655
Co3 O3 1.936354 1_555
Co3 O11 1.938110 1_555
Co3 O5 1.938617 1_555
Co3 O3 1.940164 1_455
Co3 O9 1.945669 1_465
Co3 O9 1.946079 1_565
Ni0 O7 1.998213 1_555
Ni0 O5 1.998451 1_655
Ni0 O7 2.009439 1_655
Ni0 O5 2.009550 1_555
Ni0 O3 2.052499 1_555
Ni0 O0 2.112651 1_655
Ni1 O6 2.010388 1_445
Ni1 O6 2.011179 1_545
Ni1 O4 2.034306 1_555
Ni1 O4 2.035475 1_455
Ni1 O1 2.035686 1_554
Ni1 O2 2.137604 1_555
