# generated using pymatgen
data_AsCClO2F3
_symmetry_space_group_name_H-M   'P 1'
_cell_length_a   9.67001500
_cell_length_b   5.36937900
_cell_length_c   12.80867636
_cell_angle_alpha   66.16618893
_cell_angle_beta   90.00000000
_cell_angle_gamma   90.00000000
_symmetry_Int_Tables_number   1
_chemical_formula_structural   AsCClO2F3
_chemical_formula_sum   'As4 C4 Cl4 O8 F12'
_cell_volume   608.33707575
_cell_formula_units_Z   4
loop_
 _symmetry_equiv_pos_site_id
 _symmetry_equiv_pos_as_xyz
  1  'x, y, z'
loop_
 _atom_site_type_symbol
 _atom_site_label
 _atom_site_symmetry_multiplicity
 _atom_site_fract_x
 _atom_site_fract_y
 _atom_site_fract_z
 _atom_site_occupancy
  As  As0  1  0.37349700  0.60966000  0.45815700  1
  As  As1  1  0.12650300  0.60966000  0.95815700  1
  As  As2  1  0.62650300  0.39034000  0.54184300  1
  As  As3  1  0.87349700  0.39034000  0.04184300  1
  C  C0  1  0.39041800  0.90695700  0.29244700  1
  C  C1  1  0.10958200  0.90695700  0.79244700  1
  C  C2  1  0.60958200  0.09304300  0.70755300  1
  C  C3  1  0.89041800  0.09304300  0.20755300  1
  Cl  Cl0  1  0.16135700  0.44549800  0.43133900  1
  Cl  Cl1  1  0.33864300  0.44549800  0.93133900  1
  Cl  Cl2  1  0.83864300  0.55450200  0.56866100  1
  Cl  Cl3  1  0.66135700  0.55450200  0.06866100  1
  O  O0  1  0.26394400  0.66386700  0.55341800  1
  O  O1  1  0.23605600  0.66386700  0.05341800  1
  O  O2  1  0.73605600  0.33613300  0.44658200  1
  O  O3  1  0.76394400  0.33613300  0.94658200  1
  O  O4  1  0.54101100  0.70813000  0.50838100  1
  O  O5  1  0.95898900  0.70813000  0.00838100  1
  O  O6  1  0.45898900  0.29187000  0.49161900  1
  O  O7  1  0.04101100  0.29187000  0.99161900  1
  F  F0  1  0.44666900  0.12789100  0.30008600  1
  F  F1  1  0.05333100  0.12789100  0.80008600  1
  F  F2  1  0.55333100  0.87210900  0.69991400  1
  F  F3  1  0.94666900  0.87210900  0.19991400  1
  F  F4  1  0.47335600  0.81530500  0.23106100  1
  F  F5  1  0.02664400  0.81530500  0.73106100  1
  F  F6  1  0.52664400  0.18469500  0.76893900  1
  F  F7  1  0.97335600  0.18469500  0.26893900  1
  F  F8  1  0.26584000  0.97002900  0.24265100  1
  F  F9  1  0.23416000  0.97002900  0.74265100  1
  F  F10  1  0.73416000  0.02997100  0.75734900  1
  F  F11  1  0.76584000  0.02997100  0.25734900  1
loop_
_geom_bond_atom_site_label_1
_geom_bond_atom_site_label_2
_geom_bond_distance
_geom_bond_site_symmetry_2
As0 O0 1.727084 1_555
As0 O6 1.785407 1_555
As0 O4 1.895316 1_555
As0 C0 2.083706 1_555
As0 Cl0 2.312547 1_555
As1 O1 1.727084 1_556
As1 O7 1.785407 1_555
As1 O5 1.895316 1_456
As1 C1 2.083706 1_555
As1 Cl1 2.312547 1_555
As2 O2 1.727084 1_555
As2 O4 1.785407 1_555
As2 O6 1.895316 1_555
As2 C2 2.083706 1_555
As2 Cl2 2.312547 1_555
As3 O3 1.727084 1_554
As3 O5 1.785407 1_555
As3 O7 1.895316 1_654
As3 C3 2.083706 1_555
As3 Cl3 2.312547 1_555
C0 F8 1.340959 1_555
C0 F0 1.344067 1_565
C0 F4 1.347715 1_555
C1 F9 1.340959 1_555
C1 F1 1.344067 1_565
C1 F5 1.347715 1_555
C2 F10 1.340959 1_555
C2 F2 1.344067 1_545
C2 F6 1.347715 1_555
C3 F11 1.340959 1_555
C3 F3 1.344067 1_545
C3 F7 1.347715 1_555
