# generated using pymatgen
data_Rb3CrF6
_symmetry_space_group_name_H-M   'P 1'
_cell_length_a   8.49843970
_cell_length_b   7.02706608
_cell_length_c   7.04283247
_cell_angle_alpha   77.92041715
_cell_angle_beta   110.81897406
_cell_angle_gamma   127.50488303
_symmetry_Int_Tables_number   1
_chemical_formula_structural   Rb3CrF6
_chemical_formula_sum   'Rb3 Cr1 F6'
_cell_volume   311.85650481
_cell_formula_units_Z   1
loop_
 _symmetry_equiv_pos_site_id
 _symmetry_equiv_pos_as_xyz
  1  'x, y, z'
loop_
 _atom_site_type_symbol
 _atom_site_label
 _atom_site_symmetry_multiplicity
 _atom_site_fract_x
 _atom_site_fract_y
 _atom_site_fract_z
 _atom_site_occupancy
  Rb  Rb0  1  0.00000000  0.00000000  0.50000000  1
  Rb  Rb1  1  0.50000000  0.50000000  0.00000000  1
  Rb  Rb2  1  0.00000000  0.50000000  0.00000000  1
  Cr  Cr0  1  0.00000000  0.00000000  0.00000000  1
  F  F0  1  0.04646100  0.25109700  0.79744500  1
  F  F1  1  0.95353900  0.74890300  0.20255500  1
  F  F2  1  0.79482100  0.74504400  0.79500700  1
  F  F3  1  0.20517900  0.25495600  0.20499300  1
  F  F4  1  0.78701800  0.99732000  0.05514600  1
  F  F5  1  0.21298200  0.00268000  0.94485400  1
loop_
_geom_bond_atom_site_label_1
_geom_bond_atom_site_label_2
_geom_bond_distance
_geom_bond_site_symmetry_2
Cr0 F1 1.950099 1_445
Cr0 F0 1.950099 1_554
Cr0 F2 1.955454 1_444
Cr0 F3 1.955454 1_555
Cr0 F4 1.970402 1_445
Cr0 F5 1.970402 1_554
F0 Rb2 2.745144 1_556
F0 Rb0 2.787195 1_555
F0 Rb1 2.979498 1_556
F1 Rb2 2.745144 1_655
F1 Rb0 2.787195 1_665
F1 Rb1 2.979498 1_555
F2 Rb1 2.757616 1_556
F2 Rb0 2.789336 1_665
F2 Rb2 2.985973 1_656
F3 Rb1 2.757616 1_555
F3 Rb0 2.789336 1_555
F3 Rb2 2.985973 1_555
F4 Rb1 2.797945 1_555
F4 Rb2 2.836343 1_665
F4 Rb0 3.007419 1_665
F5 Rb1 2.797945 1_556
F5 Rb2 2.836343 1_546
F5 Rb0 3.007419 1_555
