# generated using pymatgen
data_SrV2O6
_symmetry_space_group_name_H-M   'P 1'
_cell_length_a   3.64999218
_cell_length_b   9.73434886
_cell_length_c   12.65984199
_cell_angle_alpha   89.99022426
_cell_angle_beta   89.99999908
_cell_angle_gamma   90.00001105
_symmetry_Int_Tables_number   1
_chemical_formula_structural   SrV2O6
_chemical_formula_sum   'Sr4 V8 O24'
_cell_volume   449.80794172
_cell_formula_units_Z   4
loop_
 _symmetry_equiv_pos_site_id
 _symmetry_equiv_pos_as_xyz
  1  'x, y, z'
loop_
 _atom_site_type_symbol
 _atom_site_label
 _atom_site_symmetry_multiplicity
 _atom_site_fract_x
 _atom_site_fract_y
 _atom_site_fract_z
 _atom_site_occupancy
  Sr  Sr0  1  0.24999742  0.13140784  0.11893696  1
  Sr  Sr1  1  0.74999924  0.86859199  0.88106316  1
  Sr  Sr2  1  0.24999934  0.63142335  0.38114760  1
  Sr  Sr3  1  0.74999951  0.36857677  0.61885267  1
  V  V0  1  0.25000033  0.74212108  0.09117971  1
  V  V1  1  0.74999945  0.25787903  0.90882055  1
  V  V2  1  0.25000015  0.24208870  0.40896831  1
  V  V3  1  0.74999988  0.75791122  0.59103182  1
  V  V4  1  0.24999937  0.50402314  0.87135406  1
  V  V5  1  0.74999956  0.49597668  0.12864615  1
  V  V6  1  0.74999929  0.99593576  0.37162459  1
  V  V7  1  0.24999951  0.00406431  0.62837565  1
  O  O0  1  0.25000041  0.89424922  0.02469817  1
  O  O1  1  0.74999964  0.10575075  0.97530193  1
  O  O2  1  0.25000030  0.39430899  0.47524899  1
  O  O3  1  0.75000013  0.60569089  0.52475096  1
  O  O4  1  0.25000064  0.77922754  0.21618449  1
  O  O5  1  0.74999992  0.22077237  0.78381540  1
  O  O6  1  0.25000042  0.27900393  0.28390378  1
  O  O7  1  0.74999997  0.72099581  0.71609616  1
  O  O8  1  0.25000037  0.53227180  0.09183330  1
  O  O9  1  0.74999996  0.46772807  0.90816695  1
  O  O10  1  0.25000020  0.03217180  0.40847245  1
  O  O11  1  0.75000019  0.96782815  0.59152780  1
  O  O12  1  0.75000046  0.82614740  0.39438522  1
  O  O13  1  0.25000061  0.17385266  0.60561501  1
  O  O14  1  0.75000019  0.32624670  0.10573844  1
  O  O15  1  0.25000058  0.67375317  0.89426198  1
  O  O16  1  0.74999978  0.02457823  0.24254774  1
  O  O17  1  0.25000010  0.97542174  0.75745264  1
  O  O18  1  0.25000016  0.30803934  0.93216249  1
  O  O19  1  0.25000000  0.47552320  0.74227459  1
  O  O20  1  0.75000028  0.19198786  0.43228926  1
  O  O21  1  0.25000021  0.80801221  0.56771086  1
  O  O22  1  0.75000032  0.69196053  0.06783759  1
  O  O23  1  0.75000009  0.52447680  0.25772558  1
loop_
_geom_bond_atom_site_label_1
_geom_bond_atom_site_label_2
_geom_bond_distance
_geom_bond_site_symmetry_2
O0 V0 1.703207 1_555
O0 Sr1 2.588377 1_554
O0 Sr1 2.588383 1_454
O0 Sr0 2.598820 1_565
O1 V1 1.703207 1_555
O1 Sr0 2.588374 1_656
O1 Sr0 2.588386 1_556
O1 Sr1 2.598821 1_545
O2 V2 1.702982 1_555
O2 Sr3 2.588110 1_555
O2 Sr3 2.588114 1_455
O2 Sr2 2.597278 1_555
O3 V3 1.702983 1_555
O3 Sr2 2.588107 1_655
O3 Sr2 2.588111 1_555
O3 Sr3 2.597278 1_555
O4 V0 1.623299 1_555
O4 Sr2 2.535843 1_555
O5 V1 1.623304 1_555
O5 Sr3 2.535840 1_555
O6 V2 1.623504 1_555
O6 Sr0 2.535137 1_555
O7 V3 1.623502 1_555
O7 Sr1 2.535139 1_555
O8 V5 1.916395 1_555
O8 V5 1.916400 1_455
O8 V0 2.042761 1_555
O9 V4 1.916396 1_655
O9 V4 1.916400 1_555
O9 V1 2.042759 1_555
O10 V6 1.916426 1_545
O10 V6 1.916432 1_445
O10 V2 2.043415 1_555
O11 V7 1.916427 1_665
O11 V7 1.916431 1_565
O11 V3 2.043415 1_555
O12 V6 1.677660 1_555
O12 Sr2 2.636618 1_655
O12 Sr2 2.636623 1_555
O13 V7 1.677660 1_555
O13 Sr3 2.636618 1_555
O13 Sr3 2.636624 1_455
O14 V5 1.677519 1_555
O14 Sr0 2.637345 1_655
O14 Sr0 2.637359 1_555
O15 V4 1.677520 1_555
O15 Sr1 2.637348 1_555
O15 Sr1 2.637356 1_455
O16 V6 1.657661 1_545
O16 Sr0 2.619225 1_655
O16 Sr0 2.619237 1_555
O17 V7 1.657663 1_565
O17 Sr1 2.619228 1_555
O17 Sr1 2.619232 1_455
O18 V1 1.912169 1_555
O18 V1 1.912174 1_455
O18 V4 2.057118 1_555
O18 Sr0 2.923346 1_556
O19 V4 1.657555 1_555
O19 Sr3 2.618466 1_555
O19 Sr3 2.618469 1_455
O20 V2 1.911956 1_655
O20 V2 1.911957 1_555
O20 V6 2.057298 1_545
O20 Sr3 2.921416 1_555
O21 V3 1.911956 1_555
O21 V3 1.911958 1_455
O21 V7 2.057298 1_565
O21 Sr2 2.921414 1_555
O22 V0 1.912172 1_655
O22 V0 1.912172 1_555
O22 V5 2.057119 1_555
O22 Sr1 2.923345 1_554
O23 V5 1.657555 1_555
O23 Sr2 2.618467 1_655
O23 Sr2 2.618471 1_555
