# generated using pymatgen
data_BaSr3Cu8(BO3)8
_symmetry_space_group_name_H-M   'P 1'
_cell_length_a   7.05987800
_cell_length_b   9.08960800
_cell_length_c   9.10371800
_cell_angle_alpha   90.00000000
_cell_angle_beta   90.00000000
_cell_angle_gamma   90.00000000
_symmetry_Int_Tables_number   1
_chemical_formula_structural   BaSr3Cu8(BO3)8
_chemical_formula_sum   'Ba1 Sr3 Cu8 B8 O24'
_cell_volume   584.19945401
_cell_formula_units_Z   1
loop_
 _symmetry_equiv_pos_site_id
 _symmetry_equiv_pos_as_xyz
  1  'x, y, z'
loop_
 _atom_site_type_symbol
 _atom_site_label
 _atom_site_symmetry_multiplicity
 _atom_site_fract_x
 _atom_site_fract_y
 _atom_site_fract_z
 _atom_site_occupancy
  Ba  Ba0  1  0.50000000  0.50000000  0.00000000  1
  Sr  Sr0  1  0.50000000  0.00000000  0.50000000  1
  Sr  Sr1  1  0.00000000  0.50000000  0.00000000  1
  Sr  Sr2  1  0.00000000  0.00000000  0.50000000  1
  Cu  Cu0  1  0.21964100  0.38276500  0.38425700  1
  Cu  Cu1  1  0.72404700  0.88648900  0.88474900  1
  Cu  Cu2  1  0.21964100  0.61723500  0.61574300  1
  Cu  Cu3  1  0.72404700  0.11351100  0.11525100  1
  Cu  Cu4  1  0.78035900  0.61723500  0.38425700  1
  Cu  Cu5  1  0.27595300  0.11351100  0.88474900  1
  Cu  Cu6  1  0.27595300  0.88648900  0.11525100  1
  Cu  Cu7  1  0.78035900  0.38276500  0.61574300  1
  B  B0  1  0.76128000  0.70468100  0.70140900  1
  B  B1  1  0.25440000  0.20231700  0.20469400  1
  B  B2  1  0.76128000  0.29531900  0.29859100  1
  B  B3  1  0.25440000  0.79768300  0.79530600  1
  B  B4  1  0.74560000  0.79768300  0.20469400  1
  B  B5  1  0.23872000  0.29531900  0.70140900  1
  B  B6  1  0.74560000  0.20231700  0.79530600  1
  B  B7  1  0.23872000  0.70468100  0.29859100  1
  O  O0  1  0.74274700  0.85355500  0.66920000  1
  O  O1  1  0.23405900  0.35094100  0.17220300  1
  O  O2  1  0.74274700  0.14644500  0.33080000  1
  O  O3  1  0.23405900  0.64905900  0.82779700  1
  O  O4  1  0.25725300  0.14644500  0.66920000  1
  O  O5  1  0.76594100  0.64905900  0.17220300  1
  O  O6  1  0.25725300  0.85355500  0.33080000  1
  O  O7  1  0.76594100  0.35094100  0.82779700  1
  O  O8  1  0.75694500  0.83129500  0.35361800  1
  O  O9  1  0.24668500  0.32599800  0.85068500  1
  O  O10  1  0.75694500  0.16870500  0.64638200  1
  O  O11  1  0.24668500  0.67400200  0.14931500  1
  O  O12  1  0.24305500  0.16870500  0.35361800  1
  O  O13  1  0.75331500  0.67400200  0.85068500  1
  O  O14  1  0.24305500  0.83129500  0.64638200  1
  O  O15  1  0.75331500  0.32599800  0.14931500  1
  O  O16  1  0.78725800  0.59745400  0.59637100  1
  O  O17  1  0.28948300  0.09891700  0.09881300  1
  O  O18  1  0.78725800  0.40254600  0.40362900  1
  O  O19  1  0.28948300  0.90108300  0.90118700  1
  O  O20  1  0.71051700  0.90108300  0.09881300  1
  O  O21  1  0.21274200  0.40254600  0.59637100  1
  O  O22  1  0.71051700  0.09891700  0.90118700  1
  O  O23  1  0.21274200  0.59745400  0.40362900  1
loop_
_geom_bond_atom_site_label_1
_geom_bond_atom_site_label_2
_geom_bond_distance
_geom_bond_site_symmetry_2
Ba0 O15 2.747276 1_555
Ba0 O11 2.747276 1_555
Ba0 O13 2.747276 1_554
Ba0 O9 2.747276 1_554
Ba0 O3 2.796143 1_554
Ba0 O5 2.796143 1_555
Ba0 O7 2.796143 1_554
Ba0 O1 2.796143 1_555
Cu0 O21 1.939990 1_555
Cu0 O1 1.954684 1_555
Cu0 O23 1.959997 1_555
Cu0 O12 1.972551 1_555
Cu1 O22 1.939032 1_565
Cu1 O20 1.955622 1_556
Cu1 O13 1.967043 1_555
Cu1 O0 1.989385 1_555
Cu2 O23 1.939990 1_555
Cu2 O3 1.954684 1_555
Cu2 O21 1.959997 1_555
Cu2 O14 1.972551 1_555
Cu3 O20 1.939032 1_545
Cu3 O22 1.955622 1_554
Cu3 O15 1.967043 1_555
Cu3 O2 1.989385 1_555
Cu4 O16 1.939990 1_555
Cu4 O5 1.954684 1_555
Cu4 O18 1.959997 1_555
Cu4 O8 1.972551 1_555
Cu5 O19 1.939032 1_545
Cu5 O17 1.955622 1_556
Cu5 O9 1.967043 1_555
Cu5 O4 1.989385 1_555
Cu6 O17 1.939032 1_565
Cu6 O19 1.955622 1_554
Cu6 O11 1.967043 1_555
Cu6 O6 1.989385 1_555
Cu7 O18 1.939990 1_555
Cu7 O7 1.954684 1_555
Cu7 O16 1.959997 1_555
Cu7 O10 1.972551 1_555
B0 O16 1.377668 1_555
B0 O13 1.388422 1_555
B0 O0 1.390779 1_555
B1 O17 1.368874 1_555
B1 O1 1.390373 1_555
B1 O12 1.392066 1_555
B2 O18 1.377668 1_555
B2 O15 1.388422 1_555
B2 O2 1.390779 1_555
B3 O19 1.368874 1_555
B3 O3 1.390373 1_555
B3 O14 1.392066 1_555
B4 O20 1.368874 1_555
B4 O5 1.390373 1_555
B4 O8 1.392066 1_555
B5 O21 1.377668 1_555
B5 O9 1.388422 1_555
B5 O4 1.390779 1_555
B6 O22 1.368874 1_555
B6 O7 1.390373 1_555
B6 O10 1.392066 1_555
B7 O23 1.377668 1_555
B7 O11 1.388422 1_555
B7 O6 1.390779 1_555
O0 Sr0 2.661121 1_565
O0 Sr2 2.728198 1_665
O1 Sr1 2.650261 1_555
O2 Sr0 2.661121 1_555
O2 Sr2 2.728198 1_655
O3 Sr1 2.650261 1_556
O4 Sr0 2.661121 1_555
O4 Sr2 2.728198 1_555
O5 Sr1 2.650261 1_655
O6 Sr0 2.661121 1_565
O6 Sr2 2.728198 1_565
O7 Sr1 2.650261 1_656
O8 Sr2 2.659291 1_665
O8 Sr0 2.723597 1_565
O9 Sr1 2.717038 1_556
O10 Sr2 2.659291 1_655
O10 Sr0 2.723597 1_555
O11 Sr1 2.717038 1_555
O12 Sr2 2.659291 1_555
O12 Sr0 2.723597 1_555
O13 Sr1 2.717038 1_656
O14 Sr2 2.659291 1_565
O14 Sr0 2.723597 1_565
O15 Sr1 2.717038 1_655
