# generated using pymatgen
data_Re2Rh2O5
_symmetry_space_group_name_H-M   'P 1'
_cell_length_a   3.66729600
_cell_length_b   3.66729600
_cell_length_c   7.67490500
_cell_angle_alpha   90.00000000
_cell_angle_beta   90.00000000
_cell_angle_gamma   90.00000000
_symmetry_Int_Tables_number   1
_chemical_formula_structural   Re2Rh2O5
_chemical_formula_sum   'Re2 Rh2 O5'
_cell_volume   103.22025747
_cell_formula_units_Z   1
loop_
 _symmetry_equiv_pos_site_id
 _symmetry_equiv_pos_as_xyz
  1  'x, y, z'
loop_
 _atom_site_type_symbol
 _atom_site_label
 _atom_site_symmetry_multiplicity
 _atom_site_fract_x
 _atom_site_fract_y
 _atom_site_fract_z
 _atom_site_occupancy
  Re  Re0  1  0.50000000  0.50000000  0.16517100  1
  Re  Re1  1  0.50000000  0.50000000  0.83482900  1
  Rh  Rh0  1  0.00000000  0.00000000  0.00000000  1
  Rh  Rh1  1  0.00000000  0.00000000  0.50000000  1
  O  O0  1  0.50000000  0.00000000  0.25092300  1
  O  O1  1  0.50000000  0.00000000  0.74907700  1
  O  O2  1  0.00000000  0.50000000  0.25092300  1
  O  O3  1  0.00000000  0.50000000  0.74907700  1
  O  O4  1  0.50000000  0.50000000  0.50000000  1
loop_
_geom_bond_atom_site_label_1
_geom_bond_atom_site_label_2
_geom_bond_distance
_geom_bond_site_symmetry_2
O0 Re0 1.948182 1_545
O0 Re0 1.948182 1_555
O0 Rh1 2.648894 1_555
O0 Rh1 2.648894 1_655
O0 Rh0 2.659137 1_555
O0 Rh0 2.659137 1_655
O1 Re1 1.948182 1_555
O1 Re1 1.948182 1_545
O1 Rh1 2.648894 1_555
O1 Rh1 2.648894 1_655
O1 Rh0 2.659137 1_556
O1 Rh0 2.659137 1_656
O2 Re0 1.948182 1_455
O2 Re0 1.948182 1_555
O2 Rh1 2.648894 1_555
O2 Rh1 2.648894 1_565
O2 Rh0 2.659137 1_555
O2 Rh0 2.659137 1_565
O3 Re1 1.948182 1_455
O3 Re1 1.948182 1_555
O3 Rh1 2.648894 1_555
O3 Rh1 2.648894 1_565
O3 Rh0 2.659137 1_556
O3 Rh0 2.659137 1_566
O4 Re1 2.569781 1_555
O4 Re0 2.569781 1_555
O4 Rh1 2.593170 1_665
O4 Rh1 2.593170 1_555
O4 Rh1 2.593170 1_655
O4 Rh1 2.593170 1_565
