# generated using pymatgen
data_CsGdCdTe3
_symmetry_space_group_name_H-M   'P 1'
_cell_length_a   8.83970524
_cell_length_b   8.83970524
_cell_length_c   11.97362600
_cell_angle_alpha   90.00000000
_cell_angle_beta   90.00000000
_cell_angle_gamma   149.71678645
_symmetry_Int_Tables_number   1
_chemical_formula_structural   CsGdCdTe3
_chemical_formula_sum   'Cs2 Gd2 Cd2 Te6'
_cell_volume   471.81135514
_cell_formula_units_Z   2
loop_
 _symmetry_equiv_pos_site_id
 _symmetry_equiv_pos_as_xyz
  1  'x, y, z'
loop_
 _atom_site_type_symbol
 _atom_site_label
 _atom_site_symmetry_multiplicity
 _atom_site_fract_x
 _atom_site_fract_y
 _atom_site_fract_z
 _atom_site_occupancy
  Cs  Cs0  1  0.25212700  0.74787300  0.25000000  1
  Cs  Cs1  1  0.74787300  0.25212700  0.75000000  1
  Gd  Gd0  1  0.00000000  0.00000000  0.00000000  1
  Gd  Gd1  1  0.00000000  0.00000000  0.50000000  1
  Cd  Cd0  1  0.54030300  0.45969700  0.25000000  1
  Cd  Cd1  1  0.45969700  0.54030300  0.75000000  1
  Te  Te0  1  0.62279700  0.37720300  0.04686800  1
  Te  Te1  1  0.37720300  0.62279700  0.95313200  1
  Te  Te2  1  0.62279700  0.37720300  0.45313200  1
  Te  Te3  1  0.37720300  0.62279700  0.54686800  1
  Te  Te4  1  0.93656800  0.06343200  0.25000000  1
  Te  Te5  1  0.06343200  0.93656800  0.75000000  1
loop_
_geom_bond_atom_site_label_1
_geom_bond_atom_site_label_2
_geom_bond_distance
_geom_bond_site_symmetry_2
Cs0 Te4 3.903690 1_455
Cs0 Te4 3.903690 1_565
Cs0 Te0 4.014773 1_565
Cs0 Te2 4.014773 1_565
Cs0 Te0 4.014773 1_455
Cs0 Te2 4.014773 1_455
Cs0 Te3 4.146225 1_555
Cs0 Te1 4.146225 1_554
Cs1 Te5 3.903690 1_545
Cs1 Te5 3.903690 1_655
Cs1 Te1 4.014773 1_655
Cs1 Te3 4.014773 1_545
Cs1 Te1 4.014773 1_545
Cs1 Te3 4.014773 1_655
Cs1 Te0 4.146225 1_556
Cs1 Te2 4.146225 1_555
Gd0 Te0 3.168263 1_555
Gd0 Te1 3.168263 1_444
Gd0 Te1 3.168263 1_554
Gd0 Te0 3.168263 1_445
Gd0 Te5 3.183128 1_544
Gd0 Te4 3.183128 1_455
Gd1 Te2 3.168263 1_555
Gd1 Te3 3.168263 1_445
Gd1 Te3 3.168263 1_555
Gd1 Te2 3.168263 1_445
Gd1 Te5 3.183128 1_545
Gd1 Te4 3.183128 1_455
Cd0 Te0 2.810278 1_555
Cd0 Te2 2.810278 1_555
Cd0 Te4 2.909530 1_455
Cd0 Te4 2.909530 1_565
Cd1 Te3 2.810278 1_555
Cd1 Te1 2.810278 1_555
Cd1 Te5 2.909530 1_655
Cd1 Te5 2.909530 1_545
