# generated using pymatgen
data_LiNbPO5
_symmetry_space_group_name_H-M   'P 1'
_cell_length_a   7.62012304
_cell_length_b   7.62012304
_cell_length_c   10.89639297
_cell_angle_alpha   68.02647271
_cell_angle_beta   68.02647271
_cell_angle_gamma   41.80194057
_symmetry_Int_Tables_number   1
_chemical_formula_structural   LiNbPO5
_chemical_formula_sum   'Li4 Nb4 P4 O20'
_cell_volume   386.43246856
_cell_formula_units_Z   4
loop_
 _symmetry_equiv_pos_site_id
 _symmetry_equiv_pos_as_xyz
  1  'x, y, z'
loop_
 _atom_site_type_symbol
 _atom_site_label
 _atom_site_symmetry_multiplicity
 _atom_site_fract_x
 _atom_site_fract_y
 _atom_site_fract_z
 _atom_site_occupancy
  Li  Li0  1  0.50174800  0.99861500  0.24921300  1
  Li  Li1  1  0.50011700  0.49221100  0.25203400  1
  Li  Li2  1  0.50778900  0.49988300  0.74796600  1
  Li  Li3  1  0.00138500  0.49825200  0.75078700  1
  Nb  Nb0  1  0.50186000  0.49814000  0.50000000  1
  Nb  Nb1  1  0.99813400  0.49354300  0.25165500  1
  Nb  Nb2  1  0.50255500  0.49744500  0.00000000  1
  Nb  Nb3  1  0.50645700  0.00186600  0.74834500  1
  P  P0  1  0.87601900  0.86888400  0.43986100  1
  P  P1  1  0.12155300  0.12025400  0.06337500  1
  P  P2  1  0.87974600  0.87844700  0.93662500  1
  P  P3  1  0.13111600  0.12398100  0.56013900  1
  O  O0  1  0.19659000  0.18559800  0.41010100  1
  O  O1  1  0.82094600  0.79681200  0.35350700  1
  O  O2  1  0.17858600  0.70317700  0.40888500  1
  O  O3  1  0.33472000  0.40696600  0.16822500  1
  O  O4  1  0.70247200  0.17128400  0.40535800  1
  O  O5  1  0.66370900  0.57952000  0.33459300  1
  O  O6  1  0.80109800  0.80126400  0.09186800  1
  O  O7  1  0.17869600  0.18878700  0.15068100  1
  O  O8  1  0.70465900  0.17408300  0.90928300  1
  O  O9  1  0.17514200  0.69840500  0.90461500  1
  O  O10  1  0.81793900  0.28798400  0.09496600  1
  O  O11  1  0.29255200  0.81842000  0.09712100  1
  O  O12  1  0.18839900  0.19357300  0.91096300  1
  O  O13  1  0.80204900  0.81469000  0.85290900  1
  O  O14  1  0.82871600  0.29752800  0.59464200  1
  O  O15  1  0.58118500  0.66244200  0.83394300  1
  O  O16  1  0.29682300  0.82141400  0.59111500  1
  O  O17  1  0.42048000  0.33629100  0.66540700  1
  O  O18  1  0.20318800  0.17905400  0.64649300  1
  O  O19  1  0.81440200  0.80341000  0.58989900  1
loop_
_geom_bond_atom_site_label_1
_geom_bond_atom_site_label_2
_geom_bond_distance
_geom_bond_site_symmetry_2
Li0 O6 2.071892 1_555
Li0 O0 2.095136 1_565
Li0 O1 2.180982 1_555
Li0 O7 2.192636 1_565
Li0 O3 2.227595 1_565
Li0 O5 2.312378 1_555
Li1 O4 2.097050 1_555
Li1 O10 2.118610 1_555
Li1 O11 2.127487 1_555
Li1 O2 2.135062 1_555
Li1 O5 2.308575 1_555
Li1 O3 2.317378 1_555
Li2 O14 2.097050 1_555
Li2 O16 2.135062 1_555
Li2 O9 2.145864 1_555
Li2 O8 2.158399 1_555
Li2 O15 2.240169 1_555
Li2 O17 2.308575 1_555
Li3 O12 2.088877 1_555
Li3 O19 2.095136 1_455
Li3 O13 2.154581 1_455
Li3 O18 2.180982 1_555
Li3 O15 2.311584 1_455
Li3 O17 2.312378 1_555
Nb0 O5 1.947920 1_555
Nb0 O17 1.947920 1_555
Nb0 O16 2.103875 1_555
Nb0 O2 2.103875 1_555
Nb0 O14 2.160949 1_555
Nb0 O4 2.160949 1_555
Nb1 O5 1.992616 1_555
Nb1 O3 2.005291 1_655
Nb1 O0 2.098923 1_655
Nb1 O6 2.106230 1_555
Nb1 O7 2.124165 1_655
Nb1 O1 2.131003 1_555
Nb2 O15 1.955284 1_554
Nb2 O3 2.021267 1_555
Nb2 O10 2.073679 1_555
Nb2 O8 2.108628 1_554
Nb2 O11 2.120683 1_555
Nb2 O9 2.168702 1_554
Nb3 O17 1.992616 1_555
Nb3 O15 2.068871 1_545
Nb3 O13 2.078616 1_545
Nb3 O19 2.098923 1_545
Nb3 O18 2.131003 1_555
Nb3 O12 2.143020 1_555
O0 P3 1.518742 1_555
O1 P0 1.545631 1_555
O2 P0 1.555712 1_455
O4 P0 1.542906 1_545
O6 P2 1.608994 1_554
O7 P1 1.545366 1_555
O8 P2 1.502638 1_545
O9 P2 1.495676 1_455
O10 P1 1.558629 1_655
O11 P1 1.542913 1_565
O12 P1 1.557733 1_556
O13 P2 1.607285 1_555
O14 P3 1.542906 1_655
O16 P3 1.555712 1_565
O18 P3 1.545631 1_555
O19 P0 1.518742 1_555
