# generated using pymatgen
data_KBa2Ni2F9
_symmetry_space_group_name_H-M   'P 1'
_cell_length_a   7.78322301
_cell_length_b   7.78322301
_cell_length_c   7.78322319
_cell_angle_alpha   44.06683042
_cell_angle_beta   44.06683042
_cell_angle_gamma   44.06683280
_symmetry_Int_Tables_number   1
_chemical_formula_structural   KBa2Ni2F9
_chemical_formula_sum   'K1 Ba2 Ni2 F9'
_cell_volume   207.17863167
_cell_formula_units_Z   1
loop_
 _symmetry_equiv_pos_site_id
 _symmetry_equiv_pos_as_xyz
  1  'x, y, z'
loop_
 _atom_site_type_symbol
 _atom_site_label
 _atom_site_symmetry_multiplicity
 _atom_site_fract_x
 _atom_site_fract_y
 _atom_site_fract_z
 _atom_site_occupancy
  K  K0  1  0.21148600  0.21148600  0.21148600  1
  Ba  Ba0  1  0.99864000  0.99864000  0.99864000  1
  Ba  Ba1  1  0.79312900  0.79312900  0.79312900  1
  Ni  Ni0  1  0.39099200  0.39099200  0.39099200  1
  Ni  Ni1  1  0.60580000  0.60580000  0.60580000  1
  F  F0  1  0.26886200  0.77604000  0.26886200  1
  F  F1  1  0.77604000  0.26886200  0.26886200  1
  F  F2  1  0.26886200  0.26886200  0.77604000  1
  F  F3  1  0.73154200  0.21924900  0.73154200  1
  F  F4  1  0.21924900  0.73154200  0.73154200  1
  F  F5  1  0.73154200  0.73154200  0.21924900  1
  F  F6  1  0.99480200  0.50452800  0.50452800  1
  F  F7  1  0.50452800  0.50452800  0.99480200  1
  F  F8  1  0.50452800  0.99480200  0.50452800  1
loop_
_geom_bond_atom_site_label_1
_geom_bond_atom_site_label_2
_geom_bond_distance
_geom_bond_site_symmetry_2
Ba0 F5 2.746470 1_556
Ba0 F4 2.746470 1_655
Ba0 F3 2.746470 1_565
Ba0 F2 2.780717 1_665
Ba0 F1 2.780717 1_566
Ba0 F0 2.780717 1_656
Ba0 F8 2.920570 1_655
Ba0 F6 2.920570 1_565
Ba0 F8 2.920570 1_556
Ba0 F6 2.920570 1_556
Ba0 F7 2.920570 1_565
Ba0 F7 2.920570 1_655
Ba1 F3 2.687052 1_565
Ba1 F4 2.687052 1_655
Ba1 F5 2.687052 1_556
Ba1 F0 2.956021 1_556
Ba1 F1 2.956021 1_556
Ba1 F1 2.956021 1_565
Ba1 F0 2.956021 1_655
Ba1 F2 2.956021 1_565
Ba1 F2 2.956021 1_655
Ba1 F7 3.110020 1_555
Ba1 F8 3.110020 1_555
Ba1 F6 3.110020 1_555
F0 Ni0 1.974705 1_555
F0 K0 2.796774 1_565
F1 Ni0 1.974705 1_555
F1 K0 2.796774 1_655
F2 Ni0 1.974705 1_555
F2 K0 2.796774 1_556
F3 Ni1 1.970044 1_555
F3 K0 2.939398 1_556
F3 K0 2.939398 1_655
F4 Ni1 1.970044 1_555
F4 K0 2.939398 1_556
F4 K0 2.939398 1_565
F5 Ni1 1.970044 1_555
F5 K0 2.939399 1_655
F5 K0 2.939399 1_565
F6 Ni0 2.088293 1_655
F6 Ni1 2.107907 1_555
F6 K0 3.109447 1_655
F7 Ni0 2.088293 1_556
F7 Ni1 2.107907 1_555
F7 K0 3.109447 1_556
F8 Ni0 2.088293 1_565
F8 Ni1 2.107907 1_555
F8 K0 3.109447 1_565
