# generated using pymatgen
data_Ca(TmS2)2
_symmetry_space_group_name_H-M   'P 1'
_cell_length_a   3.84789429
_cell_length_b   12.82120829
_cell_length_c   12.99823651
_cell_angle_alpha   90.00000000
_cell_angle_beta   90.00000000
_cell_angle_gamma   90.00000000
_symmetry_Int_Tables_number   1
_chemical_formula_structural   Ca(TmS2)2
_chemical_formula_sum   'Ca4 Tm8 S16'
_cell_volume   641.26350304
_cell_formula_units_Z   4
loop_
 _symmetry_equiv_pos_site_id
 _symmetry_equiv_pos_as_xyz
  1  'x, y, z'
loop_
 _atom_site_type_symbol
 _atom_site_label
 _atom_site_symmetry_multiplicity
 _atom_site_fract_x
 _atom_site_fract_y
 _atom_site_fract_z
 _atom_site_occupancy
  Ca  Ca0  1  0.25000000  0.36879837  0.58343343  1
  Ca  Ca1  1  0.25000000  0.86879837  0.91656657  1
  Ca  Ca2  1  0.75000000  0.63120163  0.41656657  1
  Ca  Ca3  1  0.75000000  0.13120163  0.08343343  1
  Tm  Tm0  1  0.25000000  0.10675921  0.41677482  1
  Tm  Tm1  1  0.25000000  0.60675921  0.08322518  1
  Tm  Tm2  1  0.75000000  0.89324079  0.58322518  1
  Tm  Tm3  1  0.75000000  0.39324079  0.91677482  1
  Tm  Tm4  1  0.25000000  0.14705689  0.79787676  1
  Tm  Tm5  1  0.25000000  0.64705689  0.70212324  1
  Tm  Tm6  1  0.75000000  0.85294311  0.20212324  1
  Tm  Tm7  1  0.75000000  0.35294311  0.29787676  1
  S  S0  1  0.25000000  0.21747575  0.23842149  1
  S  S1  1  0.25000000  0.71747575  0.26157851  1
  S  S2  1  0.75000000  0.78252425  0.76157851  1
  S  S3  1  0.75000000  0.28252425  0.73842149  1
  S  S4  1  0.25000000  0.25833609  0.97330793  1
  S  S5  1  0.25000000  0.75833609  0.52669207  1
  S  S6  1  0.75000000  0.74166391  0.02669207  1
  S  S7  1  0.75000000  0.24166391  0.47330793  1
  S  S8  1  0.25000000  0.46907468  0.38151613  1
  S  S9  1  0.25000000  0.96907468  0.11848387  1
  S  S10  1  0.75000000  0.53092532  0.61848387  1
  S  S11  1  0.75000000  0.03092532  0.88151613  1
  S  S12  1  0.25000000  0.03399673  0.61785394  1
  S  S13  1  0.25000000  0.53399673  0.88214606  1
  S  S14  1  0.75000000  0.96600327  0.38214606  1
  S  S15  1  0.75000000  0.46600327  0.11785394  1
loop_
_geom_bond_atom_site_label_1
_geom_bond_atom_site_label_2
_geom_bond_distance
_geom_bond_site_symmetry_2
Ca0 S10 2.868794 1_555
Ca0 S10 2.868794 1_455
Ca0 S7 2.899576 1_455
Ca0 S7 2.899576 1_555
Ca0 S8 2.922549 1_555
Ca0 S3 2.997268 1_555
Ca0 S3 2.997268 1_455
Ca1 S11 2.868794 1_565
Ca1 S11 2.868794 1_465
Ca1 S6 2.899576 1_456
Ca1 S6 2.899576 1_556
Ca1 S9 2.922549 1_556
Ca1 S2 2.997268 1_555
Ca1 S2 2.997268 1_455
Ca2 S8 2.868794 1_655
Ca2 S8 2.868794 1_555
Ca2 S5 2.899576 1_555
Ca2 S5 2.899576 1_655
Ca2 S10 2.922549 1_555
Ca2 S1 2.997268 1_555
Ca2 S1 2.997268 1_655
Ca3 S9 2.868794 1_545
Ca3 S9 2.868794 1_645
Ca3 S4 2.899576 1_654
Ca3 S4 2.899576 1_554
Ca3 S11 2.922549 1_554
Ca3 S0 2.997268 1_555
Ca3 S0 2.997268 1_655
S0 Tm7 2.704714 1_455
S0 Tm7 2.704714 1_555
S0 Tm0 2.718355 1_555
S1 Tm6 2.704714 1_555
S1 Tm6 2.704714 1_455
S1 Tm1 2.718355 1_555
S2 Tm5 2.704714 1_555
S2 Tm5 2.704714 1_655
S2 Tm2 2.718355 1_555
S3 Tm4 2.704714 1_655
S3 Tm4 2.704714 1_555
S3 Tm3 2.718355 1_555
S4 Tm3 2.689462 1_555
S4 Tm3 2.689462 1_455
S4 Tm4 2.689855 1_555
S5 Tm2 2.689462 1_455
S5 Tm2 2.689462 1_555
S5 Tm5 2.689855 1_555
S6 Tm1 2.689462 1_555
S6 Tm1 2.689462 1_655
S6 Tm6 2.689855 1_555
S7 Tm0 2.689462 1_655
S7 Tm0 2.689462 1_555
S7 Tm7 2.689855 1_555
S8 Tm7 2.664669 1_555
S8 Tm7 2.664669 1_455
S9 Tm6 2.664669 1_555
S9 Tm6 2.664669 1_455
S10 Tm5 2.664669 1_555
S10 Tm5 2.664669 1_655
S11 Tm4 2.664669 1_655
S11 Tm4 2.664669 1_555
S12 Tm2 2.676000 1_445
S12 Tm2 2.676000 1_545
S12 Tm4 2.752590 1_555
S12 Tm0 2.775176 1_555
S13 Tm3 2.676000 1_455
S13 Tm3 2.676000 1_555
S13 Tm5 2.752590 1_555
S13 Tm1 2.775176 1_556
S14 Tm0 2.676000 1_565
S14 Tm0 2.676000 1_665
S14 Tm6 2.752590 1_555
S14 Tm2 2.775176 1_555
S15 Tm1 2.676000 1_555
S15 Tm1 2.676000 1_655
S15 Tm7 2.752590 1_555
S15 Tm3 2.775176 1_554
