# generated using pymatgen
data_KBaN3
_symmetry_space_group_name_H-M   'P 1'
_cell_length_a   14.06110916
_cell_length_b   13.34219538
_cell_length_c   7.19514468
_cell_angle_alpha   80.38480049
_cell_angle_beta   69.31591885
_cell_angle_gamma   30.29928066
_symmetry_Int_Tables_number   1
_chemical_formula_structural   KBaN3
_chemical_formula_sum   'K4 Ba4 N12'
_cell_volume   609.31246865
_cell_formula_units_Z   4
loop_
 _symmetry_equiv_pos_site_id
 _symmetry_equiv_pos_as_xyz
  1  'x, y, z'
loop_
 _atom_site_type_symbol
 _atom_site_label
 _atom_site_symmetry_multiplicity
 _atom_site_fract_x
 _atom_site_fract_y
 _atom_site_fract_z
 _atom_site_occupancy
  K  K0  1  0.50000000  0.50000000  0.50000000  1
  K  K1  1  0.25000000  0.25000000  0.25000000  1
  K  K2  1  0.09083600  0.09083600  0.40916400  1
  K  K3  1  0.40916400  0.40916400  0.09083600  1
  Ba  Ba0  1  0.00000000  0.00000000  0.00000000  1
  Ba  Ba1  1  0.75000000  0.75000000  0.75000000  1
  Ba  Ba2  1  0.82954400  0.82954400  0.17045600  1
  Ba  Ba3  1  0.17045600  0.17045600  0.82954400  1
  N  N0  1  0.23596400  0.76403600  0.23596400  1
  N  N1  1  0.76403600  0.23596400  0.76403600  1
  N  N2  1  0.51808600  0.98191400  0.51808600  1
  N  N3  1  0.98191400  0.51808600  0.98191400  1
  N  N4  1  0.04815900  0.59616300  0.39664200  1
  N  N5  1  0.59616300  0.04815900  0.95903600  1
  N  N6  1  0.39664200  0.95903600  0.04815900  1
  N  N7  1  0.95903600  0.39664200  0.59616300  1
  N  N8  1  0.68771500  0.14744700  0.26371900  1
  N  N9  1  0.14744700  0.68771500  0.90111900  1
  N  N10  1  0.26371900  0.90111900  0.68771500  1
  N  N11  1  0.90111900  0.26371900  0.14744700  1
loop_
_geom_bond_atom_site_label_1
_geom_bond_atom_site_label_2
_geom_bond_distance
_geom_bond_site_symmetry_2
K0 N1 3.156765 1_555
K0 N0 3.156765 1_555
K0 N11 3.169413 1_555
K0 N10 3.169413 1_555
K0 N9 3.169413 1_555
K0 N8 3.169413 1_555
K1 N4 2.716040 1_555
K1 N7 2.716040 1_455
K1 N6 2.716040 1_545
K1 N5 2.716040 1_554
K1 N2 3.205186 1_545
K1 N3 3.205186 1_454
K2 N11 2.730393 1_455
K2 N10 2.730393 1_545
K2 N6 2.984536 1_545
K2 N7 2.984536 1_455
K2 N1 3.063157 1_455
K2 N0 3.063157 1_545
K3 N9 2.730393 1_554
K3 N8 2.730393 1_555
K3 N5 2.984536 1_554
K3 N4 2.984536 1_555
K3 N0 3.063157 1_555
K3 N1 3.063157 1_554
Ba0 N11 2.682595 1_455
Ba0 N10 2.682595 1_544
Ba0 N9 2.682595 1_544
Ba0 N8 2.682595 1_455
Ba0 N0 2.821141 1_545
Ba0 N1 2.821141 1_454
Ba1 N7 2.758190 1_555
Ba1 N6 2.758190 1_556
Ba1 N4 2.758190 1_655
Ba1 N5 2.758190 1_565
Ba1 N3 2.772720 1_555
Ba1 N2 2.772720 1_555
Ba2 N5 2.665767 1_564
Ba2 N4 2.665767 1_655
Ba2 N8 2.795850 1_565
Ba2 N9 2.795850 1_654
Ba2 N2 2.855692 1_555
Ba2 N3 2.855692 1_554
Ba3 N7 2.665767 1_455
Ba3 N6 2.665767 1_546
Ba3 N10 2.795850 1_545
Ba3 N11 2.795850 1_456
Ba3 N3 2.855692 1_455
Ba3 N2 2.855692 1_545
