# generated using pymatgen
data_MgAl2As2(HO)18
_symmetry_space_group_name_H-M   'P 1'
_cell_length_a   5.45721200
_cell_length_b   7.03659252
_cell_length_c   10.54602329
_cell_angle_alpha   97.84035715
_cell_angle_beta   101.70405832
_cell_angle_gamma   109.87022929
_symmetry_Int_Tables_number   1
_chemical_formula_structural   MgAl2As2(HO)18
_chemical_formula_sum   'Mg1 Al2 As2 H18 O18'
_cell_volume   363.54944665
_cell_formula_units_Z   1
loop_
 _symmetry_equiv_pos_site_id
 _symmetry_equiv_pos_as_xyz
  1  'x, y, z'
loop_
 _atom_site_type_symbol
 _atom_site_label
 _atom_site_symmetry_multiplicity
 _atom_site_fract_x
 _atom_site_fract_y
 _atom_site_fract_z
 _atom_site_occupancy
  Mg  Mg0  1  0.50000000  0.00000000  0.50000000  1
  Al  Al0  1  0.00000000  0.50000000  0.00000000  1
  Al  Al1  1  0.00000000  0.00000000  0.00000000  1
  As  As0  1  0.48284600  0.07385300  0.83363000  1
  As  As1  1  0.51715400  0.92614700  0.16637000  1
  H  H0  1  0.90477000  0.31108800  0.17041400  1
  H  H1  1  0.09523000  0.68891200  0.82958600  1
  H  H2  1  0.02200000  0.00488300  0.62239400  1
  H  H3  1  0.97800000  0.99511700  0.37760600  1
  H  H4  1  0.83470800  0.50567500  0.22037100  1
  H  H5  1  0.16529200  0.49432500  0.77962900  1
  H  H6  1  0.55869100  0.58945400  0.76183300  1
  H  H7  1  0.44130900  0.41054600  0.23816700  1
  H  H8  1  0.68916000  0.39952300  0.45275700  1
  H  H9  1  0.31084000  0.60047700  0.54724300  1
  H  H10  1  0.80463600  0.40760100  0.60467700  1
  H  H11  1  0.19536400  0.59239900  0.39532300  1
  H  H12  1  0.41024500  0.35212100  0.68550900  1
  H  H13  1  0.58975500  0.64787900  0.31449100  1
  H  H14  1  0.80488000  0.94488500  0.70476600  1
  H  H15  1  0.19512000  0.05511500  0.29523400  1
  H  H16  1  0.68181400  0.67138400  0.00835100  1
  H  H17  1  0.31818600  0.32861600  0.99164900  1
  O  O0  1  0.87148700  0.71622400  0.00519600  1
  O  O1  1  0.12851300  0.28377600  0.99480400  1
  O  O2  1  0.69360600  0.93804400  0.84740800  1
  O  O3  1  0.30639400  0.06195600  0.15259200  1
  O  O4  1  0.62840500  0.31705500  0.93606800  1
  O  O5  1  0.37159500  0.68294500  0.06393200  1
  O  O6  1  0.19417800  0.93603000  0.87589100  1
  O  O7  1  0.80582200  0.06397000  0.12410900  1
  O  O8  1  0.38871500  0.09317800  0.67182300  1
  O  O9  1  0.61128500  0.90682200  0.32817700  1
  O  O10  1  0.97261000  0.46831300  0.18314600  1
  O  O11  1  0.02739000  0.53168700  0.81685400  1
  O  O12  1  0.39427700  0.49076400  0.69629400  1
  O  O13  1  0.60572300  0.50923600  0.30370600  1
  O  O14  1  0.82570500  0.95902000  0.61442500  1
  O  O15  1  0.17429500  0.04098000  0.38557500  1
  O  O16  1  0.73508100  0.31723400  0.51566000  1
  O  O17  1  0.26491900  0.68276600  0.48434000  1
loop_
_geom_bond_atom_site_label_1
_geom_bond_atom_site_label_2
_geom_bond_distance
_geom_bond_site_symmetry_2
Mg0 O15 2.066830 1_555
Mg0 O14 2.066830 1_545
Mg0 O8 2.115476 1_555
Mg0 O9 2.115476 1_545
Mg0 O17 2.126677 1_545
Mg0 O16 2.126677 1_555
Al0 O0 1.878287 1_455
Al0 O1 1.878287 1_554
Al0 O5 1.912574 1_555
Al0 O4 1.912574 1_454
Al0 O10 2.003639 1_455
Al0 O11 2.003639 1_554
Al1 O1 1.890926 1_554
Al1 O0 1.890926 1_445
Al1 O7 1.940320 1_455
Al1 O6 1.940320 1_544
Al1 O3 1.948560 1_555
Al1 O2 1.948560 1_444
As0 O8 1.717381 1_555
As0 O4 1.717565 1_555
As0 O2 1.724665 1_545
As0 O6 1.727724 1_545
As1 O9 1.717381 1_555
As1 O5 1.717565 1_555
As1 O3 1.724665 1_565
As1 O7 1.727724 1_565
H0 O10 1.019769 1_555
H0 O7 1.605234 1_555
H1 O11 1.019769 1_555
H1 O6 1.605234 1_555
H2 O14 0.989849 1_445
H3 O15 0.989849 1_665
H4 O10 1.007859 1_555
H5 O11 1.007859 1_555
H6 O12 0.979235 1_555
H7 O13 0.979235 1_555
H8 O16 0.986986 1_555
H9 O17 0.986986 1_555
H10 O16 0.978881 1_555
H11 O17 0.978881 1_555
H12 O12 1.001905 1_555
H13 O13 1.001905 1_555
H14 O14 0.996302 1_555
H14 O2 1.733349 1_555
H15 O15 0.996302 1_555
H15 O3 1.733349 1_555
H16 O0 0.983305 1_555
H17 O1 0.983305 1_555
