# generated using pymatgen
data_Li9Mn2Co5O16
_symmetry_space_group_name_H-M   'P 1'
_cell_length_a   5.81340100
_cell_length_b   5.87243189
_cell_length_c   8.29257524
_cell_angle_alpha   91.02348091
_cell_angle_beta   90.16924322
_cell_angle_gamma   90.63959673
_symmetry_Int_Tables_number   1
_chemical_formula_structural   Li9Mn2Co5O16
_chemical_formula_sum   'Li9 Mn2 Co5 O16'
_cell_volume   283.03436993
_cell_formula_units_Z   1
loop_
 _symmetry_equiv_pos_site_id
 _symmetry_equiv_pos_as_xyz
  1  'x, y, z'
loop_
 _atom_site_type_symbol
 _atom_site_label
 _atom_site_symmetry_multiplicity
 _atom_site_fract_x
 _atom_site_fract_y
 _atom_site_fract_z
 _atom_site_occupancy
  Li  Li0  1  0.99667300  0.50098700  0.99314400  1
  Li  Li1  1  0.25434100  0.74757600  0.26079200  1
  Li  Li2  1  0.25849800  0.25521800  0.73856500  1
  Li  Li3  1  0.50140000  0.50380700  0.00114100  1
  Li  Li4  1  0.50196600  0.00288300  0.50234000  1
  Li  Li5  1  0.74519100  0.25082200  0.73761500  1
  Li  Li6  1  0.74327700  0.74419900  0.26124200  1
  Li  Li7  1  0.99931700  0.99803000  0.49997500  1
  Li  Li8  1  0.50445600  0.49999700  0.49912300  1
  Mn  Mn0  1  0.99732600  0.99665400  0.00257700  1
  Mn  Mn1  1  0.25442900  0.25529000  0.25694100  1
  Co  Co0  1  0.74128400  0.73984700  0.73728900  1
  Co  Co1  1  0.49928400  0.99927500  0.99567900  1
  Co  Co2  1  0.74609500  0.25674300  0.25936600  1
  Co  Co3  1  0.00152600  0.49759400  0.49894800  1
  Co  Co4  1  0.25463000  0.74636700  0.73467900  1
  O  O0  1  0.75752000  0.76948700  0.00560400  1
  O  O1  1  0.01550100  0.01189100  0.23653900  1
  O  O2  1  0.99887800  0.50426700  0.73278500  1
  O  O3  1  0.23747500  0.77212600  0.98889700  1
  O  O4  1  0.23794800  0.26216900  0.48409800  1
  O  O5  1  0.50610500  0.51967200  0.76019400  1
  O  O6  1  0.49537100  0.03218000  0.25492500  1
  O  O7  1  0.76748700  0.26393200  0.48003000  1
  O  O8  1  0.23742100  0.23256800  0.01347800  1
  O  O9  1  0.48501500  0.48470600  0.24458400  1
  O  O10  1  0.50173300  0.99287300  0.74762700  1
  O  O11  1  0.75713000  0.22783600  0.02175300  1
  O  O12  1  0.77186000  0.73145300  0.50496600  1
  O  O13  1  0.99117900  0.98585100  0.76952400  1
  O  O14  1  0.00422800  0.47725800  0.26260600  1
  O  O15  1  0.23545600  0.73644000  0.51297600  1
loop_
_geom_bond_atom_site_label_1
_geom_bond_atom_site_label_2
_geom_bond_distance
_geom_bond_site_symmetry_2
Li0 O3 2.109189 1_655
Li0 O0 2.115111 1_556
Li0 O8 2.128192 1_656
Li0 O11 2.129364 1_556
Li0 O2 2.159551 1_555
Li0 O14 2.241689 1_656
Li1 O9 2.058928 1_555
Li1 O15 2.096606 1_555
Li1 O1 2.105982 1_565
Li1 O14 2.140965 1_555
Li1 O6 2.170269 1_565
Li1 O3 2.263788 1_554
Li2 O10 2.104925 1_545
Li2 O5 2.110579 1_555
Li2 O4 2.114361 1_555
Li2 O2 2.114365 1_455
Li2 O13 2.223764 1_445
Li2 O8 2.289547 1_556
Li3 O5 2.002157 1_554
Li3 O9 2.026344 1_555
Li3 O0 2.144344 1_555
Li3 O8 2.203362 1_555
Li3 O3 2.214937 1_554
Li3 O11 2.219904 1_555
Li4 O10 2.035963 1_545
Li4 O6 2.062248 1_555
Li4 O7 2.173919 1_555
Li4 O4 2.180846 1_555
Li4 O15 2.192716 1_545
Li4 O12 2.249401 1_545
Li5 O10 2.064443 1_545
Li5 O2 2.084519 1_555
Li5 O5 2.121197 1_555
Li5 O7 2.143057 1_555
Li5 O13 2.144378 1_545
Li5 O11 2.363364 1_556
Li6 O12 2.030211 1_555
Li6 O0 2.129526 1_555
Li6 O9 2.129680 1_555
Li6 O14 2.193724 1_655
Li6 O1 2.230581 1_665
Li6 O6 2.235364 1_565
Li7 O12 2.038936 1_555
Li7 O15 2.075587 1_655
Li7 O4 2.075616 1_665
Li7 O7 2.082512 1_565
Li7 O1 2.189792 1_665
Li7 O13 2.238299 1_555
Li8 O12 2.053383 1_555
Li8 O4 2.076250 1_555
Li8 O7 2.079881 1_555
Li8 O15 2.104861 1_555
Li8 O9 2.113726 1_555
Li8 O5 2.165957 1_555
Mn0 O0 1.919274 1_555
Mn0 O13 1.932729 1_554
Mn0 O3 1.933161 1_654
Mn0 O1 1.943121 1_665
Mn0 O8 1.956337 1_665
Mn0 O11 1.963186 1_565
Mn1 O4 1.886169 1_555
Mn1 O9 1.894166 1_555
Mn1 O6 1.928514 1_555
Mn1 O14 1.964044 1_555
Mn1 O1 1.986599 1_555
Mn1 O8 2.023013 1_555
Co0 O5 1.883582 1_555
Co0 O12 1.935063 1_555
Co0 O10 2.048630 1_555
Co0 O2 2.050000 1_555
Co0 O13 2.050842 1_555
Co0 O0 2.230356 1_556
Co1 O11 2.009469 1_566
Co1 O3 2.012578 1_555
Co1 O0 2.032203 1_556
Co1 O10 2.056756 1_555
Co1 O8 2.063198 1_566
Co1 O6 2.155253 1_566
Co2 O7 1.833429 1_555
Co2 O6 1.954462 1_555
Co2 O14 1.970956 1_655
Co2 O11 1.975991 1_555
Co2 O9 2.039820 1_555
Co2 O1 2.144411 1_655
Co3 O7 1.925602 1_455
Co3 O12 1.926132 1_455
Co3 O2 1.938917 1_455
Co3 O15 1.944453 1_555
Co3 O14 1.961508 1_555
Co3 O4 1.962875 1_555
Co4 O15 1.841380 1_555
Co4 O5 2.001476 1_555
Co4 O10 2.029215 1_555
Co4 O2 2.045467 1_455
Co4 O13 2.107876 1_455
Co4 O3 2.113573 1_555
