# generated using pymatgen
data_NaDyIrO4
_symmetry_space_group_name_H-M   'P 1'
_cell_length_a   3.25155700
_cell_length_b   9.38213080
_cell_length_c   9.38212950
_cell_angle_alpha   61.76176203
_cell_angle_beta   90.00000000
_cell_angle_gamma   90.00000000
_symmetry_Int_Tables_number   1
_chemical_formula_structural   NaDyIrO4
_chemical_formula_sum   'Na3 Dy3 Ir3 O12'
_cell_volume   252.15304351
_cell_formula_units_Z   3
loop_
 _symmetry_equiv_pos_site_id
 _symmetry_equiv_pos_as_xyz
  1  'x, y, z'
loop_
 _atom_site_type_symbol
 _atom_site_label
 _atom_site_symmetry_multiplicity
 _atom_site_fract_x
 _atom_site_fract_y
 _atom_site_fract_z
 _atom_site_occupancy
  Na  Na0  1  0.00000000  0.02062100  0.97937900  1
  Na  Na1  1  0.50000000  0.30092300  0.00021800  1
  Na  Na2  1  0.50000000  0.99978200  0.69907700  1
  Dy  Dy0  1  0.50000000  0.31461000  0.34249600  1
  Dy  Dy1  1  0.50000000  0.65750400  0.68539000  1
  Dy  Dy2  1  0.50000000  0.70226500  0.29773500  1
  Ir  Ir0  1  0.00000000  0.33266100  0.66733900  1
  Ir  Ir1  1  0.00000000  0.67340600  0.00308900  1
  Ir  Ir2  1  0.00000000  0.99691100  0.32659400  1
  O  O0  1  0.50000000  0.46248600  0.53751400  1
  O  O1  1  0.50000000  0.54620500  0.99965800  1
  O  O2  1  0.50000000  0.00034200  0.45379500  1
  O  O3  1  0.00000000  0.46487800  0.78543800  1
  O  O4  1  0.00000000  0.78360700  0.75898100  1
  O  O5  1  0.00000000  0.74336600  0.45058300  1
  O  O6  1  0.00000000  0.21456200  0.53512200  1
  O  O7  1  0.00000000  0.24101900  0.21639300  1
  O  O8  1  0.00000000  0.54941700  0.25663400  1
  O  O9  1  0.50000000  0.20240500  0.79759500  1
  O  O10  1  0.50000000  0.80673900  0.01380800  1
  O  O11  1  0.50000000  0.98619200  0.19326100  1
loop_
_geom_bond_atom_site_label_1
_geom_bond_atom_site_label_2
_geom_bond_distance
_geom_bond_site_symmetry_2
Na0 O9 2.389189 1_555
Na0 O9 2.389189 1_455
Na0 O11 2.482106 1_446
Na0 O11 2.482106 1_546
Na0 O10 2.482106 1_446
Na0 O10 2.482106 1_546
Na1 O1 2.298787 1_554
Na1 O7 2.448244 1_555
Na1 O7 2.448244 1_655
Na1 O9 2.476091 1_554
Na1 O3 2.477251 1_554
Na1 O3 2.477251 1_654
Na1 O11 2.634167 1_545
Na2 O2 2.298786 1_565
Na2 O4 2.448244 1_555
Na2 O4 2.448244 1_655
Na2 O9 2.476091 1_565
Na2 O6 2.477252 1_665
Na2 O6 2.477252 1_565
Na2 O10 2.634167 1_556
Dy0 O6 2.277084 1_555
Dy0 O6 2.277084 1_655
Dy0 O7 2.300567 1_555
Dy0 O7 2.300567 1_655
Dy0 O8 2.542821 1_555
Dy0 O8 2.542821 1_655
Dy0 O2 2.621180 1_555
Dy0 O0 2.770328 1_555
Dy0 O1 2.907554 1_554
Dy1 O3 2.277084 1_555
Dy1 O3 2.277084 1_655
Dy1 O4 2.300567 1_655
Dy1 O4 2.300567 1_555
Dy1 O5 2.542821 1_555
Dy1 O5 2.542821 1_655
Dy1 O1 2.621180 1_555
Dy1 O0 2.770328 1_555
Dy1 O2 2.907554 1_565
Dy2 O0 2.309275 1_555
Dy2 O5 2.317672 1_655
Dy2 O5 2.317672 1_555
Dy2 O8 2.317672 1_655
Dy2 O8 2.317672 1_555
Dy2 O10 2.363476 1_555
Dy2 O11 2.363477 1_555
Ir0 O6 2.016712 1_555
Ir0 O3 2.016712 1_555
Ir0 O0 2.050968 1_455
Ir0 O0 2.050968 1_555
Ir0 O9 2.053501 1_555
Ir0 O9 2.053501 1_455
Ir1 O4 2.018297 1_554
Ir1 O1 2.026027 1_554
Ir1 O1 2.026027 1_454
Ir1 O10 2.082591 1_455
Ir1 O10 2.082591 1_555
Ir1 O8 2.096028 1_555
Ir2 O7 2.018297 1_565
Ir2 O2 2.026027 1_465
Ir2 O2 2.026027 1_565
Ir2 O11 2.082591 1_555
Ir2 O11 2.082591 1_455
Ir2 O5 2.096028 1_555
