# generated using pymatgen
data_Hf2Co7
_symmetry_space_group_name_H-M   'P 1'
_cell_length_a   4.75111132
_cell_length_b   4.75111132
_cell_length_c   12.06912537
_cell_angle_alpha   87.85060611
_cell_angle_beta   87.85060611
_cell_angle_gamma   121.66504605
_symmetry_Int_Tables_number   1
_chemical_formula_structural   Hf2Co7
_chemical_formula_sum   'Hf4 Co14'
_cell_volume   231.19215572
_cell_formula_units_Z   2
loop_
 _symmetry_equiv_pos_site_id
 _symmetry_equiv_pos_as_xyz
  1  'x, y, z'
loop_
 _atom_site_type_symbol
 _atom_site_label
 _atom_site_symmetry_multiplicity
 _atom_site_fract_x
 _atom_site_fract_y
 _atom_site_fract_z
 _atom_site_occupancy
  Hf  Hf0  1  0.26019700  0.26019700  0.11595700  1
  Hf  Hf1  1  0.73980300  0.73980300  0.88404300  1
  Hf  Hf2  1  0.21006200  0.21006200  0.38289500  1
  Hf  Hf3  1  0.78993800  0.78993800  0.61710500  1
  Co  Co0  1  0.76354600  0.26394300  0.75047400  1
  Co  Co1  1  0.26394300  0.76354600  0.75047400  1
  Co  Co2  1  0.23645400  0.73605700  0.24952600  1
  Co  Co3  1  0.73605700  0.23645400  0.24952600  1
  Co  Co4  1  0.06091800  0.39322600  0.92273900  1
  Co  Co5  1  0.39322600  0.06091800  0.92273900  1
  Co  Co6  1  0.93908200  0.60677400  0.07726100  1
  Co  Co7  1  0.60677400  0.93908200  0.07726100  1
  Co  Co8  1  0.13416800  0.46924400  0.57662100  1
  Co  Co9  1  0.46924400  0.13416800  0.57662100  1
  Co  Co10  1  0.86583200  0.53075600  0.42337900  1
  Co  Co11  1  0.53075600  0.86583200  0.42337900  1
  Co  Co12  1  0.26402700  0.26402700  0.74880400  1
  Co  Co13  1  0.73597300  0.73597300  0.25119600  1
loop_
_geom_bond_atom_site_label_1
_geom_bond_atom_site_label_2
_geom_bond_distance
_geom_bond_site_symmetry_2
Co0 Co1 2.315523 1_655
Co0 Co1 2.315523 1_545
Co0 Co12 2.374321 1_555
Co0 Co12 2.376961 1_655
Co0 Co4 2.470026 1_655
Co0 Co5 2.478305 1_555
Co0 Co9 2.479905 1_555
Co0 Co8 2.494153 1_655
Co0 Hf1 2.864106 1_545
Co0 Hf3 2.864632 1_555
Co0 Hf3 2.869089 1_545
Co0 Hf1 2.872365 1_555
Co1 Co12 2.374321 1_555
Co1 Co12 2.376961 1_565
Co1 Co5 2.470026 1_565
Co1 Co4 2.478305 1_555
Co1 Co8 2.479905 1_555
Co1 Co9 2.494153 1_565
Co1 Hf1 2.864106 1_455
Co1 Hf3 2.864632 1_555
Co1 Hf3 2.869089 1_455
Co1 Hf1 2.872365 1_555
Co2 Co3 2.315523 1_455
Co2 Co3 2.315523 1_565
Co2 Co6 2.470026 1_455
Co2 Co7 2.478305 1_555
Co2 Hf0 2.864106 1_565
Co2 Hf2 2.864632 1_555
Co2 Hf2 2.869089 1_565
Co2 Hf0 2.872365 1_555
Co3 Co7 2.470026 1_545
Co3 Co6 2.478305 1_555
Co3 Hf0 2.864106 1_655
Co3 Hf2 2.864632 1_555
Co3 Hf2 2.869089 1_655
Co3 Hf0 2.872365 1_555
Co4 Co6 2.349480 1_456
Co4 Co5 2.701411 1_565
Co4 Co5 2.701411 1_455
Co4 Co7 2.701411 1_446
Co4 Hf1 2.715332 1_445
Co4 Hf0 2.723476 1_556
Co4 Hf1 2.754309 1_555
Co4 Co5 2.757269 1_555
Co4 Hf1 2.808989 1_455
Co5 Co7 2.349480 1_546
Co5 Co6 2.701411 1_446
Co5 Hf1 2.715332 1_445
Co5 Hf0 2.723476 1_556
Co5 Hf1 2.754309 1_555
Co5 Hf1 2.808989 1_545
Co6 Co7 2.701411 1_655
Co6 Co7 2.701411 1_545
Co6 Hf0 2.715332 1_665
Co6 Hf1 2.723476 1_554
Co6 Hf0 2.754309 1_555
Co6 Co7 2.757269 1_555
Co6 Hf0 2.808989 1_655
Co7 Hf0 2.715332 1_665
Co7 Hf1 2.723476 1_554
Co7 Hf0 2.754309 1_555
Co7 Hf0 2.808989 1_565
Co8 Co9 2.689653 1_565
Co8 Co9 2.689653 1_455
Co8 Hf3 2.730096 1_555
Co8 Hf3 2.758609 1_445
Co8 Co9 2.780236 1_555
Co8 Hf2 2.780648 1_555
Co8 Hf3 2.801283 1_455
Co9 Hf3 2.730096 1_555
Co9 Hf3 2.758609 1_445
Co9 Hf2 2.780648 1_555
Co9 Hf3 2.801283 1_545
Co10 Co8 2.378846 1_655
Co10 Co3 2.479905 1_555
Co10 Co2 2.494153 1_655
Co10 Co13 2.495107 1_555
Co10 Co9 2.504195 1_555
Co10 Co11 2.689653 1_545
Co10 Co11 2.689653 1_655
Co10 Hf2 2.730096 1_555
Co10 Hf2 2.758609 1_665
Co10 Co11 2.780236 1_555
Co10 Hf3 2.780648 1_555
Co10 Hf2 2.801283 1_655
Co11 Co9 2.378846 1_565
Co11 Co2 2.479905 1_555
Co11 Co3 2.494153 1_565
Co11 Co13 2.495107 1_555
Co11 Co8 2.504195 1_555
Co11 Hf2 2.730096 1_555
Co11 Hf2 2.758609 1_665
Co11 Hf3 2.780648 1_555
Co11 Hf2 2.801283 1_565
Co12 Co8 2.495107 1_555
Co12 Co9 2.495107 1_555
Co12 Co5 2.506282 1_555
Co12 Co4 2.506282 1_555
Co12 Hf3 2.803997 1_555
Co12 Hf3 2.807834 1_445
Co12 Hf1 2.819219 1_445
Co12 Hf1 2.841187 1_555
Co13 Co2 2.374321 1_555
Co13 Co3 2.374321 1_555
Co13 Co3 2.376961 1_565
Co13 Co2 2.376961 1_655
Co13 Co6 2.506282 1_555
Co13 Co7 2.506282 1_555
Co13 Hf2 2.803997 1_555
Co13 Hf2 2.807834 1_665
Co13 Hf0 2.819219 1_665
Co13 Hf0 2.841187 1_555
