# generated using pymatgen
data_CrBiO4
_symmetry_space_group_name_H-M   'P 1'
_cell_length_a   6.10851795
_cell_length_b   6.17169085
_cell_length_c   9.81063121
_cell_angle_alpha   83.55374575
_cell_angle_beta   84.20867549
_cell_angle_gamma   73.95602922
_symmetry_Int_Tables_number   1
_chemical_formula_structural   CrBiO4
_chemical_formula_sum   'Cr4 Bi4 O16'
_cell_volume   352.25945607
_cell_formula_units_Z   4
loop_
 _symmetry_equiv_pos_site_id
 _symmetry_equiv_pos_as_xyz
  1  'x, y, z'
loop_
 _atom_site_type_symbol
 _atom_site_label
 _atom_site_symmetry_multiplicity
 _atom_site_fract_x
 _atom_site_fract_y
 _atom_site_fract_z
 _atom_site_occupancy
  Cr  Cr0  1  0.18733200  0.18756900  0.56229900  1
  Cr  Cr1  1  0.31250800  0.31282200  0.93733300  1
  Cr  Cr2  1  0.68765800  0.68742400  0.06250300  1
  Cr  Cr3  1  0.81258700  0.81271100  0.43730400  1
  Bi  Bi0  1  0.56304100  0.56302700  0.68713200  1
  Bi  Bi1  1  0.06306500  0.06287100  0.18705700  1
  Bi  Bi2  1  0.43763000  0.43750200  0.31252600  1
  Bi  Bi3  1  0.93760900  0.93751000  0.81244800  1
  O  O0  1  0.41805000  0.77616200  0.14492400  1
  O  O1  1  0.91781000  0.27633100  0.64475400  1
  O  O2  1  0.67614800  0.69219200  0.88668000  1
  O  O3  1  0.17603300  0.19230600  0.38638500  1
  O  O4  1  0.78456600  0.42591200  0.15306000  1
  O  O5  1  0.28428100  0.92614000  0.65276000  1
  O  O6  1  0.87167700  0.85513200  0.06582100  1
  O  O7  1  0.37139100  0.35517200  0.56566800  1
  O  O8  1  0.12845900  0.14462200  0.93453600  1
  O  O9  1  0.62834300  0.64449900  0.43450900  1
  O  O10  1  0.21519300  0.57409900  0.84723500  1
  O  O11  1  0.71525200  0.07394100  0.34724600  1
  O  O12  1  0.32366100  0.30759300  0.11347600  1
  O  O13  1  0.82359800  0.80750000  0.61348000  1
  O  O14  1  0.58203100  0.22350300  0.85539400  1
  O  O15  1  0.08207800  0.72346200  0.35547000  1
loop_
_geom_bond_atom_site_label_1
_geom_bond_atom_site_label_2
_geom_bond_distance
_geom_bond_site_symmetry_2
Cr0 O7 1.730087 1_555
Cr0 O3 1.730807 1_555
Cr0 O1 1.731254 1_455
Cr0 O5 1.731465 1_545
Cr1 O10 1.729466 1_555
Cr1 O14 1.729573 1_555
Cr1 O8 1.732068 1_555
Cr1 O12 1.732612 1_556
Cr2 O2 1.730070 1_554
Cr2 O6 1.730316 1_555
Cr2 O0 1.731532 1_555
Cr2 O4 1.732247 1_555
Cr3 O15 1.728951 1_655
Cr3 O11 1.729084 1_565
Cr3 O13 1.732830 1_555
Cr3 O9 1.733095 1_555
Bi0 O1 2.421537 1_555
Bi0 O5 2.423290 1_555
Bi0 O2 2.423475 1_555
Bi0 O7 2.427149 1_555
Bi0 O13 2.486438 1_555
Bi0 O9 2.487147 1_555
Bi0 O14 2.501378 1_555
Bi0 O10 2.501405 1_555
Bi1 O4 2.421849 1_455
Bi1 O3 2.422033 1_555
Bi1 O0 2.422078 1_545
Bi1 O6 2.424211 1_445
Bi1 O8 2.486487 1_554
Bi1 O12 2.487668 1_555
Bi1 O15 2.501674 1_545
Bi1 O11 2.501701 1_455
Bi2 O11 2.422438 1_555
Bi2 O9 2.422536 1_555
Bi2 O15 2.423408 1_555
Bi2 O12 2.423920 1_555
Bi2 O4 2.493225 1_555
Bi2 O0 2.493256 1_555
Bi2 O7 2.493409 1_555
Bi2 O3 2.495056 1_555
Bi3 O10 2.421739 1_655
Bi3 O14 2.423621 1_565
Bi3 O13 2.423649 1_555
Bi3 O8 2.424230 1_665
Bi3 O5 2.493342 1_655
Bi3 O1 2.494360 1_565
Bi3 O6 2.495397 1_556
Bi3 O2 2.495554 1_555
