# generated using pymatgen
data_BaCeInSbO6
_symmetry_space_group_name_H-M   'P 1'
_cell_length_a   8.64047834
_cell_length_b   8.92779349
_cell_length_c   9.08643374
_cell_angle_alpha   90.00000000
_cell_angle_beta   90.00000000
_cell_angle_gamma   90.00000000
_symmetry_Int_Tables_number   1
_chemical_formula_structural   BaCeInSbO6
_chemical_formula_sum   'Ba4 Ce4 In4 Sb4 O24'
_cell_volume   700.93119029
_cell_formula_units_Z   4
loop_
 _symmetry_equiv_pos_site_id
 _symmetry_equiv_pos_as_xyz
  1  'x, y, z'
loop_
 _atom_site_type_symbol
 _atom_site_label
 _atom_site_symmetry_multiplicity
 _atom_site_fract_x
 _atom_site_fract_y
 _atom_site_fract_z
 _atom_site_occupancy
  Ba  Ba0  1  -0.00000000  0.00000000  0.00000000  1
  Ba  Ba1  1  0.50000000  0.50000000  0.50000000  1
  Ba  Ba2  1  0.50000000  0.50000000  0.00000000  1
  Ba  Ba3  1  -0.00000000  0.00000000  0.50000000  1
  Ce  Ce0  1  0.75000000  0.75000000  0.75000000  1
  Ce  Ce1  1  0.25000000  0.25000000  0.75000000  1
  Ce  Ce2  1  0.25000000  0.75000000  0.25000000  1
  Ce  Ce3  1  0.75000000  0.25000000  0.25000000  1
  In  In0  1  -0.00000000  0.50000000  0.50000000  1
  In  In1  1  0.50000000  0.00000000  0.50000000  1
  In  In2  1  0.50000000  0.00000000  0.00000000  1
  In  In3  1  -0.00000000  0.50000000  0.00000000  1
  Sb  Sb0  1  0.25000000  0.25000000  0.25000000  1
  Sb  Sb1  1  0.75000000  0.75000000  0.25000000  1
  Sb  Sb2  1  0.75000000  0.25000000  0.75000000  1
  Sb  Sb3  1  0.25000000  0.75000000  0.75000000  1
  O  O0  1  0.00064949  0.19054947  0.27168177  1
  O  O1  1  -0.00064949  0.80945053  0.27168177  1
  O  O2  1  -0.00064949  0.19054947  0.72831823  1
  O  O3  1  0.00064949  0.80945053  0.72831823  1
  O  O4  1  0.30804286  0.00371942  0.16646875  1
  O  O5  1  0.30804286  0.99628058  0.83353125  1
  O  O6  1  0.69195714  0.99628058  0.16646875  1
  O  O7  1  0.69195714  0.00371942  0.83353125  1
  O  O8  1  0.19165530  0.32638748  0.00276347  1
  O  O9  1  0.80834470  0.32638748  0.99723653  1
  O  O10  1  0.19165530  0.67361252  0.99723653  1
  O  O11  1  0.80834470  0.67361252  0.00276347  1
  O  O12  1  0.49935051  0.30945053  0.22831823  1
  O  O13  1  0.50064949  0.69054947  0.22831823  1
  O  O14  1  0.50064949  0.30945053  0.77168177  1
  O  O15  1  0.49935051  0.69054947  0.77168177  1
  O  O16  1  0.19195714  0.49628058  0.33353125  1
  O  O17  1  0.19195714  0.50371942  0.66646875  1
  O  O18  1  0.80804286  0.50371942  0.33353125  1
  O  O19  1  0.80804286  0.49628058  0.66646875  1
  O  O20  1  0.30834470  0.17361252  0.49723653  1
  O  O21  1  0.69165530  0.17361252  0.50276347  1
  O  O22  1  0.30834470  0.82638748  0.50276347  1
  O  O23  1  0.69165530  0.82638748  0.49723653  1
loop_
_geom_bond_atom_site_label_1
_geom_bond_atom_site_label_2
_geom_bond_distance
_geom_bond_site_symmetry_2
Ba0 O3 2.998023 1_544
Ba0 O2 2.998023 1_554
Ba0 O1 2.998023 1_545
Ba0 O0 2.998023 1_555
Ba0 O4 3.061601 1_555
Ba0 O5 3.061601 1_544
Ba0 O6 3.061601 1_445
Ba0 O7 3.061601 1_454
Ba0 O10 3.351697 1_544
Ba0 O11 3.351697 1_445
Ba0 O9 3.351697 1_454
Ba0 O8 3.351697 1_555
Ba1 O14 2.998023 1_555
Ba1 O15 2.998023 1_555
Ba1 O12 2.998023 1_555
Ba1 O13 2.998023 1_555
Ba1 O18 3.061601 1_555
Ba1 O16 3.061601 1_555
Ba1 O17 3.061601 1_555
Ba1 O19 3.061601 1_555
Ba1 O23 3.351697 1_555
Ba1 O22 3.351697 1_555
Ba1 O20 3.351697 1_555
Ba1 O21 3.351697 1_555
Ba2 O15 2.682914 1_554
Ba2 O14 2.682914 1_554
Ba2 O12 2.682914 1_555
Ba2 O13 2.682914 1_555
Ba2 O8 3.082412 1_555
Ba2 O9 3.082412 1_554
Ba2 O10 3.082412 1_554
Ba2 O11 3.082412 1_555
Ba3 O3 2.682914 1_545
Ba3 O2 2.682914 1_555
Ba3 O1 2.682914 1_545
Ba3 O0 2.682914 1_555
Ba3 O20 3.082412 1_555
Ba3 O21 3.082412 1_455
Ba3 O23 3.082412 1_445
Ba3 O22 3.082412 1_545
Ce0 O15 2.238507 1_555
Ce0 O3 2.238507 1_655
Ce0 O7 2.441010 1_565
Ce0 O19 2.441010 1_555
Ce0 O23 2.448294 1_555
Ce0 O11 2.448294 1_556
Ce1 O2 2.238507 1_555
Ce1 O14 2.238507 1_555
Ce1 O17 2.441010 1_555
Ce1 O5 2.441010 1_545
Ce1 O20 2.448294 1_555
Ce1 O8 2.448294 1_556
Ce2 O1 2.238507 1_555
Ce2 O13 2.238507 1_555
Ce2 O4 2.441010 1_565
Ce2 O16 2.441010 1_555
Ce2 O22 2.448294 1_555
Ce2 O10 2.448294 1_554
Ce3 O12 2.238507 1_555
Ce3 O0 2.238507 1_655
Ce3 O6 2.441010 1_545
Ce3 O18 2.441010 1_555
Ce3 O21 2.448294 1_555
Ce3 O9 2.448294 1_554
In0 O16 2.245004 1_555
In0 O18 2.245004 1_455
In0 O17 2.245004 1_555
In0 O19 2.245004 1_455
In1 O23 2.268341 1_545
In1 O22 2.268341 1_545
In1 O21 2.268341 1_555
In1 O20 2.268341 1_555
In2 O6 2.245004 1_545
In2 O4 2.245004 1_555
In2 O7 2.245004 1_554
In2 O5 2.245004 1_544
In3 O10 2.268341 1_554
In3 O9 2.268341 1_454
In3 O8 2.268341 1_555
In3 O11 2.268341 1_455
O0 Sb0 2.227650 1_555
O1 Sb1 2.227650 1_455
O2 Sb2 2.227650 1_455
O3 Sb3 2.227650 1_555
O4 Sb0 2.379511 1_555
O5 Sb3 2.379511 1_555
O6 Sb1 2.379511 1_555
O7 Sb2 2.379511 1_555
O8 Sb0 2.401246 1_555
O9 Sb2 2.401246 1_555
O10 Sb3 2.401246 1_555
O11 Sb1 2.401246 1_555
O12 Sb0 2.227650 1_555
O13 Sb1 2.227650 1_555
O14 Sb2 2.227650 1_555
O15 Sb3 2.227650 1_555
O16 Sb0 2.379511 1_555
O17 Sb3 2.379511 1_555
O18 Sb1 2.379511 1_555
O19 Sb2 2.379511 1_555
O20 Sb0 2.401246 1_555
O21 Sb2 2.401246 1_555
O22 Sb3 2.401246 1_555
O23 Sb1 2.401246 1_555
