# generated using pymatgen
data_Mn3Zn(P2O7)2
_symmetry_space_group_name_H-M   'P 1'
_cell_length_a   7.54191500
_cell_length_b   7.52957900
_cell_length_c   9.90218227
_cell_angle_alpha   66.56602460
_cell_angle_beta   90.00000000
_cell_angle_gamma   90.00000000
_symmetry_Int_Tables_number   1
_chemical_formula_structural   Mn3Zn(P2O7)2
_chemical_formula_sum   'Mn6 Zn2 P8 O28'
_cell_volume   515.93892252
_cell_formula_units_Z   2
loop_
 _symmetry_equiv_pos_site_id
 _symmetry_equiv_pos_as_xyz
  1  'x, y, z'
loop_
 _atom_site_type_symbol
 _atom_site_label
 _atom_site_symmetry_multiplicity
 _atom_site_fract_x
 _atom_site_fract_y
 _atom_site_fract_z
 _atom_site_occupancy
  Mn  Mn0  1  0.12096400  0.80835200  0.52481200  1
  Mn  Mn1  1  0.62096400  0.19164800  0.97518800  1
  Mn  Mn2  1  0.87903600  0.19164800  0.47518800  1
  Mn  Mn3  1  0.37903600  0.80835200  0.02481200  1
  Mn  Mn4  1  0.00000000  0.00000000  0.00000000  1
  Mn  Mn5  1  0.50000000  0.00000000  0.50000000  1
  Zn  Zn0  1  0.00000000  0.50000000  0.00000000  1
  Zn  Zn1  1  0.50000000  0.50000000  0.50000000  1
  P  P0  1  0.91135800  0.40808100  0.70163600  1
  P  P1  1  0.41135800  0.59191900  0.79836400  1
  P  P2  1  0.08864200  0.59191900  0.29836400  1
  P  P3  1  0.58864200  0.40808100  0.20163600  1
  P  P4  1  0.21088000  0.14886900  0.68270100  1
  P  P5  1  0.71088000  0.85113100  0.81729900  1
  P  P6  1  0.78912000  0.85113100  0.31729900  1
  P  P7  1  0.28912000  0.14886900  0.18270100  1
  O  O0  1  0.38634400  0.22285400  0.59875100  1
  O  O1  1  0.88634400  0.77714600  0.90124900  1
  O  O2  1  0.61365600  0.77714600  0.40124900  1
  O  O3  1  0.11365600  0.22285400  0.09875100  1
  O  O4  1  0.37806700  0.72390500  0.63343600  1
  O  O5  1  0.87806700  0.27609500  0.86656400  1
  O  O6  1  0.62193300  0.27609500  0.36656400  1
  O  O7  1  0.12193300  0.72390500  0.13343600  1
  O  O8  1  0.77300300  0.37688100  0.59958700  1
  O  O9  1  0.27300300  0.62311900  0.90041300  1
  O  O10  1  0.22699700  0.62311900  0.40041300  1
  O  O11  1  0.72699700  0.37688100  0.09958700  1
  O  O12  1  0.10096700  0.34138700  0.66004100  1
  O  O13  1  0.60096700  0.65861300  0.83995900  1
  O  O14  1  0.89903300  0.65861300  0.33995900  1
  O  O15  1  0.39903300  0.34138700  0.16004100  1
  O  O16  1  0.55129100  0.61296400  0.18445900  1
  O  O17  1  0.05129100  0.38703600  0.31554100  1
  O  O18  1  0.44870900  0.38703600  0.81554100  1
  O  O19  1  0.94870900  0.61296400  0.68445900  1
  O  O20  1  0.77868500  0.96594700  0.15057000  1
  O  O21  1  0.27868500  0.03405300  0.34943000  1
  O  O22  1  0.22131500  0.03405300  0.84943000  1
  O  O23  1  0.72131500  0.96594700  0.65057000  1
  O  O24  1  0.39694300  0.04010200  0.10817200  1
  O  O25  1  0.89694300  0.95989800  0.39182800  1
  O  O26  1  0.60305700  0.95989800  0.89182800  1
  O  O27  1  0.10305700  0.04010200  0.60817200  1
loop_
_geom_bond_atom_site_label_1
_geom_bond_atom_site_label_2
_geom_bond_distance
_geom_bond_site_symmetry_2
Mn0 O19 2.121648 1_455
Mn0 O25 2.166916 1_455
Mn0 O4 2.185675 1_555
Mn0 O27 2.211383 1_565
Mn0 O21 2.229704 1_565
Mn0 O10 2.338518 1_555
Mn1 O18 2.121648 1_555
Mn1 O24 2.166916 1_556
Mn1 O5 2.185675 1_555
Mn1 O26 2.211383 1_545
Mn1 O20 2.229704 1_546
Mn1 O11 2.338518 1_556
Mn2 O17 2.121648 1_655
Mn2 O27 2.166916 1_655
Mn2 O6 2.185675 1_555
Mn2 O25 2.211383 1_545
Mn2 O23 2.229704 1_545
Mn2 O8 2.338518 1_555
Mn3 O16 2.121648 1_555
Mn3 O26 2.166916 1_554
Mn3 O7 2.185675 1_555
Mn3 O24 2.211383 1_565
Mn3 O22 2.229704 1_564
Mn3 O9 2.338518 1_554
Mn4 O5 2.174507 1_454
Mn4 O7 2.174507 1_545
Mn4 O22 2.184192 1_554
Mn4 O20 2.184192 1_445
Mn4 O1 2.410751 1_444
Mn4 O3 2.410751 1_555
Mn5 O6 2.174507 1_555
Mn5 O4 2.174507 1_545
Mn5 O21 2.184192 1_555
Mn5 O23 2.184192 1_545
Mn5 O2 2.410751 1_545
Mn5 O0 2.410751 1_555
O0 P4 1.544103 1_555
O0 Zn1 2.103003 1_555
O1 P5 1.544103 1_555
O1 Zn0 2.103003 1_656
O2 P6 1.544103 1_555
O2 Zn1 2.103003 1_555
O3 P7 1.544103 1_555
O3 Zn0 2.103003 1_555
O4 P1 1.557858 1_555
O5 P0 1.557858 1_555
O6 P3 1.557858 1_555
O7 P2 1.557858 1_555
O8 P0 1.534257 1_555
O8 Zn1 2.311722 1_555
O9 P1 1.534257 1_555
O9 Zn0 2.311722 1_556
O10 P2 1.534257 1_555
O10 Zn1 2.311722 1_555
O11 P3 1.534257 1_555
O11 Zn0 2.311722 1_655
O12 P4 1.606265 1_555
O12 P0 1.622124 1_455
O13 P5 1.606265 1_555
O13 P1 1.622124 1_555
O14 P6 1.606265 1_555
O14 P2 1.622124 1_655
O15 P7 1.606265 1_555
O15 P3 1.622124 1_555
O16 P3 1.509785 1_555
O17 P2 1.509785 1_555
O18 P1 1.509785 1_555
O19 P0 1.509785 1_555
O20 P6 1.531035 1_555
O21 P7 1.531035 1_555
O22 P4 1.531035 1_555
O23 P5 1.531035 1_555
O24 P7 1.535372 1_555
O25 P6 1.535372 1_555
O26 P5 1.535372 1_555
O27 P4 1.535372 1_555
