# generated using pymatgen
data_Ho7PtI12
_symmetry_space_group_name_H-M   'P 1'
_cell_length_a   9.66289852
_cell_length_b   9.66289852
_cell_length_c   9.66289819
_cell_angle_alpha   107.38078188
_cell_angle_beta   107.38078186
_cell_angle_gamma   107.38079089
_symmetry_Int_Tables_number   1
_chemical_formula_structural   Ho7PtI12
_chemical_formula_sum   'Ho7 Pt1 I12'
_cell_volume   743.45128744
_cell_formula_units_Z   1
loop_
 _symmetry_equiv_pos_site_id
 _symmetry_equiv_pos_as_xyz
  1  'x, y, z'
loop_
 _atom_site_type_symbol
 _atom_site_label
 _atom_site_symmetry_multiplicity
 _atom_site_fract_x
 _atom_site_fract_y
 _atom_site_fract_z
 _atom_site_occupancy
  Ho  Ho0  1  0.39837451  0.46825467  0.19603393  1
  Ho  Ho1  1  0.19603393  0.39837451  0.46825467  1
  Ho  Ho2  1  0.46825467  0.19603393  0.39837451  1
  Ho  Ho3  1  0.60162549  0.53174533  0.80396607  1
  Ho  Ho4  1  0.80396607  0.60162549  0.53174533  1
  Ho  Ho5  1  0.53174533  0.80396607  0.60162549  1
  Ho  Ho6  1  -0.00000000  0.00000000  -0.00000000  1
  Pt  Pt0  1  0.50000000  0.50000000  0.50000000  1
  I  I0  1  0.02958285  0.34240567  0.10930684  1
  I  I1  1  0.10930684  0.02958285  0.34240567  1
  I  I2  1  0.34240567  0.10930684  0.02958285  1
  I  I3  1  0.97041715  0.65759433  0.89069316  1
  I  I4  1  0.89069316  0.97041715  0.65759433  1
  I  I5  1  0.65759433  0.89069316  0.97041715  1
  I  I6  1  0.72622180  0.57513918  0.17935219  1
  I  I7  1  0.17935219  0.72622180  0.57513918  1
  I  I8  1  0.57513918  0.17935219  0.72622180  1
  I  I9  1  0.27377820  0.42486082  0.82064781  1
  I  I10  1  0.82064781  0.27377820  0.42486082  1
  I  I11  1  0.42486082  0.82064781  0.27377820  1
loop_
_geom_bond_atom_site_label_1
_geom_bond_atom_site_label_2
_geom_bond_distance
_geom_bond_site_symmetry_2
Ho0 Pt0 2.691478 1_555
Ho0 I6 3.094900 1_555
Ho0 I0 3.146143 1_555
Ho0 I2 3.152211 1_555
Ho0 I11 3.171909 1_555
Ho0 I9 3.311097 1_554
Ho1 Pt0 2.691478 1_555
Ho1 I7 3.094900 1_555
Ho1 I1 3.146143 1_555
Ho1 I0 3.152211 1_555
Ho1 I9 3.171908 1_555
Ho1 I10 3.311097 1_455
Ho2 Pt0 2.691478 1_555
Ho2 I8 3.094900 1_555
Ho2 I2 3.146143 1_555
Ho2 I1 3.152211 1_555
Ho2 I10 3.171909 1_555
Ho2 I11 3.311097 1_545
Ho3 Pt0 2.691478 1_555
Ho3 I9 3.094900 1_555
Ho3 I3 3.146143 1_555
Ho3 I5 3.152211 1_555
Ho3 I8 3.171909 1_555
Ho3 I6 3.311097 1_556
Ho4 Pt0 2.691478 1_555
Ho4 I10 3.094900 1_555
Ho4 I4 3.146143 1_555
Ho4 I3 3.152211 1_555
Ho4 I6 3.171908 1_555
Ho4 I7 3.311097 1_655
Ho5 Pt0 2.691478 1_555
Ho5 I11 3.094900 1_555
Ho5 I5 3.146143 1_555
Ho5 I4 3.152211 1_555
Ho5 I7 3.171909 1_555
Ho5 I8 3.311097 1_565
Ho6 I5 3.051405 1_444
Ho6 I2 3.051405 1_555
Ho6 I1 3.051405 1_555
Ho6 I4 3.051405 1_444
Ho6 I3 3.051405 1_444
Ho6 I0 3.051405 1_555
