# generated using pymatgen
data_Si4NiO10
_symmetry_space_group_name_H-M   'P 1'
_cell_length_a   7.33553430
_cell_length_b   7.33553430
_cell_length_c   15.84352600
_cell_angle_alpha   90.00000000
_cell_angle_beta   90.00000000
_cell_angle_gamma   90.10180015
_symmetry_Int_Tables_number   1
_chemical_formula_structural   Si4NiO10
_chemical_formula_sum   'Si16 Ni4 O40'
_cell_volume   852.53979382
_cell_formula_units_Z   4
loop_
 _symmetry_equiv_pos_site_id
 _symmetry_equiv_pos_as_xyz
  1  'x, y, z'
loop_
 _atom_site_type_symbol
 _atom_site_label
 _atom_site_symmetry_multiplicity
 _atom_site_fract_x
 _atom_site_fract_y
 _atom_site_fract_z
 _atom_site_occupancy
  Si  Si0  1  0.17737500  0.25644500  0.90001800  1
  Si  Si1  1  0.82262500  0.74355500  0.90001800  1
  Si  Si2  1  0.25644500  0.17737500  0.09998200  1
  Si  Si3  1  0.75648600  0.32253100  0.90015700  1
  Si  Si4  1  0.24351400  0.67746900  0.90015700  1
  Si  Si5  1  0.32253100  0.75648600  0.09984300  1
  Si  Si6  1  0.67746900  0.24351400  0.09984300  1
  Si  Si7  1  0.74355500  0.82262500  0.09998200  1
  Si  Si8  1  0.32262500  0.24355500  0.59998200  1
  Si  Si9  1  0.67737500  0.75644500  0.59998200  1
  Si  Si10  1  0.24355500  0.32262500  0.40001800  1
  Si  Si11  1  0.74351400  0.17746900  0.59984300  1
  Si  Si12  1  0.25648600  0.82253100  0.59984300  1
  Si  Si13  1  0.17746900  0.74351400  0.40015700  1
  Si  Si14  1  0.82253100  0.25648600  0.40015700  1
  Si  Si15  1  0.75644500  0.67737500  0.40001800  1
  Ni  Ni0  1  0.50000000  0.00000000  0.84128200  1
  Ni  Ni1  1  0.00000000  0.50000000  0.15871800  1
  Ni  Ni2  1  0.00000000  0.50000000  0.65871800  1
  Ni  Ni3  1  0.50000000  0.00000000  0.34128200  1
  O  O0  1  0.27959800  0.10319700  0.84207800  1
  O  O1  1  0.72040200  0.89680300  0.84207800  1
  O  O2  1  0.10319700  0.27959800  0.15792200  1
  O  O3  1  0.60710800  0.22409100  0.83835100  1
  O  O4  1  0.39289200  0.77590900  0.83835100  1
  O  O5  1  0.22409100  0.60710800  0.16164900  1
  O  O6  1  0.77590900  0.39289200  0.16164900  1
  O  O7  1  0.89680300  0.72040200  0.15792200  1
  O  O8  1  0.22040200  0.39680300  0.65792200  1
  O  O9  1  0.77959800  0.60319700  0.65792200  1
  O  O10  1  0.39680300  0.22040200  0.34207800  1
  O  O11  1  0.89289200  0.27590900  0.66164900  1
  O  O12  1  0.10710800  0.72409100  0.66164900  1
  O  O13  1  0.27590900  0.89289200  0.33835100  1
  O  O14  1  0.72409100  0.10710800  0.33835100  1
  O  O15  1  0.24774100  0.03948600  0.62002900  1
  O  O16  1  0.60319700  0.77959800  0.34207800  1
  O  O17  1  0.74774100  0.53948600  0.87997100  1
  O  O18  1  0.46051400  0.25225900  0.12002900  1
  O  O19  1  0.96034800  0.24659700  0.87964300  1
  O  O20  1  0.03965200  0.75340300  0.87964300  1
  O  O21  1  0.24659700  0.96034800  0.12035700  1
  O  O22  1  0.75340300  0.03965200  0.12035700  1
  O  O23  1  0.53948600  0.74774100  0.12002900  1
  O  O24  1  0.71140000  0.71140000  0.50000000  1
  O  O25  1  0.78913200  0.21086800  0.50000000  1
  O  O26  1  0.21086800  0.78913200  0.50000000  1
  O  O27  1  0.28860000  0.28860000  0.50000000  1
  O  O28  1  0.78860000  0.78860000  0.00000000  1
  O  O29  1  0.71086800  0.28913200  0.00000000  1
  O  O30  1  0.28913200  0.71086800  0.00000000  1
  O  O31  1  0.21140000  0.21140000  0.00000000  1
  O  O32  1  0.96051400  0.75225900  0.37997100  1
  O  O33  1  0.74659700  0.46034800  0.37964300  1
  O  O34  1  0.25340300  0.53965200  0.37964300  1
  O  O35  1  0.46034800  0.74659700  0.62035700  1
  O  O36  1  0.53965200  0.25340300  0.62035700  1
  O  O37  1  0.03948600  0.24774100  0.37997100  1
  O  O38  1  0.75225900  0.96051400  0.62002900  1
  O  O39  1  0.25225900  0.46051400  0.87997100  1
loop_
_geom_bond_atom_site_label_1
_geom_bond_atom_site_label_2
_geom_bond_distance
_geom_bond_site_symmetry_2
Ni0 O1 1.786477 1_545
Ni0 O0 1.786477 1_555
Ni0 O3 1.821277 1_555
Ni0 O4 1.821277 1_545
Ni1 O7 1.786477 1_455
Ni1 O2 1.786477 1_555
Ni1 O6 1.821277 1_455
Ni1 O5 1.821277 1_555
Ni2 O9 1.786477 1_455
Ni2 O8 1.786477 1_555
Ni2 O11 1.821277 1_455
Ni2 O12 1.821277 1_555
Ni3 O16 1.786477 1_545
Ni3 O10 1.786477 1_555
Ni3 O13 1.821277 1_545
Ni3 O14 1.821277 1_555
O0 Si0 1.634530 1_555
O1 Si1 1.634530 1_555
O2 Si2 1.634530 1_555
O3 Si3 1.636526 1_555
O4 Si4 1.636526 1_555
O5 Si5 1.636526 1_555
O6 Si6 1.636526 1_555
O7 Si7 1.634530 1_555
O8 Si8 1.634530 1_555
O9 Si9 1.634530 1_555
O10 Si10 1.634530 1_555
O11 Si11 1.636526 1_555
O12 Si12 1.636526 1_555
O13 Si13 1.636526 1_555
O14 Si14 1.636526 1_555
O15 Si12 1.624676 1_545
O15 Si8 1.624986 1_555
O16 Si15 1.634530 1_555
O17 Si3 1.624676 1_555
O17 Si1 1.624986 1_555
O18 Si6 1.624676 1_555
O18 Si2 1.624986 1_555
O19 Si0 1.625887 1_655
O19 Si3 1.629476 1_555
O20 Si1 1.625887 1_455
O20 Si4 1.629476 1_555
O21 Si2 1.625887 1_565
O21 Si5 1.629476 1_555
O22 Si7 1.625887 1_545
O22 Si6 1.629476 1_555
O23 Si5 1.624676 1_555
O23 Si7 1.624986 1_555
O24 Si15 1.637389 1_555
O24 Si9 1.637389 1_555
O25 Si11 1.635240 1_555
O25 Si14 1.635240 1_555
O26 Si13 1.635240 1_555
O26 Si12 1.635240 1_555
O27 Si8 1.637389 1_555
O27 Si10 1.637389 1_555
O28 Si7 1.637389 1_555
O28 Si1 1.637389 1_554
O29 Si6 1.635240 1_555
O29 Si3 1.635240 1_554
O30 Si5 1.635240 1_555
O30 Si4 1.635240 1_554
O31 Si2 1.637389 1_555
O31 Si0 1.637389 1_554
O32 Si13 1.624676 1_655
O32 Si15 1.624986 1_555
O33 Si15 1.625887 1_555
O33 Si14 1.629476 1_555
O34 Si10 1.625887 1_555
O34 Si13 1.629476 1_555
O35 Si9 1.625887 1_555
O35 Si12 1.629476 1_555
O36 Si8 1.625887 1_555
O36 Si11 1.629476 1_555
O37 Si14 1.624676 1_455
O37 Si10 1.624986 1_555
O38 Si11 1.624676 1_565
O38 Si9 1.624986 1_555
O39 Si4 1.624676 1_555
O39 Si0 1.624986 1_555
