# generated using pymatgen
data_CsMn2(PO3)6
_symmetry_space_group_name_H-M   'P 1'
_cell_length_a   5.28409468
_cell_length_b   9.21866731
_cell_length_c   9.21632565
_cell_angle_alpha   89.21312425
_cell_angle_beta   74.44993463
_cell_angle_gamma   74.14349492
_symmetry_Int_Tables_number   1
_chemical_formula_structural   CsMn2(PO3)6
_chemical_formula_sum   'Cs1 Mn2 P6 O18'
_cell_volume   415.19900685
_cell_formula_units_Z   1
loop_
 _symmetry_equiv_pos_site_id
 _symmetry_equiv_pos_as_xyz
  1  'x, y, z'
loop_
 _atom_site_type_symbol
 _atom_site_label
 _atom_site_symmetry_multiplicity
 _atom_site_fract_x
 _atom_site_fract_y
 _atom_site_fract_z
 _atom_site_occupancy
  Cs  Cs0  1  0.00008600  0.99993700  0.00011000  1
  Mn  Mn0  1  0.50010100  0.00009300  0.49988400  1
  Mn  Mn1  1  0.49995300  0.49990200  0.99989300  1
  P  P0  1  0.06743300  0.78305700  0.54838100  1
  P  P1  1  0.93254500  0.21699900  0.45166000  1
  P  P2  1  0.93304100  0.45111900  0.21787500  1
  P  P3  1  0.06695400  0.54890000  0.78215500  1
  P  P4  1  0.50023800  0.25299900  0.74623900  1
  P  P5  1  0.49973700  0.74694300  0.25374200  1
  O  O0  1  0.16966500  0.90097400  0.60651000  1
  O  O1  1  0.83027700  0.09913000  0.39346800  1
  O  O2  1  0.83053300  0.39293600  0.09993400  1
  O  O3  1  0.16946100  0.60710000  0.90008900  1
  O  O4  1  0.14807600  0.62824700  0.62733200  1
  O  O5  1  0.85192700  0.37179300  0.37272500  1
  O  O6  1  0.24135000  0.72132200  0.37834500  1
  O  O7  1  0.75862400  0.27872700  0.62169000  1
  O  O8  1  0.75666400  0.62127000  0.28058000  1
  O  O9  1  0.24330700  0.37873400  0.71948500  1
  O  O10  1  0.23119300  0.18116700  0.44605500  1
  O  O11  1  0.76880500  0.81880800  0.55393000  1
  O  O12  1  0.76965900  0.55425000  0.81688900  1
  O  O13  1  0.23036300  0.44575100  0.18313800  1
  O  O14  1  0.45948000  0.10188300  0.71514200  1
  O  O15  1  0.54057100  0.89808700  0.28473000  1
  O  O16  1  0.54076600  0.28204700  0.89769000  1
  O  O17  1  0.45919000  0.71782600  0.10232900  1
loop_
_geom_bond_atom_site_label_1
_geom_bond_atom_site_label_2
_geom_bond_distance
_geom_bond_site_symmetry_2
Cs0 O17 3.353613 1_555
Cs0 O16 3.355138 1_464
Cs0 O15 3.379564 1_455
Cs0 O14 3.381461 1_564
Cs0 O3 3.555804 1_554
Cs0 O2 3.556765 1_465
Cs0 O1 3.561291 1_465
Cs0 O0 3.563102 1_554
Mn0 O10 2.027479 1_555
Mn0 O11 2.028962 1_545
Mn0 O14 2.138965 1_555
Mn0 O15 2.139155 1_545
Mn0 O1 2.183522 1_555
Mn0 O0 2.185532 1_545
Mn1 O12 2.050606 1_555
Mn1 O13 2.050914 1_556
Mn1 O16 2.161832 1_555
Mn1 O17 2.163387 1_556
Mn1 O3 2.183032 1_555
Mn1 O2 2.184288 1_556
O0 P0 1.500846 1_555
O1 P1 1.500874 1_555
O2 P2 1.501025 1_555
O3 P3 1.501042 1_555
O4 P0 1.597865 1_555
O4 P3 1.602989 1_555
O5 P1 1.597650 1_555
O5 P2 1.603084 1_555
O6 P5 1.602134 1_555
O6 P0 1.609596 1_555
O7 P4 1.602254 1_555
O7 P1 1.609541 1_555
O8 P5 1.599754 1_555
O8 P2 1.612527 1_555
O9 P4 1.599761 1_555
O9 P3 1.612543 1_555
O10 P1 1.507991 1_455
O11 P0 1.508063 1_655
O12 P3 1.503733 1_655
O13 P2 1.503829 1_455
O14 P4 1.509050 1_555
O15 P5 1.509236 1_555
O16 P4 1.505909 1_555
O17 P5 1.505760 1_555
