# generated using pymatgen
data_Cd7SiN6
_symmetry_space_group_name_H-M   'P 1'
_cell_length_a   5.92420032
_cell_length_b   5.92420032
_cell_length_c   13.53187400
_cell_angle_alpha   89.99999033
_cell_angle_beta   90.00000967
_cell_angle_gamma   119.68853840
_symmetry_Int_Tables_number   1
_chemical_formula_structural   Cd7SiN6
_chemical_formula_sum   'Cd14 Si2 N12'
_cell_volume   412.57465013
_cell_formula_units_Z   2
loop_
 _symmetry_equiv_pos_site_id
 _symmetry_equiv_pos_as_xyz
  1  'x, y, z'
loop_
 _atom_site_type_symbol
 _atom_site_label
 _atom_site_symmetry_multiplicity
 _atom_site_fract_x
 _atom_site_fract_y
 _atom_site_fract_z
 _atom_site_occupancy
  Cd  Cd0  1  0.74748900  0.74748900  0.96555000  1
  Cd  Cd1  1  0.25251100  0.25251100  0.46555000  1
  Cd  Cd2  1  0.25251100  0.25251100  0.03445000  1
  Cd  Cd3  1  0.74748900  0.74748900  0.53445000  1
  Cd  Cd4  1  0.98028200  0.41791000  0.62106800  1
  Cd  Cd5  1  0.01971800  0.58209000  0.12106800  1
  Cd  Cd6  1  0.58209000  0.01971800  0.37893200  1
  Cd  Cd7  1  0.41791000  0.98028200  0.87893200  1
  Cd  Cd8  1  0.01971800  0.58209000  0.37893200  1
  Cd  Cd9  1  0.98028200  0.41791000  0.87893200  1
  Cd  Cd10  1  0.41791000  0.98028200  0.62106800  1
  Cd  Cd11  1  0.58209000  0.01971800  0.12106800  1
  Cd  Cd12  1  0.40783400  0.40783400  0.75000000  1
  Cd  Cd13  1  0.59216600  0.59216600  0.25000000  1
  Si  Si0  1  0.89281700  0.89281700  0.75000000  1
  Si  Si1  1  0.10718300  0.10718300  0.25000000  1
  N  N0  1  0.85116000  0.57344200  0.75000000  1
  N  N1  1  0.14884000  0.42655800  0.25000000  1
  N  N2  1  0.42655800  0.14884000  0.25000000  1
  N  N3  1  0.57344200  0.85116000  0.75000000  1
  N  N4  1  0.66908600  0.33091400  0.50000000  1
  N  N5  1  0.33091400  0.66908600  0.00000000  1
  N  N6  1  0.33091400  0.66908600  0.50000000  1
  N  N7  1  0.66908600  0.33091400  0.00000000  1
  N  N8  1  0.06877500  0.06877600  0.64286100  1
  N  N9  1  0.93122400  0.93122500  0.14286100  1
  N  N10  1  0.93122500  0.93122400  0.35713900  1
  N  N11  1  0.06877600  0.06877500  0.85713900  1
loop_
_geom_bond_atom_site_label_1
_geom_bond_atom_site_label_2
_geom_bond_distance
_geom_bond_site_symmetry_2
Cd0 N7 2.321206 1_556
Cd0 N5 2.321206 1_556
Cd0 N11 2.410200 1_665
Cd0 N9 2.636827 1_556
Cd1 N4 2.321206 1_555
Cd1 N6 2.321206 1_555
Cd1 N10 2.410200 1_445
Cd1 N8 2.636827 1_555
Cd2 N5 2.321206 1_555
Cd2 N7 2.321206 1_555
Cd2 N9 2.410200 1_445
Cd2 N11 2.636827 1_554
Cd3 N6 2.321206 1_555
Cd3 N4 2.321206 1_555
Cd3 N8 2.410200 1_665
Cd3 N10 2.636827 1_555
Cd4 N0 2.275137 1_555
Cd4 N4 2.325337 1_555
Cd4 N8 2.390384 1_655
Cd4 N6 2.480158 1_655
Cd5 N1 2.275137 1_555
Cd5 N5 2.325337 1_555
Cd5 N9 2.390394 1_455
Cd5 N7 2.480158 1_455
Cd6 N2 2.275137 1_555
Cd6 N4 2.325337 1_555
Cd6 N10 2.390394 1_545
Cd6 N6 2.480158 1_545
Cd7 N3 2.275137 1_555
Cd7 N5 2.325337 1_556
Cd7 N11 2.390384 1_565
Cd7 N7 2.480158 1_566
Cd8 N1 2.275137 1_555
Cd8 N6 2.325337 1_555
Cd8 N10 2.390384 1_455
Cd8 N4 2.480158 1_455
Cd9 N0 2.275137 1_555
Cd9 N7 2.325337 1_556
Cd9 N11 2.390394 1_655
Cd9 N5 2.480158 1_656
Cd10 N3 2.275137 1_555
Cd10 N6 2.325337 1_555
Cd10 N8 2.390394 1_565
Cd10 N4 2.480158 1_565
Cd11 N2 2.275137 1_555
Cd11 N7 2.325337 1_555
Cd11 N9 2.390384 1_545
Cd11 N5 2.480158 1_545
Cd12 N0 2.303882 1_555
Cd12 N3 2.303882 1_555
Cd12 N8 2.484878 1_555
Cd12 N11 2.484878 1_555
Cd13 N1 2.303882 1_555
Cd13 N2 2.303882 1_555
Cd13 N9 2.484878 1_555
Cd13 N10 2.484878 1_555
N0 Si0 1.782751 1_555
N1 Si1 1.782751 1_555
N2 Si1 1.782751 1_555
N3 Si0 1.782751 1_555
N8 Si0 1.788510 1_445
N9 Si1 1.788510 1_665
N10 Si1 1.788510 1_665
N11 Si0 1.788510 1_445
