# generated using pymatgen
data_ThVB4
_symmetry_space_group_name_H-M   'P 1'
_cell_length_a   6.08429221
_cell_length_b   6.08429221
_cell_length_c   3.66755277
_cell_angle_alpha   90.00000000
_cell_angle_beta   90.00000000
_cell_angle_gamma   104.30993100
_symmetry_Int_Tables_number   1
_chemical_formula_structural   ThVB4
_chemical_formula_sum   'Th2 V2 B8'
_cell_volume   131.55523395
_cell_formula_units_Z   2
loop_
 _symmetry_equiv_pos_site_id
 _symmetry_equiv_pos_as_xyz
  1  'x, y, z'
loop_
 _atom_site_type_symbol
 _atom_site_label
 _atom_site_symmetry_multiplicity
 _atom_site_fract_x
 _atom_site_fract_y
 _atom_site_fract_z
 _atom_site_occupancy
  Th  Th0  1  0.30154505  0.69845495  -0.00000000  1
  Th  Th1  1  0.69845495  0.30154505  -0.00000000  1
  V  V0  1  0.16190671  0.16190671  -0.00000000  1
  V  V1  1  0.83809329  0.83809329  -0.00000000  1
  B  B0  1  0.37525785  0.06683492  0.50000000  1
  B  B1  1  0.62474215  0.93316508  0.50000000  1
  B  B2  1  0.06683492  0.37525785  0.50000000  1
  B  B3  1  0.93316508  0.62474215  0.50000000  1
  B  B4  1  0.36670241  0.36670241  0.50000000  1
  B  B5  1  0.63329759  0.63329759  0.50000000  1
  B  B6  1  0.08926817  0.91073183  0.50000000  1
  B  B7  1  0.91073183  0.08926817  0.50000000  1
loop_
_geom_bond_atom_site_label_1
_geom_bond_atom_site_label_2
_geom_bond_distance
_geom_bond_site_symmetry_2
B0 B6 1.764332 1_545
B0 B4 1.838040 1_555
B0 B1 1.890985 1_545
B0 V0 2.398657 1_556
B0 V0 2.398657 1_555
B0 Th1 2.807261 1_555
B0 Th1 2.807261 1_556
B0 Th0 2.844386 1_545
B0 Th0 2.844386 1_546
B1 B7 1.764332 1_565
B1 B5 1.838040 1_555
B1 V1 2.398657 1_555
B1 V1 2.398657 1_556
B1 Th0 2.807261 1_555
B1 Th0 2.807261 1_556
B1 Th1 2.844386 1_566
B1 Th1 2.844386 1_565
B2 B7 1.764332 1_455
B2 B4 1.838040 1_555
B2 B3 1.890985 1_455
B2 V0 2.398657 1_556
B2 V0 2.398657 1_555
B2 Th0 2.807261 1_555
B2 Th0 2.807261 1_556
B2 Th1 2.844386 1_455
B2 Th1 2.844386 1_456
B3 B6 1.764332 1_655
B3 B5 1.838040 1_555
B3 V1 2.398657 1_555
B3 V1 2.398657 1_556
B3 Th1 2.807261 1_555
B3 Th1 2.807261 1_556
B3 Th0 2.844386 1_656
B3 Th0 2.844386 1_655
B4 B5 1.990337 1_555
B4 V0 2.387560 1_555
B4 V0 2.387560 1_556
B4 Th0 2.826610 1_555
B4 Th0 2.826610 1_556
B4 Th1 2.826610 1_556
B4 Th1 2.826610 1_555
B5 V1 2.387560 1_555
B5 V1 2.387560 1_556
B5 Th0 2.826610 1_555
B5 Th0 2.826610 1_556
B5 Th1 2.826610 1_556
B5 Th1 2.826610 1_555
B6 B7 1.715592 1_465
B6 V0 2.357890 1_566
B6 V1 2.357890 1_455
B6 V1 2.357890 1_456
B6 V0 2.357890 1_565
B6 Th0 2.742912 1_555
B6 Th0 2.742912 1_556
B7 V0 2.357890 1_655
B7 V0 2.357890 1_656
B7 V1 2.357890 1_546
B7 V1 2.357890 1_545
B7 Th1 2.742912 1_556
B7 Th1 2.742912 1_555
