# generated using pymatgen
data_V3(O2F)2
_symmetry_space_group_name_H-M   'P 1'
_cell_length_a   4.67742535
_cell_length_b   9.18194904
_cell_length_c   4.70493563
_cell_angle_alpha   91.10227946
_cell_angle_beta   90.16534160
_cell_angle_gamma   89.53331413
_symmetry_Int_Tables_number   1
_chemical_formula_structural   V3(O2F)2
_chemical_formula_sum   'V6 O8 F4'
_cell_volume   202.02216896
_cell_formula_units_Z   2
loop_
 _symmetry_equiv_pos_site_id
 _symmetry_equiv_pos_as_xyz
  1  'x, y, z'
loop_
 _atom_site_type_symbol
 _atom_site_label
 _atom_site_symmetry_multiplicity
 _atom_site_fract_x
 _atom_site_fract_y
 _atom_site_fract_z
 _atom_site_occupancy
  V  V0  1  0.99878700  0.00067700  0.99708000  1
  V  V1  1  0.50014500  0.50030000  0.49862700  1
  V  V2  1  0.53122200  0.84528100  0.45815000  1
  V  V3  1  0.97651900  0.34612600  0.96445700  1
  V  V4  1  0.03141100  0.65837900  0.02405600  1
  V  V5  1  0.47550300  0.16204200  0.53272700  1
  O  O0  1  0.80852300  0.48647200  0.19422100  1
  O  O1  1  0.30305600  0.99566000  0.30726700  1
  O  O2  1  0.68948000  0.99372100  0.70523900  1
  O  O3  1  0.19358800  0.49681500  0.79637700  1
  O  O4  1  0.80944900  0.83077800  0.19802600  1
  O  O5  1  0.32293600  0.67185200  0.31380500  1
  O  O6  1  0.68755100  0.33294300  0.68868400  1
  O  O7  1  0.17240900  0.17469600  0.82268900  1
  F  F0  1  0.78141900  0.17044400  0.20300200  1
  F  F1  1  0.28846600  0.33156900  0.29607600  1
  F  F2  1  0.71178000  0.67342900  0.70301700  1
  F  F3  1  0.21775600  0.82881700  0.79650200  1
loop_
_geom_bond_atom_site_label_1
_geom_bond_atom_site_label_2
_geom_bond_distance
_geom_bond_site_symmetry_2
O0 V3 1.838887 1_554
O0 V1 2.037119 1_555
O0 V4 2.073548 1_655
O1 V2 1.886477 1_555
O1 V5 2.015576 1_565
O1 V0 2.036422 1_464
O2 V2 1.925523 1_555
O2 V0 1.992297 1_565
O2 V5 2.016806 1_565
O3 V3 1.907950 1_455
O3 V4 1.961846 1_556
O3 V1 2.008397 1_555
O4 V2 1.791448 1_555
O4 V4 2.044968 1_655
O4 V0 2.048380 1_564
O5 V4 1.928381 1_555
O5 V2 1.981415 1_555
O5 V1 1.987882 1_555
O6 V3 1.873910 1_555
O6 V1 1.988901 1_555
O6 V5 1.990330 1_555
O7 V3 1.923991 1_455
O7 V5 1.971532 1_555
O7 V0 1.990283 1_455
F0 V0 2.079420 1_554
F0 V5 2.116431 1_555
F0 V3 2.189536 1_554
F1 V1 2.061920 1_555
F1 V5 2.113511 1_555
F1 V3 2.138443 1_454
F2 V1 2.095953 1_555
F2 V4 2.127773 1_656
F2 V2 2.138471 1_555
F3 V0 2.086063 1_465
F3 V4 2.108815 1_556
F3 V2 2.175592 1_555
