# generated using pymatgen
data_CaNd2(CuO2)4
_symmetry_space_group_name_H-M   'P 1'
_cell_length_a   6.28992075
_cell_length_b   6.28992075
_cell_length_c   11.42109600
_cell_angle_alpha   90.00000000
_cell_angle_beta   90.00000000
_cell_angle_gamma   117.84183972
_symmetry_Int_Tables_number   1
_chemical_formula_structural   CaNd2(CuO2)4
_chemical_formula_sum   'Ca2 Nd4 Cu8 O16'
_cell_volume   399.54745306
_cell_formula_units_Z   2
loop_
 _symmetry_equiv_pos_site_id
 _symmetry_equiv_pos_as_xyz
  1  'x, y, z'
loop_
 _atom_site_type_symbol
 _atom_site_label
 _atom_site_symmetry_multiplicity
 _atom_site_fract_x
 _atom_site_fract_y
 _atom_site_fract_z
 _atom_site_occupancy
  Ca  Ca0  1  0.75000000  0.75000000  0.75000000  1
  Ca  Ca1  1  0.25000000  0.25000000  0.25000000  1
  Nd  Nd0  1  0.75000000  0.75000000  0.08526700  1
  Nd  Nd1  1  0.25000000  0.25000000  0.58526700  1
  Nd  Nd2  1  0.25000000  0.25000000  0.91473300  1
  Nd  Nd3  1  0.75000000  0.75000000  0.41473300  1
  Cu  Cu0  1  0.75000000  0.25000000  0.06799800  1
  Cu  Cu1  1  0.75000000  0.25000000  0.56799800  1
  Cu  Cu2  1  0.25000000  0.75000000  0.93200200  1
  Cu  Cu3  1  0.25000000  0.75000000  0.43200200  1
  Cu  Cu4  1  0.75000000  0.25000000  0.31805300  1
  Cu  Cu5  1  0.75000000  0.25000000  0.81805300  1
  Cu  Cu6  1  0.25000000  0.75000000  0.68194700  1
  Cu  Cu7  1  0.25000000  0.75000000  0.18194700  1
  O  O0  1  0.65069100  0.39799800  0.19412700  1
  O  O1  1  0.89799800  0.15069100  0.69412700  1
  O  O2  1  0.60200200  0.34930900  0.69412700  1
  O  O3  1  0.84930900  0.10200200  0.19412700  1
  O  O4  1  0.34930900  0.60200200  0.80587300  1
  O  O5  1  0.10200200  0.84930900  0.30587300  1
  O  O6  1  0.39799800  0.65069100  0.30587300  1
  O  O7  1  0.15069100  0.89799800  0.80587300  1
  O  O8  1  0.17891900  0.92861500  0.05762700  1
  O  O9  1  0.42861500  0.67891900  0.55762700  1
  O  O10  1  0.07138500  0.82108100  0.55762700  1
  O  O11  1  0.32108100  0.57138500  0.05762700  1
  O  O12  1  0.82108100  0.07138500  0.94237300  1
  O  O13  1  0.57138500  0.32108100  0.44237300  1
  O  O14  1  0.92861500  0.17891900  0.44237300  1
  O  O15  1  0.67891900  0.42861500  0.94237300  1
loop_
_geom_bond_atom_site_label_1
_geom_bond_atom_site_label_2
_geom_bond_distance
_geom_bond_site_symmetry_2
Ca0 O4 2.331160 1_555
Ca0 O7 2.331160 1_655
Ca0 O1 2.331160 1_565
Ca0 O2 2.331160 1_555
Ca0 O12 2.875655 1_565
Ca0 O15 2.875655 1_555
Ca0 O10 2.875655 1_655
Ca0 O9 2.875655 1_555
Ca1 O5 2.331160 1_545
Ca1 O3 2.331160 1_455
Ca1 O0 2.331160 1_555
Ca1 O6 2.331160 1_555
Ca1 O13 2.875655 1_555
Ca1 O14 2.875655 1_455
Ca1 O11 2.875655 1_555
Ca1 O8 2.875655 1_545
Nd0 O3 2.355046 1_565
Nd0 O0 2.355046 1_555
Nd0 O11 2.410227 1_555
Nd0 O8 2.410227 1_655
Nd0 O12 2.470939 1_564
Nd0 O15 2.470939 1_554
Nd1 O2 2.355046 1_555
Nd1 O1 2.355046 1_455
Nd1 O9 2.410227 1_555
Nd1 O10 2.410227 1_545
Nd1 O13 2.470939 1_555
Nd1 O14 2.470939 1_455
Nd2 O4 2.355046 1_555
Nd2 O7 2.355046 1_545
Nd2 O15 2.410227 1_555
Nd2 O12 2.410227 1_455
Nd2 O11 2.470939 1_556
Nd2 O8 2.470939 1_546
Nd3 O5 2.355046 1_655
Nd3 O6 2.355046 1_555
Nd3 O13 2.410227 1_555
Nd3 O14 2.410227 1_565
Nd3 O10 2.470939 1_655
Nd3 O9 2.470939 1_555
Cu0 O0 1.968507 1_555
Cu0 O3 1.968507 1_555
Cu0 O15 1.997460 1_554
Cu0 O12 1.997460 1_554
Cu1 O1 1.968507 1_555
Cu1 O2 1.968507 1_555
Cu1 O14 1.997460 1_555
Cu1 O13 1.997460 1_555
Cu2 O7 1.968507 1_555
Cu2 O4 1.968507 1_555
Cu2 O8 1.997460 1_556
Cu2 O11 1.997460 1_556
Cu3 O6 1.968507 1_555
Cu3 O5 1.968507 1_555
Cu3 O9 1.997460 1_555
Cu3 O10 1.997460 1_555
Cu4 O0 1.950170 1_555
Cu4 O3 1.950170 1_555
Cu4 O14 1.986781 1_555
Cu4 O13 1.986781 1_555
Cu5 O1 1.950170 1_555
Cu5 O2 1.950170 1_555
Cu5 O15 1.986781 1_555
Cu5 O12 1.986781 1_555
Cu6 O7 1.950170 1_555
Cu6 O4 1.950170 1_555
Cu6 O9 1.986781 1_555
Cu6 O10 1.986781 1_555
Cu7 O6 1.950170 1_555
Cu7 O5 1.950170 1_555
Cu7 O8 1.986781 1_555
Cu7 O11 1.986781 1_555
