# generated using pymatgen
data_YMg2
_symmetry_space_group_name_H-M   'P 1'
_cell_length_a   13.25527582
_cell_length_b   13.25527582
_cell_length_c   15.60517318
_cell_angle_alpha   77.02657053
_cell_angle_beta   77.02657053
_cell_angle_gamma   28.91417880
_symmetry_Int_Tables_number   1
_chemical_formula_structural   YMg2
_chemical_formula_sum   'Y16 Mg32'
_cell_volume   1289.56927129
_cell_formula_units_Z   16
loop_
 _symmetry_equiv_pos_site_id
 _symmetry_equiv_pos_as_xyz
  1  'x, y, z'
loop_
 _atom_site_type_symbol
 _atom_site_label
 _atom_site_symmetry_multiplicity
 _atom_site_fract_x
 _atom_site_fract_y
 _atom_site_fract_z
 _atom_site_occupancy
  Y  Y0_0  1  0.30845950  0.30845950  0.13666950  1
  Y  Y0_1  1  0.30845950  0.30845950  0.63666950  1
  Y  Y0_2  1  0.30845950  0.80845950  0.13666950  1
  Y  Y0_3  1  0.30845950  0.80845950  0.63666950  1
  Y  Y0_4  1  0.80845950  0.30845950  0.13666950  1
  Y  Y0_5  1  0.80845950  0.30845950  0.63666950  1
  Y  Y0_6  1  0.80845950  0.80845950  0.13666950  1
  Y  Y0_7  1  0.80845950  0.80845950  0.63666950  1
  Y  Y1_0  1  0.46970500  0.46970500  0.30607600  1
  Y  Y1_1  1  0.46970500  0.46970500  0.80607600  1
  Y  Y1_2  1  0.46970500  0.96970500  0.30607600  1
  Y  Y1_3  1  0.46970500  0.96970500  0.80607600  1
  Y  Y1_4  1  0.96970500  0.46970500  0.30607600  1
  Y  Y1_5  1  0.96970500  0.46970500  0.80607600  1
  Y  Y1_6  1  0.96970500  0.96970500  0.30607600  1
  Y  Y1_7  1  0.96970500  0.96970500  0.80607600  1
  Mg  Mg0_0  1  0.49761100  0.49761100  0.00111000  1
  Mg  Mg0_1  1  0.49761100  0.49761100  0.50111000  1
  Mg  Mg0_2  1  0.49761100  0.99761100  0.00111000  1
  Mg  Mg0_3  1  0.49761100  0.99761100  0.50111000  1
  Mg  Mg0_4  1  0.99761100  0.49761100  0.00111000  1
  Mg  Mg0_5  1  0.99761100  0.49761100  0.50111000  1
  Mg  Mg0_6  1  0.99761100  0.99761100  0.00111000  1
  Mg  Mg0_7  1  0.99761100  0.99761100  0.50111000  1
  Mg  Mg1_0  1  0.16795550  0.16795550  0.16363000  1
  Mg  Mg1_1  1  0.16795550  0.16795550  0.66363000  1
  Mg  Mg1_2  1  0.16795550  0.66795550  0.16363000  1
  Mg  Mg1_3  1  0.16795550  0.66795550  0.66363000  1
  Mg  Mg1_4  1  0.66795550  0.16795550  0.16363000  1
  Mg  Mg1_5  1  0.66795550  0.16795550  0.66363000  1
  Mg  Mg1_6  1  0.66795550  0.66795550  0.16363000  1
  Mg  Mg1_7  1  0.66795550  0.66795550  0.66363000  1
  Mg  Mg2_0  1  0.33402550  0.33402550  0.33528600  1
  Mg  Mg2_1  1  0.33402550  0.33402550  0.83528600  1
  Mg  Mg2_2  1  0.33402550  0.83402550  0.33528600  1
  Mg  Mg2_3  1  0.33402550  0.83402550  0.83528600  1
  Mg  Mg2_4  1  0.83402550  0.33402550  0.33528600  1
  Mg  Mg2_5  1  0.83402550  0.33402550  0.83528600  1
  Mg  Mg2_6  1  0.83402550  0.83402550  0.33528600  1
  Mg  Mg2_7  1  0.83402550  0.83402550  0.83528600  1
  Mg  Mg3_0  1  0.13890950  0.13890950  0.47389500  1
  Mg  Mg3_1  1  0.13890950  0.13890950  0.97389500  1
  Mg  Mg3_2  1  0.13890950  0.63890950  0.47389500  1
  Mg  Mg3_3  1  0.13890950  0.63890950  0.97389500  1
  Mg  Mg3_4  1  0.63890950  0.13890950  0.47389500  1
  Mg  Mg3_5  1  0.63890950  0.13890950  0.97389500  1
  Mg  Mg3_6  1  0.63890950  0.63890950  0.47389500  1
  Mg  Mg3_7  1  0.63890950  0.63890950  0.97389500  1
loop_
_geom_bond_atom_site_label_1
_geom_bond_atom_site_label_2
_geom_bond_distance
_geom_bond_site_symmetry_2
Y0_0 Y0_6 3.309244 1_545
Y0_0 Y0_6 3.309244 1_455
Y0_0 Y1_2 3.482072 1_545
Y0_0 Y1_4 3.482072 1_455
Y0_1 Y0_7 3.309244 1_545
Y0_1 Y0_7 3.309244 1_455
Y0_1 Y1_5 3.482072 1_455
Y0_1 Y1_3 3.482072 1_545
Y0_2 Y0_4 3.309244 1_555
Y0_2 Y0_4 3.309244 1_465
Y0_2 Y1_6 3.482072 1_455
Y0_2 Y1_0 3.482072 1_555
Y0_3 Y0_5 3.309244 1_465
Y0_3 Y0_5 3.309244 1_555
Y0_3 Y1_1 3.482072 1_555
Y0_3 Y1_7 3.482072 1_455
Y0_4 Y1_6 3.482072 1_545
Y0_4 Y1_0 3.482072 1_555
Y0_5 Y1_1 3.482072 1_555
Y0_5 Y1_7 3.482072 1_545
Y0_6 Y1_4 3.482072 1_555
Y0_6 Y1_2 3.482072 1_555
Y0_7 Y1_5 3.482072 1_555
Y0_7 Y1_3 3.482072 1_555
Y1_0 Y1_6 3.309244 1_455
Y1_0 Y1_6 3.309244 1_545
Y1_1 Y1_7 3.309244 1_545
Y1_1 Y1_7 3.309244 1_455
Y1_2 Y1_4 3.309244 1_465
Y1_2 Y1_4 3.309244 1_555
Y1_3 Y1_5 3.309244 1_555
Y1_3 Y1_5 3.309244 1_465
Mg0_0 Y1_1 3.284403 1_554
Mg0_0 Mg1_2 3.308559 1_555
Mg0_0 Mg1_4 3.308559 1_555
Mg0_0 Mg0_6 3.309244 1_455
Mg0_0 Mg0_6 3.309244 1_545
Mg0_0 Y0_2 3.344398 1_555
Mg0_0 Y0_4 3.344398 1_555
Mg0_0 Mg3_5 3.354767 1_554
Mg0_0 Mg3_3 3.354767 1_554
Mg0_0 Mg2_3 3.419559 1_554
Mg0_0 Mg2_5 3.419559 1_554
Mg0_1 Y1_0 3.284403 1_555
Mg0_1 Mg1_5 3.308559 1_555
Mg0_1 Mg1_3 3.308559 1_555
Mg0_1 Mg0_7 3.309244 1_545
Mg0_1 Mg0_7 3.309244 1_455
Mg0_1 Y0_5 3.344398 1_555
Mg0_1 Y0_3 3.344398 1_555
Mg0_1 Mg3_4 3.354767 1_555
Mg0_1 Mg3_2 3.354767 1_555
Mg0_1 Mg2_2 3.419559 1_555
Mg0_1 Mg2_4 3.419559 1_555
Mg0_2 Y1_3 3.284403 1_554
Mg0_2 Mg1_0 3.308559 1_565
Mg0_2 Mg1_6 3.308559 1_555
Mg0_2 Mg0_4 3.309244 1_555
Mg0_2 Mg0_4 3.309244 1_465
Mg0_2 Y0_6 3.344398 1_555
Mg0_2 Y0_0 3.344398 1_565
Mg0_2 Mg3_1 3.354767 1_564
Mg0_2 Mg3_7 3.354767 1_554
Mg0_2 Mg2_7 3.419559 1_554
Mg0_2 Mg2_1 3.419559 1_564
Mg0_3 Y1_2 3.284403 1_555
Mg0_3 Mg1_7 3.308559 1_555
Mg0_3 Mg1_1 3.308559 1_565
Mg0_3 Mg0_5 3.309244 1_465
Mg0_3 Mg0_5 3.309244 1_555
Mg0_3 Y0_1 3.344398 1_565
Mg0_3 Y0_7 3.344398 1_555
Mg0_3 Mg3_6 3.354767 1_555
Mg0_3 Mg3_0 3.354767 1_565
Mg0_3 Mg2_0 3.419559 1_565
Mg0_3 Mg2_6 3.419559 1_555
Mg0_4 Y1_5 3.284403 1_554
Mg0_4 Mg1_6 3.308559 1_555
Mg0_4 Mg1_0 3.308559 1_655
Mg0_4 Y0_6 3.344398 1_555
Mg0_4 Y0_0 3.344398 1_655
Mg0_4 Mg3_1 3.354767 1_654
Mg0_4 Mg3_7 3.354767 1_554
Mg0_4 Mg2_7 3.419559 1_554
Mg0_4 Mg2_1 3.419559 1_654
Mg0_5 Y1_4 3.284403 1_555
Mg0_5 Mg1_7 3.308559 1_555
Mg0_5 Mg1_1 3.308559 1_655
Mg0_5 Y0_1 3.344398 1_655
Mg0_5 Y0_7 3.344398 1_555
Mg0_5 Mg3_6 3.354767 1_555
Mg0_5 Mg3_0 3.354767 1_655
Mg0_5 Mg2_6 3.419559 1_555
Mg0_5 Mg2_0 3.419559 1_655
Mg0_6 Y1_7 3.284403 1_554
Mg0_6 Mg1_4 3.308559 1_565
Mg0_6 Mg1_2 3.308559 1_655
Mg0_6 Y0_2 3.344398 1_655
Mg0_6 Y0_4 3.344398 1_565
Mg0_6 Mg3_3 3.354767 1_654
Mg0_6 Mg3_5 3.354767 1_564
Mg0_6 Mg2_3 3.419559 1_654
Mg0_6 Mg2_5 3.419559 1_564
Mg0_7 Y1_6 3.284403 1_555
Mg0_7 Mg1_3 3.308559 1_655
Mg0_7 Mg1_5 3.308559 1_565
Mg0_7 Y0_5 3.344398 1_565
Mg0_7 Y0_3 3.344398 1_655
Mg0_7 Mg3_4 3.354767 1_565
Mg0_7 Mg3_2 3.354767 1_655
Mg0_7 Mg2_2 3.419559 1_655
Mg0_7 Mg2_4 3.419559 1_565
Mg1_0 Mg3_1 3.216564 1_554
Mg1_0 Y1_2 3.288332 1_545
Mg1_0 Y1_4 3.288332 1_455
Mg1_0 Mg1_6 3.309244 1_545
Mg1_0 Mg1_6 3.309244 1_455
Mg1_0 Y0_4 3.371081 1_455
Mg1_0 Y0_2 3.371081 1_545
Mg1_0 Mg2_4 3.446647 1_455
Mg1_0 Mg2_2 3.446647 1_545
Mg1_0 Y0_0 3.533134 1_555
Mg1_1 Mg3_0 3.216564 1_555
Mg1_1 Y1_3 3.288332 1_545
Mg1_1 Y1_5 3.288332 1_455
Mg1_1 Mg1_7 3.309244 1_545
Mg1_1 Mg1_7 3.309244 1_455
Mg1_1 Y0_3 3.371081 1_545
Mg1_1 Y0_5 3.371081 1_455
Mg1_1 Mg2_3 3.446647 1_545
Mg1_1 Mg2_5 3.446647 1_455
Mg1_1 Y0_1 3.533134 1_555
Mg1_2 Mg3_3 3.216564 1_554
Mg1_2 Y1_0 3.288332 1_555
Mg1_2 Y1_6 3.288332 1_455
Mg1_2 Mg1_4 3.309244 1_465
Mg1_2 Mg1_4 3.309244 1_555
Mg1_2 Y0_0 3.371081 1_555
Mg1_2 Y0_6 3.371081 1_455
Mg1_2 Mg2_6 3.446647 1_455
Mg1_2 Mg2_0 3.446647 1_555
Mg1_2 Y0_2 3.533134 1_555
Mg1_3 Mg3_2 3.216564 1_555
Mg1_3 Y1_7 3.288332 1_455
Mg1_3 Y1_1 3.288332 1_555
Mg1_3 Mg1_5 3.309244 1_555
Mg1_3 Mg1_5 3.309244 1_465
Mg1_3 Y0_7 3.371081 1_455
Mg1_3 Y0_1 3.371081 1_555
Mg1_3 Mg2_1 3.446647 1_555
Mg1_3 Mg2_7 3.446647 1_455
Mg1_3 Y0_3 3.533134 1_555
Mg1_4 Mg3_5 3.216564 1_554
Mg1_4 Y1_0 3.288332 1_555
Mg1_4 Y1_6 3.288332 1_545
Mg1_4 Y0_0 3.371081 1_555
Mg1_4 Y0_6 3.371081 1_545
Mg1_4 Mg2_6 3.446647 1_545
Mg1_4 Mg2_0 3.446647 1_555
Mg1_4 Y0_4 3.533134 1_555
Mg1_5 Mg3_4 3.216564 1_555
Mg1_5 Y1_7 3.288332 1_545
Mg1_5 Y1_1 3.288332 1_555
Mg1_5 Y0_7 3.371081 1_545
Mg1_5 Y0_1 3.371081 1_555
Mg1_5 Mg2_1 3.446647 1_555
Mg1_5 Mg2_7 3.446647 1_545
Mg1_5 Y0_5 3.533134 1_555
Mg1_6 Mg3_7 3.216564 1_554
Mg1_6 Y1_2 3.288332 1_555
Mg1_6 Y1_4 3.288332 1_555
Mg1_6 Y0_4 3.371081 1_555
Mg1_6 Y0_2 3.371081 1_555
Mg1_6 Mg2_4 3.446647 1_555
Mg1_6 Mg2_2 3.446647 1_555
Mg1_6 Y0_6 3.533134 1_555
Mg1_7 Mg3_6 3.216564 1_555
Mg1_7 Y1_5 3.288332 1_555
Mg1_7 Y1_3 3.288332 1_555
Mg1_7 Y0_5 3.371081 1_555
Mg1_7 Y0_3 3.371081 1_555
Mg1_7 Mg2_3 3.446647 1_555
Mg1_7 Mg2_5 3.446647 1_555
Mg1_7 Y0_7 3.533134 1_555
Mg2_0 Mg3_2 3.288555 1_555
Mg2_0 Mg3_4 3.288555 1_555
Mg2_0 Mg2_6 3.309244 1_545
Mg2_0 Mg2_6 3.309244 1_455
Mg2_0 Y0_0 3.313685 1_555
Mg2_0 Y1_0 3.406344 1_555
Mg2_0 Y1_4 3.489769 1_455
Mg2_0 Y1_2 3.489769 1_545
Mg2_1 Mg3_3 3.288555 1_555
Mg2_1 Mg3_5 3.288555 1_555
Mg2_1 Mg2_7 3.309244 1_545
Mg2_1 Mg2_7 3.309244 1_455
Mg2_1 Y0_1 3.313685 1_555
Mg2_1 Y1_1 3.406344 1_555
Mg2_1 Y1_3 3.489769 1_545
Mg2_1 Y1_5 3.489769 1_455
Mg2_2 Mg3_0 3.288555 1_565
Mg2_2 Mg3_6 3.288555 1_555
Mg2_2 Mg2_4 3.309244 1_465
Mg2_2 Mg2_4 3.309244 1_555
Mg2_2 Y0_2 3.313685 1_555
Mg2_2 Y1_2 3.406344 1_555
Mg2_2 Y1_6 3.489769 1_455
Mg2_2 Y1_0 3.489769 1_555
Mg2_3 Mg3_7 3.288555 1_555
Mg2_3 Mg3_1 3.288555 1_565
Mg2_3 Mg2_5 3.309244 1_555
Mg2_3 Mg2_5 3.309244 1_465
Mg2_3 Y0_3 3.313685 1_555
Mg2_3 Y1_3 3.406344 1_555
Mg2_3 Y1_1 3.489769 1_555
Mg2_3 Y1_7 3.489769 1_455
Mg2_4 Mg3_0 3.288555 1_655
Mg2_4 Mg3_6 3.288555 1_555
Mg2_4 Y0_4 3.313685 1_555
Mg2_4 Y1_4 3.406344 1_555
Mg2_4 Y1_6 3.489769 1_545
Mg2_4 Y1_0 3.489769 1_555
Mg2_5 Mg3_7 3.288555 1_555
Mg2_5 Mg3_1 3.288555 1_655
Mg2_5 Y0_5 3.313685 1_555
Mg2_5 Y1_5 3.406344 1_555
Mg2_5 Y1_1 3.489769 1_555
Mg2_5 Y1_7 3.489769 1_545
Mg2_6 Mg3_2 3.288555 1_655
Mg2_6 Mg3_4 3.288555 1_565
Mg2_6 Y0_6 3.313685 1_555
Mg2_6 Y1_6 3.406344 1_555
Mg2_6 Y1_4 3.489769 1_555
Mg2_6 Y1_2 3.489769 1_555
Mg2_7 Mg3_5 3.288555 1_565
Mg2_7 Mg3_3 3.288555 1_655
Mg2_7 Y0_7 3.313685 1_555
Mg2_7 Y1_7 3.406344 1_555
Mg2_7 Y1_5 3.489769 1_555
Mg2_7 Y1_3 3.489769 1_555
Mg3_0 Mg3_6 3.309244 1_545
Mg3_0 Mg3_6 3.309244 1_455
Mg3_0 Y0_5 3.320055 1_455
Mg3_0 Y0_3 3.320055 1_545
Mg3_0 Y1_2 3.373343 1_545
Mg3_0 Y1_4 3.373343 1_455
Mg3_1 Mg3_7 3.309244 1_545
Mg3_1 Mg3_7 3.309244 1_455
Mg3_1 Y0_4 3.320055 1_456
Mg3_1 Y0_2 3.320055 1_546
Mg3_1 Y1_5 3.373343 1_455
Mg3_1 Y1_3 3.373343 1_545
Mg3_2 Mg3_4 3.309244 1_555
Mg3_2 Mg3_4 3.309244 1_465
Mg3_2 Y0_7 3.320055 1_455
Mg3_2 Y0_1 3.320055 1_555
Mg3_2 Y1_0 3.373343 1_555
Mg3_2 Y1_6 3.373343 1_455
Mg3_3 Mg3_5 3.309244 1_555
Mg3_3 Mg3_5 3.309244 1_465
Mg3_3 Y0_0 3.320055 1_556
Mg3_3 Y0_6 3.320055 1_456
Mg3_3 Y1_1 3.373343 1_555
Mg3_3 Y1_7 3.373343 1_455
Mg3_4 Y0_7 3.320055 1_545
Mg3_4 Y0_1 3.320055 1_555
Mg3_4 Y1_6 3.373343 1_545
Mg3_4 Y1_0 3.373343 1_555
Mg3_5 Y0_0 3.320055 1_556
Mg3_5 Y0_6 3.320055 1_546
Mg3_5 Y1_1 3.373343 1_555
Mg3_5 Y1_7 3.373343 1_545
Mg3_6 Y0_3 3.320055 1_555
Mg3_6 Y0_5 3.320055 1_555
Mg3_6 Y1_2 3.373343 1_555
Mg3_6 Y1_4 3.373343 1_555
Mg3_7 Y0_4 3.320055 1_556
Mg3_7 Y0_2 3.320055 1_556
Mg3_7 Y1_5 3.373343 1_555
Mg3_7 Y1_3 3.373343 1_555
