# generated using pymatgen
data_MnPt(CN)6
_symmetry_space_group_name_H-M   'P 1'
_cell_length_a   7.24801280
_cell_length_b   7.24801280
_cell_length_c   7.24801280
_cell_angle_alpha   60.00000000
_cell_angle_beta   60.00000000
_cell_angle_gamma   60.00000000
_symmetry_Int_Tables_number   1
_chemical_formula_structural   MnPt(CN)6
_chemical_formula_sum   'Mn1 Pt1 C6 N6'
_cell_volume   269.24141034
_cell_formula_units_Z   1
loop_
 _symmetry_equiv_pos_site_id
 _symmetry_equiv_pos_as_xyz
  1  'x, y, z'
loop_
 _atom_site_type_symbol
 _atom_site_label
 _atom_site_symmetry_multiplicity
 _atom_site_fract_x
 _atom_site_fract_y
 _atom_site_fract_z
 _atom_site_occupancy
  Mn  Mn0  1  0.50000000  0.50000000  0.50000000  1
  Pt  Pt0  1  0.00000000  0.00000000  0.00000000  1
  C  C0  1  0.80300000  0.19700000  0.19700000  1
  C  C1  1  0.19700000  0.80300000  0.80300000  1
  C  C2  1  0.19700000  0.80300000  0.19700000  1
  C  C3  1  0.80300000  0.19700000  0.80300000  1
  C  C4  1  0.19700000  0.19700000  0.80300000  1
  C  C5  1  0.80300000  0.80300000  0.19700000  1
  N  N0  1  0.68934300  0.31065700  0.31065700  1
  N  N1  1  0.31065700  0.68934300  0.68934300  1
  N  N2  1  0.31065700  0.68934300  0.31065700  1
  N  N3  1  0.68934300  0.31065700  0.68934300  1
  N  N4  1  0.31065700  0.31065700  0.68934300  1
  N  N5  1  0.68934300  0.68934300  0.31065700  1
loop_
_geom_bond_atom_site_label_1
_geom_bond_atom_site_label_2
_geom_bond_distance
_geom_bond_site_symmetry_2
Mn0 N0 1.940811 1_555
Mn0 N4 1.940811 1_555
Mn0 N2 1.940811 1_555
Mn0 N1 1.940811 1_555
Mn0 N5 1.940811 1_555
Mn0 N3 1.940811 1_555
C0 N0 1.165011 1_555
C0 Pt0 2.019297 1_655
C1 N1 1.165011 1_555
C1 Pt0 2.019297 1_566
C2 N2 1.165011 1_555
C2 Pt0 2.019297 1_565
C3 N3 1.165011 1_555
C3 Pt0 2.019297 1_656
C4 N4 1.165011 1_555
C4 Pt0 2.019297 1_556
C5 N5 1.165011 1_555
C5 Pt0 2.019297 1_665
