# generated using pymatgen
data_GaFe19N5
_symmetry_space_group_name_H-M   'P 1'
_cell_length_a   8.36026100
_cell_length_b   8.36026100
_cell_length_c   3.79503800
_cell_angle_alpha   90.00000000
_cell_angle_beta   90.00000000
_cell_angle_gamma   90.00000000
_symmetry_Int_Tables_number   1
_chemical_formula_structural   GaFe19N5
_chemical_formula_sum   'Ga1 Fe19 N5'
_cell_volume   265.25024931
_cell_formula_units_Z   1
loop_
 _symmetry_equiv_pos_site_id
 _symmetry_equiv_pos_as_xyz
  1  'x, y, z'
loop_
 _atom_site_type_symbol
 _atom_site_label
 _atom_site_symmetry_multiplicity
 _atom_site_fract_x
 _atom_site_fract_y
 _atom_site_fract_z
 _atom_site_occupancy
  Ga  Ga0  1  0.00000000  0.00000000  0.00000000  1
  Fe  Fe0  1  0.50000000  0.50000000  0.00000000  1
  Fe  Fe1  1  0.70464300  0.90153600  0.00000000  1
  Fe  Fe2  1  0.90153600  0.29535700  0.00000000  1
  Fe  Fe3  1  0.09846400  0.70464300  0.00000000  1
  Fe  Fe4  1  0.29535700  0.09846400  0.00000000  1
  Fe  Fe5  1  0.39580300  0.30068100  0.50000000  1
  Fe  Fe6  1  0.60419700  0.69931900  0.50000000  1
  Fe  Fe7  1  0.80065900  0.09947700  0.50000000  1
  Fe  Fe8  1  0.00000000  0.50000000  0.50000000  1
  Fe  Fe9  1  0.19934100  0.90052300  0.50000000  1
  Fe  Fe10  1  0.69931900  0.39580300  0.50000000  1
  Fe  Fe11  1  0.90052300  0.80065900  0.50000000  1
  Fe  Fe12  1  0.09947700  0.19934100  0.50000000  1
  Fe  Fe13  1  0.30068100  0.60419700  0.50000000  1
  Fe  Fe14  1  0.50000000  0.00000000  0.50000000  1
  Fe  Fe15  1  0.19874200  0.39998300  0.00000000  1
  Fe  Fe16  1  0.39998300  0.80125800  0.00000000  1
  Fe  Fe17  1  0.60001700  0.19874200  0.00000000  1
  Fe  Fe18  1  0.80125800  0.60001700  0.00000000  1
  N  N0  1  0.50000000  0.50000000  0.50000000  1
  N  N1  1  0.70118100  0.90084400  0.50000000  1
  N  N2  1  0.90084400  0.29881900  0.50000000  1
  N  N3  1  0.09915600  0.70118100  0.50000000  1
  N  N4  1  0.29881900  0.09915600  0.50000000  1
loop_
_geom_bond_atom_site_label_1
_geom_bond_atom_site_label_2
_geom_bond_distance
_geom_bond_site_symmetry_2
Fe0 N0 1.897519 1_554
Fe0 N0 1.897519 1_555
Fe0 Fe18 2.653771 1_555
Fe0 Fe16 2.653771 1_555
Fe0 Fe17 2.653771 1_555
Fe0 Fe15 2.653771 1_555
Fe1 N1 1.897749 1_555
Fe1 N1 1.897749 1_554
Fe1 Ga0 2.602861 1_665
Fe1 Fe17 2.634186 1_565
Fe1 Fe18 2.647025 1_555
Fe1 Fe16 2.681460 1_555
Fe2 N2 1.897749 1_555
Fe2 N2 1.897749 1_554
Fe2 Ga0 2.602861 1_655
Fe3 N3 1.897749 1_554
Fe3 N3 1.897749 1_555
Fe3 Ga0 2.602861 1_565
Fe4 N4 1.897749 1_554
Fe4 N4 1.897749 1_555
Fe4 Ga0 2.602861 1_555
Fe5 N4 1.869752 1_555
Fe5 N0 1.880317 1_555
Fe6 N1 1.869752 1_555
Fe6 N0 1.880317 1_555
Fe7 N1 1.857238 1_545
Fe7 N2 1.865187 1_555
Fe7 Ga0 2.658870 1_655
Fe7 Ga0 2.658870 1_656
Fe8 N3 1.875117 1_555
Fe8 N2 1.875117 1_455
Fe9 N4 1.857238 1_565
Fe9 N3 1.865187 1_555
Fe9 Ga0 2.658870 1_566
Fe9 Ga0 2.658870 1_565
Fe10 N2 1.869752 1_555
Fe10 N0 1.880317 1_555
Fe10 Fe17 2.646505 1_556
Fe10 Fe17 2.646505 1_555
Fe10 Fe18 2.691040 1_555
Fe10 Fe18 2.691040 1_556
Fe11 N3 1.857238 1_655
Fe11 N1 1.865187 1_555
Fe11 Ga0 2.658870 1_666
Fe11 Ga0 2.658870 1_665
Fe11 Fe18 2.665149 1_555
Fe11 Fe18 2.665149 1_556
Fe12 N2 1.857238 1_455
Fe12 N4 1.865187 1_555
Fe12 Ga0 2.658870 1_555
Fe12 Ga0 2.658870 1_556
Fe12 Fe15 2.665149 1_556
Fe12 Fe15 2.665149 1_555
Fe13 N3 1.869752 1_555
Fe13 N0 1.880317 1_555
Fe13 Fe16 2.646505 1_556
Fe13 Fe16 2.646505 1_555
Fe13 Fe15 2.691040 1_556
Fe13 Fe15 2.691040 1_555
Fe14 N1 1.875117 1_545
Fe14 N4 1.875117 1_555
Fe14 Fe17 2.657152 1_556
Fe14 Fe17 2.657152 1_555
Fe14 Fe16 2.657152 1_545
Fe14 Fe16 2.657152 1_546
Fe15 Fe2 2.634186 1_455
Fe15 Fe5 2.646505 1_555
Fe15 Fe5 2.646505 1_554
Fe15 Fe4 2.647025 1_555
Fe15 Fe8 2.657152 1_554
Fe15 Fe8 2.657152 1_555
Fe15 Fe3 2.681460 1_555
Fe16 Fe4 2.634186 1_565
Fe16 Fe3 2.647025 1_555
Fe16 Fe9 2.665149 1_555
Fe16 Fe9 2.665149 1_554
Fe16 Fe6 2.691040 1_555
Fe16 Fe6 2.691040 1_554
Fe17 Fe2 2.647025 1_555
Fe17 Fe7 2.665149 1_555
Fe17 Fe7 2.665149 1_554
Fe17 Fe4 2.681460 1_555
Fe17 Fe5 2.691040 1_554
Fe17 Fe5 2.691040 1_555
Fe18 Fe3 2.634186 1_655
Fe18 Fe6 2.646505 1_554
Fe18 Fe6 2.646505 1_555
Fe18 Fe8 2.657152 1_654
Fe18 Fe8 2.657152 1_655
Fe18 Fe2 2.681460 1_555
