# generated using pymatgen
data_Mg14ZrW
_symmetry_space_group_name_H-M   'P 1'
_cell_length_a   6.32570080
_cell_length_b   6.32570030
_cell_length_c   10.00990078
_cell_angle_alpha   90.00000000
_cell_angle_beta   90.00000000
_cell_angle_gamma   120.00000262
_symmetry_Int_Tables_number   1
_chemical_formula_structural   Mg14ZrW
_chemical_formula_sum   'Mg14 Zr1 W1'
_cell_volume   346.87871452
_cell_formula_units_Z   1
loop_
 _symmetry_equiv_pos_site_id
 _symmetry_equiv_pos_as_xyz
  1  'x, y, z'
loop_
 _atom_site_type_symbol
 _atom_site_label
 _atom_site_symmetry_multiplicity
 _atom_site_fract_x
 _atom_site_fract_y
 _atom_site_fract_z
 _atom_site_occupancy
  Mg  Mg0  1  0.17378521  0.83689210  0.12500000  1
  Mg  Mg1  1  0.16538730  0.83269315  0.62500000  1
  Mg  Mg2  1  0.66310790  0.32621479  0.12500000  1
  Mg  Mg3  1  0.66730685  0.33461270  0.62500000  1
  Mg  Mg4  1  0.66310790  0.83689210  0.12500000  1
  Mg  Mg5  1  0.66730685  0.83269315  0.62500000  1
  Mg  Mg6  1  0.32623696  0.17376304  0.38498358  1
  Mg  Mg7  1  0.32623696  0.17376304  0.86501642  1
  Mg  Mg8  1  0.32623696  0.65247492  0.38498358  1
  Mg  Mg9  1  0.32623696  0.65247492  0.86501642  1
  Mg  Mg10  1  0.84752508  0.17376304  0.38498358  1
  Mg  Mg11  1  0.84752508  0.17376304  0.86501642  1
  Mg  Mg12  1  0.83333300  0.66666700  0.37049912  1
  Mg  Mg13  1  0.83333300  0.66666700  0.87950088  1
  Zr  Zr0  1  0.16666700  0.33333300  0.12500000  1
  W  W0  1  0.16666700  0.33333300  0.62500000  1
loop_
_geom_bond_atom_site_label_1
_geom_bond_atom_site_label_2
_geom_bond_distance
_geom_bond_site_symmetry_2
Mg0 Mg13 3.085030 1_454
Mg0 Mg12 3.085030 1_455
Mg0 Mg2 3.095309 1_565
Mg0 Mg4 3.095309 1_555
Mg0 Zr0 3.163090 1_555
Mg0 Zr0 3.163091 1_565
Mg0 Mg9 3.191929 1_554
Mg0 Mg8 3.191929 1_555
Mg0 Mg6 3.191936 1_565
Mg0 Mg7 3.191936 1_564
Mg0 Mg2 3.230392 1_455
Mg0 Mg4 3.230392 1_455
Mg1 Mg9 3.044181 1_555
Mg1 Mg8 3.044181 1_555
Mg1 Mg6 3.044188 1_565
Mg1 Mg7 3.044188 1_565
Mg1 Mg12 3.130320 1_455
Mg1 Mg13 3.130320 1_455
Mg1 Mg3 3.150708 1_455
Mg1 Mg5 3.150708 1_455
Mg1 W0 3.162858 1_565
Mg1 W0 3.162858 1_555
Mg1 Mg3 3.174993 1_565
Mg1 Mg5 3.174993 1_555
Mg2 Mg4 3.095309 1_545
Mg2 Zr0 3.163091 1_655
Mg2 Zr0 3.163091 1_555
Mg2 Mg7 3.191936 1_554
Mg2 Mg6 3.191936 1_555
Mg2 Mg4 3.230392 1_555
Mg3 Mg7 3.044188 1_555
Mg3 Mg6 3.044188 1_555
Mg3 Mg5 3.150708 1_555
Mg3 W0 3.162858 1_655
Mg3 W0 3.162858 1_555
Mg3 Mg5 3.174993 1_545
Mg4 Zr0 3.163091 1_555
Mg4 Zr0 3.163091 1_665
Mg4 Mg8 3.191935 1_555
Mg4 Mg9 3.191935 1_554
Mg5 Mg8 3.044187 1_555
Mg5 Mg9 3.044187 1_555
Mg5 W0 3.162858 1_665
Mg5 W0 3.162858 1_555
Mg6 W0 2.971332 1_555
Mg6 Zr0 3.135148 1_555
Mg7 W0 2.971332 1_555
Mg7 Zr0 3.135148 1_556
Mg8 W0 2.971339 1_555
Mg8 Zr0 3.135154 1_555
Mg9 W0 2.971339 1_555
Mg9 Zr0 3.135154 1_556
Mg10 W0 2.971339 1_655
Mg10 Mg3 3.044181 1_555
Mg10 Mg5 3.044187 1_545
Mg10 Zr0 3.135154 1_655
Mg10 Mg12 3.167126 1_545
Mg10 Mg12 3.167126 1_555
Mg10 Mg2 3.191929 1_555
Mg10 Mg4 3.191935 1_545
Mg11 W0 2.971339 1_655
Mg11 Mg3 3.044181 1_555
Mg11 Mg5 3.044187 1_545
Mg11 Zr0 3.135154 1_656
Mg11 Mg13 3.167126 1_545
Mg11 Mg13 3.167126 1_555
Mg11 Mg2 3.191929 1_556
Mg11 Mg4 3.191935 1_546
Mg12 Mg4 3.085024 1_555
Mg12 Mg2 3.085030 1_555
Mg12 Mg5 3.130313 1_555
Mg12 Mg3 3.130320 1_555
Mg12 Mg6 3.167126 1_665
Mg12 Mg6 3.167126 1_555
Mg12 Mg8 3.167126 1_555
Mg12 Mg8 3.167126 1_655
Mg13 Mg4 3.085024 1_556
Mg13 Mg2 3.085030 1_556
Mg13 Mg5 3.130313 1_555
Mg13 Mg3 3.130320 1_555
Mg13 Mg7 3.167126 1_665
Mg13 Mg7 3.167126 1_555
Mg13 Mg9 3.167126 1_555
Mg13 Mg9 3.167126 1_655
