# generated using pymatgen
data_Na2Sr3P4
_symmetry_space_group_name_H-M   'P 1'
_cell_length_a   7.35574136
_cell_length_b   8.00112004
_cell_length_c   17.20345473
_cell_angle_alpha   62.18496580
_cell_angle_beta   90.00000000
_cell_angle_gamma   90.00000000
_symmetry_Int_Tables_number   1
_chemical_formula_structural   Na2Sr3P4
_chemical_formula_sum   'Na8 Sr12 P16'
_cell_volume   895.50991397
_cell_formula_units_Z   4
loop_
 _symmetry_equiv_pos_site_id
 _symmetry_equiv_pos_as_xyz
  1  'x, y, z'
loop_
 _atom_site_type_symbol
 _atom_site_label
 _atom_site_symmetry_multiplicity
 _atom_site_fract_x
 _atom_site_fract_y
 _atom_site_fract_z
 _atom_site_occupancy
  Na  Na0  1  0.86350529  0.26127292  0.25005672  1
  Na  Na1  1  0.36350529  0.73872708  0.24994328  1
  Na  Na2  1  0.13649471  0.73872708  0.74994328  1
  Na  Na3  1  0.63649471  0.26127292  0.75005672  1
  Na  Na4  1  0.68766566  0.05607640  0.12250429  1
  Na  Na5  1  0.18766566  0.94392360  0.37749571  1
  Na  Na6  1  0.31233434  0.94392360  0.87749571  1
  Na  Na7  1  0.81233434  0.05607640  0.62250429  1
  Sr  Sr0  1  0.53770752  0.59271320  0.10219485  1
  Sr  Sr1  1  0.03770752  0.40728680  0.39780515  1
  Sr  Sr2  1  0.46208326  0.70781300  0.60146927  1
  Sr  Sr3  1  0.96208326  0.29218700  0.89853073  1
  Sr  Sr4  1  0.46229248  0.40728680  0.89780515  1
  Sr  Sr5  1  0.96229248  0.59271320  0.60219485  1
  Sr  Sr6  1  0.53791674  0.29218700  0.39853073  1
  Sr  Sr7  1  0.03791674  0.70781300  0.10146927  1
  Sr  Sr8  1  0.31556111  0.18361299  0.62900168  1
  Sr  Sr9  1  0.81556111  0.81638701  0.87099832  1
  Sr  Sr10  1  0.68443889  0.81638701  0.37099832  1
  Sr  Sr11  1  0.18443889  0.18361299  0.12900168  1
  P  P0  1  0.86528297  0.43763166  0.03550480  1
  P  P1  1  0.36528297  0.56236834  0.46449520  1
  P  P2  1  0.13162979  0.99387794  0.53572907  1
  P  P3  1  0.63162979  0.00612206  0.96427093  1
  P  P4  1  0.13471703  0.56236834  0.96449520  1
  P  P5  1  0.63471703  0.43763166  0.53550480  1
  P  P6  1  0.86837021  0.00612206  0.46427093  1
  P  P7  1  0.36837021  0.99387794  0.03572907  1
  P  P8  1  0.97881523  0.82860375  0.24795739  1
  P  P9  1  0.47881523  0.17139625  0.25204261  1
  P  P10  1  0.02118477  0.17139625  0.75204261  1
  P  P11  1  0.52118477  0.82860375  0.74795739  1
  P  P12  1  0.75691189  0.62990495  0.25094314  1
  P  P13  1  0.25691189  0.37009505  0.24905686  1
  P  P14  1  0.24308811  0.37009505  0.74905686  1
  P  P15  1  0.74308811  0.62990495  0.75094314  1
loop_
_geom_bond_atom_site_label_1
_geom_bond_atom_site_label_2
_geom_bond_distance
_geom_bond_site_symmetry_2
Na0 P9 2.915897 1_555
Na0 P13 3.019685 1_655
Na0 P12 3.058815 1_555
Na0 P6 3.275480 1_555
Na0 P0 3.279396 1_555
Na1 P8 2.915897 1_455
Na1 P12 3.019685 1_555
Na1 P13 3.058815 1_555
Na1 P7 3.275480 1_555
Na1 P1 3.279396 1_555
Na2 P11 2.915897 1_555
Na2 P15 3.019685 1_455
Na2 P14 3.058815 1_555
Na2 P2 3.275480 1_555
Na2 P4 3.279396 1_555
Na3 P10 2.915897 1_655
Na3 P14 3.019685 1_555
Na3 P15 3.058815 1_555
Na3 P3 3.275480 1_555
Na3 P5 3.279396 1_555
Na4 P7 2.947154 1_545
Na4 P3 2.958917 1_554
Na4 P8 2.981813 1_545
Na4 P0 3.000484 1_555
Na4 P12 3.120489 1_545
Na4 P9 3.177514 1_555
Na5 P6 2.947154 1_465
Na5 P2 2.958917 1_555
Na5 P9 2.981813 1_565
Na5 P1 3.000484 1_555
Na5 P13 3.120489 1_565
Na5 P8 3.177514 1_455
Na6 P3 2.947154 1_565
Na6 P7 2.958917 1_556
Na6 P10 2.981813 1_565
Na6 P4 3.000484 1_555
Na6 P14 3.120489 1_565
Na6 P11 3.177514 1_555
Na7 P2 2.947154 1_645
Na7 P6 2.958917 1_555
Na7 P11 2.981813 1_545
Na7 P5 3.000484 1_555
Na7 P15 3.120489 1_545
Na7 P10 3.177514 1_655
P0 P4 2.297492 1_654
P0 Sr11 3.029598 1_655
P0 Sr9 3.053354 1_554
P0 Sr7 3.140528 1_655
P0 Sr3 3.158027 1_554
P0 Sr0 3.160772 1_555
P1 P5 2.297492 1_555
P1 Sr10 3.029598 1_555
P1 Sr8 3.053354 1_555
P1 Sr6 3.140528 1_555
P1 Sr2 3.158027 1_555
P1 Sr1 3.160772 1_555
P2 P6 2.271203 1_465
P2 Sr8 2.997195 1_565
P2 Sr1 3.118322 1_565
P2 Sr5 3.120326 1_455
P2 Sr2 3.163944 1_555
P3 P7 2.271203 1_546
P3 Sr9 2.997195 1_545
P3 Sr0 3.118322 1_546
P3 Sr4 3.120326 1_555
P3 Sr3 3.163944 1_555
P4 Sr9 3.029598 1_455
P4 Sr11 3.053354 1_556
P4 Sr3 3.140528 1_455
P4 Sr7 3.158027 1_556
P4 Sr4 3.160772 1_555
P5 Sr8 3.029598 1_555
P5 Sr10 3.053354 1_555
P5 Sr2 3.140528 1_555
P5 Sr6 3.158027 1_555
P5 Sr5 3.160772 1_555
P6 Sr10 2.997195 1_545
P6 Sr5 3.118322 1_545
P6 Sr1 3.120326 1_655
P6 Sr6 3.163944 1_555
P7 Sr11 2.997195 1_565
P7 Sr4 3.118322 1_564
P7 Sr0 3.120326 1_555
P7 Sr7 3.163944 1_555
P8 Sr10 2.997628 1_555
P8 Sr11 3.019791 1_665
P8 Sr7 3.122007 1_655
P8 Sr1 3.175999 1_655
P9 Sr11 2.997628 1_555
P9 Sr10 3.019791 1_545
P9 Sr6 3.122007 1_555
P9 Sr0 3.175999 1_555
P10 P14 2.262348 1_555
P10 Sr8 2.997628 1_555
P10 Sr9 3.019791 1_445
P10 Sr3 3.122007 1_455
P10 Sr5 3.175999 1_455
P11 P15 2.262348 1_555
P11 Sr9 2.997628 1_555
P11 Sr8 3.019791 1_565
P11 Sr2 3.122007 1_555
P11 Sr4 3.175999 1_555
P12 P8 2.262348 1_555
P12 Sr1 3.101992 1_655
P12 Sr10 3.106782 1_555
P12 Sr7 3.126913 1_655
P12 Sr6 3.152821 1_555
P12 Sr0 3.153962 1_555
P13 P9 2.262348 1_555
P13 Sr0 3.101992 1_555
P13 Sr11 3.106782 1_555
P13 Sr6 3.126913 1_555
P13 Sr7 3.152821 1_555
P13 Sr1 3.153962 1_555
P14 Sr5 3.101992 1_455
P14 Sr8 3.106782 1_555
P14 Sr3 3.126913 1_455
P14 Sr2 3.152821 1_555
P14 Sr4 3.153962 1_555
P15 Sr4 3.101992 1_555
P15 Sr9 3.106782 1_555
P15 Sr2 3.126913 1_555
P15 Sr3 3.152821 1_555
P15 Sr5 3.153962 1_555
