# generated using pymatgen
data_Tb4C2Br3
_symmetry_space_group_name_H-M   'P 1'
_cell_length_a   3.69821973
_cell_length_b   10.79166764
_cell_length_c   20.40949899
_cell_angle_alpha   90.00000000
_cell_angle_beta   90.00000000
_cell_angle_gamma   90.00000000
_symmetry_Int_Tables_number   1
_chemical_formula_structural   Tb4C2Br3
_chemical_formula_sum   'Tb16 C8 Br12'
_cell_volume   814.54225129
_cell_formula_units_Z   4
loop_
 _symmetry_equiv_pos_site_id
 _symmetry_equiv_pos_as_xyz
  1  'x, y, z'
loop_
 _atom_site_type_symbol
 _atom_site_label
 _atom_site_symmetry_multiplicity
 _atom_site_fract_x
 _atom_site_fract_y
 _atom_site_fract_z
 _atom_site_occupancy
  Tb  Tb0  1  0.25000000  0.86712766  0.57939545  1
  Tb  Tb1  1  0.75000000  0.13287234  0.42060455  1
  Tb  Tb2  1  0.75000000  0.63287234  0.07939545  1
  Tb  Tb3  1  0.25000000  0.36712766  0.92060455  1
  Tb  Tb4  1  0.25000000  0.86928151  0.74446672  1
  Tb  Tb5  1  0.75000000  0.13071849  0.25553328  1
  Tb  Tb6  1  0.75000000  0.63071849  0.24446672  1
  Tb  Tb7  1  0.25000000  0.36928151  0.75553328  1
  Tb  Tb8  1  0.25000000  0.86585443  0.16871086  1
  Tb  Tb9  1  0.75000000  0.13414557  0.83128914  1
  Tb  Tb10  1  0.75000000  0.63414557  0.66871086  1
  Tb  Tb11  1  0.25000000  0.36585443  0.33128914  1
  Tb  Tb12  1  0.25000000  0.89676723  0.32952220  1
  Tb  Tb13  1  0.75000000  0.10323277  0.67047780  1
  Tb  Tb14  1  0.75000000  0.60323277  0.82952220  1
  Tb  Tb15  1  0.25000000  0.39676723  0.17047780  1
  C  C0  1  0.25000000  0.61751484  0.75086147  1
  C  C1  1  0.75000000  0.38248516  0.24913853  1
  C  C2  1  0.75000000  0.88248516  0.25086147  1
  C  C3  1  0.25000000  0.11751484  0.74913853  1
  C  C4  1  0.25000000  0.63031728  0.15572434  1
  C  C5  1  0.75000000  0.36968272  0.84427566  1
  C  C6  1  0.75000000  0.86968272  0.65572434  1
  C  C7  1  0.25000000  0.13031728  0.34427566  1
  Br  Br0  1  0.25000000  0.61426249  0.55470176  1
  Br  Br1  1  0.75000000  0.38573751  0.44529824  1
  Br  Br2  1  0.75000000  0.88573751  0.05470176  1
  Br  Br3  1  0.25000000  0.11426249  0.94529824  1
  Br  Br4  1  0.25000000  0.62882499  0.95373999  1
  Br  Br5  1  0.75000000  0.37117501  0.04626001  1
  Br  Br6  1  0.75000000  0.87117501  0.45373999  1
  Br  Br7  1  0.25000000  0.12882499  0.54626001  1
  Br  Br8  1  0.25000000  0.63296031  0.35790961  1
  Br  Br9  1  0.75000000  0.36703969  0.64209039  1
  Br  Br10  1  0.75000000  0.86703969  0.85790961  1
  Br  Br11  1  0.25000000  0.13296031  0.14209039  1
loop_
_geom_bond_atom_site_label_1
_geom_bond_atom_site_label_2
_geom_bond_distance
_geom_bond_site_symmetry_2
C0 Tb14 2.453641 1_555
C0 Tb14 2.453641 1_455
C0 Tb10 2.502515 1_455
C0 Tb10 2.502515 1_555
C0 Tb7 2.680548 1_555
C0 Tb4 2.720115 1_555
C1 Tb15 2.453641 1_555
C1 Tb15 2.453641 1_655
C1 Tb11 2.502515 1_555
C1 Tb11 2.502515 1_655
C1 Tb6 2.680548 1_555
C1 Tb5 2.720115 1_555
C2 Tb12 2.453641 1_555
C2 Tb12 2.453641 1_655
C2 Tb8 2.502515 1_555
C2 Tb8 2.502515 1_655
C2 Tb5 2.680548 1_565
C2 Tb6 2.720115 1_555
C3 Tb13 2.453641 1_455
C3 Tb13 2.453641 1_555
C3 Tb9 2.502515 1_455
C3 Tb9 2.502515 1_555
C3 Tb4 2.680548 1_545
C3 Tb7 2.720115 1_555
C4 Tb2 2.418019 1_555
C4 Tb2 2.418019 1_455
C4 Tb15 2.538318 1_555
C4 Tb8 2.555620 1_555
C4 Tb6 2.588364 1_455
C4 Tb6 2.588364 1_555
C5 Tb3 2.418019 1_655
C5 Tb3 2.418019 1_555
C5 Tb14 2.538318 1_555
C5 Tb9 2.555620 1_555
C5 Tb7 2.588364 1_555
C5 Tb7 2.588364 1_655
C6 Tb0 2.418019 1_655
C6 Tb0 2.418019 1_555
C6 Tb13 2.538318 1_565
C6 Tb10 2.555620 1_555
C6 Tb4 2.588364 1_555
C6 Tb4 2.588364 1_655
C7 Tb1 2.418019 1_455
C7 Tb1 2.418019 1_555
C7 Tb12 2.538318 1_545
C7 Tb11 2.555620 1_555
C7 Tb5 2.588364 1_455
C7 Tb5 2.588364 1_555
Br0 Tb0 2.774987 1_555
Br0 Tb10 2.979860 1_555
Br0 Tb10 2.979860 1_455
Br1 Tb1 2.774987 1_555
Br1 Tb11 2.979860 1_555
Br1 Tb11 2.979860 1_655
Br2 Tb2 2.774987 1_555
Br2 Tb8 2.979860 1_555
Br2 Tb8 2.979860 1_655
Br3 Tb3 2.774987 1_555
Br3 Tb9 2.979860 1_455
Br3 Tb9 2.979860 1_555
Br4 Tb3 2.903993 1_555
Br4 Tb14 3.150054 1_555
Br4 Tb14 3.150054 1_455
Br4 Tb2 3.161979 1_556
Br4 Tb2 3.161979 1_456
Br5 Tb2 2.903993 1_555
Br5 Tb15 3.150054 1_555
Br5 Tb15 3.150054 1_655
Br5 Tb3 3.161979 1_554
Br5 Tb3 3.161979 1_654
Br6 Tb1 2.903993 1_565
Br6 Tb12 3.150054 1_555
Br6 Tb12 3.150054 1_655
Br6 Tb0 3.161979 1_655
Br6 Tb0 3.161979 1_555
Br7 Tb0 2.903993 1_545
Br7 Tb13 3.150054 1_455
Br7 Tb13 3.150054 1_555
Br7 Tb1 3.161979 1_455
Br7 Tb1 3.161979 1_555
Br8 Tb12 2.905272 1_555
Br8 Tb11 2.933274 1_555
Br8 Tb6 2.963185 1_555
Br8 Tb6 2.963185 1_455
Br9 Tb13 2.905272 1_555
Br9 Tb10 2.933274 1_555
Br9 Tb7 2.963185 1_655
Br9 Tb7 2.963185 1_555
Br10 Tb14 2.905272 1_555
Br10 Tb9 2.933274 1_565
Br10 Tb4 2.963185 1_655
Br10 Tb4 2.963185 1_555
Br11 Tb15 2.905272 1_555
Br11 Tb8 2.933274 1_545
Br11 Tb5 2.963185 1_555
Br11 Tb5 2.963185 1_455
