# generated using pymatgen
data_MgTi3Fe2Co(PO4)6
_symmetry_space_group_name_H-M   'P 1'
_cell_length_a   8.70432467
_cell_length_b   8.76232969
_cell_length_c   8.75228785
_cell_angle_alpha   59.96810095
_cell_angle_beta   59.93887942
_cell_angle_gamma   59.83630670
_symmetry_Int_Tables_number   1
_chemical_formula_structural   MgTi3Fe2Co(PO4)6
_chemical_formula_sum   'Mg1 Ti3 Fe2 Co1 P6 O24'
_cell_volume   471.10330002
_cell_formula_units_Z   1
loop_
 _symmetry_equiv_pos_site_id
 _symmetry_equiv_pos_as_xyz
  1  'x, y, z'
loop_
 _atom_site_type_symbol
 _atom_site_label
 _atom_site_symmetry_multiplicity
 _atom_site_fract_x
 _atom_site_fract_y
 _atom_site_fract_z
 _atom_site_occupancy
  Mg  Mg0  1  0.74582300  0.75186300  0.75229300  1
  Ti  Ti0  1  0.11119600  0.62899900  0.62915500  1
  Ti  Ti1  1  0.38321500  0.87165000  0.87202100  1
  Ti  Ti2  1  0.93725300  0.35511900  0.35290900  1
  Fe  Fe0  1  0.97786100  0.00819000  0.00469900  1
  Fe  Fe1  1  0.50472300  0.49866900  0.50025500  1
  Co  Co0  1  0.56997800  0.14257500  0.14392000  1
  P  P0  1  0.25233000  0.24590000  0.53826100  1
  P  P1  1  0.25190400  0.96318400  0.24588100  1
  P  P2  1  0.25459400  0.53736900  0.96133900  1
  P  P3  1  0.74997500  0.45358800  0.05027800  1
  P  P4  1  0.75326500  0.04897200  0.74591500  1
  P  P5  1  0.75133800  0.74709700  0.45311100  1
  O  O0  1  0.07278700  0.11724800  0.32032100  1
  O  O1  1  0.07498500  0.48811800  0.11496600  1
  O  O2  1  0.07306800  0.32134400  0.48796800  1
  O  O3  1  0.21214200  0.09676100  0.74010100  1
  O  O4  1  0.43014700  0.17088400  0.39820600  1
  O  O5  1  0.27079300  0.40484000  0.55816300  1
  O  O6  1  0.20971800  0.94990400  0.09775200  1
  O  O7  1  0.27226500  0.76578700  0.40553100  1
  O  O8  1  0.57515600  0.62208400  0.99907400  1
  O  O9  1  0.27560900  0.55371100  0.76379100  1
  O  O10  1  0.77352300  0.26437100  0.06103800  1
  O  O11  1  0.57790700  0.99817400  0.80566400  1
  O  O12  1  0.43040700  0.00117500  0.16913000  1
  O  O13  1  0.21387500  0.74036900  0.94555000  1
  O  O14  1  0.73403500  0.44295600  0.24102600  1
  O  O15  1  0.43229100  0.39763100  0.00087500  1
  O  O16  1  0.73642000  0.24021800  0.58346300  1
  O  O17  1  0.77961600  0.05713900  0.90161800  1
  O  O18  1  0.73701800  0.58352000  0.44091800  1
  O  O19  1  0.57685300  0.80415300  0.62154100  1
  O  O20  1  0.77384600  0.90404300  0.26479500  1
  O  O21  1  0.92214000  0.68097000  0.51482500  1
  O  O22  1  0.92085000  0.51504100  0.88455200  1
  O  O23  1  0.92327400  0.88353000  0.67909300  1
loop_
_geom_bond_atom_site_label_1
_geom_bond_atom_site_label_2
_geom_bond_distance
_geom_bond_site_symmetry_2
Mg0 O22 2.037753 1_555
Mg0 O19 2.041292 1_555
Mg0 O11 2.041464 1_555
Mg0 O23 2.046174 1_555
Mg0 O8 2.046882 1_555
Mg0 O21 2.049281 1_555
Fe0 O17 2.098609 1_554
Fe0 O10 2.159284 1_555
Fe0 O20 2.160467 1_545
Fe0 O3 2.276866 1_654
Fe0 O6 2.278511 1_645
Fe0 O13 2.302441 1_644
Fe1 O16 2.226447 1_555
Fe1 O14 2.227660 1_555
Fe1 O18 2.232285 1_555
Fe1 O9 2.251319 1_555
Fe1 O7 2.288816 1_555
Fe1 O5 2.304409 1_555
Co0 O15 2.002324 1_555
Co0 O12 2.007528 1_555
Co0 O4 2.007865 1_555
Co0 O20 2.139369 1_545
Co0 O10 2.154488 1_555
Co0 O17 2.174153 1_554
O0 P1 1.557318 1_545
O0 Ti2 1.898504 1_455
O1 P2 1.558690 1_554
O1 Ti2 1.898901 1_455
O2 P0 1.557469 1_555
O2 Ti2 1.892267 1_455
O3 P0 1.574916 1_555
O3 Ti1 1.983002 1_545
O4 P0 1.487818 1_555
O5 P0 1.578458 1_555
O5 Ti0 1.946426 1_555
O6 P1 1.581169 1_555
O6 Ti1 1.995068 1_554
O7 P1 1.580011 1_555
O7 Ti0 1.955604 1_555
O8 P3 1.568223 1_556
O8 Ti1 2.136708 1_555
O9 P2 1.582733 1_555
O9 Ti0 1.958170 1_555
O10 P3 1.523587 1_555
O11 P4 1.565726 1_565
O11 Ti1 2.166982 1_555
O12 P1 1.492143 1_545
O13 P2 1.574212 1_555
O13 Ti1 1.980573 1_555
O14 P3 1.562160 1_555
O14 Ti2 2.071948 1_555
O15 P2 1.490042 1_554
O16 P4 1.558288 1_555
O16 Ti2 2.083874 1_555
O17 P4 1.530392 1_555
O18 P5 1.557977 1_555
O18 Ti2 2.080637 1_555
O19 P5 1.568867 1_555
O19 Ti1 2.142638 1_555
O20 P5 1.524661 1_555
O21 P5 1.569507 1_555
O21 Ti0 2.087389 1_655
O22 P3 1.570911 1_556
O22 Ti0 2.111114 1_655
O23 P4 1.568168 1_565
O23 Ti0 2.105734 1_655
