# generated using pymatgen
data_Al2O3
_symmetry_space_group_name_H-M   'P 1'
_cell_length_a   10.42288379
_cell_length_b   10.24025617
_cell_length_c   10.52342839
_cell_angle_alpha   86.84111449
_cell_angle_beta   87.61405328
_cell_angle_gamma   90.11148092
_symmetry_Int_Tables_number   1
_chemical_formula_structural   Al2O3
_chemical_formula_sum   'Al40 O60'
_cell_volume   1120.50808502
_cell_formula_units_Z   20
loop_
 _symmetry_equiv_pos_site_id
 _symmetry_equiv_pos_as_xyz
  1  'x, y, z'
loop_
 _atom_site_type_symbol
 _atom_site_label
 _atom_site_symmetry_multiplicity
 _atom_site_fract_x
 _atom_site_fract_y
 _atom_site_fract_z
 _atom_site_occupancy
  Al  Al0  1  0.94054800  0.11854000  0.59535200  1
  Al  Al1  1  0.73964600  0.69282600  0.42430700  1
  Al  Al2  1  0.38583700  0.28845400  0.46833400  1
  Al  Al3  1  0.13646100  0.45948000  0.82086000  1
  Al  Al4  1  0.59098300  0.64658100  0.74346200  1
  Al  Al5  1  0.06935800  0.34147400  0.05718500  1
  Al  Al6  1  0.41885600  0.97663100  0.82789400  1
  Al  Al7  1  0.15398400  0.75658700  0.26452300  1
  Al  Al8  1  0.03600400  0.85606600  0.73909700  1
  Al  Al9  1  0.03735500  0.95600000  0.14043200  1
  Al  Al10  1  0.86944300  0.33056500  0.78097400  1
  Al  Al11  1  0.18002600  0.47178100  0.33892700  1
  Al  Al12  1  0.05901200  0.65082500  0.06682300  1
  Al  Al13  1  0.35805200  0.57660100  0.72390400  1
  Al  Al14  1  0.99076400  0.18637200  0.31316500  1
  Al  Al15  1  0.59129200  0.36673800  0.67569900  1
  Al  Al16  1  0.21870000  0.73968600  0.55537200  1
  Al  Al17  1  0.74748600  0.08562900  0.13477900  1
  Al  Al18  1  0.67610600  0.45660800  0.95662500  1
  Al  Al19  1  0.37937000  0.38549700  0.99510000  1
  Al  Al20  1  0.41922600  0.66382100  0.33327200  1
  Al  Al21  1  0.97533100  0.89006700  0.45275500  1
  Al  Al22  1  0.25326700  0.19405300  0.22595900  1
  Al  Al23  1  0.50356800  0.82340300  0.54277000  1
  Al  Al24  1  0.76224200  0.66685800  0.12685900  1
  Al  Al25  1  0.99414000  0.59642800  0.60720600  1
  Al  Al26  1  0.76448500  0.90441100  0.65099000  1
  Al  Al27  1  0.25996500  0.03880900  0.63846000  1
  Al  Al28  1  0.85522400  0.02572000  0.89726400  1
  Al  Al29  1  0.52241300  0.09145000  0.59268800  1
  Al  Al30  1  0.72015600  0.01241800  0.41485900  1
  Al  Al31  1  0.50516200  0.16999100  0.18902600  1
  Al  Al32  1  0.11074700  0.12916800  0.82222600  1
  Al  Al33  1  0.45120700  0.92137200  0.13755000  1
  Al  Al34  1  0.58200500  0.18825000  0.90792500  1
  Al  Al35  1  0.82805300  0.41231200  0.50053000  1
  Al  Al36  1  0.10883200  0.33218400  0.55214900  1
  Al  Al37  1  0.49385100  0.69690300  0.00409000  1
  Al  Al38  1  0.81480800  0.72230200  0.88112400  1
  Al  Al39  1  0.77337400  0.36652900  0.21106000  1
  O  O0  1  0.09071600  0.27511500  0.90225500  1
  O  O1  1  0.71428100  0.10348900  0.96330400  1
  O  O2  1  0.23875200  0.33277600  0.10295500  1
  O  O3  1  0.83313900  0.58645400  0.53235200  1
  O  O4  1  0.66149200  0.73956200  0.01399400  1
  O  O5  1  0.95199100  0.70294700  0.75870000  1
  O  O6  1  0.73047000  0.50078000  0.11122100  1
  O  O7  1  0.14853000  0.28990200  0.34573300  1
  O  O8  1  0.27396600  0.76290900  0.37898800  1
  O  O9  1  0.73248500  0.06784700  0.57907400  1
  O  O10  1  0.27279100  0.36619500  0.56653700  1
  O  O11  1  0.43131600  0.93543700  0.66366900  1
  O  O12  1  0.71700500  0.59039200  0.83393400  1
  O  O13  1  0.11394300  0.15655900  0.64682500  1
  O  O14  1  0.00843900  0.06209000  0.44157200  1
  O  O15  1  0.03088600  0.97233100  0.86245800  1
  O  O16  1  0.46127400  0.22774800  0.02547200  1
  O  O17  1  0.18359800  0.60371000  0.70028300  1
  O  O18  1  0.02976900  0.86822300  0.29309000  1
  O  O19  1  0.58962500  0.35016600  0.84581800  1
  O  O20  1  0.35661900  0.12046000  0.52471900  1
  O  O21  1  0.00915700  0.42541900  0.70797000  1
  O  O22  1  0.37920500  0.70463500  0.58793800  1
  O  O23  1  0.94427500  0.31739900  0.18519500  1
  O  O24  1  0.07333400  0.49494200  0.47634600  1
  O  O25  1  0.44480500  0.89159000  0.97239900  1
  O  O26  1  0.13495300  0.81036800  0.09234400  1
  O  O27  1  0.93525800  0.93803700  0.62889700  1
  O  O28  1  0.35234800  0.05047400  0.18920000  1
  O  O29  1  0.09822000  0.11231800  0.18510900  1
  O  O30  1  0.75946200  0.36490300  0.65515500  1
  O  O31  1  0.89171500  0.00166100  0.06862700  1
  O  O32  1  0.53548700  0.27058000  0.55546400  1
  O  O33  1  0.11446800  0.59293200  0.22318900  1
  O  O34  1  0.51826200  0.51995400  0.66372000  1
  O  O35  1  0.94318600  0.27892500  0.50642900  1
  O  O36  1  0.90437200  0.70006100  0.02289500  1
  O  O37  1  0.08360800  0.51000700  0.97838500  1
  O  O38  1  0.49591600  0.51124500  0.02070400  1
  O  O39  1  0.18349300  0.88280300  0.64786900  1
  O  O40  1  0.79934900  0.85837100  0.46146700  1
  O  O41  1  0.56324800  0.71024800  0.41456700  1
  O  O42  1  0.78310500  0.88902700  0.82209600  1
  O  O43  1  0.66647000  0.24363500  0.16601600  1
  O  O44  1  0.30743500  0.44238400  0.84567300  1
  O  O45  1  0.53267000  0.10497300  0.77659500  1
  O  O46  1  0.40598500  0.25250100  0.30113700  1
  O  O47  1  0.55676300  0.97732800  0.45631900  1
  O  O48  1  0.81837300  0.09498300  0.29513600  1
  O  O49  1  0.74556000  0.40398000  0.36654800  1
  O  O50  1  0.34494900  0.51055000  0.34213000  1
  O  O51  1  0.80335100  0.69912900  0.27387900  1
  O  O52  1  0.43772600  0.74426200  0.17281500  1
  O  O53  1  0.89662400  0.15742000  0.76755500  1
  O  O54  1  0.27136400  0.06455400  0.80963300  1
  O  O55  1  0.64085900  0.78213900  0.64331300  1
  O  O56  1  0.05146700  0.74232200  0.51507100  1
  O  O57  1  0.82381500  0.36781700  0.93185600  1
  O  O58  1  0.59271700  0.00779100  0.18356600  1
  O  O59  1  0.44851400  0.68332200  0.83471100  1
loop_
_geom_bond_atom_site_label_1
_geom_bond_atom_site_label_2
_geom_bond_distance
_geom_bond_site_symmetry_2
Al0 O35 1.844493 1_555
Al0 O14 1.860940 1_655
Al0 O27 1.862873 1_545
Al0 O53 1.913950 1_555
Al0 O13 1.952752 1_655
Al0 O9 2.244564 1_555
Al1 O51 1.688802 1_555
Al1 O3 1.840862 1_555
Al1 O41 1.854089 1_555
Al1 O40 1.871670 1_555
Al2 O10 1.755843 1_555
Al2 O20 1.809607 1_555
Al2 O46 1.821089 1_555
Al2 O32 1.846304 1_555
Al3 O44 1.819182 1_555
Al3 O37 1.827229 1_555
Al3 O21 1.862441 1_555
Al3 O17 1.942050 1_555
Al3 O0 2.075963 1_555
Al4 O12 1.734799 1_555
Al4 O55 1.760190 1_555
Al4 O34 1.768945 1_555
Al4 O59 1.786602 1_555
Al5 O0 1.806095 1_554
Al5 O23 1.841491 1_455
Al5 O2 1.850370 1_555
Al5 O37 1.875951 1_554
Al6 O25 1.741614 1_555
Al6 O54 1.794923 1_565
Al6 O11 1.800943 1_555
Al6 O45 1.813381 1_565
Al7 O18 1.756320 1_555
Al7 O8 1.775603 1_555
Al7 O33 1.805533 1_555
Al7 O26 1.883097 1_555
Al8 O27 1.774720 1_455
Al8 O39 1.790617 1_555
Al8 O5 1.792165 1_455
Al8 O15 1.808433 1_555
Al9 O31 1.775734 1_465
Al9 O18 1.795828 1_555
Al9 O29 1.813747 1_565
Al9 O26 1.887090 1_555
Al10 O57 1.702168 1_555
Al10 O30 1.807601 1_555
Al10 O53 1.808348 1_555
Al10 O21 1.863701 1_655
Al11 O50 1.765577 1_555
Al11 O24 1.813580 1_555
Al11 O33 1.842695 1_555
Al11 O7 1.887516 1_555
Al12 O36 1.762186 1_455
Al12 O37 1.772216 1_554
Al12 O33 1.834737 1_555
Al12 O26 1.851713 1_555
Al13 O17 1.864701 1_555
Al13 O34 1.866070 1_555
Al13 O44 1.885788 1_555
Al13 O22 1.892280 1_555
Al13 O59 1.915993 1_555
Al14 O14 1.819813 1_655
Al14 O29 1.906759 1_655
Al14 O23 1.925190 1_555
Al14 O7 2.006387 1_655
Al14 O48 2.044932 1_555
Al14 O35 2.326115 1_555
Al15 O34 1.745795 1_555
Al15 O30 1.757408 1_555
Al15 O32 1.762163 1_555
Al15 O19 1.788284 1_555
Al16 O22 1.755412 1_555
Al16 O56 1.810881 1_555
Al16 O39 1.832911 1_555
Al16 O8 1.922370 1_555
Al16 O17 2.028735 1_555
Al17 O58 1.839044 1_555
Al17 O1 1.850767 1_554
Al17 O31 1.862174 1_555
Al17 O43 1.865455 1_555
Al17 O48 1.877257 1_555
Al18 O57 1.806390 1_555
Al18 O6 1.824629 1_556
Al18 O12 1.866158 1_555
Al18 O19 1.893161 1_555
Al18 O38 2.057970 1_556
Al19 O38 1.807141 1_556
Al19 O44 1.836606 1_555
Al19 O16 1.847048 1_556
Al19 O2 1.875820 1_556
Al20 O50 1.744884 1_555
Al20 O41 1.833101 1_555
Al20 O52 1.840089 1_555
Al20 O8 1.884794 1_555
Al21 O18 1.776983 1_655
Al21 O14 1.790929 1_665
Al21 O56 1.813130 1_655
Al21 O40 1.859729 1_555
Al21 O27 1.971888 1_555
Al22 O28 1.847484 1_555
Al22 O2 1.879068 1_555
Al22 O29 1.894506 1_555
Al22 O46 1.916025 1_555
Al22 O7 1.941583 1_555
Al23 O22 1.806697 1_555
Al23 O47 1.848280 1_555
Al23 O55 1.850634 1_555
Al23 O11 1.893792 1_555
Al23 O41 1.911802 1_555
Al24 O51 1.672565 1_555
Al24 O6 1.749930 1_555
Al24 O4 1.754178 1_555
Al24 O36 1.824616 1_555
Al25 O56 1.821471 1_655
Al25 O3 1.888173 1_555
Al25 O24 1.929812 1_655
Al25 O21 2.006430 1_655
Al25 O5 2.014843 1_555
Al25 O17 2.243416 1_655
Al26 O55 1.802261 1_555
Al26 O27 1.815260 1_555
Al26 O42 1.817326 1_555
Al26 O9 1.835379 1_565
Al26 O40 2.091898 1_555
Al27 O20 1.712511 1_555
Al27 O39 1.779968 1_545
Al27 O54 1.843484 1_555
Al27 O13 1.945702 1_555
Al27 O11 2.096775 1_545
Al28 O1 1.804382 1_555
Al28 O42 1.821417 1_545
Al28 O31 1.861680 1_556
Al28 O53 1.901059 1_555
Al28 O15 1.937885 1_645
Al29 O32 1.858010 1_555
Al29 O20 1.915075 1_555
Al29 O47 1.922759 1_545
Al29 O11 1.953301 1_545
Al29 O45 1.955204 1_555
Al29 O9 2.202920 1_555
Al30 O48 1.766919 1_555
Al30 O47 1.771511 1_545
Al30 O40 1.834076 1_545
Al30 O9 1.857780 1_555
Al31 O46 1.784959 1_555
Al31 O43 1.842592 1_555
Al31 O16 1.864358 1_555
Al31 O58 1.899201 1_555
Al31 O28 2.006667 1_555
Al32 O0 1.764024 1_555
Al32 O54 1.803732 1_555
Al32 O15 1.828121 1_545
Al32 O13 1.850573 1_555
Al32 O53 2.342352 1_455
Al33 O28 1.772793 1_565
Al33 O25 1.784920 1_554
Al33 O58 1.815133 1_565
Al33 O52 1.835017 1_555
Al34 O1 1.734826 1_555
Al34 O19 1.748821 1_555
Al34 O45 1.757566 1_555
Al34 O16 1.790184 1_556
Al35 O49 1.687729 1_555
Al35 O30 1.791440 1_555
Al35 O35 1.820127 1_555
Al35 O3 1.833545 1_555
Al36 O10 1.757752 1_555
Al36 O24 1.852434 1_555
Al36 O35 1.898469 1_455
Al36 O13 2.009279 1_555
Al36 O21 2.171238 1_555
Al36 O7 2.259792 1_555
Al37 O4 1.808858 1_555
Al37 O59 1.875354 1_554
Al37 O38 1.899836 1_555
Al37 O52 1.933793 1_555
Al37 O25 2.071727 1_554
Al38 O12 1.794750 1_555
Al38 O36 1.796797 1_556
Al38 O42 1.819986 1_555
Al38 O5 1.902464 1_555
Al38 O4 2.093376 1_556
Al39 O49 1.714231 1_555
Al39 O6 1.753892 1_555
Al39 O43 1.776018 1_555
Al39 O23 1.865040 1_555
