# generated using pymatgen
data_NbCr3(CuS4)2
_symmetry_space_group_name_H-M   'P 1'
_cell_length_a   6.34435052
_cell_length_b   7.29289521
_cell_length_c   12.06863817
_cell_angle_alpha   82.43275985
_cell_angle_beta   85.17306596
_cell_angle_gamma   90.59975394
_symmetry_Int_Tables_number   1
_chemical_formula_structural   NbCr3(CuS4)2
_chemical_formula_sum   'Nb2 Cr6 Cu4 S16'
_cell_volume   551.44246139
_cell_formula_units_Z   2
loop_
 _symmetry_equiv_pos_site_id
 _symmetry_equiv_pos_as_xyz
  1  'x, y, z'
loop_
 _atom_site_type_symbol
 _atom_site_label
 _atom_site_symmetry_multiplicity
 _atom_site_fract_x
 _atom_site_fract_y
 _atom_site_fract_z
 _atom_site_occupancy
  Nb  Nb0  1  0.14439300  0.70345900  0.69893800  1
  Nb  Nb1  1  0.85560700  0.29654100  0.30106200  1
  Cr  Cr0  1  0.24474600  0.88166800  0.00154300  1
  Cr  Cr1  1  0.75525400  0.11833200  0.99845700  1
  Cr  Cr2  1  0.36808400  0.55759800  0.29195000  1
  Cr  Cr3  1  0.63191600  0.44240200  0.70805000  1
  Cr  Cr4  1  0.36750900  0.04605200  0.29533600  1
  Cr  Cr5  1  0.63249100  0.95394800  0.70466400  1
  Cu  Cu0  1  0.12167800  0.19891500  0.70991300  1
  Cu  Cu1  1  0.87832200  0.80108500  0.29008700  1
  Cu  Cu2  1  0.25970400  0.36970500  0.99729900  1
  Cu  Cu3  1  0.74029600  0.63029500  0.00270100  1
  S  S0  1  0.10621200  0.65375900  0.89119100  1
  S  S1  1  0.89378800  0.34624100  0.10880900  1
  S  S2  1  0.09909100  0.14598100  0.90080700  1
  S  S3  1  0.90090900  0.85401900  0.09919300  1
  S  S4  1  0.19275700  0.78113400  0.36538400  1
  S  S5  1  0.80724300  0.21886600  0.63461600  1
  S  S6  1  0.19560000  0.28614800  0.36819500  1
  S  S7  1  0.80440000  0.71385200  0.63180500  1
  S  S8  1  0.31437800  0.97947000  0.62709900  1
  S  S9  1  0.68562200  0.02053000  0.37290100  1
  S  S10  1  0.31617300  0.45611600  0.63053200  1
  S  S11  1  0.68382700  0.54388400  0.36946800  1
  S  S12  1  0.40798500  0.09493600  0.10587900  1
  S  S13  1  0.59201500  0.90506400  0.89412100  1
  S  S14  1  0.38881400  0.60360600  0.10510000  1
  S  S15  1  0.61118600  0.39639400  0.89490000  1
loop_
_geom_bond_atom_site_label_1
_geom_bond_atom_site_label_2
_geom_bond_distance
_geom_bond_site_symmetry_2
Nb0 S0 2.292511 1_555
Nb0 S8 2.303068 1_555
Nb0 S10 2.324891 1_555
Nb0 S7 2.365658 1_455
Nb1 S1 2.292511 1_555
Nb1 S9 2.303068 1_555
Nb1 S11 2.324891 1_555
Nb1 S6 2.365658 1_655
Cr0 S2 2.378398 1_564
Cr0 S3 2.384048 1_455
Cr0 S12 2.403910 1_565
Cr0 S13 2.452980 1_554
Cr0 S0 2.461346 1_554
Cr0 S14 2.464392 1_555
Cr1 S3 2.378398 1_546
Cr1 S2 2.384048 1_655
Cr1 S13 2.403910 1_545
Cr1 S12 2.452980 1_556
Cr1 S1 2.461346 1_556
Cr1 S15 2.464392 1_555
Cr2 S4 2.221023 1_555
Cr2 S14 2.228205 1_555
Cr2 S11 2.278798 1_555
Cr2 S6 2.295355 1_555
Cr3 S5 2.221023 1_555
Cr3 S15 2.228205 1_555
Cr3 S10 2.278798 1_555
Cr3 S7 2.295355 1_555
Cr4 S4 2.245842 1_545
Cr4 S12 2.259567 1_555
Cr4 S9 2.294356 1_555
Cr4 S6 2.304948 1_555
Cr5 S5 2.245842 1_565
Cr5 S13 2.259567 1_555
Cr5 S8 2.294356 1_555
Cr5 S7 2.304948 1_555
Cu0 S5 2.258953 1_455
Cu0 S2 2.277331 1_555
Cu0 S10 2.288696 1_555
Cu0 S8 2.304647 1_545
Cu1 S4 2.258953 1_655
Cu1 S3 2.277331 1_555
Cu1 S11 2.288696 1_555
Cu1 S9 2.304647 1_565
Cu2 S2 2.392046 1_555
Cu2 S15 2.449791 1_555
Cu2 S14 2.451122 1_556
Cu2 S12 2.484547 1_556
Cu2 S0 2.536338 1_555
Cu2 S1 2.575849 1_456
Cu3 S3 2.392046 1_555
Cu3 S14 2.449791 1_555
Cu3 S15 2.451122 1_554
Cu3 S13 2.484547 1_554
Cu3 S1 2.536338 1_555
Cu3 S0 2.575849 1_654
