# generated using pymatgen
data_Ba2GaSbTe5
_symmetry_space_group_name_H-M   'P 1'
_cell_length_a   9.78547600
_cell_length_b   9.99410000
_cell_length_c   13.67356200
_cell_angle_alpha   90.00000000
_cell_angle_beta   90.00000000
_cell_angle_gamma   90.00000000
_symmetry_Int_Tables_number   1
_chemical_formula_structural   Ba2GaSbTe5
_chemical_formula_sum   'Ba8 Ga4 Sb4 Te20'
_cell_volume   1337.23369421
_cell_formula_units_Z   4
loop_
 _symmetry_equiv_pos_site_id
 _symmetry_equiv_pos_as_xyz
  1  'x, y, z'
loop_
 _atom_site_type_symbol
 _atom_site_label
 _atom_site_symmetry_multiplicity
 _atom_site_fract_x
 _atom_site_fract_y
 _atom_site_fract_z
 _atom_site_occupancy
  Ba  Ba0  1  0.00716800  0.12222400  0.82590400  1
  Ba  Ba1  1  0.49283200  0.37777600  0.32590400  1
  Ba  Ba2  1  0.50716800  0.87777600  0.17409600  1
  Ba  Ba3  1  0.99283200  0.62222400  0.67409600  1
  Ba  Ba4  1  0.99283200  0.87777600  0.17409600  1
  Ba  Ba5  1  0.50716800  0.62222400  0.67409600  1
  Ba  Ba6  1  0.49283200  0.12222400  0.82590400  1
  Ba  Ba7  1  0.00716800  0.37777600  0.32590400  1
  Ga  Ga0  1  0.25000000  0.33524500  0.60003000  1
  Ga  Ga1  1  0.25000000  0.16475500  0.10003000  1
  Ga  Ga2  1  0.75000000  0.66475500  0.39997000  1
  Ga  Ga3  1  0.75000000  0.83524500  0.89997000  1
  Sb  Sb0  1  0.25000000  0.98288100  0.52881800  1
  Sb  Sb1  1  0.25000000  0.51711900  0.02881800  1
  Sb  Sb2  1  0.75000000  0.01711900  0.47118200  1
  Sb  Sb3  1  0.75000000  0.48288100  0.97118200  1
  Te  Te0  1  0.03455000  0.17693200  0.56061400  1
  Te  Te1  1  0.46545000  0.32306800  0.06061400  1
  Te  Te2  1  0.53455000  0.82306800  0.43938600  1
  Te  Te3  1  0.96545000  0.67693200  0.93938600  1
  Te  Te4  1  0.96545000  0.82306800  0.43938600  1
  Te  Te5  1  0.53455000  0.67693200  0.93938600  1
  Te  Te6  1  0.46545000  0.17693200  0.56061400  1
  Te  Te7  1  0.03455000  0.32306800  0.06061400  1
  Te  Te8  1  0.25000000  0.88121000  0.72449400  1
  Te  Te9  1  0.25000000  0.61879000  0.22449400  1
  Te  Te10  1  0.75000000  0.11879000  0.27550600  1
  Te  Te11  1  0.75000000  0.38121000  0.77550600  1
  Te  Te12  1  0.25000000  0.39725100  0.78791100  1
  Te  Te13  1  0.25000000  0.10274900  0.28791100  1
  Te  Te14  1  0.75000000  0.60274900  0.21208900  1
  Te  Te15  1  0.75000000  0.89725100  0.71208900  1
  Te  Te16  1  0.25000000  0.95239400  0.98981900  1
  Te  Te17  1  0.25000000  0.54760600  0.48981900  1
  Te  Te18  1  0.75000000  0.04760600  0.01018100  1
  Te  Te19  1  0.75000000  0.45239400  0.51018100  1
loop_
_geom_bond_atom_site_label_1
_geom_bond_atom_site_label_2
_geom_bond_distance
_geom_bond_site_symmetry_2
Ba0 Te18 3.638401 1_456
Ba0 Te8 3.656656 1_545
Ba0 Te12 3.670340 1_555
Ba0 Te11 3.675211 1_455
Ba0 Te0 3.678206 1_555
Ba0 Te16 3.681129 1_545
Ba0 Te15 3.716191 1_445
Ba0 Te7 3.794814 1_556
Ba1 Te19 3.638401 1_555
Ba1 Te9 3.656656 1_555
Ba1 Te13 3.670340 1_555
Ba1 Te10 3.675211 1_555
Ba1 Te1 3.678206 1_555
Ba1 Te17 3.681129 1_555
Ba1 Te14 3.716191 1_555
Ba1 Te6 3.794814 1_555
Ba2 Te16 3.638401 1_554
Ba2 Te10 3.656656 1_565
Ba2 Te14 3.670340 1_555
Ba2 Te9 3.675211 1_555
Ba2 Te2 3.678206 1_555
Ba2 Te18 3.681129 1_565
Ba2 Te13 3.716191 1_565
Ba2 Te5 3.794814 1_554
Ba3 Te17 3.638401 1_655
Ba3 Te11 3.656656 1_555
Ba3 Te15 3.670340 1_555
Ba3 Te8 3.675211 1_655
Ba3 Te3 3.678206 1_555
Ba3 Te19 3.681129 1_555
Ba3 Te12 3.716191 1_655
Ba3 Te4 3.794814 1_555
Ba4 Te16 3.638401 1_654
Ba4 Te10 3.656656 1_565
Ba4 Te14 3.670340 1_555
Ba4 Te9 3.675211 1_655
Ba4 Te4 3.678206 1_555
Ba4 Te18 3.681129 1_565
Ba4 Te13 3.716191 1_665
Ba4 Te3 3.794814 1_554
Ba5 Te17 3.638401 1_555
Ba5 Te11 3.656656 1_555
Ba5 Te15 3.670340 1_555
Ba5 Te8 3.675211 1_555
Ba5 Te5 3.678206 1_555
Ba5 Te19 3.681129 1_555
Ba5 Te12 3.716191 1_555
Ba5 Te2 3.794814 1_555
Ba6 Te18 3.638401 1_556
Ba6 Te8 3.656656 1_545
Ba6 Te12 3.670340 1_555
Ba6 Te11 3.675211 1_555
Ba6 Te6 3.678206 1_555
Ba6 Te16 3.681129 1_545
Ba6 Te15 3.716191 1_545
Ba6 Te1 3.794814 1_556
Ba7 Te19 3.638401 1_455
Ba7 Te9 3.656656 1_555
Ba7 Te13 3.670340 1_555
Ba7 Te10 3.675211 1_455
Ba7 Te7 3.678206 1_555
Ba7 Te17 3.681129 1_555
Ba7 Te14 3.716191 1_455
Ba7 Te0 3.794814 1_555
Ga0 Te17 2.602956 1_555
Ga0 Te12 2.642687 1_555
Ga0 Te6 2.690477 1_555
Ga0 Te0 2.690477 1_555
Ga1 Te16 2.602956 1_544
Ga1 Te13 2.642687 1_555
Ga1 Te7 2.690477 1_555
Ga1 Te1 2.690477 1_555
Ga2 Te19 2.602956 1_555
Ga2 Te14 2.642687 1_555
Ga2 Te2 2.690477 1_555
Ga2 Te4 2.690477 1_555
Ga3 Te18 2.602956 1_566
Ga3 Te15 2.642687 1_555
Ga3 Te5 2.690477 1_555
Ga3 Te3 2.690477 1_555
Sb0 Te8 2.862036 1_555
Sb0 Te0 2.897414 1_565
Sb0 Te6 2.897414 1_565
Sb0 Te4 3.435052 1_455
Sb0 Te2 3.435052 1_555
Sb1 Te9 2.862036 1_555
Sb1 Te7 2.897414 1_555
Sb1 Te1 2.897414 1_555
Sb1 Te3 3.435052 1_454
Sb1 Te5 3.435052 1_554
Sb2 Te10 2.862036 1_555
Sb2 Te2 2.897414 1_545
Sb2 Te4 2.897414 1_545
Sb2 Te6 3.435052 1_555
Sb2 Te0 3.435052 1_655
Sb3 Te11 2.862036 1_555
Sb3 Te5 2.897414 1_555
Sb3 Te3 2.897414 1_555
Sb3 Te1 3.435052 1_556
Sb3 Te7 3.435052 1_656
