# generated using pymatgen
data_Zn11Co2
_symmetry_space_group_name_H-M   'P 1'
_cell_length_a   7.64464521
_cell_length_b   7.64478068
_cell_length_c   7.64477020
_cell_angle_alpha   109.47147854
_cell_angle_beta   109.47076657
_cell_angle_gamma   109.47084487
_symmetry_Int_Tables_number   1
_chemical_formula_structural   Zn11Co2
_chemical_formula_sum   'Zn22 Co4'
_cell_volume   343.92834894
_cell_formula_units_Z   2
loop_
 _symmetry_equiv_pos_site_id
 _symmetry_equiv_pos_as_xyz
  1  'x, y, z'
loop_
 _atom_site_type_symbol
 _atom_site_label
 _atom_site_symmetry_multiplicity
 _atom_site_fract_x
 _atom_site_fract_y
 _atom_site_fract_z
 _atom_site_occupancy
  Zn  Zn0  1  0.35429548  0.35434791  0.99999974  1
  Zn  Zn1  1  -0.00004601  0.64565555  0.64565643  1
  Zn  Zn2  1  0.35429463  0.99999953  0.35434726  1
  Zn  Zn3  1  0.00001478  0.35430277  0.35430329  1
  Zn  Zn4  1  0.64571649  0.00000807  0.64570106  1
  Zn  Zn5  1  0.64571723  0.64570015  0.00000778  1
  Zn  Zn6  1  0.20668333  0.20674312  0.20674520  1
  Zn  Zn7  1  -0.00005517  0.00000374  0.79327319  1
  Zn  Zn8  1  -0.00005491  0.79327988  0.00000639  1
  Zn  Zn9  1  0.79330847  0.00000313  0.00000572  1
  Zn  Zn10  1  0.39028405  0.74247733  0.74247878  1
  Zn  Zn11  1  0.64780294  0.99999332  0.25752214  1
  Zn  Zn12  1  0.64779920  0.25752342  0.99999513  1
  Zn  Zn13  1  0.99999410  0.64772682  0.25744758  1
  Zn  Zn14  1  0.74255506  0.39028435  0.74255404  1
  Zn  Zn15  1  0.25742954  0.64767123  0.99999218  1
  Zn  Zn16  1  0.99999415  0.25744889  0.64772273  1
  Zn  Zn17  1  0.25742881  0.99999202  0.64766886  1
  Zn  Zn18  1  0.74255541  0.74255304  0.39028139  1
  Zn  Zn19  1  0.60977060  0.35231273  0.35231373  1
  Zn  Zn20  1  0.35226025  0.60973697  0.35226005  1
  Zn  Zn21  1  0.35225597  0.35225499  0.60973332  1
  Co  Co0  1  0.34379418  0.99999855  0.99999918  1
  Co  Co1  1  0.00000038  0.34377908  0.00000039  1
  Co  Co2  1  0.00000013  -0.00000059  0.34378216  1
  Co  Co3  1  0.65620193  0.65620099  0.65620128  1
loop_
_geom_bond_atom_site_label_1
_geom_bond_atom_site_label_2
_geom_bond_distance
_geom_bond_site_symmetry_2
Zn0 Zn7 2.563924 1_555
Zn0 Zn6 2.563950 1_556
Zn0 Zn5 2.572153 1_556
Zn0 Zn15 2.585288 1_555
Zn0 Zn12 2.586398 1_555
Zn0 Zn20 2.758091 1_556
Zn0 Zn16 2.758109 1_455
Zn0 Zn19 2.758657 1_556
Zn0 Zn17 2.758680 1_545
Zn0 Zn21 2.973004 1_555
Zn0 Zn18 2.973220 1_556
Zn1 Zn7 2.563957 1_565
Zn1 Zn8 2.563970 1_556
Zn1 Zn3 2.572157 1_555
Zn1 Zn19 2.585316 1_455
Zn1 Zn10 2.586415 1_555
Zn1 Zn14 2.758051 1_455
Zn1 Zn18 2.758067 1_455
Zn1 Zn15 2.758562 1_555
Zn1 Zn17 2.758579 1_555
Zn1 Zn16 2.973159 1_455
Zn1 Zn13 2.973185 1_455
Zn2 Zn8 2.563911 1_555
Zn2 Zn6 2.563926 1_565
Zn2 Zn4 2.572159 1_565
Zn2 Zn21 2.758071 1_565
Zn2 Zn20 2.973006 1_555
Zn3 Zn6 2.563010 1_555
Zn3 Zn9 2.563577 1_455
Zn4 Zn7 2.563045 1_655
Zn4 Zn9 2.563630 1_556
Zn5 Zn8 2.563034 1_655
Zn5 Zn9 2.563609 1_565
Zn6 Zn9 2.580237 1_455
Zn6 Zn8 2.580823 1_545
Zn6 Zn7 2.580875 1_554
Zn7 Zn9 2.580191 1_456
Zn7 Zn8 2.580775 1_546
Zn8 Zn9 2.580138 1_465
Zn10 Zn9 2.563775 1_566
Zn10 Zn20 2.687091 1_555
Zn10 Zn21 2.687107 1_555
Zn10 Zn15 2.688064 1_555
Zn10 Zn17 2.688092 1_555
Zn10 Zn5 2.758199 1_556
Zn10 Zn4 2.758205 1_565
Zn10 Zn3 2.972897 1_555
Zn11 Zn9 2.563743 1_565
Zn11 Zn2 2.586436 1_555
Zn11 Zn18 2.686998 1_555
Zn11 Zn16 2.687009 1_565
Zn11 Zn19 2.688007 1_565
Zn11 Zn15 2.688110 1_554
Zn11 Zn5 2.758128 1_555
Zn11 Zn3 2.758212 1_665
Zn11 Zn4 2.972856 1_565
Zn12 Zn9 2.563794 1_556
Zn12 Zn14 2.687018 1_555
Zn12 Zn13 2.687032 1_556
Zn12 Zn19 2.687983 1_556
Zn12 Zn17 2.688110 1_545
Zn12 Zn4 2.758147 1_555
Zn12 Zn3 2.758228 1_656
Zn12 Zn5 2.972837 1_556
Zn13 Zn8 2.563442 1_655
Zn13 Zn3 2.586017 1_655
Zn13 Zn17 2.687316 1_655
Zn13 Zn20 2.687411 1_655
Zn13 Zn18 2.687468 1_555
Zn13 Zn5 2.758056 1_555
Zn13 Zn2 2.758085 1_655
Zn14 Zn8 2.563467 1_656
Zn14 Zn4 2.585994 1_555
Zn14 Zn19 2.687400 1_555
Zn14 Zn16 2.687494 1_555
Zn14 Zn21 2.687603 1_555
Zn14 Zn5 2.758130 1_556
Zn14 Zn2 2.973234 1_545
Zn15 Zn8 2.564053 1_556
Zn15 Zn20 2.687237 1_556
Zn15 Zn16 2.687334 1_455
Zn15 Zn2 2.758670 1_556
Zn15 Zn5 2.973339 1_556
Zn16 Zn7 2.563457 1_655
Zn16 Zn3 2.585973 1_655
Zn16 Zn21 2.687377 1_655
Zn16 Zn4 2.758083 1_555
Zn17 Zn7 2.564022 1_565
Zn17 Zn2 2.585271 1_555
Zn17 Zn21 2.687210 1_565
Zn17 Zn4 2.973329 1_565
Zn18 Zn7 2.563444 1_665
Zn18 Zn5 2.585972 1_555
Zn18 Zn19 2.687415 1_555
Zn18 Zn20 2.687598 1_555
Zn18 Zn4 2.758158 1_565
Zn19 Zn6 2.564071 1_555
Zn19 Zn2 2.758648 1_545
Zn19 Zn3 2.973172 1_655
Zn20 Zn6 2.563501 1_555
Zn20 Zn4 2.586031 1_565
Zn20 Zn3 2.758161 1_555
Zn21 Zn6 2.563464 1_555
Zn21 Zn5 2.586058 1_556
Zn21 Zn3 2.758146 1_555
Co0 Zn10 2.495355 1_555
Co0 Zn12 2.495358 1_565
Co0 Zn11 2.495377 1_556
Co0 Zn19 2.550448 1_566
Co0 Zn15 2.550495 1_555
Co0 Zn17 2.550515 1_555
Co0 Zn8 2.576397 1_556
Co0 Zn7 2.576407 1_565
Co0 Zn6 2.576465 1_566
Co0 Zn1 2.683187 1_555
Co0 Zn2 2.683218 1_556
Co0 Zn0 2.683230 1_565
Co1 Zn15 2.494461 1_554
Co1 Zn14 2.494782 1_454
Co1 Zn13 2.494799 1_455
Co1 Zn12 2.549596 1_454
Co1 Zn20 2.550060 1_555
Co1 Zn16 2.550142 1_454
Co1 Zn7 2.575714 1_554
Co1 Zn6 2.575755 1_555
Co1 Zn9 2.575907 1_455
Co1 Zn0 2.682612 1_554
Co1 Zn4 2.682752 1_454
Co1 Zn3 2.682781 1_555
Co2 Zn17 2.494428 1_545
Co2 Zn18 2.494747 1_445
Co2 Zn16 2.494768 1_455
Co2 Zn11 2.549561 1_445
Co2 Zn21 2.550028 1_555
Co2 Zn13 2.550105 1_445
Co2 Zn8 2.575700 1_545
Co2 Zn6 2.575756 1_555
Co2 Zn9 2.575902 1_455
Co2 Zn2 2.682614 1_545
Co2 Zn5 2.682757 1_445
Co2 Zn3 2.682794 1_555
Co3 Zn19 2.494505 1_555
Co3 Zn20 2.494850 1_555
Co3 Zn21 2.494875 1_555
Co3 Zn10 2.549550 1_555
Co3 Zn14 2.550088 1_555
Co3 Zn18 2.550108 1_555
Co3 Zn8 2.575873 1_656
Co3 Zn7 2.575877 1_665
Co3 Zn9 2.576069 1_566
Co3 Zn1 2.682682 1_655
Co3 Zn5 2.682864 1_556
Co3 Zn4 2.682872 1_565
