# generated using pymatgen
data_Sm3Gd
_symmetry_space_group_name_H-M   'P 1'
_cell_length_a   7.34490003
_cell_length_b   7.35287068
_cell_length_c   5.87839973
_cell_angle_alpha   90.00000000
_cell_angle_beta   90.00000000
_cell_angle_gamma   120.00601364
_symmetry_Int_Tables_number   1
_chemical_formula_structural   Sm3Gd
_chemical_formula_sum   'Sm6 Gd2'
_cell_volume   274.91994187
_cell_formula_units_Z   2
loop_
 _symmetry_equiv_pos_site_id
 _symmetry_equiv_pos_as_xyz
  1  'x, y, z'
loop_
 _atom_site_type_symbol
 _atom_site_label
 _atom_site_symmetry_multiplicity
 _atom_site_fract_x
 _atom_site_fract_y
 _atom_site_fract_z
 _atom_site_occupancy
  Sm  Sm0  1  0.16717963  0.33368952  0.25000200  1
  Sm  Sm1  1  0.66687540  0.83348959  0.25000200  1
  Sm  Sm2  1  0.16722121  0.83344807  0.25000200  1
  Sm  Sm3  1  0.83143698  0.66314918  0.75000200  1
  Sm  Sm4  1  0.33663031  0.16825868  0.75000200  1
  Sm  Sm5  1  0.83134029  0.16814559  0.75000200  1
  Gd  Gd0  1  0.33242318  0.66634197  0.75000200  1
  Gd  Gd1  1  0.66689300  0.33347840  0.25000200  1
loop_
_geom_bond_atom_site_label_1
_geom_bond_atom_site_label_2
_geom_bond_distance
_geom_bond_site_symmetry_2
Sm0 Sm4 3.630664 1_555
Sm0 Sm4 3.630664 1_554
Sm0 Sm5 3.633468 1_455
Sm0 Sm5 3.633468 1_454
Sm0 Sm1 3.672259 1_555
Sm0 Sm2 3.674507 1_555
Sm0 Sm1 3.675962 1_445
Sm0 Sm2 3.678363 1_545
Sm1 Sm5 3.630437 1_565
Sm1 Sm5 3.630437 1_564
Sm1 Sm3 3.630799 1_555
Sm1 Sm3 3.630799 1_554
Sm1 Sm2 3.669757 1_555
Sm1 Sm2 3.675143 1_655
Sm2 Sm4 3.630969 1_565
Sm2 Sm4 3.630969 1_564
Sm2 Sm3 3.633274 1_455
Sm2 Sm3 3.633274 1_454
Sm3 Sm4 3.636257 1_555
Sm3 Sm5 3.639342 1_555
Sm3 Sm4 3.711963 1_665
Sm3 Sm5 3.713529 1_565
Sm4 Sm5 3.634011 1_555
Sm4 Sm5 3.710889 1_455
Gd0 Sm2 3.621066 1_555
Gd0 Sm2 3.621066 1_556
Gd0 Sm0 3.622906 1_555
Gd0 Sm0 3.622906 1_556
Gd0 Sm1 3.628251 1_555
Gd0 Sm1 3.628251 1_556
Gd0 Sm3 3.668010 1_455
Gd0 Sm5 3.671485 1_455
Gd0 Sm4 3.675173 1_565
Gd0 Sm5 3.676827 1_565
Gd0 Sm3 3.677003 1_555
Gd0 Sm4 3.677893 1_555
Gd1 Sm5 3.611684 1_555
Gd1 Sm5 3.611684 1_554
Gd1 Sm3 3.611828 1_554
Gd1 Sm3 3.611828 1_555
Gd1 Sm4 3.612693 1_555
Gd1 Sm4 3.612693 1_554
Gd1 Sm0 3.671121 1_555
Gd1 Sm2 3.673019 1_545
Gd1 Sm0 3.673779 1_655
Gd1 Sm2 3.675203 1_655
Gd1 Sm1 3.676288 1_545
Gd1 Sm1 3.676582 1_555
