# generated using pymatgen
data_CuH6N4O5
_symmetry_space_group_name_H-M   'P 1'
_cell_length_a   7.96795598
_cell_length_b   7.96795598
_cell_length_c   14.60267904
_cell_angle_alpha   93.52859756
_cell_angle_beta   104.21068853
_cell_angle_gamma   115.93202435
_symmetry_Int_Tables_number   1
_chemical_formula_structural   CuH6N4O5
_chemical_formula_sum   'Cu4 H24 N16 O20'
_cell_volume   792.92646464
_cell_formula_units_Z   4
loop_
 _symmetry_equiv_pos_site_id
 _symmetry_equiv_pos_as_xyz
  1  'x, y, z'
loop_
 _atom_site_type_symbol
 _atom_site_label
 _atom_site_symmetry_multiplicity
 _atom_site_fract_x
 _atom_site_fract_y
 _atom_site_fract_z
 _atom_site_occupancy
  Cu  Cu0  1  0.98843000  0.62777500  0.45775700  1
  Cu  Cu1  1  0.67001800  0.53067300  0.04224300  1
  Cu  Cu2  1  0.01157000  0.37222500  0.54224300  1
  Cu  Cu3  1  0.32998200  0.46932700  0.95775700  1
  H  H0  1  0.36507500  0.27217900  0.38831000  1
  H  H1  1  0.38386900  0.97676500  0.11169000  1
  H  H2  1  0.63492500  0.72782100  0.61169000  1
  H  H3  1  0.61613100  0.02323500  0.88831000  1
  H  H4  1  0.37674900  0.09209900  0.43923300  1
  H  H5  1  0.15286600  0.93751600  0.06076700  1
  H  H6  1  0.62325100  0.90790100  0.56076700  1
  H  H7  1  0.84713400  0.06248400  0.93923300  1
  H  H8  1  0.06322200  0.94815200  0.78421500  1
  H  H9  1  0.66393700  0.27900700  0.71578500  1
  H  H10  1  0.93677800  0.05184800  0.21578500  1
  H  H11  1  0.33606300  0.72099300  0.28421500  1
  H  H12  1  0.07180000  0.76100200  0.83898900  1
  H  H13  1  0.42201300  0.23281100  0.66101100  1
  H  H14  1  0.92820000  0.23899800  0.16101100  1
  H  H15  1  0.57798700  0.76718900  0.33898900  1
  H  H16  1  0.96934600  0.95943000  0.38199000  1
  H  H17  1  0.07744000  0.58735600  0.11801000  1
  H  H18  1  0.03065400  0.04057000  0.61801000  1
  H  H19  1  0.92256000  0.41264400  0.88199000  1
  H  H20  1  0.84782600  0.76889500  0.30557600  1
  H  H21  1  0.96332000  0.54225000  0.19442400  1
  H  H22  1  0.15217400  0.23110500  0.69442400  1
  H  H23  1  0.03668000  0.45775000  0.80557600  1
  N  N0  1  0.43850900  0.19382300  0.40106000  1
  N  N1  1  0.29276300  0.03744900  0.09894000  1
  N  N2  1  0.56149100  0.80617700  0.59894000  1
  N  N3  1  0.70723700  0.96255100  0.90106000  1
  N  N4  1  0.01649000  0.80582900  0.78035000  1
  N  N5  1  0.52547900  0.23614000  0.71965000  1
  N  N6  1  0.98351000  0.19417100  0.21965000  1
  N  N7  1  0.47452100  0.76386000  0.28035000  1
  N  N8  1  0.62988400  0.32009500  0.45907100  1
  N  N9  1  0.36102400  0.17081200  0.04092900  1
  N  N10  1  0.37011600  0.67990500  0.54092900  1
  N  N11  1  0.63897600  0.82918800  0.95907100  1
  N  N12  1  0.01277800  0.71640100  0.69633400  1
  N  N13  1  0.52006700  0.31644500  0.80366600  1
  N  N14  1  0.98722200  0.28359900  0.30366600  1
  N  N15  1  0.47993300  0.68355500  0.19633400  1
  O  O0  1  0.71008300  0.47901400  0.42810300  1
  O  O1  1  0.55091100  0.28198000  0.07189700  1
  O  O2  1  0.28991700  0.52098600  0.57189700  1
  O  O3  1  0.44908900  0.71802000  0.92810300  1
  O  O4  1  0.27077800  0.76493700  0.50027100  1
  O  O5  1  0.76466600  0.77050700  0.99972900  1
  O  O6  1  0.72922200  0.23506300  0.49972900  1
  O  O7  1  0.23533400  0.22949300  0.00027100  1
  O  O8  1  0.00269700  0.79423500  0.62371900  1
  O  O9  1  0.67051600  0.37897900  0.87628100  1
  O  O10  1  0.99730300  0.20576500  0.37628100  1
  O  O11  1  0.32948400  0.62102100  0.12371900  1
  O  O12  1  0.99672300  0.44646300  0.30533900  1
  O  O13  1  0.64112400  0.69138300  0.19466100  1
  O  O14  1  0.00327700  0.55353700  0.69466100  1
  O  O15  1  0.35887600  0.30861700  0.80533900  1
  O  O16  1  0.95750000  0.83215200  0.36589900  1
  O  O17  1  0.96625300  0.59160200  0.13410100  1
  O  O18  1  0.04250000  0.16784800  0.63410100  1
  O  O19  1  0.03374700  0.40839800  0.86589900  1
loop_
_geom_bond_atom_site_label_1
_geom_bond_atom_site_label_2
_geom_bond_distance
_geom_bond_site_symmetry_2
Cu0 O0 1.917665 1_555
Cu0 O4 1.929112 1_655
Cu0 O16 2.229240 1_555
Cu1 O1 1.917665 1_555
Cu1 O5 1.929112 1_554
Cu1 O17 2.229237 1_555
Cu2 O2 1.917665 1_555
Cu2 O6 1.929112 1_455
Cu2 O18 2.229240 1_555
Cu3 O3 1.917665 1_555
Cu3 O7 1.929112 1_556
Cu3 O19 2.229237 1_555
H0 N0 1.023304 1_555
H1 N1 1.023304 1_565
H2 N2 1.023304 1_555
H3 N3 1.023304 1_545
H4 N0 1.025328 1_555
H5 N1 1.025328 1_565
H6 N2 1.025328 1_555
H7 N3 1.025328 1_545
H8 N4 1.019967 1_555
H9 N5 1.019967 1_555
H10 N6 1.019967 1_555
H11 N7 1.019967 1_555
H12 N4 1.022286 1_555
H13 N5 1.022286 1_555
H14 N6 1.022286 1_555
H15 N7 1.022286 1_555
H16 O16 0.984210 1_555
H17 O17 0.984213 1_455
H18 O18 0.984210 1_555
H19 O19 0.984213 1_655
H20 O16 0.987840 1_555
H21 O17 0.987843 1_555
H22 O18 0.987840 1_555
H23 O19 0.987843 1_555
N0 N8 1.405047 1_555
N1 N9 1.405042 1_555
N8 O0 1.311839 1_555
N8 O6 1.313725 1_555
N9 O1 1.311841 1_555
N9 O7 1.313731 1_555
N10 O2 1.311839 1_555
N10 O4 1.313725 1_555
N10 N2 1.405047 1_555
N11 O3 1.311841 1_555
N11 O5 1.313731 1_555
N11 N3 1.405042 1_555
N12 O8 1.264185 1_555
N12 O14 1.264754 1_555
N12 N4 1.367457 1_555
N13 O9 1.264185 1_555
N13 O15 1.264754 1_555
N13 N5 1.367460 1_555
N14 O10 1.264185 1_555
N14 O12 1.264754 1_555
N14 N6 1.367457 1_555
N15 O11 1.264185 1_555
N15 O13 1.264754 1_555
N15 N7 1.367460 1_555
