# generated using pymatgen
data_Ca3Si4(MoO7)2
_symmetry_space_group_name_H-M   'P 1'
_cell_length_a   9.60755284
_cell_length_b   9.60755284
_cell_length_c   10.29263043
_cell_angle_alpha   59.52509312
_cell_angle_beta   59.52509312
_cell_angle_gamma   48.05375984
_symmetry_Int_Tables_number   1
_chemical_formula_structural   Ca3Si4(MoO7)2
_chemical_formula_sum   'Ca6 Si8 Mo4 O28'
_cell_volume   587.68159267
_cell_formula_units_Z   2
loop_
 _symmetry_equiv_pos_site_id
 _symmetry_equiv_pos_as_xyz
  1  'x, y, z'
loop_
 _atom_site_type_symbol
 _atom_site_label
 _atom_site_symmetry_multiplicity
 _atom_site_fract_x
 _atom_site_fract_y
 _atom_site_fract_z
 _atom_site_occupancy
  Ca  Ca0  1  0.24191600  0.16145000  0.53582000  1
  Ca  Ca1  1  0.83855000  0.75808400  0.96418000  1
  Ca  Ca2  1  0.16145000  0.24191600  0.03582000  1
  Ca  Ca3  1  0.66613800  0.33386200  0.25000000  1
  Ca  Ca4  1  0.75808400  0.83855000  0.46418000  1
  Ca  Ca5  1  0.33386200  0.66613800  0.75000000  1
  Si  Si0  1  0.11179900  0.52995000  0.65560600  1
  Si  Si1  1  0.52995000  0.11179900  0.15560600  1
  Si  Si2  1  0.22004500  0.52148900  0.14966400  1
  Si  Si3  1  0.52148900  0.22004500  0.64966400  1
  Si  Si4  1  0.47005000  0.88820100  0.84439400  1
  Si  Si5  1  0.77995500  0.47851100  0.85033600  1
  Si  Si6  1  0.47851100  0.77995500  0.35033600  1
  Si  Si7  1  0.88820100  0.47005000  0.34439400  1
  Mo  Mo0  1  0.20515700  0.79484300  0.25000000  1
  Mo  Mo1  1  0.79484300  0.20515700  0.75000000  1
  Mo  Mo2  1  0.00000000  0.00000000  0.00000000  1
  Mo  Mo3  1  0.00000000  0.00000000  0.50000000  1
  O  O0  1  0.29904600  0.87886300  0.49315700  1
  O  O1  1  0.91918300  0.93048900  0.73827800  1
  O  O2  1  0.64043700  0.47546800  0.80933800  1
  O  O3  1  0.93048900  0.91918300  0.23827800  1
  O  O4  1  0.92667700  0.27667200  0.49213100  1
  O  O5  1  0.49866500  0.05597200  0.81824500  1
  O  O6  1  0.47546800  0.64043700  0.30933800  1
  O  O7  1  0.72332800  0.07332300  0.00786900  1
  O  O8  1  0.50133500  0.94402800  0.18175500  1
  O  O9  1  0.67755800  0.66176800  0.40724000  1
  O  O10  1  0.08081700  0.06951100  0.26172200  1
  O  O11  1  0.07332300  0.72332800  0.50786900  1
  O  O12  1  0.94402800  0.50133500  0.68175500  1
  O  O13  1  0.87886300  0.29904600  0.99315700  1
  O  O14  1  0.66176800  0.67755800  0.90724000  1
  O  O15  1  0.27667200  0.92667700  0.99213100  1
  O  O16  1  0.47563700  0.89710500  0.68155900  1
  O  O17  1  0.32244200  0.33823200  0.59276000  1
  O  O18  1  0.10289500  0.52436300  0.81844100  1
  O  O19  1  0.33823200  0.32244200  0.09276000  1
  O  O20  1  0.05597200  0.49866500  0.31824500  1
  O  O21  1  0.06951100  0.08081700  0.76172200  1
  O  O22  1  0.89710500  0.47563700  0.18155900  1
  O  O23  1  0.35956300  0.52453200  0.19066200  1
  O  O24  1  0.52436300  0.10289500  0.31844100  1
  O  O25  1  0.52453200  0.35956300  0.69066200  1
  O  O26  1  0.12113700  0.70095400  0.00684300  1
  O  O27  1  0.70095400  0.12113700  0.50684300  1
loop_
_geom_bond_atom_site_label_1
_geom_bond_atom_site_label_2
_geom_bond_distance
_geom_bond_site_symmetry_2
Ca0 O21 2.175294 1_555
Ca0 O16 2.381342 1_545
Ca0 O24 2.400759 1_555
Ca0 O0 2.614909 1_545
Ca0 O4 2.644780 1_455
Ca0 O17 2.655737 1_555
Ca0 O20 2.768401 1_555
Ca0 O12 3.038280 1_455
Ca1 O1 2.175294 1_555
Ca1 O18 2.381342 1_655
Ca1 O22 2.400759 1_556
Ca1 O26 2.614909 1_656
Ca1 O7 2.644780 1_566
Ca1 O14 2.655737 1_555
Ca1 O8 2.768401 1_556
Ca1 O5 3.038280 1_565
Ca2 O10 2.175294 1_555
Ca2 O22 2.381342 1_455
Ca2 O18 2.400759 1_554
Ca2 O13 2.614909 1_454
Ca2 O15 2.644780 1_544
Ca2 O19 2.655737 1_555
Ca2 O5 2.768401 1_554
Ca2 O8 3.038280 1_545
Ca3 O13 2.404202 1_554
Ca3 O27 2.404202 1_555
Ca3 O23 2.425061 1_555
Ca3 O6 2.425061 1_555
Ca3 O24 2.959325 1_555
Ca3 O22 2.959325 1_555
Ca3 O10 2.997869 1_655
Ca3 O3 2.997869 1_545
Ca4 O3 2.175294 1_555
Ca4 O24 2.381342 1_565
Ca4 O16 2.400759 1_555
Ca4 O27 2.614909 1_565
Ca4 O11 2.644780 1_655
Ca4 O9 2.655737 1_555
Ca4 O12 2.768401 1_555
Ca4 O20 3.038280 1_655
Ca5 O26 2.404202 1_556
Ca5 O0 2.404202 1_555
Ca5 O25 2.425061 1_555
Ca5 O2 2.425061 1_555
Ca5 O18 2.959325 1_555
Ca5 O16 2.959325 1_555
Ca5 O21 2.997869 1_565
Ca5 O1 2.997869 1_455
Mo0 O3 2.089914 1_455
Mo0 O10 2.089914 1_565
Mo0 O23 2.204010 1_555
Mo0 O6 2.204010 1_555
Mo0 O15 2.241576 1_554
Mo0 O11 2.241576 1_555
Mo1 O1 2.089914 1_545
Mo1 O21 2.089914 1_655
Mo1 O25 2.204010 1_555
Mo1 O2 2.204010 1_555
Mo1 O7 2.241576 1_556
Mo1 O4 2.241576 1_555
Mo2 O21 2.040598 1_554
Mo2 O3 2.040598 1_445
Mo2 O15 2.214654 1_544
Mo2 O7 2.214654 1_455
Mo2 O13 2.240946 1_454
Mo2 O26 2.240946 1_545
Mo3 O1 2.040598 1_445
Mo3 O10 2.040598 1_555
Mo3 O4 2.214654 1_455
Mo3 O11 2.214654 1_545
Mo3 O0 2.240946 1_545
Mo3 O27 2.240946 1_455
O0 Si6 1.640862 1_555
O2 Si5 1.616879 1_555
O4 Si7 1.639230 1_555
O5 Si4 1.680317 1_545
O5 Si3 1.686853 1_555
O6 Si6 1.616879 1_555
O7 Si1 1.639230 1_555
O8 Si1 1.680317 1_565
O8 Si6 1.686853 1_555
O9 Si7 1.674548 1_555
O9 Si6 1.687615 1_555
O11 Si0 1.639230 1_555
O12 Si0 1.680317 1_655
O12 Si5 1.686853 1_555
O13 Si5 1.640862 1_555
O14 Si4 1.674548 1_555
O14 Si5 1.687615 1_555
O15 Si4 1.639230 1_555
O16 Si4 1.608924 1_555
O17 Si0 1.674548 1_555
O17 Si3 1.687615 1_555
O18 Si0 1.608924 1_555
O19 Si1 1.674548 1_555
O19 Si2 1.687615 1_555
O20 Si7 1.680317 1_455
O20 Si2 1.686853 1_555
O22 Si7 1.608924 1_555
O23 Si2 1.616879 1_555
O24 Si1 1.608924 1_555
O25 Si3 1.616879 1_555
O26 Si2 1.640862 1_555
O27 Si3 1.640862 1_555
