# generated using pymatgen
data_BaZnSbF7
_symmetry_space_group_name_H-M   'P 1'
_cell_length_a   10.69806900
_cell_length_b   5.77918700
_cell_length_c   10.00765114
_cell_angle_alpha   86.70262477
_cell_angle_beta   90.00000000
_cell_angle_gamma   90.00000000
_symmetry_Int_Tables_number   1
_chemical_formula_structural   BaZnSbF7
_chemical_formula_sum   'Ba4 Zn4 Sb4 F28'
_cell_volume   617.71010920
_cell_formula_units_Z   4
loop_
 _symmetry_equiv_pos_site_id
 _symmetry_equiv_pos_as_xyz
  1  'x, y, z'
loop_
 _atom_site_type_symbol
 _atom_site_label
 _atom_site_symmetry_multiplicity
 _atom_site_fract_x
 _atom_site_fract_y
 _atom_site_fract_z
 _atom_site_occupancy
  Ba  Ba0  1  0.33070400  0.73642200  0.49011400  1
  Ba  Ba1  1  0.83070400  0.26357800  0.00988600  1
  Ba  Ba2  1  0.66929600  0.26357800  0.50988600  1
  Ba  Ba3  1  0.16929600  0.73642200  0.99011400  1
  Zn  Zn0  1  0.38077700  0.31471500  0.80829000  1
  Zn  Zn1  1  0.88077700  0.68528500  0.69171000  1
  Zn  Zn2  1  0.11922300  0.31471500  0.30829000  1
  Zn  Zn3  1  0.61922300  0.68528500  0.19171000  1
  Sb  Sb0  1  0.59410000  0.79137200  0.82984700  1
  Sb  Sb1  1  0.40590000  0.20862800  0.17015300  1
  Sb  Sb2  1  0.90590000  0.79137200  0.32984700  1
  Sb  Sb3  1  0.09410000  0.20862800  0.67015300  1
  F  F0  1  0.46168700  0.86731900  0.13044800  1
  F  F1  1  0.10300000  0.61125800  0.40340700  1
  F  F2  1  0.72027100  0.50850400  0.76471000  1
  F  F3  1  0.27972900  0.49149600  0.23529000  1
  F  F4  1  0.46170000  0.09276000  0.36617600  1
  F  F5  1  0.79202400  0.80989700  0.51825000  1
  F  F6  1  0.76172300  0.96509900  0.76846600  1
  F  F7  1  0.96170000  0.90724000  0.13382400  1
  F  F8  1  0.39700000  0.61125800  0.90340700  1
  F  F9  1  0.22027100  0.49149600  0.73529000  1
  F  F10  1  0.03831300  0.86731900  0.63044800  1
  F  F11  1  0.53831300  0.13268100  0.86955200  1
  F  F12  1  0.26172300  0.03490100  0.73153400  1
  F  F13  1  0.96456800  0.58060400  0.86137800  1
  F  F14  1  0.53830000  0.90724000  0.63382400  1
  F  F15  1  0.03830000  0.09276000  0.86617600  1
  F  F16  1  0.23827700  0.03490100  0.23153400  1
  F  F17  1  0.96168700  0.13268100  0.36955200  1
  F  F18  1  0.46456800  0.41939600  0.63862200  1
  F  F19  1  0.89700000  0.38874200  0.59659300  1
  F  F20  1  0.03543200  0.41939600  0.13862200  1
  F  F21  1  0.73827700  0.96509900  0.26846600  1
  F  F22  1  0.53543200  0.58060400  0.36137800  1
  F  F23  1  0.29202400  0.19010300  0.98175000  1
  F  F24  1  0.20797600  0.19010300  0.48175000  1
  F  F25  1  0.70797600  0.80989700  0.01825000  1
  F  F26  1  0.60300000  0.38874200  0.09659300  1
  F  F27  1  0.77972900  0.50850400  0.26471000  1
loop_
_geom_bond_atom_site_label_1
_geom_bond_atom_site_label_2
_geom_bond_distance
_geom_bond_site_symmetry_2
Ba0 F1 2.698603 1_555
Ba0 F18 2.702453 1_555
Ba0 F22 2.720505 1_555
Ba0 F4 2.729361 1_565
Ba0 F14 2.852819 1_555
Ba0 F24 2.929164 1_565
Ba0 F9 3.003351 1_555
Ba0 F3 3.036391 1_555
Ba0 F12 3.136369 1_565
Ba0 F16 3.183757 1_565
Ba1 F26 2.698603 1_555
Ba1 F13 2.702453 1_554
Ba1 F20 2.720505 1_655
Ba1 F7 2.729361 1_545
Ba1 F15 2.852819 1_654
Ba1 F25 2.929164 1_545
Ba1 F2 3.003351 1_554
Ba1 F27 3.036391 1_555
Ba1 F6 3.136369 1_544
Ba1 F21 3.183757 1_545
Ba2 F19 2.698603 1_555
Ba2 F22 2.702453 1_555
Ba2 F18 2.720505 1_555
Ba2 F14 2.729361 1_545
Ba2 F4 2.852819 1_555
Ba2 F5 2.929164 1_545
Ba2 F27 3.003351 1_555
Ba2 F2 3.036391 1_555
Ba2 F21 3.136369 1_545
Ba2 F6 3.183757 1_545
Ba3 F8 2.698603 1_555
Ba3 F20 2.702453 1_556
Ba3 F13 2.720505 1_455
Ba3 F15 2.729361 1_565
Ba3 F7 2.852819 1_456
Ba3 F23 2.929164 1_565
Ba3 F3 3.003351 1_556
Ba3 F9 3.036391 1_555
Ba3 F16 3.136369 1_566
Ba3 F12 3.183757 1_565
F0 Zn3 2.061248 1_555
F0 Sb1 2.120130 1_565
F1 Zn2 2.015174 1_555
F1 Sb2 2.446106 1_455
F2 Zn1 2.107148 1_555
F2 Sb0 2.245404 1_555
F3 Zn2 2.107148 1_555
F3 Sb1 2.245404 1_555
F4 Sb1 2.121796 1_555
F5 Zn1 2.071178 1_555
F5 Sb2 2.252516 1_555
F6 Sb0 2.128410 1_555
F6 Zn1 2.229378 1_555
F7 Sb2 2.121796 1_555
F8 Zn0 2.015174 1_555
F8 Sb0 2.446106 1_555
F9 Zn0 2.107148 1_555
F9 Sb3 2.245404 1_555
F10 Zn1 2.061248 1_455
F10 Sb3 2.120130 1_565
F11 Zn0 2.061248 1_555
F11 Sb0 2.120130 1_545
F12 Sb3 2.128410 1_555
F12 Zn0 2.229378 1_555
F13 Zn1 1.983554 1_555
F14 Sb0 2.121796 1_555
F15 Sb3 2.121796 1_555
F16 Sb1 2.128410 1_555
F16 Zn2 2.229378 1_555
F17 Zn2 2.061248 1_655
F17 Sb2 2.120130 1_545
F18 Zn0 1.983554 1_555
F19 Zn1 2.015174 1_555
F19 Sb3 2.446106 1_655
F20 Zn2 1.983554 1_555
F21 Sb2 2.128410 1_555
F21 Zn3 2.229378 1_555
F22 Zn3 1.983554 1_555
F23 Zn0 2.071178 1_555
F23 Sb1 2.252516 1_556
F24 Zn2 2.071178 1_555
F24 Sb3 2.252516 1_555
F25 Zn3 2.071178 1_555
F25 Sb0 2.252516 1_554
F26 Zn3 2.015174 1_555
F26 Sb1 2.446106 1_555
F27 Zn3 2.107148 1_555
F27 Sb2 2.245404 1_555
