# generated using pymatgen
data_KAlNiF6
_symmetry_space_group_name_H-M   'P 1'
_cell_length_a   7.12141758
_cell_length_b   7.12141758
_cell_length_c   7.12141758
_cell_angle_alpha   120.28232950
_cell_angle_beta   119.82624883
_cell_angle_gamma   89.90644866
_symmetry_Int_Tables_number   1
_chemical_formula_structural   KAlNiF6
_chemical_formula_sum   'K2 Al2 Ni2 F12'
_cell_volume   255.16352664
_cell_formula_units_Z   2
loop_
 _symmetry_equiv_pos_site_id
 _symmetry_equiv_pos_as_xyz
  1  'x, y, z'
loop_
 _atom_site_type_symbol
 _atom_site_label
 _atom_site_symmetry_multiplicity
 _atom_site_fract_x
 _atom_site_fract_y
 _atom_site_fract_z
 _atom_site_occupancy
  K  K0  1  0.61786300  0.86786300  0.75000000  1
  K  K1  1  0.38213700  0.13213700  0.25000000  1
  Al  Al0  1  0.00000000  0.50000000  0.00000000  1
  Al  Al1  1  0.00000000  0.00000000  0.50000000  1
  Ni  Ni0  1  0.50000000  0.50000000  0.00000000  1
  Ni  Ni1  1  0.00000000  0.50000000  0.50000000  1
  F  F0  1  0.05106300  0.80106300  0.25000000  1
  F  F1  1  0.66165200  0.41165200  0.25000000  1
  F  F2  1  0.06006500  0.83829800  0.64178400  1
  F  F3  1  0.69651400  0.41828100  0.85821600  1
  F  F4  1  0.69651400  0.83829800  0.27823300  1
  F  F5  1  0.06006500  0.41828100  0.22176700  1
  F  F6  1  0.94893700  0.19893700  0.75000000  1
  F  F7  1  0.33834800  0.58834800  0.75000000  1
  F  F8  1  0.93993500  0.16170200  0.35821600  1
  F  F9  1  0.30348600  0.58171900  0.14178400  1
  F  F10  1  0.30348600  0.16170200  0.72176700  1
  F  F11  1  0.93993500  0.58171900  0.77823300  1
loop_
_geom_bond_atom_site_label_1
_geom_bond_atom_site_label_2
_geom_bond_distance
_geom_bond_site_symmetry_2
Al0 F5 1.808293 1_555
Al0 F9 1.808293 1_555
Al0 F11 1.808293 1_454
Al0 F3 1.808293 1_454
Al0 F6 1.845955 1_454
Al0 F0 1.845955 1_555
Al1 F10 1.808293 1_555
Al1 F2 1.808293 1_545
Al1 F8 1.808293 1_455
Al1 F4 1.808293 1_445
Al1 F6 1.845955 1_455
Al1 F0 1.845955 1_545
F1 Ni1 1.994821 1_655
F1 Ni0 1.994821 1_555
F1 K1 2.817350 1_555
F2 Ni1 2.031501 1_555
F2 K1 3.064752 1_566
F3 Ni0 2.031501 1_556
F3 K1 3.064752 1_555
F4 Ni0 2.031501 1_555
F4 K1 3.064752 1_565
F5 Ni1 2.031501 1_555
F5 K1 3.064752 1_555
F7 Ni1 1.994821 1_555
F7 Ni0 1.994821 1_556
F7 K0 2.817350 1_555
F8 Ni1 2.031501 1_655
F8 K0 3.064752 1_544
F9 Ni0 2.031501 1_555
F9 K0 3.064752 1_555
F10 Ni0 2.031501 1_556
F10 K0 3.064752 1_545
F11 Ni1 2.031501 1_655
F11 K0 3.064752 1_555
