# generated using pymatgen
data_Mg2Si
_symmetry_space_group_name_H-M   'P 1'
_cell_length_a   4.62158400
_cell_length_b   6.14243800
_cell_length_c   7.97426300
_cell_angle_alpha   90.00000000
_cell_angle_beta   90.00000000
_cell_angle_gamma   90.00000000
_symmetry_Int_Tables_number   1
_chemical_formula_structural   Mg2Si
_chemical_formula_sum   'Mg8 Si4'
_cell_volume   226.37172882
_cell_formula_units_Z   4
loop_
 _symmetry_equiv_pos_site_id
 _symmetry_equiv_pos_as_xyz
  1  'x, y, z'
loop_
 _atom_site_type_symbol
 _atom_site_label
 _atom_site_symmetry_multiplicity
 _atom_site_fract_x
 _atom_site_fract_y
 _atom_site_fract_z
 _atom_site_occupancy
  Mg  Mg0  1  0.25000000  0.76623800  0.08229100  1
  Mg  Mg1  1  0.75000000  0.23376200  0.91770900  1
  Mg  Mg2  1  0.75000000  0.73376200  0.58229100  1
  Mg  Mg3  1  0.25000000  0.26623800  0.41770900  1
  Mg  Mg4  1  0.25000000  0.99552200  0.74193100  1
  Mg  Mg5  1  0.75000000  0.00447800  0.25806900  1
  Mg  Mg6  1  0.75000000  0.50447800  0.24193100  1
  Mg  Mg7  1  0.25000000  0.49552200  0.75806900  1
  Si  Si0  1  0.25000000  0.25856900  0.08367000  1
  Si  Si1  1  0.75000000  0.74143100  0.91633000  1
  Si  Si2  1  0.75000000  0.24143100  0.58367000  1
  Si  Si3  1  0.25000000  0.75856900  0.41633000  1
loop_
_geom_bond_atom_site_label_1
_geom_bond_atom_site_label_2
_geom_bond_distance
_geom_bond_site_symmetry_2
Mg0 Si3 2.664131 1_555
Mg0 Si1 2.667285 1_554
Mg0 Si1 2.667285 1_454
Mg0 Si0 3.024133 1_565
Mg0 Mg4 3.057766 1_554
Mg0 Mg5 3.073432 1_565
Mg0 Mg5 3.073432 1_465
Mg0 Mg7 3.074012 1_554
Mg0 Mg6 3.089576 1_455
Mg0 Mg6 3.089576 1_555
Mg0 Si0 3.118345 1_555
Mg1 Si2 2.664131 1_555
Mg1 Si0 2.667285 1_556
Mg1 Si0 2.667285 1_656
Mg1 Si1 3.024133 1_545
Mg1 Mg5 3.057766 1_556
Mg1 Mg4 3.073432 1_545
Mg1 Mg4 3.073432 1_645
Mg1 Mg6 3.074012 1_556
Mg1 Mg7 3.089576 1_555
Mg1 Mg7 3.089576 1_655
Mg1 Si1 3.118345 1_555
Mg2 Si1 2.664131 1_555
Mg2 Si3 2.667285 1_555
Mg2 Si3 2.667285 1_655
Mg2 Si2 3.024133 1_555
Mg2 Mg6 3.057766 1_555
Mg2 Mg7 3.073432 1_555
Mg2 Mg7 3.073432 1_655
Mg2 Mg5 3.074012 1_565
Mg2 Mg4 3.089576 1_655
Mg2 Mg4 3.089576 1_555
Mg2 Si2 3.118345 1_565
Mg3 Si0 2.664131 1_555
Mg3 Si2 2.667285 1_455
Mg3 Si2 2.667285 1_555
Mg3 Si3 3.024133 1_555
Mg3 Mg7 3.057766 1_555
Mg3 Mg6 3.073432 1_455
Mg3 Mg6 3.073432 1_555
Mg3 Mg4 3.074012 1_545
Mg3 Mg5 3.089576 1_555
Mg3 Mg5 3.089576 1_455
Mg3 Si3 3.118345 1_545
Mg4 Si3 2.976546 1_555
Mg4 Si2 3.035456 1_465
Mg4 Si2 3.035456 1_565
Mg4 Mg7 3.073914 1_565
Mg4 Mg7 3.073914 1_555
Mg4 Si1 3.116042 1_555
Mg4 Si1 3.116042 1_455
Mg4 Si0 3.168108 1_566
Mg5 Si2 2.976546 1_555
Mg5 Si3 3.035456 1_545
Mg5 Si3 3.035456 1_645
Mg5 Mg6 3.073914 1_555
Mg5 Mg6 3.073914 1_545
Mg5 Si0 3.116042 1_655
Mg5 Si0 3.116042 1_555
Mg5 Si1 3.168108 1_544
Mg6 Si1 2.976546 1_554
Mg6 Si0 3.035456 1_655
Mg6 Si0 3.035456 1_555
Mg6 Si3 3.116042 1_655
Mg6 Si3 3.116042 1_555
Mg6 Si2 3.168108 1_555
Mg7 Si0 2.976546 1_556
Mg7 Si1 3.035456 1_555
Mg7 Si1 3.035456 1_455
Mg7 Si2 3.116042 1_455
Mg7 Si2 3.116042 1_555
Mg7 Si3 3.168108 1_555
