# generated using pymatgen
data_Nb2Zn4O9
_symmetry_space_group_name_H-M   'P 1'
_cell_length_a   5.26038608
_cell_length_b   5.26038608
_cell_length_c   14.38239300
_cell_angle_alpha   90.00000000
_cell_angle_beta   90.00000000
_cell_angle_gamma   120.00000098
_symmetry_Int_Tables_number   1
_chemical_formula_structural   Nb2Zn4O9
_chemical_formula_sum   'Nb4 Zn8 O18'
_cell_volume   344.66486872
_cell_formula_units_Z   2
loop_
 _symmetry_equiv_pos_site_id
 _symmetry_equiv_pos_as_xyz
  1  'x, y, z'
loop_
 _atom_site_type_symbol
 _atom_site_label
 _atom_site_symmetry_multiplicity
 _atom_site_fract_x
 _atom_site_fract_y
 _atom_site_fract_z
 _atom_site_occupancy
  Nb  Nb0  1  0.00000000  0.00000000  0.36092900  1
  Nb  Nb1  1  0.00000000  0.00000000  0.13907100  1
  Nb  Nb2  1  0.00000000  0.00000000  0.63907100  1
  Nb  Nb3  1  0.00000000  0.00000000  0.86092900  1
  Zn  Zn0  1  0.33333300  0.66666700  0.01423500  1
  Zn  Zn1  1  0.66666700  0.33333300  0.48576500  1
  Zn  Zn2  1  0.66666700  0.33333300  0.98576500  1
  Zn  Zn3  1  0.33333300  0.66666700  0.51423500  1
  Zn  Zn4  1  0.33333300  0.66666700  0.79459500  1
  Zn  Zn5  1  0.66666700  0.33333300  0.70540500  1
  Zn  Zn6  1  0.66666700  0.33333300  0.20540500  1
  Zn  Zn7  1  0.33333300  0.66666700  0.29459500  1
  O  O0  1  0.28588200  0.28588200  0.75000000  1
  O  O1  1  0.00000000  0.71411800  0.75000000  1
  O  O2  1  0.71411800  0.00000000  0.75000000  1
  O  O3  1  0.71411800  0.71411800  0.25000000  1
  O  O4  1  0.00000000  0.28588200  0.25000000  1
  O  O5  1  0.28588200  0.00000000  0.25000000  1
  O  O6  1  0.68008600  0.66039900  0.58351700  1
  O  O7  1  0.33960100  0.01968700  0.58351700  1
  O  O8  1  0.98031300  0.31991400  0.58351700  1
  O  O9  1  0.01968700  0.33960100  0.91648300  1
  O  O10  1  0.31991400  0.98031300  0.91648300  1
  O  O11  1  0.66039900  0.68008600  0.91648300  1
  O  O12  1  0.33960100  0.31991400  0.08351700  1
  O  O13  1  0.68008600  0.01968700  0.08351700  1
  O  O14  1  0.98031300  0.66039900  0.08351700  1
  O  O15  1  0.01968700  0.68008600  0.41648300  1
  O  O16  1  0.66039900  0.98031300  0.41648300  1
  O  O17  1  0.31991400  0.33960100  0.41648300  1
loop_
_geom_bond_atom_site_label_1
_geom_bond_atom_site_label_2
_geom_bond_distance
_geom_bond_site_symmetry_2
Nb0 O17 1.911926 1_555
Nb0 O16 1.911926 1_445
Nb0 O15 1.911926 1_545
Nb0 O3 2.192474 1_445
Nb0 O4 2.192474 1_555
Nb0 O5 2.192474 1_555
Nb1 O12 1.911926 1_555
Nb1 O14 1.911926 1_445
Nb1 O13 1.911926 1_455
Nb1 O3 2.192474 1_445
Nb1 O4 2.192474 1_555
Nb1 O5 2.192474 1_555
Nb2 O6 1.911926 1_445
Nb2 O7 1.911926 1_555
Nb2 O8 1.911926 1_455
Nb2 O0 2.192474 1_555
Nb2 O2 2.192474 1_455
Nb2 O1 2.192474 1_545
Nb3 O11 1.911926 1_445
Nb3 O9 1.911926 1_555
Nb3 O10 1.911926 1_545
Nb3 O0 2.192474 1_555
Nb3 O1 2.192474 1_545
Nb3 O2 2.192474 1_455
O0 Zn4 1.996497 1_555
O0 Zn5 1.996497 1_555
O1 Zn4 1.996493 1_555
O1 Zn5 1.996495 1_455
O2 Zn5 1.996493 1_555
O2 Zn4 1.996495 1_545
O3 Zn6 1.996497 1_555
O3 Zn7 1.996497 1_555
O4 Zn6 1.996493 1_455
O4 Zn7 1.996495 1_555
O5 Zn7 1.996493 1_545
O5 Zn6 1.996495 1_555
O6 Zn3 2.093156 1_555
O6 Zn1 2.195497 1_555
O6 Zn5 2.432444 1_555
O7 Zn3 2.093151 1_545
O7 Zn1 2.195495 1_555
O7 Zn5 2.432443 1_555
O8 Zn3 2.093153 1_655
O8 Zn1 2.195493 1_555
O8 Zn5 2.432441 1_555
O9 Zn2 2.093151 1_455
O9 Zn0 2.195495 1_556
O9 Zn4 2.432443 1_555
O10 Zn2 2.093153 1_565
O10 Zn0 2.195493 1_556
O10 Zn4 2.432441 1_555
O11 Zn2 2.093156 1_555
O11 Zn0 2.195497 1_556
O11 Zn4 2.432444 1_555
O12 Zn0 2.093156 1_555
O12 Zn2 2.195497 1_554
O12 Zn6 2.432444 1_555
O13 Zn0 2.093153 1_545
O13 Zn2 2.195493 1_554
O13 Zn6 2.432441 1_555
O14 Zn0 2.093151 1_655
O14 Zn2 2.195495 1_554
O14 Zn6 2.432443 1_555
O15 Zn1 2.093153 1_455
O15 Zn3 2.195493 1_555
O15 Zn7 2.432441 1_555
O16 Zn1 2.093151 1_565
O16 Zn3 2.195495 1_555
O16 Zn7 2.432443 1_555
O17 Zn1 2.093156 1_555
O17 Zn3 2.195497 1_555
O17 Zn7 2.432444 1_555
