# generated using pymatgen
data_SrHfTiInO6
_symmetry_space_group_name_H-M   'P 1'
_cell_length_a   5.64981509
_cell_length_b   5.64981509
_cell_length_c   5.64981509
_cell_angle_alpha   60.00000000
_cell_angle_beta   60.00000000
_cell_angle_gamma   60.00000000
_symmetry_Int_Tables_number   1
_chemical_formula_structural   SrHfTiInO6
_chemical_formula_sum   'Sr1 Hf1 Ti1 In1 O6'
_cell_volume   127.52276011
_cell_formula_units_Z   1
loop_
 _symmetry_equiv_pos_site_id
 _symmetry_equiv_pos_as_xyz
  1  'x, y, z'
loop_
 _atom_site_type_symbol
 _atom_site_label
 _atom_site_symmetry_multiplicity
 _atom_site_fract_x
 _atom_site_fract_y
 _atom_site_fract_z
 _atom_site_occupancy
  Sr  Sr0  1  0.75000000  0.75000000  0.75000000  1
  Hf  Hf0  1  -0.00000000  0.00000000  0.00000000  1
  Ti  Ti0  1  0.50000000  0.50000000  0.50000000  1
  In  In0  1  0.25000000  0.25000000  0.25000000  1
  O  O0  1  0.74391460  0.25608540  0.25608540  1
  O  O1  1  0.25608540  0.74391460  0.74391460  1
  O  O2  1  0.74391460  0.25608540  0.74391460  1
  O  O3  1  0.25608540  0.74391460  0.25608540  1
  O  O4  1  0.74391460  0.74391460  0.25608540  1
  O  O5  1  0.25608540  0.25608540  0.74391460  1
loop_
_geom_bond_atom_site_label_1
_geom_bond_atom_site_label_2
_geom_bond_distance
_geom_bond_site_symmetry_2
Hf0 O5 2.046134 1_554
Hf0 O0 2.046134 1_455
Hf0 O3 2.046134 1_545
Hf0 O2 2.046134 1_454
Hf0 O4 2.046134 1_445
Hf0 O1 2.046134 1_544
In0 O5 2.825326 1_555
In0 O3 2.825326 1_555
In0 O0 2.825326 1_555
In0 O4 2.825326 1_545
In0 O1 2.825326 1_545
In0 O4 2.825326 1_455
In0 O1 2.825326 1_554
In0 O2 2.825326 1_455
In0 O2 2.825326 1_554
In0 O0 2.825326 1_455
In0 O3 2.825326 1_545
In0 O5 2.825326 1_554
O0 Ti0 1.948889 1_555
O0 Sr0 2.825326 1_545
O0 Sr0 2.825326 1_554
O1 Ti0 1.948889 1_555
O1 Sr0 2.825326 1_455
O1 Sr0 2.825326 1_555
O2 Ti0 1.948889 1_555
O2 Sr0 2.825326 1_545
O2 Sr0 2.825326 1_555
O3 Ti0 1.948889 1_555
O3 Sr0 2.825326 1_455
O3 Sr0 2.825326 1_554
O4 Ti0 1.948889 1_555
O4 Sr0 2.825326 1_554
O4 Sr0 2.825326 1_555
O5 Ti0 1.948889 1_555
O5 Sr0 2.825326 1_545
O5 Sr0 2.825326 1_455
