# generated using pymatgen
data_HfGeRh
_symmetry_space_group_name_H-M   'P 1'
_cell_length_a   3.91357124
_cell_length_b   6.57001888
_cell_length_c   6.57029677
_cell_angle_alpha   119.99858868
_cell_angle_beta   90.00000000
_cell_angle_gamma   90.00000000
_symmetry_Int_Tables_number   1
_chemical_formula_structural   HfGeRh
_chemical_formula_sum   'Hf3 Ge3 Rh3'
_cell_volume   146.30583776
_cell_formula_units_Z   3
loop_
 _symmetry_equiv_pos_site_id
 _symmetry_equiv_pos_as_xyz
  1  'x, y, z'
loop_
 _atom_site_type_symbol
 _atom_site_label
 _atom_site_symmetry_multiplicity
 _atom_site_fract_x
 _atom_site_fract_y
 _atom_site_fract_z
 _atom_site_occupancy
  Hf  Hf0  1  0.50000000  0.57366474  -0.00000000  1
  Hf  Hf1  1  0.50000000  0.42632279  0.42634755  1
  Hf  Hf2  1  0.50000000  -0.00002376  0.57365245  1
  Ge  Ge0  1  -0.00000000  0.33332714  0.66665698  1
  Ge  Ge1  1  -0.00000000  0.66667016  0.33334302  1
  Ge  Ge2  1  0.50000000  0.00000101  0.00000000  1
  Rh  Rh0  1  -0.00000000  0.24841547  0.00000000  1
  Rh  Rh1  1  -0.00000000  0.75154403  0.75155962  1
  Rh  Rh2  1  -0.00000000  0.99998442  0.24844038  1
loop_
_geom_bond_atom_site_label_1
_geom_bond_atom_site_label_2
_geom_bond_distance
_geom_bond_site_symmetry_2
Hf0 Rh0 2.897469 1_655
Hf0 Rh0 2.897469 1_555
Hf0 Rh1 3.125198 1_554
Hf0 Rh1 3.125198 1_654
Hf0 Rh2 3.125198 1_655
Hf0 Rh2 3.125198 1_555
Hf1 Rh1 2.897378 1_555
Hf1 Rh1 2.897378 1_655
Hf1 Rh2 3.125254 1_545
Hf1 Rh2 3.125254 1_645
Hf1 Rh0 3.125385 1_655
Hf1 Rh0 3.125385 1_555
Hf2 Rh2 2.897375 1_545
Hf2 Rh2 2.897375 1_645
Hf2 Rh1 3.125259 1_645
Hf2 Rh1 3.125259 1_545
Hf2 Rh0 3.125384 1_656
Hf2 Rh0 3.125384 1_556
Ge0 Rh1 2.515612 1_555
Ge0 Rh2 2.515793 1_545
Ge0 Rh0 2.515911 1_556
Ge0 Hf1 2.767651 1_455
Ge0 Hf1 2.767651 1_555
Ge0 Hf2 2.767814 1_455
Ge0 Hf2 2.767814 1_555
Ge0 Hf0 2.767845 1_456
Ge0 Hf0 2.767845 1_556
Ge1 Rh2 2.515611 1_555
Ge1 Rh1 2.515793 1_555
Ge1 Rh0 2.515912 1_555
Ge1 Hf2 2.767655 1_565
Ge1 Hf2 2.767655 1_465
Ge1 Hf1 2.767818 1_455
Ge1 Hf1 2.767818 1_555
Ge1 Hf0 2.767845 1_455
Ge1 Hf0 2.767845 1_555
Ge2 Rh0 2.548082 1_655
Ge2 Rh0 2.548082 1_555
Ge2 Rh2 2.548270 1_645
Ge2 Rh2 2.548270 1_545
Ge2 Rh1 2.548270 1_644
Ge2 Rh1 2.548270 1_544
Ge2 Hf0 2.801037 1_545
Ge2 Hf1 2.801146 1_555
Ge2 Hf2 2.801149 1_554
Rh0 Rh2 2.827140 1_545
Rh0 Rh1 2.827141 1_544
Rh1 Rh2 2.827314 1_556
