# generated using pymatgen
data_Li8MnFe7(BO3)8
_symmetry_space_group_name_H-M   'P 1'
_cell_length_a   5.22367800
_cell_length_b   8.16672745
_cell_length_c   11.96030527
_cell_angle_alpha   102.84699456
_cell_angle_beta   90.58154251
_cell_angle_gamma   90.41907598
_symmetry_Int_Tables_number   1
_chemical_formula_structural   Li8MnFe7(BO3)8
_chemical_formula_sum   'Li8 Mn1 Fe7 B8 O24'
_cell_volume   497.40881716
_cell_formula_units_Z   1
loop_
 _symmetry_equiv_pos_site_id
 _symmetry_equiv_pos_as_xyz
  1  'x, y, z'
loop_
 _atom_site_type_symbol
 _atom_site_label
 _atom_site_symmetry_multiplicity
 _atom_site_fract_x
 _atom_site_fract_y
 _atom_site_fract_z
 _atom_site_occupancy
  Li  Li0  1  0.34846600  0.71975100  0.02236300  1
  Li  Li1  1  0.15140100  0.78083600  0.22792600  1
  Li  Li2  1  0.85083700  0.21941000  0.27367900  1
  Li  Li3  1  0.34766100  0.72081500  0.52211800  1
  Li  Li4  1  0.65029800  0.28041400  0.47699800  1
  Li  Li5  1  0.15095900  0.78415400  0.72659300  1
  Li  Li6  1  0.84926300  0.21769000  0.77141700  1
  Li  Li7  1  0.64678400  0.27956500  0.97770000  1
  Mn  Mn0  1  0.83195600  0.57873000  0.90833100  1
  Fe  Fe0  1  0.16906400  0.42347800  0.09351300  1
  Fe  Fe1  1  0.32850800  0.07678400  0.15646300  1
  Fe  Fe2  1  0.66205800  0.92114700  0.34243200  1
  Fe  Fe3  1  0.83756400  0.57850200  0.40790200  1
  Fe  Fe4  1  0.16968000  0.42299900  0.59262300  1
  Fe  Fe5  1  0.33815900  0.08036700  0.65898800  1
  Fe  Fe6  1  0.67566900  0.92204900  0.84110600  1
  B  B0  1  0.82647000  0.90836600  0.08422300  1
  B  B1  1  0.67361700  0.59432500  0.16816400  1
  B  B2  1  0.33011700  0.40627400  0.33292600  1
  B  B3  1  0.17052800  0.09420500  0.41812500  1
  B  B4  1  0.82913000  0.90436900  0.58131900  1
  B  B5  1  0.67039000  0.59372700  0.66615200  1
  B  B6  1  0.32992900  0.40215900  0.83248700  1
  B  B7  1  0.17118200  0.09461200  0.91684000  1
  O  O0  1  0.08882100  0.88265200  0.08804800  1
  O  O1  1  0.31311900  0.18934900  0.00808500  1
  O  O2  1  0.79265100  0.47946000  0.08060800  1
  O  O3  1  0.41103600  0.61739200  0.16255000  1
  O  O4  1  0.81916600  0.69052400  0.25733800  1
  O  O5  1  0.29223700  0.97924900  0.33110700  1
  O  O6  1  0.70828000  0.02158400  0.17145800  1
  O  O7  1  0.18518300  0.30998600  0.24259400  1
  O  O8  1  0.59056600  0.38335500  0.33878600  1
  O  O9  1  0.20762200  0.52103600  0.41935900  1
  O  O10  1  0.68196000  0.80875000  0.49188700  1
  O  O11  1  0.90974200  0.11768000  0.41196700  1
  O  O12  1  0.08969500  0.88190200  0.58742600  1
  O  O13  1  0.31639200  0.18984000  0.50804100  1
  O  O14  1  0.79221900  0.47941200  0.57997100  1
  O  O15  1  0.40834100  0.61665700  0.66153600  1
  O  O16  1  0.81369900  0.69089400  0.75608600  1
  O  O17  1  0.29193300  0.98265000  0.82929200  1
  O  O18  1  0.70692800  0.01875300  0.66865700  1
  O  O19  1  0.17924500  0.31029600  0.74266200  1
  O  O20  1  0.59008200  0.37489200  0.83563800  1
  O  O21  1  0.21498800  0.51758100  0.92096200  1
  O  O22  1  0.67966300  0.81359300  0.99373800  1
  O  O23  1  0.90674200  0.11778700  0.91181100  1
loop_
_geom_bond_atom_site_label_1
_geom_bond_atom_site_label_2
_geom_bond_distance
_geom_bond_site_symmetry_2
Li0 O21 1.938702 1_554
Li0 O22 1.951152 1_554
Li0 O0 1.951889 1_555
Li0 O3 2.057434 1_555
Li1 O5 1.940284 1_555
Li1 O4 1.946458 1_455
Li1 O3 1.953556 1_555
Li1 O0 2.051493 1_555
Li2 O6 1.935189 1_555
Li2 O8 1.957531 1_555
Li2 O7 1.962726 1_655
Li2 O11 2.031007 1_555
Li3 O12 1.935712 1_555
Li3 O9 1.944257 1_555
Li3 O10 1.950862 1_555
Li3 O15 2.056336 1_555
Li4 O14 1.944564 1_555
Li4 O11 1.948329 1_555
Li4 O13 1.960534 1_555
Li4 O8 2.036685 1_555
Li5 O17 1.938451 1_555
Li5 O15 1.964446 1_555
Li5 O16 1.980072 1_455
Li5 O12 2.023355 1_555
Li6 O20 1.918122 1_555
Li6 O19 1.941672 1_655
Li6 O18 1.943889 1_555
Li6 O23 2.044004 1_555
Li7 O23 1.948215 1_555
Li7 O1 1.956002 1_556
Li7 O2 1.956973 1_556
Li7 O20 2.040136 1_555
Mn0 O21 2.077880 1_655
Mn0 O20 2.103989 1_555
Mn0 O22 2.126689 1_555
Mn0 O16 2.214346 1_555
Mn0 O2 2.386212 1_556
Fe0 O2 2.034059 1_455
Fe0 O3 2.038481 1_555
Fe0 O1 2.105729 1_555
Fe0 O7 2.185968 1_555
Fe0 O21 2.370640 1_554
Fe1 O0 2.030766 1_545
Fe1 O6 2.052484 1_555
Fe1 O7 2.100692 1_555
Fe1 O1 2.173612 1_555
Fe1 O5 2.403989 1_545
Fe2 O5 2.003030 1_555
Fe2 O11 2.072665 1_565
Fe2 O4 2.108033 1_555
Fe2 O10 2.185386 1_555
Fe2 O6 2.380281 1_565
Fe3 O9 2.003062 1_655
Fe3 O8 2.061647 1_555
Fe3 O10 2.098682 1_555
Fe3 O4 2.195321 1_555
Fe3 O14 2.386216 1_555
Fe4 O15 2.026202 1_555
Fe4 O14 2.039883 1_455
Fe4 O13 2.101658 1_555
Fe4 O19 2.191641 1_555
Fe4 O9 2.391346 1_555
Fe5 O18 2.003210 1_555
Fe5 O12 2.091386 1_545
Fe5 O19 2.102528 1_555
Fe5 O13 2.187850 1_555
Fe5 O17 2.360950 1_545
Fe6 O23 2.019242 1_565
Fe6 O16 2.073343 1_555
Fe6 O17 2.079143 1_555
Fe6 O22 2.199098 1_555
Fe6 O18 2.373558 1_565
B0 O6 1.384596 1_565
B0 O0 1.389784 1_655
B0 O22 1.400123 1_554
B1 O3 1.388857 1_555
B1 O4 1.391037 1_555
B1 O2 1.395755 1_555
B2 O8 1.377873 1_555
B2 O9 1.395656 1_555
B2 O7 1.398458 1_555
B3 O11 1.380579 1_455
B3 O13 1.395795 1_555
B3 O5 1.398720 1_545
B4 O12 1.378118 1_655
B4 O10 1.395708 1_555
B4 O18 1.399857 1_565
B5 O15 1.385173 1_555
B5 O14 1.390359 1_555
B5 O16 1.393732 1_555
B6 O20 1.380176 1_555
B6 O21 1.395134 1_555
B6 O19 1.397271 1_555
B7 O17 1.387956 1_545
B7 O1 1.392481 1_556
B7 O23 1.398129 1_455
