# generated using pymatgen
data_Al7CoCu2
_symmetry_space_group_name_H-M   'P 1'
_cell_length_a   6.24816694
_cell_length_b   6.24816694
_cell_length_c   14.59910446
_cell_angle_alpha   90.00000000
_cell_angle_beta   90.00000000
_cell_angle_gamma   90.00000000
_symmetry_Int_Tables_number   1
_chemical_formula_structural   Al7CoCu2
_chemical_formula_sum   'Al28 Co4 Cu8'
_cell_volume   569.94305409
_cell_formula_units_Z   4
loop_
 _symmetry_equiv_pos_site_id
 _symmetry_equiv_pos_as_xyz
  1  'x, y, z'
loop_
 _atom_site_type_symbol
 _atom_site_label
 _atom_site_symmetry_multiplicity
 _atom_site_fract_x
 _atom_site_fract_y
 _atom_site_fract_z
 _atom_site_occupancy
  Al  Al0  1  0.00000000  0.00000000  0.13174306  1
  Al  Al1  1  0.50000000  0.50000000  0.36824091  1
  Al  Al2  1  0.00000000  0.00000000  0.86825694  1
  Al  Al3  1  0.50000000  0.50000000  0.63175909  1
  Al  Al4  1  0.15630349  0.65629366  0.24999572  1
  Al  Al5  1  0.34370634  0.15630349  0.24999572  1
  Al  Al6  1  0.65629366  0.84369651  0.24999572  1
  Al  Al7  1  0.84369651  0.34370634  0.24999572  1
  Al  Al8  1  0.84369651  0.34370634  0.75000428  1
  Al  Al9  1  0.65629366  0.84369651  0.75000428  1
  Al  Al10  1  0.34370634  0.15630349  0.75000428  1
  Al  Al11  1  0.15630349  0.65629366  0.75000428  1
  Al  Al12  1  0.20401684  0.41286558  0.09997726  1
  Al  Al13  1  0.58713442  0.20401684  0.09997726  1
  Al  Al14  1  0.41286558  0.79598316  0.09997726  1
  Al  Al15  1  0.70403111  0.08713266  0.40001443  1
  Al  Al16  1  0.29596889  0.91286734  0.40001443  1
  Al  Al17  1  0.79598316  0.58713442  0.09997726  1
  Al  Al18  1  0.91286734  0.70403111  0.40001443  1
  Al  Al19  1  0.08713266  0.29596889  0.40001443  1
  Al  Al20  1  0.79598316  0.58713442  0.90002274  1
  Al  Al21  1  0.41286558  0.79598316  0.90002274  1
  Al  Al22  1  0.58713442  0.20401684  0.90002274  1
  Al  Al23  1  0.29596889  0.91286734  0.59998557  1
  Al  Al24  1  0.70403111  0.08713266  0.59998557  1
  Al  Al25  1  0.20401684  0.41286558  0.90002274  1
  Al  Al26  1  0.08713266  0.29596889  0.59998557  1
  Al  Al27  1  0.91286734  0.70403111  0.59998557  1
  Co  Co0  1  0.00000000  0.00000000  0.29861639  1
  Co  Co1  1  0.50000000  0.50000000  0.20139684  1
  Co  Co2  1  0.00000000  0.00000000  0.70138361  1
  Co  Co3  1  0.50000000  0.50000000  0.79860316  1
  Cu  Cu0  1  0.27273482  0.09007387  -0.00000000  1
  Cu  Cu1  1  0.90992613  0.27273482  -0.00000000  1
  Cu  Cu2  1  0.09007387  0.72726518  -0.00000000  1
  Cu  Cu3  1  0.77275132  0.40992129  0.50000000  1
  Cu  Cu4  1  0.22724868  0.59007871  0.50000000  1
  Cu  Cu5  1  0.72726518  0.90992613  -0.00000000  1
  Cu  Cu6  1  0.59007871  0.77275132  0.50000000  1
  Cu  Cu7  1  0.40992129  0.22724868  0.50000000  1
loop_
_geom_bond_atom_site_label_1
_geom_bond_atom_site_label_2
_geom_bond_distance
_geom_bond_site_symmetry_2
Al0 Co0 2.436201 1_555
Al0 Cu1 2.630565 1_455
Al0 Cu0 2.630565 1_555
Al0 Cu2 2.630565 1_545
Al0 Cu5 2.630565 1_445
Al1 Co1 2.435774 1_555
Al1 Cu4 2.630809 1_555
Al1 Cu7 2.630809 1_555
Al1 Cu6 2.630809 1_555
Al1 Cu3 2.630809 1_555
Al2 Co2 2.436201 1_555
Al2 Cu1 2.630565 1_456
Al2 Cu0 2.630565 1_556
Al2 Cu2 2.630565 1_546
Al2 Cu5 2.630565 1_446
Al3 Co3 2.435774 1_555
Al3 Cu4 2.630809 1_555
Al3 Cu7 2.630809 1_555
Al3 Cu6 2.630809 1_555
Al3 Cu3 2.630809 1_555
Al4 Co1 2.463469 1_555
Al4 Co0 2.463638 1_565
Al5 Co1 2.463469 1_555
Al5 Co0 2.463638 1_555
Al6 Co1 2.463469 1_555
Al6 Co0 2.463638 1_665
Al7 Co1 2.463469 1_555
Al7 Co0 2.463638 1_655
Al8 Co3 2.463469 1_555
Al8 Co2 2.463638 1_655
Al9 Co3 2.463469 1_555
Al9 Co2 2.463638 1_665
Al10 Co3 2.463469 1_555
Al10 Co2 2.463638 1_555
Al11 Co3 2.463469 1_555
Al11 Co2 2.463638 1_565
Al12 Co1 2.430800 1_555
Al12 Cu1 2.504692 1_455
Al12 Cu0 2.526347 1_555
Al12 Cu2 2.548759 1_555
Al13 Co1 2.430800 1_555
Al13 Cu5 2.504692 1_545
Al13 Cu1 2.526347 1_555
Al13 Cu0 2.548759 1_555
Al14 Co1 2.430800 1_555
Al14 Cu0 2.504692 1_565
Al14 Cu2 2.526347 1_555
Al14 Cu5 2.548759 1_555
Al15 Co0 2.430538 1_655
Al15 Cu7 2.504818 1_555
Al15 Cu3 2.526404 1_555
Al15 Cu6 2.548757 1_545
Al16 Co0 2.430538 1_565
Al16 Cu6 2.504818 1_555
Al16 Cu4 2.526404 1_555
Al16 Cu7 2.548757 1_565
Al17 Co1 2.430800 1_555
Al17 Cu2 2.504692 1_655
Al17 Cu5 2.526347 1_555
Al17 Cu1 2.548759 1_555
Al18 Co0 2.430538 1_665
Al18 Cu3 2.504818 1_555
Al18 Cu6 2.526404 1_555
Al18 Cu4 2.548757 1_655
Al19 Co0 2.430538 1_555
Al19 Cu4 2.504818 1_555
Al19 Cu7 2.526404 1_555
Al19 Cu3 2.548757 1_455
Al20 Co3 2.430800 1_555
Al20 Cu2 2.504692 1_656
Al20 Cu5 2.526347 1_556
Al20 Cu1 2.548759 1_556
Al21 Co3 2.430800 1_555
Al21 Cu0 2.504692 1_566
Al21 Cu2 2.526347 1_556
Al21 Cu5 2.548759 1_556
Al22 Co3 2.430800 1_555
Al22 Cu5 2.504692 1_546
Al22 Cu1 2.526347 1_556
Al22 Cu0 2.548759 1_556
Al23 Co2 2.430538 1_565
Al23 Cu6 2.504818 1_555
Al23 Cu4 2.526404 1_555
Al23 Cu7 2.548757 1_565
Al24 Co2 2.430538 1_655
Al24 Cu7 2.504818 1_555
Al24 Cu3 2.526404 1_555
Al24 Cu6 2.548757 1_545
Al25 Co3 2.430800 1_555
Al25 Cu1 2.504692 1_456
Al25 Cu0 2.526347 1_556
Al25 Cu2 2.548759 1_556
Al26 Co2 2.430538 1_555
Al26 Cu4 2.504818 1_555
Al26 Cu7 2.526404 1_555
Al26 Cu3 2.548757 1_455
Al27 Co2 2.430538 1_665
Al27 Cu3 2.504818 1_555
Al27 Cu6 2.526404 1_555
Al27 Cu4 2.548757 1_655
Cu0 Cu1 2.537980 1_455
Cu0 Cu2 2.537980 1_545
Cu1 Cu5 2.537980 1_545
Cu2 Cu5 2.537980 1_455
Cu3 Cu7 2.538132 1_555
Cu3 Cu6 2.538132 1_555
Cu4 Cu7 2.538132 1_555
Cu4 Cu6 2.538132 1_555
