# generated using pymatgen
data_NaNi5O6
_symmetry_space_group_name_H-M   'P 1'
_cell_length_a   5.20473064
_cell_length_b   5.20450546
_cell_length_c   9.96207025
_cell_angle_alpha   94.91849617
_cell_angle_beta   94.92517708
_cell_angle_gamma   119.69805819
_symmetry_Int_Tables_number   1
_chemical_formula_structural   NaNi5O6
_chemical_formula_sum   'Na2 Ni10 O12'
_cell_volume   230.96236216
_cell_formula_units_Z   2
loop_
 _symmetry_equiv_pos_site_id
 _symmetry_equiv_pos_as_xyz
  1  'x, y, z'
loop_
 _atom_site_type_symbol
 _atom_site_label
 _atom_site_symmetry_multiplicity
 _atom_site_fract_x
 _atom_site_fract_y
 _atom_site_fract_z
 _atom_site_occupancy
  Na  Na0  1  0.42367200  0.08834800  0.25007000  1
  Na  Na1  1  0.91166100  0.57633600  0.74993400  1
  Ni  Ni0  1  0.16707900  0.83291200  0.50000100  1
  Ni  Ni1  1  0.50205800  0.49800000  0.50003100  1
  Ni  Ni2  1  0.33136300  0.66849100  0.00000400  1
  Ni  Ni3  1  0.75179900  0.75397100  0.25107700  1
  Ni  Ni4  1  0.24599200  0.24819200  0.74892000  1
  Ni  Ni5  1  0.66414600  0.33588400  0.99999400  1
  Ni  Ni6  1  0.00216500  0.99790100  0.99998800  1
  Ni  Ni7  1  0.83127100  0.16873700  0.49996300  1
  Ni  Ni8  1  0.08898900  0.41663200  0.25108300  1
  Ni  Ni9  1  0.58328800  0.91097400  0.74894000  1
  O  O0  1  0.82293500  0.48734800  0.38175100  1
  O  O1  1  0.29690600  0.97795500  0.88765400  1
  O  O2  1  0.02205900  0.70312600  0.11234200  1
  O  O3  1  0.51265500  0.17705600  0.61825100  1
  O  O4  1  0.38022400  0.40487700  0.12245000  1
  O  O5  1  0.87297100  0.89153800  0.62073700  1
  O  O6  1  0.46040200  0.77189000  0.37818600  1
  O  O7  1  0.95416200  0.25754300  0.88379800  1
  O  O8  1  0.74251000  0.04585700  0.11619400  1
  O  O9  1  0.22814600  0.53959300  0.62179500  1
  O  O10  1  0.10845500  0.12704300  0.37927500  1
  O  O11  1  0.59509000  0.61979400  0.87756300  1
loop_
_geom_bond_atom_site_label_1
_geom_bond_atom_site_label_2
_geom_bond_distance
_geom_bond_site_symmetry_2
Na0 O6 2.238005 1_545
Na0 O10 2.243764 1_555
Na0 O4 2.249499 1_555
Na0 O0 2.267243 1_555
Na0 O2 2.270413 1_545
Na0 O8 2.296632 1_555
Na1 O9 2.238469 1_655
Na1 O5 2.243461 1_555
Na1 O11 2.249935 1_555
Na1 O3 2.267301 1_555
Na1 O1 2.270435 1_655
Na1 O7 2.296204 1_555
Ni0 O0 1.978136 1_455
Ni0 O3 1.978162 1_565
Ni0 O10 2.144391 1_565
Ni0 O5 2.144526 1_455
Ni0 O9 2.153086 1_555
Ni0 O6 2.153295 1_555
Ni1 O9 2.026926 1_555
Ni1 O6 2.027330 1_555
Ni1 O3 2.144202 1_555
Ni1 O0 2.144551 1_555
Ni1 O5 2.151515 1_555
Ni1 O10 2.151958 1_555
Ni2 O4 2.003592 1_555
Ni2 O11 2.003835 1_554
Ni2 O2 2.106849 1_555
Ni2 O1 2.107075 1_554
Ni2 O7 2.189397 1_454
Ni2 O8 2.190162 1_565
Ni3 O6 2.088541 1_555
Ni3 O4 2.092073 1_555
Ni3 O10 2.107906 1_665
Ni3 O0 2.119749 1_555
Ni3 O8 2.127742 1_565
Ni3 O2 2.144465 1_655
Ni4 O9 2.088365 1_555
Ni4 O11 2.092215 1_555
Ni4 O5 2.107720 1_445
Ni4 O3 2.120047 1_555
Ni4 O7 2.127750 1_455
Ni4 O1 2.144339 1_545
Ni5 O1 2.030565 1_545
Ni5 O2 2.030566 1_656
Ni5 O11 2.135437 1_555
Ni5 O4 2.135657 1_556
Ni5 O8 2.147878 1_556
Ni5 O7 2.147914 1_555
Ni6 O7 1.944564 1_465
Ni6 O8 1.944772 1_466
Ni6 O1 2.012229 1_555
Ni6 O2 2.012237 1_556
Ni6 O4 2.204894 1_566
Ni6 O11 2.205086 1_455
Ni7 O10 2.034010 1_655
Ni7 O5 2.034476 1_545
Ni7 O0 2.129730 1_555
Ni7 O3 2.130356 1_555
Ni7 O6 2.163667 1_545
Ni7 O9 2.163932 1_655
Ni8 O4 2.086980 1_555
Ni8 O10 2.090892 1_555
Ni8 O6 2.096543 1_555
Ni8 O8 2.114863 1_455
Ni8 O0 2.116551 1_455
Ni8 O2 2.245067 1_555
Ni9 O11 2.086604 1_555
Ni9 O5 2.091465 1_555
Ni9 O9 2.096433 1_555
Ni9 O7 2.115100 1_565
Ni9 O3 2.116446 1_565
Ni9 O1 2.244717 1_555
