# generated using pymatgen
data_HoMnIn
_symmetry_space_group_name_H-M   'P 1'
_cell_length_a   4.76705102
_cell_length_b   4.76705102
_cell_length_c   3.51440000
_cell_angle_alpha   90.00000000
_cell_angle_beta   90.00000000
_cell_angle_gamma   119.99998638
_symmetry_Int_Tables_number   1
_chemical_formula_structural   HoMnIn
_chemical_formula_sum   'Ho1 Mn1 In1'
_cell_volume   69.16421966
_cell_formula_units_Z   1
loop_
 _symmetry_equiv_pos_site_id
 _symmetry_equiv_pos_as_xyz
  1  'x, y, z'
loop_
 _atom_site_type_symbol
 _atom_site_label
 _atom_site_symmetry_multiplicity
 _atom_site_fract_x
 _atom_site_fract_y
 _atom_site_fract_z
 _atom_site_occupancy
  Ho  Ho0  1  0.00000000  0.00000000  0.00000000  1
  Mn  Mn0  1  0.66666700  0.33333300  0.50000000  1
  In  In0  1  0.33333300  0.66666700  0.50000000  1
loop_
_geom_bond_atom_site_label_1
_geom_bond_atom_site_label_2
_geom_bond_distance
_geom_bond_site_symmetry_2
Ho0 In0 3.265373 1_545
Ho0 Mn0 3.265373 1_455
Ho0 Mn0 3.265373 1_454
Ho0 In0 3.265373 1_544
Ho0 In0 3.265377 1_554
Ho0 In0 3.265377 1_444
Ho0 Mn0 3.265377 1_554
Ho0 In0 3.265377 1_445
Ho0 In0 3.265377 1_555
Ho0 Mn0 3.265377 1_444
Ho0 Mn0 3.265377 1_445
Ho0 Mn0 3.265377 1_555
In0 Mn0 2.752256 1_455
In0 Mn0 2.752256 1_565
In0 Mn0 2.752264 1_555
