# generated using pymatgen
data_Mg14SbC
_symmetry_space_group_name_H-M   'P 1'
_cell_length_a   6.28179561
_cell_length_b   6.28179511
_cell_length_c   9.97677311
_cell_angle_alpha   90.00000000
_cell_angle_beta   90.00000000
_cell_angle_gamma   120.00000260
_symmetry_Int_Tables_number   1
_chemical_formula_structural   Mg14SbC
_chemical_formula_sum   'Mg14 Sb1 C1'
_cell_volume   340.94810779
_cell_formula_units_Z   1
loop_
 _symmetry_equiv_pos_site_id
 _symmetry_equiv_pos_as_xyz
  1  'x, y, z'
loop_
 _atom_site_type_symbol
 _atom_site_label
 _atom_site_symmetry_multiplicity
 _atom_site_fract_x
 _atom_site_fract_y
 _atom_site_fract_z
 _atom_site_occupancy
  Mg  Mg0  1  0.15842109  0.82921004  0.12500000  1
  Mg  Mg1  1  0.16941008  0.83470454  0.62500000  1
  Mg  Mg2  1  0.67078996  0.34157891  0.12500000  1
  Mg  Mg3  1  0.66529546  0.33058992  0.62500000  1
  Mg  Mg4  1  0.67078996  0.82921004  0.12500000  1
  Mg  Mg5  1  0.66529546  0.83470454  0.62500000  1
  Mg  Mg6  1  0.32950956  0.17049044  0.35496298  1
  Mg  Mg7  1  0.32950956  0.17049044  0.89503702  1
  Mg  Mg8  1  0.32950956  0.65902013  0.35496298  1
  Mg  Mg9  1  0.32950956  0.65902013  0.89503702  1
  Mg  Mg10  1  0.84097987  0.17049044  0.35496298  1
  Mg  Mg11  1  0.84097987  0.17049044  0.89503702  1
  Mg  Mg12  1  0.83333300  0.66666700  0.37479282  1
  Mg  Mg13  1  0.83333300  0.66666700  0.87520718  1
  Sb  Sb0  1  0.16666700  0.33333300  0.62500000  1
  C  C0  1  0.16666700  0.33333300  0.12500000  1
loop_
_geom_bond_atom_site_label_1
_geom_bond_atom_site_label_2
_geom_bond_distance
_geom_bond_site_symmetry_2
Mg0 Mg8 2.951408 1_555
Mg0 Mg9 2.951408 1_554
Mg0 Mg7 2.951415 1_564
Mg0 Mg6 2.951415 1_565
Mg0 Mg12 3.055885 1_455
Mg0 Mg13 3.055885 1_454
Mg0 Mg2 3.063199 1_455
Mg0 Mg4 3.063199 1_455
Mg0 Mg2 3.218596 1_565
Mg0 Mg4 3.218597 1_555
Mg1 Mg12 3.094202 1_455
Mg1 Mg13 3.094202 1_455
Mg1 Sb0 3.140933 1_555
Mg1 Sb0 3.140933 1_565
Mg1 Mg8 3.255380 1_555
Mg1 Mg9 3.255380 1_555
Mg1 Mg6 3.255387 1_565
Mg1 Mg7 3.255387 1_565
Mg2 Mg7 2.951415 1_554
Mg2 Mg6 2.951415 1_555
Mg2 Mg4 3.063199 1_555
Mg2 Mg4 3.218596 1_545
Mg3 Sb0 3.140933 1_555
Mg3 Sb0 3.140933 1_655
Mg3 Mg6 3.255387 1_555
Mg3 Mg7 3.255387 1_555
Mg4 Mg9 2.951415 1_554
Mg4 Mg8 2.951415 1_555
Mg5 Sb0 3.140933 1_555
Mg5 Sb0 3.140933 1_665
Mg5 Mg8 3.255386 1_555
Mg5 Mg9 3.255386 1_555
Mg6 Mg8 3.068843 1_555
Mg6 Mg8 3.212952 1_545
Mg6 Sb0 3.224501 1_555
Mg7 Mg9 3.068843 1_555
Mg7 Mg9 3.212952 1_545
Mg7 Sb0 3.224501 1_555
Mg8 Sb0 3.224507 1_555
Mg9 Sb0 3.224507 1_555
Mg10 Mg2 2.951408 1_555
Mg10 Mg4 2.951415 1_545
Mg10 Mg8 3.068843 1_655
Mg10 Mg6 3.068844 1_655
Mg10 Mg12 3.147397 1_555
Mg10 Mg12 3.147397 1_545
Mg10 Mg8 3.212952 1_545
Mg10 Mg6 3.212952 1_555
Mg10 Sb0 3.224507 1_655
Mg10 Mg3 3.255380 1_555
Mg10 Mg5 3.255386 1_545
Mg11 Mg2 2.951408 1_556
Mg11 Mg4 2.951415 1_546
Mg11 Mg9 3.068843 1_655
Mg11 Mg7 3.068844 1_655
Mg11 Mg13 3.147397 1_555
Mg11 Mg13 3.147397 1_545
Mg11 Mg9 3.212952 1_545
Mg11 Mg7 3.212952 1_555
Mg11 Sb0 3.224507 1_655
Mg11 Mg3 3.255380 1_555
Mg11 Mg5 3.255386 1_545
Mg12 Mg4 3.055879 1_555
Mg12 Mg2 3.055885 1_555
Mg12 Mg5 3.094196 1_555
Mg12 Mg3 3.094202 1_555
Mg12 Mg6 3.147397 1_665
Mg12 Mg6 3.147397 1_555
Mg12 Mg8 3.147397 1_655
Mg12 Mg8 3.147397 1_555
Mg13 Mg4 3.055879 1_556
Mg13 Mg2 3.055885 1_556
Mg13 Mg5 3.094196 1_555
Mg13 Mg3 3.094202 1_555
Mg13 Mg7 3.147397 1_665
Mg13 Mg7 3.147397 1_555
Mg13 Mg9 3.147397 1_655
Mg13 Mg9 3.147397 1_555
C0 Mg7 2.898793 1_554
C0 Mg6 2.898793 1_555
C0 Mg9 2.898800 1_554
C0 Mg8 2.898800 1_555
C0 Mg11 2.898800 1_454
C0 Mg10 2.898800 1_455
