# generated using pymatgen
data_Hf2Sb3Pd
_symmetry_space_group_name_H-M   'P 1'
_cell_length_a   3.94755600
_cell_length_b   3.94755600
_cell_length_c   8.61517400
_cell_angle_alpha   90.00000000
_cell_angle_beta   90.00000000
_cell_angle_gamma   90.00000000
_symmetry_Int_Tables_number   1
_chemical_formula_structural   Hf2Sb3Pd
_chemical_formula_sum   'Hf2 Sb3 Pd1'
_cell_volume   134.25196546
_cell_formula_units_Z   1
loop_
 _symmetry_equiv_pos_site_id
 _symmetry_equiv_pos_as_xyz
  1  'x, y, z'
loop_
 _atom_site_type_symbol
 _atom_site_label
 _atom_site_symmetry_multiplicity
 _atom_site_fract_x
 _atom_site_fract_y
 _atom_site_fract_z
 _atom_site_occupancy
  Hf  Hf0  1  0.50000000  0.00000000  0.73918000  1
  Hf  Hf1  1  0.00000000  0.50000000  0.26082000  1
  Sb  Sb0  1  0.50000000  0.00000000  0.38228100  1
  Sb  Sb1  1  0.00000000  0.50000000  0.61771900  1
  Sb  Sb2  1  0.00000000  0.00000000  0.00000000  1
  Pd  Pd0  1  0.50000000  0.50000000  0.00000000  1
loop_
_geom_bond_atom_site_label_1
_geom_bond_atom_site_label_2
_geom_bond_distance
_geom_bond_site_symmetry_2
Hf0 Sb1 2.981035 1_545
Hf0 Sb1 2.981035 1_555
Hf0 Sb1 2.981035 1_645
Hf0 Sb1 2.981035 1_655
Hf0 Pd0 2.990795 1_546
Hf0 Pd0 2.990795 1_556
Hf0 Sb2 2.990795 1_556
Hf0 Sb2 2.990795 1_656
Hf0 Sb0 3.074747 1_555
Hf1 Sb0 2.981035 1_465
Hf1 Sb0 2.981035 1_455
Hf1 Sb0 2.981035 1_555
Hf1 Sb0 2.981035 1_565
Hf1 Pd0 2.990795 1_555
Hf1 Sb2 2.990795 1_555
Hf1 Pd0 2.990795 1_455
Hf1 Sb2 2.990795 1_565
Hf1 Sb1 3.074747 1_555
Pd0 Sb2 2.791344 1_565
Pd0 Sb2 2.791344 1_655
Pd0 Sb2 2.791344 1_665
Pd0 Sb2 2.791344 1_555
