# generated using pymatgen
data_CeS2NO8
_symmetry_space_group_name_H-M   'P 1'
_cell_length_a   5.34837900
_cell_length_b   7.01634900
_cell_length_c   9.12804262
_cell_angle_alpha   80.34479695
_cell_angle_beta   90.00000000
_cell_angle_gamma   90.00000000
_symmetry_Int_Tables_number   1
_chemical_formula_structural   CeS2NO8
_chemical_formula_sum   'Ce2 S4 N2 O16'
_cell_volume   337.68767253
_cell_formula_units_Z   2
loop_
 _symmetry_equiv_pos_site_id
 _symmetry_equiv_pos_as_xyz
  1  'x, y, z'
loop_
 _atom_site_type_symbol
 _atom_site_label
 _atom_site_symmetry_multiplicity
 _atom_site_fract_x
 _atom_site_fract_y
 _atom_site_fract_z
 _atom_site_occupancy
  Ce  Ce0  1  0.25000000  0.19575800  0.22816000  1
  Ce  Ce1  1  0.75000000  0.80424200  0.77184000  1
  S  S0  1  0.25000000  0.72451000  0.06458300  1
  S  S1  1  0.75000000  0.27549000  0.93541700  1
  S  S2  1  0.25000000  0.81188300  0.57626200  1
  S  S3  1  0.75000000  0.18811700  0.42373800  1
  N  N0  1  0.25000000  0.31674100  0.69282000  1
  N  N1  1  0.75000000  0.68325900  0.30718000  1
  O  O0  1  0.25000000  0.92424600  0.70174000  1
  O  O1  1  0.75000000  0.07575400  0.29826000  1
  O  O2  1  0.97756100  0.27658400  0.03000700  1
  O  O3  1  0.02243900  0.72341600  0.96999300  1
  O  O4  1  0.47756100  0.72341600  0.96999300  1
  O  O5  1  0.52243900  0.27658400  0.03000700  1
  O  O6  1  0.25000000  0.90356500  0.13105900  1
  O  O7  1  0.75000000  0.09643500  0.86894100  1
  O  O8  1  0.25000000  0.55209600  0.18110300  1
  O  O9  1  0.75000000  0.44790400  0.81889700  1
  O  O10  1  0.25000000  0.93800500  0.42841600  1
  O  O11  1  0.75000000  0.06199500  0.57158400  1
  O  O12  1  0.48131100  0.69180400  0.59172300  1
  O  O13  1  0.51868900  0.30819600  0.40827700  1
  O  O14  1  0.98131100  0.30819600  0.40827700  1
  O  O15  1  0.01868900  0.69180400  0.59172300  1
loop_
_geom_bond_atom_site_label_1
_geom_bond_atom_site_label_2
_geom_bond_distance
_geom_bond_site_symmetry_2
Ce0 O5 2.317815 1_555
Ce0 O2 2.317815 1_455
Ce0 O10 2.345871 1_545
Ce0 O6 2.366042 1_545
Ce0 O13 2.413644 1_555
Ce0 O14 2.413644 1_455
Ce0 O8 2.464797 1_555
Ce0 O1 2.844109 1_555
Ce0 O1 2.844109 1_455
Ce1 O3 2.317815 1_655
Ce1 O4 2.317815 1_555
Ce1 O11 2.345871 1_565
Ce1 O7 2.366042 1_565
Ce1 O12 2.413644 1_555
Ce1 O15 2.413644 1_655
Ce1 O9 2.464797 1_555
Ce1 O0 2.844109 1_555
Ce1 O0 2.844109 1_655
O0 S2 1.495427 1_555
O1 S3 1.495427 1_555
O2 S1 1.493007 1_554
O3 S0 1.493007 1_556
O4 S0 1.493007 1_556
O5 S1 1.493007 1_554
O6 S0 1.483993 1_555
O7 S1 1.483993 1_555
O8 S0 1.470737 1_555
O9 S1 1.470737 1_555
O10 S2 1.484505 1_555
O11 S3 1.484505 1_555
O12 S2 1.490094 1_555
O13 S3 1.490094 1_555
O14 S3 1.490094 1_555
O15 S2 1.490094 1_555
