# generated using pymatgen
data_Nb2Se3
_symmetry_space_group_name_H-M   'P 1'
_cell_length_a   3.34921500
_cell_length_b   7.90583068
_cell_length_c   10.33143323
_cell_angle_alpha   63.05040471
_cell_angle_beta   90.00000000
_cell_angle_gamma   115.06452129
_symmetry_Int_Tables_number   1
_chemical_formula_structural   Nb2Se3
_chemical_formula_sum   'Nb4 Se6'
_cell_volume   214.55372342
_cell_formula_units_Z   2
loop_
 _symmetry_equiv_pos_site_id
 _symmetry_equiv_pos_as_xyz
  1  'x, y, z'
loop_
 _atom_site_type_symbol
 _atom_site_label
 _atom_site_symmetry_multiplicity
 _atom_site_fract_x
 _atom_site_fract_y
 _atom_site_fract_z
 _atom_site_occupancy
  Nb  Nb0  1  0.01236800  0.01236800  0.58550800  1
  Nb  Nb1  1  0.02701400  0.52701400  0.74711000  1
  Nb  Nb2  1  0.99398000  0.99398000  0.94508100  1
  Nb  Nb3  1  0.00360800  0.50360800  0.09385700  1
  Se  Se0  1  0.25061300  0.75061300  0.19269000  1
  Se  Se1  1  0.68145400  0.68145400  0.86231600  1
  Se  Se2  1  0.69910000  0.69910000  0.52650500  1
  Se  Se3  1  0.28368800  0.28368800  0.31441200  1
  Se  Se4  1  0.69192200  0.19192200  0.02895300  1
  Se  Se5  1  0.68958500  0.18958500  0.70356800  1
loop_
_geom_bond_atom_site_label_1
_geom_bond_atom_site_label_2
_geom_bond_distance
_geom_bond_site_symmetry_2
Nb0 Se3 2.484821 1_555
Nb0 Se2 2.602493 1_445
Nb0 Se1 2.648200 1_445
Nb0 Se5 2.729774 1_555
Nb0 Se5 2.729774 1_455
Nb1 Se2 2.589800 1_455
Nb1 Se2 2.589800 1_555
Nb1 Se1 2.600284 1_455
Nb1 Se1 2.600284 1_555
Nb1 Se5 2.670079 1_455
Nb1 Se4 2.691723 1_456
Nb2 Se4 2.606466 1_666
Nb2 Se4 2.606466 1_566
Nb2 Se5 2.737693 1_565
Nb2 Se5 2.737693 1_665
Nb2 Se1 2.766818 1_555
Nb2 Se0 2.815074 1_656
Nb2 Se0 2.815074 1_556
Nb3 Se0 2.445186 1_555
Nb3 Se3 2.624106 1_455
Nb3 Se3 2.624106 1_555
Nb3 Se4 2.632407 1_455
Nb3 Se1 2.664611 1_454
Nb3 Se1 2.664611 1_554
