# generated using pymatgen
data_ErU
_symmetry_space_group_name_H-M   'P 1'
_cell_length_a   6.40728958
_cell_length_b   6.40728958
_cell_length_c   11.44999600
_cell_angle_alpha   90.00000000
_cell_angle_beta   90.00000000
_cell_angle_gamma   120.00001630
_symmetry_Int_Tables_number   1
_chemical_formula_structural   ErU
_chemical_formula_sum   'Er8 U8'
_cell_volume   407.08453145
_cell_formula_units_Z   8
loop_
 _symmetry_equiv_pos_site_id
 _symmetry_equiv_pos_as_xyz
  1  'x, y, z'
loop_
 _atom_site_type_symbol
 _atom_site_label
 _atom_site_symmetry_multiplicity
 _atom_site_fract_x
 _atom_site_fract_y
 _atom_site_fract_z
 _atom_site_occupancy
  Er  Er0_0  1  0.16666650  0.33333350  0.25000000  1
  Er  Er0_1  1  0.16666650  0.33333350  0.75000000  1
  Er  Er0_2  1  0.16666650  0.83333350  0.25000000  1
  Er  Er0_3  1  0.16666650  0.83333350  0.75000000  1
  Er  Er0_4  1  0.66666650  0.33333350  0.25000000  1
  Er  Er0_5  1  0.66666650  0.33333350  0.75000000  1
  Er  Er0_6  1  0.66666650  0.83333350  0.25000000  1
  Er  Er0_7  1  0.66666650  0.83333350  0.75000000  1
  U  U0_0  1  0.00000000  0.00000000  0.00000000  1
  U  U0_1  1  0.00000000  0.00000000  0.50000000  1
  U  U0_2  1  1.00000000  0.50000000  0.00000000  1
  U  U0_3  1  1.00000000  0.50000000  0.50000000  1
  U  U0_4  1  0.50000000  0.00000000  0.00000000  1
  U  U0_5  1  0.50000000  0.00000000  0.50000000  1
  U  U0_6  1  0.50000000  0.50000000  0.00000000  1
  U  U0_7  1  0.50000000  0.50000000  0.50000000  1
loop_
_geom_bond_atom_site_label_1
_geom_bond_atom_site_label_2
_geom_bond_distance
_geom_bond_site_symmetry_2
Er0_0 Er0_6 3.203644 1_555
Er0_0 Er0_6 3.203644 1_445
Er0_0 Er0_2 3.203645 1_545
Er0_0 Er0_4 3.203645 1_555
Er0_0 Er0_2 3.203645 1_555
Er0_0 Er0_4 3.203645 1_455
Er0_0 U0_3 3.408080 1_455
Er0_0 U0_2 3.408080 1_455
Er0_0 U0_7 3.408081 1_555
Er0_0 U0_6 3.408081 1_555
Er0_0 U0_0 3.408081 1_555
Er0_0 U0_1 3.408081 1_555
Er0_1 Er0_7 3.203644 1_555
Er0_1 Er0_7 3.203644 1_445
Er0_1 Er0_3 3.203645 1_545
Er0_1 Er0_5 3.203645 1_455
Er0_1 Er0_5 3.203645 1_555
Er0_1 Er0_3 3.203645 1_555
Er0_1 U0_2 3.408080 1_456
Er0_1 U0_3 3.408080 1_455
Er0_1 U0_6 3.408081 1_556
Er0_1 U0_0 3.408081 1_556
Er0_1 U0_1 3.408081 1_555
Er0_1 U0_7 3.408081 1_555
Er0_2 Er0_4 3.203644 1_565
Er0_2 Er0_4 3.203644 1_455
Er0_2 Er0_6 3.203645 1_555
Er0_2 Er0_6 3.203645 1_455
Er0_2 U0_0 3.408080 1_565
Er0_2 U0_1 3.408080 1_565
Er0_2 U0_4 3.408081 1_565
Er0_2 U0_5 3.408081 1_565
Er0_2 U0_3 3.408081 1_455
Er0_2 U0_2 3.408081 1_455
Er0_3 Er0_5 3.203644 1_565
Er0_3 Er0_5 3.203644 1_455
Er0_3 Er0_7 3.203645 1_555
Er0_3 Er0_7 3.203645 1_455
Er0_3 U0_0 3.408080 1_566
Er0_3 U0_1 3.408080 1_565
Er0_3 U0_4 3.408081 1_566
Er0_3 U0_2 3.408081 1_456
Er0_3 U0_5 3.408081 1_565
Er0_3 U0_3 3.408081 1_455
Er0_4 Er0_6 3.203645 1_545
Er0_4 Er0_6 3.203645 1_555
Er0_4 U0_6 3.408080 1_555
Er0_4 U0_7 3.408080 1_555
Er0_4 U0_3 3.408081 1_555
Er0_4 U0_2 3.408081 1_555
Er0_4 U0_5 3.408081 1_555
Er0_4 U0_4 3.408081 1_555
Er0_5 Er0_7 3.203645 1_545
Er0_5 Er0_7 3.203645 1_555
Er0_5 U0_6 3.408080 1_556
Er0_5 U0_7 3.408080 1_555
Er0_5 U0_4 3.408081 1_556
Er0_5 U0_2 3.408081 1_556
Er0_5 U0_5 3.408081 1_555
Er0_5 U0_3 3.408081 1_555
Er0_6 U0_5 3.408080 1_565
Er0_6 U0_4 3.408080 1_565
Er0_6 U0_6 3.408081 1_555
Er0_6 U0_7 3.408081 1_555
Er0_6 U0_0 3.408081 1_665
Er0_6 U0_1 3.408081 1_665
Er0_7 U0_4 3.408080 1_566
Er0_7 U0_5 3.408080 1_565
Er0_7 U0_0 3.408081 1_666
Er0_7 U0_6 3.408081 1_556
Er0_7 U0_1 3.408081 1_665
Er0_7 U0_7 3.408081 1_555
U0_0 U0_6 3.203644 1_555
U0_0 U0_6 3.203644 1_445
U0_0 U0_4 3.203645 1_555
U0_0 U0_2 3.203645 1_445
U0_0 U0_2 3.203645 1_455
U0_0 U0_4 3.203645 1_455
U0_1 U0_7 3.203644 1_555
U0_1 U0_7 3.203644 1_445
U0_1 U0_5 3.203645 1_555
U0_1 U0_3 3.203645 1_445
U0_1 U0_5 3.203645 1_455
U0_1 U0_3 3.203645 1_455
U0_2 U0_4 3.203644 1_555
U0_2 U0_4 3.203644 1_665
U0_2 U0_6 3.203645 1_555
U0_2 U0_6 3.203645 1_655
U0_3 U0_5 3.203644 1_555
U0_3 U0_5 3.203644 1_665
U0_3 U0_7 3.203645 1_555
U0_3 U0_7 3.203645 1_655
U0_4 U0_6 3.203645 1_545
U0_4 U0_6 3.203645 1_555
U0_5 U0_7 3.203645 1_545
U0_5 U0_7 3.203645 1_555
