# generated using pymatgen
data_Sm2MgIn
_symmetry_space_group_name_H-M   'P 1'
_cell_length_a   5.40917740
_cell_length_b   5.40917740
_cell_length_c   5.40917740
_cell_angle_alpha   60.00000000
_cell_angle_beta   60.00000000
_cell_angle_gamma   60.00000000
_symmetry_Int_Tables_number   1
_chemical_formula_structural   Sm2MgIn
_chemical_formula_sum   'Sm2 Mg1 In1'
_cell_volume   111.91252040
_cell_formula_units_Z   1
loop_
 _symmetry_equiv_pos_site_id
 _symmetry_equiv_pos_as_xyz
  1  'x, y, z'
loop_
 _atom_site_type_symbol
 _atom_site_label
 _atom_site_symmetry_multiplicity
 _atom_site_fract_x
 _atom_site_fract_y
 _atom_site_fract_z
 _atom_site_occupancy
  Sm  Sm0  1  0.25000000  0.25000000  0.25000000  1
  Sm  Sm1  1  0.75000000  0.75000000  0.75000000  1
  Mg  Mg0  1  0.00000000  -0.00000000  0.00000000  1
  In  In0  1  0.50000000  0.50000000  0.50000000  1
loop_
_geom_bond_atom_site_label_1
_geom_bond_atom_site_label_2
_geom_bond_distance
_geom_bond_site_symmetry_2
Mg0 Sm1 3.312431 1_544
Mg0 Sm0 3.312431 1_455
Mg0 Sm1 3.312431 1_454
Mg0 Sm0 3.312431 1_555
Mg0 Sm0 3.312431 1_545
Mg0 Sm1 3.312431 1_444
Mg0 Sm1 3.312431 1_445
Mg0 Sm0 3.312431 1_554
In0 Sm1 3.312431 1_555
In0 Sm1 3.312431 1_545
In0 Sm1 3.312431 1_455
In0 Sm0 3.312431 1_565
In0 Sm0 3.312431 1_556
In0 Sm0 3.312431 1_555
In0 Sm1 3.312431 1_554
In0 Sm0 3.312431 1_655
