# generated using pymatgen
data_CsFe2F6
_symmetry_space_group_name_H-M   'P 1'
_cell_length_a   7.20506993
_cell_length_b   7.44727312
_cell_length_c   10.34440934
_cell_angle_alpha   90.00000000
_cell_angle_beta   90.00000000
_cell_angle_gamma   90.00000000
_symmetry_Int_Tables_number   1
_chemical_formula_structural   CsFe2F6
_chemical_formula_sum   'Cs4 Fe8 F24'
_cell_volume   555.06159511
_cell_formula_units_Z   4
loop_
 _symmetry_equiv_pos_site_id
 _symmetry_equiv_pos_as_xyz
  1  'x, y, z'
loop_
 _atom_site_type_symbol
 _atom_site_label
 _atom_site_symmetry_multiplicity
 _atom_site_fract_x
 _atom_site_fract_y
 _atom_site_fract_z
 _atom_site_occupancy
  Cs  Cs0  1  0.49047936  0.25000000  0.12984515  1
  Cs  Cs1  1  0.99047936  0.25000000  0.37015485  1
  Cs  Cs2  1  0.50952064  0.75000000  0.87015485  1
  Cs  Cs3  1  0.00952064  0.75000000  0.62984515  1
  Fe  Fe0  1  0.27890497  0.25000000  0.76291012  1
  Fe  Fe1  1  0.77890497  0.25000000  0.73708988  1
  Fe  Fe2  1  0.72109503  0.75000000  0.23708988  1
  Fe  Fe3  1  0.22109503  0.75000000  0.26291012  1
  Fe  Fe4  1  0.50000000  -0.00000000  0.50000000  1
  Fe  Fe5  1  0.00000000  0.50000000  -0.00000000  1
  Fe  Fe6  1  0.50000000  0.50000000  0.50000000  1
  Fe  Fe7  1  0.00000000  -0.00000000  -0.00000000  1
  F  F0  1  0.65484234  0.96595062  0.34258551  1
  F  F1  1  0.15484234  0.53404938  0.15741449  1
  F  F2  1  0.34515766  0.46595062  0.65741449  1
  F  F3  1  0.84515766  0.03404938  0.84258551  1
  F  F4  1  0.34515766  0.03404938  0.65741449  1
  F  F5  1  0.84515766  0.46595062  0.84258551  1
  F  F6  1  0.65484234  0.53404938  0.34258551  1
  F  F7  1  0.15484234  0.96595062  0.15741449  1
  F  F8  1  0.22313484  0.43196084  0.90236680  1
  F  F9  1  0.72313484  0.06803916  0.59763320  1
  F  F10  1  0.77686516  0.93196084  0.09763320  1
  F  F11  1  0.27686516  0.56803916  0.40236680  1
  F  F12  1  0.77686516  0.56803916  0.09763320  1
  F  F13  1  0.27686516  0.93196084  0.40236680  1
  F  F14  1  0.22313484  0.06803916  0.90236680  1
  F  F15  1  0.72313484  0.43196084  0.59763320  1
  F  F16  1  0.95345957  0.25000000  0.05645412  1
  F  F17  1  0.45345957  0.25000000  0.44354588  1
  F  F18  1  0.04654043  0.75000000  0.94354588  1
  F  F19  1  0.54654043  0.75000000  0.55645412  1
  F  F20  1  0.04003260  0.25000000  0.67044772  1
  F  F21  1  0.54003260  0.25000000  0.82955228  1
  F  F22  1  0.95996740  0.75000000  0.32955228  1
  F  F23  1  0.45996740  0.75000000  0.17044772  1
loop_
_geom_bond_atom_site_label_1
_geom_bond_atom_site_label_2
_geom_bond_distance
_geom_bond_site_symmetry_2
Cs0 F21 3.126803 1_554
Cs0 F10 3.158905 1_545
Cs0 F12 3.158905 1_555
Cs0 F1 3.225576 1_555
Cs0 F7 3.225576 1_545
Cs0 F17 3.255992 1_555
Cs0 F6 3.274186 1_555
Cs0 F0 3.274186 1_545
Cs0 F14 3.329254 1_554
Cs0 F8 3.329254 1_554
Cs0 F16 3.421105 1_555
Cs1 F20 3.126803 1_655
Cs1 F13 3.158905 1_645
Cs1 F11 3.158905 1_655
Cs1 F0 3.225576 1_545
Cs1 F6 3.225576 1_555
Cs1 F16 3.255992 1_555
Cs1 F7 3.274186 1_645
Cs1 F1 3.274186 1_655
Cs1 F15 3.329254 1_555
Cs1 F9 3.329254 1_555
Cs1 F17 3.421105 1_655
Cs2 F23 3.126803 1_556
Cs2 F8 3.158905 1_555
Cs2 F14 3.158905 1_565
Cs2 F3 3.225576 1_565
Cs2 F5 3.225576 1_555
Cs2 F19 3.255992 1_555
Cs2 F4 3.274186 1_565
Cs2 F2 3.274186 1_555
Cs2 F10 3.329254 1_556
Cs2 F12 3.329254 1_556
Cs2 F18 3.421105 1_555
Cs3 F22 3.126803 1_455
Cs3 F15 3.158905 1_455
Cs3 F9 3.158905 1_465
Cs3 F4 3.225576 1_565
Cs3 F2 3.225576 1_555
Cs3 F18 3.255992 1_555
Cs3 F3 3.274186 1_465
Cs3 F5 3.274186 1_455
Cs3 F13 3.329254 1_555
Cs3 F11 3.329254 1_555
Cs3 F19 3.421105 1_455
F0 Fe4 1.990108 1_565
F0 Fe2 2.001307 1_555
F1 Fe5 1.990108 1_555
F1 Fe3 2.001307 1_555
F2 Fe6 1.990108 1_555
F2 Fe0 2.001307 1_555
F3 Fe7 1.990108 1_656
F3 Fe1 2.001307 1_555
F4 Fe4 1.990108 1_555
F4 Fe0 2.001307 1_555
F5 Fe5 1.990108 1_656
F5 Fe1 2.001307 1_555
F6 Fe6 1.990108 1_555
F6 Fe2 2.001307 1_555
F7 Fe7 1.990108 1_565
F7 Fe3 2.001307 1_555
F8 Fe5 1.965063 1_556
F8 Fe0 2.019624 1_555
F9 Fe4 1.965063 1_555
F9 Fe1 2.019624 1_555
F10 Fe7 1.965063 1_665
F10 Fe2 2.019624 1_555
F11 Fe6 1.965063 1_555
F11 Fe3 2.019624 1_555
F12 Fe5 1.965063 1_655
F12 Fe2 2.019624 1_555
F13 Fe4 1.965063 1_565
F13 Fe3 2.019624 1_555
F14 Fe7 1.965063 1_556
F14 Fe0 2.019624 1_555
F15 Fe6 1.965063 1_555
F15 Fe1 2.019624 1_555
F16 Fe7 1.979861 1_655
F16 Fe5 1.979861 1_655
F17 Fe4 1.979861 1_555
F17 Fe6 1.979861 1_555
F18 Fe7 1.979861 1_566
F18 Fe5 1.979861 1_556
F19 Fe4 1.979861 1_565
F19 Fe6 1.979861 1_555
F20 Fe0 1.969008 1_555
F20 Fe1 2.003762 1_455
F21 Fe1 1.969008 1_555
F21 Fe0 2.003762 1_555
F22 Fe2 1.969008 1_555
F22 Fe3 2.003762 1_655
F23 Fe3 1.969008 1_555
F23 Fe2 2.003762 1_555
