# generated using pymatgen
data_Mg14FeSn
_symmetry_space_group_name_H-M   'P 1'
_cell_length_a   6.27421017
_cell_length_b   6.28487188
_cell_length_c   10.24309618
_cell_angle_alpha   90.00000000
_cell_angle_beta   90.00000000
_cell_angle_gamma   120.05623328
_symmetry_Int_Tables_number   1
_chemical_formula_structural   Mg14FeSn
_chemical_formula_sum   'Mg14 Fe1 Sn1'
_cell_volume   349.59966205
_cell_formula_units_Z   1
loop_
 _symmetry_equiv_pos_site_id
 _symmetry_equiv_pos_as_xyz
  1  'x, y, z'
loop_
 _atom_site_type_symbol
 _atom_site_label
 _atom_site_symmetry_multiplicity
 _atom_site_fract_x
 _atom_site_fract_y
 _atom_site_fract_z
 _atom_site_occupancy
  Mg  Mg0  1  0.16714640  0.33357270  0.62500000  1
  Mg  Mg1  1  0.16795438  0.83397669  0.62500000  1
  Mg  Mg2  1  0.66976306  0.33450389  0.12500000  1
  Mg  Mg3  1  0.66589496  0.33228559  0.62500000  1
  Mg  Mg4  1  0.66976306  0.83525817  0.12500000  1
  Mg  Mg5  1  0.66589496  0.83360836  0.62500000  1
  Mg  Mg6  1  0.32925758  0.17123113  0.36734553  1
  Mg  Mg7  1  0.32925758  0.17123113  0.88265447  1
  Mg  Mg8  1  0.32925758  0.65802744  0.36734553  1
  Mg  Mg9  1  0.32925758  0.65802744  0.88265447  1
  Mg  Mg10  1  0.84165522  0.17082811  0.36846436  1
  Mg  Mg11  1  0.84165522  0.17082811  0.88153564  1
  Mg  Mg12  1  0.83229596  0.66614848  0.37808152  1
  Mg  Mg13  1  0.83229596  0.66614848  0.87191848  1
  Fe  Fe0  1  0.16648412  0.33324156  0.12500000  1
  Sn  Sn0  1  0.16216637  0.83108269  0.12500000  1
loop_
_geom_bond_atom_site_label_1
_geom_bond_atom_site_label_2
_geom_bond_distance
_geom_bond_site_symmetry_2
Mg0 Mg5 3.133312 1_555
Mg0 Mg3 3.133313 1_555
Mg0 Mg5 3.140913 1_445
Mg0 Mg3 3.140913 1_455
Mg0 Mg1 3.142439 1_555
Mg0 Mg1 3.142439 1_545
Mg0 Mg10 3.166907 1_455
Mg0 Mg11 3.166907 1_455
Mg0 Mg6 3.174954 1_555
Mg0 Mg7 3.174954 1_555
Mg0 Mg9 3.174960 1_555
Mg0 Mg8 3.174960 1_555
Mg1 Mg12 3.117616 1_455
Mg1 Mg13 3.117616 1_455
Mg1 Mg3 3.125344 1_565
Mg1 Mg5 3.125344 1_555
Mg1 Mg3 3.148867 1_455
Mg1 Mg5 3.148868 1_455
Mg1 Mg8 3.214560 1_555
Mg1 Mg9 3.214560 1_555
Mg1 Mg6 3.214566 1_565
Mg1 Mg7 3.214566 1_565
Mg2 Mg6 3.095700 1_555
Mg2 Mg7 3.095700 1_554
Mg2 Sn0 3.102668 1_655
Mg2 Mg4 3.137695 1_545
Mg2 Mg4 3.147176 1_555
Mg2 Sn0 3.171706 1_545
Mg3 Mg5 3.134122 1_545
Mg3 Mg5 3.150749 1_555
Mg3 Mg7 3.210824 1_555
Mg3 Mg6 3.210824 1_555
Mg4 Mg8 3.095700 1_555
Mg4 Mg9 3.095700 1_554
Mg4 Sn0 3.102668 1_655
Mg4 Sn0 3.171706 1_555
Mg5 Mg8 3.210824 1_555
Mg5 Mg9 3.210824 1_555
Mg6 Mg8 3.059452 1_555
Mg6 Sn0 3.096187 1_545
Mg6 Mg8 3.225419 1_545
Mg7 Mg9 3.059452 1_555
Mg7 Sn0 3.096187 1_546
Mg7 Mg9 3.225419 1_545
Mg8 Sn0 3.096181 1_555
Mg9 Sn0 3.096181 1_556
Mg10 Mg8 3.058073 1_655
Mg10 Mg6 3.058073 1_655
Mg10 Mg2 3.090600 1_555
Mg10 Mg4 3.090606 1_545
Mg10 Mg12 3.144390 1_545
Mg10 Mg12 3.144390 1_555
Mg10 Mg3 3.204932 1_555
Mg10 Mg5 3.204938 1_545
Mg10 Mg8 3.216180 1_545
Mg10 Mg6 3.216180 1_555
Mg11 Mg9 3.058073 1_655
Mg11 Mg7 3.058073 1_655
Mg11 Mg2 3.090600 1_556
Mg11 Mg4 3.090606 1_546
Mg11 Mg13 3.144390 1_545
Mg11 Mg13 3.144390 1_555
Mg11 Mg3 3.204932 1_555
Mg11 Mg5 3.204938 1_545
Mg11 Mg9 3.216180 1_545
Mg11 Mg7 3.216180 1_555
Mg12 Mg5 3.113722 1_555
Mg12 Mg3 3.113729 1_555
Mg12 Mg6 3.132847 1_555
Mg12 Mg8 3.132848 1_555
Mg12 Mg6 3.145838 1_665
Mg12 Mg8 3.145838 1_655
Mg12 Sn0 3.151070 1_655
Mg12 Mg4 3.158391 1_555
Mg12 Mg2 3.158397 1_555
Mg13 Mg5 3.113722 1_555
Mg13 Mg3 3.113729 1_555
Mg13 Mg7 3.132847 1_555
Mg13 Mg9 3.132848 1_555
Mg13 Mg7 3.145838 1_665
Mg13 Mg9 3.145838 1_655
Mg13 Sn0 3.151070 1_656
Mg13 Mg4 3.158391 1_556
Mg13 Mg2 3.158397 1_556
Fe0 Mg6 3.046894 1_555
Fe0 Mg7 3.046894 1_554
Fe0 Mg9 3.046900 1_554
Fe0 Mg8 3.046900 1_555
Fe0 Mg11 3.054647 1_454
Fe0 Mg10 3.054647 1_455
Fe0 Mg4 3.120513 1_445
Fe0 Mg2 3.120513 1_455
Fe0 Sn0 3.142523 1_545
Fe0 Sn0 3.142523 1_555
Fe0 Mg4 3.153712 1_555
Fe0 Mg2 3.153712 1_555
