# generated using pymatgen
data_Rb2Ge(S2O7)3
_symmetry_space_group_name_H-M   'P 1'
_cell_length_a   9.90472125
_cell_length_b   9.90472125
_cell_length_c   11.40648100
_cell_angle_alpha   90.00000000
_cell_angle_beta   90.00000000
_cell_angle_gamma   119.99999497
_symmetry_Int_Tables_number   1
_chemical_formula_structural   Rb2Ge(S2O7)3
_chemical_formula_sum   'Rb4 Ge2 S12 O42'
_cell_volume   969.09610961
_cell_formula_units_Z   2
loop_
 _symmetry_equiv_pos_site_id
 _symmetry_equiv_pos_as_xyz
  1  'x, y, z'
loop_
 _atom_site_type_symbol
 _atom_site_label
 _atom_site_symmetry_multiplicity
 _atom_site_fract_x
 _atom_site_fract_y
 _atom_site_fract_z
 _atom_site_occupancy
  Rb  Rb0  1  0.66666700  0.33333300  0.56060100  1
  Rb  Rb1  1  0.33333300  0.66666700  0.43939900  1
  Rb  Rb2  1  0.33333300  0.66666700  0.87789300  1
  Rb  Rb3  1  0.66666700  0.33333300  0.12210700  1
  Ge  Ge0  1  0.00000000  0.00000000  0.75747000  1
  Ge  Ge1  1  0.00000000  0.00000000  0.24253000  1
  S  S0  1  0.08188900  0.33428100  0.66030300  1
  S  S1  1  0.25239200  0.91811100  0.66030300  1
  S  S2  1  0.66571900  0.74760800  0.66030300  1
  S  S3  1  0.91811100  0.66571900  0.33969700  1
  S  S4  1  0.74760800  0.08188900  0.33969700  1
  S  S5  1  0.33428100  0.25239200  0.33969700  1
  S  S6  1  0.80445100  0.65595800  0.84597900  1
  S  S7  1  0.85150700  0.19554900  0.84597900  1
  S  S8  1  0.34404200  0.14849300  0.84597900  1
  S  S9  1  0.19554900  0.34404200  0.15402100  1
  S  S10  1  0.14849300  0.80445100  0.15402100  1
  S  S11  1  0.65595800  0.85150700  0.15402100  1
  O  O0  1  0.65994500  0.67837800  0.79483400  1
  O  O1  1  0.01843200  0.34005500  0.79483400  1
  O  O2  1  0.32162200  0.98156800  0.79483400  1
  O  O3  1  0.34005500  0.32162200  0.20516600  1
  O  O4  1  0.98156800  0.65994500  0.20516600  1
  O  O5  1  0.67837800  0.01843200  0.20516600  1
  O  O6  1  0.93701800  0.82507100  0.85891900  1
  O  O7  1  0.88805400  0.06298200  0.85891900  1
  O  O8  1  0.17492900  0.11194600  0.85891900  1
  O  O9  1  0.06298200  0.17492900  0.14108100  1
  O  O10  1  0.11194600  0.93701800  0.14108100  1
  O  O11  1  0.82507100  0.88805400  0.14108100  1
  O  O12  1  0.06115700  0.17164200  0.65278200  1
  O  O13  1  0.11048400  0.93884300  0.65278200  1
  O  O14  1  0.82835800  0.88951600  0.65278200  1
  O  O15  1  0.93884300  0.82835800  0.34721800  1
  O  O16  1  0.88951600  0.06115700  0.34721800  1
  O  O17  1  0.17164200  0.11048400  0.34721800  1
  O  O18  1  0.83910500  0.57115300  0.76088100  1
  O  O19  1  0.73204800  0.16089500  0.76088100  1
  O  O20  1  0.42884700  0.26795200  0.76088100  1
  O  O21  1  0.16089500  0.42884700  0.23911900  1
  O  O22  1  0.26795200  0.83910500  0.23911900  1
  O  O23  1  0.57115300  0.73204800  0.23911900  1
  O  O24  1  0.74964200  0.59136500  0.96004400  1
  O  O25  1  0.84172300  0.25035800  0.96004400  1
  O  O26  1  0.40863500  0.15827700  0.96004400  1
  O  O27  1  0.25035800  0.40863500  0.03995600  1
  O  O28  1  0.15827700  0.74964200  0.03995600  1
  O  O29  1  0.59136500  0.84172300  0.03995600  1
  O  O30  1  0.24293600  0.45303900  0.66836100  1
  O  O31  1  0.21010200  0.75706400  0.66836100  1
  O  O32  1  0.54696100  0.78989800  0.66836100  1
  O  O33  1  0.75706400  0.54696100  0.33163900  1
  O  O34  1  0.78989800  0.24293600  0.33163900  1
  O  O35  1  0.45303900  0.21010200  0.33163900  1
  O  O36  1  0.98484600  0.35197900  0.57579300  1
  O  O37  1  0.36713300  0.01515400  0.57579300  1
  O  O38  1  0.64802100  0.63286700  0.57579300  1
  O  O39  1  0.01515400  0.64802100  0.42420700  1
  O  O40  1  0.63286700  0.98484600  0.42420700  1
  O  O41  1  0.35197900  0.36713300  0.42420700  1
loop_
_geom_bond_atom_site_label_1
_geom_bond_atom_site_label_2
_geom_bond_distance
_geom_bond_site_symmetry_2
Ge0 O7 1.910319 1_455
Ge0 O8 1.910325 1_555
Ge0 O6 1.910326 1_445
Ge0 O13 1.911346 1_545
Ge0 O14 1.911353 1_445
Ge0 O12 1.911354 1_555
Ge1 O10 1.910319 1_545
Ge1 O11 1.910325 1_445
Ge1 O9 1.910326 1_555
Ge1 O16 1.911346 1_455
Ge1 O17 1.911353 1_555
Ge1 O15 1.911354 1_445
O0 S6 1.660146 1_555
O0 S2 1.670034 1_555
O0 Rb2 3.316780 1_555
O1 S7 1.660140 1_455
O1 S0 1.670038 1_555
O1 Rb2 3.316780 1_555
O2 S8 1.660137 1_565
O2 S1 1.670036 1_555
O2 Rb2 3.316780 1_555
O3 S9 1.660146 1_555
O3 S5 1.670034 1_555
O3 Rb3 3.316780 1_555
O4 S10 1.660140 1_655
O4 S3 1.670038 1_555
O4 Rb3 3.316780 1_555
O5 S11 1.660137 1_545
O5 S4 1.670036 1_555
O5 Rb3 3.316780 1_555
O6 S6 1.533681 1_555
O7 S7 1.533687 1_555
O8 S8 1.533678 1_555
O9 S9 1.533681 1_555
O10 S10 1.533687 1_555
O11 S11 1.533678 1_555
O12 S0 1.521091 1_555
O13 S1 1.521100 1_555
O14 S2 1.521095 1_555
O15 S3 1.521091 1_555
O16 S4 1.521100 1_555
O17 S5 1.521095 1_555
O18 S6 1.433133 1_555
O18 Rb0 3.108282 1_555
O19 S7 1.433133 1_555
O19 Rb0 3.108277 1_555
O20 S8 1.433133 1_555
O20 Rb0 3.108283 1_555
O21 S9 1.433133 1_555
O21 Rb1 3.108282 1_555
O22 S10 1.433133 1_555
O22 Rb1 3.108277 1_555
O23 S11 1.433133 1_555
O23 Rb1 3.108283 1_555
O24 S6 1.431613 1_555
O24 Rb3 2.919589 1_556
O25 S7 1.431613 1_555
O25 Rb3 2.919582 1_556
O26 S8 1.431613 1_555
O26 Rb3 2.919587 1_556
O27 S9 1.431613 1_555
O27 Rb2 2.919589 1_554
O28 S10 1.431613 1_555
O28 Rb2 2.919582 1_554
O29 S11 1.431613 1_555
O29 Rb2 2.919587 1_554
O30 S0 1.435334 1_555
O30 Rb2 3.016041 1_555
O30 Rb1 3.194529 1_555
O31 S1 1.435331 1_555
O31 Rb2 3.016041 1_555
O31 Rb1 3.194529 1_555
O32 S2 1.435341 1_555
O32 Rb2 3.016042 1_555
O32 Rb1 3.194529 1_555
O33 S3 1.435334 1_555
O33 Rb3 3.016041 1_555
O33 Rb0 3.194529 1_555
O34 S4 1.435331 1_555
O34 Rb3 3.016041 1_555
O34 Rb0 3.194529 1_555
O35 S5 1.435341 1_555
O35 Rb3 3.016042 1_555
O35 Rb0 3.194529 1_555
O36 S0 1.432590 1_655
O36 Rb0 3.068208 1_555
O37 S1 1.432590 1_545
O37 Rb0 3.068213 1_555
O38 S2 1.432590 1_555
O38 Rb0 3.068218 1_555
O39 S3 1.432590 1_455
O39 Rb1 3.068208 1_555
O40 S4 1.432590 1_565
O40 Rb1 3.068213 1_555
O41 S5 1.432590 1_555
O41 Rb1 3.068218 1_555
