# generated using pymatgen
data_BaMg6Bi
_symmetry_space_group_name_H-M   'P 1'
_cell_length_a   5.20148600
_cell_length_b   7.22675700
_cell_length_c   12.23410200
_cell_angle_alpha   90.00000000
_cell_angle_beta   90.00000000
_cell_angle_gamma   90.00000000
_symmetry_Int_Tables_number   1
_chemical_formula_structural   BaMg6Bi
_chemical_formula_sum   'Ba2 Mg12 Bi2'
_cell_volume   459.87836933
_cell_formula_units_Z   2
loop_
 _symmetry_equiv_pos_site_id
 _symmetry_equiv_pos_as_xyz
  1  'x, y, z'
loop_
 _atom_site_type_symbol
 _atom_site_label
 _atom_site_symmetry_multiplicity
 _atom_site_fract_x
 _atom_site_fract_y
 _atom_site_fract_z
 _atom_site_occupancy
  Ba  Ba0  1  0.00000000  0.50000000  0.33002800  1
  Ba  Ba1  1  0.00000000  0.00000000  0.83002800  1
  Mg  Mg0  1  0.00000000  0.24915200  0.07761900  1
  Mg  Mg1  1  0.00000000  0.75084800  0.07761900  1
  Mg  Mg2  1  0.00000000  0.50000000  0.84319400  1
  Mg  Mg3  1  0.50000000  0.28440000  0.92785500  1
  Mg  Mg4  1  0.50000000  0.71560000  0.92785500  1
  Mg  Mg5  1  0.50000000  0.50000000  0.66864200  1
  Mg  Mg6  1  0.00000000  0.74915200  0.57761900  1
  Mg  Mg7  1  0.00000000  0.25084800  0.57761900  1
  Mg  Mg8  1  0.00000000  0.00000000  0.34319400  1
  Mg  Mg9  1  0.50000000  0.78440000  0.42785500  1
  Mg  Mg10  1  0.50000000  0.21560000  0.42785500  1
  Mg  Mg11  1  0.50000000  0.00000000  0.16864200  1
  Bi  Bi0  1  0.50000000  0.50000000  0.14718600  1
  Bi  Bi1  1  0.50000000  0.00000000  0.64718600  1
loop_
_geom_bond_atom_site_label_1
_geom_bond_atom_site_label_2
_geom_bond_distance
_geom_bond_site_symmetry_2
Ba0 Bi0 3.430396 1_455
Ba0 Bi0 3.430396 1_555
Ba0 Mg7 3.523803 1_555
Ba0 Mg6 3.523803 1_555
Ba0 Mg10 3.524269 1_455
Ba0 Mg10 3.524269 1_555
Ba0 Mg9 3.524269 1_455
Ba0 Mg9 3.524269 1_555
Ba0 Mg1 3.580787 1_555
Ba0 Mg0 3.580787 1_555
Ba0 Mg8 3.616967 1_565
Ba0 Mg8 3.616967 1_555
Ba1 Bi1 3.430396 1_455
Ba1 Bi1 3.430396 1_555
Ba1 Mg0 3.523803 1_556
Ba1 Mg1 3.523803 1_546
Ba1 Mg4 3.524269 1_445
Ba1 Mg3 3.524269 1_555
Ba1 Mg4 3.524269 1_545
Ba1 Mg3 3.524269 1_455
Ba1 Mg7 3.580787 1_555
Ba1 Mg6 3.580787 1_545
Ba1 Mg2 3.616967 1_545
Ba1 Mg2 3.616967 1_555
Mg0 Mg3 3.191522 1_454
Mg0 Mg3 3.191522 1_554
Mg0 Mg11 3.353499 1_455
Mg0 Mg11 3.353499 1_555
Mg0 Mg2 3.392877 1_554
Mg1 Mg4 3.191522 1_454
Mg1 Mg4 3.191522 1_554
Mg1 Mg11 3.353499 1_465
Mg1 Mg11 3.353499 1_565
Mg1 Mg2 3.392877 1_554
Mg2 Mg3 3.203792 1_455
Mg2 Mg4 3.203792 1_455
Mg2 Mg4 3.203792 1_555
Mg2 Mg3 3.203792 1_555
Mg2 Mg5 3.365140 1_555
Mg2 Mg5 3.365140 1_455
Mg3 Mg4 3.116178 1_555
Mg5 Mg6 3.353499 1_555
Mg5 Mg7 3.353499 1_555
Mg5 Mg6 3.353499 1_655
Mg5 Mg7 3.353499 1_655
Mg6 Mg9 3.191522 1_555
Mg6 Mg9 3.191522 1_455
Mg6 Mg8 3.392877 1_565
Mg7 Mg8 3.392877 1_555
Mg8 Mg9 3.203792 1_545
Mg8 Mg9 3.203792 1_445
Mg10 Mg9 3.116178 1_545
Mg10 Mg7 3.191522 1_555
Mg10 Mg7 3.191522 1_655
Mg10 Mg8 3.203792 1_555
Mg10 Mg8 3.203792 1_655
Mg11 Mg8 3.365140 1_555
Mg11 Mg8 3.365140 1_655
Bi0 Mg3 3.102875 1_554
Bi0 Mg4 3.102875 1_554
Bi0 Mg1 3.282457 1_655
Bi0 Mg0 3.282457 1_555
Bi0 Mg0 3.282457 1_655
Bi0 Mg1 3.282457 1_555
Bi0 Mg11 3.622900 1_555
Bi0 Mg11 3.622900 1_565
Bi1 Mg9 3.102875 1_545
Bi1 Mg10 3.102875 1_555
Bi1 Mg6 3.282457 1_645
Bi1 Mg6 3.282457 1_545
Bi1 Mg7 3.282457 1_555
Bi1 Mg7 3.282457 1_655
Bi1 Mg5 3.622900 1_555
Bi1 Mg5 3.622900 1_545
