# generated using pymatgen
data_Li2MnVP2(O4F)2
_symmetry_space_group_name_H-M   'P 1'
_cell_length_a   5.25497565
_cell_length_b   7.54106470
_cell_length_c   10.50297904
_cell_angle_alpha   74.71219529
_cell_angle_beta   96.68844744
_cell_angle_gamma   69.93392429
_symmetry_Int_Tables_number   1
_chemical_formula_structural   Li2MnVP2(O4F)2
_chemical_formula_sum   'Li4 Mn2 V2 P4 O16 F4'
_cell_volume   367.14648997
_cell_formula_units_Z   2
loop_
 _symmetry_equiv_pos_site_id
 _symmetry_equiv_pos_as_xyz
  1  'x, y, z'
loop_
 _atom_site_type_symbol
 _atom_site_label
 _atom_site_symmetry_multiplicity
 _atom_site_fract_x
 _atom_site_fract_y
 _atom_site_fract_z
 _atom_site_occupancy
  Li  Li0  1  0.46344600  0.61998900  0.19232800  1
  Li  Li1  1  0.96328400  0.11996800  0.69222700  1
  Li  Li2  1  0.53665000  0.37998400  0.80769700  1
  Li  Li3  1  0.03670400  0.88004100  0.30776700  1
  Mn  Mn0  1  0.49983800  0.99980100  0.50002200  1
  Mn  Mn1  1  0.99986100  0.50012000  0.99989400  1
  V  V0  1  0.50008700  0.49989200  0.50000700  1
  V  V1  1  0.00004600  0.00001000  0.00002300  1
  P  P0  1  0.00519100  0.44206000  0.31915700  1
  P  P1  1  0.50509800  0.94210900  0.81906200  1
  P  P2  1  0.99490200  0.55792300  0.68082100  1
  P  P3  1  0.49486200  0.05798900  0.18095000  1
  O  O0  1  0.74739100  0.53721900  0.37376200  1
  O  O1  1  0.24721700  0.03723400  0.87375800  1
  O  O2  1  0.25278100  0.46276700  0.62623400  1
  O  O3  1  0.75277600  0.96286900  0.12629200  1
  O  O4  1  0.64824700  0.71607200  0.89339200  1
  O  O5  1  0.14824500  0.21593000  0.39350600  1
  O  O6  1  0.35163500  0.28395900  0.10655200  1
  O  O7  1  0.85170200  0.78407200  0.60649300  1
  O  O8  1  0.86611700  0.48994800  0.16743400  1
  O  O9  1  0.36582400  0.98985600  0.66740100  1
  O  O10  1  0.13397600  0.51012500  0.83253500  1
  O  O11  1  0.63401300  0.01015400  0.33262000  1
  O  O12  1  0.79148600  0.44982200  0.66994200  1
  O  O13  1  0.29160100  0.94970800  0.17009300  1
  O  O14  1  0.20856200  0.55015900  0.33008000  1
  O  O15  1  0.70850600  0.05031600  0.82993300  1
  F  F0  1  0.82703400  0.29206900  0.96258800  1
  F  F1  1  0.32694800  0.79205800  0.46267500  1
  F  F2  1  0.17299700  0.70796100  0.03739500  1
  F  F3  1  0.67297500  0.20781700  0.53736000  1
loop_
_geom_bond_atom_site_label_1
_geom_bond_atom_site_label_2
_geom_bond_distance
_geom_bond_site_symmetry_2
Li0 O0 2.078140 1_555
Li0 O8 2.085127 1_555
Li0 O14 2.167535 1_555
Li0 O13 2.270740 1_555
Li1 O1 2.078928 1_655
Li1 O9 2.084350 1_645
Li1 O15 2.166400 1_555
Li1 O12 2.271564 1_555
Li2 O2 2.078149 1_555
Li2 O10 2.085041 1_555
Li2 O12 2.167376 1_555
Li2 O15 2.270380 1_555
Li3 O3 2.078337 1_455
Li3 O11 2.085144 1_465
Li3 O13 2.166692 1_555
Li3 O14 2.271696 1_555
Mn0 O7 1.952144 1_555
Mn0 O5 1.952493 1_565
Mn0 O9 1.961421 1_555
Mn0 O11 1.961821 1_565
Mn1 O4 1.952044 1_555
Mn1 O6 1.953506 1_656
Mn1 O10 1.961446 1_655
Mn1 O8 1.962187 1_556
O0 P0 1.552444 1_655
O0 V0 1.995463 1_555
O1 P1 1.553267 1_545
O1 V1 1.994921 1_556
O2 P2 1.552640 1_455
O2 V0 1.995050 1_555
O3 P3 1.553151 1_565
O3 V1 1.995236 1_665
O4 P1 1.537024 1_555
O5 P0 1.537597 1_555
O6 P3 1.536750 1_555
O7 P2 1.537716 1_555
O8 P0 1.564624 1_655
O9 P1 1.564531 1_555
O10 P2 1.564674 1_455
O11 P3 1.564310 1_555
O12 P2 1.561690 1_555
O12 V0 2.069841 1_555
O13 P3 1.562018 1_565
O13 V1 2.070824 1_565
O14 P0 1.561537 1_555
O14 V0 2.069718 1_555
O15 P1 1.562264 1_545
O15 V1 2.070922 1_656
F0 Li2 1.890341 1_555
F0 V1 1.979377 1_656
F0 Mn1 2.158459 1_555
F1 Li3 1.889952 1_555
F1 V0 1.980303 1_555
F1 Mn0 2.156679 1_555
F2 Li0 1.890773 1_555
F2 V1 1.979390 1_565
F2 Mn1 2.158723 1_454
F3 Li1 1.890017 1_555
F3 V0 1.979579 1_555
F3 Mn0 2.159383 1_545
