# generated using pymatgen
data_CsHgBr2Cl
_symmetry_space_group_name_H-M   'P 1'
_cell_length_a   5.65547200
_cell_length_b   5.65547200
_cell_length_c   5.49016600
_cell_angle_alpha   90.00000000
_cell_angle_beta   90.00000000
_cell_angle_gamma   90.00000000
_symmetry_Int_Tables_number   1
_chemical_formula_structural   CsHgBr2Cl
_chemical_formula_sum   'Cs1 Hg1 Br2 Cl1'
_cell_volume   175.59946525
_cell_formula_units_Z   1
loop_
 _symmetry_equiv_pos_site_id
 _symmetry_equiv_pos_as_xyz
  1  'x, y, z'
loop_
 _atom_site_type_symbol
 _atom_site_label
 _atom_site_symmetry_multiplicity
 _atom_site_fract_x
 _atom_site_fract_y
 _atom_site_fract_z
 _atom_site_occupancy
  Cs  Cs0  1  0.00000000  0.00000000  0.00000000  1
  Hg  Hg0  1  0.50000000  0.50000000  0.50000000  1
  Br  Br0  1  0.00000000  0.50000000  0.50000000  1
  Br  Br1  1  0.50000000  0.00000000  0.50000000  1
  Cl  Cl0  1  0.50000000  0.50000000  0.00000000  1
loop_
_geom_bond_atom_site_label_1
_geom_bond_atom_site_label_2
_geom_bond_distance
_geom_bond_site_symmetry_2
Br0 Hg0 2.827736 1_455
Br0 Hg0 2.827736 1_555
Br0 Cs0 3.941011 1_566
Br0 Cs0 3.941011 1_555
Br0 Cs0 3.941011 1_556
Br0 Cs0 3.941011 1_565
Br1 Hg0 2.827736 1_545
Br1 Hg0 2.827736 1_555
Br1 Cs0 3.941011 1_656
Br1 Cs0 3.941011 1_555
Br1 Cs0 3.941011 1_655
Br1 Cs0 3.941011 1_556
Cl0 Hg0 2.745083 1_555
Cl0 Hg0 2.745083 1_554
Cl0 Cs0 3.999023 1_555
Cl0 Cs0 3.999023 1_655
Cl0 Cs0 3.999023 1_665
Cl0 Cs0 3.999023 1_565
