# generated using pymatgen
data_Mn2ZnO5
_symmetry_space_group_name_H-M   'P 1'
_cell_length_a   3.54663100
_cell_length_b   4.41014100
_cell_length_c   11.67642500
_cell_angle_alpha   90.00000000
_cell_angle_beta   90.00000000
_cell_angle_gamma   90.00000000
_symmetry_Int_Tables_number   1
_chemical_formula_structural   Mn2ZnO5
_chemical_formula_sum   'Mn4 Zn2 O10'
_cell_volume   182.63263064
_cell_formula_units_Z   2
loop_
 _symmetry_equiv_pos_site_id
 _symmetry_equiv_pos_as_xyz
  1  'x, y, z'
loop_
 _atom_site_type_symbol
 _atom_site_label
 _atom_site_symmetry_multiplicity
 _atom_site_fract_x
 _atom_site_fract_y
 _atom_site_fract_z
 _atom_site_occupancy
  Mn  Mn0  1  0.00000000  0.05335100  0.84832500  1
  Mn  Mn1  1  0.50000000  0.94664900  0.65167500  1
  Mn  Mn2  1  0.50000000  0.94664900  0.34832500  1
  Mn  Mn3  1  0.00000000  0.05335100  0.15167500  1
  Zn  Zn0  1  0.50000000  0.56820400  0.00000000  1
  Zn  Zn1  1  0.00000000  0.43179600  0.50000000  1
  O  O0  1  0.50000000  0.07712000  0.50000000  1
  O  O1  1  0.00000000  0.92288000  0.00000000  1
  O  O2  1  0.50000000  0.95122200  0.82228500  1
  O  O3  1  0.00000000  0.04877800  0.67771500  1
  O  O4  1  0.50000000  0.95122200  0.17771500  1
  O  O5  1  0.00000000  0.04877800  0.32228500  1
  O  O6  1  0.00000000  0.44659600  0.11480700  1
  O  O7  1  0.50000000  0.55340400  0.38519300  1
  O  O8  1  0.50000000  0.55340400  0.61480700  1
  O  O9  1  0.00000000  0.44659600  0.88519300  1
loop_
_geom_bond_atom_site_label_1
_geom_bond_atom_site_label_2
_geom_bond_distance
_geom_bond_site_symmetry_2
Mn0 O9 1.786896 1_555
Mn0 O2 1.854713 1_445
Mn0 O2 1.854713 1_545
Mn0 O1 1.862149 1_546
Mn0 O3 1.992217 1_555
Mn1 O8 1.786896 1_555
Mn1 O3 1.854713 1_565
Mn1 O3 1.854713 1_665
Mn1 O0 1.862149 1_565
Mn1 O2 1.992217 1_555
Mn2 O7 1.786896 1_555
Mn2 O5 1.854713 1_565
Mn2 O5 1.854713 1_665
Mn2 O0 1.862149 1_565
Mn2 O4 1.992217 1_555
Mn3 O6 1.786896 1_555
Mn3 O4 1.854713 1_545
Mn3 O4 1.854713 1_445
Mn3 O1 1.862149 1_545
Mn3 O5 1.992217 1_555
O0 Zn1 2.364589 1_555
O0 Zn1 2.364589 1_655
O1 Zn0 2.364589 1_455
O1 Zn0 2.364589 1_555
O6 Zn0 2.286768 1_555
O6 Zn0 2.286768 1_455
O7 Zn1 2.286768 1_555
O7 Zn1 2.286768 1_655
O8 Zn1 2.286768 1_555
O8 Zn1 2.286768 1_655
O9 Zn0 2.286768 1_556
O9 Zn0 2.286768 1_456
