# generated using pymatgen
data_TaCr3(AgS4)2
_symmetry_space_group_name_H-M   'P 1'
_cell_length_a   11.93835500
_cell_length_b   3.48307500
_cell_length_c   12.24238000
_cell_angle_alpha   90.00000000
_cell_angle_beta   90.00000000
_cell_angle_gamma   90.00000000
_symmetry_Int_Tables_number   1
_chemical_formula_structural   TaCr3(AgS4)2
_chemical_formula_sum   'Ta2 Cr6 Ag4 S16'
_cell_volume   509.06492030
_cell_formula_units_Z   2
loop_
 _symmetry_equiv_pos_site_id
 _symmetry_equiv_pos_as_xyz
  1  'x, y, z'
loop_
 _atom_site_type_symbol
 _atom_site_label
 _atom_site_symmetry_multiplicity
 _atom_site_fract_x
 _atom_site_fract_y
 _atom_site_fract_z
 _atom_site_occupancy
  Ta  Ta0  1  0.84768500  0.75000000  0.28440700  1
  Ta  Ta1  1  0.65231500  0.25000000  0.78440700  1
  Cr  Cr0  1  0.10791700  0.25000000  0.07833200  1
  Cr  Cr1  1  0.89696900  0.75000000  0.92439900  1
  Cr  Cr2  1  0.39208300  0.75000000  0.57833200  1
  Cr  Cr3  1  0.60303100  0.25000000  0.42439900  1
  Cr  Cr4  1  0.15833700  0.25000000  0.70370200  1
  Cr  Cr5  1  0.34166300  0.75000000  0.20370200  1
  Ag  Ag0  1  0.14530800  0.75000000  0.41432900  1
  Ag  Ag1  1  0.87685100  0.25000000  0.58754900  1
  Ag  Ag2  1  0.35469200  0.25000000  0.91432900  1
  Ag  Ag3  1  0.62314900  0.75000000  0.08754900  1
  S  S0  1  0.05380100  0.75000000  0.61698200  1
  S  S1  1  0.95337700  0.25000000  0.37619900  1
  S  S2  1  0.44619900  0.25000000  0.11698200  1
  S  S3  1  0.54662300  0.75000000  0.87619900  1
  S  S4  1  0.03309500  0.25000000  0.88800500  1
  S  S5  1  0.96209400  0.75000000  0.11921500  1
  S  S6  1  0.46690500  0.75000000  0.38800500  1
  S  S7  1  0.53790600  0.25000000  0.61921500  1
  S  S8  1  0.20741100  0.25000000  0.25150600  1
  S  S9  1  0.79826600  0.75000000  0.74909200  1
  S  S10  1  0.29258900  0.75000000  0.75150600  1
  S  S11  1  0.70173400  0.25000000  0.24909200  1
  S  S12  1  0.23161300  0.75000000  0.04152200  1
  S  S13  1  0.76398200  0.25000000  0.96476000  1
  S  S14  1  0.26838700  0.25000000  0.54152200  1
  S  S15  1  0.73601800  0.75000000  0.46476000  1
loop_
_geom_bond_atom_site_label_1
_geom_bond_atom_site_label_2
_geom_bond_distance
_geom_bond_site_symmetry_2
Cr0 S12 2.327392 1_555
Cr0 S12 2.327392 1_545
Cr0 S8 2.430127 1_555
Cr0 S4 2.495407 1_554
Cr0 S5 2.512796 1_455
Cr0 S5 2.512796 1_445
Cr1 S13 2.407846 1_565
Cr1 S13 2.407846 1_555
Cr1 S4 2.423321 1_655
Cr1 S4 2.423321 1_665
Cr1 S9 2.448383 1_555
Cr1 S5 2.508538 1_556
Cr2 S14 2.327392 1_565
Cr2 S14 2.327392 1_555
Cr2 S10 2.430127 1_555
Cr2 S6 2.495407 1_555
Cr2 S7 2.512796 1_555
Cr2 S7 2.512796 1_565
Cr3 S15 2.407846 1_555
Cr3 S15 2.407846 1_545
Cr3 S6 2.423321 1_545
Cr3 S6 2.423321 1_555
Cr3 S11 2.448383 1_555
Cr3 S7 2.508538 1_555
Cr4 S14 2.380798 1_555
Cr4 S0 2.391139 1_555
Cr4 S0 2.391139 1_545
Cr4 S10 2.438084 1_555
Cr4 S10 2.438084 1_545
Cr4 S4 2.706750 1_555
Cr5 S12 2.380798 1_555
Cr5 S2 2.391139 1_565
Cr5 S2 2.391139 1_555
Cr5 S8 2.438084 1_555
Cr5 S8 2.438084 1_565
Cr5 S6 2.706750 1_555
Ag0 S0 2.710825 1_555
Ag0 S8 2.748826 1_565
Ag0 S8 2.748826 1_555
Ag0 S14 2.759832 1_555
Ag0 S14 2.759832 1_565
Ag0 S1 2.915664 1_465
Ag0 S1 2.915664 1_455
Ag1 S1 2.743981 1_555
Ag1 S0 2.761415 1_645
Ag1 S0 2.761415 1_655
Ag1 S9 2.797196 1_555
Ag1 S9 2.797196 1_545
Ag1 S15 2.849468 1_555
Ag1 S15 2.849468 1_545
Ag2 S2 2.710825 1_556
Ag2 S10 2.748826 1_545
Ag2 S10 2.748826 1_555
Ag2 S12 2.759832 1_546
Ag2 S12 2.759832 1_556
Ag2 S3 2.915664 1_545
Ag2 S3 2.915664 1_555
Ag3 S3 2.743981 1_554
Ag3 S2 2.761415 1_555
Ag3 S2 2.761415 1_565
Ag3 S11 2.797196 1_555
Ag3 S11 2.797196 1_565
Ag3 S13 2.849468 1_554
Ag3 S13 2.849468 1_564
S1 Ta0 2.426496 1_545
S1 Ta0 2.426496 1_555
S3 Ta1 2.426496 1_565
S3 Ta1 2.426496 1_555
S5 Ta0 2.440376 1_555
S7 Ta1 2.440376 1_555
S9 Ta1 2.501176 1_565
S9 Ta1 2.501176 1_555
S11 Ta0 2.501176 1_545
S11 Ta0 2.501176 1_555
S13 Ta1 2.579196 1_555
S15 Ta0 2.579196 1_555
