# generated using pymatgen
data_Rb2WSe4
_symmetry_space_group_name_H-M   'P 1'
_cell_length_a   7.33794274
_cell_length_b   10.17254099
_cell_length_c   12.98323829
_cell_angle_alpha   90.00000000
_cell_angle_beta   90.00000000
_cell_angle_gamma   90.00000000
_symmetry_Int_Tables_number   1
_chemical_formula_structural   Rb2WSe4
_chemical_formula_sum   'Rb8 W4 Se16'
_cell_volume   969.14061635
_cell_formula_units_Z   4
loop_
 _symmetry_equiv_pos_site_id
 _symmetry_equiv_pos_as_xyz
  1  'x, y, z'
loop_
 _atom_site_type_symbol
 _atom_site_label
 _atom_site_symmetry_multiplicity
 _atom_site_fract_x
 _atom_site_fract_y
 _atom_site_fract_z
 _atom_site_occupancy
  Rb  Rb0  1  0.25000000  0.45318791  0.83963598  1
  Rb  Rb1  1  0.25000000  0.95318791  0.66036402  1
  Rb  Rb2  1  0.75000000  0.54681209  0.16036402  1
  Rb  Rb3  1  0.75000000  0.04681209  0.33963598  1
  Rb  Rb4  1  0.25000000  0.15904796  0.11320119  1
  Rb  Rb5  1  0.25000000  0.65904796  0.38679881  1
  Rb  Rb6  1  0.75000000  0.84095204  0.88679881  1
  Rb  Rb7  1  0.75000000  0.34095204  0.61320119  1
  W  W0  1  0.25000000  0.25010664  0.42974471  1
  W  W1  1  0.25000000  0.75010664  0.07025529  1
  W  W2  1  0.75000000  0.74989336  0.57025529  1
  W  W3  1  0.75000000  0.24989336  0.92974471  1
  Se  Se0  1  0.00512627  0.14987955  0.86029022  1
  Se  Se1  1  0.49487373  0.64987955  0.63970978  1
  Se  Se2  1  0.50512627  0.85012045  0.13970978  1
  Se  Se3  1  0.99487373  0.35012045  0.36029022  1
  Se  Se4  1  0.99487373  0.85012045  0.13970978  1
  Se  Se5  1  0.50512627  0.35012045  0.36029022  1
  Se  Se6  1  0.49487373  0.14987955  0.86029022  1
  Se  Se7  1  0.00512627  0.64987955  0.63970978  1
  Se  Se8  1  0.25000000  0.02654264  0.38902416  1
  Se  Se9  1  0.25000000  0.52654264  0.11097584  1
  Se  Se10  1  0.75000000  0.97345736  0.61097584  1
  Se  Se11  1  0.75000000  0.47345736  0.88902416  1
  Se  Se12  1  0.25000000  0.28151554  0.60677373  1
  Se  Se13  1  0.25000000  0.78151554  0.89322627  1
  Se  Se14  1  0.75000000  0.71848446  0.39322627  1
  Se  Se15  1  0.75000000  0.21848446  0.10677373  1
loop_
_geom_bond_atom_site_label_1
_geom_bond_atom_site_label_2
_geom_bond_distance
_geom_bond_site_symmetry_2
Rb0 Se13 3.411629 1_555
Rb0 Se12 3.491432 1_555
Rb0 Se0 3.580565 1_555
Rb0 Se6 3.580565 1_555
Rb0 Se9 3.601032 1_556
Rb0 Se11 3.730285 1_455
Rb0 Se11 3.730285 1_555
Rb0 Se7 3.737614 1_555
Rb0 Se1 3.737614 1_555
Rb1 Se12 3.411629 1_565
Rb1 Se13 3.491432 1_555
Rb1 Se7 3.580565 1_555
Rb1 Se1 3.580565 1_555
Rb1 Se8 3.601032 1_565
Rb1 Se10 3.730285 1_555
Rb1 Se10 3.730285 1_455
Rb1 Se6 3.737614 1_565
Rb1 Se0 3.737614 1_565
Rb2 Se15 3.411629 1_555
Rb2 Se14 3.491432 1_555
Rb2 Se4 3.580565 1_555
Rb2 Se2 3.580565 1_555
Rb2 Se11 3.601032 1_554
Rb2 Se9 3.730285 1_555
Rb2 Se9 3.730285 1_655
Rb2 Se5 3.737614 1_555
Rb2 Se3 3.737614 1_555
Rb3 Se14 3.411629 1_545
Rb3 Se15 3.491432 1_555
Rb3 Se5 3.580565 1_555
Rb3 Se3 3.580565 1_555
Rb3 Se10 3.601032 1_545
Rb3 Se8 3.730285 1_655
Rb3 Se8 3.730285 1_555
Rb3 Se4 3.737614 1_545
Rb3 Se2 3.737614 1_545
Rb4 Se2 3.674100 1_545
Rb4 Se4 3.674100 1_445
Rb4 Se15 3.719392 1_555
Rb4 Se15 3.719392 1_455
Rb4 Se9 3.738466 1_555
Rb4 Se6 3.744261 1_554
Rb4 Se0 3.744261 1_554
Rb4 Se8 3.826353 1_555
Rb5 Se5 3.674100 1_555
Rb5 Se3 3.674100 1_455
Rb5 Se14 3.719392 1_455
Rb5 Se14 3.719392 1_555
Rb5 Se8 3.738466 1_565
Rb5 Se7 3.744261 1_555
Rb5 Se1 3.744261 1_555
Rb5 Se9 3.826353 1_555
Rb6 Se0 3.674100 1_665
Rb6 Se6 3.674100 1_565
Rb6 Se13 3.719392 1_555
Rb6 Se13 3.719392 1_655
Rb6 Se11 3.738466 1_555
Rb6 Se2 3.744261 1_556
Rb6 Se4 3.744261 1_556
Rb6 Se10 3.826353 1_555
Rb7 Se1 3.674100 1_555
Rb7 Se7 3.674100 1_655
Rb7 Se12 3.719392 1_555
Rb7 Se12 3.719392 1_655
Rb7 Se10 3.738466 1_545
Rb7 Se5 3.744261 1_555
Rb7 Se3 3.744261 1_555
Rb7 Se11 3.826353 1_555
Se0 W3 2.313655 1_455
Se1 W2 2.313655 1_555
Se2 W1 2.313655 1_555
Se3 W0 2.313655 1_655
Se4 W1 2.313655 1_655
Se5 W0 2.313655 1_555
Se6 W3 2.313655 1_555
Se7 W2 2.313655 1_455
Se8 W0 2.334857 1_555
Se9 W1 2.334857 1_555
Se10 W2 2.334857 1_555
Se11 W3 2.334857 1_555
Se12 W0 2.320512 1_555
Se13 W1 2.320512 1_556
Se14 W2 2.320512 1_555
Se15 W3 2.320512 1_554
