# generated using pymatgen
data_ZnNiP2O7
_symmetry_space_group_name_H-M   'P 1'
_cell_length_a   7.03923353
_cell_length_b   9.11958101
_cell_length_c   9.46247085
_cell_angle_alpha   63.36518268
_cell_angle_beta   104.18504899
_cell_angle_gamma   112.79495571
_symmetry_Int_Tables_number   1
_chemical_formula_structural   ZnNiP2O7
_chemical_formula_sum   'Zn4 Ni4 P8 O28'
_cell_volume   498.69241790
_cell_formula_units_Z   4
loop_
 _symmetry_equiv_pos_site_id
 _symmetry_equiv_pos_as_xyz
  1  'x, y, z'
loop_
 _atom_site_type_symbol
 _atom_site_label
 _atom_site_symmetry_multiplicity
 _atom_site_fract_x
 _atom_site_fract_y
 _atom_site_fract_z
 _atom_site_occupancy
  Zn  Zn0  1  0.49424100  0.83793300  0.82370600  1
  Zn  Zn1  1  0.99410400  0.33782400  0.32372200  1
  Zn  Zn2  1  0.00565600  0.66200900  0.67625900  1
  Zn  Zn3  1  0.50574100  0.16200700  0.17637800  1
  Ni  Ni0  1  0.55574000  0.39532000  0.80938600  1
  Ni  Ni1  1  0.94426300  0.10446800  0.69069800  1
  Ni  Ni2  1  0.05594000  0.89572000  0.30930100  1
  Ni  Ni3  1  0.44403800  0.60420800  0.19066800  1
  P  P0  1  0.29960300  0.61304000  0.48250000  1
  P  P1  1  0.79951600  0.11287100  0.98272200  1
  P  P2  1  0.20048700  0.88702500  0.01744300  1
  P  P3  1  0.70056500  0.38713900  0.51731300  1
  P  P4  1  0.29033100  0.09250800  0.52218100  1
  P  P5  1  0.79019200  0.59246100  0.02232200  1
  P  P6  1  0.20951300  0.40751500  0.97773200  1
  P  P7  1  0.70968200  0.90759100  0.47758900  1
  O  O0  1  0.74711400  0.05182800  0.84528300  1
  O  O1  1  0.24725700  0.55119900  0.34565200  1
  O  O2  1  0.75295200  0.44801800  0.65487300  1
  O  O3  1  0.25270200  0.94864300  0.15443300  1
  O  O4  1  0.34714300  0.48163700  0.64210500  1
  O  O5  1  0.84727200  0.98140100  0.14206900  1
  O  O6  1  0.15310800  0.01865200  0.85796300  1
  O  O7  1  0.65319700  0.51881900  0.35786700  1
  O  O8  1  0.13383600  0.68536800  0.48150600  1
  O  O9  1  0.63385300  0.18514900  0.98219600  1
  O  O10  1  0.36624800  0.81465600  0.01847800  1
  O  O11  1  0.86618000  0.31461400  0.51828800  1
  O  O12  1  0.22602300  0.58460100  0.84080500  1
  O  O13  1  0.72618700  0.08470000  0.34079900  1
  O  O14  1  0.27396300  0.91549600  0.65913200  1
  O  O15  1  0.77377000  0.41540100  0.15916600  1
  O  O16  1  0.30055600  0.09128300  0.36207000  1
  O  O17  1  0.79982900  0.59135200  0.86207900  1
  O  O18  1  0.19944100  0.40865900  0.13795200  1
  O  O19  1  0.70007800  0.90849300  0.63797900  1
  O  O20  1  0.49625300  0.22151600  0.57052500  1
  O  O21  1  0.99631700  0.72130200  0.07086700  1
  O  O22  1  0.00364900  0.27856800  0.92917400  1
  O  O23  1  0.50371500  0.77900600  0.42878400  1
  O  O24  1  0.88344900  0.83901100  0.48663300  1
  O  O25  1  0.38337500  0.33906800  0.98677200  1
  O  O26  1  0.61644600  0.66104900  0.01334900  1
  O  O27  1  0.11647500  0.16087100  0.51328900  1
loop_
_geom_bond_atom_site_label_1
_geom_bond_atom_site_label_2
_geom_bond_distance
_geom_bond_site_symmetry_2
Ni0 O4 1.980050 1_555
Ni0 O2 2.035581 1_555
Ni0 O9 2.053226 1_555
Ni0 O25 2.072801 1_555
Ni0 O17 2.096659 1_555
Ni1 O6 1.979718 1_655
Ni1 O0 2.035958 1_555
Ni1 O11 2.051800 1_555
Ni1 O27 2.071772 1_655
Ni1 O19 2.096720 1_545
Ni2 O5 1.978309 1_455
Ni2 O3 2.035058 1_555
Ni2 O8 2.051907 1_555
Ni2 O24 2.071557 1_455
Ni2 O16 2.095824 1_565
Ni3 O7 1.979729 1_555
Ni3 O1 2.035743 1_555
Ni3 O10 2.052136 1_555
Ni3 O26 2.070642 1_555
Ni3 O18 2.095474 1_555
O0 P1 1.546670 1_555
O0 Zn0 2.122179 1_545
O1 P0 1.546141 1_555
O1 Zn1 2.121078 1_455
O2 P3 1.546799 1_555
O2 Zn2 2.121644 1_655
O3 P2 1.546191 1_555
O3 Zn3 2.120688 1_565
O4 P0 1.506401 1_555
O5 P1 1.505658 1_564
O6 P2 1.506263 1_546
O7 P3 1.506261 1_555
O8 P0 1.543440 1_555
O8 Zn2 2.137664 1_555
O9 P1 1.544086 1_555
O9 Zn3 2.133296 1_556
O10 P2 1.543525 1_555
O10 Zn0 2.137383 1_554
O11 P3 1.543812 1_555
O11 Zn1 2.135575 1_555
O12 P6 1.533820 1_555
O12 Zn2 2.002042 1_555
O12 Zn0 2.315806 1_555
O13 P7 1.533453 1_545
O13 Zn3 2.001655 1_555
O13 Zn1 2.313665 1_555
O14 P4 1.533599 1_565
O14 Zn0 2.002135 1_555
O14 Zn2 2.316958 1_555
O15 P5 1.533437 1_555
O15 Zn1 2.002384 1_555
O15 Zn3 2.315391 1_555
O16 P4 1.539452 1_555
O16 Zn3 2.257304 1_555
O17 P5 1.539009 1_556
O17 Zn2 2.261727 1_655
O18 P6 1.539825 1_554
O18 Zn1 2.258356 1_455
O19 P7 1.539454 1_555
O19 Zn0 2.261344 1_555
O20 P4 1.590810 1_555
O20 P3 1.610310 1_555
O21 P5 1.591572 1_555
O21 P2 1.610340 1_655
O22 P6 1.591100 1_555
O22 P1 1.610207 1_455
O23 P7 1.590730 1_555
O23 P0 1.611405 1_555
O24 P7 1.545363 1_555
O24 Zn2 2.070697 1_655
O25 P6 1.545168 1_555
O25 Zn3 2.071481 1_556
O26 P5 1.545490 1_555
O26 Zn0 2.070163 1_554
O27 P4 1.545051 1_555
O27 Zn1 2.070802 1_455
