# generated using pymatgen
data_Mg2TaFeO6
_symmetry_space_group_name_H-M   'P 1'
_cell_length_a   7.61816200
_cell_length_b   5.19045800
_cell_length_c   5.42053994
_cell_angle_alpha   89.33696360
_cell_angle_beta   90.00000000
_cell_angle_gamma   90.00000000
_symmetry_Int_Tables_number   1
_chemical_formula_structural   Mg2TaFeO6
_chemical_formula_sum   'Mg4 Ta2 Fe2 O12'
_cell_volume   214.32328334
_cell_formula_units_Z   2
loop_
 _symmetry_equiv_pos_site_id
 _symmetry_equiv_pos_as_xyz
  1  'x, y, z'
loop_
 _atom_site_type_symbol
 _atom_site_label
 _atom_site_symmetry_multiplicity
 _atom_site_fract_x
 _atom_site_fract_y
 _atom_site_fract_z
 _atom_site_occupancy
  Mg  Mg0  1  0.75000000  0.99311200  0.04246000  1
  Mg  Mg1  1  0.75000000  0.51292400  0.56945800  1
  Mg  Mg2  1  0.25000000  0.48707600  0.43054200  1
  Mg  Mg3  1  0.25000000  0.00688800  0.95754000  1
  Ta  Ta0  1  0.00000000  0.00000000  0.50000000  1
  Ta  Ta1  1  0.50000000  0.00000000  0.50000000  1
  Fe  Fe0  1  0.00000000  0.50000000  0.00000000  1
  Fe  Fe1  1  0.50000000  0.50000000  0.00000000  1
  O  O0  1  0.43132200  0.17516400  0.18904900  1
  O  O1  1  0.56966100  0.68635200  0.32051200  1
  O  O2  1  0.56867800  0.82483600  0.81095100  1
  O  O3  1  0.06966100  0.31364800  0.67948800  1
  O  O4  1  0.25000000  0.86714000  0.55908300  1
  O  O5  1  0.43033900  0.31364800  0.67948800  1
  O  O6  1  0.93033900  0.68635200  0.32051200  1
  O  O7  1  0.06867800  0.17516400  0.18904900  1
  O  O8  1  0.75000000  0.36922500  0.93184800  1
  O  O9  1  0.93132200  0.82483600  0.81095100  1
  O  O10  1  0.25000000  0.63077500  0.06815200  1
  O  O11  1  0.75000000  0.13286000  0.44091700  1
loop_
_geom_bond_atom_site_label_1
_geom_bond_atom_site_label_2
_geom_bond_distance
_geom_bond_site_symmetry_2
Mg0 O8 2.035555 1_564
Mg0 O2 2.066671 1_554
Mg0 O9 2.066671 1_554
Mg0 O11 2.286342 1_565
Mg0 O6 2.576574 1_555
Mg0 O1 2.576574 1_555
Mg0 O7 2.726825 1_665
Mg0 O0 2.726825 1_565
Mg1 O8 2.093101 1_555
Mg1 O11 2.099728 1_555
Mg1 O6 2.119104 1_555
Mg1 O1 2.119104 1_555
Mg1 O9 2.508334 1_555
Mg1 O2 2.508334 1_555
Mg1 O3 2.709544 1_655
Mg1 O5 2.709544 1_555
Mg2 O10 2.093101 1_555
Mg2 O4 2.099728 1_555
Mg2 O5 2.119104 1_555
Mg2 O3 2.119104 1_555
Mg2 O7 2.508334 1_555
Mg2 O0 2.508334 1_555
Mg2 O6 2.709544 1_455
Mg2 O1 2.709544 1_555
Mg3 O10 2.035555 1_546
Mg3 O0 2.066671 1_556
Mg3 O7 2.066671 1_556
Mg3 O4 2.286342 1_545
Mg3 O3 2.576574 1_555
Mg3 O5 2.576574 1_555
Mg3 O2 2.726825 1_545
Mg3 O9 2.726825 1_445
Fe0 O9 2.031407 1_454
Fe0 O7 2.031407 1_555
Fe0 O8 2.056768 1_454
Fe0 O10 2.056768 1_555
Fe0 O6 2.067481 1_455
Fe0 O3 2.067481 1_554
Fe1 O0 2.031407 1_555
Fe1 O2 2.031407 1_554
Fe1 O8 2.056768 1_554
Fe1 O10 2.056768 1_555
Fe1 O1 2.067481 1_555
Fe1 O5 2.067481 1_554
O0 Ta1 1.976327 1_555
O1 Ta1 1.978680 1_565
O2 Ta1 1.976327 1_565
O3 Ta0 1.978680 1_555
O4 Ta1 2.049460 1_565
O4 Ta0 2.049460 1_565
O5 Ta1 1.978680 1_555
O6 Ta0 1.978680 1_665
O7 Ta0 1.976327 1_555
O9 Ta0 1.976327 1_665
O11 Ta0 2.049460 1_655
O11 Ta1 2.049460 1_555
