# generated using pymatgen
data_Ca2B5H3O11
_symmetry_space_group_name_H-M   'P 1'
_cell_length_a   6.37697639
_cell_length_b   6.37697639
_cell_length_c   11.86252107
_cell_angle_alpha   97.31906819
_cell_angle_beta   99.26823741
_cell_angle_gamma   117.60798307
_symmetry_Int_Tables_number   1
_chemical_formula_structural   Ca2B5H3O11
_chemical_formula_sum   'Ca4 B10 H6 O22'
_cell_volume   410.48093976
_cell_formula_units_Z   2
loop_
 _symmetry_equiv_pos_site_id
 _symmetry_equiv_pos_as_xyz
  1  'x, y, z'
loop_
 _atom_site_type_symbol
 _atom_site_label
 _atom_site_symmetry_multiplicity
 _atom_site_fract_x
 _atom_site_fract_y
 _atom_site_fract_z
 _atom_site_occupancy
  Ca  Ca0  1  0.54558500  0.64403000  0.38623400  1
  Ca  Ca1  1  0.24220500  0.84064900  0.88623400  1
  Ca  Ca2  1  0.72410000  0.54582800  0.08881400  1
  Ca  Ca3  1  0.04298600  0.36471400  0.58881400  1
  B  B0  1  0.13366300  0.44845200  0.10008800  1
  B  B1  1  0.15163500  0.96642500  0.60008800  1
  B  B2  1  0.83763000  0.01124200  0.06299400  1
  B  B3  1  0.55175200  0.22536400  0.56299400  1
  B  B4  1  0.43023300  0.89561800  0.13191300  1
  B  B5  1  0.73629500  0.70168000  0.63191300  1
  B  B6  1  0.76099600  0.85105700  0.84052700  1
  B  B7  1  0.48947000  0.07953000  0.34052700  1
  B  B8  1  0.26579100  0.17193500  0.18141200  1
  B  B9  1  0.50947700  0.91562100  0.68141200  1
  H  H0  1  0.96053800  0.82558200  0.29380400  1
  H  H1  1  0.96822200  0.33326600  0.79380400  1
  H  H2  1  0.99955900  0.58446700  0.35749400  1
  H  H3  1  0.27302600  0.35793400  0.85749400  1
  H  H4  1  0.22219100  0.69232600  0.47461400  1
  H  H5  1  0.28228800  0.25242300  0.97461400  1
  O  O0  1  0.89564300  0.26300400  0.05600700  1
  O  O1  1  0.29300300  0.16036500  0.55600700  1
  O  O2  1  0.85217400  0.65623000  0.29538500  1
  O  O3  1  0.13915600  0.44321100  0.79538500  1
  O  O4  1  0.39890100  0.09930000  0.10844700  1
  O  O5  1  0.50914700  0.70954600  0.60844700  1
  O  O6  1  0.58347600  0.85541200  0.06311300  1
  O  O7  1  0.70770100  0.47963700  0.56311300  1
  O  O8  1  0.00557700  0.01088000  0.16153000  1
  O  O9  1  0.65065000  0.15595200  0.66153000  1
  O  O10  1  0.31731900  0.41709000  0.15957600  1
  O  O11  1  0.24248600  0.84225700  0.65957600  1
  O  O12  1  0.59170300  0.92337600  0.80853300  1
  O  O13  1  0.38515700  0.21682900  0.30853300  1
  O  O14  1  0.50981800  0.91864600  0.25951500  1
  O  O15  1  0.84086900  0.74969700  0.75951500  1
  O  O16  1  0.87298400  0.88404200  0.95533200  1
  O  O17  1  0.57129100  0.08234900  0.45533200  1
  O  O18  1  0.17661400  0.67103700  0.08190600  1
  O  O19  1  0.91087000  0.90529200  0.58190600  1
  O  O20  1  0.12666600  0.54352900  0.41258200  1
  O  O21  1  0.36905400  0.28591600  0.91258200  1
loop_
_geom_bond_atom_site_label_1
_geom_bond_atom_site_label_2
_geom_bond_distance
_geom_bond_site_symmetry_2
Ca0 O2 2.355638 1_555
Ca0 O13 2.406469 1_555
Ca0 O14 2.511754 1_555
Ca0 O20 2.525501 1_555
Ca0 H4 2.578730 1_555
Ca0 O5 2.680252 1_555
Ca0 O10 2.690348 1_555
Ca0 O19 2.695504 1_555
Ca0 O7 2.727002 1_555
Ca0 O17 2.731281 1_565
Ca1 O3 2.355638 1_555
Ca1 O12 2.406458 1_555
Ca1 O15 2.511759 1_455
Ca1 O21 2.525501 1_565
Ca1 H5 2.578733 1_565
Ca1 O4 2.680252 1_566
Ca1 O11 2.690347 1_555
Ca1 O18 2.695502 1_556
Ca1 O6 2.726998 1_556
Ca1 O16 2.731283 1_455
Ca2 O2 2.355900 1_555
Ca2 O21 2.521546 1_554
Ca2 O0 2.527426 1_555
Ca2 O6 2.549662 1_555
Ca2 H5 2.552017 1_554
Ca2 H0 2.567053 1_555
Ca2 O8 2.583920 1_665
Ca2 O18 2.632238 1_655
Ca2 O10 2.647788 1_555
Ca2 O4 2.704541 1_555
Ca2 O16 2.741692 1_554
Ca3 O3 2.355900 1_555
Ca3 O20 2.521549 1_555
Ca3 O1 2.527421 1_555
Ca3 O7 2.549662 1_455
Ca3 H4 2.552017 1_555
Ca3 H1 2.567053 1_455
Ca3 O9 2.583921 1_455
Ca3 O19 2.632239 1_445
Ca3 O11 2.647788 1_555
Ca3 O5 2.704541 1_555
Ca3 O17 2.741687 1_455
B0 O18 1.368572 1_555
B0 O10 1.377117 1_555
B0 O0 1.378019 1_455
B1 O19 1.368560 1_455
B1 O11 1.377121 1_555
B1 O1 1.378025 1_565
B2 O8 1.453637 1_655
B2 O6 1.456925 1_545
B2 O0 1.488150 1_555
B2 O16 1.529111 1_544
B3 O9 1.453641 1_555
B3 O7 1.456925 1_555
B3 O1 1.488151 1_555
B3 O17 1.529111 1_555
B4 O4 1.455756 1_565
B4 O6 1.456917 1_555
B4 O14 1.482296 1_555
B4 O18 1.531794 1_555
B5 O5 1.455756 1_555
B5 O7 1.456917 1_555
B5 O15 1.482296 1_555
B5 O19 1.531796 1_555
B6 O16 1.372393 1_555
B6 O12 1.377055 1_555
B6 O15 1.380329 1_555
B7 O17 1.372390 1_555
B7 O13 1.377055 1_555
B7 O14 1.380325 1_545
B8 O8 1.447975 1_555
B8 O4 1.477556 1_555
B8 O13 1.501217 1_555
B8 O10 1.507846 1_555
B9 O9 1.447970 1_565
B9 O5 1.477556 1_555
B9 O12 1.501216 1_555
B9 O11 1.507846 1_555
H0 O2 0.980729 1_555
H1 O3 0.980734 1_655
H2 O20 1.105065 1_655
H2 O2 1.377357 1_555
H3 O21 1.105068 1_555
H3 O3 1.377353 1_555
H4 O20 0.977192 1_555
H5 O21 0.977195 1_555
