# generated using pymatgen
data_ErH10C6S6N3O17F18
_symmetry_space_group_name_H-M   'P 1'
_cell_length_a   13.26043584
_cell_length_b   13.26094371
_cell_length_c   18.81905721
_cell_angle_alpha   90.00000000
_cell_angle_beta   90.00000000
_cell_angle_gamma   94.29636325
_symmetry_Int_Tables_number   1
_chemical_formula_structural   ErH10C6S6N3O17F18
_chemical_formula_sum   'Er4 H40 C24 S24 N12 O68 F72'
_cell_volume   3299.95456058
_cell_formula_units_Z   4
loop_
 _symmetry_equiv_pos_site_id
 _symmetry_equiv_pos_as_xyz
  1  'x, y, z'
loop_
 _atom_site_type_symbol
 _atom_site_label
 _atom_site_symmetry_multiplicity
 _atom_site_fract_x
 _atom_site_fract_y
 _atom_site_fract_z
 _atom_site_occupancy
  Er  Er0  1  0.15149676  0.21395421  0.25409180  1
  Er  Er1  1  0.65149676  0.71395421  0.24590820  1
  Er  Er2  1  0.84850324  0.78604579  0.74590820  1
  Er  Er3  1  0.34850324  0.28604579  0.75409180  1
  H  H0  1  0.34562383  0.10759240  0.23509803  1
  H  H1  1  0.84562383  0.60759240  0.26490197  1
  H  H2  1  0.65437617  0.89240760  0.76490197  1
  H  H3  1  0.15437617  0.39240760  0.73509803  1
  H  H4  1  0.36010179  0.22096567  0.20580713  1
  H  H5  1  0.86010179  0.72096567  0.29419287  1
  H  H6  1  0.63989821  0.77903433  0.79419287  1
  H  H7  1  0.13989821  0.27903433  0.70580713  1
  H  H8  1  0.10714585  0.18886814  0.41116682  1
  H  H9  1  0.60714585  0.68886814  0.08883318  1
  H  H10  1  0.89285415  0.81113186  0.58883318  1
  H  H11  1  0.39285415  0.31113186  0.91116682  1
  H  H12  1  0.21554272  0.24545673  0.40311231  1
  H  H13  1  0.71554272  0.74545673  0.09688769  1
  H  H14  1  0.78445728  0.75454327  0.59688769  1
  H  H15  1  0.28445728  0.25454327  0.90311231  1
  H  H16  1  0.18236333  0.99083884  0.25318858  1
  H  H17  1  0.68236333  0.49083884  0.24681142  1
  H  H18  1  0.81763667  0.00916116  0.74681142  1
  H  H19  1  0.31763667  0.50916116  0.75318858  1
  H  H20  1  0.13016132  0.01272336  0.32755380  1
  H  H21  1  0.63016132  0.51272336  0.17244620  1
  H  H22  1  0.86983868  0.98727664  0.67244620  1
  H  H23  1  0.36983868  0.48727664  0.82755380  1
  H  H24  1  0.96513257  0.07704660  0.27667281  1
  H  H25  1  0.46513257  0.57704660  0.22332719  1
  H  H26  1  0.03486743  0.92295340  0.72332719  1
  H  H27  1  0.53486743  0.42295340  0.77667281  1
  H  H28  1  0.93586786  0.18587254  0.30198783  1
  H  H29  1  0.43586786  0.68587254  0.19801217  1
  H  H30  1  0.06413214  0.81412746  0.69801217  1
  H  H31  1  0.56413214  0.31412746  0.80198783  1
  H  H32  1  0.09451513  0.14695800  0.10715931  1
  H  H33  1  0.59451513  0.64695800  0.39284069  1
  H  H34  1  0.90548487  0.85304200  0.89284069  1
  H  H35  1  0.40548487  0.35304200  0.60715931  1
  H  H36  1  0.06962573  0.05088095  0.15403554  1
  H  H37  1  0.56962573  0.55088095  0.34596446  1
  H  H38  1  0.93037427  0.94911905  0.84596446  1
  H  H39  1  0.43037427  0.44911905  0.65403554  1
  C  C0  1  0.27787186  0.52705614  0.36345327  1
  C  C1  1  0.77787186  0.02705614  0.13654673  1
  C  C2  1  0.72212814  0.47294386  0.63654673  1
  C  C3  1  0.22212814  0.97294386  0.86345327  1
  C  C4  1  0.51877443  0.23675321  0.40421265  1
  C  C5  1  0.01877443  0.73675321  0.09578735  1
  C  C6  1  0.48122557  0.76324679  0.59578735  1
  C  C7  1  0.98122557  0.26324679  0.90421265  1
  C  C8  1  0.25898947  0.48390258  0.09083145  1
  C  C9  1  0.75898947  0.98390258  0.40916855  1
  C  C10  1  0.74101053  0.51609742  0.90916855  1
  C  C11  1  0.24101053  0.01609742  0.59083145  1
  C  C12  1  0.56117781  0.25328765  0.11552432  1
  C  C13  1  0.06117781  0.75328765  0.38447568  1
  C  C14  1  0.43882219  0.74671235  0.88447568  1
  C  C15  1  0.93882219  0.24671235  0.61552432  1
  C  C16  1  0.91499497  0.38378993  0.14520369  1
  C  C17  1  0.41499497  0.88378993  0.35479631  1
  C  C18  1  0.08500503  0.61621007  0.85479631  1
  C  C19  1  0.58500503  0.11621007  0.64520369  1
  C  C20  1  0.85498492  0.42893976  0.41780624  1
  C  C21  1  0.35498492  0.92893976  0.08219376  1
  C  C22  1  0.14501508  0.57106024  0.58219376  1
  C  C23  1  0.64501508  0.07106024  0.91780624  1
  S  S0  1  0.33822105  0.41359779  0.32906491  1
  S  S1  1  0.83822105  0.91359779  0.17093509  1
  S  S2  1  0.66177895  0.58640221  0.67093509  1
  S  S3  1  0.16177895  0.08640221  0.82906491  1
  S  S4  1  0.46173218  0.35119975  0.44082932  1
  S  S5  1  0.96173218  0.85119975  0.05917068  1
  S  S6  1  0.53826782  0.64880025  0.55917068  1
  S  S7  1  0.03826782  0.14880025  0.94082932  1
  S  S8  1  0.27581538  0.34463157  0.09264335  1
  S  S9  1  0.77581538  0.84463157  0.40735665  1
  S  S10  1  0.72418462  0.65536843  0.90735665  1
  S  S11  1  0.22418462  0.15536843  0.59264335  1
  S  S12  1  0.48811712  0.35562862  0.07759668  1
  S  S13  1  0.98811712  0.85562862  0.42240332  1
  S  S14  1  0.51188288  0.64437138  0.92240332  1
  S  S15  1  0.01188288  0.14437138  0.57759668  1
  S  S16  1  0.98282958  0.42790664  0.22831187  1
  S  S17  1  0.48282958  0.92790664  0.27168813  1
  S  S18  1  0.01717042  0.57209336  0.77168813  1
  S  S19  1  0.51717042  0.07209336  0.72831187  1
  S  S20  1  0.82172031  0.38224118  0.32631386  1
  S  S21  1  0.32172031  0.88224118  0.17368614  1
  S  S22  1  0.17827969  0.61775882  0.67368614  1
  S  S23  1  0.67827969  0.11775882  0.82631386  1
  N  N0  1  0.35633092  0.34811361  0.39712707  1
  N  N1  1  0.85633092  0.84811361  0.10287293  1
  N  N2  1  0.64366908  0.65188639  0.60287293  1
  N  N3  1  0.14366908  0.15188639  0.89712707  1
  N  N4  1  0.38579545  0.33446337  0.12351998  1
  N  N5  1  0.88579545  0.83446337  0.37648002  1
  N  N6  1  0.61420455  0.66553663  0.87648002  1
  N  N7  1  0.11420455  0.16553663  0.62351998  1
  N  N8  1  0.89392455  0.45736978  0.27877274  1
  N  N9  1  0.39392455  0.95736978  0.22122726  1
  N  N10  1  0.10607545  0.54263022  0.72122726  1
  N  N11  1  0.60607545  0.04263022  0.77877274  1
  O  O0  1  0.31686506  0.17381694  0.23476444  1
  O  O1  1  0.81686506  0.67381694  0.26523556  1
  O  O2  1  0.68313494  0.82618306  0.76523556  1
  O  O3  1  0.18313494  0.32618306  0.73476444  1
  O  O4  1  0.15582017  0.21866282  0.37646285  1
  O  O5  1  0.65582017  0.71866282  0.12353715  1
  O  O6  1  0.84417983  0.78133718  0.62353715  1
  O  O7  1  0.34417983  0.28133718  0.87646285  1
  O  O8  1  0.16508079  0.04472195  0.28635842  1
  O  O9  1  0.66508079  0.54472195  0.21364158  1
  O  O10  1  0.83491921  0.95527805  0.71364158  1
  O  O11  1  0.33491921  0.45527805  0.78635842  1
  O  O12  1  0.99253178  0.14400941  0.29220687  1
  O  O13  1  0.49253178  0.64400941  0.20779313  1
  O  O14  1  0.00746822  0.85599059  0.70779313  1
  O  O15  1  0.50746822  0.35599059  0.79220687  1
  O  O16  1  0.09780165  0.12123604  0.15614981  1
  O  O17  1  0.59780165  0.62123604  0.34385019  1
  O  O18  1  0.90219835  0.87876396  0.84385019  1
  O  O19  1  0.40219835  0.37876396  0.65614981  1
  O  O20  1  0.25682413  0.36071175  0.28806100  1
  O  O21  1  0.75682413  0.86071175  0.21193900  1
  O  O22  1  0.74317587  0.63928825  0.71193900  1
  O  O23  1  0.24317587  0.13928825  0.78806100  1
  O  O24  1  0.42528867  0.45532750  0.28953816  1
  O  O25  1  0.92528867  0.95532750  0.21046184  1
  O  O26  1  0.57471133  0.54467250  0.71046184  1
  O  O27  1  0.07471133  0.04467250  0.78953816  1
  O  O28  1  0.43881668  0.32607330  0.51388117  1
  O  O29  1  0.93881668  0.82607330  0.98611883  1
  O  O30  1  0.56118332  0.67392670  0.48611883  1
  O  O31  1  0.06118332  0.17392670  0.01388117  1
  O  O32  1  0.53311621  0.43541956  0.42448184  1
  O  O33  1  0.03311621  0.93541956  0.07551816  1
  O  O34  1  0.46688379  0.56458044  0.57551816  1
  O  O35  1  0.96688379  0.06458044  0.92448184  1
  O  O36  1  0.20450601  0.30471133  0.14689201  1
  O  O37  1  0.70450601  0.80471133  0.35310799  1
  O  O38  1  0.79549399  0.69528867  0.85310799  1
  O  O39  1  0.29549399  0.19528867  0.64689201  1
  O  O40  1  0.25746537  0.31311007  0.02031252  1
  O  O41  1  0.75746537  0.81311007  0.47968748  1
  O  O42  1  0.74253463  0.68688993  0.97968748  1
  O  O43  1  0.24253463  0.18688993  0.52031252  1
  O  O44  1  0.47887842  0.33502978  0.00227715  1
  O  O45  1  0.97887842  0.83502978  0.49772285  1
  O  O46  1  0.52112158  0.66497022  0.99772285  1
  O  O47  1  0.02112158  0.16497022  0.50227715  1
  O  O48  1  0.54496819  0.44755101  0.10003015  1
  O  O49  1  0.04496819  0.94755101  0.39996985  1
  O  O50  1  0.45503181  0.55244899  0.89996985  1
  O  O51  1  0.95503181  0.05244899  0.60003015  1
  O  O52  1  0.03354431  0.33830736  0.25049639  1
  O  O53  1  0.53354431  0.83830736  0.24950361  1
  O  O54  1  0.96645569  0.66169264  0.74950361  1
  O  O55  1  0.46645569  0.16169264  0.75049639  1
  O  O56  1  0.04452314  0.51741161  0.21022572  1
  O  O57  1  0.54452314  0.01741161  0.28977428  1
  O  O58  1  0.95547686  0.48258839  0.78977428  1
  O  O59  1  0.45547686  0.98258839  0.71022572  1
  O  O60  1  0.84342264  0.27681213  0.32640118  1
  O  O61  1  0.34342264  0.77681213  0.17359882  1
  O  O62  1  0.15657736  0.72318787  0.67359882  1
  O  O63  1  0.65657736  0.22318787  0.82640118  1
  O  O64  1  0.71829628  0.40697513  0.31572176  1
  O  O65  1  0.21829628  0.90697513  0.18427824  1
  O  O66  1  0.28170372  0.59302487  0.68427824  1
  O  O67  1  0.78170372  0.09302487  0.81572176  1
  F  F0  1  0.26090016  0.58843371  0.30815447  1
  F  F1  1  0.76090016  0.08843371  0.19184553  1
  F  F2  1  0.73909984  0.41156629  0.69184553  1
  F  F3  1  0.23909984  0.91156629  0.80815447  1
  F  F4  1  0.18944391  0.49992638  0.39605968  1
  F  F5  1  0.68944391  0.99992638  0.10394032  1
  F  F6  1  0.81055609  0.50007362  0.60394032  1
  F  F7  1  0.31055609  0.00007362  0.89605968  1
  F  F8  1  0.34111903  0.57659154  0.40997209  1
  F  F9  1  0.84111903  0.07659154  0.09002791  1
  F  F10  1  0.65888097  0.42340846  0.59002791  1
  F  F11  1  0.15888097  0.92340846  0.90997209  1
  F  F12  1  0.45868627  0.15290078  0.41894423  1
  F  F13  1  0.95868627  0.65290078  0.08105577  1
  F  F14  1  0.54131373  0.84709922  0.58105577  1
  F  F15  1  0.04131373  0.34709922  0.91894423  1
  F  F16  1  0.61014160  0.22968161  0.43468597  1
  F  F17  1  0.11014160  0.72968161  0.06531403  1
  F  F18  1  0.38985840  0.77031839  0.56531403  1
  F  F19  1  0.88985840  0.27031839  0.93468597  1
  F  F20  1  0.53030683  0.24530205  0.33324849  1
  F  F21  1  0.03030683  0.74530205  0.16675151  1
  F  F22  1  0.46969317  0.75469795  0.66675151  1
  F  F23  1  0.96969317  0.25469795  0.83324849  1
  F  F24  1  0.26974034  0.52454690  0.15626513  1
  F  F25  1  0.76974034  0.02454690  0.34373487  1
  F  F26  1  0.73025966  0.47545310  0.84373487  1
  F  F27  1  0.23025966  0.97545310  0.65626513  1
  F  F28  1  0.32999930  0.52879638  0.04741057  1
  F  F29  1  0.82999930  0.02879638  0.45258943  1
  F  F30  1  0.67000070  0.47120362  0.95258943  1
  F  F31  1  0.17000070  0.97120362  0.54741057  1
  F  F32  1  0.16659167  0.49906642  0.06522724  1
  F  F33  1  0.66659167  0.99906642  0.43477276  1
  F  F34  1  0.83340833  0.50093358  0.93477276  1
  F  F35  1  0.33340833  0.00093358  0.56522724  1
  F  F36  1  0.51441803  0.16093537  0.10337064  1
  F  F37  1  0.01441803  0.66093537  0.39662936  1
  F  F38  1  0.48558197  0.83906463  0.89662936  1
  F  F39  1  0.98558197  0.33906463  0.60337064  1
  F  F40  1  0.57271410  0.26640243  0.18635536  1
  F  F41  1  0.07271410  0.76640243  0.31364464  1
  F  F42  1  0.42728590  0.73359757  0.81364464  1
  F  F43  1  0.92728590  0.23359757  0.68635536  1
  F  F44  1  0.65293836  0.25928513  0.08425202  1
  F  F45  1  0.15293836  0.75928513  0.41574798  1
  F  F46  1  0.34706164  0.74071487  0.91574798  1
  F  F47  1  0.84706164  0.24071487  0.58425202  1
  F  F48  1  0.85264923  0.30055189  0.15877341  1
  F  F49  1  0.35264923  0.80055189  0.34122659  1
  F  F50  1  0.14735077  0.69944811  0.84122659  1
  F  F51  1  0.64735077  0.19944811  0.65877341  1
  F  F52  1  0.85965598  0.45744671  0.12057758  1
  F  F53  1  0.35965598  0.95744671  0.37942242  1
  F  F54  1  0.14034402  0.54255329  0.87942242  1
  F  F55  1  0.64034402  0.04255329  0.62057758  1
  F  F56  1  0.98366369  0.36104337  0.09630423  1
  F  F57  1  0.48366369  0.86104337  0.40369577  1
  F  F58  1  0.01633631  0.63895663  0.90369577  1
  F  F59  1  0.51633631  0.13895663  0.59630423  1
  F  F60  1  0.95449823  0.42194475  0.43029238  1
  F  F61  1  0.45449823  0.92194475  0.06970762  1
  F  F62  1  0.04550177  0.57805525  0.56970762  1
  F  F63  1  0.54550177  0.07805525  0.93029238  1
  F  F64  1  0.80055310  0.37103833  0.46478068  1
  F  F65  1  0.30055310  0.87103833  0.03521932  1
  F  F66  1  0.19944690  0.62896167  0.53521932  1
  F  F67  1  0.69944690  0.12896167  0.96478068  1
  F  F68  1  0.83299264  0.52617164  0.42494370  1
  F  F69  1  0.33299264  0.02617164  0.07505630  1
  F  F70  1  0.16700736  0.47382836  0.57505630  1
  F  F71  1  0.66700736  0.97382836  0.92494370  1
loop_
_geom_bond_atom_site_label_1
_geom_bond_atom_site_label_2
_geom_bond_distance
_geom_bond_site_symmetry_2
Er0 O16 2.298879 1_555
Er0 O4 2.304351 1_555
Er0 O0 2.323593 1_555
Er0 O8 2.344799 1_555
Er0 O12 2.350597 1_455
Er0 O52 2.357282 1_555
Er0 O20 2.395748 1_555
Er0 O36 2.426050 1_555
Er1 O17 2.298879 1_555
Er1 O5 2.304351 1_555
Er1 O1 2.323593 1_555
Er1 O9 2.344799 1_555
Er1 O13 2.350597 1_555
Er1 O53 2.357282 1_555
Er1 O21 2.395748 1_555
Er1 O37 2.426050 1_555
Er2 O18 2.298879 1_555
Er2 O6 2.304351 1_555
Er2 O2 2.323593 1_555
Er2 O10 2.344799 1_555
Er2 O14 2.350597 1_655
Er2 O54 2.357282 1_555
Er2 O22 2.395748 1_555
Er2 O38 2.426050 1_555
Er3 O19 2.298879 1_555
Er3 O7 2.304351 1_555
Er3 O3 2.323593 1_555
Er3 O11 2.344799 1_555
Er3 O15 2.350597 1_555
Er3 O55 2.357282 1_555
Er3 O23 2.395748 1_555
Er3 O39 2.426050 1_555
H0 O0 0.983303 1_555
H1 O1 0.983303 1_555
H2 O2 0.983303 1_555
H3 O3 0.983303 1_555
H4 O0 0.981273 1_555
H5 O1 0.981273 1_555
H6 O2 0.981273 1_555
H7 O3 0.981273 1_555
H8 O4 0.980321 1_555
H9 O5 0.980321 1_555
H10 O6 0.980321 1_555
H11 O7 0.980321 1_555
H12 O4 0.981217 1_555
H13 O5 0.981217 1_555
H14 O6 0.981217 1_555
H15 O7 0.981217 1_555
H16 O8 0.988576 1_565
H17 O9 0.988576 1_555
H18 O10 0.988576 1_545
H19 O11 0.988576 1_555
H20 O8 0.982881 1_555
H21 O9 0.982881 1_555
H22 O10 0.982881 1_555
H23 O11 0.982881 1_555
H24 O12 0.978597 1_555
H25 O13 0.978597 1_555
H26 O14 0.978597 1_555
H27 O15 0.978597 1_555
H28 O12 0.984454 1_555
H29 O13 0.984454 1_555
H30 O14 0.984454 1_555
H31 O15 0.984454 1_555
H32 O16 0.985127 1_555
H33 O17 0.985127 1_555
H34 O18 0.985127 1_555
H35 O19 0.985127 1_555
H36 O16 0.979486 1_555
H37 O17 0.979486 1_555
H38 O18 0.979486 1_555
H39 O19 0.979486 1_555
C0 F4 1.348232 1_555
C0 F8 1.348608 1_555
C0 F0 1.350394 1_555
C0 S0 1.871721 1_555
C1 F5 1.348232 1_545
C1 F9 1.348608 1_555
C1 F1 1.350394 1_555
C1 S1 1.871721 1_545
C2 F6 1.348232 1_555
C2 F10 1.348608 1_555
C2 F2 1.350394 1_555
C2 S2 1.871721 1_555
C3 F7 1.348232 1_565
C3 F11 1.348608 1_555
C3 F3 1.350394 1_555
C3 S3 1.871721 1_565
C4 F12 1.347387 1_555
C4 F20 1.348015 1_555
C4 F16 1.350035 1_555
C4 S4 1.876784 1_555
C5 F13 1.347387 1_455
C5 F21 1.348015 1_555
C5 F17 1.350035 1_555
C5 S5 1.876784 1_455
C6 F14 1.347387 1_555
C6 F22 1.348015 1_555
C6 F18 1.350035 1_555
C6 S6 1.876784 1_555
C7 F15 1.347387 1_655
C7 F23 1.348015 1_555
C7 F19 1.350035 1_555
C7 S7 1.876784 1_655
C8 F32 1.345633 1_555
C8 F24 1.347464 1_555
C8 F28 1.350851 1_555
C8 S8 1.877124 1_555
C9 F33 1.345633 1_555
C9 F25 1.347464 1_565
C9 F29 1.350851 1_565
C9 S9 1.877124 1_555
C10 F34 1.345633 1_555
C10 F26 1.347464 1_555
C10 F30 1.350851 1_555
C10 S10 1.877124 1_555
C11 F35 1.345633 1_555
C11 F27 1.347464 1_545
C11 F31 1.350851 1_545
C11 S11 1.877124 1_555
C12 F44 1.348607 1_555
C12 F36 1.350127 1_555
C12 F40 1.351473 1_555
C12 S12 1.867320 1_555
C13 F45 1.348607 1_555
C13 F37 1.350127 1_555
C13 F41 1.351473 1_555
C13 S13 1.867320 1_455
C14 F46 1.348607 1_555
C14 F38 1.350127 1_555
C14 F42 1.351473 1_555
C14 S14 1.867320 1_555
C15 F47 1.348607 1_555
C15 F39 1.350127 1_555
C15 F43 1.351473 1_555
C15 S15 1.867320 1_655
C16 F56 1.344670 1_555
C16 F52 1.347115 1_555
C16 F48 1.352914 1_555
C16 S16 1.875818 1_555
C17 F57 1.344670 1_555
C17 F53 1.347115 1_555
C17 F49 1.352914 1_555
C17 S17 1.875818 1_555
C18 F58 1.344670 1_555
C18 F54 1.347115 1_555
C18 F50 1.352914 1_555
C18 S18 1.875818 1_555
C19 F59 1.344670 1_555
C19 F55 1.347115 1_555
C19 F51 1.352914 1_555
C19 S19 1.875818 1_555
C20 F64 1.344985 1_555
C20 F68 1.349795 1_555
C20 F60 1.350362 1_555
C20 S20 1.871292 1_555
C21 F65 1.344985 1_555
C21 F69 1.349795 1_565
C21 F61 1.350362 1_555
C21 S21 1.871292 1_555
C22 F66 1.344985 1_555
C22 F70 1.349795 1_555
C22 F62 1.350362 1_555
C22 S22 1.871292 1_555
C23 F67 1.344985 1_555
C23 F71 1.349795 1_545
C23 F63 1.350362 1_555
C23 S23 1.871292 1_555
N0 S0 1.575950 1_555
N0 S4 1.619560 1_555
N1 S1 1.575950 1_555
N1 S5 1.619560 1_555
N2 S2 1.575950 1_555
N2 S6 1.619560 1_555
N3 S3 1.575950 1_555
N3 S7 1.619560 1_555
N4 S8 1.584983 1_555
N4 S12 1.615427 1_555
N5 S9 1.584983 1_555
N5 S13 1.615427 1_555
N6 S10 1.584983 1_555
N6 S14 1.615427 1_555
N7 S11 1.584983 1_555
N7 S15 1.615427 1_555
N8 S16 1.585342 1_555
N8 S20 1.602131 1_555
N9 S17 1.585342 1_555
N9 S21 1.602131 1_555
N10 S18 1.585342 1_555
N10 S22 1.602131 1_555
N11 S19 1.585342 1_555
N11 S23 1.602131 1_555
O20 S0 1.462497 1_555
O21 S1 1.462497 1_555
O22 S2 1.462497 1_555
O23 S3 1.462497 1_555
O24 S0 1.448038 1_555
O25 S1 1.448038 1_555
O26 S2 1.448038 1_555
O27 S3 1.448038 1_555
O28 S4 1.441587 1_555
O29 S5 1.441587 1_556
O30 S6 1.441587 1_555
O31 S7 1.441587 1_554
O32 S4 1.442077 1_555
O33 S5 1.442077 1_455
O34 S6 1.442077 1_555
O35 S7 1.442077 1_655
O36 S8 1.463435 1_555
O37 S9 1.463435 1_555
O38 S10 1.463435 1_555
O39 S11 1.463435 1_555
O40 S8 1.439291 1_555
O41 S9 1.439291 1_555
O42 S10 1.439291 1_555
O43 S11 1.439291 1_555
O44 S12 1.446981 1_555
O45 S13 1.446981 1_555
O46 S14 1.446981 1_555
O47 S15 1.446981 1_555
O48 S12 1.447333 1_555
O49 S13 1.447333 1_455
O50 S14 1.447333 1_555
O51 S15 1.447333 1_655
O52 S16 1.469022 1_455
O53 S17 1.469022 1_555
O54 S18 1.469022 1_655
O55 S19 1.469022 1_555
O56 S16 1.431224 1_455
O57 S17 1.431224 1_545
O58 S18 1.431224 1_655
O59 S19 1.431224 1_565
O60 S20 1.448364 1_555
O61 S21 1.448364 1_555
O62 S22 1.448364 1_555
O63 S23 1.448364 1_555
O64 S20 1.447612 1_555
O65 S21 1.447612 1_555
O66 S22 1.447612 1_555
O67 S23 1.447612 1_555
