# generated using pymatgen
data_Tl2Mo3SeO12
_symmetry_space_group_name_H-M   'P 1'
_cell_length_a   7.37871110
_cell_length_b   7.37871110
_cell_length_c   12.18883600
_cell_angle_alpha   90.00000000
_cell_angle_beta   90.00000000
_cell_angle_gamma   119.99999193
_symmetry_Int_Tables_number   1
_chemical_formula_structural   Tl2Mo3SeO12
_chemical_formula_sum   'Tl4 Mo6 Se2 O24'
_cell_volume   574.71682846
_cell_formula_units_Z   2
loop_
 _symmetry_equiv_pos_site_id
 _symmetry_equiv_pos_as_xyz
  1  'x, y, z'
loop_
 _atom_site_type_symbol
 _atom_site_label
 _atom_site_symmetry_multiplicity
 _atom_site_fract_x
 _atom_site_fract_y
 _atom_site_fract_z
 _atom_site_occupancy
  Tl  Tl0  1  0.33333300  0.66666700  0.15832000  1
  Tl  Tl1  1  0.66666700  0.33333300  0.65832000  1
  Tl  Tl2  1  0.66666700  0.33333300  0.26673600  1
  Tl  Tl3  1  0.33333300  0.66666700  0.76673600  1
  Mo  Mo0  1  0.33948300  0.14019900  0.93398800  1
  Mo  Mo1  1  0.80071500  0.66051700  0.93398800  1
  Mo  Mo2  1  0.85980100  0.19928500  0.93398800  1
  Mo  Mo3  1  0.19928500  0.85980100  0.43398800  1
  Mo  Mo4  1  0.14019900  0.33948300  0.43398800  1
  Mo  Mo5  1  0.66051700  0.80071500  0.43398800  1
  Se  Se0  1  0.00000000  0.00000000  0.20111700  1
  Se  Se1  1  0.00000000  0.00000000  0.70111700  1
  O  O0  1  0.40833100  0.20148500  0.07134800  1
  O  O1  1  0.79315300  0.59166900  0.07134800  1
  O  O2  1  0.79851500  0.20684700  0.07134800  1
  O  O3  1  0.20684700  0.79851500  0.57134800  1
  O  O4  1  0.20148500  0.40833100  0.57134800  1
  O  O5  1  0.59166900  0.79315300  0.57134800  1
  O  O6  1  0.24733400  0.12647900  0.76144500  1
  O  O7  1  0.87914500  0.75266600  0.76144500  1
  O  O8  1  0.87352100  0.12085500  0.76144500  1
  O  O9  1  0.12085500  0.87352100  0.26144500  1
  O  O10  1  0.12647900  0.24733400  0.26144500  1
  O  O11  1  0.75266600  0.87914500  0.26144500  1
  O  O12  1  0.54739600  0.08674500  0.88531800  1
  O  O13  1  0.53934800  0.45260400  0.88531800  1
  O  O14  1  0.91325500  0.46065200  0.88531800  1
  O  O15  1  0.46065200  0.91325500  0.38531800  1
  O  O16  1  0.08674500  0.54739600  0.38531800  1
  O  O17  1  0.45260400  0.53934800  0.38531800  1
  O  O18  1  0.12154400  0.87091800  0.94767400  1
  O  O19  1  0.74937400  0.87845600  0.94767400  1
  O  O20  1  0.12908200  0.25062600  0.94767400  1
  O  O21  1  0.25062600  0.12908200  0.44767400  1
  O  O22  1  0.87091800  0.12154400  0.44767400  1
  O  O23  1  0.87845600  0.74937400  0.44767400  1
loop_
_geom_bond_atom_site_label_1
_geom_bond_atom_site_label_2
_geom_bond_distance
_geom_bond_site_symmetry_2
Mo0 O0 1.742407 1_556
Mo0 O18 1.834822 1_545
Mo0 O12 1.861757 1_555
Mo0 O20 2.089723 1_555
Mo0 O13 2.107366 1_555
Mo0 O6 2.196988 1_555
Mo1 O1 1.742407 1_556
Mo1 O19 1.834817 1_555
Mo1 O13 1.861757 1_555
Mo1 O18 2.089729 1_655
Mo1 O14 2.107366 1_555
Mo1 O7 2.196989 1_555
Mo2 O2 1.742407 1_556
Mo2 O20 1.834825 1_655
Mo2 O14 1.861757 1_555
Mo2 O19 2.089730 1_545
Mo2 O12 2.107366 1_555
Mo2 O8 2.196990 1_555
Mo3 O3 1.742407 1_555
Mo3 O21 1.834825 1_565
Mo3 O15 1.861757 1_555
Mo3 O23 2.089730 1_455
Mo3 O16 2.107366 1_555
Mo3 O9 2.196990 1_555
Mo4 O4 1.742407 1_555
Mo4 O22 1.834822 1_455
Mo4 O16 1.861757 1_555
Mo4 O21 2.089723 1_555
Mo4 O17 2.107366 1_555
Mo4 O10 2.196988 1_555
Mo5 O5 1.742407 1_555
Mo5 O23 1.834817 1_555
Mo5 O17 1.861757 1_555
Mo5 O22 2.089729 1_565
Mo5 O15 2.107366 1_555
Mo5 O11 2.196989 1_555
O6 Se1 1.743308 1_555
O7 Se1 1.743308 1_665
O8 Se1 1.743308 1_655
O9 Se0 1.743308 1_565
O10 Se0 1.743308 1_555
O11 Se0 1.743308 1_665
