# generated using pymatgen
data_Er3Pt4
_symmetry_space_group_name_H-M   'P 1'
_cell_length_a   5.66989583
_cell_length_b   7.75396665
_cell_length_c   7.75772022
_cell_angle_alpha   114.32690873
_cell_angle_beta   104.12903271
_cell_angle_gamma   104.10891468
_symmetry_Int_Tables_number   1
_chemical_formula_structural   Er3Pt4
_chemical_formula_sum   'Er6 Pt8'
_cell_volume   277.55573699
_cell_formula_units_Z   2
loop_
 _symmetry_equiv_pos_site_id
 _symmetry_equiv_pos_as_xyz
  1  'x, y, z'
loop_
 _atom_site_type_symbol
 _atom_site_label
 _atom_site_symmetry_multiplicity
 _atom_site_fract_x
 _atom_site_fract_y
 _atom_site_fract_z
 _atom_site_occupancy
  Er  Er0  1  0.40539679  0.12593395  0.37781735  1
  Er  Er1  1  0.02739385  0.62203119  0.74831173  1
  Er  Er2  1  0.27908984  0.25171090  0.87386016  1
  Er  Er3  1  0.59460321  0.87406705  0.62218265  1
  Er  Er4  1  0.97260615  0.37796881  0.25168827  1
  Er  Er5  1  0.72091016  0.74829010  0.12613984  1
  Pt  Pt0  1  0.00000000  -0.00000000  0.00000000  1
  Pt  Pt1  1  0.50000000  -0.00000000  0.00000000  1
  Pt  Pt2  1  0.22814503  0.67555908  0.16595486  1
  Pt  Pt3  1  0.06179034  0.83392956  0.50976949  1
  Pt  Pt4  1  0.55210992  0.49001197  0.32439616  1
  Pt  Pt5  1  0.77185497  0.32444092  0.83404514  1
  Pt  Pt6  1  0.93820966  0.16607044  0.49023051  1
  Pt  Pt7  1  0.44789108  0.50998803  0.67560384  1
loop_
_geom_bond_atom_site_label_1
_geom_bond_atom_site_label_2
_geom_bond_distance
_geom_bond_site_symmetry_2
Er0 Pt7 2.823742 1_555
Er0 Pt6 2.831181 1_555
Er0 Pt0 2.843631 1_555
Er0 Pt1 2.914943 1_555
Er0 Pt2 2.942863 1_545
Er0 Pt4 2.969956 1_555
Er0 Pt6 3.029874 1_455
Er0 Pt5 3.094376 1_555
Er0 Pt3 3.271478 1_545
Er0 Er3 3.411377 1_545
Er1 Pt5 2.823315 1_455
Er1 Pt7 2.831937 1_555
Er1 Pt0 2.842750 1_566
Er1 Pt1 2.912802 1_566
Er1 Pt3 2.947406 1_555
Er1 Pt2 2.970940 1_556
Er1 Pt7 3.027979 1_455
Er1 Pt6 3.092933 1_455
Er1 Pt4 3.267995 1_455
Er1 Er4 3.412196 1_455
Er2 Pt6 2.823375 1_455
Er2 Pt5 2.831276 1_555
Er2 Pt0 2.845128 1_556
Er2 Pt1 2.915953 1_556
Er2 Pt4 2.944439 1_556
Er2 Pt3 2.967606 1_545
Er2 Pt5 3.030707 1_455
Er2 Pt7 3.100658 1_555
Er2 Pt2 3.265885 1_556
Er2 Er5 3.409833 1_556
Er3 Pt4 2.823750 1_555
Er3 Pt3 2.831178 1_555
Er3 Pt0 2.843633 1_666
Er3 Pt1 2.914943 1_566
Er3 Pt5 2.942856 1_565
Er3 Pt7 2.969963 1_555
Er3 Pt3 3.029876 1_655
Er3 Pt2 3.094375 1_555
Er3 Pt6 3.271473 1_565
Er4 Pt2 2.823315 1_655
Er4 Pt4 2.831931 1_555
Er4 Pt0 2.842750 1_655
Er4 Pt1 2.912802 1_555
Er4 Pt6 2.947406 1_555
Er4 Pt5 2.970940 1_554
Er4 Pt4 3.027985 1_655
Er4 Pt3 3.092933 1_655
Er4 Pt7 3.267997 1_655
Er5 Pt3 2.823378 1_655
Er5 Pt2 2.831276 1_555
Er5 Pt0 2.845123 1_665
Er5 Pt1 2.915946 1_565
Er5 Pt7 2.944439 1_554
Er5 Pt6 2.967602 1_565
Er5 Pt2 3.030711 1_655
Er5 Pt4 3.100662 1_555
Er5 Pt5 3.265891 1_554
Pt0 Pt1 2.834948 1_455
Pt0 Pt1 2.834948 1_555
Pt2 Pt5 2.876391 1_454
Pt2 Pt4 2.932207 1_555
Pt2 Pt3 2.933615 1_555
Pt3 Pt6 2.880317 1_465
Pt3 Pt4 2.930025 1_455
Pt4 Pt7 2.877393 1_555
Pt5 Pt7 2.932204 1_555
Pt5 Pt6 2.933615 1_555
Pt6 Pt7 2.930028 1_655
