# generated using pymatgen
data_CaMg6Si
_symmetry_space_group_name_H-M   'P 1'
_cell_length_a   5.03355700
_cell_length_b   6.13867300
_cell_length_c   11.98134900
_cell_angle_alpha   90.00000000
_cell_angle_beta   90.00000000
_cell_angle_gamma   90.00000000
_symmetry_Int_Tables_number   1
_chemical_formula_structural   CaMg6Si
_chemical_formula_sum   'Ca2 Mg12 Si2'
_cell_volume   370.21602143
_cell_formula_units_Z   2
loop_
 _symmetry_equiv_pos_site_id
 _symmetry_equiv_pos_as_xyz
  1  'x, y, z'
loop_
 _atom_site_type_symbol
 _atom_site_label
 _atom_site_symmetry_multiplicity
 _atom_site_fract_x
 _atom_site_fract_y
 _atom_site_fract_z
 _atom_site_occupancy
  Ca  Ca0  1  0.50000000  0.00000000  0.17945200  1
  Ca  Ca1  1  0.50000000  0.50000000  0.67945200  1
  Mg  Mg0  1  0.50000000  0.24978400  0.42801000  1
  Mg  Mg1  1  0.50000000  0.75021600  0.42801000  1
  Mg  Mg2  1  0.00000000  0.74390100  0.07874400  1
  Mg  Mg3  1  0.00000000  0.25609900  0.07874400  1
  Mg  Mg4  1  0.00000000  0.00000000  0.34315000  1
  Mg  Mg5  1  0.00000000  0.50000000  0.31755300  1
  Mg  Mg6  1  0.50000000  0.74978400  0.92801000  1
  Mg  Mg7  1  0.50000000  0.25021600  0.92801000  1
  Mg  Mg8  1  0.00000000  0.24390100  0.57874400  1
  Mg  Mg9  1  0.00000000  0.75609900  0.57874400  1
  Mg  Mg10  1  0.00000000  0.50000000  0.84315000  1
  Mg  Mg11  1  0.00000000  0.00000000  0.81755300  1
  Si  Si0  1  0.50000000  0.50000000  0.14633300  1
  Si  Si1  1  0.50000000  0.00000000  0.64633300  1
loop_
_geom_bond_atom_site_label_1
_geom_bond_atom_site_label_2
_geom_bond_distance
_geom_bond_site_symmetry_2
Ca0 Si0 3.094880 1_555
Ca0 Si0 3.094880 1_545
Ca0 Mg4 3.190762 1_655
Ca0 Mg4 3.190762 1_555
Ca0 Mg3 3.203377 1_655
Ca0 Mg3 3.203377 1_555
Ca0 Mg2 3.203377 1_545
Ca0 Mg2 3.203377 1_645
Ca0 Mg0 3.349624 1_555
Ca0 Mg1 3.349624 1_545
Ca0 Mg6 3.381586 1_544
Ca0 Mg7 3.381586 1_554
Ca1 Si1 3.094880 1_565
Ca1 Si1 3.094880 1_555
Ca1 Mg10 3.190762 1_555
Ca1 Mg10 3.190762 1_655
Ca1 Mg9 3.203377 1_555
Ca1 Mg9 3.203377 1_655
Ca1 Mg8 3.203377 1_555
Ca1 Mg8 3.203377 1_655
Ca1 Mg6 3.349624 1_555
Ca1 Mg7 3.349624 1_555
Ca1 Mg1 3.381586 1_555
Ca1 Mg0 3.381586 1_555
Mg0 Si1 3.032090 1_555
Mg0 Mg1 3.066685 1_545
Mg0 Mg1 3.071988 1_555
Mg0 Mg8 3.097919 1_555
Mg0 Mg8 3.097919 1_655
Mg0 Mg4 3.117542 1_555
Mg0 Mg4 3.117542 1_655
Mg0 Mg5 3.231858 1_555
Mg0 Mg5 3.231858 1_655
Mg1 Si1 3.032090 1_565
Mg1 Mg9 3.097919 1_655
Mg1 Mg9 3.097919 1_555
Mg1 Mg4 3.117542 1_665
Mg1 Mg4 3.117542 1_565
Mg1 Mg5 3.231858 1_555
Mg1 Mg5 3.231858 1_655
Mg2 Si0 3.038364 1_555
Mg2 Si0 3.038364 1_455
Mg2 Mg6 3.097919 1_454
Mg2 Mg6 3.097919 1_554
Mg3 Si0 3.038364 1_555
Mg3 Si0 3.038364 1_455
Mg3 Mg7 3.097919 1_554
Mg3 Mg7 3.097919 1_454
Mg4 Mg5 3.084620 1_555
Mg4 Mg5 3.084620 1_545
Mg4 Mg8 3.195234 1_555
Mg4 Mg9 3.195234 1_545
Mg5 Si0 3.246938 1_455
Mg5 Si0 3.246938 1_555
Mg6 Si0 3.032090 1_556
Mg6 Mg7 3.066685 1_555
Mg6 Mg7 3.071988 1_565
Mg7 Si0 3.032090 1_556
Mg8 Si1 3.038364 1_455
Mg8 Si1 3.038364 1_555
Mg9 Si1 3.038364 1_465
Mg9 Si1 3.038364 1_565
Mg10 Mg11 3.084620 1_565
Mg10 Mg11 3.084620 1_555
Mg10 Mg6 3.117542 1_555
Mg10 Mg7 3.117542 1_455
Mg10 Mg7 3.117542 1_555
Mg10 Mg6 3.117542 1_455
Mg10 Mg2 3.195234 1_556
Mg10 Mg3 3.195234 1_556
Mg11 Mg7 3.231858 1_555
Mg11 Mg6 3.231858 1_445
Mg11 Mg6 3.231858 1_545
Mg11 Mg7 3.231858 1_455
Mg11 Si1 3.246938 1_455
Mg11 Si1 3.246938 1_555
