# generated using pymatgen
data_LiCr4(PO4)3
_symmetry_space_group_name_H-M   'P 1'
_cell_length_a   6.31577604
_cell_length_b   10.54395467
_cell_length_c   14.50998419
_cell_angle_alpha   90.00000000
_cell_angle_beta   90.00000000
_cell_angle_gamma   90.00000000
_symmetry_Int_Tables_number   1
_chemical_formula_structural   LiCr4(PO4)3
_chemical_formula_sum   'Li4 Cr16 P12 O48'
_cell_volume   966.26709566
_cell_formula_units_Z   4
loop_
 _symmetry_equiv_pos_site_id
 _symmetry_equiv_pos_as_xyz
  1  'x, y, z'
loop_
 _atom_site_type_symbol
 _atom_site_label
 _atom_site_symmetry_multiplicity
 _atom_site_fract_x
 _atom_site_fract_y
 _atom_site_fract_z
 _atom_site_occupancy
  Li  Li0  1  0.14483945  0.53082706  0.91600687  1
  Li  Li1  1  0.64483945  0.96917294  0.58399313  1
  Li  Li2  1  0.85516055  0.46917294  0.41600687  1
  Li  Li3  1  0.35516055  0.03082706  0.08399313  1
  Cr  Cr0  1  0.43423712  0.64776431  0.36951002  1
  Cr  Cr1  1  0.93423712  0.85223569  0.13048998  1
  Cr  Cr2  1  0.56576288  0.35223569  0.86951002  1
  Cr  Cr3  1  0.06576288  0.14776431  0.63048998  1
  Cr  Cr4  1  0.57707821  0.34204655  0.62814491  1
  Cr  Cr5  1  0.07707821  0.15795345  0.87185509  1
  Cr  Cr6  1  0.42292179  0.65795345  0.12814491  1
  Cr  Cr7  1  0.92292179  0.84204655  0.37185509  1
  Cr  Cr8  1  0.43225540  0.75420082  0.75036200  1
  Cr  Cr9  1  0.93225540  0.74579918  0.74963800  1
  Cr  Cr10  1  0.56774460  0.24579918  0.25036200  1
  Cr  Cr11  1  0.06774460  0.25420082  0.24963800  1
  Cr  Cr12  1  0.85858242  0.45972314  0.08318930  1
  Cr  Cr13  1  0.35858242  0.04027686  0.41681070  1
  Cr  Cr14  1  0.14141758  0.54027686  0.58318930  1
  Cr  Cr15  1  0.64141758  0.95972314  0.91681070  1
  P  P0  1  0.13713272  0.87350095  0.92545825  1
  P  P1  1  0.63713272  0.62649905  0.57454175  1
  P  P2  1  0.86286728  0.12649905  0.42545825  1
  P  P3  1  0.36286728  0.37350095  0.07454175  1
  P  P4  1  0.86325537  0.12671365  0.07367453  1
  P  P5  1  0.36325537  0.37328635  0.42632547  1
  P  P6  1  0.13674463  0.87328635  0.57367453  1
  P  P7  1  0.63674463  0.62671365  0.92632547  1
  P  P8  1  0.49567052  0.09584430  0.75202957  1
  P  P9  1  0.99567052  0.40415570  0.74797043  1
  P  P10  1  0.50432948  0.90415570  0.25202957  1
  P  P11  1  0.00432948  0.59584430  0.24797043  1
  O  O0  1  0.05957226  0.54503474  0.73539129  1
  O  O1  1  0.55957226  0.95496526  0.76460871  1
  O  O2  1  0.94042774  0.45496526  0.23539129  1
  O  O3  1  0.44042774  0.04503474  0.26460871  1
  O  O4  1  0.32901298  0.95795463  0.94746604  1
  O  O5  1  0.82901298  0.54204537  0.55253396  1
  O  O6  1  0.67098702  0.04204537  0.44746604  1
  O  O7  1  0.17098702  0.45795463  0.05253396  1
  O  O8  1  0.66710707  0.04424618  0.05074186  1
  O  O9  1  0.16710707  0.45575382  0.44925814  1
  O  O10  1  0.33289293  0.95575382  0.55074186  1
  O  O11  1  0.83289293  0.54424618  0.94925814  1
  O  O12  1  0.46026644  0.53703837  0.88926158  1
  O  O13  1  0.96026644  0.96296163  0.61073842  1
  O  O14  1  0.53973356  0.46296163  0.38926158  1
  O  O15  1  0.03973356  0.03703837  0.11073842  1
  O  O16  1  0.53783156  0.46903886  0.10996098  1
  O  O17  1  0.03783156  0.03096114  0.39003902  1
  O  O18  1  0.46216844  0.53096114  0.60996098  1
  O  O19  1  0.96216844  0.96903886  0.89003902  1
  O  O20  1  0.06117611  0.79212039  0.49210752  1
  O  O21  1  0.56117611  0.70787961  0.00789248  1
  O  O22  1  0.93882389  0.20787961  0.99210752  1
  O  O23  1  0.43882389  0.29212039  0.50789248  1
  O  O24  1  0.93977567  0.20382510  0.50799074  1
  O  O25  1  0.43977567  0.29617490  0.99200926  1
  O  O26  1  0.06022433  0.79617490  0.00799074  1
  O  O27  1  0.56022433  0.70382510  0.49200926  1
  O  O28  1  0.18115333  0.77836864  0.84390823  1
  O  O29  1  0.68115333  0.72163136  0.65609177  1
  O  O30  1  0.81884667  0.22163136  0.34390823  1
  O  O31  1  0.31884667  0.27836864  0.15609177  1
  O  O32  1  0.81335461  0.22498265  0.15405839  1
  O  O33  1  0.31335461  0.27501735  0.34594161  1
  O  O34  1  0.18664539  0.77501735  0.65405839  1
  O  O35  1  0.68664539  0.72498265  0.84594161  1
  O  O36  1  0.41537147  0.83548200  0.33828798  1
  O  O37  1  0.91537147  0.66451800  0.16171202  1
  O  O38  1  0.58462853  0.16451800  0.83828798  1
  O  O39  1  0.08462853  0.33548200  0.66171202  1
  O  O40  1  0.58923425  0.14903973  0.66141218  1
  O  O41  1  0.08923425  0.35096027  0.83858782  1
  O  O42  1  0.41076575  0.85096027  0.16141218  1
  O  O43  1  0.91076575  0.64903973  0.33858782  1
  O  O44  1  0.24559819  0.11041585  0.75065960  1
  O  O45  1  0.74559819  0.38958415  0.74934040  1
  O  O46  1  0.75440181  0.88958415  0.25065960  1
  O  O47  1  0.25440181  0.61041585  0.24934040  1
loop_
_geom_bond_atom_site_label_1
_geom_bond_atom_site_label_2
_geom_bond_distance
_geom_bond_site_symmetry_2
Li0 O12 2.030669 1_555
Li0 O11 2.033329 1_455
Li0 O7 2.131206 1_556
Li0 O41 2.232037 1_555
Li1 O13 2.030669 1_555
Li1 O10 2.033329 1_555
Li1 O6 2.131206 1_565
Li1 O40 2.232037 1_565
Li2 O14 2.030669 1_555
Li2 O9 2.033329 1_655
Li2 O5 2.131206 1_555
Li2 O43 2.232037 1_555
Li3 O15 2.030669 1_555
Li3 O8 2.033329 1_555
Li3 O4 2.131206 1_544
Li3 O42 2.232037 1_545
Cr0 O36 2.033964 1_555
Cr0 O27 2.035171 1_555
Cr0 O14 2.079166 1_555
Cr0 O47 2.117892 1_555
Cr1 O37 2.033964 1_555
Cr1 O26 2.035171 1_655
Cr1 O15 2.079166 1_665
Cr1 O46 2.117892 1_555
Cr2 O38 2.033964 1_555
Cr2 O25 2.035171 1_555
Cr2 O12 2.079166 1_555
Cr2 O45 2.117892 1_555
Cr3 O39 2.033964 1_555
Cr3 O24 2.035171 1_455
Cr3 O13 2.079166 1_445
Cr3 O44 2.117892 1_555
Cr4 O23 2.020917 1_555
Cr4 O40 2.092929 1_555
Cr4 O45 2.115780 1_555
Cr4 O18 2.136355 1_555
Cr5 O22 2.020917 1_455
Cr5 O41 2.092929 1_555
Cr5 O44 2.115780 1_555
Cr5 O19 2.136355 1_445
Cr6 O21 2.020917 1_555
Cr6 O42 2.092929 1_555
Cr6 O47 2.115780 1_555
Cr6 O16 2.136355 1_555
Cr7 O20 2.020917 1_655
Cr7 O43 2.092929 1_555
Cr7 O46 2.115780 1_555
Cr7 O17 2.136355 1_665
Cr8 O34 2.099304 1_555
Cr8 O28 2.102960 1_555
Cr8 O29 2.111896 1_555
Cr8 O35 2.144686 1_555
Cr8 O1 2.273846 1_555
Cr9 O35 2.099304 1_555
Cr9 O29 2.102960 1_555
Cr9 O28 2.111896 1_655
Cr9 O34 2.144686 1_655
Cr9 O0 2.273846 1_655
Cr10 O32 2.099304 1_555
Cr10 O30 2.102960 1_555
Cr10 O31 2.111896 1_555
Cr10 O33 2.144686 1_555
Cr10 O3 2.273846 1_555
Cr11 O33 2.099304 1_555
Cr11 O31 2.102960 1_555
Cr11 O30 2.111896 1_455
Cr11 O32 2.144686 1_455
Cr11 O2 2.273846 1_455
Cr12 O7 2.022681 1_655
Cr12 O16 2.065036 1_555
Cr12 O11 2.144095 1_554
Cr12 O2 2.268692 1_555
Cr12 O37 2.467706 1_555
Cr12 O32 2.695385 1_555
Cr13 O6 2.022681 1_555
Cr13 O17 2.065036 1_555
Cr13 O10 2.144095 1_545
Cr13 O3 2.268692 1_555
Cr13 O36 2.467706 1_545
Cr13 O33 2.695385 1_555
Cr14 O5 2.022681 1_455
Cr14 O18 2.065036 1_555
Cr14 O9 2.144095 1_555
Cr14 O0 2.268692 1_555
Cr14 O39 2.467706 1_555
Cr14 O34 2.695385 1_555
Cr15 O4 2.022681 1_555
Cr15 O19 2.065036 1_555
Cr15 O8 2.144095 1_566
Cr15 O1 2.268692 1_555
Cr15 O38 2.467706 1_565
Cr15 O35 2.695385 1_555
O0 P9 1.550057 1_455
O1 P8 1.550057 1_565
O2 P11 1.550057 1_655
O3 P10 1.550057 1_545
O4 P0 1.537386 1_555
O5 P1 1.537386 1_555
O6 P2 1.537386 1_555
O7 P3 1.537386 1_555
O8 P4 1.549680 1_555
O9 P5 1.549680 1_555
O10 P6 1.549680 1_555
O11 P7 1.549680 1_555
O12 P7 1.557428 1_555
O13 P6 1.557428 1_655
O14 P5 1.557428 1_555
O15 P4 1.557428 1_455
O16 P3 1.581132 1_555
O17 P2 1.581132 1_455
O18 P1 1.581132 1_555
O19 P0 1.581132 1_655
O20 P6 1.536541 1_555
O21 P7 1.536541 1_554
O22 P4 1.536541 1_556
O23 P5 1.536541 1_555
O24 P2 1.528007 1_555
O25 P3 1.528007 1_556
O26 P0 1.528007 1_554
O27 P1 1.528007 1_555
O28 P0 1.575951 1_555
O29 P1 1.575951 1_555
O30 P2 1.575951 1_555
O31 P3 1.575951 1_555
O32 P4 1.591646 1_555
O33 P5 1.591646 1_555
O34 P6 1.591646 1_555
O35 P7 1.591646 1_555
O36 P10 1.551288 1_555
O37 P11 1.551288 1_655
O38 P8 1.551288 1_555
O39 P9 1.551288 1_455
O40 P8 1.546817 1_555
O41 P9 1.546817 1_455
O42 P10 1.546817 1_555
O43 P11 1.546817 1_655
O44 P8 1.586981 1_555
O45 P9 1.586981 1_555
O46 P10 1.586981 1_555
O47 P11 1.586981 1_555
