# generated using pymatgen
data_Te6MoW3S2
_symmetry_space_group_name_H-M   'P 1'
_cell_length_a   3.45761884
_cell_length_b   3.45761884
_cell_length_c   39.34071100
_cell_angle_alpha   90.00000000
_cell_angle_beta   90.00000000
_cell_angle_gamma   120.00001616
_symmetry_Int_Tables_number   1
_chemical_formula_structural   Te6MoW3S2
_chemical_formula_sum   'Te6 Mo1 W3 S2'
_cell_volume   407.31180626
_cell_formula_units_Z   1
loop_
 _symmetry_equiv_pos_site_id
 _symmetry_equiv_pos_as_xyz
  1  'x, y, z'
loop_
 _atom_site_type_symbol
 _atom_site_label
 _atom_site_symmetry_multiplicity
 _atom_site_fract_x
 _atom_site_fract_y
 _atom_site_fract_z
 _atom_site_occupancy
  Te  Te0  1  0.33333300  0.66666700  0.32893100  1
  Te  Te1  1  0.33333300  0.66666700  0.70475100  1
  Te  Te2  1  0.66666700  0.33333300  0.04654500  1
  Te  Te3  1  0.66666700  0.33333300  0.14105500  1
  Te  Te4  1  0.33333300  0.66666700  0.23494900  1
  Te  Te5  1  0.33333300  0.66666700  0.61031000  1
  Mo  Mo0  1  0.66666700  0.33333300  0.28196600  1
  W  W0  1  0.33333300  0.66666700  0.09377000  1
  W  W1  1  0.33333300  0.66666700  0.46964200  1
  W  W2  1  0.66666700  0.33333300  0.65754300  1
  S  S0  1  0.66666700  0.33333300  0.43181200  1
  S  S1  1  0.66666700  0.33333300  0.50747600  1
loop_
_geom_bond_atom_site_label_1
_geom_bond_atom_site_label_2
_geom_bond_distance
_geom_bond_site_symmetry_2
Te1 W2 2.726575 1_455
Te1 W2 2.726575 1_565
Te1 W2 2.726580 1_555
Te2 W0 2.727031 1_545
Te2 W0 2.727031 1_655
Te2 W0 2.727035 1_555
Te3 W0 2.728639 1_655
Te3 W0 2.728639 1_545
Te3 W0 2.728644 1_555
Te5 W2 2.727245 1_455
Te5 W2 2.727245 1_565
Te5 W2 2.727250 1_555
Mo0 Te0 2.720072 1_545
Mo0 Te0 2.720072 1_655
Mo0 Te0 2.720077 1_555
Mo0 Te4 2.721462 1_545
Mo0 Te4 2.721462 1_655
Mo0 Te4 2.721467 1_555
S0 W1 2.489970 1_545
S0 W1 2.489970 1_655
S0 W1 2.489975 1_555
S1 W1 2.490064 1_545
S1 W1 2.490064 1_655
S1 W1 2.490069 1_555
