# generated using pymatgen
data_Sr4LiTb2(RuO6)2
_symmetry_space_group_name_H-M   'P 1'
_cell_length_a   5.94915981
_cell_length_b   5.89670423
_cell_length_c   8.32160290
_cell_angle_alpha   89.95393542
_cell_angle_beta   90.25656568
_cell_angle_gamma   90.82231009
_symmetry_Int_Tables_number   1
_chemical_formula_structural   Sr4LiTb2(RuO6)2
_chemical_formula_sum   'Sr4 Li1 Tb2 Ru2 O12'
_cell_volume   291.89238516
_cell_formula_units_Z   1
loop_
 _symmetry_equiv_pos_site_id
 _symmetry_equiv_pos_as_xyz
  1  'x, y, z'
loop_
 _atom_site_type_symbol
 _atom_site_label
 _atom_site_symmetry_multiplicity
 _atom_site_fract_x
 _atom_site_fract_y
 _atom_site_fract_z
 _atom_site_occupancy
  Sr  Sr0  1  0.98927700  0.46921200  0.75743400  1
  Sr  Sr1  1  0.50535900  0.95917000  0.75170400  1
  Sr  Sr2  1  0.54574200  0.96443400  0.27316200  1
  Sr  Sr3  1  0.99617300  0.57386300  0.24635700  1
  Li  Li0  1  0.18021600  0.18138100  0.23423800  1
  Tb  Tb0  1  0.49684000  0.49099300  0.99929700  1
  Tb  Tb1  1  0.00355100  0.99918900  0.51370300  1
  Ru  Ru0  1  0.99650200  0.00207100  0.99468900  1
  Ru  Ru1  1  0.49792300  0.49311200  0.49911300  1
  O  O0  1  0.72301300  0.19067000  0.96182800  1
  O  O1  1  0.75934300  0.70841900  0.53625700  1
  O  O2  1  0.27677200  0.82004900  0.04040400  1
  O  O3  1  0.23585400  0.28616200  0.44040700  1
  O  O4  1  0.80337000  0.72330400  0.96415800  1
  O  O5  1  0.69787300  0.22676500  0.53700400  1
  O  O6  1  0.17140600  0.30080800  0.03527300  1
  O  O7  1  0.29257400  0.76103300  0.46792800  1
  O  O8  1  0.42223400  0.50367600  0.73272400  1
  O  O9  1  0.07869800  0.02287100  0.76740000  1
  O  O10  1  0.57297300  0.50223900  0.26377700  1
  O  O11  1  0.94180700  0.98724700  0.24095600  1
loop_
_geom_bond_atom_site_label_1
_geom_bond_atom_site_label_2
_geom_bond_distance
_geom_bond_site_symmetry_2
Li0 O6 1.799571 1_555
Li0 O11 1.810871 1_445
Li0 O3 1.850822 1_555
O0 Ru0 2.001565 1_555
O0 Tb0 2.262052 1_555
O0 Sr1 2.555472 1_545
O0 Sr0 2.836356 1_555
O0 Sr2 3.095586 1_546
O1 Ru1 2.016388 1_555
O1 Tb1 2.239682 1_655
O1 Sr0 2.697604 1_555
O1 Sr1 2.788616 1_555
O1 Sr3 2.915491 1_555
O1 Sr2 2.951611 1_555
O2 Ru0 2.030250 1_464
O2 Tb0 2.382018 1_554
O2 Sr2 2.640604 1_555
O2 Sr3 2.789879 1_455
O2 Sr1 2.878912 1_554
O3 Ru1 2.024386 1_555
O3 Tb1 2.254830 1_545
O3 Sr3 2.750140 1_455
O4 Ru0 2.007644 1_565
O4 Tb0 2.284727 1_555
O4 Sr0 2.548770 1_555
O4 Sr3 2.758346 1_556
O4 Sr1 2.870900 1_555
O5 Ru1 2.007629 1_555
O5 Tb1 2.284532 1_645
O5 Sr1 2.637346 1_545
O5 Sr2 2.824902 1_545
O5 Sr0 2.884204 1_555
O6 Ru0 2.060356 1_454
O6 Tb0 2.244541 1_554
O6 Sr3 2.614174 1_455
O6 Sr0 2.740532 1_454
O7 Ru1 2.026724 1_555
O7 Tb1 2.269313 1_555
O7 Sr2 2.510132 1_555
O7 Sr3 2.765044 1_455
O7 Sr1 2.911923 1_555
O8 Ru1 1.998670 1_555
O8 Tb0 2.261720 1_555
O8 Sr0 2.589908 1_455
O8 Sr1 2.728642 1_555
O9 Ru0 1.959025 1_455
O9 Tb1 2.160235 1_545
O9 Sr1 2.575152 1_545
O9 Sr0 2.693777 1_455
O10 Ru1 2.011079 1_555
O10 Tb0 2.245871 1_554
O10 Sr3 2.551622 1_555
O10 Sr2 2.733757 1_555
O11 Ru0 2.078020 1_564
O11 Tb1 2.298573 1_655
O11 Sr2 2.374522 1_555
O11 Sr3 2.463912 1_555
