# generated using pymatgen
data_Nb3AgO8
_symmetry_space_group_name_H-M   'P 1'
_cell_length_a   7.37982543
_cell_length_b   7.37982543
_cell_length_c   7.37982543
_cell_angle_alpha   122.10176301
_cell_angle_beta   118.38023967
_cell_angle_gamma   89.61351121
_symmetry_Int_Tables_number   1
_chemical_formula_structural   Nb3AgO8
_chemical_formula_sum   'Nb6 Ag2 O16'
_cell_volume   282.78068652
_cell_formula_units_Z   2
loop_
 _symmetry_equiv_pos_site_id
 _symmetry_equiv_pos_as_xyz
  1  'x, y, z'
loop_
 _atom_site_type_symbol
 _atom_site_label
 _atom_site_symmetry_multiplicity
 _atom_site_fract_x
 _atom_site_fract_y
 _atom_site_fract_z
 _atom_site_occupancy
  Nb  Nb0  1  0.00918500  0.76684800  0.24233700  1
  Nb  Nb1  1  0.99081500  0.23315200  0.75766300  1
  Nb  Nb2  1  0.47548900  0.73315200  0.74233700  1
  Nb  Nb3  1  0.52451100  0.26684800  0.25766300  1
  Nb  Nb4  1  0.50000000  0.75000000  0.25000000  1
  Nb  Nb5  1  0.50000000  0.25000000  0.75000000  1
  Ag  Ag0  1  0.00000000  0.75000000  0.75000000  1
  Ag  Ag1  1  0.00000000  0.25000000  0.25000000  1
  O  O0  1  0.83392200  0.44235400  0.99206100  1
  O  O1  1  0.16607800  0.15813900  0.60843200  1
  O  O2  1  0.54970600  0.05764600  0.89156800  1
  O  O3  1  0.45029400  0.34186100  0.50793900  1
  O  O4  1  0.16607800  0.55764600  0.00793900  1
  O  O5  1  0.83392200  0.84186100  0.39156800  1
  O  O6  1  0.45029400  0.94235400  0.10843200  1
  O  O7  1  0.54970600  0.65813900  0.49206100  1
  O  O8  1  0.15294900  0.16597400  0.98697500  1
  O  O9  1  0.84705100  0.83402600  0.01302500  1
  O  O10  1  0.82100100  0.33402600  0.48697500  1
  O  O11  1  0.17899900  0.66597400  0.51302500  1
  O  O12  1  0.53277900  0.42478000  0.10799900  1
  O  O13  1  0.46722100  0.57522000  0.89200100  1
  O  O14  1  0.68321800  0.07522000  0.60799900  1
  O  O15  1  0.31678200  0.92478000  0.39200100  1
loop_
_geom_bond_atom_site_label_1
_geom_bond_atom_site_label_2
_geom_bond_distance
_geom_bond_site_symmetry_2
Nb0 O9 1.870842 1_455
Nb0 O0 1.971981 1_454
Nb0 O5 1.971981 1_455
Nb0 O15 2.003822 1_555
Nb0 O11 2.302896 1_555
Nb0 O4 2.399548 1_555
Nb0 O1 2.399548 1_565
Nb1 O8 1.870842 1_655
Nb1 O4 1.971981 1_656
Nb1 O1 1.971981 1_655
Nb1 O14 2.003822 1_555
Nb1 O10 2.302896 1_555
Nb1 O0 2.399548 1_555
Nb1 O5 2.399548 1_545
Nb2 O11 1.870842 1_555
Nb2 O7 1.971976 1_555
Nb2 O2 1.971981 1_565
Nb2 O13 2.003815 1_555
Nb2 O9 2.302896 1_556
Nb2 O6 2.399543 1_556
Nb2 O3 2.399550 1_555
Nb3 O10 1.870842 1_555
Nb3 O3 1.971976 1_555
Nb3 O6 1.971981 1_545
Nb3 O12 2.003815 1_555
Nb3 O8 2.302896 1_554
Nb3 O2 2.399543 1_554
Nb3 O7 2.399550 1_555
Nb4 O4 2.108570 1_555
Nb4 O5 2.108570 1_555
Nb4 O6 2.108570 1_555
Nb4 O7 2.108572 1_555
Nb4 O15 2.115879 1_555
Nb4 O14 2.115885 1_565
Nb4 O12 2.115885 1_555
Nb4 O13 2.115885 1_554
Nb5 O1 2.108570 1_555
Nb5 O0 2.108570 1_555
Nb5 O2 2.108570 1_555
Nb5 O3 2.108572 1_555
Nb5 O14 2.115879 1_555
Nb5 O15 2.115885 1_545
Nb5 O12 2.115885 1_556
Nb5 O13 2.115885 1_555
Ag0 O9 2.494079 1_456
Ag0 O11 2.494079 1_555
Ag0 O8 2.494079 1_565
Ag0 O10 2.494079 1_455
Ag0 O5 2.787717 1_455
Ag0 O4 2.787717 1_556
Ag0 O6 2.787723 1_556
Ag0 O7 2.787724 1_455
Ag1 O11 2.494079 1_555
Ag1 O9 2.494079 1_445
Ag1 O8 2.494079 1_554
Ag1 O10 2.494079 1_455
Ag1 O1 2.787717 1_555
Ag1 O0 2.787717 1_454
Ag1 O2 2.787723 1_454
Ag1 O3 2.787724 1_555
