# generated using pymatgen
data_Li2AlCoO4
_symmetry_space_group_name_H-M   'P 1'
_cell_length_a   2.85176977
_cell_length_b   19.74022602
_cell_length_c   5.09391969
_cell_angle_alpha   95.21453079
_cell_angle_beta   106.68070659
_cell_angle_gamma   86.26498876
_symmetry_Int_Tables_number   1
_chemical_formula_structural   Li2AlCoO4
_chemical_formula_sum   'Li8 Al4 Co4 O16'
_cell_volume   273.32678314
_cell_formula_units_Z   4
loop_
 _symmetry_equiv_pos_site_id
 _symmetry_equiv_pos_as_xyz
  1  'x, y, z'
loop_
 _atom_site_type_symbol
 _atom_site_label
 _atom_site_symmetry_multiplicity
 _atom_site_fract_x
 _atom_site_fract_y
 _atom_site_fract_z
 _atom_site_occupancy
  Li  Li0  1  0.50641300  0.12412900  0.13609500  1
  Li  Li1  1  0.50705400  0.37306600  0.38675300  1
  Li  Li2  1  0.50041400  0.62615300  0.63227500  1
  Li  Li3  1  0.50494800  0.87409300  0.88287900  1
  Li  Li4  1  0.99359900  0.00147500  0.98970900  1
  Li  Li5  1  0.99442600  0.25271600  0.24055300  1
  Li  Li6  1  0.99863700  0.49828400  0.49006600  1
  Li  Li7  1  0.99592600  0.74957300  0.74432700  1
  Al  Al0  1  0.75105000  0.18836500  0.69581900  1
  Al  Al1  1  0.75787900  0.43370000  0.93672400  1
  Al  Al2  1  0.74365300  0.68773400  0.18688500  1
  Al  Al3  1  0.74717600  0.94028800  0.42998500  1
  Co  Co0  1  0.25182600  0.31106000  0.81170600  1
  Co  Co1  1  0.25013400  0.56059000  0.06046400  1
  Co  Co2  1  0.24954900  0.06451900  0.56378800  1
  Co  Co3  1  0.24895700  0.81385700  0.31458600  1
  O  O0  1  0.64940000  0.03024200  0.30399800  1
  O  O1  1  0.64124400  0.27754100  0.56363000  1
  O  O2  1  0.65639300  0.52387800  0.79979100  1
  O  O3  1  0.63373100  0.77726800  0.04988800  1
  O  O4  1  0.85052600  0.09917600  0.82554600  1
  O  O5  1  0.86238000  0.34358600  0.05817000  1
  O  O6  1  0.84369800  0.59652200  0.32129200  1
  O  O7  1  0.86201700  0.85208000  0.57678600  1
  O  O8  1  0.14127400  0.15624000  0.44745800  1
  O  O9  1  0.14668700  0.40292600  0.68909800  1
  O  O10  1  0.13169200  0.65712200  0.93943700  1
  O  O11  1  0.13740900  0.91067700  0.18567800  1
  O  O12  1  0.35928000  0.21957500  0.93873200  1
  O  O13  1  0.37051100  0.46352200  0.18438300  1
  O  O14  1  0.35585600  0.71682300  0.43516300  1
  O  O15  1  0.35626300  0.97322000  0.67833300  1
loop_
_geom_bond_atom_site_label_1
_geom_bond_atom_site_label_2
_geom_bond_distance
_geom_bond_site_symmetry_2
Li0 O0 2.078979 1_555
Li0 O4 2.096344 1_554
Li0 O8 2.124502 1_655
Li0 O4 2.126829 1_454
Li0 O8 2.163573 1_555
Li0 O12 2.176204 1_554
Li1 O9 2.099765 1_655
Li1 O13 2.101499 1_555
Li1 O9 2.107187 1_555
Li1 O1 2.128596 1_555
Li1 O5 2.171619 1_455
Li1 O5 2.210601 1_555
Li2 O14 2.091547 1_555
Li2 O10 2.101258 1_655
Li2 O6 2.111209 1_555
Li2 O10 2.148125 1_555
Li2 O6 2.151772 1_455
Li2 O2 2.231667 1_555
Li3 O7 2.078734 1_455
Li3 O7 2.094642 1_555
Li3 O11 2.126943 1_656
Li3 O3 2.129934 1_556
Li3 O11 2.150869 1_556
Li3 O15 2.259056 1_555
Li4 O11 2.090869 1_646
Li4 O15 2.108702 1_545
Li4 O0 2.124456 1_556
Li4 O4 2.140135 1_555
Li4 O15 2.145295 1_645
Li4 O0 2.153472 1_656
Li5 O5 2.058325 1_555
Li5 O12 2.108413 1_554
Li5 O12 2.126306 1_654
Li5 O1 2.139976 1_655
Li5 O1 2.168797 1_555
Li5 O8 2.218271 1_655
Li6 O2 2.090903 1_555
Li6 O13 2.113968 1_555
Li6 O2 2.131336 1_655
Li6 O6 2.160636 1_555
Li6 O13 2.163130 1_655
Li6 O9 2.178799 1_655
Li7 O3 2.092727 1_656
Li7 O3 2.117348 1_556
Li7 O10 2.117797 1_655
Li7 O14 2.132693 1_555
Li7 O14 2.146664 1_655
Li7 O7 2.234933 1_555
Al0 O4 1.911988 1_555
Al0 O1 1.916485 1_555
Al0 O12 1.920367 1_655
Al0 O12 1.929839 1_555
Al0 O8 1.939459 1_555
Al0 O8 1.952319 1_655
Al1 O5 1.913382 1_556
Al1 O13 1.929793 1_656
Al1 O9 1.932519 1_555
Al1 O13 1.933580 1_556
Al1 O9 1.940470 1_655
Al1 O2 1.944703 1_555
Al2 O14 1.925694 1_655
Al2 O3 1.932736 1_555
Al2 O10 1.932800 1_554
Al2 O14 1.934022 1_555
Al2 O10 1.937448 1_654
Al2 O6 1.958860 1_555
Al3 O11 1.916273 1_555
Al3 O0 1.919030 1_565
Al3 O11 1.925338 1_655
Al3 O7 1.928777 1_555
Al3 O15 1.943256 1_655
Al3 O15 1.957414 1_555
Co0 O5 1.940181 1_556
Co0 O5 1.944977 1_456
Co0 O9 1.948364 1_555
Co0 O12 1.949479 1_555
Co0 O1 1.949757 1_455
Co0 O1 1.955987 1_555
Co1 O6 1.956446 1_555
Co1 O2 1.962035 1_454
Co1 O10 2.033587 1_554
Co1 O13 2.048822 1_555
Co1 O6 2.053646 1_455
Co1 O2 2.056569 1_554
Co2 O15 1.923271 1_545
Co2 O8 1.934395 1_555
Co2 O0 1.956060 1_455
Co2 O4 1.964249 1_555
Co2 O0 2.027888 1_555
Co2 O4 2.035826 1_455
Co3 O3 2.011952 1_455
Co3 O7 2.014436 1_555
Co3 O3 2.028017 1_555
Co3 O7 2.031076 1_455
Co3 O14 2.041938 1_555
Co3 O11 2.052863 1_555
