# generated using pymatgen
data_Rb
_symmetry_space_group_name_H-M   'P 1'
_cell_length_a   12.60339945
_cell_length_b   12.60339945
_cell_length_c   8.00665492
_cell_angle_alpha   74.65132169
_cell_angle_beta   74.65132169
_cell_angle_gamma   36.23979319
_symmetry_Int_Tables_number   1
_chemical_formula_structural   Rb
_chemical_formula_sum   Rb8
_cell_volume   722.11097260
_cell_formula_units_Z   8
loop_
 _symmetry_equiv_pos_site_id
 _symmetry_equiv_pos_as_xyz
  1  'x, y, z'
loop_
 _atom_site_type_symbol
 _atom_site_label
 _atom_site_symmetry_multiplicity
 _atom_site_fract_x
 _atom_site_fract_y
 _atom_site_fract_z
 _atom_site_occupancy
  Rb  Rb0  1  0.17236100  0.69943100  0.55918100  1
  Rb  Rb1  1  0.30056900  0.82763900  0.94081900  1
  Rb  Rb2  1  0.53680700  0.08557100  0.68620500  1
  Rb  Rb3  1  0.82763900  0.30056900  0.44081900  1
  Rb  Rb4  1  0.46319300  0.91442900  0.31379500  1
  Rb  Rb5  1  0.91442900  0.46319300  0.81379500  1
  Rb  Rb6  1  0.69943100  0.17236100  0.05918100  1
  Rb  Rb7  1  0.08557100  0.53680700  0.18620500  1
loop_
_geom_bond_atom_site_label_1
_geom_bond_atom_site_label_2
_geom_bond_distance
_geom_bond_site_symmetry_2
Rb0 Rb3 4.738808 1_465
Rb0 Rb7 4.785538 1_555
Rb0 Rb2 4.792959 1_555
Rb0 Rb1 4.898815 1_555
Rb0 Rb2 4.930083 1_465
Rb0 Rb1 5.047375 1_554
Rb0 Rb3 5.077756 1_555
Rb0 Rb7 5.085628 1_556
Rb1 Rb6 4.738808 1_466
Rb1 Rb4 4.785538 1_556
Rb1 Rb5 4.792959 1_555
Rb1 Rb5 4.930083 1_465
Rb1 Rb6 5.077756 1_556
Rb1 Rb4 5.085628 1_555
Rb2 Rb4 4.743588 1_545
Rb2 Rb6 4.785538 1_556
Rb2 Rb5 4.830635 1_545
Rb2 Rb5 4.830635 1_455
Rb2 Rb4 5.077920 1_546
Rb2 Rb6 5.085628 1_555
Rb3 Rb5 4.785538 1_555
Rb3 Rb4 4.792959 1_555
Rb3 Rb6 4.898815 1_555
Rb3 Rb4 4.930083 1_645
Rb3 Rb6 5.047375 1_556
Rb3 Rb5 5.085628 1_554
Rb4 Rb7 4.830635 1_565
Rb4 Rb7 4.830635 1_655
Rb5 Rb7 4.743588 1_656
Rb5 Rb7 5.077920 1_655
Rb6 Rb7 4.792959 1_555
Rb6 Rb7 4.930083 1_645
