# generated using pymatgen
data_Rb2Li4UO6
_symmetry_space_group_name_H-M   'P 1'
_cell_length_a   5.76211500
_cell_length_b   6.15960800
_cell_length_c   6.15960800
_cell_angle_alpha   119.99999995
_cell_angle_beta   90.00000000
_cell_angle_gamma   90.00000000
_symmetry_Int_Tables_number   1
_chemical_formula_structural   Rb2Li4UO6
_chemical_formula_sum   'Rb2 Li4 U1 O6'
_cell_volume   189.32968034
_cell_formula_units_Z   1
loop_
 _symmetry_equiv_pos_site_id
 _symmetry_equiv_pos_as_xyz
  1  'x, y, z'
loop_
 _atom_site_type_symbol
 _atom_site_label
 _atom_site_symmetry_multiplicity
 _atom_site_fract_x
 _atom_site_fract_y
 _atom_site_fract_z
 _atom_site_occupancy
  Rb  Rb0  1  0.55067000  0.66666700  0.33333300  1
  Rb  Rb1  1  0.44933000  0.33333300  0.66666700  1
  Li  Li0  1  0.00000000  0.50000000  0.50000000  1
  Li  Li1  1  0.00000000  0.00000000  0.50000000  1
  Li  Li2  1  0.00000000  0.50000000  0.00000000  1
  Li  Li3  1  0.50000000  0.00000000  0.00000000  1
  U  U0  1  0.00000000  0.00000000  0.00000000  1
  O  O0  1  0.79856500  0.16290400  0.32580800  1
  O  O1  1  0.20143500  0.83709600  0.67419200  1
  O  O2  1  0.79856500  0.16290400  0.83709600  1
  O  O3  1  0.20143500  0.83709600  0.16290400  1
  O  O4  1  0.79856500  0.67419200  0.83709600  1
  O  O5  1  0.20143500  0.32580800  0.16290400  1
loop_
_geom_bond_atom_site_label_1
_geom_bond_atom_site_label_2
_geom_bond_distance
_geom_bond_site_symmetry_2
Li0 O4 2.140544 1_455
Li0 O0 2.140544 1_455
Li0 O1 2.140544 1_555
Li0 O5 2.140544 1_555
Li1 O0 2.140544 1_455
Li1 O1 2.140544 1_545
Li1 O2 2.140544 1_455
Li1 O3 2.140544 1_545
Li2 O5 2.140544 1_555
Li2 O4 2.140544 1_454
Li2 O2 2.140544 1_454
Li2 O3 2.140544 1_555
Li3 O2 2.445453 1_554
Li3 O3 2.445453 1_545
Li3 O0 2.445453 1_555
Li3 O4 2.445453 1_544
Li3 O5 2.445453 1_555
Li3 O1 2.445453 1_544
O0 U0 2.089926 1_655
O0 Rb1 2.712119 1_555
O1 U0 2.089926 1_566
O1 Rb0 2.712119 1_555
O2 U0 2.089926 1_656
O2 Rb1 2.712115 1_555
O3 U0 2.089926 1_565
O3 Rb0 2.712115 1_555
O4 U0 2.089926 1_666
O4 Rb1 2.712119 1_555
O5 U0 2.089926 1_555
O5 Rb0 2.712119 1_555
