# generated using pymatgen
data_Gd5Si4
_symmetry_space_group_name_H-M   'P 1'
_cell_length_a   7.51738709
_cell_length_b   7.76971074
_cell_length_c   14.80470256
_cell_angle_alpha   90.01840394
_cell_angle_beta   89.99251456
_cell_angle_gamma   90.06434322
_symmetry_Int_Tables_number   1
_chemical_formula_structural   Gd5Si4
_chemical_formula_sum   'Gd20 Si16'
_cell_volume   864.71133277
_cell_formula_units_Z   4
loop_
 _symmetry_equiv_pos_site_id
 _symmetry_equiv_pos_as_xyz
  1  'x, y, z'
loop_
 _atom_site_type_symbol
 _atom_site_label
 _atom_site_symmetry_multiplicity
 _atom_site_fract_x
 _atom_site_fract_y
 _atom_site_fract_z
 _atom_site_occupancy
  Gd  Gd0  1  0.47121597  0.68268972  0.59738017  1
  Gd  Gd1  1  0.97168748  0.81616155  0.90135740  1
  Gd  Gd2  1  0.52814946  0.31726450  0.09798325  1
  Gd  Gd3  1  0.02855282  0.18337913  0.40338780  1
  Gd  Gd4  1  0.52875170  0.31643210  0.40359085  1
  Gd  Gd5  1  0.03018140  0.18197224  0.09838171  1
  Gd  Gd6  1  0.46983049  0.68345344  0.90038408  1
  Gd  Gd7  1  0.97083989  0.81652431  0.59723773  1
  Gd  Gd8  1  0.81658160  0.32085854  0.62177410  1
  Gd  Gd9  1  0.31587699  0.17946247  0.87611202  1
  Gd  Gd10  1  0.18309630  0.68010391  0.12317214  1
  Gd  Gd11  1  0.68406496  0.82077774  0.37878773  1
  Gd  Gd12  1  0.18345764  0.67955795  0.37843085  1
  Gd  Gd13  1  0.68425066  0.82031172  0.12296699  1
  Gd  Gd14  1  0.81667169  0.32146847  0.87577595  1
  Gd  Gd15  1  0.31565949  0.18019635  0.62212547  1
  Gd  Gd16  1  0.35477285  0.01061235  0.25152190  1
  Gd  Gd17  1  0.85767596  0.48933335  0.25219852  1
  Gd  Gd18  1  0.64431483  0.98732611  0.74893016  1
  Gd  Gd19  1  0.14413352  0.51247043  0.74886492  1
  Si  Si0  1  0.64359982  0.02807785  0.54026847  1
  Si  Si1  1  0.14424210  0.47317892  0.95937616  1
  Si  Si2  1  0.35618693  0.97075835  0.03971300  1
  Si  Si3  1  0.85703567  0.52791104  0.46052205  1
  Si  Si4  1  0.35570098  0.97164727  0.46043288  1
  Si  Si5  1  0.85729390  0.52895675  0.03962838  1
  Si  Si6  1  0.64323152  0.02707193  0.95936089  1
  Si  Si7  1  0.14372724  0.47217267  0.54012264  1
  Si  Si8  1  0.47791263  0.60105965  0.25047362  1
  Si  Si9  1  0.97923465  0.89933271  0.25065701  1
  Si  Si10  1  0.52031869  0.40056998  0.74922486  1
  Si  Si11  1  0.02128071  0.10029227  0.74911474  1
  Si  Si12  1  0.24028873  0.37498718  0.25088027  1
  Si  Si13  1  0.74132672  0.12473402  0.25110375  1
  Si  Si14  1  0.75986461  0.62467714  0.74919218  1
  Si  Si15  1  0.25898938  0.87421590  0.74956537  1
loop_
_geom_bond_atom_site_label_1
_geom_bond_atom_site_label_2
_geom_bond_distance
_geom_bond_site_symmetry_2
Gd0 Si7 3.073320 1_555
Gd0 Si0 3.096625 1_565
Gd0 Si15 3.136594 1_555
Gd0 Si4 3.148490 1_555
Gd0 Si14 3.157069 1_555
Gd0 Si10 3.162252 1_555
Gd1 Si6 3.086587 1_565
Gd1 Si1 3.087314 1_655
Gd1 Si14 3.133285 1_555
Gd1 Si5 3.147651 1_556
Gd1 Si15 3.148855 1_655
Gd1 Si11 3.177070 1_665
Gd2 Si5 3.092750 1_555
Gd2 Si2 3.107171 1_545
Gd2 Si13 3.154872 1_555
Gd2 Si12 3.163539 1_555
Gd2 Si6 3.169366 1_554
Gd2 Si8 3.178013 1_555
Gd3 Si4 3.078677 1_545
Gd3 Si3 3.090275 1_455
Gd3 Si12 3.137442 1_555
Gd3 Si7 3.142531 1_555
Gd3 Si13 3.154518 1_455
Gd3 Si9 3.180569 1_445
Gd3 Si0 3.732173 1_455
Gd4 Si3 3.080753 1_555
Gd4 Si4 3.093575 1_545
Gd4 Si0 3.141188 1_555
Gd4 Si13 3.141771 1_555
Gd4 Si12 3.166205 1_555
Gd4 Si8 3.190713 1_555
Gd4 Si7 3.732578 1_555
Gd5 Si2 3.075885 1_545
Gd5 Si5 3.118275 1_455
Gd5 Si12 3.135973 1_555
Gd5 Si13 3.165791 1_455
Gd5 Si9 3.170577 1_445
Gd5 Si1 3.176129 1_554
Gd6 Si1 3.068218 1_555
Gd6 Si6 3.095228 1_565
Gd6 Si15 3.114933 1_555
Gd6 Si2 3.157306 1_556
Gd6 Si14 3.157970 1_555
Gd6 Si10 3.159344 1_555
Gd7 Si0 3.078180 1_565
Gd7 Si7 3.093307 1_655
Gd7 Si14 3.129539 1_555
Gd7 Si3 3.138533 1_555
Gd7 Si15 3.158681 1_655
Gd7 Si11 3.171086 1_665
Gd7 Si4 3.730581 1_655
Gd8 Si0 2.883370 1_555
Gd8 Si3 2.894969 1_555
Gd8 Si11 2.977867 1_655
Gd8 Si7 2.980798 1_655
Gd8 Si10 2.984155 1_555
Gd8 Si14 3.051521 1_555
Gd9 Si1 2.897692 1_555
Gd9 Si2 2.931131 1_546
Gd9 Si11 2.969021 1_555
Gd9 Si10 2.972799 1_555
Gd9 Si6 2.997496 1_555
Gd9 Si15 3.051682 1_545
Gd10 Si2 2.883482 1_555
Gd10 Si1 2.923555 1_554
Gd10 Si9 2.969038 1_455
Gd10 Si8 2.974185 1_555
Gd10 Si5 2.983423 1_455
Gd10 Si12 3.063490 1_555
Gd11 Si3 2.888192 1_555
Gd11 Si0 2.898366 1_565
Gd11 Si9 2.981784 1_555
Gd11 Si8 2.986205 1_555
Gd11 Si4 2.988832 1_555
Gd11 Si13 3.055551 1_565
Gd12 Si4 2.879728 1_555
Gd12 Si7 2.901215 1_555
Gd12 Si9 2.976548 1_455
Gd12 Si8 2.976834 1_555
Gd12 Si3 2.979983 1_455
Gd12 Si12 3.057375 1_555
Gd13 Si5 2.888490 1_555
Gd13 Si6 2.923421 1_564
Gd13 Si9 2.977458 1_555
Gd13 Si8 2.977709 1_555
Gd13 Si2 2.995967 1_555
Gd13 Si13 3.061433 1_565
Gd14 Si6 2.908266 1_555
Gd14 Si5 2.928005 1_556
Gd14 Si11 2.972945 1_655
Gd14 Si10 2.975890 1_555
Gd14 Si1 2.996398 1_655
Gd14 Si14 3.041328 1_555
Gd15 Si7 2.880894 1_555
Gd15 Si4 2.906017 1_545
Gd15 Si11 2.968795 1_555
Gd15 Si10 2.971902 1_555
Gd15 Si0 2.991300 1_555
Gd15 Si15 3.064880 1_545
Gd16 Si9 2.951599 1_445
Gd16 Si12 2.959950 1_555
Gd16 Si13 3.037200 1_555
Gd16 Si4 3.107753 1_545
Gd16 Si2 3.150938 1_545
Gd16 Si8 3.315045 1_545
Gd17 Si13 2.963883 1_555
Gd17 Si8 2.984939 1_555
Gd17 Si12 3.011348 1_655
Gd17 Si3 3.098607 1_555
Gd17 Si5 3.162161 1_555
Gd17 Si9 3.313149 1_555
Gd18 Si14 2.949466 1_555
Gd18 Si11 2.965673 1_665
Gd18 Si15 3.026094 1_555
Gd18 Si0 3.105466 1_565
Gd18 Si6 3.130544 1_565
Gd18 Si10 3.344359 1_565
Gd19 Si15 2.939375 1_555
Gd19 Si10 2.959503 1_555
Gd19 Si14 3.018329 1_455
Gd19 Si7 3.106089 1_555
Gd19 Si1 3.131571 1_555
Gd19 Si11 3.332016 1_555
Si0 Si4 2.504275 1_545
Si1 Si5 2.500721 1_456
Si2 Si6 2.502063 1_564
Si3 Si7 2.494830 1_655
Si10 Si14 2.503525 1_555
Si11 Si15 2.507140 1_545
Si12 Si8 2.503848 1_555
Si13 Si9 2.504530 1_545
