# generated using pymatgen
data_Hf5CuSb3
_symmetry_space_group_name_H-M   'P 1'
_cell_length_a   8.52118742
_cell_length_b   8.52118742
_cell_length_c   5.71713383
_cell_angle_alpha   90.00000000
_cell_angle_beta   90.00000000
_cell_angle_gamma   119.99999671
_symmetry_Int_Tables_number   1
_chemical_formula_structural   Hf5CuSb3
_chemical_formula_sum   'Hf10 Cu2 Sb6'
_cell_volume   359.50856314
_cell_formula_units_Z   2
loop_
 _symmetry_equiv_pos_site_id
 _symmetry_equiv_pos_as_xyz
  1  'x, y, z'
loop_
 _atom_site_type_symbol
 _atom_site_label
 _atom_site_symmetry_multiplicity
 _atom_site_fract_x
 _atom_site_fract_y
 _atom_site_fract_z
 _atom_site_occupancy
  Hf  Hf0  1  0.66666700  0.33333300  0.00000000  1
  Hf  Hf1  1  0.33333300  0.66666700  0.00000000  1
  Hf  Hf2  1  0.33333300  0.66666700  0.50000000  1
  Hf  Hf3  1  0.66666700  0.33333300  0.50000000  1
  Hf  Hf4  1  0.73774564  0.73774564  0.75000000  1
  Hf  Hf5  1  0.26225436  -0.00000000  0.75000000  1
  Hf  Hf6  1  -0.00000000  0.26225436  0.75000000  1
  Hf  Hf7  1  0.26225436  0.26225436  0.25000000  1
  Hf  Hf8  1  0.73774564  0.00000000  0.25000000  1
  Hf  Hf9  1  0.00000000  0.73774564  0.25000000  1
  Cu  Cu0  1  0.00000000  -0.00000000  0.50000000  1
  Cu  Cu1  1  0.00000000  -0.00000000  0.00000000  1
  Sb  Sb0  1  0.38676275  0.38676275  0.75000000  1
  Sb  Sb1  1  0.61323725  -0.00000000  0.75000000  1
  Sb  Sb2  1  -0.00000000  0.61323725  0.75000000  1
  Sb  Sb3  1  0.61323725  0.61323725  0.25000000  1
  Sb  Sb4  1  0.38676275  0.00000000  0.25000000  1
  Sb  Sb5  1  0.00000000  0.38676275  0.25000000  1
loop_
_geom_bond_atom_site_label_1
_geom_bond_atom_site_label_2
_geom_bond_distance
_geom_bond_site_symmetry_2
Hf0 Sb5 3.004127 1_655
Hf0 Sb1 3.004127 1_554
Hf0 Sb2 3.004130 1_654
Hf0 Sb4 3.004130 1_555
Hf0 Sb0 3.004135 1_554
Hf0 Sb3 3.004135 1_555
Hf1 Sb2 3.004127 1_554
Hf1 Sb4 3.004127 1_565
Hf1 Sb1 3.004130 1_564
Hf1 Sb5 3.004130 1_555
Hf1 Sb0 3.004135 1_554
Hf1 Sb3 3.004135 1_555
Hf2 Sb4 3.004127 1_565
Hf2 Sb2 3.004127 1_555
Hf2 Sb1 3.004130 1_565
Hf2 Sb5 3.004130 1_555
Hf2 Sb0 3.004135 1_555
Hf2 Sb3 3.004135 1_555
Hf3 Sb5 3.004127 1_655
Hf3 Sb1 3.004127 1_555
Hf3 Sb4 3.004130 1_555
Hf3 Sb2 3.004130 1_655
Hf3 Sb0 3.004135 1_555
Hf3 Sb3 3.004135 1_555
Hf4 Sb1 2.913854 1_565
Hf4 Sb2 2.913854 1_655
Hf4 Sb0 2.990791 1_555
Hf4 Sb3 3.049105 1_556
Hf4 Sb3 3.049105 1_555
Hf5 Sb0 2.913854 1_555
Hf5 Sb2 2.913854 1_545
Hf5 Sb1 2.990791 1_555
Hf5 Sb4 3.049105 1_555
Hf5 Sb4 3.049105 1_556
Hf6 Sb0 2.913854 1_555
Hf6 Sb1 2.913854 1_455
Hf6 Sb2 2.990791 1_555
Hf6 Sb5 3.049105 1_555
Hf6 Sb5 3.049105 1_556
Hf7 Sb4 2.913854 1_555
Hf7 Sb5 2.913854 1_555
Hf7 Sb3 2.990791 1_555
Hf7 Sb0 3.049105 1_554
Hf7 Sb0 3.049105 1_555
Hf8 Sb3 2.913854 1_545
Hf8 Sb5 2.913854 1_655
Hf8 Sb4 2.990791 1_555
Hf8 Sb1 3.049105 1_555
Hf8 Sb1 3.049105 1_554
Hf9 Sb3 2.913854 1_455
Hf9 Sb4 2.913854 1_565
Hf9 Sb5 2.990791 1_555
Hf9 Sb2 3.049105 1_554
Hf9 Sb2 3.049105 1_555
Cu0 Hf9 2.652700 1_545
Cu0 Hf6 2.652700 1_555
Cu0 Hf8 2.652700 1_455
Cu0 Hf5 2.652700 1_555
Cu0 Hf7 2.652700 1_555
Cu0 Hf4 2.652700 1_445
Cu1 Hf5 2.652700 1_554
Cu1 Hf6 2.652700 1_554
Cu1 Hf9 2.652700 1_545
Cu1 Hf8 2.652700 1_455
Cu1 Hf7 2.652700 1_555
Cu1 Hf4 2.652700 1_444
